# Generated by pormake.
# Topology whw, (6)-cn, num edge types: 1
# Building blocks:
#     Node 0, Type 0, BuildingBlock: KUMBUR_clean_sbu_0, # of connection points: 6
#     Node 1, Type 0, BuildingBlock: KUMBUR_clean_sbu_0, # of connection points: 6
#     Node 2, Type 0, BuildingBlock: KUMBUR_clean_sbu_0, # of connection points: 6
#     Node 3, Type 0, BuildingBlock: KUMBUR_clean_sbu_0, # of connection points: 6
#     Node 4, Type 0, BuildingBlock: KUMBUR_clean_sbu_0, # of connection points: 6
#     Node 5, Type 0, BuildingBlock: KUMBUR_clean_sbu_0, # of connection points: 6
#     Node 6, Type 0, BuildingBlock: KUMBUR_clean_sbu_0, # of connection points: 6
#     Node 7, Type 0, BuildingBlock: KUMBUR_clean_sbu_0, # of connection points: 6
#     Node 8, Type 0, BuildingBlock: KUMBUR_clean_sbu_0, # of connection points: 6
#     Node 9, Type 0, BuildingBlock: KUMBUR_clean_sbu_0, # of connection points: 6
#     Node 10, Type 0, BuildingBlock: KUMBUR_clean_sbu_0, # of connection points: 6
#     Node 11, Type 0, BuildingBlock: KUMBUR_clean_sbu_0, # of connection points: 6
#     Node 12, Type 0, BuildingBlock: KUMBUR_clean_sbu_0, # of connection points: 6
#     Node 13, Type 0, BuildingBlock: KUMBUR_clean_sbu_0, # of connection points: 6
#     Node 14, Type 0, BuildingBlock: KUMBUR_clean_sbu_0, # of connection points: 6
#     Node 15, Type 0, BuildingBlock: KUMBUR_clean_sbu_0, # of connection points: 6
#     Edge 16, Type (0, 0), BuildingBlock: MIFKUJ_clean_linker_0, # of connection points: 2
#     Edge 17, Type (0, 0), BuildingBlock: MIFKUJ_clean_linker_0, # of connection points: 2
#     Edge 18, Type (0, 0), BuildingBlock: MIFKUJ_clean_linker_0, # of connection points: 2
#     Edge 19, Type (0, 0), BuildingBlock: MIFKUJ_clean_linker_0, # of connection points: 2
#     Edge 20, Type (0, 0), BuildingBlock: MIFKUJ_clean_linker_0, # of connection points: 2
#     Edge 21, Type (0, 0), BuildingBlock: MIFKUJ_clean_linker_0, # of connection points: 2
#     Edge 22, Type (0, 0), BuildingBlock: MIFKUJ_clean_linker_0, # of connection points: 2
#     Edge 23, Type (0, 0), BuildingBlock: MIFKUJ_clean_linker_0, # of connection points: 2
#     Edge 24, Type (0, 0), BuildingBlock: MIFKUJ_clean_linker_0, # of connection points: 2
#     Edge 25, Type (0, 0), BuildingBlock: MIFKUJ_clean_linker_0, # of connection points: 2
#     Edge 26, Type (0, 0), BuildingBlock: MIFKUJ_clean_linker_0, # of connection points: 2
#     Edge 27, Type (0, 0), BuildingBlock: MIFKUJ_clean_linker_0, # of connection points: 2
#     Edge 28, Type (0, 0), BuildingBlock: MIFKUJ_clean_linker_0, # of connection points: 2
#     Edge 29, Type (0, 0), BuildingBlock: MIFKUJ_clean_linker_0, # of connection points: 2
#     Edge 30, Type (0, 0), BuildingBlock: MIFKUJ_clean_linker_0, # of connection points: 2
#     Edge 31, Type (0, 0), BuildingBlock: MIFKUJ_clean_linker_0, # of connection points: 2
#     Edge 32, Type (0, 0), BuildingBlock: MIFKUJ_clean_linker_0, # of connection points: 2
#     Edge 33, Type (0, 0), BuildingBlock: MIFKUJ_clean_linker_0, # of connection points: 2
#     Edge 34, Type (0, 0), BuildingBlock: MIFKUJ_clean_linker_0, # of connection points: 2
#     Edge 35, Type (0, 0), BuildingBlock: MIFKUJ_clean_linker_0, # of connection points: 2
#     Edge 36, Type (0, 0), BuildingBlock: MIFKUJ_clean_linker_0, # of connection points: 2
#     Edge 37, Type (0, 0), BuildingBlock: MIFKUJ_clean_linker_0, # of connection points: 2
#     Edge 38, Type (0, 0), BuildingBlock: MIFKUJ_clean_linker_0, # of connection points: 2
#     Edge 39, Type (0, 0), BuildingBlock: MIFKUJ_clean_linker_0, # of connection points: 2
#     Edge 40, Type (0, 0), BuildingBlock: MIFKUJ_clean_linker_0, # of connection points: 2
#     Edge 41, Type (0, 0), BuildingBlock: MIFKUJ_clean_linker_0, # of connection points: 2
#     Edge 42, Type (0, 0), BuildingBlock: MIFKUJ_clean_linker_0, # of connection points: 2
#     Edge 43, Type (0, 0), BuildingBlock: MIFKUJ_clean_linker_0, # of connection points: 2
#     Edge 44, Type (0, 0), BuildingBlock: MIFKUJ_clean_linker_0, # of connection points: 2
#     Edge 45, Type (0, 0), BuildingBlock: MIFKUJ_clean_linker_0, # of connection points: 2
#     Edge 46, Type (0, 0), BuildingBlock: MIFKUJ_clean_linker_0, # of connection points: 2
#     Edge 47, Type (0, 0), BuildingBlock: MIFKUJ_clean_linker_0, # of connection points: 2
#     Edge 48, Type (0, 0), BuildingBlock: MIFKUJ_clean_linker_0, # of connection points: 2
#     Edge 49, Type (0, 0), BuildingBlock: MIFKUJ_clean_linker_0, # of connection points: 2
#     Edge 50, Type (0, 0), BuildingBlock: MIFKUJ_clean_linker_0, # of connection points: 2
#     Edge 51, Type (0, 0), BuildingBlock: MIFKUJ_clean_linker_0, # of connection points: 2
#     Edge 52, Type (0, 0), BuildingBlock: MIFKUJ_clean_linker_0, # of connection points: 2
#     Edge 53, Type (0, 0), BuildingBlock: MIFKUJ_clean_linker_0, # of connection points: 2
#     Edge 54, Type (0, 0), BuildingBlock: MIFKUJ_clean_linker_0, # of connection points: 2
#     Edge 55, Type (0, 0), BuildingBlock: MIFKUJ_clean_linker_0, # of connection points: 2
#     Edge 56, Type (0, 0), BuildingBlock: MIFKUJ_clean_linker_0, # of connection points: 2
#     Edge 57, Type (0, 0), BuildingBlock: MIFKUJ_clean_linker_0, # of connection points: 2
#     Edge 58, Type (0, 0), BuildingBlock: MIFKUJ_clean_linker_0, # of connection points: 2
#     Edge 59, Type (0, 0), BuildingBlock: MIFKUJ_clean_linker_0, # of connection points: 2
#     Edge 60, Type (0, 0), BuildingBlock: MIFKUJ_clean_linker_0, # of connection points: 2
#     Edge 61, Type (0, 0), BuildingBlock: MIFKUJ_clean_linker_0, # of connection points: 2
#     Edge 62, Type (0, 0), BuildingBlock: MIFKUJ_clean_linker_0, # of connection points: 2
#     Edge 63, Type (0, 0), BuildingBlock: MIFKUJ_clean_linker_0, # of connection points: 2
# Relax obj value: 0.290
# Max RMSD: 0.244
# Mean RMSD: 0.207
data_MOF--net-whw--node1-KUMBUR_clean_sbu_0--edge1-MIFKUJ_clean_linker_0
_symmetry_space_group_name_H-M    P1
_symmetry_Int_Tables_number       1
_symmetry_cell_setting            triclinic
loop_
_symmetry_equiv_pos_as_xyz
'x, y, z'
_cell_length_a     60.708305
_cell_length_b     62.146406
_cell_length_c     39.298559
_cell_angle_alpha  98.69638
_cell_angle_beta   89.942874
_cell_angle_gamma 90.004894
loop_
_atom_site_label
_atom_site_type_symbol
_atom_site_fract_x
_atom_site_fract_y
_atom_site_fract_z
_atom_type_partial_charge
Tb0 Tb 0.04894 0.12874 0.22108 0.0
C1 C 0.95206 0.15501 0.2296 0.0
C2 C 0.93729 0.12291 0.24944 0.0
C3 C 0.91525 0.15586 0.25381 0.0
C4 C 0.95433 0.13349 0.23411 0.0
C5 C 0.93269 0.16662 0.24008 0.0
C6 C 0.91763 0.13414 0.25892 0.0
C7 C 0.94883 0.19822 0.2208 0.0
N8 N 0.96897 0.16457 0.21508 0.0
C9 C 0.96746 0.18582 0.20984 0.0
C10 C 0.9313 0.18855 0.23586 0.0
Tb11 Tb -0.0034 0.14169 0.19303 0.0
N12 N 0.97331 0.12301 0.22362 0.0
C13 C 0.97609 0.10163 0.22706 0.0
C14 C 0.94037 0.10124 0.25412 0.0
C15 C 0.95989 0.09058 0.24293 0.0
H16 H 0.98064 0.19315 0.19702 0.0
H17 H 0.96233 0.07373 0.246 0.0
H18 H 0.90413 0.12613 0.26999 0.0
H19 H 0.94783 0.21508 0.217 0.0
H20 H 0.99078 0.09299 0.2177 0.0
H21 H 0.10121 0.20128 0.23436 0.0
H22 H 0.92771 0.09256 0.26596 0.0
H23 H 0.06502 0.08068 0.17771 0.0
H24 H 0.07728 0.17448 0.25528 0.0
H25 H 0.08364 0.06701 0.12431 0.0
H26 H 0.89984 0.1642 0.26043 0.0
H27 H 0.11678 0.19377 0.17566 0.0
H28 H 0.12224 0.16719 0.12169 0.0
H29 H 0.91673 0.19807 0.24385 0.0
H30 H 0.1166 0.1303 0.09026 0.0
N31 N 0.07469 0.15383 0.20682 0.0
C32 C 0.08191 0.17181 0.2286 0.0
C33 C 0.10528 0.18238 0.18425 0.0
C34 C 0.10035 0.16265 0.16367 0.0
C35 C 0.0964 0.18673 0.21724 0.0
C36 C 0.0849 0.14855 0.17587 0.0
H37 H 0.10251 0.09245 0.09112 0.0
N38 N 0.06852 0.11427 0.17256 0.0
C39 C 0.08255 0.08434 0.13238 0.0
C40 C 0.08143 0.12808 0.15784 0.0
C41 C 0.07115 0.09235 0.16241 0.0
C42 C 0.0932 0.09875 0.114 0.0
C43 C 0.09366 0.12085 0.12762 0.0
O44 O 0.05797 0.09963 0.23822 0.0
O45 O 0.01384 0.12885 0.23357 0.0
O46 O 0.00526 0.16906 0.23165 0.0
O47 O 0.0415 0.16198 0.24737 0.0
O48 O 0.03499 0.13309 0.27394 0.0
O49 O 0.07863 0.128 0.24808 0.0
O50 O 0.98062 0.15453 0.15304 0.0
O51 O 0.03116 0.13905 0.17789 0.0
O52 O 0.03241 0.09838 0.19732 0.0
O53 O 0.00861 0.1121 0.16092 0.0
O54 O 0.01469 0.16717 0.1725 0.0
O55 O 0.97902 0.12015 0.1573 0.0
C56 C 0.01421 0.13176 0.26688 0.0
C57 C 0.07802 0.10434 0.28993 0.0
C58 C 0.08783 0.11707 0.3494 0.0
C59 C 0.08611 0.12075 0.3153 0.0
C60 C 0.08174 0.09686 0.35825 0.0
C61 C 0.07238 0.084 0.29892 0.0
C62 C 0.07421 0.08034 0.33297 0.0
C63 C 0.02348 0.17425 0.24946 0.0
C64 C 0.07532 0.10825 0.25421 0.0
C65 C 0.10745 0.13544 0.11378 0.0
C66 C 0.11079 0.15636 0.13181 0.0
C67 C 0.03319 0.15716 0.16638 0.0
C68 C 0.94902 0.13438 0.13156 0.0
C69 C 0.94315 0.11748 0.10587 0.0
C70 C 0.92214 0.11667 0.09147 0.0
C71 C 0.90604 0.13158 0.10615 0.0
C72 C 0.93317 0.1496 0.14554 0.0
C73 C 0.91152 0.14775 0.13351 0.0
C74 C 0.0202 0.09581 0.16921 0.0
C75 C 0.97221 0.13563 0.14103 0.0
H76 H 0.09064 0.13653 0.30887 0.0
H77 H 0.08302 0.09385 0.38461 0.0
H78 H 0.06639 0.071 0.27966 0.0
H79 H 0.0697 0.06469 0.33979 0.0
H80 H 0.95557 0.10575 0.09535 0.0
H81 H 0.88966 0.13163 0.0953 0.0
H82 H 0.93745 0.16308 0.16494 0.0
H83 H 0.89926 0.15952 0.1442 0.0
Tb84 Tb 0.11532 0.72711 0.37933 0.0
C85 C 0.15664 0.64105 0.42074 0.0
C86 C 0.13248 0.61093 0.40106 0.0
C87 C 0.17183 0.60474 0.40455 0.0
C88 C 0.13595 0.63337 0.41202 0.0
C89 C 0.17478 0.62673 0.41846 0.0
C90 C 0.15065 0.59683 0.39581 0.0
C91 C 0.19639 0.6561 0.44877 0.0
N92 N 0.15854 0.66225 0.43477 0.0
C93 C 0.1779 0.66967 0.4502 0.0
C94 C 0.19498 0.63468 0.43205 0.0
Tb95 Tb 0.12757 0.68373 0.43541 0.0
N96 N 0.11895 0.64749 0.41848 0.0
C97 C 0.09792 0.6395 0.41905 0.0
C98 C 0.11087 0.60315 0.39816 0.0
C99 C 0.09354 0.6174 0.40832 0.0
H100 H 0.17949 0.68618 0.46302 0.0
H101 H 0.07676 0.61146 0.4075 0.0
H102 H 0.14837 0.57961 0.38682 0.0
H103 H 0.21175 0.66225 0.46033 0.0
H104 H 0.08411 0.65017 0.42623 0.0
H105 H 0.18649 0.77891 0.41378 0.0
H106 H 0.10746 0.58604 0.38988 0.0
H107 H 0.06185 0.74014 0.37483 0.0
H108 H 0.16798 0.74597 0.38715 0.0
H109 H 0.03797 0.77143 0.39633 0.0
H110 H 0.18561 0.59353 0.40206 0.0
H111 H 0.16496 0.81043 0.44166 0.0
H112 H 0.12814 0.82747 0.45628 0.0
H113 H 0.2093 0.6242 0.431 0.0
H114 H 0.08777 0.82535 0.45212 0.0
N115 N 0.13535 0.75767 0.40038 0.0
C116 C 0.15787 0.75916 0.39919 0.0
C117 C 0.15649 0.79582 0.42997 0.0
C118 C 0.1335 0.79471 0.42971 0.0
C119 C 0.16869 0.77807 0.41427 0.0
C120 C 0.12325 0.77525 0.41432 0.0
H121 H 0.05406 0.80465 0.42963 0.0
N122 N 0.09116 0.75511 0.39718 0.0
C123 C 0.05549 0.77227 0.40145 0.0
C124 C 0.10047 0.77392 0.41267 0.0
C125 C 0.06909 0.75462 0.38927 0.0
C126 C 0.06463 0.79098 0.42023 0.0
C127 C 0.08742 0.79219 0.42536 0.0
O128 O 0.09573 0.73006 0.33547 0.0
O129 O 0.11621 0.69376 0.38838 0.0
O130 O 0.15379 0.68189 0.39584 0.0
O131 O 0.149 0.71436 0.37146 0.0
O132 O 0.10433 0.69909 0.34225 0.0
O133 O 0.13018 0.73816 0.33651 0.0
O134 O 0.1331 0.68947 0.48958 0.0
O135 O 0.12579 0.71784 0.42817 0.0
O136 O 0.08879 0.72459 0.41655 0.0
O137 O 0.09284 0.68845 0.42244 0.0
O138 O 0.1489 0.70939 0.4609 0.0
O139 O 0.10315 0.67544 0.46976 0.0
C140 C 0.10968 0.68432 0.36003 0.0
C141 C 0.107 0.75789 0.30227 0.0
C142 C 0.09657 0.77683 0.25274 0.0
C143 C 0.10049 0.75714 0.26686 0.0
C144 C 0.09974 0.79672 0.27457 0.0
C145 C 0.10977 0.77835 0.3223 0.0
C146 C 0.10617 0.79744 0.30869 0.0
C147 C 0.16021 0.69655 0.37611 0.0
C148 C 0.1118 0.73796 0.31885 0.0
C149 C 0.09755 0.81128 0.44177 0.0
C150 C 0.12053 0.81251 0.44404 0.0
C151 C 0.14095 0.72553 0.44809 0.0
C152 C 0.11403 0.66633 0.52404 0.0
C153 C 0.09994 0.67 0.55363 0.0
C154 C 0.10046 0.65582 0.57901 0.0
C155 C 0.11492 0.63799 0.5738 0.0
C156 C 0.12798 0.64817 0.51998 0.0
C157 C 0.12837 0.63417 0.54461 0.0
C158 C 0.08207 0.70708 0.42897 0.0
C159 C 0.11439 0.68132 0.49751 0.0
H160 H 0.09829 0.74154 0.25077 0.0
H161 H 0.09738 0.81205 0.26506 0.0
H162 H 0.11514 0.77969 0.34862 0.0
H163 H 0.10853 0.81301 0.32477 0.0
H164 H 0.08898 0.68389 0.55717 0.0
H165 H 0.11576 0.62685 0.59247 0.0
H166 H 0.13868 0.64486 0.49774 0.0
H167 H 0.1393 0.62025 0.54114 0.0
Tb168 Tb 0.45828 0.86496 0.63677 0.0
C169 C 0.55549 0.83741 0.6413 0.0
C170 C 0.57349 0.87049 0.66736 0.0
C171 C 0.59157 0.8356 0.66747 0.0
C172 C 0.55508 0.85964 0.65089 0.0
C173 C 0.57365 0.82504 0.6496 0.0
C174 C 0.59158 0.85832 0.67608 0.0
C175 C 0.55555 0.79291 0.6203 0.0
N176 N 0.53809 0.82793 0.62344 0.0
C177 C 0.53812 0.80593 0.61222 0.0
C178 C 0.57342 0.8025 0.6391 0.0
Tb179 Tb 0.51169 0.85105 0.60784 0.0
N180 N 0.5371 0.87074 0.64255 0.0
C181 C 0.53741 0.893 0.64747 0.0
C182 C 0.5735 0.89324 0.67342 0.0
C183 C 0.55551 0.90455 0.66289 0.0
H184 H 0.52474 0.79839 0.59662 0.0
H185 H 0.55546 0.92217 0.66692 0.0
H186 H 0.60578 0.86634 0.68901 0.0
H187 H 0.55537 0.77554 0.61153 0.0
H188 H 0.52387 0.90212 0.63971 0.0
H189 H 0.42197 0.78428 0.60044 0.0
H190 H 0.58741 0.9022 0.68562 0.0
H191 H 0.4465 0.91263 0.6082 0.0
H192 H 0.44413 0.81111 0.63591 0.0
H193 H 0.42657 0.92435 0.56091 0.0
H194 H 0.60569 0.82641 0.67409 0.0
H195 H 0.401 0.79412 0.55138 0.0
H196 H 0.38975 0.82229 0.51616 0.0
H197 H 0.58707 0.79243 0.64488 0.0
H198 H 0.39145 0.85999 0.50487 0.0
N199 N 0.43776 0.83702 0.60661 0.0
C200 C 0.43601 0.81624 0.61429 0.0
C201 C 0.41109 0.80628 0.56675 0.0
C202 C 0.41212 0.82757 0.55957 0.0
C203 C 0.42298 0.80066 0.59431 0.0
C204 C 0.42567 0.84284 0.58018 0.0
H205 H 0.4053 0.89783 0.52084 0.0
N206 N 0.44046 0.87849 0.59279 0.0
C207 C 0.42703 0.90723 0.56334 0.0
C208 C 0.42712 0.86407 0.57309 0.0
C209 C 0.43916 0.90019 0.58967 0.0
C210 C 0.4149 0.89227 0.54105 0.0
C211 C 0.41437 0.87054 0.54622 0.0
O212 O 0.43978 0.89198 0.65908 0.0
O213 O 0.49325 0.86657 0.65277 0.0
O214 O 0.49905 0.82479 0.63317 0.0
O215 O 0.46696 0.83745 0.66238 0.0
O216 O 0.47056 0.873 0.69003 0.0
O217 O 0.42857 0.85916 0.66081 0.0
O218 O 0.53117 0.83601 0.56642 0.0
O219 O 0.47759 0.85217 0.59014 0.0
O220 O 0.47521 0.89495 0.63112 0.0
O221 O 0.5 0.88049 0.58975 0.0
O222 O 0.49553 0.82403 0.57602 0.0
O223 O 0.52524 0.87056 0.57452 0.0
C224 C 0.49165 0.87172 0.68613 0.0
C225 C 0.42066 0.8859 0.70867 0.0
C226 C 0.41624 0.87607 0.76584 0.0
C227 C 0.42079 0.87017 0.73079 0.0
C228 C 0.41194 0.89799 0.77895 0.0
C229 C 0.41612 0.90769 0.722 0.0
C230 C 0.41192 0.9137 0.75706 0.0
C231 C 0.48431 0.82455 0.65783 0.0
C232 C 0.42543 0.87982 0.67183 0.0
C233 C 0.40112 0.8553 0.52572 0.0
C234 C 0.40008 0.83386 0.53226 0.0
C235 C 0.47711 0.83332 0.57124 0.0
C236 C 0.55966 0.85948 0.55206 0.0
C237 C 0.56437 0.87857 0.53876 0.0
C238 C 0.58495 0.88173 0.52402 0.0
C239 C 0.60202 0.86696 0.52873 0.0
C240 C 0.57668 0.84494 0.55645 0.0
C241 C 0.59797 0.84914 0.54578 0.0
C242 C 0.48897 0.89707 0.60611 0.0
C243 C 0.53639 0.85466 0.55756 0.0
H244 H 0.424 0.85323 0.72076 0.0
H245 H 0.40861 0.90294 0.80609 0.0
H246 H 0.41594 0.92006 0.7053 0.0
H247 H 0.40856 0.93054 0.76726 0.0
H248 H 0.55119 0.89016 0.53785 0.0
H249 H 0.61822 0.86822 0.51784 0.0
H250 H 0.57351 0.83023 0.56731 0.0
H251 H 0.61112 0.83782 0.54883 0.0
Tb252 Tb 0.38627 0.24931 0.93073 0.0
C253 C 0.44384 0.33105 0.95314 0.0
C254 C 0.41742 0.35629 0.98307 0.0
C255 C 0.45627 0.36584 0.98347 0.0
C256 C 0.42233 0.33622 0.96272 0.0
C257 C 0.46115 0.34553 0.96415 0.0
C258 C 0.4344 0.37131 0.99248 0.0
C259 C 0.48654 0.31944 0.93374 0.0
N260 N 0.44776 0.31178 0.93291 0.0
C261 C 0.46875 0.30589 0.92268 0.0
C262 C 0.48272 0.33942 0.95446 0.0
Tb263 Tb 0.41714 0.29336 0.91134 0.0
N264 N 0.40625 0.32165 0.9518 0.0
C265 C 0.38477 0.32621 0.96052 0.0
C266 C 0.39553 0.36083 0.99272 0.0
C267 C 0.37915 0.34563 0.98159 0.0
H268 H 0.47167 0.29082 0.90557 0.0
H269 H 0.36213 0.34904 0.98864 0.0
H270 H 0.43075 0.38725 1.00658 0.0
H271 H 0.50312 0.31469 0.92569 0.0
H272 H 0.37184 0.31504 0.95125 0.0
H273 H 0.43434 0.1745 0.92827 0.0
H274 H 0.39109 0.37603 1.00855 0.0
H275 H 0.33845 0.25162 0.88881 0.0
H276 H 0.41814 0.20886 0.95539 0.0
H277 H 0.32287 0.23716 0.83297 0.0
H278 H 0.46925 0.37752 0.99117 0.0
H279 H 0.42428 0.15899 0.86875 0.0
H280 H 0.4009 0.16096 0.81705 0.0
H281 H 0.49648 0.35009 0.96247 0.0
H282 H 0.3712 0.179 0.78974 0.0
N283 N 0.40149 0.2154 0.90987 0.0
C284 C 0.41454 0.20333 0.92857 0.0
C285 C 0.41764 0.17462 0.88012 0.0
C286 C 0.40244 0.1856 0.86238 0.0
C287 C 0.42341 0.18336 0.91361 0.0
C288 C 0.39454 0.20617 0.87809 0.0
H289 H 0.34182 0.20747 0.79542 0.0
N290 N 0.36915 0.23483 0.88008 0.0
C291 C 0.33886 0.2317 0.84013 0.0
C292 C 0.37809 0.21645 0.86242 0.0
C293 C 0.34841 0.24071 0.87134 0.0
C294 C 0.34956 0.21488 0.81916 0.0
C295 C 0.36883 0.20626 0.83104 0.0
O296 O 0.35418 0.25155 0.95125 0.0
O297 O 0.3984 0.28177 0.95164 0.0
O298 O 0.43905 0.2775 0.94371 0.0
O299 O 0.42033 0.24494 0.94612 0.0
O300 O 0.39305 0.26116 0.98586 0.0
O301 O 0.37398 0.22303 0.9523 0.0
O302 O 0.43534 0.30556 0.87253 0.0
O303 O 0.40387 0.26166 0.88896 0.0
O304 O 0.36372 0.27505 0.92074 0.0
O305 O 0.38535 0.29117 0.88427 0.0
O306 O 0.43642 0.26795 0.88055 0.0
O307 O 0.40163 0.31556 0.88482 0.0
C308 C 0.39976 0.28068 0.98422 0.0
C309 C 0.35123 0.23386 1.00016 0.0
C310 C 0.35856 0.21999 0.05359 0.0
C311 C 0.3614 0.21878 1.01811 0.0
C312 C 0.34473 0.23607 0.07122 0.0
C313 C 0.33727 0.24978 1.01793 0.0
C314 C 0.33403 0.2508 0.05333 0.0
C315 C 0.43711 0.25828 0.954 0.0
C316 C 0.35612 0.23331 0.9634 0.0
C317 C 0.37788 0.1868 0.81407 0.0
C318 C 0.39466 0.17645 0.82975 0.0
C319 C 0.42115 0.25358 0.87308 0.0
C320 C 0.4231 0.34043 0.86137 0.0
C321 C 0.40844 0.34897 0.83974 0.0
C322 C 0.41227 0.3692 0.82957 0.0
C323 C 0.42967 0.38216 0.8449 0.0
C324 C 0.44074 0.35309 0.87605 0.0
C325 C 0.44359 0.37422 0.86853 0.0
C326 C 0.3658 0.28683 0.8959 0.0
C327 C 0.41898 0.31804 0.86643 0.0
H328 H 0.37179 0.2061 1.00451 0.0
H329 H 0.34247 0.23746 0.09881 0.0
H330 H 0.3291 0.26156 1.00459 0.0
H331 H 0.32343 0.26321 0.067 0.0
H332 H 0.39464 0.33909 0.82899 0.0
H333 H 0.43329 0.39783 0.83731 0.0
H334 H 0.45241 0.34668 0.8926 0.0
H335 H 0.4572 0.38406 0.87978 0.0
Tb336 Tb 0.04829 0.86722 0.86581 0.0
C337 C 0.95533 0.83689 0.84633 0.0
C338 C 0.94254 0.86612 0.81708 0.0
C339 C 0.92308 0.83152 0.80943 0.0
C340 C 0.95763 0.85782 0.83904 0.0
C341 C 0.93786 0.82357 0.83202 0.0
C342 C 0.92542 0.85276 0.80196 0.0
C343 C 0.9502 0.79613 0.86506 0.0
N344 N 0.96997 0.82975 0.8681 0.0
C345 C 0.96736 0.80982 0.8783 0.0
C346 C 0.93552 0.80287 0.84148 0.0
Tb347 Tb -0.00416 0.85428 0.89101 0.0
N348 N 0.97447 0.87016 0.85392 0.0
C349 C 0.97624 0.89156 0.84984 0.0
C350 C 0.94492 0.8877 0.81148 0.0
C351 C 0.96173 0.90053 0.8282 0.0
H352 H 0.97849 0.80457 0.89688 0.0
H353 H 0.96341 0.91738 0.82464 0.0
H354 H 0.91374 0.8588 0.78484 0.0
H355 H 0.94815 0.78059 0.87356 0.0
H356 H 0.98889 0.9017 0.86316 0.0
H357 H 0.10159 0.79702 0.87498 0.0
H358 H 0.93365 0.89472 0.79483 0.0
H359 H 0.06188 0.91834 0.89924 0.0
H360 H 0.07857 0.81985 0.84443 0.0
H361 H 0.07902 0.93712 0.95185 0.0
H362 H 0.90961 0.82151 0.79801 0.0
H363 H 0.11381 0.81018 0.9344 0.0
H364 H 0.11621 0.84095 0.98332 0.0
H365 H 0.9222 0.79218 0.83132 0.0
H366 H 0.10957 0.87959 1.0051 0.0
N367 N 0.07382 0.84492 0.88798 0.0
C368 C 0.08212 0.82557 0.87118 0.0
C369 C 0.10286 0.82012 0.92153 0.0
C370 C 0.09678 0.84097 0.93705 0.0
C371 C 0.09593 0.81262 0.88809 0.0
C372 C 0.08228 0.8532 0.91931 0.0
H373 H 0.09615 0.91587 0.99316 0.0
N374 N 0.06592 0.88644 0.91269 0.0
C375 C 0.07834 0.91951 0.94729 0.0
C376 C 0.07801 0.87469 0.93223 0.0
C377 C 0.0682 0.90867 0.91769 0.0
C378 C 0.08796 0.90747 0.97048 0.0
C379 C 0.0888 0.88479 0.9623 0.0
O380 O 0.05564 0.89369 0.84 0.0
O381 O 0.01375 0.86586 0.85008 0.0
O382 O 0.00771 0.82416 0.86071 0.0
O383 O 0.0436 0.83303 0.84487 0.0
O384 O 0.03655 0.85627 0.8124 0.0
O385 O 0.07979 0.86893 0.8451 0.0
O386 O 0.97622 0.84597 0.93134 0.0
O387 O 0.02985 0.85722 0.90898 0.0
O388 O 0.02968 0.8971 0.88603 0.0
O389 O 0.00936 0.88231 0.92495 0.0
O390 O 0.01202 0.83003 0.91687 0.0
O391 O 0.97754 0.87895 0.91933 0.0
C392 C 0.01559 0.85866 0.81766 0.0
C393 C 0.08328 0.88749 0.79746 0.0
C394 C 0.10029 0.87007 0.74471 0.0
C395 C 0.08995 0.86854 0.77597 0.0
C396 C 0.10322 0.89048 0.73418 0.0
C397 C 0.08615 0.90784 0.78677 0.0
C398 C 0.09595 0.90929 0.75507 0.0
C399 C 0.02702 0.81937 0.84569 0.0
C400 C 0.07545 0.8866 0.83236 0.0
C401 C 0.10158 0.87221 0.98155 0.0
C402 C 0.10548 0.85026 0.96902 0.0
C403 C 0.03094 0.83947 0.92219 0.0
C404 C 0.94608 0.86944 0.94734 0.0
C405 C 0.9406 0.8677 0.98093 0.0
C406 C 0.92039 0.87522 0.99425 0.0
C407 C 0.90511 0.88415 0.97364 0.0
C408 C 0.93089 0.87805 0.92603 0.0
C409 C 0.9103 0.88525 0.93925 0.0
C410 C 0.01856 0.89942 0.91512 0.0
C411 C 0.96906 0.8659 0.93858 0.0
H412 H 0.08781 0.85269 0.78393 0.0
H413 H 0.11093 0.89181 0.70971 0.0
H414 H 0.08119 0.92263 0.80326 0.0
H415 H 0.0982 0.92501 0.74691 0.0
H416 H 0.95261 0.86148 0.99753 0.0
H417 H 0.88934 0.89006 0.98405 0.0
H418 H 0.93517 0.87993 0.8999 0.0
H419 H 0.8986 0.89212 0.92312 0.0
Tb420 Tb 0.38284 0.74593 0.1546 0.0
C421 C 0.43857 0.66325 0.13382 0.0
C422 C 0.41281 0.637 0.10445 0.0
C423 C 0.45196 0.62882 0.10319 0.0
C424 C 0.41718 0.65737 0.12447 0.0
C425 C 0.45621 0.64898 0.12351 0.0
C426 C 0.43034 0.62288 0.09358 0.0
C427 C 0.48061 0.67453 0.1573 0.0
N428 N 0.44192 0.68236 0.15484 0.0
C429 C 0.46253 0.68787 0.16753 0.0
C430 C 0.47744 0.65499 0.1352 0.0
Tb431 Tb 0.41067 0.70058 0.17452 0.0
N432 N 0.40062 0.67145 0.13538 0.0
C433 C 0.37921 0.66596 0.12764 0.0
C434 C 0.39092 0.63137 0.09627 0.0
C435 C 0.37405 0.64592 0.10793 0.0
H436 H 0.46496 0.70265 0.18551 0.0
H437 H 0.35706 0.64169 0.10183 0.0
H438 H 0.42731 0.60718 0.07815 0.0
H439 H 0.49689 0.67911 0.16702 0.0
H440 H 0.36599 0.67683 0.1366 0.0
H441 H 0.43686 0.81745 0.17009 0.0
H442 H 0.38687 0.61586 0.08104 0.0
H443 H 0.33245 0.74344 0.18837 0.0
H444 H 0.42255 0.78351 0.14099 0.0
H445 H 0.31122 0.76033 0.23707 0.0
H446 H 0.46522 0.61748 0.09539 0.0
H447 H 0.41905 0.83588 0.22284 0.0
H448 H 0.38834 0.8372 0.26467 0.0
H449 H 0.4914 0.64441 0.12813 0.0
H450 H 0.35462 0.82112 0.28403 0.0
N451 N 0.39897 0.77863 0.18006 0.0
C452 C 0.41563 0.78941 0.16572 0.0
C453 C 0.41328 0.81998 0.21112 0.0
C454 C 0.39509 0.81025 0.22422 0.0
C455 C 0.42347 0.80955 0.18159 0.0
C456 C 0.38833 0.78924 0.20829 0.0
H457 H 0.32601 0.79244 0.27446 0.0
N458 N 0.36231 0.76078 0.2021 0.0
C459 C 0.328 0.76553 0.23368 0.0
C460 C 0.36964 0.7799 0.2199 0.0
C461 C 0.34083 0.75495 0.2068 0.0
C462 C 0.33632 0.78371 0.25444 0.0
C463 C 0.35693 0.79169 0.24683 0.0
O464 O 0.35149 0.7475 0.13225 0.0
O465 O 0.39298 0.71267 0.13253 0.0
O466 O 0.43338 0.7134 0.1412 0.0
O467 O 0.41774 0.74755 0.14001 0.0
O468 O 0.39074 0.73506 0.10024 0.0
O469 O 0.37503 0.77352 0.13245 0.0
O470 O 0.4276 0.68936 0.21522 0.0
O471 O 0.39828 0.73282 0.19747 0.0
O472 O 0.35883 0.72038 0.16133 0.0
O473 O 0.37835 0.70313 0.1987 0.0
O474 O 0.43025 0.72547 0.2062 0.0
O475 O 0.3949 0.67768 0.19954 0.0
C476 C 0.39565 0.71483 0.1002 0.0
C477 C 0.34751 0.77033 0.09002 0.0
C478 C 0.35446 0.77513 1.03079 0.0
C479 C 0.36185 0.76931 0.06192 0.0
C480 C 0.33239 0.78175 1.02812 0.0
C481 C 0.32558 0.77672 0.0869 0.0
C482 C 0.31804 0.78235 0.05597 0.0
C483 C 0.43393 0.73317 0.13341 0.0
C484 C 0.35534 0.76654 0.12364 0.0
C485 C 0.3642 0.81198 0.26346 0.0
C486 C 0.38328 0.8212 0.25226 0.0
C487 C 0.41545 0.74021 0.21443 0.0
C488 C 0.41714 0.65353 0.2234 0.0
C489 C 0.40223 0.64328 0.24244 0.0
C490 C 0.4077 0.62371 0.2536 0.0
C491 C 0.42693 0.61266 0.24084 0.0
C492 C 0.43664 0.64288 0.21143 0.0
C493 C 0.44109 0.62209 0.21917 0.0
C494 C 0.35951 0.70796 0.1856 0.0
C495 C 0.41175 0.67581 0.21923 0.0
H496 H 0.37879 0.76439 0.06452 0.0
H497 H 0.3263 0.78703 1.00485 0.0
H498 H 0.31442 0.77777 0.10863 0.0
H499 H 0.30117 0.7876 0.05377 0.0
H500 H 0.38712 0.65165 0.25138 0.0
H501 H 0.43179 0.59757 0.24931 0.0
H502 H 0.44859 0.65066 0.19707 0.0
H503 H 0.45616 0.61384 0.21006 0.0
Tb504 Tb 0.46429 0.13398 0.45346 0.0
C505 C 0.55845 0.15714 0.43717 0.0
C506 C 0.57195 0.12469 0.4011 0.0
C507 C 0.59097 0.15909 0.40166 0.0
C508 C 0.55641 0.13514 0.42476 0.0
C509 C 0.57584 0.16934 0.4259 0.0
C510 C 0.58894 0.13688 0.38909 0.0
C511 C 0.56391 0.2001 0.46693 0.0
N512 N 0.54431 0.1662 0.46202 0.0
C513 C 0.54734 0.18714 0.47805 0.0
C514 C 0.5781 0.19122 0.4405 0.0
Tb515 Tb 0.5194 0.14296 0.48017 0.0
N516 N 0.54006 0.12372 0.43745 0.0
C517 C 0.53898 0.10159 0.42868 0.0
C518 C 0.5706 0.10212 0.3915 0.0
C519 C 0.55425 0.09048 0.4058 0.0
H520 H 0.5366 0.19397 0.49886 0.0
H521 H 0.55332 0.07296 0.39909 0.0
H522 H 0.60104 0.12914 0.37096 0.0
H523 H 0.56583 0.21685 0.47895 0.0
H524 H 0.52676 0.09228 0.43979 0.0
H525 H 0.41566 0.18794 0.54313 0.0
H526 H 0.58237 0.09348 0.37369 0.0
H527 H 0.45063 0.0819 0.42217 0.0
H528 H 0.43996 0.17824 0.49346 0.0
H529 H 0.43318 0.0511 0.44464 0.0
H530 H 0.60485 0.16796 0.39349 0.0
H531 H 0.40305 0.15955 0.57682 0.0
H532 H 0.40116 0.12007 0.58294 0.0
H533 H 0.59112 0.20119 0.43226 0.0
H534 H 0.40658 0.08212 0.55598 0.0
N535 N 0.44302 0.14499 0.5004 0.0
C536 C 0.43527 0.16577 0.50839 0.0
C537 C 0.41429 0.15531 0.55548 0.0
C538 C 0.42052 0.13366 0.545 0.0
C539 C 0.42122 0.17133 0.53649 0.0
C540 C 0.43465 0.12883 0.51636 0.0
H541 H 0.41771 0.05632 0.50367 0.0
N542 N 0.44726 0.10379 0.46929 0.0
C543 C 0.43445 0.06673 0.46087 0.0
C544 C 0.43722 0.10741 0.50057 0.0
C545 C 0.44435 0.08421 0.44826 0.0
C546 C 0.42594 0.0697 0.49424 0.0
C547 C 0.42638 0.09042 0.51394 0.0
O548 O 0.43078 0.12933 0.44218 0.0
O549 O 0.49834 0.13222 0.4371 0.0
O550 O 0.50952 0.16789 0.45073 0.0
O551 O 0.47154 0.16867 0.45867 0.0
O552 O 0.47597 0.1257 0.39925 0.0
O553 O 0.45064 0.14822 0.41265 0.0
O554 O 0.5411 0.15402 0.52078 0.0
O555 O 0.48546 0.14423 0.49932 0.0
O556 O 0.48164 0.10327 0.45242 0.0
O557 O 0.50443 0.11458 0.49782 0.0
O558 O 0.50683 0.16885 0.51906 0.0
O559 O 0.53887 0.11929 0.4988 0.0
C560 C 0.49681 0.1286 0.4042 0.0
C561 C 0.42468 0.12384 0.38282 0.0
C562 C 0.42165 0.11701 0.32059 0.0
C563 C 0.42741 0.13075 0.35088 0.0
C564 C 0.41373 0.09595 0.32232 0.0
C565 C 0.41559 0.10311 0.38423 0.0
C566 C 0.41061 0.08912 0.3541 0.0
C567 C 0.49007 0.17728 0.44939 0.0
C568 C 0.43208 0.1379 0.41426 0.0
C569 C 0.41468 0.09502 0.54502 0.0
C570 C 0.4116 0.11664 0.5604 0.0
C571 C 0.48697 0.1618 0.52123 0.0
C572 C 0.56577 0.12927 0.54347 0.0
C573 C 0.56271 0.11203 0.56207 0.0
C574 C 0.57977 0.10578 0.58237 0.0
C575 C 0.60013 0.11674 0.58325 0.0
C576 C 0.58593 0.14031 0.54483 0.0
C577 C 0.60314 0.13392 0.56454 0.0
C578 C 0.49325 0.09916 0.47875 0.0
C579 C 0.54867 0.1343 0.52015 0.0
H580 H 0.43353 0.14703 0.34973 0.0
H581 H 0.40953 0.08497 0.29913 0.0
H582 H 0.41238 0.09757 0.40853 0.0
H583 H 0.40408 0.07305 0.3554 0.0
H584 H 0.54698 0.10365 0.56107 0.0
H585 H 0.61343 0.11258 0.59942 0.0
H586 H 0.58849 0.15347 0.53002 0.0
H587 H 0.61876 0.14238 0.56553 0.0
Tb588 Tb 0.12048 0.26886 0.71043 0.0
C589 C 0.15726 0.3543 0.66183 0.0
C590 C 0.1342 0.38403 0.68781 0.0
C591 C 0.17268 0.39067 0.67601 0.0
C592 C 0.1372 0.36176 0.67488 0.0
C593 C 0.17516 0.36873 0.66149 0.0
C594 C 0.1522 0.39833 0.68913 0.0
C595 C 0.19592 0.3392 0.62971 0.0
N596 N 0.15892 0.333 0.64803 0.0
C597 C 0.17765 0.32557 0.6305 0.0
C598 C 0.19481 0.36079 0.64575 0.0
Tb599 Tb 0.12843 0.31154 0.65262 0.0
N600 N 0.12031 0.34738 0.67335 0.0
C601 C 0.0994 0.3548 0.68155 0.0
C602 C 0.11311 0.39135 0.69809 0.0
C603 C 0.09557 0.37671 0.69436 0.0
H604 H 0.17892 0.30896 0.61795 0.0
H605 H 0.07907 0.38223 0.70138 0.0
H606 H 0.1503 0.41541 0.69942 0.0
H607 H 0.21086 0.33303 0.61668 0.0
H608 H 0.08545 0.34398 0.67888 0.0
H609 H 0.20041 0.23033 0.68004 0.0
H610 H 0.1101 0.40831 0.70808 0.0
H611 H 0.07036 0.24653 0.7096 0.0
H612 H 0.17631 0.25943 0.70455 0.0
H613 H 0.05272 0.21178 0.68613 0.0
H614 H 0.18631 0.40196 0.67638 0.0
H615 H 0.18516 0.1952 0.65258 0.0
H616 H 0.15245 0.17167 0.63842 0.0
H617 H 0.20897 0.37132 0.64501 0.0
H618 H 0.11225 0.16688 0.63747 0.0
N619 N 0.14611 0.24239 0.68995 0.0
C620 C 0.16858 0.24484 0.69218 0.0
C621 C 0.1741 0.20824 0.66298 0.0
C622 C 0.15131 0.20537 0.66174 0.0
C623 C 0.18274 0.22803 0.67841 0.0
C624 C 0.13755 0.22292 0.67536 0.0
H625 H 0.07497 0.18177 0.65502 0.0
N626 N 0.1022 0.23717 0.68943 0.0
C627 C 0.07019 0.21401 0.68237 0.0
C628 C 0.11491 0.22028 0.67492 0.0
C629 C 0.08029 0.23374 0.69546 0.0
C630 C 0.08278 0.19714 0.66482 0.0
C631 C 0.10551 0.1999 0.66179 0.0
O632 O 0.10022 0.26333 0.75236 0.0
O633 O 0.12085 0.3025 0.70296 0.0
O634 O 0.15772 0.31355 0.6861 0.0
O635 O 0.15202 0.28633 0.72179 0.0
O636 O 0.10398 0.29498 0.74484 0.0
O637 O 0.13515 0.25855 0.75406 0.0
O638 O 0.12838 0.30229 0.59778 0.0
O639 O 0.12659 0.27739 0.65955 0.0
O640 O 0.09173 0.27102 0.67724 0.0
O641 O 0.09454 0.30687 0.66868 0.0
O642 O 0.14874 0.28574 0.62487 0.0
O643 O 0.10533 0.32493 0.62128 0.0
C644 C 0.11064 0.31069 0.72973 0.0
C645 C 0.11284 0.23623 0.78562 0.0
C646 C 0.102 0.21605 0.83348 0.0
C647 C 0.10529 0.23614 0.82031 0.0
C648 C 0.10669 0.19657 0.81144 0.0
C649 C 0.11742 0.21618 0.76538 0.0
C650 C 0.11428 0.19667 0.77802 0.0
C651 C 0.16387 0.30195 0.71041 0.0
C652 C 0.11643 0.25676 0.77006 0.0
C653 C 0.11915 0.18262 0.64764 0.0
C654 C 0.142 0.18534 0.6479 0.0
C655 C 0.14089 0.26962 0.63799 0.0
C656 C 0.11377 0.32779 0.56252 0.0
C657 C 0.09916 0.32525 0.53313 0.0
C658 C 0.10151 0.33854 0.50631 0.0
C659 C 0.11846 0.35408 0.50993 0.0
C660 C 0.13021 0.34372 0.56431 0.0
C661 C 0.1325 0.35664 0.5384 0.0
C662 C 0.08378 0.2883 0.66525 0.0
C663 C 0.11198 0.31465 0.59197 0.0
H664 H 0.1018 0.25142 0.8366 0.0
H665 H 0.10478 0.18099 0.82031 0.0
H666 H 0.12378 0.21552 0.73968 0.0
H667 H 0.11792 0.18141 0.76178 0.0
H668 H 0.08635 0.31301 0.531 0.0
H669 H 0.1209 0.36443 0.49039 0.0
H670 H 0.14138 0.34626 0.58602 0.0
H671 H 0.14537 0.36882 0.5404 0.0
Tb672 Tb 0.88786 0.24673 0.65353 0.0
C673 C 0.94218 0.1643 0.62598 0.0
C674 C 0.91549 0.14155 0.59165 0.0
C675 C 0.9538 0.13024 0.59227 0.0
C676 C 0.92071 0.16049 0.61466 0.0
C677 C 0.95905 0.14944 0.61433 0.0
C678 C 0.93205 0.12629 0.58105 0.0
C679 C 0.9846 0.1725 0.65018 0.0
N680 N 0.94632 0.18216 0.64939 0.0
C681 C 0.96714 0.18626 0.66213 0.0
C682 C 0.98053 0.15392 0.62627 0.0
Tb683 Tb 0.91593 0.2009 0.67114 0.0
N684 N 0.90484 0.17489 0.62729 0.0
C685 C 0.88329 0.17112 0.61812 0.0
C686 C 0.89361 0.13808 0.58109 0.0
C687 C 0.87745 0.153 0.59431 0.0
H688 H 0.9702 0.2001 0.68176 0.0
H689 H 0.86041 0.15026 0.58684 0.0
H690 H 0.92805 0.11119 0.5647 0.0
H691 H 0.00108 0.17594 0.66002 0.0
H692 H 0.87051 0.18198 0.62923 0.0
H693 H 0.94188 0.31798 0.6635 0.0
H694 H 0.88897 0.12375 0.56328 0.0
H695 H 0.83931 0.24568 0.69382 0.0
H696 H 0.92245 0.28646 0.63266 0.0
H697 H 0.82289 0.26078 0.74883 0.0
H698 H 0.96635 0.11815 0.58439 0.0
H699 H 0.93303 0.33143 0.72435 0.0
H700 H 0.90787 0.33004 0.77444 0.0
H701 H 0.99399 0.14298 0.61764 0.0
H702 H 0.87464 0.31484 0.79754 0.0
N703 N 0.90507 0.27912 0.67714 0.0
C704 C 0.91925 0.29098 0.65988 0.0
C705 C 0.92498 0.31692 0.71132 0.0
C706 C 0.90826 0.30676 0.72739 0.0
C707 C 0.93003 0.30936 0.67703 0.0
C708 C 0.89838 0.28781 0.70932 0.0
H709 H 0.84264 0.28916 0.7881 0.0
N710 N 0.87043 0.26149 0.70385 0.0
C711 C 0.83934 0.26562 0.74251 0.0
C712 C 0.88009 0.279 0.72274 0.0
C713 C 0.84925 0.25634 0.71168 0.0
C714 C 0.85043 0.28174 0.76439 0.0
C715 C 0.87067 0.28926 0.75399 0.0
O716 O 0.85579 0.24512 0.63357 0.0
O717 O 0.8987 0.2141 0.63117 0.0
O718 O 0.94048 0.21809 0.64559 0.0
O719 O 0.92184 0.24974 0.63645 0.0
O720 O 0.89648 0.23619 0.59838 0.0
O721 O 0.8757 0.27371 0.63337 0.0
O722 O 0.93138 0.18578 0.70951 0.0
O723 O 0.90379 0.23275 0.69528 0.0
O724 O 0.86433 0.22127 0.66204 0.0
O725 O 0.88497 0.20567 0.69981 0.0
O726 O 0.93591 0.22419 0.70456 0.0
O727 O 0.89806 0.17753 0.69166 0.0
C728 C 0.90177 0.2161 0.59922 0.0
C729 C 0.85212 0.26325 0.58613 0.0
C730 C 0.86264 0.27043 0.5296 0.0
C731 C 0.86631 0.27291 0.56489 0.0
C732 C 0.84446 0.25846 0.51515 0.0
C733 C 0.83361 0.25168 0.57181 0.0
C734 C 0.82983 0.24931 0.53637 0.0
C735 C 0.93945 0.23708 0.63446 0.0
C736 C 0.85761 0.26369 0.62249 0.0
C737 C 0.88133 0.30713 0.77315 0.0
C738 C 0.90025 0.31574 0.76001 0.0
C739 C 0.92128 0.23922 0.71224 0.0
C740 C 0.91593 0.15176 0.71825 0.0
C741 C 0.90796 0.14794 0.74972 0.0
C742 C 0.90622 0.12688 0.75717 0.0
C743 C 0.91205 0.10917 0.7322 0.0
C744 C 0.92176 0.13427 0.69298 0.0
C745 C 0.91983 0.11294 0.70008 0.0
C746 C 0.86568 0.20969 0.68723 0.0
C747 C 0.91386 0.17404 0.7123 0.0
H748 H 0.88076 0.2818 0.57544 0.0
H749 H 0.84151 0.25643 0.48767 0.0
H750 H 0.8224 0.2441 0.58789 0.0
H751 H 0.81572 0.24018 0.52533 0.0
H752 H 0.90255 0.1616 0.76849 0.0
H753 H 0.91097 0.09265 0.73773 0.0
H754 H 0.92729 0.13693 0.66792 0.0
H755 H 0.92429 0.09936 0.68069 0.0
Tb756 Tb 0.62053 0.76786 0.2082 0.0
C757 C 0.66555 0.85328 0.1736 0.0
C758 C 0.64445 0.88321 0.2039 0.0
C759 C 0.68363 0.88766 0.19477 0.0
C760 C 0.6459 0.86145 0.18738 0.0
C761 C 0.68456 0.86651 0.17622 0.0
C762 C 0.66357 0.89601 0.20861 0.0
C763 C 0.70326 0.83792 0.13888 0.0
N764 N 0.66567 0.83279 0.15571 0.0
C765 C 0.68401 0.82542 0.13704 0.0
C766 C 0.70367 0.85839 0.15907 0.0
Tb767 Tb 0.63334 0.81321 0.15647 0.0
N768 N 0.62782 0.84864 0.18193 0.0
C769 C 0.60737 0.85756 0.18888 0.0
C770 C 0.62371 0.89177 0.21363 0.0
C771 C 0.60503 0.87906 0.20518 0.0
H772 H 0.68428 0.80985 0.12079 0.0
H773 H 0.5888 0.88572 0.21145 0.0
H774 H 0.66286 0.91264 0.22172 0.0
H775 H 0.71777 0.83174 0.12462 0.0
H776 H 0.59271 0.84805 0.18267 0.0
H777 H 0.68988 0.71403 0.16786 0.0
H778 H 0.62187 0.9084 0.22635 0.0
H779 H 0.56602 0.75817 0.20782 0.0
H780 H 0.67316 0.74829 0.19142 0.0
H781 H 0.54122 0.72746 0.18778 0.0
H782 H 0.69812 0.89795 0.19748 0.0
H783 H 0.66689 0.68197 0.14756 0.0
H784 H 0.62956 0.66566 0.13768 0.0
H785 H 0.71859 0.86804 0.16034 0.0
H786 H 0.58937 0.66954 0.14146 0.0
N787 N 0.63973 0.73684 0.18586 0.0
C788 C 0.66223 0.73492 0.18355 0.0
C789 C 0.6591 0.69717 0.15839 0.0
C790 C 0.63622 0.69895 0.16072 0.0
C791 C 0.67212 0.71522 0.1698 0.0
C792 C 0.62682 0.71916 0.17487 0.0
H793 H 0.55643 0.69247 0.15951 0.0
N794 N 0.59523 0.74124 0.18877 0.0
C795 C 0.55878 0.7257 0.18376 0.0
C796 C 0.604 0.72149 0.17601 0.0
C797 C 0.57293 0.74307 0.19484 0.0
C798 C 0.56745 0.70593 0.16796 0.0
C799 C 0.59027 0.70348 0.16448 0.0
O800 O 0.5989 0.76724 0.2508 0.0
O801 O 0.62135 0.80224 0.203 0.0
O802 O 0.66163 0.81086 0.19115 0.0
O803 O 0.65522 0.77849 0.21553 0.0
O804 O 0.6183 0.79487 0.25119 0.0
O805 O 0.63043 0.75155 0.24964 0.0
O806 O 0.62796 0.8026 0.10259 0.0
O807 O 0.63036 0.77833 0.15927 0.0
O808 O 0.59415 0.77328 0.17091 0.0
O809 O 0.60014 0.80936 0.1755 0.0
O810 O 0.6544 0.78844 0.12887 0.0
O811 O 0.61598 0.83291 0.12537 0.0
C812 C 0.62134 0.8105 0.23411 0.0
C813 C 0.60217 0.73772 0.28534 0.0
C814 C 0.59217 0.71942 0.33667 0.0
C815 C 0.60204 0.73735 0.32228 0.0
C816 C 0.58179 0.70311 0.31343 0.0
C817 C 0.59242 0.72004 0.26453 0.0
C818 C 0.58211 0.70334 0.27818 0.0
C819 C 0.66759 0.7955 0.2099 0.0
C820 C 0.61219 0.75581 0.2675 0.0
C821 C 0.59967 0.68346 0.1506 0.0
C822 C 0.62256 0.68122 0.14865 0.0
C823 C 0.64562 0.77147 0.13846 0.0
C824 C 0.62251 0.82921 0.06416 0.0
C825 C 0.60636 0.8322 1.03815 0.0
C826 C 0.6121 0.84193 1.00829 0.0
C827 C 0.63439 0.84763 1.00503 0.0
C828 C 0.64418 0.83569 0.05916 0.0
C829 C 0.65002 0.84461 1.02994 0.0
C830 C 0.58848 0.79241 0.16255 0.0
C831 C 0.61733 0.81971 0.09669 0.0
H832 H 0.60986 0.75046 0.3393 0.0
H833 H 0.5734 0.68968 0.32254 0.0
H834 H 0.59266 0.71888 0.23728 0.0
H835 H 0.57439 0.69021 0.26107 0.0
H836 H 0.5895 0.8274 1.04119 0.0
H837 H 0.64 0.85436 0.98269 0.0
H838 H 0.65675 0.83378 0.078 0.0
H839 H 0.66696 0.84929 1.02652 0.0
Tb840 Tb 0.61967 0.22623 0.87386 0.0
C841 C 0.65725 0.13875 0.91616 0.0
C842 C 0.63275 0.10984 0.89209 0.0
C843 C 0.67142 0.10201 0.90016 0.0
C844 C 0.63668 0.13196 0.90494 0.0
C845 C 0.67483 0.12382 0.91476 0.0
C846 C 0.65037 0.09502 0.88882 0.0
C847 C 0.69709 0.15254 0.94539 0.0
N848 N 0.65967 0.15986 0.9304 0.0
C849 C 0.67909 0.16667 0.94633 0.0
C850 C 0.69506 0.13108 0.92908 0.0
Tb851 Tb 0.62964 0.18243 0.92898 0.0
N852 N 0.62019 0.14682 0.90873 0.0
C853 C 0.59887 0.13998 0.90309 0.0
C854 C 0.61115 0.10316 0.88405 0.0
C855 C 0.59409 0.11825 0.89021 0.0
H856 H 0.68112 0.18314 0.95911 0.0
H857 H 0.57722 0.11321 0.88484 0.0
H858 H 0.64776 0.07803 0.87855 0.0
H859 H 0.71251 0.15822 0.95731 0.0
H860 H 0.58532 0.1512 0.90742 0.0
H861 H 0.69606 0.26905 0.91181 0.0
H862 H 0.60742 0.08635 0.87401 0.0
H863 H 0.56837 0.24501 0.87117 0.0
H864 H 0.6742 0.23899 0.88311 0.0
H865 H 0.54794 0.27848 0.89394 0.0
H866 H 0.68477 0.09033 0.89847 0.0
H867 H 0.6781 0.3026 0.94026 0.0
H868 H 0.64332 0.32372 0.95477 0.0
H869 H 0.70899 0.12014 0.92855 0.0
H870 H 0.60305 0.3261 0.9509 0.0
N871 N 0.64295 0.25425 0.89598 0.0
C872 C 0.66553 0.25312 0.89537 0.0
C873 C 0.6681 0.28925 0.92783 0.0
C874 C 0.64516 0.29079 0.9273 0.0
C875 C 0.6783 0.27037 0.91166 0.0
C876 C 0.63288 0.27282 0.91105 0.0
H877 H 0.56739 0.30943 0.92806 0.0
N878 N 0.59893 0.25646 0.89374 0.0
C879 C 0.56539 0.27734 0.89899 0.0
C880 C 0.61015 0.27396 0.90984 0.0
C881 C 0.57703 0.25843 0.88614 0.0
C882 C 0.57642 0.29476 0.91824 0.0
C883 C 0.59915 0.29341 0.92326 0.0
O884 O 0.60039 0.22938 0.82989 0.0
O885 O 0.62123 0.19235 0.87969 0.0
O886 O 0.65762 0.1808 0.89285 0.0
O887 O 0.65193 0.21044 0.86192 0.0
O888 O 0.60122 0.20046 0.84154 0.0
O889 O 0.63454 0.23819 0.83157 0.0
O890 O 0.63393 0.18791 0.98375 0.0
O891 O 0.62821 0.21673 0.92339 0.0
O892 O 0.59256 0.22469 0.91027 0.0
O893 O 0.59537 0.18838 0.91663 0.0
O894 O 0.65155 0.2072 0.9549 0.0
O895 O 0.60468 0.17393 0.96216 0.0
C896 C 0.60945 0.18453 0.85459 0.0
C897 C 0.61075 0.25725 0.79672 0.0
C898 C 0.5994 0.27502 0.74647 0.0
C899 C 0.60506 0.25588 0.76092 0.0
C900 C 0.59958 0.29508 0.76837 0.0
C901 C 0.61096 0.27787 0.81692 0.0
C902 C 0.60534 0.29647 0.80298 0.0
C903 C 0.66373 0.19396 0.87064 0.0
C904 C 0.61631 0.23761 0.81357 0.0
C905 C 0.61124 0.31112 0.94011 0.0
C906 C 0.63419 0.30978 0.94223 0.0
C907 C 0.64339 0.22385 0.94377 0.0
C908 C 0.61438 0.16382 1.01642 0.0
C909 C 0.60357 0.16781 0.04964 0.0
C910 C 0.60304 0.15139 0.07201 0.0
C911 C 0.61268 0.13112 0.05923 0.0
C912 C 0.62408 0.14343 1.00628 0.0
C913 C 0.62308 0.12733 1.02725 0.0
C914 C 0.58506 0.20723 0.92211 0.0
C915 C 0.61501 0.17981 0.99087 0.0
H916 H 0.60483 0.24017 0.74469 0.0
H917 H 0.59536 0.30992 0.7585 0.0
H918 H 0.61558 0.27969 0.84368 0.0
H919 H 0.6055 0.31218 0.81922 0.0
H920 H 0.59595 0.18348 0.05802 0.0
H921 H 0.61211 0.11778 0.07402 0.0
H922 H 0.63223 0.13978 0.98157 0.0
H923 H 0.63041 0.11158 1.01851 0.0
Tb924 Tb 0.891 0.74748 0.42875 0.0
C925 C 0.94576 0.82673 0.47286 0.0
C926 C 0.91786 0.84784 0.50753 0.0
C927 C 0.95665 0.8563 0.51742 0.0
C928 C 0.92369 0.83091 0.481 0.0
C929 C 0.96243 0.83941 0.49102 0.0
C930 C 0.93445 0.86049 0.52567 0.0
C931 C 0.98939 0.81788 0.45555 0.0
N932 N 0.95086 0.80965 0.44819 0.0
C933 C 0.97231 0.80576 0.43821 0.0
C934 C 0.98444 0.83471 0.48219 0.0
Tb935 Tb 0.92128 0.79406 0.41828 0.0
N936 N 0.90803 0.81809 0.46338 0.0
C937 C 0.88616 0.8221 0.47004 0.0
C938 C 0.89553 0.85152 0.51513 0.0
C939 C 0.87963 0.83863 0.49623 0.0
H940 H 0.97617 0.79318 0.41686 0.0
H941 H 0.86231 0.84153 0.50163 0.0
H942 H 0.93027 0.87355 0.54617 0.0
H943 H 0.00634 0.81441 0.44808 0.0
H944 H 0.87367 0.81258 0.45542 0.0
H945 H 0.95123 0.6815 0.39348 0.0
H946 H 0.89039 0.86436 0.53537 0.0
H947 H 0.8398 0.75 0.39919 0.0
H948 H 0.93464 0.71049 0.43186 0.0
H949 H 0.81764 0.7328 0.35165 0.0
H950 H 0.96925 0.86618 0.53172 0.0
H951 H 0.93423 0.66787 0.3376 0.0
H952 H 0.90271 0.66841 0.29786 0.0
H953 H -0.00231 0.84417 0.49544 0.0
H954 H 0.866 0.68206 0.28664 0.0
N955 N 0.90926 0.71794 0.39658 0.0
C956 C 0.92731 0.70699 0.40677 0.0
C957 C 0.92708 0.68176 0.35385 0.0
C958 C 0.9076 0.69122 0.34469 0.0
C959 C 0.93675 0.68948 0.38526 0.0
C960 C 0.89897 0.70953 0.36659 0.0
H961 H 0.83376 0.70389 0.30902 0.0
N962 N 0.87022 0.73494 0.38095 0.0
C963 C 0.83505 0.72913 0.35241 0.0
C964 C 0.87882 0.71812 0.35884 0.0
C965 C 0.84815 0.73951 0.379 0.0
C966 C 0.8442 0.71307 0.32819 0.0
C967 C 0.86625 0.70741 0.33099 0.0
O968 O 0.86 0.74563 0.45194 0.0
O969 O 0.90239 0.779 0.4549 0.0
O970 O 0.94358 0.77446 0.44385 0.0
O971 O 0.92313 0.74359 0.45178 0.0
O972 O 0.89483 0.75675 0.48538 0.0
O973 O 0.8812 0.71742 0.44156 0.0
O974 O 0.94134 0.80792 0.3831 0.0
O975 O 0.90735 0.76394 0.38988 0.0
O976 O 0.86839 0.77367 0.41893 0.0
O977 O 0.89028 0.79473 0.38925 0.0
O978 O 0.93949 0.77168 0.37984 0.0
O979 O 0.91315 0.82494 0.40864 0.0
C980 C 0.90197 0.77644 0.487 0.0
C981 C 0.85495 0.71794 0.48571 0.0
C982 C 0.86257 0.70738 0.54136 0.0
C983 C 0.86989 0.7152 0.51175 0.0
C984 C 0.84012 0.70245 0.54478 0.0
C985 C 0.83262 0.71303 0.48933 0.0
C986 C 0.82524 0.70534 0.51886 0.0
C987 C 0.94126 0.75556 0.45492 0.0
C988 C 0.86233 0.72503 0.45392 0.0
C989 C 0.87533 0.69009 0.30843 0.0
C990 C 0.89614 0.68224 0.31496 0.0
C991 C 0.92413 0.75754 0.37118 0.0
C992 C 0.9291 0.84068 0.36453 0.0
C993 C 0.9104 0.84036 0.3441 0.0
C994 C 0.90727 0.8565 0.32355 0.0
C995 C 0.92314 0.87315 0.32393 0.0
C996 C 0.9449 0.85712 0.36474 0.0
C997 C 0.94186 0.87339 0.34446 0.0
C998 C 0.87066 0.78762 0.3969 0.0
C999 C 0.93066 0.82628 0.38992 0.0
H1000 H 0.88715 0.71903 0.50889 0.0
H1001 H 0.83416 0.69598 0.56717 0.0
H1002 H 0.82096 0.71495 0.46915 0.0
H1003 H 0.80803 0.70138 0.5215 0.0
H1004 H 0.89824 0.82766 0.34447 0.0
H1005 H 0.92159 0.88549 0.30736 0.0
H1006 H 0.95922 0.85769 0.38132 0.0
H1007 H 0.95403 0.88612 0.34452 0.0
Tb1008 Tb 0.54772 0.62076 0.72498 0.0
C1009 C 0.45428 0.65212 0.74475 0.0
C1010 C 0.43848 0.61937 0.76076 0.0
C1011 C 0.41835 0.65342 0.77219 0.0
C1012 C 0.45549 0.63006 0.74542 0.0
C1013 C 0.43572 0.66416 0.75821 0.0
C1014 C 0.4199 0.63118 0.77412 0.0
C1015 C 0.45207 0.69601 0.74018 0.0
N1016 N 0.47084 0.6616 0.72931 0.0
C1017 C 0.46991 0.68327 0.72669 0.0
C1018 C 0.43478 0.68637 0.75577 0.0
Tb1019 Tb 0.49649 0.63871 0.70075 0.0
N1020 N 0.47313 0.61902 0.73045 0.0
C1021 C 0.47462 0.59702 0.73014 0.0
C1022 C 0.44032 0.59702 0.76122 0.0
C1023 C 0.45854 0.58582 0.74594 0.0
H1024 H 0.48292 0.69055 0.71362 0.0
H1025 H 0.46003 0.56845 0.74577 0.0
H1026 H 0.40642 0.62316 0.78525 0.0
H1027 H 0.45143 0.71311 0.73781 0.0
H1028 H 0.48811 0.58783 0.71796 0.0
H1029 H 0.60064 0.6872 0.69818 0.0
H1030 H 0.42765 0.58822 0.77285 0.0
H1031 H 0.55755 0.56701 0.69816 0.0
H1032 H 0.57746 0.6678 0.73388 0.0
H1033 H 0.57403 0.54457 0.6482 0.0
H1034 H 0.40345 0.66202 0.78088 0.0
H1035 H 0.61285 0.66892 0.64111 0.0
H1036 H 0.61466 0.63484 0.5984 0.0
H1037 H 0.42065 0.69612 0.76522 0.0
H1038 H 0.60693 0.59572 0.58424 0.0
N1039 N 0.5728 0.6398 0.69631 0.0
C1040 C 0.58085 0.66009 0.70842 0.0
C1041 C 0.60183 0.66055 0.65644 0.0
C1042 C 0.59548 0.63903 0.64547 0.0
C1043 C 0.59488 0.67095 0.68848 0.0
C1044 C 0.58095 0.62888 0.66634 0.0
H1045 H 0.59221 0.56182 0.60298 0.0
N1046 N 0.5639 0.59739 0.68028 0.0
C1047 C 0.5744 0.56213 0.65016 0.0
C1048 C 0.57618 0.607 0.65791 0.0
C1049 C 0.56488 0.57511 0.67846 0.0
C1050 C 0.58457 0.57191 0.62468 0.0
C1051 C 0.58636 0.59457 0.62903 0.0
O1052 O 0.55878 0.59497 0.75003 0.0
O1053 O 0.51288 0.62392 0.73949 0.0
O1054 O 0.50948 0.66484 0.73841 0.0
O1055 O 0.54509 0.65397 0.75173 0.0
O1056 O 0.53425 0.62559 0.77881 0.0
O1057 O 0.57907 0.62345 0.747 0.0
O1058 O 0.48019 0.65526 0.66525 0.0
O1059 O 0.5306 0.63434 0.68299 0.0
O1060 O 0.52761 0.59274 0.70242 0.0
O1061 O 0.50729 0.60971 0.66546 0.0
O1062 O 0.51551 0.6639 0.68091 0.0
O1063 O 0.4771 0.62032 0.66332 0.0
C1064 C 0.51342 0.62679 0.77267 0.0
C1065 C 0.59088 0.60005 0.78582 0.0
C1066 C 0.61089 0.61242 0.83872 0.0
C1067 C 0.59618 0.61665 0.81292 0.0
C1068 C 0.62041 0.59163 0.83674 0.0
C1069 C 0.6003 0.57936 0.78454 0.0
C1070 C 0.61505 0.5752 0.80986 0.0
C1071 C 0.52849 0.66796 0.75515 0.0
C1072 C 0.57795 0.60419 0.75616 0.0
C1073 C 0.59935 0.60495 0.60683 0.0
C1074 C 0.60386 0.62719 0.61499 0.0
C1075 C 0.53312 0.6528 0.67211 0.0
C1076 C 0.44833 0.63794 0.63973 0.0
C1077 C 0.4437 0.62765 0.6068 0.0
C1078 C 0.42236 0.62741 0.59403 0.0
C1079 C 0.40511 0.63663 0.61519 0.0
C1080 C 0.43136 0.64775 0.66082 0.0
C1081 C 0.40968 0.64676 0.64868 0.0
C1082 C 0.51666 0.59204 0.67331 0.0
C1083 C 0.4712 0.63738 0.65008 0.0
H1084 H 0.58887 0.63265 0.81395 0.0
H1085 H 0.63209 0.58808 0.85598 0.0
H1086 H 0.59669 0.56655 0.76335 0.0
H1087 H 0.6225 0.55928 0.80847 0.0
H1088 H 0.45696 0.62007 0.59063 0.0
H1089 H 0.38841 0.63664 0.6055 0.0
H1090 H 0.43473 0.65624 0.68615 0.0
H1091 H 0.39651 0.65422 0.66494 0.0
Tb1092 Tb 0.96143 0.3566 0.12731 0.0
C1093 C 0.05986 0.34598 0.14303 0.0
C1094 C 0.06707 0.37798 0.18495 0.0
C1095 C 0.09203 0.34705 0.18001 0.0
C1096 C 0.05407 0.36675 0.15831 0.0
C1097 C 0.07913 0.33605 0.15323 0.0
C1098 C 0.08595 0.36793 0.19596 0.0
C1099 C 0.07218 0.30585 0.10813 0.0
N1100 N 0.0468 0.33568 0.11769 0.0
C1101 C 0.05285 0.31601 0.0997 0.0
C1102 C 0.08515 0.31564 0.1355 0.0
Tb1103 Tb 0.01752 0.35518 0.10294 0.0
N1104 N 0.03545 0.37574 0.14751 0.0
C1105 C 0.02965 0.39656 0.16083 0.0
C1106 C 0.06066 0.39895 0.19975 0.0
C1107 C 0.04196 0.40833 0.18743 0.0
H1108 H 0.04293 0.30834 0.07845 0.0
H1109 H 0.03704 0.42467 0.19834 0.0
H1110 H 0.09608 0.37625 0.21653 0.0
H1111 H 0.07723 0.29072 0.09302 0.0
H1112 H 0.0154 0.40406 0.15137 0.0
H1113 H 0.92335 0.29207 1.04032 0.0
H1114 H 0.07014 0.40809 0.22039 0.0
H1115 H 0.9401 0.40668 0.15316 0.0
H1116 H 0.94603 0.3076 0.08958 0.0
H1117 H 0.91673 0.43272 0.12829 0.0
H1118 H 0.10685 0.33967 0.18833 0.0
H1119 H 0.90451 0.31627 1.00518 0.0
H1120 H 0.89377 0.35415 0.99748 0.0
H1121 H 0.10004 0.30761 0.14209 0.0
H1122 H 0.89248 0.39302 1.02128 0.0
N1123 N 0.942 0.34046 0.08086 0.0
C1124 C 0.93855 0.31847 0.07406 0.0
C1125 C 0.91482 0.32325 1.02652 0.0
C1126 C 0.91655 0.34582 1.03583 0.0
C1127 C 0.92541 0.30953 0.0463 0.0
C1128 C 0.93018 0.35411 0.06387 0.0
H1129 H 0.90028 0.42217 0.07071 0.0
N1130 N 0.93977 0.38278 0.10781 0.0
C1131 C 0.92052 0.41705 0.11338 0.0
C1132 C 0.9294 0.37609 0.0774 0.0
C1133 C 0.93396 0.40234 0.12715 0.0
C1134 C 0.91142 0.4111 0.08078 0.0
C1135 C 0.91507 0.39017 0.06298 0.0
O1136 O 0.9282 0.36036 0.14122 0.0
O1137 O -0.00513 0.36171 0.1457 0.0
O1138 O 0.01277 0.32804 0.1301 0.0
O1139 O 0.97464 0.32343 0.12536 0.0
O1140 O 0.97107 0.36879 0.18126 0.0
O1141 O 0.9484 0.33773 0.1628 0.0
O1142 O 0.0388 0.34943 0.06039 0.0
O1143 O 0.98403 0.34997 0.08292 0.0
O1144 O 0.97399 0.38969 0.12872 0.0
O1145 O -0.00114 0.38141 0.08517 0.0
O1146 O 0.00809 0.328 0.06362 0.0
O1147 O 0.03203 0.38228 0.08662 0.0
C1148 C 0.99212 0.36656 0.17836 0.0
C1149 C 0.92331 0.35962 0.19951 0.0
C1150 C 0.92809 0.36548 0.26156 0.0
C1151 C 0.93401 0.35488 0.22888 0.0
C1152 C 0.91202 0.38202 0.2644 0.0
C1153 C 0.90717 0.37604 0.20275 0.0
C1154 C 0.90184 0.38738 0.23504 0.0
C1155 C 0.99454 0.31712 0.13378 0.0
C1156 C 0.92997 0.34856 0.16537 0.0
C1157 C 0.9033 0.38235 1.03295 0.0
C1158 C 0.90399 0.36019 1.01944 0.0
C1159 C 0.98757 0.33289 0.06088 0.0
C1160 C 0.06566 0.37696 0.05766 0.0
C1161 C 0.06824 0.39337 1.03763 0.0
C1162 C 0.08872 0.39714 1.02348 0.0
C1163 C 0.10747 0.38694 1.03489 0.0
C1164 C 0.08419 0.36649 0.0687 0.0
C1165 C 0.10518 0.37211 0.05821 0.0
C1166 C 0.9856 0.39531 0.10333 0.0
C1167 C 0.04309 0.3702 0.06253 0.0
H1168 H 0.94686 0.34269 0.22631 0.0
H1169 H 0.9066 0.39024 0.28924 0.0
H1170 H 0.89884 0.38027 0.1803 0.0
H1171 H 0.88943 0.40003 0.23738 0.0
H1172 H 0.0537 0.4016 1.02994 0.0
H1173 H 0.1236 0.38927 1.02425 0.0
H1174 H 0.08249 0.35372 0.08435 0.0
H1175 H 0.11955 0.36395 0.06638 0.0
Tb1176 Tb 0.5509 0.36953 0.36006 0.0
C1177 C 0.4535 0.33847 0.3552 0.0
C1178 C 0.43545 0.37239 0.34948 0.0
C1179 C 0.41544 0.33827 0.33608 0.0
C1180 C 0.4539 0.3609 0.35909 0.0
C1181 C 0.43439 0.32683 0.34332 0.0
C1182 C 0.41601 0.36102 0.33898 0.0
C1183 C 0.45488 0.29352 0.34341 0.0
N1184 N 0.47268 0.32811 0.35956 0.0
C1185 C 0.47355 0.30585 0.35417 0.0
C1186 C 0.43514 0.30407 0.3382 0.0
Tb1187 Tb 0.50058 0.3495 0.38516 0.0
N1188 N 0.47369 0.37081 0.36596 0.0
C1189 C 0.47603 0.3924 0.36347 0.0
C1190 C 0.43762 0.39465 0.34829 0.0
C1191 C 0.45808 0.40462 0.35491 0.0
H1192 H 0.48846 0.2977 0.35972 0.0
H1193 H 0.46014 0.4217 0.35296 0.0
H1194 H 0.40163 0.36958 0.33167 0.0
H1195 H 0.45566 0.27592 0.33966 0.0
H1196 H 0.4917 0.40035 0.36717 0.0
H1197 H 0.60403 0.29859 0.36466 0.0
H1198 H 0.42391 0.40407 0.34083 0.0
H1199 H 0.56049 0.42179 0.39423 0.0
H1200 H 0.57123 0.31621 0.3495 0.0
H1201 H 0.58349 0.44204 0.43824 0.0
H1202 H 0.40058 0.32963 0.32691 0.0
H1203 H 0.62975 0.31767 0.40733 0.0
H1204 H 0.63944 0.35081 0.44775 0.0
H1205 H 0.42063 0.29455 0.33011 0.0
H1206 H 0.63287 0.3893 0.46953 0.0
N1207 N 0.57794 0.34747 0.3794 0.0
C1208 C 0.58219 0.32605 0.36627 0.0
C1209 C 0.61531 0.3261 0.3999 0.0
C1210 C 0.61068 0.34743 0.41476 0.0
C1211 C 0.60099 0.31539 0.37557 0.0
C1212 C 0.59175 0.35793 0.40389 0.0
H1213 H 0.6118 0.42304 0.46728 0.0
N1214 N 0.57107 0.39015 0.4032 0.0
C1215 C 0.58455 0.42445 0.43329 0.0
C1216 C 0.58791 0.37968 0.41664 0.0
C1217 C 0.57074 0.41256 0.40908 0.0
C1218 C 0.60052 0.41369 0.44946 0.0
C1219 C 0.603 0.39125 0.44019 0.0
O1220 O 0.55767 0.39748 0.33772 0.0
O1221 O 0.51578 0.36594 0.34627 0.0
O1222 O 0.51194 0.32647 0.34057 0.0
O1223 O 0.54767 0.33758 0.32779 0.0
O1224 O 0.53717 0.36776 0.3078 0.0
O1225 O 0.58134 0.3713 0.33583 0.0
O1226 O 0.48664 0.32836 0.41664 0.0
O1227 O 0.53466 0.35543 0.40174 0.0
O1228 O 0.5319 0.39693 0.38742 0.0
O1229 O 0.50734 0.38024 0.41944 0.0
O1230 O 0.52252 0.32482 0.40065 0.0
O1231 O 0.4864 0.36331 0.43159 0.0
C1232 C 0.5164 0.36557 0.31304 0.0
C1233 C 0.57915 0.38955 0.28766 0.0
C1234 C 0.58608 0.37011 0.23041 0.0
C1235 C 0.58453 0.3703 0.26582 0.0
C1236 C 0.5822 0.38925 0.21646 0.0
C1237 C 0.57564 0.40875 0.27368 0.0
C1238 C 0.57712 0.40855 0.23815 0.0
C1239 C 0.53075 0.32394 0.32293 0.0
C1240 C 0.57619 0.3894 0.32467 0.0
C1241 C 0.62113 0.38053 0.45185 0.0
C1242 C 0.62496 0.35869 0.43921 0.0
C1243 C 0.53891 0.33713 0.41169 0.0
C1244 C 0.45683 0.34465 0.45072 0.0
C1245 C 0.45181 0.35909 0.48031 0.0
C1246 C 0.43057 0.36017 0.49388 0.0
C1247 C 0.41374 0.34751 0.47643 0.0
C1248 C 0.44027 0.33119 0.43416 0.0
C1249 C 0.41864 0.33307 0.44652 0.0
C1250 C 0.51902 0.39737 0.41449 0.0
C1251 C 0.4796 0.34464 0.4387 0.0
H1252 H 0.58725 0.35528 0.2761 0.0
H1253 H 0.58353 0.38933 0.18899 0.0
H1254 H 0.5715 0.42379 0.29019 0.0
H1255 H 0.57433 0.42336 0.22743 0.0
H1256 H 0.46473 0.36918 0.49352 0.0
H1257 H 0.39717 0.34799 0.48679 0.0
H1258 H 0.44398 0.31917 0.41214 0.0
H1259 H 0.40581 0.32289 0.43352 0.0
Tb1260 Tb 0.96156 0.63453 0.95673 0.0
C1261 C 0.0552 0.6684 0.94213 0.0
C1262 C 0.07002 0.64496 0.89257 0.0
C1263 C 0.08601 0.68069 0.91032 0.0
C1264 C 0.0546 0.64906 0.91953 0.0
C1265 C 0.07104 0.6844 0.93788 0.0
C1266 C 0.08553 0.66098 0.88774 0.0
C1267 C 0.05791 0.70543 0.99061 0.0
N1268 N 0.04096 0.67103 0.96919 0.0
C1269 C 0.04287 0.68887 0.99424 0.0
C1270 C 0.07193 0.70329 0.96216 0.0
Tb1271 Tb 0.01867 0.64157 0.97356 0.0
N1272 N 0.03931 0.6339 0.92473 0.0
C1273 C 0.03895 0.61402 0.90426 0.0
C1274 C 0.0697 0.62468 0.87176 0.0
C1275 C 0.05405 0.60918 0.87744 0.0
H1276 H 0.0325 0.69076 1.01676 0.0
H1277 H 0.05378 0.59337 0.86161 0.0
H1278 H 0.09743 0.65814 0.86696 0.0
H1279 H 0.05886 0.71974 1.01003 0.0
H1280 H 0.02715 0.60176 0.90859 0.0
H1281 H 0.90495 0.70344 0.97393 0.0
H1282 H 0.08178 0.62077 0.85183 0.0
H1283 H 0.94914 0.58366 0.96724 0.0
H1284 H 0.93429 0.68064 0.94541 0.0
H1285 H 0.92419 0.56506 1.00213 0.0
H1286 H 0.0984 0.69269 0.90681 0.0
H1287 H 0.88303 0.69057 1.01975 0.0
H1288 H 0.87201 0.65918 0.04798 0.0
H1289 H 0.08378 0.71601 0.95969 0.0
H1290 H 0.8777 0.62148 0.05729 0.0
N1291 N 0.93296 0.65693 0.97947 0.0
C1292 C 0.92642 0.6755 0.96728 0.0
C1293 C 0.89693 0.68102 1.00866 0.0
C1294 C 0.90142 0.66055 1.0175 0.0
C1295 C 0.90923 0.68832 0.98283 0.0
C1296 C 0.91993 0.64884 1.00274 0.0
H1297 H 0.89712 0.58624 1.04043 0.0
N1298 N 0.93896 0.61578 0.98909 0.0
C1299 C 0.92391 0.58265 1.00455 0.0
C1300 C 0.92297 0.62744 1.00755 0.0
C1301 C 0.93826 0.5934 0.9851 0.0
C1302 C 0.90876 0.59466 1.02618 0.0
C1303 C 0.90747 0.61717 1.02672 0.0
O1304 O 0.96108 0.6053 0.92172 0.0
O1305 O 0.99457 0.63146 0.93339 0.0
O1306 O 0.00734 0.67185 0.95901 0.0
O1307 O 0.96887 0.6697 0.96425 0.0
O1308 O 0.97043 0.64644 0.90867 0.0
O1309 O 0.93377 0.62795 0.9252 0.0
O1310 O 0.03056 0.63421 1.02064 0.0
O1311 O 0.98589 0.64152 0.99641 0.0
O1312 O 0.97606 0.61282 0.98994 0.0
O1313 O 0.00913 0.60711 0.96354 0.0
O1314 O 0.00836 0.66153 1.02269 0.0
O1315 O 0.04967 0.62687 0.97455 0.0
C1316 C 0.99072 0.64035 0.90653 0.0
C1317 C 0.93972 0.60549 0.87158 0.0
C1318 C 0.9359 0.61718 0.81554 0.0
C1319 C 0.93802 0.62232 0.85139 0.0
C1320 C 0.93507 0.59533 0.80001 0.0
C1321 C 0.93879 0.58373 0.85567 0.0
C1322 C 0.93642 0.5787 0.82006 0.0
C1323 C 0.98737 0.68055 0.9603 0.0
C1324 C 0.94204 0.60982 0.9092 0.0
C1325 C 0.88986 0.62917 0.0429 0.0
C1326 C 0.88674 0.65074 1.03798 0.0
C1327 C 0.98785 0.65612 1.02286 0.0
C1328 C 0.0533 0.60278 1.01431 0.0
C1329 C 0.04581 0.59734 0.04528 0.0
C1330 C 0.05787 0.58288 0.0617 0.0
C1331 C 0.07457 0.57034 0.0437 0.0
C1332 C 0.06964 0.58992 0.99568 0.0
C1333 C 0.07967 0.57314 1.01 0.0
C1334 C 0.9926 0.59975 0.97988 0.0
C1335 C 0.0479 0.62442 1.00633 0.0
H1336 H 0.93845 0.63922 0.86326 0.0
H1337 H 0.9333 0.59119 0.77236 0.0
H1338 H 0.93985 0.5706 0.87087 0.0
H1339 H 0.93565 0.56187 0.80799 0.0
H1340 H 0.03318 0.60719 0.05968 0.0
H1341 H 0.08487 0.55989 0.05661 0.0
H1342 H 0.07563 0.59367 0.97127 0.0
H1343 H 0.09282 0.56375 0.99631 0.0
H1344 H 0.06144 0.18982 0.15724 0.0
H1345 H 0.07822 0.19787 0.10453 0.0
H1346 H 0.04197 0.14484 0.0465 0.0
H1347 H 0.02937 0.13392 0.10076 0.0
H1348 H 0.07181 0.14838 1.00892 0.0
H1349 H 0.02969 0.21363 0.06443 0.0
H1350 H 0.02389 0.24067 0.11639 0.0
H1351 H 0.09218 0.25879 0.1158 0.0
H1352 H 0.09822 0.23213 0.06348 0.0
H1353 H 0.06847 0.19042 0.85116 0.0
H1354 H 0.05958 0.1805 0.90731 0.0
H1355 H 0.1085 0.22561 0.95454 0.0
H1356 H 0.11743 0.23572 0.89774 0.0
H1357 H 0.07538 0.2266 0.99713 0.0
H1358 H 0.11665 0.16759 0.93806 0.0
H1359 H 0.12716 0.13806 0.8917 0.0
H1360 H 0.06501 0.10657 0.9015 0.0
H1361 H 0.054 0.13606 0.94763 0.0
C1362 C 0.05783 0.17931 0.13332 0.0
C1363 C 0.04489 0.16062 0.13375 0.0
C1364 C 0.06668 0.18456 0.10244 0.0
C1365 C 0.06047 0.17319 0.06991 0.0
C1366 C 0.04729 0.15438 0.07041 0.0
C1367 C 0.03996 0.14802 0.10173 0.0
C1368 C 0.06712 0.18092 1.03585 0.0
C1369 C 0.07201 0.16553 1.00654 0.0
C1370 C 0.06874 0.20332 1.0316 0.0
C1371 C 0.06435 0.22102 0.06019 0.0
C1372 C 0.04331 0.22373 0.07507 0.0
C1373 C 0.04001 0.23898 0.10458 0.0
C1374 C 0.05761 0.25167 0.11916 0.0
C1375 C 0.07852 0.24914 0.10425 0.0
C1376 C 0.08184 0.23416 0.07448 0.0
C1377 C 0.07723 0.19852 0.87349 0.0
C1378 C 0.09379 0.21393 0.86943 0.0
C1379 C 0.07226 0.19257 0.90584 0.0
C1380 C 0.08372 0.20163 0.93574 0.0
C1381 C 0.09944 0.218 0.9322 0.0
C1382 C 0.10445 0.224 0.89957 0.0
C1383 C 0.07909 0.19404 0.97025 0.0
C1384 C 0.07472 0.20945 0.9995 0.0
C1385 C 0.07808 0.17166 0.97437 0.0
C1386 C 0.08441 0.15417 0.94606 0.0
C1387 C 0.10512 0.15449 0.93008 0.0
C1388 C 0.11119 0.13773 0.9039 0.0
C1389 C 0.09674 0.12048 0.8936 0.0
C1390 C 0.07617 0.11996 0.90946 0.0
C1391 C 0.07002 0.13669 0.93564 0.0
H1392 H 0.10149 0.10749 0.87338 0.0
H1393 H 0.05515 0.26346 0.14202 0.0
H1394 H 0.1139 0.75756 0.18905 0.0
H1395 H 0.10495 0.76653 0.13164 0.0
H1396 H 0.05445 0.81065 0.17701 0.0
H1397 H 0.06234 0.80062 0.23308 0.0
H1398 H 0.0392 0.7974 0.1221 0.0
H1399 H 0.11235 0.82478 0.14622 0.0
H1400 H 0.15203 0.82389 0.15943 0.0
H1401 H 0.16287 0.77813 0.06759 0.0
H1402 H 0.1232 0.77862 0.05398 0.0
H1403 H 0.03442 0.86496 0.98628 0.0
H1404 H 0.04676 0.85327 1.04045 0.0
H1405 H 0.06646 0.79135 0.98441 0.0
H1406 H 0.05345 0.8027 0.93079 0.0
H1407 H 0.09807 0.8129 1.04182 0.0
H1408 H 0.02242 0.78888 1.01958 0.0
H1409 H 0.9831 0.79454 1.00792 0.0
H1410 H 0.97802 0.84039 0.101 0.0
H1411 H 0.01744 0.83524 0.11293 0.0
C1412 C 0.10047 0.76868 0.18657 0.0
C1413 C 0.0889 0.77827 0.21621 0.0
C1414 C 0.09561 0.77429 0.15356 0.0
C1415 C 0.07926 0.78997 0.14909 0.0
C1416 C 0.06716 0.79864 0.17866 0.0
C1417 C 0.07176 0.79284 0.2112 0.0
C1418 C 0.07441 0.79757 0.11442 0.0
C1419 C 0.05233 0.80102 0.10513 0.0
C1420 C 0.09104 0.80225 0.09088 0.0
C1421 C 0.11477 0.80151 0.09935 0.0
C1422 C 0.12317 0.81437 0.12903 0.0
C1423 C 0.14566 0.81398 0.13653 0.0
C1424 C 0.15995 0.8009 0.11443 0.0
C1425 C 0.15177 0.78821 0.08473 0.0
C1426 C 0.12929 0.78855 0.0771 0.0
C1427 C 0.04202 0.84914 0.98533 0.0
C1428 C 0.04346 0.83508 0.95367 0.0
C1429 C 0.0489 0.84231 1.0165 0.0
C1430 C 0.0577 0.8213 1.017 0.0
C1431 C 0.05994 0.80763 0.98519 0.0
C1432 C 0.05251 0.81422 0.9543 0.0
C1433 C 0.06313 0.813 0.05053 0.0
C1434 C 0.08518 0.80934 0.05927 0.0
C1435 C 0.04657 0.80872 0.07411 0.0
C1436 C 0.02294 0.8119 0.06688 0.0
C1437 C 0.01298 0.80036 1.03734 0.0
C1438 C 0.99066 0.80344 1.03074 0.0
C1439 C 0.97809 0.8179 0.05363 0.0
C1440 C 0.9878 0.82925 0.08324 0.0
C1441 C 0.01012 0.82626 0.08993 0.0
H1442 H 0.96081 0.82025 0.04848 0.0
H1443 H 0.17736 0.80065 0.12026 0.0
H1444 H 0.4136 0.72116 0.27267 0.0
H1445 H 0.42389 0.73621 0.33067 0.0
H1446 H 0.42782 0.80017 0.30063 0.0
H1447 H 0.4252 0.78296 0.24114 0.0
H1448 H 0.44909 0.80745 0.34583 0.0
H1449 H 0.38175 0.76659 0.36624 0.0
H1450 H 0.3592 0.73313 0.36056 0.0
H1451 H 0.41123 0.69989 0.40528 0.0
H1452 H 0.43407 0.7331 0.41115 0.0
H1453 H 0.4602 0.85801 0.52242 0.0
H1454 H 0.4447 0.84453 0.46551 0.0
H1455 H 0.45718 0.77854 0.482 0.0
H1456 H 0.46984 0.79202 0.54007 0.0
H1457 H 0.42491 0.7744 0.44636 0.0
H1458 H 0.49108 0.81764 0.42489 0.0
H1459 H 0.51156 0.8524 0.43125 0.0
H1460 H 0.45652 0.88335 0.39 0.0
H1461 H 0.43578 0.84881 0.38343 0.0
C1462 C 0.41613 0.73857 0.2786 0.0
C1463 C 0.41585 0.75127 0.25175 0.0
C1464 C 0.42159 0.74759 0.31288 0.0
C1465 C 0.42511 0.77027 0.3231 0.0
C1466 C 0.42484 0.78284 0.29576 0.0
C1467 C 0.42176 0.77327 0.26097 0.0
C1468 C 0.43048 0.78065 0.36082 0.0
C1469 C 0.44306 0.80011 0.36729 0.0
C1470 C 0.4238 0.77178 0.39087 0.0
C1471 C 0.40961 0.75226 0.38895 0.0
C1472 C 0.38829 0.75217 0.37503 0.0
C1473 C 0.3755 0.73323 0.3717 0.0
C1474 C 0.38379 0.7144 0.3825 0.0
C1475 C 0.40482 0.71449 0.39695 0.0
C1476 C 0.41766 0.73337 0.40038 0.0
C1477 C 0.45883 0.84062 0.51442 0.0
C1478 C 0.46562 0.82622 0.5369 0.0
C1479 C 0.45055 0.83274 0.48097 0.0
C1480 C 0.45012 0.81016 0.46767 0.0
C1481 C 0.45696 0.79595 0.49046 0.0
C1482 C 0.46439 0.80376 0.52411 0.0
C1483 C 0.44304 0.80096 0.43057 0.0
C1484 C 0.43035 0.7817 0.42442 0.0
C1485 C 0.44905 0.8103 0.40095 0.0
C1486 C 0.4619 0.83073 0.40384 0.0
C1487 C 0.48342 0.83187 0.41711 0.0
C1488 C 0.49504 0.85152 0.42078 0.0
C1489 C 0.48533 0.87007 0.41109 0.0
C1490 C 0.46403 0.86898 0.39748 0.0
C1491 C 0.45237 0.84937 0.39369 0.0
H1492 H 0.49432 0.88528 0.4141 0.0
H1493 H 0.37393 0.69972 0.37968 0.0
H1494 H 0.43634 0.21214 0.85216 0.0
H1495 H 0.43942 0.19232 0.79454 0.0
H1496 H 0.42194 0.25119 0.75434 0.0
H1497 H 0.41206 0.26799 0.81211 0.0
H1498 H 0.41551 0.22909 0.70679 0.0
H1499 H 0.4857 0.21105 0.76683 0.0
H1500 H 0.50579 0.1937 0.81023 0.0
H1501 H 0.47132 0.13374 0.77795 0.0
H1502 H 0.45105 0.15075 0.73454 0.0
H1503 H 0.47719 0.20293 0.55076 0.0
H1504 H 0.46263 0.21597 0.60811 0.0
H1505 H 0.45552 0.1497 0.6266 0.0
H1506 H 0.47078 0.13666 0.56897 0.0
H1507 H 0.47173 0.17135 0.68134 0.0
H1508 H 0.4042 0.1885 0.62262 0.0
H1509 H 0.38226 0.2043 0.57951 0.0
H1510 H 0.4134 0.26626 0.61013 0.0
H1511 H 0.43532 0.25072 0.65345 0.0
C1512 C 0.43137 0.22009 0.83076 0.0
C1513 C 0.42188 0.24091 0.83714 0.0
C1514 C 0.43476 0.20917 0.79694 0.0
C1515 C 0.43234 0.21988 0.76772 0.0
C1516 C 0.42379 0.24142 0.77468 0.0
C1517 C 0.41812 0.2514 0.80836 0.0
C1518 C 0.43865 0.20941 0.73057 0.0
C1519 C 0.42848 0.21706 0.70224 0.0
C1520 C 0.45447 0.19226 0.72185 0.0
C1521 C 0.46676 0.18222 0.74781 0.0
C1522 C 0.48244 0.19419 0.76908 0.0
C1523 C 0.49383 0.18441 0.79366 0.0
C1524 C 0.48977 0.16266 0.79691 0.0
C1525 C 0.47441 0.15059 0.77548 0.0
C1526 C 0.463 0.16026 0.75088 0.0
C1527 C 0.472 0.19106 0.56667 0.0
C1528 C 0.47447 0.16866 0.55442 0.0
C1529 C 0.46347 0.19859 0.59974 0.0
C1530 C 0.45725 0.18404 0.62232 0.0
C1531 C 0.45985 0.16153 0.61013 0.0
C1532 C 0.46838 0.15397 0.57681 0.0
C1533 C 0.44974 0.19239 0.65913 0.0
C1534 C 0.45942 0.18405 0.6869 0.0
C1535 C 0.43391 0.20919 0.66746 0.0
C1536 C 0.42166 0.21832 0.64051 0.0
C1537 C 0.40655 0.20536 0.61961 0.0
C1538 C 0.394 0.21434 0.59545 0.0
C1539 C 0.39658 0.23623 0.59185 0.0
C1540 C 0.41153 0.24926 0.61273 0.0
C1541 C 0.42394 0.24041 0.63718 0.0
H1542 H 0.3869 0.24312 0.57305 0.0
H1543 H 0.49857 0.15515 0.81598 0.0
H1544 H 0.89336 0.81913 0.28355 0.0
H1545 H 0.88343 0.819 0.22384 0.0
H1546 H 0.87298 0.88847 0.24447 0.0
H1547 H 0.88119 0.8884 0.30467 0.0
H1548 H 0.85875 0.8754 0.18543 0.0
H1549 H 0.92887 0.86486 0.24397 0.0
H1550 H 0.95496 0.84535 0.27674 0.0
H1551 H 0.94959 0.78837 0.20047 0.0
H1552 H 0.92344 0.80753 0.16736 0.0
H1553 H 0.91623 0.9084 0.04709 0.0
H1554 H 0.9117 0.90492 0.10824 0.0
H1555 H 0.91259 0.83484 0.08173 0.0
H1556 H 0.91788 0.83837 1.02132 0.0
H1557 H 0.93222 0.84828 0.14263 0.0
H1558 H 0.86351 0.86508 0.08217 0.0
H1559 H 0.84396 0.89042 0.04998 0.0
H1560 H 0.85292 0.94224 0.13443 0.0
H1561 H 0.87275 0.91722 0.16688 0.0
C1562 C 0.88731 0.83412 0.27605 0.0
C1563 C 0.88962 0.85418 0.29775 0.0
C1564 C 0.8818 0.83402 0.2417 0.0
C1565 C 0.87937 0.85396 0.22963 0.0
C1566 C 0.87582 0.87297 0.25316 0.0
C1567 C 0.88068 0.87298 0.28761 0.0
C1568 C 0.8872 0.85644 0.19513 0.0
C1569 C 0.87473 0.86932 0.17603 0.0
C1570 C 0.90849 0.84912 0.18341 0.0
C1571 C 0.92382 0.83744 0.20368 0.0
C1572 C 0.93309 0.8481 0.23444 0.0
C1573 C 0.94792 0.83713 0.253 0.0
C1574 C 0.95375 0.81558 0.24086 0.0
C1575 C 0.94492 0.80501 0.20998 0.0
C1576 C 0.9301 0.8159 0.19133 0.0
C1577 C 0.91519 0.89237 0.05466 0.0
C1578 C 0.91614 0.87359 1.03006 0.0
C1579 C 0.91302 0.89039 0.08928 0.0
C1580 C 0.91123 0.86963 0.09895 0.0
C1581 C 0.91368 0.85095 0.07448 0.0
C1582 C 0.91619 0.85294 1.04014 0.0
C1583 C 0.90358 0.86689 0.13319 0.0
C1584 C 0.91615 0.85408 0.15211 0.0
C1585 C 0.88282 0.87487 0.14538 0.0
C1586 C 0.86949 0.88932 0.1269 0.0
C1587 C 0.86113 0.88184 0.09392 0.0
C1588 C 0.85011 0.89616 0.07559 0.0
C1589 C 0.84717 0.91792 0.09017 0.0
C1590 C 0.85516 0.92537 0.1232 0.0
C1591 C 0.86625 0.91113 0.14159 0.0
H1592 H 0.83873 0.929 0.07588 0.0
H1593 H 0.96522 0.80713 0.25527 0.0
H1594 H 0.92085 0.15017 0.81625 0.0
H1595 H 0.91283 0.14427 0.87433 0.0
H1596 H 0.86829 0.09213 0.8354 0.0
H1597 H 0.87613 0.09824 0.77627 0.0
H1598 H 0.88241 0.14061 0.9204 0.0
H1599 H 0.88732 0.04891 0.86444 0.0
H1600 H 0.90037 0.02716 0.81028 0.0
H1601 H 0.94787 0.07661 0.79783 0.0
H1602 H 0.93543 0.09833 0.85218 0.0
H1603 H 0.88474 0.09508 0.0666 0.0
H1604 H 0.87584 0.08578 1.00553 0.0
H1605 H 0.94284 0.09885 0.97879 0.0
H1606 H 0.95171 0.10921 1.03871 0.0
H1607 H 0.91282 0.067 0.92686 0.0
H1608 H 0.92864 0.14491 0.97333 0.0
H1609 H 0.93132 0.17323 1.02453 0.0
H1610 H 0.86485 0.15981 0.05238 0.0
H1611 H 0.86188 0.13135 1.00127 0.0
C1612 C 0.90883 0.13785 0.82 0.0
C1613 C 0.89948 0.12419 0.79197 0.0
C1614 C 0.90404 0.13473 0.85324 0.0
C1615 C 0.89021 0.11764 0.85881 0.0
C1616 C 0.87914 0.10531 0.83116 0.0
C1617 C 0.88393 0.10847 0.79763 0.0
C1618 C 0.892 0.10966 0.89173 0.0
C1619 C 0.88818 0.12424 0.92188 0.0
C1620 C 0.9016 0.08905 0.89329 0.0
C1621 C 0.91027 0.07526 0.8621 0.0
C1622 C 0.90069 0.05497 0.85028 0.0
C1623 C 0.90797 0.04269 0.81955 0.0
C1624 C 0.92488 0.05053 0.80057 0.0
C1625 C 0.93476 0.07055 0.8125 0.0
C1626 C 0.92764 0.08281 0.84329 0.0
C1627 C 0.89775 0.09515 0.04776 0.0
C1628 C 0.91867 0.10348 0.05747 0.0
C1629 C 0.89275 0.08944 1.01304 0.0
C1630 C 0.90871 0.09189 0.98822 0.0
C1631 C 0.93048 0.09667 0.99791 0.0
C1632 C 0.93543 0.10271 1.03242 0.0
C1633 C 0.90156 0.09733 0.95529 0.0
C1634 C 0.90536 0.08268 0.9253 0.0
C1635 C 0.89388 0.11861 0.9536 0.0
C1636 C 0.89504 0.13608 0.9837 0.0
C1637 C 0.91459 0.1481 0.99036 0.0
C1638 C 0.91618 0.16412 1.01935 0.0
C1639 C 0.89826 0.1683 1.04171 0.0
C1640 C 0.8787 0.15655 1.03501 0.0
C1641 C 0.87704 0.14048 1.00605 0.0
H1642 H 0.89954 0.18063 0.06423 0.0
H1643 H 0.93035 0.04108 0.77665 0.0
H1644 H 0.64021 0.15309 0.84019 0.0
H1645 H 0.63462 0.11762 0.80489 0.0
H1646 H 0.56499 0.1311 0.79984 0.0
H1647 H 0.57049 0.16609 0.83638 0.0
H1648 H 0.57209 0.0878 0.78907 0.0
H1649 H 0.59735 0.15279 0.74905 0.0
H1650 H 0.62188 0.18448 0.74962 0.0
H1651 H 0.67698 0.14181 0.72379 0.0
H1652 H 0.6528 0.10981 0.7239 0.0
H1653 H 0.54521 0.10587 0.6261 0.0
H1654 H 0.54725 0.093 0.681 0.0
H1655 H 0.60666 0.05765 0.64881 0.0
H1656 H 0.60498 0.07107 0.59365 0.0
H1657 H 0.61199 0.10027 0.68366 0.0
H1658 H 0.57658 0.03385 0.72655 0.0
H1659 H 0.545 0.00887 0.72797 0.0
H1660 H 0.50055 0.06328 0.74134 0.0
H1661 H 0.53196 0.08853 0.74111 0.0
C1662 C 0.62363 0.14791 0.83291 0.0
C1663 C 0.60568 0.1619 0.84093 0.0
C1664 C 0.62043 0.12769 0.81295 0.0
C1665 C 0.59946 0.12197 0.79956 0.0
C1666 C 0.58125 0.13518 0.8102 0.0
C1667 C 0.58442 0.15525 0.8305 0.0
C1668 C 0.59734 0.10624 0.76792 0.0
C1669 C 0.58116 0.09003 0.76606 0.0
C1670 C 0.60879 0.10974 0.73787 0.0
C1671 C 0.62335 0.1289 0.73698 0.0
C1672 C 0.61472 0.15016 0.74372 0.0
C1673 C 0.62855 0.16817 0.74393 0.0
C1674 C 0.65097 0.16514 0.73673 0.0
C1675 C 0.6596 0.1441 0.72938 0.0
C1676 C 0.64586 0.12602 0.72939 0.0
C1677 C 0.55796 0.09424 0.6298 0.0
C1678 C 0.57556 0.09024 0.6065 0.0
C1679 C 0.55892 0.0865 0.66123 0.0
C1680 C 0.57758 0.07499 0.66949 0.0
C1681 C 0.5923 0.06681 0.64308 0.0
C1682 C 0.59158 0.07483 0.6118 0.0
C1683 C 0.58665 0.08144 0.70433 0.0
C1684 C 0.60399 0.09662 0.70684 0.0
C1685 C 0.57531 0.07795 0.73436 0.0
C1686 C 0.55647 0.06292 0.73323 0.0
C1687 C 0.56004 0.04041 0.72975 0.0
C1688 C 0.54222 0.02624 0.73072 0.0
C1689 C 0.52077 0.03447 0.73459 0.0
C1690 C 0.51714 0.05691 0.73813 0.0
C1691 C 0.53494 0.07114 0.73784 0.0
H1692 H 0.50698 0.02347 0.73489 0.0
H1693 H 0.66165 0.1791 0.73679 0.0
H1694 H 0.62272 0.89925 0.49827 0.0
H1695 H 0.62531 0.90824 0.44039 0.0
H1696 H 0.55464 0.9113 0.43435 0.0
H1697 H 0.55137 0.90046 0.48948 0.0
H1698 H 0.57404 0.87254 0.40253 0.0
H1699 H 0.58114 0.94889 0.40383 0.0
H1700 H 0.59636 0.98549 0.42277 0.0
H1701 H 0.66017 0.96371 0.38482 0.0
H1702 H 0.64542 0.92686 0.3661 0.0
H1703 H 0.58182 0.82926 0.23938 0.0
H1704 H 0.57218 0.86221 0.27848 0.0
H1705 H 0.64084 0.87237 0.30487 0.0
H1706 H 0.65064 0.8403 0.2633 0.0
H1707 H 0.6166 0.91033 0.32134 0.0
H1708 H 0.6144 0.83478 0.33905 0.0
H1709 H 0.60355 0.79623 0.32455 0.0
H1710 H 0.53531 0.8144 0.33342 0.0
H1711 H 0.54578 0.85313 0.34758 0.0
C1712 C 0.60762 0.90209 0.48509 0.0
C1713 C 0.58691 0.89713 0.4982 0.0
C1714 C 0.6092 0.90797 0.45225 0.0
C1715 C 0.59009 0.9096 0.43285 0.0
C1716 C 0.56958 0.90977 0.44892 0.0
C1717 C 0.56789 0.90323 0.48105 0.0
C1718 C 0.59102 0.90212 0.39558 0.0
C1719 C 0.58265 0.8812 0.38449 0.0
C1720 C 0.60321 0.91296 0.37275 0.0
C1721 C 0.61218 0.93509 0.38369 0.0
C1722 C 0.59846 0.95186 0.39974 0.0
C1723 C 0.607 0.97266 0.41039 0.0
C1724 C 0.62923 0.97692 0.40503 0.0
C1725 C 0.64295 0.96039 0.38893 0.0
C1726 C 0.6345 0.93955 0.37823 0.0
C1727 C 0.59487 0.83934 0.25208 0.0
C1728 C 0.61689 0.83279 0.24842 0.0
C1729 C 0.58942 0.85814 0.27416 0.0
C1730 C 0.60577 0.86927 0.29498 0.0
C1731 C 0.62805 0.86396 0.28885 0.0
C1732 C 0.63361 0.84558 0.26557 0.0
C1733 C 0.59944 0.88105 0.32871 0.0
C1734 C 0.60715 0.90229 0.33919 0.0
C1735 C 0.58724 0.87025 0.3518 0.0
C1736 C 0.58087 0.84689 0.34388 0.0
C1737 C 0.59708 0.83057 0.33771 0.0
C1738 C 0.591 0.80869 0.32954 0.0
C1739 C 0.56876 0.80287 0.32785 0.0
C1740 C 0.55254 0.81893 0.33457 0.0
C1741 C 0.55853 0.84086 0.34267 0.0
H1742 H 0.5641 0.78593 0.32148 0.0
H1743 H 0.63581 0.99304 0.41331 0.0
H1744 H 0.58076 0.74735 0.39819 0.0
H1745 H 0.5736 0.73691 0.4556 0.0
H1746 H 0.59432 0.67142 0.41798 0.0
H1747 H 0.60238 0.68185 0.36199 0.0
H1748 H 0.55428 0.67103 0.45252 0.0
H1749 H 0.62569 0.70464 0.47527 0.0
H1750 H 0.65206 0.73505 0.47832 0.0
H1751 H 0.6098 0.7748 0.54971 0.0
H1752 H 0.58305 0.74466 0.54678 0.0
H1753 H 0.54112 0.62575 0.60894 0.0
H1754 H 0.555 0.63624 0.55516 0.0
H1755 H 0.5638 0.70205 0.60635 0.0
H1756 H 0.55153 0.69097 0.66026 0.0
H1757 H 0.5885 0.70307 0.56287 0.0
H1758 H 0.51509 0.67459 0.53756 0.0
H1759 H 0.48561 0.64706 0.53428 0.0
H1760 H 0.52565 0.60206 0.46718 0.0
H1761 H 0.55554 0.6293 0.47065 0.0
C1762 C 0.58444 0.73091 0.40235 0.0
C1763 C 0.59218 0.7156 0.37456 0.0
C1764 C 0.58005 0.72477 0.43539 0.0
C1765 C 0.58294 0.70304 0.44181 0.0
C1766 C 0.59148 0.68815 0.41444 0.0
C1767 C 0.59625 0.69431 0.38204 0.0
C1768 C 0.57694 0.69535 0.47617 0.0
C1769 C 0.5619 0.67804 0.47662 0.0
C1770 C 0.58612 0.70446 0.50841 0.0
C1771 C 0.60231 0.72245 0.5106 0.0
C1772 C 0.62197 0.7199 0.49147 0.0
C1773 C 0.637 0.73708 0.4932 0.0
C1774 C 0.63259 0.75686 0.51414 0.0
C1775 C 0.61319 0.75947 0.53348 0.0
C1776 C 0.5981 0.74233 0.53184 0.0
C1777 C 0.54629 0.6424 0.60884 0.0
C1778 C 0.54492 0.65747 0.63951 0.0
C1779 C 0.55381 0.64874 0.57737 0.0
C1780 C 0.55941 0.67068 0.5746 0.0
C1781 C 0.55923 0.68521 0.60601 0.0
C1782 C 0.55205 0.67883 0.6374 0.0
C1783 C 0.56521 0.67875 0.53997 0.0
C1784 C 0.58042 0.69609 0.53921 0.0
C1785 C 0.55557 0.67015 0.50751 0.0
C1786 C 0.53762 0.65385 0.50484 0.0
C1787 C 0.51764 0.65877 0.52238 0.0
C1788 C 0.50087 0.64323 0.52043 0.0
C1789 C 0.50377 0.62279 0.5006 0.0
C1790 C 0.52345 0.61788 0.48259 0.0
C1791 C 0.54031 0.63337 0.48453 0.0
H1792 H 0.49074 0.61082 0.49909 0.0
H1793 H 0.64424 0.77014 0.51543 0.0
H1794 H 0.55859 0.2824 0.72115 0.0
H1795 H 0.54909 0.29255 0.66523 0.0
H1796 H 0.61634 0.28156 0.63177 0.0
H1797 H 0.62586 0.27187 0.68845 0.0
H1798 H 0.60474 0.31594 0.60964 0.0
H1799 H 0.56938 0.24799 0.59876 0.0
H1800 H 0.54595 0.21841 0.61372 0.0
H1801 H 0.48889 0.25931 0.61477 0.0
H1802 H 0.51205 0.28933 0.60034 0.0
H1803 H 0.57639 0.31619 0.42985 0.0
H1804 H 0.58759 0.30724 0.48542 0.0
H1805 H 0.52829 0.33684 0.53055 0.0
H1806 H 0.51864 0.34833 0.4752 0.0
H1807 H 0.53617 0.29299 0.54616 0.0
H1808 H 0.57647 0.36035 0.55077 0.0
H1809 H 0.60307 0.38558 0.53043 0.0
H1810 H 0.65494 0.33902 0.53352 0.0
H1811 H 0.62859 0.3132 0.55285 0.0
C1812 C 0.57123 0.2814 0.70149 0.0
C1813 C 0.59288 0.27551 0.7093 0.0
C1814 C 0.56578 0.28736 0.66921 0.0
C1815 C 0.58176 0.28774 0.64313 0.0
C1816 C 0.60342 0.28147 0.65076 0.0
C1817 C 0.60886 0.27549 0.6832 0.0
C1818 C 0.57603 0.29552 0.60895 0.0
C1819 C 0.58987 0.31053 0.59564 0.0
C1820 C 0.55658 0.28893 0.58989 0.0
C1821 C 0.54252 0.27103 0.59886 0.0
C1822 C 0.55187 0.25078 0.6025 0.0
C1823 C 0.53863 0.23391 0.61083 0.0
C1824 C 0.51596 0.23701 0.61531 0.0
C1825 C 0.50647 0.25697 0.61137 0.0
C1826 C 0.51965 0.27392 0.6031 0.0
C1827 C 0.56658 0.32242 0.45174 0.0
C1828 C 0.5474 0.33453 0.44747 0.0
C1829 C 0.57266 0.31658 0.48388 0.0
C1830 C 0.55901 0.32131 0.51305 0.0
C1831 C 0.53947 0.33302 0.50899 0.0
C1832 C 0.53397 0.33976 0.47704 0.0
C1833 C 0.56484 0.31336 0.54693 0.0
C1834 C 0.55103 0.29831 0.56013 0.0
C1835 C 0.58473 0.31925 0.5651 0.0
C1836 C 0.60049 0.33475 0.55307 0.0
C1837 C 0.59349 0.35537 0.54676 0.0
C1838 C 0.60854 0.36981 0.53551 0.0
C1839 C 0.63068 0.36396 0.53097 0.0
C1840 C 0.63779 0.34355 0.53721 0.0
C1841 C 0.6228 0.32899 0.54825 0.0
H1842 H 0.64237 0.37523 0.52263 0.0
H1843 H 0.50576 0.22393 0.62179 0.0
H1844 H 0.98355 0.29176 1.02641 0.0
H1845 H 0.9682 0.27943 0.96901 0.0
H1846 H 0.95106 0.34558 0.95995 0.0
H1847 H 0.96708 0.35801 1.01711 0.0
H1848 H 0.92524 0.28312 0.94013 0.0
H1849 H 0.95807 0.35421 0.89903 0.0
H1850 H 0.98938 0.37993 0.90541 0.0
H1851 H 0.03467 0.32648 0.9008 0.0
H1852 H 0.00353 0.30054 0.89514 0.0
H1853 H 0.89024 0.24849 0.76536 0.0
H1854 H 0.89559 0.26987 0.82212 0.0
H1855 H 0.96474 0.27608 0.7991 0.0
H1856 H 0.9579 0.2592 0.74033 0.0
H1857 H 0.96079 0.30667 0.83844 0.0
H1858 H 0.92653 0.23531 0.86087 0.0
H1859 H 0.89473 0.21014 0.85565 0.0
H1860 H 0.85209 0.26258 0.89803 0.0
H1861 H 0.88359 0.28796 0.90346 0.0
C1862 C 0.97637 0.3037 1.01227 0.0
C1863 C 0.97608 0.32585 1.02697 0.0
C1864 C 0.96754 0.2966 0.9793 0.0
C1865 C 0.95857 0.31144 0.95935 0.0
C1866 C 0.95824 0.33366 0.97403 0.0
C1867 C 0.9671 0.34079 1.00715 0.0
C1868 C 0.95024 0.30354 0.92316 0.0
C1869 C 0.93305 0.28821 0.91782 0.0
C1870 C 0.95996 0.31011 0.89364 0.0
C1871 C 0.97858 0.32556 0.89692 0.0
C1872 C 0.97473 0.34801 0.89946 0.0
C1873 C 0.99241 0.36261 0.90306 0.0
C1874 C 0.01401 0.35485 0.90356 0.0
C1875 C 0.01794 0.33247 0.90056 0.0
C1876 C 0.00029 0.31784 0.89732 0.0
C1877 C 0.90627 0.25555 0.77189 0.0
C1878 C 0.92323 0.2532 0.74714 0.0
C1879 C 0.90976 0.26701 0.8055 0.0
C1880 C 0.93099 0.27442 0.81707 0.0
C1881 C 0.948 0.27131 0.79218 0.0
C1882 C 0.94412 0.26134 0.75806 0.0
C1883 C 0.93616 0.28497 0.85431 0.0
C1884 C 0.95288 0.30104 0.86019 0.0
C1885 C 0.92585 0.27904 0.88434 0.0
C1886 C 0.90733 0.26348 0.88235 0.0
C1887 C 0.91037 0.24138 0.8692 0.0
C1888 C 0.8924 0.22711 0.86615 0.0
C1889 C 0.8714 0.23477 0.87643 0.0
C1890 C 0.86834 0.25666 0.89007 0.0
C1891 C 0.88624 0.27097 0.89322 0.0
H1892 H 0.8575 0.22373 0.87386 0.0
H1893 H 0.02768 0.36616 0.90622 0.0
H1894 H 0.95263 0.72479 0.3481 0.0
H1895 H 0.95762 0.70482 0.2905 0.0
H1896 H 0.90598 0.74271 0.25301 0.0
H1897 H 0.89866 0.76021 0.31252 0.0
H1898 H 0.90568 0.70996 0.2108 0.0
H1899 H 0.97302 0.7496 0.24732 0.0
H1900 H 0.0039 0.75914 0.28779 0.0
H1901 H 0.02258 0.69175 0.27613 0.0
H1902 H 0.99221 0.682 0.23641 0.0
H1903 H 0.95155 0.68375 1.03569 0.0
H1904 H 0.93598 0.69902 0.09198 0.0
H1905 H 0.97944 0.65833 0.14112 0.0
H1906 H 0.99463 0.6431 0.08499 0.0
H1907 H 0.98309 0.6952 0.17501 0.0
H1908 H 0.91348 0.6559 0.1445 0.0
H1909 H 0.87798 0.64575 0.116 0.0
H1910 H 0.863 0.71319 0.11505 0.0
H1911 H 0.89803 0.72373 0.14482 0.0
C1912 C 0.94185 0.72846 0.3278 0.0
C1913 C 0.92486 0.74383 0.33568 0.0
C1914 C 0.94523 0.71742 0.29405 0.0
C1915 C 0.93333 0.72281 0.26553 0.0
C1916 C 0.91592 0.73801 0.27352 0.0
C1917 C 0.91163 0.74814 0.30793 0.0
C1918 C 0.93931 0.71294 0.22806 0.0
C1919 C 0.92273 0.70717 0.20316 0.0
C1920 C 0.9614 0.70871 0.21646 0.0
C1921 C 0.98039 0.71508 0.23903 0.0
C1922 C 0.9839 0.73692 0.25345 0.0
C1923 C 0.00133 0.74236 0.2764 0.0
C1924 C 0.01533 0.72611 0.28482 0.0
C1925 C 0.012 0.70446 0.27001 0.0
C1926 C -0.00526 0.69894 0.24713 0.0
C1927 C 0.95696 0.6772 0.05826 0.0
C1928 C 0.97375 0.66126 0.05506 0.0
C1929 C 0.94815 0.68622 0.09096 0.0
C1930 C 0.95615 0.68004 0.12197 0.0
C1931 C 0.97259 0.66371 0.1184 0.0
C1932 C 0.98119 0.65465 0.08587 0.0
C1933 C 0.94946 0.6917 0.15798 0.0
C1934 C 0.96603 0.69811 0.18254 0.0
C1935 C 0.92743 0.69688 0.16887 0.0
C1936 C 0.90838 0.69054 0.14641 0.0
C1937 C 0.90276 0.66851 0.13767 0.0
C1938 C 0.88259 0.66272 0.12178 0.0
C1939 C 0.86821 0.67882 0.11385 0.0
C1940 C 0.8741 0.70075 0.12134 0.0
C1941 C 0.89403 0.70664 0.13789 0.0
H1942 H 0.85254 0.6743 0.10173 0.0
H1943 H 0.02873 0.7303 0.30274 0.0
H1944 H 0.4556 0.35808 0.54993 0.0
H1945 H 0.44682 0.37266 0.60922 0.0
H1946 H 0.38918 0.40414 0.57538 0.0
H1947 H 0.39779 0.38917 0.51542 0.0
H1948 H 0.43705 0.40853 0.65375 0.0
H1949 H 0.34874 0.38519 0.60974 0.0
H1950 H 0.33152 0.36143 0.56081 0.0
H1951 H 0.38714 0.31831 0.55461 0.0
H1952 H 0.40454 0.34173 0.60355 0.0
H1953 H 0.39828 0.40921 0.81607 0.0
H1954 H 0.38964 0.41806 0.75889 0.0
H1955 H 0.39193 0.34985 0.71679 0.0
H1956 H 0.40098 0.34094 0.77242 0.0
H1957 H 0.36733 0.37129 0.67679 0.0
H1958 H 0.43981 0.37134 0.72391 0.0
H1959 H 0.46603 0.38037 0.77189 0.0
H1960 H 0.45535 0.44855 0.77048 0.0
H1961 H 0.42883 0.43983 0.72266 0.0
C1962 C 0.44145 0.36872 0.55501 0.0
C1963 C 0.42705 0.37226 0.52843 0.0
C1964 C 0.43661 0.37722 0.58885 0.0
C1965 C 0.41729 0.38926 0.59643 0.0
C1966 C 0.40411 0.39473 0.56969 0.0
C1967 C 0.40883 0.38601 0.53572 0.0
C1968 C 0.40847 0.3913 0.63147 0.0
C1969 C 0.42139 0.40122 0.65889 0.0
C1970 C 0.38904 0.38002 0.63792 0.0
C1971 C 0.37787 0.36521 0.61013 0.0
C1972 C 0.35713 0.37051 0.59812 0.0
C1973 C 0.3474 0.35716 0.57032 0.0
C1974 C 0.35824 0.33839 0.55459 0.0
C1975 C 0.37876 0.33284 0.56678 0.0
C1976 C 0.38854 0.34614 0.59453 0.0
C1977 C 0.39623 0.39611 0.79479 0.0
C1978 C 0.40084 0.37449 0.79871 0.0
C1979 C 0.39096 0.40115 0.76235 0.0
C1980 C 0.39056 0.3846 0.73379 0.0
C1981 C 0.39204 0.36283 0.73859 0.0
C1982 C 0.39737 0.3578 0.77071 0.0
C1983 C 0.39525 0.38963 0.69923 0.0
C1984 C 0.38201 0.38027 0.67176 0.0
C1985 C 0.41552 0.39953 0.69269 0.0
C1986 C 0.43229 0.40499 0.72 0.0
C1987 C 0.44311 0.38826 0.73384 0.0
C1988 C 0.45798 0.3933 0.76101 0.0
C1989 C 0.46232 0.41503 0.77427 0.0
C1990 C 0.45194 0.43173 0.76019 0.0
C1991 C 0.43701 0.42676 0.73304 0.0
H1992 H 0.47375 0.41892 0.79543 0.0
H1993 H 0.35073 0.32816 0.53297 0.0
H1994 H 0.44626 0.63739 0.54073 0.0
H1995 H 0.43969 0.6256 0.47973 0.0
H1996 H 0.38452 0.58691 0.5045 0.0
H1997 H 0.39129 0.59848 0.56611 0.0
H1998 H 0.43408 0.58834 0.43213 0.0
H1999 H 0.34354 0.6074 0.47094 0.0
H2000 H 0.32428 0.63067 0.51838 0.0
H2001 H 0.37842 0.67566 0.52826 0.0
H2002 H 0.39783 0.65275 0.4808 0.0
H2003 H 0.39726 0.58304 0.26829 0.0
H2004 H 0.38935 0.57455 0.32595 0.0
H2005 H 0.38499 0.64316 0.36493 0.0
H2006 H 0.39313 0.65176 0.30884 0.0
H2007 H 0.36265 0.62115 0.40537 0.0
H2008 H 0.43459 0.62537 0.35975 0.0
H2009 H 0.4627 0.61782 0.31411 0.0
H2010 H 0.45875 0.54947 0.31995 0.0
H2011 H 0.4304 0.55667 0.36546 0.0
C2012 C 0.4331 0.62589 0.53314 0.0
C2013 C 0.41899 0.61899 0.55771 0.0
C2014 C 0.42956 0.61902 0.49843 0.0
C2015 C 0.41168 0.60545 0.48808 0.0
C2016 C 0.39844 0.59737 0.5125 0.0
C2017 C 0.40202 0.60423 0.54737 0.0
C2018 C 0.40415 0.60379 0.45263 0.0
C2019 C 0.41815 0.59473 0.42607 0.0
C2020 C 0.38433 0.61403 0.4453 0.0
C2021 C 0.37209 0.62833 0.47253 0.0
C2022 C 0.35119 0.62234 0.48309 0.0
C2023 C 0.3403 0.63544 0.51004 0.0
C2024 C 0.35013 0.6546 0.52636 0.0
C2025 C 0.37083 0.6608 0.51566 0.0
C2026 C 0.38176 0.64777 0.48877 0.0
C2027 C 0.39379 0.59621 0.28895 0.0
C2028 C 0.39627 0.61798 0.28409 0.0
C2029 C 0.38902 0.59136 0.32164 0.0
C2030 C 0.38702 0.60828 0.34947 0.0
C2031 C 0.38636 0.62989 0.34367 0.0
C2032 C 0.39113 0.63474 0.31129 0.0
C2033 C 0.3919 0.60436 0.38444 0.0
C2034 C 0.37779 0.61317 0.41118 0.0
C2035 C 0.41273 0.59595 0.392 0.0
C2036 C 0.43025 0.59149 0.36559 0.0
C2037 C 0.4397 0.60872 0.35119 0.0
C2038 C 0.45566 0.60453 0.32539 0.0
C2039 C 0.46246 0.58316 0.31406 0.0
C2040 C 0.45342 0.566 0.32871 0.0
C2041 C 0.43742 0.57012 0.35452 0.0
H2042 H 0.47475 0.57992 0.29398 0.0
H2043 H 0.3417 0.66465 0.54727 0.0
H2044 H 0.14211 0.66613 0.3191 0.0
H2045 H 0.13689 0.63367 0.27647 0.0
H2046 H 0.07813 0.61816 0.32938 0.0
H2047 H 0.08011 0.65341 0.36541 0.0
H2048 H 0.12221 0.59248 0.25095 0.0
H2049 H 0.04363 0.63512 0.30355 0.0
H2050 H 0.03486 0.67129 0.33634 0.0
H2051 H 0.08305 0.70081 0.27796 0.0
H2052 H 0.09337 0.66466 0.24712 0.0
H2053 H 0.05825 0.55279 0.10611 0.0
H2054 H 0.06641 0.56046 0.16793 0.0
H2055 H 0.06685 0.62936 0.16223 0.0
H2056 H 0.05905 0.62197 0.10184 0.0
H2057 H 0.05131 0.62424 0.21915 0.0
H2058 H 0.11277 0.60352 0.15153 0.0
H2059 H 0.13482 0.58108 0.10688 0.0
H2060 H 0.13593 0.52921 0.16773 0.0
H2061 H 0.11346 0.55127 0.21253 0.0
C2062 C 0.12859 0.65524 0.32232 0.0
C2063 C 0.11179 0.66162 0.34617 0.0
C2064 C 0.1259 0.63647 0.29844 0.0
C2065 C 0.10668 0.62411 0.29945 0.0
C2066 C 0.09282 0.62793 0.32816 0.0
C2067 C 0.09401 0.64792 0.34909 0.0
C2068 C 0.09623 0.61542 0.26677 0.0
C2069 C 0.10646 0.59889 0.24416 0.0
C2070 C 0.07687 0.62552 0.25659 0.0
C2071 C 0.06952 0.64724 0.27364 0.0
C2072 C 0.05238 0.64935 0.29793 0.0
C2073 C 0.04749 0.66977 0.31666 0.0
C2074 C 0.05885 0.68825 0.30993 0.0
C2075 C 0.0747 0.68643 0.28385 0.0
C2076 C 0.08036 0.66596 0.26622 0.0
C2077 C 0.05956 0.56946 0.11846 0.0
C2078 C 0.05796 0.58666 0.09934 0.0
C2079 C 0.06413 0.57384 0.15352 0.0
C2080 C 0.06729 0.59541 0.16921 0.0
C2081 C 0.06415 0.61261 0.1506 0.0
C2082 C 0.05961 0.60829 0.11596 0.0
C2083 C 0.07663 0.60042 0.20362 0.0
C2084 C 0.06643 0.61679 0.22646 0.0
C2085 C 0.09743 0.59215 0.21159 0.0
C2086 C 0.11113 0.57886 0.18509 0.0
C2087 C 0.11753 0.58724 0.15524 0.0
C2088 C 0.13012 0.57462 0.12992 0.0
C2089 C 0.13669 0.55369 0.13439 0.0
C2090 C 0.13075 0.5454 0.16426 0.0
C2091 C 0.11807 0.55794 0.18962 0.0
H2092 H 0.14645 0.54392 0.11478 0.0
H2093 H 0.055 0.70403 0.32441 0.0
H2094 H 0.07332 0.32839 0.7567 0.0
H2095 H 0.07024 0.36224 0.79593 0.0
H2096 H 0.13759 0.37809 0.77371 0.0
H2097 H 0.14137 0.34263 0.73793 0.0
H2098 H 0.13337 0.37471 0.8357 0.0
H2099 H 0.08614 0.41418 0.76337 0.0
H2100 H 0.05399 0.41522 0.72516 0.0
H2101 H 0.01131 0.39805 0.80401 0.0
H2102 H 0.0431 0.39697 0.84261 0.0
H2103 H 0.12087 0.42318 1.00109 0.0
H2104 H 0.1256 0.42978 0.94155 0.0
H2105 H 0.0625 0.39989 0.91505 0.0
H2106 H 0.0579 0.39286 0.97263 0.0
H2107 H 0.07163 0.42538 0.87077 0.0
H2108 H 0.10491 0.36717 0.9197 0.0
H2109 H 0.12765 0.3506 0.96081 0.0
H2110 H 0.18471 0.38396 0.93057 0.0
H2111 H 0.16213 0.40102 0.88963 0.0
C2112 C 0.08717 0.33954 0.75937 0.0
C2113 C 0.1074 0.33336 0.74389 0.0
C2114 C 0.08528 0.35919 0.78122 0.0
C2115 C 0.1035 0.3732 0.78717 0.0
C2116 C 0.12322 0.36771 0.76915 0.0
C2117 C 0.12539 0.34754 0.74859 0.0
C2118 C 0.10399 0.38953 0.81863 0.0
C2119 C 0.12042 0.38662 0.84265 0.0
C2120 C 0.08625 0.40391 0.82869 0.0
C2121 C 0.06703 0.40573 0.80595 0.0
C2122 C 0.06988 0.41077 0.77258 0.0
C2123 C 0.05171 0.41133 0.75086 0.0
C2124 C 0.03063 0.40674 0.76216 0.0
C2125 C 0.02762 0.40173 0.79532 0.0
C2126 C 0.04569 0.4013 0.81721 0.0
C2127 C 0.10774 0.41873 0.98275 0.0
C2128 C 0.08926 0.40717 0.99165 0.0
C2129 C 0.11031 0.42277 0.94895 0.0
C2130 C 0.09456 0.41499 0.92391 0.0
C2131 C 0.07482 0.4062 0.93393 0.0
C2132 C 0.07228 0.40211 0.96731 0.0
C2133 C 0.1006 0.40991 0.88732 0.0
C2134 C 0.08548 0.4148 0.86261 0.0
C2135 C 0.11821 0.39547 0.87715 0.0
C2136 C 0.1318 0.38575 0.90226 0.0
C2137 C 0.12226 0.37117 0.92216 0.0
C2138 C 0.13511 0.36166 0.94535 0.0
C2139 C 0.15759 0.36633 0.94845 0.0
C2140 C 0.16726 0.38048 0.9283 0.0
C2141 C 0.15444 0.39012 0.90516 0.0
H2142 H 0.16754 0.3589 0.96634 0.0
H2143 H 0.01662 0.40703 0.74522 0.0
H2144 H 0.979 0.3276 0.19674 0.0
H2145 H 0.99222 0.3147 0.2471 0.0
H2146 H 0.02589 0.26195 0.18336 0.0
H2147 H 0.01615 0.27858 0.13208 0.0
H2148 H 0.98153 0.28382 0.26801 0.0
H2149 H 0.05638 0.23533 0.21912 0.0
H2150 H 0.09009 0.23678 0.18429 0.0
H2151 H 0.09337 0.30604 0.21468 0.0
H2152 H 0.05977 0.30477 0.2494 0.0
H2153 H 0.9862 0.19624 0.27398 0.0
H2154 H 0.98328 0.22457 0.32123 0.0
H2155 H 0.05298 0.22875 0.33028 0.0
H2156 H 0.05621 0.1938 0.29334 0.0
H2157 H 0.05294 0.2509 0.29042 0.0
H2158 H 0.99073 0.27677 0.36941 0.0
H2159 H 0.95525 0.27464 0.39986 0.0
H2160 H 0.92417 0.24729 0.305 0.0
H2161 H 0.95914 0.24963 0.27405 0.0
C2162 C 0.98887 0.31306 0.19316 0.0
C2163 C -0.00403 0.30357 0.16056 0.0
C2164 C -0.00316 0.30584 0.22221 0.0
C2165 C 0.0104 0.28744 0.21938 0.0
C2166 C 0.01641 0.27683 0.18646 0.0
C2167 C 0.00998 0.28551 0.15717 0.0
C2168 C 0.01502 0.27801 0.25085 0.0
C2169 C -0.00269 0.27681 0.27328 0.0
C2170 C 0.03553 0.26926 0.2583 0.0
C2171 C 0.05529 0.27015 0.23632 0.0
C2172 C 0.06426 0.25088 0.21818 0.0
C2173 C 0.08338 0.25162 0.19848 0.0
C2174 C 0.0938 0.27152 0.19706 0.0
C2175 C 0.08513 0.29068 0.21535 0.0
C2176 C 0.06595 0.28998 0.23483 0.0
C2177 C 0.00122 0.20214 0.28658 0.0
C2178 C 0.02193 0.19304 0.27722 0.0
C2179 C -0.00047 0.21961 0.31269 0.0
C2180 C 0.01819 0.23263 0.32054 0.0
C2181 C 0.03815 0.22089 0.31959 0.0
C2182 C 0.04023 0.20132 0.29687 0.0
C2183 C 0.01833 0.25368 0.30588 0.0
C2184 C 0.03713 0.25813 0.28654 0.0
C2185 C -0.0015 0.26501 0.30057 0.0
C2186 C 0.9776 0.26332 0.31961 0.0
C2187 C 0.97634 0.27024 0.35519 0.0
C2188 C 0.95629 0.26908 0.37246 0.0
C2189 C 0.93755 0.26072 0.35444 0.0
C2190 C 0.93866 0.25378 0.31898 0.0
C2191 C 0.95851 0.25524 0.30153 0.0
H2192 H 0.92218 0.25961 0.36802 0.0
H2193 H 0.10862 0.2721 0.18189 0.0
H2194 H 0.93146 0.7439 0.51656 0.0
H2195 H 0.95536 0.74738 0.56658 0.0
H2196 H 0.01037 0.75969 0.50197 0.0
H2197 H 0.98565 0.76001 0.45384 0.0
H2198 H 0.98242 0.72313 0.57963 0.0
H2199 H 0.0513 0.77509 0.5234 0.0
H2200 H 0.0546 0.81206 0.50929 0.0
H2201 H 0.00228 0.8337 0.57929 0.0
H2202 H -0.00074 0.79646 0.59519 0.0
H2203 H 0.03798 0.70208 0.43814 0.0
H2204 H 0.01842 0.70839 0.49313 0.0
H2205 H 0.08016 0.72339 0.54639 0.0
H2206 H 0.09875 0.7199 0.49132 0.0
H2207 H 0.05594 0.75311 0.56562 0.0
H2208 H 0.04245 0.6796 0.5645 0.0
H2209 H 0.03485 0.64138 0.53941 0.0
H2210 H 0.96991 0.65889 0.51123 0.0
H2211 H 0.97723 0.69706 0.53362 0.0
C2212 C 0.9487 0.74756 0.51328 0.0
C2213 C 0.95688 0.75156 0.48139 0.0
C2214 C 0.96226 0.75006 0.54213 0.0
C2215 C 0.98471 0.75483 0.53909 0.0
C2216 C 0.99299 0.75767 0.50643 0.0
C2217 C 0.97907 0.75675 0.4782 0.0
C2218 C 0.00026 0.75072 0.56654 0.0
C2219 C -0.00148 0.72956 0.57492 0.0
C2220 C 0.0215 0.76034 0.56799 0.0
C2221 C 0.02496 0.78305 0.56094 0.0
C2222 C 0.04082 0.78774 0.53674 0.0
C2223 C 0.04258 0.80869 0.52816 0.0
C2224 C 0.02866 0.82519 0.54359 0.0
C2225 C 0.01306 0.82081 0.56771 0.0
C2226 C 0.01128 0.79985 0.57646 0.0
C2227 C 0.04715 0.70672 0.46176 0.0
C2228 C 0.06971 0.71069 0.46095 0.0
C2229 C 0.0362 0.70957 0.49333 0.0
C2230 C 0.04799 0.71536 0.52441 0.0
C2231 C 0.07075 0.71846 0.5231 0.0
C2232 C 0.08128 0.71688 0.49161 0.0
C2233 C 0.03602 0.72403 0.55621 0.0
C2234 C 0.03959 0.74635 0.56729 0.0
C2235 C 0.01552 0.71493 0.56376 0.0
C2236 C 0.01029 0.69142 0.5522 0.0
C2237 C 0.02644 0.67531 0.55339 0.0
C2238 C 0.02222 0.65363 0.53934 0.0
C2239 C 0.00182 0.6477 0.52454 0.0
C2240 C 0.98561 0.66344 0.52324 0.0
C2241 C 0.98981 0.68516 0.53667 0.0
H2242 H -0.00135 0.63092 0.51369 0.0
H2243 H 0.02994 0.84139 0.5368 0.0
H2244 H 0.4988 0.70125 0.78267 0.0
H2245 H 0.50352 0.72962 0.74771 0.0
H2246 H 0.57311 0.71444 0.73876 0.0
H2247 H 0.56765 0.6891 0.78033 0.0
H2248 H 0.57175 0.75007 0.73051 0.0
H2249 H 0.5345 0.72239 0.63319 0.0
H2250 H 0.51307 0.69705 0.59122 0.0
H2251 H 0.45659 0.70634 0.6575 0.0
H2252 H 0.47793 0.73132 0.69982 0.0
H2253 H 0.52426 0.83233 0.68263 0.0
H2254 H 0.54176 0.81974 0.72934 0.0
H2255 H 0.48117 0.79084 0.75564 0.0
H2256 H 0.46231 0.80603 0.70881 0.0
H2257 H 0.49683 0.76753 0.69574 0.0
H2258 H 0.5456 0.79128 0.80435 0.0
H2259 H 0.57441 0.8139 0.83637 0.0
H2260 H 0.61031 0.8155 0.74246 0.0
H2261 H 0.58227 0.79202 0.71036 0.0
C2262 C 0.51518 0.70444 0.77383 0.0
C2263 C 0.53234 0.6896 0.77504 0.0
C2264 C 0.51768 0.71982 0.75203 0.0
C2265 C 0.53807 0.72157 0.7352 0.0
C2266 C 0.55663 0.71161 0.74763 0.0
C2267 C 0.55361 0.69741 0.77145 0.0
C2268 C 0.54053 0.7373 0.711 0.0
C2269 C 0.55512 0.75394 0.72341 0.0
C2270 C 0.52126 0.74317 0.69478 0.0
C2271 C 0.50834 0.72751 0.67049 0.0
C2272 C 0.51781 0.71825 0.63922 0.0
C2273 C 0.50557 0.70421 0.6152 0.0
C2274 C 0.4836 0.69967 0.62197 0.0
C2275 C 0.47371 0.70957 0.65246 0.0
C2276 C 0.48593 0.72362 0.67648 0.0
C2277 C 0.51494 0.82197 0.69653 0.0
C2278 C 0.49291 0.81681 0.68831 0.0
C2279 C 0.5246 0.81579 0.72501 0.0
C2280 C 0.51382 0.80013 0.74046 0.0
C2281 C 0.49048 0.80077 0.74033 0.0
C2282 C 0.47989 0.8082 0.7125 0.0
C2283 C 0.52402 0.77861 0.73038 0.0
C2284 C 0.51255 0.76357 0.7062 0.0
C2285 C 0.54657 0.77436 0.73615 0.0
C2286 C 0.56186 0.79018 0.75509 0.0
C2287 C 0.55953 0.79671 0.79062 0.0
C2288 C 0.57584 0.80949 0.80878 0.0
C2289 C 0.59415 0.8162 0.79134 0.0
C2290 C 0.59616 0.81026 0.75585 0.0
C2291 C 0.58022 0.79708 0.73778 0.0
H2292 H 0.60701 0.82578 0.80504 0.0
H2293 H 0.47417 0.68875 0.60339 0.0
H2294 H 0.56376 0.17447 0.94683 0.0
H2295 H 0.54221 0.17744 0.99905 0.0
H2296 H 0.54332 0.24751 1.00684 0.0
H2297 H 0.56748 0.24473 0.95686 0.0
H2298 H 0.54073 0.23686 0.06899 0.0
H2299 H 0.50074 0.22597 0.96651 0.0
H2300 H 0.49589 0.21033 0.90553 0.0
H2301 H 0.49144 0.14629 0.93352 0.0
H2302 H 0.4963 0.1617 0.99495 0.0
H2303 H 0.47836 0.27269 0.97419 0.0
H2304 H 0.49812 0.26488 1.0246 0.0
H2305 H 0.44063 0.2327 0.05793 0.0
H2306 H 0.42198 0.23809 1.00601 0.0
H2307 H 0.46881 0.20461 1.0322 0.0
H2308 H 0.48133 0.25492 0.13152 0.0
H2309 H 0.4843 0.29043 0.16828 0.0
H2310 H 0.53464 0.31021 0.10317 0.0
H2311 H 0.53227 0.27477 0.06582 0.0
C2312 C 0.56005 0.19057 0.96018 0.0
C2313 C 0.56787 0.20939 0.94833 0.0
C2314 C 0.5479 0.19217 0.99019 0.0
C2315 C 0.54159 0.21261 1.00704 0.0
C2316 C 0.5487 0.23155 0.99474 0.0
C2317 C 0.56188 0.22995 0.96557 0.0
C2318 C 0.52349 0.2142 1.0318 0.0
C2319 C 0.52481 0.23 0.06114 0.0
C2320 C 0.50294 0.20466 1.02158 0.0
C2321 C 0.4989 0.19492 0.9852 0.0
C2322 C 0.49857 0.20855 0.95965 0.0
C2323 C 0.4959 0.19976 0.92505 0.0
C2324 C 0.49337 0.17731 0.91565 0.0
C2325 C 0.49338 0.16368 0.94091 0.0
C2326 C 0.49605 0.17243 0.97567 0.0
C2327 C 0.47006 0.26393 0.9923 0.0
C2328 C 0.44926 0.25483 0.98495 0.0
C2329 C 0.48094 0.26029 1.02212 0.0
C2330 C 0.47095 0.24771 0.04505 0.0
C2331 C 0.44874 0.24221 1.04061 0.0
C2332 C 0.43839 0.2447 1.01005 0.0
C2333 C 0.48522 0.23252 0.06043 0.0
C2334 C 0.48455 0.21143 1.04147 0.0
C2335 C 0.50553 0.24038 0.07456 0.0
C2336 C 0.50687 0.26197 0.09629 0.0
C2337 C 0.49303 0.26682 0.12499 0.0
C2338 C 0.49461 0.28698 0.14594 0.0
C2339 C 0.50961 0.30255 0.13818 0.0
C2340 C 0.5231 0.29807 0.10927 0.0
C2341 C 0.52177 0.27788 0.08832 0.0
H2342 H 0.51081 0.31808 0.15452 0.0
H2343 H 0.4914 0.1705 0.8888 0.0
H2344 H 0.02932 0.78889 0.88519 0.0
H2345 H 0.03911 0.75148 0.86902 0.0
H2346 H 0.04446 0.76078 0.76225 0.0
H2347 H 0.0363 0.79991 0.78002 0.0
H2348 H 0.01185 0.73003 0.7757 0.0
H2349 H 0.08595 0.71733 0.77891 0.0
H2350 H 0.12526 0.72603 0.78915 0.0
H2351 H 0.11397 0.73668 0.89825 0.0
H2352 H 0.07474 0.72849 0.88889 0.0
H2353 H 0.95988 0.68478 0.90862 0.0
H2354 H 0.98026 0.68607 0.85812 0.0
H2355 H 0.02865 0.7275 0.91586 0.0
H2356 H 0.01205 0.71851 0.96882 0.0
H2357 H 0.04913 0.70122 0.87107 0.0
H2358 H 0.98269 0.74761 0.85606 0.0
H2359 H 0.94302 0.74505 0.86974 0.0
H2360 H 0.93826 0.68512 0.80172 0.0
H2361 H 0.97783 0.68694 0.78681 0.0
C2362 C 0.03309 0.78306 0.85844 0.0
C2363 C 0.03178 0.79676 0.8337 0.0
C2364 C 0.03913 0.76165 0.84901 0.0
C2365 C 0.04303 0.75314 0.81415 0.0
C2366 C 0.04211 0.76709 0.78924 0.0
C2367 C 0.03698 0.7891 0.79919 0.0
C2368 C 0.04182 0.72929 0.80454 0.0
C2369 C 0.02015 0.72288 0.79569 0.0
C2370 C 0.05347 0.71743 0.82667 0.0
C2371 C 0.07733 0.72172 0.83302 0.0
C2372 C 0.09186 0.7214 0.80509 0.0
C2373 C 0.11416 0.72633 0.81078 0.0
C2374 C 0.12214 0.73176 0.84432 0.0
C2375 C 0.10783 0.7323 0.87227 0.0
C2376 C 0.08555 0.72738 0.86676 0.0
C2377 C 0.97452 0.69468 0.9112 0.0
C2378 C 0.98559 0.69946 0.94256 0.0
C2379 C 0.98605 0.69584 0.88131 0.0
C2380 C 0.00577 0.70752 0.88218 0.0
C2381 C 0.01376 0.71779 0.9142 0.0
C2382 C 0.00374 0.7136 0.94453 0.0
C2383 C 0.01792 0.70916 0.85005 0.0
C2384 C 0.041 0.70773 0.85028 0.0
C2385 C 0.00728 0.71517 0.8208 0.0
C2386 C 0.98308 0.71756 0.81999 0.0
C2387 C 0.97294 0.73438 0.84264 0.0
C2388 C 0.9506 0.73295 0.85077 0.0
C2389 C 0.9382 0.71514 0.83589 0.0
C2390 C 0.94794 0.69896 0.81226 0.0
C2391 C 0.97021 0.70029 0.8036 0.0
H2392 H 0.92103 0.71382 0.84275 0.0
H2393 H 0.13938 0.73565 0.84865 0.0
H2394 H 0.58479 0.7604 0.10677 0.0
H2395 H 0.56819 0.76363 0.05207 0.0
H2396 H 0.55546 0.83154 0.08585 0.0
H2397 H 0.57107 0.8283 0.14162 0.0
H2398 H 0.52515 0.80799 0.10888 0.0
H2399 H 0.57036 0.77366 0.99851 0.0
H2400 H 0.5789 0.77272 0.93721 0.0
H2401 H 0.511 0.78476 0.91618 0.0
H2402 H 0.50198 0.78584 0.97743 0.0
H2403 H 0.43296 0.76411 0.09169 0.0
H2404 H 0.46268 0.77433 0.05676 0.0
H2405 H 0.50208 0.72125 0.08197 0.0
H2406 H 0.47208 0.71048 0.11691 0.0
H2407 H 0.50743 0.75097 1.01109 0.0
H2408 H 0.5176 0.74736 0.13287 0.0
H2409 H 0.50595 0.74645 0.19278 0.0
H2410 H 0.47386 0.80816 0.19564 0.0
H2411 H 0.4841 0.80883 0.13495 0.0
C2412 C 0.57857 0.77605 0.10265 0.0
C2413 C 0.57817 0.79376 0.12924 0.0
C2414 C 0.56986 0.77821 0.07058 0.0
C2415 C 0.55852 0.79732 0.06606 0.0
C2416 C 0.56302 0.81624 0.0894 0.0
C2417 C 0.57095 0.8141 0.122 0.0
C2418 C 0.5351 0.79351 0.05723 0.0
C2419 C 0.5218 0.79557 0.087 0.0
C2420 C 0.52886 0.77816 1.02848 0.0
C2421 C 0.53551 0.78003 0.99285 0.0
C2422 C 0.55725 0.77641 0.98117 0.0
C2423 C 0.56216 0.77565 0.94619 0.0
C2424 C 0.54551 0.77858 0.92278 0.0
C2425 C 0.52392 0.7825 0.93427 0.0
C2426 C 0.51893 0.78321 0.96908 0.0
C2427 C 0.44797 0.75468 0.09028 0.0
C2428 C 0.45104 0.73775 0.10962 0.0
C2429 C 0.46444 0.75984 0.06883 0.0
C2430 C 0.48449 0.74884 0.06805 0.0
C2431 C 0.48658 0.72993 0.08291 0.0
C2432 C 0.46975 0.72436 0.10383 0.0
C2433 C 0.50366 0.7621 0.06518 0.0
C2434 C 0.51292 0.76255 1.0329 0.0
C2435 C 0.50841 0.77857 0.09291 0.0
C2436 C 0.5009 0.77773 0.12883 0.0
C2437 C 0.50744 0.76041 0.14585 0.0
C2438 C 0.50117 0.75997 0.18001 0.0
C2439 C 0.48898 0.77712 0.19786 0.0
C2440 C 0.48298 0.79472 0.18156 0.0
C2441 C 0.48884 0.79504 0.14718 0.0
H2442 H 0.48434 0.77686 0.2244 0.0
H2443 H 0.54935 0.77793 0.89575 0.0
H2444 H 0.52468 0.19825 0.42721 0.0
H2445 H 0.52489 0.22052 0.38347 0.0
H2446 H 0.45379 0.22108 0.38173 0.0
H2447 H 0.45335 0.19669 0.42583 0.0
H2448 H 0.47714 0.212 0.31366 0.0
H2449 H 0.47433 0.269 0.41044 0.0
H2450 H 0.4823 0.28356 0.47114 0.0
H2451 H 0.55168 0.27749 0.45081 0.0
H2452 H 0.54421 0.26359 0.38994 0.0
H2453 H 0.49803 0.31155 0.27678 0.0
H2454 H 0.49171 0.27401 0.25308 0.0
H2455 H 0.55668 0.25734 0.28061 0.0
H2456 H 0.56503 0.29552 0.30015 0.0
H2457 H 0.52488 0.27694 0.33866 0.0
H2458 H 0.52433 0.22011 0.23646 0.0
H2459 H 0.51292 0.20553 0.17729 0.0
H2460 H 0.44515 0.21496 0.20697 0.0
H2461 H 0.45591 0.22926 0.26558 0.0
C2462 C 0.50894 0.2034 0.41887 0.0
C2463 C 0.48903 0.19569 0.43037 0.0
C2464 C 0.50911 0.216 0.39319 0.0
C2465 C 0.48937 0.22244 0.37964 0.0
C2466 C 0.46916 0.21605 0.39208 0.0
C2467 C 0.46897 0.20257 0.41756 0.0
C2468 C 0.49127 0.23605 0.35269 0.0
C2469 C 0.48705 0.22667 0.31866 0.0
C2470 C 0.50407 0.25503 0.35965 0.0
C2471 C 0.50868 0.26545 0.39555 0.0
C2472 C 0.49129 0.2711 0.41885 0.0
C2473 C 0.49572 0.27928 0.45326 0.0
C2474 C 0.51748 0.28165 0.46472 0.0
C2475 C 0.53485 0.27605 0.44178 0.0
C2476 C 0.53053 0.26822 0.40723 0.0
C2477 C 0.51172 0.30042 0.27553 0.0
C2478 C 0.53137 0.30617 0.29357 0.0
C2479 C 0.50813 0.27881 0.26141 0.0
C2480 C 0.52228 0.26327 0.27136 0.0
C2481 C 0.54446 0.26946 0.27682 0.0
C2482 C 0.54902 0.29135 0.2892 0.0
C2483 C 0.51215 0.25231 0.29834 0.0
C2484 C 0.51461 0.26267 0.33259 0.0
C2485 C 0.49707 0.23496 0.29113 0.0
C2486 C 0.49094 0.22574 0.25554 0.0
C2487 C 0.50696 0.21901 0.23028 0.0
C2488 C 0.50057 0.21071 0.19667 0.0
C2489 C 0.47823 0.20917 0.18809 0.0
C2490 C 0.46235 0.21588 0.21317 0.0
C2491 C 0.46858 0.224 0.24668 0.0
H2492 H 0.47324 0.20283 0.16207 0.0
H2493 H 0.52083 0.28771 0.49141 0.0
H2494 H 0.06665 0.31855 0.62849 0.0
H2495 H 0.05471 0.30963 0.56929 0.0
H2496 H 0.04505 0.24307 0.5859 0.0
H2497 H 0.06209 0.25088 0.64085 0.0
H2498 H 0.05679 0.24229 0.52058 0.0
H2499 H -0.00314 0.28726 0.59639 0.0
H2500 H 0.99083 0.32239 0.63366 0.0
H2501 H 0.0192 0.35608 0.5565 0.0
H2502 H 0.0251 0.32102 0.51847 0.0
H2503 H 0.98364 0.2308 0.63696 0.0
H2504 H 0.00955 0.23255 0.59048 0.0
H2505 H 0.95637 0.24797 0.52496 0.0
H2506 H 0.93136 0.24977 0.57316 0.0
H2507 H 0.98356 0.2745 0.52156 0.0
H2508 H 0.99196 0.20061 0.51939 0.0
H2509 H 0.99457 0.16881 0.54967 0.0
H2510 H 0.06319 0.18059 0.56741 0.0
H2511 H 0.0604 0.21473 0.54574 0.0
C2512 C 0.06287 0.30178 0.61866 0.0
C2513 C 0.06714 0.28505 0.63814 0.0
C2514 C 0.05555 0.29679 0.58491 0.0
C2515 C 0.04915 0.2755 0.57197 0.0
C2516 C 0.05064 0.25945 0.59373 0.0
C2517 C 0.05977 0.26406 0.62616 0.0
C2518 C 0.03761 0.27014 0.53848 0.0
C2519 C 0.04021 0.24853 0.52221 0.0
C2520 C 0.01714 0.28031 0.53427 0.0
C2521 C 0.01141 0.30163 0.55465 0.0
C2522 C 0.00149 0.30221 0.58719 0.0
C2523 C -0.00176 0.32206 0.60852 0.0
C2524 C 0.00488 0.34143 0.59761 0.0
C2525 C 0.01424 0.34102 0.56497 0.0
C2526 C 0.01736 0.32119 0.54334 0.0
C2527 C 0.97777 0.23512 0.61284 0.0
C2528 C 0.95579 0.24073 0.60889 0.0
C2529 C 0.99239 0.23536 0.58569 0.0
C2530 C 0.98494 0.23974 0.55338 0.0
C2531 C 0.9626 0.24434 0.54929 0.0
C2532 C 0.94839 0.24573 0.57714 0.0
C2533 C 0.001 0.24493 0.52739 0.0
C2534 C -0.00042 0.26683 0.52214 0.0
C2535 C 0.02203 0.23447 0.52355 0.0
C2536 C 0.02552 0.21144 0.53101 0.0
C2537 C 0.00759 0.19695 0.53038 0.0
C2538 C 0.00903 0.17847 0.54668 0.0
C2539 C 0.02906 0.17236 0.55947 0.0
C2540 C 0.04759 0.18523 0.55733 0.0
C2541 C 0.04583 0.20475 0.544 0.0
H2542 H 0.03017 0.15774 0.57126 0.0
H2543 H 0.00252 0.35678 0.61428 0.0
H2544 H 0.03551 0.0549 0.17866 0.0
H2545 H 0.03785 0.02187 0.1357 0.0
H2546 H 0.00837 0.05636 0.06001 0.0
H2547 H 0.00623 0.08921 0.10236 0.0
H2548 H 0.98942 0.01908 0.05584 0.0
H2549 H 0.06711 0.03891 0.052 0.0
H2550 H 0.10502 0.0474 0.07248 0.0
H2551 H 0.10572 0.99019 0.12154 0.0
H2552 H 0.06812 0.98096 0.10025 0.0
H2553 H 0.01648 0.94211 0.90353 0.0
H2554 H 0.01791 0.97524 0.94697 0.0
H2555 H 0.02682 0.93566 1.02695 0.0
H2556 H 0.02438 0.90277 0.98416 0.0
H2557 H 0.05669 0.97445 1.02907 0.0
H2558 H 0.98095 0.95243 1.02454 0.0
H2559 H 0.9457 0.94179 0.9958 0.0
H2560 H 0.94165 0.00391 0.9609 0.0
H2561 H 0.9772 0.01472 0.98879 0.0
C2562 C 0.02969 0.0555 0.15279 0.0
C2563 C 0.02082 0.07495 0.14417 0.0
C2564 C 0.03116 0.03656 0.12806 0.0
C2565 C 0.02358 0.03646 0.09411 0.0
C2566 C 0.01443 0.05579 0.08577 0.0
C2567 C 0.01311 0.07467 0.11028 0.0
C2568 C 0.02387 0.01613 0.06771 0.0
C2569 C 0.00429 0.00959 0.04981 0.0
C2570 C 0.04297 0.0031 0.05996 0.0
C2571 C 0.06472 0.00948 0.0751 0.0
C2572 C 0.07529 0.02828 0.06745 0.0
C2573 C 0.09681 0.03306 0.07883 0.0
C2574 C 0.10769 0.01946 0.09858 0.0
C2575 C 0.09722 0.00081 0.10648 0.0
C2576 C 0.07588 0.9957 0.09453 0.0
C2577 C 0.01868 0.94055 0.93039 0.0
C2578 C 0.02001 0.91982 0.94045 0.0
C2579 C 0.01954 0.95945 0.95519 0.0
C2580 C 0.02243 0.95798 0.99035 0.0
C2581 C 0.02454 0.93728 1.00012 0.0
C2582 C 0.02297 0.91847 0.9756 0.0
C2583 C 0.02244 0.97786 1.01718 0.0
C2584 C 0.04193 0.98412 1.03519 0.0
C2585 C 0.00331 0.99067 1.02498 0.0
C2586 C 0.98191 0.98426 1.0083 0.0
C2587 C 0.9727 0.96371 1.01035 0.0
C2588 C 0.95264 0.95766 0.99428 0.0
C2589 C 0.94148 0.97213 0.97642 0.0
C2590 C 0.95035 0.99269 0.97466 0.0
C2591 C 0.97047 -0.00122 0.99057 0.0
H2592 H 0.92593 0.96744 0.96403 0.0
H2593 H 0.12428 0.02332 0.1076 0.0
H2594 H 0.19667 0.67192 0.38771 0.0
H2595 H 0.23146 0.66877 0.3555 0.0
H2596 H 0.20486 0.70931 0.28565 0.0
H2597 H 0.17055 0.71276 0.31774 0.0
H2598 H 0.22575 0.67287 0.25228 0.0
H2599 H 0.23863 0.73008 0.34903 0.0
H2600 H 0.24272 0.74565 0.41023 0.0
H2601 H 0.294 0.69968 0.42154 0.0
H2602 H 0.28994 0.68357 0.36054 0.0
H2603 H 0.31652 0.71063 0.1633 0.0
H2604 H 0.28311 0.70417 0.19481 0.0
H2605 H 0.32237 0.67899 0.27149 0.0
H2606 H 0.35571 0.68762 0.24221 0.0
H2607 H 0.29562 0.70343 0.30373 0.0
H2608 H 0.28499 0.64719 0.20683 0.0
H2609 H 0.28087 0.63061 0.14605 0.0
H2610 H 0.22577 0.67235 0.1352 0.0
H2611 H 0.22975 0.68939 0.19571 0.0
C2612 C 0.19826 0.68016 0.36565 0.0
C2613 C 0.18092 0.69292 0.35592 0.0
C2614 C 0.21816 0.67838 0.34723 0.0
C2615 C 0.22082 0.68902 0.31837 0.0
C2616 C 0.20324 0.70107 0.30794 0.0
C2617 C 0.18362 0.7031 0.32653 0.0
C2618 C 0.24174 0.6879 0.29859 0.0
C2619 C 0.24109 0.67956 0.26341 0.0
C2620 C 0.26183 0.69607 0.31342 0.0
C2621 C 0.26373 0.70539 0.35034 0.0
C2622 C 0.25055 0.72307 0.36468 0.0
C2623 C 0.25292 0.73205 0.39931 0.0
C2624 C 0.26855 0.72361 0.4198 0.0
C2625 C 0.28184 0.70616 0.40569 0.0
C2626 C 0.2795 0.69709 0.3711 0.0
C2627 C 0.31803 0.70382 0.18698 0.0
C2628 C 0.3389 0.7004 0.20074 0.0
C2629 C 0.29881 0.69974 0.20477 0.0
C2630 C 0.29998 0.69096 0.23574 0.0
C2631 C 0.32083 0.68603 0.24801 0.0
C2632 C 0.34 0.69084 0.23096 0.0
C2633 C 0.27985 0.68845 0.25682 0.0
C2634 C 0.28054 0.69624 0.29238 0.0
C2635 C 0.25982 0.67955 0.24237 0.0
C2636 C 0.25782 0.6697 0.20572 0.0
C2637 C 0.27214 0.65298 0.19137 0.0
C2638 C 0.2698 0.64347 0.15698 0.0
C2639 C 0.25311 0.65046 0.13675 0.0
C2640 C 0.23872 0.66697 0.15086 0.0
C2641 C 0.24101 0.67655 0.1852 0.0
H2642 H 0.25129 0.64303 0.11016 0.0
H2643 H 0.27041 0.73063 0.44657 0.0
H2644 H 0.49523 0.05918 0.43977 0.0
H2645 H 0.49182 0.02384 0.46011 0.0
H2646 H 0.47938 0.05701 0.56308 0.0
H2647 H 0.48399 0.09209 0.54308 0.0
H2648 H 0.51212 0.03076 0.56246 0.0
H2649 H 0.43802 0.02253 0.51306 0.0
H2650 H 0.40957 0.01922 0.46759 0.0
H2651 H 0.44679 0.96837 0.40734 0.0
H2652 H 0.4753 0.97129 0.45249 0.0
H2653 H 0.47981 0.93729 0.64217 0.0
H2654 H 0.48219 0.97237 0.62081 0.0
H2655 H 0.50691 0.93971 0.52359 0.0
H2656 H 0.50468 0.90486 0.54453 0.0
H2657 H 0.46912 0.96468 0.519 0.0
H2658 H 0.53874 0.96832 0.57515 0.0
H2659 H 0.5684 0.97221 0.61824 0.0
H2660 H 0.5423 0.03423 0.66333 0.0
H2661 H 0.51121 0.02959 0.62357 0.0
C2662 C 0.49176 0.05872 0.46671 0.0
C2663 C 0.49054 0.07805 0.49024 0.0
C2664 C 0.48942 0.03863 0.47816 0.0
C2665 C 0.48527 0.0378 0.51309 0.0
C2666 C 0.48274 0.05729 0.53606 0.0
C2667 C 0.48564 0.07726 0.52481 0.0
C2668 C 0.48709 0.01711 0.52705 0.0
C2669 C 0.50222 0.01645 0.55378 0.0
C2670 C 0.47527 -0.00189 0.51387 0.0
C2671 C 0.45891 -0.00258 0.48584 0.0
C2672 C 0.44026 0.01091 0.48986 0.0
C2673 C 0.42406 0.00897 0.46428 0.0
C2674 C 0.42646 0.99372 0.4345 0.0
C2675 C 0.445 0.98027 0.43031 0.0
C2676 C 0.46113 0.98201 0.45591 0.0
C2677 C 0.48596 0.9377 0.61639 0.0
C2678 C 0.49184 0.9184 0.59486 0.0
C2679 C 0.48747 0.95768 0.60438 0.0
C2680 C 0.49476 0.95848 0.57073 0.0
C2681 C 0.50131 0.93932 0.54968 0.0
C2682 C 0.50001 0.91946 0.56171 0.0
C2683 C 0.49328 0.97877 0.5559 0.0
C2684 C 0.47857 0.97917 0.52849 0.0
C2685 C 0.50544 -0.00237 0.56874 0.0
C2686 C 0.52226 -0.00161 0.5964 0.0
C2687 C 0.53866 0.98229 0.59526 0.0
C2688 C 0.55579 0.98461 0.61933 0.0
C2689 C 0.5571 0.00326 0.64404 0.0
C2690 C 0.54105 0.01943 0.64509 0.0
C2691 C 0.52349 0.01682 0.62204 0.0
H2692 H 0.57067 0.00531 0.66208 0.0
H2693 H 0.4139 0.99226 0.41476 0.0
H2694 H 0.32446 0.29592 0.92209 0.0
H2695 H 0.29073 0.30126 0.89034 0.0
H2696 H 0.32776 0.29296 0.79537 0.0
H2697 H 0.3616 0.28905 0.82746 0.0
H2698 H 0.30098 0.32187 0.79027 0.0
H2699 H 0.28751 0.25038 0.8218 0.0
H2700 H 0.28328 0.22244 0.85994 0.0
H2701 H 0.23478 0.26208 0.91944 0.0
H2702 H 0.23904 0.29028 0.88191 0.0
H2703 H 0.20479 0.30046 0.68118 0.0
H2704 H 0.24025 0.30145 0.7115 0.0
H2705 H 0.20613 0.31567 0.8088 0.0
H2706 H 0.17087 0.31345 0.7785 0.0
H2707 H 0.23171 0.28394 0.81146 0.0
H2708 H 0.242 0.35275 0.76969 0.0
H2709 H 0.24581 0.37737 0.72633 0.0
H2710 H 0.30032 0.3396 0.68032 0.0
H2711 H 0.29656 0.31451 0.72292 0.0
C2712 C 0.32538 0.29561 0.89449 0.0
C2713 C 0.34572 0.29234 0.87735 0.0
C2714 C 0.306 0.29825 0.87617 0.0
C2715 C 0.30634 0.29704 0.84007 0.0
C2716 C 0.32681 0.29406 0.8231 0.0
C2717 C 0.34626 0.29195 0.84151 0.0
C2718 C 0.28567 0.29955 0.82006 0.0
C2719 C 0.28593 0.31329 0.79467 0.0
C2720 C 0.26568 0.28885 0.82588 0.0
C2721 C 0.26402 0.27257 0.84962 0.0
C2722 C 0.27633 0.25326 0.8435 0.0
C2723 C 0.27381 0.23734 0.86484 0.0
C2724 C 0.25887 0.24054 0.89224 0.0
C2725 C 0.24643 0.25966 0.89834 0.0
C2726 C 0.24891 0.27561 0.87706 0.0
C2727 C 0.20504 0.30433 0.709 0.0
C2728 C 0.18522 0.30695 0.72764 0.0
C2729 C 0.22531 0.30494 0.72637 0.0
C2730 C 0.22605 0.30872 0.76263 0.0
C2731 C 0.20614 0.31258 0.78092 0.0
C2732 C 0.18598 0.31145 0.76364 0.0
C2733 C 0.24696 0.30639 0.78194 0.0
C2734 C 0.24674 0.29259 0.80714 0.0
C2735 C 0.267 0.31676 0.77541 0.0
C2736 C 0.26883 0.33161 0.74932 0.0
C2737 C 0.25462 0.34954 0.75008 0.0
C2738 C 0.25681 0.36361 0.72567 0.0
C2739 C 0.27326 0.36002 0.70054 0.0
C2740 C 0.28755 0.34234 0.69974 0.0
C2741 C 0.28539 0.32818 0.72399 0.0
H2742 H 0.27497 0.37098 0.68175 0.0
H2743 H 0.25685 0.22816 0.90863 0.0
H2744 H 0.70467 0.19347 0.89892 0.0
H2745 H 0.74006 0.19345 0.86823 0.0
H2746 H 0.70542 0.18602 0.77132 0.0
H2747 H 0.67021 0.18664 0.80208 0.0
H2748 H 0.74297 0.16052 0.76842 0.0
H2749 H 0.72082 0.23377 0.80519 0.0
H2750 H 0.7096 0.26636 0.8451 0.0
H2751 H 0.77118 0.26588 0.89862 0.0
H2752 H 0.78261 0.23294 0.85943 0.0
H2753 H 0.824 0.20274 0.66105 0.0
H2754 H 0.79019 0.19678 0.69285 0.0
H2755 H 0.8278 0.19983 0.78646 0.0
H2756 H 0.86158 0.20531 0.75482 0.0
H2757 H 0.7893 0.22686 0.79191 0.0
H2758 H 0.81113 0.15304 0.75065 0.0
H2759 H 0.82116 0.12173 0.70712 0.0
H2760 H 0.75835 0.12512 0.65806 0.0
H2761 H 0.7481 0.15675 0.70089 0.0
C2762 C 0.70477 0.19132 0.87105 0.0
C2763 C 0.6849 0.18988 0.85264 0.0
C2764 C 0.7249 0.19151 0.85358 0.0
C2765 C 0.72536 0.18995 0.81748 0.0
C2766 C 0.70548 0.18728 0.79912 0.0
C2767 C 0.68541 0.18757 0.8166 0.0
C2768 C 0.74635 0.19217 0.7988 0.0
C2769 C 0.75303 0.17508 0.7734 0.0
C2770 C 0.75952 0.21116 0.80544 0.0
C2771 C 0.75244 0.23063 0.82968 0.0
C2772 C 0.73184 0.24037 0.8258 0.0
C2773 C 0.72547 0.25897 0.84822 0.0
C2774 C 0.73964 0.26814 0.87446 0.0
C2775 C 0.7602 0.25871 0.87835 0.0
C2776 C 0.76662 0.24006 0.85605 0.0
C2777 C 0.82505 0.20181 0.6883 0.0
C2778 C 0.84545 0.20426 0.70537 0.0
C2779 C 0.80576 0.19845 0.70644 0.0
C2780 C 0.8065 0.19779 0.74202 0.0
C2781 C 0.82686 0.20021 0.75903 0.0
C2782 C 0.84617 0.20316 0.74084 0.0
C2783 C 0.78601 0.19511 0.76174 0.0
C2784 C 0.77935 0.21221 0.78721 0.0
C2785 C 0.77267 0.17628 0.75478 0.0
C2786 C 0.77897 0.15747 0.72873 0.0
C2787 C 0.79956 0.14731 0.73032 0.0
C2788 C 0.80527 0.12946 0.70581 0.0
C2789 C 0.79043 0.12149 0.67977 0.0
C2790 C 0.76985 0.13135 0.67819 0.0
C2791 C 0.76409 0.14924 0.70256 0.0
H2792 H 0.79486 0.10764 0.66087 0.0
H2793 H 0.73472 0.2826 0.89171 0.0
H2794 H 0.82711 0.7861 0.4161 0.0
H2795 H 0.79449 0.7909 0.38127 0.0
H2796 H 0.83596 0.81054 0.30246 0.0
H2797 H 0.86871 0.80363 0.33548 0.0
H2798 H 0.78372 0.83368 0.34155 0.0
H2799 H 0.82722 0.78024 0.26179 0.0
H2800 H 0.84762 0.7465 0.24153 0.0
H2801 H 0.7953 0.70882 0.27659 0.0
H2802 H 0.77529 0.7425 0.29918 0.0
H2803 H 0.69869 0.82817 0.2109 0.0
H2804 H 0.73451 0.83098 0.23982 0.0
H2805 H 0.72163 0.77087 0.27856 0.0
H2806 H 0.68646 0.76757 0.24906 0.0
H2807 H 0.76182 0.77073 0.25517 0.0
H2808 H 0.71614 0.82329 0.32693 0.0
H2809 H 0.69235 0.85583 0.33535 0.0
H2810 H 0.74604 0.89489 0.30816 0.0
H2811 H 0.77003 0.86247 0.29879 0.0
C2812 C 0.82936 0.79123 0.39119 0.0
C2813 C 0.8507 0.79405 0.37841 0.0
C2814 C 0.81064 0.79411 0.37139 0.0
C2815 C 0.81274 0.8005 0.33876 0.0
C2816 C 0.83389 0.80496 0.32707 0.0
C2817 C 0.85266 0.80141 0.34636 0.0
C2818 C 0.79288 0.80162 0.31666 0.0
C2819 C 0.77906 0.82002 0.32236 0.0
C2820 C 0.78654 0.78381 0.29177 0.0
C2821 C 0.80012 0.76396 0.28321 0.0
C2822 C 0.82053 0.76486 0.26661 0.0
C2823 C 0.83191 0.74572 0.25431 0.0
C2824 C 0.82266 0.72554 0.25744 0.0
C2825 C 0.80238 0.72447 0.27396 0.0
C2826 C 0.79119 0.74359 0.287 0.0
C2827 C 0.70356 0.81542 0.2252 0.0
C2828 C 0.68958 0.79753 0.22712 0.0
C2829 C 0.72402 0.81717 0.2421 0.0
C2830 C 0.73081 0.80123 0.26176 0.0
C2831 C 0.7169 0.7834 0.26358 0.0
C2832 C 0.69664 0.78156 0.24659 0.0
C2833 C 0.75243 0.80256 0.28024 0.0
C2834 C 0.76651 0.78452 0.27414 0.0
C2835 C 0.75894 0.82074 0.30443 0.0
C2836 C 0.74485 0.84041 0.31191 0.0
C2837 C 0.72287 0.83881 0.32268 0.0
C2838 C 0.70933 0.85722 0.32755 0.0
C2839 C 0.71767 0.87741 0.32224 0.0
C2840 C 0.7396 0.87923 0.31222 0.0
C2841 C 0.75318 0.86084 0.30713 0.0
H2842 H 0.70715 0.89163 0.32593 0.0
H2843 H 0.83132 0.71072 0.24735 0.0
H2844 H 0.52352 0.58955 0.6045 0.0
H2845 H 0.52643 0.55716 0.56115 0.0
H2846 H 0.51322 0.51667 0.63891 0.0
H2847 H 0.51235 0.54928 0.68296 0.0
H2848 H 0.53988 0.49575 0.59774 0.0
H2849 H 0.47251 0.53275 0.57437 0.0
H2850 H 0.45102 0.56462 0.56289 0.0
H2851 H 0.48951 0.56792 0.47211 0.0
H2852 H 0.51139 0.53625 0.48326 0.0
H2853 H 0.50767 0.40137 0.48269 0.0
H2854 H 0.50785 0.43416 0.5259 0.0
H2855 H 0.52808 0.47238 0.44843 0.0
H2856 H 0.5268 0.43978 0.40481 0.0
H2857 H 0.49882 0.49445 0.4884 0.0
H2858 H 0.56503 0.45626 0.5107 0.0
H2859 H 0.58639 0.42444 0.52252 0.0
H2860 H 0.54936 0.42292 0.61522 0.0
H2861 H 0.52765 0.45464 0.60389 0.0
C2862 C 0.5211 0.57374 0.61232 0.0
C2863 C 0.5172 0.57202 0.64707 0.0
C2864 C 0.52264 0.5551 0.58737 0.0
C2865 C 0.51916 0.53416 0.59603 0.0
C2866 C 0.51572 0.53246 0.63106 0.0
C2867 C 0.51501 0.55113 0.6563 0.0
C2868 C 0.51885 0.51422 0.5687 0.0
C2869 C 0.53059 0.49547 0.57411 0.0
C2870 C 0.50729 0.51363 0.53709 0.0
C2871 C 0.49363 0.53219 0.52973 0.0
C2872 C 0.47637 0.54028 0.55196 0.0
C2873 C 0.46416 0.55832 0.54555 0.0
C2874 C 0.4689 0.56827 0.5168 0.0
C2875 C 0.48584 0.56017 0.49434 0.0
C2876 C 0.49813 0.54216 0.50066 0.0
C2877 C 0.51193 0.41678 0.47472 0.0
C2878 C 0.51757 0.41776 0.44022 0.0
C2879 C 0.51231 0.43557 0.49964 0.0
C2880 C 0.5185 0.4559 0.4909 0.0
C2881 C 0.52345 0.457 0.4562 0.0
C2882 C 0.52291 0.43823 0.43122 0.0
C2883 C 0.51955 0.47597 0.51772 0.0
C2884 C 0.50803 0.49476 0.51211 0.0
C2885 C 0.53121 0.47653 0.54915 0.0
C2886 C 0.54462 0.45776 0.55634 0.0
C2887 C 0.56139 0.4491 0.53355 0.0
C2888 C 0.57356 0.43108 0.54015 0.0
C2889 C 0.56919 0.42164 0.56954 0.0
C2890 C 0.55272 0.43026 0.59247 0.0
C2891 C 0.54051 0.44828 0.58602 0.0
H2892 H 0.5786 0.40769 0.57463 0.0
H2893 H 0.45945 0.58224 0.51192 0.0
H2894 H -0.00516 0.59189 0.04561 0.0
H2895 H 0.99383 0.55638 0.0659 0.0
H2896 H 0.98886 0.52432 0.96095 0.0
H2897 H 0.99146 0.55983 0.94053 0.0
H2898 H 0.95377 0.51609 1.01916 0.0
H2899 H 0.02724 0.51172 0.98025 0.0
H2900 H 0.06667 0.51796 0.97132 0.0
H2901 H 0.079 0.51742 0.0787 0.0
H2902 H 0.03937 0.51232 0.08868 0.0
H2903 H 0.98103 0.40326 1.03802 0.0
H2904 H 0.97879 0.43877 1.01829 0.0
H2905 H 0.98082 0.47074 0.12355 0.0
H2906 H 0.98228 0.43504 0.14354 0.0
H2907 H 0.01685 0.47838 0.06445 0.0
H2908 H 0.9391 0.48242 0.09881 0.0
H2909 H 0.90159 0.4671 0.09835 0.0
H2910 H 0.90062 0.45937 0.98792 0.0
H2911 H 0.93813 0.47474 0.98777 0.0
C2912 C 0.99419 0.57718 1.02694 0.0
C2913 C 0.9938 0.57839 0.99158 0.0
C2914 C 0.99349 0.55697 1.03849 0.0
C2915 C 0.99152 0.53774 1.01488 0.0
C2916 C 0.99074 0.53897 0.9795 0.0
C2917 C 0.99232 0.55916 0.96788 0.0
C2918 C 0.98888 0.5166 1.02756 0.0
C2919 C 0.96761 0.50784 1.02894 0.0
C2920 C 0.00692 0.50576 1.04021 0.0
C2921 C 0.03014 0.51214 1.03536 0.0
C2922 C 0.03815 0.51376 1.00224 0.0
C2923 C 0.06062 0.51683 0.9969 0.0
C2924 C 0.07535 0.51786 1.02435 0.0
C2925 C 0.06757 0.51642 0.05738 0.0
C2926 C 0.04507 0.51368 0.06296 0.0
C2927 C 0.98067 0.41789 0.05693 0.0
C2928 C 0.98207 0.41659 0.09222 0.0
C2929 C 0.97925 0.43808 0.04566 0.0
C2930 C 0.9796 0.45727 0.06949 0.0
C2931 C 0.98036 0.45603 0.10486 0.0
C2932 C 0.98122 0.43574 0.11621 0.0
C2933 C 0.98185 0.47843 0.057 0.0
C2934 C 0.00305 0.48704 0.05536 0.0
C2935 C 0.96394 0.48871 0.04323 0.0
C2936 C 0.94139 0.47966 0.04329 0.0
C2937 C 0.9309 0.47739 0.07445 0.0
C2938 C 0.90961 0.4688 0.0743 0.0
C2939 C 0.89871 0.46232 0.04312 0.0
C2940 C 0.90905 0.46447 1.01204 0.0
C2941 C 0.93028 0.47321 1.01207 0.0
H2942 H 0.88227 0.45557 0.04306 0.0
H2943 H 0.09277 0.52003 1.02011 0.0
H2944 H 0.06578 0.13497 0.40633 0.0
H2945 H 0.07938 0.16247 0.45275 0.0
H2946 H 0.14084 0.16575 0.39845 0.0
H2947 H 0.1271 0.13827 0.35154 0.0
H2948 H 0.14188 0.15693 0.47182 0.0
H2949 H 0.11248 0.20819 0.40141 0.0
H2950 H 0.08222 0.21727 0.36449 0.0
H2951 H 0.03736 0.22193 0.44978 0.0
H2952 H 0.06714 0.2107 0.48602 0.0
H2953 H 0.17321 0.24658 0.6021 0.0
H2954 H 0.16802 0.21887 0.55145 0.0
H2955 H 0.09805 0.21908 0.5711 0.0
H2956 H 0.10315 0.24737 0.62033 0.0
H2957 H 0.10635 0.22852 0.509 0.0
H2958 H 0.12267 0.16025 0.55816 0.0
H2959 H 0.14347 0.13705 0.59256 0.0
H2960 H 0.20437 0.15876 0.55358 0.0
H2961 H 0.18377 0.18133 0.51773 0.0
C2962 C 0.08212 0.14168 0.40434 0.0
C2963 C 0.09559 0.1345 0.37596 0.0
C2964 C 0.0898 0.15738 0.43057 0.0
C2965 C 0.11105 0.16595 0.42871 0.0
C2966 C 0.1244 0.15919 0.40003 0.0
C2967 C 0.11658 0.14364 0.37347 0.0
C2968 C 0.11946 0.18099 0.45811 0.0
C2969 C 0.1348 0.17298 0.47951 0.0
C2970 C 0.1093 0.2013 0.46845 0.0
C2971 C 0.09208 0.20946 0.44694 0.0
C2972 C 0.09621 0.21138 0.41236 0.0
C2973 C 0.0791 0.21671 0.3914 0.0
C2974 C 0.05797 0.22085 0.40506 0.0
C2975 C 0.05381 0.21916 0.43944 0.0
C2976 C 0.07075 0.21323 0.46013 0.0
C2977 C 0.15688 0.24004 0.5962 0.0
C2978 C 0.1386 0.24879 0.61531 0.0
C2979 C 0.15392 0.22418 0.56742 0.0
C2980 C 0.13265 0.21695 0.55757 0.0
C2981 C 0.1146 0.2245 0.57826 0.0
C2982 C 0.11753 0.24051 0.60666 0.0
C2983 C 0.12879 0.20436 0.52322 0.0
C2984 C 0.11426 0.21293 0.50085 0.0
C2985 C 0.1392 0.18422 0.51231 0.0
C2986 C 0.1518 0.17274 0.53604 0.0
C2987 C 0.14052 0.16019 0.55726 0.0
C2988 C 0.15223 0.14692 0.57655 0.0
C2989 C 0.17524 0.14656 0.57548 0.0
C2990 C 0.18656 0.15921 0.55462 0.0
C2991 C 0.17488 0.17209 0.53459 0.0
H2992 H 0.18429 0.13642 0.59069 0.0
H2993 H 0.04468 0.22512 0.38913 0.0
H2994 H 0.17463 0.74643 0.48315 0.0
H2995 H 0.17062 0.77215 0.53653 0.0
H2996 H 0.10064 0.77554 0.51849 0.0
H2997 H 0.10471 0.75046 0.46561 0.0
H2998 H 0.11522 0.81285 0.54955 0.0
H2999 H 0.12087 0.73772 0.56424 0.0
H3000 H 0.13764 0.70127 0.55967 0.0
H3001 H 0.19445 0.7284 0.615 0.0
H3002 H 0.17803 0.76509 0.62022 0.0
H3003 H 0.07542 0.8354 0.71854 0.0
H3004 H 0.08557 0.80773 0.66951 0.0
H3005 H 0.15209 0.83222 0.67408 0.0
H3006 H 0.14176 0.8606 0.7217 0.0
H3007 H 0.13949 0.78025 0.65123 0.0
H3008 H 0.13071 0.85703 0.63299 0.0
H3009 H 0.11021 0.89156 0.6382 0.0
H3010 H 0.05519 0.85842 0.58554 0.0
H3011 H 0.07488 0.82336 0.58203 0.0
C3012 C 0.15862 0.75353 0.48994 0.0
C3013 C 0.13994 0.74645 0.47049 0.0
C3014 C 0.15631 0.76791 0.52048 0.0
C3015 C 0.13526 0.77503 0.53172 0.0
C3016 C 0.11701 0.76998 0.51033 0.0
C3017 C 0.11937 0.75569 0.47993 0.0
C3018 C 0.13171 0.78585 0.56701 0.0
C3019 C 0.12049 0.8057 0.57176 0.0
C3020 C 0.13835 0.77621 0.5958 0.0
C3021 C 0.14835 0.7542 0.59225 0.0
C3022 C 0.13702 0.73596 0.57518 0.0
C3023 C 0.14644 0.71525 0.57251 0.0
C3024 C 0.16714 0.71253 0.5867 0.0
C3025 C 0.17845 0.73053 0.60388 0.0
C3026 C 0.16908 0.75129 0.60681 0.0
C3027 C 0.0923 0.83444 0.70947 0.0
C3028 C 0.10769 0.85036 0.72253 0.0
C3029 C 0.09806 0.81864 0.6819 0.0
C3030 C 0.11936 0.81846 0.66826 0.0
C3031 C 0.13554 0.8324 0.68448 0.0
C3032 C 0.12962 0.84862 0.71127 0.0
C3033 C 0.12343 0.80732 0.63344 0.0
C3034 C 0.13447 0.78737 0.62889 0.0
C3035 C 0.11618 0.81657 0.6047 0.0
C3036 C 0.10404 0.83749 0.6081 0.0
C3037 C 0.11399 0.85697 0.62349 0.0
C3038 C 0.10254 0.87665 0.62604 0.0
C3039 C 0.08133 0.87714 0.61243 0.0
C3040 C 0.07156 0.85795 0.59622 0.0
C3041 C 0.08277 0.83815 0.59425 0.0
H3042 H 0.07252 0.89241 0.61425 0.0
H3043 H 0.17437 0.69645 0.58453 0.0
H3044 H 0.39823 0.78696 1.03356 0.0
H3045 H 0.42126 0.79381 0.98553 0.0
H3046 H 0.36814 0.77306 0.91513 0.0
H3047 H 0.34595 0.76415 0.96232 0.0
H3048 H 0.40399 0.76549 0.88248 0.0
H3049 H 0.37583 0.82912 0.96529 0.0
H3050 H 0.37546 0.8539 1.02073 0.0
H3051 H 0.44535 0.86301 1.01354 0.0
H3052 H 0.4461 0.83817 0.95823 0.0
H3053 H 0.38414 0.87075 0.81161 0.0
H3054 H 0.38301 0.84426 0.85145 0.0
H3055 H 0.44452 0.81671 0.81047 0.0
H3056 H 0.44561 0.84312 0.77007 0.0
H3057 H 0.41794 0.84496 0.89898 0.0
H3058 H 0.4447 0.77602 0.81586 0.0
H3059 H 0.4414 0.75232 0.75969 0.0
H3060 H 0.37084 0.75624 0.76673 0.0
H3061 H 0.37386 0.78014 0.82282 0.0
C3062 C 0.39175 0.78301 1.00772 0.0
C3063 C 0.36992 0.77567 1.00181 0.0
C3064 C 0.40491 0.78713 0.98032 0.0
C3065 C 0.39614 0.78469 0.94697 0.0
C3066 C 0.37522 0.77532 0.94072 0.0
C3067 C 0.36234 0.77062 0.96785 0.0
C3068 C 0.40663 0.79482 0.91946 0.0
C3069 C 0.40765 0.78278 0.88622 0.0
C3070 C 0.41158 0.81735 0.92423 0.0
C3071 C 0.41109 0.83146 0.95813 0.0
C3072 C 0.39112 0.83622 0.97579 0.0
C3073 C 0.39085 0.85032 1.00711 0.0
C3074 C 0.41039 0.85992 1.02075 0.0
C3075 C 0.43025 0.85547 1.00308 0.0
C3076 C 0.43062 0.84136 0.97181 0.0
C3077 C 0.39734 0.85896 0.81096 0.0
C3078 C 0.41516 0.8592 0.78836 0.0
C3079 C 0.39655 0.8437 0.83334 0.0
C3080 C 0.41362 0.82852 0.83364 0.0
C3081 C 0.43099 0.82801 0.81006 0.0
C3082 C 0.43171 0.84325 0.78736 0.0
C3083 C 0.41443 0.81578 0.86218 0.0
C3084 C 0.41547 0.82746 0.89549 0.0
C3085 C 0.41134 0.79309 0.85746 0.0
C3086 C 0.40952 0.78005 0.823 0.0
C3087 C 0.42853 0.77203 0.8051 0.0
C3088 C 0.4267 0.75849 0.77342 0.0
C3089 C 0.40592 0.75279 0.7596 0.0
C3090 C 0.38693 0.76072 0.77738 0.0
C3091 C 0.38869 0.7743 0.80905 0.0
H3092 H 0.40454 0.74219 0.73518 0.0
H3093 H 0.41013 0.87088 0.04493 0.0
H3094 H 0.38965 0.11279 0.27252 0.0
H3095 H 0.38898 0.12776 0.2189 0.0
H3096 H 0.45336 0.15593 0.24097 0.0
H3097 H 0.45419 0.14081 0.29525 0.0
H3098 H 0.42252 0.18431 0.21865 0.0
H3099 H 0.45041 0.11294 0.18062 0.0
H3100 H 0.45132 0.07327 0.18042 0.0
H3101 H 0.38585 0.06755 0.13884 0.0
H3102 H 0.38438 0.10723 0.13927 0.0
H3103 H 0.40162 0.20757 0.0454 0.0
H3104 H 0.42201 0.18383 0.07851 0.0
H3105 H 0.36328 0.17476 0.13649 0.0
H3106 H 0.34251 0.1978 0.10275 0.0
H3107 H 0.40445 0.13578 0.10984 0.0
H3108 H 0.38433 0.20909 0.20637 0.0
H3109 H 0.37906 0.24868 0.20809 0.0
H3110 H 0.43021 0.24967 0.13278 0.0
H3111 H 0.43581 0.21019 0.13078 0.0
C3112 C 0.40387 0.12178 0.26567 0.0
C3113 C 0.42214 0.1253 0.28754 0.0
C3114 C 0.40343 0.13039 0.23517 0.0
C3115 C 0.42136 0.14242 0.22581 0.0
C3116 C 0.43954 0.14638 0.24777 0.0
C3117 C 0.43997 0.13778 0.27857 0.0
C3118 C 0.42037 0.15112 0.19318 0.0
C3119 C 0.41954 0.17375 0.19449 0.0
C3120 C 0.41614 0.13717 0.16194 0.0
C3121 C 0.41736 0.1131 0.15976 0.0
C3122 C 0.43622 0.10322 0.17132 0.0
C3123 C 0.43682 0.08073 0.17126 0.0
C3124 C 0.41868 0.06789 0.15955 0.0
C3125 C 0.39992 0.07751 0.14777 0.0
C3126 C 0.39923 0.1 0.1478 0.0
C3127 C 0.39289 0.19997 0.0645 0.0
C3128 C 0.37054 0.20466 0.07192 0.0
C3129 C 0.40452 0.18632 0.08306 0.0
C3130 C 0.39396 0.17758 0.10946 0.0
C3131 C 0.37146 0.18128 0.11574 0.0
C3132 C 0.35978 0.19474 0.09704 0.0
C3133 C 0.40686 0.1688 0.13551 0.0
C3134 C 0.40918 0.14626 0.1333 0.0
C3135 C 0.41292 0.18277 0.16569 0.0
C3136 C 0.41031 0.20669 0.16818 0.0
C3137 C 0.39451 0.21781 0.19035 0.0
C3138 C 0.39143 0.2402 0.19129 0.0
C3139 C 0.40415 0.25161 0.17032 0.0
C3140 C 0.42022 0.24077 0.14875 0.0
C3141 C 0.42327 0.21839 0.14759 0.0
H3142 H 0.40152 0.26885 0.17068 0.0
H3143 H 0.41914 0.05049 0.15963 0.0
H3144 H 0.88365 0.78029 0.55079 0.0
H3145 H 0.89927 0.79227 0.60652 0.0
H3146 H 0.95782 0.81289 0.55767 0.0
H3147 H 0.94425 0.79448 0.50431 0.0
H3148 H 0.97234 0.81998 0.60614 0.0
H3149 H 0.90027 0.84551 0.62752 0.0
H3150 H 0.8596 0.84527 0.62812 0.0
H3151 H 0.86004 0.79434 0.69083 0.0
H3152 H 0.90073 0.79428 0.69055 0.0
H3153 H 0.00279 0.88176 0.76706 0.0
H3154 H 0.981 0.87003 0.71491 0.0
H3155 H 0.96921 0.80822 0.74817 0.0
H3156 H 0.99161 0.81963 0.79968 0.0
H3157 H 0.92924 0.82829 0.71356 0.0
H3158 H 0.00633 0.80319 0.68043 0.0
H3159 H 0.04604 0.81161 0.68164 0.0
H3160 H 0.03295 0.87138 0.6429 0.0
H3161 H 0.99318 0.86303 0.64097 0.0
C3162 C 0.8997 0.78798 0.55193 0.0
C3163 C 0.91136 0.7887 0.52101 0.0
C3164 C 0.90875 0.79574 0.5849 0.0
C3165 C 0.92958 0.80634 0.58941 0.0
C3166 C 0.94144 0.80629 0.55803 0.0
C3167 C 0.93303 0.79667 0.52552 0.0
C3168 C 0.9397 0.81562 0.62565 0.0
C3169 C 0.96241 0.82095 0.62875 0.0
C3170 C 0.92775 0.81948 0.6577 0.0
C3171 C 0.90345 0.81978 0.65878 0.0
C3172 C 0.89165 0.83432 0.64149 0.0
C3173 C 0.86863 0.83421 0.64174 0.0
C3174 C 0.85725 0.81977 0.65944 0.0
C3175 C 0.86888 0.80551 0.67713 0.0
C3176 C 0.89191 0.80557 0.67702 0.0
C3177 C -0.00486 0.86584 0.76387 0.0
C3178 C -0.00146 0.85223 0.7891 0.0
C3179 C 0.98266 0.85901 0.73361 0.0
C3180 C 0.97299 0.8381 0.72684 0.0
C3181 C 0.97603 0.8245 0.75223 0.0
C3182 C 0.98892 0.83122 0.78225 0.0
C3183 C 0.9616 0.83004 0.69223 0.0
C3184 C 0.9388 0.82568 0.68997 0.0
C3185 C 0.97317 0.82786 0.66067 0.0
C3186 C -0.00302 0.83248 0.66045 0.0
C3187 C 0.01202 0.81804 0.67197 0.0
C3188 C 0.03452 0.82278 0.67272 0.0
C3189 C 0.04205 0.84201 0.66225 0.0
C3190 C 0.02712 0.85645 0.65082 0.0
C3191 C 0.00463 0.85168 0.64974 0.0
H3192 H 0.05943 0.84579 0.66305 0.0
H3193 H 0.83943 0.81965 0.6595 0.0
H3194 H 0.94452 0.19666 0.58729 0.0
H3195 H 0.96089 0.18039 0.53319 0.0
H3196 H 0.89956 0.1881 0.4816 0.0
H3197 H 0.88345 0.20487 0.5358 0.0
H3198 H 0.9214 0.19327 0.43809 0.0
H3199 H 0.00338 0.15346 0.48031 0.0
H3200 H 0.01645 0.12403 0.51063 0.0
H3201 H 0.95016 0.10127 0.51708 0.0
H3202 H 0.93638 0.13202 0.49019 0.0
H3203 H 0.98053 0.16337 0.27852 0.0
H3204 H 0.96201 0.17735 0.33177 0.0
H3205 H 0.98802 0.12297 0.37581 0.0
H3206 H 0.00939 0.11217 0.32407 0.0
H3207 H 0.98564 0.14443 0.42387 0.0
H3208 H 0.91894 0.14553 0.35918 0.0
H3209 H 0.88948 0.15387 0.32008 0.0
H3210 H 0.90494 0.2219 0.34242 0.0
H3211 H 0.93392 0.21407 0.38297 0.0
C3212 C 0.93405 0.19426 0.56501 0.0
C3213 C 0.91191 0.2016 0.56751 0.0
C3214 C 0.94381 0.1849 0.53304 0.0
C3215 C 0.93221 0.18258 0.50136 0.0
C3216 C 0.90989 0.18958 0.50421 0.0
C3217 C 0.90025 0.19901 0.53604 0.0
C3218 C 0.94322 0.17461 0.46559 0.0
C3219 C 0.93514 0.18206 0.43557 0.0
C3220 C 0.96141 0.1598 0.45962 0.0
C3221 C 0.96875 0.14574 0.48463 0.0
C3222 C 0.99144 0.14287 0.48989 0.0
C3223 C -0.00102 0.12596 0.50652 0.0
C3224 C 0.98405 0.11109 0.51658 0.0
C3225 C 0.96156 0.11338 0.51058 0.0
C3226 C 0.95382 0.13093 0.49553 0.0
C3227 C 0.98246 0.15464 0.29946 0.0
C3228 C -0.00313 0.1367 0.29576 0.0
C3229 C 0.97121 0.16242 0.33079 0.0
C3230 C 0.97288 0.15186 0.36028 0.0
C3231 C 0.98628 0.1328 0.35556 0.0
C3232 C -0.00164 0.12594 0.32482 0.0
C3233 C 0.96216 0.1607 0.39598 0.0
C3234 C 0.97118 0.15465 0.42626 0.0
C3235 C 0.94323 0.17452 0.40159 0.0
C3236 C 0.92893 0.17914 0.37329 0.0
C3237 C 0.9164 0.16221 0.35512 0.0
C3238 C 0.89959 0.16689 0.33315 0.0
C3239 C 0.89561 0.18838 0.32834 0.0
C3240 C 0.9083 0.20527 0.34581 0.0
C3241 C 0.9248 0.20074 0.36849 0.0
H3242 H 0.88258 0.19194 0.31125 0.0
H3243 H 0.98991 0.09761 0.5286 0.0
H3244 H 0.61974 0.13629 0.12921 0.0
H3245 H 0.60227 0.1334 0.18409 0.0
H3246 H 0.54647 0.16951 0.1559 0.0
H3247 H 0.56363 0.17163 0.09927 0.0
H3248 H 0.56616 0.18122 0.23107 0.0
H3249 H 0.54153 0.1155 0.15029 0.0
H3250 H 0.55055 0.0818 0.1109 0.0
H3251 H 0.58919 0.05929 0.18994 0.0
H3252 H 0.58058 0.09287 0.22962 0.0
H3253 H 0.50014 0.16567 0.37472 0.0
H3254 H 0.51834 0.1714 0.32178 0.0
H3255 H 0.54398 0.10599 0.31046 0.0
H3256 H 0.52323 0.09998 0.3614 0.0
H3257 H 0.54053 0.10904 0.25364 0.0
H3258 H 0.58567 0.16254 0.31547 0.0
H3259 H 0.5984 0.1933 0.35831 0.0
H3260 H 0.5466 0.23322 0.32925 0.0
H3261 H 0.53389 0.2031 0.28504 0.0
C3262 C 0.60365 0.14361 0.13414 0.0
C3263 C 0.59315 0.15383 0.10855 0.0
C3264 C 0.59362 0.14193 0.16606 0.0
C3265 C 0.57268 0.15078 0.17465 0.0
C3266 C 0.56252 0.16222 0.15025 0.0
C3267 C 0.5725 0.16362 0.11771 0.0
C3268 C 0.56175 0.14777 0.2088 0.0
C3269 C 0.55998 0.16552 0.2356 0.0
C3270 C 0.55568 0.12698 0.21689 0.0
C3271 C 0.56044 0.10674 0.19286 0.0
C3272 C 0.55202 0.1034 0.15919 0.0
C3273 C 0.55705 0.0843 0.13684 0.0
C3274 C 0.57044 0.06843 0.1479 0.0
C3275 C 0.5788 0.07157 0.18138 0.0
C3276 C 0.57381 0.09061 0.20382 0.0
C3277 C 0.51077 0.15299 0.36225 0.0
C3278 C 0.51222 0.13315 0.37543 0.0
C3279 C 0.52129 0.1562 0.33116 0.0
C3280 C 0.53397 0.13967 0.31143 0.0
C3281 C 0.53495 0.11957 0.32433 0.0
C3282 C 0.52366 0.11622 0.35478 0.0
C3283 C 0.54436 0.14271 0.27648 0.0
C3284 C 0.54619 0.12496 0.24944 0.0
C3285 C 0.55279 0.16299 0.26931 0.0
C3286 C 0.5586 0.18055 0.29748 0.0
C3287 C 0.57673 0.1778 0.31861 0.0
C3288 C 0.58395 0.19509 0.34299 0.0
C3289 C 0.57286 0.21495 0.34706 0.0
C3290 C 0.55483 0.21773 0.32621 0.0
C3291 C 0.54776 0.20069 0.30125 0.0
H3292 H 0.57841 0.22829 0.36607 0.0
H3293 H 0.57433 0.05368 0.13055 0.0
H3294 H 0.47867 0.85303 0.74082 0.0
H3295 H 0.4976 0.8463 0.79175 0.0
H3296 H 0.55343 0.88273 0.76343 0.0
H3297 H 0.53491 0.88686 0.7102 0.0
H3298 H 0.57194 0.86431 0.80034 0.0
H3299 H 0.50359 0.8957 0.83777 0.0
H3300 H 0.46347 0.9016 0.84404 0.0
H3301 H 0.45655 0.83957 0.87849 0.0
H3302 H 0.49614 0.83295 0.87105 0.0
H3303 H 0.61041 0.87809 0.97499 0.0
H3304 H 0.59006 0.88382 0.92371 0.0
H3305 H 0.55646 0.82293 0.92366 0.0
H3306 H 0.57708 0.8171 0.9759 0.0
H3307 H 0.52848 0.85415 0.90336 0.0
H3308 H 0.60368 0.83238 0.87562 0.0
H3309 H 0.64384 0.83718 0.87901 0.0
H3310 H 0.63827 0.89723 0.8382 0.0
H3311 H 0.59793 0.89304 0.83505 0.0
C3312 C 0.49529 0.8592 0.74462 0.0
C3313 C 0.50566 0.86873 0.71816 0.0
C3314 C 0.50614 0.85601 0.77539 0.0
C3315 C 0.52738 0.86451 0.78421 0.0
C3316 C 0.53745 0.87521 0.75862 0.0
C3317 C 0.52686 0.87729 0.72673 0.0
C3318 C 0.53869 0.86235 0.81936 0.0
C3319 C 0.56201 0.8626 0.82266 0.0
C3320 C 0.52685 0.86006 0.85028 0.0
C3321 C 0.50281 0.86376 0.85358 0.0
C3322 C 0.4934 0.88325 0.84633 0.0
C3323 C 0.4707 0.8867 0.85 0.0
C3324 C 0.45736 0.87098 0.86162 0.0
C3325 C 0.4667 0.85175 0.86936 0.0
C3326 C 0.48926 0.84807 0.86524 0.0
C3327 C 0.59874 0.86571 0.96434 0.0
C3328 C 0.59613 0.84665 0.9798 0.0
C3329 C 0.58697 0.86909 0.93454 0.0
C3330 C 0.57199 0.85353 0.91818 0.0
C3331 C 0.56812 0.83514 0.93479 0.0
C3332 C 0.57994 0.83178 0.96497 0.0
C3333 C 0.5611 0.85625 0.88364 0.0
C3334 C 0.53803 0.85605 0.88066 0.0
C3335 C 0.57317 0.86034 0.8541 0.0
C3336 C 0.59759 0.86246 0.85526 0.0
C3337 C 0.6109 0.84677 0.86771 0.0
C3338 C 0.63376 0.84933 0.86947 0.0
C3339 C 0.6436 0.86751 0.85887 0.0
C3340 C 0.63061 0.88312 0.84634 0.0
C3341 C 0.60774 0.88062 0.84445 0.0
H3342 H 0.66131 0.86949 0.86032 0.0
H3343 H 0.43981 0.8737 0.86462 0.0
H3344 H 0.62075 0.65566 0.83893 0.0
H3345 H 0.62866 0.68303 0.8896 0.0
H3346 H 0.62016 0.63406 0.95547 0.0
H3347 H 0.6119 0.60701 0.90565 0.0
H3348 H 0.59512 0.67261 0.97289 0.0
H3349 H 0.67061 0.64978 0.93449 0.0
H3350 H 0.70168 0.64826 0.89363 0.0
H3351 H 0.70078 0.71792 0.90127 0.0
H3352 H 0.66954 0.71982 0.94172 0.0
H3353 H 0.61261 0.7419 0.12735 0.0
H3354 H 0.61104 0.70989 0.08551 0.0
H3355 H 0.66695 0.73522 1.03471 0.0
H3356 H 0.67388 0.75992 0.08605 0.0
H3357 H 0.66806 0.70448 1.00456 0.0
H3358 H 0.58471 0.72904 1.01966 0.0
H3359 H 0.5493 0.73188 0.05187 0.0
H3360 H 0.55981 0.66879 0.08034 0.0
H3361 H 0.59465 0.66518 0.04756 0.0
C3362 C 0.62056 0.65084 0.86429 0.0
C3363 C 0.61584 0.62922 0.86847 0.0
C3364 C 0.62526 0.66637 0.893 0.0
C3365 C 0.62515 0.66036 0.92598 0.0
C3366 C 0.62045 0.63886 0.93008 0.0
C3367 C 0.61583 0.62344 0.90163 0.0
C3368 C 0.62847 0.67643 0.95699 0.0
C3369 C 0.61085 0.68039 0.97985 0.0
C3370 C 0.64889 0.68641 0.96545 0.0
C3371 C 0.66756 0.6849 0.94082 0.0
C3372 C 0.67688 0.66473 0.92716 0.0
C3373 C 0.69457 0.66382 0.90414 0.0
C3374 C 0.70316 0.68297 0.89478 0.0
C3375 C 0.6941 0.70309 0.90845 0.0
C3376 C 0.67642 0.70408 0.93141 0.0
C3377 C 0.62589 0.73857 0.10947 0.0
C3378 C 0.64438 0.75187 0.11239 0.0
C3379 C 0.6239 0.72128 0.08275 0.0
C3380 C 0.63787 0.71967 0.05381 0.0
C3381 C 0.65591 0.73431 0.05597 0.0
C3382 C 0.65978 0.74918 0.08557 0.0
C3383 C 0.63377 0.7039 1.02114 0.0
C3384 C 0.65154 0.69894 0.99787 0.0
C3385 C 0.61286 0.69426 1.01118 0.0
C3386 C 0.59245 0.69708 1.0319 0.0
C3387 C 0.57951 0.71591 1.03309 0.0
C3388 C 0.55956 0.71762 0.0513 0.0
C3389 C 0.5526 0.70075 0.06855 0.0
C3390 C 0.56531 0.68192 0.0672 0.0
C3391 C 0.58505 0.67996 0.04866 0.0
H3392 H 0.53727 0.70217 0.08275 0.0
H3393 H 0.71686 0.68222 0.877 0.0
H3394 H 0.56349 0.3482 0.17646 0.0
H3395 H 0.57677 0.31708 0.13579 0.0
H3396 H 0.63671 0.31607 0.19456 0.0
H3397 H 0.62331 0.34698 0.23555 0.0
H3398 H 0.64331 0.32303 0.12805 0.0
H3399 H 0.61019 0.27281 0.18613 0.0
H3400 H 0.58301 0.25482 0.21886 0.0
H3401 H 0.5407 0.24415 0.13095 0.0
H3402 H 0.56738 0.26277 0.09747 0.0
H3403 H 0.67565 0.24246 0.98478 0.0
H3404 H 0.66973 0.26449 1.04089 0.0
H3405 H 0.60101 0.27133 1.01621 0.0
H3406 H 0.6066 0.24778 0.96202 0.0
H3407 H 0.60555 0.25553 0.07485 0.0
H3408 H 0.64164 0.31524 1.02392 0.0
H3409 H 0.67346 0.33027 0.996 0.0
H3410 H 0.71564 0.31714 0.07798 0.0
H3411 H 0.68414 0.30216 0.10645 0.0
C3412 C 0.57931 0.34102 0.18084 0.0
C3413 C 0.59269 0.35003 0.20835 0.0
C3414 C 0.58673 0.32316 0.15804 0.0
C3415 C 0.60769 0.31444 0.16241 0.0
C3416 C 0.62047 0.32263 0.19108 0.0
C3417 C 0.6129 0.34026 0.21418 0.0
C3418 C 0.61759 0.29987 0.13368 0.0
C3419 C 0.63538 0.30799 0.11674 0.0
C3420 C 0.60733 0.28021 0.11951 0.0
C3421 C 0.59074 0.26947 0.13933 0.0
C3422 C 0.59494 0.26699 0.17377 0.0
C3423 C 0.57963 0.25665 0.19242 0.0
C3424 C 0.56006 0.24852 0.17691 0.0
C3425 C 0.5558 0.25068 0.14271 0.0
C3426 C 0.57101 0.26111 0.1239 0.0
C3427 C 0.6595 0.24942 0.99092 0.0
C3428 C 0.6416 0.24365 0.96891 0.0
C3429 C 0.65611 0.26192 1.02298 0.0
C3430 C 0.63489 0.26941 1.0327 0.0
C3431 C 0.61748 0.2655 1.00925 0.0
C3432 C 0.62075 0.2524 0.97784 0.0
C3433 C 0.63019 0.27962 0.06818 0.0
C3434 C 0.61354 0.27047 0.08644 0.0
C3435 C 0.64192 0.298 0.08413 0.0
C3436 C 0.6606 0.30752 0.0672 0.0
C3437 C 0.65772 0.31555 1.03593 0.0
C3438 C 0.67568 0.32404 1.02001 0.0
C3439 C 0.69654 0.32455 1.0351 0.0
C3440 C 0.69948 0.31673 0.0663 0.0
C3441 C 0.68158 0.30833 0.0824 0.0
H3442 H 0.71042 0.33106 1.02267 0.0
H3443 H 0.54824 0.24046 0.19133 0.0
H3444 H 0.93858 0.32327 0.26739 0.0
H3445 H 0.94075 0.30807 0.31997 0.0
H3446 H 0.93626 0.37234 0.37903 0.0
H3447 H 0.93625 0.38828 0.32595 0.0
H3448 H 0.95489 0.34438 0.41602 0.0
H3449 H 0.89169 0.34941 0.34947 0.0
H3450 H 0.86598 0.34597 0.30055 0.0
H3451 H 0.86737 0.27638 0.29347 0.0
H3452 H 0.89357 0.27933 0.34167 0.0
H3453 H 0.87398 0.31291 0.53609 0.0
H3454 H 0.89785 0.32998 0.49759 0.0
H3455 H 0.91114 0.26684 0.43865 0.0
H3456 H 0.88669 0.24985 0.47652 0.0
H3457 H 0.88932 0.29618 0.40444 0.0
H3458 H 0.95067 0.2993 0.4872 0.0
H3459 H 0.96442 0.31208 0.54571 0.0
H3460 H 0.95445 0.37845 0.53107 0.0
H3461 H 0.93957 0.36611 0.47318 0.0
C3462 C 0.93939 0.33452 0.29122 0.0
C3463 C 0.93629 0.35711 0.29241 0.0
C3464 C 0.94049 0.32564 0.32139 0.0
C3465 C 0.93763 0.33909 0.35291 0.0
C3466 C 0.93799 0.36176 0.3546 0.0
C3467 C 0.93756 0.37078 0.32428 0.0
C3468 C 0.9295 0.32948 0.38219 0.0
C3469 C 0.94065 0.3337 0.4136 0.0
C3470 C 0.91022 0.3165 0.37906 0.0
C3471 C 0.89523 0.31459 0.34872 0.0
C3472 C 0.88698 0.33334 0.33701 0.0
C3473 C 0.87218 0.33148 0.30948 0.0
C3474 C 0.86517 0.31096 0.29374 0.0
C3475 C 0.87296 0.29226 0.30548 0.0
C3476 C 0.88788 0.29402 0.33283 0.0
C3477 C 0.88229 0.30276 0.5151 0.0
C3478 C 0.8782 0.28029 0.50823 0.0
C3479 C 0.89615 0.31242 0.49363 0.0
C3480 C 0.90629 0.29956 0.46565 0.0
C3481 C 0.90345 0.27689 0.46039 0.0
C3482 C 0.88931 0.26729 0.48148 0.0
C3483 C 0.91553 0.30983 0.43774 0.0
C3484 C 0.90407 0.30619 0.40657 0.0
C3485 C 0.93343 0.32452 0.44202 0.0
C3486 C 0.94377 0.33173 0.47596 0.0
C3487 C 0.9513 0.31661 0.49651 0.0
C3488 C 0.95928 0.32379 0.5296 0.0
C3489 C 0.96026 0.34606 0.54211 0.0
C3490 C 0.95359 0.36121 0.5214 0.0
C3491 C 0.94531 0.35412 0.4885 0.0
H3492 H 0.96599 0.35163 0.56795 0.0
H3493 H 0.85358 0.30956 0.2726 0.0
H3494 H 0.96904 0.6327 0.78022 0.0
H3495 H 0.96555 0.65533 0.73459 0.0
H3496 H 0.89574 0.66108 0.75384 0.0
H3497 H 0.89932 0.63865 0.79998 0.0
H3498 H 0.91531 0.63694 0.685 0.0
H3499 H 0.90442 0.71179 0.751 0.0
H3500 H 0.91186 0.74712 0.78717 0.0
H3501 H 0.97892 0.74469 0.75214 0.0
H3502 H 0.97188 0.70927 0.7162 0.0
H3503 H 0.8575 0.71786 0.61045 0.0
H3504 H 0.88107 0.70685 0.65498 0.0
H3505 H 0.9273 0.67832 0.57763 0.0
H3506 H 0.90333 0.68859 0.53255 0.0
H3507 H 0.92942 0.71335 0.66891 0.0
H3508 H 0.92833 0.63859 0.58943 0.0
H3509 H 0.90696 0.61447 0.5457 0.0
H3510 H 0.84924 0.62441 0.60946 0.0
H3511 H 0.87031 0.6487 0.65335 0.0
C3512 C 0.95318 0.63954 0.77556 0.0
C3513 C 0.93451 0.6343 0.79365 0.0
C3514 C 0.9512 0.65242 0.74955 0.0
C3515 C 0.93052 0.66018 0.74144 0.0
C3516 C 0.91193 0.65568 0.76049 0.0
C3517 C 0.91395 0.64289 0.78666 0.0
C3518 C 0.92746 0.66831 0.70863 0.0
C3519 C 0.91884 0.65356 0.68135 0.0
C3520 C 0.93193 0.68997 0.70388 0.0
C3521 C 0.93784 0.70754 0.73188 0.0
C3522 C 0.92094 0.71846 0.75198 0.0
C3523 C 0.92498 0.73867 0.77198 0.0
C3524 C 0.94589 0.74809 0.77205 0.0
C3525 C 0.96281 0.73727 0.75228 0.0
C3526 C 0.95882 0.71708 0.73223 0.0
C3527 C 0.87272 0.70933 0.60294 0.0
C3528 C 0.87837 0.70361 0.56816 0.0
C3529 C 0.88623 0.70328 0.6283 0.0
C3530 C 0.9056 0.69157 0.61921 0.0
C3531 C 0.9122 0.68715 0.58477 0.0
C3532 C 0.89858 0.69312 0.55924 0.0
C3533 C 0.91717 0.68214 0.64599 0.0
C3534 C 0.92727 0.69642 0.67212 0.0
C3535 C 0.91325 0.66038 0.65027 0.0
C3536 C 0.90082 0.64538 0.62446 0.0
C3537 C 0.91109 0.63558 0.59402 0.0
C3538 C 0.89903 0.62193 0.56923 0.0
C3539 C 0.87675 0.61792 0.57479 0.0
C3540 C 0.86649 0.62752 0.60518 0.0
C3541 C 0.87847 0.6412 0.63001 0.0
H3542 H 0.86744 0.60738 0.55555 0.0
H3543 H 0.949 0.76376 0.78744 0.0
H3544 H 0.47189 0.35023 0.3051 0.0
H3545 H 0.45012 0.33918 0.25437 0.0
H3546 H 0.50707 0.3492 0.19316 0.0
H3547 H 0.52752 0.36198 0.24496 0.0
H3548 H 0.47847 0.35865 0.1583 0.0
H3549 H 0.47034 0.2929 0.22068 0.0
H3550 H 0.45439 0.27156 0.26304 0.0
H3551 H 0.39014 0.29586 0.24466 0.0
H3552 H 0.40556 0.31682 0.20179 0.0
H3553 H 0.44162 0.30273 0.99552 0.0
H3554 H 0.45856 0.31809 0.04938 0.0
H3555 H 0.40015 0.30316 0.10352 0.0
H3556 H 0.38329 0.28765 0.04903 0.0
H3557 H 0.42709 0.29631 0.14307 0.0
H3558 H 0.42289 0.36159 0.1014 0.0
H3559 H 0.42552 0.39351 0.07138 0.0
H3560 H 0.49558 0.38496 0.0621 0.0
H3561 H 0.49341 0.35324 0.09301 0.0
C3562 C 0.47954 0.3507 0.28166 0.0
C3563 C 0.50154 0.35765 0.28135 0.0
C3564 C 0.46719 0.3434 0.2513 0.0
C3565 C 0.47657 0.34196 0.21806 0.0
C3566 C 0.49869 0.34924 0.21743 0.0
C3567 C 0.51068 0.35681 0.24791 0.0
C3568 C 0.46382 0.33409 0.18415 0.0
C3569 C 0.46776 0.34454 0.15515 0.0
C3570 C 0.44763 0.31709 0.17928 0.0
C3571 C 0.43916 0.30621 0.2077 0.0
C3572 C 0.45287 0.29357 0.22554 0.0
C3573 C 0.44391 0.28152 0.24956 0.0
C3574 C 0.4213 0.28215 0.25611 0.0
C3575 C 0.40765 0.29526 0.23939 0.0
C3576 C 0.41648 0.30716 0.21519 0.0
C3577 C 0.43166 0.3036 1.01809 0.0
C3578 C 0.41014 0.29463 1.01619 0.0
C3579 C 0.44176 0.31234 0.04996 0.0
C3580 C 0.431 0.31247 0.08203 0.0
C3581 C 0.40947 0.30362 0.08015 0.0
C3582 C 0.39949 0.29489 0.04833 0.0
C3583 C 0.4423 0.32056 0.1171 0.0
C3584 C 0.43816 0.31014 0.14607 0.0
C3585 C 0.45677 0.3388 0.12297 0.0
C3586 C 0.45793 0.35486 0.09893 0.0
C3587 C 0.4388 0.36622 0.09227 0.0
C3588 C 0.44025 0.3845 0.07568 0.0
C3589 C 0.46073 0.39133 0.06502 0.0
C3590 C 0.47975 0.37969 0.07049 0.0
C3591 C 0.47843 0.36159 0.08763 0.0
H3592 H 0.46181 0.40555 0.05223 0.0
H3593 H 0.41437 0.27252 0.27422 0.0
H3594 H 0.4 0.66967 0.06923 0.0
H3595 H 0.42074 0.65408 1.01798 0.0
H3596 H 0.4363 0.71872 0.99935 0.0
H3597 H 0.41698 0.73369 0.05141 0.0
H3598 H 0.42227 0.69649 0.94171 0.0
H3599 H 0.47739 0.68465 1.02077 0.0
H3600 H 0.49745 0.67136 0.06794 0.0
H3601 H 0.48468 0.60528 1.02242 0.0
H3602 H 0.46428 0.61818 0.97513 0.0
H3603 H 0.49018 0.66698 0.79051 0.0
H3604 H 0.47114 0.68085 0.84225 0.0
H3605 H 0.47806 0.61871 0.87704 0.0
H3606 H 0.4992 0.60541 0.82514 0.0
H3607 H 0.48114 0.64092 0.92933 0.0
H3608 H 0.40964 0.66266 0.86493 0.0
H3609 H 0.3883 0.68426 0.82859 0.0
H3610 H 0.43482 0.73656 0.84934 0.0
H3611 H 0.45546 0.71592 0.88784 0.0
C3612 C 0.40972 0.68048 0.05685 0.0
C3613 C 0.4091 0.70311 0.069 0.0
C3614 C 0.42101 0.67154 1.02589 0.0
C3615 C 0.43113 0.68495 1.00419 0.0
C3616 C 0.42946 0.70752 1.01517 0.0
C3617 C 0.41862 0.7162 0.04615 0.0
C3618 C 0.44179 0.67603 0.96909 0.0
C3619 C 0.43512 0.6842 0.93917 0.0
C3620 C 0.4588 0.66014 0.96455 0.0
C3621 C 0.46914 0.65237 0.99456 0.0
C3622 C 0.4785 0.66729 1.02112 0.0
C3623 C 0.49009 0.65983 0.04774 0.0
C3624 C 0.49251 0.63749 0.04795 0.0
C3625 C 0.48292 0.62257 1.02203 0.0
C3626 C 0.47132 0.62995 0.99536 0.0
C3627 C 0.48757 0.65582 0.80818 0.0
C3628 C 0.49637 0.63447 0.80153 0.0
C3629 C 0.47591 0.66398 0.83892 0.0
C3630 C 0.47199 0.65127 0.86537 0.0
C3631 C 0.48039 0.62966 0.85841 0.0
C3632 C 0.49243 0.6217 0.82782 0.0
C3633 C 0.46091 0.66039 0.90064 0.0
C3634 C 0.46775 0.65255 0.93112 0.0
C3635 C 0.44421 0.67695 0.90584 0.0
C3636 C 0.43466 0.68734 0.87787 0.0
C3637 C 0.41562 0.67852 0.86096 0.0
C3638 C 0.40342 0.69077 0.84054 0.0
C3639 C 0.41048 0.71155 0.836 0.0
C3640 C 0.42954 0.72033 0.85242 0.0
C3641 C 0.44136 0.70847 0.87383 0.0
H3642 H 0.40104 0.72093 0.82006 0.0
H3643 H 0.50179 0.6317 0.06823 0.0
H3644 H 0.05664 0.64649 0.58707 0.0
H3645 H 0.03648 0.64418 0.64055 0.0
H3646 H 0.0943 0.66667 0.6989 0.0
H3647 H 0.11414 0.66906 0.64519 0.0
H3648 H 0.07961 0.63197 0.72035 0.0
H3649 H 0.04082 0.6986 0.70062 0.0
H3650 H 0.01938 0.71872 0.66223 0.0
H3651 H 0.97042 0.66826 0.65006 0.0
H3652 H 0.99178 0.64774 0.68787 0.0
H3653 H 0.02311 0.66767 0.88829 0.0
H3654 H 0.04269 0.66608 0.83291 0.0
H3655 H 0.00274 0.61202 0.78973 0.0
H3656 H 0.98559 0.61128 0.84651 0.0
H3657 H 0.00603 0.6606 0.75814 0.0
H3658 H 0.04041 0.59502 0.7779 0.0
H3659 H 0.063 0.56691 0.79893 0.0
H3660 H 0.12038 0.60724 0.7984 0.0
H3661 H 0.09796 0.63599 0.77862 0.0
C3662 C 0.06462 0.652 0.61129 0.0
C3663 C 0.08673 0.65886 0.61154 0.0
C3664 C 0.05314 0.65047 0.64219 0.0
C3665 C 0.06352 0.65552 0.67456 0.0
C3666 C 0.08557 0.66278 0.67473 0.0
C3667 C 0.09695 0.66437 0.64386 0.0
C3668 C 0.05249 0.65135 0.70782 0.0
C3669 C 0.06372 0.63869 0.72898 0.0
C3670 C 0.03108 0.65884 0.71843 0.0
C3671 C 0.01781 0.67171 0.69716 0.0
C3672 C 0.02545 0.69186 0.68979 0.0
C3673 C 0.01337 0.70328 0.66803 0.0
C3674 C 0.9936 0.69473 0.65359 0.0
C3675 C 0.98576 0.67484 0.66116 0.0
C3676 C -0.00221 0.66337 0.68288 0.0
C3677 C 0.01913 0.65483 0.86753 0.0
C3678 C 0.00352 0.63895 0.87294 0.0
C3679 C 0.02991 0.65441 0.8355 0.0
C3680 C 0.0241 0.63938 0.80659 0.0
C3681 C 0.00792 0.62381 0.81138 0.0
C3682 C -0.002 0.62345 0.84405 0.0
C3683 C 0.03356 0.64163 0.7714 0.0
C3684 C 0.02207 0.65412 0.74995 0.0
C3685 C 0.05464 0.63347 0.75998 0.0
C3686 C 0.06727 0.61799 0.77767 0.0
C3687 C 0.05764 0.5983 0.78349 0.0
C3688 C 0.07051 0.58209 0.79473 0.0
C3689 C 0.0931 0.5853 0.80009 0.0
C3690 C 0.10288 0.60476 0.79429 0.0
C3691 C 0.09005 0.6211 0.78334 0.0
H3692 H 0.10302 0.57269 0.8087 0.0
H3693 H 0.98428 0.70357 0.63674 0.0
H3694 H 0.98619 0.38904 0.24261 0.0
H3695 H 0.0033 0.38414 0.29699 0.0
H3696 H 0.04835 0.33776 0.24235 0.0
H3697 H 0.02866 0.33993 0.18909 0.0
H3698 H 0.04065 0.32228 0.29449 0.0
H3699 H 0.06149 0.39478 0.28865 0.0
H3700 H 0.05708 0.43326 0.28146 0.0
H3701 H 0.01454 0.44383 0.36978 0.0
H3702 H 0.01848 0.4053 0.37728 0.0
H3703 H 0.11328 0.32125 0.44048 0.0
H3704 H 0.09614 0.32666 0.38615 0.0
H3705 H 0.04204 0.36025 0.4419 0.0
H3706 H 0.05975 0.35526 0.49667 0.0
H3707 H 0.05374 0.38227 0.39039 0.0
H3708 H 0.03955 0.302 0.38679 0.0
H3709 H 0.05533 0.26572 0.38991 0.0
H3710 H 0.10123 0.27381 0.30955 0.0
H3711 H 0.08581 0.31011 0.30615 0.0
C3712 C 1e-05 0.37796 0.2419 0.0
C3713 C 0.0067 0.36596 0.21006 0.0
C3714 C 0.01004 0.37522 0.27353 0.0
C3715 C 0.02781 0.3607 0.27505 0.0
C3716 C 0.03473 0.34894 0.24313 0.0
C3717 C 0.02399 0.35099 0.21169 0.0
C3718 C 0.03825 0.35694 0.30951 0.0
C3719 C 0.04397 0.33568 0.31476 0.0
C3720 C 0.0425 0.37391 0.33754 0.0
C3721 C 0.04013 0.3971 0.33336 0.0
C3722 C 0.0511 0.40528 0.30645 0.0
C3723 C 0.04869 0.4271 0.30232 0.0
C3724 C 0.03551 0.44097 0.32512 0.0
C3725 C 0.02474 0.43306 0.35214 0.0
C3726 C 0.02707 0.41123 0.35637 0.0
C3727 C 0.09733 0.32911 0.4413 0.0
C3728 C 0.08768 0.33698 0.47351 0.0
C3729 C 0.0874 0.33234 0.4098 0.0
C3730 C 0.0672 0.34357 0.40877 0.0
C3731 C 0.05741 0.35134 0.44106 0.0
C3732 C 0.06742 0.34813 0.4727 0.0
C3733 C 0.05679 0.34772 0.37451 0.0
C3734 C 0.05076 0.36903 0.36959 0.0
C3735 C 0.05373 0.33107 0.34574 0.0
C3736 C 0.06163 0.30869 0.34637 0.0
C3737 C 0.05294 0.29594 0.36975 0.0
C3738 C 0.06188 0.27543 0.37163 0.0
C3739 C 0.07944 0.26761 0.35021 0.0
C3740 C 0.08776 0.27999 0.3263 0.0
C3741 C 0.07886 0.30045 0.32427 0.0
H3742 H 0.08662 0.25194 0.3519 0.0
H3743 H 0.03366 0.45787 0.32188 0.0
loop_
_geom_bond_atom_site_label_1
_geom_bond_atom_site_label_2
_geom_bond_distance
_geom_bond_site_symmetry_2
_ccdc_geom_bond_type
Tb0 N31 2.660 . S
Tb0 N38 2.600 . S
Tb0 O44 2.546 . S
Tb0 O45 2.610 . S
Tb0 O47 2.320 . S
Tb0 O48 2.552 . S
Tb0 O49 2.413 . S
Tb0 O51 2.362 . S
Tb0 O52 2.421 . S
Tb0 C64 2.833 . S
C1 C4 1.432 . S
C1 C5 1.414 . S
C1 N8 1.359 . S
C2 C4 1.417 . S
C2 C6 1.432 . S
C2 C14 1.410 . S
C3 C5 1.444 . S
C3 C6 1.317 . S
C3 H26 0.929 . S
C4 C1 1.432 . S
C4 C2 1.417 . S
C4 N12 1.360 . S
C5 C1 1.414 . S
C5 C3 1.444 . S
C5 C10 1.385 . S
C6 C2 1.432 . S
C6 C3 1.317 . S
C6 H18 0.930 . S
C7 C9 1.392 . S
C7 C10 1.370 . S
C7 H19 0.931 . S
N8 C1 1.359 . S
N8 C9 1.327 . S
N8 Tb11 2.600 1_655 S
C9 C7 1.392 . S
C9 N8 1.327 . S
C9 H16 0.930 . S
C10 C5 1.385 . S
C10 C7 1.370 . S
C10 H29 0.930 . S
Tb11 N8 2.600 1_455 S
Tb11 N12 2.660 1_455 S
Tb11 O45 2.362 . S
Tb11 O46 2.421 . S
Tb11 O50 2.546 1_455 S
Tb11 O51 2.610 . S
Tb11 O53 2.320 . S
Tb11 O54 2.552 . S
Tb11 O55 2.413 1_455 S
Tb11 C75 2.833 1_455 S
N12 C4 1.360 . S
N12 Tb11 2.660 1_655 S
N12 C13 1.305 . S
C13 N12 1.305 . S
C13 C15 1.407 . S
C13 H20 0.930 . S
C14 C2 1.410 . S
C14 C15 1.345 . S
C14 H22 0.930 . S
C15 C13 1.407 . S
C15 C14 1.345 . S
C15 H17 0.930 . S
H16 C9 0.930 . S
H17 C15 0.930 . S
H18 C6 0.930 . S
H19 C7 0.931 . S
H20 C13 0.930 . S
H21 C35 0.930 . S
H22 C14 0.930 . S
H23 C41 0.930 . S
H24 C32 0.930 . S
H25 C39 0.931 . S
H26 C3 0.929 . S
H27 C33 0.930 . S
H28 C66 0.930 . S
H29 C10 0.930 . S
H30 C65 0.929 . S
N31 Tb0 2.660 . S
N31 C32 1.305 . S
N31 C36 1.360 . S
C32 H24 0.930 . S
C32 N31 1.305 . S
C32 C35 1.407 . S
C33 H27 0.930 . S
C33 C34 1.410 . S
C33 C35 1.345 . S
C34 C33 1.410 . S
C34 C36 1.417 . S
C34 C66 1.432 . S
C35 H21 0.930 . S
C35 C32 1.407 . S
C35 C33 1.345 . S
C36 N31 1.360 . S
C36 C34 1.417 . S
C36 C40 1.432 . S
H37 C42 0.930 . S
N38 Tb0 2.600 . S
N38 C40 1.359 . S
N38 C41 1.327 . S
C39 H25 0.931 . S
C39 C41 1.392 . S
C39 C42 1.370 . S
C40 C36 1.432 . S
C40 N38 1.359 . S
C40 C43 1.414 . S
C41 H23 0.930 . S
C41 N38 1.327 . S
C41 C39 1.392 . S
C42 H37 0.930 . S
C42 C39 1.370 . S
C42 C43 1.385 . S
C43 C40 1.414 . S
C43 C42 1.385 . S
C43 C65 1.444 . S
O44 Tb0 2.546 . S
O44 C64 1.251 . S
O45 Tb0 2.610 . S
O45 Tb11 2.362 . S
O45 C56 1.283 . S
O46 Tb11 2.421 . S
O46 C63 1.262 . S
O47 Tb0 2.320 . S
O47 C63 1.260 . S
O48 Tb0 2.552 . S
O48 C56 1.243 . S
O49 Tb0 2.413 . S
O49 C64 1.256 . S
O50 Tb11 2.546 1_655 S
O50 C75 1.251 . S
O51 Tb0 2.362 . S
O51 Tb11 2.610 . S
O51 C67 1.283 . S
O52 Tb0 2.421 . S
O52 C74 1.262 . S
O53 Tb11 2.320 . S
O53 C74 1.260 . S
O54 Tb11 2.552 . S
O54 C67 1.243 . S
O55 Tb11 2.413 1_655 S
O55 C75 1.256 . S
C56 O45 1.283 . S
C56 O48 1.243 . S
C57 C59 1.382 . S
C57 C61 1.393 . S
C57 C64 1.500 . S
C58 C59 1.400 . S
C58 C60 1.384 . S
C59 C57 1.382 . S
C59 C58 1.400 . S
C59 H76 0.930 . S
C60 C58 1.384 . S
C60 C62 1.392 . S
C60 H77 0.931 . S
C61 C57 1.393 . S
C61 C62 1.401 . S
C61 H78 0.930 . S
C62 C60 1.392 . S
C62 C61 1.401 . S
C62 H79 0.930 . S
C63 O46 1.262 . S
C63 O47 1.260 . S
C64 Tb0 2.833 . S
C64 O44 1.251 . S
C64 O49 1.256 . S
C64 C57 1.500 . S
C65 H30 0.929 . S
C65 C43 1.444 . S
C65 C66 1.317 . S
C66 H28 0.930 . S
C66 C34 1.432 . S
C66 C65 1.317 . S
C67 O51 1.283 . S
C67 O54 1.243 . S
C68 C69 1.382 . S
C68 C72 1.393 . S
C68 C75 1.500 . S
C69 C68 1.382 . S
C69 C70 1.400 1_554 S
C69 H80 0.930 . S
C70 C69 1.400 1_556 S
C70 C71 1.384 . S
C71 C70 1.384 . S
C71 C73 1.392 1_556 S
C71 H81 0.931 . S
C72 C68 1.393 . S
C72 C73 1.401 . S
C72 H82 0.930 . S
C73 C71 1.392 1_554 S
C73 C72 1.401 . S
C73 H83 0.923 1_554 S
C74 O52 1.262 . S
C74 O53 1.260 . S
C75 Tb11 2.833 1_655 S
C75 O50 1.251 . S
C75 O55 1.256 . S
C75 C68 1.500 . S
H76 C59 0.930 . S
H77 C60 0.931 . S
H78 C61 0.930 . S
H79 C62 0.930 . S
H80 C69 0.930 . S
H81 C71 0.931 . S
H82 C72 0.930 . S
H83 C73 0.923 1_556 S
Tb84 N115 2.660 . S
Tb84 N122 2.600 . S
Tb84 O128 2.546 . S
Tb84 O129 2.610 . S
Tb84 O131 2.320 . S
Tb84 O132 2.552 . S
Tb84 O133 2.413 . S
Tb84 O135 2.362 . S
Tb84 O136 2.421 . S
Tb84 C148 2.833 . S
C85 C88 1.432 . S
C85 C89 1.414 . S
C85 N92 1.359 . S
C86 C88 1.417 . S
C86 C90 1.432 . S
C86 C98 1.410 . S
C87 C89 1.444 . S
C87 C90 1.317 . S
C87 H110 0.929 . S
C88 C85 1.432 . S
C88 C86 1.417 . S
C88 N96 1.360 . S
C89 C85 1.414 . S
C89 C87 1.444 . S
C89 C94 1.385 . S
C90 C86 1.432 . S
C90 C87 1.317 . S
C90 H102 0.930 . S
C91 C93 1.392 . S
C91 C94 1.370 . S
C91 H103 0.931 . S
N92 C85 1.359 . S
N92 C93 1.327 . S
N92 Tb95 2.600 . S
C93 C91 1.392 . S
C93 N92 1.327 . S
C93 H100 0.930 . S
C94 C89 1.385 . S
C94 C91 1.370 . S
C94 H113 0.930 . S
Tb95 N92 2.600 . S
Tb95 N96 2.660 . S
Tb95 O129 2.362 . S
Tb95 O130 2.421 . S
Tb95 O134 2.546 . S
Tb95 O135 2.610 . S
Tb95 O137 2.320 . S
Tb95 O138 2.552 . S
Tb95 O139 2.413 . S
Tb95 C159 2.833 . S
N96 C88 1.360 . S
N96 Tb95 2.660 . S
N96 C97 1.305 . S
C97 N96 1.305 . S
C97 C99 1.407 . S
C97 H104 0.930 . S
C98 C86 1.410 . S
C98 C99 1.345 . S
C98 H106 0.930 . S
C99 C97 1.407 . S
C99 C98 1.345 . S
C99 H101 0.930 . S
H100 C93 0.930 . S
H101 C99 0.930 . S
H102 C90 0.930 . S
H103 C91 0.931 . S
H104 C97 0.930 . S
H105 C119 0.930 . S
H106 C98 0.930 . S
H107 C125 0.930 . S
H108 C116 0.930 . S
H109 C123 0.931 . S
H110 C87 0.929 . S
H111 C117 0.930 . S
H112 C150 0.930 . S
H113 C94 0.930 . S
H114 C149 0.929 . S
N115 Tb84 2.660 . S
N115 C116 1.305 . S
N115 C120 1.360 . S
C116 H108 0.930 . S
C116 N115 1.305 . S
C116 C119 1.407 . S
C117 H111 0.930 . S
C117 C118 1.410 . S
C117 C119 1.345 . S
C118 C117 1.410 . S
C118 C120 1.417 . S
C118 C150 1.432 . S
C119 H105 0.930 . S
C119 C116 1.407 . S
C119 C117 1.345 . S
C120 N115 1.360 . S
C120 C118 1.417 . S
C120 C124 1.432 . S
H121 C126 0.930 . S
N122 Tb84 2.600 . S
N122 C124 1.359 . S
N122 C125 1.327 . S
C123 H109 0.931 . S
C123 C125 1.392 . S
C123 C126 1.370 . S
C124 C120 1.432 . S
C124 N122 1.359 . S
C124 C127 1.414 . S
C125 H107 0.930 . S
C125 N122 1.327 . S
C125 C123 1.392 . S
C126 H121 0.930 . S
C126 C123 1.370 . S
C126 C127 1.385 . S
C127 C124 1.414 . S
C127 C126 1.385 . S
C127 C149 1.444 . S
O128 Tb84 2.546 . S
O128 C148 1.251 . S
O129 Tb84 2.610 . S
O129 Tb95 2.362 . S
O129 C140 1.283 . S
O130 Tb95 2.421 . S
O130 C147 1.262 . S
O131 Tb84 2.320 . S
O131 C147 1.260 . S
O132 Tb84 2.552 . S
O132 C140 1.243 . S
O133 Tb84 2.413 . S
O133 C148 1.256 . S
O134 Tb95 2.546 . S
O134 C159 1.251 . S
O135 Tb84 2.362 . S
O135 Tb95 2.610 . S
O135 C151 1.283 . S
O136 Tb84 2.421 . S
O136 C158 1.262 . S
O137 Tb95 2.320 . S
O137 C158 1.260 . S
O138 Tb95 2.552 . S
O138 C151 1.243 . S
O139 Tb95 2.413 . S
O139 C159 1.256 . S
C140 O129 1.283 . S
C140 O132 1.243 . S
C141 C143 1.382 . S
C141 C145 1.393 . S
C141 C148 1.500 . S
C142 C143 1.400 . S
C142 C144 1.384 . S
C143 C141 1.382 . S
C143 C142 1.400 . S
C143 H160 0.930 . S
C144 C142 1.384 . S
C144 C146 1.392 . S
C144 H161 0.931 . S
C145 C141 1.393 . S
C145 C146 1.401 . S
C145 H162 0.930 . S
C146 C144 1.392 . S
C146 C145 1.401 . S
C146 H163 0.930 . S
C147 O130 1.262 . S
C147 O131 1.260 . S
C148 Tb84 2.833 . S
C148 O128 1.251 . S
C148 O133 1.256 . S
C148 C141 1.500 . S
C149 H114 0.929 . S
C149 C127 1.444 . S
C149 C150 1.317 . S
C150 H112 0.930 . S
C150 C118 1.432 . S
C150 C149 1.317 . S
C151 O135 1.283 . S
C151 O138 1.243 . S
C152 C153 1.382 . S
C152 C156 1.393 . S
C152 C159 1.500 . S
C153 C152 1.382 . S
C153 C154 1.400 . S
C153 H164 0.930 . S
C154 C153 1.400 . S
C154 C155 1.384 . S
C155 C154 1.384 . S
C155 C157 1.392 . S
C155 H165 0.931 . S
C156 C152 1.393 . S
C156 C157 1.401 . S
C156 H166 0.930 . S
C157 C155 1.392 . S
C157 C156 1.401 . S
C157 H167 0.930 . S
C158 O136 1.262 . S
C158 O137 1.260 . S
C159 Tb95 2.833 . S
C159 O134 1.251 . S
C159 O139 1.256 . S
C159 C152 1.500 . S
H160 C143 0.930 . S
H161 C144 0.931 . S
H162 C145 0.930 . S
H163 C146 0.930 . S
H164 C153 0.930 . S
H165 C155 0.931 . S
H166 C156 0.930 . S
H167 C157 0.930 . S
Tb168 N199 2.660 . S
Tb168 N206 2.600 . S
Tb168 O212 2.546 . S
Tb168 O213 2.610 . S
Tb168 O215 2.320 . S
Tb168 O216 2.552 . S
Tb168 O217 2.413 . S
Tb168 O219 2.362 . S
Tb168 O220 2.421 . S
Tb168 C232 2.833 . S
C169 C172 1.432 . S
C169 C173 1.414 . S
C169 N176 1.359 . S
C170 C172 1.417 . S
C170 C174 1.432 . S
C170 C182 1.410 . S
C171 C173 1.444 . S
C171 C174 1.317 . S
C171 H194 0.929 . S
C172 C169 1.432 . S
C172 C170 1.417 . S
C172 N180 1.360 . S
C173 C169 1.414 . S
C173 C171 1.444 . S
C173 C178 1.385 . S
C174 C170 1.432 . S
C174 C171 1.317 . S
C174 H186 0.930 . S
C175 C177 1.392 . S
C175 C178 1.370 . S
C175 H187 0.931 . S
N176 C169 1.359 . S
N176 C177 1.327 . S
N176 Tb179 2.600 . S
C177 C175 1.392 . S
C177 N176 1.327 . S
C177 H184 0.930 . S
C178 C173 1.385 . S
C178 C175 1.370 . S
C178 H197 0.930 . S
Tb179 N176 2.600 . S
Tb179 N180 2.660 . S
Tb179 O213 2.362 . S
Tb179 O214 2.421 . S
Tb179 O218 2.546 . S
Tb179 O219 2.610 . S
Tb179 O221 2.320 . S
Tb179 O222 2.552 . S
Tb179 O223 2.413 . S
Tb179 C243 2.833 . S
N180 C172 1.360 . S
N180 Tb179 2.660 . S
N180 C181 1.305 . S
C181 N180 1.305 . S
C181 C183 1.407 . S
C181 H188 0.930 . S
C182 C170 1.410 . S
C182 C183 1.345 . S
C182 H190 0.930 . S
C183 C181 1.407 . S
C183 C182 1.345 . S
C183 H185 0.930 . S
H184 C177 0.930 . S
H185 C183 0.930 . S
H186 C174 0.930 . S
H187 C175 0.931 . S
H188 C181 0.930 . S
H189 C203 0.930 . S
H190 C182 0.930 . S
H191 C209 0.930 . S
H192 C200 0.930 . S
H193 C207 0.931 . S
H194 C171 0.929 . S
H195 C201 0.930 . S
H196 C234 0.930 . S
H197 C178 0.930 . S
H198 C233 0.929 . S
N199 Tb168 2.660 . S
N199 C200 1.305 . S
N199 C204 1.360 . S
C200 H192 0.930 . S
C200 N199 1.305 . S
C200 C203 1.407 . S
C201 H195 0.930 . S
C201 C202 1.410 . S
C201 C203 1.345 . S
C202 C201 1.410 . S
C202 C204 1.417 . S
C202 C234 1.432 . S
C203 H189 0.930 . S
C203 C200 1.407 . S
C203 C201 1.345 . S
C204 N199 1.360 . S
C204 C202 1.417 . S
C204 C208 1.432 . S
H205 C210 0.930 . S
N206 Tb168 2.600 . S
N206 C208 1.359 . S
N206 C209 1.327 . S
C207 H193 0.931 . S
C207 C209 1.392 . S
C207 C210 1.370 . S
C208 C204 1.432 . S
C208 N206 1.359 . S
C208 C211 1.414 . S
C209 H191 0.930 . S
C209 N206 1.327 . S
C209 C207 1.392 . S
C210 H205 0.930 . S
C210 C207 1.370 . S
C210 C211 1.385 . S
C211 C208 1.414 . S
C211 C210 1.385 . S
C211 C233 1.444 . S
O212 Tb168 2.546 . S
O212 C232 1.251 . S
O213 Tb168 2.610 . S
O213 Tb179 2.362 . S
O213 C224 1.283 . S
O214 Tb179 2.421 . S
O214 C231 1.262 . S
O215 Tb168 2.320 . S
O215 C231 1.260 . S
O216 Tb168 2.552 . S
O216 C224 1.243 . S
O217 Tb168 2.413 . S
O217 C232 1.256 . S
O218 Tb179 2.546 . S
O218 C243 1.251 . S
O219 Tb168 2.362 . S
O219 Tb179 2.610 . S
O219 C235 1.283 . S
O220 Tb168 2.421 . S
O220 C242 1.262 . S
O221 Tb179 2.320 . S
O221 C242 1.260 . S
O222 Tb179 2.552 . S
O222 C235 1.243 . S
O223 Tb179 2.413 . S
O223 C243 1.256 . S
C224 O213 1.283 . S
C224 O216 1.243 . S
C225 C227 1.382 . S
C225 C229 1.393 . S
C225 C232 1.500 . S
C226 C227 1.400 . S
C226 C228 1.384 . S
C227 C225 1.382 . S
C227 C226 1.400 . S
C227 H244 0.930 . S
C228 C226 1.384 . S
C228 C230 1.392 . S
C228 H245 0.931 . S
C229 C225 1.393 . S
C229 C230 1.401 . S
C229 H246 0.930 . S
C230 C228 1.392 . S
C230 C229 1.401 . S
C230 H247 0.930 . S
C231 O214 1.262 . S
C231 O215 1.260 . S
C232 Tb168 2.833 . S
C232 O212 1.251 . S
C232 O217 1.256 . S
C232 C225 1.500 . S
C233 H198 0.929 . S
C233 C211 1.444 . S
C233 C234 1.317 . S
C234 H196 0.930 . S
C234 C202 1.432 . S
C234 C233 1.317 . S
C235 O219 1.283 . S
C235 O222 1.243 . S
C236 C237 1.382 . S
C236 C240 1.393 . S
C236 C243 1.500 . S
C237 C236 1.382 . S
C237 C238 1.400 . S
C237 H248 0.930 . S
C238 C237 1.400 . S
C238 C239 1.384 . S
C239 C238 1.384 . S
C239 C241 1.392 . S
C239 H249 0.931 . S
C240 C236 1.393 . S
C240 C241 1.401 . S
C240 H250 0.930 . S
C241 C239 1.392 . S
C241 C240 1.401 . S
C241 H251 0.930 . S
C242 O220 1.262 . S
C242 O221 1.260 . S
C243 Tb179 2.833 . S
C243 O218 1.251 . S
C243 O223 1.256 . S
C243 C236 1.500 . S
H244 C227 0.930 . S
H245 C228 0.931 . S
H246 C229 0.930 . S
H247 C230 0.930 . S
H248 C237 0.930 . S
H249 C239 0.931 . S
H250 C240 0.930 . S
H251 C241 0.930 . S
Tb252 N283 2.660 . S
Tb252 N290 2.600 . S
Tb252 O296 2.546 . S
Tb252 O297 2.610 . S
Tb252 O299 2.320 . S
Tb252 O300 2.552 . S
Tb252 O301 2.413 . S
Tb252 O303 2.362 . S
Tb252 O304 2.421 . S
Tb252 C316 2.833 . S
C253 C256 1.432 . S
C253 C257 1.414 . S
C253 N260 1.359 . S
C254 C256 1.417 . S
C254 C258 1.432 . S
C254 C266 1.410 . S
C255 C257 1.444 . S
C255 C258 1.317 . S
C255 H278 0.929 . S
C256 C253 1.432 . S
C256 C254 1.417 . S
C256 N264 1.360 . S
C257 C253 1.414 . S
C257 C255 1.444 . S
C257 C262 1.385 . S
C258 C254 1.432 . S
C258 C255 1.317 . S
C258 H270 0.930 . S
C259 C261 1.392 . S
C259 C262 1.370 . S
C259 H271 0.931 . S
N260 C253 1.359 . S
N260 C261 1.327 . S
N260 Tb263 2.600 . S
C261 C259 1.392 . S
C261 N260 1.327 . S
C261 H268 0.930 . S
C262 C257 1.385 . S
C262 C259 1.370 . S
C262 H281 0.930 . S
Tb263 N260 2.600 . S
Tb263 N264 2.660 . S
Tb263 O297 2.362 . S
Tb263 O298 2.421 . S
Tb263 O302 2.546 . S
Tb263 O303 2.610 . S
Tb263 O305 2.320 . S
Tb263 O306 2.552 . S
Tb263 O307 2.413 . S
Tb263 C327 2.833 . S
N264 C256 1.360 . S
N264 Tb263 2.660 . S
N264 C265 1.305 . S
C265 N264 1.305 . S
C265 C267 1.407 . S
C265 H272 0.930 . S
C266 C254 1.410 . S
C266 C267 1.345 . S
C266 H274 0.930 . S
C267 C265 1.407 . S
C267 C266 1.345 . S
C267 H269 0.930 . S
H268 C261 0.930 . S
H269 C267 0.930 . S
H270 C258 0.930 . S
H271 C259 0.931 . S
H272 C265 0.930 . S
H273 C287 0.930 . S
H274 C266 0.930 . S
H275 C293 0.930 . S
H276 C284 0.930 . S
H277 C291 0.931 . S
H278 C255 0.929 . S
H279 C285 0.930 . S
H280 C318 0.930 . S
H281 C262 0.930 . S
H282 C317 0.929 . S
N283 Tb252 2.660 . S
N283 C284 1.305 . S
N283 C288 1.360 . S
C284 H276 0.930 . S
C284 N283 1.305 . S
C284 C287 1.407 . S
C285 H279 0.930 . S
C285 C286 1.410 . S
C285 C287 1.345 . S
C286 C285 1.410 . S
C286 C288 1.417 . S
C286 C318 1.432 . S
C287 H273 0.930 . S
C287 C284 1.407 . S
C287 C285 1.345 . S
C288 N283 1.360 . S
C288 C286 1.417 . S
C288 C292 1.432 . S
H289 C294 0.930 . S
N290 Tb252 2.600 . S
N290 C292 1.359 . S
N290 C293 1.327 . S
C291 H277 0.931 . S
C291 C293 1.392 . S
C291 C294 1.370 . S
C292 C288 1.432 . S
C292 N290 1.359 . S
C292 C295 1.414 . S
C293 H275 0.930 . S
C293 N290 1.327 . S
C293 C291 1.392 . S
C294 H289 0.930 . S
C294 C291 1.370 . S
C294 C295 1.385 . S
C295 C292 1.414 . S
C295 C294 1.385 . S
C295 C317 1.444 . S
O296 Tb252 2.546 . S
O296 C316 1.251 . S
O297 Tb252 2.610 . S
O297 Tb263 2.362 . S
O297 C308 1.283 . S
O298 Tb263 2.421 . S
O298 C315 1.262 . S
O299 Tb252 2.320 . S
O299 C315 1.260 . S
O300 Tb252 2.552 . S
O300 C308 1.243 . S
O301 Tb252 2.413 . S
O301 C316 1.256 . S
O302 Tb263 2.546 . S
O302 C327 1.251 . S
O303 Tb252 2.362 . S
O303 Tb263 2.610 . S
O303 C319 1.283 . S
O304 Tb252 2.421 . S
O304 C326 1.262 . S
O305 Tb263 2.320 . S
O305 C326 1.260 . S
O306 Tb263 2.552 . S
O306 C319 1.243 . S
O307 Tb263 2.413 . S
O307 C327 1.256 . S
C308 O297 1.283 . S
C308 O300 1.243 . S
C309 C311 1.382 1_556 S
C309 C313 1.393 . S
C309 C316 1.500 . S
C310 C311 1.400 . S
C310 C312 1.384 . S
C311 C309 1.382 1_554 S
C311 C310 1.400 . S
C311 H328 0.931 1_554 S
C312 C310 1.384 . S
C312 C314 1.392 . S
C312 H329 0.931 . S
C313 C309 1.393 . S
C313 C314 1.401 1_556 S
C313 H330 0.930 . S
C314 C312 1.392 . S
C314 C313 1.401 1_554 S
C314 H331 0.930 . S
C315 O298 1.262 . S
C315 O299 1.260 . S
C316 Tb252 2.833 . S
C316 O296 1.251 . S
C316 O301 1.256 . S
C316 C309 1.500 . S
C317 H282 0.929 . S
C317 C295 1.444 . S
C317 C318 1.317 . S
C318 H280 0.930 . S
C318 C286 1.432 . S
C318 C317 1.317 . S
C319 O303 1.283 . S
C319 O306 1.243 . S
C320 C321 1.382 . S
C320 C324 1.393 . S
C320 C327 1.500 . S
C321 C320 1.382 . S
C321 C322 1.400 . S
C321 H332 0.930 . S
C322 C321 1.400 . S
C322 C323 1.384 . S
C323 C322 1.384 . S
C323 C325 1.392 . S
C323 H333 0.931 . S
C324 C320 1.393 . S
C324 C325 1.401 . S
C324 H334 0.930 . S
C325 C323 1.392 . S
C325 C324 1.401 . S
C325 H335 0.930 . S
C326 O304 1.262 . S
C326 O305 1.260 . S
C327 Tb263 2.833 . S
C327 O302 1.251 . S
C327 O307 1.256 . S
C327 C320 1.500 . S
H328 C311 0.931 1_556 S
H329 C312 0.931 . S
H330 C313 0.930 . S
H331 C314 0.930 . S
H332 C321 0.930 . S
H333 C323 0.931 . S
H334 C324 0.930 . S
H335 C325 0.930 . S
Tb336 N367 2.660 . S
Tb336 N374 2.600 . S
Tb336 O380 2.546 . S
Tb336 O381 2.610 . S
Tb336 O383 2.320 . S
Tb336 O384 2.552 . S
Tb336 O385 2.413 . S
Tb336 O387 2.362 . S
Tb336 O388 2.421 . S
Tb336 C400 2.833 . S
C337 C340 1.432 . S
C337 C341 1.414 . S
C337 N344 1.359 . S
C338 C340 1.417 . S
C338 C342 1.432 . S
C338 C350 1.410 . S
C339 C341 1.444 . S
C339 C342 1.317 . S
C339 H362 0.929 . S
C340 C337 1.432 . S
C340 C338 1.417 . S
C340 N348 1.360 . S
C341 C337 1.414 . S
C341 C339 1.444 . S
C341 C346 1.385 . S
C342 C338 1.432 . S
C342 C339 1.317 . S
C342 H354 0.930 . S
C343 C345 1.392 . S
C343 C346 1.370 . S
C343 H355 0.931 . S
N344 C337 1.359 . S
N344 C345 1.327 . S
N344 Tb347 2.600 1_655 S
C345 C343 1.392 . S
C345 N344 1.327 . S
C345 H352 0.930 . S
C346 C341 1.385 . S
C346 C343 1.370 . S
C346 H365 0.930 . S
Tb347 N344 2.600 1_455 S
Tb347 N348 2.660 1_455 S
Tb347 O381 2.362 . S
Tb347 O382 2.421 . S
Tb347 O386 2.546 1_455 S
Tb347 O387 2.610 . S
Tb347 O389 2.320 . S
Tb347 O390 2.552 . S
Tb347 O391 2.413 1_455 S
Tb347 C411 2.833 1_455 S
N348 C340 1.360 . S
N348 Tb347 2.660 1_655 S
N348 C349 1.305 . S
C349 N348 1.305 . S
C349 C351 1.407 . S
C349 H356 0.930 . S
C350 C338 1.410 . S
C350 C351 1.345 . S
C350 H358 0.930 . S
C351 C349 1.407 . S
C351 C350 1.345 . S
C351 H353 0.930 . S
H352 C345 0.930 . S
H353 C351 0.930 . S
H354 C342 0.930 . S
H355 C343 0.931 . S
H356 C349 0.930 . S
H357 C371 0.930 . S
H358 C350 0.930 . S
H359 C377 0.930 . S
H360 C368 0.930 . S
H361 C375 0.931 . S
H362 C339 0.929 . S
H363 C369 0.930 . S
H364 C402 0.930 . S
H365 C346 0.930 . S
H366 C401 0.929 . S
N367 Tb336 2.660 . S
N367 C368 1.305 . S
N367 C372 1.360 . S
C368 H360 0.930 . S
C368 N367 1.305 . S
C368 C371 1.407 . S
C369 H363 0.930 . S
C369 C370 1.410 . S
C369 C371 1.345 . S
C370 C369 1.410 . S
C370 C372 1.417 . S
C370 C402 1.432 . S
C371 H357 0.930 . S
C371 C368 1.407 . S
C371 C369 1.345 . S
C372 N367 1.360 . S
C372 C370 1.417 . S
C372 C376 1.432 . S
H373 C378 0.930 . S
N374 Tb336 2.600 . S
N374 C376 1.359 . S
N374 C377 1.327 . S
C375 H361 0.931 . S
C375 C377 1.392 . S
C375 C378 1.370 . S
C376 C372 1.432 . S
C376 N374 1.359 . S
C376 C379 1.414 . S
C377 H359 0.930 . S
C377 N374 1.327 . S
C377 C375 1.392 . S
C378 H373 0.930 . S
C378 C375 1.370 . S
C378 C379 1.385 . S
C379 C376 1.414 . S
C379 C378 1.385 . S
C379 C401 1.444 . S
O380 Tb336 2.546 . S
O380 C400 1.251 . S
O381 Tb336 2.610 . S
O381 Tb347 2.362 . S
O381 C392 1.283 . S
O382 Tb347 2.421 . S
O382 C399 1.262 . S
O383 Tb336 2.320 . S
O383 C399 1.260 . S
O384 Tb336 2.552 . S
O384 C392 1.243 . S
O385 Tb336 2.413 . S
O385 C400 1.256 . S
O386 Tb347 2.546 1_655 S
O386 C411 1.251 . S
O387 Tb336 2.362 . S
O387 Tb347 2.610 . S
O387 C403 1.283 . S
O388 Tb336 2.421 . S
O388 C410 1.262 . S
O389 Tb347 2.320 . S
O389 C410 1.260 . S
O390 Tb347 2.552 . S
O390 C403 1.243 . S
O391 Tb347 2.413 1_655 S
O391 C411 1.256 . S
C392 O381 1.283 . S
C392 O384 1.243 . S
C393 C395 1.382 . S
C393 C397 1.393 . S
C393 C400 1.500 . S
C394 C395 1.400 . S
C394 C396 1.384 . S
C395 C393 1.382 . S
C395 C394 1.400 . S
C395 H412 0.930 . S
C396 C394 1.384 . S
C396 C398 1.392 . S
C396 H413 0.931 . S
C397 C393 1.393 . S
C397 C398 1.401 . S
C397 H414 0.930 . S
C398 C396 1.392 . S
C398 C397 1.401 . S
C398 H415 0.930 . S
C399 O382 1.262 . S
C399 O383 1.260 . S
C400 Tb336 2.833 . S
C400 O380 1.251 . S
C400 O385 1.256 . S
C400 C393 1.500 . S
C401 H366 0.929 . S
C401 C379 1.444 . S
C401 C402 1.317 . S
C402 H364 0.930 . S
C402 C370 1.432 . S
C402 C401 1.317 . S
C403 O387 1.283 . S
C403 O390 1.243 . S
C404 C405 1.382 . S
C404 C408 1.393 . S
C404 C411 1.500 . S
C405 C404 1.382 . S
C405 C406 1.400 1_556 S
C405 H416 0.930 . S
C406 C405 1.400 1_554 S
C406 C407 1.384 . S
C407 C406 1.384 . S
C407 C409 1.392 1_554 S
C407 H417 0.931 . S
C408 C404 1.393 . S
C408 C409 1.401 . S
C408 H418 0.930 . S
C409 C407 1.392 1_556 S
C409 C408 1.401 . S
C409 H419 0.923 1_556 S
C410 O388 1.262 . S
C410 O389 1.260 . S
C411 Tb347 2.833 1_655 S
C411 O386 1.251 . S
C411 O391 1.256 . S
C411 C404 1.500 . S
H412 C395 0.930 . S
H413 C396 0.931 . S
H414 C397 0.930 . S
H415 C398 0.930 . S
H416 C405 0.930 . S
H417 C407 0.931 . S
H418 C408 0.930 . S
H419 C409 0.923 1_554 S
Tb420 N451 2.660 . S
Tb420 N458 2.600 . S
Tb420 O464 2.546 . S
Tb420 O465 2.610 . S
Tb420 O467 2.320 . S
Tb420 O468 2.552 . S
Tb420 O469 2.413 . S
Tb420 O471 2.362 . S
Tb420 O472 2.421 . S
Tb420 C484 2.833 . S
C421 C424 1.432 . S
C421 C425 1.414 . S
C421 N428 1.359 . S
C422 C424 1.417 . S
C422 C426 1.432 . S
C422 C434 1.410 . S
C423 C425 1.444 . S
C423 C426 1.317 . S
C423 H446 0.929 . S
C424 C421 1.432 . S
C424 C422 1.417 . S
C424 N432 1.360 . S
C425 C421 1.414 . S
C425 C423 1.444 . S
C425 C430 1.385 . S
C426 C422 1.432 . S
C426 C423 1.317 . S
C426 H438 0.930 . S
C427 C429 1.392 . S
C427 C430 1.370 . S
C427 H439 0.931 . S
N428 C421 1.359 . S
N428 C429 1.327 . S
N428 Tb431 2.600 . S
C429 C427 1.392 . S
C429 N428 1.327 . S
C429 H436 0.930 . S
C430 C425 1.385 . S
C430 C427 1.370 . S
C430 H449 0.930 . S
Tb431 N428 2.600 . S
Tb431 N432 2.660 . S
Tb431 O465 2.362 . S
Tb431 O466 2.421 . S
Tb431 O470 2.546 . S
Tb431 O471 2.610 . S
Tb431 O473 2.320 . S
Tb431 O474 2.552 . S
Tb431 O475 2.413 . S
Tb431 C495 2.833 . S
N432 C424 1.360 . S
N432 Tb431 2.660 . S
N432 C433 1.305 . S
C433 N432 1.305 . S
C433 C435 1.407 . S
C433 H440 0.930 . S
C434 C422 1.410 . S
C434 C435 1.345 . S
C434 H442 0.930 . S
C435 C433 1.407 . S
C435 C434 1.345 . S
C435 H437 0.930 . S
H436 C429 0.930 . S
H437 C435 0.930 . S
H438 C426 0.930 . S
H439 C427 0.931 . S
H440 C433 0.930 . S
H441 C455 0.930 . S
H442 C434 0.930 . S
H443 C461 0.930 . S
H444 C452 0.930 . S
H445 C459 0.931 . S
H446 C423 0.929 . S
H447 C453 0.930 . S
H448 C486 0.930 . S
H449 C430 0.930 . S
H450 C485 0.929 . S
N451 Tb420 2.660 . S
N451 C452 1.305 . S
N451 C456 1.360 . S
C452 H444 0.930 . S
C452 N451 1.305 . S
C452 C455 1.407 . S
C453 H447 0.930 . S
C453 C454 1.410 . S
C453 C455 1.345 . S
C454 C453 1.410 . S
C454 C456 1.417 . S
C454 C486 1.432 . S
C455 H441 0.930 . S
C455 C452 1.407 . S
C455 C453 1.345 . S
C456 N451 1.360 . S
C456 C454 1.417 . S
C456 C460 1.432 . S
H457 C462 0.930 . S
N458 Tb420 2.600 . S
N458 C460 1.359 . S
N458 C461 1.327 . S
C459 H445 0.931 . S
C459 C461 1.392 . S
C459 C462 1.370 . S
C460 C456 1.432 . S
C460 N458 1.359 . S
C460 C463 1.414 . S
C461 H443 0.930 . S
C461 N458 1.327 . S
C461 C459 1.392 . S
C462 H457 0.930 . S
C462 C459 1.370 . S
C462 C463 1.385 . S
C463 C460 1.414 . S
C463 C462 1.385 . S
C463 C485 1.444 . S
O464 Tb420 2.546 . S
O464 C484 1.251 . S
O465 Tb420 2.610 . S
O465 Tb431 2.362 . S
O465 C476 1.283 . S
O466 Tb431 2.421 . S
O466 C483 1.262 . S
O467 Tb420 2.320 . S
O467 C483 1.260 . S
O468 Tb420 2.552 . S
O468 C476 1.243 . S
O469 Tb420 2.413 . S
O469 C484 1.256 . S
O470 Tb431 2.546 . S
O470 C495 1.251 . S
O471 Tb420 2.362 . S
O471 Tb431 2.610 . S
O471 C487 1.283 . S
O472 Tb420 2.421 . S
O472 C494 1.262 . S
O473 Tb431 2.320 . S
O473 C494 1.260 . S
O474 Tb431 2.552 . S
O474 C487 1.243 . S
O475 Tb431 2.413 . S
O475 C495 1.256 . S
C476 O465 1.283 . S
C476 O468 1.243 . S
C477 C479 1.382 1_554 S
C477 C481 1.393 . S
C477 C484 1.500 . S
C478 C479 1.400 . S
C478 C480 1.384 . S
C479 C477 1.382 1_556 S
C479 C478 1.400 . S
C479 H496 0.931 1_556 S
C480 C478 1.384 . S
C480 C482 1.392 . S
C480 H497 0.931 . S
C481 C477 1.393 . S
C481 C482 1.401 1_554 S
C481 H498 0.930 . S
C482 C480 1.392 . S
C482 C481 1.401 1_556 S
C482 H499 0.930 . S
C483 O466 1.262 . S
C483 O467 1.260 . S
C484 Tb420 2.833 . S
C484 O464 1.251 . S
C484 O469 1.256 . S
C484 C477 1.500 . S
C485 H450 0.929 . S
C485 C463 1.444 . S
C485 C486 1.317 . S
C486 H448 0.930 . S
C486 C454 1.432 . S
C486 C485 1.317 . S
C487 O471 1.283 . S
C487 O474 1.243 . S
C488 C489 1.382 . S
C488 C492 1.393 . S
C488 C495 1.500 . S
C489 C488 1.382 . S
C489 C490 1.400 . S
C489 H500 0.930 . S
C490 C489 1.400 . S
C490 C491 1.384 . S
C491 C490 1.384 . S
C491 C493 1.392 . S
C491 H501 0.931 . S
C492 C488 1.393 . S
C492 C493 1.401 . S
C492 H502 0.930 . S
C493 C491 1.392 . S
C493 C492 1.401 . S
C493 H503 0.930 . S
C494 O472 1.262 . S
C494 O473 1.260 . S
C495 Tb431 2.833 . S
C495 O470 1.251 . S
C495 O475 1.256 . S
C495 C488 1.500 . S
H496 C479 0.931 1_554 S
H497 C480 0.931 . S
H498 C481 0.930 . S
H499 C482 0.930 . S
H500 C489 0.930 . S
H501 C491 0.931 . S
H502 C492 0.930 . S
H503 C493 0.930 . S
Tb504 N535 2.660 . S
Tb504 N542 2.600 . S
Tb504 O548 2.546 . S
Tb504 O549 2.610 . S
Tb504 O551 2.320 . S
Tb504 O552 2.552 . S
Tb504 O553 2.413 . S
Tb504 O555 2.362 . S
Tb504 O556 2.421 . S
Tb504 C568 2.833 . S
C505 C508 1.432 . S
C505 C509 1.414 . S
C505 N512 1.359 . S
C506 C508 1.417 . S
C506 C510 1.432 . S
C506 C518 1.410 . S
C507 C509 1.444 . S
C507 C510 1.317 . S
C507 H530 0.929 . S
C508 C505 1.432 . S
C508 C506 1.417 . S
C508 N516 1.360 . S
C509 C505 1.414 . S
C509 C507 1.444 . S
C509 C514 1.385 . S
C510 C506 1.432 . S
C510 C507 1.317 . S
C510 H522 0.930 . S
C511 C513 1.392 . S
C511 C514 1.370 . S
C511 H523 0.931 . S
N512 C505 1.359 . S
N512 C513 1.327 . S
N512 Tb515 2.600 . S
C513 C511 1.392 . S
C513 N512 1.327 . S
C513 H520 0.930 . S
C514 C509 1.385 . S
C514 C511 1.370 . S
C514 H533 0.930 . S
Tb515 N512 2.600 . S
Tb515 N516 2.660 . S
Tb515 O549 2.362 . S
Tb515 O550 2.421 . S
Tb515 O554 2.546 . S
Tb515 O555 2.610 . S
Tb515 O557 2.320 . S
Tb515 O558 2.552 . S
Tb515 O559 2.413 . S
Tb515 C579 2.833 . S
N516 C508 1.360 . S
N516 Tb515 2.660 . S
N516 C517 1.305 . S
C517 N516 1.305 . S
C517 C519 1.407 . S
C517 H524 0.930 . S
C518 C506 1.410 . S
C518 C519 1.345 . S
C518 H526 0.930 . S
C519 C517 1.407 . S
C519 C518 1.345 . S
C519 H521 0.930 . S
H520 C513 0.930 . S
H521 C519 0.930 . S
H522 C510 0.930 . S
H523 C511 0.931 . S
H524 C517 0.930 . S
H525 C539 0.930 . S
H526 C518 0.930 . S
H527 C545 0.930 . S
H528 C536 0.930 . S
H529 C543 0.931 . S
H530 C507 0.929 . S
H531 C537 0.930 . S
H532 C570 0.930 . S
H533 C514 0.930 . S
H534 C569 0.929 . S
N535 Tb504 2.660 . S
N535 C536 1.305 . S
N535 C540 1.360 . S
C536 H528 0.930 . S
C536 N535 1.305 . S
C536 C539 1.407 . S
C537 H531 0.930 . S
C537 C538 1.410 . S
C537 C539 1.345 . S
C538 C537 1.410 . S
C538 C540 1.417 . S
C538 C570 1.432 . S
C539 H525 0.930 . S
C539 C536 1.407 . S
C539 C537 1.345 . S
C540 N535 1.360 . S
C540 C538 1.417 . S
C540 C544 1.432 . S
H541 C546 0.930 . S
N542 Tb504 2.600 . S
N542 C544 1.359 . S
N542 C545 1.327 . S
C543 H529 0.931 . S
C543 C545 1.392 . S
C543 C546 1.370 . S
C544 C540 1.432 . S
C544 N542 1.359 . S
C544 C547 1.414 . S
C545 H527 0.930 . S
C545 N542 1.327 . S
C545 C543 1.392 . S
C546 H541 0.930 . S
C546 C543 1.370 . S
C546 C547 1.385 . S
C547 C544 1.414 . S
C547 C546 1.385 . S
C547 C569 1.444 . S
O548 Tb504 2.546 . S
O548 C568 1.251 . S
O549 Tb504 2.610 . S
O549 Tb515 2.362 . S
O549 C560 1.283 . S
O550 Tb515 2.421 . S
O550 C567 1.262 . S
O551 Tb504 2.320 . S
O551 C567 1.260 . S
O552 Tb504 2.552 . S
O552 C560 1.243 . S
O553 Tb504 2.413 . S
O553 C568 1.256 . S
O554 Tb515 2.546 . S
O554 C579 1.251 . S
O555 Tb504 2.362 . S
O555 Tb515 2.610 . S
O555 C571 1.283 . S
O556 Tb504 2.421 . S
O556 C578 1.262 . S
O557 Tb515 2.320 . S
O557 C578 1.260 . S
O558 Tb515 2.552 . S
O558 C571 1.243 . S
O559 Tb515 2.413 . S
O559 C579 1.256 . S
C560 O549 1.283 . S
C560 O552 1.243 . S
C561 C563 1.382 . S
C561 C565 1.393 . S
C561 C568 1.500 . S
C562 C563 1.400 . S
C562 C564 1.384 . S
C563 C561 1.382 . S
C563 C562 1.400 . S
C563 H580 0.930 . S
C564 C562 1.384 . S
C564 C566 1.392 . S
C564 H581 0.931 . S
C565 C561 1.393 . S
C565 C566 1.401 . S
C565 H582 0.930 . S
C566 C564 1.392 . S
C566 C565 1.401 . S
C566 H583 0.930 . S
C567 O550 1.262 . S
C567 O551 1.260 . S
C568 Tb504 2.833 . S
C568 O548 1.251 . S
C568 O553 1.256 . S
C568 C561 1.500 . S
C569 H534 0.929 . S
C569 C547 1.444 . S
C569 C570 1.317 . S
C570 H532 0.930 . S
C570 C538 1.432 . S
C570 C569 1.317 . S
C571 O555 1.283 . S
C571 O558 1.243 . S
C572 C573 1.382 . S
C572 C576 1.393 . S
C572 C579 1.500 . S
C573 C572 1.382 . S
C573 C574 1.400 . S
C573 H584 0.930 . S
C574 C573 1.400 . S
C574 C575 1.384 . S
C575 C574 1.384 . S
C575 C577 1.392 . S
C575 H585 0.931 . S
C576 C572 1.393 . S
C576 C577 1.401 . S
C576 H586 0.930 . S
C577 C575 1.392 . S
C577 C576 1.401 . S
C577 H587 0.930 . S
C578 O556 1.262 . S
C578 O557 1.260 . S
C579 Tb515 2.833 . S
C579 O554 1.251 . S
C579 O559 1.256 . S
C579 C572 1.500 . S
H580 C563 0.930 . S
H581 C564 0.931 . S
H582 C565 0.930 . S
H583 C566 0.930 . S
H584 C573 0.930 . S
H585 C575 0.931 . S
H586 C576 0.930 . S
H587 C577 0.930 . S
Tb588 N619 2.660 . S
Tb588 N626 2.600 . S
Tb588 O632 2.546 . S
Tb588 O633 2.610 . S
Tb588 O635 2.320 . S
Tb588 O636 2.552 . S
Tb588 O637 2.413 . S
Tb588 O639 2.362 . S
Tb588 O640 2.421 . S
Tb588 C652 2.833 . S
C589 C592 1.432 . S
C589 C593 1.414 . S
C589 N596 1.359 . S
C590 C592 1.417 . S
C590 C594 1.432 . S
C590 C602 1.410 . S
C591 C593 1.444 . S
C591 C594 1.317 . S
C591 H614 0.929 . S
C592 C589 1.432 . S
C592 C590 1.417 . S
C592 N600 1.360 . S
C593 C589 1.414 . S
C593 C591 1.444 . S
C593 C598 1.385 . S
C594 C590 1.432 . S
C594 C591 1.317 . S
C594 H606 0.930 . S
C595 C597 1.392 . S
C595 C598 1.370 . S
C595 H607 0.931 . S
N596 C589 1.359 . S
N596 C597 1.327 . S
N596 Tb599 2.600 . S
C597 C595 1.392 . S
C597 N596 1.327 . S
C597 H604 0.930 . S
C598 C593 1.385 . S
C598 C595 1.370 . S
C598 H617 0.930 . S
Tb599 N596 2.600 . S
Tb599 N600 2.660 . S
Tb599 O633 2.362 . S
Tb599 O634 2.421 . S
Tb599 O638 2.546 . S
Tb599 O639 2.610 . S
Tb599 O641 2.320 . S
Tb599 O642 2.552 . S
Tb599 O643 2.413 . S
Tb599 C663 2.833 . S
N600 C592 1.360 . S
N600 Tb599 2.660 . S
N600 C601 1.305 . S
C601 N600 1.305 . S
C601 C603 1.407 . S
C601 H608 0.930 . S
C602 C590 1.410 . S
C602 C603 1.345 . S
C602 H610 0.930 . S
C603 C601 1.407 . S
C603 C602 1.345 . S
C603 H605 0.930 . S
H604 C597 0.930 . S
H605 C603 0.930 . S
H606 C594 0.930 . S
H607 C595 0.931 . S
H608 C601 0.930 . S
H609 C623 0.930 . S
H610 C602 0.930 . S
H611 C629 0.930 . S
H612 C620 0.930 . S
H613 C627 0.931 . S
H614 C591 0.929 . S
H615 C621 0.930 . S
H616 C654 0.930 . S
H617 C598 0.930 . S
H618 C653 0.929 . S
N619 Tb588 2.660 . S
N619 C620 1.305 . S
N619 C624 1.360 . S
C620 H612 0.930 . S
C620 N619 1.305 . S
C620 C623 1.407 . S
C621 H615 0.930 . S
C621 C622 1.410 . S
C621 C623 1.345 . S
C622 C621 1.410 . S
C622 C624 1.417 . S
C622 C654 1.432 . S
C623 H609 0.930 . S
C623 C620 1.407 . S
C623 C621 1.345 . S
C624 N619 1.360 . S
C624 C622 1.417 . S
C624 C628 1.432 . S
H625 C630 0.930 . S
N626 Tb588 2.600 . S
N626 C628 1.359 . S
N626 C629 1.327 . S
C627 H613 0.931 . S
C627 C629 1.392 . S
C627 C630 1.370 . S
C628 C624 1.432 . S
C628 N626 1.359 . S
C628 C631 1.414 . S
C629 H611 0.930 . S
C629 N626 1.327 . S
C629 C627 1.392 . S
C630 H625 0.930 . S
C630 C627 1.370 . S
C630 C631 1.385 . S
C631 C628 1.414 . S
C631 C630 1.385 . S
C631 C653 1.444 . S
O632 Tb588 2.546 . S
O632 C652 1.251 . S
O633 Tb588 2.610 . S
O633 Tb599 2.362 . S
O633 C644 1.283 . S
O634 Tb599 2.421 . S
O634 C651 1.262 . S
O635 Tb588 2.320 . S
O635 C651 1.260 . S
O636 Tb588 2.552 . S
O636 C644 1.243 . S
O637 Tb588 2.413 . S
O637 C652 1.256 . S
O638 Tb599 2.546 . S
O638 C663 1.251 . S
O639 Tb588 2.362 . S
O639 Tb599 2.610 . S
O639 C655 1.283 . S
O640 Tb588 2.421 . S
O640 C662 1.262 . S
O641 Tb599 2.320 . S
O641 C662 1.260 . S
O642 Tb599 2.552 . S
O642 C655 1.243 . S
O643 Tb599 2.413 . S
O643 C663 1.256 . S
C644 O633 1.283 . S
C644 O636 1.243 . S
C645 C647 1.382 . S
C645 C649 1.393 . S
C645 C652 1.500 . S
C646 C647 1.400 . S
C646 C648 1.384 . S
C647 C645 1.382 . S
C647 C646 1.400 . S
C647 H664 0.930 . S
C648 C646 1.384 . S
C648 C650 1.392 . S
C648 H665 0.931 . S
C649 C645 1.393 . S
C649 C650 1.401 . S
C649 H666 0.930 . S
C650 C648 1.392 . S
C650 C649 1.401 . S
C650 H667 0.930 . S
C651 O634 1.262 . S
C651 O635 1.260 . S
C652 Tb588 2.833 . S
C652 O632 1.251 . S
C652 O637 1.256 . S
C652 C645 1.500 . S
C653 H618 0.929 . S
C653 C631 1.444 . S
C653 C654 1.317 . S
C654 H616 0.930 . S
C654 C622 1.432 . S
C654 C653 1.317 . S
C655 O639 1.283 . S
C655 O642 1.243 . S
C656 C657 1.382 . S
C656 C660 1.393 . S
C656 C663 1.500 . S
C657 C656 1.382 . S
C657 C658 1.400 . S
C657 H668 0.930 . S
C658 C657 1.400 . S
C658 C659 1.384 . S
C659 C658 1.384 . S
C659 C661 1.392 . S
C659 H669 0.931 . S
C660 C656 1.393 . S
C660 C661 1.401 . S
C660 H670 0.930 . S
C661 C659 1.392 . S
C661 C660 1.401 . S
C661 H671 0.930 . S
C662 O640 1.262 . S
C662 O641 1.260 . S
C663 Tb599 2.833 . S
C663 O638 1.251 . S
C663 O643 1.256 . S
C663 C656 1.500 . S
H664 C647 0.930 . S
H665 C648 0.931 . S
H666 C649 0.930 . S
H667 C650 0.930 . S
H668 C657 0.930 . S
H669 C659 0.931 . S
H670 C660 0.930 . S
H671 C661 0.930 . S
Tb672 N703 2.660 . S
Tb672 N710 2.600 . S
Tb672 O716 2.546 . S
Tb672 O717 2.610 . S
Tb672 O719 2.320 . S
Tb672 O720 2.552 . S
Tb672 O721 2.413 . S
Tb672 O723 2.362 . S
Tb672 O724 2.421 . S
Tb672 C736 2.833 . S
C673 C676 1.432 . S
C673 C677 1.414 . S
C673 N680 1.359 . S
C674 C676 1.417 . S
C674 C678 1.432 . S
C674 C686 1.410 . S
C675 C677 1.444 . S
C675 C678 1.317 . S
C675 H698 0.929 . S
C676 C673 1.432 . S
C676 C674 1.417 . S
C676 N684 1.360 . S
C677 C673 1.414 . S
C677 C675 1.444 . S
C677 C682 1.385 . S
C678 C674 1.432 . S
C678 C675 1.317 . S
C678 H690 0.930 . S
C679 C681 1.392 . S
C679 C682 1.370 . S
C679 H691 0.931 . S
N680 C673 1.359 . S
N680 C681 1.327 . S
N680 Tb683 2.600 . S
C681 C679 1.392 . S
C681 N680 1.327 . S
C681 H688 0.930 . S
C682 C677 1.385 . S
C682 C679 1.370 . S
C682 H701 0.930 . S
Tb683 N680 2.600 . S
Tb683 N684 2.660 . S
Tb683 O717 2.362 . S
Tb683 O718 2.421 . S
Tb683 O722 2.546 . S
Tb683 O723 2.610 . S
Tb683 O725 2.320 . S
Tb683 O726 2.552 . S
Tb683 O727 2.413 . S
Tb683 C747 2.833 . S
N684 C676 1.360 . S
N684 Tb683 2.660 . S
N684 C685 1.305 . S
C685 N684 1.305 . S
C685 C687 1.407 . S
C685 H692 0.930 . S
C686 C674 1.410 . S
C686 C687 1.345 . S
C686 H694 0.930 . S
C687 C685 1.407 . S
C687 C686 1.345 . S
C687 H689 0.930 . S
H688 C681 0.930 . S
H689 C687 0.930 . S
H690 C678 0.930 . S
H691 C679 0.931 . S
H692 C685 0.930 . S
H693 C707 0.930 . S
H694 C686 0.930 . S
H695 C713 0.930 . S
H696 C704 0.930 . S
H697 C711 0.931 . S
H698 C675 0.929 . S
H699 C705 0.930 . S
H700 C738 0.930 . S
H701 C682 0.930 . S
H702 C737 0.929 . S
N703 Tb672 2.660 . S
N703 C704 1.305 . S
N703 C708 1.360 . S
C704 H696 0.930 . S
C704 N703 1.305 . S
C704 C707 1.407 . S
C705 H699 0.930 . S
C705 C706 1.410 . S
C705 C707 1.345 . S
C706 C705 1.410 . S
C706 C708 1.417 . S
C706 C738 1.432 . S
C707 H693 0.930 . S
C707 C704 1.407 . S
C707 C705 1.345 . S
C708 N703 1.360 . S
C708 C706 1.417 . S
C708 C712 1.432 . S
H709 C714 0.930 . S
N710 Tb672 2.600 . S
N710 C712 1.359 . S
N710 C713 1.327 . S
C711 H697 0.931 . S
C711 C713 1.392 . S
C711 C714 1.370 . S
C712 C708 1.432 . S
C712 N710 1.359 . S
C712 C715 1.414 . S
C713 H695 0.930 . S
C713 N710 1.327 . S
C713 C711 1.392 . S
C714 H709 0.930 . S
C714 C711 1.370 . S
C714 C715 1.385 . S
C715 C712 1.414 . S
C715 C714 1.385 . S
C715 C737 1.444 . S
O716 Tb672 2.546 . S
O716 C736 1.251 . S
O717 Tb672 2.610 . S
O717 Tb683 2.362 . S
O717 C728 1.283 . S
O718 Tb683 2.421 . S
O718 C735 1.262 . S
O719 Tb672 2.320 . S
O719 C735 1.260 . S
O720 Tb672 2.552 . S
O720 C728 1.243 . S
O721 Tb672 2.413 . S
O721 C736 1.256 . S
O722 Tb683 2.546 . S
O722 C747 1.251 . S
O723 Tb672 2.362 . S
O723 Tb683 2.610 . S
O723 C739 1.283 . S
O724 Tb672 2.421 . S
O724 C746 1.262 . S
O725 Tb683 2.320 . S
O725 C746 1.260 . S
O726 Tb683 2.552 . S
O726 C739 1.243 . S
O727 Tb683 2.413 . S
O727 C747 1.256 . S
C728 O717 1.283 . S
C728 O720 1.243 . S
C729 C731 1.382 . S
C729 C733 1.393 . S
C729 C736 1.500 . S
C730 C731 1.400 . S
C730 C732 1.384 . S
C731 C729 1.382 . S
C731 C730 1.400 . S
C731 H748 0.930 . S
C732 C730 1.384 . S
C732 C734 1.392 . S
C732 H749 0.931 . S
C733 C729 1.393 . S
C733 C734 1.401 . S
C733 H750 0.930 . S
C734 C732 1.392 . S
C734 C733 1.401 . S
C734 H751 0.930 . S
C735 O718 1.262 . S
C735 O719 1.260 . S
C736 Tb672 2.833 . S
C736 O716 1.251 . S
C736 O721 1.256 . S
C736 C729 1.500 . S
C737 H702 0.929 . S
C737 C715 1.444 . S
C737 C738 1.317 . S
C738 H700 0.930 . S
C738 C706 1.432 . S
C738 C737 1.317 . S
C739 O723 1.283 . S
C739 O726 1.243 . S
C740 C741 1.382 . S
C740 C744 1.393 . S
C740 C747 1.500 . S
C741 C740 1.382 . S
C741 C742 1.400 . S
C741 H752 0.930 . S
C742 C741 1.400 . S
C742 C743 1.384 . S
C743 C742 1.384 . S
C743 C745 1.392 . S
C743 H753 0.931 . S
C744 C740 1.393 . S
C744 C745 1.401 . S
C744 H754 0.930 . S
C745 C743 1.392 . S
C745 C744 1.401 . S
C745 H755 0.930 . S
C746 O724 1.262 . S
C746 O725 1.260 . S
C747 Tb683 2.833 . S
C747 O722 1.251 . S
C747 O727 1.256 . S
C747 C740 1.500 . S
H748 C731 0.930 . S
H749 C732 0.931 . S
H750 C733 0.930 . S
H751 C734 0.930 . S
H752 C741 0.930 . S
H753 C743 0.931 . S
H754 C744 0.930 . S
H755 C745 0.930 . S
Tb756 N787 2.660 . S
Tb756 N794 2.600 . S
Tb756 O800 2.546 . S
Tb756 O801 2.610 . S
Tb756 O803 2.320 . S
Tb756 O804 2.552 . S
Tb756 O805 2.413 . S
Tb756 O807 2.362 . S
Tb756 O808 2.421 . S
Tb756 C820 2.833 . S
C757 C760 1.432 . S
C757 C761 1.414 . S
C757 N764 1.359 . S
C758 C760 1.417 . S
C758 C762 1.432 . S
C758 C770 1.410 . S
C759 C761 1.444 . S
C759 C762 1.317 . S
C759 H782 0.929 . S
C760 C757 1.432 . S
C760 C758 1.417 . S
C760 N768 1.360 . S
C761 C757 1.414 . S
C761 C759 1.444 . S
C761 C766 1.385 . S
C762 C758 1.432 . S
C762 C759 1.317 . S
C762 H774 0.930 . S
C763 C765 1.392 . S
C763 C766 1.370 . S
C763 H775 0.931 . S
N764 C757 1.359 . S
N764 C765 1.327 . S
N764 Tb767 2.600 . S
C765 C763 1.392 . S
C765 N764 1.327 . S
C765 H772 0.930 . S
C766 C761 1.385 . S
C766 C763 1.370 . S
C766 H785 0.930 . S
Tb767 N764 2.600 . S
Tb767 N768 2.660 . S
Tb767 O801 2.362 . S
Tb767 O802 2.421 . S
Tb767 O806 2.546 . S
Tb767 O807 2.610 . S
Tb767 O809 2.320 . S
Tb767 O810 2.552 . S
Tb767 O811 2.413 . S
Tb767 C831 2.833 . S
N768 C760 1.360 . S
N768 Tb767 2.660 . S
N768 C769 1.305 . S
C769 N768 1.305 . S
C769 C771 1.407 . S
C769 H776 0.930 . S
C770 C758 1.410 . S
C770 C771 1.345 . S
C770 H778 0.930 . S
C771 C769 1.407 . S
C771 C770 1.345 . S
C771 H773 0.930 . S
H772 C765 0.930 . S
H773 C771 0.930 . S
H774 C762 0.930 . S
H775 C763 0.931 . S
H776 C769 0.930 . S
H777 C791 0.930 . S
H778 C770 0.930 . S
H779 C797 0.930 . S
H780 C788 0.930 . S
H781 C795 0.931 . S
H782 C759 0.929 . S
H783 C789 0.930 . S
H784 C822 0.930 . S
H785 C766 0.930 . S
H786 C821 0.929 . S
N787 Tb756 2.660 . S
N787 C788 1.305 . S
N787 C792 1.360 . S
C788 H780 0.930 . S
C788 N787 1.305 . S
C788 C791 1.407 . S
C789 H783 0.930 . S
C789 C790 1.410 . S
C789 C791 1.345 . S
C790 C789 1.410 . S
C790 C792 1.417 . S
C790 C822 1.432 . S
C791 H777 0.930 . S
C791 C788 1.407 . S
C791 C789 1.345 . S
C792 N787 1.360 . S
C792 C790 1.417 . S
C792 C796 1.432 . S
H793 C798 0.930 . S
N794 Tb756 2.600 . S
N794 C796 1.359 . S
N794 C797 1.327 . S
C795 H781 0.931 . S
C795 C797 1.392 . S
C795 C798 1.370 . S
C796 C792 1.432 . S
C796 N794 1.359 . S
C796 C799 1.414 . S
C797 H779 0.930 . S
C797 N794 1.327 . S
C797 C795 1.392 . S
C798 H793 0.930 . S
C798 C795 1.370 . S
C798 C799 1.385 . S
C799 C796 1.414 . S
C799 C798 1.385 . S
C799 C821 1.444 . S
O800 Tb756 2.546 . S
O800 C820 1.251 . S
O801 Tb756 2.610 . S
O801 Tb767 2.362 . S
O801 C812 1.283 . S
O802 Tb767 2.421 . S
O802 C819 1.262 . S
O803 Tb756 2.320 . S
O803 C819 1.260 . S
O804 Tb756 2.552 . S
O804 C812 1.243 . S
O805 Tb756 2.413 . S
O805 C820 1.256 . S
O806 Tb767 2.546 . S
O806 C831 1.251 . S
O807 Tb756 2.362 . S
O807 Tb767 2.610 . S
O807 C823 1.283 . S
O808 Tb756 2.421 . S
O808 C830 1.262 . S
O809 Tb767 2.320 . S
O809 C830 1.260 . S
O810 Tb767 2.552 . S
O810 C823 1.243 . S
O811 Tb767 2.413 . S
O811 C831 1.256 . S
C812 O801 1.283 . S
C812 O804 1.243 . S
C813 C815 1.382 . S
C813 C817 1.393 . S
C813 C820 1.500 . S
C814 C815 1.400 . S
C814 C816 1.384 . S
C815 C813 1.382 . S
C815 C814 1.400 . S
C815 H832 0.930 . S
C816 C814 1.384 . S
C816 C818 1.392 . S
C816 H833 0.931 . S
C817 C813 1.393 . S
C817 C818 1.401 . S
C817 H834 0.930 . S
C818 C816 1.392 . S
C818 C817 1.401 . S
C818 H835 0.930 . S
C819 O802 1.262 . S
C819 O803 1.260 . S
C820 Tb756 2.833 . S
C820 O800 1.251 . S
C820 O805 1.256 . S
C820 C813 1.500 . S
C821 H786 0.929 . S
C821 C799 1.444 . S
C821 C822 1.317 . S
C822 H784 0.930 . S
C822 C790 1.432 . S
C822 C821 1.317 . S
C823 O807 1.283 . S
C823 O810 1.243 . S
C824 C825 1.382 . S
C824 C828 1.393 . S
C824 C831 1.500 . S
C825 C824 1.382 . S
C825 C826 1.400 1_554 S
C825 H836 0.930 . S
C826 C825 1.400 1_556 S
C826 C827 1.384 . S
C827 C826 1.384 . S
C827 C829 1.392 . S
C827 H837 0.931 . S
C828 C824 1.393 . S
C828 C829 1.401 1_554 S
C828 H838 0.930 . S
C829 C827 1.392 . S
C829 C828 1.401 1_556 S
C829 H839 0.930 . S
C830 O808 1.262 . S
C830 O809 1.260 . S
C831 Tb767 2.833 . S
C831 O806 1.251 . S
C831 O811 1.256 . S
C831 C824 1.500 . S
H832 C815 0.930 . S
H833 C816 0.931 . S
H834 C817 0.930 . S
H835 C818 0.930 . S
H836 C825 0.930 . S
H837 C827 0.931 . S
H838 C828 0.930 . S
H839 C829 0.930 . S
Tb840 N871 2.660 . S
Tb840 N878 2.600 . S
Tb840 O884 2.546 . S
Tb840 O885 2.610 . S
Tb840 O887 2.320 . S
Tb840 O888 2.552 . S
Tb840 O889 2.413 . S
Tb840 O891 2.362 . S
Tb840 O892 2.421 . S
Tb840 C904 2.833 . S
C841 C844 1.432 . S
C841 C845 1.414 . S
C841 N848 1.359 . S
C842 C844 1.417 . S
C842 C846 1.432 . S
C842 C854 1.410 . S
C843 C845 1.444 . S
C843 C846 1.317 . S
C843 H866 0.929 . S
C844 C841 1.432 . S
C844 C842 1.417 . S
C844 N852 1.360 . S
C845 C841 1.414 . S
C845 C843 1.444 . S
C845 C850 1.385 . S
C846 C842 1.432 . S
C846 C843 1.317 . S
C846 H858 0.930 . S
C847 C849 1.392 . S
C847 C850 1.370 . S
C847 H859 0.931 . S
N848 C841 1.359 . S
N848 C849 1.327 . S
N848 Tb851 2.600 . S
C849 C847 1.392 . S
C849 N848 1.327 . S
C849 H856 0.930 . S
C850 C845 1.385 . S
C850 C847 1.370 . S
C850 H869 0.930 . S
Tb851 N848 2.600 . S
Tb851 N852 2.660 . S
Tb851 O885 2.362 . S
Tb851 O886 2.421 . S
Tb851 O890 2.546 . S
Tb851 O891 2.610 . S
Tb851 O893 2.320 . S
Tb851 O894 2.552 . S
Tb851 O895 2.413 . S
Tb851 C915 2.833 . S
N852 C844 1.360 . S
N852 Tb851 2.660 . S
N852 C853 1.305 . S
C853 N852 1.305 . S
C853 C855 1.407 . S
C853 H860 0.930 . S
C854 C842 1.410 . S
C854 C855 1.345 . S
C854 H862 0.930 . S
C855 C853 1.407 . S
C855 C854 1.345 . S
C855 H857 0.930 . S
H856 C849 0.930 . S
H857 C855 0.930 . S
H858 C846 0.930 . S
H859 C847 0.931 . S
H860 C853 0.930 . S
H861 C875 0.930 . S
H862 C854 0.930 . S
H863 C881 0.930 . S
H864 C872 0.930 . S
H865 C879 0.931 . S
H866 C843 0.929 . S
H867 C873 0.930 . S
H868 C906 0.930 . S
H869 C850 0.930 . S
H870 C905 0.929 . S
N871 Tb840 2.660 . S
N871 C872 1.305 . S
N871 C876 1.360 . S
C872 H864 0.930 . S
C872 N871 1.305 . S
C872 C875 1.407 . S
C873 H867 0.930 . S
C873 C874 1.410 . S
C873 C875 1.345 . S
C874 C873 1.410 . S
C874 C876 1.417 . S
C874 C906 1.432 . S
C875 H861 0.930 . S
C875 C872 1.407 . S
C875 C873 1.345 . S
C876 N871 1.360 . S
C876 C874 1.417 . S
C876 C880 1.432 . S
H877 C882 0.930 . S
N878 Tb840 2.600 . S
N878 C880 1.359 . S
N878 C881 1.327 . S
C879 H865 0.931 . S
C879 C881 1.392 . S
C879 C882 1.370 . S
C880 C876 1.432 . S
C880 N878 1.359 . S
C880 C883 1.414 . S
C881 H863 0.930 . S
C881 N878 1.327 . S
C881 C879 1.392 . S
C882 H877 0.930 . S
C882 C879 1.370 . S
C882 C883 1.385 . S
C883 C880 1.414 . S
C883 C882 1.385 . S
C883 C905 1.444 . S
O884 Tb840 2.546 . S
O884 C904 1.251 . S
O885 Tb840 2.610 . S
O885 Tb851 2.362 . S
O885 C896 1.283 . S
O886 Tb851 2.421 . S
O886 C903 1.262 . S
O887 Tb840 2.320 . S
O887 C903 1.260 . S
O888 Tb840 2.552 . S
O888 C896 1.243 . S
O889 Tb840 2.413 . S
O889 C904 1.256 . S
O890 Tb851 2.546 . S
O890 C915 1.251 . S
O891 Tb840 2.362 . S
O891 Tb851 2.610 . S
O891 C907 1.283 . S
O892 Tb840 2.421 . S
O892 C914 1.262 . S
O893 Tb851 2.320 . S
O893 C914 1.260 . S
O894 Tb851 2.552 . S
O894 C907 1.243 . S
O895 Tb851 2.413 . S
O895 C915 1.256 . S
C896 O885 1.283 . S
C896 O888 1.243 . S
C897 C899 1.382 . S
C897 C901 1.393 . S
C897 C904 1.500 . S
C898 C899 1.400 . S
C898 C900 1.384 . S
C899 C897 1.382 . S
C899 C898 1.400 . S
C899 H916 0.930 . S
C900 C898 1.384 . S
C900 C902 1.392 . S
C900 H917 0.931 . S
C901 C897 1.393 . S
C901 C902 1.401 . S
C901 H918 0.930 . S
C902 C900 1.392 . S
C902 C901 1.401 . S
C902 H919 0.930 . S
C903 O886 1.262 . S
C903 O887 1.260 . S
C904 Tb840 2.833 . S
C904 O884 1.251 . S
C904 O889 1.256 . S
C904 C897 1.500 . S
C905 H870 0.929 . S
C905 C883 1.444 . S
C905 C906 1.317 . S
C906 H868 0.930 . S
C906 C874 1.432 . S
C906 C905 1.317 . S
C907 O891 1.283 . S
C907 O894 1.243 . S
C908 C909 1.382 . S
C908 C912 1.393 . S
C908 C915 1.500 . S
C909 C908 1.382 . S
C909 C910 1.400 1_556 S
C909 H920 0.930 . S
C910 C909 1.400 1_554 S
C910 C911 1.384 . S
C911 C910 1.384 . S
C911 C913 1.392 . S
C911 H921 0.931 . S
C912 C908 1.393 . S
C912 C913 1.401 1_556 S
C912 H922 0.930 . S
C913 C911 1.392 . S
C913 C912 1.401 1_554 S
C913 H923 0.930 . S
C914 O892 1.262 . S
C914 O893 1.260 . S
C915 Tb851 2.833 . S
C915 O890 1.251 . S
C915 O895 1.256 . S
C915 C908 1.500 . S
H916 C899 0.930 . S
H917 C900 0.931 . S
H918 C901 0.930 . S
H919 C902 0.930 . S
H920 C909 0.930 . S
H921 C911 0.931 . S
H922 C912 0.930 . S
H923 C913 0.930 . S
Tb924 N955 2.660 . S
Tb924 N962 2.600 . S
Tb924 O968 2.546 . S
Tb924 O969 2.610 . S
Tb924 O971 2.320 . S
Tb924 O972 2.552 . S
Tb924 O973 2.413 . S
Tb924 O975 2.362 . S
Tb924 O976 2.421 . S
Tb924 C988 2.833 . S
C925 C928 1.432 . S
C925 C929 1.414 . S
C925 N932 1.359 . S
C926 C928 1.417 . S
C926 C930 1.432 . S
C926 C938 1.410 . S
C927 C929 1.444 . S
C927 C930 1.317 . S
C927 H950 0.929 . S
C928 C925 1.432 . S
C928 C926 1.417 . S
C928 N936 1.360 . S
C929 C925 1.414 . S
C929 C927 1.444 . S
C929 C934 1.385 . S
C930 C926 1.432 . S
C930 C927 1.317 . S
C930 H942 0.930 . S
C931 C933 1.392 . S
C931 C934 1.370 . S
C931 H943 0.931 . S
N932 C925 1.359 . S
N932 C933 1.327 . S
N932 Tb935 2.600 . S
C933 C931 1.392 . S
C933 N932 1.327 . S
C933 H940 0.930 . S
C934 C929 1.385 . S
C934 C931 1.370 . S
C934 H953 0.930 . S
Tb935 N932 2.600 . S
Tb935 N936 2.660 . S
Tb935 O969 2.362 . S
Tb935 O970 2.421 . S
Tb935 O974 2.546 . S
Tb935 O975 2.610 . S
Tb935 O977 2.320 . S
Tb935 O978 2.552 . S
Tb935 O979 2.413 . S
Tb935 C999 2.833 . S
N936 C928 1.360 . S
N936 Tb935 2.660 . S
N936 C937 1.305 . S
C937 N936 1.305 . S
C937 C939 1.407 . S
C937 H944 0.930 . S
C938 C926 1.410 . S
C938 C939 1.345 . S
C938 H946 0.930 . S
C939 C937 1.407 . S
C939 C938 1.345 . S
C939 H941 0.930 . S
H940 C933 0.930 . S
H941 C939 0.930 . S
H942 C930 0.930 . S
H943 C931 0.931 . S
H944 C937 0.930 . S
H945 C959 0.930 . S
H946 C938 0.930 . S
H947 C965 0.930 . S
H948 C956 0.930 . S
H949 C963 0.931 . S
H950 C927 0.929 . S
H951 C957 0.930 . S
H952 C990 0.930 . S
H953 C934 0.930 . S
H954 C989 0.929 . S
N955 Tb924 2.660 . S
N955 C956 1.305 . S
N955 C960 1.360 . S
C956 H948 0.930 . S
C956 N955 1.305 . S
C956 C959 1.407 . S
C957 H951 0.930 . S
C957 C958 1.410 . S
C957 C959 1.345 . S
C958 C957 1.410 . S
C958 C960 1.417 . S
C958 C990 1.432 . S
C959 H945 0.930 . S
C959 C956 1.407 . S
C959 C957 1.345 . S
C960 N955 1.360 . S
C960 C958 1.417 . S
C960 C964 1.432 . S
H961 C966 0.930 . S
N962 Tb924 2.600 . S
N962 C964 1.359 . S
N962 C965 1.327 . S
C963 H949 0.931 . S
C963 C965 1.392 . S
C963 C966 1.370 . S
C964 C960 1.432 . S
C964 N962 1.359 . S
C964 C967 1.414 . S
C965 H947 0.930 . S
C965 N962 1.327 . S
C965 C963 1.392 . S
C966 H961 0.930 . S
C966 C963 1.370 . S
C966 C967 1.385 . S
C967 C964 1.414 . S
C967 C966 1.385 . S
C967 C989 1.444 . S
O968 Tb924 2.546 . S
O968 C988 1.251 . S
O969 Tb924 2.610 . S
O969 Tb935 2.362 . S
O969 C980 1.283 . S
O970 Tb935 2.421 . S
O970 C987 1.262 . S
O971 Tb924 2.320 . S
O971 C987 1.260 . S
O972 Tb924 2.552 . S
O972 C980 1.243 . S
O973 Tb924 2.413 . S
O973 C988 1.256 . S
O974 Tb935 2.546 . S
O974 C999 1.251 . S
O975 Tb924 2.362 . S
O975 Tb935 2.610 . S
O975 C991 1.283 . S
O976 Tb924 2.421 . S
O976 C998 1.262 . S
O977 Tb935 2.320 . S
O977 C998 1.260 . S
O978 Tb935 2.552 . S
O978 C991 1.243 . S
O979 Tb935 2.413 . S
O979 C999 1.256 . S
C980 O969 1.283 . S
C980 O972 1.243 . S
C981 C983 1.382 . S
C981 C985 1.393 . S
C981 C988 1.500 . S
C982 C983 1.400 . S
C982 C984 1.384 . S
C983 C981 1.382 . S
C983 C982 1.400 . S
C983 H1000 0.930 . S
C984 C982 1.384 . S
C984 C986 1.392 . S
C984 H1001 0.931 . S
C985 C981 1.393 . S
C985 C986 1.401 . S
C985 H1002 0.930 . S
C986 C984 1.392 . S
C986 C985 1.401 . S
C986 H1003 0.930 . S
C987 O970 1.262 . S
C987 O971 1.260 . S
C988 Tb924 2.833 . S
C988 O968 1.251 . S
C988 O973 1.256 . S
C988 C981 1.500 . S
C989 H954 0.929 . S
C989 C967 1.444 . S
C989 C990 1.317 . S
C990 H952 0.930 . S
C990 C958 1.432 . S
C990 C989 1.317 . S
C991 O975 1.283 . S
C991 O978 1.243 . S
C992 C993 1.382 . S
C992 C996 1.393 . S
C992 C999 1.500 . S
C993 C992 1.382 . S
C993 C994 1.400 . S
C993 H1004 0.930 . S
C994 C993 1.400 . S
C994 C995 1.384 . S
C995 C994 1.384 . S
C995 C997 1.392 . S
C995 H1005 0.931 . S
C996 C992 1.393 . S
C996 C997 1.401 . S
C996 H1006 0.930 . S
C997 C995 1.392 . S
C997 C996 1.401 . S
C997 H1007 0.930 . S
C998 O976 1.262 . S
C998 O977 1.260 . S
C999 Tb935 2.833 . S
C999 O974 1.251 . S
C999 O979 1.256 . S
C999 C992 1.500 . S
H1000 C983 0.930 . S
H1001 C984 0.931 . S
H1002 C985 0.930 . S
H1003 C986 0.930 . S
H1004 C993 0.930 . S
H1005 C995 0.931 . S
H1006 C996 0.930 . S
H1007 C997 0.930 . S
Tb1008 N1039 2.660 . S
Tb1008 N1046 2.600 . S
Tb1008 O1052 2.546 . S
Tb1008 O1053 2.610 . S
Tb1008 O1055 2.320 . S
Tb1008 O1056 2.552 . S
Tb1008 O1057 2.413 . S
Tb1008 O1059 2.362 . S
Tb1008 O1060 2.421 . S
Tb1008 C1072 2.833 . S
C1009 C1012 1.432 . S
C1009 C1013 1.414 . S
C1009 N1016 1.359 . S
C1010 C1012 1.417 . S
C1010 C1014 1.432 . S
C1010 C1022 1.410 . S
C1011 C1013 1.444 . S
C1011 C1014 1.317 . S
C1011 H1034 0.929 . S
C1012 C1009 1.432 . S
C1012 C1010 1.417 . S
C1012 N1020 1.360 . S
C1013 C1009 1.414 . S
C1013 C1011 1.444 . S
C1013 C1018 1.385 . S
C1014 C1010 1.432 . S
C1014 C1011 1.317 . S
C1014 H1026 0.930 . S
C1015 C1017 1.392 . S
C1015 C1018 1.370 . S
C1015 H1027 0.931 . S
N1016 C1009 1.359 . S
N1016 C1017 1.327 . S
N1016 Tb1019 2.600 . S
C1017 C1015 1.392 . S
C1017 N1016 1.327 . S
C1017 H1024 0.930 . S
C1018 C1013 1.385 . S
C1018 C1015 1.370 . S
C1018 H1037 0.930 . S
Tb1019 N1016 2.600 . S
Tb1019 N1020 2.660 . S
Tb1019 O1053 2.362 . S
Tb1019 O1054 2.421 . S
Tb1019 O1058 2.546 . S
Tb1019 O1059 2.610 . S
Tb1019 O1061 2.320 . S
Tb1019 O1062 2.552 . S
Tb1019 O1063 2.413 . S
Tb1019 C1083 2.833 . S
N1020 C1012 1.360 . S
N1020 Tb1019 2.660 . S
N1020 C1021 1.305 . S
C1021 N1020 1.305 . S
C1021 C1023 1.407 . S
C1021 H1028 0.930 . S
C1022 C1010 1.410 . S
C1022 C1023 1.345 . S
C1022 H1030 0.930 . S
C1023 C1021 1.407 . S
C1023 C1022 1.345 . S
C1023 H1025 0.930 . S
H1024 C1017 0.930 . S
H1025 C1023 0.930 . S
H1026 C1014 0.930 . S
H1027 C1015 0.931 . S
H1028 C1021 0.930 . S
H1029 C1043 0.930 . S
H1030 C1022 0.930 . S
H1031 C1049 0.930 . S
H1032 C1040 0.930 . S
H1033 C1047 0.931 . S
H1034 C1011 0.929 . S
H1035 C1041 0.930 . S
H1036 C1074 0.930 . S
H1037 C1018 0.930 . S
H1038 C1073 0.929 . S
N1039 Tb1008 2.660 . S
N1039 C1040 1.305 . S
N1039 C1044 1.360 . S
C1040 H1032 0.930 . S
C1040 N1039 1.305 . S
C1040 C1043 1.407 . S
C1041 H1035 0.930 . S
C1041 C1042 1.410 . S
C1041 C1043 1.345 . S
C1042 C1041 1.410 . S
C1042 C1044 1.417 . S
C1042 C1074 1.432 . S
C1043 H1029 0.930 . S
C1043 C1040 1.407 . S
C1043 C1041 1.345 . S
C1044 N1039 1.360 . S
C1044 C1042 1.417 . S
C1044 C1048 1.432 . S
H1045 C1050 0.930 . S
N1046 Tb1008 2.600 . S
N1046 C1048 1.359 . S
N1046 C1049 1.327 . S
C1047 H1033 0.931 . S
C1047 C1049 1.392 . S
C1047 C1050 1.370 . S
C1048 C1044 1.432 . S
C1048 N1046 1.359 . S
C1048 C1051 1.414 . S
C1049 H1031 0.930 . S
C1049 N1046 1.327 . S
C1049 C1047 1.392 . S
C1050 H1045 0.930 . S
C1050 C1047 1.370 . S
C1050 C1051 1.385 . S
C1051 C1048 1.414 . S
C1051 C1050 1.385 . S
C1051 C1073 1.444 . S
O1052 Tb1008 2.546 . S
O1052 C1072 1.251 . S
O1053 Tb1008 2.610 . S
O1053 Tb1019 2.362 . S
O1053 C1064 1.283 . S
O1054 Tb1019 2.421 . S
O1054 C1071 1.262 . S
O1055 Tb1008 2.320 . S
O1055 C1071 1.260 . S
O1056 Tb1008 2.552 . S
O1056 C1064 1.243 . S
O1057 Tb1008 2.413 . S
O1057 C1072 1.256 . S
O1058 Tb1019 2.546 . S
O1058 C1083 1.251 . S
O1059 Tb1008 2.362 . S
O1059 Tb1019 2.610 . S
O1059 C1075 1.283 . S
O1060 Tb1008 2.421 . S
O1060 C1082 1.262 . S
O1061 Tb1019 2.320 . S
O1061 C1082 1.260 . S
O1062 Tb1019 2.552 . S
O1062 C1075 1.243 . S
O1063 Tb1019 2.413 . S
O1063 C1083 1.256 . S
C1064 O1053 1.283 . S
C1064 O1056 1.243 . S
C1065 C1067 1.382 . S
C1065 C1069 1.393 . S
C1065 C1072 1.500 . S
C1066 C1067 1.400 . S
C1066 C1068 1.384 . S
C1067 C1065 1.382 . S
C1067 C1066 1.400 . S
C1067 H1084 0.930 . S
C1068 C1066 1.384 . S
C1068 C1070 1.392 . S
C1068 H1085 0.931 . S
C1069 C1065 1.393 . S
C1069 C1070 1.401 . S
C1069 H1086 0.930 . S
C1070 C1068 1.392 . S
C1070 C1069 1.401 . S
C1070 H1087 0.930 . S
C1071 O1054 1.262 . S
C1071 O1055 1.260 . S
C1072 Tb1008 2.833 . S
C1072 O1052 1.251 . S
C1072 O1057 1.256 . S
C1072 C1065 1.500 . S
C1073 H1038 0.929 . S
C1073 C1051 1.444 . S
C1073 C1074 1.317 . S
C1074 H1036 0.930 . S
C1074 C1042 1.432 . S
C1074 C1073 1.317 . S
C1075 O1059 1.283 . S
C1075 O1062 1.243 . S
C1076 C1077 1.382 . S
C1076 C1080 1.393 . S
C1076 C1083 1.500 . S
C1077 C1076 1.382 . S
C1077 C1078 1.400 . S
C1077 H1088 0.930 . S
C1078 C1077 1.400 . S
C1078 C1079 1.384 . S
C1079 C1078 1.384 . S
C1079 C1081 1.392 . S
C1079 H1089 0.931 . S
C1080 C1076 1.393 . S
C1080 C1081 1.401 . S
C1080 H1090 0.930 . S
C1081 C1079 1.392 . S
C1081 C1080 1.401 . S
C1081 H1091 0.930 . S
C1082 O1060 1.262 . S
C1082 O1061 1.260 . S
C1083 Tb1019 2.833 . S
C1083 O1058 1.251 . S
C1083 O1063 1.256 . S
C1083 C1076 1.500 . S
H1084 C1067 0.930 . S
H1085 C1068 0.931 . S
H1086 C1069 0.930 . S
H1087 C1070 0.930 . S
H1088 C1077 0.930 . S
H1089 C1079 0.931 . S
H1090 C1080 0.930 . S
H1091 C1081 0.930 . S
Tb1092 N1123 2.660 . S
Tb1092 N1130 2.600 . S
Tb1092 O1136 2.546 . S
Tb1092 O1137 2.610 1_655 S
Tb1092 O1139 2.320 . S
Tb1092 O1140 2.552 . S
Tb1092 O1141 2.413 . S
Tb1092 O1143 2.362 . S
Tb1092 O1144 2.421 . S
Tb1092 C1156 2.833 . S
C1093 C1096 1.432 . S
C1093 C1097 1.414 . S
C1093 N1100 1.359 . S
C1094 C1096 1.417 . S
C1094 C1098 1.432 . S
C1094 C1106 1.410 . S
C1095 C1097 1.444 . S
C1095 C1098 1.317 . S
C1095 H1118 0.929 . S
C1096 C1093 1.432 . S
C1096 C1094 1.417 . S
C1096 N1104 1.360 . S
C1097 C1093 1.414 . S
C1097 C1095 1.444 . S
C1097 C1102 1.385 . S
C1098 C1094 1.432 . S
C1098 C1095 1.317 . S
C1098 H1110 0.930 . S
C1099 C1101 1.392 . S
C1099 C1102 1.370 . S
C1099 H1111 0.931 . S
N1100 C1093 1.359 . S
N1100 C1101 1.327 . S
N1100 Tb1103 2.600 . S
C1101 C1099 1.392 . S
C1101 N1100 1.327 . S
C1101 H1108 0.930 . S
C1102 C1097 1.385 . S
C1102 C1099 1.370 . S
C1102 H1121 0.930 . S
Tb1103 N1100 2.600 . S
Tb1103 N1104 2.660 . S
Tb1103 O1137 2.362 . S
Tb1103 O1138 2.421 . S
Tb1103 O1142 2.546 . S
Tb1103 O1143 2.610 1_455 S
Tb1103 O1145 2.320 . S
Tb1103 O1146 2.552 . S
Tb1103 O1147 2.413 . S
Tb1103 C1167 2.833 . S
N1104 C1096 1.360 . S
N1104 Tb1103 2.660 . S
N1104 C1105 1.305 . S
C1105 N1104 1.305 . S
C1105 C1107 1.407 . S
C1105 H1112 0.930 . S
C1106 C1094 1.410 . S
C1106 C1107 1.345 . S
C1106 H1114 0.930 . S
C1107 C1105 1.407 . S
C1107 C1106 1.345 . S
C1107 H1109 0.930 . S
H1108 C1101 0.930 . S
H1109 C1107 0.930 . S
H1110 C1098 0.930 . S
H1111 C1099 0.931 . S
H1112 C1105 0.930 . S
H1113 C1127 0.930 . S
H1114 C1106 0.930 . S
H1115 C1133 0.930 . S
H1116 C1124 0.930 . S
H1117 C1131 0.931 . S
H1118 C1095 0.929 . S
H1119 C1125 0.930 . S
H1120 C1158 0.930 . S
H1121 C1102 0.930 . S
H1122 C1157 0.929 . S
N1123 Tb1092 2.660 . S
N1123 C1124 1.305 . S
N1123 C1128 1.360 . S
C1124 H1116 0.930 . S
C1124 N1123 1.305 . S
C1124 C1127 1.407 . S
C1125 H1119 0.930 . S
C1125 C1126 1.410 . S
C1125 C1127 1.345 . S
C1126 C1125 1.410 . S
C1126 C1128 1.417 . S
C1126 C1158 1.432 . S
C1127 H1113 0.930 . S
C1127 C1124 1.407 . S
C1127 C1125 1.345 . S
C1128 N1123 1.360 . S
C1128 C1126 1.417 . S
C1128 C1132 1.432 . S
H1129 C1134 0.930 . S
N1130 Tb1092 2.600 . S
N1130 C1132 1.359 . S
N1130 C1133 1.327 . S
C1131 H1117 0.931 . S
C1131 C1133 1.392 . S
C1131 C1134 1.370 . S
C1132 C1128 1.432 . S
C1132 N1130 1.359 . S
C1132 C1135 1.414 . S
C1133 H1115 0.930 . S
C1133 N1130 1.327 . S
C1133 C1131 1.392 . S
C1134 H1129 0.930 . S
C1134 C1131 1.370 . S
C1134 C1135 1.385 . S
C1135 C1132 1.414 . S
C1135 C1134 1.385 . S
C1135 C1157 1.444 . S
O1136 Tb1092 2.546 . S
O1136 C1156 1.251 . S
O1137 Tb1092 2.610 1_455 S
O1137 Tb1103 2.362 . S
O1137 C1148 1.283 . S
O1138 Tb1103 2.421 . S
O1138 C1155 1.262 . S
O1139 Tb1092 2.320 . S
O1139 C1155 1.260 1_655 S
O1140 Tb1092 2.552 . S
O1140 C1148 1.243 1_655 S
O1141 Tb1092 2.413 . S
O1141 C1156 1.256 . S
O1142 Tb1103 2.546 . S
O1142 C1167 1.251 . S
O1143 Tb1092 2.362 . S
O1143 Tb1103 2.610 1_655 S
O1143 C1159 1.283 . S
O1144 Tb1092 2.421 . S
O1144 C1166 1.286 . S
O1145 Tb1103 2.320 . S
O1145 C1166 1.230 1_455 S
O1146 Tb1103 2.552 . S
O1146 C1159 1.243 1_455 S
O1147 Tb1103 2.413 . S
O1147 C1167 1.256 . S
C1148 O1137 1.283 . S
C1148 O1140 1.243 1_455 S
C1149 C1151 1.382 . S
C1149 C1153 1.393 . S
C1149 C1156 1.500 . S
C1150 C1151 1.400 . S
C1150 C1152 1.384 . S
C1151 C1149 1.382 . S
C1151 C1150 1.400 . S
C1151 H1168 0.930 . S
C1152 C1150 1.384 . S
C1152 C1154 1.392 . S
C1152 H1169 0.931 . S
C1153 C1149 1.393 . S
C1153 C1154 1.401 . S
C1153 H1170 0.930 . S
C1154 C1152 1.392 . S
C1154 C1153 1.401 . S
C1154 H1171 0.930 . S
C1155 O1138 1.262 . S
C1155 O1139 1.260 1_455 S
C1156 Tb1092 2.833 . S
C1156 O1136 1.251 . S
C1156 O1141 1.256 . S
C1156 C1149 1.500 . S
C1157 H1122 0.929 . S
C1157 C1135 1.444 . S
C1157 C1158 1.317 . S
C1158 H1120 0.930 . S
C1158 C1126 1.432 . S
C1158 C1157 1.317 . S
C1159 O1143 1.283 . S
C1159 O1146 1.243 1_655 S
C1160 C1161 1.382 . S
C1160 C1164 1.393 . S
C1160 C1167 1.500 1_556 S
C1161 C1160 1.382 . S
C1161 C1162 1.400 . S
C1161 H1172 0.930 . S
C1162 C1161 1.400 . S
C1162 C1163 1.384 . S
C1163 C1162 1.384 . S
C1163 C1165 1.392 . S
C1163 H1173 0.931 . S
C1164 C1160 1.393 . S
C1164 C1165 1.401 . S
C1164 H1174 0.930 . S
C1165 C1163 1.392 . S
C1165 C1164 1.401 . S
C1165 H1175 0.930 . S
C1166 O1144 1.286 . S
C1166 O1145 1.230 1_655 S
C1167 Tb1103 2.833 . S
C1167 O1142 1.251 . S
C1167 O1147 1.256 . S
C1167 C1160 1.500 1_554 S
H1168 C1151 0.930 . S
H1169 C1152 0.931 . S
H1170 C1153 0.930 . S
H1171 C1154 0.930 . S
H1172 C1161 0.930 . S
H1173 C1163 0.931 . S
H1174 C1164 0.930 . S
H1175 C1165 0.930 . S
Tb1176 N1207 2.660 . S
Tb1176 N1214 2.600 . S
Tb1176 O1220 2.546 . S
Tb1176 O1221 2.610 . S
Tb1176 O1223 2.320 . S
Tb1176 O1224 2.552 . S
Tb1176 O1225 2.413 . S
Tb1176 O1227 2.362 . S
Tb1176 O1228 2.421 . S
Tb1176 C1240 2.833 . S
C1177 C1180 1.432 . S
C1177 C1181 1.414 . S
C1177 N1184 1.359 . S
C1178 C1180 1.417 . S
C1178 C1182 1.432 . S
C1178 C1190 1.410 . S
C1179 C1181 1.444 . S
C1179 C1182 1.317 . S
C1179 H1202 0.929 . S
C1180 C1177 1.432 . S
C1180 C1178 1.417 . S
C1180 N1188 1.360 . S
C1181 C1177 1.414 . S
C1181 C1179 1.444 . S
C1181 C1186 1.385 . S
C1182 C1178 1.432 . S
C1182 C1179 1.317 . S
C1182 H1194 0.930 . S
C1183 C1185 1.392 . S
C1183 C1186 1.370 . S
C1183 H1195 0.931 . S
N1184 C1177 1.359 . S
N1184 C1185 1.327 . S
N1184 Tb1187 2.600 . S
C1185 C1183 1.392 . S
C1185 N1184 1.327 . S
C1185 H1192 0.930 . S
C1186 C1181 1.385 . S
C1186 C1183 1.370 . S
C1186 H1205 0.930 . S
Tb1187 N1184 2.600 . S
Tb1187 N1188 2.660 . S
Tb1187 O1221 2.362 . S
Tb1187 O1222 2.421 . S
Tb1187 O1226 2.546 . S
Tb1187 O1227 2.610 . S
Tb1187 O1229 2.320 . S
Tb1187 O1230 2.552 . S
Tb1187 O1231 2.413 . S
Tb1187 C1251 2.833 . S
N1188 C1180 1.360 . S
N1188 Tb1187 2.660 . S
N1188 C1189 1.305 . S
C1189 N1188 1.305 . S
C1189 C1191 1.407 . S
C1189 H1196 0.930 . S
C1190 C1178 1.410 . S
C1190 C1191 1.345 . S
C1190 H1198 0.930 . S
C1191 C1189 1.407 . S
C1191 C1190 1.345 . S
C1191 H1193 0.930 . S
H1192 C1185 0.930 . S
H1193 C1191 0.930 . S
H1194 C1182 0.930 . S
H1195 C1183 0.931 . S
H1196 C1189 0.930 . S
H1197 C1211 0.930 . S
H1198 C1190 0.930 . S
H1199 C1217 0.930 . S
H1200 C1208 0.930 . S
H1201 C1215 0.931 . S
H1202 C1179 0.929 . S
H1203 C1209 0.930 . S
H1204 C1242 0.930 . S
H1205 C1186 0.930 . S
H1206 C1241 0.929 . S
N1207 Tb1176 2.660 . S
N1207 C1208 1.305 . S
N1207 C1212 1.360 . S
C1208 H1200 0.930 . S
C1208 N1207 1.305 . S
C1208 C1211 1.407 . S
C1209 H1203 0.930 . S
C1209 C1210 1.410 . S
C1209 C1211 1.345 . S
C1210 C1209 1.410 . S
C1210 C1212 1.417 . S
C1210 C1242 1.432 . S
C1211 H1197 0.930 . S
C1211 C1208 1.407 . S
C1211 C1209 1.345 . S
C1212 N1207 1.360 . S
C1212 C1210 1.417 . S
C1212 C1216 1.432 . S
H1213 C1218 0.930 . S
N1214 Tb1176 2.600 . S
N1214 C1216 1.359 . S
N1214 C1217 1.327 . S
C1215 H1201 0.931 . S
C1215 C1217 1.392 . S
C1215 C1218 1.370 . S
C1216 C1212 1.432 . S
C1216 N1214 1.359 . S
C1216 C1219 1.414 . S
C1217 H1199 0.930 . S
C1217 N1214 1.327 . S
C1217 C1215 1.392 . S
C1218 H1213 0.930 . S
C1218 C1215 1.370 . S
C1218 C1219 1.385 . S
C1219 C1216 1.414 . S
C1219 C1218 1.385 . S
C1219 C1241 1.444 . S
O1220 Tb1176 2.546 . S
O1220 C1240 1.251 . S
O1221 Tb1176 2.610 . S
O1221 Tb1187 2.362 . S
O1221 C1232 1.283 . S
O1222 Tb1187 2.421 . S
O1222 C1239 1.262 . S
O1223 Tb1176 2.320 . S
O1223 C1239 1.260 . S
O1224 Tb1176 2.552 . S
O1224 C1232 1.243 . S
O1225 Tb1176 2.413 . S
O1225 C1240 1.256 . S
O1226 Tb1187 2.546 . S
O1226 C1251 1.251 . S
O1227 Tb1176 2.362 . S
O1227 Tb1187 2.610 . S
O1227 C1243 1.283 . S
O1228 Tb1176 2.421 . S
O1228 C1250 1.262 . S
O1229 Tb1187 2.320 . S
O1229 C1250 1.260 . S
O1230 Tb1187 2.552 . S
O1230 C1243 1.243 . S
O1231 Tb1187 2.413 . S
O1231 C1251 1.256 . S
C1232 O1221 1.283 . S
C1232 O1224 1.243 . S
C1233 C1235 1.382 . S
C1233 C1237 1.393 . S
C1233 C1240 1.500 . S
C1234 C1235 1.400 . S
C1234 C1236 1.384 . S
C1235 C1233 1.382 . S
C1235 C1234 1.400 . S
C1235 H1252 0.930 . S
C1236 C1234 1.384 . S
C1236 C1238 1.392 . S
C1236 H1253 0.931 . S
C1237 C1233 1.393 . S
C1237 C1238 1.401 . S
C1237 H1254 0.930 . S
C1238 C1236 1.392 . S
C1238 C1237 1.401 . S
C1238 H1255 0.930 . S
C1239 O1222 1.262 . S
C1239 O1223 1.260 . S
C1240 Tb1176 2.833 . S
C1240 O1220 1.251 . S
C1240 O1225 1.256 . S
C1240 C1233 1.500 . S
C1241 H1206 0.929 . S
C1241 C1219 1.444 . S
C1241 C1242 1.317 . S
C1242 H1204 0.930 . S
C1242 C1210 1.432 . S
C1242 C1241 1.317 . S
C1243 O1227 1.283 . S
C1243 O1230 1.243 . S
C1244 C1245 1.382 . S
C1244 C1248 1.393 . S
C1244 C1251 1.500 . S
C1245 C1244 1.382 . S
C1245 C1246 1.400 . S
C1245 H1256 0.930 . S
C1246 C1245 1.400 . S
C1246 C1247 1.384 . S
C1247 C1246 1.384 . S
C1247 C1249 1.392 . S
C1247 H1257 0.931 . S
C1248 C1244 1.393 . S
C1248 C1249 1.401 . S
C1248 H1258 0.930 . S
C1249 C1247 1.392 . S
C1249 C1248 1.401 . S
C1249 H1259 0.930 . S
C1250 O1228 1.262 . S
C1250 O1229 1.260 . S
C1251 Tb1187 2.833 . S
C1251 O1226 1.251 . S
C1251 O1231 1.256 . S
C1251 C1244 1.500 . S
H1252 C1235 0.930 . S
H1253 C1236 0.931 . S
H1254 C1237 0.930 . S
H1255 C1238 0.930 . S
H1256 C1245 0.930 . S
H1257 C1247 0.931 . S
H1258 C1248 0.930 . S
H1259 C1249 0.930 . S
Tb1260 N1291 2.660 . S
Tb1260 N1298 2.600 . S
Tb1260 O1304 2.546 . S
Tb1260 O1305 2.610 1_655 S
Tb1260 O1307 2.320 . S
Tb1260 O1308 2.552 . S
Tb1260 O1309 2.413 . S
Tb1260 O1311 2.362 . S
Tb1260 O1312 2.421 . S
Tb1260 C1324 2.833 . S
C1261 C1264 1.432 . S
C1261 C1265 1.414 . S
C1261 N1268 1.359 . S
C1262 C1264 1.417 . S
C1262 C1266 1.432 . S
C1262 C1274 1.410 . S
C1263 C1265 1.444 . S
C1263 C1266 1.317 . S
C1263 H1286 0.929 . S
C1264 C1261 1.432 . S
C1264 C1262 1.417 . S
C1264 N1272 1.360 . S
C1265 C1261 1.414 . S
C1265 C1263 1.444 . S
C1265 C1270 1.385 . S
C1266 C1262 1.432 . S
C1266 C1263 1.317 . S
C1266 H1278 0.930 . S
C1267 C1269 1.392 . S
C1267 C1270 1.370 . S
C1267 H1279 0.931 . S
N1268 C1261 1.359 . S
N1268 C1269 1.327 . S
N1268 Tb1271 2.600 . S
C1269 C1267 1.392 . S
C1269 N1268 1.327 . S
C1269 H1276 0.930 . S
C1270 C1265 1.385 . S
C1270 C1267 1.370 . S
C1270 H1289 0.930 . S
Tb1271 N1268 2.600 . S
Tb1271 N1272 2.660 . S
Tb1271 O1305 2.362 . S
Tb1271 O1306 2.421 . S
Tb1271 O1310 2.546 . S
Tb1271 O1311 2.610 1_455 S
Tb1271 O1313 2.320 . S
Tb1271 O1314 2.552 . S
Tb1271 O1315 2.413 . S
Tb1271 C1335 2.833 . S
N1272 C1264 1.360 . S
N1272 Tb1271 2.660 . S
N1272 C1273 1.305 . S
C1273 N1272 1.305 . S
C1273 C1275 1.407 . S
C1273 H1280 0.930 . S
C1274 C1262 1.410 . S
C1274 C1275 1.345 . S
C1274 H1282 0.930 . S
C1275 C1273 1.407 . S
C1275 C1274 1.345 . S
C1275 H1277 0.930 . S
H1276 C1269 0.930 . S
H1277 C1275 0.930 . S
H1278 C1266 0.930 . S
H1279 C1267 0.931 . S
H1280 C1273 0.930 . S
H1281 C1295 0.930 . S
H1282 C1274 0.930 . S
H1283 C1301 0.930 . S
H1284 C1292 0.930 . S
H1285 C1299 0.931 . S
H1286 C1263 0.929 . S
H1287 C1293 0.930 . S
H1288 C1326 0.930 . S
H1289 C1270 0.930 . S
H1290 C1325 0.929 . S
N1291 Tb1260 2.660 . S
N1291 C1292 1.305 . S
N1291 C1296 1.360 . S
C1292 H1284 0.930 . S
C1292 N1291 1.305 . S
C1292 C1295 1.407 . S
C1293 H1287 0.930 . S
C1293 C1294 1.410 . S
C1293 C1295 1.345 . S
C1294 C1293 1.410 . S
C1294 C1296 1.417 . S
C1294 C1326 1.432 . S
C1295 H1281 0.930 . S
C1295 C1292 1.407 . S
C1295 C1293 1.345 . S
C1296 N1291 1.360 . S
C1296 C1294 1.417 . S
C1296 C1300 1.432 . S
H1297 C1302 0.930 . S
N1298 Tb1260 2.600 . S
N1298 C1300 1.359 . S
N1298 C1301 1.327 . S
C1299 H1285 0.931 . S
C1299 C1301 1.392 . S
C1299 C1302 1.370 . S
C1300 C1296 1.432 . S
C1300 N1298 1.359 . S
C1300 C1303 1.414 . S
C1301 H1283 0.930 . S
C1301 N1298 1.327 . S
C1301 C1299 1.392 . S
C1302 H1297 0.930 . S
C1302 C1299 1.370 . S
C1302 C1303 1.385 . S
C1303 C1300 1.414 . S
C1303 C1302 1.385 . S
C1303 C1325 1.444 . S
O1304 Tb1260 2.546 . S
O1304 C1324 1.251 . S
O1305 Tb1260 2.610 1_455 S
O1305 Tb1271 2.362 . S
O1305 C1316 1.283 . S
O1306 Tb1271 2.421 . S
O1306 C1323 1.262 . S
O1307 Tb1260 2.320 . S
O1307 C1323 1.260 1_655 S
O1308 Tb1260 2.552 . S
O1308 C1316 1.243 1_655 S
O1309 Tb1260 2.413 . S
O1309 C1324 1.256 . S
O1310 Tb1271 2.546 . S
O1310 C1335 1.251 . S
O1311 Tb1260 2.362 . S
O1311 Tb1271 2.610 1_655 S
O1311 C1327 1.283 . S
O1312 Tb1260 2.421 . S
O1312 C1334 1.286 . S
O1313 Tb1271 2.320 . S
O1313 C1334 1.230 1_455 S
O1314 Tb1271 2.552 . S
O1314 C1327 1.243 1_455 S
O1315 Tb1271 2.413 . S
O1315 C1335 1.256 . S
C1316 O1305 1.283 . S
C1316 O1308 1.243 1_455 S
C1317 C1319 1.382 . S
C1317 C1321 1.393 . S
C1317 C1324 1.500 . S
C1318 C1319 1.400 . S
C1318 C1320 1.384 . S
C1319 C1317 1.382 . S
C1319 C1318 1.400 . S
C1319 H1336 0.930 . S
C1320 C1318 1.384 . S
C1320 C1322 1.392 . S
C1320 H1337 0.931 . S
C1321 C1317 1.393 . S
C1321 C1322 1.401 . S
C1321 H1338 0.930 . S
C1322 C1320 1.392 . S
C1322 C1321 1.401 . S
C1322 H1339 0.930 . S
C1323 O1306 1.262 . S
C1323 O1307 1.260 1_455 S
C1324 Tb1260 2.833 . S
C1324 O1304 1.251 . S
C1324 O1309 1.256 . S
C1324 C1317 1.500 . S
C1325 H1290 0.929 . S
C1325 C1303 1.444 . S
C1325 C1326 1.317 . S
C1326 H1288 0.930 . S
C1326 C1294 1.432 . S
C1326 C1325 1.317 . S
C1327 O1311 1.283 . S
C1327 O1314 1.243 1_655 S
C1328 C1329 1.382 . S
C1328 C1332 1.393 . S
C1328 C1335 1.500 1_554 S
C1329 C1328 1.382 . S
C1329 C1330 1.400 . S
C1329 H1340 0.930 . S
C1330 C1329 1.400 . S
C1330 C1331 1.384 . S
C1331 C1330 1.384 . S
C1331 C1333 1.392 . S
C1331 H1341 0.931 . S
C1332 C1328 1.393 . S
C1332 C1333 1.401 . S
C1332 H1342 0.930 . S
C1333 C1331 1.392 . S
C1333 C1332 1.401 . S
C1333 H1343 0.930 . S
C1334 O1312 1.286 . S
C1334 O1313 1.230 1_655 S
C1335 Tb1271 2.833 . S
C1335 O1310 1.251 . S
C1335 O1315 1.256 . S
C1335 C1328 1.500 1_556 S
H1336 C1319 0.930 . S
H1337 C1320 0.931 . S
H1338 C1321 0.930 . S
H1339 C1322 0.930 . S
H1340 C1329 0.930 . S
H1341 C1331 0.931 . S
H1342 C1332 0.930 . S
H1343 C1333 0.930 . S
H1344 C1362 0.951 . S
H1345 C1364 0.951 . S
H1346 C1366 0.950 . S
H1347 C1367 0.950 . S
H1348 C1369 0.950 . S
H1349 C1372 0.950 1_556 S
H1350 C1373 0.950 . S
H1351 C1375 0.950 . S
H1352 C1376 0.950 . S
H1353 C1377 0.951 . S
H1354 C1379 0.951 . S
H1355 C1381 0.950 . S
H1356 C1382 0.950 . S
H1357 C1384 0.950 . S
H1358 C1387 0.950 . S
H1359 C1388 0.950 . S
H1360 C1390 0.950 . S
H1361 C1391 0.950 . S
C1362 H1344 0.951 . S
C1362 C1363 1.366 . S
C1362 C1364 1.388 . S
C1363 C1362 1.366 . S
C1363 C1367 1.385 . S
C1364 H1345 0.951 . S
C1364 C1362 1.388 . S
C1364 C1365 1.366 1_554 S
C1365 C1364 1.366 1_556 S
C1365 C1366 1.414 . S
C1365 C1368 1.499 . S
C1366 H1346 0.950 . S
C1366 C1365 1.414 . S
C1366 C1367 1.374 1_556 S
C1367 H1347 0.950 . S
C1367 C1363 1.385 . S
C1367 C1366 1.374 1_554 S
C1368 C1365 1.499 . S
C1368 C1369 1.373 . S
C1368 C1370 1.389 . S
C1369 H1348 0.950 . S
C1369 C1368 1.373 . S
C1369 C1385 1.377 . S
C1370 C1368 1.389 . S
C1370 C1371 1.524 . S
C1370 C1384 1.377 . S
C1371 C1370 1.524 . S
C1371 C1372 1.397 1_556 S
C1371 C1376 1.363 1_556 S
C1372 H1349 0.950 1_554 S
C1372 C1371 1.397 1_554 S
C1372 C1373 1.334 . S
C1373 H1350 0.950 . S
C1373 C1372 1.334 . S
C1373 C1374 1.287 . S
C1374 C1373 1.287 . S
C1374 C1375 1.524 . S
C1374 H1393 0.913 . S
C1375 H1351 0.950 . S
C1375 C1374 1.524 . S
C1375 C1376 1.415 . S
C1376 H1352 0.950 . S
C1376 C1371 1.363 1_554 S
C1376 C1375 1.415 . S
C1377 H1353 0.951 . S
C1377 C1378 1.366 . S
C1377 C1379 1.388 . S
C1378 C1377 1.366 . S
C1378 C1382 1.385 . S
C1379 H1354 0.951 . S
C1379 C1377 1.388 . S
C1379 C1380 1.366 . S
C1380 C1379 1.366 . S
C1380 C1381 1.414 . S
C1380 C1383 1.499 . S
C1381 H1355 0.950 . S
C1381 C1380 1.414 . S
C1381 C1382 1.374 . S
C1382 H1356 0.950 . S
C1382 C1378 1.385 . S
C1382 C1381 1.374 . S
C1383 C1380 1.499 . S
C1383 C1384 1.373 . S
C1383 C1385 1.389 . S
C1384 H1357 0.950 . S
C1384 C1370 1.377 . S
C1384 C1383 1.373 . S
C1385 C1369 1.377 . S
C1385 C1383 1.389 . S
C1385 C1386 1.524 . S
C1386 C1385 1.524 . S
C1386 C1387 1.397 . S
C1386 C1391 1.363 . S
C1387 H1358 0.950 . S
C1387 C1386 1.397 . S
C1387 C1388 1.334 . S
C1388 H1359 0.950 . S
C1388 C1387 1.334 . S
C1388 C1389 1.287 . S
C1389 C1388 1.287 . S
C1389 C1390 1.524 . S
C1389 H1392 0.999 . S
C1390 H1360 0.950 . S
C1390 C1389 1.524 . S
C1390 C1391 1.415 . S
C1391 H1361 0.950 . S
C1391 C1386 1.363 . S
C1391 C1390 1.415 . S
H1392 C1389 0.999 . S
H1393 C1374 0.913 . S
H1394 C1412 0.951 . S
H1395 C1414 0.951 . S
H1396 C1416 0.950 . S
H1397 C1417 0.950 . S
H1398 C1419 0.950 . S
H1399 C1422 0.950 . S
H1400 C1423 0.950 . S
H1401 C1425 0.950 . S
H1402 C1426 0.950 . S
H1403 C1427 0.951 . S
H1404 C1429 0.951 . S
H1405 C1431 0.950 . S
H1406 C1432 0.950 . S
H1407 C1434 0.950 . S
H1408 C1437 0.950 . S
H1409 C1438 0.950 . S
H1410 C1440 0.950 . S
H1411 C1441 0.950 . S
C1412 H1394 0.951 . S
C1412 C1413 1.366 . S
C1412 C1414 1.388 . S
C1413 C1412 1.366 . S
C1413 C1417 1.385 . S
C1414 H1395 0.951 . S
C1414 C1412 1.388 . S
C1414 C1415 1.366 . S
C1415 C1414 1.366 . S
C1415 C1416 1.414 . S
C1415 C1418 1.499 . S
C1416 H1396 0.950 . S
C1416 C1415 1.414 . S
C1416 C1417 1.374 . S
C1417 H1397 0.950 . S
C1417 C1413 1.385 . S
C1417 C1416 1.374 . S
C1418 C1415 1.499 . S
C1418 C1419 1.373 . S
C1418 C1420 1.389 . S
C1419 H1398 0.950 . S
C1419 C1418 1.373 . S
C1419 C1435 1.377 . S
C1420 C1418 1.389 . S
C1420 C1421 1.524 . S
C1420 C1434 1.377 . S
C1421 C1420 1.524 . S
C1421 C1422 1.397 . S
C1421 C1426 1.363 . S
C1422 H1399 0.950 . S
C1422 C1421 1.397 . S
C1422 C1423 1.334 . S
C1423 H1400 0.950 . S
C1423 C1422 1.334 . S
C1423 C1424 1.287 . S
C1424 C1423 1.287 . S
C1424 C1425 1.524 . S
C1424 H1443 0.913 . S
C1425 H1401 0.950 . S
C1425 C1424 1.524 . S
C1425 C1426 1.415 . S
C1426 H1402 0.950 . S
C1426 C1421 1.363 . S
C1426 C1425 1.415 . S
C1427 H1403 0.951 . S
C1427 C1428 1.366 . S
C1427 C1429 1.388 1_556 S
C1428 C1427 1.366 . S
C1428 C1432 1.385 . S
C1429 H1404 0.951 . S
C1429 C1427 1.388 1_554 S
C1429 C1430 1.366 . S
C1430 C1429 1.366 . S
C1430 C1431 1.414 1_554 S
C1430 C1433 1.499 . S
C1431 H1405 0.950 . S
C1431 C1430 1.414 1_556 S
C1431 C1432 1.374 . S
C1432 H1406 0.950 . S
C1432 C1428 1.385 . S
C1432 C1431 1.374 . S
C1433 C1430 1.499 . S
C1433 C1434 1.373 . S
C1433 C1435 1.389 . S
C1434 H1407 0.950 . S
C1434 C1420 1.377 . S
C1434 C1433 1.373 . S
C1435 C1419 1.377 . S
C1435 C1433 1.389 . S
C1435 C1436 1.524 . S
C1436 C1435 1.524 . S
C1436 C1437 1.397 . S
C1436 C1441 1.363 . S
C1437 H1408 0.950 . S
C1437 C1436 1.397 . S
C1437 C1438 1.334 . S
C1438 H1409 0.950 . S
C1438 C1437 1.334 . S
C1438 C1439 1.287 . S
C1439 C1438 1.287 . S
C1439 C1440 1.524 . S
C1439 H1442 0.999 1_455 S
C1440 H1410 0.950 . S
C1440 C1439 1.524 . S
C1440 C1441 1.415 . S
C1441 H1411 0.950 . S
C1441 C1436 1.363 . S
C1441 C1440 1.415 . S
H1442 C1439 0.999 1_655 S
H1443 C1424 0.913 . S
H1444 C1462 0.951 . S
H1445 C1464 0.951 . S
H1446 C1466 0.950 . S
H1447 C1467 0.950 . S
H1448 C1469 0.950 . S
H1449 C1472 0.950 . S
H1450 C1473 0.950 . S
H1451 C1475 0.950 . S
H1452 C1476 0.950 . S
H1453 C1477 0.951 . S
H1454 C1479 0.951 . S
H1455 C1481 0.950 . S
H1456 C1482 0.950 . S
H1457 C1484 0.950 . S
H1458 C1487 0.950 . S
H1459 C1488 0.950 . S
H1460 C1490 0.950 . S
H1461 C1491 0.950 . S
C1462 H1444 0.951 . S
C1462 C1463 1.366 . S
C1462 C1464 1.388 . S
C1463 C1462 1.366 . S
C1463 C1467 1.385 . S
C1464 H1445 0.951 . S
C1464 C1462 1.388 . S
C1464 C1465 1.366 . S
C1465 C1464 1.366 . S
C1465 C1466 1.414 . S
C1465 C1468 1.499 . S
C1466 H1446 0.950 . S
C1466 C1465 1.414 . S
C1466 C1467 1.374 . S
C1467 H1447 0.950 . S
C1467 C1463 1.385 . S
C1467 C1466 1.374 . S
C1468 C1465 1.499 . S
C1468 C1469 1.373 . S
C1468 C1470 1.389 . S
C1469 H1448 0.950 . S
C1469 C1468 1.373 . S
C1469 C1485 1.377 . S
C1470 C1468 1.389 . S
C1470 C1471 1.524 . S
C1470 C1484 1.377 . S
C1471 C1470 1.524 . S
C1471 C1472 1.397 . S
C1471 C1476 1.363 . S
C1472 H1449 0.950 . S
C1472 C1471 1.397 . S
C1472 C1473 1.334 . S
C1473 H1450 0.950 . S
C1473 C1472 1.334 . S
C1473 C1474 1.287 . S
C1474 C1473 1.287 . S
C1474 C1475 1.524 . S
C1474 H1493 0.913 . S
C1475 H1451 0.950 . S
C1475 C1474 1.524 . S
C1475 C1476 1.415 . S
C1476 H1452 0.950 . S
C1476 C1471 1.363 . S
C1476 C1475 1.415 . S
C1477 H1453 0.951 . S
C1477 C1478 1.366 . S
C1477 C1479 1.388 . S
C1478 C1477 1.366 . S
C1478 C1482 1.385 . S
C1479 H1454 0.951 . S
C1479 C1477 1.388 . S
C1479 C1480 1.366 . S
C1480 C1479 1.366 . S
C1480 C1481 1.414 . S
C1480 C1483 1.499 . S
C1481 H1455 0.950 . S
C1481 C1480 1.414 . S
C1481 C1482 1.374 . S
C1482 H1456 0.950 . S
C1482 C1478 1.385 . S
C1482 C1481 1.374 . S
C1483 C1480 1.499 . S
C1483 C1484 1.373 . S
C1483 C1485 1.389 . S
C1484 H1457 0.950 . S
C1484 C1470 1.377 . S
C1484 C1483 1.373 . S
C1485 C1469 1.377 . S
C1485 C1483 1.389 . S
C1485 C1486 1.524 . S
C1486 C1485 1.524 . S
C1486 C1487 1.397 . S
C1486 C1491 1.363 . S
C1487 H1458 0.950 . S
C1487 C1486 1.397 . S
C1487 C1488 1.334 . S
C1488 H1459 0.950 . S
C1488 C1487 1.334 . S
C1488 C1489 1.287 . S
C1489 C1488 1.287 . S
C1489 C1490 1.524 . S
C1489 H1492 0.999 . S
C1490 H1460 0.950 . S
C1490 C1489 1.524 . S
C1490 C1491 1.415 . S
C1491 H1461 0.950 . S
C1491 C1486 1.363 . S
C1491 C1490 1.415 . S
H1492 C1489 0.999 . S
H1493 C1474 0.913 . S
H1494 C1512 0.951 . S
H1495 C1514 0.951 . S
H1496 C1516 0.950 . S
H1497 C1517 0.950 . S
H1498 C1519 0.950 . S
H1499 C1522 0.950 . S
H1500 C1523 0.950 . S
H1501 C1525 0.950 . S
H1502 C1526 0.950 . S
H1503 C1527 0.951 . S
H1504 C1529 0.951 . S
H1505 C1531 0.950 . S
H1506 C1532 0.950 . S
H1507 C1534 0.950 . S
H1508 C1537 0.950 . S
H1509 C1538 0.950 . S
H1510 C1540 0.950 . S
H1511 C1541 0.950 . S
C1512 H1494 0.951 . S
C1512 C1513 1.366 . S
C1512 C1514 1.388 . S
C1513 C1512 1.366 . S
C1513 C1517 1.385 . S
C1514 H1495 0.951 . S
C1514 C1512 1.388 . S
C1514 C1515 1.366 . S
C1515 C1514 1.366 . S
C1515 C1516 1.414 . S
C1515 C1518 1.499 . S
C1516 H1496 0.950 . S
C1516 C1515 1.414 . S
C1516 C1517 1.374 . S
C1517 H1497 0.950 . S
C1517 C1513 1.385 . S
C1517 C1516 1.374 . S
C1518 C1515 1.499 . S
C1518 C1519 1.373 . S
C1518 C1520 1.389 . S
C1519 H1498 0.950 . S
C1519 C1518 1.373 . S
C1519 C1535 1.377 . S
C1520 C1518 1.389 . S
C1520 C1521 1.524 . S
C1520 C1534 1.377 . S
C1521 C1520 1.524 . S
C1521 C1522 1.397 . S
C1521 C1526 1.363 . S
C1522 H1499 0.950 . S
C1522 C1521 1.397 . S
C1522 C1523 1.334 . S
C1523 H1500 0.950 . S
C1523 C1522 1.334 . S
C1523 C1524 1.287 . S
C1524 C1523 1.287 . S
C1524 C1525 1.524 . S
C1524 H1543 0.913 . S
C1525 H1501 0.950 . S
C1525 C1524 1.524 . S
C1525 C1526 1.415 . S
C1526 H1502 0.950 . S
C1526 C1521 1.363 . S
C1526 C1525 1.415 . S
C1527 H1503 0.951 . S
C1527 C1528 1.366 . S
C1527 C1529 1.388 . S
C1528 C1527 1.366 . S
C1528 C1532 1.385 . S
C1529 H1504 0.951 . S
C1529 C1527 1.388 . S
C1529 C1530 1.366 . S
C1530 C1529 1.366 . S
C1530 C1531 1.414 . S
C1530 C1533 1.499 . S
C1531 H1505 0.950 . S
C1531 C1530 1.414 . S
C1531 C1532 1.374 . S
C1532 H1506 0.950 . S
C1532 C1528 1.385 . S
C1532 C1531 1.374 . S
C1533 C1530 1.499 . S
C1533 C1534 1.373 . S
C1533 C1535 1.389 . S
C1534 H1507 0.950 . S
C1534 C1520 1.377 . S
C1534 C1533 1.373 . S
C1535 C1519 1.377 . S
C1535 C1533 1.389 . S
C1535 C1536 1.524 . S
C1536 C1535 1.524 . S
C1536 C1537 1.397 . S
C1536 C1541 1.363 . S
C1537 H1508 0.950 . S
C1537 C1536 1.397 . S
C1537 C1538 1.334 . S
C1538 H1509 0.950 . S
C1538 C1537 1.334 . S
C1538 C1539 1.287 . S
C1539 C1538 1.287 . S
C1539 C1540 1.524 . S
C1539 H1542 0.999 . S
C1540 H1510 0.950 . S
C1540 C1539 1.524 . S
C1540 C1541 1.415 . S
C1541 H1511 0.950 . S
C1541 C1536 1.363 . S
C1541 C1540 1.415 . S
H1542 C1539 0.999 . S
H1543 C1524 0.913 . S
H1544 C1562 0.951 . S
H1545 C1564 0.951 . S
H1546 C1566 0.950 . S
H1547 C1567 0.950 . S
H1548 C1569 0.950 . S
H1549 C1572 0.950 . S
H1550 C1573 0.950 . S
H1551 C1575 0.950 . S
H1552 C1576 0.950 . S
H1553 C1577 0.951 . S
H1554 C1579 0.951 . S
H1555 C1581 0.950 . S
H1556 C1582 0.950 1_556 S
H1557 C1584 0.950 . S
H1558 C1587 0.950 . S
H1559 C1588 0.950 . S
H1560 C1590 0.950 . S
H1561 C1591 0.950 . S
C1562 H1544 0.951 . S
C1562 C1563 1.366 . S
C1562 C1564 1.388 . S
C1563 C1562 1.366 . S
C1563 C1567 1.385 . S
C1564 H1545 0.951 . S
C1564 C1562 1.388 . S
C1564 C1565 1.366 . S
C1565 C1564 1.366 . S
C1565 C1566 1.414 . S
C1565 C1568 1.499 . S
C1566 H1546 0.950 . S
C1566 C1565 1.414 . S
C1566 C1567 1.374 . S
C1567 H1547 0.950 . S
C1567 C1563 1.385 . S
C1567 C1566 1.374 . S
C1568 C1565 1.499 . S
C1568 C1569 1.373 . S
C1568 C1570 1.389 . S
C1569 H1548 0.950 . S
C1569 C1568 1.373 . S
C1569 C1585 1.377 . S
C1570 C1568 1.389 . S
C1570 C1571 1.524 . S
C1570 C1584 1.377 . S
C1571 C1570 1.524 . S
C1571 C1572 1.397 . S
C1571 C1576 1.363 . S
C1572 H1549 0.950 . S
C1572 C1571 1.397 . S
C1572 C1573 1.334 . S
C1573 H1550 0.950 . S
C1573 C1572 1.334 . S
C1573 C1574 1.287 . S
C1574 C1573 1.287 . S
C1574 C1575 1.524 . S
C1574 H1593 0.913 . S
C1575 H1551 0.950 . S
C1575 C1574 1.524 . S
C1575 C1576 1.415 . S
C1576 H1552 0.950 . S
C1576 C1571 1.363 . S
C1576 C1575 1.415 . S
C1577 H1553 0.951 . S
C1577 C1578 1.366 . S
C1577 C1579 1.388 . S
C1578 C1577 1.366 . S
C1578 C1582 1.385 . S
C1579 H1554 0.951 . S
C1579 C1577 1.388 . S
C1579 C1580 1.366 . S
C1580 C1579 1.366 . S
C1580 C1581 1.414 . S
C1580 C1583 1.499 . S
C1581 H1555 0.950 . S
C1581 C1580 1.414 . S
C1581 C1582 1.374 . S
C1582 H1556 0.950 1_554 S
C1582 C1578 1.385 . S
C1582 C1581 1.374 . S
C1583 C1580 1.499 . S
C1583 C1584 1.373 . S
C1583 C1585 1.389 . S
C1584 H1557 0.950 . S
C1584 C1570 1.377 . S
C1584 C1583 1.373 . S
C1585 C1569 1.377 . S
C1585 C1583 1.389 . S
C1585 C1586 1.524 . S
C1586 C1585 1.524 . S
C1586 C1587 1.397 . S
C1586 C1591 1.363 . S
C1587 H1558 0.950 . S
C1587 C1586 1.397 . S
C1587 C1588 1.334 . S
C1588 H1559 0.950 . S
C1588 C1587 1.334 . S
C1588 C1589 1.287 . S
C1589 C1588 1.287 . S
C1589 C1590 1.524 . S
C1589 H1592 0.999 . S
C1590 H1560 0.950 . S
C1590 C1589 1.524 . S
C1590 C1591 1.415 . S
C1591 H1561 0.950 . S
C1591 C1586 1.363 . S
C1591 C1590 1.415 . S
H1592 C1589 0.999 . S
H1593 C1574 0.913 . S
H1594 C1612 0.951 . S
H1595 C1614 0.951 . S
H1596 C1616 0.950 . S
H1597 C1617 0.950 . S
H1598 C1619 0.950 . S
H1599 C1622 0.950 . S
H1600 C1623 0.950 . S
H1601 C1625 0.950 . S
H1602 C1626 0.950 . S
H1603 C1627 0.951 1_554 S
H1604 C1629 0.951 . S
H1605 C1631 0.950 . S
H1606 C1632 0.950 . S
H1607 C1634 0.950 . S
H1608 C1637 0.950 . S
H1609 C1638 0.950 . S
H1610 C1640 0.950 . S
H1611 C1641 0.950 . S
C1612 H1594 0.951 . S
C1612 C1613 1.366 . S
C1612 C1614 1.388 . S
C1613 C1612 1.366 . S
C1613 C1617 1.385 . S
C1614 H1595 0.951 . S
C1614 C1612 1.388 . S
C1614 C1615 1.366 . S
C1615 C1614 1.366 . S
C1615 C1616 1.414 . S
C1615 C1618 1.499 . S
C1616 H1596 0.950 . S
C1616 C1615 1.414 . S
C1616 C1617 1.374 . S
C1617 H1597 0.950 . S
C1617 C1613 1.385 . S
C1617 C1616 1.374 . S
C1618 C1615 1.499 . S
C1618 C1619 1.373 . S
C1618 C1620 1.389 . S
C1619 H1598 0.950 . S
C1619 C1618 1.373 . S
C1619 C1635 1.377 . S
C1620 C1618 1.389 . S
C1620 C1621 1.524 . S
C1620 C1634 1.377 . S
C1621 C1620 1.524 . S
C1621 C1622 1.397 . S
C1621 C1626 1.363 . S
C1622 H1599 0.950 . S
C1622 C1621 1.397 . S
C1622 C1623 1.334 . S
C1623 H1600 0.950 . S
C1623 C1622 1.334 . S
C1623 C1624 1.287 . S
C1624 C1623 1.287 . S
C1624 C1625 1.524 . S
C1624 H1643 0.913 . S
C1625 H1601 0.950 . S
C1625 C1624 1.524 . S
C1625 C1626 1.415 . S
C1626 H1602 0.950 . S
C1626 C1621 1.363 . S
C1626 C1625 1.415 . S
C1627 H1603 0.951 1_556 S
C1627 C1628 1.366 . S
C1627 C1629 1.388 . S
C1628 C1627 1.366 . S
C1628 C1632 1.385 . S
C1629 H1604 0.951 . S
C1629 C1627 1.388 . S
C1629 C1630 1.366 . S
C1630 C1629 1.366 . S
C1630 C1631 1.414 . S
C1630 C1633 1.499 . S
C1631 H1605 0.950 . S
C1631 C1630 1.414 . S
C1631 C1632 1.374 . S
C1632 H1606 0.950 . S
C1632 C1628 1.385 . S
C1632 C1631 1.374 . S
C1633 C1630 1.499 . S
C1633 C1634 1.373 . S
C1633 C1635 1.389 . S
C1634 H1607 0.950 . S
C1634 C1620 1.377 . S
C1634 C1633 1.373 . S
C1635 C1619 1.377 . S
C1635 C1633 1.389 . S
C1635 C1636 1.524 . S
C1636 C1635 1.524 . S
C1636 C1637 1.397 . S
C1636 C1641 1.363 . S
C1637 H1608 0.950 . S
C1637 C1636 1.397 . S
C1637 C1638 1.334 . S
C1638 H1609 0.950 . S
C1638 C1637 1.334 . S
C1638 C1639 1.287 . S
C1639 C1638 1.287 . S
C1639 C1640 1.524 . S
C1639 H1642 0.999 1_556 S
C1640 H1610 0.950 . S
C1640 C1639 1.524 . S
C1640 C1641 1.415 . S
C1641 H1611 0.950 . S
C1641 C1636 1.363 . S
C1641 C1640 1.415 . S
H1642 C1639 0.999 1_554 S
H1643 C1624 0.913 . S
H1644 C1662 0.951 . S
H1645 C1664 0.951 . S
H1646 C1666 0.950 . S
H1647 C1667 0.950 . S
H1648 C1669 0.950 . S
H1649 C1672 0.950 . S
H1650 C1673 0.950 . S
H1651 C1675 0.950 . S
H1652 C1676 0.950 . S
H1653 C1677 0.951 . S
H1654 C1679 0.951 . S
H1655 C1681 0.950 . S
H1656 C1682 0.950 . S
H1657 C1684 0.950 . S
H1658 C1687 0.950 . S
H1659 C1688 0.950 . S
H1660 C1690 0.950 . S
H1661 C1691 0.950 . S
C1662 H1644 0.951 . S
C1662 C1663 1.366 . S
C1662 C1664 1.388 . S
C1663 C1662 1.366 . S
C1663 C1667 1.385 . S
C1664 H1645 0.951 . S
C1664 C1662 1.388 . S
C1664 C1665 1.366 . S
C1665 C1664 1.366 . S
C1665 C1666 1.414 . S
C1665 C1668 1.499 . S
C1666 H1646 0.950 . S
C1666 C1665 1.414 . S
C1666 C1667 1.374 . S
C1667 H1647 0.950 . S
C1667 C1663 1.385 . S
C1667 C1666 1.374 . S
C1668 C1665 1.499 . S
C1668 C1669 1.373 . S
C1668 C1670 1.389 . S
C1669 H1648 0.950 . S
C1669 C1668 1.373 . S
C1669 C1685 1.377 . S
C1670 C1668 1.389 . S
C1670 C1671 1.524 . S
C1670 C1684 1.377 . S
C1671 C1670 1.524 . S
C1671 C1672 1.397 . S
C1671 C1676 1.363 . S
C1672 H1649 0.950 . S
C1672 C1671 1.397 . S
C1672 C1673 1.334 . S
C1673 H1650 0.950 . S
C1673 C1672 1.334 . S
C1673 C1674 1.287 . S
C1674 C1673 1.287 . S
C1674 C1675 1.524 . S
C1674 H1693 0.913 . S
C1675 H1651 0.950 . S
C1675 C1674 1.524 . S
C1675 C1676 1.415 . S
C1676 H1652 0.950 . S
C1676 C1671 1.363 . S
C1676 C1675 1.415 . S
C1677 H1653 0.951 . S
C1677 C1678 1.366 . S
C1677 C1679 1.388 . S
C1678 C1677 1.366 . S
C1678 C1682 1.385 . S
C1679 H1654 0.951 . S
C1679 C1677 1.388 . S
C1679 C1680 1.366 . S
C1680 C1679 1.366 . S
C1680 C1681 1.414 . S
C1680 C1683 1.499 . S
C1681 H1655 0.950 . S
C1681 C1680 1.414 . S
C1681 C1682 1.374 . S
C1682 H1656 0.950 . S
C1682 C1678 1.385 . S
C1682 C1681 1.374 . S
C1683 C1680 1.499 . S
C1683 C1684 1.373 . S
C1683 C1685 1.389 . S
C1684 H1657 0.950 . S
C1684 C1670 1.377 . S
C1684 C1683 1.373 . S
C1685 C1669 1.377 . S
C1685 C1683 1.389 . S
C1685 C1686 1.524 . S
C1686 C1685 1.524 . S
C1686 C1687 1.397 . S
C1686 C1691 1.363 . S
C1687 H1658 0.950 . S
C1687 C1686 1.397 . S
C1687 C1688 1.334 . S
C1688 H1659 0.950 . S
C1688 C1687 1.334 . S
C1688 C1689 1.287 . S
C1689 C1688 1.287 . S
C1689 C1690 1.524 . S
C1689 H1692 0.999 . S
C1690 H1660 0.950 . S
C1690 C1689 1.524 . S
C1690 C1691 1.415 . S
C1691 H1661 0.950 . S
C1691 C1686 1.363 . S
C1691 C1690 1.415 . S
H1692 C1689 0.999 . S
H1693 C1674 0.913 . S
H1694 C1712 0.951 . S
H1695 C1714 0.951 . S
H1696 C1716 0.950 . S
H1697 C1717 0.950 . S
H1698 C1719 0.950 . S
H1699 C1722 0.950 . S
H1700 C1723 0.950 . S
H1701 C1725 0.950 . S
H1702 C1726 0.950 . S
H1703 C1727 0.951 . S
H1704 C1729 0.951 . S
H1705 C1731 0.950 . S
H1706 C1732 0.950 . S
H1707 C1734 0.950 . S
H1708 C1737 0.950 . S
H1709 C1738 0.950 . S
H1710 C1740 0.950 . S
H1711 C1741 0.950 . S
C1712 H1694 0.951 . S
C1712 C1713 1.366 . S
C1712 C1714 1.388 . S
C1713 C1712 1.366 . S
C1713 C1717 1.385 . S
C1714 H1695 0.951 . S
C1714 C1712 1.388 . S
C1714 C1715 1.366 . S
C1715 C1714 1.366 . S
C1715 C1716 1.414 . S
C1715 C1718 1.499 . S
C1716 H1696 0.950 . S
C1716 C1715 1.414 . S
C1716 C1717 1.374 . S
C1717 H1697 0.950 . S
C1717 C1713 1.385 . S
C1717 C1716 1.374 . S
C1718 C1715 1.499 . S
C1718 C1719 1.373 . S
C1718 C1720 1.389 . S
C1719 H1698 0.950 . S
C1719 C1718 1.373 . S
C1719 C1735 1.377 . S
C1720 C1718 1.389 . S
C1720 C1721 1.524 . S
C1720 C1734 1.377 . S
C1721 C1720 1.524 . S
C1721 C1722 1.397 . S
C1721 C1726 1.363 . S
C1722 H1699 0.950 . S
C1722 C1721 1.397 . S
C1722 C1723 1.334 . S
C1723 H1700 0.950 . S
C1723 C1722 1.334 . S
C1723 C1724 1.287 . S
C1724 C1723 1.287 . S
C1724 C1725 1.524 . S
C1724 H1743 0.913 . S
C1725 H1701 0.950 . S
C1725 C1724 1.524 . S
C1725 C1726 1.415 . S
C1726 H1702 0.950 . S
C1726 C1721 1.363 . S
C1726 C1725 1.415 . S
C1727 H1703 0.951 . S
C1727 C1728 1.366 . S
C1727 C1729 1.388 . S
C1728 C1727 1.366 . S
C1728 C1732 1.385 . S
C1729 H1704 0.951 . S
C1729 C1727 1.388 . S
C1729 C1730 1.366 . S
C1730 C1729 1.366 . S
C1730 C1731 1.414 . S
C1730 C1733 1.499 . S
C1731 H1705 0.950 . S
C1731 C1730 1.414 . S
C1731 C1732 1.374 . S
C1732 H1706 0.950 . S
C1732 C1728 1.385 . S
C1732 C1731 1.374 . S
C1733 C1730 1.499 . S
C1733 C1734 1.373 . S
C1733 C1735 1.389 . S
C1734 H1707 0.950 . S
C1734 C1720 1.377 . S
C1734 C1733 1.373 . S
C1735 C1719 1.377 . S
C1735 C1733 1.389 . S
C1735 C1736 1.524 . S
C1736 C1735 1.524 . S
C1736 C1737 1.397 . S
C1736 C1741 1.363 . S
C1737 H1708 0.950 . S
C1737 C1736 1.397 . S
C1737 C1738 1.334 . S
C1738 H1709 0.950 . S
C1738 C1737 1.334 . S
C1738 C1739 1.287 . S
C1739 C1738 1.287 . S
C1739 C1740 1.524 . S
C1739 H1742 0.999 . S
C1740 H1710 0.950 . S
C1740 C1739 1.524 . S
C1740 C1741 1.415 . S
C1741 H1711 0.950 . S
C1741 C1736 1.363 . S
C1741 C1740 1.415 . S
H1742 C1739 0.999 . S
H1743 C1724 0.913 . S
H1744 C1762 0.951 . S
H1745 C1764 0.951 . S
H1746 C1766 0.950 . S
H1747 C1767 0.950 . S
H1748 C1769 0.950 . S
H1749 C1772 0.950 . S
H1750 C1773 0.950 . S
H1751 C1775 0.950 . S
H1752 C1776 0.950 . S
H1753 C1777 0.951 . S
H1754 C1779 0.951 . S
H1755 C1781 0.950 . S
H1756 C1782 0.950 . S
H1757 C1784 0.950 . S
H1758 C1787 0.950 . S
H1759 C1788 0.950 . S
H1760 C1790 0.950 . S
H1761 C1791 0.950 . S
C1762 H1744 0.951 . S
C1762 C1763 1.366 . S
C1762 C1764 1.388 . S
C1763 C1762 1.366 . S
C1763 C1767 1.385 . S
C1764 H1745 0.951 . S
C1764 C1762 1.388 . S
C1764 C1765 1.366 . S
C1765 C1764 1.366 . S
C1765 C1766 1.414 . S
C1765 C1768 1.499 . S
C1766 H1746 0.950 . S
C1766 C1765 1.414 . S
C1766 C1767 1.374 . S
C1767 H1747 0.950 . S
C1767 C1763 1.385 . S
C1767 C1766 1.374 . S
C1768 C1765 1.499 . S
C1768 C1769 1.373 . S
C1768 C1770 1.389 . S
C1769 H1748 0.950 . S
C1769 C1768 1.373 . S
C1769 C1785 1.377 . S
C1770 C1768 1.389 . S
C1770 C1771 1.524 . S
C1770 C1784 1.377 . S
C1771 C1770 1.524 . S
C1771 C1772 1.397 . S
C1771 C1776 1.363 . S
C1772 H1749 0.950 . S
C1772 C1771 1.397 . S
C1772 C1773 1.334 . S
C1773 H1750 0.950 . S
C1773 C1772 1.334 . S
C1773 C1774 1.287 . S
C1774 C1773 1.287 . S
C1774 C1775 1.524 . S
C1774 H1793 0.913 . S
C1775 H1751 0.950 . S
C1775 C1774 1.524 . S
C1775 C1776 1.415 . S
C1776 H1752 0.950 . S
C1776 C1771 1.363 . S
C1776 C1775 1.415 . S
C1777 H1753 0.951 . S
C1777 C1778 1.366 . S
C1777 C1779 1.388 . S
C1778 C1777 1.366 . S
C1778 C1782 1.385 . S
C1779 H1754 0.951 . S
C1779 C1777 1.388 . S
C1779 C1780 1.366 . S
C1780 C1779 1.366 . S
C1780 C1781 1.414 . S
C1780 C1783 1.499 . S
C1781 H1755 0.950 . S
C1781 C1780 1.414 . S
C1781 C1782 1.374 . S
C1782 H1756 0.950 . S
C1782 C1778 1.385 . S
C1782 C1781 1.374 . S
C1783 C1780 1.499 . S
C1783 C1784 1.373 . S
C1783 C1785 1.389 . S
C1784 H1757 0.950 . S
C1784 C1770 1.377 . S
C1784 C1783 1.373 . S
C1785 C1769 1.377 . S
C1785 C1783 1.389 . S
C1785 C1786 1.524 . S
C1786 C1785 1.524 . S
C1786 C1787 1.397 . S
C1786 C1791 1.363 . S
C1787 H1758 0.950 . S
C1787 C1786 1.397 . S
C1787 C1788 1.334 . S
C1788 H1759 0.950 . S
C1788 C1787 1.334 . S
C1788 C1789 1.287 . S
C1789 C1788 1.287 . S
C1789 C1790 1.524 . S
C1789 H1792 0.999 . S
C1790 H1760 0.950 . S
C1790 C1789 1.524 . S
C1790 C1791 1.415 . S
C1791 H1761 0.950 . S
C1791 C1786 1.363 . S
C1791 C1790 1.415 . S
H1792 C1789 0.999 . S
H1793 C1774 0.913 . S
H1794 C1812 0.951 . S
H1795 C1814 0.951 . S
H1796 C1816 0.950 . S
H1797 C1817 0.950 . S
H1798 C1819 0.950 . S
H1799 C1822 0.950 . S
H1800 C1823 0.950 . S
H1801 C1825 0.950 . S
H1802 C1826 0.950 . S
H1803 C1827 0.951 . S
H1804 C1829 0.951 . S
H1805 C1831 0.950 . S
H1806 C1832 0.950 . S
H1807 C1834 0.950 . S
H1808 C1837 0.950 . S
H1809 C1838 0.950 . S
H1810 C1840 0.950 . S
H1811 C1841 0.950 . S
C1812 H1794 0.951 . S
C1812 C1813 1.366 . S
C1812 C1814 1.388 . S
C1813 C1812 1.366 . S
C1813 C1817 1.385 . S
C1814 H1795 0.951 . S
C1814 C1812 1.388 . S
C1814 C1815 1.366 . S
C1815 C1814 1.366 . S
C1815 C1816 1.414 . S
C1815 C1818 1.499 . S
C1816 H1796 0.950 . S
C1816 C1815 1.414 . S
C1816 C1817 1.374 . S
C1817 H1797 0.950 . S
C1817 C1813 1.385 . S
C1817 C1816 1.374 . S
C1818 C1815 1.499 . S
C1818 C1819 1.373 . S
C1818 C1820 1.389 . S
C1819 H1798 0.950 . S
C1819 C1818 1.373 . S
C1819 C1835 1.377 . S
C1820 C1818 1.389 . S
C1820 C1821 1.524 . S
C1820 C1834 1.377 . S
C1821 C1820 1.524 . S
C1821 C1822 1.397 . S
C1821 C1826 1.363 . S
C1822 H1799 0.950 . S
C1822 C1821 1.397 . S
C1822 C1823 1.334 . S
C1823 H1800 0.950 . S
C1823 C1822 1.334 . S
C1823 C1824 1.287 . S
C1824 C1823 1.287 . S
C1824 C1825 1.524 . S
C1824 H1843 0.913 . S
C1825 H1801 0.950 . S
C1825 C1824 1.524 . S
C1825 C1826 1.415 . S
C1826 H1802 0.950 . S
C1826 C1821 1.363 . S
C1826 C1825 1.415 . S
C1827 H1803 0.951 . S
C1827 C1828 1.366 . S
C1827 C1829 1.388 . S
C1828 C1827 1.366 . S
C1828 C1832 1.385 . S
C1829 H1804 0.951 . S
C1829 C1827 1.388 . S
C1829 C1830 1.366 . S
C1830 C1829 1.366 . S
C1830 C1831 1.414 . S
C1830 C1833 1.499 . S
C1831 H1805 0.950 . S
C1831 C1830 1.414 . S
C1831 C1832 1.374 . S
C1832 H1806 0.950 . S
C1832 C1828 1.385 . S
C1832 C1831 1.374 . S
C1833 C1830 1.499 . S
C1833 C1834 1.373 . S
C1833 C1835 1.389 . S
C1834 H1807 0.950 . S
C1834 C1820 1.377 . S
C1834 C1833 1.373 . S
C1835 C1819 1.377 . S
C1835 C1833 1.389 . S
C1835 C1836 1.524 . S
C1836 C1835 1.524 . S
C1836 C1837 1.397 . S
C1836 C1841 1.363 . S
C1837 H1808 0.950 . S
C1837 C1836 1.397 . S
C1837 C1838 1.334 . S
C1838 H1809 0.950 . S
C1838 C1837 1.334 . S
C1838 C1839 1.287 . S
C1839 C1838 1.287 . S
C1839 C1840 1.524 . S
C1839 H1842 0.999 . S
C1840 H1810 0.950 . S
C1840 C1839 1.524 . S
C1840 C1841 1.415 . S
C1841 H1811 0.950 . S
C1841 C1836 1.363 . S
C1841 C1840 1.415 . S
H1842 C1839 0.999 . S
H1843 C1824 0.913 . S
H1844 C1862 0.951 . S
H1845 C1864 0.951 . S
H1846 C1866 0.950 . S
H1847 C1867 0.950 . S
H1848 C1869 0.950 . S
H1849 C1872 0.950 . S
H1850 C1873 0.950 . S
H1851 C1875 0.950 . S
H1852 C1876 0.950 . S
H1853 C1877 0.951 . S
H1854 C1879 0.951 . S
H1855 C1881 0.950 . S
H1856 C1882 0.950 . S
H1857 C1884 0.950 . S
H1858 C1887 0.950 . S
H1859 C1888 0.950 . S
H1860 C1890 0.950 . S
H1861 C1891 0.950 . S
C1862 H1844 0.951 . S
C1862 C1863 1.366 . S
C1862 C1864 1.388 . S
C1863 C1862 1.366 . S
C1863 C1867 1.385 . S
C1864 H1845 0.951 . S
C1864 C1862 1.388 . S
C1864 C1865 1.366 . S
C1865 C1864 1.366 . S
C1865 C1866 1.414 . S
C1865 C1868 1.499 . S
C1866 H1846 0.950 . S
C1866 C1865 1.414 . S
C1866 C1867 1.374 . S
C1867 H1847 0.950 . S
C1867 C1863 1.385 . S
C1867 C1866 1.374 . S
C1868 C1865 1.499 . S
C1868 C1869 1.373 . S
C1868 C1870 1.389 . S
C1869 H1848 0.950 . S
C1869 C1868 1.373 . S
C1869 C1885 1.377 . S
C1870 C1868 1.389 . S
C1870 C1871 1.524 . S
C1870 C1884 1.377 . S
C1871 C1870 1.524 . S
C1871 C1872 1.397 . S
C1871 C1876 1.363 . S
C1872 H1849 0.950 . S
C1872 C1871 1.397 . S
C1872 C1873 1.334 . S
C1873 H1850 0.950 . S
C1873 C1872 1.334 . S
C1873 C1874 1.287 1_655 S
C1874 C1873 1.287 1_455 S
C1874 C1875 1.524 . S
C1874 H1893 0.913 . S
C1875 H1851 0.950 . S
C1875 C1874 1.524 . S
C1875 C1876 1.415 1_455 S
C1876 H1852 0.950 . S
C1876 C1871 1.363 . S
C1876 C1875 1.415 1_655 S
C1877 H1853 0.951 . S
C1877 C1878 1.366 . S
C1877 C1879 1.388 . S
C1878 C1877 1.366 . S
C1878 C1882 1.385 . S
C1879 H1854 0.951 . S
C1879 C1877 1.388 . S
C1879 C1880 1.366 . S
C1880 C1879 1.366 . S
C1880 C1881 1.414 . S
C1880 C1883 1.499 . S
C1881 H1855 0.950 . S
C1881 C1880 1.414 . S
C1881 C1882 1.374 . S
C1882 H1856 0.950 . S
C1882 C1878 1.385 . S
C1882 C1881 1.374 . S
C1883 C1880 1.499 . S
C1883 C1884 1.373 . S
C1883 C1885 1.389 . S
C1884 H1857 0.950 . S
C1884 C1870 1.377 . S
C1884 C1883 1.373 . S
C1885 C1869 1.377 . S
C1885 C1883 1.389 . S
C1885 C1886 1.524 . S
C1886 C1885 1.524 . S
C1886 C1887 1.397 . S
C1886 C1891 1.363 . S
C1887 H1858 0.950 . S
C1887 C1886 1.397 . S
C1887 C1888 1.334 . S
C1888 H1859 0.950 . S
C1888 C1887 1.334 . S
C1888 C1889 1.287 . S
C1889 C1888 1.287 . S
C1889 C1890 1.524 . S
C1889 H1892 0.999 . S
C1890 H1860 0.950 . S
C1890 C1889 1.524 . S
C1890 C1891 1.415 . S
C1891 H1861 0.950 . S
C1891 C1886 1.363 . S
C1891 C1890 1.415 . S
H1892 C1889 0.999 . S
H1893 C1874 0.913 . S
H1894 C1912 0.951 . S
H1895 C1914 0.951 . S
H1896 C1916 0.950 . S
H1897 C1917 0.950 . S
H1898 C1919 0.950 . S
H1899 C1922 0.950 . S
H1900 C1923 0.950 . S
H1901 C1925 0.950 1_455 S
H1902 C1926 0.950 . S
H1903 C1927 0.951 . S
H1904 C1929 0.951 . S
H1905 C1931 0.950 . S
H1906 C1932 0.950 . S
H1907 C1934 0.950 . S
H1908 C1937 0.950 . S
H1909 C1938 0.950 . S
H1910 C1940 0.950 . S
H1911 C1941 0.950 . S
C1912 H1894 0.951 . S
C1912 C1913 1.366 . S
C1912 C1914 1.388 . S
C1913 C1912 1.366 . S
C1913 C1917 1.385 . S
C1914 H1895 0.951 . S
C1914 C1912 1.388 . S
C1914 C1915 1.366 . S
C1915 C1914 1.366 . S
C1915 C1916 1.414 . S
C1915 C1918 1.499 . S
C1916 H1896 0.950 . S
C1916 C1915 1.414 . S
C1916 C1917 1.374 . S
C1917 H1897 0.950 . S
C1917 C1913 1.385 . S
C1917 C1916 1.374 . S
C1918 C1915 1.499 . S
C1918 C1919 1.373 . S
C1918 C1920 1.389 . S
C1919 H1898 0.950 . S
C1919 C1918 1.373 . S
C1919 C1935 1.377 . S
C1920 C1918 1.389 . S
C1920 C1921 1.524 . S
C1920 C1934 1.377 . S
C1921 C1920 1.524 . S
C1921 C1922 1.397 . S
C1921 C1926 1.363 . S
C1922 H1899 0.950 . S
C1922 C1921 1.397 . S
C1922 C1923 1.334 . S
C1923 H1900 0.950 . S
C1923 C1922 1.334 . S
C1923 C1924 1.287 . S
C1924 C1923 1.287 . S
C1924 C1925 1.524 . S
C1924 H1943 0.913 1_655 S
C1925 H1901 0.950 1_655 S
C1925 C1924 1.524 . S
C1925 C1926 1.415 . S
C1926 H1902 0.950 . S
C1926 C1921 1.363 . S
C1926 C1925 1.415 . S
C1927 H1903 0.951 . S
C1927 C1928 1.366 . S
C1927 C1929 1.388 . S
C1928 C1927 1.366 . S
C1928 C1932 1.385 . S
C1929 H1904 0.951 . S
C1929 C1927 1.388 . S
C1929 C1930 1.366 . S
C1930 C1929 1.366 . S
C1930 C1931 1.414 . S
C1930 C1933 1.499 . S
C1931 H1905 0.950 . S
C1931 C1930 1.414 . S
C1931 C1932 1.374 . S
C1932 H1906 0.950 . S
C1932 C1928 1.385 . S
C1932 C1931 1.374 . S
C1933 C1930 1.499 . S
C1933 C1934 1.373 . S
C1933 C1935 1.389 . S
C1934 H1907 0.950 . S
C1934 C1920 1.377 . S
C1934 C1933 1.373 . S
C1935 C1919 1.377 . S
C1935 C1933 1.389 . S
C1935 C1936 1.524 . S
C1936 C1935 1.524 . S
C1936 C1937 1.397 . S
C1936 C1941 1.363 . S
C1937 H1908 0.950 . S
C1937 C1936 1.397 . S
C1937 C1938 1.334 . S
C1938 H1909 0.950 . S
C1938 C1937 1.334 . S
C1938 C1939 1.287 . S
C1939 C1938 1.287 . S
C1939 C1940 1.524 . S
C1939 H1942 0.999 . S
C1940 H1910 0.950 . S
C1940 C1939 1.524 . S
C1940 C1941 1.415 . S
C1941 H1911 0.950 . S
C1941 C1936 1.363 . S
C1941 C1940 1.415 . S
H1942 C1939 0.999 . S
H1943 C1924 0.913 1_455 S
H1944 C1962 0.951 . S
H1945 C1964 0.951 . S
H1946 C1966 0.950 . S
H1947 C1967 0.950 . S
H1948 C1969 0.950 . S
H1949 C1972 0.950 . S
H1950 C1973 0.950 . S
H1951 C1975 0.950 . S
H1952 C1976 0.950 . S
H1953 C1977 0.951 . S
H1954 C1979 0.951 . S
H1955 C1981 0.950 . S
H1956 C1982 0.950 . S
H1957 C1984 0.950 . S
H1958 C1987 0.950 . S
H1959 C1988 0.950 . S
H1960 C1990 0.950 . S
H1961 C1991 0.950 . S
C1962 H1944 0.951 . S
C1962 C1963 1.366 . S
C1962 C1964 1.388 . S
C1963 C1962 1.366 . S
C1963 C1967 1.385 . S
C1964 H1945 0.951 . S
C1964 C1962 1.388 . S
C1964 C1965 1.366 . S
C1965 C1964 1.366 . S
C1965 C1966 1.414 . S
C1965 C1968 1.499 . S
C1966 H1946 0.950 . S
C1966 C1965 1.414 . S
C1966 C1967 1.374 . S
C1967 H1947 0.950 . S
C1967 C1963 1.385 . S
C1967 C1966 1.374 . S
C1968 C1965 1.499 . S
C1968 C1969 1.373 . S
C1968 C1970 1.389 . S
C1969 H1948 0.950 . S
C1969 C1968 1.373 . S
C1969 C1985 1.377 . S
C1970 C1968 1.389 . S
C1970 C1971 1.524 . S
C1970 C1984 1.377 . S
C1971 C1970 1.524 . S
C1971 C1972 1.397 . S
C1971 C1976 1.363 . S
C1972 H1949 0.950 . S
C1972 C1971 1.397 . S
C1972 C1973 1.334 . S
C1973 H1950 0.950 . S
C1973 C1972 1.334 . S
C1973 C1974 1.287 . S
C1974 C1973 1.287 . S
C1974 C1975 1.524 . S
C1974 H1993 0.913 . S
C1975 H1951 0.950 . S
C1975 C1974 1.524 . S
C1975 C1976 1.415 . S
C1976 H1952 0.950 . S
C1976 C1971 1.363 . S
C1976 C1975 1.415 . S
C1977 H1953 0.951 . S
C1977 C1978 1.366 . S
C1977 C1979 1.388 . S
C1978 C1977 1.366 . S
C1978 C1982 1.385 . S
C1979 H1954 0.951 . S
C1979 C1977 1.388 . S
C1979 C1980 1.366 . S
C1980 C1979 1.366 . S
C1980 C1981 1.414 . S
C1980 C1983 1.499 . S
C1981 H1955 0.950 . S
C1981 C1980 1.414 . S
C1981 C1982 1.374 . S
C1982 H1956 0.950 . S
C1982 C1978 1.385 . S
C1982 C1981 1.374 . S
C1983 C1980 1.499 . S
C1983 C1984 1.373 . S
C1983 C1985 1.389 . S
C1984 H1957 0.950 . S
C1984 C1970 1.377 . S
C1984 C1983 1.373 . S
C1985 C1969 1.377 . S
C1985 C1983 1.389 . S
C1985 C1986 1.524 . S
C1986 C1985 1.524 . S
C1986 C1987 1.397 . S
C1986 C1991 1.363 . S
C1987 H1958 0.950 . S
C1987 C1986 1.397 . S
C1987 C1988 1.334 . S
C1988 H1959 0.950 . S
C1988 C1987 1.334 . S
C1988 C1989 1.287 . S
C1989 C1988 1.287 . S
C1989 C1990 1.524 . S
C1989 H1992 0.999 . S
C1990 H1960 0.950 . S
C1990 C1989 1.524 . S
C1990 C1991 1.415 . S
C1991 H1961 0.950 . S
C1991 C1986 1.363 . S
C1991 C1990 1.415 . S
H1992 C1989 0.999 . S
H1993 C1974 0.913 . S
H1994 C2012 0.951 . S
H1995 C2014 0.951 . S
H1996 C2016 0.950 . S
H1997 C2017 0.950 . S
H1998 C2019 0.950 . S
H1999 C2022 0.950 . S
H2000 C2023 0.950 . S
H2001 C2025 0.950 . S
H2002 C2026 0.950 . S
H2003 C2027 0.951 . S
H2004 C2029 0.951 . S
H2005 C2031 0.950 . S
H2006 C2032 0.950 . S
H2007 C2034 0.950 . S
H2008 C2037 0.950 . S
H2009 C2038 0.950 . S
H2010 C2040 0.950 . S
H2011 C2041 0.950 . S
C2012 H1994 0.951 . S
C2012 C2013 1.366 . S
C2012 C2014 1.388 . S
C2013 C2012 1.366 . S
C2013 C2017 1.385 . S
C2014 H1995 0.951 . S
C2014 C2012 1.388 . S
C2014 C2015 1.366 . S
C2015 C2014 1.366 . S
C2015 C2016 1.414 . S
C2015 C2018 1.499 . S
C2016 H1996 0.950 . S
C2016 C2015 1.414 . S
C2016 C2017 1.374 . S
C2017 H1997 0.950 . S
C2017 C2013 1.385 . S
C2017 C2016 1.374 . S
C2018 C2015 1.499 . S
C2018 C2019 1.373 . S
C2018 C2020 1.389 . S
C2019 H1998 0.950 . S
C2019 C2018 1.373 . S
C2019 C2035 1.377 . S
C2020 C2018 1.389 . S
C2020 C2021 1.524 . S
C2020 C2034 1.377 . S
C2021 C2020 1.524 . S
C2021 C2022 1.397 . S
C2021 C2026 1.363 . S
C2022 H1999 0.950 . S
C2022 C2021 1.397 . S
C2022 C2023 1.334 . S
C2023 H2000 0.950 . S
C2023 C2022 1.334 . S
C2023 C2024 1.287 . S
C2024 C2023 1.287 . S
C2024 C2025 1.524 . S
C2024 H2043 0.913 . S
C2025 H2001 0.950 . S
C2025 C2024 1.524 . S
C2025 C2026 1.415 . S
C2026 H2002 0.950 . S
C2026 C2021 1.363 . S
C2026 C2025 1.415 . S
C2027 H2003 0.951 . S
C2027 C2028 1.366 . S
C2027 C2029 1.388 . S
C2028 C2027 1.366 . S
C2028 C2032 1.385 . S
C2029 H2004 0.951 . S
C2029 C2027 1.388 . S
C2029 C2030 1.366 . S
C2030 C2029 1.366 . S
C2030 C2031 1.414 . S
C2030 C2033 1.499 . S
C2031 H2005 0.950 . S
C2031 C2030 1.414 . S
C2031 C2032 1.374 . S
C2032 H2006 0.950 . S
C2032 C2028 1.385 . S
C2032 C2031 1.374 . S
C2033 C2030 1.499 . S
C2033 C2034 1.373 . S
C2033 C2035 1.389 . S
C2034 H2007 0.950 . S
C2034 C2020 1.377 . S
C2034 C2033 1.373 . S
C2035 C2019 1.377 . S
C2035 C2033 1.389 . S
C2035 C2036 1.524 . S
C2036 C2035 1.524 . S
C2036 C2037 1.397 . S
C2036 C2041 1.363 . S
C2037 H2008 0.950 . S
C2037 C2036 1.397 . S
C2037 C2038 1.334 . S
C2038 H2009 0.950 . S
C2038 C2037 1.334 . S
C2038 C2039 1.287 . S
C2039 C2038 1.287 . S
C2039 C2040 1.524 . S
C2039 H2042 0.999 . S
C2040 H2010 0.950 . S
C2040 C2039 1.524 . S
C2040 C2041 1.415 . S
C2041 H2011 0.950 . S
C2041 C2036 1.363 . S
C2041 C2040 1.415 . S
H2042 C2039 0.999 . S
H2043 C2024 0.913 . S
H2044 C2062 0.951 . S
H2045 C2064 0.951 . S
H2046 C2066 0.950 . S
H2047 C2067 0.950 . S
H2048 C2069 0.950 . S
H2049 C2072 0.950 . S
H2050 C2073 0.950 . S
H2051 C2075 0.950 . S
H2052 C2076 0.950 . S
H2053 C2077 0.951 . S
H2054 C2079 0.951 . S
H2055 C2081 0.950 . S
H2056 C2082 0.950 . S
H2057 C2084 0.950 . S
H2058 C2087 0.950 . S
H2059 C2088 0.950 . S
H2060 C2090 0.950 . S
H2061 C2091 0.950 . S
C2062 H2044 0.951 . S
C2062 C2063 1.366 . S
C2062 C2064 1.388 . S
C2063 C2062 1.366 . S
C2063 C2067 1.385 . S
C2064 H2045 0.951 . S
C2064 C2062 1.388 . S
C2064 C2065 1.366 . S
C2065 C2064 1.366 . S
C2065 C2066 1.414 . S
C2065 C2068 1.499 . S
C2066 H2046 0.950 . S
C2066 C2065 1.414 . S
C2066 C2067 1.374 . S
C2067 H2047 0.950 . S
C2067 C2063 1.385 . S
C2067 C2066 1.374 . S
C2068 C2065 1.499 . S
C2068 C2069 1.373 . S
C2068 C2070 1.389 . S
C2069 H2048 0.950 . S
C2069 C2068 1.373 . S
C2069 C2085 1.377 . S
C2070 C2068 1.389 . S
C2070 C2071 1.524 . S
C2070 C2084 1.377 . S
C2071 C2070 1.524 . S
C2071 C2072 1.397 . S
C2071 C2076 1.363 . S
C2072 H2049 0.950 . S
C2072 C2071 1.397 . S
C2072 C2073 1.334 . S
C2073 H2050 0.950 . S
C2073 C2072 1.334 . S
C2073 C2074 1.287 . S
C2074 C2073 1.287 . S
C2074 C2075 1.524 . S
C2074 H2093 0.913 . S
C2075 H2051 0.950 . S
C2075 C2074 1.524 . S
C2075 C2076 1.415 . S
C2076 H2052 0.950 . S
C2076 C2071 1.363 . S
C2076 C2075 1.415 . S
C2077 H2053 0.951 . S
C2077 C2078 1.366 . S
C2077 C2079 1.388 . S
C2078 C2077 1.366 . S
C2078 C2082 1.385 . S
C2079 H2054 0.951 . S
C2079 C2077 1.388 . S
C2079 C2080 1.366 . S
C2080 C2079 1.366 . S
C2080 C2081 1.414 . S
C2080 C2083 1.499 . S
C2081 H2055 0.950 . S
C2081 C2080 1.414 . S
C2081 C2082 1.374 . S
C2082 H2056 0.950 . S
C2082 C2078 1.385 . S
C2082 C2081 1.374 . S
C2083 C2080 1.499 . S
C2083 C2084 1.373 . S
C2083 C2085 1.389 . S
C2084 H2057 0.950 . S
C2084 C2070 1.377 . S
C2084 C2083 1.373 . S
C2085 C2069 1.377 . S
C2085 C2083 1.389 . S
C2085 C2086 1.524 . S
C2086 C2085 1.524 . S
C2086 C2087 1.397 . S
C2086 C2091 1.363 . S
C2087 H2058 0.950 . S
C2087 C2086 1.397 . S
C2087 C2088 1.334 . S
C2088 H2059 0.950 . S
C2088 C2087 1.334 . S
C2088 C2089 1.287 . S
C2089 C2088 1.287 . S
C2089 C2090 1.524 . S
C2089 H2092 0.999 . S
C2090 H2060 0.950 . S
C2090 C2089 1.524 . S
C2090 C2091 1.415 . S
C2091 H2061 0.950 . S
C2091 C2086 1.363 . S
C2091 C2090 1.415 . S
H2092 C2089 0.999 . S
H2093 C2074 0.913 . S
H2094 C2112 0.951 . S
H2095 C2114 0.951 . S
H2096 C2116 0.950 . S
H2097 C2117 0.950 . S
H2098 C2119 0.950 . S
H2099 C2122 0.950 . S
H2100 C2123 0.950 . S
H2101 C2125 0.950 . S
H2102 C2126 0.950 . S
H2103 C2127 0.951 . S
H2104 C2129 0.951 . S
H2105 C2131 0.950 . S
H2106 C2132 0.950 . S
H2107 C2134 0.950 . S
H2108 C2137 0.950 . S
H2109 C2138 0.950 . S
H2110 C2140 0.950 . S
H2111 C2141 0.950 . S
C2112 H2094 0.951 . S
C2112 C2113 1.366 . S
C2112 C2114 1.388 . S
C2113 C2112 1.366 . S
C2113 C2117 1.385 . S
C2114 H2095 0.951 . S
C2114 C2112 1.388 . S
C2114 C2115 1.366 . S
C2115 C2114 1.366 . S
C2115 C2116 1.414 . S
C2115 C2118 1.499 . S
C2116 H2096 0.950 . S
C2116 C2115 1.414 . S
C2116 C2117 1.374 . S
C2117 H2097 0.950 . S
C2117 C2113 1.385 . S
C2117 C2116 1.374 . S
C2118 C2115 1.499 . S
C2118 C2119 1.373 . S
C2118 C2120 1.389 . S
C2119 H2098 0.950 . S
C2119 C2118 1.373 . S
C2119 C2135 1.377 . S
C2120 C2118 1.389 . S
C2120 C2121 1.524 . S
C2120 C2134 1.377 . S
C2121 C2120 1.524 . S
C2121 C2122 1.397 . S
C2121 C2126 1.363 . S
C2122 H2099 0.950 . S
C2122 C2121 1.397 . S
C2122 C2123 1.334 . S
C2123 H2100 0.950 . S
C2123 C2122 1.334 . S
C2123 C2124 1.287 . S
C2124 C2123 1.287 . S
C2124 C2125 1.524 . S
C2124 H2143 0.913 . S
C2125 H2101 0.950 . S
C2125 C2124 1.524 . S
C2125 C2126 1.415 . S
C2126 H2102 0.950 . S
C2126 C2121 1.363 . S
C2126 C2125 1.415 . S
C2127 H2103 0.951 . S
C2127 C2128 1.366 . S
C2127 C2129 1.388 . S
C2128 C2127 1.366 . S
C2128 C2132 1.385 . S
C2129 H2104 0.951 . S
C2129 C2127 1.388 . S
C2129 C2130 1.366 . S
C2130 C2129 1.366 . S
C2130 C2131 1.414 . S
C2130 C2133 1.499 . S
C2131 H2105 0.950 . S
C2131 C2130 1.414 . S
C2131 C2132 1.374 . S
C2132 H2106 0.950 . S
C2132 C2128 1.385 . S
C2132 C2131 1.374 . S
C2133 C2130 1.499 . S
C2133 C2134 1.373 . S
C2133 C2135 1.389 . S
C2134 H2107 0.950 . S
C2134 C2120 1.377 . S
C2134 C2133 1.373 . S
C2135 C2119 1.377 . S
C2135 C2133 1.389 . S
C2135 C2136 1.524 . S
C2136 C2135 1.524 . S
C2136 C2137 1.397 . S
C2136 C2141 1.363 . S
C2137 H2108 0.950 . S
C2137 C2136 1.397 . S
C2137 C2138 1.334 . S
C2138 H2109 0.950 . S
C2138 C2137 1.334 . S
C2138 C2139 1.287 . S
C2139 C2138 1.287 . S
C2139 C2140 1.524 . S
C2139 H2142 0.999 . S
C2140 H2110 0.950 . S
C2140 C2139 1.524 . S
C2140 C2141 1.415 . S
C2141 H2111 0.950 . S
C2141 C2136 1.363 . S
C2141 C2140 1.415 . S
H2142 C2139 0.999 . S
H2143 C2124 0.913 . S
H2144 C2162 0.951 . S
H2145 C2164 0.951 . S
H2146 C2166 0.950 . S
H2147 C2167 0.950 . S
H2148 C2169 0.950 . S
H2149 C2172 0.950 . S
H2150 C2173 0.950 . S
H2151 C2175 0.950 . S
H2152 C2176 0.950 . S
H2153 C2177 0.951 . S
H2154 C2179 0.951 . S
H2155 C2181 0.950 . S
H2156 C2182 0.950 . S
H2157 C2184 0.950 . S
H2158 C2187 0.950 . S
H2159 C2188 0.950 . S
H2160 C2190 0.950 . S
H2161 C2191 0.950 . S
C2162 H2144 0.951 . S
C2162 C2163 1.366 . S
C2162 C2164 1.388 . S
C2163 C2162 1.366 . S
C2163 C2167 1.385 1_455 S
C2164 H2145 0.951 . S
C2164 C2162 1.388 . S
C2164 C2165 1.366 . S
C2165 C2164 1.366 . S
C2165 C2166 1.414 1_455 S
C2165 C2168 1.499 . S
C2166 H2146 0.950 . S
C2166 C2165 1.414 1_655 S
C2166 C2167 1.374 . S
C2167 H2147 0.950 . S
C2167 C2163 1.385 1_655 S
C2167 C2166 1.374 . S
C2168 C2165 1.499 . S
C2168 C2169 1.373 1_455 S
C2168 C2170 1.389 . S
C2169 H2148 0.950 . S
C2169 C2168 1.373 1_655 S
C2169 C2185 1.377 . S
C2170 C2168 1.389 . S
C2170 C2171 1.524 . S
C2170 C2184 1.377 . S
C2171 C2170 1.524 . S
C2171 C2172 1.397 . S
C2171 C2176 1.363 . S
C2172 H2149 0.950 . S
C2172 C2171 1.397 . S
C2172 C2173 1.334 . S
C2173 H2150 0.950 . S
C2173 C2172 1.334 . S
C2173 C2174 1.287 . S
C2174 C2173 1.287 . S
C2174 C2175 1.524 . S
C2174 H2193 0.913 . S
C2175 H2151 0.950 . S
C2175 C2174 1.524 . S
C2175 C2176 1.415 . S
C2176 H2152 0.950 . S
C2176 C2171 1.363 . S
C2176 C2175 1.415 . S
C2177 H2153 0.951 . S
C2177 C2178 1.366 . S
C2177 C2179 1.388 . S
C2178 C2177 1.366 . S
C2178 C2182 1.385 . S
C2179 H2154 0.951 . S
C2179 C2177 1.388 . S
C2179 C2180 1.366 . S
C2180 C2179 1.366 . S
C2180 C2181 1.414 . S
C2180 C2183 1.499 . S
C2181 H2155 0.950 . S
C2181 C2180 1.414 . S
C2181 C2182 1.374 . S
C2182 H2156 0.950 . S
C2182 C2178 1.385 . S
C2182 C2181 1.374 . S
C2183 C2180 1.499 . S
C2183 C2184 1.373 . S
C2183 C2185 1.389 1_455 S
C2184 H2157 0.950 . S
C2184 C2170 1.377 . S
C2184 C2183 1.373 . S
C2185 C2169 1.377 . S
C2185 C2183 1.389 1_655 S
C2185 C2186 1.524 . S
C2186 C2185 1.524 . S
C2186 C2187 1.397 . S
C2186 C2191 1.363 . S
C2187 H2158 0.950 . S
C2187 C2186 1.397 . S
C2187 C2188 1.334 . S
C2188 H2159 0.950 . S
C2188 C2187 1.334 . S
C2188 C2189 1.287 . S
C2189 C2188 1.287 . S
C2189 C2190 1.524 . S
C2189 H2192 0.999 . S
C2190 H2160 0.950 . S
C2190 C2189 1.524 . S
C2190 C2191 1.415 . S
C2191 H2161 0.950 . S
C2191 C2186 1.363 . S
C2191 C2190 1.415 . S
H2192 C2189 0.999 . S
H2193 C2174 0.913 . S
H2194 C2212 0.951 . S
H2195 C2214 0.951 . S
H2196 C2216 0.950 . S
H2197 C2217 0.950 . S
H2198 C2219 0.950 . S
H2199 C2222 0.965 . S
H2200 C2223 0.950 . S
H2201 C2225 0.950 . S
H2202 C2226 0.950 . S
H2203 C2227 0.951 . S
H2204 C2229 0.951 . S
H2205 C2231 0.950 . S
H2206 C2232 0.950 . S
H2207 C2234 0.950 . S
H2208 C2237 0.950 . S
H2209 C2238 0.950 . S
H2210 C2240 0.950 . S
H2211 C2241 0.953 1_655 S
C2212 H2194 0.951 . S
C2212 C2213 1.366 . S
C2212 C2214 1.388 . S
C2213 C2212 1.366 . S
C2213 C2217 1.385 . S
C2214 H2195 0.951 . S
C2214 C2212 1.388 . S
C2214 C2215 1.366 . S
C2215 C2214 1.366 . S
C2215 C2216 1.414 . S
C2215 C2218 1.499 . S
C2216 H2196 0.950 . S
C2216 C2215 1.414 . S
C2216 C2217 1.374 . S
C2217 H2197 0.950 . S
C2217 C2213 1.385 . S
C2217 C2216 1.374 . S
C2218 C2215 1.499 . S
C2218 C2219 1.373 . S
C2218 C2220 1.389 1_655 S
C2219 H2198 0.950 . S
C2219 C2218 1.373 . S
C2219 C2235 1.377 1_655 S
C2220 C2218 1.389 1_455 S
C2220 C2221 1.524 . S
C2220 C2234 1.377 . S
C2221 C2220 1.524 . S
C2221 C2222 1.381 1_455 S
C2221 C2226 1.363 . S
C2222 H2199 0.965 . S
C2222 C2221 1.381 1_655 S
C2222 C2223 1.337 . S
C2223 H2200 0.950 . S
C2223 C2222 1.337 . S
C2223 C2224 1.287 1_655 S
C2224 C2223 1.287 1_455 S
C2224 C2225 1.524 . S
C2224 H2243 0.913 . S
C2225 H2201 0.950 . S
C2225 C2224 1.524 . S
C2225 C2226 1.415 . S
C2226 H2202 0.950 . S
C2226 C2221 1.363 . S
C2226 C2225 1.415 . S
C2227 H2203 0.951 . S
C2227 C2228 1.366 . S
C2227 C2229 1.388 . S
C2228 C2227 1.366 . S
C2228 C2232 1.385 . S
C2229 H2204 0.951 . S
C2229 C2227 1.388 . S
C2229 C2230 1.366 . S
C2230 C2229 1.366 . S
C2230 C2231 1.414 . S
C2230 C2233 1.499 . S
C2231 H2205 0.950 . S
C2231 C2230 1.414 . S
C2231 C2232 1.374 . S
C2232 H2206 0.950 . S
C2232 C2228 1.385 . S
C2232 C2231 1.374 . S
C2233 C2230 1.499 . S
C2233 C2234 1.373 . S
C2233 C2235 1.389 . S
C2234 H2207 0.950 . S
C2234 C2220 1.377 . S
C2234 C2233 1.373 . S
C2235 C2219 1.377 1_455 S
C2235 C2233 1.389 . S
C2235 C2236 1.524 . S
C2236 C2235 1.524 . S
C2236 C2237 1.397 . S
C2236 C2241 1.363 . S
C2237 H2208 0.950 . S
C2237 C2236 1.397 . S
C2237 C2238 1.334 . S
C2238 H2209 0.950 . S
C2238 C2237 1.334 . S
C2238 C2239 1.287 . S
C2239 C2238 1.287 . S
C2239 C2240 1.524 . S
C2239 H2242 0.999 . S
C2240 H2210 0.950 . S
C2240 C2239 1.524 . S
C2240 C2241 1.415 . S
C2241 H2211 0.953 1_455 S
C2241 C2236 1.363 . S
C2241 C2240 1.415 . S
H2242 C2239 0.999 . S
H2243 C2224 0.913 . S
H2244 C2262 0.951 . S
H2245 C2264 0.951 . S
H2246 C2266 0.950 . S
H2247 C2267 0.950 . S
H2248 C2269 0.950 . S
H2249 C2272 0.950 . S
H2250 C2273 0.950 . S
H2251 C2275 0.950 . S
H2252 C2276 0.950 . S
H2253 C2277 0.951 . S
H2254 C2279 0.951 . S
H2255 C2281 0.950 . S
H2256 C2282 0.950 . S
H2257 C2284 0.950 . S
H2258 C2287 0.950 . S
H2259 C2288 0.950 . S
H2260 C2290 0.950 . S
H2261 C2291 0.950 . S
C2262 H2244 0.951 . S
C2262 C2263 1.366 . S
C2262 C2264 1.388 . S
C2263 C2262 1.366 . S
C2263 C2267 1.385 . S
C2264 H2245 0.951 . S
C2264 C2262 1.388 . S
C2264 C2265 1.366 . S
C2265 C2264 1.366 . S
C2265 C2266 1.414 . S
C2265 C2268 1.499 . S
C2266 H2246 0.950 . S
C2266 C2265 1.414 . S
C2266 C2267 1.374 . S
C2267 H2247 0.950 . S
C2267 C2263 1.385 . S
C2267 C2266 1.374 . S
C2268 C2265 1.499 . S
C2268 C2269 1.373 . S
C2268 C2270 1.389 . S
C2269 H2248 0.950 . S
C2269 C2268 1.373 . S
C2269 C2285 1.377 . S
C2270 C2268 1.389 . S
C2270 C2271 1.524 . S
C2270 C2284 1.377 . S
C2271 C2270 1.524 . S
C2271 C2272 1.397 . S
C2271 C2276 1.363 . S
C2272 H2249 0.950 . S
C2272 C2271 1.397 . S
C2272 C2273 1.334 . S
C2273 H2250 0.950 . S
C2273 C2272 1.334 . S
C2273 C2274 1.287 . S
C2274 C2273 1.287 . S
C2274 C2275 1.524 . S
C2274 H2293 0.913 . S
C2275 H2251 0.950 . S
C2275 C2274 1.524 . S
C2275 C2276 1.415 . S
C2276 H2252 0.950 . S
C2276 C2271 1.363 . S
C2276 C2275 1.415 . S
C2277 H2253 0.951 . S
C2277 C2278 1.366 . S
C2277 C2279 1.388 . S
C2278 C2277 1.366 . S
C2278 C2282 1.385 . S
C2279 H2254 0.951 . S
C2279 C2277 1.388 . S
C2279 C2280 1.366 . S
C2280 C2279 1.366 . S
C2280 C2281 1.414 . S
C2280 C2283 1.499 . S
C2281 H2255 0.950 . S
C2281 C2280 1.414 . S
C2281 C2282 1.374 . S
C2282 H2256 0.950 . S
C2282 C2278 1.385 . S
C2282 C2281 1.374 . S
C2283 C2280 1.499 . S
C2283 C2284 1.373 . S
C2283 C2285 1.389 . S
C2284 H2257 0.950 . S
C2284 C2270 1.377 . S
C2284 C2283 1.373 . S
C2285 C2269 1.377 . S
C2285 C2283 1.389 . S
C2285 C2286 1.524 . S
C2286 C2285 1.524 . S
C2286 C2287 1.397 . S
C2286 C2291 1.363 . S
C2287 H2258 0.950 . S
C2287 C2286 1.397 . S
C2287 C2288 1.334 . S
C2288 H2259 0.950 . S
C2288 C2287 1.334 . S
C2288 C2289 1.287 . S
C2289 C2288 1.287 . S
C2289 C2290 1.524 . S
C2289 H2292 0.999 . S
C2290 H2260 0.950 . S
C2290 C2289 1.524 . S
C2290 C2291 1.415 . S
C2291 H2261 0.950 . S
C2291 C2286 1.363 . S
C2291 C2290 1.415 . S
H2292 C2289 0.999 . S
H2293 C2274 0.913 . S
H2294 C2312 0.951 . S
H2295 C2314 0.951 . S
H2296 C2316 0.950 . S
H2297 C2317 0.950 . S
H2298 C2319 0.950 . S
H2299 C2322 0.950 . S
H2300 C2323 0.950 . S
H2301 C2325 0.950 . S
H2302 C2326 0.950 . S
H2303 C2327 0.951 . S
H2304 C2329 0.951 . S
H2305 C2331 0.950 . S
H2306 C2332 0.950 . S
H2307 C2334 0.950 . S
H2308 C2337 0.950 . S
H2309 C2338 0.950 . S
H2310 C2340 0.958 . S
H2311 C2341 0.950 . S
C2312 H2294 0.951 . S
C2312 C2313 1.366 . S
C2312 C2314 1.388 . S
C2313 C2312 1.366 . S
C2313 C2317 1.385 . S
C2314 H2295 0.951 . S
C2314 C2312 1.388 . S
C2314 C2315 1.366 . S
C2315 C2314 1.366 . S
C2315 C2316 1.414 . S
C2315 C2318 1.499 . S
C2316 H2296 0.950 . S
C2316 C2315 1.414 . S
C2316 C2317 1.374 . S
C2317 H2297 0.950 . S
C2317 C2313 1.385 . S
C2317 C2316 1.374 . S
C2318 C2315 1.499 . S
C2318 C2319 1.373 . S
C2318 C2320 1.389 . S
C2319 H2298 0.950 . S
C2319 C2318 1.373 . S
C2319 C2335 1.377 . S
C2320 C2318 1.389 . S
C2320 C2321 1.524 . S
C2320 C2334 1.377 . S
C2321 C2320 1.524 . S
C2321 C2322 1.397 . S
C2321 C2326 1.363 . S
C2322 H2299 0.950 . S
C2322 C2321 1.397 . S
C2322 C2323 1.334 . S
C2323 H2300 0.950 . S
C2323 C2322 1.334 . S
C2323 C2324 1.287 . S
C2324 C2323 1.287 . S
C2324 C2325 1.524 . S
C2324 H2343 0.913 . S
C2325 H2301 0.950 . S
C2325 C2324 1.524 . S
C2325 C2326 1.415 . S
C2326 H2302 0.950 . S
C2326 C2321 1.363 . S
C2326 C2325 1.415 . S
C2327 H2303 0.951 . S
C2327 C2328 1.366 . S
C2327 C2329 1.388 . S
C2328 C2327 1.366 . S
C2328 C2332 1.385 . S
C2329 H2304 0.951 . S
C2329 C2327 1.388 . S
C2329 C2330 1.366 . S
C2330 C2329 1.366 . S
C2330 C2331 1.414 . S
C2330 C2333 1.499 . S
C2331 H2305 0.950 . S
C2331 C2330 1.414 . S
C2331 C2332 1.374 . S
C2332 H2306 0.950 . S
C2332 C2328 1.385 . S
C2332 C2331 1.374 . S
C2333 C2330 1.499 . S
C2333 C2334 1.373 . S
C2333 C2335 1.389 . S
C2334 H2307 0.950 . S
C2334 C2320 1.377 . S
C2334 C2333 1.373 . S
C2335 C2319 1.377 . S
C2335 C2333 1.389 . S
C2335 C2336 1.524 . S
C2336 C2335 1.524 . S
C2336 C2337 1.397 . S
C2336 C2341 1.363 . S
C2337 H2308 0.950 . S
C2337 C2336 1.397 . S
C2337 C2338 1.334 1_556 S
C2338 H2309 0.950 . S
C2338 C2337 1.334 1_554 S
C2338 C2339 1.287 . S
C2339 C2338 1.287 . S
C2339 C2340 1.544 . S
C2339 H2342 0.999 . S
C2340 H2310 0.958 . S
C2340 C2339 1.544 . S
C2340 C2341 1.386 1_554 S
C2341 H2311 0.950 . S
C2341 C2336 1.363 . S
C2341 C2340 1.386 1_556 S
H2342 C2339 0.999 . S
H2343 C2324 0.913 . S
H2344 C2362 0.951 . S
H2345 C2364 0.951 . S
H2346 C2366 0.950 . S
H2347 C2367 0.950 . S
H2348 C2369 0.925 1_655 S
H2349 C2372 0.950 . S
H2350 C2373 0.950 . S
H2351 C2375 0.950 . S
H2352 C2376 0.950 . S
H2353 C2377 0.951 1_655 S
H2354 C2379 0.951 . S
H2355 C2381 0.950 . S
H2356 C2382 0.950 . S
H2357 C2384 0.950 . S
H2358 C2387 0.950 . S
H2359 C2388 0.950 . S
H2360 C2390 0.950 . S
H2361 C2391 0.950 . S
C2362 H2344 0.951 . S
C2362 C2363 1.366 . S
C2362 C2364 1.388 . S
C2363 C2362 1.366 . S
C2363 C2367 1.385 . S
C2364 H2345 0.951 . S
C2364 C2362 1.388 . S
C2364 C2365 1.366 . S
C2365 C2364 1.366 . S
C2365 C2366 1.414 . S
C2365 C2368 1.499 . S
C2366 H2346 0.950 . S
C2366 C2365 1.414 . S
C2366 C2367 1.374 . S
C2367 H2347 0.950 . S
C2367 C2363 1.385 . S
C2367 C2366 1.374 . S
C2368 C2365 1.499 . S
C2368 C2369 1.406 . S
C2368 C2370 1.389 . S
C2369 H2348 0.925 1_455 S
C2369 C2368 1.406 . S
C2369 C2385 1.370 1_455 S
C2370 C2368 1.389 . S
C2370 C2371 1.524 . S
C2370 C2384 1.377 . S
C2371 C2370 1.524 . S
C2371 C2372 1.397 . S
C2371 C2376 1.363 . S
C2372 H2349 0.950 . S
C2372 C2371 1.397 . S
C2372 C2373 1.334 . S
C2373 H2350 0.950 . S
C2373 C2372 1.334 . S
C2373 C2374 1.287 . S
C2374 C2373 1.287 . S
C2374 C2375 1.524 . S
C2374 H2393 0.913 . S
C2375 H2351 0.950 . S
C2375 C2374 1.524 . S
C2375 C2376 1.415 . S
C2376 H2352 0.950 . S
C2376 C2371 1.363 . S
C2376 C2375 1.415 . S
C2377 H2353 0.951 1_455 S
C2377 C2378 1.366 . S
C2377 C2379 1.388 . S
C2378 C2377 1.366 . S
C2378 C2382 1.385 . S
C2379 H2354 0.951 . S
C2379 C2377 1.388 . S
C2379 C2380 1.366 . S
C2380 C2379 1.366 . S
C2380 C2381 1.414 . S
C2380 C2383 1.499 . S
C2381 H2355 0.950 . S
C2381 C2380 1.414 . S
C2381 C2382 1.374 . S
C2382 H2356 0.950 . S
C2382 C2378 1.385 . S
C2382 C2381 1.374 . S
C2383 C2380 1.499 . S
C2383 C2384 1.373 . S
C2383 C2385 1.389 1_455 S
C2384 H2357 0.950 . S
C2384 C2370 1.377 . S
C2384 C2383 1.373 . S
C2385 C2369 1.370 1_655 S
C2385 C2383 1.389 1_655 S
C2385 C2386 1.524 . S
C2386 C2385 1.524 . S
C2386 C2387 1.397 . S
C2386 C2391 1.363 . S
C2387 H2358 0.950 . S
C2387 C2386 1.397 . S
C2387 C2388 1.334 . S
C2388 H2359 0.950 . S
C2388 C2387 1.334 . S
C2388 C2389 1.287 . S
C2389 C2388 1.287 . S
C2389 C2390 1.524 . S
C2389 H2392 0.999 . S
C2390 H2360 0.950 . S
C2390 C2389 1.524 . S
C2390 C2391 1.415 . S
C2391 H2361 0.950 . S
C2391 C2386 1.363 . S
C2391 C2390 1.415 . S
H2392 C2389 0.999 . S
H2393 C2374 0.913 . S
H2394 C2412 0.951 . S
H2395 C2414 0.951 . S
H2396 C2416 0.950 . S
H2397 C2417 0.950 . S
H2398 C2419 0.950 . S
H2399 C2422 0.950 . S
H2400 C2423 0.950 . S
H2401 C2425 0.950 1_556 S
H2402 C2426 0.950 . S
H2403 C2427 0.951 . S
H2404 C2429 0.951 . S
H2405 C2431 0.950 . S
H2406 C2432 0.950 . S
H2407 C2434 0.950 . S
H2408 C2437 0.950 . S
H2409 C2438 0.950 . S
H2410 C2440 0.950 . S
H2411 C2441 0.950 . S
C2412 H2394 0.951 . S
C2412 C2413 1.366 . S
C2412 C2414 1.388 . S
C2413 C2412 1.366 . S
C2413 C2417 1.385 . S
C2414 H2395 0.951 . S
C2414 C2412 1.388 . S
C2414 C2415 1.366 . S
C2415 C2414 1.366 . S
C2415 C2416 1.414 . S
C2415 C2418 1.499 . S
C2416 H2396 0.950 . S
C2416 C2415 1.414 . S
C2416 C2417 1.374 . S
C2417 H2397 0.950 . S
C2417 C2413 1.385 . S
C2417 C2416 1.374 . S
C2418 C2415 1.499 . S
C2418 C2419 1.373 . S
C2418 C2420 1.389 . S
C2419 H2398 0.950 . S
C2419 C2418 1.373 . S
C2419 C2435 1.377 . S
C2420 C2418 1.389 . S
C2420 C2421 1.524 . S
C2420 C2434 1.377 . S
C2421 C2420 1.524 . S
C2421 C2422 1.397 . S
C2421 C2426 1.363 . S
C2422 H2399 0.950 . S
C2422 C2421 1.397 . S
C2422 C2423 1.334 1_554 S
C2423 H2400 0.950 . S
C2423 C2422 1.334 1_556 S
C2423 C2424 1.287 . S
C2424 C2423 1.287 . S
C2424 C2425 1.524 1_556 S
C2424 H2443 0.913 . S
C2425 H2401 0.950 1_554 S
C2425 C2424 1.524 1_554 S
C2425 C2426 1.415 . S
C2426 H2402 0.950 . S
C2426 C2421 1.363 . S
C2426 C2425 1.415 . S
C2427 H2403 0.951 . S
C2427 C2428 1.366 . S
C2427 C2429 1.388 . S
C2428 C2427 1.366 . S
C2428 C2432 1.385 . S
C2429 H2404 0.951 . S
C2429 C2427 1.388 . S
C2429 C2430 1.366 . S
C2430 C2429 1.366 . S
C2430 C2431 1.414 . S
C2430 C2433 1.499 . S
C2431 H2405 0.950 . S
C2431 C2430 1.414 . S
C2431 C2432 1.374 . S
C2432 H2406 0.950 . S
C2432 C2428 1.385 . S
C2432 C2431 1.374 . S
C2433 C2430 1.499 . S
C2433 C2434 1.373 . S
C2433 C2435 1.389 . S
C2434 H2407 0.950 . S
C2434 C2420 1.377 . S
C2434 C2433 1.373 . S
C2435 C2419 1.377 . S
C2435 C2433 1.389 . S
C2435 C2436 1.524 . S
C2436 C2435 1.524 . S
C2436 C2437 1.397 . S
C2436 C2441 1.363 . S
C2437 H2408 0.950 . S
C2437 C2436 1.397 . S
C2437 C2438 1.334 . S
C2438 H2409 0.950 . S
C2438 C2437 1.334 . S
C2438 C2439 1.287 . S
C2439 C2438 1.287 . S
C2439 C2440 1.524 . S
C2439 H2442 0.999 . S
C2440 H2410 0.950 . S
C2440 C2439 1.524 . S
C2440 C2441 1.415 . S
C2441 H2411 0.950 . S
C2441 C2436 1.363 . S
C2441 C2440 1.415 . S
H2442 C2439 0.999 . S
H2443 C2424 0.913 . S
H2444 C2462 0.951 . S
H2445 C2464 0.951 . S
H2446 C2466 0.950 . S
H2447 C2467 0.950 . S
H2448 C2469 0.950 . S
H2449 C2472 0.950 . S
H2450 C2473 0.950 . S
H2451 C2475 0.950 . S
H2452 C2476 0.950 . S
H2453 C2477 0.951 . S
H2454 C2479 0.951 . S
H2455 C2481 0.950 . S
H2456 C2482 0.950 . S
H2457 C2484 0.950 . S
H2458 C2487 0.950 . S
H2459 C2488 0.950 . S
H2460 C2490 0.950 . S
H2461 C2491 0.950 . S
C2462 H2444 0.951 . S
C2462 C2463 1.366 . S
C2462 C2464 1.388 . S
C2463 C2462 1.366 . S
C2463 C2467 1.385 . S
C2464 H2445 0.951 . S
C2464 C2462 1.388 . S
C2464 C2465 1.366 . S
C2465 C2464 1.366 . S
C2465 C2466 1.414 . S
C2465 C2468 1.499 . S
C2466 H2446 0.950 . S
C2466 C2465 1.414 . S
C2466 C2467 1.374 . S
C2467 H2447 0.950 . S
C2467 C2463 1.385 . S
C2467 C2466 1.374 . S
C2468 C2465 1.499 . S
C2468 C2469 1.373 . S
C2468 C2470 1.389 . S
C2469 H2448 0.950 . S
C2469 C2468 1.373 . S
C2469 C2485 1.377 . S
C2470 C2468 1.389 . S
C2470 C2471 1.524 . S
C2470 C2484 1.377 . S
C2471 C2470 1.524 . S
C2471 C2472 1.397 . S
C2471 C2476 1.363 . S
C2472 H2449 0.950 . S
C2472 C2471 1.397 . S
C2472 C2473 1.334 . S
C2473 H2450 0.950 . S
C2473 C2472 1.334 . S
C2473 C2474 1.287 . S
C2474 C2473 1.287 . S
C2474 C2475 1.524 . S
C2474 H2493 0.913 . S
C2475 H2451 0.950 . S
C2475 C2474 1.524 . S
C2475 C2476 1.415 . S
C2476 H2452 0.950 . S
C2476 C2471 1.363 . S
C2476 C2475 1.415 . S
C2477 H2453 0.951 . S
C2477 C2478 1.366 . S
C2477 C2479 1.388 . S
C2478 C2477 1.366 . S
C2478 C2482 1.385 . S
C2479 H2454 0.951 . S
C2479 C2477 1.388 . S
C2479 C2480 1.366 . S
C2480 C2479 1.366 . S
C2480 C2481 1.414 . S
C2480 C2483 1.499 . S
C2481 H2455 0.950 . S
C2481 C2480 1.414 . S
C2481 C2482 1.374 . S
C2482 H2456 0.950 . S
C2482 C2478 1.385 . S
C2482 C2481 1.374 . S
C2483 C2480 1.499 . S
C2483 C2484 1.373 . S
C2483 C2485 1.389 . S
C2484 H2457 0.950 . S
C2484 C2470 1.377 . S
C2484 C2483 1.373 . S
C2485 C2469 1.377 . S
C2485 C2483 1.389 . S
C2485 C2486 1.524 . S
C2486 C2485 1.524 . S
C2486 C2487 1.397 . S
C2486 C2491 1.363 . S
C2487 H2458 0.950 . S
C2487 C2486 1.397 . S
C2487 C2488 1.334 . S
C2488 H2459 0.950 . S
C2488 C2487 1.334 . S
C2488 C2489 1.287 . S
C2489 C2488 1.287 . S
C2489 C2490 1.524 . S
C2489 H2492 0.999 . S
C2490 H2460 0.950 . S
C2490 C2489 1.524 . S
C2490 C2491 1.415 . S
C2491 H2461 0.950 . S
C2491 C2486 1.363 . S
C2491 C2490 1.415 . S
H2492 C2489 0.999 . S
H2493 C2474 0.913 . S
H2494 C2512 0.951 . S
H2495 C2514 0.951 . S
H2496 C2516 0.950 . S
H2497 C2517 0.950 . S
H2498 C2519 0.950 . S
H2499 C2522 0.950 . S
H2500 C2523 0.950 . S
H2501 C2525 0.950 1_655 S
H2502 C2526 0.950 1_655 S
H2503 C2527 0.951 . S
H2504 C2529 0.951 . S
H2505 C2531 0.950 . S
H2506 C2532 0.950 . S
H2507 C2534 0.950 . S
H2508 C2537 0.950 . S
H2509 C2538 0.950 . S
H2510 C2540 0.950 . S
H2511 C2541 0.950 . S
C2512 H2494 0.951 . S
C2512 C2513 1.366 . S
C2512 C2514 1.388 . S
C2513 C2512 1.366 . S
C2513 C2517 1.385 . S
C2514 H2495 0.951 . S
C2514 C2512 1.388 . S
C2514 C2515 1.366 . S
C2515 C2514 1.366 . S
C2515 C2516 1.414 . S
C2515 C2518 1.499 . S
C2516 H2496 0.950 . S
C2516 C2515 1.414 . S
C2516 C2517 1.374 . S
C2517 H2497 0.950 . S
C2517 C2513 1.385 . S
C2517 C2516 1.374 . S
C2518 C2515 1.499 . S
C2518 C2519 1.373 . S
C2518 C2520 1.389 . S
C2519 H2498 0.950 . S
C2519 C2518 1.373 . S
C2519 C2535 1.377 . S
C2520 C2518 1.389 . S
C2520 C2521 1.524 . S
C2520 C2534 1.377 1_455 S
C2521 C2520 1.524 . S
C2521 C2522 1.397 . S
C2521 C2526 1.363 . S
C2522 H2499 0.950 . S
C2522 C2521 1.397 . S
C2522 C2523 1.334 . S
C2523 H2500 0.950 . S
C2523 C2522 1.334 . S
C2523 C2524 1.287 . S
C2524 C2523 1.287 . S
C2524 C2525 1.524 . S
C2524 H2543 0.913 . S
C2525 H2501 0.950 1_455 S
C2525 C2524 1.524 . S
C2525 C2526 1.415 . S
C2526 H2502 0.950 1_455 S
C2526 C2521 1.363 . S
C2526 C2525 1.415 . S
C2527 H2503 0.951 . S
C2527 C2528 1.366 . S
C2527 C2529 1.388 . S
C2528 C2527 1.366 . S
C2528 C2532 1.385 . S
C2529 H2504 0.951 . S
C2529 C2527 1.388 . S
C2529 C2530 1.366 . S
C2530 C2529 1.366 . S
C2530 C2531 1.414 . S
C2530 C2533 1.499 . S
C2531 H2505 0.950 . S
C2531 C2530 1.414 . S
C2531 C2532 1.374 . S
C2532 H2506 0.950 . S
C2532 C2528 1.385 . S
C2532 C2531 1.374 . S
C2533 C2530 1.499 . S
C2533 C2534 1.373 . S
C2533 C2535 1.389 1_655 S
C2534 H2507 0.950 . S
C2534 C2520 1.377 1_655 S
C2534 C2533 1.373 . S
C2535 C2519 1.377 . S
C2535 C2533 1.389 1_455 S
C2535 C2536 1.524 . S
C2536 C2535 1.524 . S
C2536 C2537 1.397 1_455 S
C2536 C2541 1.363 . S
C2537 H2508 0.950 . S
C2537 C2536 1.397 1_655 S
C2537 C2538 1.334 . S
C2538 H2509 0.950 . S
C2538 C2537 1.334 . S
C2538 C2539 1.287 1_655 S
C2539 C2538 1.287 1_455 S
C2539 C2540 1.524 . S
C2539 H2542 0.999 . S
C2540 H2510 0.950 . S
C2540 C2539 1.524 . S
C2540 C2541 1.415 . S
C2541 H2511 0.950 . S
C2541 C2536 1.363 . S
C2541 C2540 1.415 . S
H2542 C2539 0.999 . S
H2543 C2524 0.913 . S
H2544 C2562 0.951 . S
H2545 C2564 0.951 . S
H2546 C2566 0.950 . S
H2547 C2567 0.950 . S
H2548 C2569 0.950 . S
H2549 C2572 0.950 . S
H2550 C2573 0.950 . S
H2551 C2575 0.950 . S
H2552 C2576 0.950 . S
H2553 C2577 0.951 . S
H2554 C2579 0.951 . S
H2555 C2581 0.950 . S
H2556 C2582 0.950 . S
H2557 C2584 0.950 . S
H2558 C2587 0.950 . S
H2559 C2588 0.950 . S
H2560 C2590 0.950 . S
H2561 C2591 0.950 . S
C2562 H2544 0.951 . S
C2562 C2563 1.366 . S
C2562 C2564 1.388 . S
C2563 C2562 1.366 . S
C2563 C2567 1.385 . S
C2564 H2545 0.951 . S
C2564 C2562 1.388 . S
C2564 C2565 1.366 . S
C2565 C2564 1.366 . S
C2565 C2566 1.414 . S
C2565 C2568 1.499 . S
C2566 H2546 0.950 . S
C2566 C2565 1.414 . S
C2566 C2567 1.374 . S
C2567 H2547 0.950 . S
C2567 C2563 1.385 . S
C2567 C2566 1.374 . S
C2568 C2565 1.499 . S
C2568 C2569 1.373 . S
C2568 C2570 1.389 . S
C2569 H2548 0.950 . S
C2569 C2568 1.373 . S
C2569 C2585 1.377 1_544 S
C2570 C2568 1.389 . S
C2570 C2571 1.524 . S
C2570 C2584 1.377 1_544 S
C2571 C2570 1.524 . S
C2571 C2572 1.397 . S
C2571 C2576 1.363 1_545 S
C2572 H2549 0.950 . S
C2572 C2571 1.397 . S
C2572 C2573 1.334 . S
C2573 H2550 0.950 . S
C2573 C2572 1.334 . S
C2573 C2574 1.287 . S
C2574 C2573 1.287 . S
C2574 C2575 1.524 1_545 S
C2574 H2593 0.913 . S
C2575 H2551 0.950 . S
C2575 C2574 1.524 1_565 S
C2575 C2576 1.415 . S
C2576 H2552 0.950 . S
C2576 C2571 1.363 1_565 S
C2576 C2575 1.415 . S
C2577 H2553 0.951 . S
C2577 C2578 1.366 . S
C2577 C2579 1.388 . S
C2578 C2577 1.366 . S
C2578 C2582 1.385 . S
C2579 H2554 0.951 . S
C2579 C2577 1.388 . S
C2579 C2580 1.366 . S
C2580 C2579 1.366 . S
C2580 C2581 1.414 . S
C2580 C2583 1.499 . S
C2581 H2555 0.950 . S
C2581 C2580 1.414 . S
C2581 C2582 1.374 . S
C2582 H2556 0.950 . S
C2582 C2578 1.385 . S
C2582 C2581 1.374 . S
C2583 C2580 1.499 . S
C2583 C2584 1.373 . S
C2583 C2585 1.389 . S
C2584 H2557 0.950 . S
C2584 C2570 1.377 1_566 S
C2584 C2583 1.373 . S
C2585 C2569 1.377 1_566 S
C2585 C2583 1.389 . S
C2585 C2586 1.524 1_455 S
C2586 C2585 1.524 1_655 S
C2586 C2587 1.397 . S
C2586 C2591 1.363 1_565 S
C2587 H2558 0.950 . S
C2587 C2586 1.397 . S
C2587 C2588 1.334 . S
C2588 H2559 0.950 . S
C2588 C2587 1.334 . S
C2588 C2589 1.287 . S
C2589 C2588 1.287 . S
C2589 C2590 1.524 1_565 S
C2589 H2592 0.999 . S
C2590 H2560 0.950 . S
C2590 C2589 1.524 1_545 S
C2590 C2591 1.415 . S
C2591 H2561 0.950 . S
C2591 C2586 1.363 1_545 S
C2591 C2590 1.415 . S
H2592 C2589 0.999 . S
H2593 C2574 0.913 . S
H2594 C2612 0.951 . S
H2595 C2614 0.951 . S
H2596 C2616 0.950 . S
H2597 C2617 0.950 . S
H2598 C2619 0.950 . S
H2599 C2622 0.950 . S
H2600 C2623 0.950 . S
H2601 C2625 0.950 . S
H2602 C2626 0.950 . S
H2603 C2627 0.951 . S
H2604 C2629 0.951 . S
H2605 C2631 0.950 . S
H2606 C2632 0.950 . S
H2607 C2634 0.950 . S
H2608 C2637 0.950 . S
H2609 C2638 0.950 . S
H2610 C2640 0.950 . S
H2611 C2641 0.950 . S
C2612 H2594 0.951 . S
C2612 C2613 1.366 . S
C2612 C2614 1.388 . S
C2613 C2612 1.366 . S
C2613 C2617 1.385 . S
C2614 H2595 0.951 . S
C2614 C2612 1.388 . S
C2614 C2615 1.366 . S
C2615 C2614 1.366 . S
C2615 C2616 1.414 . S
C2615 C2618 1.499 . S
C2616 H2596 0.950 . S
C2616 C2615 1.414 . S
C2616 C2617 1.374 . S
C2617 H2597 0.950 . S
C2617 C2613 1.385 . S
C2617 C2616 1.374 . S
C2618 C2615 1.499 . S
C2618 C2619 1.373 . S
C2618 C2620 1.389 . S
C2619 H2598 0.950 . S
C2619 C2618 1.373 . S
C2619 C2635 1.377 . S
C2620 C2618 1.389 . S
C2620 C2621 1.524 . S
C2620 C2634 1.377 . S
C2621 C2620 1.524 . S
C2621 C2622 1.397 . S
C2621 C2626 1.363 . S
C2622 H2599 0.950 . S
C2622 C2621 1.397 . S
C2622 C2623 1.334 . S
C2623 H2600 0.950 . S
C2623 C2622 1.334 . S
C2623 C2624 1.287 . S
C2624 C2623 1.287 . S
C2624 C2625 1.524 . S
C2624 H2643 0.913 . S
C2625 H2601 0.950 . S
C2625 C2624 1.524 . S
C2625 C2626 1.415 . S
C2626 H2602 0.950 . S
C2626 C2621 1.363 . S
C2626 C2625 1.415 . S
C2627 H2603 0.951 . S
C2627 C2628 1.366 . S
C2627 C2629 1.388 . S
C2628 C2627 1.366 . S
C2628 C2632 1.385 . S
C2629 H2604 0.951 . S
C2629 C2627 1.388 . S
C2629 C2630 1.366 . S
C2630 C2629 1.366 . S
C2630 C2631 1.414 . S
C2630 C2633 1.499 . S
C2631 H2605 0.950 . S
C2631 C2630 1.414 . S
C2631 C2632 1.374 . S
C2632 H2606 0.950 . S
C2632 C2628 1.385 . S
C2632 C2631 1.374 . S
C2633 C2630 1.499 . S
C2633 C2634 1.373 . S
C2633 C2635 1.389 . S
C2634 H2607 0.950 . S
C2634 C2620 1.377 . S
C2634 C2633 1.373 . S
C2635 C2619 1.377 . S
C2635 C2633 1.389 . S
C2635 C2636 1.524 . S
C2636 C2635 1.524 . S
C2636 C2637 1.397 . S
C2636 C2641 1.363 . S
C2637 H2608 0.950 . S
C2637 C2636 1.397 . S
C2637 C2638 1.334 . S
C2638 H2609 0.950 . S
C2638 C2637 1.334 . S
C2638 C2639 1.287 . S
C2639 C2638 1.287 . S
C2639 C2640 1.524 . S
C2639 H2642 0.999 . S
C2640 H2610 0.950 . S
C2640 C2639 1.524 . S
C2640 C2641 1.415 . S
C2641 H2611 0.950 . S
C2641 C2636 1.363 . S
C2641 C2640 1.415 . S
H2642 C2639 0.999 . S
H2643 C2624 0.913 . S
H2644 C2662 0.951 . S
H2645 C2664 0.951 . S
H2646 C2666 0.950 . S
H2647 C2667 0.950 . S
H2648 C2669 0.950 . S
H2649 C2672 0.950 . S
H2650 C2673 0.950 . S
H2651 C2675 0.950 . S
H2652 C2676 0.950 . S
H2653 C2677 0.951 . S
H2654 C2679 0.951 . S
H2655 C2681 0.950 . S
H2656 C2682 0.950 . S
H2657 C2684 0.950 . S
H2658 C2687 0.950 . S
H2659 C2688 0.950 . S
H2660 C2690 0.950 . S
H2661 C2691 0.950 . S
C2662 H2644 0.951 . S
C2662 C2663 1.366 . S
C2662 C2664 1.388 . S
C2663 C2662 1.366 . S
C2663 C2667 1.385 . S
C2664 H2645 0.951 . S
C2664 C2662 1.388 . S
C2664 C2665 1.366 . S
C2665 C2664 1.366 . S
C2665 C2666 1.414 . S
C2665 C2668 1.499 . S
C2666 H2646 0.950 . S
C2666 C2665 1.414 . S
C2666 C2667 1.374 . S
C2667 H2647 0.950 . S
C2667 C2663 1.385 . S
C2667 C2666 1.374 . S
C2668 C2665 1.499 . S
C2668 C2669 1.373 . S
C2668 C2670 1.389 1_545 S
C2669 H2648 0.950 . S
C2669 C2668 1.373 . S
C2669 C2685 1.377 . S
C2670 C2668 1.389 1_565 S
C2670 C2671 1.524 . S
C2670 C2684 1.377 . S
C2671 C2670 1.524 . S
C2671 C2672 1.397 1_565 S
C2671 C2676 1.363 . S
C2672 H2649 0.950 . S
C2672 C2671 1.397 1_545 S
C2672 C2673 1.334 . S
C2673 H2650 0.950 . S
C2673 C2672 1.334 . S
C2673 C2674 1.287 1_545 S
C2674 C2673 1.287 1_565 S
C2674 C2675 1.524 . S
C2674 H2693 0.913 . S
C2675 H2651 0.950 . S
C2675 C2674 1.524 . S
C2675 C2676 1.415 . S
C2676 H2652 0.950 . S
C2676 C2671 1.363 . S
C2676 C2675 1.415 . S
C2677 H2653 0.951 . S
C2677 C2678 1.366 . S
C2677 C2679 1.388 . S
C2678 C2677 1.366 . S
C2678 C2682 1.385 . S
C2679 H2654 0.951 . S
C2679 C2677 1.388 . S
C2679 C2680 1.366 . S
C2680 C2679 1.366 . S
C2680 C2681 1.414 . S
C2680 C2683 1.499 . S
C2681 H2655 0.950 . S
C2681 C2680 1.414 . S
C2681 C2682 1.374 . S
C2682 H2656 0.950 . S
C2682 C2678 1.385 . S
C2682 C2681 1.374 . S
C2683 C2680 1.499 . S
C2683 C2684 1.373 . S
C2683 C2685 1.389 1_565 S
C2684 H2657 0.950 . S
C2684 C2670 1.377 . S
C2684 C2683 1.373 . S
C2685 C2669 1.377 . S
C2685 C2683 1.389 1_545 S
C2685 C2686 1.524 . S
C2686 C2685 1.524 . S
C2686 C2687 1.397 1_545 S
C2686 C2691 1.363 . S
C2687 H2658 0.950 . S
C2687 C2686 1.397 1_565 S
C2687 C2688 1.334 . S
C2688 H2659 0.950 . S
C2688 C2687 1.334 . S
C2688 C2689 1.287 1_565 S
C2689 C2688 1.287 1_545 S
C2689 C2690 1.524 . S
C2689 H2692 0.999 . S
C2690 H2660 0.950 . S
C2690 C2689 1.524 . S
C2690 C2691 1.415 . S
C2691 H2661 0.950 . S
C2691 C2686 1.363 . S
C2691 C2690 1.415 . S
H2692 C2689 0.999 . S
H2693 C2674 0.913 . S
H2694 C2712 0.951 . S
H2695 C2714 0.951 . S
H2696 C2716 0.950 . S
H2697 C2717 0.950 . S
H2698 C2719 0.950 . S
H2699 C2722 0.950 . S
H2700 C2723 0.950 . S
H2701 C2725 0.950 . S
H2702 C2726 0.950 . S
H2703 C2727 0.951 . S
H2704 C2729 0.951 . S
H2705 C2731 0.950 . S
H2706 C2732 0.950 . S
H2707 C2734 0.950 . S
H2708 C2737 0.950 . S
H2709 C2738 0.950 . S
H2710 C2740 0.950 . S
H2711 C2741 0.950 . S
C2712 H2694 0.951 . S
C2712 C2713 1.366 . S
C2712 C2714 1.388 . S
C2713 C2712 1.366 . S
C2713 C2717 1.385 . S
C2714 H2695 0.951 . S
C2714 C2712 1.388 . S
C2714 C2715 1.366 . S
C2715 C2714 1.366 . S
C2715 C2716 1.414 . S
C2715 C2718 1.499 . S
C2716 H2696 0.950 . S
C2716 C2715 1.414 . S
C2716 C2717 1.374 . S
C2717 H2697 0.950 . S
C2717 C2713 1.385 . S
C2717 C2716 1.374 . S
C2718 C2715 1.499 . S
C2718 C2719 1.373 . S
C2718 C2720 1.389 . S
C2719 H2698 0.950 . S
C2719 C2718 1.373 . S
C2719 C2735 1.377 . S
C2720 C2718 1.389 . S
C2720 C2721 1.524 . S
C2720 C2734 1.377 . S
C2721 C2720 1.524 . S
C2721 C2722 1.397 . S
C2721 C2726 1.363 . S
C2722 H2699 0.950 . S
C2722 C2721 1.397 . S
C2722 C2723 1.334 . S
C2723 H2700 0.950 . S
C2723 C2722 1.334 . S
C2723 C2724 1.287 . S
C2724 C2723 1.287 . S
C2724 C2725 1.524 . S
C2724 H2743 0.913 . S
C2725 H2701 0.950 . S
C2725 C2724 1.524 . S
C2725 C2726 1.415 . S
C2726 H2702 0.950 . S
C2726 C2721 1.363 . S
C2726 C2725 1.415 . S
C2727 H2703 0.951 . S
C2727 C2728 1.366 . S
C2727 C2729 1.388 . S
C2728 C2727 1.366 . S
C2728 C2732 1.385 . S
C2729 H2704 0.951 . S
C2729 C2727 1.388 . S
C2729 C2730 1.366 . S
C2730 C2729 1.366 . S
C2730 C2731 1.414 . S
C2730 C2733 1.499 . S
C2731 H2705 0.950 . S
C2731 C2730 1.414 . S
C2731 C2732 1.374 . S
C2732 H2706 0.950 . S
C2732 C2728 1.385 . S
C2732 C2731 1.374 . S
C2733 C2730 1.499 . S
C2733 C2734 1.373 . S
C2733 C2735 1.389 . S
C2734 H2707 0.950 . S
C2734 C2720 1.377 . S
C2734 C2733 1.373 . S
C2735 C2719 1.377 . S
C2735 C2733 1.389 . S
C2735 C2736 1.524 . S
C2736 C2735 1.524 . S
C2736 C2737 1.397 . S
C2736 C2741 1.363 . S
C2737 H2708 0.950 . S
C2737 C2736 1.397 . S
C2737 C2738 1.334 . S
C2738 H2709 0.950 . S
C2738 C2737 1.334 . S
C2738 C2739 1.287 . S
C2739 C2738 1.287 . S
C2739 C2740 1.524 . S
C2739 H2742 0.999 . S
C2740 H2710 0.950 . S
C2740 C2739 1.524 . S
C2740 C2741 1.415 . S
C2741 H2711 0.950 . S
C2741 C2736 1.363 . S
C2741 C2740 1.415 . S
H2742 C2739 0.999 . S
H2743 C2724 0.913 . S
H2744 C2762 0.951 . S
H2745 C2764 0.951 . S
H2746 C2766 0.950 . S
H2747 C2767 0.950 . S
H2748 C2769 0.950 . S
H2749 C2772 0.950 . S
H2750 C2773 0.950 . S
H2751 C2775 0.950 . S
H2752 C2776 0.950 . S
H2753 C2777 0.951 . S
H2754 C2779 0.951 . S
H2755 C2781 0.950 . S
H2756 C2782 0.950 . S
H2757 C2784 0.950 . S
H2758 C2787 0.950 . S
H2759 C2788 0.950 . S
H2760 C2790 0.950 . S
H2761 C2791 0.950 . S
C2762 H2744 0.951 . S
C2762 C2763 1.366 . S
C2762 C2764 1.388 . S
C2763 C2762 1.366 . S
C2763 C2767 1.385 . S
C2764 H2745 0.951 . S
C2764 C2762 1.388 . S
C2764 C2765 1.366 . S
C2765 C2764 1.366 . S
C2765 C2766 1.414 . S
C2765 C2768 1.499 . S
C2766 H2746 0.950 . S
C2766 C2765 1.414 . S
C2766 C2767 1.374 . S
C2767 H2747 0.950 . S
C2767 C2763 1.385 . S
C2767 C2766 1.374 . S
C2768 C2765 1.499 . S
C2768 C2769 1.373 . S
C2768 C2770 1.389 . S
C2769 H2748 0.950 . S
C2769 C2768 1.373 . S
C2769 C2785 1.377 . S
C2770 C2768 1.389 . S
C2770 C2771 1.524 . S
C2770 C2784 1.377 . S
C2771 C2770 1.524 . S
C2771 C2772 1.397 . S
C2771 C2776 1.363 . S
C2772 H2749 0.950 . S
C2772 C2771 1.397 . S
C2772 C2773 1.334 . S
C2773 H2750 0.950 . S
C2773 C2772 1.334 . S
C2773 C2774 1.287 . S
C2774 C2773 1.287 . S
C2774 C2775 1.524 . S
C2774 H2793 0.913 . S
C2775 H2751 0.950 . S
C2775 C2774 1.524 . S
C2775 C2776 1.415 . S
C2776 H2752 0.950 . S
C2776 C2771 1.363 . S
C2776 C2775 1.415 . S
C2777 H2753 0.951 . S
C2777 C2778 1.366 . S
C2777 C2779 1.388 . S
C2778 C2777 1.366 . S
C2778 C2782 1.385 . S
C2779 H2754 0.951 . S
C2779 C2777 1.388 . S
C2779 C2780 1.366 . S
C2780 C2779 1.366 . S
C2780 C2781 1.414 . S
C2780 C2783 1.499 . S
C2781 H2755 0.950 . S
C2781 C2780 1.414 . S
C2781 C2782 1.374 . S
C2782 H2756 0.950 . S
C2782 C2778 1.385 . S
C2782 C2781 1.374 . S
C2783 C2780 1.499 . S
C2783 C2784 1.373 . S
C2783 C2785 1.389 . S
C2784 H2757 0.950 . S
C2784 C2770 1.377 . S
C2784 C2783 1.373 . S
C2785 C2769 1.377 . S
C2785 C2783 1.389 . S
C2785 C2786 1.524 . S
C2786 C2785 1.524 . S
C2786 C2787 1.397 . S
C2786 C2791 1.363 . S
C2787 H2758 0.950 . S
C2787 C2786 1.397 . S
C2787 C2788 1.334 . S
C2788 H2759 0.950 . S
C2788 C2787 1.334 . S
C2788 C2789 1.287 . S
C2789 C2788 1.287 . S
C2789 C2790 1.524 . S
C2789 H2792 0.999 . S
C2790 H2760 0.950 . S
C2790 C2789 1.524 . S
C2790 C2791 1.415 . S
C2791 H2761 0.950 . S
C2791 C2786 1.363 . S
C2791 C2790 1.415 . S
H2792 C2789 0.999 . S
H2793 C2774 0.913 . S
H2794 C2812 0.951 . S
H2795 C2814 0.951 . S
H2796 C2816 0.950 . S
H2797 C2817 0.950 . S
H2798 C2819 0.950 . S
H2799 C2822 0.950 . S
H2800 C2823 0.950 . S
H2801 C2825 0.950 . S
H2802 C2826 0.950 . S
H2803 C2827 0.951 . S
H2804 C2829 0.951 . S
H2805 C2831 0.950 . S
H2806 C2832 0.950 . S
H2807 C2834 0.950 . S
H2808 C2837 0.950 . S
H2809 C2838 0.950 . S
H2810 C2840 0.950 . S
H2811 C2841 0.950 . S
C2812 H2794 0.951 . S
C2812 C2813 1.366 . S
C2812 C2814 1.388 . S
C2813 C2812 1.366 . S
C2813 C2817 1.385 . S
C2814 H2795 0.951 . S
C2814 C2812 1.388 . S
C2814 C2815 1.366 . S
C2815 C2814 1.366 . S
C2815 C2816 1.414 . S
C2815 C2818 1.499 . S
C2816 H2796 0.950 . S
C2816 C2815 1.414 . S
C2816 C2817 1.374 . S
C2817 H2797 0.950 . S
C2817 C2813 1.385 . S
C2817 C2816 1.374 . S
C2818 C2815 1.499 . S
C2818 C2819 1.373 . S
C2818 C2820 1.389 . S
C2819 H2798 0.950 . S
C2819 C2818 1.373 . S
C2819 C2835 1.377 . S
C2820 C2818 1.389 . S
C2820 C2821 1.524 . S
C2820 C2834 1.377 . S
C2821 C2820 1.524 . S
C2821 C2822 1.397 . S
C2821 C2826 1.363 . S
C2822 H2799 0.950 . S
C2822 C2821 1.397 . S
C2822 C2823 1.334 . S
C2823 H2800 0.950 . S
C2823 C2822 1.334 . S
C2823 C2824 1.287 . S
C2824 C2823 1.287 . S
C2824 C2825 1.524 . S
C2824 H2843 0.913 . S
C2825 H2801 0.950 . S
C2825 C2824 1.524 . S
C2825 C2826 1.415 . S
C2826 H2802 0.950 . S
C2826 C2821 1.363 . S
C2826 C2825 1.415 . S
C2827 H2803 0.951 . S
C2827 C2828 1.366 . S
C2827 C2829 1.388 . S
C2828 C2827 1.366 . S
C2828 C2832 1.385 . S
C2829 H2804 0.951 . S
C2829 C2827 1.388 . S
C2829 C2830 1.366 . S
C2830 C2829 1.366 . S
C2830 C2831 1.414 . S
C2830 C2833 1.499 . S
C2831 H2805 0.950 . S
C2831 C2830 1.414 . S
C2831 C2832 1.374 . S
C2832 H2806 0.950 . S
C2832 C2828 1.385 . S
C2832 C2831 1.374 . S
C2833 C2830 1.499 . S
C2833 C2834 1.373 . S
C2833 C2835 1.389 . S
C2834 H2807 0.950 . S
C2834 C2820 1.377 . S
C2834 C2833 1.373 . S
C2835 C2819 1.377 . S
C2835 C2833 1.389 . S
C2835 C2836 1.524 . S
C2836 C2835 1.524 . S
C2836 C2837 1.397 . S
C2836 C2841 1.363 . S
C2837 H2808 0.950 . S
C2837 C2836 1.397 . S
C2837 C2838 1.334 . S
C2838 H2809 0.950 . S
C2838 C2837 1.334 . S
C2838 C2839 1.287 . S
C2839 C2838 1.287 . S
C2839 C2840 1.524 . S
C2839 H2842 0.999 . S
C2840 H2810 0.950 . S
C2840 C2839 1.524 . S
C2840 C2841 1.415 . S
C2841 H2811 0.950 . S
C2841 C2836 1.363 . S
C2841 C2840 1.415 . S
H2842 C2839 0.999 . S
H2843 C2824 0.913 . S
H2844 C2862 0.951 . S
H2845 C2864 0.951 . S
H2846 C2866 0.950 . S
H2847 C2867 0.950 . S
H2848 C2869 0.950 . S
H2849 C2872 0.950 . S
H2850 C2873 0.950 . S
H2851 C2875 0.950 . S
H2852 C2876 0.950 . S
H2853 C2877 0.951 . S
H2854 C2879 0.951 . S
H2855 C2881 0.950 . S
H2856 C2882 0.950 . S
H2857 C2884 0.950 . S
H2858 C2887 0.950 . S
H2859 C2888 0.950 . S
H2860 C2890 0.950 . S
H2861 C2891 0.950 . S
C2862 H2844 0.951 . S
C2862 C2863 1.366 . S
C2862 C2864 1.388 . S
C2863 C2862 1.366 . S
C2863 C2867 1.385 . S
C2864 H2845 0.951 . S
C2864 C2862 1.388 . S
C2864 C2865 1.366 . S
C2865 C2864 1.366 . S
C2865 C2866 1.414 . S
C2865 C2868 1.499 . S
C2866 H2846 0.950 . S
C2866 C2865 1.414 . S
C2866 C2867 1.374 . S
C2867 H2847 0.950 . S
C2867 C2863 1.385 . S
C2867 C2866 1.374 . S
C2868 C2865 1.499 . S
C2868 C2869 1.373 . S
C2868 C2870 1.389 . S
C2869 H2848 0.950 . S
C2869 C2868 1.373 . S
C2869 C2885 1.377 . S
C2870 C2868 1.389 . S
C2870 C2871 1.524 . S
C2870 C2884 1.377 . S
C2871 C2870 1.524 . S
C2871 C2872 1.397 . S
C2871 C2876 1.363 . S
C2872 H2849 0.950 . S
C2872 C2871 1.397 . S
C2872 C2873 1.334 . S
C2873 H2850 0.950 . S
C2873 C2872 1.334 . S
C2873 C2874 1.287 . S
C2874 C2873 1.287 . S
C2874 C2875 1.524 . S
C2874 H2893 0.913 . S
C2875 H2851 0.950 . S
C2875 C2874 1.524 . S
C2875 C2876 1.415 . S
C2876 H2852 0.950 . S
C2876 C2871 1.363 . S
C2876 C2875 1.415 . S
C2877 H2853 0.951 . S
C2877 C2878 1.366 . S
C2877 C2879 1.388 . S
C2878 C2877 1.366 . S
C2878 C2882 1.385 . S
C2879 H2854 0.951 . S
C2879 C2877 1.388 . S
C2879 C2880 1.366 . S
C2880 C2879 1.366 . S
C2880 C2881 1.414 . S
C2880 C2883 1.499 . S
C2881 H2855 0.950 . S
C2881 C2880 1.414 . S
C2881 C2882 1.374 . S
C2882 H2856 0.950 . S
C2882 C2878 1.385 . S
C2882 C2881 1.374 . S
C2883 C2880 1.499 . S
C2883 C2884 1.373 . S
C2883 C2885 1.389 . S
C2884 H2857 0.950 . S
C2884 C2870 1.377 . S
C2884 C2883 1.373 . S
C2885 C2869 1.377 . S
C2885 C2883 1.389 . S
C2885 C2886 1.524 . S
C2886 C2885 1.524 . S
C2886 C2887 1.397 . S
C2886 C2891 1.363 . S
C2887 H2858 0.950 . S
C2887 C2886 1.397 . S
C2887 C2888 1.334 . S
C2888 H2859 0.950 . S
C2888 C2887 1.334 . S
C2888 C2889 1.287 . S
C2889 C2888 1.287 . S
C2889 C2890 1.524 . S
C2889 H2892 0.999 . S
C2890 H2860 0.950 . S
C2890 C2889 1.524 . S
C2890 C2891 1.415 . S
C2891 H2861 0.950 . S
C2891 C2886 1.363 . S
C2891 C2890 1.415 . S
H2892 C2889 0.999 . S
H2893 C2874 0.913 . S
H2894 C2912 0.951 . S
H2895 C2914 0.951 . S
H2896 C2916 0.950 . S
H2897 C2917 0.950 . S
H2898 C2919 0.950 . S
H2899 C2922 0.950 . S
H2900 C2923 0.950 . S
H2901 C2925 0.950 . S
H2902 C2926 0.950 . S
H2903 C2927 0.951 . S
H2904 C2929 0.951 . S
H2905 C2931 0.950 . S
H2906 C2932 0.950 . S
H2907 C2934 0.950 . S
H2908 C2937 0.950 . S
H2909 C2938 0.950 . S
H2910 C2940 0.950 . S
H2911 C2941 0.950 . S
C2912 H2894 0.951 . S
C2912 C2913 1.366 1_455 S
C2912 C2914 1.388 . S
C2913 C2912 1.366 1_655 S
C2913 C2917 1.385 . S
C2914 H2895 0.951 . S
C2914 C2912 1.388 . S
C2914 C2915 1.366 1_455 S
C2915 C2914 1.366 1_655 S
C2915 C2916 1.414 . S
C2915 C2918 1.499 . S
C2916 H2896 0.950 . S
C2916 C2915 1.414 . S
C2916 C2917 1.374 . S
C2917 H2897 0.950 . S
C2917 C2913 1.385 . S
C2917 C2916 1.374 . S
C2918 C2915 1.499 . S
C2918 C2919 1.373 . S
C2918 C2920 1.373 1_656 S
C2919 H2898 0.950 . S
C2919 C2918 1.373 . S
C2919 C2935 1.395 . S
C2920 C2918 1.373 1_454 S
C2920 C2921 1.523 . S
C2920 C2934 1.395 . S
C2921 C2920 1.523 . S
C2921 C2922 1.397 1_554 S
C2921 C2926 1.363 . S
C2922 H2899 0.950 . S
C2922 C2921 1.397 1_556 S
C2922 C2923 1.334 . S
C2923 H2900 0.950 . S
C2923 C2922 1.334 . S
C2923 C2924 1.287 . S
C2924 C2923 1.287 . S
C2924 C2925 1.524 1_556 S
C2924 H2943 0.913 . S
C2925 H2901 0.950 . S
C2925 C2924 1.524 1_554 S
C2925 C2926 1.415 . S
C2926 H2902 0.950 . S
C2926 C2921 1.363 . S
C2926 C2925 1.415 . S
C2927 H2903 0.951 . S
C2927 C2928 1.366 . S
C2927 C2929 1.388 . S
C2928 C2927 1.366 . S
C2928 C2932 1.385 1_655 S
C2929 H2904 0.951 . S
C2929 C2927 1.388 . S
C2929 C2930 1.366 . S
C2930 C2929 1.366 . S
C2930 C2931 1.414 1_655 S
C2930 C2933 1.499 . S
C2931 H2905 0.950 . S
C2931 C2930 1.414 1_455 S
C2931 C2932 1.374 . S
C2932 H2906 0.950 . S
C2932 C2928 1.385 1_455 S
C2932 C2931 1.374 . S
C2933 C2930 1.499 . S
C2933 C2934 1.373 1_655 S
C2933 C2935 1.373 1_554 S
C2934 H2907 0.950 . S
C2934 C2920 1.395 . S
C2934 C2933 1.373 1_455 S
C2935 C2919 1.395 . S
C2935 C2933 1.373 1_556 S
C2935 C2936 1.523 . S
C2936 C2935 1.523 . S
C2936 C2937 1.397 1_556 S
C2936 C2941 1.363 . S
C2937 H2908 0.950 . S
C2937 C2936 1.397 1_554 S
C2937 C2938 1.334 . S
C2938 H2909 0.950 . S
C2938 C2937 1.334 . S
C2938 C2939 1.287 . S
C2939 C2938 1.287 . S
C2939 C2940 1.524 1_554 S
C2939 H2942 0.999 . S
C2940 H2910 0.950 . S
C2940 C2939 1.524 1_556 S
C2940 C2941 1.415 . S
C2941 H2911 0.950 . S
C2941 C2936 1.363 . S
C2941 C2940 1.415 . S
H2942 C2939 0.999 . S
H2943 C2924 0.913 . S
H2944 C2962 0.951 . S
H2945 C2964 0.951 . S
H2946 C2966 0.950 . S
H2947 C2967 0.950 . S
H2948 C2969 0.950 . S
H2949 C2972 0.950 . S
H2950 C2973 0.950 . S
H2951 C2975 0.950 . S
H2952 C2976 0.950 . S
H2953 C2977 0.951 . S
H2954 C2979 0.951 . S
H2955 C2981 0.950 . S
H2956 C2982 0.950 . S
H2957 C2984 0.950 . S
H2958 C2987 0.950 . S
H2959 C2988 0.950 . S
H2960 C2990 0.950 . S
H2961 C2991 0.950 . S
C2962 H2944 0.951 . S
C2962 C2963 1.366 . S
C2962 C2964 1.388 . S
C2963 C2962 1.366 . S
C2963 C2967 1.385 . S
C2964 H2945 0.951 . S
C2964 C2962 1.388 . S
C2964 C2965 1.366 . S
C2965 C2964 1.366 . S
C2965 C2966 1.414 . S
C2965 C2968 1.499 . S
C2966 H2946 0.950 . S
C2966 C2965 1.414 . S
C2966 C2967 1.374 . S
C2967 H2947 0.950 . S
C2967 C2963 1.385 . S
C2967 C2966 1.374 . S
C2968 C2965 1.499 . S
C2968 C2969 1.373 . S
C2968 C2970 1.389 . S
C2969 H2948 0.950 . S
C2969 C2968 1.373 . S
C2969 C2985 1.377 . S
C2970 C2968 1.389 . S
C2970 C2971 1.524 . S
C2970 C2984 1.377 . S
C2971 C2970 1.524 . S
C2971 C2972 1.397 . S
C2971 C2976 1.363 . S
C2972 H2949 0.950 . S
C2972 C2971 1.397 . S
C2972 C2973 1.334 . S
C2973 H2950 0.950 . S
C2973 C2972 1.334 . S
C2973 C2974 1.287 . S
C2974 C2973 1.287 . S
C2974 C2975 1.524 . S
C2974 H2993 0.913 . S
C2975 H2951 0.950 . S
C2975 C2974 1.524 . S
C2975 C2976 1.415 . S
C2976 H2952 0.950 . S
C2976 C2971 1.363 . S
C2976 C2975 1.415 . S
C2977 H2953 0.951 . S
C2977 C2978 1.366 . S
C2977 C2979 1.388 . S
C2978 C2977 1.366 . S
C2978 C2982 1.385 . S
C2979 H2954 0.951 . S
C2979 C2977 1.388 . S
C2979 C2980 1.366 . S
C2980 C2979 1.366 . S
C2980 C2981 1.414 . S
C2980 C2983 1.499 . S
C2981 H2955 0.950 . S
C2981 C2980 1.414 . S
C2981 C2982 1.374 . S
C2982 H2956 0.950 . S
C2982 C2978 1.385 . S
C2982 C2981 1.374 . S
C2983 C2980 1.499 . S
C2983 C2984 1.373 . S
C2983 C2985 1.389 . S
C2984 H2957 0.950 . S
C2984 C2970 1.377 . S
C2984 C2983 1.373 . S
C2985 C2969 1.377 . S
C2985 C2983 1.389 . S
C2985 C2986 1.524 . S
C2986 C2985 1.524 . S
C2986 C2987 1.397 . S
C2986 C2991 1.363 . S
C2987 H2958 0.950 . S
C2987 C2986 1.397 . S
C2987 C2988 1.334 . S
C2988 H2959 0.950 . S
C2988 C2987 1.334 . S
C2988 C2989 1.287 . S
C2989 C2988 1.287 . S
C2989 C2990 1.524 . S
C2989 H2992 0.999 . S
C2990 H2960 0.950 . S
C2990 C2989 1.524 . S
C2990 C2991 1.415 . S
C2991 H2961 0.950 . S
C2991 C2986 1.363 . S
C2991 C2990 1.415 . S
H2992 C2989 0.999 . S
H2993 C2974 0.913 . S
H2994 C3012 0.951 . S
H2995 C3014 0.951 . S
H2996 C3016 0.950 . S
H2997 C3017 0.950 . S
H2998 C3019 0.950 . S
H2999 C3022 0.950 . S
H3000 C3023 0.950 . S
H3001 C3025 0.950 . S
H3002 C3026 0.950 . S
H3003 C3027 0.951 . S
H3004 C3029 0.951 . S
H3005 C3031 0.950 . S
H3006 C3032 0.950 . S
H3007 C3034 0.950 . S
H3008 C3037 0.950 . S
H3009 C3038 0.950 . S
H3010 C3040 0.950 . S
H3011 C3041 0.950 . S
C3012 H2994 0.951 . S
C3012 C3013 1.366 . S
C3012 C3014 1.388 . S
C3013 C3012 1.366 . S
C3013 C3017 1.385 . S
C3014 H2995 0.951 . S
C3014 C3012 1.388 . S
C3014 C3015 1.366 . S
C3015 C3014 1.366 . S
C3015 C3016 1.414 . S
C3015 C3018 1.499 . S
C3016 H2996 0.950 . S
C3016 C3015 1.414 . S
C3016 C3017 1.374 . S
C3017 H2997 0.950 . S
C3017 C3013 1.385 . S
C3017 C3016 1.374 . S
C3018 C3015 1.499 . S
C3018 C3019 1.373 . S
C3018 C3020 1.389 . S
C3019 H2998 0.950 . S
C3019 C3018 1.373 . S
C3019 C3035 1.377 . S
C3020 C3018 1.389 . S
C3020 C3021 1.524 . S
C3020 C3034 1.377 . S
C3021 C3020 1.524 . S
C3021 C3022 1.397 . S
C3021 C3026 1.363 . S
C3022 H2999 0.950 . S
C3022 C3021 1.397 . S
C3022 C3023 1.334 . S
C3023 H3000 0.950 . S
C3023 C3022 1.334 . S
C3023 C3024 1.287 . S
C3024 C3023 1.287 . S
C3024 C3025 1.524 . S
C3024 H3043 0.913 . S
C3025 H3001 0.950 . S
C3025 C3024 1.524 . S
C3025 C3026 1.415 . S
C3026 H3002 0.950 . S
C3026 C3021 1.363 . S
C3026 C3025 1.415 . S
C3027 H3003 0.951 . S
C3027 C3028 1.366 . S
C3027 C3029 1.388 . S
C3028 C3027 1.366 . S
C3028 C3032 1.385 . S
C3029 H3004 0.951 . S
C3029 C3027 1.388 . S
C3029 C3030 1.366 . S
C3030 C3029 1.366 . S
C3030 C3031 1.414 . S
C3030 C3033 1.499 . S
C3031 H3005 0.950 . S
C3031 C3030 1.414 . S
C3031 C3032 1.374 . S
C3032 H3006 0.950 . S
C3032 C3028 1.385 . S
C3032 C3031 1.374 . S
C3033 C3030 1.499 . S
C3033 C3034 1.373 . S
C3033 C3035 1.389 . S
C3034 H3007 0.950 . S
C3034 C3020 1.377 . S
C3034 C3033 1.373 . S
C3035 C3019 1.377 . S
C3035 C3033 1.389 . S
C3035 C3036 1.524 . S
C3036 C3035 1.524 . S
C3036 C3037 1.397 . S
C3036 C3041 1.363 . S
C3037 H3008 0.950 . S
C3037 C3036 1.397 . S
C3037 C3038 1.334 . S
C3038 H3009 0.950 . S
C3038 C3037 1.334 . S
C3038 C3039 1.287 . S
C3039 C3038 1.287 . S
C3039 C3040 1.524 . S
C3039 H3042 0.999 . S
C3040 H3010 0.950 . S
C3040 C3039 1.524 . S
C3040 C3041 1.415 . S
C3041 H3011 0.950 . S
C3041 C3036 1.363 . S
C3041 C3040 1.415 . S
H3042 C3039 0.999 . S
H3043 C3024 0.913 . S
H3044 C3062 0.951 . S
H3045 C3064 0.951 . S
H3046 C3066 0.950 . S
H3047 C3067 0.950 . S
H3048 C3069 0.950 . S
H3049 C3072 0.950 . S
H3050 C3073 0.950 . S
H3051 C3075 0.950 . S
H3052 C3076 0.950 . S
H3053 C3077 0.951 . S
H3054 C3079 0.951 . S
H3055 C3081 0.950 . S
H3056 C3082 0.950 . S
H3057 C3084 0.950 . S
H3058 C3087 0.950 . S
H3059 C3088 0.950 . S
H3060 C3090 0.950 . S
H3061 C3091 0.950 . S
C3062 H3044 0.951 . S
C3062 C3063 1.366 . S
C3062 C3064 1.388 . S
C3063 C3062 1.366 . S
C3063 C3067 1.385 . S
C3064 H3045 0.951 . S
C3064 C3062 1.388 . S
C3064 C3065 1.366 . S
C3065 C3064 1.366 . S
C3065 C3066 1.414 . S
C3065 C3068 1.499 . S
C3066 H3046 0.950 . S
C3066 C3065 1.414 . S
C3066 C3067 1.374 . S
C3067 H3047 0.950 . S
C3067 C3063 1.385 . S
C3067 C3066 1.374 . S
C3068 C3065 1.499 . S
C3068 C3069 1.373 . S
C3068 C3070 1.389 . S
C3069 H3048 0.950 . S
C3069 C3068 1.373 . S
C3069 C3085 1.377 . S
C3070 C3068 1.389 . S
C3070 C3071 1.524 . S
C3070 C3084 1.377 . S
C3071 C3070 1.524 . S
C3071 C3072 1.397 . S
C3071 C3076 1.363 . S
C3072 H3049 0.950 . S
C3072 C3071 1.397 . S
C3072 C3073 1.334 . S
C3073 H3050 0.950 . S
C3073 C3072 1.334 . S
C3073 C3074 1.287 . S
C3074 C3073 1.287 . S
C3074 C3075 1.524 . S
C3074 H3093 0.913 1_556 S
C3075 H3051 0.950 . S
C3075 C3074 1.524 . S
C3075 C3076 1.415 . S
C3076 H3052 0.950 . S
C3076 C3071 1.363 . S
C3076 C3075 1.415 . S
C3077 H3053 0.951 . S
C3077 C3078 1.366 . S
C3077 C3079 1.388 . S
C3078 C3077 1.366 . S
C3078 C3082 1.385 . S
C3079 H3054 0.951 . S
C3079 C3077 1.388 . S
C3079 C3080 1.366 . S
C3080 C3079 1.366 . S
C3080 C3081 1.414 . S
C3080 C3083 1.499 . S
C3081 H3055 0.950 . S
C3081 C3080 1.414 . S
C3081 C3082 1.374 . S
C3082 H3056 0.950 . S
C3082 C3078 1.385 . S
C3082 C3081 1.374 . S
C3083 C3080 1.499 . S
C3083 C3084 1.373 . S
C3083 C3085 1.389 . S
C3084 H3057 0.950 . S
C3084 C3070 1.377 . S
C3084 C3083 1.373 . S
C3085 C3069 1.377 . S
C3085 C3083 1.389 . S
C3085 C3086 1.524 . S
C3086 C3085 1.524 . S
C3086 C3087 1.397 . S
C3086 C3091 1.363 . S
C3087 H3058 0.950 . S
C3087 C3086 1.397 . S
C3087 C3088 1.334 . S
C3088 H3059 0.950 . S
C3088 C3087 1.334 . S
C3088 C3089 1.287 . S
C3089 C3088 1.287 . S
C3089 C3090 1.524 . S
C3089 H3092 0.999 . S
C3090 H3060 0.950 . S
C3090 C3089 1.524 . S
C3090 C3091 1.415 . S
C3091 H3061 0.950 . S
C3091 C3086 1.363 . S
C3091 C3090 1.415 . S
H3092 C3089 0.999 . S
H3093 C3074 0.913 1_554 S
H3094 C3112 0.951 . S
H3095 C3114 0.951 . S
H3096 C3116 0.950 . S
H3097 C3117 0.950 . S
H3098 C3119 0.950 . S
H3099 C3122 0.950 . S
H3100 C3123 0.950 . S
H3101 C3125 0.950 . S
H3102 C3126 0.950 . S
H3103 C3127 0.951 . S
H3104 C3129 0.951 . S
H3105 C3131 0.950 . S
H3106 C3132 0.950 . S
H3107 C3134 0.950 . S
H3108 C3137 0.950 . S
H3109 C3138 0.950 . S
H3110 C3140 0.950 . S
H3111 C3141 0.950 . S
C3112 H3094 0.951 . S
C3112 C3113 1.366 . S
C3112 C3114 1.388 . S
C3113 C3112 1.366 . S
C3113 C3117 1.385 . S
C3114 H3095 0.951 . S
C3114 C3112 1.388 . S
C3114 C3115 1.366 . S
C3115 C3114 1.366 . S
C3115 C3116 1.414 . S
C3115 C3118 1.499 . S
C3116 H3096 0.950 . S
C3116 C3115 1.414 . S
C3116 C3117 1.374 . S
C3117 H3097 0.950 . S
C3117 C3113 1.385 . S
C3117 C3116 1.374 . S
C3118 C3115 1.499 . S
C3118 C3119 1.373 . S
C3118 C3120 1.389 . S
C3119 H3098 0.950 . S
C3119 C3118 1.373 . S
C3119 C3135 1.377 . S
C3120 C3118 1.389 . S
C3120 C3121 1.524 . S
C3120 C3134 1.377 . S
C3121 C3120 1.524 . S
C3121 C3122 1.397 . S
C3121 C3126 1.363 . S
C3122 H3099 0.950 . S
C3122 C3121 1.397 . S
C3122 C3123 1.334 . S
C3123 H3100 0.950 . S
C3123 C3122 1.334 . S
C3123 C3124 1.287 . S
C3124 C3123 1.287 . S
C3124 C3125 1.524 . S
C3124 H3143 0.913 . S
C3125 H3101 0.950 . S
C3125 C3124 1.524 . S
C3125 C3126 1.415 . S
C3126 H3102 0.950 . S
C3126 C3121 1.363 . S
C3126 C3125 1.415 . S
C3127 H3103 0.951 . S
C3127 C3128 1.366 . S
C3127 C3129 1.388 . S
C3128 C3127 1.366 . S
C3128 C3132 1.385 . S
C3129 H3104 0.951 . S
C3129 C3127 1.388 . S
C3129 C3130 1.366 . S
C3130 C3129 1.366 . S
C3130 C3131 1.414 . S
C3130 C3133 1.499 . S
C3131 H3105 0.950 . S
C3131 C3130 1.414 . S
C3131 C3132 1.374 . S
C3132 H3106 0.950 . S
C3132 C3128 1.385 . S
C3132 C3131 1.374 . S
C3133 C3130 1.499 . S
C3133 C3134 1.373 . S
C3133 C3135 1.389 . S
C3134 H3107 0.950 . S
C3134 C3120 1.377 . S
C3134 C3133 1.373 . S
C3135 C3119 1.377 . S
C3135 C3133 1.389 . S
C3135 C3136 1.524 . S
C3136 C3135 1.524 . S
C3136 C3137 1.397 . S
C3136 C3141 1.363 . S
C3137 H3108 0.950 . S
C3137 C3136 1.397 . S
C3137 C3138 1.334 . S
C3138 H3109 0.950 . S
C3138 C3137 1.334 . S
C3138 C3139 1.287 . S
C3139 C3138 1.287 . S
C3139 C3140 1.524 . S
C3139 H3142 0.999 . S
C3140 H3110 0.950 . S
C3140 C3139 1.524 . S
C3140 C3141 1.415 . S
C3141 H3111 0.950 . S
C3141 C3136 1.363 . S
C3141 C3140 1.415 . S
H3142 C3139 0.999 . S
H3143 C3124 0.913 . S
H3144 C3162 0.951 . S
H3145 C3164 0.951 . S
H3146 C3166 0.950 . S
H3147 C3167 0.950 . S
H3148 C3169 0.950 . S
H3149 C3172 0.950 . S
H3150 C3173 0.950 . S
H3151 C3175 0.950 . S
H3152 C3176 0.950 . S
H3153 C3177 0.951 1_455 S
H3154 C3179 0.951 . S
H3155 C3181 0.950 . S
H3156 C3182 0.950 . S
H3157 C3184 0.950 . S
H3158 C3187 0.950 1_655 S
H3159 C3188 0.950 . S
H3160 C3190 0.950 . S
H3161 C3191 0.966 . S
C3162 H3144 0.951 . S
C3162 C3163 1.366 . S
C3162 C3164 1.388 . S
C3163 C3162 1.366 . S
C3163 C3167 1.385 . S
C3164 H3145 0.951 . S
C3164 C3162 1.388 . S
C3164 C3165 1.366 . S
C3165 C3164 1.366 . S
C3165 C3166 1.414 . S
C3165 C3168 1.499 . S
C3166 H3146 0.950 . S
C3166 C3165 1.414 . S
C3166 C3167 1.374 . S
C3167 H3147 0.950 . S
C3167 C3163 1.385 . S
C3167 C3166 1.374 . S
C3168 C3165 1.499 . S
C3168 C3169 1.373 . S
C3168 C3170 1.389 . S
C3169 H3148 0.950 . S
C3169 C3168 1.373 . S
C3169 C3185 1.377 . S
C3170 C3168 1.389 . S
C3170 C3171 1.524 . S
C3170 C3184 1.377 . S
C3171 C3170 1.524 . S
C3171 C3172 1.397 . S
C3171 C3176 1.363 . S
C3172 H3149 0.950 . S
C3172 C3171 1.397 . S
C3172 C3173 1.334 . S
C3173 H3150 0.950 . S
C3173 C3172 1.334 . S
C3173 C3174 1.287 . S
C3174 C3173 1.287 . S
C3174 C3175 1.524 . S
C3174 H3193 0.913 . S
C3175 H3151 0.950 . S
C3175 C3174 1.524 . S
C3175 C3176 1.415 . S
C3176 H3152 0.950 . S
C3176 C3171 1.363 . S
C3176 C3175 1.415 . S
C3177 H3153 0.951 1_655 S
C3177 C3178 1.366 . S
C3177 C3179 1.388 . S
C3178 C3177 1.366 . S
C3178 C3182 1.385 . S
C3179 H3154 0.951 . S
C3179 C3177 1.388 . S
C3179 C3180 1.366 . S
C3180 C3179 1.366 . S
C3180 C3181 1.414 . S
C3180 C3183 1.499 . S
C3181 H3155 0.950 . S
C3181 C3180 1.414 . S
C3181 C3182 1.374 . S
C3182 H3156 0.950 . S
C3182 C3178 1.385 . S
C3182 C3181 1.374 . S
C3183 C3180 1.499 . S
C3183 C3184 1.373 . S
C3183 C3185 1.389 . S
C3184 H3157 0.950 . S
C3184 C3170 1.377 . S
C3184 C3183 1.373 . S
C3185 C3169 1.377 . S
C3185 C3183 1.389 . S
C3185 C3186 1.524 . S
C3186 C3185 1.524 . S
C3186 C3187 1.397 1_655 S
C3186 C3191 1.363 1_655 S
C3187 H3158 0.950 1_455 S
C3187 C3186 1.397 1_455 S
C3187 C3188 1.334 . S
C3188 H3159 0.950 . S
C3188 C3187 1.334 . S
C3188 C3189 1.287 . S
C3189 C3188 1.287 . S
C3189 C3190 1.524 . S
C3189 H3192 0.999 . S
C3190 H3160 0.950 . S
C3190 C3189 1.524 . S
C3190 C3191 1.415 . S
C3191 H3161 0.966 . S
C3191 C3186 1.363 1_455 S
C3191 C3190 1.415 . S
H3192 C3189 0.999 . S
H3193 C3174 0.913 . S
H3194 C3212 0.951 . S
H3195 C3214 0.951 . S
H3196 C3216 0.950 . S
H3197 C3217 0.950 . S
H3198 C3219 0.950 . S
H3199 C3222 0.950 . S
H3200 C3223 0.950 . S
H3201 C3225 0.950 . S
H3202 C3226 0.950 . S
H3203 C3227 0.951 . S
H3204 C3229 0.951 . S
H3205 C3231 0.950 . S
H3206 C3232 0.950 . S
H3207 C3234 0.950 . S
H3208 C3237 0.950 . S
H3209 C3238 0.950 . S
H3210 C3240 0.950 . S
H3211 C3241 0.950 . S
C3212 H3194 0.951 . S
C3212 C3213 1.366 . S
C3212 C3214 1.388 . S
C3213 C3212 1.366 . S
C3213 C3217 1.385 . S
C3214 H3195 0.951 . S
C3214 C3212 1.388 . S
C3214 C3215 1.366 . S
C3215 C3214 1.366 . S
C3215 C3216 1.414 . S
C3215 C3218 1.499 . S
C3216 H3196 0.950 . S
C3216 C3215 1.414 . S
C3216 C3217 1.374 . S
C3217 H3197 0.950 . S
C3217 C3213 1.385 . S
C3217 C3216 1.374 . S
C3218 C3215 1.499 . S
C3218 C3219 1.373 . S
C3218 C3220 1.389 . S
C3219 H3198 0.950 . S
C3219 C3218 1.373 . S
C3219 C3235 1.377 . S
C3220 C3218 1.389 . S
C3220 C3221 1.524 . S
C3220 C3234 1.377 . S
C3221 C3220 1.524 . S
C3221 C3222 1.397 . S
C3221 C3226 1.363 . S
C3222 H3199 0.950 . S
C3222 C3221 1.397 . S
C3222 C3223 1.334 . S
C3223 H3200 0.950 . S
C3223 C3222 1.334 . S
C3223 C3224 1.287 . S
C3224 C3223 1.287 . S
C3224 C3225 1.524 . S
C3224 H3243 0.913 1_655 S
C3225 H3201 0.950 . S
C3225 C3224 1.524 . S
C3225 C3226 1.415 . S
C3226 H3202 0.950 . S
C3226 C3221 1.363 . S
C3226 C3225 1.415 . S
C3227 H3203 0.951 . S
C3227 C3228 1.366 . S
C3227 C3229 1.388 . S
C3228 C3227 1.366 . S
C3228 C3232 1.385 . S
C3229 H3204 0.951 . S
C3229 C3227 1.388 . S
C3229 C3230 1.366 . S
C3230 C3229 1.366 . S
C3230 C3231 1.414 . S
C3230 C3233 1.499 . S
C3231 H3205 0.950 . S
C3231 C3230 1.414 . S
C3231 C3232 1.374 . S
C3232 H3206 0.950 . S
C3232 C3228 1.385 . S
C3232 C3231 1.374 . S
C3233 C3230 1.499 . S
C3233 C3234 1.373 . S
C3233 C3235 1.389 . S
C3234 H3207 0.950 . S
C3234 C3220 1.377 . S
C3234 C3233 1.373 . S
C3235 C3219 1.377 . S
C3235 C3233 1.389 . S
C3235 C3236 1.524 . S
C3236 C3235 1.524 . S
C3236 C3237 1.397 . S
C3236 C3241 1.363 . S
C3237 H3208 0.950 . S
C3237 C3236 1.397 . S
C3237 C3238 1.334 . S
C3238 H3209 0.950 . S
C3238 C3237 1.334 . S
C3238 C3239 1.287 . S
C3239 C3238 1.287 . S
C3239 C3240 1.524 . S
C3239 H3242 0.999 . S
C3240 H3210 0.950 . S
C3240 C3239 1.524 . S
C3240 C3241 1.415 . S
C3241 H3211 0.950 . S
C3241 C3236 1.363 . S
C3241 C3240 1.415 . S
H3242 C3239 0.999 . S
H3243 C3224 0.913 1_455 S
H3244 C3262 0.951 . S
H3245 C3264 0.951 . S
H3246 C3266 0.950 . S
H3247 C3267 0.950 . S
H3248 C3269 0.950 . S
H3249 C3272 0.950 . S
H3250 C3273 0.950 . S
H3251 C3275 0.950 . S
H3252 C3276 0.950 . S
H3253 C3277 0.951 . S
H3254 C3279 0.951 . S
H3255 C3281 0.950 . S
H3256 C3282 0.950 . S
H3257 C3284 0.950 . S
H3258 C3287 0.950 . S
H3259 C3288 0.950 . S
H3260 C3290 0.950 . S
H3261 C3291 0.950 . S
C3262 H3244 0.951 . S
C3262 C3263 1.366 . S
C3262 C3264 1.388 . S
C3263 C3262 1.366 . S
C3263 C3267 1.385 . S
C3264 H3245 0.951 . S
C3264 C3262 1.388 . S
C3264 C3265 1.366 . S
C3265 C3264 1.366 . S
C3265 C3266 1.414 . S
C3265 C3268 1.499 . S
C3266 H3246 0.950 . S
C3266 C3265 1.414 . S
C3266 C3267 1.374 . S
C3267 H3247 0.950 . S
C3267 C3263 1.385 . S
C3267 C3266 1.374 . S
C3268 C3265 1.499 . S
C3268 C3269 1.373 . S
C3268 C3270 1.389 . S
C3269 H3248 0.950 . S
C3269 C3268 1.373 . S
C3269 C3285 1.377 . S
C3270 C3268 1.389 . S
C3270 C3271 1.524 . S
C3270 C3284 1.377 . S
C3271 C3270 1.524 . S
C3271 C3272 1.397 . S
C3271 C3276 1.363 . S
C3272 H3249 0.950 . S
C3272 C3271 1.397 . S
C3272 C3273 1.334 . S
C3273 H3250 0.950 . S
C3273 C3272 1.334 . S
C3273 C3274 1.287 . S
C3274 C3273 1.287 . S
C3274 C3275 1.524 . S
C3274 H3293 0.913 . S
C3275 H3251 0.950 . S
C3275 C3274 1.524 . S
C3275 C3276 1.415 . S
C3276 H3252 0.950 . S
C3276 C3271 1.363 . S
C3276 C3275 1.415 . S
C3277 H3253 0.951 . S
C3277 C3278 1.366 . S
C3277 C3279 1.388 . S
C3278 C3277 1.366 . S
C3278 C3282 1.385 . S
C3279 H3254 0.951 . S
C3279 C3277 1.388 . S
C3279 C3280 1.366 . S
C3280 C3279 1.366 . S
C3280 C3281 1.414 . S
C3280 C3283 1.499 . S
C3281 H3255 0.950 . S
C3281 C3280 1.414 . S
C3281 C3282 1.374 . S
C3282 H3256 0.950 . S
C3282 C3278 1.385 . S
C3282 C3281 1.374 . S
C3283 C3280 1.499 . S
C3283 C3284 1.373 . S
C3283 C3285 1.389 . S
C3284 H3257 0.950 . S
C3284 C3270 1.377 . S
C3284 C3283 1.373 . S
C3285 C3269 1.377 . S
C3285 C3283 1.389 . S
C3285 C3286 1.524 . S
C3286 C3285 1.524 . S
C3286 C3287 1.397 . S
C3286 C3291 1.363 . S
C3287 H3258 0.950 . S
C3287 C3286 1.397 . S
C3287 C3288 1.334 . S
C3288 H3259 0.950 . S
C3288 C3287 1.334 . S
C3288 C3289 1.287 . S
C3289 C3288 1.287 . S
C3289 C3290 1.524 . S
C3289 H3292 0.999 . S
C3290 H3260 0.950 . S
C3290 C3289 1.524 . S
C3290 C3291 1.415 . S
C3291 H3261 0.950 . S
C3291 C3286 1.363 . S
C3291 C3290 1.415 . S
H3292 C3289 0.999 . S
H3293 C3274 0.913 . S
H3294 C3312 0.951 . S
H3295 C3314 0.951 . S
H3296 C3316 0.950 . S
H3297 C3317 0.950 . S
H3298 C3319 0.950 . S
H3299 C3322 0.950 . S
H3300 C3323 0.950 . S
H3301 C3325 0.950 . S
H3302 C3326 0.950 . S
H3303 C3327 0.951 . S
H3304 C3329 0.951 . S
H3305 C3331 0.950 . S
H3306 C3332 0.950 . S
H3307 C3334 0.950 . S
H3308 C3337 0.950 . S
H3309 C3338 0.950 . S
H3310 C3340 0.950 . S
H3311 C3341 0.950 . S
C3312 H3294 0.951 . S
C3312 C3313 1.366 . S
C3312 C3314 1.388 . S
C3313 C3312 1.366 . S
C3313 C3317 1.385 . S
C3314 H3295 0.951 . S
C3314 C3312 1.388 . S
C3314 C3315 1.366 . S
C3315 C3314 1.366 . S
C3315 C3316 1.414 . S
C3315 C3318 1.499 . S
C3316 H3296 0.950 . S
C3316 C3315 1.414 . S
C3316 C3317 1.374 . S
C3317 H3297 0.950 . S
C3317 C3313 1.385 . S
C3317 C3316 1.374 . S
C3318 C3315 1.499 . S
C3318 C3319 1.373 . S
C3318 C3320 1.389 . S
C3319 H3298 0.950 . S
C3319 C3318 1.373 . S
C3319 C3335 1.377 . S
C3320 C3318 1.389 . S
C3320 C3321 1.524 . S
C3320 C3334 1.377 . S
C3321 C3320 1.524 . S
C3321 C3322 1.397 . S
C3321 C3326 1.363 . S
C3322 H3299 0.950 . S
C3322 C3321 1.397 . S
C3322 C3323 1.334 . S
C3323 H3300 0.950 . S
C3323 C3322 1.334 . S
C3323 C3324 1.287 . S
C3324 C3323 1.287 . S
C3324 C3325 1.524 . S
C3324 H3343 0.913 . S
C3325 H3301 0.950 . S
C3325 C3324 1.524 . S
C3325 C3326 1.415 . S
C3326 H3302 0.950 . S
C3326 C3321 1.363 . S
C3326 C3325 1.415 . S
C3327 H3303 0.951 . S
C3327 C3328 1.366 . S
C3327 C3329 1.388 . S
C3328 C3327 1.366 . S
C3328 C3332 1.385 . S
C3329 H3304 0.951 . S
C3329 C3327 1.388 . S
C3329 C3330 1.366 . S
C3330 C3329 1.366 . S
C3330 C3331 1.414 . S
C3330 C3333 1.499 . S
C3331 H3305 0.950 . S
C3331 C3330 1.414 . S
C3331 C3332 1.374 . S
C3332 H3306 0.950 . S
C3332 C3328 1.385 . S
C3332 C3331 1.374 . S
C3333 C3330 1.499 . S
C3333 C3334 1.373 . S
C3333 C3335 1.389 . S
C3334 H3307 0.950 . S
C3334 C3320 1.377 . S
C3334 C3333 1.373 . S
C3335 C3319 1.377 . S
C3335 C3333 1.389 . S
C3335 C3336 1.524 . S
C3336 C3335 1.524 . S
C3336 C3337 1.397 . S
C3336 C3341 1.363 . S
C3337 H3308 0.950 . S
C3337 C3336 1.397 . S
C3337 C3338 1.334 . S
C3338 H3309 0.950 . S
C3338 C3337 1.334 . S
C3338 C3339 1.287 . S
C3339 C3338 1.287 . S
C3339 C3340 1.524 . S
C3339 H3342 0.999 . S
C3340 H3310 0.950 . S
C3340 C3339 1.524 . S
C3340 C3341 1.415 . S
C3341 H3311 0.950 . S
C3341 C3336 1.363 . S
C3341 C3340 1.415 . S
H3342 C3339 0.999 . S
H3343 C3324 0.913 . S
H3344 C3362 0.951 . S
H3345 C3364 0.951 . S
H3346 C3366 0.950 . S
H3347 C3367 0.950 . S
H3348 C3369 0.950 . S
H3349 C3372 0.950 . S
H3350 C3373 0.950 . S
H3351 C3375 0.950 . S
H3352 C3376 0.950 . S
H3353 C3377 0.951 . S
H3354 C3379 0.951 . S
H3355 C3381 0.950 1_556 S
H3356 C3382 0.950 . S
H3357 C3384 0.950 . S
H3358 C3387 0.952 . S
H3359 C3388 0.950 . S
H3360 C3390 0.950 . S
H3361 C3391 0.950 . S
C3362 H3344 0.951 . S
C3362 C3363 1.366 . S
C3362 C3364 1.388 . S
C3363 C3362 1.366 . S
C3363 C3367 1.385 . S
C3364 H3345 0.951 . S
C3364 C3362 1.388 . S
C3364 C3365 1.366 . S
C3365 C3364 1.366 . S
C3365 C3366 1.414 . S
C3365 C3368 1.499 . S
C3366 H3346 0.950 . S
C3366 C3365 1.414 . S
C3366 C3367 1.374 . S
C3367 H3347 0.950 . S
C3367 C3363 1.385 . S
C3367 C3366 1.374 . S
C3368 C3365 1.499 . S
C3368 C3369 1.373 . S
C3368 C3370 1.389 . S
C3369 H3348 0.950 . S
C3369 C3368 1.373 . S
C3369 C3385 1.377 . S
C3370 C3368 1.389 . S
C3370 C3371 1.524 . S
C3370 C3384 1.377 . S
C3371 C3370 1.524 . S
C3371 C3372 1.397 . S
C3371 C3376 1.363 . S
C3372 H3349 0.950 . S
C3372 C3371 1.397 . S
C3372 C3373 1.334 . S
C3373 H3350 0.950 . S
C3373 C3372 1.334 . S
C3373 C3374 1.287 . S
C3374 C3373 1.287 . S
C3374 C3375 1.524 . S
C3374 H3393 0.913 . S
C3375 H3351 0.950 . S
C3375 C3374 1.524 . S
C3375 C3376 1.415 . S
C3376 H3352 0.950 . S
C3376 C3371 1.363 . S
C3376 C3375 1.415 . S
C3377 H3353 0.951 . S
C3377 C3378 1.366 . S
C3377 C3379 1.388 . S
C3378 C3377 1.366 . S
C3378 C3382 1.385 . S
C3379 H3354 0.951 . S
C3379 C3377 1.388 . S
C3379 C3380 1.366 . S
C3380 C3379 1.366 . S
C3380 C3381 1.414 . S
C3380 C3383 1.499 1_554 S
C3381 H3355 0.950 1_554 S
C3381 C3380 1.414 . S
C3381 C3382 1.374 . S
C3382 H3356 0.950 . S
C3382 C3378 1.385 . S
C3382 C3381 1.374 . S
C3383 C3380 1.499 1_556 S
C3383 C3384 1.373 . S
C3383 C3385 1.389 . S
C3384 H3357 0.950 . S
C3384 C3370 1.377 . S
C3384 C3383 1.373 . S
C3385 C3369 1.377 . S
C3385 C3383 1.389 . S
C3385 C3386 1.524 . S
C3386 C3385 1.524 . S
C3386 C3387 1.398 . S
C3386 C3391 1.363 . S
C3387 H3358 0.952 . S
C3387 C3386 1.398 . S
C3387 C3388 1.330 1_556 S
C3388 H3359 0.950 . S
C3388 C3387 1.330 1_554 S
C3388 C3389 1.287 . S
C3389 C3388 1.287 . S
C3389 C3390 1.524 . S
C3389 H3392 0.999 . S
C3390 H3360 0.950 . S
C3390 C3389 1.524 . S
C3390 C3391 1.415 1_554 S
C3391 H3361 0.950 . S
C3391 C3386 1.363 . S
C3391 C3390 1.415 1_556 S
H3392 C3389 0.999 . S
H3393 C3374 0.913 . S
H3394 C3412 0.951 . S
H3395 C3414 0.951 . S
H3396 C3416 0.950 . S
H3397 C3417 0.950 . S
H3398 C3419 0.950 . S
H3399 C3422 0.950 . S
H3400 C3423 0.950 . S
H3401 C3425 0.950 . S
H3402 C3426 0.950 . S
H3403 C3427 0.951 . S
H3404 C3429 0.951 1_554 S
H3405 C3431 0.950 . S
H3406 C3432 0.950 . S
H3407 C3434 0.950 . S
H3408 C3437 0.950 . S
H3409 C3438 0.950 . S
H3410 C3440 0.950 . S
H3411 C3441 0.950 . S
C3412 H3394 0.951 . S
C3412 C3413 1.366 . S
C3412 C3414 1.388 . S
C3413 C3412 1.366 . S
C3413 C3417 1.385 . S
C3414 H3395 0.951 . S
C3414 C3412 1.388 . S
C3414 C3415 1.366 . S
C3415 C3414 1.366 . S
C3415 C3416 1.414 . S
C3415 C3418 1.499 . S
C3416 H3396 0.950 . S
C3416 C3415 1.414 . S
C3416 C3417 1.374 . S
C3417 H3397 0.950 . S
C3417 C3413 1.385 . S
C3417 C3416 1.374 . S
C3418 C3415 1.499 . S
C3418 C3419 1.373 . S
C3418 C3420 1.389 . S
C3419 H3398 0.950 . S
C3419 C3418 1.373 . S
C3419 C3435 1.377 . S
C3420 C3418 1.389 . S
C3420 C3421 1.524 . S
C3420 C3434 1.377 . S
C3421 C3420 1.524 . S
C3421 C3422 1.397 . S
C3421 C3426 1.363 . S
C3422 H3399 0.950 . S
C3422 C3421 1.397 . S
C3422 C3423 1.334 . S
C3423 H3400 0.950 . S
C3423 C3422 1.334 . S
C3423 C3424 1.287 . S
C3424 C3423 1.287 . S
C3424 C3425 1.524 . S
C3424 H3443 0.913 . S
C3425 H3401 0.950 . S
C3425 C3424 1.524 . S
C3425 C3426 1.415 . S
C3426 H3402 0.950 . S
C3426 C3421 1.363 . S
C3426 C3425 1.415 . S
C3427 H3403 0.951 . S
C3427 C3428 1.366 . S
C3427 C3429 1.388 . S
C3428 C3427 1.366 . S
C3428 C3432 1.385 . S
C3429 H3404 0.951 1_556 S
C3429 C3427 1.388 . S
C3429 C3430 1.366 . S
C3430 C3429 1.366 . S
C3430 C3431 1.414 . S
C3430 C3433 1.499 1_556 S
C3431 H3405 0.950 . S
C3431 C3430 1.414 . S
C3431 C3432 1.374 . S
C3432 H3406 0.950 . S
C3432 C3428 1.385 . S
C3432 C3431 1.374 . S
C3433 C3430 1.499 1_554 S
C3433 C3434 1.373 . S
C3433 C3435 1.389 . S
C3434 H3407 0.950 . S
C3434 C3420 1.377 . S
C3434 C3433 1.373 . S
C3435 C3419 1.377 . S
C3435 C3433 1.389 . S
C3435 C3436 1.524 . S
C3436 C3435 1.524 . S
C3436 C3437 1.397 1_554 S
C3436 C3441 1.363 . S
C3437 H3408 0.950 . S
C3437 C3436 1.397 1_556 S
C3437 C3438 1.334 . S
C3438 H3409 0.950 . S
C3438 C3437 1.334 . S
C3438 C3439 1.287 . S
C3439 C3438 1.287 . S
C3439 C3440 1.524 1_556 S
C3439 H3442 0.999 . S
C3440 H3410 0.950 . S
C3440 C3439 1.524 1_554 S
C3440 C3441 1.415 . S
C3441 H3411 0.950 . S
C3441 C3436 1.363 . S
C3441 C3440 1.415 . S
H3442 C3439 0.999 . S
H3443 C3424 0.913 . S
H3444 C3462 0.951 . S
H3445 C3464 0.951 . S
H3446 C3466 0.950 . S
H3447 C3467 0.950 . S
H3448 C3469 0.950 . S
H3449 C3472 0.950 . S
H3450 C3473 0.950 . S
H3451 C3475 0.950 . S
H3452 C3476 0.950 . S
H3453 C3477 0.951 . S
H3454 C3479 0.951 . S
H3455 C3481 0.950 . S
H3456 C3482 0.950 . S
H3457 C3484 0.950 . S
H3458 C3487 0.950 . S
H3459 C3488 0.950 . S
H3460 C3490 0.950 . S
H3461 C3491 0.950 . S
C3462 H3444 0.951 . S
C3462 C3463 1.366 . S
C3462 C3464 1.388 . S
C3463 C3462 1.366 . S
C3463 C3467 1.385 . S
C3464 H3445 0.951 . S
C3464 C3462 1.388 . S
C3464 C3465 1.366 . S
C3465 C3464 1.366 . S
C3465 C3466 1.414 . S
C3465 C3468 1.499 . S
C3466 H3446 0.950 . S
C3466 C3465 1.414 . S
C3466 C3467 1.374 . S
C3467 H3447 0.950 . S
C3467 C3463 1.385 . S
C3467 C3466 1.374 . S
C3468 C3465 1.499 . S
C3468 C3469 1.373 . S
C3468 C3470 1.389 . S
C3469 H3448 0.950 . S
C3469 C3468 1.373 . S
C3469 C3485 1.377 . S
C3470 C3468 1.389 . S
C3470 C3471 1.524 . S
C3470 C3484 1.377 . S
C3471 C3470 1.524 . S
C3471 C3472 1.397 . S
C3471 C3476 1.363 . S
C3472 H3449 0.950 . S
C3472 C3471 1.397 . S
C3472 C3473 1.334 . S
C3473 H3450 0.950 . S
C3473 C3472 1.334 . S
C3473 C3474 1.287 . S
C3474 C3473 1.287 . S
C3474 C3475 1.524 . S
C3474 H3493 0.913 . S
C3475 H3451 0.950 . S
C3475 C3474 1.524 . S
C3475 C3476 1.415 . S
C3476 H3452 0.950 . S
C3476 C3471 1.363 . S
C3476 C3475 1.415 . S
C3477 H3453 0.951 . S
C3477 C3478 1.366 . S
C3477 C3479 1.388 . S
C3478 C3477 1.366 . S
C3478 C3482 1.385 . S
C3479 H3454 0.951 . S
C3479 C3477 1.388 . S
C3479 C3480 1.366 . S
C3480 C3479 1.366 . S
C3480 C3481 1.414 . S
C3480 C3483 1.499 . S
C3481 H3455 0.950 . S
C3481 C3480 1.414 . S
C3481 C3482 1.374 . S
C3482 H3456 0.950 . S
C3482 C3478 1.385 . S
C3482 C3481 1.374 . S
C3483 C3480 1.499 . S
C3483 C3484 1.373 . S
C3483 C3485 1.389 . S
C3484 H3457 0.950 . S
C3484 C3470 1.377 . S
C3484 C3483 1.373 . S
C3485 C3469 1.377 . S
C3485 C3483 1.389 . S
C3485 C3486 1.524 . S
C3486 C3485 1.524 . S
C3486 C3487 1.397 . S
C3486 C3491 1.363 . S
C3487 H3458 0.950 . S
C3487 C3486 1.397 . S
C3487 C3488 1.334 . S
C3488 H3459 0.950 . S
C3488 C3487 1.334 . S
C3488 C3489 1.287 . S
C3489 C3488 1.287 . S
C3489 C3490 1.524 . S
C3489 H3492 0.999 . S
C3490 H3460 0.950 . S
C3490 C3489 1.524 . S
C3490 C3491 1.415 . S
C3491 H3461 0.950 . S
C3491 C3486 1.363 . S
C3491 C3490 1.415 . S
H3492 C3489 0.999 . S
H3493 C3474 0.913 . S
H3494 C3512 0.951 . S
H3495 C3514 0.951 . S
H3496 C3516 0.950 . S
H3497 C3517 0.950 . S
H3498 C3519 0.950 . S
H3499 C3522 0.950 . S
H3500 C3523 0.950 . S
H3501 C3525 0.950 . S
H3502 C3526 0.950 . S
H3503 C3527 0.951 . S
H3504 C3529 0.951 . S
H3505 C3531 0.950 . S
H3506 C3532 0.950 . S
H3507 C3534 0.950 . S
H3508 C3537 0.950 . S
H3509 C3538 0.950 . S
H3510 C3540 0.950 . S
H3511 C3541 0.950 . S
C3512 H3494 0.951 . S
C3512 C3513 1.366 . S
C3512 C3514 1.388 . S
C3513 C3512 1.366 . S
C3513 C3517 1.385 . S
C3514 H3495 0.951 . S
C3514 C3512 1.388 . S
C3514 C3515 1.366 . S
C3515 C3514 1.366 . S
C3515 C3516 1.414 . S
C3515 C3518 1.499 . S
C3516 H3496 0.950 . S
C3516 C3515 1.414 . S
C3516 C3517 1.374 . S
C3517 H3497 0.950 . S
C3517 C3513 1.385 . S
C3517 C3516 1.374 . S
C3518 C3515 1.499 . S
C3518 C3519 1.373 . S
C3518 C3520 1.389 . S
C3519 H3498 0.950 . S
C3519 C3518 1.373 . S
C3519 C3535 1.377 . S
C3520 C3518 1.389 . S
C3520 C3521 1.524 . S
C3520 C3534 1.377 . S
C3521 C3520 1.524 . S
C3521 C3522 1.397 . S
C3521 C3526 1.363 . S
C3522 H3499 0.950 . S
C3522 C3521 1.397 . S
C3522 C3523 1.334 . S
C3523 H3500 0.950 . S
C3523 C3522 1.334 . S
C3523 C3524 1.287 . S
C3524 C3523 1.287 . S
C3524 C3525 1.524 . S
C3524 H3543 0.913 . S
C3525 H3501 0.950 . S
C3525 C3524 1.524 . S
C3525 C3526 1.415 . S
C3526 H3502 0.950 . S
C3526 C3521 1.363 . S
C3526 C3525 1.415 . S
C3527 H3503 0.951 . S
C3527 C3528 1.366 . S
C3527 C3529 1.388 . S
C3528 C3527 1.366 . S
C3528 C3532 1.385 . S
C3529 H3504 0.951 . S
C3529 C3527 1.388 . S
C3529 C3530 1.366 . S
C3530 C3529 1.366 . S
C3530 C3531 1.414 . S
C3530 C3533 1.499 . S
C3531 H3505 0.950 . S
C3531 C3530 1.414 . S
C3531 C3532 1.374 . S
C3532 H3506 0.950 . S
C3532 C3528 1.385 . S
C3532 C3531 1.374 . S
C3533 C3530 1.499 . S
C3533 C3534 1.373 . S
C3533 C3535 1.389 . S
C3534 H3507 0.950 . S
C3534 C3520 1.377 . S
C3534 C3533 1.373 . S
C3535 C3519 1.377 . S
C3535 C3533 1.389 . S
C3535 C3536 1.524 . S
C3536 C3535 1.524 . S
C3536 C3537 1.397 . S
C3536 C3541 1.363 . S
C3537 H3508 0.950 . S
C3537 C3536 1.397 . S
C3537 C3538 1.334 . S
C3538 H3509 0.950 . S
C3538 C3537 1.334 . S
C3538 C3539 1.287 . S
C3539 C3538 1.287 . S
C3539 C3540 1.524 . S
C3539 H3542 0.999 . S
C3540 H3510 0.950 . S
C3540 C3539 1.524 . S
C3540 C3541 1.415 . S
C3541 H3511 0.950 . S
C3541 C3536 1.363 . S
C3541 C3540 1.415 . S
H3542 C3539 0.999 . S
H3543 C3524 0.913 . S
H3544 C3562 0.951 . S
H3545 C3564 0.951 . S
H3546 C3566 0.950 . S
H3547 C3567 0.950 . S
H3548 C3569 0.950 . S
H3549 C3572 0.950 . S
H3550 C3573 0.950 . S
H3551 C3575 0.950 . S
H3552 C3576 0.950 . S
H3553 C3577 0.950 1_556 S
H3554 C3579 0.951 . S
H3555 C3581 0.950 . S
H3556 C3582 0.950 . S
H3557 C3584 0.950 . S
H3558 C3587 0.950 . S
H3559 C3588 0.950 . S
H3560 C3590 0.950 . S
H3561 C3591 0.950 . S
C3562 H3544 0.951 . S
C3562 C3563 1.366 . S
C3562 C3564 1.388 . S
C3563 C3562 1.366 . S
C3563 C3567 1.385 . S
C3564 H3545 0.951 . S
C3564 C3562 1.388 . S
C3564 C3565 1.366 . S
C3565 C3564 1.366 . S
C3565 C3566 1.414 . S
C3565 C3568 1.499 . S
C3566 H3546 0.950 . S
C3566 C3565 1.414 . S
C3566 C3567 1.374 . S
C3567 H3547 0.950 . S
C3567 C3563 1.385 . S
C3567 C3566 1.374 . S
C3568 C3565 1.499 . S
C3568 C3569 1.373 . S
C3568 C3570 1.389 . S
C3569 H3548 0.950 . S
C3569 C3568 1.373 . S
C3569 C3585 1.377 . S
C3570 C3568 1.389 . S
C3570 C3571 1.524 . S
C3570 C3584 1.377 . S
C3571 C3570 1.524 . S
C3571 C3572 1.397 . S
C3571 C3576 1.363 . S
C3572 H3549 0.950 . S
C3572 C3571 1.397 . S
C3572 C3573 1.334 . S
C3573 H3550 0.950 . S
C3573 C3572 1.334 . S
C3573 C3574 1.287 . S
C3574 C3573 1.287 . S
C3574 C3575 1.524 . S
C3574 H3593 0.913 . S
C3575 H3551 0.950 . S
C3575 C3574 1.524 . S
C3575 C3576 1.415 . S
C3576 H3552 0.950 . S
C3576 C3571 1.363 . S
C3576 C3575 1.415 . S
C3577 H3553 0.950 1_554 S
C3577 C3578 1.366 1_554 S
C3577 C3579 1.389 . S
C3578 C3577 1.366 1_556 S
C3578 C3582 1.385 1_556 S
C3579 H3554 0.951 . S
C3579 C3577 1.389 . S
C3579 C3580 1.366 . S
C3580 C3579 1.366 . S
C3580 C3581 1.414 . S
C3580 C3583 1.499 . S
C3581 H3555 0.950 . S
C3581 C3580 1.414 . S
C3581 C3582 1.374 . S
C3582 H3556 0.950 . S
C3582 C3578 1.385 1_554 S
C3582 C3581 1.374 . S
C3583 C3580 1.499 . S
C3583 C3584 1.373 . S
C3583 C3585 1.389 . S
C3584 H3557 0.950 . S
C3584 C3570 1.377 . S
C3584 C3583 1.373 . S
C3585 C3569 1.377 . S
C3585 C3583 1.389 . S
C3585 C3586 1.524 . S
C3586 C3585 1.524 . S
C3586 C3587 1.397 . S
C3586 C3591 1.363 . S
C3587 H3558 0.950 . S
C3587 C3586 1.397 . S
C3587 C3588 1.334 . S
C3588 H3559 0.950 . S
C3588 C3587 1.334 . S
C3588 C3589 1.287 . S
C3589 C3588 1.287 . S
C3589 C3590 1.524 . S
C3589 H3592 0.999 . S
C3590 H3560 0.950 . S
C3590 C3589 1.524 . S
C3590 C3591 1.415 . S
C3591 H3561 0.950 . S
C3591 C3586 1.363 . S
C3591 C3590 1.415 . S
H3592 C3589 0.999 . S
H3593 C3574 0.913 . S
H3594 C3612 0.932 1_554 S
H3595 C3614 0.951 . S
H3596 C3616 0.950 . S
H3597 C3617 0.950 . S
H3598 C3619 0.950 . S
H3599 C3622 0.950 . S
H3600 C3623 0.965 . S
H3601 C3625 0.950 . S
H3602 C3626 0.950 . S
H3603 C3627 0.951 . S
H3604 C3629 0.951 . S
H3605 C3631 0.950 . S
H3606 C3632 0.950 . S
H3607 C3634 0.950 . S
H3608 C3637 0.950 . S
H3609 C3638 0.950 . S
H3610 C3640 0.950 . S
H3611 C3641 0.950 . S
C3612 H3594 0.932 1_556 S
C3612 C3613 1.366 1_556 S
C3612 C3614 1.388 . S
C3613 C3612 1.366 1_554 S
C3613 C3617 1.385 1_554 S
C3614 H3595 0.951 . S
C3614 C3612 1.388 . S
C3614 C3615 1.366 . S
C3615 C3614 1.366 . S
C3615 C3616 1.414 . S
C3615 C3618 1.499 . S
C3616 H3596 0.950 . S
C3616 C3615 1.414 . S
C3616 C3617 1.374 . S
C3617 H3597 0.950 . S
C3617 C3613 1.385 1_556 S
C3617 C3616 1.374 . S
C3618 C3615 1.499 . S
C3618 C3619 1.373 . S
C3618 C3620 1.389 . S
C3619 H3598 0.950 . S
C3619 C3618 1.373 . S
C3619 C3635 1.377 . S
C3620 C3618 1.389 . S
C3620 C3621 1.524 . S
C3620 C3634 1.377 . S
C3621 C3620 1.524 . S
C3621 C3622 1.397 . S
C3621 C3626 1.363 . S
C3622 H3599 0.950 . S
C3622 C3621 1.397 . S
C3622 C3623 1.334 . S
C3623 H3600 0.965 . S
C3623 C3622 1.334 . S
C3623 C3624 1.287 . S
C3624 C3623 1.287 . S
C3624 C3625 1.524 . S
C3624 H3643 0.913 . S
C3625 H3601 0.950 . S
C3625 C3624 1.524 . S
C3625 C3626 1.415 . S
C3626 H3602 0.950 . S
C3626 C3621 1.363 . S
C3626 C3625 1.415 . S
C3627 H3603 0.951 . S
C3627 C3628 1.366 . S
C3627 C3629 1.388 . S
C3628 C3627 1.366 . S
C3628 C3632 1.385 . S
C3629 H3604 0.951 . S
C3629 C3627 1.388 . S
C3629 C3630 1.366 . S
C3630 C3629 1.366 . S
C3630 C3631 1.414 . S
C3630 C3633 1.499 . S
C3631 H3605 0.950 . S
C3631 C3630 1.414 . S
C3631 C3632 1.374 . S
C3632 H3606 0.950 . S
C3632 C3628 1.385 . S
C3632 C3631 1.374 . S
C3633 C3630 1.499 . S
C3633 C3634 1.373 . S
C3633 C3635 1.389 . S
C3634 H3607 0.950 . S
C3634 C3620 1.377 . S
C3634 C3633 1.373 . S
C3635 C3619 1.377 . S
C3635 C3633 1.389 . S
C3635 C3636 1.524 . S
C3636 C3635 1.524 . S
C3636 C3637 1.397 . S
C3636 C3641 1.363 . S
C3637 H3608 0.950 . S
C3637 C3636 1.397 . S
C3637 C3638 1.334 . S
C3638 H3609 0.950 . S
C3638 C3637 1.334 . S
C3638 C3639 1.287 . S
C3639 C3638 1.287 . S
C3639 C3640 1.524 . S
C3639 H3642 0.999 . S
C3640 H3610 0.950 . S
C3640 C3639 1.524 . S
C3640 C3641 1.415 . S
C3641 H3611 0.950 . S
C3641 C3636 1.363 . S
C3641 C3640 1.415 . S
H3642 C3639 0.999 . S
H3643 C3624 0.913 . S
H3644 C3662 0.951 . S
H3645 C3664 0.951 . S
H3646 C3666 0.950 . S
H3647 C3667 0.950 . S
H3648 C3669 0.950 . S
H3649 C3672 0.950 . S
H3650 C3673 0.950 . S
H3651 C3675 0.950 1_655 S
H3652 C3676 0.950 . S
H3653 C3677 0.951 . S
H3654 C3679 0.951 . S
H3655 C3681 0.950 . S
H3656 C3682 0.950 . S
H3657 C3684 0.950 . S
H3658 C3687 0.950 . S
H3659 C3688 0.950 . S
H3660 C3690 0.950 . S
H3661 C3691 0.950 . S
C3662 H3644 0.951 . S
C3662 C3663 1.366 . S
C3662 C3664 1.388 . S
C3663 C3662 1.366 . S
C3663 C3667 1.385 . S
C3664 H3645 0.951 . S
C3664 C3662 1.388 . S
C3664 C3665 1.366 . S
C3665 C3664 1.366 . S
C3665 C3666 1.414 . S
C3665 C3668 1.499 . S
C3666 H3646 0.950 . S
C3666 C3665 1.414 . S
C3666 C3667 1.374 . S
C3667 H3647 0.950 . S
C3667 C3663 1.385 . S
C3667 C3666 1.374 . S
C3668 C3665 1.499 . S
C3668 C3669 1.373 . S
C3668 C3670 1.389 . S
C3669 H3648 0.950 . S
C3669 C3668 1.373 . S
C3669 C3685 1.377 . S
C3670 C3668 1.389 . S
C3670 C3671 1.524 . S
C3670 C3684 1.377 . S
C3671 C3670 1.524 . S
C3671 C3672 1.397 . S
C3671 C3676 1.363 . S
C3672 H3649 0.950 . S
C3672 C3671 1.397 . S
C3672 C3673 1.334 . S
C3673 H3650 0.950 . S
C3673 C3672 1.334 . S
C3673 C3674 1.287 . S
C3674 C3673 1.287 . S
C3674 C3675 1.524 . S
C3674 H3693 0.913 . S
C3675 H3651 0.950 1_455 S
C3675 C3674 1.524 . S
C3675 C3676 1.415 . S
C3676 H3652 0.950 . S
C3676 C3671 1.363 . S
C3676 C3675 1.415 . S
C3677 H3653 0.951 . S
C3677 C3678 1.366 . S
C3677 C3679 1.388 . S
C3678 C3677 1.366 . S
C3678 C3682 1.385 . S
C3679 H3654 0.951 . S
C3679 C3677 1.388 . S
C3679 C3680 1.366 . S
C3680 C3679 1.366 . S
C3680 C3681 1.414 . S
C3680 C3683 1.499 . S
C3681 H3655 0.950 . S
C3681 C3680 1.414 . S
C3681 C3682 1.374 . S
C3682 H3656 0.950 . S
C3682 C3678 1.385 . S
C3682 C3681 1.374 . S
C3683 C3680 1.499 . S
C3683 C3684 1.373 . S
C3683 C3685 1.389 . S
C3684 H3657 0.950 . S
C3684 C3670 1.377 . S
C3684 C3683 1.373 . S
C3685 C3669 1.377 . S
C3685 C3683 1.389 . S
C3685 C3686 1.524 . S
C3686 C3685 1.524 . S
C3686 C3687 1.397 . S
C3686 C3691 1.363 . S
C3687 H3658 0.950 . S
C3687 C3686 1.397 . S
C3687 C3688 1.334 . S
C3688 H3659 0.950 . S
C3688 C3687 1.334 . S
C3688 C3689 1.287 . S
C3689 C3688 1.287 . S
C3689 C3690 1.524 . S
C3689 H3692 0.999 . S
C3690 H3660 0.950 . S
C3690 C3689 1.524 . S
C3690 C3691 1.415 . S
C3691 H3661 0.950 . S
C3691 C3686 1.363 . S
C3691 C3690 1.415 . S
H3692 C3689 0.999 . S
H3693 C3674 0.913 . S
H3694 C3712 0.951 . S
H3695 C3714 0.951 . S
H3696 C3716 0.950 . S
H3697 C3717 0.950 . S
H3698 C3719 0.950 . S
H3699 C3722 0.950 . S
H3700 C3723 0.950 . S
H3701 C3725 0.950 . S
H3702 C3726 0.950 . S
H3703 C3727 0.951 . S
H3704 C3729 0.951 . S
H3705 C3731 0.950 . S
H3706 C3732 0.950 . S
H3707 C3734 0.950 . S
H3708 C3737 0.950 . S
H3709 C3738 0.950 . S
H3710 C3740 0.950 . S
H3711 C3741 0.950 . S
C3712 H3694 0.951 . S
C3712 C3713 1.366 . S
C3712 C3714 1.388 . S
C3713 C3712 1.366 . S
C3713 C3717 1.385 . S
C3714 H3695 0.951 . S
C3714 C3712 1.388 . S
C3714 C3715 1.366 . S
C3715 C3714 1.366 . S
C3715 C3716 1.414 . S
C3715 C3718 1.499 . S
C3716 H3696 0.950 . S
C3716 C3715 1.414 . S
C3716 C3717 1.374 . S
C3717 H3697 0.950 . S
C3717 C3713 1.385 . S
C3717 C3716 1.374 . S
C3718 C3715 1.499 . S
C3718 C3719 1.373 . S
C3718 C3720 1.389 . S
C3719 H3698 0.950 . S
C3719 C3718 1.373 . S
C3719 C3735 1.377 . S
C3720 C3718 1.389 . S
C3720 C3721 1.524 . S
C3720 C3734 1.377 . S
C3721 C3720 1.524 . S
C3721 C3722 1.397 . S
C3721 C3726 1.363 . S
C3722 H3699 0.950 . S
C3722 C3721 1.397 . S
C3722 C3723 1.334 . S
C3723 H3700 0.950 . S
C3723 C3722 1.334 . S
C3723 C3724 1.287 . S
C3724 C3723 1.287 . S
C3724 C3725 1.524 . S
C3724 H3743 0.913 . S
C3725 H3701 0.950 . S
C3725 C3724 1.524 . S
C3725 C3726 1.415 . S
C3726 H3702 0.950 . S
C3726 C3721 1.363 . S
C3726 C3725 1.415 . S
C3727 H3703 0.951 . S
C3727 C3728 1.366 . S
C3727 C3729 1.388 . S
C3728 C3727 1.366 . S
C3728 C3732 1.385 . S
C3729 H3704 0.951 . S
C3729 C3727 1.388 . S
C3729 C3730 1.366 . S
C3730 C3729 1.366 . S
C3730 C3731 1.414 . S
C3730 C3733 1.499 . S
C3731 H3705 0.950 . S
C3731 C3730 1.414 . S
C3731 C3732 1.374 . S
C3732 H3706 0.950 . S
C3732 C3728 1.385 . S
C3732 C3731 1.374 . S
C3733 C3730 1.499 . S
C3733 C3734 1.373 . S
C3733 C3735 1.389 . S
C3734 H3707 0.950 . S
C3734 C3720 1.377 . S
C3734 C3733 1.373 . S
C3735 C3719 1.377 . S
C3735 C3733 1.389 . S
C3735 C3736 1.524 . S
C3736 C3735 1.524 . S
C3736 C3737 1.397 . S
C3736 C3741 1.363 . S
C3737 H3708 0.950 . S
C3737 C3736 1.397 . S
C3737 C3738 1.334 . S
C3738 H3709 0.950 . S
C3738 C3737 1.334 . S
C3738 C3739 1.287 . S
C3739 C3738 1.287 . S
C3739 C3740 1.524 . S
C3739 H3742 0.999 . S
C3740 H3710 0.950 . S
C3740 C3739 1.524 . S
C3740 C3741 1.415 . S
C3741 H3711 0.950 . S
C3741 C3736 1.363 . S
C3741 C3740 1.415 . S
H3742 C3739 0.999 . S
H3743 C3724 0.913 . S
C1363 C67 2.712 . S
C1378 C646 2.388 . S
C1413 C142 2.387 . S
C1428 C403 2.712 . S
C1463 C487 3.165 . S
C1478 C235 3.184 . S
C1513 C319 3.165 . S
C1528 C571 3.184 . S
C1563 C994 0.835 . S
C1578 C406 0.839 . S
C1613 C742 0.834 . S
C1628 C70 0.841 . S
C1663 C896 0.603 . S
C1678 C574 0.733 . S
C1713 C238 0.734 . S
C1728 C812 0.604 . S
C1763 C814 2.387 . S
C1778 C1075 2.712 . S
C1813 C898 2.388 . S
C1828 C1243 2.711 . S
C1863 C1159 3.184 1_556 S
C1878 C739 3.165 . S
C1913 C991 3.166 . S
C1928 C1327 3.183 1_554 S
C1963 C1246 0.840 . S
C1978 C322 0.835 . S
C2013 C1078 0.840 . S
C2028 C490 0.835 . S
C2063 C140 0.603 . S
C2078 C1330 0.736 . S
C2113 C644 0.602 . S
C2128 C1162 0.738 . S
C2163 C1155 0.376 . S
C2178 C63 0.902 . S
C2213 C987 0.758 . S
C2228 C158 0.702 . S
C2263 C1071 0.905 . S
C2278 C231 0.374 . S
C2313 C914 0.704 . S
C2328 C315 0.757 . S
C2363 C399 0.904 . S
C2378 C1323 0.376 . S
C2413 C830 0.701 . S
C2428 C483 0.760 . S
C2463 C567 0.377 . S
C2478 C1239 0.902 . S
C2513 C662 0.703 . S
C2528 C735 0.757 . S
C2563 C74 1.664 . S
C2578 C410 1.664 . S
C2613 C147 1.205 . S
C2628 C494 1.216 . S
C2663 C578 0.761 . S
C2678 C242 0.761 . S
C2713 C326 1.216 . S
C2728 C651 1.205 . S
C2763 C903 1.205 . S
C2778 C746 1.216 . S
C2813 C998 1.216 . S
C2828 C819 1.205 . S
C2863 C1082 1.665 . S
C2878 C1250 1.665 . S
C2913 C1334 0.770 . S
C2928 C1166 0.769 . S
C2963 C58 0.691 . S
C2978 C655 0.689 . S
C3013 C151 0.692 . S
C3028 C394 0.693 . S
C3063 C478 0.545 . S
C3078 C226 0.402 . S
C3113 C562 0.404 . S
C3128 C310 0.543 . S
C3163 C980 2.660 . S
C3178 C392 2.707 1_655 S
C3213 C728 2.660 . S
C3228 C56 2.706 1_655 S
C3263 C910 2.097 . S
C3278 C560 2.076 . S
C3313 C224 2.076 . S
C3328 C826 2.097 . S
C3363 C1066 0.693 . S
C3378 C823 0.691 . S
C3413 C1234 0.691 . S
C3428 C907 0.689 . S
C3463 C1150 0.404 . S
C3478 C730 0.544 . S
C3513 C1318 0.402 . S
C3528 C982 0.546 . S
C3563 C1232 2.707 . S
C3578 C308 2.660 . S
C3613 C476 2.660 . S
C3628 C1064 2.706 . S
C3663 C154 2.096 . S
C3678 C1316 2.076 . S
C3713 C1148 2.076 . S
C3728 C658 2.096 . S
