# Generated by pormake.
# Topology snp, (6)-cn, num edge types: 1
# Building blocks:
#     Node 0, Type 0, BuildingBlock: PAMTUU_clean_sbu_0, # of connection points: 6
#     Node 1, Type 0, BuildingBlock: PAMTUU_clean_sbu_0, # of connection points: 6
#     Node 2, Type 0, BuildingBlock: PAMTUU_clean_sbu_0, # of connection points: 6
#     Node 3, Type 0, BuildingBlock: PAMTUU_clean_sbu_0, # of connection points: 6
#     Edge 4, Type (0, 0), BuildingBlock: TEMPAE_clean_linker_10, # of connection points: 2
#     Edge 5, Type (0, 0), BuildingBlock: TEMPAE_clean_linker_10, # of connection points: 2
#     Edge 6, Type (0, 0), BuildingBlock: TEMPAE_clean_linker_10, # of connection points: 2
#     Edge 7, Type (0, 0), BuildingBlock: TEMPAE_clean_linker_10, # of connection points: 2
#     Edge 8, Type (0, 0), BuildingBlock: TEMPAE_clean_linker_10, # of connection points: 2
#     Edge 9, Type (0, 0), BuildingBlock: TEMPAE_clean_linker_10, # of connection points: 2
#     Edge 10, Type (0, 0), BuildingBlock: TEMPAE_clean_linker_10, # of connection points: 2
#     Edge 11, Type (0, 0), BuildingBlock: TEMPAE_clean_linker_10, # of connection points: 2
#     Edge 12, Type (0, 0), BuildingBlock: TEMPAE_clean_linker_10, # of connection points: 2
#     Edge 13, Type (0, 0), BuildingBlock: TEMPAE_clean_linker_10, # of connection points: 2
#     Edge 14, Type (0, 0), BuildingBlock: TEMPAE_clean_linker_10, # of connection points: 2
#     Edge 15, Type (0, 0), BuildingBlock: TEMPAE_clean_linker_10, # of connection points: 2
# Relax obj value: 0.407
# Max RMSD: 0.235
# Mean RMSD: 0.221
data_MOF--net-snp--node1-PAMTUU_clean_sbu_0--edge1-TEMPAE_clean_linker_10
_symmetry_space_group_name_H-M    P1
_symmetry_Int_Tables_number       1
_symmetry_cell_setting            triclinic
loop_
_symmetry_equiv_pos_as_xyz
'x, y, z'
_cell_length_a     26.434149
_cell_length_b     26.159976
_cell_length_c     33.372264
_cell_angle_alpha  96.279968
_cell_angle_beta   84.740117
_cell_angle_gamma 101.14551
loop_
_atom_site_label
_atom_site_type_symbol
_atom_site_fract_x
_atom_site_fract_y
_atom_site_fract_z
_atom_type_partial_charge
Tb0 Tb 0.22034 0.93573 0.2445 0.0
Tb1 Tb 0.25023 0.05511 0.28562 0.0
C2 C 0.13585 0.99138 0.29435 0.0
C3 C 0.23347 0.82427 0.1723 0.0
C4 C 0.2681 0.81016 0.09046 0.0
C5 C 0.21672 0.78968 0.10354 0.0
C6 C 0.1996 0.79664 0.1442 0.0
C7 C 0.28602 0.8402 0.15989 0.0
C8 C 0.3032 0.83297 0.11931 0.0
C9 C 0.21244 0.84362 0.21219 0.0
O10 O 0.19587 0.98172 0.20072 0.0
O11 O 0.24163 0.06322 0.22121 0.0
O12 O 0.32022 0.02297 0.26873 0.0
O13 O 0.29129 0.9718 0.21385 0.0
O14 O 0.24512 0.13491 0.29325 0.0
O15 O 0.30495 0.10648 0.3194 0.0
O16 O 0.22249 0.00964 0.33773 0.0
O17 O 0.2366 0.93057 0.30732 0.0
O18 O 0.15104 0.94773 0.27958 0.0
O19 O 0.16638 0.03765 0.29487 0.0
C20 C 0.21349 0.03134 0.19455 0.0
O21 O 0.24662 0.86461 0.23796 0.0
O22 O 0.17669 0.87177 0.21162 0.0
C23 C 0.32941 -0.00022 0.23286 0.0
C24 C 0.27796 0.18107 0.35408 0.0
C25 C 0.27007 0.2463 0.42666 0.0
C26 C 0.31672 0.22956 0.41352 0.0
C27 C 0.32064 0.19751 0.37753 0.0
C28 C 0.23158 0.19868 0.36656 0.0
C29 C 0.22775 0.2311 0.40247 0.0
C30 C 0.28363 0.14673 0.31648 0.0
C31 C 0.22224 0.95947 0.33967 0.0
H32 H 0.18853 0.77235 0.08202 0.0
H33 H 0.15902 0.78402 0.15314 0.0
H34 H 0.3133 0.86142 0.18092 0.0
H35 H 0.34311 0.84848 0.11014 0.0
H36 H 0.34983 0.23993 0.43159 0.0
H37 H 0.35702 0.18492 0.36825 0.0
H38 H 0.19821 0.18723 0.34883 0.0
H39 H 0.19148 0.24402 0.41142 0.0
Tb40 Tb 0.08923 0.25948 0.757 0.0
Tb41 Tb 0.04053 0.24861 0.65989 0.0
C42 C 0.03254 0.34649 0.72374 0.0
C43 C 0.12058 0.22753 0.8634 0.0
C44 C 0.1387 0.17799 0.93321 0.0
C45 C 0.17946 0.20821 0.9107 0.0
C46 C 0.17057 0.23238 0.87674 0.0
C47 C 0.07969 0.19692 0.8854 0.0
C48 C 0.08859 0.17252 0.91942 0.0
C49 C 0.11163 0.25995 0.83039 0.0
O50 O 0.02642 0.19368 0.7459 0.0
O51 O -0.01997 0.22838 0.70575 0.0
O52 O 0.10585 0.20931 0.65832 0.0
O53 O 0.13143 0.20515 0.72253 0.0
O54 O 0.01932 0.26602 0.60295 0.0
O55 O 0.00575 0.18609 0.62052 0.0
O56 O 0.11176 0.30475 0.65653 0.0
O57 O 0.1463 0.31095 0.72018 0.0
O58 O 0.05616 0.32938 0.75173 0.0
O59 O 0.02102 0.3212 0.68825 0.0
C60 C -0.0181 0.20028 0.73519 0.0
O61 O 0.14561 0.26599 0.79951 0.0
O62 O 0.0649 0.25711 0.81931 0.0
C63 C 0.1363 0.19606 0.68307 0.0
C64 C -0.0209 0.19367 0.55298 0.0
C65 C 0.93465 0.14855 0.47815 0.0
C66 C 0.9509 0.11737 0.50468 0.0
C67 C -0.02755 0.13941 0.54129 0.0
C68 C 0.96336 0.22511 0.52651 0.0
C69 C 0.94132 0.20297 0.48993 0.0
C70 C 0.00179 0.21629 0.59265 0.0
C71 C 0.14735 0.32348 0.6825 0.0
H72 H 0.21853 0.21489 0.91999 0.0
H73 H 0.20308 0.25641 0.8615 0.0
H74 H 0.04043 0.19246 0.87681 0.0
H75 H 0.0558 0.14933 0.93493 0.0
H76 H 0.94622 0.07543 0.49755 0.0
H77 H -0.01599 0.1136 0.56056 0.0
H78 H 0.96779 0.26696 0.53417 0.0
H79 H 0.93014 0.22883 0.47054 0.0
Tb80 Tb 0.77558 0.9138 0.12389 0.0
Tb81 Tb 0.80559 0.03692 0.10669 0.0
C82 C 0.88723 0.9703 0.1201 0.0
C83 C 0.7162 0.79315 0.1689 0.0
C84 C 0.67727 0.7573 0.24389 0.0
C85 C 0.71106 0.73077 0.21828 0.0
C86 C 0.73041 0.74866 0.181 0.0
C87 C 0.67923 0.81707 0.19287 0.0
C88 C 0.65955 0.79898 0.22995 0.0
C89 C 0.74559 0.81881 0.13491 0.0
O90 O 0.79144 0.95419 0.18518 0.0
O91 O 0.80576 0.04124 0.17256 0.0
O92 O 0.72325 0.00827 0.09953 0.0
O93 O 0.71183 0.95071 0.14676 0.0
O94 O 0.85201 0.10129 0.08119 0.0
O95 O 0.78105 0.10909 0.11711 0.0
O96 O 0.82395 0.99547 1.04813 0.0
O97 O 0.77365 0.91532 1.05796 0.0
O98 O 0.85599 0.93099 0.10293 0.0
O99 O 0.87315 0.01596 0.1283 0.0
C100 C 0.8024 0.00488 0.19767 0.0
O101 O 0.72061 0.84497 0.11487 0.0
O102 O 0.79132 0.84504 0.14295 0.0
C103 C 0.6932 0.98147 0.12634 0.0
C104 C 0.79832 0.15052 1.05799 0.0
C105 C 0.77797 0.18505 0.98557 0.0
C106 C 0.76602 0.13148 0.99161 0.0
C107 C 0.77582 0.11452 1.02757 0.0
C108 C 0.80535 0.20417 1.05424 0.0
C109 C 0.79444 0.22146 1.01834 0.0
C110 C 0.81727 0.13057 0.09171 0.0
C111 C 0.8033 0.94774 1.034 0.0
H112 H 0.72594 0.69895 0.22839 0.0
H113 H 0.75914 0.72997 0.16293 0.0
H114 H 0.66795 0.8517 0.18418 0.0
H115 H 0.63319 0.81981 0.24893 0.0
H116 H 0.75375 0.10181 0.96747 0.0
H117 H 0.76926 0.07285 1.03049 0.0
H118 H 0.82159 0.23239 0.07808 0.0
H119 H 0.80247 0.26308 1.01528 0.0
Tb120 Tb 0.03837 0.83585 0.68997 0.0
Tb121 Tb 0.92835 0.78228 0.65317 0.0
C122 C -0.02646 0.89642 0.64733 0.0
C123 C 0.14613 0.88709 0.75406 0.0
C124 C 0.1947 0.88304 0.82453 0.0
C125 C 0.2216 0.91083 0.79296 0.0
C126 C 0.19727 0.91297 0.75787 0.0
C127 C 0.11923 0.85943 0.7855 0.0
C128 C 0.14327 0.85752 0.82051 0.0
C129 C 0.12134 0.88697 0.71677 0.0
O130 O -0.01122 0.81899 0.74433 0.0
O131 O 0.91245 0.81663 0.71618 0.0
O132 O 0.95729 0.71724 0.67231 0.0
O133 O 0.03283 0.75516 0.70221 0.0
O134 O 0.85134 0.7894 0.64936 0.0
O135 O 0.87801 0.71764 0.62738 0.0
O136 O -0.01849 0.78419 0.5976 0.0
O137 O 0.05822 0.82383 0.62479 0.0
O138 O -0.01114 0.89111 0.68244 0.0
O139 O 0.95313 0.8547 0.62539 0.0
C140 C 0.93957 0.82217 0.74839 0.0
O141 O 0.11845 0.84376 0.69297 0.0
O142 O 0.07772 0.9038 0.72101 0.0
C143 C -0.0022 0.71432 0.69137 0.0
C144 C 0.81445 0.74082 0.5926 0.0
C145 C 0.76742 0.73287 0.5196 0.0
C146 C 0.74432 0.70196 0.55062 0.0
C147 C 0.76779 0.70593 0.58693 0.0
C148 C 0.83741 0.77212 0.56198 0.0
C149 C 0.81395 0.76835 0.5258 0.0
C150 C 0.83987 0.7431 0.62992 0.0
C151 C 0.03188 0.80305 0.5934 0.0
H152 H 0.2612 0.93093 0.7955 0.0
H153 H 0.21843 0.93432 0.73364 0.0
H154 H 0.07985 0.83876 0.78273 0.0
H155 H 0.12196 0.83511 0.84413 0.0
H156 H 0.70876 0.67401 0.54651 0.0
H157 H 0.74988 0.68133 0.61037 0.0
H158 H 0.8736 0.79917 0.56599 0.0
H159 H 0.8322 0.7933 0.5027 0.0
C160 C 0.89809 0.92757 0.17929 0.0
C161 C 0.92105 0.95769 0.14808 0.0
C162 C 0.92157 0.93085 0.21529 0.0
C163 C -0.02719 0.95852 0.21737 0.0
C164 C -0.00027 0.98076 0.18254 0.0
C165 C -0.02779 0.98326 0.14918 0.0
C166 C 0.89009 0.90587 0.25061 0.0
C167 C 0.05696 0.00293 0.18015 0.0
C168 C 0.0578 0.02906 0.29583 0.0
C169 C 0.08013 0.98738 0.30363 0.0
C170 C 0.01506 0.01891 0.27257 0.0
C171 C -0.00202 0.96685 0.25572 0.0
C172 C 0.0137 0.92484 0.2717 0.0
C173 C 0.05074 0.93673 0.30006 0.0
C174 C -0.00693 0.06452 0.26238 0.0
C175 C -0.00171 0.8681 0.2557 0.0
H176 H 0.85958 0.90525 0.17738 0.0
H177 H -0.00955 0.00534 0.12434 0.0
H178 H 0.89178 0.86361 0.24778 0.0
H179 H 0.90358 0.92403 0.28026 0.0
H180 H 0.84868 0.90796 0.25 0.0
H181 H 0.0633 0.04613 0.18612 0.0
H182 H 0.07786 0.98683 0.20175 0.0
H183 H 0.07411 0.99413 0.14914 0.0
H184 H 0.07773 0.06906 0.30215 0.0
H185 H 0.06563 0.90497 0.3104 0.0
H186 H 0.95522 0.05182 0.24904 0.0
H187 H 0.02051 0.0875 0.24096 0.0
H188 H -0.01172 0.09114 0.29015 0.0
H189 H 0.96643 0.84884 0.27606 0.0
H190 H 0.03089 0.8469 0.25577 0.0
H191 H -0.01415 0.86308 0.22447 0.0
C192 C -0.00383 0.99183 0.6487 0.0
C193 C -0.0007 0.94309 0.6283 0.0
C194 C 0.03747 0.0337 0.64483 0.0
C195 C 0.08417 0.02462 0.62295 0.0
C196 C 0.08534 0.97684 0.59955 0.0
C197 C 0.04099 0.93803 0.6002 0.0
C198 C 0.0328 0.08567 0.66775 0.0
C199 C 0.13469 0.96314 0.57882 0.0
C200 C 0.17223 0.15182 0.62238 0.0
C201 C 0.16993 0.15975 0.66472 0.0
C202 C 0.148 0.10346 0.60473 0.0
C203 C 0.13238 0.06231 0.62984 0.0
C204 C 0.15232 0.0668 0.66829 0.0
C205 C 0.1713 0.117 0.68604 0.0
C206 C 0.12972 0.10065 0.5629 0.0
C207 C 0.1435 0.02111 0.69351 0.0
H208 H 0.96352 0.99599 0.6702 0.0
H209 H 0.04218 0.90128 0.58308 0.0
H210 H 0.05296 0.09048 0.69603 0.0
H211 H 0.05093 0.1177 0.64914 0.0
H212 H -0.00819 0.08907 0.67597 0.0
H213 H 0.15106 0.93987 0.59853 0.0
H214 H 0.12631 0.93844 0.55044 0.0
H215 H 0.16445 -0.00223 0.57203 0.0
H216 H 0.17796 0.18541 0.60508 0.0
H217 H 0.17576 0.12271 0.71829 0.0
H218 H 0.12296 0.06015 0.54812 0.0
H219 H 0.15809 0.12603 0.5435 0.0
H220 H 0.09267 0.11521 0.56519 0.0
H221 H 0.10466 0.01764 0.70988 0.0
H222 H 0.17272 0.0266 0.71626 0.0
H223 H 0.14514 0.98413 0.67408 0.0
C224 C 0.6192 0.02888 0.12475 0.0
C225 C 0.63848 0.98646 0.13566 0.0
C226 C 0.56841 0.03551 0.1376 0.0
C227 C 0.53657 -0.00122 0.16171 0.0
C228 C 0.55547 0.9551 0.17159 0.0
C229 C 0.606 0.9495 0.15842 0.0
C230 C 0.54922 0.08231 0.12627 0.0
C231 C 0.52276 0.91472 0.19693 0.0
C232 C 0.42527 0.03033 0.23417 0.0
C233 C 0.38256 0.00377 0.2136 0.0
C234 C 0.47581 0.03157 0.21661 0.0
C235 C 0.48368 0.00572 0.17758 0.0
C236 C 0.44061 0.98086 0.15598 0.0
C237 C 0.39063 0.98011 0.17427 0.0
C238 C 0.52084 0.05839 0.24061 0.0
C239 C 0.44721 0.95273 0.11437 0.0
H240 H 0.64416 0.0576 0.10724 0.0
H241 H 0.62031 0.91626 0.16662 0.0
H242 H 0.51244 0.06945 0.11136 0.0
H243 H 0.54102 0.10783 0.15396 0.0
H244 H 0.5777 0.10575 0.10568 0.0
H245 H 0.54305 0.88249 0.20123 0.0
H246 H 0.51203 0.93357 0.22711 0.0
H247 H 0.48635 0.89757 0.18249 0.0
H248 H 0.41932 0.04907 0.26439 0.0
H249 H 0.35786 0.95993 0.15788 0.0
H250 H 0.54877 0.0851 0.222 0.0
H251 H 0.54157 0.02864 0.24923 0.0
H252 H 0.50832 0.08118 0.26859 0.0
H253 H 0.47609 0.97724 0.09482 0.0
H254 H 0.41028 0.94214 0.09938 0.0
H255 H 0.4618 0.91625 0.11682 0.0
C256 C -0.02035 0.41695 0.73763 0.0
C257 C 0.02768 0.40187 0.72878 0.0
C258 C -0.02526 0.4694 0.7364 0.0
C259 C 0.01853 0.50676 0.7245 0.0
C260 C 0.0673 0.49148 0.71642 0.0
C261 C 0.07132 0.43932 0.7192 0.0
C262 C 0.92237 0.48439 0.74627 0.0
C263 C 0.11464 0.52931 0.70233 0.0
C264 C -0.00641 0.6194 0.67086 0.0
C265 C 0.00404 0.66186 0.70019 0.0
C266 C -0.00133 0.56896 0.67833 0.0
C267 C 0.01265 0.56033 0.71668 0.0
C268 C 0.02239 0.60304 0.74673 0.0
C269 C 0.01892 0.6536 0.73784 0.0
C270 C -0.01019 0.52504 0.64491 0.0
C271 C 0.03584 0.59518 0.78833 0.0
H272 H 0.94591 0.38761 0.74464 0.0
H273 H 0.10828 0.42712 0.71179 0.0
H274 H 0.92558 0.52061 0.76729 0.0
H275 H 0.9071 0.49262 0.71826 0.0
H276 H 0.89409 0.45287 0.76013 0.0
H277 H 0.1501 0.51185 0.69919 0.0
H278 H 0.10876 0.54165 0.67258 0.0
H279 H 0.12094 0.56505 0.72377 0.0
H280 H -0.01761 0.62592 0.64164 0.0
H281 H 0.02645 0.68642 0.76067 0.0
H282 H 0.95724 0.49417 0.65432 0.0
H283 H 0.02465 0.50678 0.63875 0.0
H284 H -0.01902 0.53869 0.6164 0.0
H285 H 0.00527 0.56547 0.802 0.0
H286 H 0.04014 0.63197 0.8088 0.0
H287 H 0.07248 0.58005 0.78622 0.0
C288 C 0.19262 0.38754 0.63698 0.0
C289 C 0.19585 0.35045 0.66347 0.0
C290 C 0.22087 0.38746 0.59931 0.0
C291 C 0.25193 0.34905 0.58851 0.0
C292 C 0.26385 0.32016 0.6188 0.0
C293 C 0.23603 0.32203 0.65663 0.0
C294 C 0.21022 0.42182 0.56885 0.0
C295 C 0.29785 0.27966 0.60901 0.0
C296 C 0.21948 0.26382 0.49188 0.0
C297 C 0.26462 0.27636 0.46677 0.0
C298 C 0.21456 0.28861 0.53096 0.0
C299 C 0.25617 0.32685 0.54566 0.0
C300 C 0.30135 0.34094 0.52013 0.0
C301 C 0.30498 0.31559 0.48086 0.0
C302 C 0.16441 0.27357 0.55628 0.0
C303 C 0.34548 0.38312 0.53386 0.0
H304 H 0.16221 0.41049 0.64276 0.0
H305 H 0.23905 0.29387 0.67747 0.0
H306 H 0.2449 0.43297 0.54807 0.0
H307 H 0.17858 0.40011 0.55049 0.0
H308 H 0.19791 0.45785 0.58402 0.0
H309 H 0.31217 0.26927 0.63677 0.0
H310 H 0.27508 0.24362 0.59405 0.0
H311 H 0.3314 0.29366 0.58799 0.0
H312 H 0.18828 0.23336 0.48143 0.0
H313 H 0.33953 0.32638 0.46121 0.0
H314 H 0.14212 0.30573 0.55847 0.0
H315 H 0.17168 0.26761 0.58741 0.0
H316 H 0.13991 0.23733 0.54311 0.0
H317 H 0.33491 0.42194 0.53272 0.0
H318 H 0.38152 0.38159 0.51419 0.0
H319 H 0.35334 0.38012 0.56552 0.0
C320 C 0.89373 0.21432 0.76001 0.0
C321 C 0.93505 0.18835 0.76246 0.0
C322 C 0.85464 0.21446 0.79116 0.0
C323 C 0.85648 0.18695 0.8249 0.0
C324 C 0.89452 0.15547 0.82514 0.0
C325 C 0.93394 0.1571 0.79403 0.0
C326 C 0.81507 0.24874 0.78982 0.0
C327 C 0.89643 0.12391 0.86008 0.0
C328 C 0.82908 0.23683 0.93235 0.0
C329 C 0.78524 0.20016 0.94348 0.0
C330 C 0.84942 0.23686 0.89224 0.0
C331 C 0.82593 0.19863 0.86294 0.0
C332 C 0.77774 0.16686 0.8727 0.0
C333 C 0.75714 0.16906 0.91292 0.0
C334 C 0.89968 0.27343 0.88242 0.0
C335 C 0.75105 0.12616 0.84213 0.0
H336 H 0.8939 0.23818 0.73539 0.0
H337 H 0.96526 0.13621 0.79559 0.0
H338 H 0.77693 0.23127 0.80394 0.0
H339 H 0.82821 0.28711 0.80697 0.0
H340 H 0.81026 0.25593 0.75831 0.0
H341 H 0.92265 0.09523 0.85256 0.0
H342 H 0.9106 0.15064 0.88651 0.0
H343 H 0.85725 0.10254 0.8691 0.0
H344 H 0.85109 0.26176 0.95521 0.0
H345 H 0.72178 0.14241 0.92093 0.0
H346 H 0.89879 0.29006 0.85336 0.0
H347 H 0.93195 0.25136 0.87926 0.0
H348 H 0.90804 0.30616 0.90645 0.0
H349 H 0.75618 0.13989 0.81148 0.0
H350 H 0.70905 0.11525 0.85081 0.0
H351 H 0.76823 0.09043 0.84059 0.0
C352 C 0.69038 0.72506 0.47926 0.0
C353 C 0.74377 0.72796 0.48055 0.0
C354 C 0.66853 0.72421 0.44238 0.0
C355 C 0.70104 0.72676 0.40628 0.0
C356 C 0.75462 0.72762 0.40732 0.0
C357 C 0.77523 0.72789 0.44443 0.0
C358 C 0.61121 0.72283 0.44221 0.0
C359 C 0.79065 0.73042 0.3694 0.0
C360 C 0.66153 0.69751 0.29928 0.0
C361 C 0.66927 0.74826 0.28718 0.0
C362 C 0.66691 0.68953 0.33943 0.0
C363 C 0.68077 0.73338 0.36767 0.0
C364 C 0.6839 0.78454 0.35641 0.0
C365 C 0.67804 0.79134 0.31626 0.0
C366 C 0.66236 0.6344 0.35063 0.0
C367 C 0.69893 0.83242 0.38555 0.0
H368 H 0.66595 0.72526 0.50718 0.0
H369 H 0.81632 0.72886 0.44526 0.0
H370 H 0.60453 0.76129 0.435 0.0
H371 H 0.59426 0.69298 0.41851 0.0
H372 H 0.59046 0.71414 0.47188 0.0
H373 H 0.83087 0.72838 0.37529 0.0
H374 H 0.77674 0.69791 0.34652 0.0
H375 H 0.79123 0.76762 0.3561 0.0
H376 H 0.65412 0.66416 0.27691 0.0
H377 H 0.68473 0.83072 0.30707 0.0
H378 H 0.64166 0.62977 0.38084 0.0
H379 H 0.70161 0.6258 0.35211 0.0
H380 H 0.64182 0.60512 0.32811 0.0
H381 H 0.67745 0.82766 0.41544 0.0
H382 H 0.69161 0.86846 0.37413 0.0
H383 H 0.74078 0.83783 0.39009 0.0
C384 C 0.19322 0.88583 0.89924 0.0
C385 C 0.21994 0.87911 0.86143 0.0
C386 C 0.21309 0.87554 0.93426 0.0
C387 C 0.26104 0.85833 0.9313 0.0
C388 C 0.28973 0.85446 0.89354 0.0
C389 C 0.26868 0.86481 0.85884 0.0
C390 C 0.18159 0.88095 0.97416 0.0
C391 C 0.3414 0.83725 0.88953 0.0
C392 C 0.30574 0.86624 1.03557 0.0
C393 C 0.28144 0.81686 1.04709 0.0
C394 C 0.30471 0.87882 0.99601 0.0
C395 C 0.27846 0.84121 0.96767 0.0
C396 C 0.25948 0.78947 0.97784 0.0
C397 C 0.26138 0.77784 1.01757 0.0
C398 C 0.32626 0.93415 0.98612 0.0
C399 C 0.23169 0.74808 0.94825 0.0
H400 H 0.15598 0.89788 0.90125 0.0
H401 H 0.2893 0.85953 0.82952 0.0
H402 H 0.16995 0.84217 0.98622 0.0
H403 H 0.20507 0.90725 0.99666 0.0
H404 H 0.14613 0.89681 0.97135 0.0
H405 H 0.36217 0.84398 0.85955 0.0
H406 H 0.36617 0.85832 0.91347 0.0
H407 H 0.33555 0.79488 0.89338 0.0
H408 H 0.3213 0.89676 1.0582 0.0
H409 H 0.24356 0.73934 1.02627 0.0
H410 H 0.29445 0.95677 0.98898 0.0
H411 H 0.34384 0.93491 0.95466 0.0
H412 H 0.35577 0.95413 1.00711 0.0
H413 H 0.1927 0.75641 0.94509 0.0
H414 H 0.22699 0.70827 0.95842 0.0
H415 H 0.25275 0.74845 0.91795 0.0
C416 C 0.8071 0.87533 0.97674 0.0
C417 C 0.81721 0.92888 0.99057 0.0
C418 C 0.82445 0.85671 0.93733 0.0
C419 C 0.85251 0.8922 0.91027 0.0
C420 C 0.86158 0.94644 0.92368 0.0
C421 C 0.84418 0.96393 0.96335 0.0
C422 C 0.81382 0.79864 0.92498 0.0
C423 C 0.89055 0.98621 0.89627 0.0
C424 C 0.94447 0.84312 0.82433 0.0
C425 C 0.91579 0.83734 0.79001 0.0
C426 C 0.92433 0.86031 0.86321 0.0
C427 C 0.87393 0.87255 0.86871 0.0
C428 C 0.84454 0.86636 0.83431 0.0
C429 C 0.8656 0.84889 0.7957 0.0
C430 C 0.95749 0.8659 0.8985 0.0
C431 C 0.79088 0.87896 0.83817 0.0
H432 H 0.78674 0.84751 0.99718 0.0
H433 H 0.85236 0.00538 0.97321 0.0
H434 H 0.79363 0.79043 0.89661 0.0
H435 H 0.85089 0.78431 0.91884 0.0
H436 H 0.78989 0.77616 0.94861 0.0
H437 H 0.89395 0.02691 0.91077 0.0
H438 H 0.92997 0.97815 0.88756 0.0
H439 H 0.87059 0.98321 0.86804 0.0
H440 H -0.01675 0.83462 0.82084 0.0
H441 H 0.84283 0.84507 0.76977 0.0
H442 H 0.93707 0.84159 0.9224 0.0
H443 H 0.96448 0.90715 0.9119 0.0
H444 H -0.00458 0.85407 0.88964 0.0
H445 H 0.76608 0.85544 0.86074 0.0
H446 H 0.77236 0.8712 0.809 0.0
H447 H 0.79258 0.92078 0.84925 0.0
C448 C 0.17269 0.96079 0.4087 0.0
C449 C 0.19731 0.93302 0.3767 0.0
C450 C 0.14385 0.93572 0.44136 0.0
C451 C 0.13989 0.88089 0.44333 0.0
C452 C 0.16427 0.85252 0.41082 0.0
C453 C 0.19246 0.87865 0.37829 0.0
C454 C 0.11814 0.96934 0.47342 0.0
C455 C 0.15927 0.79395 0.40974 0.0
C456 C 0.11353 0.82605 0.54767 0.0
C457 C 0.0592 0.81161 0.55186 0.0
C458 C 0.13999 0.84687 0.51243 0.0
C459 C 0.11207 0.85361 0.4796 0.0
C460 C 0.05752 0.83591 0.48248 0.0
C461 C 0.03189 0.81547 0.51832 0.0
C462 C 0.19769 0.866 0.5119 0.0
C463 C 0.02576 0.84098 0.44833 0.0
H464 H 0.17483 0.00248 0.40793 0.0
H465 H 0.20999 0.85602 0.35359 0.0
H466 H 0.08603 0.94663 0.4915 0.0
H467 H 0.14767 0.99065 0.49382 0.0
H468 H 0.10265 -0.00068 0.45957 0.0
H469 H 0.17821 0.77695 0.38169 0.0
H470 H 0.17681 0.7839 0.43608 0.0
H471 H 0.11779 0.77528 0.41192 0.0
H472 H 0.13553 0.82385 0.57307 0.0
H473 H -0.00994 0.80527 0.52083 0.0
H474 H 0.20664 0.90867 0.50865 0.0
H475 H 0.21743 0.8464 0.48556 0.0
H476 H 0.21397 0.85883 0.53986 0.0
H477 H 0.02567 0.88298 0.44607 0.0
H478 H -0.01488 0.82023 0.4528 0.0
H479 H 0.0431 0.82516 0.41916 0.0
C480 C 0.19584 0.13763 0.97475 0.0
C481 C 0.14853 0.15364 0.97101 0.0
C482 C 0.20635 0.11685 1.01011 0.0
C483 C 0.16885 0.11104 1.04348 0.0
C484 C 0.12068 0.12607 1.03977 0.0
C485 C 0.11127 0.14707 1.00412 0.0
C486 C 0.2581 0.1012 1.01178 0.0
C487 C 0.07894 0.12053 0.07386 0.0
C488 C 0.18036 0.01745 0.12364 0.0
C489 C 0.20233 0.05166 0.15576 0.0
C490 C 0.16931 0.0359 0.08743 0.0
C491 C 0.18037 0.09034 0.08231 0.0
C492 C 0.20286 0.12501 0.1145 0.0
C493 C 0.2135 0.10549 0.15038 0.0
C494 C 0.1454 0.99684 1.0546 0.0
C495 C 0.21585 0.18317 0.11106 0.0
H496 H 0.22504 0.14087 0.94973 0.0
H497 H 0.07472 0.15941 1.00272 0.0
H498 H 0.27821 0.12363 1.03776 0.0
H499 H 0.25253 0.05912 1.01658 0.0
H500 H 0.28342 0.10811 0.98371 0.0
H501 H 0.04278 0.13156 0.06604 0.0
H502 H 0.06996 0.07955 0.08197 0.0
H503 H 0.09278 0.1457 0.10111 0.0
H504 H 0.17153 0.97581 0.12676 0.0
H505 H 0.23043 0.13279 0.17448 0.0
H506 H 0.17005 0.00045 1.02593 0.0
H507 H 0.1072 0.00518 1.04899 0.0
H508 H 0.14007 0.95587 1.06248 0.0
H509 H 0.24332 0.19144 0.08435 0.0
H510 H 0.23328 0.20522 0.13835 0.0
H511 H 0.18039 0.1979 0.10639 0.0
C512 C 0.80087 0.9928 0.27334 0.0
C513 C 0.81668 0.02333 0.24067 0.0
C514 C 0.81611 0.01062 0.31311 0.0
C515 C 0.84923 0.06012 0.32097 0.0
C516 C 0.8648 0.0911 0.28793 0.0
C517 C 0.84805 0.07276 0.24895 0.0
C518 C 0.79664 0.97568 0.34644 0.0
C519 C 0.89966 0.1441 0.29284 0.0
C520 C 0.87045 0.14288 0.42391 0.0
C521 C 0.91123 0.12444 0.43864 0.0
C522 C 0.84836 0.12069 0.38724 0.0
C523 C 0.86816 0.07962 0.363 0.0
C524 C 0.90851 0.05997 0.3783 0.0
C525 C 0.92903 0.0822 0.4155 0.0
C526 C 0.80342 0.14177 0.37493 0.0
C527 C 0.93059 0.01486 0.35624 0.0
H528 H 0.77616 0.95488 0.26795 0.0
H529 H 0.86096 0.09725 0.22444 0.0
H530 H 0.82464 0.94967 0.34854 0.0
H531 H 0.7922 -0.00144 0.37616 0.0
H532 H 0.75889 0.95032 0.33997 0.0
H533 H 0.92515 0.15171 0.26493 0.0
H534 H 0.8755 0.17479 0.29783 0.0
H535 H 0.92435 0.1483 0.31857 0.0
H536 H 0.85486 0.17439 0.44147 0.0
H537 H 0.96021 0.06683 0.42596 0.0
H538 H 0.77796 0.11225 0.35567 0.0
H539 H 0.81838 0.17628 0.35786 0.0
H540 H 0.77975 0.155 0.40191 0.0
H541 H 0.91341 0.97868 0.37078 0.0
H542 H -0.02702 0.02121 0.35879 0.0
H543 H 0.92271 0.00825 0.32391 0.0
loop_
_geom_bond_atom_site_label_1
_geom_bond_atom_site_label_2
_geom_bond_distance
_geom_bond_site_symmetry_2
_ccdc_geom_bond_type
Tb0 C9 2.764 . S
Tb0 O10 2.325 1_565 S
Tb0 O13 2.303 1_565 S
Tb0 O17 2.322 . S
Tb0 O18 2.349 . S
Tb0 O21 2.415 . S
Tb0 O22 2.399 . S
Tb1 O11 2.322 . S
Tb1 O12 2.349 . S
Tb1 O14 2.415 . S
Tb1 O15 2.399 . S
Tb1 O16 2.325 . S
Tb1 O19 2.303 . S
Tb1 C30 2.764 . S
C2 O18 1.261 1_545 S
C2 O19 1.257 . S
C3 C6 1.358 . S
C3 C7 1.332 . S
C3 C9 1.504 . S
C4 C5 1.373 . S
C4 C8 1.308 . S
C5 C4 1.373 . S
C5 C6 1.429 1_556 S
C5 H32 0.932 . S
C6 C3 1.358 . S
C6 C5 1.429 1_554 S
C6 H33 0.930 . S
C7 C3 1.332 . S
C7 C8 1.394 1_554 S
C7 H34 0.932 . S
C8 C4 1.308 . S
C8 C7 1.394 1_556 S
C8 H35 0.929 . S
C9 Tb0 2.764 . S
C9 C3 1.504 . S
C9 O21 1.239 . S
C9 O22 1.263 . S
O10 Tb0 2.325 1_545 S
O10 C20 1.236 . S
O11 Tb1 2.322 . S
O11 C20 1.257 . S
O12 Tb1 2.349 . S
O12 C23 1.261 . S
O13 Tb0 2.303 1_545 S
O13 C23 1.257 . S
O14 Tb1 2.415 . S
O14 C30 1.239 . S
O15 Tb1 2.399 . S
O15 C30 1.263 . S
O16 Tb1 2.325 . S
O16 C31 1.236 1_545 S
O17 Tb0 2.322 . S
O17 C31 1.257 . S
O18 Tb0 2.349 . S
O18 C2 1.261 1_565 S
O19 Tb1 2.303 . S
O19 C2 1.257 . S
C20 O10 1.236 . S
C20 O11 1.257 . S
O21 Tb0 2.415 . S
O21 C9 1.239 . S
O22 Tb0 2.399 . S
O22 C9 1.263 . S
C23 O12 1.261 . S
C23 O13 1.257 . S
C24 C27 1.358 . S
C24 C28 1.332 . S
C24 C30 1.504 . S
C25 C26 1.373 . S
C25 C29 1.308 . S
C26 C25 1.373 . S
C26 C27 1.429 . S
C26 H36 0.932 . S
C27 C24 1.358 . S
C27 C26 1.429 . S
C27 H37 0.930 . S
C28 C24 1.332 . S
C28 C29 1.394 . S
C28 H38 0.932 . S
C29 C25 1.308 . S
C29 C28 1.394 . S
C29 H39 0.929 . S
C30 Tb1 2.764 . S
C30 O14 1.239 . S
C30 O15 1.263 . S
C30 C24 1.504 . S
C31 O16 1.236 1_565 S
C31 O17 1.257 . S
H32 C5 0.932 . S
H33 C6 0.930 . S
H34 C7 0.932 . S
H35 C8 0.929 . S
H36 C26 0.932 . S
H37 C27 0.930 . S
H38 C28 0.932 . S
H39 C29 0.929 . S
Tb40 C49 2.764 . S
Tb40 O50 2.325 . S
Tb40 O53 2.303 . S
Tb40 O57 2.322 . S
Tb40 O58 2.349 . S
Tb40 O61 2.415 . S
Tb40 O62 2.399 . S
Tb41 O51 2.322 . S
Tb41 O52 2.349 . S
Tb41 O54 2.417 . S
Tb41 O55 2.399 1_455 S
Tb41 O56 2.325 . S
Tb41 O59 2.303 . S
Tb41 C70 2.764 1_455 S
C42 O58 1.261 . S
C42 O59 1.257 . S
C43 C46 1.358 . S
C43 C47 1.332 . S
C43 C49 1.504 . S
C44 C45 1.373 . S
C44 C48 1.308 . S
C45 C44 1.373 . S
C45 C46 1.429 . S
C45 H72 0.932 . S
C46 C43 1.358 . S
C46 C45 1.429 . S
C46 H73 0.930 . S
C47 C43 1.332 . S
C47 C48 1.394 . S
C47 H74 0.932 . S
C48 C44 1.308 . S
C48 C47 1.394 . S
C48 H75 0.929 . S
C49 Tb40 2.764 . S
C49 C43 1.504 . S
C49 O61 1.239 . S
C49 O62 1.263 . S
O50 Tb40 2.325 . S
O50 C60 1.236 . S
O51 Tb41 2.322 . S
O51 C60 1.257 . S
O52 Tb41 2.349 . S
O52 C63 1.261 . S
O53 Tb40 2.303 . S
O53 C63 1.257 . S
O54 Tb41 2.417 . S
O54 C70 1.237 1_455 S
O55 Tb41 2.399 1_655 S
O55 C70 1.263 . S
O56 Tb41 2.325 . S
O56 C71 1.236 . S
O57 Tb40 2.322 . S
O57 C71 1.257 . S
O58 Tb40 2.349 . S
O58 C42 1.261 . S
O59 Tb41 2.303 . S
O59 C42 1.257 . S
C60 O50 1.236 . S
C60 O51 1.257 . S
O61 Tb40 2.415 . S
O61 C49 1.239 . S
O62 Tb40 2.399 . S
O62 C49 1.263 . S
C63 O52 1.261 . S
C63 O53 1.257 . S
C64 C67 1.358 . S
C64 C68 1.332 . S
C64 C70 1.504 . S
C65 C66 1.373 . S
C65 C69 1.308 . S
C66 C65 1.373 . S
C66 C67 1.429 . S
C66 H76 0.932 . S
C67 C64 1.358 . S
C67 C66 1.429 . S
C67 H77 0.930 . S
C68 C64 1.332 . S
C68 C69 1.394 . S
C68 H78 0.932 . S
C69 C65 1.308 . S
C69 C68 1.394 . S
C69 H79 0.929 . S
C70 Tb41 2.764 1_655 S
C70 O54 1.237 1_655 S
C70 O55 1.263 . S
C70 C64 1.504 . S
C71 O56 1.236 . S
C71 O57 1.257 . S
H72 C45 0.932 . S
H73 C46 0.930 . S
H74 C47 0.932 . S
H75 C48 0.929 . S
H76 C66 0.932 . S
H77 C67 0.930 . S
H78 C68 0.932 . S
H79 C69 0.929 . S
Tb80 C89 2.764 . S
Tb80 O90 2.325 1_565 S
Tb80 O93 2.303 . S
Tb80 O97 2.322 . S
Tb80 O98 2.349 . S
Tb80 O101 2.415 . S
Tb80 O102 2.399 . S
Tb81 O91 2.322 . S
Tb81 O92 2.349 . S
Tb81 O94 2.415 . S
Tb81 O95 2.399 . S
Tb81 O96 2.325 1_545 S
Tb81 O99 2.303 . S
Tb81 C110 2.764 1_554 S
C82 O98 1.261 . S
C82 O99 1.257 1_565 S
C83 C86 1.358 . S
C83 C87 1.332 . S
C83 C89 1.504 . S
C84 C85 1.373 . S
C84 C88 1.308 . S
C85 C84 1.373 . S
C85 C86 1.429 . S
C85 H112 0.932 . S
C86 C83 1.358 . S
C86 C85 1.429 . S
C86 H113 0.930 . S
C87 C83 1.332 . S
C87 C88 1.394 . S
C87 H114 0.932 . S
C88 C84 1.308 . S
C88 C87 1.394 . S
C88 H115 0.929 . S
C89 Tb80 2.764 . S
C89 C83 1.504 . S
C89 O101 1.239 . S
C89 O102 1.263 . S
O90 Tb80 2.325 1_545 S
O90 C100 1.236 . S
O91 Tb81 2.322 . S
O91 C100 1.257 . S
O92 Tb81 2.349 . S
O92 C103 1.261 . S
O93 Tb80 2.303 . S
O93 C103 1.257 1_565 S
O94 Tb81 2.415 . S
O94 C110 1.239 1_554 S
O95 Tb81 2.399 . S
O95 C110 1.263 1_554 S
O96 Tb81 2.325 1_565 S
O96 C111 1.236 . S
O97 Tb80 2.322 . S
O97 C111 1.257 . S
O98 Tb80 2.349 . S
O98 C82 1.261 . S
O99 Tb81 2.303 . S
O99 C82 1.257 1_545 S
C100 O90 1.236 . S
C100 O91 1.257 . S
O101 Tb80 2.415 . S
O101 C89 1.239 . S
O102 Tb80 2.399 . S
O102 C89 1.263 . S
C103 O92 1.261 . S
C103 O93 1.257 1_545 S
C104 C107 1.358 . S
C104 C108 1.332 . S
C104 C110 1.504 . S
C105 C106 1.373 . S
C105 C109 1.308 . S
C106 C105 1.373 . S
C106 C107 1.429 . S
C106 H116 0.932 . S
C107 C104 1.358 . S
C107 C106 1.429 . S
C107 H117 0.930 . S
C108 C104 1.332 . S
C108 C109 1.394 . S
C108 H118 0.932 . S
C109 C105 1.308 . S
C109 C108 1.394 . S
C109 H119 0.929 . S
C110 Tb81 2.764 1_556 S
C110 O94 1.239 1_556 S
C110 O95 1.263 1_556 S
C110 C104 1.504 . S
C111 O96 1.236 . S
C111 O97 1.257 . S
H112 C85 0.932 . S
H113 C86 0.930 . S
H114 C87 0.932 . S
H115 C88 0.929 . S
H116 C106 0.932 . S
H117 C107 0.930 . S
H118 C108 0.932 . S
H119 C109 0.929 . S
Tb120 C129 2.764 . S
Tb120 O130 2.325 1_455 S
Tb120 O133 2.303 . S
Tb120 O137 2.322 . S
Tb120 O138 2.349 . S
Tb120 O141 2.415 . S
Tb120 O142 2.399 . S
Tb121 O131 2.322 . S
Tb121 O132 2.349 . S
Tb121 O134 2.415 . S
Tb121 O135 2.399 . S
Tb121 O136 2.325 1_655 S
Tb121 O139 2.303 . S
Tb121 C150 2.764 . S
C122 O138 1.261 . S
C122 O139 1.257 1_455 S
C123 C126 1.358 . S
C123 C127 1.332 . S
C123 C129 1.504 . S
C124 C125 1.373 . S
C124 C128 1.308 . S
C125 C124 1.373 . S
C125 C126 1.429 . S
C125 H152 0.932 . S
C126 C123 1.358 . S
C126 C125 1.429 . S
C126 H153 0.930 . S
C127 C123 1.332 . S
C127 C128 1.394 . S
C127 H154 0.932 . S
C128 C124 1.308 . S
C128 C127 1.394 . S
C128 H155 0.929 . S
C129 Tb120 2.764 . S
C129 C123 1.504 . S
C129 O141 1.239 . S
C129 O142 1.263 . S
O130 Tb120 2.325 1_655 S
O130 C140 1.236 . S
O131 Tb121 2.322 . S
O131 C140 1.257 . S
O132 Tb121 2.349 . S
O132 C143 1.261 . S
O133 Tb120 2.303 . S
O133 C143 1.257 1_455 S
O134 Tb121 2.415 . S
O134 C150 1.239 . S
O135 Tb121 2.399 . S
O135 C150 1.263 . S
O136 Tb121 2.325 1_455 S
O136 C151 1.236 . S
O137 Tb120 2.322 . S
O137 C151 1.257 . S
O138 Tb120 2.349 . S
O138 C122 1.261 . S
O139 Tb121 2.303 . S
O139 C122 1.257 1_655 S
C140 O130 1.236 . S
C140 O131 1.257 . S
O141 Tb120 2.415 . S
O141 C129 1.239 . S
O142 Tb120 2.399 . S
O142 C129 1.263 . S
C143 O132 1.261 . S
C143 O133 1.257 1_655 S
C144 C147 1.358 . S
C144 C148 1.332 . S
C144 C150 1.504 . S
C145 C146 1.373 . S
C145 C149 1.308 . S
C146 C145 1.373 . S
C146 C147 1.429 . S
C146 H156 0.932 . S
C147 C144 1.358 . S
C147 C146 1.429 . S
C147 H157 0.930 . S
C148 C144 1.332 . S
C148 C149 1.394 . S
C148 H158 0.932 . S
C149 C145 1.308 . S
C149 C148 1.394 . S
C149 H159 0.929 . S
C150 Tb121 2.764 . S
C150 O134 1.239 . S
C150 O135 1.263 . S
C150 C144 1.504 . S
C151 O136 1.236 . S
C151 O137 1.257 . S
H152 C125 0.932 . S
H153 C126 0.930 . S
H154 C127 0.932 . S
H155 C128 0.929 . S
H156 C146 0.932 . S
H157 C147 0.930 . S
H158 C148 0.932 . S
H159 C149 0.929 . S
C160 C161 1.379 1_565 S
C160 C162 1.394 . S
C160 H176 0.931 . S
C161 C160 1.379 1_545 S
C161 C165 1.384 . S
C162 C160 1.394 . S
C162 C163 1.369 1_665 S
C162 C166 1.531 . S
C163 C162 1.369 1_445 S
C163 C164 1.410 . S
C163 C171 1.503 . S
C164 C163 1.410 . S
C164 C165 1.392 1_455 S
C164 C167 1.511 . S
C165 C161 1.384 . S
C165 C164 1.392 1_655 S
C165 H177 0.929 . S
C166 C162 1.531 . S
C166 H178 0.960 1_655 S
C166 H179 0.962 . S
C166 H180 0.960 . S
C167 C164 1.511 . S
C167 H181 0.961 . S
C167 H182 0.961 . S
C167 H183 0.961 . S
C168 C169 1.370 . S
C168 C170 1.363 . S
C168 H184 0.931 . S
C169 C168 1.370 . S
C169 C173 1.408 1_545 S
C170 C168 1.363 . S
C170 C171 1.370 . S
C170 C174 1.524 . S
C171 C163 1.503 . S
C171 C170 1.370 . S
C171 C172 1.403 1_545 S
C172 C171 1.403 1_565 S
C172 C173 1.404 . S
C172 C175 1.539 . S
C173 C169 1.408 1_565 S
C173 C172 1.404 . S
C173 H185 0.930 . S
C174 C170 1.524 . S
C174 H186 0.956 1_455 S
C174 H187 0.961 . S
C174 H188 0.961 . S
C175 C172 1.539 . S
C175 H189 0.958 . S
C175 H190 0.961 . S
C175 H191 0.960 . S
H176 C160 0.931 . S
H177 C165 0.929 . S
H178 C166 0.960 1_455 S
H179 C166 0.962 . S
H180 C166 0.960 . S
H181 C167 0.961 . S
H182 C167 0.961 . S
H183 C167 0.961 . S
H184 C168 0.931 . S
H185 C173 0.930 . S
H186 C174 0.956 1_655 S
H187 C174 0.961 . S
H188 C174 0.961 . S
H189 C175 0.958 . S
H190 C175 0.961 . S
H191 C175 0.960 . S
C192 C193 1.406 . S
C192 C194 1.394 . S
C192 H208 0.931 . S
C193 C192 1.406 . S
C193 C197 1.359 1_655 S
C194 C192 1.394 . S
C194 C195 1.369 1_655 S
C194 C198 1.531 . S
C195 C194 1.369 1_455 S
C195 C196 1.410 . S
C195 C203 1.503 1_565 S
C196 C195 1.410 . S
C196 C197 1.392 . S
C196 C199 1.511 . S
C197 C193 1.359 1_455 S
C197 C196 1.392 . S
C197 H209 0.929 . S
C198 C194 1.531 . S
C198 H210 0.960 1_565 S
C198 H211 0.962 . S
C198 H212 0.960 . S
C199 C196 1.511 . S
C199 H213 0.961 . S
C199 H214 0.961 . S
C199 H215 0.961 . S
C200 C201 1.370 . S
C200 C202 1.363 . S
C200 H216 0.931 . S
C201 C200 1.370 . S
C201 C205 1.408 . S
C202 C200 1.363 . S
C202 C203 1.370 . S
C202 C206 1.524 . S
C203 C195 1.503 1_545 S
C203 C202 1.370 . S
C203 C204 1.403 . S
C204 C203 1.403 . S
C204 C205 1.404 . S
C204 C207 1.539 . S
C205 C201 1.408 . S
C205 C204 1.404 . S
C205 H217 0.930 . S
C206 C202 1.524 . S
C206 H218 0.956 . S
C206 H219 0.961 1_545 S
C206 H220 0.961 . S
C207 C204 1.539 . S
C207 H221 0.958 1_455 S
C207 H222 0.961 . S
C207 H223 0.960 1_545 S
H208 C192 0.931 . S
H209 C197 0.929 . S
H210 C198 0.960 1_545 S
H211 C198 0.962 . S
H212 C198 0.960 . S
H213 C199 0.961 . S
H214 C199 0.961 . S
H215 C199 0.961 . S
H216 C200 0.931 . S
H217 C205 0.930 . S
H218 C206 0.956 . S
H219 C206 0.961 1_565 S
H220 C206 0.961 . S
H221 C207 0.958 1_655 S
H222 C207 0.961 . S
H223 C207 0.960 1_565 S
C224 C225 1.393 1_545 S
C224 C226 1.394 . S
C224 H240 0.931 . S
C225 C224 1.393 1_565 S
C225 C229 1.374 . S
C226 C224 1.394 . S
C226 C227 1.369 . S
C226 C230 1.531 . S
C227 C226 1.369 . S
C227 C228 1.410 1_545 S
C227 C235 1.503 . S
C228 C227 1.410 1_565 S
C228 C229 1.392 . S
C228 C231 1.511 . S
C229 C225 1.374 . S
C229 C228 1.392 . S
C229 H241 0.929 . S
C230 C226 1.531 . S
C230 H242 0.960 . S
C230 H243 0.962 . S
C230 H244 0.960 . S
C231 C228 1.511 . S
C231 H245 0.961 . S
C231 H246 0.961 . S
C231 H247 0.961 . S
C232 C233 1.370 . S
C232 C234 1.363 . S
C232 H248 0.931 . S
C233 C232 1.370 . S
C233 C237 1.408 . S
C234 C232 1.363 . S
C234 C235 1.370 . S
C234 C238 1.524 . S
C235 C227 1.503 . S
C235 C234 1.370 . S
C235 C236 1.403 . S
C236 C235 1.403 . S
C236 C237 1.404 . S
C236 C239 1.539 . S
C237 C233 1.408 . S
C237 C236 1.404 . S
C237 H249 0.930 . S
C238 C234 1.524 . S
C238 H250 0.956 . S
C238 H251 0.961 1_545 S
C238 H252 0.961 . S
C239 C236 1.539 . S
C239 H253 0.958 . S
C239 H254 0.961 1_545 S
C239 H255 0.960 1_545 S
H240 C224 0.931 . S
H241 C229 0.929 . S
H242 C230 0.960 . S
H243 C230 0.962 . S
H244 C230 0.960 . S
H245 C231 0.961 . S
H246 C231 0.961 . S
H247 C231 0.961 . S
H248 C232 0.931 . S
H249 C237 0.930 . S
H250 C238 0.956 . S
H251 C238 0.961 1_565 S
H252 C238 0.961 . S
H253 C239 0.958 . S
H254 C239 0.961 1_565 S
H255 C239 0.960 1_565 S
C256 C257 1.391 . S
C256 C258 1.394 . S
C256 H272 0.931 . S
C257 C256 1.391 . S
C257 C261 1.376 . S
C258 C256 1.394 . S
C258 C259 1.369 . S
C258 C262 1.531 1_455 S
C259 C258 1.369 . S
C259 C260 1.410 . S
C259 C267 1.503 . S
C260 C259 1.410 . S
C260 C261 1.392 . S
C260 C263 1.511 . S
C261 C257 1.376 . S
C261 C260 1.392 . S
C261 H273 0.929 . S
C262 C258 1.531 1_655 S
C262 H274 0.960 . S
C262 H275 0.962 . S
C262 H276 0.960 . S
C263 C260 1.511 . S
C263 H277 0.961 . S
C263 H278 0.961 . S
C263 H279 0.961 . S
C264 C265 1.370 . S
C264 C266 1.363 1_655 S
C264 H280 0.931 . S
C265 C264 1.370 . S
C265 C269 1.408 1_655 S
C266 C264 1.363 1_455 S
C266 C267 1.370 . S
C266 C270 1.524 . S
C267 C259 1.503 . S
C267 C266 1.370 . S
C267 C268 1.403 . S
C268 C267 1.403 . S
C268 C269 1.404 . S
C268 C271 1.539 . S
C269 C265 1.408 1_455 S
C269 C268 1.404 . S
C269 H281 0.930 . S
C270 C266 1.524 . S
C270 H282 0.956 1_455 S
C270 H283 0.961 . S
C270 H284 0.961 . S
C271 C268 1.539 . S
C271 H285 0.958 . S
C271 H286 0.961 . S
C271 H287 0.960 . S
H272 C256 0.931 . S
H273 C261 0.929 . S
H274 C262 0.960 . S
H275 C262 0.962 . S
H276 C262 0.960 . S
H277 C263 0.961 . S
H278 C263 0.961 . S
H279 C263 0.961 . S
H280 C264 0.931 . S
H281 C269 0.930 . S
H282 C270 0.956 1_655 S
H283 C270 0.961 . S
H284 C270 0.961 . S
H285 C271 0.958 . S
H286 C271 0.961 . S
H287 C271 0.960 . S
C288 C289 1.391 . S
C288 C290 1.394 . S
C288 H304 0.931 . S
C289 C288 1.391 . S
C289 C293 1.376 . S
C290 C288 1.394 . S
C290 C291 1.369 . S
C290 C294 1.531 . S
C291 C290 1.369 . S
C291 C292 1.410 . S
C291 C299 1.503 . S
C292 C291 1.410 . S
C292 C293 1.392 . S
C292 C295 1.511 . S
C293 C289 1.376 . S
C293 C292 1.392 . S
C293 H305 0.929 . S
C294 C290 1.531 . S
C294 H306 0.960 . S
C294 H307 0.962 . S
C294 H308 0.960 . S
C295 C292 1.511 . S
C295 H309 0.961 . S
C295 H310 0.961 . S
C295 H311 0.961 . S
C296 C297 1.370 . S
C296 C298 1.363 . S
C296 H312 0.931 . S
C297 C296 1.370 . S
C297 C301 1.408 . S
C298 C296 1.363 . S
C298 C299 1.370 . S
C298 C302 1.524 . S
C299 C291 1.503 . S
C299 C298 1.370 . S
C299 C300 1.403 . S
C300 C299 1.403 . S
C300 C301 1.404 . S
C300 C303 1.539 . S
C301 C297 1.408 . S
C301 C300 1.404 . S
C301 H313 0.930 . S
C302 C298 1.524 . S
C302 H314 0.956 . S
C302 H315 0.961 . S
C302 H316 0.961 . S
C303 C300 1.539 . S
C303 H317 0.958 . S
C303 H318 0.961 . S
C303 H319 0.960 . S
H304 C288 0.931 . S
H305 C293 0.929 . S
H306 C294 0.960 . S
H307 C294 0.962 . S
H308 C294 0.960 . S
H309 C295 0.961 . S
H310 C295 0.961 . S
H311 C295 0.961 . S
H312 C296 0.931 . S
H313 C301 0.930 . S
H314 C302 0.956 . S
H315 C302 0.961 . S
H316 C302 0.961 . S
H317 C303 0.958 . S
H318 C303 0.961 . S
H319 C303 0.960 . S
C320 C321 1.391 . S
C320 C322 1.394 . S
C320 H336 0.931 . S
C321 C320 1.391 . S
C321 C325 1.376 1_455 S
C322 C320 1.394 . S
C322 C323 1.369 1_455 S
C322 C326 1.531 . S
C323 C322 1.369 1_655 S
C323 C324 1.410 . S
C323 C331 1.503 . S
C324 C323 1.410 . S
C324 C325 1.392 . S
C324 C327 1.511 . S
C325 C321 1.376 1_655 S
C325 C324 1.392 . S
C325 H337 0.929 . S
C326 C322 1.531 . S
C326 H338 0.960 . S
C326 H339 0.962 . S
C326 H340 0.960 . S
C327 C324 1.511 . S
C327 H341 0.961 . S
C327 H342 0.961 . S
C327 H343 0.961 . S
C328 C329 1.370 . S
C328 C330 1.363 . S
C328 H344 0.931 . S
C329 C328 1.370 . S
C329 C333 1.408 . S
C330 C328 1.363 . S
C330 C331 1.370 . S
C330 C334 1.524 . S
C331 C323 1.503 . S
C331 C330 1.370 . S
C331 C332 1.403 . S
C332 C331 1.403 . S
C332 C333 1.404 . S
C332 C335 1.539 . S
C333 C329 1.408 . S
C333 C332 1.404 . S
C333 H345 0.930 . S
C334 C330 1.524 . S
C334 H346 0.956 1_655 S
C334 H347 0.961 . S
C334 H348 0.961 . S
C335 C332 1.539 . S
C335 H349 0.958 . S
C335 H350 0.961 . S
C335 H351 0.960 . S
H336 C320 0.931 . S
H337 C325 0.929 . S
H338 C326 0.960 . S
H339 C326 0.962 . S
H340 C326 0.960 . S
H341 C327 0.961 . S
H342 C327 0.961 . S
H343 C327 0.961 . S
H344 C328 0.931 . S
H345 C333 0.930 . S
H346 C334 0.956 1_455 S
H347 C334 0.961 . S
H348 C334 0.961 . S
H349 C335 0.958 . S
H350 C335 0.961 . S
H351 C335 0.960 . S
C352 C353 1.391 . S
C352 C354 1.394 . S
C352 H368 0.931 . S
C353 C352 1.391 . S
C353 C357 1.376 . S
C354 C352 1.394 . S
C354 C355 1.369 . S
C354 C358 1.531 . S
C355 C354 1.369 . S
C355 C356 1.410 . S
C355 C363 1.503 . S
C356 C355 1.410 . S
C356 C357 1.392 . S
C356 C359 1.511 . S
C357 C353 1.376 . S
C357 C356 1.392 . S
C357 H369 0.929 . S
C358 C354 1.531 . S
C358 H370 0.960 . S
C358 H371 0.962 . S
C358 H372 0.960 . S
C359 C356 1.511 . S
C359 H373 0.961 . S
C359 H374 0.961 . S
C359 H375 0.961 . S
C360 C361 1.370 . S
C360 C362 1.363 . S
C360 H376 0.931 . S
C361 C360 1.370 . S
C361 C365 1.408 . S
C362 C360 1.363 . S
C362 C363 1.370 . S
C362 C366 1.524 . S
C363 C355 1.503 . S
C363 C362 1.370 . S
C363 C364 1.403 . S
C364 C363 1.403 . S
C364 C365 1.404 . S
C364 C367 1.539 . S
C365 C361 1.408 . S
C365 C364 1.404 . S
C365 H377 0.930 . S
C366 C362 1.524 . S
C366 H378 0.956 . S
C366 H379 0.961 . S
C366 H380 0.961 . S
C367 C364 1.539 . S
C367 H381 0.958 . S
C367 H382 0.961 . S
C367 H383 0.960 . S
H368 C352 0.931 . S
H369 C357 0.929 . S
H370 C358 0.960 . S
H371 C358 0.962 . S
H372 C358 0.960 . S
H373 C359 0.961 . S
H374 C359 0.961 . S
H375 C359 0.961 . S
H376 C360 0.931 . S
H377 C365 0.930 . S
H378 C366 0.956 . S
H379 C366 0.961 . S
H380 C366 0.961 . S
H381 C367 0.958 . S
H382 C367 0.961 . S
H383 C367 0.960 . S
C384 C385 1.391 . S
C384 C386 1.394 . S
C384 H400 0.931 . S
C385 C384 1.391 . S
C385 C389 1.376 . S
C386 C384 1.394 . S
C386 C387 1.369 . S
C386 C390 1.531 . S
C387 C386 1.369 . S
C387 C388 1.410 . S
C387 C395 1.503 . S
C388 C387 1.410 . S
C388 C389 1.392 . S
C388 C391 1.511 . S
C389 C385 1.376 . S
C389 C388 1.392 . S
C389 H401 0.929 . S
C390 C386 1.531 . S
C390 H402 0.960 . S
C390 H403 0.962 . S
C390 H404 0.960 . S
C391 C388 1.511 . S
C391 H405 0.961 . S
C391 H406 0.961 . S
C391 H407 0.961 . S
C392 C393 1.370 . S
C392 C394 1.363 . S
C392 H408 0.931 . S
C393 C392 1.370 . S
C393 C397 1.408 . S
C394 C392 1.363 . S
C394 C395 1.370 . S
C394 C398 1.524 . S
C395 C387 1.503 . S
C395 C394 1.370 . S
C395 C396 1.403 . S
C396 C395 1.403 . S
C396 C397 1.404 . S
C396 C399 1.539 . S
C397 C393 1.408 . S
C397 C396 1.404 . S
C397 H409 0.930 . S
C398 C394 1.524 . S
C398 H410 0.956 . S
C398 H411 0.961 . S
C398 H412 0.961 . S
C399 C396 1.539 . S
C399 H413 0.958 . S
C399 H414 0.961 . S
C399 H415 0.960 . S
H400 C384 0.931 . S
H401 C389 0.929 . S
H402 C390 0.960 . S
H403 C390 0.962 . S
H404 C390 0.960 . S
H405 C391 0.961 . S
H406 C391 0.961 . S
H407 C391 0.961 . S
H408 C392 0.931 . S
H409 C397 0.930 . S
H410 C398 0.956 . S
H411 C398 0.961 . S
H412 C398 0.961 . S
H413 C399 0.958 . S
H414 C399 0.961 . S
H415 C399 0.960 . S
C416 C417 1.391 . S
C416 C418 1.394 . S
C416 H432 0.931 . S
C417 C416 1.391 . S
C417 C421 1.376 . S
C418 C416 1.394 . S
C418 C419 1.369 . S
C418 C422 1.531 . S
C419 C418 1.369 . S
C419 C420 1.410 . S
C419 C427 1.503 . S
C420 C419 1.410 . S
C420 C421 1.392 . S
C420 C423 1.511 . S
C421 C417 1.376 . S
C421 C420 1.392 . S
C421 H433 0.929 . S
C422 C418 1.531 . S
C422 H434 0.960 . S
C422 H435 0.962 . S
C422 H436 0.960 . S
C423 C420 1.511 . S
C423 H437 0.961 . S
C423 H438 0.961 . S
C423 H439 0.961 . S
C424 C425 1.370 . S
C424 C426 1.363 . S
C424 H440 0.931 . S
C425 C424 1.370 . S
C425 C429 1.408 . S
C426 C424 1.363 . S
C426 C427 1.370 . S
C426 C430 1.524 . S
C427 C419 1.503 . S
C427 C426 1.370 . S
C427 C428 1.403 . S
C428 C427 1.403 . S
C428 C429 1.404 . S
C428 C431 1.539 . S
C429 C425 1.408 . S
C429 C428 1.404 . S
C429 H441 0.930 . S
C430 C426 1.524 . S
C430 H442 0.956 . S
C430 H443 0.961 . S
C430 H444 0.961 . S
C431 C428 1.539 . S
C431 H445 0.958 . S
C431 H446 0.961 . S
C431 H447 0.960 . S
H432 C416 0.931 . S
H433 C421 0.929 . S
H434 C422 0.960 . S
H435 C422 0.962 . S
H436 C422 0.960 . S
H437 C423 0.961 . S
H438 C423 0.961 . S
H439 C423 0.961 . S
H440 C424 0.931 . S
H441 C429 0.930 . S
H442 C430 0.956 . S
H443 C430 0.961 . S
H444 C430 0.961 . S
H445 C431 0.958 . S
H446 C431 0.961 . S
H447 C431 0.960 . S
C448 C449 1.391 . S
C448 C450 1.394 . S
C448 H464 0.931 . S
C449 C448 1.391 . S
C449 C453 1.376 . S
C450 C448 1.394 . S
C450 C451 1.369 . S
C450 C454 1.531 . S
C451 C450 1.369 . S
C451 C452 1.410 . S
C451 C459 1.503 . S
C452 C451 1.410 . S
C452 C453 1.392 . S
C452 C455 1.511 . S
C453 C449 1.376 . S
C453 C452 1.392 . S
C453 H465 0.929 . S
C454 C450 1.531 . S
C454 H466 0.960 . S
C454 H467 0.962 . S
C454 H468 0.960 . S
C455 C452 1.511 . S
C455 H469 0.961 . S
C455 H470 0.961 . S
C455 H471 0.961 . S
C456 C457 1.370 . S
C456 C458 1.363 . S
C456 H472 0.931 . S
C457 C456 1.370 . S
C457 C461 1.408 . S
C458 C456 1.363 . S
C458 C459 1.370 . S
C458 C462 1.524 . S
C459 C451 1.503 . S
C459 C458 1.370 . S
C459 C460 1.403 . S
C460 C459 1.403 . S
C460 C461 1.404 . S
C460 C463 1.539 . S
C461 C457 1.408 . S
C461 C460 1.404 . S
C461 H473 0.930 . S
C462 C458 1.524 . S
C462 H474 0.956 . S
C462 H475 0.961 . S
C462 H476 0.961 . S
C463 C460 1.539 . S
C463 H477 0.958 . S
C463 H478 0.961 . S
C463 H479 0.960 . S
H464 C448 0.931 . S
H465 C453 0.929 . S
H466 C454 0.960 . S
H467 C454 0.962 . S
H468 C454 0.960 . S
H469 C455 0.961 . S
H470 C455 0.961 . S
H471 C455 0.961 . S
H472 C456 0.931 . S
H473 C461 0.930 . S
H474 C462 0.956 . S
H475 C462 0.961 . S
H476 C462 0.961 . S
H477 C463 0.958 . S
H478 C463 0.961 . S
H479 C463 0.960 . S
C480 C481 1.391 . S
C480 C482 1.394 . S
C480 H496 0.931 . S
C481 C480 1.391 . S
C481 C485 1.376 . S
C482 C480 1.394 . S
C482 C483 1.369 . S
C482 C486 1.531 . S
C483 C482 1.369 . S
C483 C484 1.410 . S
C483 C491 1.503 . S
C484 C483 1.410 . S
C484 C485 1.392 . S
C484 C487 1.511 . S
C485 C481 1.376 . S
C485 C484 1.392 . S
C485 H497 0.929 . S
C486 C482 1.531 . S
C486 H498 0.960 . S
C486 H499 0.962 . S
C486 H500 0.960 . S
C487 C484 1.511 . S
C487 H501 0.961 . S
C487 H502 0.961 . S
C487 H503 0.961 . S
C488 C489 1.370 . S
C488 C490 1.363 1_554 S
C488 H504 0.931 . S
C489 C488 1.370 . S
C489 C493 1.408 . S
C490 C488 1.363 1_556 S
C490 C491 1.370 . S
C490 C494 1.524 . S
C491 C483 1.503 . S
C491 C490 1.370 . S
C491 C492 1.403 1_556 S
C492 C491 1.403 1_554 S
C492 C493 1.404 . S
C492 C495 1.539 . S
C493 C489 1.408 . S
C493 C492 1.404 . S
C493 H505 0.930 . S
C494 C490 1.524 . S
C494 H506 0.956 . S
C494 H507 0.961 . S
C494 H508 0.961 . S
C495 C492 1.539 . S
C495 H509 0.958 . S
C495 H510 0.961 . S
C495 H511 0.960 . S
H496 C480 0.931 . S
H497 C485 0.929 . S
H498 C486 0.960 . S
H499 C486 0.962 . S
H500 C486 0.960 . S
H501 C487 0.961 . S
H502 C487 0.961 . S
H503 C487 0.961 . S
H504 C488 0.931 . S
H505 C493 0.930 . S
H506 C494 0.956 . S
H507 C494 0.961 . S
H508 C494 0.961 . S
H509 C495 0.958 . S
H510 C495 0.961 . S
H511 C495 0.960 . S
C512 C513 1.391 . S
C512 C514 1.394 . S
C512 H528 0.931 . S
C513 C512 1.391 . S
C513 C517 1.376 . S
C514 C512 1.394 . S
C514 C515 1.369 . S
C514 C518 1.531 . S
C515 C514 1.369 . S
C515 C516 1.410 . S
C515 C523 1.503 . S
C516 C515 1.410 . S
C516 C517 1.392 . S
C516 C519 1.511 . S
C517 C513 1.376 . S
C517 C516 1.392 . S
C517 H529 0.929 . S
C518 C514 1.531 . S
C518 H530 0.960 . S
C518 H531 0.962 . S
C518 H532 0.960 . S
C519 C516 1.511 . S
C519 H533 0.961 . S
C519 H534 0.961 . S
C519 H535 0.961 . S
C520 C521 1.370 . S
C520 C522 1.363 . S
C520 H536 0.931 . S
C521 C520 1.370 . S
C521 C525 1.408 . S
C522 C520 1.363 . S
C522 C523 1.370 . S
C522 C526 1.524 . S
C523 C515 1.503 . S
C523 C522 1.370 . S
C523 C524 1.403 . S
C524 C523 1.403 . S
C524 C525 1.404 . S
C524 C527 1.539 . S
C525 C521 1.408 . S
C525 C524 1.404 . S
C525 H537 0.930 . S
C526 C522 1.524 . S
C526 H538 0.956 . S
C526 H539 0.961 . S
C526 H540 0.961 . S
C527 C524 1.539 . S
C527 H541 0.958 . S
C527 H542 0.961 . S
C527 H543 0.960 . S
H528 C512 0.931 . S
H529 C517 0.929 . S
H530 C518 0.960 . S
H531 C518 0.962 . S
H532 C518 0.960 . S
H533 C519 0.961 . S
H534 C519 0.961 . S
H535 C519 0.961 . S
H536 C520 0.931 . S
H537 C525 0.930 . S
H538 C526 0.956 . S
H539 C526 0.961 . S
H540 C526 0.961 . S
H541 C527 0.958 . S
H542 C527 0.961 . S
H543 C527 0.960 . S
C161 C82 0.819 1_545 S
C169 C2 0.733 . S
C193 C122 0.459 1_655 S
C201 C63 0.562 . S
C225 C103 0.924 1_565 S
C233 C23 0.942 . S
C257 C42 0.823 . S
C265 C143 0.853 . S
C289 C71 0.555 . S
C297 C25 0.578 . S
C321 C60 0.713 . S
C329 C105 0.745 . S
C353 C145 0.197 . S
C361 C84 0.322 . S
C385 C124 0.404 . S
C393 C4 0.545 . S
C417 C111 3.368 1_556 S
C425 C140 3.272 . S
C449 C31 3.645 . S
C457 C151 3.636 . S
C481 C44 2.638 . S
C489 C20 2.695 . S
C513 C100 2.371 . S
C521 C65 2.357 . S
