# Generated by pormake.
# Topology wiv, (6)-cn, num edge types: 1
# Building blocks:
#     Node 0, Type 0, BuildingBlock: KUMBOL_clean_sbu_1, # of connection points: 6
#     Node 1, Type 0, BuildingBlock: KUMBOL_clean_sbu_1, # of connection points: 6
#     Node 2, Type 0, BuildingBlock: KUMBOL_clean_sbu_1, # of connection points: 6
#     Node 3, Type 0, BuildingBlock: KUMBOL_clean_sbu_1, # of connection points: 6
#     Node 4, Type 0, BuildingBlock: KUMBOL_clean_sbu_1, # of connection points: 6
#     Node 5, Type 0, BuildingBlock: KUMBOL_clean_sbu_1, # of connection points: 6
#     Node 6, Type 0, BuildingBlock: KUMBOL_clean_sbu_1, # of connection points: 6
#     Node 7, Type 0, BuildingBlock: KUMBOL_clean_sbu_1, # of connection points: 6
#     Node 8, Type 0, BuildingBlock: KUMBOL_clean_sbu_1, # of connection points: 6
#     Node 9, Type 0, BuildingBlock: KUMBOL_clean_sbu_1, # of connection points: 6
#     Node 10, Type 0, BuildingBlock: KUMBOL_clean_sbu_1, # of connection points: 6
#     Node 11, Type 0, BuildingBlock: KUMBOL_clean_sbu_1, # of connection points: 6
#     Node 12, Type 0, BuildingBlock: KUMBOL_clean_sbu_1, # of connection points: 6
#     Node 13, Type 0, BuildingBlock: KUMBOL_clean_sbu_1, # of connection points: 6
#     Node 14, Type 0, BuildingBlock: KUMBOL_clean_sbu_1, # of connection points: 6
#     Node 15, Type 0, BuildingBlock: KUMBOL_clean_sbu_1, # of connection points: 6
#     Edge 16, Type (0, 0), BuildingBlock: OJICUG_clean_linker_0, # of connection points: 2
#     Edge 17, Type (0, 0), BuildingBlock: OJICUG_clean_linker_0, # of connection points: 2
#     Edge 18, Type (0, 0), BuildingBlock: OJICUG_clean_linker_0, # of connection points: 2
#     Edge 19, Type (0, 0), BuildingBlock: OJICUG_clean_linker_0, # of connection points: 2
#     Edge 20, Type (0, 0), BuildingBlock: OJICUG_clean_linker_0, # of connection points: 2
#     Edge 21, Type (0, 0), BuildingBlock: OJICUG_clean_linker_0, # of connection points: 2
#     Edge 22, Type (0, 0), BuildingBlock: OJICUG_clean_linker_0, # of connection points: 2
#     Edge 23, Type (0, 0), BuildingBlock: OJICUG_clean_linker_0, # of connection points: 2
#     Edge 24, Type (0, 0), BuildingBlock: OJICUG_clean_linker_0, # of connection points: 2
#     Edge 25, Type (0, 0), BuildingBlock: OJICUG_clean_linker_0, # of connection points: 2
#     Edge 26, Type (0, 0), BuildingBlock: OJICUG_clean_linker_0, # of connection points: 2
#     Edge 27, Type (0, 0), BuildingBlock: OJICUG_clean_linker_0, # of connection points: 2
#     Edge 28, Type (0, 0), BuildingBlock: OJICUG_clean_linker_0, # of connection points: 2
#     Edge 29, Type (0, 0), BuildingBlock: OJICUG_clean_linker_0, # of connection points: 2
#     Edge 30, Type (0, 0), BuildingBlock: OJICUG_clean_linker_0, # of connection points: 2
#     Edge 31, Type (0, 0), BuildingBlock: OJICUG_clean_linker_0, # of connection points: 2
#     Edge 32, Type (0, 0), BuildingBlock: OJICUG_clean_linker_0, # of connection points: 2
#     Edge 33, Type (0, 0), BuildingBlock: OJICUG_clean_linker_0, # of connection points: 2
#     Edge 34, Type (0, 0), BuildingBlock: OJICUG_clean_linker_0, # of connection points: 2
#     Edge 35, Type (0, 0), BuildingBlock: OJICUG_clean_linker_0, # of connection points: 2
#     Edge 36, Type (0, 0), BuildingBlock: OJICUG_clean_linker_0, # of connection points: 2
#     Edge 37, Type (0, 0), BuildingBlock: OJICUG_clean_linker_0, # of connection points: 2
#     Edge 38, Type (0, 0), BuildingBlock: OJICUG_clean_linker_0, # of connection points: 2
#     Edge 39, Type (0, 0), BuildingBlock: OJICUG_clean_linker_0, # of connection points: 2
#     Edge 40, Type (0, 0), BuildingBlock: OJICUG_clean_linker_0, # of connection points: 2
#     Edge 41, Type (0, 0), BuildingBlock: OJICUG_clean_linker_0, # of connection points: 2
#     Edge 42, Type (0, 0), BuildingBlock: OJICUG_clean_linker_0, # of connection points: 2
#     Edge 43, Type (0, 0), BuildingBlock: OJICUG_clean_linker_0, # of connection points: 2
#     Edge 44, Type (0, 0), BuildingBlock: OJICUG_clean_linker_0, # of connection points: 2
#     Edge 45, Type (0, 0), BuildingBlock: OJICUG_clean_linker_0, # of connection points: 2
#     Edge 46, Type (0, 0), BuildingBlock: OJICUG_clean_linker_0, # of connection points: 2
#     Edge 47, Type (0, 0), BuildingBlock: OJICUG_clean_linker_0, # of connection points: 2
#     Edge 48, Type (0, 0), BuildingBlock: OJICUG_clean_linker_0, # of connection points: 2
#     Edge 49, Type (0, 0), BuildingBlock: OJICUG_clean_linker_0, # of connection points: 2
#     Edge 50, Type (0, 0), BuildingBlock: OJICUG_clean_linker_0, # of connection points: 2
#     Edge 51, Type (0, 0), BuildingBlock: OJICUG_clean_linker_0, # of connection points: 2
#     Edge 52, Type (0, 0), BuildingBlock: OJICUG_clean_linker_0, # of connection points: 2
#     Edge 53, Type (0, 0), BuildingBlock: OJICUG_clean_linker_0, # of connection points: 2
#     Edge 54, Type (0, 0), BuildingBlock: OJICUG_clean_linker_0, # of connection points: 2
#     Edge 55, Type (0, 0), BuildingBlock: OJICUG_clean_linker_0, # of connection points: 2
#     Edge 56, Type (0, 0), BuildingBlock: OJICUG_clean_linker_0, # of connection points: 2
#     Edge 57, Type (0, 0), BuildingBlock: OJICUG_clean_linker_0, # of connection points: 2
#     Edge 58, Type (0, 0), BuildingBlock: OJICUG_clean_linker_0, # of connection points: 2
#     Edge 59, Type (0, 0), BuildingBlock: OJICUG_clean_linker_0, # of connection points: 2
#     Edge 60, Type (0, 0), BuildingBlock: OJICUG_clean_linker_0, # of connection points: 2
#     Edge 61, Type (0, 0), BuildingBlock: OJICUG_clean_linker_0, # of connection points: 2
#     Edge 62, Type (0, 0), BuildingBlock: OJICUG_clean_linker_0, # of connection points: 2
#     Edge 63, Type (0, 0), BuildingBlock: OJICUG_clean_linker_0, # of connection points: 2
# Relax obj value: 0.185
# Max RMSD: 0.235
# Mean RMSD: 0.235
data_MOF--net-wiv--node1-KUMBOL_clean_sbu_1--edge1-OJICUG_clean_linker_0
_symmetry_space_group_name_H-M    P1
_symmetry_Int_Tables_number       1
_symmetry_cell_setting            triclinic
loop_
_symmetry_equiv_pos_as_xyz
'x, y, z'
_cell_length_a     36.052418
_cell_length_b     35.780406
_cell_length_c     19.824194
_cell_angle_alpha  89.665041
_cell_angle_beta   89.861667
_cell_angle_gamma 90.023137
loop_
_atom_site_label
_atom_site_type_symbol
_atom_site_fract_x
_atom_site_fract_y
_atom_site_fract_z
_atom_type_partial_charge
C0 C 0.23166 0.1624 0.19805 0.0
C1 C 0.166 0.10845 0.20339 0.0
C2 C 0.21444 0.11713 0.20079 0.0
C3 C 0.13364 0.14712 0.20783 0.0
C4 C 0.20186 0.20183 0.19682 0.0
C5 C 0.15139 0.19526 0.20288 0.0
N6 N 0.26774 0.16604 0.20997 0.0
C7 C 0.27878 0.19912 0.23841 0.0
C8 C 0.21958 0.23427 0.21602 0.0
C9 C 0.25574 0.23152 0.24252 0.0
Gd10 Gd 0.39054 0.10012 0.08431 0.0
Gd11 Gd 0.30259 0.10812 0.19496 0.0
N12 N 0.23865 0.08914 0.19414 0.0
C13 C 0.15741 0.07106 0.19579 0.0
C14 C 0.22524 0.0537 0.18648 0.0
C15 C 0.18649 0.04495 0.18619 0.0
H16 H 0.24479 0.03112 0.17975 0.0
H17 H 0.17872 0.01608 0.17856 0.0
H18 H 0.39507 0.16999 0.96368 0.0
H19 H 0.30722 0.20219 0.25464 0.0
H20 H 0.42696 0.23183 0.95981 0.0
H21 H 0.12877 0.06205 0.19514 0.0
H22 H 0.10412 0.14193 0.21054 0.0
H23 H 0.45126 0.03686 0.14668 0.0
H24 H 0.2039 0.25983 0.22192 0.0
H25 H 0.26729 0.25618 0.26588 0.0
H26 H 0.50946 0.22619 0.1523 0.0
H27 H 0.13286 0.2189 0.20744 0.0
H28 H 0.53314 0.10445 0.24451 0.0
H29 H 0.50632 0.04172 0.22176 0.0
N30 N 0.45064 0.09486 0.12414 0.0
C31 C 0.46804 0.12791 0.12859 0.0
C32 C 0.46484 0.06344 0.15361 0.0
C33 C 0.5111 0.10147 0.20806 0.0
C34 C 0.49568 0.06622 0.19605 0.0
C35 C 0.49728 0.13274 0.17342 0.0
H36 H 0.52722 0.17419 0.22703 0.0
N37 N 0.42658 0.15077 0.04748 0.0
C38 C 0.45547 0.15708 0.0891 0.0
C39 C 0.46118 0.2197 0.04647 0.0
C40 C 0.47204 0.1923 0.09287 0.0
C41 C 0.41773 0.1758 0.99773 0.0
C42 C 0.43509 0.21093 0.99657 0.0
O43 O 0.29144 0.08894 0.08002 0.0
O44 O 0.33927 0.11738 0.02175 0.0
O45 O 0.4304 0.07444 0.01868 0.0
O46 O 0.37314 0.05494 0.01812 0.0
O47 O 0.31777 0.04818 0.16193 0.0
O48 O 0.37946 0.05763 0.16693 0.0
O49 O 0.39847 0.09824 0.19759 0.0
O50 O 0.35637 0.13999 0.23454 0.0
O51 O 0.33312 0.08519 0.28087 0.0
O52 O 0.27476 0.09614 0.29055 0.0
O53 O 0.37568 0.16122 0.10406 0.0
O54 O 0.31415 0.16218 0.1379 0.0
C55 C 0.30581 0.10193 0.02092 0.0
C56 C 0.35139 0.03447 0.17141 0.0
C57 C 0.41009 0.0485 0.91892 0.0
C58 C 0.39724 0.07025 0.80548 0.0
C59 C 0.44546 0.02412 0.82476 0.0
C60 C 0.43799 0.02505 0.8937 0.0
C61 C 0.42497 0.04638 0.78066 0.0
C62 C 0.3896 0.07115 0.87473 0.0
C63 C 0.4064 0.05186 0.99189 0.0
C64 C 0.49776 0.19884 0.14437 0.0
C65 C 0.50978 0.16898 0.1849 0.0
H66 H 0.47281 0.24741 0.0492 0.0
C67 C 0.39138 0.12769 0.23465 0.0
C68 C 0.34513 0.17939 0.11997 0.0
C69 C 0.3118 0.10783 0.38665 0.0
C70 C 0.32682 0.12129 0.5643 0.0
C71 C 0.3125 0.17669 0.43505 0.0
C72 C 0.30943 0.14874 0.37916 0.0
C73 C 0.32335 0.16361 0.55157 0.0
C74 C 0.31888 0.08854 0.45518 0.0
C75 C 0.30515 0.0871 0.3226 0.0
H76 H 0.467 1.00601 0.80549 0.0
H77 H 0.45442 1.00791 0.92757 0.0
H78 H 0.43036 0.04458 0.72702 0.0
H79 H 0.36835 0.08968 0.89399 0.0
H80 H 0.30874 0.20346 0.40811 0.0
H81 H 0.30513 0.15919 0.32961 0.0
H82 H 0.32601 0.18151 0.59623 0.0
H83 H 0.3186 0.05903 0.44443 0.0
C84 C 0.0912 0.55836 0.93532 0.0
C85 C 0.15409 0.5357 0.92601 0.0
C86 C 0.12905 0.56438 0.94095 0.0
C87 C 0.14026 0.50227 0.89958 0.0
C88 C 0.0773 0.52309 0.91757 0.0
C89 C 0.10215 0.4953 0.8984 0.0
N90 N 0.068 0.58709 0.94758 0.0
C91 C 0.03061 0.58144 0.95095 0.0
C92 C 0.03893 0.51726 0.91771 0.0
C93 C 0.01545 0.54646 0.93604 0.0
Gd94 Gd 0.11039 0.72131 0.81563 0.0
Gd95 Gd 0.09653 0.64551 0.95694 0.0
N96 N 0.14127 0.59809 0.96234 0.0
C97 C 0.19179 0.5415 0.93962 0.0
C98 C 0.1765 0.60161 0.98655 0.0
C99 C 0.20243 0.57317 0.97548 0.0
H100 H 0.18522 0.6266 1.01235 0.0
H101 H 0.23098 0.5767 0.99111 0.0
H102 H 0.0324 0.79317 0.83258 0.0
H103 H 0.01226 0.60415 0.96393 0.0
H104 H 0.01846 0.86897 0.80455 0.0
H105 H 0.21271 0.52132 0.92575 0.0
H106 H 0.1584 0.48135 0.88081 0.0
H107 H 0.20973 0.70757 0.76567 0.0
H108 H 0.02726 0.49038 0.90435 0.0
H109 H 0.98571 0.54232 0.93743 0.0
H110 H 0.16799 0.92631 0.72599 0.0
H111 H 0.09211 0.46855 0.8824 0.0
H112 H 0.26629 0.81369 0.77056 0.0
H113 H 0.26461 0.74599 0.75248 0.0
N114 N 0.17192 0.75172 0.78815 0.0
C115 C 0.16922 0.78769 0.77282 0.0
C116 C 0.20623 0.73735 0.77225 0.0
C117 C 0.24013 0.79902 0.77486 0.0
C118 C 0.23886 0.75992 0.76485 0.0
C119 C 0.20734 0.81902 0.77673 0.0
H120 H 0.23228 0.88458 0.76241 0.0
N121 N 0.09184 0.7848 0.78675 0.0
C122 C 0.12692 0.80008 0.7477 0.0
C123 C 0.07641 0.88969 0.74502 0.0
C124 C 0.12116 0.87413 0.7168 0.0
C125 C 0.05399 0.80817 0.80584 0.0
C126 C 0.04464 0.85769 0.78742 0.0
O127 O 0.09888 0.62144 0.8512 0.0
O128 O 0.13652 0.6613 0.79143 0.0
O129 O 0.08894 0.68253 0.74215 0.0
O130 O 0.09094 0.74059 0.71722 0.0
O131 O 0.15315 0.67582 0.9543 0.0
O132 O 0.16183 0.69087 0.84261 0.0
O133 O 0.11354 0.74464 0.93114 0.0
O134 O 0.07504 0.70324 0.98076 0.0
O135 O 0.11124 0.63529 0.05991 0.0
O136 O 0.05315 0.64437 0.03291 0.0
O137 O 0.04984 0.71174 0.85328 0.0
O138 O 0.04955 0.64978 0.88174 0.0
C139 C 0.1252 0.6263 0.80597 0.0
C140 C 0.17499 0.68226 0.90179 0.0
C141 C 0.10819 0.69942 0.63316 0.0
C142 C 0.12519 0.67857 0.45946 0.0
C143 C 0.17734 0.6971 0.5898 0.0
C144 C 0.14857 0.70205 0.64346 0.0
C145 C 0.16687 0.68249 0.47391 0.0
C146 C 0.09044 0.69045 0.56504 0.0
C147 C 0.08646 0.70726 0.69396 0.0
C148 C 0.16591 0.89622 0.72968 0.0
C149 C 0.20633 0.86957 0.75867 0.0
H150 H 0.06982 0.91916 0.74329 0.0
C151 C 0.09655 0.73231 0.98819 0.0
C152 C 0.03241 0.67892 0.85593 0.0
C153 C 0.06675 0.60318 0.12429 0.0
C154 C 0.07424 0.5892 0.24115 0.0
C155 C 0.01892 0.5686 0.18358 0.0
C156 C 0.03156 0.58626 0.12481 0.0
C157 C 0.03904 0.57259 0.24338 0.0
C158 C 0.08985 0.59886 0.17958 0.0
C159 C 0.07664 0.6339 0.07906 0.0
H160 H 0.20332 0.70141 0.61794 0.0
H161 H 0.15813 0.70728 0.69355 0.0
H162 H 0.18554 0.67785 0.4308 0.0
H163 H 0.06103 0.69016 0.57463 0.0
H164 H 0.99191 0.55563 0.18417 0.0
H165 H 0.01287 0.58892 0.08262 0.0
H166 H 0.02622 0.56549 0.29113 0.0
H167 H 0.11685 0.61246 0.17944 0.0
C168 C 0.77502 0.8425 0.24645 0.0
C169 C 0.85608 0.89071 0.32094 0.0
C170 C 0.78454 0.88404 0.27886 0.0
C171 C 0.88006 0.84695 0.30577 0.0
C172 C 0.80736 0.80519 0.24255 0.0
C173 C 0.85645 0.8068 0.26803 0.0
N174 N 0.74047 0.8397 0.22459 0.0
C175 C 0.72636 0.80468 0.23642 0.0
C176 C 0.7883 0.77175 0.23913 0.0
C177 C 0.74918 0.77213 0.24516 0.0
Gd178 Gd 0.62537 0.91966 0.07959 0.0
Gd179 Gd 0.70888 0.90157 0.20238 0.0
N180 N 0.77009 0.9204 0.24185 0.0
C181 C 0.87135 0.93714 0.29993 0.0
C182 C 0.79283 0.95989 0.23083 0.0
C183 C 0.84069 0.96977 0.25683 0.0
H184 H 0.7786 0.98219 0.20449 0.0
H185 H 0.85202 0.9968 0.24344 0.0
H186 H 0.62527 0.85924 0.94389 0.0
H187 H 0.69663 0.80114 0.24006 0.0
H188 H 0.59324 0.79874 0.92218 0.0
H189 H 0.9002 0.94451 0.30651 0.0
H190 H 0.90969 0.84556 0.31374 0.0
H191 H 0.56036 0.97832 0.14595 0.0
H192 H 0.80324 0.74566 0.24412 0.0
H193 H 0.73576 0.74605 0.25806 0.0
H194 H 0.51041 0.78746 0.11398 0.0
H195 H 0.87226 0.78126 0.26357 0.0
H196 H 0.47629 0.9036 0.21948 0.0
H197 H 0.5019 0.96805 0.21014 0.0
N198 N 0.56341 0.92225 0.11229 0.0
C199 C 0.54669 0.88881 0.10886 0.0
C200 C 0.54721 0.95132 0.14553 0.0
C201 C 0.50007 0.90905 0.18741 0.0
C202 C 0.51454 0.94535 0.18251 0.0
C203 C 0.51686 0.88015 0.15081 0.0
H204 H 0.48958 0.83391 0.19794 0.0
N205 N 0.59069 0.87249 0.02744 0.0
C206 C 0.56079 0.86289 0.06473 0.0
C207 C 0.55657 0.80404 1.00786 0.0
C208 C 0.545 0.82733 0.06023 0.0
C209 C 0.6015 0.85113 0.97397 0.0
C210 C 0.58406 0.81657 0.96283 0.0
O211 O 0.72766 0.91943 0.09101 0.0
O212 O 0.67805 0.90083 0.024 0.0
O213 O 0.64818 0.96595 0.02073 0.0
O214 O 0.58943 0.9527 1.01692 0.0
O215 O 0.69988 0.96228 0.16547 0.0
O216 O 0.6376 0.95782 0.16722 0.0
O217 O 0.61143 0.91448 0.18969 0.0
O218 O 0.65143 0.87026 0.22576 0.0
O219 O 0.72579 0.92237 0.30103 0.0
O220 O 0.66838 0.91787 0.27709 0.0
O221 O 0.63934 0.85739 0.08915 0.0
O222 O 0.69768 0.85031 0.13865 0.0
C223 C 0.71341 0.91048 0.02994 0.0
C224 C 0.66727 0.97874 0.17291 0.0
C225 C 0.61471 0.97726 0.92008 0.0
C226 C 0.62043 0.94821 0.811 0.0
C227 C 0.58685 1.00655 0.82186 0.0
C228 C 0.59424 1.00654 0.891 0.0
C229 C 0.59965 0.97727 0.7819 0.0
C230 C 0.62815 0.94835 0.87986 0.0
C231 C 0.61605 0.97344 0.99309 0.0
C232 C 0.52027 0.816 0.11106 0.0
C233 C 0.50698 0.84256 0.15729 0.0
H234 H 0.54464 0.77655 1.00229 0.0
C235 C 0.61641 0.88254 0.22119 0.0
C236 C 0.6676 0.83661 0.10926 0.0
C237 C 0.68805 0.89398 0.38051 0.0
C238 C 0.6849 0.87259 0.508 0.0
C239 C 0.69896 0.82935 0.40644 0.0
C240 C 0.69155 0.85711 0.36184 0.0
C241 C 0.69711 0.83519 0.47412 0.0
C242 C 0.68471 0.90444 0.44834 0.0
C243 C 0.69251 0.92049 0.32514 0.0
H244 H 0.57084 0.02898 0.79943 0.0
H245 H 0.583 0.02864 0.92207 0.0
H246 H 0.59396 0.97757 0.72825 0.0
H247 H 0.64351 0.92541 0.90233 0.0
H248 H 0.70633 0.80187 0.38833 0.0
H249 H 0.69205 0.85009 0.31006 0.0
H250 H 0.68955 0.85552 0.50078 0.0
H251 H 0.68273 0.93426 0.45461 0.0
C252 C 0.87556 0.46521 0.93579 0.0
C253 C 0.81979 0.46078 1.00338 0.0
C254 C 0.85464 0.44698 0.98396 0.0
C255 C 0.805 0.49161 0.96873 0.0
C256 C 0.863 0.49852 0.90645 0.0
C257 C 0.82661 0.51042 0.92042 0.0
N258 N 0.90875 0.45052 0.9188 0.0
C259 C 0.93311 0.46972 0.87873 0.0
C260 C 0.88727 0.51799 0.86341 0.0
C261 C 0.92276 0.50399 0.85067 0.0
Gd262 Gd 0.90395 0.3025 0.83305 0.0
Gd263 Gd 0.91769 0.38851 0.9514 0.0
N264 N 0.86882 0.41567 1.01224 0.0
C265 C 0.80101 0.44289 0.05646 0.0
C266 C 0.85243 0.39987 0.06766 0.0
C267 C 0.81803 0.41308 0.09029 0.0
H268 H 0.86485 0.376 0.09199 0.0
H269 H 0.80428 0.3997 0.1326 0.0
H270 H 0.97078 0.22081 0.86105 0.0
H271 H 0.9598 0.45768 0.8664 0.0
H272 H 0.97486 0.14366 0.83741 0.0
H273 H 0.77404 0.45257 0.07292 0.0
H274 H 0.77738 0.5017 0.98009 0.0
H275 H 0.80979 0.33082 0.78472 0.0
H276 H 0.87943 0.54395 0.84045 0.0
H277 H 0.94167 0.51906 0.81792 0.0
H278 H 0.82291 0.10737 0.74027 0.0
H279 H 0.81458 0.53375 0.89435 0.0
H280 H 0.73968 0.23347 0.76876 0.0
H281 H 0.75116 0.30096 0.75723 0.0
N282 N 0.84061 0.28089 0.80004 0.0
C283 C 0.83901 0.24524 0.78226 0.0
C284 C 0.80908 0.30064 0.78483 0.0
C285 C 0.7674 0.2442 0.77659 0.0
C286 C 0.77434 0.28308 0.77003 0.0
C287 C 0.7969 0.21962 0.78221 0.0
H288 H 0.76371 0.15806 0.76685 0.0
N289 N 0.91545 0.23723 0.80648 0.0
C290 C 0.88022 0.22677 0.7631 0.0
C291 C 0.91744 0.13096 0.77053 0.0
C292 C 0.8768 0.15241 0.73556 0.0
C293 C 0.94864 0.20888 0.8314 0.0
C294 C 0.95144 0.15843 0.81613 0.0
O295 O 0.91583 0.3984 0.83984 0.0
O296 O 0.87208 0.35791 0.80596 0.0
O297 O 0.9275 0.34095 0.75828 0.0
O298 O 0.9228 0.28285 0.73442 0.0
O299 O 0.85647 0.37159 0.93959 0.0
O300 O 0.8529 0.31065 0.89923 0.0
O301 O 0.91995 0.2852 0.94854 0.0
O302 O 0.90265 0.33659 1.01274 0.0
O303 O 0.96237 0.37055 0.01824 0.0
O304 O 0.95042 0.42957 1.0026 0.0
O305 O 0.96398 0.31287 0.87093 0.0
O306 O 0.96088 0.37616 0.87047 0.0
C307 C 0.88457 0.39277 0.80826 0.0
C308 C 0.83737 0.3411 0.92476 0.0
C309 C 0.91009 0.32576 0.64632 0.0
C310 C 0.90093 0.34521 0.46893 0.0
C311 C 0.8429 0.3336 0.59447 0.0
C312 C 0.86925 0.3269 0.65173 0.0
C313 C 0.85878 0.34535 0.47907 0.0
C314 C 0.9311 0.33217 0.57914 0.0
C315 C 0.92895 0.31614 0.71061 0.0
C316 C 0.82899 0.13691 0.74328 0.0
C317 C 0.79157 0.16926 0.76595 0.0
H318 H 0.91992 0.10083 0.77041 0.0
C319 C 0.91221 0.30107 1.00966 0.0
C320 C 0.98108 0.34568 0.86524 0.0
C321 C 0.97649 0.41416 0.10531 0.0
C322 C 0.95953 0.40985 0.22366 0.0
C323 C 1.00156 0.45852 0.18488 0.0
C324 C 0.9991 0.44499 0.11949 0.0
C325 C 0.98214 0.44099 0.23698 0.0
C326 C 0.95678 0.39639 0.15746 0.0
C327 C 0.9704 0.40503 0.03456 0.0
H328 H 0.81564 0.33184 0.61965 0.0
H329 H 0.85734 0.32255 0.70042 0.0
H330 H 0.84215 0.35069 0.43356 0.0
H331 H 0.96034 0.32871 0.59143 0.0
H332 H 0.01806 0.48303 0.19469 0.0
H333 H 0.01386 0.45945 0.07937 0.0
H334 H 0.98484 0.45173 0.28772 0.0
H335 H 0.93846 0.3732 0.14629 0.0
C336 C 0.24096 0.34729 0.03575 0.0
C337 C 0.15217 0.39112 0.98373 0.0
C338 C 0.22586 0.3896 1.01354 0.0
C339 C 0.1333 0.34434 0.99399 0.0
C340 C 0.21261 0.30679 0.03735 0.0
C341 C 0.16244 0.30481 0.02006 0.0
N342 N 0.27671 0.34659 0.05052 0.0
C343 C 0.29366 0.31381 0.03249 0.0
C344 C 0.23486 0.27544 0.03112 0.0
C345 C 0.27354 0.27993 0.02043 0.0
Gd346 Gd 0.38793 0.42087 0.19723 0.0
Gd347 Gd 0.30251 0.40926 0.0805 0.0
N348 N 0.23856 0.42496 0.05464 0.0
C349 C 0.13377 0.43432 1.01487 0.0
C350 C 0.21289 0.46091 0.07628 0.0
C351 C 0.16329 0.46735 0.05898 0.0
H352 H 0.22626 0.48294 0.10434 0.0
H353 H 0.15033 0.49245 0.07796 0.0
H354 H 0.38874 0.35783 0.32958 0.0
H355 H 0.32356 0.31281 0.02848 0.0
H356 H 0.41942 0.29606 0.3469 0.0
H357 H 0.10414 0.43897 1.0139 0.0
H358 H 0.10365 0.34031 0.99033 0.0
H359 H 0.45121 0.47835 0.12448 0.0
H360 H 0.2222 0.24831 0.02417 0.0
H361 H 0.28919 0.25559 1.00514 0.0
H362 H 0.49911 0.28681 0.15142 0.0
H363 H 0.14936 0.27761 0.02204 0.0
H364 H 0.52858 0.40158 0.03696 0.0
H365 H 0.50518 0.46673 0.04923 0.0
N366 N 0.44856 0.42213 0.15842 0.0
C367 C 0.46471 0.38836 0.16028 0.0
C368 C 0.46388 0.45109 0.12295 0.0
C369 C 0.50759 0.4079 0.07416 0.0
C370 C 0.494 0.44441 0.08013 0.0
C371 C 0.49316 0.37957 0.1156 0.0
H372 H 0.52057 0.33365 0.06961 0.0
N373 N 0.42205 0.37165 0.24441 0.0
C374 C 0.45108 0.36214 0.20508 0.0
C375 C 0.45475 0.30213 0.25952 0.0
C376 C 0.46608 0.3262 0.20762 0.0
C377 C 0.41168 0.34961 0.29771 0.0
C378 C 0.42836 0.31444 0.30649 0.0
O379 O 0.28542 0.42286 0.19764 0.0
O380 O 0.33688 0.405 0.26115 0.0
O381 O 0.37029 0.46696 0.2615 0.0
O382 O 0.42827 0.45005 0.25587 0.0
O383 O 0.31436 0.4694 0.1181 0.0
O384 O 0.37612 0.46189 0.1131 0.0
O385 O 0.39875 0.41741 0.08497 0.0
O386 O 0.35646 0.37548 0.05023 0.0
O387 O 0.34088 0.43142 1.00448 0.0
O388 O 0.28322 0.42927 0.98187 0.0
O389 O 0.37166 0.35949 0.18549 0.0
O390 O 0.3116 0.35647 0.14297 0.0
C391 C 0.30128 0.4144 0.25879 0.0
C392 C 0.3476 0.48447 0.10926 0.0
C393 C 0.41062 0.47839 0.35467 0.0
C394 C 0.40257 0.46102 0.47204 0.0
C395 C 0.45048 0.50524 0.43975 0.0
C396 C 0.44014 0.50184 0.37256 0.0
C397 C 0.43086 0.48602 0.48952 0.0
C398 C 0.39205 0.45749 0.40435 0.0
C399 C 0.40421 0.47237 0.28311 0.0
C400 C 0.49003 0.31536 0.15581 0.0
C401 C 0.50369 0.34223 0.11045 0.0
H402 H 0.46599 0.27421 0.26323 0.0
C403 C 0.39166 0.3867 0.05152 0.0
C404 C 0.3418 0.34049 0.1681 0.0
C405 C 0.32417 0.41375 0.89331 0.0
C406 C 0.33964 0.40048 0.71563 0.0
C407 C 0.32877 0.34495 0.84595 0.0
C408 C 0.32401 0.37278 0.90144 0.0
C409 C 0.33859 0.35812 0.72886 0.0
C410 C 0.32988 0.43318 0.82433 0.0
C411 C 0.3162 0.4342 0.95703 0.0
H412 H 0.47322 0.52333 0.45316 0.0
H413 H 0.45559 0.51708 0.3343 0.0
H414 H 0.43724 0.49091 0.54187 0.0
H415 H 0.37048 0.43791 0.39036 0.0
H416 H 0.32675 0.31812 0.87338 0.0
H417 H 0.31968 0.36188 0.95092 0.0
H418 H 0.34244 0.34028 0.6844 0.0
H419 H 0.3272 0.46257 0.83412 0.0
C420 C 0.39602 0.56008 0.8557 0.0
C421 C 0.33003 0.55036 0.85398 0.0
C422 C 0.36089 0.57285 0.84079 0.0
C423 C 0.33445 0.51953 0.89691 0.0
C424 C 0.40138 0.52464 0.88413 0.0
C425 C 0.37041 0.50539 0.90895 0.0
N426 N 0.42507 0.58224 0.84038 0.0
C427 C 0.46045 0.56905 0.84275 0.0
C428 C 0.43762 0.51064 0.88832 0.0
C429 C 0.46716 0.53253 0.86475 0.0
Gd430 Gd 0.39965 0.72146 0.95813 0.0
Gd431 Gd 0.41014 0.64422 0.81944 0.0
N432 N 0.35756 0.60566 0.8074 0.0
C433 C 0.29684 0.55837 0.82027 0.0
C434 C 0.32683 0.61208 0.7686 0.0
C435 C 0.29609 0.58801 0.77364 0.0
H436 H 0.3255 0.63613 0.7354 0.0
H437 H 0.27127 0.59357 0.74465 0.0
H438 H 0.47307 0.79823 0.93716 0.0
H439 H 0.48345 0.5869 0.82899 0.0
H440 H 0.4824 0.87479 0.96285 0.0
H441 H 0.27258 0.54085 0.82703 0.0
H442 H 0.31031 0.50447 0.91472 0.0
H443 H 0.30233 0.70123 1.01586 0.0
H444 H 0.44303 0.48303 0.90841 0.0
H445 H 0.49506 0.52179 0.8646 0.0
H446 H 0.33068 0.92228 0.04738 0.0
H447 H 0.37433 0.47954 0.9361 0.0
H448 H 0.23926 0.80351 1.012 0.0
H449 H 0.24564 0.73618 0.03286 0.0
N450 N 0.33687 0.74768 0.98961 0.0
C451 C 0.33758 0.78391 1.0027 0.0
C452 C 0.30395 0.7312 1.009 0.0
C453 C 0.26618 0.79055 1.00618 0.0
C454 C 0.27021 0.75171 0.01836 0.0
C455 C 0.29752 0.81268 1.0002 0.0
H456 H 0.26867 0.87645 1.01478 0.0
N457 N 0.41485 0.786 0.98541 0.0
C458 C 0.37931 0.79897 0.02564 0.0
C459 C 0.42406 0.89168 0.02461 0.0
C460 C 0.38079 0.87324 0.05517 0.0
C461 C 0.45092 0.81178 0.96457 0.0
C462 C 0.45723 0.86183 0.98142 0.0
O463 O 0.41184 0.62421 0.92799 0.0
O464 O 0.37214 0.66291 0.98347 0.0
O465 O 0.42437 0.68349 0.02905 0.0
O466 O 0.41701 0.74041 0.05787 0.0
O467 O 0.35539 0.67748 0.81926 0.0
O468 O 0.3483 0.69101 0.93113 0.0
O469 O 0.39647 0.74487 0.84239 0.0
O470 O 0.43266 0.70129 0.79503 0.0
O471 O 0.40353 0.62925 0.71566 0.0
O472 O 0.45849 0.64278 0.75435 0.0
O473 O 0.46085 0.70785 0.92209 0.0
O474 O 0.45685 0.64562 0.89608 0.0
C475 C 0.3848 0.62845 0.97177 0.0
C476 C 0.33421 0.6848 0.87197 0.0
C477 C 0.40607 0.69504 0.14031 0.0
C478 C 0.3978 0.67229 0.31587 0.0
C479 C 0.33916 0.68516 0.19199 0.0
C480 C 0.36527 0.69335 0.13482 0.0
C481 C 0.35541 0.67175 0.30661 0.0
C482 C 0.42707 0.68762 0.20604 0.0
C483 C 0.42522 0.70708 0.07858 0.0
C484 C 0.3346 0.89239 0.04393 0.0
C485 C 0.29558 0.86319 1.01725 0.0
H486 H 0.42882 0.92151 0.02564 0.0
C487 C 0.41203 0.73073 0.78577 0.0
C488 C 0.47661 0.67386 0.91876 0.0
C489 C 0.45429 0.60217 0.66012 0.0
C490 C 0.45674 0.59117 0.5414 0.0
C491 C 0.50916 0.57434 0.61126 0.0
C492 C 0.49044 0.58823 0.66759 0.0
C493 C 0.49329 0.57812 0.54715 0.0
C494 C 0.4362 0.59856 0.59888 0.0
C495 C 0.43899 0.63081 0.70382 0.0
H496 H 0.31186 0.68682 0.1672 0.0
H497 H 0.35323 0.69894 0.08643 0.0
H498 H 0.33896 0.66528 0.35199 0.0
H499 H 0.45591 0.69158 0.19349 0.0
H500 H 0.53724 0.56452 0.61682 0.0
H501 H 0.50514 0.59066 0.71488 0.0
H502 H 0.51002 0.57329 0.50263 0.0
H503 H 0.40847 0.61013 0.59304 0.0
C504 C 0.7833 0.65585 0.09737 0.0
C505 C 0.84409 0.59693 0.08193 0.0
C506 C 0.79677 0.60952 0.08993 0.0
C507 C 0.87902 0.63293 0.07438 0.0
C508 C 0.81625 0.69296 0.09566 0.0
C509 C 0.86541 0.68179 0.07992 0.0
N510 N 0.74766 0.66259 0.08458 0.0
C511 C 0.7402 0.69647 0.05433 0.0
C512 C 0.80086 0.72741 0.08186 0.0
C513 C 0.76471 0.72785 0.0555 0.0
Gd514 Gd 0.62157 0.59898 0.20958 0.0
Gd515 Gd 0.70873 0.60655 0.09023 0.0
N516 N 0.77072 0.58332 0.09616 0.0
C517 C 0.85014 0.5591 0.09096 0.0
C518 C 0.78154 0.547 0.10462 0.0
C519 C 0.81953 0.53555 0.10505 0.0
H520 H 0.76057 0.52582 0.11248 0.0
H521 H 0.82547 0.50665 0.11651 0.0
H522 H 0.61304 0.67652 0.31762 0.0
H523 H 0.71343 0.70136 0.03165 0.0
H524 H 0.57878 0.73672 0.30921 0.0
H525 H 0.87807 0.54806 0.09111 0.0
H526 H 0.90787 0.62546 0.06807 0.0
H527 H 0.55979 0.5324 0.17325 0.0
H528 H 0.81845 0.75176 0.07653 0.0
H529 H 0.75545 0.75349 0.03186 0.0
H530 H 0.50078 0.71849 0.11246 0.0
H531 H 0.88557 0.70377 0.07165 0.0
H532 H 0.47011 0.58947 0.07552 0.0
H533 H 0.49983 0.52993 0.11129 0.0
N534 N 0.56105 0.59157 0.17465 0.0
C535 C 0.54314 0.6236 0.16218 0.0
C536 C 0.54576 0.55786 0.15914 0.0
C537 C 0.49527 0.58997 0.1046 0.0
C538 C 0.51206 0.55648 0.12448 0.0
C539 C 0.51127 0.62402 0.12326 0.0
H540 H 0.47774 0.6585 0.06308 0.0
N541 N 0.58517 0.65248 0.2337 0.0
C542 C 0.5564 0.65566 0.19098 0.0
C543 C 0.54689 0.71964 0.22258 0.0
C544 C 0.53842 0.68977 0.18015 0.0
C545 C 0.59145 0.67992 0.28026 0.0
C546 C 0.57252 0.71418 0.27492 0.0
O547 O 0.72327 0.59508 0.20707 0.0
O548 O 0.67296 0.61449 0.27146 0.0
O549 O 0.58288 0.57934 0.28367 0.0
O550 O 0.63644 0.55145 0.27344 0.0
O551 O 0.69274 0.5463 0.1239 0.0
O552 O 0.63059 0.55406 0.12945 0.0
O553 O 0.61134 0.59586 0.09649 0.0
O554 O 0.65336 0.63501 0.049 0.0
O555 O 0.68334 0.5842 1.00178 0.0
O556 O 0.74078 0.59763 0.9975 0.0
O557 O 0.6468 0.65774 0.20759 0.0
O558 O 0.68119 0.66147 0.10954 0.0
C559 C 0.70819 0.60427 0.26755 0.0
C560 C 0.65911 0.53163 0.12105 0.0
C561 C 0.60133 0.54354 0.3746 0.0
C562 C 0.61363 0.55936 0.49049 0.0
C563 C 0.56571 0.51446 0.46407 0.0
C564 C 0.57329 0.51897 0.39574 0.0
C565 C 0.58631 0.53389 0.51153 0.0
C566 C 0.62152 0.56391 0.42185 0.0
C567 C 0.60395 0.55188 0.30324 0.0
C568 C 0.51242 0.69192 0.12789 0.0
C569 C 0.49812 0.65846 0.10134 0.0
H570 H 0.53327 0.74636 0.2162 0.0
C571 C 0.61816 0.62355 0.05445 0.0
C572 C 0.66151 0.67698 0.15743 0.0
C573 C 0.70595 0.60709 0.89864 0.0
C574 C 0.68459 0.6196 0.72309 0.0
C575 C 0.70011 0.67574 0.84962 0.0
C576 C 0.70663 0.64816 0.90552 0.0
C577 C 0.68618 0.66194 0.73455 0.0
C578 C 0.69802 0.58719 0.83136 0.0
C579 C 0.71219 0.5868 0.96281 0.0
H580 H 0.54338 0.49653 0.4801 0.0
H581 H 0.55645 0.50423 0.35927 0.0
H582 H 0.58086 0.5292 0.5646 0.0
H583 H 0.64204 0.58417 0.4053 0.0
H584 H 0.70318 0.70272 0.87561 0.0
H585 H 0.71176 0.65919 0.95464 0.0
H586 H 0.68083 0.67956 0.68997 0.0
H587 H 0.69972 0.55743 0.84302 0.0
C588 C 0.62323 0.4624 0.88711 0.0
C589 C 0.68872 0.47062 0.86741 0.0
C590 C 0.65589 0.45017 0.85855 0.0
C591 C 0.68896 0.49951 0.91472 0.0
C592 C 0.62208 0.49495 0.9249 0.0
C593 C 0.65522 0.51184 0.94204 0.0
N594 N 0.59217 0.44275 0.87641 0.0
C595 C 0.55823 0.45638 0.894 0.0
C596 C 0.58788 0.50813 0.94811 0.0
C597 C 0.55554 0.48905 0.93163 0.0
Gd598 Gd 0.60763 0.29633 0.95338 0.0
Gd599 Gd 0.60035 0.38346 0.83449 0.0
N600 N 0.65472 0.41982 0.81843 0.0
C601 C 0.7196 0.4617 0.82792 0.0
C602 C 0.6833 0.41317 0.77441 0.0
C603 C 0.71641 0.43369 0.77925 0.0
H604 H 0.68135 0.39077 0.73816 0.0
H605 H 0.73972 0.42723 0.74686 0.0
H606 H 0.53465 0.23245 1.01016 0.0
H607 H 0.53365 0.44134 0.8808 0.0
H608 H 0.52502 0.14955 1.01055 0.0
H609 H 0.74538 0.47692 0.83325 0.0
H610 H 0.71461 0.51321 0.92819 0.0
H611 H 0.69708 0.28647 1.01685 0.0
H612 H 0.58654 0.53224 0.98013 0.0
H613 H 0.52903 0.49867 0.9501 0.0
H614 H 0.65382 0.11317 0.86859 0.0
H615 H 0.65384 0.53299 0.9788 0.0
H616 H 0.7488 0.19407 0.92031 0.0
H617 H 0.75068 0.24546 1.00227 0.0
N618 N 0.66265 0.25739 0.94709 0.0
C619 C 0.65941 0.22463 0.9131 0.0
C620 C 0.69425 0.26288 0.98396 0.0
C621 C 0.72434 0.21124 0.92735 0.0
C622 C 0.72537 0.23992 0.9748 0.0
C623 C 0.69033 0.20118 0.89874 0.0
H624 H 0.71106 0.1494 0.85617 0.0
N625 N 0.59272 0.23197 0.95327 0.0
C626 C 0.62579 0.20864 0.91816 0.0
C627 C 0.58445 0.13533 0.94771 0.0
C628 C 0.62329 0.15899 0.91113 0.0
C629 C 0.55495 0.21427 0.98736 0.0
C630 C 0.54902 0.16273 0.98787 0.0
O631 O 0.5932 0.39164 0.9475 0.0
O632 O 0.63441 0.35213 0.99457 0.0
O633 O 0.57806 0.32098 0.03632 0.0
O634 O 0.60308 0.26717 0.04981 0.0
O635 O 0.65702 0.35329 0.8351 0.0
O636 O 0.66132 0.32756 0.94101 0.0
O637 O 0.59933 0.27965 0.83732 0.0
O638 O 0.60654 0.33215 0.76803 0.0
O639 O 0.58863 0.4251 0.75868 0.0
O640 O 0.55239 0.37633 0.76961 0.0
O641 O 0.54748 0.30918 0.91708 0.0
O642 O 0.55229 0.37235 0.90721 0.0
C643 C 0.62022 0.38641 0.99062 0.0
C644 C 0.67682 0.34331 0.8883 0.0
C645 C 0.6048 0.30832 0.14205 0.0
C646 C 0.61168 0.33624 0.31536 0.0
C647 C 0.67116 0.32104 0.19353 0.0
C648 C 0.64562 0.31089 0.13707 0.0
C649 C 0.65404 0.33736 0.30639 0.0
C650 C 0.58316 0.31725 0.20703 0.0
C651 C 0.58656 0.29501 0.07976 0.0
C652 C 0.65367 0.14276 0.87954 0.0
C653 C 0.68637 0.16434 0.87173 0.0
H654 H 0.58232 0.10521 0.94586 0.0
C655 C 0.6025 0.29566 0.77542 0.0
C656 C 0.53137 0.34258 0.91618 0.0
C657 C 0.5453 0.41519 0.67268 0.0
C658 C 0.55037 0.40568 0.55259 0.0
C659 C 0.50819 0.45232 0.59645 0.0
C660 C 0.51904 0.44332 0.66174 0.0
C661 C 0.52303 0.43296 0.54186 0.0
C662 C 0.56124 0.39648 0.61838 0.0
C663 C 0.55783 0.40892 0.74103 0.0
H664 H 0.69861 0.31932 0.1691 0.0
H665 H 0.65819 0.30502 0.08924 0.0
H666 H 0.67011 0.34526 0.35118 0.0
H667 H 0.5545 0.31223 0.19437 0.0
H668 H 0.48897 0.47486 0.58858 0.0
H669 H 0.50747 0.45882 0.70366 0.0
H670 H 0.51372 0.43964 0.4913 0.0
H671 H 0.58269 0.37577 0.62716 0.0
C672 C 0.74721 0.67549 0.76625 0.0
C673 C 0.65747 0.63377 0.81931 0.0
C674 C 0.73119 0.63345 0.78952 0.0
C675 C 0.63964 0.68085 0.80831 0.0
C676 C 0.71969 0.71649 0.76382 0.0
C677 C 0.66962 0.71961 0.78148 0.0
N678 N 0.78206 0.67534 0.74509 0.0
C679 C 0.80049 0.70808 0.75667 0.0
C680 C 0.74268 0.7475 0.76553 0.0
C681 C 0.78163 0.74244 0.7707 0.0
Gd682 Gd 0.88667 0.59535 0.57905 0.0
Gd683 Gd 0.80546 0.61321 0.71068 0.0
N684 N 0.74304 0.5976 0.74836 0.0
C685 C 0.63805 0.59108 0.78818 0.0
C686 C 0.71655 0.56207 0.72776 0.0
C687 C 0.66675 0.55718 0.74466 0.0
H688 H 0.72928 0.53979 0.69924 0.0
H689 H 0.65318 0.53242 0.72574 0.0
H690 H 0.89673 0.6603 0.45053 0.0
H691 H 0.83039 0.70873 0.75335 0.0
H692 H 0.93583 0.71716 0.43444 0.0
H693 H 0.6083 0.58719 0.78911 0.0
H694 H 0.61006 0.68548 0.8118 0.0
H695 H 0.94012 0.53265 0.663 0.0
H696 H 0.73079 0.77503 0.77178 0.0
H697 H 0.79837 0.76673 0.78183 0.0
H698 H 0.0133 0.7161 0.6336 0.0
H699 H 0.65705 0.747 0.77848 0.0
H700 H 0.03098 0.59623 0.73931 0.0
H701 H 0.99388 0.53808 0.73865 0.0
N702 N 0.94534 0.58827 0.62528 0.0
C703 C 0.96591 0.6197 0.62245 0.0
C704 C 0.95656 0.55781 0.6619 0.0
C705 C 0.00775 0.59368 0.70504 0.0
C706 C 0.98723 0.56062 0.70423 0.0
C707 C 0.99662 0.62383 0.6644 0.0
H708 H 0.03164 0.66361 0.70929 0.0
N709 N 0.92521 0.64326 0.53934 0.0
C710 C 0.95501 0.64843 0.57946 0.0
C711 C 0.96769 0.70734 0.52492 0.0
C712 C 0.97485 0.68201 0.57741 0.0
C713 C 0.91944 0.66589 0.48458 0.0
C714 C 0.94108 0.69825 0.47612 0.0
O715 O 0.7824 0.60092 0.59902 0.0
O716 O 0.83208 0.60453 0.52256 0.0
O717 O 0.87254 0.55078 0.509 0.0
O718 O 0.92911 0.57044 0.5177 0.0
O719 O 0.81175 0.55219 0.67532 0.0
O720 O 0.87428 0.55174 0.65896 0.0
O721 O 0.89779 0.60122 0.68957 0.0
O722 O 0.86026 0.64776 0.71721 0.0
O723 O 0.79151 0.59765 0.81445 0.0
O724 O 0.84757 0.59306 0.7813 0.0
O725 O 0.8679 0.65731 0.57976 0.0
O726 O 0.81284 0.66382 0.64216 0.0
C727 C 0.79593 0.60235 0.53474 0.0
C728 C 0.84366 0.53384 0.67419 0.0
C729 C 0.91132 0.55256 0.41228 0.0
C730 C 0.90103 0.58743 0.30934 0.0
C731 C 0.94748 0.53857 0.31229 0.0
C732 C 0.93897 0.53159 0.37998 0.0
C733 C 0.92847 0.56644 0.27688 0.0
C734 C 0.89265 0.58065 0.37696 0.0
C735 C 0.90636 0.5493 0.48492 0.0
C736 C 1.00075 0.68877 0.62826 0.0
C737 C 0.01238 0.65911 0.66985 0.0
H738 H 0.98297 0.73334 0.52086 0.0
C739 C 0.8943 0.63441 0.71573 0.0
C740 C 0.83984 0.67766 0.60354 0.0
C741 C 0.83579 0.61976 0.88983 0.0
C742 C 0.8267 0.64689 1.01236 0.0
C743 C 0.83505 0.68632 0.90547 0.0
C744 C 0.84663 0.65565 0.87114 0.0
C745 C 0.82282 0.68349 0.96998 0.0
C746 C 0.82653 0.6124 0.9584 0.0
C747 C 0.82565 0.59456 0.8335 0.0
H748 H 0.96857 0.52218 0.28727 0.0
H749 H 0.95438 0.51043 0.40739 0.0
H750 H 0.93392 0.57076 0.2237 0.0
H751 H 0.87144 0.59713 0.40178 0.0
H752 H 0.8359 0.71366 0.88201 0.0
H753 H 0.85847 0.66169 0.82399 0.0
H754 H 0.82508 0.66393 1.00138 0.0
H755 H 0.81899 0.58398 0.97096 0.0
C756 C 0.62315 0.04745 0.41406 0.0
C757 C 0.68817 0.03628 0.43582 0.0
C758 C 0.6563 0.05842 0.44261 0.0
C759 C 0.68687 1.00524 0.39297 0.0
C760 C 0.62087 0.01528 0.37529 0.0
C761 C 0.65313 0.99558 0.36201 0.0
N762 N 0.59304 0.06896 0.42339 0.0
C763 C 0.55868 0.0571 0.4051 0.0
C764 C 0.58656 1.00522 0.34774 0.0
C765 C 0.555 0.02577 0.36407 0.0
Gd766 Gd 0.61216 0.21227 0.3296 0.0
Gd767 Gd 0.60581 0.12942 0.45557 0.0
N768 N 0.65675 0.09027 0.47879 0.0
C769 C 0.71993 0.04623 0.47215 0.0
C770 C 0.68587 0.09796 0.52065 0.0
C771 C 0.71825 0.07633 0.51704 0.0
H772 H 0.68515 0.12249 0.5523 0.0
H773 H 0.74213 0.08345 0.54733 0.0
H774 H 0.5352 0.28603 0.33896 0.0
H775 H 0.53478 0.07282 0.41983 0.0
H776 H 0.52332 0.3613 0.30463 0.0
H777 H 0.7451 0.02987 0.4685 0.0
H778 H 0.71157 0.9889 0.3835 0.0
H779 H 0.70861 0.19418 0.27435 0.0
H780 H 0.58426 0.98202 0.31362 0.0
H781 H 0.52841 0.01828 0.34308 0.0
H782 H 0.67403 0.41312 0.22233 0.0
H783 H 0.65124 0.97394 0.32596 0.0
H784 H 0.76928 0.29862 0.27109 0.0
H785 H 0.76472 0.23091 0.25287 0.0
N786 N 0.67376 0.2401 0.29785 0.0
C787 C 0.67194 0.27599 0.28173 0.0
C788 C 0.70668 0.22423 0.27842 0.0
C789 C 0.74277 0.28491 0.27799 0.0
C790 C 0.73981 0.24577 0.26728 0.0
C791 C 0.7108 0.30629 0.28294 0.0
H792 H 0.7374 0.37083 0.2628 0.0
N793 N 0.59461 0.2751 0.29472 0.0
C794 C 0.63022 0.28859 0.25488 0.0
C795 C 0.58172 0.37896 0.24382 0.0
C796 C 0.62609 0.3617 0.21731 0.0
C797 C 0.55717 0.29975 0.31102 0.0
C798 C 0.5492 0.34891 0.28852 0.0
O799 O 0.60202 0.1157 0.34634 0.0
O800 O 0.64366 0.15589 0.30272 0.0
O801 O 0.59266 0.23023 0.23099 0.0
O802 O 0.59195 0.17174 0.25794 0.0
O803 O 0.6652 0.14761 0.43122 0.0
O804 O 0.66541 0.20838 0.39021 0.0
O805 O 0.59434 0.22957 0.44226 0.0
O806 O 0.62451 0.18401 0.50303 0.0
O807 O 0.59856 0.09522 0.54488 0.0
O808 O 0.56329 0.14494 0.52657 0.0
O809 O 0.55149 0.2014 0.36723 0.0
O810 O 0.55331 0.13867 0.39114 0.0
C811 C 0.63175 0.12075 0.30963 0.0
C812 C 0.68289 0.17826 0.41255 0.0
C813 C 0.61043 0.1881 0.1477 0.0
C814 C 0.60738 0.18152 1.0173 0.0
C815 C 0.66641 0.17528 0.09195 0.0
C816 C 0.64819 0.18422 0.1496 0.0
C817 C 0.64728 0.17223 0.03139 0.0
C818 C 0.59134 0.18582 0.08666 0.0
C819 C 0.59023 0.1963 0.20955 0.0
C820 C 0.67128 0.38322 0.22888 0.0
C821 C 0.71105 0.35643 0.26075 0.0
H822 H 0.57573 0.40848 0.23922 0.0
C823 C 0.60736 0.21648 0.50202 0.0
C824 C 0.53428 0.16839 0.37123 0.0
C825 C 0.54442 0.10209 0.6125 0.0
C826 C 0.52683 0.11978 0.72352 0.0
C827 C 0.48061 0.09522 0.64671 0.0
C828 C 0.50745 0.09478 0.59548 0.0
C829 C 0.49022 0.1087 0.7108 0.0
C830 C 0.55412 0.10781 0.67897 0.0
C831 C 0.57158 0.11644 0.56545 0.0
H832 H 0.69596 0.16967 0.09417 0.0
H833 H 0.66332 0.18637 0.19586 0.0
H834 H 0.66719 0.16168 0.99691 0.0
H835 H 0.56227 0.18889 0.09596 0.0
H836 H 0.45208 0.08842 0.63524 0.0
H837 H 0.49944 0.09012 0.54358 0.0
H838 H 0.46946 0.11173 0.7491 0.0
H839 H 0.58324 0.11122 0.69129 0.0
C840 C 0.27884 0.34446 0.7686 0.0
C841 C 0.37012 0.38678 0.80878 0.0
C842 C 0.29547 0.38676 0.78814 0.0
C843 C 0.38773 0.33979 0.79743 0.0
C844 C 0.30655 0.30352 0.76465 0.0
C845 C 0.35711 0.30082 0.77595 0.0
N846 N 0.24266 0.34405 0.757 0.0
C847 C 0.22621 0.31116 0.77913 0.0
C848 C 0.28436 0.27233 0.77405 0.0
C849 C 0.2462 0.27703 0.78884 0.0
Gd850 Gd 0.14 0.41233 0.58986 0.0
Gd851 Gd 0.21838 0.4081 0.72176 0.0
N852 N 0.28218 0.42262 0.74771 0.0
C853 C 0.38828 0.42934 0.77399 0.0
C854 C 0.30786 0.45802 0.72238 0.0
C855 C 0.3581 0.463 0.73307 0.0
H856 H 0.2941 0.48028 0.69509 0.0
H857 H 0.37097 0.4877 0.71174 0.0
H858 H 0.12043 0.32955 0.517 0.0
H859 H 0.19644 0.31014 0.78669 0.0
H860 H 0.07264 0.28067 0.5329 0.0
H861 H 0.41799 0.43327 0.77117 0.0
H862 H 0.41738 0.33526 0.79765 0.0
H863 H 0.09788 0.4964 0.6203 0.0
H864 H 0.29699 0.24507 0.77971 0.0
H865 H 0.23066 0.25263 0.80481 0.0
H866 H 0.99149 0.33586 0.69427 0.0
H867 H 0.36967 0.27343 0.77311 0.0
H868 H 0.99629 0.46953 0.72213 0.0
H869 H 0.04342 0.51645 0.68276 0.0
N870 N 0.08381 0.43868 0.62555 0.0
C871 C 0.05636 0.41371 0.63656 0.0
C872 C 0.07755 0.4758 0.63559 0.0
C873 C 0.02003 0.46088 0.6925 0.0
C874 C 0.04609 0.48734 0.67065 0.0
C875 C 0.02473 0.42348 0.67409 0.0
H876 H 0.97749 0.401 0.72838 0.0
N877 N 0.09164 0.36962 0.57633 0.0
C878 C 0.06022 0.37812 0.6105 0.0
C879 C 0.03898 0.31467 0.59839 0.0
C880 C 0.03441 0.35035 0.62616 0.0
C881 C 0.09574 0.33574 0.54585 0.0
C882 C 0.069 0.30788 0.55549 0.0
O883 O 0.24102 0.40601 0.60544 0.0
O884 O 0.1945 0.43427 0.54744 0.0
O885 O 0.12989 0.40204 0.48453 0.0
O886 O 0.12824 0.45906 0.52443 0.0
O887 O 0.20702 0.46664 0.67581 0.0
O888 O 0.1459 0.45582 0.67383 0.0
O889 O 0.12439 0.37108 0.67217 0.0
O890 O 0.15765 0.39381 0.76123 0.0
O891 O 0.18163 0.43274 0.79632 0.0
O892 O 0.24059 0.43176 0.81445 0.0
O893 O 0.17334 0.35739 0.5833 0.0
O894 O 0.1975 0.35266 0.69026 0.0
C895 C 0.22711 0.41822 0.54552 0.0
C896 C 0.17295 0.4802 0.6811 0.0
C897 C 0.09441 0.44687 0.42465 0.0
C898 C 0.09036 0.45111 0.30452 0.0
C899 C 0.0583 0.49651 0.37332 0.0
C900 C 0.07202 0.47882 0.43129 0.0
C901 C 0.06936 0.48388 0.3096 0.0
C902 C 0.09943 0.43093 0.3619 0.0
C903 C 0.12314 0.43731 0.47293 0.0
C904 C 0.00657 0.35848 0.67274 0.0
C905 C 1.00022 0.39518 0.69427 0.0
H906 H 0.01947 0.2924 0.60936 0.0
C907 C 0.12777 0.37616 0.737 0.0
C908 C 0.18702 0.33735 0.63392 0.0
C909 C 0.20148 0.41707 0.90504 0.0
C910 C 0.17932 0.4043 0.08004 0.0
C911 C 0.19393 0.34842 0.95263 0.0
C912 C 0.20099 0.37617 0.89745 0.0
C913 C 0.18013 0.36185 0.06793 0.0
C914 C 0.19394 0.43673 0.97227 0.0
C915 C 0.20798 0.43699 0.84093 0.0
H916 H 0.04223 0.52187 0.37798 0.0
H917 H 0.06769 0.49164 0.48003 0.0
H918 H 0.06367 0.50055 0.26533 0.0
H919 H 0.11724 0.40654 0.3569 0.0
H920 H 0.19617 0.32156 0.92595 0.0
H921 H 0.20412 0.3656 0.84784 0.0
H922 H 0.17406 0.34409 0.11208 0.0
H923 H 0.1971 0.46631 0.96128 0.0
C924 C 0.39196 0.95715 0.42188 0.0
C925 C 0.32571 0.96536 0.42581 0.0
C926 C 0.35716 0.94304 0.43586 0.0
C927 C 0.32942 0.99844 0.38835 0.0
C928 C 0.3964 0.994 0.39906 0.0
C929 C 0.36499 0.01379 0.37784 0.0
N930 N 0.42165 0.93557 0.43568 0.0
C931 C 0.45652 0.95008 0.43663 0.0
C932 C 0.4321 1.00946 0.3992 0.0
C933 C 0.46211 0.98769 0.42051 0.0
Gd934 Gd 0.39972 0.79649 0.31543 0.0
Gd935 Gd 0.4092 0.87305 0.45591 0.0
N936 N 0.35479 0.90943 0.4671 0.0
C937 C 0.29258 0.95508 0.45789 0.0
C938 C 0.32407 0.90116 0.50513 0.0
C939 C 0.2924 0.92391 0.50101 0.0
H940 H 0.32346 0.87656 0.53709 0.0
H941 H 0.26759 0.91666 0.52902 0.0
H942 H 0.47516 0.72189 0.33381 0.0
H943 H 0.47982 0.93273 0.45047 0.0
H944 H 0.48596 0.64547 0.30819 0.0
H945 H 0.26784 0.97207 0.45291 0.0
H946 H 0.30498 0.01381 0.37304 0.0
H947 H 0.30148 0.81407 0.25977 0.0
H948 H 0.43662 0.03833 0.38577 0.0
H949 H 0.48938 0.99973 0.42478 0.0
H950 H 0.33451 0.59404 0.23106 0.0
H951 H 0.36808 0.04125 0.35575 0.0
H952 H 0.24063 0.71046 0.27086 0.0
H953 H 0.24524 0.77772 0.24787 0.0
N954 N 0.33711 0.76885 0.28746 0.0
C955 C 0.33855 0.7326 0.27489 0.0
C956 C 0.30372 0.78431 0.26858 0.0
C957 C 0.2673 0.72412 0.27508 0.0
C958 C 0.27028 0.76295 0.26193 0.0
C959 C 0.29924 0.70282 0.2794 0.0
H960 H 0.2718 0.6383 0.26645 0.0
N961 N 0.41606 0.73249 0.28838 0.0
C962 C 0.38035 0.71856 0.25003 0.0
C963 C 0.42731 0.62703 0.24946 0.0
C964 C 0.3833 0.64434 0.22076 0.0
C965 C 0.45297 0.70769 0.30776 0.0
C966 C 0.46027 0.65776 0.29085 0.0
O967 O 0.41513 0.89342 0.34828 0.0
O968 O 0.37519 0.85606 0.29026 0.0
O969 O 0.42778 0.83374 0.2444 0.0
O970 O 0.41588 0.77748 0.21557 0.0
O971 O 0.355 0.83885 0.45144 0.0
O972 O 0.3489 0.82889 0.33846 0.0
O973 O 0.39624 0.77242 0.43094 0.0
O974 O 0.4296 0.81616 0.48697 0.0
O975 O 0.40291 0.8908 0.55856 0.0
O976 O 0.45732 0.87392 0.5215 0.0
O977 O 0.45907 0.80691 0.3578 0.0
O978 O 0.45715 0.86946 0.38145 0.0
C979 C 0.38912 0.88991 0.30255 0.0
C980 C 0.33415 0.83478 0.3973 0.0
C981 C 0.40567 0.82311 0.13432 0.0
C982 C 0.39485 0.84581 0.95928 0.0
C983 C 0.338 0.83126 0.08576 0.0
C984 C 0.36491 0.82375 0.1417 0.0
C985 C 0.35261 0.84522 0.9705 0.0
C986 C 0.42572 0.83106 0.06764 0.0
C987 C 0.42556 0.81029 0.19462 0.0
C988 C 0.33774 0.62403 0.2342 0.0
C989 C 0.29834 0.65226 0.26261 0.0
H990 H 0.43275 0.59731 0.24839 0.0
C991 C 0.4099 0.78568 0.49008 0.0
C992 C 0.47588 0.84011 0.36016 0.0
C993 C 0.45483 0.91524 0.61561 0.0
C994 C 0.45564 0.92662 0.73452 0.0
C995 C 0.51088 0.93865 0.66811 0.0
C996 C 0.4923 0.92591 0.61062 0.0
C997 C 0.49311 0.93709 0.731 0.0
C998 C 0.43581 0.92071 0.67572 0.0
C999 C 0.43815 0.88752 0.57123 0.0
H1000 H 0.31104 0.82886 0.11181 0.0
H1001 H 0.35349 0.81772 0.19063 0.0
H1002 H 0.33551 0.85137 0.92592 0.0
H1003 H 0.45473 0.82828 0.07926 0.0
H1004 H 0.54 0.94581 0.66507 0.0
H1005 H 0.50776 0.92186 0.56435 0.0
H1006 H 0.50906 0.94123 0.7766 0.0
H1007 H 0.40719 0.9113 0.68004 0.0
C1008 C 0.72147 0.86339 0.60276 0.0
C1009 C 0.66456 0.92585 0.56627 0.0
C1010 C 0.71124 0.91044 0.58816 0.0
C1011 C 0.6278 0.88938 0.55 0.0
C1012 C 0.68691 0.82787 0.5985 0.0
C1013 C 0.64035 0.83867 0.56759 0.0
N1014 N 0.75724 0.85439 0.5927 0.0
C1015 C 0.76399 0.81928 0.56855 0.0
C1016 C 0.70145 0.79222 0.59502 0.0
C1017 C 0.73872 0.78876 0.5752 0.0
Gd1018 Gd 0.88229 0.91417 0.70465 0.0
Gd1019 Gd 0.79911 0.90766 0.58492 0.0
N1020 N 0.73874 0.93534 0.59267 0.0
C1021 C 0.66095 0.9668 0.56907 0.0
C1022 C 0.73028 0.97261 0.59096 0.0
C1023 C 0.69347 0.98722 0.58405 0.0
H1024 H 0.75248 0.99265 0.59561 0.0
H1025 H 0.69006 0.01704 0.58886 0.0
H1026 H 0.88985 0.8255 0.77922 0.0
H1027 H 0.78984 0.81358 0.54323 0.0
H1028 H 0.9285 0.77003 0.75609 0.0
H1029 H 0.65971 0.94015 0.56557 0.0
H1030 H 0.62819 0.86162 0.55456 0.0
H1031 H 0.94012 0.98687 0.70105 0.0
H1032 H 0.68313 0.76837 0.59114 0.0
H1033 H 0.74754 0.76169 0.55742 0.0
H1034 H 0.01401 0.81497 0.58682 0.0
H1035 H 0.62335 0.81119 0.55994 0.0
H1036 H 0.04073 0.94748 0.60985 0.0
H1037 H 1.00402 0.99903 0.66161 0.0
N1038 N 0.94287 0.92897 0.67958 0.0
C1039 C 0.9638 0.89986 0.66048 0.0
C1040 C 0.9568 0.96427 0.68159 0.0
C1041 C 0.0134 0.94196 0.63052 0.0
C1042 C 0.99275 0.9712 0.65846 0.0
C1043 C 0.9987 0.90563 0.63158 0.0
H1044 H 0.04178 0.87996 0.57501 0.0
N1045 N 0.91907 0.86012 0.709 0.0
C1046 C 0.95065 0.86418 0.67298 0.0
C1047 C 0.96274 0.79834 0.68217 0.0
C1048 C 0.97153 0.83322 0.65394 0.0
C1049 C 0.91263 0.82763 0.74377 0.0
C1050 C 0.93442 0.79608 0.73057 0.0
O1051 O 0.78218 0.90167 0.70072 0.0
O1052 O 0.82943 0.92796 0.76154 0.0
O1053 O 0.91484 0.91087 0.79606 0.0
O1054 O 0.87976 0.96051 0.77404 0.0
O1055 O 0.81576 0.9682 0.61579 0.0
O1056 O 0.87818 0.96307 0.63138 0.0
O1057 O 0.89799 0.92317 0.59453 0.0
O1058 O 0.8568 0.88578 0.54019 0.0
O1059 O 0.81232 0.93977 0.49587 0.0
O1060 O 0.766 0.90226 0.49424 0.0
O1061 O 0.84995 0.85845 0.69828 0.0
O1062 O 0.83403 0.85568 0.58778 0.0
C1063 C 0.79588 0.91395 0.75961 0.0
C1064 C 0.84937 0.98344 0.61404 0.0
C1065 C 0.91674 0.96157 0.87402 0.0
C1066 C 0.90881 0.96872 0.99344 0.0
C1067 C 0.95339 1.00715 0.93322 0.0
C1068 C 0.94362 0.9897 0.87311 0.0
C1069 C 0.93572 0.99705 0.99368 0.0
C1070 C 0.89988 0.95075 0.9337 0.0
C1071 C 0.90426 0.94441 0.81287 0.0
C1072 C 1.00143 0.83888 0.61023 0.0
C1073 C 0.0167 0.87507 0.60304 0.0
H1074 H 0.97887 0.77374 0.67008 0.0
C1075 C 0.8915 0.89878 0.54676 0.0
C1076 C 0.84657 0.83908 0.64194 0.0
C1077 C 0.801 0.90689 0.39506 0.0
C1078 C 0.83201 0.90727 0.22318 0.0
C1079 C 0.81769 0.84245 0.33734 0.0
C1080 C 0.8052 0.86558 0.39609 0.0
C1081 C 0.83526 0.86465 0.22767 0.0
C1082 C 0.80957 0.93118 0.33283 0.0
C1083 C 0.78755 0.92366 0.45833 0.0
H1084 H 0.97472 0.02824 0.93238 0.0
H1085 H 0.95687 0.9981 0.82633 0.0
H1086 H 0.94275 0.01123 0.03995 0.0
H1087 H 0.87923 0.92861 0.93351 0.0
H1088 H 0.8168 0.81387 0.35836 0.0
H1089 H 0.79904 0.85054 0.44231 0.0
H1090 H 0.84493 0.85055 0.1817 0.0
H1091 H 0.8028 0.95929 0.34825 0.0
C1092 C 0.89053 0.05833 0.38146 0.0
C1093 C 0.82832 0.05526 0.33681 0.0
C1094 C 0.86265 0.07336 0.34165 0.0
C1095 C 0.82077 0.02557 0.38072 0.0
C1096 C 0.8855 0.02415 0.4143 0.0
C1097 C 0.85006 1.00878 0.41624 0.0
N1098 N 0.92328 0.07622 0.38493 0.0
C1099 C 0.95368 0.05991 0.41374 0.0
C1100 C 0.91595 1.00702 0.44539 0.0
C1101 C 0.95055 0.02465 0.44394 0.0
Gd1102 Gd 0.90534 0.22158 0.4728 0.0
Gd1103 Gd 0.92271 0.13642 0.34253 0.0
N1104 N 0.87013 0.10413 0.30422 0.0
C1105 C 0.80336 0.06695 0.28701 0.0
C1106 C 0.84828 0.11304 0.24999 0.0
C1107 C 0.81403 0.09508 0.24159 0.0
H1108 H 0.85596 0.13589 0.21676 0.0
H1109 H 0.79557 0.10352 0.20134 0.0
H1110 H 0.97875 0.29688 0.45088 0.0
H1111 H 0.97994 0.07452 0.41405 0.0
H1112 H 0.98841 0.3737 0.47225 0.0
H1113 H 0.77663 0.05351 0.28169 0.0
H1114 H 0.793 0.01432 0.38424 0.0
H1115 H 0.80647 0.20256 0.51892 0.0
H1116 H 0.91266 0.98053 0.47105 0.0
H1117 H 0.97432 0.01169 0.46774 0.0
H1118 H 0.83715 0.424 0.5507 0.0
H1119 H 0.84584 0.98385 0.4444 0.0
H1120 H 0.74444 0.30559 0.51294 0.0
H1121 H 0.74947 0.23785 0.53087 0.0
N1122 N 0.84211 0.24892 0.49825 0.0
C1123 C 0.84281 0.28483 0.5142 0.0
C1124 C 0.80839 0.23258 0.51293 0.0
C1125 C 0.77136 0.29235 0.50977 0.0
C1126 C 0.77458 0.25328 0.51959 0.0
C1127 C 0.8031 0.31403 0.50844 0.0
H1128 H 0.7749 0.37842 0.51813 0.0
N1129 N 0.92026 0.28593 0.49913 0.0
C1130 C 0.88457 0.29987 0.53792 0.0
C1131 C 0.93002 0.392 0.53197 0.0
C1132 C 0.88657 0.37448 0.56293 0.0
C1133 C 0.95665 0.31102 0.47742 0.0
C1134 C 0.96312 0.36122 0.49132 0.0
O1135 O 0.92168 0.1276 0.45577 0.0
O1136 O 0.87687 0.1641 0.4996 0.0
O1137 O 0.93012 0.18441 0.54798 0.0
O1138 O 0.92255 0.24187 0.57152 0.0
O1139 O 0.8654 0.16459 0.33461 0.0
O1140 O 0.85421 0.1939 0.4366 0.0
O1141 O 0.91089 0.24197 0.35523 0.0
O1142 O 0.92274 0.19089 0.28427 0.0
O1143 O 0.96791 0.14782 0.27152 0.0
O1144 O 0.94607 0.092 0.28358 0.0
O1145 O 0.9646 0.21245 0.43059 0.0
O1146 O 0.96443 0.14896 0.42379 0.0
C1147 C 0.89078 0.13006 0.49075 0.0
C1148 C 0.84285 0.17839 0.38089 0.0
C1149 C 0.90754 0.19942 0.65705 0.0
C1150 C 0.89001 0.17953 0.83202 0.0
C1151 C 0.83814 0.19723 0.70052 0.0
C1152 C 0.86705 0.20188 0.64671 0.0
C1153 C 0.84845 0.18324 0.81705 0.0
C1154 C 0.92526 0.19086 0.72617 0.0
C1155 C 0.92923 0.20901 0.5959 0.0
C1156 C 0.84071 0.39401 0.54918 0.0
C1157 C 0.80156 0.36483 0.52286 0.0
H1158 H 0.93494 0.42181 0.53116 0.0
C1159 C 0.91727 0.22702 0.29261 0.0
C1160 C 0.98269 0.18013 0.43338 0.0
C1161 C 0.973 0.10481 0.18066 0.0
C1162 C 0.95006 0.10858 0.06602 0.0
C1163 C 1.00339 0.06977 0.09215 0.0
C1164 C 1.00059 0.07978 0.15978 0.0
C1165 C 0.97871 0.08474 0.04517 0.0
C1166 C 0.94717 0.11851 0.13412 0.0
C1167 C 0.96971 0.11302 0.25231 0.0
H1168 H 0.81218 0.20156 0.67222 0.0
H1169 H 0.85743 0.20749 0.59668 0.0
H1170 H 0.82973 0.17897 0.86031 0.0
H1171 H 0.95498 0.19212 0.71781 0.0
H1172 H 0.02511 0.051 0.07604 0.0
H1173 H 0.01995 0.06802 0.19587 0.0
H1174 H 0.98285 0.07906 0.99229 0.0
H1175 H 0.92526 0.13715 0.15058 0.0
C1176 C 0.26291 0.17447 0.51348 0.0
C1177 C 0.35632 0.1372 0.47086 0.0
C1178 C 0.28182 0.13269 0.49261 0.0
C1179 C 0.37132 0.18498 0.48241 0.0
C1180 C 0.28869 0.21668 0.51764 0.0
C1181 C 0.33887 0.22206 0.50493 0.0
N1182 N 0.22828 0.17303 0.53697 0.0
C1183 C 0.2089 0.20603 0.52966 0.0
C1184 C 0.26494 0.24697 0.51654 0.0
C1185 C 0.2262 0.24097 0.51455 0.0
Gd1186 Gd 0.13312 0.09824 0.7042 0.0
Gd1187 Gd 0.20909 0.10849 0.57149 0.0
N1188 N 0.27096 0.09567 0.53291 0.0
C1189 C 0.37707 0.09585 0.505 0.0
C1190 C 0.29877 0.06176 0.55672 0.0
C1191 C 0.34915 0.0602 0.54562 0.0
H1192 H 0.28651 0.03852 0.58391 0.0
H1193 H 0.36357 0.0363 0.56644 0.0
H1194 H 0.11446 0.16588 0.81597 0.0
H1195 H 0.17931 0.20644 0.53863 0.0
H1196 H 0.06986 0.21879 0.81874 0.0
H1197 H 0.40696 0.09387 0.50766 0.0
H1198 H 0.40069 0.1911 0.48199 0.0
H1199 H 0.08842 0.02254 0.63017 0.0
H1200 H 0.276 0.27496 0.51122 0.0
H1201 H 0.20849 0.2651 0.50768 0.0
H1202 H 0.992 0.19385 0.63042 0.0
H1203 H 0.35012 0.24998 0.50901 0.0
H1204 H 0.99357 0.07075 0.53484 0.0
H1205 H 0.03624 0.01724 0.55003 0.0
N1206 N 0.07827 0.08004 0.65038 0.0
C1207 C 0.05169 0.10671 0.65242 0.0
C1208 C 0.07088 0.04643 0.62105 0.0
C1209 C 0.0163 0.07288 0.5698 0.0
C1210 C 0.04071 0.04294 0.5774 0.0
C1211 C 0.0211 0.10488 0.60903 0.0
H1212 H 0.97641 0.13629 0.56563 0.0
N1213 N 0.0858 0.13782 0.73771 0.0
C1214 C 0.05571 0.13662 0.69677 0.0
C1215 C 0.037 0.19725 0.73694 0.0
C1216 C 0.03172 0.16716 0.69294 0.0
C1217 C 0.09043 0.16575 0.78339 0.0
C1218 C 0.06571 0.19586 0.78419 0.0
O1219 O 0.23273 0.09534 0.68393 0.0
O1220 O 0.18637 0.10747 0.76294 0.0
O1221 O 0.14831 0.0524 0.77108 0.0
O1222 O 0.0944 0.07926 0.77941 0.0
O1223 O 0.20532 0.04864 0.61065 0.0
O1224 O 0.1442 0.05725 0.61861 0.0
O1225 O 0.12061 0.14729 0.63574 0.0
O1226 O 0.14585 0.11676 0.54975 0.0
O1227 O 0.22479 0.09197 0.46902 0.0
O1228 O 0.16702 0.09238 0.49825 0.0
O1229 O 0.15838 0.15733 0.71238 0.0
O1230 O 0.20572 0.16134 0.63188 0.0
C1231 C 0.22151 0.10044 0.74918 0.0
C1232 C 0.17194 0.03394 0.61002 0.0
C1233 C 0.11812 0.0541 0.87662 0.0
C1234 C 0.13542 0.08539 0.97879 0.0
C1235 C 0.09032 0.0352 0.98273 0.0
C1236 C 0.09331 0.03149 0.91293 0.0
C1237 C 0.11109 0.06241 1.01574 0.0
C1238 C 0.1393 0.08094 0.90961 0.0
C1239 C 0.11675 0.05417 0.80376 0.0
C1240 C 1.00524 0.16786 0.64183 0.0
C1241 C 0.99807 0.13603 0.60302 0.0
H1242 H 0.01907 0.22153 0.73495 0.0
C1243 C 0.12264 0.14275 0.57116 0.0
C1244 C 0.18433 0.17627 0.67851 0.0
C1245 C 0.18326 0.1238 0.39675 0.0
C1246 C 0.18433 0.15596 0.27582 0.0
C1247 C 0.1711 0.19039 0.38686 0.0
C1248 C 0.17094 0.15769 0.42208 0.0
C1249 C 0.17907 0.19161 0.32012 0.0
C1250 C 0.19026 0.12021 0.32702 0.0
C1251 C 0.19067 0.09408 0.44788 0.0
H1252 H 0.07131 0.01768 1.01085 0.0
H1253 H 0.07552 0.01187 0.88699 0.0
H1254 H 0.10783 0.06591 0.06967 0.0
H1255 H 0.15724 0.09963 0.88134 0.0
H1256 H 0.16498 0.21636 0.41225 0.0
H1257 H 0.16399 0.16048 0.47335 0.0
H1258 H 0.18194 0.17246 0.28856 0.0
H1259 H 0.19849 0.09264 0.3117 0.0
C1260 C 0.11713 0.96775 0.33515 0.0
C1261 C 0.18225 0.97787 0.31297 0.0
C1262 C 0.15122 0.954 0.31555 0.0
C1263 C 0.17922 0.01433 0.33803 0.0
C1264 C 0.11285 1.00566 0.35219 0.0
C1265 C 0.14428 0.02856 0.35577 0.0
N1266 N 0.08763 0.94447 0.33354 0.0
C1267 C 0.05256 0.95766 0.34409 0.0
C1268 C 0.0771 0.01936 0.36463 0.0
C1269 C 0.04674 0.99532 0.35938 0.0
Gd1270 Gd 0.11046 0.80225 0.45482 0.0
Gd1271 Gd 0.09998 0.88115 0.31486 0.0
N1272 N 0.15298 0.91853 0.29196 0.0
C1273 C 0.21438 0.9654 0.28043 0.0
C1274 C 0.18228 0.90828 0.25202 0.0
C1275 C 0.21363 0.93132 0.24647 0.0
H1276 H 0.18207 0.88202 0.22534 0.0
H1277 H 0.23742 0.9224 0.21734 0.0
H1278 H 0.04421 0.71987 0.43028 0.0
H1279 H 0.02899 0.93911 0.34118 0.0
H1280 H 0.04007 0.64282 0.45664 0.0
H1281 H 0.23885 0.98292 0.27716 0.0
H1282 H 0.20334 0.03225 0.33955 0.0
H1283 H 0.2054 0.83 0.51513 0.0
H1284 H 0.07262 0.04843 0.37739 0.0
H1285 H 0.01893 1.00566 0.36759 0.0
H1286 H 0.19263 0.60703 0.55346 0.0
H1287 H 0.14139 0.05749 0.36997 0.0
H1288 H 0.27546 0.73266 0.5239 0.0
H1289 H 0.26376 0.79969 0.53919 0.0
N1290 N 0.17461 0.78074 0.49076 0.0
C1291 C 0.1763 0.74468 0.50617 0.0
C1292 C 0.20598 0.79988 0.51076 0.0
C1293 C 0.24785 0.74352 0.51539 0.0
C1294 C 0.24071 0.78208 0.52469 0.0
C1295 C 0.21848 0.71908 0.50728 0.0
H1296 H 0.25171 0.65768 0.52502 0.0
N1297 N 0.09991 0.73654 0.48287 0.0
C1298 C 0.13524 0.7263 0.52619 0.0
C1299 C 0.09784 0.6303 0.52322 0.0
C1300 C 0.13877 0.65194 0.5567 0.0
C1301 C 0.06657 0.70804 0.45973 0.0
C1302 C 0.06367 0.65762 0.47691 0.0
O1303 O 0.0998 0.90186 0.42227 0.0
O1304 O 0.13684 0.86088 0.48077 0.0
O1305 O 0.08354 0.83846 0.52652 0.0
O1306 O 0.0901 0.78049 0.5511 0.0
O1307 O 0.15373 0.84665 0.31453 0.0
O1308 O 0.1612 0.83373 0.4263 0.0
O1309 O 0.11223 0.77876 0.33959 0.0
O1310 O 0.07847 0.82362 0.28691 0.0
O1311 O 0.10338 0.8895 0.20859 0.0
O1312 O 0.04907 0.88865 0.25742 0.0
O1313 O 0.04997 0.81612 0.41676 0.0
O1314 O 0.05508 0.87863 0.39503 0.0
C1315 C 0.12523 0.89576 0.46837 0.0
C1316 C 0.17514 0.83975 0.36677 0.0
C1317 C 0.10054 0.82304 0.63744 0.0
C1318 C 0.10761 0.84575 0.81259 0.0
C1319 C 0.16695 0.83505 0.68895 0.0
C1320 C 0.14121 0.82614 0.63209 0.0
C1321 C 0.14995 0.84783 0.80315 0.0
C1322 C 0.07908 0.82911 0.70325 0.0
C1323 C 0.08215 0.81328 0.5741 0.0
C1324 C 0.18652 0.63654 0.5493 0.0
C1325 C 0.22383 0.6688 0.52523 0.0
H1326 H 0.09529 0.60019 0.52451 0.0
C1327 C 0.09805 0.79294 0.28139 0.0
C1328 C 0.0347 0.85028 0.41549 0.0
C1329 C 0.05638 0.92282 0.1545 0.0
C1330 C 0.05409 0.93204 0.03507 0.0
C1331 C 0.01001 0.96395 0.10651 0.0
C1332 C 0.02537 0.94606 0.16306 0.0
C1333 C 0.02314 0.95534 0.04169 0.0
C1334 C 0.07269 0.91961 0.09165 0.0
C1335 C 0.06778 0.89411 0.20214 0.0
H1336 H 0.19434 0.83446 0.66413 0.0
H1337 H 0.15322 0.82242 0.5835 0.0
H1338 H 0.16608 0.85497 0.84834 0.0
H1339 H 0.05028 0.8235 0.691 0.0
H1340 H 0.98617 0.98191 0.11271 0.0
H1341 H 0.01223 0.94901 0.21189 0.0
H1342 H 0.00867 0.96529 0.99746 0.0
H1343 H 0.0965 0.90128 0.08502 0.0
C1344 C 0.34232 0.93118 0.23606 0.0
C1345 C 0.37833 0.92444 0.26204 0.0
H1346 H 0.30482 0.97067 0.18794 0.0
C1347 C 0.40434 0.95348 0.25514 0.0
H1348 H 0.32123 0.90975 0.24066 0.0
C1349 C 0.39491 0.98808 0.22631 0.0
C1350 C 0.35905 0.99575 0.20129 0.0
H1351 H 0.43219 0.95006 0.2746 0.0
H1352 H 0.41597 1.00951 0.22645 0.0
C1353 C 0.33276 0.96639 0.20629 0.0
C1354 C 0.94452 0.62512 0.80217 0.0
C1355 C 0.925 0.64985 0.76039 0.0
H1356 H 0.99248 0.61385 0.85909 0.0
C1357 C 0.93838 0.68711 0.7569 0.0
H1358 H 0.93545 0.59635 0.8069 0.0
C1359 C 0.97179 0.69813 0.79068 0.0
C1360 C 0.99307 0.67197 0.8282 0.0
H1361 H 0.92434 0.707 0.72454 0.0
H1362 H 0.98215 0.72628 0.78368 0.0
C1363 C 0.97763 0.63572 0.83409 0.0
C1364 C 0.62572 0.03353 0.20017 0.0
C1365 C 0.6619 0.01855 0.19933 0.0
H1366 H 0.58851 0.07591 0.23404 0.0
C1367 C 0.69003 0.04096 0.22841 0.0
H1368 H 0.60309 0.01828 0.17814 0.0
C1369 C 0.68137 0.07573 0.26033 0.0
C1370 C 0.64434 0.08898 0.26424 0.0
H1371 H 0.71832 0.0309 0.22927 0.0
H1372 H 0.70329 0.09108 0.28513 0.0
C1373 C 0.61717 0.06739 0.23213 0.0
C1374 C 0.04118 0.32219 0.80535 0.0
C1375 C 0.02171 0.34996 0.84173 0.0
H1376 H 0.08877 0.30839 0.7436 0.0
C1377 C 0.04058 0.38444 0.84998 0.0
H1378 H 0.02819 0.29536 0.79664 0.0
C1379 C 0.07597 0.39147 0.82069 0.0
C1380 C 0.0944 0.36487 0.78102 0.0
H1381 H 0.02727 0.4069 0.87728 0.0
H1382 H 0.08795 0.41885 0.82463 0.0
C1383 C 0.07634 0.32978 0.7746 0.0
C1384 C 0.32772 0.55201 0.06973 0.0
C1385 C 0.35465 0.52348 0.07881 0.0
H1386 H 0.31554 0.60775 0.03084 0.0
C1387 C 0.39088 0.53208 0.05629 0.0
H1388 H 0.29942 0.54715 0.0859 0.0
C1389 C 0.39981 0.56607 0.02449 0.0
C1390 C 0.37349 0.59443 1.01417 0.0
H1391 H 0.41267 0.51152 0.05944 0.0
H1392 H 0.42754 0.56927 1.00446 0.0
C1393 C 0.33708 0.58708 0.03841 0.0
C1394 C 0.55769 0.61364 0.98953 0.0
C1395 C 0.58565 0.63855 1.01042 0.0
H1396 H 0.50441 0.60414 0.94611 0.0
C1397 C 0.57854 0.67692 0.9957 0.0
H1398 H 0.56018 0.58444 1.00163 0.0
C1399 C 0.5443 0.6892 0.96489 0.0
C1400 C 0.51588 0.66368 0.94627 0.0
H1401 H 0.59864 0.69773 1.01069 0.0
H1402 H 0.53985 0.71868 0.95657 0.0
C1403 C 0.52459 0.62552 0.9576 0.0
C1404 C 0.67926 0.46533 0.0764 0.0
C1405 C 0.65159 0.49113 0.09736 0.0
H1406 H 0.69194 0.41223 0.02846 0.0
C1407 C 0.61463 0.47868 0.09035 0.0
H1408 H 0.70818 0.47302 0.08042 0.0
C1409 C 0.60543 0.44434 0.05978 0.0
C1410 C 0.6324 0.41939 0.03527 0.0
H1411 H 0.592 0.49671 0.10418 0.0
H1412 H 0.57657 0.43848 0.05192 0.0
C1413 C 0.66984 0.43009 0.04632 0.0
C1414 C 0.44122 0.39577 0.96161 0.0
C1415 C 0.42147 0.37113 1.00396 0.0
H1416 H 0.48779 0.40539 0.89719 0.0
C1417 C 0.43459 0.33373 1.0062 0.0
H1418 H 0.43181 0.42432 0.9563 0.0
C1419 C 0.46838 0.32299 0.97304 0.0
C1420 C 0.49054 0.34926 0.93757 0.0
H1421 H 0.42029 0.31335 0.0373 0.0
H1422 H 0.47866 0.29493 0.9792 0.0
C1423 C 0.47426 0.38491 0.92836 0.0
C1424 C 0.83537 0.44286 0.78194 0.0
C1425 C 0.86868 0.42405 0.76514 0.0
H1426 H 0.80101 0.49205 0.76754 0.0
C1427 C 0.89023 0.43957 0.71289 0.0
H1428 H 0.81822 0.43226 0.82267 0.0
C1429 C 0.88009 0.47332 0.68079 0.0
C1430 C 0.84838 0.49389 0.70043 0.0
H1431 H 0.91586 0.42614 0.69807 0.0
H1432 H 0.89815 0.48406 0.64155 0.0
C1433 C 0.82541 0.47733 0.75021 0.0
C1434 C 0.47026 0.18936 0.31612 0.0
C1435 C 0.49326 0.16199 0.34754 0.0
H1436 H 0.42084 0.20125 0.25635 0.0
C1437 C 0.47746 0.12572 0.35035 0.0
H1438 H 0.4802 0.21778 0.31261 0.0
C1439 C 0.44387 0.11612 0.31762 0.0
C1440 C 0.42243 0.14224 0.28167 0.0
H1441 H 0.49203 0.10343 0.37468 0.0
H1442 H 0.43545 0.08719 0.31729 0.0
C1443 C 0.43573 0.17972 0.2836 0.0
C1444 C 0.17464 0.58643 0.73855 0.0
C1445 C 0.13896 0.591 0.76834 0.0
H1446 H 0.21394 0.54931 0.68853 0.0
C1447 C 0.11622 0.55887 0.76795 0.0
H1448 H 0.19366 0.60986 0.73768 0.0
C1449 C 0.1283 0.52412 0.74234 0.0
C1450 C 0.16343 0.51892 0.71202 0.0
H1451 H 0.08859 0.56016 0.78924 0.0
H1452 H 0.1098 0.5006 0.74831 0.0
C1453 C 0.18659 0.55118 0.71088 0.0
C1454 C 0.57281 0.83037 0.26992 0.0
C1455 C 0.58504 0.86808 0.26689 0.0
H1456 H 0.5295 0.79148 0.30145 0.0
C1457 C 0.56309 0.89415 0.30161 0.0
H1458 H 0.58843 0.80904 0.24379 0.0
C1459 C 0.52958 0.88425 0.33393 0.0
C1460 C 0.5154 0.84741 0.3331 0.0
H1461 H 0.57101 0.92313 0.30111 0.0
H1462 H 0.51376 0.90653 0.35673 0.0
C1463 C 0.53863 0.82022 0.3027 0.0
C1464 C 0.83016 0.04791 0.56091 0.0
C1465 C 0.8571 0.02371 0.58956 0.0
H1466 H 0.81891 0.10015 0.50833 0.0
C1467 C 0.89379 0.03785 0.59151 0.0
H1468 H 0.80159 0.03883 0.55791 0.0
C1469 C 0.90358 0.07285 0.56335 0.0
C1470 C 0.87745 0.09607 0.53141 0.0
H1471 H 0.91589 0.02111 0.61231 0.0
H1472 H 0.93232 0.08126 0.56469 0.0
C1473 C 0.84014 0.08345 0.53247 0.0
C1474 C 0.07598 0.13388 0.4761 0.0
C1475 C 0.09044 0.15635 0.52782 0.0
H1476 H 0.03162 0.12382 0.40655 0.0
C1477 C 0.07181 0.19047 0.54072 0.0
H1478 H 0.08929 0.10766 0.46378 0.0
C1479 C 0.03858 0.20042 0.50626 0.0
C1480 C 0.02233 0.17602 0.45904 0.0
H1481 H 0.08208 0.20885 0.57963 0.0
H1482 H 0.0242 0.22575 0.52051 0.0
C1483 C 0.04255 0.1433 0.4431 0.0
C1484 C 0.11938 0.96349 0.50143 0.0
C1485 C 0.13893 0.92959 0.50775 0.0
H1486 H 0.11658 0.02203 0.51985 0.0
C1487 C 0.1715 0.93035 0.5477 0.0
H1488 H 0.09372 0.96461 0.47348 0.0
C1489 C 0.18351 0.96399 0.57981 0.0
C1490 C 0.1636 0.9979 0.57205 0.0
H1491 H 0.18766 0.90509 0.55419 0.0
H1492 H 0.20794 0.96326 0.61143 0.0
C1493 C 0.13212 0.99679 0.53021 0.0
C1494 C 0.96572 0.83537 0.45506 0.0
C1495 C 0.99581 0.86044 0.44422 0.0
H1496 H 0.90916 0.8273 0.49138 0.0
C1497 C 0.98861 0.89814 0.46179 0.0
H1498 H 0.96902 0.80621 0.44209 0.0
C1499 C 0.955 0.90979 0.49217 0.0
C1500 C 0.9251 0.88519 0.50441 0.0
H1501 H 0.01019 0.91896 0.4562 0.0
H1502 H 0.95335 0.93835 0.50926 0.0
C1503 C 0.93095 0.84764 0.48347 0.0
C1504 C 0.37932 0.24104 0.14089 0.0
C1505 C 0.34636 0.22114 0.12815 0.0
H1506 H 0.40402 0.29478 0.1587 0.0
C1507 C 0.31315 0.24099 0.13243 0.0
H1508 H 0.40572 0.22693 0.13949 0.0
C1509 C 0.31187 0.27764 0.15688 0.0
C1510 C 0.34427 0.29858 0.1645 0.0
H1511 H 0.28739 0.22747 0.11887 0.0
H1512 H 0.28506 0.29087 0.16296 0.0
C1513 C 0.3783 0.27965 0.15588 0.0
C1514 C 0.27282 0.71595 0.87858 0.0
C1515 C 0.29308 0.68294 0.87065 0.0
H1516 H 0.22108 0.74134 0.90739 0.0
C1517 C 0.27453 0.64915 0.88315 0.0
H1518 H 0.28663 0.74272 0.87317 0.0
C1519 C 0.23594 0.64837 0.8927 0.0
C1520 C 0.21615 0.6814 0.90529 0.0
H1521 H 0.28988 0.62347 0.88718 0.0
H1522 H 0.22175 0.62212 0.88799 0.0
C1523 C 0.23556 0.71513 0.89996 0.0
C1524 C 0.62875 0.7769 0.11953 0.0
C1525 C 0.66331 0.79494 0.11091 0.0
H1526 H 0.60079 0.72404 0.13356 0.0
C1527 C 0.69502 0.77311 0.118 0.0
H1528 H 0.60338 0.79252 0.11522 0.0
C1529 C 0.69283 0.73737 0.14646 0.0
C1530 C 0.65938 0.71851 0.15276 0.0
H1531 H 0.72202 0.78553 0.10993 0.0
H1532 H 0.71785 0.72318 0.16125 0.0
C1533 C 0.62699 0.7383 0.13567 0.0
C1534 C 0.77592 0.37714 0.92395 0.0
C1535 C 0.79552 0.34294 0.92515 0.0
H1536 H 0.72245 0.40405 0.91663 0.0
C1537 C 0.7748 0.3103 0.91499 0.0
H1538 H 0.79034 0.40312 0.93192 0.0
C1539 C 0.73795 0.31223 0.89255 0.0
C1540 C 0.71822 0.34563 0.8912 0.0
H1541 H 0.78822 0.28323 0.91659 0.0
H1542 H 0.7245 0.28723 0.87485 0.0
C1543 C 0.73729 0.37811 0.91094 0.0
C1544 C 0.81194 0.74065 0.62484 0.0
C1545 C 0.8425 0.71982 0.60281 0.0
H1546 H 0.79284 0.79099 0.67232 0.0
C1547 C 0.87621 0.73944 0.59466 0.0
H1548 H 0.78508 0.7274 0.62982 0.0
C1549 C 0.87844 0.77829 0.60795 0.0
C1550 C 0.84859 0.79732 0.63853 0.0
H1551 H 0.90085 0.72486 0.57949 0.0
H1552 H 0.90361 0.79319 0.59552 0.0
C1553 C 0.81614 0.77721 0.64888 0.0
C1554 C 0.78231 0.14301 0.38578 0.0
C1555 C 0.80177 0.17658 0.37528 0.0
H1556 H 0.72923 0.11675 0.40032 0.0
C1557 C 0.78201 0.21 0.38172 0.0
H1558 H 0.79705 0.11691 0.38759 0.0
C1559 C 0.74469 0.21016 0.40184 0.0
C1560 C 0.72438 0.17697 0.40712 0.0
H1561 H 0.79626 0.23653 0.37587 0.0
H1562 H 0.73099 0.2368 0.40896 0.0
C1563 C 0.74375 0.14311 0.39809 0.0
C1564 C 0.15155 0.27677 0.65149 0.0
C1565 C 0.18509 0.2955 0.63707 0.0
H1566 H 0.12468 0.22489 0.67863 0.0
C1567 C 0.21809 0.27535 0.64646 0.0
H1568 H 0.12564 0.29176 0.6491 0.0
C1569 C 0.21783 0.23756 0.66695 0.0
C1570 C 0.18441 0.2183 0.67877 0.0
H1571 H 0.24456 0.28917 0.63892 0.0
H1572 H 0.24402 0.22283 0.67048 0.0
C1573 C 0.15114 0.2387 0.67147 0.0
C1574 C 0.27553 0.8712 0.37886 0.0
C1575 C 0.29309 0.83767 0.3976 0.0
H1576 H 0.22349 0.89928 0.36572 0.0
C1577 C 0.27208 0.8049 0.39551 0.0
H1578 H 0.29159 0.89642 0.37236 0.0
C1579 C 0.23472 0.8055 0.37525 0.0
C1580 C 0.21629 0.83932 0.36324 0.0
H1581 H 0.28527 0.77822 0.40542 0.0
H1582 H 0.21952 0.77938 0.37354 0.0
C1583 C 0.23701 0.87244 0.36814 0.0
C1584 C 0.24138 0.07067 0.86586 0.0
C1585 C 0.24757 0.09771 0.81361 0.0
H1586 H 0.25438 0.04881 0.96596 0.0
C1587 C 0.27375 0.1257 0.83183 0.0
H1588 H 0.22122 0.0488 0.85717 0.0
C1589 C 0.29196 0.12658 0.89691 0.0
C1590 C 0.2852 0.09992 0.94975 0.0
H1591 H 0.27954 0.148 0.79617 0.0
H1592 H 0.31121 0.14918 0.90631 0.0
C1593 C 0.26021 0.07111 0.93034 0.0
C1594 C 0.0659 0.75392 0.10253 0.0
C1595 C 0.0984 0.7504 0.06172 0.0
H1596 H 0.03985 0.76935 0.19741 0.0
C1597 C 0.1317 0.75885 0.09775 0.0
H1598 H 0.0393 0.74743 0.0802 0.0
C1599 C 0.13212 0.77008 0.16838 0.0
C1600 C 0.09929 0.77396 0.20865 0.0
H1601 H 0.15798 0.75604 0.07172 0.0
H1602 H 0.1586 0.77663 0.1911 0.0
C1603 C 0.06624 0.7661 0.17196 0.0
C1604 C 0.76501 0.9364 0.94721 0.0
C1605 C 0.73661 0.91032 0.96276 0.0
H1606 H 0.80441 0.95853 0.87453 0.0
C1607 C 0.72808 0.88519 0.90931 0.0
H1608 H 0.77254 0.9569 0.98462 0.0
C1609 C 0.74671 0.88588 0.8451 0.0
C1610 C 0.77416 0.91283 0.82853 0.0
H1611 H 0.70674 0.86431 0.91725 0.0
H1612 H 0.73953 0.86485 0.80839 0.0
C1613 C 0.78315 0.93756 0.88247 0.0
C1614 C 0.89091 0.2933 0.13677 0.0
C1615 C 0.91336 0.28073 0.08135 0.0
H1616 H 0.87417 0.28896 0.24247 0.0
C1617 C 0.93878 0.25235 0.10009 0.0
H1618 H 0.87071 0.31501 0.12765 0.0
C1619 C 0.94045 0.23676 0.16755 0.0
C1620 C 0.91789 0.24923 0.22289 0.0
H1621 H 0.95825 0.24253 0.06259 0.0
H1622 H 0.96007 0.21438 0.17641 0.0
C1623 C 0.89305 0.27831 0.20465 0.0
C1624 C 0.2475 0.43443 0.34705 0.0
C1625 C 0.28064 0.41466 0.33105 0.0
H1626 H 0.20635 0.45149 0.42098 0.0
C1627 C 0.2961 0.39604 0.38914 0.0
H1628 H 0.23381 0.44997 0.30736 0.0
C1629 C 0.27998 0.3968 0.45649 0.0
C1630 C 0.24725 0.41718 0.4728 0.0
H1631 H 0.32137 0.38013 0.38271 0.0
H1632 H 0.29348 0.38094 0.49603 0.0
C1633 C 0.23163 0.43558 0.41459 0.0
C1634 C 0.37755 0.76114 0.67844 0.0
C1635 C 0.40996 0.74678 0.71078 0.0
H1636 H 0.35109 0.78269 0.58706 0.0
C1637 C 0.44066 0.74259 0.66577 0.0
H1638 H 0.35253 0.76448 0.70808 0.0
C1639 C 0.43973 0.75286 0.59537 0.0
C1640 C 0.40747 0.76665 0.56242 0.0
H1641 H 0.46641 0.73149 0.68549 0.0
H1642 H 0.4651 0.75036 0.56641 0.0
C1643 C 0.37644 0.77084 0.60705 0.0
C1644 C 0.76242 0.58103 0.34768 0.0
C1645 C 0.73055 0.60335 0.33644 0.0
H1646 H 0.80688 0.56325 0.41413 0.0
C1647 C 0.71886 0.6236 0.39491 0.0
H1648 H 0.7717 0.56309 0.30741 0.0
C1649 C 0.73833 0.62257 0.45866 0.0
C1650 C 0.77093 0.60096 0.4691 0.0
H1651 H 0.69436 0.64098 0.39143 0.0
H1652 H 0.72814 0.63973 0.49949 0.0
C1653 C 0.78227 0.58047 0.41085 0.0
C1654 C 0.57815 0.26447 0.5888 0.0
C1655 C 0.60532 0.23755 0.57158 0.0
H1656 H 0.55593 0.30332 0.66257 0.0
C1657 C 0.62998 0.2283 0.62553 0.0
H1658 H 0.55716 0.27128 0.55195 0.0
C1659 C 0.62836 0.24545 0.69092 0.0
C1660 C 0.6016 0.2729 0.70778 0.0
H1661 H 0.65136 0.20759 0.61712 0.0
H1662 H 0.64904 0.23772 0.72798 0.0
C1663 C 0.57686 0.28217 0.65403 0.0
C1664 C 0.37404 0.12944 0.65623 0.0
C1665 C 0.34034 0.11322 0.63632 0.0
H1666 H 0.41603 0.13245 0.73091 0.0
C1667 C 0.32149 0.09059 0.68384 0.0
H1668 H 0.38862 0.14878 0.62332 0.0
C1669 C 0.33897 0.07865 0.7426 0.0
C1670 C 0.37455 0.09134 0.7573 0.0
H1671 H 0.29447 0.07968 0.67492 0.0
H1672 H 0.32559 0.05788 0.7744 0.0
C1673 C 0.39041 0.11934 0.71707 0.0
C1674 C 0.09782 0.67374 0.34095 0.0
C1675 C 0.11907 0.65833 0.39308 0.0
H1676 H 0.06334 0.66218 0.25634 0.0
C1677 C 0.12971 0.62039 0.38938 0.0
H1678 H 0.09207 0.70338 0.33837 0.0
C1679 C 0.11356 0.59681 0.34227 0.0
C1680 C 0.08778 0.61139 0.29712 0.0
H1681 H 0.14815 0.60827 0.42656 0.0
H1682 H 0.12098 0.56747 0.34123 0.0
C1683 C 0.08111 0.65015 0.29481 0.0
C1684 C 0.68961 0.8964 0.70869 0.0
C1685 C 0.6639 0.88079 0.64812 0.0
H1686 H 0.69203 0.9328 0.79313 0.0
C1687 C 0.62438 0.87458 0.67916 0.0
H1688 H 0.71911 0.89714 0.70852 0.0
C1689 C 0.61245 0.89485 0.73436 0.0
C1690 C 0.6359 0.91903 0.76827 0.0
H1691 H 0.64618 0.87674 0.65359 0.0
H1692 H 0.58349 0.89285 0.74865 0.0
C1693 C 0.67404 0.91651 0.76094 0.0
C1694 C 0.94041 0.35302 0.28907 0.0
C1695 C 0.93893 0.39188 0.27936 0.0
H1696 H 0.92881 0.3074 0.3555 0.0
C1697 C 0.91987 0.41398 0.32617 0.0
H1698 H 0.95423 0.33526 0.25278 0.0
C1699 C 0.90561 0.39797 0.3848 0.0
C1700 C 0.91126 0.35984 0.3989 0.0
H1701 H 0.91708 0.44386 0.31847 0.0
H1702 H 0.89182 0.41587 0.42088 0.0
C1703 C 0.92626 0.33708 0.34823 0.0
C1704 C 0.34647 0.44222 0.5368 0.0
C1705 C 0.38458 0.43888 0.5254 0.0
H1706 H 0.30174 0.43164 0.6038 0.0
C1707 C 0.40619 0.41738 0.56965 0.0
H1708 H 0.32928 0.45838 0.50266 0.0
C1709 C 0.3904 0.40223 0.62787 0.0
C1710 C 0.35309 0.40951 0.64401 0.0
H1711 H 0.43562 0.41372 0.56065 0.0
H1712 H 0.40804 0.38706 0.66267 0.0
C1713 C 0.33075 0.42711 0.59522 0.0
C1714 C 0.39982 0.61557 0.39058 0.0
C1715 C 0.40863 0.65369 0.38226 0.0
H1716 H 0.4084 0.5657 0.44794 0.0
C1717 C 0.43072 0.67119 0.43093 0.0
H1718 H 0.38089 0.60173 0.35651 0.0
C1719 C 0.44955 0.6495 0.4781 0.0
C1720 C 0.44372 0.61068 0.48136 0.0
H1721 H 0.4348 0.70112 0.43109 0.0
H1722 H 0.46742 0.66321 0.51426 0.0
C1723 C 0.41684 0.59438 0.44049 0.0
C1724 C 0.63098 0.61819 0.64232 0.0
C1725 C 0.66867 0.61061 0.65396 0.0
H1726 H 0.58378 0.60753 0.58019 0.0
C1727 C 0.68939 0.59328 0.60295 0.0
H1728 H 0.61466 0.63354 0.67877 0.0
C1729 C 0.67173 0.57805 0.54719 0.0
C1730 C 0.63331 0.58137 0.54079 0.0
H1731 H 0.71863 0.58915 0.60804 0.0
H1732 H 0.6877 0.56191 0.5113 0.0
C1733 C 0.61329 0.60327 0.58641 0.0
C1734 C 0.5695 0.34872 0.49113 0.0
C1735 C 0.56856 0.38768 0.49522 0.0
H1736 H 0.58599 0.30123 0.43347 0.0
C1737 C 0.58585 0.40932 0.44533 0.0
H1738 H 0.55649 0.33214 0.53008 0.0
C1739 C 0.60202 0.39211 0.38992 0.0
C1740 C 0.59985 0.3531 0.38233 0.0
H1741 H 0.58676 0.43944 0.44912 0.0
H1742 H 0.61495 0.40948 0.35162 0.0
C1743 C 0.5858 0.33136 0.43572 0.0
C1744 C 0.81955 0.61828 0.20969 0.0
C1745 C 0.83649 0.64361 0.159 0.0
H1746 H 0.83061 0.57358 0.2798 0.0
C1747 C 0.86255 0.66499 0.20284 0.0
H1748 H 0.79109 0.60924 0.20867 0.0
C1749 C 0.88598 0.64675 0.2486 0.0
C1750 C 0.87645 0.61109 0.26962 0.0
H1751 H 0.86966 0.69419 0.19534 0.0
H1752 H 0.91053 0.66052 0.2678 0.0
C1753 C 0.84108 0.59866 0.25591 0.0
C1754 C 0.51345 0.1609 0.82458 0.0
C1755 C 0.53687 0.14907 0.77321 0.0
H1756 H 0.50631 0.1939 0.90912 0.0
C1757 C 0.56926 0.1701 0.76428 0.0
H1758 H 0.48487 0.15192 0.82808 0.0
C1759 C 0.58334 0.1907 0.81727 0.0
C1760 C 0.56802 0.18761 0.88632 0.0
H1761 H 0.58482 0.17006 0.71751 0.0
H1762 H 0.60978 0.20301 0.80442 0.0
C1763 C 0.52737 0.18514 0.87338 0.0
C1764 C 0.15022 0.44969 0.24561 0.0
C1765 C 0.11195 0.442 0.24483 0.0
H1766 H 0.20294 0.44024 0.19934 0.0
C1767 C 0.09754 0.41721 0.19786 0.0
H1768 H 0.16212 0.46662 0.28525 0.0
C1769 C 0.12075 0.40226 0.14904 0.0
C1770 C 0.1585 0.41273 0.14531 0.0
H1771 H 0.06867 0.40882 0.19986 0.0
H1772 H 0.10862 0.38402 0.11173 0.0
C1773 C 0.17359 0.43429 0.19722 0.0
C1774 C 0.39742 0.90315 0.88534 0.0
C1775 C 0.40464 0.86457 0.89231 0.0
H1776 H 0.40984 0.9538 0.83161 0.0
C1777 C 0.42524 0.84652 0.84214 0.0
H1778 H 0.3795 0.91745 0.92072 0.0
C1779 C 0.44436 0.86772 0.79448 0.0
C1780 C 0.44083 0.90687 0.79318 0.0
H1781 H 0.4283 0.81646 0.84177 0.0
H1782 H 0.46123 0.85352 0.75723 0.0
C1783 C 0.41559 0.92423 0.8362 0.0
C1784 C 0.8897 0.9192 0.15562 0.0
C1785 C 0.85083 0.92211 0.15992 0.0
H1786 H 0.93869 0.93314 0.10019 0.0
C1787 C 0.83129 0.93948 0.10734 0.0
H1788 H 0.90531 0.90389 0.19333 0.0
C1789 C 0.85065 0.95743 0.05578 0.0
C1790 C 0.88954 0.9564 0.05422 0.0
H1791 H 0.80131 0.93965 0.10631 0.0
H1792 H 0.8354 0.97123 1.01579 0.0
C1793 C 0.90894 0.93653 0.10348 0.0
C1794 C 0.92725 0.16601 1.01027 0.0
C1795 C 0.92661 0.12701 1.01529 0.0
H1796 H 0.91432 0.21403 0.95024 0.0
C1797 C 0.90676 0.10626 0.96781 0.0
H1798 H 0.94218 0.18204 0.04717 0.0
C1799 C 0.89077 0.12438 0.91261 0.0
C1800 C 0.89667 0.16296 0.90211 0.0
H1801 H 0.90496 0.07611 0.97192 0.0
H1802 H 0.87653 0.10773 0.87529 0.0
C1803 C 0.91181 0.18406 0.95459 0.0
C1804 C 0.19251 0.1105 0.02948 0.0
C1805 C 0.15539 0.11518 1.01251 0.0
H1806 H 0.23794 0.12953 0.08604 0.0
C1807 C 0.13691 0.14805 0.02864 0.0
H1808 H 0.20761 0.08686 1.01088 0.0
C1809 C 0.14892 0.16984 0.08177 0.0
C1810 C 0.18086 0.15488 0.1277 0.0
H1811 H 0.11132 0.15554 1.00346 0.0
H1812 H 0.16545 0.16295 0.11577 0.0
C1813 C 0.20877 0.13346 0.07712 0.0
C1814 C 0.07356 0.8502 0.92673 0.0
C1815 C 0.09639 0.86609 0.87691 0.0
H1816 H 0.03796 0.86066 1.01076 0.0
C1817 C 0.10574 0.90431 0.88154 0.0
H1818 H 0.06854 0.82044 0.92926 0.0
C1819 C 0.08937 0.92692 0.92969 0.0
C1820 C 0.06319 0.91191 0.97374 0.0
H1821 H 0.12479 0.91718 0.8461 0.0
H1822 H 0.09827 0.95558 0.9343 0.0
C1823 C 0.05578 0.87327 0.97281 0.0
loop_
_geom_bond_atom_site_label_1
_geom_bond_atom_site_label_2
_geom_bond_distance
_geom_bond_site_symmetry_2
_ccdc_geom_bond_type
C0 C2 1.422 . S
C0 C4 1.415 . S
C0 N6 1.369 . S
C1 C2 1.421 . S
C1 C3 1.417 . S
C1 C13 1.422 . S
C2 C0 1.422 . S
C2 C1 1.421 . S
C2 N12 1.359 . S
C3 C1 1.417 . S
C3 C5 1.329 . S
C3 H22 0.930 . S
C4 C0 1.415 . S
C4 C5 1.437 . S
C4 C8 1.413 . S
C5 C3 1.329 . S
C5 C4 1.437 . S
C5 H27 0.929 . S
N6 C0 1.369 . S
N6 C7 1.338 . S
N6 Gd11 2.622 . S
C7 N6 1.338 . S
C7 C9 1.378 . S
C7 H19 0.929 . S
C8 C4 1.413 . S
C8 C9 1.348 . S
C8 H24 0.931 . S
C9 C7 1.378 . S
C9 C8 1.348 . S
C9 H25 0.930 . S
Gd10 N30 2.622 . S
Gd10 N37 2.570 . S
Gd10 O44 2.353 . S
Gd10 O45 2.468 1_554 S
Gd10 O46 2.427 1_554 S
Gd10 O48 2.388 . S
Gd10 O49 2.386 . S
Gd10 O53 2.307 . S
Gd10 C63 2.805 1_554 S
Gd11 N6 2.622 . S
Gd11 N12 2.570 . S
Gd11 O43 2.386 . S
Gd11 O47 2.307 . S
Gd11 O50 2.353 . S
Gd11 O51 2.468 . S
Gd11 O52 2.427 . S
Gd11 O54 2.388 . S
Gd11 C75 2.805 . S
N12 C2 1.359 . S
N12 Gd11 2.570 . S
N12 C14 1.343 . S
C13 C1 1.422 . S
C13 C15 1.321 . S
C13 H21 0.931 . S
C14 N12 1.343 . S
C14 C15 1.390 . S
C14 H16 0.931 . S
C15 C13 1.321 . S
C15 C14 1.390 . S
C15 H17 0.930 . S
H16 C14 0.931 . S
H17 C15 0.930 . S
H18 C41 0.931 . S
H19 C7 0.929 . S
H20 C42 0.930 . S
H21 C13 0.931 . S
H22 C3 0.930 . S
H23 C32 0.929 . S
H24 C8 0.931 . S
H25 C9 0.930 . S
H26 C64 0.930 . S
H27 C5 0.929 . S
H28 C33 0.931 1_565 S
H29 C34 0.930 . S
N30 Gd10 2.622 . S
N30 C31 1.369 . S
N30 C32 1.338 . S
C31 N30 1.369 . S
C31 C35 1.415 . S
C31 C38 1.422 . S
C32 H23 0.929 . S
C32 N30 1.338 . S
C32 C34 1.378 1_545 S
C33 H28 0.931 1_545 S
C33 C34 1.348 1_545 S
C33 C35 1.413 . S
C34 H29 0.930 . S
C34 C32 1.378 1_565 S
C34 C33 1.348 1_565 S
C35 C31 1.415 . S
C35 C33 1.413 . S
C35 C65 1.437 . S
H36 C65 0.929 . S
N37 Gd10 2.570 . S
N37 C38 1.359 . S
N37 C41 1.343 . S
C38 C31 1.422 . S
C38 N37 1.359 . S
C38 C40 1.421 . S
C39 C40 1.422 . S
C39 C42 1.321 . S
C39 H66 0.931 . S
C40 C38 1.421 . S
C40 C39 1.422 . S
C40 C64 1.417 . S
C41 H18 0.931 . S
C41 N37 1.343 . S
C41 C42 1.390 . S
C42 H20 0.930 . S
C42 C39 1.321 . S
C42 C41 1.390 . S
O43 Gd11 2.386 . S
O43 C55 1.265 . S
O44 Gd10 2.353 . S
O44 C55 1.242 . S
O45 Gd10 2.468 1_556 S
O45 C63 1.263 . S
O46 Gd10 2.427 1_556 S
O46 C63 1.252 . S
O47 Gd11 2.307 . S
O47 C56 1.261 . S
O48 Gd10 2.388 . S
O48 C56 1.252 . S
O49 Gd10 2.386 . S
O49 C67 1.265 . S
O50 Gd11 2.353 . S
O50 C67 1.242 . S
O51 Gd11 2.468 . S
O51 C75 1.263 . S
O52 Gd11 2.427 . S
O52 C75 1.252 . S
O53 Gd10 2.307 . S
O53 C68 1.261 . S
O54 Gd11 2.388 . S
O54 C68 1.252 . S
C55 O43 1.265 . S
C55 O44 1.242 . S
C56 O47 1.261 . S
C56 O48 1.252 . S
C57 C60 1.394 . S
C57 C62 1.370 . S
C57 C63 1.500 . S
C58 C61 1.383 . S
C58 C62 1.395 . S
C59 C60 1.396 . S
C59 C61 1.365 . S
C59 H76 0.929 . S
C60 C57 1.394 . S
C60 C59 1.396 . S
C60 H77 0.930 . S
C61 C58 1.383 . S
C61 C59 1.365 . S
C61 H78 0.931 . S
C62 C57 1.370 . S
C62 C58 1.395 . S
C62 H79 0.930 . S
C63 Gd10 2.805 1_556 S
C63 O45 1.263 . S
C63 O46 1.252 . S
C63 C57 1.500 . S
C64 H26 0.930 . S
C64 C40 1.417 . S
C64 C65 1.329 . S
C65 C35 1.437 . S
C65 H36 0.929 . S
C65 C64 1.329 . S
H66 C39 0.931 . S
C67 O49 1.265 . S
C67 O50 1.242 . S
C68 O53 1.261 . S
C68 O54 1.252 . S
C69 C72 1.394 . S
C69 C74 1.370 . S
C69 C75 1.500 . S
C70 C73 1.383 . S
C70 C74 1.395 . S
C71 C72 1.396 . S
C71 C73 1.365 . S
C71 H80 0.929 . S
C72 C69 1.394 . S
C72 C71 1.396 . S
C72 H81 0.930 . S
C73 C70 1.383 . S
C73 C71 1.365 . S
C73 H82 0.931 . S
C74 C69 1.370 . S
C74 C70 1.395 . S
C74 H83 0.930 . S
C75 Gd11 2.805 . S
C75 O51 1.263 . S
C75 O52 1.252 . S
C75 C69 1.500 . S
H76 C59 0.929 . S
H77 C60 0.930 . S
H78 C61 0.931 . S
H79 C62 0.930 . S
H80 C71 0.929 . S
H81 C72 0.930 . S
H82 C73 0.931 . S
H83 C74 0.930 . S
C84 C86 1.422 . S
C84 C88 1.415 . S
C84 N90 1.369 . S
C85 C86 1.421 . S
C85 C87 1.417 . S
C85 C97 1.422 . S
C86 C84 1.422 . S
C86 C85 1.421 . S
C86 N96 1.359 . S
C87 C85 1.417 . S
C87 C89 1.329 . S
C87 H106 0.930 . S
C88 C84 1.415 . S
C88 C89 1.437 . S
C88 C92 1.413 . S
C89 C87 1.329 . S
C89 C88 1.437 . S
C89 H111 0.929 . S
N90 C84 1.369 . S
N90 C91 1.338 . S
N90 Gd95 2.622 . S
C91 N90 1.338 . S
C91 C93 1.378 1_455 S
C91 H103 0.929 . S
C92 C88 1.413 . S
C92 C93 1.348 1_455 S
C92 H108 0.931 1_455 S
C93 C91 1.378 1_655 S
C93 C92 1.348 1_655 S
C93 H109 0.930 . S
Gd94 N114 2.622 . S
Gd94 N121 2.570 . S
Gd94 O128 2.353 . S
Gd94 O129 2.468 . S
Gd94 O130 2.427 . S
Gd94 O132 2.388 . S
Gd94 O133 2.386 . S
Gd94 O137 2.307 . S
Gd94 C147 2.805 . S
Gd95 N90 2.622 . S
Gd95 N96 2.570 . S
Gd95 O127 2.386 . S
Gd95 O131 2.307 . S
Gd95 O134 2.353 . S
Gd95 O135 2.468 1_556 S
Gd95 O136 2.427 1_556 S
Gd95 O138 2.388 . S
Gd95 C159 2.805 1_556 S
N96 C86 1.359 . S
N96 Gd95 2.570 . S
N96 C98 1.343 . S
C97 C85 1.422 . S
C97 C99 1.321 . S
C97 H105 0.931 . S
C98 N96 1.343 . S
C98 C99 1.390 . S
C98 H100 0.931 . S
C99 C97 1.321 . S
C99 C98 1.390 . S
C99 H101 0.930 . S
H100 C98 0.931 . S
H101 C99 0.930 . S
H102 C125 0.931 . S
H103 C91 0.929 . S
H104 C126 0.930 . S
H105 C97 0.931 . S
H106 C87 0.930 . S
H107 C116 0.929 . S
H108 C92 0.931 1_655 S
H109 C93 0.930 . S
H110 C148 0.930 . S
H111 C89 0.929 . S
H112 C117 0.931 . S
H113 C118 0.930 . S
N114 Gd94 2.622 . S
N114 C115 1.369 . S
N114 C116 1.338 . S
C115 N114 1.369 . S
C115 C119 1.415 . S
C115 C122 1.422 . S
C116 H107 0.929 . S
C116 N114 1.338 . S
C116 C118 1.378 . S
C117 H112 0.931 . S
C117 C118 1.348 . S
C117 C119 1.413 . S
C118 H113 0.930 . S
C118 C116 1.378 . S
C118 C117 1.348 . S
C119 C115 1.415 . S
C119 C117 1.413 . S
C119 C149 1.437 . S
H120 C149 0.929 . S
N121 Gd94 2.570 . S
N121 C122 1.359 . S
N121 C125 1.343 . S
C122 C115 1.422 . S
C122 N121 1.359 . S
C122 C124 1.421 . S
C123 C124 1.422 . S
C123 C126 1.321 . S
C123 H150 0.931 . S
C124 C122 1.421 . S
C124 C123 1.422 . S
C124 C148 1.417 . S
C125 H102 0.931 . S
C125 N121 1.343 . S
C125 C126 1.390 . S
C126 H104 0.930 . S
C126 C123 1.321 . S
C126 C125 1.390 . S
O127 Gd95 2.386 . S
O127 C139 1.265 . S
O128 Gd94 2.353 . S
O128 C139 1.242 . S
O129 Gd94 2.468 . S
O129 C147 1.263 . S
O130 Gd94 2.427 . S
O130 C147 1.252 . S
O131 Gd95 2.307 . S
O131 C140 1.261 . S
O132 Gd94 2.388 . S
O132 C140 1.252 . S
O133 Gd94 2.386 . S
O133 C151 1.265 . S
O134 Gd95 2.353 . S
O134 C151 1.242 . S
O135 Gd95 2.468 1_554 S
O135 C159 1.263 . S
O136 Gd95 2.427 1_554 S
O136 C159 1.252 . S
O137 Gd94 2.307 . S
O137 C152 1.261 . S
O138 Gd95 2.388 . S
O138 C152 1.252 . S
C139 O127 1.265 . S
C139 O128 1.242 . S
C140 O131 1.261 . S
C140 O132 1.252 . S
C141 C144 1.394 . S
C141 C146 1.370 . S
C141 C147 1.500 . S
C142 C145 1.383 . S
C142 C146 1.395 . S
C143 C144 1.396 . S
C143 C145 1.365 . S
C143 H160 0.929 . S
C144 C141 1.394 . S
C144 C143 1.396 . S
C144 H161 0.930 . S
C145 C142 1.383 . S
C145 C143 1.365 . S
C145 H162 0.931 . S
C146 C141 1.370 . S
C146 C142 1.395 . S
C146 H163 0.930 . S
C147 Gd94 2.805 . S
C147 O129 1.263 . S
C147 O130 1.252 . S
C147 C141 1.500 . S
C148 H110 0.930 . S
C148 C124 1.417 . S
C148 C149 1.329 . S
C149 C119 1.437 . S
C149 H120 0.929 . S
C149 C148 1.329 . S
H150 C123 0.931 . S
C151 O133 1.265 . S
C151 O134 1.242 . S
C152 O137 1.261 . S
C152 O138 1.252 . S
C153 C156 1.394 . S
C153 C158 1.370 . S
C153 C159 1.500 . S
C154 C157 1.383 . S
C154 C158 1.395 . S
C155 C156 1.396 . S
C155 C157 1.365 . S
C155 H164 0.929 . S
C156 C153 1.394 . S
C156 C155 1.396 . S
C156 H165 0.930 . S
C157 C154 1.383 . S
C157 C155 1.365 . S
C157 H166 0.931 . S
C158 C153 1.370 . S
C158 C154 1.395 . S
C158 H167 0.930 . S
C159 Gd95 2.805 1_554 S
C159 O135 1.263 . S
C159 O136 1.252 . S
C159 C153 1.500 . S
H160 C143 0.929 . S
H161 C144 0.930 . S
H162 C145 0.931 . S
H163 C146 0.930 . S
H164 C155 0.929 . S
H165 C156 0.930 . S
H166 C157 0.931 . S
H167 C158 0.930 . S
C168 C170 1.422 . S
C168 C172 1.415 . S
C168 N174 1.369 . S
C169 C170 1.421 . S
C169 C171 1.417 . S
C169 C181 1.422 . S
C170 C168 1.422 . S
C170 C169 1.421 . S
C170 N180 1.359 . S
C171 C169 1.417 . S
C171 C173 1.329 . S
C171 H190 0.930 . S
C172 C168 1.415 . S
C172 C173 1.437 . S
C172 C176 1.413 . S
C173 C171 1.329 . S
C173 C172 1.437 . S
C173 H195 0.929 . S
N174 C168 1.369 . S
N174 C175 1.338 . S
N174 Gd179 2.622 . S
C175 N174 1.338 . S
C175 C177 1.378 . S
C175 H187 0.929 . S
C176 C172 1.413 . S
C176 C177 1.348 . S
C176 H192 0.931 . S
C177 C175 1.378 . S
C177 C176 1.348 . S
C177 H193 0.930 . S
Gd178 N198 2.622 . S
Gd178 N205 2.570 . S
Gd178 O212 2.353 . S
Gd178 O213 2.468 1_554 S
Gd178 O214 2.427 1_554 S
Gd178 O216 2.388 . S
Gd178 O217 2.386 . S
Gd178 O221 2.307 . S
Gd178 C231 2.805 1_554 S
Gd179 N174 2.622 . S
Gd179 N180 2.570 . S
Gd179 O211 2.386 . S
Gd179 O215 2.307 . S
Gd179 O218 2.353 . S
Gd179 O219 2.468 . S
Gd179 O220 2.427 . S
Gd179 O222 2.388 . S
Gd179 C243 2.805 . S
N180 C170 1.359 . S
N180 Gd179 2.570 . S
N180 C182 1.343 . S
C181 C169 1.422 . S
C181 C183 1.321 . S
C181 H189 0.931 . S
C182 N180 1.343 . S
C182 C183 1.390 . S
C182 H184 0.931 . S
C183 C181 1.321 . S
C183 C182 1.390 . S
C183 H185 0.930 . S
H184 C182 0.931 . S
H185 C183 0.930 . S
H186 C209 0.931 . S
H187 C175 0.929 . S
H188 C210 0.930 . S
H189 C181 0.931 . S
H190 C171 0.930 . S
H191 C200 0.929 . S
H192 C176 0.931 . S
H193 C177 0.930 . S
H194 C232 0.930 . S
H195 C173 0.929 . S
H196 C201 0.931 1_545 S
H197 C202 0.930 . S
N198 Gd178 2.622 . S
N198 C199 1.369 . S
N198 C200 1.338 . S
C199 N198 1.369 . S
C199 C203 1.415 . S
C199 C206 1.422 . S
C200 H191 0.929 . S
C200 N198 1.338 . S
C200 C202 1.378 1_565 S
C201 H196 0.931 1_565 S
C201 C202 1.348 1_565 S
C201 C203 1.413 . S
C202 H197 0.930 . S
C202 C200 1.378 1_545 S
C202 C201 1.348 1_545 S
C203 C199 1.415 . S
C203 C201 1.413 . S
C203 C233 1.437 . S
H204 C233 0.929 . S
N205 Gd178 2.570 . S
N205 C206 1.359 . S
N205 C209 1.343 . S
C206 C199 1.422 . S
C206 N205 1.359 . S
C206 C208 1.421 . S
C207 C208 1.422 . S
C207 C210 1.321 . S
C207 H234 0.931 . S
C208 C206 1.421 . S
C208 C207 1.422 . S
C208 C232 1.417 . S
C209 H186 0.931 . S
C209 N205 1.343 . S
C209 C210 1.390 . S
C210 H188 0.930 . S
C210 C207 1.321 . S
C210 C209 1.390 . S
O211 Gd179 2.386 . S
O211 C223 1.265 . S
O212 Gd178 2.353 . S
O212 C223 1.242 . S
O213 Gd178 2.468 1_556 S
O213 C231 1.263 . S
O214 Gd178 2.427 1_556 S
O214 C231 1.252 . S
O215 Gd179 2.307 . S
O215 C224 1.261 . S
O216 Gd178 2.388 . S
O216 C224 1.252 . S
O217 Gd178 2.386 . S
O217 C235 1.265 . S
O218 Gd179 2.353 . S
O218 C235 1.242 . S
O219 Gd179 2.468 . S
O219 C243 1.263 . S
O220 Gd179 2.427 . S
O220 C243 1.252 . S
O221 Gd178 2.307 . S
O221 C236 1.261 . S
O222 Gd179 2.388 . S
O222 C236 1.252 . S
C223 O211 1.265 . S
C223 O212 1.242 . S
C224 O215 1.261 . S
C224 O216 1.252 . S
C225 C228 1.394 . S
C225 C230 1.370 . S
C225 C231 1.500 . S
C226 C229 1.383 . S
C226 C230 1.395 . S
C227 C228 1.396 . S
C227 C229 1.365 . S
C227 H244 0.929 . S
C228 C225 1.394 . S
C228 C227 1.396 . S
C228 H245 0.930 . S
C229 C226 1.383 . S
C229 C227 1.365 . S
C229 H246 0.931 . S
C230 C225 1.370 . S
C230 C226 1.395 . S
C230 H247 0.930 . S
C231 Gd178 2.805 1_556 S
C231 O213 1.263 . S
C231 O214 1.252 . S
C231 C225 1.500 . S
C232 H194 0.930 . S
C232 C208 1.417 . S
C232 C233 1.329 . S
C233 C203 1.437 . S
C233 H204 0.929 . S
C233 C232 1.329 . S
H234 C207 0.931 . S
C235 O217 1.265 . S
C235 O218 1.242 . S
C236 O221 1.261 . S
C236 O222 1.252 . S
C237 C240 1.394 . S
C237 C242 1.370 . S
C237 C243 1.500 . S
C238 C241 1.383 . S
C238 C242 1.395 . S
C239 C240 1.396 . S
C239 C241 1.365 . S
C239 H248 0.929 . S
C240 C237 1.394 . S
C240 C239 1.396 . S
C240 H249 0.930 . S
C241 C238 1.383 . S
C241 C239 1.365 . S
C241 H250 0.931 . S
C242 C237 1.370 . S
C242 C238 1.395 . S
C242 H251 0.930 . S
C243 Gd179 2.805 . S
C243 O219 1.263 . S
C243 O220 1.252 . S
C243 C237 1.500 . S
H244 C227 0.929 . S
H245 C228 0.930 . S
H246 C229 0.931 . S
H247 C230 0.930 . S
H248 C239 0.929 . S
H249 C240 0.930 . S
H250 C241 0.931 . S
H251 C242 0.930 . S
C252 C254 1.422 . S
C252 C256 1.415 . S
C252 N258 1.369 . S
C253 C254 1.421 . S
C253 C255 1.417 . S
C253 C265 1.422 . S
C254 C252 1.422 . S
C254 C253 1.421 . S
C254 N264 1.359 . S
C255 C253 1.417 . S
C255 C257 1.329 . S
C255 H274 0.930 . S
C256 C252 1.415 . S
C256 C257 1.437 . S
C256 C260 1.413 . S
C257 C255 1.329 . S
C257 C256 1.437 . S
C257 H279 0.929 . S
N258 C252 1.369 . S
N258 C259 1.338 . S
N258 Gd263 2.622 . S
C259 N258 1.338 . S
C259 C261 1.378 1_655 S
C259 H271 0.929 . S
C260 C256 1.413 . S
C260 C261 1.348 1_655 S
C260 H276 0.931 1_655 S
C261 C259 1.378 1_455 S
C261 C260 1.348 1_455 S
C261 H277 0.930 . S
Gd262 N282 2.622 . S
Gd262 N289 2.570 . S
Gd262 O296 2.353 . S
Gd262 O297 2.468 . S
Gd262 O298 2.427 . S
Gd262 O300 2.388 . S
Gd262 O301 2.386 . S
Gd262 O305 2.307 . S
Gd262 C315 2.805 . S
Gd263 N258 2.622 . S
Gd263 N264 2.570 . S
Gd263 O295 2.386 . S
Gd263 O299 2.307 . S
Gd263 O302 2.353 . S
Gd263 O303 2.468 1_556 S
Gd263 O304 2.427 1_556 S
Gd263 O306 2.388 . S
Gd263 C327 2.805 1_556 S
N264 C254 1.359 . S
N264 Gd263 2.570 . S
N264 C266 1.343 . S
C265 C253 1.422 . S
C265 C267 1.321 . S
C265 H273 0.931 . S
C266 N264 1.343 . S
C266 C267 1.390 . S
C266 H268 0.931 . S
C267 C265 1.321 . S
C267 C266 1.390 . S
C267 H269 0.930 . S
H268 C266 0.931 . S
H269 C267 0.930 . S
H270 C293 0.931 . S
H271 C259 0.929 . S
H272 C294 0.930 . S
H273 C265 0.931 . S
H274 C255 0.930 . S
H275 C284 0.929 . S
H276 C260 0.931 1_455 S
H277 C261 0.930 . S
H278 C316 0.930 . S
H279 C257 0.929 . S
H280 C285 0.931 . S
H281 C286 0.930 . S
N282 Gd262 2.622 . S
N282 C283 1.369 . S
N282 C284 1.338 . S
C283 N282 1.369 . S
C283 C287 1.415 . S
C283 C290 1.422 . S
C284 H275 0.929 . S
C284 N282 1.338 . S
C284 C286 1.378 . S
C285 H280 0.931 . S
C285 C286 1.348 . S
C285 C287 1.413 . S
C286 H281 0.930 . S
C286 C284 1.378 . S
C286 C285 1.348 . S
C287 C283 1.415 . S
C287 C285 1.413 . S
C287 C317 1.437 . S
H288 C317 0.929 . S
N289 Gd262 2.570 . S
N289 C290 1.359 . S
N289 C293 1.343 . S
C290 C283 1.422 . S
C290 N289 1.359 . S
C290 C292 1.421 . S
C291 C292 1.422 . S
C291 C294 1.321 . S
C291 H318 0.931 . S
C292 C290 1.421 . S
C292 C291 1.422 . S
C292 C316 1.417 . S
C293 H270 0.931 . S
C293 N289 1.343 . S
C293 C294 1.390 . S
C294 H272 0.930 . S
C294 C291 1.321 . S
C294 C293 1.390 . S
O295 Gd263 2.386 . S
O295 C307 1.265 . S
O296 Gd262 2.353 . S
O296 C307 1.242 . S
O297 Gd262 2.468 . S
O297 C315 1.263 . S
O298 Gd262 2.427 . S
O298 C315 1.252 . S
O299 Gd263 2.307 . S
O299 C308 1.261 . S
O300 Gd262 2.388 . S
O300 C308 1.252 . S
O301 Gd262 2.386 . S
O301 C319 1.265 . S
O302 Gd263 2.353 . S
O302 C319 1.242 . S
O303 Gd263 2.468 1_554 S
O303 C327 1.263 . S
O304 Gd263 2.427 1_554 S
O304 C327 1.252 . S
O305 Gd262 2.307 . S
O305 C320 1.261 . S
O306 Gd263 2.388 . S
O306 C320 1.252 . S
C307 O295 1.265 . S
C307 O296 1.242 . S
C308 O299 1.261 . S
C308 O300 1.252 . S
C309 C312 1.394 . S
C309 C314 1.370 . S
C309 C315 1.500 . S
C310 C313 1.383 . S
C310 C314 1.395 . S
C311 C312 1.396 . S
C311 C313 1.365 . S
C311 H328 0.929 . S
C312 C309 1.394 . S
C312 C311 1.396 . S
C312 H329 0.930 . S
C313 C310 1.383 . S
C313 C311 1.365 . S
C313 H330 0.931 . S
C314 C309 1.370 . S
C314 C310 1.395 . S
C314 H331 0.930 . S
C315 Gd262 2.805 . S
C315 O297 1.263 . S
C315 O298 1.252 . S
C315 C309 1.500 . S
C316 H278 0.930 . S
C316 C292 1.417 . S
C316 C317 1.329 . S
C317 C287 1.437 . S
C317 H288 0.929 . S
C317 C316 1.329 . S
H318 C291 0.931 . S
C319 O301 1.265 . S
C319 O302 1.242 . S
C320 O305 1.261 . S
C320 O306 1.252 . S
C321 C324 1.394 . S
C321 C326 1.370 . S
C321 C327 1.500 . S
C322 C325 1.383 . S
C322 C326 1.395 . S
C323 C324 1.396 . S
C323 C325 1.365 . S
C323 H332 0.929 . S
C324 C321 1.394 . S
C324 C323 1.396 . S
C324 H333 0.930 . S
C325 C322 1.383 . S
C325 C323 1.365 . S
C325 H334 0.931 . S
C326 C321 1.370 . S
C326 C322 1.395 . S
C326 H335 0.930 . S
C327 Gd263 2.805 1_554 S
C327 O303 1.263 . S
C327 O304 1.252 . S
C327 C321 1.500 . S
H328 C311 0.929 . S
H329 C312 0.930 . S
H330 C313 0.931 . S
H331 C314 0.930 . S
H332 C323 0.929 . S
H333 C324 0.930 . S
H334 C325 0.931 . S
H335 C326 0.930 . S
C336 C338 1.422 . S
C336 C340 1.415 . S
C336 N342 1.369 . S
C337 C338 1.421 . S
C337 C339 1.417 . S
C337 C349 1.422 . S
C338 C336 1.422 . S
C338 C337 1.421 . S
C338 N348 1.359 . S
C339 C337 1.417 . S
C339 C341 1.329 . S
C339 H358 0.930 . S
C340 C336 1.415 . S
C340 C341 1.437 . S
C340 C344 1.413 . S
C341 C339 1.329 . S
C341 C340 1.437 . S
C341 H363 0.929 . S
N342 C336 1.369 . S
N342 C343 1.338 . S
N342 Gd347 2.622 . S
C343 N342 1.338 . S
C343 C345 1.378 . S
C343 H355 0.929 . S
C344 C340 1.413 . S
C344 C345 1.348 . S
C344 H360 0.931 . S
C345 C343 1.378 . S
C345 C344 1.348 . S
C345 H361 0.930 . S
Gd346 N366 2.622 . S
Gd346 N373 2.570 . S
Gd346 O380 2.353 . S
Gd346 O381 2.468 . S
Gd346 O382 2.427 . S
Gd346 O384 2.388 . S
Gd346 O385 2.386 . S
Gd346 O389 2.307 . S
Gd346 C399 2.805 . S
Gd347 N342 2.622 . S
Gd347 N348 2.570 . S
Gd347 O379 2.386 . S
Gd347 O383 2.307 . S
Gd347 O386 2.353 . S
Gd347 O387 2.468 1_554 S
Gd347 O388 2.427 1_554 S
Gd347 O390 2.388 . S
Gd347 C411 2.805 1_554 S
N348 C338 1.359 . S
N348 Gd347 2.570 . S
N348 C350 1.343 . S
C349 C337 1.422 . S
C349 C351 1.321 . S
C349 H357 0.931 . S
C350 N348 1.343 . S
C350 C351 1.390 . S
C350 H352 0.931 . S
C351 C349 1.321 . S
C351 C350 1.390 . S
C351 H353 0.930 . S
H352 C350 0.931 . S
H353 C351 0.930 . S
H354 C377 0.931 . S
H355 C343 0.929 . S
H356 C378 0.930 . S
H357 C349 0.931 . S
H358 C339 0.930 . S
H359 C368 0.929 . S
H360 C344 0.931 . S
H361 C345 0.930 . S
H362 C400 0.930 . S
H363 C341 0.929 . S
H364 C369 0.931 . S
H365 C370 0.930 . S
N366 Gd346 2.622 . S
N366 C367 1.369 . S
N366 C368 1.338 . S
C367 N366 1.369 . S
C367 C371 1.415 . S
C367 C374 1.422 . S
C368 H359 0.929 . S
C368 N366 1.338 . S
C368 C370 1.378 . S
C369 H364 0.931 . S
C369 C370 1.348 . S
C369 C371 1.413 . S
C370 H365 0.930 . S
C370 C368 1.378 . S
C370 C369 1.348 . S
C371 C367 1.415 . S
C371 C369 1.413 . S
C371 C401 1.437 . S
H372 C401 0.929 . S
N373 Gd346 2.570 . S
N373 C374 1.359 . S
N373 C377 1.343 . S
C374 C367 1.422 . S
C374 N373 1.359 . S
C374 C376 1.421 . S
C375 C376 1.422 . S
C375 C378 1.321 . S
C375 H402 0.931 . S
C376 C374 1.421 . S
C376 C375 1.422 . S
C376 C400 1.417 . S
C377 H354 0.931 . S
C377 N373 1.343 . S
C377 C378 1.390 . S
C378 H356 0.930 . S
C378 C375 1.321 . S
C378 C377 1.390 . S
O379 Gd347 2.386 . S
O379 C391 1.265 . S
O380 Gd346 2.353 . S
O380 C391 1.242 . S
O381 Gd346 2.468 . S
O381 C399 1.263 . S
O382 Gd346 2.427 . S
O382 C399 1.252 . S
O383 Gd347 2.307 . S
O383 C392 1.261 . S
O384 Gd346 2.388 . S
O384 C392 1.252 . S
O385 Gd346 2.386 . S
O385 C403 1.265 . S
O386 Gd347 2.353 . S
O386 C403 1.242 . S
O387 Gd347 2.468 1_556 S
O387 C411 1.263 . S
O388 Gd347 2.427 1_556 S
O388 C411 1.252 . S
O389 Gd346 2.307 . S
O389 C404 1.261 . S
O390 Gd347 2.388 . S
O390 C404 1.252 . S
C391 O379 1.265 . S
C391 O380 1.242 . S
C392 O383 1.261 . S
C392 O384 1.252 . S
C393 C396 1.394 . S
C393 C398 1.370 . S
C393 C399 1.500 . S
C394 C397 1.383 . S
C394 C398 1.395 . S
C395 C396 1.396 . S
C395 C397 1.365 . S
C395 H412 0.929 . S
C396 C393 1.394 . S
C396 C395 1.396 . S
C396 H413 0.930 . S
C397 C394 1.383 . S
C397 C395 1.365 . S
C397 H414 0.931 . S
C398 C393 1.370 . S
C398 C394 1.395 . S
C398 H415 0.930 . S
C399 Gd346 2.805 . S
C399 O381 1.263 . S
C399 O382 1.252 . S
C399 C393 1.500 . S
C400 H362 0.930 . S
C400 C376 1.417 . S
C400 C401 1.329 . S
C401 C371 1.437 . S
C401 H372 0.929 . S
C401 C400 1.329 . S
H402 C375 0.931 . S
C403 O385 1.265 . S
C403 O386 1.242 . S
C404 O389 1.261 . S
C404 O390 1.252 . S
C405 C408 1.394 . S
C405 C410 1.370 . S
C405 C411 1.500 . S
C406 C409 1.383 . S
C406 C410 1.395 . S
C407 C408 1.396 . S
C407 C409 1.365 . S
C407 H416 0.929 . S
C408 C405 1.394 . S
C408 C407 1.396 . S
C408 H417 0.930 . S
C409 C406 1.383 . S
C409 C407 1.365 . S
C409 H418 0.931 . S
C410 C405 1.370 . S
C410 C406 1.395 . S
C410 H419 0.930 . S
C411 Gd347 2.805 1_556 S
C411 O387 1.263 . S
C411 O388 1.252 . S
C411 C405 1.500 . S
H412 C395 0.929 . S
H413 C396 0.930 . S
H414 C397 0.931 . S
H415 C398 0.930 . S
H416 C407 0.929 . S
H417 C408 0.930 . S
H418 C409 0.931 . S
H419 C410 0.930 . S
C420 C422 1.422 . S
C420 C424 1.415 . S
C420 N426 1.369 . S
C421 C422 1.421 . S
C421 C423 1.417 . S
C421 C433 1.422 . S
C422 C420 1.422 . S
C422 C421 1.421 . S
C422 N432 1.359 . S
C423 C421 1.417 . S
C423 C425 1.329 . S
C423 H442 0.930 . S
C424 C420 1.415 . S
C424 C425 1.437 . S
C424 C428 1.413 . S
C425 C423 1.329 . S
C425 C424 1.437 . S
C425 H447 0.929 . S
N426 C420 1.369 . S
N426 C427 1.338 . S
N426 Gd431 2.622 . S
C427 N426 1.338 . S
C427 C429 1.378 . S
C427 H439 0.929 . S
C428 C424 1.413 . S
C428 C429 1.348 . S
C428 H444 0.931 . S
C429 C427 1.378 . S
C429 C428 1.348 . S
C429 H445 0.930 . S
Gd430 N450 2.622 . S
Gd430 N457 2.570 . S
Gd430 O464 2.353 . S
Gd430 O465 2.468 1_556 S
Gd430 O466 2.427 1_556 S
Gd430 O468 2.388 . S
Gd430 O469 2.386 . S
Gd430 O473 2.307 . S
Gd430 C483 2.805 1_556 S
Gd431 N426 2.622 . S
Gd431 N432 2.570 . S
Gd431 O463 2.386 . S
Gd431 O467 2.307 . S
Gd431 O470 2.353 . S
Gd431 O471 2.468 . S
Gd431 O472 2.427 . S
Gd431 O474 2.388 . S
Gd431 C495 2.805 . S
N432 C422 1.359 . S
N432 Gd431 2.570 . S
N432 C434 1.343 . S
C433 C421 1.422 . S
C433 C435 1.321 . S
C433 H441 0.931 . S
C434 N432 1.343 . S
C434 C435 1.390 . S
C434 H436 0.931 . S
C435 C433 1.321 . S
C435 C434 1.390 . S
C435 H437 0.930 . S
H436 C434 0.931 . S
H437 C435 0.930 . S
H438 C461 0.931 . S
H439 C427 0.929 . S
H440 C462 0.930 . S
H441 C433 0.931 . S
H442 C423 0.930 . S
H443 C452 0.929 . S
H444 C428 0.931 . S
H445 C429 0.930 . S
H446 C484 0.930 . S
H447 C425 0.929 . S
H448 C453 0.931 . S
H449 C454 0.930 . S
N450 Gd430 2.622 . S
N450 C451 1.369 . S
N450 C452 1.338 . S
C451 N450 1.369 . S
C451 C455 1.415 . S
C451 C458 1.422 . S
C452 H443 0.929 . S
C452 N450 1.338 . S
C452 C454 1.378 . S
C453 H448 0.931 . S
C453 C454 1.348 . S
C453 C455 1.413 . S
C454 H449 0.930 . S
C454 C452 1.378 . S
C454 C453 1.348 . S
C455 C451 1.415 . S
C455 C453 1.413 . S
C455 C485 1.437 . S
H456 C485 0.929 . S
N457 Gd430 2.570 . S
N457 C458 1.359 . S
N457 C461 1.343 . S
C458 C451 1.422 . S
C458 N457 1.359 . S
C458 C460 1.421 . S
C459 C460 1.422 . S
C459 C462 1.321 . S
C459 H486 0.931 . S
C460 C458 1.421 . S
C460 C459 1.422 . S
C460 C484 1.417 . S
C461 H438 0.931 . S
C461 N457 1.343 . S
C461 C462 1.390 . S
C462 H440 0.930 . S
C462 C459 1.321 . S
C462 C461 1.390 . S
O463 Gd431 2.386 . S
O463 C475 1.265 . S
O464 Gd430 2.353 . S
O464 C475 1.242 . S
O465 Gd430 2.468 1_554 S
O465 C483 1.263 . S
O466 Gd430 2.427 1_554 S
O466 C483 1.252 . S
O467 Gd431 2.307 . S
O467 C476 1.261 . S
O468 Gd430 2.388 . S
O468 C476 1.252 . S
O469 Gd430 2.386 . S
O469 C487 1.265 . S
O470 Gd431 2.353 . S
O470 C487 1.242 . S
O471 Gd431 2.468 . S
O471 C495 1.263 . S
O472 Gd431 2.427 . S
O472 C495 1.252 . S
O473 Gd430 2.307 . S
O473 C488 1.261 . S
O474 Gd431 2.388 . S
O474 C488 1.252 . S
C475 O463 1.265 . S
C475 O464 1.242 . S
C476 O467 1.261 . S
C476 O468 1.252 . S
C477 C480 1.394 . S
C477 C482 1.370 . S
C477 C483 1.500 . S
C478 C481 1.383 . S
C478 C482 1.395 . S
C479 C480 1.396 . S
C479 C481 1.365 . S
C479 H496 0.929 . S
C480 C477 1.394 . S
C480 C479 1.396 . S
C480 H497 0.930 . S
C481 C478 1.383 . S
C481 C479 1.365 . S
C481 H498 0.931 . S
C482 C477 1.370 . S
C482 C478 1.395 . S
C482 H499 0.930 . S
C483 Gd430 2.805 1_554 S
C483 O465 1.263 . S
C483 O466 1.252 . S
C483 C477 1.500 . S
C484 H446 0.930 . S
C484 C460 1.417 . S
C484 C485 1.329 . S
C485 C455 1.437 . S
C485 H456 0.929 . S
C485 C484 1.329 . S
H486 C459 0.931 . S
C487 O469 1.265 . S
C487 O470 1.242 . S
C488 O473 1.261 . S
C488 O474 1.252 . S
C489 C492 1.394 . S
C489 C494 1.370 . S
C489 C495 1.500 . S
C490 C493 1.383 . S
C490 C494 1.395 . S
C491 C492 1.396 . S
C491 C493 1.365 . S
C491 H500 0.929 . S
C492 C489 1.394 . S
C492 C491 1.396 . S
C492 H501 0.930 . S
C493 C490 1.383 . S
C493 C491 1.365 . S
C493 H502 0.931 . S
C494 C489 1.370 . S
C494 C490 1.395 . S
C494 H503 0.930 . S
C495 Gd431 2.805 . S
C495 O471 1.263 . S
C495 O472 1.252 . S
C495 C489 1.500 . S
H496 C479 0.929 . S
H497 C480 0.930 . S
H498 C481 0.931 . S
H499 C482 0.930 . S
H500 C491 0.929 . S
H501 C492 0.930 . S
H502 C493 0.931 . S
H503 C494 0.930 . S
C504 C506 1.422 . S
C504 C508 1.415 . S
C504 N510 1.369 . S
C505 C506 1.421 . S
C505 C507 1.417 . S
C505 C517 1.422 . S
C506 C504 1.422 . S
C506 C505 1.421 . S
C506 N516 1.359 . S
C507 C505 1.417 . S
C507 C509 1.329 . S
C507 H526 0.930 . S
C508 C504 1.415 . S
C508 C509 1.437 . S
C508 C512 1.413 . S
C509 C507 1.329 . S
C509 C508 1.437 . S
C509 H531 0.929 . S
N510 C504 1.369 . S
N510 C511 1.338 . S
N510 Gd515 2.622 . S
C511 N510 1.338 . S
C511 C513 1.378 . S
C511 H523 0.929 . S
C512 C508 1.413 . S
C512 C513 1.348 . S
C512 H528 0.931 . S
C513 C511 1.378 . S
C513 C512 1.348 . S
C513 H529 0.930 . S
Gd514 N534 2.622 . S
Gd514 N541 2.570 . S
Gd514 O548 2.353 . S
Gd514 O549 2.468 . S
Gd514 O550 2.427 . S
Gd514 O552 2.388 . S
Gd514 O553 2.386 . S
Gd514 O557 2.307 . S
Gd514 C567 2.805 . S
Gd515 N510 2.622 . S
Gd515 N516 2.570 . S
Gd515 O547 2.386 . S
Gd515 O551 2.307 . S
Gd515 O554 2.353 . S
Gd515 O555 2.468 1_554 S
Gd515 O556 2.427 1_554 S
Gd515 O558 2.388 . S
Gd515 C579 2.805 1_554 S
N516 C506 1.359 . S
N516 Gd515 2.570 . S
N516 C518 1.343 . S
C517 C505 1.422 . S
C517 C519 1.321 . S
C517 H525 0.931 . S
C518 N516 1.343 . S
C518 C519 1.390 . S
C518 H520 0.931 . S
C519 C517 1.321 . S
C519 C518 1.390 . S
C519 H521 0.930 . S
H520 C518 0.931 . S
H521 C519 0.930 . S
H522 C545 0.931 . S
H523 C511 0.929 . S
H524 C546 0.930 . S
H525 C517 0.931 . S
H526 C507 0.930 . S
H527 C536 0.929 . S
H528 C512 0.931 . S
H529 C513 0.930 . S
H530 C568 0.930 . S
H531 C509 0.929 . S
H532 C537 0.931 . S
H533 C538 0.930 . S
N534 Gd514 2.622 . S
N534 C535 1.369 . S
N534 C536 1.338 . S
C535 N534 1.369 . S
C535 C539 1.415 . S
C535 C542 1.422 . S
C536 H527 0.929 . S
C536 N534 1.338 . S
C536 C538 1.378 . S
C537 H532 0.931 . S
C537 C538 1.348 . S
C537 C539 1.413 . S
C538 H533 0.930 . S
C538 C536 1.378 . S
C538 C537 1.348 . S
C539 C535 1.415 . S
C539 C537 1.413 . S
C539 C569 1.437 . S
H540 C569 0.929 . S
N541 Gd514 2.570 . S
N541 C542 1.359 . S
N541 C545 1.343 . S
C542 C535 1.422 . S
C542 N541 1.359 . S
C542 C544 1.421 . S
C543 C544 1.422 . S
C543 C546 1.321 . S
C543 H570 0.931 . S
C544 C542 1.421 . S
C544 C543 1.422 . S
C544 C568 1.417 . S
C545 H522 0.931 . S
C545 N541 1.343 . S
C545 C546 1.390 . S
C546 H524 0.930 . S
C546 C543 1.321 . S
C546 C545 1.390 . S
O547 Gd515 2.386 . S
O547 C559 1.265 . S
O548 Gd514 2.353 . S
O548 C559 1.242 . S
O549 Gd514 2.468 . S
O549 C567 1.263 . S
O550 Gd514 2.427 . S
O550 C567 1.252 . S
O551 Gd515 2.307 . S
O551 C560 1.261 . S
O552 Gd514 2.388 . S
O552 C560 1.252 . S
O553 Gd514 2.386 . S
O553 C571 1.265 . S
O554 Gd515 2.353 . S
O554 C571 1.242 . S
O555 Gd515 2.468 1_556 S
O555 C579 1.263 . S
O556 Gd515 2.427 1_556 S
O556 C579 1.252 . S
O557 Gd514 2.307 . S
O557 C572 1.261 . S
O558 Gd515 2.388 . S
O558 C572 1.252 . S
C559 O547 1.265 . S
C559 O548 1.242 . S
C560 O551 1.261 . S
C560 O552 1.252 . S
C561 C564 1.394 . S
C561 C566 1.370 . S
C561 C567 1.500 . S
C562 C565 1.383 . S
C562 C566 1.395 . S
C563 C564 1.396 . S
C563 C565 1.365 . S
C563 H580 0.929 . S
C564 C561 1.394 . S
C564 C563 1.396 . S
C564 H581 0.930 . S
C565 C562 1.383 . S
C565 C563 1.365 . S
C565 H582 0.931 . S
C566 C561 1.370 . S
C566 C562 1.395 . S
C566 H583 0.930 . S
C567 Gd514 2.805 . S
C567 O549 1.263 . S
C567 O550 1.252 . S
C567 C561 1.500 . S
C568 H530 0.930 . S
C568 C544 1.417 . S
C568 C569 1.329 . S
C569 C539 1.437 . S
C569 H540 0.929 . S
C569 C568 1.329 . S
H570 C543 0.931 . S
C571 O553 1.265 . S
C571 O554 1.242 . S
C572 O557 1.261 . S
C572 O558 1.252 . S
C573 C576 1.394 . S
C573 C578 1.370 . S
C573 C579 1.500 . S
C574 C577 1.383 . S
C574 C578 1.395 . S
C575 C576 1.396 . S
C575 C577 1.365 . S
C575 H584 0.929 . S
C576 C573 1.394 . S
C576 C575 1.396 . S
C576 H585 0.930 . S
C577 C574 1.383 . S
C577 C575 1.365 . S
C577 H586 0.931 . S
C578 C573 1.370 . S
C578 C574 1.395 . S
C578 H587 0.930 . S
C579 Gd515 2.805 1_556 S
C579 O555 1.263 . S
C579 O556 1.252 . S
C579 C573 1.500 . S
H580 C563 0.929 . S
H581 C564 0.930 . S
H582 C565 0.931 . S
H583 C566 0.930 . S
H584 C575 0.929 . S
H585 C576 0.930 . S
H586 C577 0.931 . S
H587 C578 0.930 . S
C588 C590 1.422 . S
C588 C592 1.415 . S
C588 N594 1.369 . S
C589 C590 1.421 . S
C589 C591 1.417 . S
C589 C601 1.422 . S
C590 C588 1.422 . S
C590 C589 1.421 . S
C590 N600 1.359 . S
C591 C589 1.417 . S
C591 C593 1.329 . S
C591 H610 0.930 . S
C592 C588 1.415 . S
C592 C593 1.437 . S
C592 C596 1.413 . S
C593 C591 1.329 . S
C593 C592 1.437 . S
C593 H615 0.929 . S
N594 C588 1.369 . S
N594 C595 1.338 . S
N594 Gd599 2.622 . S
C595 N594 1.338 . S
C595 C597 1.378 . S
C595 H607 0.929 . S
C596 C592 1.413 . S
C596 C597 1.348 . S
C596 H612 0.931 . S
C597 C595 1.378 . S
C597 C596 1.348 . S
C597 H613 0.930 . S
Gd598 N618 2.622 . S
Gd598 N625 2.570 . S
Gd598 O632 2.353 . S
Gd598 O633 2.468 1_556 S
Gd598 O634 2.427 1_556 S
Gd598 O636 2.388 . S
Gd598 O637 2.386 . S
Gd598 O641 2.307 . S
Gd598 C651 2.805 1_556 S
Gd599 N594 2.622 . S
Gd599 N600 2.570 . S
Gd599 O631 2.386 . S
Gd599 O635 2.307 . S
Gd599 O638 2.353 . S
Gd599 O639 2.468 . S
Gd599 O640 2.427 . S
Gd599 O642 2.388 . S
Gd599 C663 2.805 . S
N600 C590 1.359 . S
N600 Gd599 2.570 . S
N600 C602 1.343 . S
C601 C589 1.422 . S
C601 C603 1.321 . S
C601 H609 0.931 . S
C602 N600 1.343 . S
C602 C603 1.390 . S
C602 H604 0.931 . S
C603 C601 1.321 . S
C603 C602 1.390 . S
C603 H605 0.930 . S
H604 C602 0.931 . S
H605 C603 0.930 . S
H606 C629 0.931 . S
H607 C595 0.929 . S
H608 C630 0.930 . S
H609 C601 0.931 . S
H610 C591 0.930 . S
H611 C620 0.929 . S
H612 C596 0.931 . S
H613 C597 0.930 . S
H614 C652 0.930 . S
H615 C593 0.929 . S
H616 C621 0.931 . S
H617 C622 0.930 . S
N618 Gd598 2.622 . S
N618 C619 1.369 . S
N618 C620 1.338 . S
C619 N618 1.369 . S
C619 C623 1.415 . S
C619 C626 1.422 . S
C620 H611 0.929 . S
C620 N618 1.338 . S
C620 C622 1.378 . S
C621 H616 0.931 . S
C621 C622 1.348 . S
C621 C623 1.413 . S
C622 H617 0.930 . S
C622 C620 1.378 . S
C622 C621 1.348 . S
C623 C619 1.415 . S
C623 C621 1.413 . S
C623 C653 1.437 . S
H624 C653 0.929 . S
N625 Gd598 2.570 . S
N625 C626 1.359 . S
N625 C629 1.343 . S
C626 C619 1.422 . S
C626 N625 1.359 . S
C626 C628 1.421 . S
C627 C628 1.422 . S
C627 C630 1.321 . S
C627 H654 0.931 . S
C628 C626 1.421 . S
C628 C627 1.422 . S
C628 C652 1.417 . S
C629 H606 0.931 . S
C629 N625 1.343 . S
C629 C630 1.390 . S
C630 H608 0.930 . S
C630 C627 1.321 . S
C630 C629 1.390 . S
O631 Gd599 2.386 . S
O631 C643 1.265 . S
O632 Gd598 2.353 . S
O632 C643 1.242 . S
O633 Gd598 2.468 1_554 S
O633 C651 1.263 . S
O634 Gd598 2.427 1_554 S
O634 C651 1.252 . S
O635 Gd599 2.307 . S
O635 C644 1.261 . S
O636 Gd598 2.388 . S
O636 C644 1.252 . S
O637 Gd598 2.386 . S
O637 C655 1.265 . S
O638 Gd599 2.353 . S
O638 C655 1.242 . S
O639 Gd599 2.468 . S
O639 C663 1.263 . S
O640 Gd599 2.427 . S
O640 C663 1.252 . S
O641 Gd598 2.307 . S
O641 C656 1.261 . S
O642 Gd599 2.388 . S
O642 C656 1.252 . S
C643 O631 1.265 . S
C643 O632 1.242 . S
C644 O635 1.261 . S
C644 O636 1.252 . S
C645 C648 1.394 . S
C645 C650 1.370 . S
C645 C651 1.500 . S
C646 C649 1.383 . S
C646 C650 1.395 . S
C647 C648 1.396 . S
C647 C649 1.365 . S
C647 H664 0.929 . S
C648 C645 1.394 . S
C648 C647 1.396 . S
C648 H665 0.930 . S
C649 C646 1.383 . S
C649 C647 1.365 . S
C649 H666 0.931 . S
C650 C645 1.370 . S
C650 C646 1.395 . S
C650 H667 0.930 . S
C651 Gd598 2.805 1_554 S
C651 O633 1.263 . S
C651 O634 1.252 . S
C651 C645 1.500 . S
C652 H614 0.930 . S
C652 C628 1.417 . S
C652 C653 1.329 . S
C653 C623 1.437 . S
C653 H624 0.929 . S
C653 C652 1.329 . S
H654 C627 0.931 . S
C655 O637 1.265 . S
C655 O638 1.242 . S
C656 O641 1.261 . S
C656 O642 1.252 . S
C657 C660 1.394 . S
C657 C662 1.370 . S
C657 C663 1.500 . S
C658 C661 1.383 . S
C658 C662 1.395 . S
C659 C660 1.396 . S
C659 C661 1.365 . S
C659 H668 0.929 . S
C660 C657 1.394 . S
C660 C659 1.396 . S
C660 H669 0.930 . S
C661 C658 1.383 . S
C661 C659 1.365 . S
C661 H670 0.931 . S
C662 C657 1.370 . S
C662 C658 1.395 . S
C662 H671 0.930 . S
C663 Gd599 2.805 . S
C663 O639 1.263 . S
C663 O640 1.252 . S
C663 C657 1.500 . S
H664 C647 0.929 . S
H665 C648 0.930 . S
H666 C649 0.931 . S
H667 C650 0.930 . S
H668 C659 0.929 . S
H669 C660 0.930 . S
H670 C661 0.931 . S
H671 C662 0.930 . S
C672 C674 1.422 . S
C672 C676 1.415 . S
C672 N678 1.369 . S
C673 C674 1.421 . S
C673 C675 1.417 . S
C673 C685 1.422 . S
C674 C672 1.422 . S
C674 C673 1.421 . S
C674 N684 1.359 . S
C675 C673 1.417 . S
C675 C677 1.329 . S
C675 H694 0.930 . S
C676 C672 1.415 . S
C676 C677 1.437 . S
C676 C680 1.413 . S
C677 C675 1.329 . S
C677 C676 1.437 . S
C677 H699 0.929 . S
N678 C672 1.369 . S
N678 C679 1.338 . S
N678 Gd683 2.622 . S
C679 N678 1.338 . S
C679 C681 1.378 . S
C679 H691 0.929 . S
C680 C676 1.413 . S
C680 C681 1.348 . S
C680 H696 0.931 . S
C681 C679 1.378 . S
C681 C680 1.348 . S
C681 H697 0.930 . S
Gd682 N702 2.622 . S
Gd682 N709 2.570 . S
Gd682 O716 2.353 . S
Gd682 O717 2.468 . S
Gd682 O718 2.427 . S
Gd682 O720 2.388 . S
Gd682 O721 2.386 . S
Gd682 O725 2.307 . S
Gd682 C735 2.805 . S
Gd683 N678 2.622 . S
Gd683 N684 2.570 . S
Gd683 O715 2.386 . S
Gd683 O719 2.307 . S
Gd683 O722 2.353 . S
Gd683 O723 2.468 . S
Gd683 O724 2.427 . S
Gd683 O726 2.388 . S
Gd683 C747 2.805 . S
N684 C674 1.359 . S
N684 Gd683 2.570 . S
N684 C686 1.343 . S
C685 C673 1.422 . S
C685 C687 1.321 . S
C685 H693 0.931 . S
C686 N684 1.343 . S
C686 C687 1.390 . S
C686 H688 0.931 . S
C687 C685 1.321 . S
C687 C686 1.390 . S
C687 H689 0.930 . S
H688 C686 0.931 . S
H689 C687 0.930 . S
H690 C713 0.931 . S
H691 C679 0.929 . S
H692 C714 0.930 . S
H693 C685 0.931 . S
H694 C675 0.930 . S
H695 C704 0.929 . S
H696 C680 0.931 . S
H697 C681 0.930 . S
H698 C736 0.930 . S
H699 C677 0.929 . S
H700 C705 0.931 1_455 S
H701 C706 0.930 . S
N702 Gd682 2.622 . S
N702 C703 1.369 . S
N702 C704 1.338 . S
C703 N702 1.369 . S
C703 C707 1.415 . S
C703 C710 1.422 . S
C704 H695 0.929 . S
C704 N702 1.338 . S
C704 C706 1.378 . S
C705 H700 0.931 1_655 S
C705 C706 1.348 . S
C705 C707 1.413 . S
C706 H701 0.930 . S
C706 C704 1.378 . S
C706 C705 1.348 . S
C707 C703 1.415 . S
C707 C705 1.413 . S
C707 C737 1.437 1_655 S
H708 C737 0.929 . S
N709 Gd682 2.570 . S
N709 C710 1.359 . S
N709 C713 1.343 . S
C710 C703 1.422 . S
C710 N709 1.359 . S
C710 C712 1.425 . S
C711 C712 1.422 1_455 S
C711 C714 1.306 1_455 S
C711 H738 0.946 . S
C712 C710 1.425 . S
C712 C711 1.422 1_655 S
C712 C736 1.414 1_655 S
C713 H690 0.931 . S
C713 N709 1.343 . S
C713 C714 1.390 . S
C714 H692 0.930 . S
C714 C711 1.306 1_655 S
C714 C713 1.390 . S
O715 Gd683 2.386 . S
O715 C727 1.265 . S
O716 Gd682 2.353 . S
O716 C727 1.242 . S
O717 Gd682 2.468 . S
O717 C735 1.263 . S
O718 Gd682 2.427 . S
O718 C735 1.252 . S
O719 Gd683 2.307 . S
O719 C728 1.261 . S
O720 Gd682 2.388 . S
O720 C728 1.252 . S
O721 Gd682 2.386 . S
O721 C739 1.265 . S
O722 Gd683 2.353 . S
O722 C739 1.242 . S
O723 Gd683 2.468 . S
O723 C747 1.263 . S
O724 Gd683 2.427 . S
O724 C747 1.252 . S
O725 Gd682 2.307 . S
O725 C740 1.261 . S
O726 Gd683 2.388 . S
O726 C740 1.252 . S
C727 O715 1.265 . S
C727 O716 1.242 . S
C728 O719 1.261 . S
C728 O720 1.252 . S
C729 C732 1.394 . S
C729 C734 1.370 . S
C729 C735 1.500 . S
C730 C733 1.383 . S
C730 C734 1.395 . S
C731 C732 1.396 . S
C731 C733 1.365 . S
C731 H748 0.929 . S
C732 C729 1.394 . S
C732 C731 1.396 . S
C732 H749 0.930 . S
C733 C730 1.383 . S
C733 C731 1.365 . S
C733 H750 0.931 . S
C734 C729 1.370 . S
C734 C730 1.395 . S
C734 H751 0.930 . S
C735 Gd682 2.805 . S
C735 O717 1.263 . S
C735 O718 1.252 . S
C735 C729 1.500 . S
C736 H698 0.930 . S
C736 C712 1.414 1_455 S
C736 C737 1.329 . S
C737 C707 1.437 1_455 S
C737 H708 0.929 . S
C737 C736 1.329 . S
H738 C711 0.946 . S
C739 O721 1.265 . S
C739 O722 1.242 . S
C740 O725 1.261 . S
C740 O726 1.252 . S
C741 C744 1.394 . S
C741 C746 1.370 . S
C741 C747 1.500 . S
C742 C745 1.383 . S
C742 C746 1.395 1_554 S
C743 C744 1.396 1_554 S
C743 C745 1.365 . S
C743 H752 0.929 . S
C744 C741 1.394 . S
C744 C743 1.396 1_556 S
C744 H753 0.930 . S
C745 C742 1.383 . S
C745 C743 1.365 . S
C745 H754 0.931 . S
C746 C741 1.370 . S
C746 C742 1.395 1_556 S
C746 H755 0.930 . S
C747 Gd683 2.805 . S
C747 O723 1.263 . S
C747 O724 1.252 . S
C747 C741 1.500 . S
H748 C731 0.929 . S
H749 C732 0.930 . S
H750 C733 0.931 . S
H751 C734 0.930 . S
H752 C743 0.929 . S
H753 C744 0.930 . S
H754 C745 0.931 . S
H755 C746 0.930 . S
C756 C758 1.422 . S
C756 C760 1.415 . S
C756 N762 1.369 . S
C757 C758 1.425 . S
C757 C759 1.414 1_545 S
C757 C769 1.422 1_545 S
C758 C756 1.422 . S
C758 C757 1.425 . S
C758 N768 1.359 . S
C759 C757 1.414 1_565 S
C759 C761 1.329 . S
C759 H778 0.930 . S
C760 C756 1.415 . S
C760 C761 1.437 1_545 S
C760 C764 1.413 . S
C761 C759 1.329 . S
C761 C760 1.437 1_565 S
C761 H783 0.929 . S
N762 C756 1.369 . S
N762 C763 1.338 . S
N762 Gd767 2.622 . S
C763 N762 1.338 . S
C763 C765 1.378 . S
C763 H775 0.929 . S
C764 C760 1.413 . S
C764 C765 1.348 . S
C764 H780 0.931 1_545 S
C765 C763 1.378 . S
C765 C764 1.348 . S
C765 H781 0.930 . S
Gd766 N786 2.622 . S
Gd766 N793 2.570 . S
Gd766 O800 2.353 . S
Gd766 O801 2.468 . S
Gd766 O802 2.427 . S
Gd766 O804 2.388 . S
Gd766 O805 2.386 . S
Gd766 O809 2.307 . S
Gd766 C819 2.805 . S
Gd767 N762 2.622 . S
Gd767 N768 2.570 . S
Gd767 O799 2.386 . S
Gd767 O803 2.307 . S
Gd767 O806 2.353 . S
Gd767 O807 2.468 . S
Gd767 O808 2.427 . S
Gd767 O810 2.388 . S
Gd767 C831 2.805 . S
N768 C758 1.359 . S
N768 Gd767 2.570 . S
N768 C770 1.343 . S
C769 C757 1.422 1_565 S
C769 C771 1.306 1_565 S
C769 H777 0.946 . S
C770 N768 1.343 . S
C770 C771 1.390 . S
C770 H772 0.931 . S
C771 C769 1.306 1_545 S
C771 C770 1.390 . S
C771 H773 0.930 . S
H772 C770 0.931 . S
H773 C771 0.930 . S
H774 C797 0.931 . S
H775 C763 0.929 . S
H776 C798 0.930 . S
H777 C769 0.946 . S
H778 C759 0.930 . S
H779 C788 0.929 . S
H780 C764 0.931 1_565 S
H781 C765 0.930 . S
H782 C820 0.930 . S
H783 C761 0.929 . S
H784 C789 0.931 . S
H785 C790 0.930 . S
N786 Gd766 2.622 . S
N786 C787 1.369 . S
N786 C788 1.338 . S
C787 N786 1.369 . S
C787 C791 1.415 . S
C787 C794 1.422 . S
C788 H779 0.929 . S
C788 N786 1.338 . S
C788 C790 1.378 . S
C789 H784 0.931 . S
C789 C790 1.348 . S
C789 C791 1.413 . S
C790 H785 0.930 . S
C790 C788 1.378 . S
C790 C789 1.348 . S
C791 C787 1.415 . S
C791 C789 1.413 . S
C791 C821 1.437 . S
H792 C821 0.929 . S
N793 Gd766 2.570 . S
N793 C794 1.359 . S
N793 C797 1.343 . S
C794 C787 1.422 . S
C794 N793 1.359 . S
C794 C796 1.421 . S
C795 C796 1.422 . S
C795 C798 1.321 . S
C795 H822 0.931 . S
C796 C794 1.421 . S
C796 C795 1.422 . S
C796 C820 1.417 . S
C797 H774 0.931 . S
C797 N793 1.343 . S
C797 C798 1.390 . S
C798 H776 0.930 . S
C798 C795 1.321 . S
C798 C797 1.390 . S
O799 Gd767 2.386 . S
O799 C811 1.265 . S
O800 Gd766 2.353 . S
O800 C811 1.242 . S
O801 Gd766 2.468 . S
O801 C819 1.263 . S
O802 Gd766 2.427 . S
O802 C819 1.252 . S
O803 Gd767 2.307 . S
O803 C812 1.261 . S
O804 Gd766 2.388 . S
O804 C812 1.252 . S
O805 Gd766 2.386 . S
O805 C823 1.265 . S
O806 Gd767 2.353 . S
O806 C823 1.242 . S
O807 Gd767 2.468 . S
O807 C831 1.263 . S
O808 Gd767 2.427 . S
O808 C831 1.252 . S
O809 Gd766 2.307 . S
O809 C824 1.261 . S
O810 Gd767 2.388 . S
O810 C824 1.252 . S
C811 O799 1.265 . S
C811 O800 1.242 . S
C812 O803 1.261 . S
C812 O804 1.252 . S
C813 C816 1.394 . S
C813 C818 1.370 . S
C813 C819 1.500 . S
C814 C817 1.383 . S
C814 C818 1.395 1_556 S
C815 C816 1.396 1_556 S
C815 C817 1.365 . S
C815 H832 0.929 . S
C816 C813 1.394 . S
C816 C815 1.396 1_554 S
C816 H833 0.930 . S
C817 C814 1.383 . S
C817 C815 1.365 . S
C817 H834 0.931 . S
C818 C813 1.370 . S
C818 C814 1.395 1_554 S
C818 H835 0.930 . S
C819 Gd766 2.805 . S
C819 O801 1.263 . S
C819 O802 1.252 . S
C819 C813 1.500 . S
C820 H782 0.930 . S
C820 C796 1.417 . S
C820 C821 1.329 . S
C821 C791 1.437 . S
C821 H792 0.929 . S
C821 C820 1.329 . S
H822 C795 0.931 . S
C823 O805 1.265 . S
C823 O806 1.242 . S
C824 O809 1.261 . S
C824 O810 1.252 . S
C825 C828 1.394 . S
C825 C830 1.370 . S
C825 C831 1.500 . S
C826 C829 1.383 . S
C826 C830 1.395 . S
C827 C828 1.396 . S
C827 C829 1.365 . S
C827 H836 0.929 . S
C828 C825 1.394 . S
C828 C827 1.396 . S
C828 H837 0.930 . S
C829 C826 1.383 . S
C829 C827 1.365 . S
C829 H838 0.931 . S
C830 C825 1.370 . S
C830 C826 1.395 . S
C830 H839 0.930 . S
C831 Gd767 2.805 . S
C831 O807 1.263 . S
C831 O808 1.252 . S
C831 C825 1.500 . S
H832 C815 0.929 . S
H833 C816 0.930 . S
H834 C817 0.931 . S
H835 C818 0.930 . S
H836 C827 0.929 . S
H837 C828 0.930 . S
H838 C829 0.931 . S
H839 C830 0.930 . S
C840 C842 1.422 . S
C840 C844 1.415 . S
C840 N846 1.369 . S
C841 C842 1.421 . S
C841 C843 1.417 . S
C841 C853 1.422 . S
C842 C840 1.422 . S
C842 C841 1.421 . S
C842 N852 1.359 . S
C843 C841 1.417 . S
C843 C845 1.329 . S
C843 H862 0.930 . S
C844 C840 1.415 . S
C844 C845 1.437 . S
C844 C848 1.413 . S
C845 C843 1.329 . S
C845 C844 1.437 . S
C845 H867 0.929 . S
N846 C840 1.369 . S
N846 C847 1.338 . S
N846 Gd851 2.622 . S
C847 N846 1.338 . S
C847 C849 1.378 . S
C847 H859 0.929 . S
C848 C844 1.413 . S
C848 C849 1.348 . S
C848 H864 0.931 . S
C849 C847 1.378 . S
C849 C848 1.348 . S
C849 H865 0.930 . S
Gd850 N870 2.622 . S
Gd850 N877 2.570 . S
Gd850 O884 2.353 . S
Gd850 O885 2.468 . S
Gd850 O886 2.427 . S
Gd850 O888 2.388 . S
Gd850 O889 2.386 . S
Gd850 O893 2.307 . S
Gd850 C903 2.805 . S
Gd851 N846 2.622 . S
Gd851 N852 2.570 . S
Gd851 O883 2.386 . S
Gd851 O887 2.307 . S
Gd851 O890 2.353 . S
Gd851 O891 2.468 . S
Gd851 O892 2.427 . S
Gd851 O894 2.388 . S
Gd851 C915 2.805 . S
N852 C842 1.359 . S
N852 Gd851 2.570 . S
N852 C854 1.343 . S
C853 C841 1.422 . S
C853 C855 1.321 . S
C853 H861 0.931 . S
C854 N852 1.343 . S
C854 C855 1.390 . S
C854 H856 0.931 . S
C855 C853 1.321 . S
C855 C854 1.390 . S
C855 H857 0.930 . S
H856 C854 0.931 . S
H857 C855 0.930 . S
H858 C881 0.931 . S
H859 C847 0.929 . S
H860 C882 0.930 . S
H861 C853 0.931 . S
H862 C843 0.930 . S
H863 C872 0.929 . S
H864 C848 0.931 . S
H865 C849 0.930 . S
H866 C904 0.930 . S
H867 C845 0.929 . S
H868 C873 0.931 1_655 S
H869 C874 0.930 . S
N870 Gd850 2.622 . S
N870 C871 1.369 . S
N870 C872 1.338 . S
C871 N870 1.369 . S
C871 C875 1.415 . S
C871 C878 1.422 . S
C872 H863 0.929 . S
C872 N870 1.338 . S
C872 C874 1.378 . S
C873 H868 0.931 1_455 S
C873 C874 1.348 . S
C873 C875 1.413 . S
C874 H869 0.930 . S
C874 C872 1.378 . S
C874 C873 1.348 . S
C875 C871 1.415 . S
C875 C873 1.413 . S
C875 C905 1.437 1_455 S
H876 C905 0.929 . S
N877 Gd850 2.570 . S
N877 C878 1.359 . S
N877 C881 1.343 . S
C878 C871 1.422 . S
C878 N877 1.359 . S
C878 C880 1.425 . S
C879 C880 1.422 1_655 S
C879 C882 1.306 1_655 S
C879 H906 0.946 . S
C880 C878 1.425 . S
C880 C879 1.422 1_455 S
C880 C904 1.414 1_455 S
C881 H858 0.931 . S
C881 N877 1.343 . S
C881 C882 1.390 . S
C882 H860 0.930 . S
C882 C879 1.306 1_455 S
C882 C881 1.390 . S
O883 Gd851 2.386 . S
O883 C895 1.265 . S
O884 Gd850 2.353 . S
O884 C895 1.242 . S
O885 Gd850 2.468 . S
O885 C903 1.263 . S
O886 Gd850 2.427 . S
O886 C903 1.252 . S
O887 Gd851 2.307 . S
O887 C896 1.261 . S
O888 Gd850 2.388 . S
O888 C896 1.252 . S
O889 Gd850 2.386 . S
O889 C907 1.265 . S
O890 Gd851 2.353 . S
O890 C907 1.242 . S
O891 Gd851 2.468 . S
O891 C915 1.263 . S
O892 Gd851 2.427 . S
O892 C915 1.252 . S
O893 Gd850 2.307 . S
O893 C908 1.261 . S
O894 Gd851 2.388 . S
O894 C908 1.252 . S
C895 O883 1.265 . S
C895 O884 1.242 . S
C896 O887 1.261 . S
C896 O888 1.252 . S
C897 C900 1.394 . S
C897 C902 1.370 . S
C897 C903 1.500 . S
C898 C901 1.383 . S
C898 C902 1.395 . S
C899 C900 1.396 . S
C899 C901 1.365 . S
C899 H916 0.929 . S
C900 C897 1.394 . S
C900 C899 1.396 . S
C900 H917 0.930 . S
C901 C898 1.383 . S
C901 C899 1.365 . S
C901 H918 0.931 . S
C902 C897 1.370 . S
C902 C898 1.395 . S
C902 H919 0.930 . S
C903 Gd850 2.805 . S
C903 O885 1.263 . S
C903 O886 1.252 . S
C903 C897 1.500 . S
C904 H866 0.930 . S
C904 C880 1.414 1_655 S
C904 C905 1.329 . S
C905 C875 1.437 1_655 S
C905 H876 0.929 . S
C905 C904 1.329 . S
H906 C879 0.946 . S
C907 O889 1.265 . S
C907 O890 1.242 . S
C908 O893 1.261 . S
C908 O894 1.252 . S
C909 C912 1.394 . S
C909 C914 1.370 . S
C909 C915 1.500 . S
C910 C913 1.383 . S
C910 C914 1.395 1_554 S
C911 C912 1.396 1_554 S
C911 C913 1.365 . S
C911 H920 0.929 . S
C912 C909 1.394 . S
C912 C911 1.396 1_556 S
C912 H921 0.930 . S
C913 C910 1.383 . S
C913 C911 1.365 . S
C913 H922 0.931 . S
C914 C909 1.370 . S
C914 C910 1.395 1_556 S
C914 H923 0.930 . S
C915 Gd851 2.805 . S
C915 O891 1.263 . S
C915 O892 1.252 . S
C915 C909 1.500 . S
H916 C899 0.929 . S
H917 C900 0.930 . S
H918 C901 0.931 . S
H919 C902 0.930 . S
H920 C911 0.929 . S
H921 C912 0.930 . S
H922 C913 0.931 . S
H923 C914 0.930 . S
C924 C926 1.422 . S
C924 C928 1.415 . S
C924 N930 1.369 . S
C925 C926 1.425 . S
C925 C927 1.414 1_565 S
C925 C937 1.422 1_565 S
C926 C924 1.422 . S
C926 C925 1.425 . S
C926 N936 1.359 . S
C927 C925 1.414 1_545 S
C927 C929 1.329 . S
C927 H946 0.930 . S
C928 C924 1.415 . S
C928 C929 1.437 1_565 S
C928 C932 1.413 . S
C929 C927 1.329 . S
C929 C928 1.437 1_545 S
C929 H951 0.929 . S
N930 C924 1.369 . S
N930 C931 1.338 . S
N930 Gd935 2.622 . S
C931 N930 1.338 . S
C931 C933 1.378 . S
C931 H943 0.929 . S
C932 C928 1.413 . S
C932 C933 1.348 . S
C932 H948 0.931 1_565 S
C933 C931 1.378 . S
C933 C932 1.348 . S
C933 H949 0.930 . S
Gd934 N954 2.622 . S
Gd934 N961 2.570 . S
Gd934 O968 2.353 . S
Gd934 O969 2.468 . S
Gd934 O970 2.427 . S
Gd934 O972 2.388 . S
Gd934 O973 2.386 . S
Gd934 O977 2.307 . S
Gd934 C987 2.805 . S
Gd935 N930 2.622 . S
Gd935 N936 2.570 . S
Gd935 O967 2.386 . S
Gd935 O971 2.307 . S
Gd935 O974 2.353 . S
Gd935 O975 2.468 . S
Gd935 O976 2.427 . S
Gd935 O978 2.388 . S
Gd935 C999 2.805 . S
N936 C926 1.359 . S
N936 Gd935 2.570 . S
N936 C938 1.343 . S
C937 C925 1.422 1_545 S
C937 C939 1.306 1_545 S
C937 H945 0.946 . S
C938 N936 1.343 . S
C938 C939 1.390 . S
C938 H940 0.931 . S
C939 C937 1.306 1_565 S
C939 C938 1.390 . S
C939 H941 0.930 . S
H940 C938 0.931 . S
H941 C939 0.930 . S
H942 C965 0.931 . S
H943 C931 0.929 . S
H944 C966 0.930 . S
H945 C937 0.946 . S
H946 C927 0.930 . S
H947 C956 0.929 . S
H948 C932 0.931 1_545 S
H949 C933 0.930 . S
H950 C988 0.930 . S
H951 C929 0.929 . S
H952 C957 0.931 . S
H953 C958 0.930 . S
N954 Gd934 2.622 . S
N954 C955 1.369 . S
N954 C956 1.338 . S
C955 N954 1.369 . S
C955 C959 1.415 . S
C955 C962 1.422 . S
C956 H947 0.929 . S
C956 N954 1.338 . S
C956 C958 1.378 . S
C957 H952 0.931 . S
C957 C958 1.348 . S
C957 C959 1.413 . S
C958 H953 0.930 . S
C958 C956 1.378 . S
C958 C957 1.348 . S
C959 C955 1.415 . S
C959 C957 1.413 . S
C959 C989 1.437 . S
H960 C989 0.929 . S
N961 Gd934 2.570 . S
N961 C962 1.359 . S
N961 C965 1.343 . S
C962 C955 1.422 . S
C962 N961 1.359 . S
C962 C964 1.421 . S
C963 C964 1.422 . S
C963 C966 1.321 . S
C963 H990 0.931 . S
C964 C962 1.421 . S
C964 C963 1.422 . S
C964 C988 1.417 . S
C965 H942 0.931 . S
C965 N961 1.343 . S
C965 C966 1.390 . S
C966 H944 0.930 . S
C966 C963 1.321 . S
C966 C965 1.390 . S
O967 Gd935 2.386 . S
O967 C979 1.265 . S
O968 Gd934 2.353 . S
O968 C979 1.242 . S
O969 Gd934 2.468 . S
O969 C987 1.263 . S
O970 Gd934 2.427 . S
O970 C987 1.252 . S
O971 Gd935 2.307 . S
O971 C980 1.261 . S
O972 Gd934 2.388 . S
O972 C980 1.252 . S
O973 Gd934 2.386 . S
O973 C991 1.265 . S
O974 Gd935 2.353 . S
O974 C991 1.242 . S
O975 Gd935 2.468 . S
O975 C999 1.263 . S
O976 Gd935 2.427 . S
O976 C999 1.252 . S
O977 Gd934 2.307 . S
O977 C992 1.261 . S
O978 Gd935 2.388 . S
O978 C992 1.252 . S
C979 O967 1.265 . S
C979 O968 1.242 . S
C980 O971 1.261 . S
C980 O972 1.252 . S
C981 C984 1.394 . S
C981 C986 1.370 . S
C981 C987 1.500 . S
C982 C985 1.383 . S
C982 C986 1.395 1_556 S
C983 C984 1.396 1_556 S
C983 C985 1.365 . S
C983 H1000 0.929 . S
C984 C981 1.394 . S
C984 C983 1.396 1_554 S
C984 H1001 0.930 . S
C985 C982 1.383 . S
C985 C983 1.365 . S
C985 H1002 0.931 . S
C986 C981 1.370 . S
C986 C982 1.395 1_554 S
C986 H1003 0.930 . S
C987 Gd934 2.805 . S
C987 O969 1.263 . S
C987 O970 1.252 . S
C987 C981 1.500 . S
C988 H950 0.930 . S
C988 C964 1.417 . S
C988 C989 1.329 . S
C989 C959 1.437 . S
C989 H960 0.929 . S
C989 C988 1.329 . S
H990 C963 0.931 . S
C991 O973 1.265 . S
C991 O974 1.242 . S
C992 O977 1.261 . S
C992 O978 1.252 . S
C993 C996 1.394 . S
C993 C998 1.370 . S
C993 C999 1.500 . S
C994 C997 1.383 . S
C994 C998 1.395 . S
C995 C996 1.396 . S
C995 C997 1.365 . S
C995 H1004 0.929 . S
C996 C993 1.394 . S
C996 C995 1.396 . S
C996 H1005 0.930 . S
C997 C994 1.383 . S
C997 C995 1.365 . S
C997 H1006 0.931 . S
C998 C993 1.370 . S
C998 C994 1.395 . S
C998 H1007 0.930 . S
C999 Gd935 2.805 . S
C999 O975 1.263 . S
C999 O976 1.252 . S
C999 C993 1.500 . S
H1000 C983 0.929 . S
H1001 C984 0.930 . S
H1002 C985 0.931 . S
H1003 C986 0.930 . S
H1004 C995 0.929 . S
H1005 C996 0.930 . S
H1006 C997 0.931 . S
H1007 C998 0.930 . S
C1008 C1010 1.422 . S
C1008 C1012 1.415 . S
C1008 N1014 1.369 . S
C1009 C1010 1.421 . S
C1009 C1011 1.417 . S
C1009 C1021 1.422 . S
C1010 C1008 1.422 . S
C1010 C1009 1.421 . S
C1010 N1020 1.359 . S
C1011 C1009 1.417 . S
C1011 C1013 1.329 . S
C1011 H1030 0.930 . S
C1012 C1008 1.415 . S
C1012 C1013 1.437 . S
C1012 C1016 1.413 . S
C1013 C1011 1.329 . S
C1013 C1012 1.437 . S
C1013 H1035 0.929 . S
N1014 C1008 1.369 . S
N1014 C1015 1.338 . S
N1014 Gd1019 2.622 . S
C1015 N1014 1.338 . S
C1015 C1017 1.378 . S
C1015 H1027 0.929 . S
C1016 C1012 1.413 . S
C1016 C1017 1.348 . S
C1016 H1032 0.931 . S
C1017 C1015 1.378 . S
C1017 C1016 1.348 . S
C1017 H1033 0.930 . S
Gd1018 N1038 2.622 . S
Gd1018 N1045 2.570 . S
Gd1018 O1052 2.353 . S
Gd1018 O1053 2.468 . S
Gd1018 O1054 2.427 . S
Gd1018 O1056 2.388 . S
Gd1018 O1057 2.386 . S
Gd1018 O1061 2.307 . S
Gd1018 C1071 2.805 . S
Gd1019 N1014 2.622 . S
Gd1019 N1020 2.570 . S
Gd1019 O1051 2.386 . S
Gd1019 O1055 2.307 . S
Gd1019 O1058 2.353 . S
Gd1019 O1059 2.468 . S
Gd1019 O1060 2.427 . S
Gd1019 O1062 2.388 . S
Gd1019 C1083 2.805 . S
N1020 C1010 1.359 . S
N1020 Gd1019 2.570 . S
N1020 C1022 1.343 . S
C1021 C1009 1.422 . S
C1021 C1023 1.321 . S
C1021 H1029 0.931 . S
C1022 N1020 1.343 . S
C1022 C1023 1.390 . S
C1022 H1024 0.931 . S
C1023 C1021 1.321 . S
C1023 C1022 1.390 . S
C1023 H1025 0.930 . S
H1024 C1022 0.931 . S
H1025 C1023 0.930 . S
H1026 C1049 0.931 . S
H1027 C1015 0.929 . S
H1028 C1050 0.930 . S
H1029 C1021 0.931 . S
H1030 C1011 0.930 . S
H1031 C1040 0.929 . S
H1032 C1016 0.931 . S
H1033 C1017 0.930 . S
H1034 C1072 0.930 . S
H1035 C1013 0.929 . S
H1036 C1041 0.931 1_445 S
H1037 C1042 0.930 . S
N1038 Gd1018 2.622 . S
N1038 C1039 1.369 . S
N1038 C1040 1.338 . S
C1039 N1038 1.369 . S
C1039 C1043 1.415 . S
C1039 C1046 1.422 . S
C1040 H1031 0.929 . S
C1040 N1038 1.338 . S
C1040 C1042 1.378 1_565 S
C1041 H1036 0.931 1_665 S
C1041 C1042 1.348 1_565 S
C1041 C1043 1.413 . S
C1042 H1037 0.930 . S
C1042 C1040 1.378 1_545 S
C1042 C1041 1.348 1_545 S
C1043 C1039 1.415 . S
C1043 C1041 1.413 . S
C1043 C1073 1.437 1_655 S
H1044 C1073 0.929 . S
N1045 Gd1018 2.570 . S
N1045 C1046 1.359 . S
N1045 C1049 1.343 . S
C1046 C1039 1.422 . S
C1046 N1045 1.359 . S
C1046 C1048 1.425 . S
C1047 C1048 1.422 1_455 S
C1047 C1050 1.306 1_455 S
C1047 H1074 0.946 . S
C1048 C1046 1.425 . S
C1048 C1047 1.422 1_655 S
C1048 C1072 1.414 1_655 S
C1049 H1026 0.931 . S
C1049 N1045 1.343 . S
C1049 C1050 1.390 . S
C1050 H1028 0.930 . S
C1050 C1047 1.306 1_655 S
C1050 C1049 1.390 . S
O1051 Gd1019 2.386 . S
O1051 C1063 1.265 . S
O1052 Gd1018 2.353 . S
O1052 C1063 1.242 . S
O1053 Gd1018 2.468 . S
O1053 C1071 1.263 . S
O1054 Gd1018 2.427 . S
O1054 C1071 1.252 . S
O1055 Gd1019 2.307 . S
O1055 C1064 1.261 . S
O1056 Gd1018 2.388 . S
O1056 C1064 1.252 . S
O1057 Gd1018 2.386 . S
O1057 C1075 1.265 . S
O1058 Gd1019 2.353 . S
O1058 C1075 1.242 . S
O1059 Gd1019 2.468 . S
O1059 C1083 1.263 . S
O1060 Gd1019 2.427 . S
O1060 C1083 1.252 . S
O1061 Gd1018 2.307 . S
O1061 C1076 1.261 . S
O1062 Gd1019 2.388 . S
O1062 C1076 1.252 . S
C1063 O1051 1.265 . S
C1063 O1052 1.242 . S
C1064 O1055 1.261 . S
C1064 O1056 1.252 . S
C1065 C1068 1.394 . S
C1065 C1070 1.370 . S
C1065 C1071 1.500 . S
C1066 C1069 1.383 . S
C1066 C1070 1.395 1_554 S
C1067 C1068 1.396 1_554 S
C1067 C1069 1.365 . S
C1067 H1084 0.929 . S
C1068 C1065 1.394 . S
C1068 C1067 1.396 1_556 S
C1068 H1085 0.930 . S
C1069 C1066 1.383 . S
C1069 C1067 1.365 . S
C1069 H1086 0.931 . S
C1070 C1065 1.370 . S
C1070 C1066 1.395 1_556 S
C1070 H1087 0.930 . S
C1071 Gd1018 2.805 . S
C1071 O1053 1.263 . S
C1071 O1054 1.252 . S
C1071 C1065 1.500 . S
C1072 H1034 0.930 . S
C1072 C1048 1.414 1_455 S
C1072 C1073 1.329 . S
C1073 C1043 1.437 1_455 S
C1073 H1044 0.929 . S
C1073 C1072 1.329 . S
H1074 C1047 0.946 . S
C1075 O1057 1.265 . S
C1075 O1058 1.242 . S
C1076 O1061 1.261 . S
C1076 O1062 1.252 . S
C1077 C1080 1.394 . S
C1077 C1082 1.370 . S
C1077 C1083 1.500 . S
C1078 C1081 1.383 . S
C1078 C1082 1.395 . S
C1079 C1080 1.396 . S
C1079 C1081 1.365 . S
C1079 H1088 0.929 . S
C1080 C1077 1.394 . S
C1080 C1079 1.396 . S
C1080 H1089 0.930 . S
C1081 C1078 1.383 . S
C1081 C1079 1.365 . S
C1081 H1090 0.931 . S
C1082 C1077 1.370 . S
C1082 C1078 1.395 . S
C1082 H1091 0.930 . S
C1083 Gd1019 2.805 . S
C1083 O1059 1.263 . S
C1083 O1060 1.252 . S
C1083 C1077 1.500 . S
H1084 C1067 0.929 . S
H1085 C1068 0.930 . S
H1086 C1069 0.931 . S
H1087 C1070 0.930 . S
H1088 C1079 0.929 . S
H1089 C1080 0.930 . S
H1090 C1081 0.931 . S
H1091 C1082 0.930 . S
C1092 C1094 1.422 . S
C1092 C1096 1.415 . S
C1092 N1098 1.369 . S
C1093 C1094 1.425 . S
C1093 C1095 1.414 1_545 S
C1093 C1105 1.422 1_545 S
C1094 C1092 1.422 . S
C1094 C1093 1.425 . S
C1094 N1104 1.359 . S
C1095 C1093 1.414 1_565 S
C1095 C1097 1.329 . S
C1095 H1114 0.930 . S
C1096 C1092 1.415 . S
C1096 C1097 1.437 1_545 S
C1096 C1100 1.413 . S
C1097 C1095 1.329 . S
C1097 C1096 1.437 1_565 S
C1097 H1119 0.929 . S
N1098 C1092 1.369 . S
N1098 C1099 1.338 . S
N1098 Gd1103 2.622 . S
C1099 N1098 1.338 . S
C1099 C1101 1.378 1_655 S
C1099 H1111 0.929 . S
C1100 C1096 1.413 . S
C1100 C1101 1.348 1_655 S
C1100 H1116 0.931 1_645 S
C1101 C1099 1.378 1_455 S
C1101 C1100 1.348 1_455 S
C1101 H1117 0.930 . S
Gd1102 N1122 2.622 . S
Gd1102 N1129 2.570 . S
Gd1102 O1136 2.353 . S
Gd1102 O1137 2.468 . S
Gd1102 O1138 2.427 . S
Gd1102 O1140 2.388 . S
Gd1102 O1141 2.386 . S
Gd1102 O1145 2.307 . S
Gd1102 C1155 2.805 . S
Gd1103 N1098 2.622 . S
Gd1103 N1104 2.570 . S
Gd1103 O1135 2.386 . S
Gd1103 O1139 2.307 . S
Gd1103 O1142 2.353 . S
Gd1103 O1143 2.468 . S
Gd1103 O1144 2.427 . S
Gd1103 O1146 2.388 . S
Gd1103 C1167 2.805 . S
N1104 C1094 1.359 . S
N1104 Gd1103 2.570 . S
N1104 C1106 1.343 . S
C1105 C1093 1.422 1_565 S
C1105 C1107 1.306 1_565 S
C1105 H1113 0.946 . S
C1106 N1104 1.343 . S
C1106 C1107 1.390 . S
C1106 H1108 0.931 . S
C1107 C1105 1.306 1_545 S
C1107 C1106 1.390 . S
C1107 H1109 0.930 . S
H1108 C1106 0.931 . S
H1109 C1107 0.930 . S
H1110 C1133 0.931 . S
H1111 C1099 0.929 . S
H1112 C1134 0.930 . S
H1113 C1105 0.946 . S
H1114 C1095 0.930 . S
H1115 C1124 0.929 . S
H1116 C1100 0.931 1_465 S
H1117 C1101 0.930 . S
H1118 C1156 0.930 . S
H1119 C1097 0.929 . S
H1120 C1125 0.931 . S
H1121 C1126 0.930 . S
N1122 Gd1102 2.622 . S
N1122 C1123 1.369 . S
N1122 C1124 1.338 . S
C1123 N1122 1.369 . S
C1123 C1127 1.415 . S
C1123 C1130 1.422 . S
C1124 H1115 0.929 . S
C1124 N1122 1.338 . S
C1124 C1126 1.378 . S
C1125 H1120 0.931 . S
C1125 C1126 1.348 . S
C1125 C1127 1.413 . S
C1126 H1121 0.930 . S
C1126 C1124 1.378 . S
C1126 C1125 1.348 . S
C1127 C1123 1.415 . S
C1127 C1125 1.413 . S
C1127 C1157 1.437 . S
H1128 C1157 0.929 . S
N1129 Gd1102 2.570 . S
N1129 C1130 1.359 . S
N1129 C1133 1.343 . S
C1130 C1123 1.422 . S
C1130 N1129 1.359 . S
C1130 C1132 1.421 . S
C1131 C1132 1.422 . S
C1131 C1134 1.321 . S
C1131 H1158 0.931 . S
C1132 C1130 1.421 . S
C1132 C1131 1.422 . S
C1132 C1156 1.417 . S
C1133 H1110 0.931 . S
C1133 N1129 1.343 . S
C1133 C1134 1.390 . S
C1134 H1112 0.930 . S
C1134 C1131 1.321 . S
C1134 C1133 1.390 . S
O1135 Gd1103 2.386 . S
O1135 C1147 1.265 . S
O1136 Gd1102 2.353 . S
O1136 C1147 1.242 . S
O1137 Gd1102 2.468 . S
O1137 C1155 1.263 . S
O1138 Gd1102 2.427 . S
O1138 C1155 1.252 . S
O1139 Gd1103 2.307 . S
O1139 C1148 1.261 . S
O1140 Gd1102 2.388 . S
O1140 C1148 1.252 . S
O1141 Gd1102 2.386 . S
O1141 C1159 1.265 . S
O1142 Gd1103 2.353 . S
O1142 C1159 1.242 . S
O1143 Gd1103 2.468 . S
O1143 C1167 1.263 . S
O1144 Gd1103 2.427 . S
O1144 C1167 1.252 . S
O1145 Gd1102 2.307 . S
O1145 C1160 1.261 . S
O1146 Gd1103 2.388 . S
O1146 C1160 1.252 . S
C1147 O1135 1.265 . S
C1147 O1136 1.242 . S
C1148 O1139 1.261 . S
C1148 O1140 1.252 . S
C1149 C1152 1.394 . S
C1149 C1154 1.370 . S
C1149 C1155 1.500 . S
C1150 C1153 1.383 . S
C1150 C1154 1.395 . S
C1151 C1152 1.396 . S
C1151 C1153 1.365 . S
C1151 H1168 0.929 . S
C1152 C1149 1.394 . S
C1152 C1151 1.396 . S
C1152 H1169 0.930 . S
C1153 C1150 1.383 . S
C1153 C1151 1.365 . S
C1153 H1170 0.931 . S
C1154 C1149 1.370 . S
C1154 C1150 1.395 . S
C1154 H1171 0.930 . S
C1155 Gd1102 2.805 . S
C1155 O1137 1.263 . S
C1155 O1138 1.252 . S
C1155 C1149 1.500 . S
C1156 H1118 0.930 . S
C1156 C1132 1.417 . S
C1156 C1157 1.329 . S
C1157 C1127 1.437 . S
C1157 H1128 0.929 . S
C1157 C1156 1.329 . S
H1158 C1131 0.931 . S
C1159 O1141 1.265 . S
C1159 O1142 1.242 . S
C1160 O1145 1.261 . S
C1160 O1146 1.252 . S
C1161 C1164 1.394 . S
C1161 C1166 1.370 . S
C1161 C1167 1.500 . S
C1162 C1165 1.383 . S
C1162 C1166 1.395 1_556 S
C1163 C1164 1.396 1_556 S
C1163 C1165 1.365 . S
C1163 H1172 0.929 . S
C1164 C1161 1.394 . S
C1164 C1163 1.396 1_554 S
C1164 H1173 0.930 . S
C1165 C1162 1.383 . S
C1165 C1163 1.365 . S
C1165 H1174 0.931 . S
C1166 C1161 1.370 . S
C1166 C1162 1.395 1_554 S
C1166 H1175 0.930 . S
C1167 Gd1103 2.805 . S
C1167 O1143 1.263 . S
C1167 O1144 1.252 . S
C1167 C1161 1.500 . S
H1168 C1151 0.929 . S
H1169 C1152 0.930 . S
H1170 C1153 0.931 . S
H1171 C1154 0.930 . S
H1172 C1163 0.929 . S
H1173 C1164 0.930 . S
H1174 C1165 0.931 . S
H1175 C1166 0.930 . S
C1176 C1178 1.422 . S
C1176 C1180 1.415 . S
C1176 N1182 1.369 . S
C1177 C1178 1.421 . S
C1177 C1179 1.417 . S
C1177 C1189 1.422 . S
C1178 C1176 1.422 . S
C1178 C1177 1.421 . S
C1178 N1188 1.359 . S
C1179 C1177 1.417 . S
C1179 C1181 1.329 . S
C1179 H1198 0.930 . S
C1180 C1176 1.415 . S
C1180 C1181 1.437 . S
C1180 C1184 1.413 . S
C1181 C1179 1.329 . S
C1181 C1180 1.437 . S
C1181 H1203 0.929 . S
N1182 C1176 1.369 . S
N1182 C1183 1.338 . S
N1182 Gd1187 2.622 . S
C1183 N1182 1.338 . S
C1183 C1185 1.378 . S
C1183 H1195 0.929 . S
C1184 C1180 1.413 . S
C1184 C1185 1.348 . S
C1184 H1200 0.931 . S
C1185 C1183 1.378 . S
C1185 C1184 1.348 . S
C1185 H1201 0.930 . S
Gd1186 N1206 2.622 . S
Gd1186 N1213 2.570 . S
Gd1186 O1220 2.353 . S
Gd1186 O1221 2.468 . S
Gd1186 O1222 2.427 . S
Gd1186 O1224 2.388 . S
Gd1186 O1225 2.386 . S
Gd1186 O1229 2.307 . S
Gd1186 C1239 2.805 . S
Gd1187 N1182 2.622 . S
Gd1187 N1188 2.570 . S
Gd1187 O1219 2.386 . S
Gd1187 O1223 2.307 . S
Gd1187 O1226 2.353 . S
Gd1187 O1227 2.468 . S
Gd1187 O1228 2.427 . S
Gd1187 O1230 2.388 . S
Gd1187 C1251 2.805 . S
N1188 C1178 1.359 . S
N1188 Gd1187 2.570 . S
N1188 C1190 1.343 . S
C1189 C1177 1.422 . S
C1189 C1191 1.321 . S
C1189 H1197 0.931 . S
C1190 N1188 1.343 . S
C1190 C1191 1.390 . S
C1190 H1192 0.931 . S
C1191 C1189 1.321 . S
C1191 C1190 1.390 . S
C1191 H1193 0.930 . S
H1192 C1190 0.931 . S
H1193 C1191 0.930 . S
H1194 C1217 0.931 . S
H1195 C1183 0.929 . S
H1196 C1218 0.930 . S
H1197 C1189 0.931 . S
H1198 C1179 0.930 . S
H1199 C1208 0.929 . S
H1200 C1184 0.931 . S
H1201 C1185 0.930 . S
H1202 C1240 0.930 . S
H1203 C1181 0.929 . S
H1204 C1209 0.931 1_665 S
H1205 C1210 0.930 . S
N1206 Gd1186 2.622 . S
N1206 C1207 1.369 . S
N1206 C1208 1.338 . S
C1207 N1206 1.369 . S
C1207 C1211 1.415 . S
C1207 C1214 1.422 . S
C1208 H1199 0.929 . S
C1208 N1206 1.338 . S
C1208 C1210 1.378 1_545 S
C1209 H1204 0.931 1_445 S
C1209 C1210 1.348 1_545 S
C1209 C1211 1.413 . S
C1210 H1205 0.930 . S
C1210 C1208 1.378 1_565 S
C1210 C1209 1.348 1_565 S
C1211 C1207 1.415 . S
C1211 C1209 1.413 . S
C1211 C1241 1.437 1_455 S
H1212 C1241 0.929 . S
N1213 Gd1186 2.570 . S
N1213 C1214 1.359 . S
N1213 C1217 1.343 . S
C1214 C1207 1.422 . S
C1214 N1213 1.359 . S
C1214 C1216 1.425 . S
C1215 C1216 1.422 1_655 S
C1215 C1218 1.306 1_655 S
C1215 H1242 0.946 . S
C1216 C1214 1.425 . S
C1216 C1215 1.422 1_455 S
C1216 C1240 1.414 1_455 S
C1217 H1194 0.931 . S
C1217 N1213 1.343 . S
C1217 C1218 1.390 . S
C1218 H1196 0.930 . S
C1218 C1215 1.306 1_455 S
C1218 C1217 1.390 . S
O1219 Gd1187 2.386 . S
O1219 C1231 1.265 . S
O1220 Gd1186 2.353 . S
O1220 C1231 1.242 . S
O1221 Gd1186 2.468 . S
O1221 C1239 1.263 . S
O1222 Gd1186 2.427 . S
O1222 C1239 1.252 . S
O1223 Gd1187 2.307 . S
O1223 C1232 1.261 . S
O1224 Gd1186 2.388 . S
O1224 C1232 1.252 . S
O1225 Gd1186 2.386 . S
O1225 C1243 1.265 . S
O1226 Gd1187 2.353 . S
O1226 C1243 1.242 . S
O1227 Gd1187 2.468 . S
O1227 C1251 1.263 . S
O1228 Gd1187 2.427 . S
O1228 C1251 1.252 . S
O1229 Gd1186 2.307 . S
O1229 C1244 1.261 . S
O1230 Gd1187 2.388 . S
O1230 C1244 1.252 . S
C1231 O1219 1.265 . S
C1231 O1220 1.242 . S
C1232 O1223 1.261 . S
C1232 O1224 1.252 . S
C1233 C1236 1.394 . S
C1233 C1238 1.370 . S
C1233 C1239 1.500 . S
C1234 C1237 1.383 . S
C1234 C1238 1.395 1_554 S
C1235 C1236 1.396 1_554 S
C1235 C1237 1.365 . S
C1235 H1252 0.929 . S
C1236 C1233 1.394 . S
C1236 C1235 1.396 1_556 S
C1236 H1253 0.930 . S
C1237 C1234 1.383 . S
C1237 C1235 1.365 . S
C1237 H1254 0.931 . S
C1238 C1233 1.370 . S
C1238 C1234 1.395 1_556 S
C1238 H1255 0.930 . S
C1239 Gd1186 2.805 . S
C1239 O1221 1.263 . S
C1239 O1222 1.252 . S
C1239 C1233 1.500 . S
C1240 H1202 0.930 . S
C1240 C1216 1.414 1_655 S
C1240 C1241 1.329 . S
C1241 C1211 1.437 1_655 S
C1241 H1212 0.929 . S
C1241 C1240 1.329 . S
H1242 C1215 0.946 . S
C1243 O1225 1.265 . S
C1243 O1226 1.242 . S
C1244 O1229 1.261 . S
C1244 O1230 1.252 . S
C1245 C1248 1.394 . S
C1245 C1250 1.370 . S
C1245 C1251 1.500 . S
C1246 C1249 1.383 . S
C1246 C1250 1.395 . S
C1247 C1248 1.396 . S
C1247 C1249 1.365 . S
C1247 H1256 0.929 . S
C1248 C1245 1.394 . S
C1248 C1247 1.396 . S
C1248 H1257 0.930 . S
C1249 C1246 1.383 . S
C1249 C1247 1.365 . S
C1249 H1258 0.931 . S
C1250 C1245 1.370 . S
C1250 C1246 1.395 . S
C1250 H1259 0.930 . S
C1251 Gd1187 2.805 . S
C1251 O1227 1.263 . S
C1251 O1228 1.252 . S
C1251 C1245 1.500 . S
H1252 C1235 0.929 . S
H1253 C1236 0.930 . S
H1254 C1237 0.931 . S
H1255 C1238 0.930 . S
H1256 C1247 0.929 . S
H1257 C1248 0.930 . S
H1258 C1249 0.931 . S
H1259 C1250 0.930 . S
C1260 C1262 1.422 . S
C1260 C1264 1.415 . S
C1260 N1266 1.369 . S
C1261 C1262 1.425 . S
C1261 C1263 1.414 1_565 S
C1261 C1273 1.422 1_565 S
C1262 C1260 1.422 . S
C1262 C1261 1.425 . S
C1262 N1272 1.359 . S
C1263 C1261 1.414 1_545 S
C1263 C1265 1.329 . S
C1263 H1282 0.930 . S
C1264 C1260 1.415 . S
C1264 C1265 1.437 1_565 S
C1264 C1268 1.413 . S
C1265 C1263 1.329 . S
C1265 C1264 1.437 1_545 S
C1265 H1287 0.929 . S
N1266 C1260 1.369 . S
N1266 C1267 1.338 . S
N1266 Gd1271 2.622 . S
C1267 N1266 1.338 . S
C1267 C1269 1.378 1_455 S
C1267 H1279 0.929 . S
C1268 C1264 1.413 . S
C1268 C1269 1.348 1_455 S
C1268 H1284 0.931 1_465 S
C1269 C1267 1.378 1_655 S
C1269 C1268 1.348 1_655 S
C1269 H1285 0.930 . S
Gd1270 N1290 2.622 . S
Gd1270 N1297 2.570 . S
Gd1270 O1304 2.353 . S
Gd1270 O1305 2.468 . S
Gd1270 O1306 2.427 . S
Gd1270 O1308 2.388 . S
Gd1270 O1309 2.386 . S
Gd1270 O1313 2.307 . S
Gd1270 C1323 2.805 . S
Gd1271 N1266 2.622 . S
Gd1271 N1272 2.570 . S
Gd1271 O1303 2.386 . S
Gd1271 O1307 2.307 . S
Gd1271 O1310 2.353 . S
Gd1271 O1311 2.468 . S
Gd1271 O1312 2.427 . S
Gd1271 O1314 2.388 . S
Gd1271 C1335 2.805 . S
N1272 C1262 1.359 . S
N1272 Gd1271 2.570 . S
N1272 C1274 1.343 . S
C1273 C1261 1.422 1_545 S
C1273 C1275 1.306 1_545 S
C1273 H1281 0.946 . S
C1274 N1272 1.343 . S
C1274 C1275 1.390 . S
C1274 H1276 0.931 . S
C1275 C1273 1.306 1_565 S
C1275 C1274 1.390 . S
C1275 H1277 0.930 . S
H1276 C1274 0.931 . S
H1277 C1275 0.930 . S
H1278 C1301 0.931 . S
H1279 C1267 0.929 . S
H1280 C1302 0.930 . S
H1281 C1273 0.946 . S
H1282 C1263 0.930 . S
H1283 C1292 0.929 . S
H1284 C1268 0.931 1_645 S
H1285 C1269 0.930 . S
H1286 C1324 0.930 . S
H1287 C1265 0.929 . S
H1288 C1293 0.931 . S
H1289 C1294 0.930 . S
N1290 Gd1270 2.622 . S
N1290 C1291 1.369 . S
N1290 C1292 1.338 . S
C1291 N1290 1.369 . S
C1291 C1295 1.415 . S
C1291 C1298 1.422 . S
C1292 H1283 0.929 . S
C1292 N1290 1.338 . S
C1292 C1294 1.378 . S
C1293 H1288 0.931 . S
C1293 C1294 1.348 . S
C1293 C1295 1.413 . S
C1294 H1289 0.930 . S
C1294 C1292 1.378 . S
C1294 C1293 1.348 . S
C1295 C1291 1.415 . S
C1295 C1293 1.413 . S
C1295 C1325 1.437 . S
H1296 C1325 0.929 . S
N1297 Gd1270 2.570 . S
N1297 C1298 1.359 . S
N1297 C1301 1.343 . S
C1298 C1291 1.422 . S
C1298 N1297 1.359 . S
C1298 C1300 1.421 . S
C1299 C1300 1.422 . S
C1299 C1302 1.321 . S
C1299 H1326 0.931 . S
C1300 C1298 1.421 . S
C1300 C1299 1.422 . S
C1300 C1324 1.417 . S
C1301 H1278 0.931 . S
C1301 N1297 1.343 . S
C1301 C1302 1.390 . S
C1302 H1280 0.930 . S
C1302 C1299 1.321 . S
C1302 C1301 1.390 . S
O1303 Gd1271 2.386 . S
O1303 C1315 1.265 . S
O1304 Gd1270 2.353 . S
O1304 C1315 1.242 . S
O1305 Gd1270 2.468 . S
O1305 C1323 1.263 . S
O1306 Gd1270 2.427 . S
O1306 C1323 1.252 . S
O1307 Gd1271 2.307 . S
O1307 C1316 1.261 . S
O1308 Gd1270 2.388 . S
O1308 C1316 1.252 . S
O1309 Gd1270 2.386 . S
O1309 C1327 1.265 . S
O1310 Gd1271 2.353 . S
O1310 C1327 1.242 . S
O1311 Gd1271 2.468 . S
O1311 C1335 1.263 . S
O1312 Gd1271 2.427 . S
O1312 C1335 1.252 . S
O1313 Gd1270 2.307 . S
O1313 C1328 1.261 . S
O1314 Gd1271 2.388 . S
O1314 C1328 1.252 . S
C1315 O1303 1.265 . S
C1315 O1304 1.242 . S
C1316 O1307 1.261 . S
C1316 O1308 1.252 . S
C1317 C1320 1.394 . S
C1317 C1322 1.370 . S
C1317 C1323 1.500 . S
C1318 C1321 1.383 . S
C1318 C1322 1.395 . S
C1319 C1320 1.396 . S
C1319 C1321 1.365 . S
C1319 H1336 0.929 . S
C1320 C1317 1.394 . S
C1320 C1319 1.396 . S
C1320 H1337 0.930 . S
C1321 C1318 1.383 . S
C1321 C1319 1.365 . S
C1321 H1338 0.931 . S
C1322 C1317 1.370 . S
C1322 C1318 1.395 . S
C1322 H1339 0.930 . S
C1323 Gd1270 2.805 . S
C1323 O1305 1.263 . S
C1323 O1306 1.252 . S
C1323 C1317 1.500 . S
C1324 H1286 0.930 . S
C1324 C1300 1.417 . S
C1324 C1325 1.329 . S
C1325 C1295 1.437 . S
C1325 H1296 0.929 . S
C1325 C1324 1.329 . S
H1326 C1299 0.931 . S
C1327 O1309 1.265 . S
C1327 O1310 1.242 . S
C1328 O1313 1.261 . S
C1328 O1314 1.252 . S
C1329 C1332 1.394 . S
C1329 C1334 1.370 . S
C1329 C1335 1.500 . S
C1330 C1333 1.383 . S
C1330 C1334 1.395 1_556 S
C1331 C1332 1.396 1_556 S
C1331 C1333 1.365 . S
C1331 H1340 0.929 . S
C1332 C1329 1.394 . S
C1332 C1331 1.396 1_554 S
C1332 H1341 0.930 . S
C1333 C1330 1.383 . S
C1333 C1331 1.365 . S
C1333 H1342 0.931 . S
C1334 C1329 1.370 . S
C1334 C1330 1.395 1_554 S
C1334 H1343 0.930 . S
C1335 Gd1271 2.805 . S
C1335 O1311 1.263 . S
C1335 O1312 1.252 . S
C1335 C1329 1.500 . S
H1336 C1319 0.929 . S
H1337 C1320 0.930 . S
H1338 C1321 0.931 . S
H1339 C1322 0.930 . S
H1340 C1331 0.929 . S
H1341 C1332 0.930 . S
H1342 C1333 0.931 . S
H1343 C1334 0.930 . S
C1344 C1345 1.387 . S
C1344 H1348 0.950 . S
C1344 C1353 1.390 . S
C1345 C1344 1.387 . S
C1345 C1347 1.387 . S
H1346 C1353 0.950 . S
C1347 C1345 1.387 . S
C1347 C1349 1.390 . S
C1347 H1351 0.950 . S
H1348 C1344 0.950 . S
C1349 C1347 1.390 . S
C1349 C1350 1.387 . S
C1349 H1352 0.950 1_565 S
C1350 C1349 1.387 . S
C1350 C1353 1.387 . S
H1351 C1347 0.950 . S
H1352 C1349 0.950 1_545 S
C1353 C1344 1.390 . S
C1353 H1346 0.950 . S
C1353 C1350 1.387 . S
C1354 C1355 1.387 . S
C1354 H1358 0.950 . S
C1354 C1363 1.390 . S
C1355 C1354 1.387 . S
C1355 C1357 1.387 . S
H1356 C1363 0.950 1_455 S
C1357 C1355 1.387 . S
C1357 C1359 1.390 . S
C1357 H1361 0.950 . S
H1358 C1354 0.950 . S
C1359 C1357 1.390 . S
C1359 C1360 1.387 . S
C1359 H1362 0.950 . S
C1360 C1359 1.387 . S
C1360 C1363 1.387 . S
H1361 C1357 0.950 . S
H1362 C1359 0.950 . S
C1363 C1354 1.390 . S
C1363 H1356 0.950 1_655 S
C1363 C1360 1.387 . S
C1364 C1365 1.388 . S
C1364 H1368 0.944 1_545 S
C1364 C1373 1.395 . S
C1365 C1364 1.388 . S
C1365 C1367 1.387 . S
H1366 C1373 0.950 . S
C1367 C1365 1.387 . S
C1367 C1369 1.390 . S
C1367 H1371 0.950 . S
H1368 C1364 0.944 1_565 S
C1369 C1367 1.390 . S
C1369 C1370 1.387 . S
C1369 H1372 0.950 . S
C1370 C1369 1.387 . S
C1370 C1373 1.387 . S
H1371 C1367 0.950 . S
H1372 C1369 0.950 . S
C1373 C1364 1.395 . S
C1373 H1366 0.950 . S
C1373 C1370 1.387 . S
C1374 C1375 1.387 . S
C1374 H1378 0.950 1_455 S
C1374 C1383 1.390 . S
C1375 C1374 1.387 . S
C1375 C1377 1.387 . S
H1376 C1383 0.950 . S
C1377 C1375 1.387 . S
C1377 C1379 1.390 . S
C1377 H1381 0.950 . S
H1378 C1374 0.950 1_655 S
C1379 C1377 1.390 . S
C1379 C1380 1.387 . S
C1379 H1382 0.950 . S
C1380 C1379 1.387 . S
C1380 C1383 1.387 . S
H1381 C1377 0.950 . S
H1382 C1379 0.950 . S
C1383 C1374 1.390 . S
C1383 H1376 0.950 . S
C1383 C1380 1.387 . S
C1384 C1385 1.387 . S
C1384 H1388 0.950 . S
C1384 C1393 1.390 . S
C1385 C1384 1.387 . S
C1385 C1387 1.387 1_554 S
H1386 C1393 0.950 . S
C1387 C1385 1.387 1_556 S
C1387 C1389 1.390 . S
C1387 H1391 0.950 . S
H1388 C1384 0.950 . S
C1389 C1387 1.390 . S
C1389 C1390 1.387 . S
C1389 H1392 0.950 . S
C1390 C1389 1.387 . S
C1390 C1393 1.387 1_556 S
H1391 C1387 0.950 . S
H1392 C1389 0.950 . S
C1393 C1384 1.390 . S
C1393 H1386 0.950 . S
C1393 C1390 1.387 1_554 S
C1394 C1395 1.387 1_556 S
C1394 H1398 0.950 . S
C1394 C1403 1.390 . S
C1395 C1394 1.387 1_554 S
C1395 C1397 1.387 . S
H1396 C1403 0.950 . S
C1397 C1395 1.387 . S
C1397 C1399 1.390 1_554 S
C1397 H1401 0.950 . S
H1398 C1394 0.950 . S
C1399 C1397 1.390 1_556 S
C1399 C1400 1.387 . S
C1399 H1402 0.950 . S
C1400 C1399 1.387 . S
C1400 C1403 1.387 . S
H1401 C1397 0.950 . S
H1402 C1399 0.950 . S
C1403 C1394 1.390 . S
C1403 H1396 0.950 . S
C1403 C1400 1.387 . S
C1404 C1405 1.387 . S
C1404 H1408 0.950 . S
C1404 C1413 1.390 . S
C1405 C1404 1.387 . S
C1405 C1407 1.387 . S
H1406 C1413 0.950 . S
C1407 C1405 1.387 . S
C1407 C1409 1.390 1_554 S
C1407 H1411 0.950 . S
H1408 C1404 0.950 . S
C1409 C1407 1.390 1_556 S
C1409 C1410 1.387 . S
C1409 H1412 0.950 . S
C1410 C1409 1.387 . S
C1410 C1413 1.387 1_556 S
H1411 C1407 0.950 . S
H1412 C1409 0.950 . S
C1413 C1404 1.390 . S
C1413 H1406 0.950 . S
C1413 C1410 1.387 1_554 S
C1414 C1415 1.387 1_556 S
C1414 H1418 0.950 . S
C1414 C1423 1.390 . S
C1415 C1414 1.387 1_554 S
C1415 C1417 1.387 . S
H1416 C1423 0.950 . S
C1417 C1415 1.387 . S
C1417 C1419 1.390 . S
C1417 H1421 0.950 . S
H1418 C1414 0.950 . S
C1419 C1417 1.390 . S
C1419 C1420 1.387 1_554 S
C1419 H1422 0.950 . S
C1420 C1419 1.387 1_556 S
C1420 C1423 1.387 . S
H1421 C1417 0.950 . S
H1422 C1419 0.950 . S
C1423 C1414 1.390 . S
C1423 H1416 0.950 . S
C1423 C1420 1.387 . S
C1424 C1425 1.387 . S
C1424 H1428 0.950 . S
C1424 C1433 1.390 . S
C1425 C1424 1.387 . S
C1425 C1427 1.387 . S
H1426 C1433 0.950 . S
C1427 C1425 1.387 . S
C1427 C1429 1.390 . S
C1427 H1431 0.950 . S
H1428 C1424 0.950 . S
C1429 C1427 1.390 . S
C1429 C1430 1.387 . S
C1429 H1432 0.950 . S
C1430 C1429 1.387 . S
C1430 C1433 1.387 . S
H1431 C1427 0.950 . S
H1432 C1429 0.950 . S
C1433 C1424 1.390 . S
C1433 H1426 0.950 . S
C1433 C1430 1.387 . S
C1434 C1435 1.387 . S
C1434 H1438 0.950 . S
C1434 C1443 1.390 . S
C1435 C1434 1.387 . S
C1435 C1437 1.387 . S
H1436 C1443 0.950 . S
C1437 C1435 1.387 . S
C1437 C1439 1.390 . S
C1437 H1441 0.950 . S
H1438 C1434 0.950 . S
C1439 C1437 1.390 . S
C1439 C1440 1.387 . S
C1439 H1442 0.950 . S
C1440 C1439 1.387 . S
C1440 C1443 1.387 . S
H1441 C1437 0.950 . S
H1442 C1439 0.950 . S
C1443 C1434 1.390 . S
C1443 H1436 0.950 . S
C1443 C1440 1.387 . S
C1444 C1445 1.387 . S
C1444 H1448 0.950 . S
C1444 C1453 1.390 . S
C1445 C1444 1.387 . S
C1445 C1447 1.387 . S
H1446 C1453 0.950 . S
C1447 C1445 1.387 . S
C1447 C1449 1.390 . S
C1447 H1451 0.950 . S
H1448 C1444 0.950 . S
C1449 C1447 1.390 . S
C1449 C1450 1.387 . S
C1449 H1452 0.950 . S
C1450 C1449 1.387 . S
C1450 C1453 1.387 . S
H1451 C1447 0.950 . S
H1452 C1449 0.950 . S
C1453 C1444 1.390 . S
C1453 H1446 0.950 . S
C1453 C1450 1.387 . S
C1454 C1455 1.387 . S
C1454 H1458 0.950 . S
C1454 C1463 1.390 . S
C1455 C1454 1.387 . S
C1455 C1457 1.387 . S
H1456 C1463 0.950 . S
C1457 C1455 1.387 . S
C1457 C1459 1.390 . S
C1457 H1461 0.950 . S
H1458 C1454 0.950 . S
C1459 C1457 1.390 . S
C1459 C1460 1.387 . S
C1459 H1462 0.950 . S
C1460 C1459 1.387 . S
C1460 C1463 1.387 . S
H1461 C1457 0.950 . S
H1462 C1459 0.950 . S
C1463 C1454 1.390 . S
C1463 H1456 0.950 . S
C1463 C1460 1.387 . S
C1464 C1465 1.387 . S
C1464 H1468 0.950 . S
C1464 C1473 1.390 . S
C1465 C1464 1.387 . S
C1465 C1467 1.387 . S
H1466 C1473 0.950 . S
C1467 C1465 1.387 . S
C1467 C1469 1.390 . S
C1467 H1471 0.955 . S
H1468 C1464 0.950 . S
C1469 C1467 1.390 . S
C1469 C1470 1.387 . S
C1469 H1472 0.950 . S
C1470 C1469 1.387 . S
C1470 C1473 1.387 . S
H1471 C1467 0.955 . S
H1472 C1469 0.950 . S
C1473 C1464 1.390 . S
C1473 H1466 0.950 . S
C1473 C1470 1.387 . S
C1474 C1475 1.387 . S
C1474 H1478 0.950 . S
C1474 C1483 1.390 . S
C1475 C1474 1.387 . S
C1475 C1477 1.387 . S
H1476 C1483 0.950 . S
C1477 C1475 1.387 . S
C1477 C1479 1.390 . S
C1477 H1481 0.950 . S
H1478 C1474 0.950 . S
C1479 C1477 1.390 . S
C1479 C1480 1.387 . S
C1479 H1482 0.950 1_455 S
C1480 C1479 1.387 . S
C1480 C1483 1.387 . S
H1481 C1477 0.950 . S
H1482 C1479 0.950 1_655 S
C1483 C1474 1.390 . S
C1483 H1476 0.950 . S
C1483 C1480 1.387 . S
C1484 C1485 1.387 . S
C1484 H1488 0.950 . S
C1484 C1493 1.402 . S
C1485 C1484 1.387 . S
C1485 C1487 1.387 . S
H1486 C1493 0.938 1_545 S
C1487 C1485 1.387 . S
C1487 C1489 1.390 . S
C1487 H1491 0.950 . S
H1488 C1484 0.950 . S
C1489 C1487 1.390 . S
C1489 C1490 1.387 . S
C1489 H1492 0.950 . S
C1490 C1489 1.387 . S
C1490 C1493 1.388 . S
H1491 C1487 0.950 . S
H1492 C1489 0.950 . S
C1493 C1484 1.402 . S
C1493 H1486 0.938 1_565 S
C1493 C1490 1.388 . S
C1494 C1495 1.387 . S
C1494 H1498 0.950 . S
C1494 C1503 1.390 . S
C1495 C1494 1.387 . S
C1495 C1497 1.387 . S
H1496 C1503 0.950 . S
C1497 C1495 1.387 . S
C1497 C1499 1.390 . S
C1497 H1501 0.955 . S
H1498 C1494 0.950 . S
C1499 C1497 1.390 . S
C1499 C1500 1.387 . S
C1499 H1502 0.950 . S
C1500 C1499 1.387 . S
C1500 C1503 1.387 . S
H1501 C1497 0.955 . S
H1502 C1499 0.950 . S
C1503 C1494 1.390 . S
C1503 H1496 0.950 . S
C1503 C1500 1.387 . S
C1504 C1505 1.387 . S
C1504 H1508 0.950 . S
C1504 C1513 1.390 . S
C1505 C1504 1.387 . S
C1505 C1507 1.387 . S
H1506 C1513 0.950 . S
C1507 C1505 1.387 . S
C1507 C1509 1.390 . S
C1507 H1511 0.950 . S
H1508 C1504 0.950 . S
C1509 C1507 1.390 . S
C1509 C1510 1.387 . S
C1509 H1512 0.950 . S
C1510 C1509 1.387 . S
C1510 C1513 1.387 . S
H1511 C1507 0.950 . S
H1512 C1509 0.950 . S
C1513 C1504 1.390 . S
C1513 H1506 0.950 . S
C1513 C1510 1.387 . S
C1514 C1515 1.387 . S
C1514 H1518 0.950 . S
C1514 C1523 1.390 . S
C1515 C1514 1.387 . S
C1515 C1517 1.387 . S
H1516 C1523 0.950 . S
C1517 C1515 1.387 . S
C1517 C1519 1.390 . S
C1517 H1521 0.950 . S
H1518 C1514 0.950 . S
C1519 C1517 1.390 . S
C1519 C1520 1.387 . S
C1519 H1522 0.950 . S
C1520 C1519 1.387 . S
C1520 C1523 1.387 . S
H1521 C1517 0.950 . S
H1522 C1519 0.950 . S
C1523 C1514 1.390 . S
C1523 H1516 0.950 . S
C1523 C1520 1.387 . S
C1524 C1525 1.387 . S
C1524 H1528 0.950 . S
C1524 C1533 1.390 . S
C1525 C1524 1.387 . S
C1525 C1527 1.387 . S
H1526 C1533 0.950 . S
C1527 C1525 1.387 . S
C1527 C1529 1.390 . S
C1527 H1531 0.950 . S
H1528 C1524 0.950 . S
C1529 C1527 1.390 . S
C1529 C1530 1.387 . S
C1529 H1532 0.950 . S
C1530 C1529 1.387 . S
C1530 C1533 1.387 . S
H1531 C1527 0.950 . S
H1532 C1529 0.950 . S
C1533 C1524 1.390 . S
C1533 H1526 0.950 . S
C1533 C1530 1.387 . S
C1534 C1535 1.387 . S
C1534 H1538 0.950 . S
C1534 C1543 1.390 . S
C1535 C1534 1.387 . S
C1535 C1537 1.387 . S
H1536 C1543 0.950 . S
C1537 C1535 1.387 . S
C1537 C1539 1.390 . S
C1537 H1541 0.950 . S
H1538 C1534 0.950 . S
C1539 C1537 1.390 . S
C1539 C1540 1.387 . S
C1539 H1542 0.950 . S
C1540 C1539 1.387 . S
C1540 C1543 1.387 . S
H1541 C1537 0.950 . S
H1542 C1539 0.950 . S
C1543 C1534 1.390 . S
C1543 H1536 0.950 . S
C1543 C1540 1.387 . S
C1544 C1545 1.387 . S
C1544 H1548 0.950 . S
C1544 C1553 1.390 . S
C1545 C1544 1.387 . S
C1545 C1547 1.387 . S
H1546 C1553 0.950 . S
C1547 C1545 1.387 . S
C1547 C1549 1.390 . S
C1547 H1551 0.950 . S
H1548 C1544 0.950 . S
C1549 C1547 1.390 . S
C1549 C1550 1.387 . S
C1549 H1552 0.950 . S
C1550 C1549 1.387 . S
C1550 C1553 1.387 . S
H1551 C1547 0.950 . S
H1552 C1549 0.950 . S
C1553 C1544 1.390 . S
C1553 H1546 0.950 . S
C1553 C1550 1.387 . S
C1554 C1555 1.387 . S
C1554 H1558 0.950 . S
C1554 C1563 1.390 . S
C1555 C1554 1.387 . S
C1555 C1557 1.387 . S
H1556 C1563 0.950 . S
C1557 C1555 1.387 . S
C1557 C1559 1.390 . S
C1557 H1561 0.950 . S
H1558 C1554 0.950 . S
C1559 C1557 1.390 . S
C1559 C1560 1.387 . S
C1559 H1562 0.950 . S
C1560 C1559 1.387 . S
C1560 C1563 1.387 . S
H1561 C1557 0.950 . S
H1562 C1559 0.950 . S
C1563 C1554 1.390 . S
C1563 H1556 0.950 . S
C1563 C1560 1.387 . S
C1564 C1565 1.387 . S
C1564 H1568 0.950 . S
C1564 C1573 1.390 . S
C1565 C1564 1.387 . S
C1565 C1567 1.387 . S
H1566 C1573 0.950 . S
C1567 C1565 1.387 . S
C1567 C1569 1.390 . S
C1567 H1571 0.950 . S
H1568 C1564 0.950 . S
C1569 C1567 1.390 . S
C1569 C1570 1.387 . S
C1569 H1572 0.950 . S
C1570 C1569 1.387 . S
C1570 C1573 1.387 . S
H1571 C1567 0.950 . S
H1572 C1569 0.950 . S
C1573 C1564 1.390 . S
C1573 H1566 0.950 . S
C1573 C1570 1.387 . S
C1574 C1575 1.387 . S
C1574 H1578 0.950 . S
C1574 C1583 1.390 . S
C1575 C1574 1.387 . S
C1575 C1577 1.387 . S
H1576 C1583 0.950 . S
C1577 C1575 1.387 . S
C1577 C1579 1.390 . S
C1577 H1581 0.950 . S
H1578 C1574 0.950 . S
C1579 C1577 1.390 . S
C1579 C1580 1.387 . S
C1579 H1582 0.950 . S
C1580 C1579 1.387 . S
C1580 C1583 1.387 . S
H1581 C1577 0.950 . S
H1582 C1579 0.950 . S
C1583 C1574 1.390 . S
C1583 H1576 0.950 . S
C1583 C1580 1.387 . S
C1584 C1585 1.387 . S
C1584 H1588 0.950 . S
C1584 C1593 1.390 . S
C1585 C1584 1.387 . S
C1585 C1587 1.387 . S
H1586 C1593 0.950 . S
C1587 C1585 1.387 . S
C1587 C1589 1.390 . S
C1587 H1591 0.950 . S
H1588 C1584 0.950 . S
C1589 C1587 1.390 . S
C1589 C1590 1.387 . S
C1589 H1592 0.950 . S
C1590 C1589 1.387 . S
C1590 C1593 1.387 . S
H1591 C1587 0.950 . S
H1592 C1589 0.950 . S
C1593 C1584 1.390 . S
C1593 H1586 0.950 . S
C1593 C1590 1.387 . S
C1594 C1595 1.387 . S
C1594 H1598 0.950 . S
C1594 C1603 1.390 . S
C1595 C1594 1.387 . S
C1595 C1597 1.387 . S
H1596 C1603 0.950 . S
C1597 C1595 1.387 . S
C1597 C1599 1.390 . S
C1597 H1601 0.950 . S
H1598 C1594 0.950 . S
C1599 C1597 1.390 . S
C1599 C1600 1.387 . S
C1599 H1602 0.950 . S
C1600 C1599 1.387 . S
C1600 C1603 1.387 . S
H1601 C1597 0.950 . S
H1602 C1599 0.950 . S
C1603 C1594 1.390 . S
C1603 H1596 0.950 . S
C1603 C1600 1.387 . S
C1604 C1605 1.387 . S
C1604 H1608 0.950 . S
C1604 C1613 1.390 . S
C1605 C1604 1.387 . S
C1605 C1607 1.387 . S
H1606 C1613 0.950 . S
C1607 C1605 1.387 . S
C1607 C1609 1.390 . S
C1607 H1611 0.950 . S
H1608 C1604 0.950 . S
C1609 C1607 1.390 . S
C1609 C1610 1.387 . S
C1609 H1612 0.950 . S
C1610 C1609 1.387 . S
C1610 C1613 1.387 . S
H1611 C1607 0.950 . S
H1612 C1609 0.950 . S
C1613 C1604 1.390 . S
C1613 H1606 0.950 . S
C1613 C1610 1.387 . S
C1614 C1615 1.387 . S
C1614 H1618 0.950 . S
C1614 C1623 1.390 . S
C1615 C1614 1.387 . S
C1615 C1617 1.387 . S
H1616 C1623 0.950 . S
C1617 C1615 1.387 . S
C1617 C1619 1.390 . S
C1617 H1621 0.950 . S
H1618 C1614 0.950 . S
C1619 C1617 1.390 . S
C1619 C1620 1.387 . S
C1619 H1622 0.950 . S
C1620 C1619 1.387 . S
C1620 C1623 1.387 . S
H1621 C1617 0.950 . S
H1622 C1619 0.950 . S
C1623 C1614 1.390 . S
C1623 H1616 0.950 . S
C1623 C1620 1.387 . S
C1624 C1625 1.387 . S
C1624 H1628 0.950 . S
C1624 C1633 1.390 . S
C1625 C1624 1.387 . S
C1625 C1627 1.387 . S
H1626 C1633 0.950 . S
C1627 C1625 1.387 . S
C1627 C1629 1.390 . S
C1627 H1631 0.950 . S
H1628 C1624 0.950 . S
C1629 C1627 1.390 . S
C1629 C1630 1.387 . S
C1629 H1632 0.950 . S
C1630 C1629 1.387 . S
C1630 C1633 1.387 . S
H1631 C1627 0.950 . S
H1632 C1629 0.950 . S
C1633 C1624 1.390 . S
C1633 H1626 0.950 . S
C1633 C1630 1.387 . S
C1634 C1635 1.387 . S
C1634 H1638 0.950 . S
C1634 C1643 1.390 . S
C1635 C1634 1.387 . S
C1635 C1637 1.387 . S
H1636 C1643 0.950 . S
C1637 C1635 1.387 . S
C1637 C1639 1.390 . S
C1637 H1641 0.950 . S
H1638 C1634 0.950 . S
C1639 C1637 1.390 . S
C1639 C1640 1.387 . S
C1639 H1642 0.950 . S
C1640 C1639 1.387 . S
C1640 C1643 1.387 . S
H1641 C1637 0.950 . S
H1642 C1639 0.950 . S
C1643 C1634 1.390 . S
C1643 H1636 0.950 . S
C1643 C1640 1.387 . S
C1644 C1645 1.387 . S
C1644 H1648 0.950 . S
C1644 C1653 1.390 . S
C1645 C1644 1.387 . S
C1645 C1647 1.387 . S
H1646 C1653 0.950 . S
C1647 C1645 1.387 . S
C1647 C1649 1.390 . S
C1647 H1651 0.950 . S
H1648 C1644 0.950 . S
C1649 C1647 1.390 . S
C1649 C1650 1.387 . S
C1649 H1652 0.950 . S
C1650 C1649 1.387 . S
C1650 C1653 1.387 . S
H1651 C1647 0.950 . S
H1652 C1649 0.950 . S
C1653 C1644 1.390 . S
C1653 H1646 0.950 . S
C1653 C1650 1.387 . S
C1654 C1655 1.387 . S
C1654 H1658 0.950 . S
C1654 C1663 1.390 . S
C1655 C1654 1.387 . S
C1655 C1657 1.387 . S
H1656 C1663 0.950 . S
C1657 C1655 1.387 . S
C1657 C1659 1.390 . S
C1657 H1661 0.950 . S
H1658 C1654 0.950 . S
C1659 C1657 1.390 . S
C1659 C1660 1.387 . S
C1659 H1662 0.950 . S
C1660 C1659 1.387 . S
C1660 C1663 1.387 . S
H1661 C1657 0.950 . S
H1662 C1659 0.950 . S
C1663 C1654 1.390 . S
C1663 H1656 0.950 . S
C1663 C1660 1.387 . S
C1664 C1665 1.387 . S
C1664 H1668 0.950 . S
C1664 C1673 1.390 . S
C1665 C1664 1.387 . S
C1665 C1667 1.387 . S
H1666 C1673 0.950 . S
C1667 C1665 1.387 . S
C1667 C1669 1.390 . S
C1667 H1671 0.950 . S
H1668 C1664 0.950 . S
C1669 C1667 1.390 . S
C1669 C1670 1.387 . S
C1669 H1672 0.950 . S
C1670 C1669 1.387 . S
C1670 C1673 1.387 . S
H1671 C1667 0.950 . S
H1672 C1669 0.950 . S
C1673 C1664 1.390 . S
C1673 H1666 0.950 . S
C1673 C1670 1.387 . S
C1674 C1675 1.387 . S
C1674 H1678 0.950 . S
C1674 C1683 1.390 . S
C1675 C1674 1.387 . S
C1675 C1677 1.387 . S
H1676 C1683 0.950 . S
C1677 C1675 1.387 . S
C1677 C1679 1.390 . S
C1677 H1681 0.950 . S
H1678 C1674 0.950 . S
C1679 C1677 1.390 . S
C1679 C1680 1.387 . S
C1679 H1682 0.950 . S
C1680 C1679 1.387 . S
C1680 C1683 1.387 . S
H1681 C1677 0.950 . S
H1682 C1679 0.950 . S
C1683 C1674 1.390 . S
C1683 H1676 0.950 . S
C1683 C1680 1.387 . S
C1684 C1685 1.387 . S
C1684 H1688 0.950 . S
C1684 C1693 1.390 . S
C1685 C1684 1.387 . S
C1685 C1687 1.387 . S
H1686 C1693 0.950 . S
C1687 C1685 1.387 . S
C1687 C1689 1.390 . S
C1687 H1691 0.950 . S
H1688 C1684 0.950 . S
C1689 C1687 1.390 . S
C1689 C1690 1.387 . S
C1689 H1692 0.950 . S
C1690 C1689 1.387 . S
C1690 C1693 1.387 . S
H1691 C1687 0.950 . S
H1692 C1689 0.950 . S
C1693 C1684 1.390 . S
C1693 H1686 0.950 . S
C1693 C1690 1.387 . S
C1694 C1695 1.387 . S
C1694 H1698 0.950 . S
C1694 C1703 1.390 . S
C1695 C1694 1.387 . S
C1695 C1697 1.387 . S
H1696 C1703 0.950 . S
C1697 C1695 1.387 . S
C1697 C1699 1.390 . S
C1697 H1701 0.950 . S
H1698 C1694 0.950 . S
C1699 C1697 1.390 . S
C1699 C1700 1.387 . S
C1699 H1702 0.950 . S
C1700 C1699 1.387 . S
C1700 C1703 1.387 . S
H1701 C1697 0.950 . S
H1702 C1699 0.950 . S
C1703 C1694 1.390 . S
C1703 H1696 0.950 . S
C1703 C1700 1.387 . S
C1704 C1705 1.387 . S
C1704 H1708 0.950 . S
C1704 C1713 1.390 . S
C1705 C1704 1.387 . S
C1705 C1707 1.387 . S
H1706 C1713 0.950 . S
C1707 C1705 1.387 . S
C1707 C1709 1.390 . S
C1707 H1711 0.950 . S
H1708 C1704 0.950 . S
C1709 C1707 1.390 . S
C1709 C1710 1.387 . S
C1709 H1712 0.950 . S
C1710 C1709 1.387 . S
C1710 C1713 1.387 . S
H1711 C1707 0.950 . S
H1712 C1709 0.950 . S
C1713 C1704 1.390 . S
C1713 H1706 0.950 . S
C1713 C1710 1.387 . S
C1714 C1715 1.387 . S
C1714 H1718 0.950 . S
C1714 C1723 1.390 . S
C1715 C1714 1.387 . S
C1715 C1717 1.387 . S
H1716 C1723 0.950 . S
C1717 C1715 1.387 . S
C1717 C1719 1.390 . S
C1717 H1721 0.950 . S
H1718 C1714 0.950 . S
C1719 C1717 1.390 . S
C1719 C1720 1.387 . S
C1719 H1722 0.950 . S
C1720 C1719 1.387 . S
C1720 C1723 1.387 . S
H1721 C1717 0.950 . S
H1722 C1719 0.950 . S
C1723 C1714 1.390 . S
C1723 H1716 0.950 . S
C1723 C1720 1.387 . S
C1724 C1725 1.387 . S
C1724 H1728 0.950 . S
C1724 C1733 1.390 . S
C1725 C1724 1.387 . S
C1725 C1727 1.387 . S
H1726 C1733 0.950 . S
C1727 C1725 1.387 . S
C1727 C1729 1.390 . S
C1727 H1731 0.950 . S
H1728 C1724 0.950 . S
C1729 C1727 1.390 . S
C1729 C1730 1.387 . S
C1729 H1732 0.950 . S
C1730 C1729 1.387 . S
C1730 C1733 1.387 . S
H1731 C1727 0.950 . S
H1732 C1729 0.950 . S
C1733 C1724 1.390 . S
C1733 H1726 0.950 . S
C1733 C1730 1.387 . S
C1734 C1735 1.387 . S
C1734 H1738 0.950 . S
C1734 C1743 1.390 . S
C1735 C1734 1.387 . S
C1735 C1737 1.387 . S
H1736 C1743 0.950 . S
C1737 C1735 1.387 . S
C1737 C1739 1.390 . S
C1737 H1741 0.950 . S
H1738 C1734 0.950 . S
C1739 C1737 1.390 . S
C1739 C1740 1.387 . S
C1739 H1742 0.950 . S
C1740 C1739 1.387 . S
C1740 C1743 1.387 . S
H1741 C1737 0.950 . S
H1742 C1739 0.950 . S
C1743 C1734 1.390 . S
C1743 H1736 0.950 . S
C1743 C1740 1.387 . S
C1744 C1745 1.387 . S
C1744 H1748 0.950 . S
C1744 C1753 1.390 . S
C1745 C1744 1.387 . S
C1745 C1747 1.387 . S
H1746 C1753 0.950 . S
C1747 C1745 1.387 . S
C1747 C1749 1.390 . S
C1747 H1751 0.950 . S
H1748 C1744 0.950 . S
C1749 C1747 1.390 . S
C1749 C1750 1.387 . S
C1749 H1752 0.950 . S
C1750 C1749 1.387 . S
C1750 C1753 1.387 . S
H1751 C1747 0.950 . S
H1752 C1749 0.950 . S
C1753 C1744 1.390 . S
C1753 H1746 0.950 . S
C1753 C1750 1.387 . S
C1754 C1755 1.387 . S
C1754 H1758 0.950 . S
C1754 C1763 1.390 . S
C1755 C1754 1.387 . S
C1755 C1757 1.387 . S
H1756 C1763 0.950 . S
C1757 C1755 1.387 . S
C1757 C1759 1.390 . S
C1757 H1761 0.950 . S
H1758 C1754 0.950 . S
C1759 C1757 1.390 . S
C1759 C1760 1.387 . S
C1759 H1762 0.950 . S
C1760 C1759 1.387 . S
C1760 C1763 1.387 . S
H1761 C1757 0.950 . S
H1762 C1759 0.950 . S
C1763 C1754 1.390 . S
C1763 H1756 0.950 . S
C1763 C1760 1.387 . S
C1764 C1765 1.387 . S
C1764 H1768 0.950 . S
C1764 C1773 1.390 . S
C1765 C1764 1.387 . S
C1765 C1767 1.387 . S
H1766 C1773 0.950 . S
C1767 C1765 1.387 . S
C1767 C1769 1.390 . S
C1767 H1771 0.950 . S
H1768 C1764 0.950 . S
C1769 C1767 1.390 . S
C1769 C1770 1.387 . S
C1769 H1772 0.950 . S
C1770 C1769 1.387 . S
C1770 C1773 1.387 . S
H1771 C1767 0.950 . S
H1772 C1769 0.950 . S
C1773 C1764 1.390 . S
C1773 H1766 0.950 . S
C1773 C1770 1.387 . S
C1774 C1775 1.387 . S
C1774 H1778 0.950 . S
C1774 C1783 1.390 . S
C1775 C1774 1.387 . S
C1775 C1777 1.387 . S
H1776 C1783 0.950 . S
C1777 C1775 1.387 . S
C1777 C1779 1.390 . S
C1777 H1781 0.950 . S
H1778 C1774 0.950 . S
C1779 C1777 1.390 . S
C1779 C1780 1.387 . S
C1779 H1782 0.950 . S
C1780 C1779 1.387 . S
C1780 C1783 1.387 . S
H1781 C1777 0.950 . S
H1782 C1779 0.950 . S
C1783 C1774 1.390 . S
C1783 H1776 0.950 . S
C1783 C1780 1.387 . S
C1784 C1785 1.387 . S
C1784 H1788 0.950 . S
C1784 C1793 1.390 . S
C1785 C1784 1.387 . S
C1785 C1787 1.387 . S
H1786 C1793 0.950 . S
C1787 C1785 1.387 . S
C1787 C1789 1.390 . S
C1787 H1791 0.950 . S
H1788 C1784 0.950 . S
C1789 C1787 1.390 . S
C1789 C1790 1.387 . S
C1789 H1792 0.950 . S
C1790 C1789 1.387 . S
C1790 C1793 1.387 . S
H1791 C1787 0.950 . S
H1792 C1789 0.950 . S
C1793 C1784 1.390 . S
C1793 H1786 0.950 . S
C1793 C1790 1.387 . S
C1794 C1795 1.387 . S
C1794 H1798 0.950 . S
C1794 C1803 1.390 . S
C1795 C1794 1.387 . S
C1795 C1797 1.387 . S
H1796 C1803 0.950 . S
C1797 C1795 1.387 . S
C1797 C1799 1.390 . S
C1797 H1801 0.950 . S
H1798 C1794 0.950 . S
C1799 C1797 1.390 . S
C1799 C1800 1.387 . S
C1799 H1802 0.950 . S
C1800 C1799 1.387 . S
C1800 C1803 1.387 . S
H1801 C1797 0.950 . S
H1802 C1799 0.950 . S
C1803 C1794 1.390 . S
C1803 H1796 0.950 . S
C1803 C1800 1.387 . S
C1804 C1805 1.387 . S
C1804 H1808 0.950 . S
C1804 C1813 1.390 . S
C1805 C1804 1.387 . S
C1805 C1807 1.387 . S
H1806 C1813 0.950 . S
C1807 C1805 1.387 . S
C1807 C1809 1.390 . S
C1807 H1811 0.950 . S
H1808 C1804 0.950 . S
C1809 C1807 1.390 . S
C1809 C1810 1.387 . S
C1809 H1812 0.950 . S
C1810 C1809 1.387 . S
C1810 C1813 1.387 . S
H1811 C1807 0.950 . S
H1812 C1809 0.950 . S
C1813 C1804 1.390 . S
C1813 H1806 0.950 . S
C1813 C1810 1.387 . S
C1814 C1815 1.387 . S
C1814 H1818 0.950 . S
C1814 C1823 1.390 . S
C1815 C1814 1.387 . S
C1815 C1817 1.387 . S
H1816 C1823 0.950 . S
C1817 C1815 1.387 . S
C1817 C1819 1.390 . S
C1817 H1821 0.950 . S
H1818 C1814 0.950 . S
C1819 C1817 1.390 . S
C1819 C1820 1.387 . S
C1819 H1822 0.950 . S
C1820 C1819 1.387 . S
C1820 C1823 1.387 . S
H1821 C1817 0.950 . S
H1822 C1819 0.950 . S
C1823 C1814 1.390 . S
C1823 H1816 0.950 . S
C1823 C1820 1.387 . S
C1345 C979 1.695 . S
C1350 C56 1.687 1_565 S
C1355 C739 1.696 . S
C1360 C152 1.686 1_655 S
C1365 C224 1.686 1_545 S
C1370 C811 1.695 . S
C1375 C320 1.686 1_455 S
C1380 C907 1.695 . S
C1385 C392 1.687 . S
C1390 C475 1.695 . S
C1395 C571 1.696 . S
C1400 C488 1.686 . S
C1405 C560 1.687 . S
C1410 C643 1.696 . S
C1415 C403 1.696 . S
C1420 C656 1.686 . S
C1425 C307 1.696 . S
C1430 C728 1.686 . S
C1435 C824 1.686 . S
C1440 C67 1.696 . S
C1445 C139 1.695 . S
C1450 C896 1.687 . S
C1455 C235 1.695 . S
C1460 C992 1.686 . S
C1465 C1064 1.686 1_545 S
C1470 C1147 1.696 . S
C1475 C1243 1.696 . S
C1480 C1160 1.686 1_455 S
C1485 C1315 1.695 . S
C1490 C1232 1.686 1_565 S
C1495 C1328 1.686 1_655 S
C1500 C1075 1.695 . S
C1505 C68 1.383 . S
C1510 C404 1.383 . S
C1515 C476 1.383 . S
C1520 C140 1.383 . S
C1525 C236 1.383 . S
C1530 C572 1.383 . S
C1535 C308 1.389 . S
C1540 C644 1.389 . S
C1545 C740 1.389 . S
C1550 C1076 1.389 . S
C1555 C1148 1.389 . S
C1560 C812 1.389 . S
C1565 C908 1.383 . S
C1570 C1244 1.383 . S
C1575 C980 1.389 . S
C1580 C1316 1.389 . S
C1585 C1231 2.415 . S
C1590 C55 2.415 1_556 S
C1595 C151 2.417 1_554 S
C1600 C1327 2.417 . S
C1605 C223 2.415 1_556 S
C1610 C1063 2.415 . S
C1615 C319 2.415 1_554 S
C1620 C1159 2.415 . S
C1625 C391 2.415 . S
C1630 C895 2.415 . S
C1635 C487 2.415 . S
C1640 C991 2.415 . S
C1645 C559 2.415 . S
C1650 C727 2.415 . S
C1655 C823 2.417 . S
C1660 C655 2.417 . S
C1665 C70 1.216 . S
C1670 C58 1.216 . S
C1675 C142 1.216 . S
C1680 C154 1.216 . S
C1685 C238 1.209 . S
C1690 C226 1.209 . S
C1695 C322 1.215 . S
C1700 C310 1.215 . S
C1705 C394 1.211 . S
C1710 C406 1.211 . S
C1715 C478 1.209 . S
C1720 C490 1.209 . S
C1725 C574 1.212 . S
C1730 C562 1.212 . S
C1735 C658 1.216 . S
C1740 C646 1.216 . S
C1745 C742 1.214 . S
C1750 C730 1.214 . S
C1755 C826 1.210 . S
C1760 C814 1.210 . S
C1765 C898 1.209 . S
C1770 C910 1.209 . S
C1775 C982 1.209 . S
C1780 C994 1.209 . S
C1785 C1078 1.212 . S
C1790 C1066 1.212 . S
C1795 C1162 1.215 . S
C1800 C1150 1.215 . S
C1805 C1234 1.209 . S
C1810 C1246 1.209 . S
C1815 C1318 1.216 . S
C1820 C1330 1.216 . S
