# Generated by pormake.
# Topology dft, (4)-cn, num edge types: 1
# Building blocks:
#     Node 0, Type 0, BuildingBlock: ICAMEG_clean_sbu_1, # of connection points: 4
#     Node 1, Type 0, BuildingBlock: ICAMEG_clean_sbu_1, # of connection points: 4
#     Node 2, Type 0, BuildingBlock: ICAMEG_clean_sbu_1, # of connection points: 4
#     Node 3, Type 0, BuildingBlock: ICAMEG_clean_sbu_1, # of connection points: 4
#     Node 4, Type 0, BuildingBlock: ICAMEG_clean_sbu_1, # of connection points: 4
#     Node 5, Type 0, BuildingBlock: ICAMEG_clean_sbu_1, # of connection points: 4
#     Node 6, Type 0, BuildingBlock: ICAMEG_clean_sbu_1, # of connection points: 4
#     Node 7, Type 0, BuildingBlock: ICAMEG_clean_sbu_1, # of connection points: 4
#     Edge 8, Type (0, 0), BuildingBlock: OJICUG_clean_linker_0, # of connection points: 2
#     Edge 9, Type (0, 0), BuildingBlock: OJICUG_clean_linker_0, # of connection points: 2
#     Edge 10, Type (0, 0), BuildingBlock: OJICUG_clean_linker_0, # of connection points: 2
#     Edge 11, Type (0, 0), BuildingBlock: OJICUG_clean_linker_0, # of connection points: 2
#     Edge 12, Type (0, 0), BuildingBlock: OJICUG_clean_linker_0, # of connection points: 2
#     Edge 13, Type (0, 0), BuildingBlock: OJICUG_clean_linker_0, # of connection points: 2
#     Edge 14, Type (0, 0), BuildingBlock: OJICUG_clean_linker_0, # of connection points: 2
#     Edge 15, Type (0, 0), BuildingBlock: OJICUG_clean_linker_0, # of connection points: 2
#     Edge 16, Type (0, 0), BuildingBlock: OJICUG_clean_linker_0, # of connection points: 2
#     Edge 17, Type (0, 0), BuildingBlock: OJICUG_clean_linker_0, # of connection points: 2
#     Edge 18, Type (0, 0), BuildingBlock: OJICUG_clean_linker_0, # of connection points: 2
#     Edge 19, Type (0, 0), BuildingBlock: OJICUG_clean_linker_0, # of connection points: 2
#     Edge 20, Type (0, 0), BuildingBlock: OJICUG_clean_linker_0, # of connection points: 2
#     Edge 21, Type (0, 0), BuildingBlock: OJICUG_clean_linker_0, # of connection points: 2
#     Edge 22, Type (0, 0), BuildingBlock: OJICUG_clean_linker_0, # of connection points: 2
#     Edge 23, Type (0, 0), BuildingBlock: OJICUG_clean_linker_0, # of connection points: 2
# Relax obj value: 0.222
# Max RMSD: 0.218
# Mean RMSD: 0.218
data_MOF--net-dft--node1-ICAMEG_clean_sbu_1--edge1-OJICUG_clean_linker_0
_symmetry_space_group_name_H-M    P1
_symmetry_Int_Tables_number       1
_symmetry_cell_setting            triclinic
loop_
_symmetry_equiv_pos_as_xyz
'x, y, z'
_cell_length_a     25.457865
_cell_length_b     25.435207
_cell_length_c     35.740444
_cell_angle_alpha  90.002534
_cell_angle_beta   89.9988
_cell_angle_gamma 90.001473
loop_
_atom_site_label
_atom_site_type_symbol
_atom_site_fract_x
_atom_site_fract_y
_atom_site_fract_z
_atom_type_partial_charge
Co0 Co 0.26144 0.09923 0.14193 0.0
Co1 Co 0.35211 0.06644 0.20855 0.0
O2 O 0.33254 0.07497 0.15525 0.0
C3 C 0.29737 0.03545 0.07649 0.0
O4 O 0.34114 0.0214 0.09309 0.0
C5 C 0.45466 0.08824 0.16718 0.0
O6 O 0.42997 0.09688 0.13563 0.0
O7 O 0.33943 0.14314 0.21581 0.0
O8 O 0.26124 0.14726 0.18652 0.0
H9 H 0.32733 0.09235 0.34701 0.0
H10 H 0.35682 0.11678 0.09309 0.0
O11 O 0.25964 0.0546 0.09551 0.0
H12 H 0.26261 0.28537 0.09303 0.0
H13 H 0.10906 0.14633 0.05769 0.0
H14 H 0.16632 0.1167 0.18774 0.0
H15 H 0.22831 0.21038 0.1286 0.0
H16 H 0.20178 0.12671 0.07185 0.0
O17 O 0.42893 0.07945 0.19716 0.0
H18 H 0.30356 0.09961 0.28044 0.0
H19 H 0.44213 0.01734 0.24958 0.0
H20 H 0.07347 0.13684 0.17489 0.0
H21 H 0.39199 0.19017 0.05679 0.0
H22 H 0.04409 0.15147 0.10946 0.0
H23 H 0.34496 0.27568 0.05644 0.0
O24 O 0.23187 0.03952 0.17133 0.0
H25 H 0.41577 0.90519 0.13996 0.0
H26 H 0.32092 0.97033 0.25084 0.0
H27 H 0.3315 0.87505 0.24172 0.0
H28 H 0.3794 0.84177 0.18601 0.0
H29 H 0.40381 0.99998 0.14993 0.0
H30 H 0.46762 0.0096 0.31582 0.0
H31 H 0.40999 0.04714 0.36513 0.0
O32 O 0.2775 0.05182 0.22361 0.0
C33 C 0.29688 0.16729 0.20743 0.0
C34 C 0.35294 0.07608 0.32579 0.0
C35 C 0.43168 0.0297 0.30828 0.0
N36 N 0.37175 0.05979 0.26095 0.0
C37 C 0.33975 0.08023 0.28798 0.0
C38 C 0.41719 0.03459 0.27074 0.0
C39 C 0.3993 0.0507 0.33593 0.0
C40 C 0.33555 0.15305 0.09317 0.0
N41 N 0.28988 0.15814 0.11294 0.0
C42 C 0.35594 0.19493 0.07248 0.0
C43 C 0.3296 0.24286 0.0723 0.0
C44 C 0.28346 0.24829 0.0928 0.0
C45 C 0.26425 0.20545 0.11305 0.0
C46 C 0.12132 0.13992 0.08632 0.0
C47 C 0.15412 0.12358 0.1592 0.0
C48 C 0.17375 0.12841 0.09448 0.0
N49 N 0.18962 0.12032 0.13059 0.0
C50 C 0.10136 0.13484 0.15209 0.0
C51 C 0.08491 0.14292 0.11537 0.0
C52 C 0.23861 0.03217 0.20622 0.0
C53 C 0.39506 0.91919 0.16446 0.0
C54 C 0.34187 0.95639 0.22649 0.0
C55 C 0.34772 0.90226 0.2215 0.0
C56 C 0.37459 0.88362 0.19026 0.0
N57 N 0.36233 0.99121 0.20118 0.0
C58 C 0.38839 0.97307 0.17037 0.0
Co59 Co 0.03541 0.26227 0.64126 0.0
Co60 Co 0.06584 0.35208 0.709 0.0
O61 O 0.05878 0.33342 0.65541 0.0
C62 C 0.0994 0.29997 0.57645 0.0
O63 O 0.11266 0.34384 0.59331 0.0
C64 C 0.0447 0.45524 0.66822 0.0
O65 O 0.03602 0.43078 0.63659 0.0
O66 O 0.98909 0.33881 0.7151 0.0
O67 O 0.98663 0.26082 0.68539 0.0
H68 H 0.03579 0.32447 0.84674 0.0
H69 H 0.01758 0.35856 0.59322 0.0
O70 O 0.08088 0.26168 0.59525 0.0
H71 H 0.8503 0.26234 0.59059 0.0
H72 H 0.99121 0.11074 0.55533 0.0
H73 H 0.01823 0.16607 0.6861 0.0
H74 H 0.92499 0.22807 0.6264 0.0
H75 H 0.00946 0.20351 0.57049 0.0
O76 O 0.05296 0.42919 0.69815 0.0
H77 H 0.03071 0.30199 0.77985 0.0
H78 H 0.11339 0.44153 0.75169 0.0
H79 H 0.99925 0.07315 0.67227 0.0
H80 H 0.94452 0.39371 0.55668 0.0
H81 H 0.98603 0.04475 0.60647 0.0
H82 H 0.85966 0.34567 0.55502 0.0
O83 O 0.09484 0.23284 0.67097 0.0
H84 H 0.22833 0.41755 0.643 0.0
H85 H 0.16091 0.32097 0.75245 0.0
H86 H 0.25625 0.33234 0.74471 0.0
H87 H 0.29067 0.38114 0.68974 0.0
H88 H 0.13343 0.40478 0.65158 0.0
H89 H 0.11893 0.46577 0.8183 0.0
H90 H 0.08009 0.40699 0.86641 0.0
O91 O 0.08049 0.27719 0.72354 0.0
C92 C 0.96571 0.29596 0.7063 0.0
C93 C 0.05265 0.35057 0.82605 0.0
C94 C 0.09923 0.42987 0.81007 0.0
N95 N 0.07091 0.37072 0.76168 0.0
C96 C 0.04975 0.3381 0.78805 0.0
C97 C 0.09559 0.4161 0.77233 0.0
C98 C 0.07751 0.39685 0.83706 0.0
C99 C 0.98162 0.33685 0.59276 0.0
N100 N 0.97674 0.29065 0.61198 0.0
C101 C 0.93991 0.35723 0.57192 0.0
C102 C 0.89234 0.33033 0.57102 0.0
C103 C 0.8871 0.28365 0.59095 0.0
C104 C 0.92976 0.26448 0.61137 0.0
C105 C 0.99707 0.12257 0.58412 0.0
C106 C 0.01194 0.15428 0.65741 0.0
C107 C 0.00785 0.17502 0.59284 0.0
N108 N 0.01526 0.19035 0.62914 0.0
C109 C 1.00134 0.10149 0.64975 0.0
C110 C 0.99403 0.08559 0.61282 0.0
C111 C 0.10134 0.23903 0.70599 0.0
C112 C 0.21382 0.39647 0.66719 0.0
C113 C 0.17534 0.34231 0.72841 0.0
C114 C 0.22951 0.34861 0.72421 0.0
C115 C 0.24879 0.37597 0.69339 0.0
N116 N 0.14111 0.36283 0.70274 0.0
C117 C 0.15989 0.38934 0.67231 0.0
Co118 Co 0.87234 0.03577 0.14239 0.0
Co119 Co 0.78162 0.06974 0.20873 0.0
O120 O 0.80128 0.06038 0.15551 0.0
C121 C 0.83678 0.09916 0.07662 0.0
O122 O 0.79302 0.11343 0.09314 0.0
C123 C 0.67914 0.0472 0.16746 0.0
O124 O 0.7039 0.03784 0.13604 0.0
O125 O 0.79418 0.99313 0.21661 0.0
O126 O 0.87232 0.98831 0.18728 0.0
H127 H 0.8061 0.0462 0.34744 0.0
H128 H 0.77715 0.01806 0.09339 0.0
O129 O 0.87434 0.0798 0.09569 0.0
H130 H 0.87051 0.84899 0.09482 0.0
H131 H 0.02461 0.98711 0.05851 0.0
H132 H 0.96734 0.01848 0.18835 0.0
H133 H 0.90496 0.92431 0.12998 0.0
H134 H 0.93197 0.00734 0.07249 0.0
O135 O 0.70482 0.05664 0.19737 0.0
H136 H 0.83003 0.03784 0.28096 0.0
H137 H 0.69154 0.11954 0.24923 0.0
H138 H 0.0601 0.99779 0.17567 0.0
H139 H 0.74183 0.94433 0.0575 0.0
H140 H 0.08949 0.98226 0.11034 0.0
H141 H 0.78844 0.85858 0.0579 0.0
O142 O 0.90209 0.09574 0.17145 0.0
H143 H 0.718 0.22992 0.1389 0.0
H144 H 0.81301 0.16647 0.25021 0.0
H145 H 0.80248 0.26161 0.24034 0.0
H146 H 0.7545 0.29404 0.18441 0.0
H147 H 0.7299 0.13528 0.14962 0.0
H148 H 0.66588 0.12841 0.31537 0.0
H149 H 0.72338 0.09171 0.36507 0.0
O150 O 0.85622 0.08446 0.22375 0.0
C151 C 0.83664 0.96872 0.20836 0.0
C152 C 0.78053 0.0621 0.32605 0.0
C153 C 0.70184 0.10817 0.30805 0.0
N154 N 0.76187 0.07726 0.26105 0.0
C155 C 0.79381 0.0573 0.28829 0.0
C156 C 0.71641 0.10264 0.27057 0.0
C157 C 0.73415 0.08765 0.33592 0.0
C158 C 0.79824 0.98167 0.09379 0.0
N159 N 0.84375 0.97662 0.11375 0.0
C160 C 0.77777 0.93961 0.07333 0.0
C161 C 0.80386 0.89155 0.07358 0.0
C162 C 0.84985 0.88617 0.09426 0.0
C163 C 0.86915 0.9292 0.11427 0.0
C164 C 0.01235 0.9939 0.0871 0.0
C165 C 0.97954 0.01122 0.15986 0.0
C166 C 0.95995 0.00573 0.09516 0.0
N167 N 0.94409 0.0143 0.13121 0.0
C168 C 0.03225 0.99964 0.15285 0.0
C169 C 0.04871 0.99106 0.11618 0.0
C170 C 0.89531 0.10357 0.20628 0.0
C171 C 0.73875 0.2163 0.16349 0.0
C172 C 0.79204 0.18004 0.22576 0.0
C173 C 0.78621 0.23409 0.22035 0.0
C174 C 0.7593 0.25225 0.18899 0.0
N175 N 0.7715 0.14484 0.20075 0.0
C176 C 0.7454 0.16251 0.16982 0.0
Co177 Co 0.0996 0.87222 0.64175 0.0
Co178 Co 0.06861 0.78229 0.70929 0.0
O179 O 0.076 0.80108 0.65574 0.0
C180 C 0.03577 0.83488 0.57674 0.0
O181 O 0.02237 0.79097 0.59349 0.0
C182 C 0.08985 0.67921 0.66843 0.0
O183 O 0.0988 0.70374 0.63686 0.0
O184 O 0.14536 0.79539 0.71563 0.0
O185 O 0.14817 0.87342 0.68599 0.0
H186 H 0.09782 0.80948 0.84717 0.0
H187 H 0.11739 0.77604 0.59358 0.0
O188 O 0.05434 0.87305 0.59564 0.0
H189 H 0.28492 0.87187 0.59149 0.0
H190 H 0.14457 0.02389 0.55616 0.0
H191 H 0.11676 0.96824 0.68677 0.0
H192 H 0.21017 0.90618 0.62722 0.0
H193 H 0.12605 0.93112 0.57114 0.0
O194 O 0.08141 0.70519 0.69837 0.0
H195 H 0.10335 0.83215 0.78033 0.0
H196 H 0.02068 0.69279 0.7517 0.0
H197 H 0.136 0.06116 0.67313 0.0
H198 H 0.19053 0.74086 0.55712 0.0
H199 H 0.14963 0.08972 0.60741 0.0
H200 H 0.27551 0.7887 0.55574 0.0
O201 O 0.04009 0.9017 0.67136 0.0
H202 H 0.9064 0.71727 0.64274 0.0
H203 H 0.97335 0.81349 0.7525 0.0
H204 H 0.87804 0.80231 0.74446 0.0
H205 H 0.84385 0.7537 0.68934 0.0
H206 H 1.00127 0.72984 0.65161 0.0
H207 H 0.01468 0.66837 0.81825 0.0
H208 H 0.0533 0.72695 0.86657 0.0
O209 O 0.05403 0.85717 0.7239 0.0
C210 C 0.16891 0.83817 0.70689 0.0
C211 C 0.08107 0.78346 0.82638 0.0
C212 C 0.03448 0.70426 0.81014 0.0
N213 N 0.0632 0.76351 0.76193 0.0
C214 C 0.08423 0.79603 0.78842 0.0
C215 C 0.03838 0.71814 0.77243 0.0
C216 C 0.05608 0.73718 0.83724 0.0
C217 C 0.15341 0.79767 0.59323 0.0
N218 N 0.15832 0.84379 0.61255 0.0
C219 C 0.19516 0.77727 0.57244 0.0
C220 C 0.2428 0.80405 0.57169 0.0
C221 C 0.24807 0.85065 0.59173 0.0
C222 C 0.20536 0.86985 0.6121 0.0
C223 C 0.13854 0.01199 0.58492 0.0
C224 C 0.12322 0.9801 0.65812 0.0
C225 C 0.1276 0.95954 0.59353 0.0
N226 N 0.11997 0.94412 0.62978 0.0
C227 C 0.13397 0.03289 0.65056 0.0
C228 C 0.14151 0.04888 0.61367 0.0
C229 C 0.0334 0.89544 0.70636 0.0
C230 C 0.9208 0.73827 0.667 0.0
C231 C 0.95902 0.79223 0.72839 0.0
C232 C 0.90487 0.78604 0.72402 0.0
C233 C 0.88572 0.75878 0.69311 0.0
N234 N 0.99336 0.7717 0.7028 0.0
C235 C 0.97472 0.74529 0.67228 0.0
Co236 Co 0.26176 0.03512 0.85554 0.0
Co237 Co 0.35251 0.06887 0.78921 0.0
O238 O 0.33282 0.05971 0.84243 0.0
C239 C 0.29734 0.0985 0.92129 0.0
O240 O 0.34107 0.11284 0.90476 0.0
C241 C 0.45501 0.04685 0.83059 0.0
O242 O 0.43029 0.03793 0.86209 0.0
O243 O 0.34002 0.99221 0.78148 0.0
O244 O 0.26181 0.98755 0.81071 0.0
H245 H 0.32815 0.04472 0.65054 0.0
H246 H 0.357 0.01744 0.90449 0.0
O247 O 0.25974 0.07925 0.9022 0.0
H248 H 0.26346 0.84847 0.9034 0.0
H249 H 0.10939 0.98649 0.93936 0.0
H250 H 0.1668 0.01785 0.80954 0.0
H251 H 0.22903 0.92371 0.86815 0.0
H252 H 0.20206 0.0067 0.92541 0.0
O253 O 0.4293 0.05587 0.80063 0.0
H254 H 0.30419 0.03661 0.71702 0.0
H255 H 0.44261 0.11855 0.74863 0.0
H256 H 0.07402 0.99719 0.82218 0.0
H257 H 0.3923 0.94379 0.94046 0.0
H258 H 0.04456 0.98165 0.88749 0.0
H259 H 0.34559 0.8581 0.94024 0.0
O260 O 0.23207 0.09505 0.8264 0.0
H261 H 0.41571 0.22951 0.85875 0.0
H262 H 0.32116 0.16536 0.74744 0.0
H263 H 0.33151 0.26056 0.75711 0.0
H264 H 0.37925 0.29334 0.81304 0.0
H265 H 0.40398 0.1348 0.84825 0.0
H266 H 0.46829 0.12716 0.68248 0.0
H267 H 0.41084 0.09021 0.63284 0.0
O268 O 0.27792 0.08347 0.77413 0.0
C269 C 0.29755 0.96784 0.78973 0.0
C270 C 0.35369 0.06073 0.67191 0.0
C271 C 0.43234 0.10693 0.68984 0.0
N272 N 0.3723 0.07617 0.73688 0.0
C273 C 0.34039 0.05608 0.70967 0.0
C274 C 0.41775 0.10154 0.72732 0.0
C275 C 0.40006 0.08627 0.662 0.0
C276 C 0.33587 0.98108 0.90416 0.0
N277 N 0.29031 0.97602 0.88426 0.0
C278 C 0.35633 0.93906 0.92466 0.0
C279 C 0.33018 0.89103 0.92452 0.0
C280 C 0.28415 0.88563 0.90388 0.0
C281 C 0.26487 0.92862 0.88382 0.0
C282 C 0.12168 0.99329 0.91077 0.0
C283 C 0.15456 0.01061 0.83802 0.0
C284 C 0.17408 1.00513 0.90274 0.0
N285 N 0.18999 0.01369 0.86669 0.0
C286 C 0.10184 0.99905 0.84502 0.0
C287 C 0.08535 0.99046 0.88167 0.0
C288 C 0.23889 0.10277 0.79156 0.0
C289 C 0.39506 0.21573 0.83416 0.0
C290 C 0.34204 0.17908 0.77189 0.0
C291 C 0.34777 0.23317 0.77718 0.0
C292 C 0.37455 0.25153 0.80854 0.0
N293 N 0.36255 0.14403 0.79702 0.0
C294 C 0.38852 0.1619 0.82795 0.0
Co295 Co 0.10012 0.26301 0.35582 0.0
Co296 Co 0.06822 0.35303 0.28855 0.0
O297 O 0.07625 0.33413 0.34203 0.0
C298 C 0.03674 0.3001 0.42113 0.0
O299 O 0.02307 0.34395 0.40442 0.0
C300 C 0.0897 0.45607 0.32942 0.0
O301 O 0.09886 0.43152 0.36095 0.0
O302 O 0.14491 0.34008 0.28173 0.0
O303 O 0.14822 0.26201 0.31131 0.0
H304 H 0.09557 0.32622 0.15043 0.0
H305 H 0.11816 0.35906 0.40406 0.0
O306 O 0.05538 0.26201 0.40219 0.0
H307 H 0.28598 0.26371 0.405 0.0
H308 H 0.14637 0.1113 0.44101 0.0
H309 H 0.11702 0.16712 0.3106 0.0
H310 H 0.21093 0.22933 0.36961 0.0
H311 H 0.12741 0.20405 0.42623 0.0
O312 O 0.08105 0.4301 0.2995 0.0
H313 H 0.10197 0.30335 0.21719 0.0
H314 H 0.01972 0.44263 0.24659 0.0
H315 H 0.13664 0.07423 0.32405 0.0
H316 H 0.19161 0.39431 0.44017 0.0
H317 H 0.15107 0.04558 0.38967 0.0
H318 H 0.27674 0.34671 0.44097 0.0
O319 O 0.04035 0.23344 0.32649 0.0
H320 H 0.90664 0.41767 0.35608 0.0
H321 H 0.97253 0.3217 0.24589 0.0
H322 H 0.87729 0.33269 0.25448 0.0
H323 H 0.84363 0.38117 0.30983 0.0
H324 H 1.00142 0.4053 0.34666 0.0
H325 H 0.01285 0.46725 0.18012 0.0
H326 H 0.05082 0.40881 0.13145 0.0
O327 O 0.05362 0.27818 0.27394 0.0
C328 C 0.16866 0.29735 0.29032 0.0
C329 C 0.07912 0.35219 0.17137 0.0
C330 C 0.03276 0.43134 0.18804 0.0
N331 N 0.06213 0.37196 0.23597 0.0
C332 C 0.08278 0.3395 0.20929 0.0
C333 C 0.03717 0.41735 0.22571 0.0
C334 C 0.054 0.3985 0.16075 0.0
C335 C 0.15425 0.33753 0.40416 0.0
N336 N 0.15908 0.29151 0.38472 0.0
C337 C 0.19617 0.35797 0.42475 0.0
C338 C 0.24389 0.33132 0.42517 0.0
C339 C 0.24907 0.28482 0.40502 0.0
C340 C 0.20619 0.26558 0.38486 0.0
C341 C 0.14 0.12323 0.4123 0.0
C342 C 0.12381 0.15522 0.33922 0.0
C343 C 0.12882 0.17568 0.4038 0.0
N344 N 0.12077 0.19114 0.3676 0.0
C345 C 0.13478 0.10245 0.34666 0.0
C346 C 0.14276 0.08641 0.38349 0.0
C347 C 0.0333 0.23978 0.29153 0.0
C348 C 0.9208 0.39672 0.33173 0.0
C349 C 0.95843 0.3429 0.27009 0.0
C350 C 0.90432 0.34899 0.27477 0.0
C351 C 0.88547 0.37617 0.30581 0.0
N352 N 0.99302 0.36347 0.2955 0.0
C353 C 0.97467 0.38981 0.32613 0.0
Co354 Co 0.8726 0.09982 0.85542 0.0
Co355 Co 0.78188 0.06551 0.78919 0.0
O356 O 0.80156 0.07511 0.84237 0.0
C357 C 0.83705 0.03664 0.92131 0.0
O358 O 0.79337 0.0222 0.90476 0.0
C359 C 0.67941 0.08811 0.83044 0.0
O360 O 0.70415 0.0975 0.86186 0.0
O361 O 0.7944 0.14209 0.78112 0.0
O362 O 0.87255 0.14707 0.81042 0.0
H363 H 0.8063 0.0883 0.65041 0.0
H364 H 0.77744 0.11767 0.90443 0.0
O365 O 0.87461 0.05604 0.90225 0.0
H366 H 0.87061 0.28684 0.90251 0.0
H367 H 0.0248 0.14915 0.93917 0.0
H368 H 0.96759 0.11693 0.80942 0.0
H369 H 0.90511 0.21138 0.86752 0.0
H370 H 0.9322 0.12867 0.92525 0.0
O371 O 0.7051 0.07863 0.80054 0.0
H372 H 0.83027 0.097 0.71685 0.0
H373 H 0.69176 0.01552 0.74884 0.0
H374 H 0.06032 0.13785 0.82205 0.0
H375 H 0.74207 0.19155 0.94014 0.0
H376 H 0.08967 0.15383 0.88732 0.0
H377 H 0.78858 0.27734 0.93949 0.0
O378 O 0.90239 0.03972 0.8265 0.0
H379 H 0.71836 0.90556 0.85936 0.0
H380 H 0.81333 0.96862 0.74792 0.0
H381 H 0.80288 0.87352 0.758 0.0
H382 H 0.75492 0.84128 0.814 0.0
H383 H 0.73019 1.00017 0.84844 0.0
H384 H 0.66607 0.00631 0.68273 0.0
H385 H 0.72356 0.04273 0.63292 0.0
O386 O 0.85647 0.05077 0.77419 0.0
C387 C 0.83684 0.16655 0.78931 0.0
C388 C 0.78074 0.07253 0.67185 0.0
C389 C 0.70204 0.02658 0.68999 0.0
N390 N 0.7621 0.05773 0.73689 0.0
C391 C 0.79404 0.07752 0.70959 0.0
C392 C 0.71663 0.03231 0.72745 0.0
C393 C 0.73434 0.04695 0.66206 0.0
C394 C 0.79849 0.15407 0.90392 0.0
N395 N 0.84398 0.15908 0.88392 0.0
C396 C 0.77799 0.19622 0.92427 0.0
C397 C 0.80403 0.24431 0.92389 0.0
C398 C 0.84999 0.24964 0.90317 0.0
C399 C 0.86932 0.20653 0.88327 0.0
C400 C 0.01255 0.14217 0.9106 0.0
C401 C 0.97978 0.12437 0.83789 0.0
C402 C 0.96018 0.13019 0.90258 0.0
N403 N 0.94433 0.1214 0.86655 0.0
C404 C 0.03247 0.13607 0.84487 0.0
C405 C 0.04891 0.14491 0.88151 0.0
C406 C 0.89558 0.03175 0.79168 0.0
C407 C 0.7391 0.9191 0.83474 0.0
C408 C 0.79237 0.95514 0.7724 0.0
C409 C 0.78658 0.9011 0.77793 0.0
C410 C 0.75968 0.88305 0.80933 0.0
N411 N 0.77181 0.99043 0.79734 0.0
C412 C 0.74571 0.97287 0.8283 0.0
Co413 Co 0.03476 0.87296 0.3565 0.0
Co414 Co 0.0655 0.78307 0.28889 0.0
O415 O 0.05819 0.8018 0.34245 0.0
C416 C 0.09851 0.83531 0.42144 0.0
O417 O 0.11189 0.79147 0.40459 0.0
C418 C 0.04431 0.67995 0.32971 0.0
O419 O 0.03564 0.70442 0.36134 0.0
O420 O 0.98877 0.79631 0.28261 0.0
O421 O 0.98619 0.87435 0.31225 0.0
H422 H 0.03616 0.81048 0.15105 0.0
H423 H 0.01674 0.77673 0.40455 0.0
O424 O 0.08001 0.87359 0.40262 0.0
H425 H 0.84943 0.87294 0.40675 0.0
H426 H 0.99011 0.02459 0.44221 0.0
H427 H 0.01785 0.9691 0.31155 0.0
H428 H 0.92428 0.90717 0.37107 0.0
H429 H 0.00843 0.9318 0.42715 0.0
O430 O 0.05258 0.70599 0.29977 0.0
H431 H 0.03075 0.83307 0.21791 0.0
H432 H 0.11322 0.69355 0.24639 0.0
H433 H 0.99884 0.06205 0.32527 0.0
H434 H 0.94351 0.74163 0.44096 0.0
H435 H 0.98524 0.09052 0.39102 0.0
H436 H 0.85864 0.78966 0.4424 0.0
O437 O 0.09435 0.90235 0.3269 0.0
H438 H 0.22776 0.71777 0.35527 0.0
H439 H 0.16072 0.81417 0.24563 0.0
H440 H 0.25604 0.80289 0.25356 0.0
H441 H 0.29027 0.75418 0.30863 0.0
H442 H 0.1329 0.73047 0.34649 0.0
H443 H 0.1191 0.6692 0.17982 0.0
H444 H 0.08052 0.72791 0.13156 0.0
O445 O 0.08017 0.85793 0.27434 0.0
C446 C 0.96534 0.83915 0.29135 0.0
C447 C 0.05289 0.78441 0.17181 0.0
C448 C 0.09937 0.70512 0.18796 0.0
N449 N 0.07081 0.76435 0.23623 0.0
C450 C 0.04981 0.79694 0.20978 0.0
C451 C 0.09553 0.71895 0.22569 0.0
C452 C 0.07779 0.73811 0.1609 0.0
C453 C 0.98076 0.79844 0.40492 0.0
N454 N 0.97597 0.84462 0.38566 0.0
C455 C 0.93897 0.77809 0.42568 0.0
C456 C 0.8914 0.80498 0.42646 0.0
C457 C 0.88624 0.85164 0.40649 0.0
C458 C 0.92899 0.87079 0.38615 0.0
C459 C 0.99614 0.01273 0.41345 0.0
C460 C 0.01142 0.98093 0.34022 0.0
C461 C 0.00696 0.96027 0.40479 0.0
N462 N 0.01457 0.94489 0.36852 0.0
C463 C 1.0008 0.03373 0.34782 0.0
C464 C 0.99328 0.04968 0.38472 0.0
C465 C 0.10097 0.89611 0.29189 0.0
C466 C 0.21334 0.73881 0.33103 0.0
C467 C 0.17508 0.79287 0.2697 0.0
C468 C 0.22923 0.78662 0.27402 0.0
C469 C 0.2484 0.75931 0.3049 0.0
N470 N 0.14075 0.77236 0.29532 0.0
C471 C 0.15942 0.7459 0.3258 0.0
C472 C 0.25014 0.05692 0.0171 0.0
C473 C 0.29764 0.04732 0.03593 0.0
H474 H 0.21278 0.0832 0.96685 0.0
C475 C 0.34519 0.05729 0.0172 0.0
H476 H 0.21283 0.04988 0.03078 0.0
C477 C 0.34517 0.07692 0.98063 0.0
C478 C 0.29758 0.08651 0.96184 0.0
H479 H 0.38251 0.0513 0.03112 0.0
H480 H 0.38247 0.08324 0.96676 0.0
C481 C 0.25011 0.07647 0.98059 0.0
C482 C 0.0783 0.25292 0.51692 0.0
C483 C 0.08768 0.30042 0.53585 0.0
H484 H 0.0518 0.21555 0.46677 0.0
C485 C 0.07764 0.34805 0.51717 0.0
H486 H 0.08555 0.21555 0.53051 0.0
C487 C 0.05814 0.34805 0.48054 0.0
C488 C 0.04863 0.30043 0.46171 0.0
H489 H 0.08349 0.38537 0.53115 0.0
H490 H 0.05183 0.38539 0.46669 0.0
C491 C 0.05862 0.25292 0.48047 0.0
C492 C 0.88422 0.0584 0.98068 0.0
C493 C 0.83676 0.0485 0.96187 0.0
H494 H 0.92143 0.0846 0.03102 0.0
C495 C 0.78916 0.05807 0.98063 0.0
H496 H 0.92156 0.05172 0.96695 0.0
C497 C 0.78908 0.07758 0.01724 0.0
C498 C 0.83661 0.08738 0.03604 0.0
H499 H 0.75188 0.05187 0.96672 0.0
H500 H 0.75175 0.08358 0.03113 0.0
C501 C 0.88415 0.07774 0.01726 0.0
C502 C 0.07695 0.88224 0.48093 0.0
C503 C 0.08666 0.83479 0.46202 0.0
H504 H 0.05015 0.91947 0.53105 0.0
C505 C 0.07687 0.78711 0.48071 0.0
H506 H 0.08401 0.91965 0.46735 0.0
C507 C 0.05736 0.78701 0.51733 0.0
C508 C 0.04755 0.83458 0.53615 0.0
H509 H 0.08298 0.74982 0.46675 0.0
H510 H 0.05129 0.74964 0.5312 0.0
C511 C 0.05722 0.88214 0.51737 0.0
C512 C 0.54 0.07386 0.20103 0.0
C513 C 0.51245 0.07968 0.16715 0.0
H514 H 0.61367 0.05843 0.22774 0.0
C515 C 0.54007 0.07341 0.13334 0.0
H516 H 0.52005 0.0782 0.22761 0.0
C517 C 0.59379 0.06138 0.13342 0.0
C518 C 0.62135 0.05577 0.16731 0.0
H519 H 0.52006 0.07707 0.10673 0.0
H520 H 0.61383 0.0572 0.10685 0.0
C521 C 0.59375 0.06225 0.2011 0.0
C522 C 0.06081 0.5404 0.70214 0.0
C523 C 0.05425 0.51295 0.66827 0.0
H524 H 0.07784 0.61384 0.72882 0.0
C525 C 0.06084 0.5405 0.63446 0.0
H526 H 0.05626 0.52048 0.72872 0.0
C527 C 0.07391 0.59402 0.63452 0.0
C528 C 0.08028 0.6215 0.66838 0.0
H529 H 0.05665 0.5206 0.60784 0.0
H530 H 0.0783 0.61398 0.60793 0.0
C531 C 0.07347 0.59398 0.70219 0.0
C532 C 0.59407 0.07376 0.86445 0.0
C533 C 0.62164 0.07951 0.83058 0.0
H534 H 0.52034 0.05789 0.8911 0.0
C535 C 0.59407 0.0731 0.79677 0.0
H536 H 0.6141 0.07788 0.89102 0.0
C537 C 0.54034 0.06143 0.79681 0.0
C538 C 0.51278 0.05546 0.83066 0.0
H539 H 0.614 0.07704 0.77014 0.0
H540 H 0.52041 0.05715 0.77021 0.0
C541 C 0.54036 0.06166 0.86449 0.0
C542 C 0.07376 0.54121 0.36337 0.0
C543 C 0.08007 0.51375 0.3295 0.0
H544 H 0.05648 0.61461 0.39008 0.0
C545 C 0.07313 0.54126 0.2957 0.0
H546 H 0.07824 0.52124 0.38995 0.0
C547 C 0.0604 0.59482 0.29577 0.0
C548 C 0.05389 0.62225 0.32965 0.0
H549 H 0.07746 0.52142 0.26907 0.0
H550 H 0.05574 0.61473 0.26919 0.0
C551 C 0.06062 0.59471 0.36345 0.0
C552 C 0.21898 0.28728 0.23097 0.0
C553 C 0.21659 0.28176 0.26988 0.0
H554 H 0.24841 0.25527 0.18011 0.0
C555 C 0.25421 0.24995 0.28774 0.0
H556 H 0.19238 0.31326 0.21637 0.0
C557 C 0.28721 0.21734 0.26691 0.0
C558 C 0.28197 0.21537 0.22797 0.0
H559 H 0.25541 0.24697 0.31775 0.0
H560 H 0.31248 0.19007 0.28152 0.0
C561 C 0.25107 0.25377 0.21013 0.0
C562 C 0.91398 0.28674 0.76516 0.0
C563 C 0.91757 0.28007 0.72638 0.0
H564 H 0.88328 0.256 0.81607 0.0
C565 C 0.88083 0.24729 0.70848 0.0
H566 H 0.93988 0.31345 0.77975 0.0
C567 C 0.84753 0.21501 0.72931 0.0
C568 C 0.85162 0.21429 0.76833 0.0
H569 H 0.88059 0.24329 0.67852 0.0
H570 H 0.82298 0.18704 0.71476 0.0
C571 C 0.88159 0.25354 0.78604 0.0
C572 C 0.91396 0.84859 0.23236 0.0
C573 C 0.91726 0.85499 0.27118 0.0
H574 H 0.88357 0.87963 0.18146 0.0
C575 C 0.8803 0.88754 0.28907 0.0
H576 H 0.94003 0.82205 0.21777 0.0
C577 C 0.84707 0.91989 0.26824 0.0
C578 C 0.85144 0.9209 0.22924 0.0
H579 H 0.87983 0.89129 0.31905 0.0
H580 H 0.82235 0.94769 0.28281 0.0
C581 C 0.88163 0.88186 0.2115 0.0
C582 C 0.2202 0.84766 0.7659 0.0
C583 C 0.21702 0.85389 0.72707 0.0
H584 H 0.25049 0.8789 0.81677 0.0
C585 C 0.2541 0.88628 0.70915 0.0
H586 H 0.19404 0.82125 0.78052 0.0
C587 C 0.2873 0.91871 0.72996 0.0
C588 C 0.2828 0.91993 0.76895 0.0
H589 H 0.25468 0.88987 0.67917 0.0
H590 H 0.3121 0.94641 0.71536 0.0
C591 C 0.25252 0.88099 0.78674 0.0
C592 C 0.93398 1.00142 0.73063 0.0
C593 C 0.93413 1.00008 0.77007 0.0
H594 H 0.96546 0.97019 0.67962 0.0
C595 C 0.96955 0.96637 0.78823 0.0
H596 H 0.90751 0.02723 0.71564 0.0
C597 C 1.00254 0.93334 0.76749 0.0
C598 C 1.00135 0.93363 0.72804 0.0
H599 H 0.97079 0.96436 0.8185 0.0
H600 H 0.02851 0.90702 0.78248 0.0
C601 C 0.96737 0.96882 0.70989 0.0
C602 C 0.20067 1.00175 0.26743 0.0
C603 C 0.2002 1.00052 0.22799 0.0
H604 H 0.16946 0.97048 0.31851 0.0
C605 C 0.16452 0.96698 0.20992 0.0
H606 H 0.22738 0.02741 0.28235 0.0
C607 C 0.13155 0.93406 0.23074 0.0
C608 C 0.13304 0.93423 0.27017 0.0
H609 H 0.16301 0.96506 0.17965 0.0
H610 H 0.10535 0.90789 0.2158 0.0
C611 C 0.16731 0.96922 0.28825 0.0
C612 C 0.16749 0.16577 0.70962 0.0
C613 C 0.13336 0.20087 0.72772 0.0
H614 H 0.2274 0.10742 0.71547 0.0
C615 C 0.13197 0.20109 0.76716 0.0
H616 H 0.16955 0.16445 0.67936 0.0
C617 C 0.1649 0.16809 0.78796 0.0
C618 C 0.20045 0.13445 0.76986 0.0
H619 H 0.10588 0.22736 0.78211 0.0
H620 H 0.16349 0.17005 0.81822 0.0
C621 C 0.20081 0.13318 0.73042 0.0
C622 C 0.96708 0.16655 0.28809 0.0
C623 C 1.00122 0.20155 0.26991 0.0
H624 H 0.907 0.10834 0.28237 0.0
C625 C 1.00253 0.20167 0.23047 0.0
H626 H 0.96508 0.16533 0.31836 0.0
C627 C 0.96948 0.16869 0.20974 0.0
C628 C 0.93388 0.13518 0.22793 0.0
H629 H 0.02865 0.22783 0.21546 0.0
H630 H 0.97083 0.17057 0.17948 0.0
C631 C 0.93362 0.13399 0.26737 0.0
loop_
_geom_bond_atom_site_label_1
_geom_bond_atom_site_label_2
_geom_bond_distance
_geom_bond_site_symmetry_2
_ccdc_geom_bond_type
Co0 O2 2.143 . S
Co0 O8 2.074 . S
Co0 O11 2.093 . S
Co0 O24 2.097 . S
Co0 N41 2.151 . S
Co0 N49 2.214 . S
Co1 O2 2.160 . S
Co1 O7 2.058 . S
Co1 O17 2.057 . S
Co1 O32 2.037 . S
Co1 N36 2.145 . S
Co1 N57 2.257 1_545 S
O2 Co0 2.143 . S
O2 Co1 2.160 . S
C3 O4 1.278 . S
C3 O11 1.224 . S
O4 C3 1.278 . S
C5 O6 1.245 . S
C5 O17 1.232 . S
O6 C5 1.245 . S
O7 Co1 2.058 . S
O7 C33 1.269 . S
O8 Co0 2.074 . S
O8 C33 1.257 . S
H9 C34 0.932 . S
H10 C40 0.930 . S
O11 Co0 2.093 . S
O11 C3 1.224 . S
H12 C44 0.929 . S
H13 C46 0.930 . S
H14 C47 0.930 . S
H15 C45 0.929 . S
H16 C48 0.928 . S
O17 Co1 2.057 . S
O17 C5 1.232 . S
H18 C37 0.929 . S
H19 C38 0.929 . S
H20 C50 0.931 . S
H21 C42 0.929 . S
H22 C51 0.930 . S
H23 C43 0.931 . S
O24 Co0 2.097 . S
O24 C52 1.214 . S
H25 C53 0.929 . S
H26 C54 0.929 . S
H27 C55 0.930 . S
H28 C56 0.929 . S
H29 C58 0.930 1_545 S
H30 C35 0.930 . S
H31 C39 0.930 . S
O32 Co1 2.037 . S
O32 C52 1.234 . S
C33 O7 1.269 . S
C33 O8 1.257 . S
C34 H9 0.932 . S
C34 C37 1.388 . S
C34 C39 1.418 1_545 S
C35 H30 0.930 . S
C35 C38 1.404 . S
C35 C39 1.353 1_545 S
N36 Co1 2.145 . S
N36 C37 1.397 . S
N36 C38 1.334 . S
C37 H18 0.929 . S
C37 C34 1.388 . S
C37 N36 1.397 . S
C38 H19 0.929 . S
C38 C35 1.404 . S
C38 N36 1.334 . S
C39 H31 0.930 . S
C39 C34 1.418 1_565 S
C39 C35 1.353 1_565 S
C40 H10 0.930 . S
C40 N41 1.330 . S
C40 C42 1.446 . S
N41 Co0 2.151 . S
N41 C40 1.330 . S
N41 C45 1.418 . S
C42 H21 0.929 . S
C42 C40 1.446 . S
C42 C43 1.332 . S
C43 H23 0.931 . S
C43 C42 1.332 . S
C43 C44 1.267 . S
C44 H12 0.929 . S
C44 C43 1.267 . S
C44 C45 1.251 . S
C45 H15 0.929 . S
C45 N41 1.418 . S
C45 C44 1.251 . S
C46 H13 0.930 . S
C46 C48 1.406 . S
C46 C51 1.261 . S
C47 H14 0.930 . S
C47 N49 1.325 . S
C47 C50 1.357 . S
C48 H16 0.928 . S
C48 C46 1.406 . S
C48 N49 1.261 . S
N49 Co0 2.214 . S
N49 C47 1.325 . S
N49 C48 1.261 . S
C50 H20 0.931 . S
C50 C47 1.357 . S
C50 C51 1.312 . S
C51 H22 0.930 . S
C51 C46 1.261 . S
C51 C50 1.312 . S
C52 O24 1.214 . S
C52 O32 1.234 . S
C53 H25 0.929 . S
C53 C56 1.391 . S
C53 C58 1.391 . S
C54 H26 0.929 . S
C54 C55 1.390 . S
C54 N57 1.391 . S
C55 H27 0.930 . S
C55 C54 1.390 . S
C55 C56 1.392 . S
C56 H28 0.929 . S
C56 C53 1.391 . S
C56 C55 1.392 . S
N57 Co1 2.257 1_565 S
N57 C54 1.391 . S
N57 C58 1.388 . S
C58 H29 0.930 1_565 S
C58 C53 1.391 . S
C58 N57 1.388 . S
Co59 O61 2.143 . S
Co59 O67 2.074 1_455 S
Co59 O70 2.093 . S
Co59 O83 2.097 . S
Co59 N100 2.151 1_455 S
Co59 N108 2.214 1_455 S
Co60 O61 2.160 . S
Co60 O66 2.058 1_455 S
Co60 O76 2.057 . S
Co60 O91 2.037 . S
Co60 N95 2.145 . S
Co60 N116 2.257 . S
O61 Co59 2.143 . S
O61 Co60 2.160 . S
C62 O63 1.278 . S
C62 O70 1.224 . S
O63 C62 1.278 . S
C64 O65 1.245 1_455 S
C64 O76 1.232 . S
O65 C64 1.245 1_655 S
O66 Co60 2.058 1_655 S
O66 C92 1.269 . S
O67 Co59 2.074 1_655 S
O67 C92 1.257 . S
H68 C93 0.930 . S
H69 C99 0.930 . S
O70 Co59 2.093 . S
O70 C62 1.224 . S
H71 C103 0.929 . S
H72 C105 0.930 . S
H73 C106 0.930 1_455 S
H74 C104 0.929 . S
H75 C107 0.928 . S
O76 Co60 2.057 . S
O76 C64 1.232 . S
H77 C96 0.929 . S
H78 C97 0.929 . S
H79 C109 0.931 . S
H80 C101 0.929 . S
H81 C110 0.930 . S
H82 C102 0.931 . S
O83 Co59 2.097 . S
O83 C111 1.214 . S
H84 C112 0.929 . S
H85 C113 0.929 . S
H86 C114 0.930 . S
H87 C115 0.929 . S
H88 C117 0.930 . S
H89 C94 0.930 . S
H90 C98 0.930 . S
O91 Co60 2.037 . S
O91 C111 1.234 . S
C92 O66 1.269 . S
C92 O67 1.257 . S
C93 H68 0.930 . S
C93 C96 1.388 . S
C93 C98 1.418 . S
C94 H89 0.930 . S
C94 C97 1.404 . S
C94 C98 1.353 . S
N95 Co60 2.145 . S
N95 C96 1.397 . S
N95 C97 1.334 . S
C96 H77 0.929 . S
C96 C93 1.388 . S
C96 N95 1.397 . S
C97 H78 0.929 . S
C97 C94 1.404 . S
C97 N95 1.334 . S
C98 H90 0.930 . S
C98 C93 1.418 . S
C98 C94 1.353 . S
C99 H69 0.930 . S
C99 N100 1.330 . S
C99 C101 1.446 . S
N100 Co59 2.151 1_655 S
N100 C99 1.330 . S
N100 C104 1.418 . S
C101 H80 0.929 . S
C101 C99 1.446 . S
C101 C102 1.332 . S
C102 H82 0.931 . S
C102 C101 1.332 . S
C102 C103 1.267 . S
C103 H71 0.929 . S
C103 C102 1.267 . S
C103 C104 1.251 . S
C104 H74 0.929 . S
C104 N100 1.418 . S
C104 C103 1.251 . S
C105 H72 0.930 . S
C105 C107 1.406 . S
C105 C110 1.261 . S
C106 H73 0.930 1_655 S
C106 N108 1.325 . S
C106 C109 1.357 . S
C107 H75 0.928 . S
C107 C105 1.406 . S
C107 N108 1.261 . S
N108 Co59 2.214 1_655 S
N108 C106 1.325 . S
N108 C107 1.261 . S
C109 H79 0.931 . S
C109 C106 1.357 . S
C109 C110 1.312 . S
C110 H81 0.930 . S
C110 C105 1.261 . S
C110 C109 1.312 . S
C111 O83 1.214 . S
C111 O91 1.234 . S
C112 H84 0.929 . S
C112 C115 1.391 . S
C112 C117 1.391 . S
C113 H85 0.929 . S
C113 C114 1.390 . S
C113 N116 1.391 . S
C114 H86 0.930 . S
C114 C113 1.390 . S
C114 C115 1.392 . S
C115 H87 0.929 . S
C115 C112 1.391 . S
C115 C114 1.392 . S
N116 Co60 2.257 . S
N116 C113 1.391 . S
N116 C117 1.388 . S
C117 H88 0.930 . S
C117 C112 1.391 . S
C117 N116 1.388 . S
Co118 O120 2.143 . S
Co118 O126 2.074 1_545 S
Co118 O129 2.093 . S
Co118 O142 2.097 . S
Co118 N159 2.151 1_545 S
Co118 N167 2.214 1_545 S
Co119 O120 2.160 . S
Co119 O125 2.058 1_545 S
Co119 O135 2.057 . S
Co119 O150 2.037 . S
Co119 N154 2.145 . S
Co119 N175 2.257 . S
O120 Co118 2.143 . S
O120 Co119 2.160 . S
C121 O122 1.278 . S
C121 O129 1.224 . S
O122 C121 1.278 . S
C123 O124 1.245 1_545 S
C123 O135 1.232 . S
O124 C123 1.245 1_565 S
O125 Co119 2.058 1_565 S
O125 C151 1.269 . S
O126 Co118 2.074 1_565 S
O126 C151 1.257 . S
H127 C152 0.930 . S
H128 C158 0.930 . S
O129 Co118 2.093 . S
O129 C121 1.224 . S
H130 C162 0.929 . S
H131 C164 0.930 . S
H132 C165 0.930 1_545 S
H133 C163 0.929 . S
H134 C166 0.928 . S
O135 Co119 2.057 . S
O135 C123 1.232 . S
H136 C155 0.929 . S
H137 C156 0.929 . S
H138 C168 0.931 . S
H139 C160 0.929 . S
H140 C169 0.930 . S
H141 C161 0.931 . S
O142 Co118 2.097 . S
O142 C170 1.214 . S
H143 C171 0.929 . S
H144 C172 0.929 . S
H145 C173 0.930 . S
H146 C174 0.929 . S
H147 C176 0.930 . S
H148 C153 0.930 . S
H149 C157 0.930 . S
O150 Co119 2.037 . S
O150 C170 1.234 . S
C151 O125 1.269 . S
C151 O126 1.257 . S
C152 H127 0.930 . S
C152 C155 1.388 . S
C152 C157 1.418 . S
C153 H148 0.930 . S
C153 C156 1.404 . S
C153 C157 1.353 . S
N154 Co119 2.145 . S
N154 C155 1.397 . S
N154 C156 1.334 . S
C155 H136 0.929 . S
C155 C152 1.388 . S
C155 N154 1.397 . S
C156 H137 0.929 . S
C156 C153 1.404 . S
C156 N154 1.334 . S
C157 H149 0.930 . S
C157 C152 1.418 . S
C157 C153 1.353 . S
C158 H128 0.930 . S
C158 N159 1.330 . S
C158 C160 1.446 . S
N159 Co118 2.151 1_565 S
N159 C158 1.330 . S
N159 C163 1.418 . S
C160 H139 0.929 . S
C160 C158 1.446 . S
C160 C161 1.332 . S
C161 H141 0.931 . S
C161 C160 1.332 . S
C161 C162 1.267 . S
C162 H130 0.929 . S
C162 C161 1.267 . S
C162 C163 1.251 . S
C163 H133 0.929 . S
C163 N159 1.418 . S
C163 C162 1.251 . S
C164 H131 0.930 . S
C164 C166 1.406 1_455 S
C164 C169 1.261 . S
C165 H132 0.930 1_565 S
C165 N167 1.325 . S
C165 C168 1.357 1_655 S
C166 H134 0.928 . S
C166 C164 1.406 1_655 S
C166 N167 1.261 . S
N167 Co118 2.214 1_565 S
N167 C165 1.325 . S
N167 C166 1.261 . S
C168 H138 0.931 . S
C168 C165 1.357 1_455 S
C168 C169 1.312 . S
C169 H140 0.930 . S
C169 C164 1.261 . S
C169 C168 1.312 . S
C170 O142 1.214 . S
C170 O150 1.234 . S
C171 H143 0.929 . S
C171 C174 1.391 . S
C171 C176 1.391 . S
C172 H144 0.929 . S
C172 C173 1.390 . S
C172 N175 1.391 . S
C173 H145 0.930 . S
C173 C172 1.390 . S
C173 C174 1.392 . S
C174 H146 0.929 . S
C174 C171 1.391 . S
C174 C173 1.392 . S
N175 Co119 2.257 . S
N175 C172 1.391 . S
N175 C176 1.388 . S
C176 H147 0.930 . S
C176 C171 1.391 . S
C176 N175 1.388 . S
Co177 O179 2.143 . S
Co177 O185 2.074 . S
Co177 O188 2.093 . S
Co177 O201 2.097 . S
Co177 N218 2.151 . S
Co177 N226 2.214 . S
Co178 O179 2.160 . S
Co178 O184 2.058 . S
Co178 O194 2.057 . S
Co178 O209 2.037 . S
Co178 N213 2.145 . S
Co178 N234 2.257 1_455 S
O179 Co177 2.143 . S
O179 Co178 2.160 . S
C180 O181 1.278 . S
C180 O188 1.224 . S
O181 C180 1.278 . S
C182 O183 1.245 . S
C182 O194 1.232 . S
O183 C182 1.245 . S
O184 Co178 2.058 . S
O184 C210 1.269 . S
O185 Co177 2.074 . S
O185 C210 1.257 . S
H186 C211 0.932 . S
H187 C217 0.930 . S
O188 Co177 2.093 . S
O188 C180 1.224 . S
H189 C221 0.929 . S
H190 C223 0.930 . S
H191 C224 0.930 . S
H192 C222 0.929 . S
H193 C225 0.928 . S
O194 Co178 2.057 . S
O194 C182 1.232 . S
H195 C214 0.929 . S
H196 C215 0.929 . S
H197 C227 0.931 . S
H198 C219 0.929 . S
H199 C228 0.930 . S
H200 C220 0.931 . S
O201 Co177 2.097 . S
O201 C229 1.214 . S
H202 C230 0.929 . S
H203 C231 0.929 . S
H204 C232 0.930 . S
H205 C233 0.929 . S
H206 C235 0.930 1_455 S
H207 C212 0.930 . S
H208 C216 0.930 . S
O209 Co178 2.037 . S
O209 C229 1.234 . S
C210 O184 1.269 . S
C210 O185 1.257 . S
C211 H186 0.932 . S
C211 C214 1.388 . S
C211 C216 1.418 1_455 S
C212 H207 0.930 . S
C212 C215 1.404 . S
C212 C216 1.353 1_455 S
N213 Co178 2.145 . S
N213 C214 1.397 . S
N213 C215 1.334 . S
C214 H195 0.929 . S
C214 C211 1.388 . S
C214 N213 1.397 . S
C215 H196 0.929 . S
C215 C212 1.404 . S
C215 N213 1.334 . S
C216 H208 0.930 . S
C216 C211 1.418 1_655 S
C216 C212 1.353 1_655 S
C217 H187 0.930 . S
C217 N218 1.330 . S
C217 C219 1.446 . S
N218 Co177 2.151 . S
N218 C217 1.330 . S
N218 C222 1.418 . S
C219 H198 0.929 . S
C219 C217 1.446 . S
C219 C220 1.332 . S
C220 H200 0.931 . S
C220 C219 1.332 . S
C220 C221 1.267 . S
C221 H189 0.929 . S
C221 C220 1.267 . S
C221 C222 1.251 . S
C222 H192 0.929 . S
C222 N218 1.418 . S
C222 C221 1.251 . S
C223 H190 0.930 . S
C223 C225 1.406 1_545 S
C223 C228 1.261 . S
C224 H191 0.930 . S
C224 N226 1.325 . S
C224 C227 1.357 1_565 S
C225 H193 0.928 . S
C225 C223 1.406 1_565 S
C225 N226 1.261 . S
N226 Co177 2.214 . S
N226 C224 1.325 . S
N226 C225 1.261 . S
C227 H197 0.931 . S
C227 C224 1.357 1_545 S
C227 C228 1.312 . S
C228 H199 0.930 . S
C228 C223 1.261 . S
C228 C227 1.312 . S
C229 O201 1.214 . S
C229 O209 1.234 . S
C230 H202 0.929 . S
C230 C233 1.391 . S
C230 C235 1.391 . S
C231 H203 0.929 . S
C231 C232 1.390 . S
C231 N234 1.391 . S
C232 H204 0.930 . S
C232 C231 1.390 . S
C232 C233 1.392 . S
C233 H205 0.929 . S
C233 C230 1.391 . S
C233 C232 1.392 . S
N234 Co178 2.257 1_655 S
N234 C231 1.391 . S
N234 C235 1.388 . S
C235 H206 0.930 1_655 S
C235 C230 1.391 . S
C235 N234 1.388 . S
Co236 O238 2.143 . S
Co236 O244 2.074 1_545 S
Co236 O247 2.093 . S
Co236 O260 2.097 . S
Co236 N277 2.151 1_545 S
Co236 N285 2.214 1_545 S
Co237 O238 2.160 . S
Co237 O243 2.058 1_545 S
Co237 O253 2.057 . S
Co237 O268 2.037 . S
Co237 N272 2.145 . S
Co237 N293 2.257 . S
O238 Co236 2.143 . S
O238 Co237 2.160 . S
C239 O240 1.278 . S
C239 O247 1.224 . S
O240 C239 1.278 . S
C241 O242 1.245 1_545 S
C241 O253 1.232 . S
O242 C241 1.245 1_565 S
O243 Co237 2.058 1_565 S
O243 C269 1.269 . S
O244 Co236 2.074 1_565 S
O244 C269 1.257 . S
H245 C270 0.930 . S
H246 C276 0.930 . S
O247 Co236 2.093 . S
O247 C239 1.224 . S
H248 C280 0.929 . S
H249 C282 0.930 . S
H250 C283 0.930 1_545 S
H251 C281 0.929 . S
H252 C284 0.928 . S
O253 Co237 2.057 . S
O253 C241 1.232 . S
H254 C273 0.929 . S
H255 C274 0.929 . S
H256 C286 0.931 . S
H257 C278 0.929 . S
H258 C287 0.930 . S
H259 C279 0.931 . S
O260 Co236 2.097 . S
O260 C288 1.214 . S
H261 C289 0.929 . S
H262 C290 0.929 . S
H263 C291 0.930 . S
H264 C292 0.929 . S
H265 C294 0.930 . S
H266 C271 0.930 . S
H267 C275 0.930 . S
O268 Co237 2.037 . S
O268 C288 1.234 . S
C269 O243 1.269 . S
C269 O244 1.257 . S
C270 H245 0.930 . S
C270 C273 1.388 . S
C270 C275 1.418 . S
C271 H266 0.930 . S
C271 C274 1.404 . S
C271 C275 1.353 . S
N272 Co237 2.145 . S
N272 C273 1.397 . S
N272 C274 1.334 . S
C273 H254 0.929 . S
C273 C270 1.388 . S
C273 N272 1.397 . S
C274 H255 0.929 . S
C274 C271 1.404 . S
C274 N272 1.334 . S
C275 H267 0.930 . S
C275 C270 1.418 . S
C275 C271 1.353 . S
C276 H246 0.930 . S
C276 N277 1.330 . S
C276 C278 1.446 . S
N277 Co236 2.151 1_565 S
N277 C276 1.330 . S
N277 C281 1.418 . S
C278 H257 0.929 . S
C278 C276 1.446 . S
C278 C279 1.332 . S
C279 H259 0.931 . S
C279 C278 1.332 . S
C279 C280 1.267 . S
C280 H248 0.929 . S
C280 C279 1.267 . S
C280 C281 1.251 . S
C281 H251 0.929 . S
C281 N277 1.418 . S
C281 C280 1.251 . S
C282 H249 0.930 . S
C282 C284 1.406 . S
C282 C287 1.261 . S
C283 H250 0.930 1_565 S
C283 N285 1.325 . S
C283 C286 1.357 . S
C284 H252 0.928 . S
C284 C282 1.406 . S
C284 N285 1.261 . S
N285 Co236 2.214 1_565 S
N285 C283 1.325 . S
N285 C284 1.261 . S
C286 H256 0.931 . S
C286 C283 1.357 . S
C286 C287 1.312 . S
C287 H258 0.930 . S
C287 C282 1.261 . S
C287 C286 1.312 . S
C288 O260 1.214 . S
C288 O268 1.234 . S
C289 H261 0.929 . S
C289 C292 1.391 . S
C289 C294 1.391 . S
C290 H262 0.929 . S
C290 C291 1.390 . S
C290 N293 1.391 . S
C291 H263 0.930 . S
C291 C290 1.390 . S
C291 C292 1.392 . S
C292 H264 0.929 . S
C292 C289 1.391 . S
C292 C291 1.392 . S
N293 Co237 2.257 . S
N293 C290 1.391 . S
N293 C294 1.388 . S
C294 H265 0.930 . S
C294 C289 1.391 . S
C294 N293 1.388 . S
Co295 O297 2.143 . S
Co295 O303 2.074 . S
Co295 O306 2.093 . S
Co295 O319 2.097 . S
Co295 N336 2.151 . S
Co295 N344 2.214 . S
Co296 O297 2.160 . S
Co296 O302 2.058 . S
Co296 O312 2.057 . S
Co296 O327 2.037 . S
Co296 N331 2.145 . S
Co296 N352 2.257 1_455 S
O297 Co295 2.143 . S
O297 Co296 2.160 . S
C298 O299 1.278 . S
C298 O306 1.224 . S
O299 C298 1.278 . S
C300 O301 1.245 . S
C300 O312 1.232 . S
O301 C300 1.245 . S
O302 Co296 2.058 . S
O302 C328 1.269 . S
O303 Co295 2.074 . S
O303 C328 1.257 . S
H304 C329 0.932 . S
H305 C335 0.930 . S
O306 Co295 2.093 . S
O306 C298 1.224 . S
H307 C339 0.929 . S
H308 C341 0.930 . S
H309 C342 0.930 . S
H310 C340 0.929 . S
H311 C343 0.928 . S
O312 Co296 2.057 . S
O312 C300 1.232 . S
H313 C332 0.929 . S
H314 C333 0.929 . S
H315 C345 0.931 . S
H316 C337 0.929 . S
H317 C346 0.930 . S
H318 C338 0.931 . S
O319 Co295 2.097 . S
O319 C347 1.214 . S
H320 C348 0.929 . S
H321 C349 0.929 . S
H322 C350 0.930 . S
H323 C351 0.929 . S
H324 C353 0.930 1_455 S
H325 C330 0.930 . S
H326 C334 0.930 . S
O327 Co296 2.037 . S
O327 C347 1.234 . S
C328 O302 1.269 . S
C328 O303 1.257 . S
C329 H304 0.932 . S
C329 C332 1.388 . S
C329 C334 1.418 1_455 S
C330 H325 0.930 . S
C330 C333 1.404 . S
C330 C334 1.353 1_455 S
N331 Co296 2.145 . S
N331 C332 1.397 . S
N331 C333 1.334 . S
C332 H313 0.929 . S
C332 C329 1.388 . S
C332 N331 1.397 . S
C333 H314 0.929 . S
C333 C330 1.404 . S
C333 N331 1.334 . S
C334 H326 0.930 . S
C334 C329 1.418 1_655 S
C334 C330 1.353 1_655 S
C335 H305 0.930 . S
C335 N336 1.330 . S
C335 C337 1.446 . S
N336 Co295 2.151 . S
N336 C335 1.330 . S
N336 C340 1.418 . S
C337 H316 0.929 . S
C337 C335 1.446 . S
C337 C338 1.332 . S
C338 H318 0.931 . S
C338 C337 1.332 . S
C338 C339 1.267 . S
C339 H307 0.929 . S
C339 C338 1.267 . S
C339 C340 1.251 . S
C340 H310 0.929 . S
C340 N336 1.418 . S
C340 C339 1.251 . S
C341 H308 0.930 . S
C341 C343 1.406 . S
C341 C346 1.261 . S
C342 H309 0.930 . S
C342 N344 1.325 . S
C342 C345 1.357 . S
C343 H311 0.928 . S
C343 C341 1.406 . S
C343 N344 1.261 . S
N344 Co295 2.214 . S
N344 C342 1.325 . S
N344 C343 1.261 . S
C345 H315 0.931 . S
C345 C342 1.357 . S
C345 C346 1.312 . S
C346 H317 0.930 . S
C346 C341 1.261 . S
C346 C345 1.312 . S
C347 O319 1.214 . S
C347 O327 1.234 . S
C348 H320 0.929 . S
C348 C351 1.391 . S
C348 C353 1.391 . S
C349 H321 0.929 . S
C349 C350 1.390 . S
C349 N352 1.391 . S
C350 H322 0.930 . S
C350 C349 1.390 . S
C350 C351 1.392 . S
C351 H323 0.929 . S
C351 C348 1.391 . S
C351 C350 1.392 . S
N352 Co296 2.257 1_655 S
N352 C349 1.391 . S
N352 C353 1.388 . S
C353 H324 0.930 1_655 S
C353 C348 1.391 . S
C353 N352 1.388 . S
Co354 O356 2.143 . S
Co354 O362 2.074 . S
Co354 O365 2.093 . S
Co354 O378 2.097 . S
Co354 N395 2.151 . S
Co354 N403 2.214 . S
Co355 O356 2.160 . S
Co355 O361 2.058 . S
Co355 O371 2.057 . S
Co355 O386 2.037 . S
Co355 N390 2.145 . S
Co355 N411 2.257 1_545 S
O356 Co354 2.143 . S
O356 Co355 2.160 . S
C357 O358 1.278 . S
C357 O365 1.224 . S
O358 C357 1.278 . S
C359 O360 1.245 . S
C359 O371 1.232 . S
O360 C359 1.245 . S
O361 Co355 2.058 . S
O361 C387 1.269 . S
O362 Co354 2.074 . S
O362 C387 1.257 . S
H363 C388 0.932 . S
H364 C394 0.930 . S
O365 Co354 2.093 . S
O365 C357 1.224 . S
H366 C398 0.929 . S
H367 C400 0.930 . S
H368 C401 0.930 . S
H369 C399 0.929 . S
H370 C402 0.928 . S
O371 Co355 2.057 . S
O371 C359 1.232 . S
H372 C391 0.929 . S
H373 C392 0.929 . S
H374 C404 0.931 . S
H375 C396 0.929 . S
H376 C405 0.930 . S
H377 C397 0.931 . S
O378 Co354 2.097 . S
O378 C406 1.214 . S
H379 C407 0.929 . S
H380 C408 0.929 . S
H381 C409 0.930 . S
H382 C410 0.929 . S
H383 C412 0.930 1_545 S
H384 C389 0.930 . S
H385 C393 0.930 . S
O386 Co355 2.037 . S
O386 C406 1.234 . S
C387 O361 1.269 . S
C387 O362 1.257 . S
C388 H363 0.932 . S
C388 C391 1.388 . S
C388 C393 1.418 1_545 S
C389 H384 0.930 . S
C389 C392 1.404 . S
C389 C393 1.353 1_545 S
N390 Co355 2.145 . S
N390 C391 1.397 . S
N390 C392 1.334 . S
C391 H372 0.929 . S
C391 C388 1.388 . S
C391 N390 1.397 . S
C392 H373 0.929 . S
C392 C389 1.404 . S
C392 N390 1.334 . S
C393 H385 0.930 . S
C393 C388 1.418 1_565 S
C393 C389 1.353 1_565 S
C394 H364 0.930 . S
C394 N395 1.330 . S
C394 C396 1.446 . S
N395 Co354 2.151 . S
N395 C394 1.330 . S
N395 C399 1.418 . S
C396 H375 0.929 . S
C396 C394 1.446 . S
C396 C397 1.332 . S
C397 H377 0.931 . S
C397 C396 1.332 . S
C397 C398 1.267 . S
C398 H366 0.929 . S
C398 C397 1.267 . S
C398 C399 1.251 . S
C399 H369 0.929 . S
C399 N395 1.418 . S
C399 C398 1.251 . S
C400 H367 0.930 . S
C400 C402 1.406 1_455 S
C400 C405 1.261 . S
C401 H368 0.930 . S
C401 N403 1.325 . S
C401 C404 1.357 1_655 S
C402 H370 0.928 . S
C402 C400 1.406 1_655 S
C402 N403 1.261 . S
N403 Co354 2.214 . S
N403 C401 1.325 . S
N403 C402 1.261 . S
C404 H374 0.931 . S
C404 C401 1.357 1_455 S
C404 C405 1.312 . S
C405 H376 0.930 . S
C405 C400 1.261 . S
C405 C404 1.312 . S
C406 O378 1.214 . S
C406 O386 1.234 . S
C407 H379 0.929 . S
C407 C410 1.391 . S
C407 C412 1.391 . S
C408 H380 0.929 . S
C408 C409 1.390 . S
C408 N411 1.391 . S
C409 H381 0.930 . S
C409 C408 1.390 . S
C409 C410 1.392 . S
C410 H382 0.929 . S
C410 C407 1.391 . S
C410 C409 1.392 . S
N411 Co355 2.257 1_565 S
N411 C408 1.391 . S
N411 C412 1.388 . S
C412 H383 0.930 1_565 S
C412 C407 1.391 . S
C412 N411 1.388 . S
Co413 O415 2.143 . S
Co413 O421 2.074 1_455 S
Co413 O424 2.093 . S
Co413 O437 2.097 . S
Co413 N454 2.151 1_455 S
Co413 N462 2.214 1_455 S
Co414 O415 2.160 . S
Co414 O420 2.058 1_455 S
Co414 O430 2.057 . S
Co414 O445 2.037 . S
Co414 N449 2.145 . S
Co414 N470 2.257 . S
O415 Co413 2.143 . S
O415 Co414 2.160 . S
C416 O417 1.278 . S
C416 O424 1.224 . S
O417 C416 1.278 . S
C418 O419 1.245 1_455 S
C418 O430 1.232 . S
O419 C418 1.245 1_655 S
O420 Co414 2.058 1_655 S
O420 C446 1.269 . S
O421 Co413 2.074 1_655 S
O421 C446 1.257 . S
H422 C447 0.930 . S
H423 C453 0.930 . S
O424 Co413 2.093 . S
O424 C416 1.224 . S
H425 C457 0.929 . S
H426 C459 0.930 . S
H427 C460 0.930 1_455 S
H428 C458 0.929 . S
H429 C461 0.928 . S
O430 Co414 2.057 . S
O430 C418 1.232 . S
H431 C450 0.929 . S
H432 C451 0.929 . S
H433 C463 0.931 . S
H434 C455 0.929 . S
H435 C464 0.930 . S
H436 C456 0.931 . S
O437 Co413 2.097 . S
O437 C465 1.214 . S
H438 C466 0.929 . S
H439 C467 0.929 . S
H440 C468 0.930 . S
H441 C469 0.929 . S
H442 C471 0.930 . S
H443 C448 0.930 . S
H444 C452 0.930 . S
O445 Co414 2.037 . S
O445 C465 1.234 . S
C446 O420 1.269 . S
C446 O421 1.257 . S
C447 H422 0.930 . S
C447 C450 1.388 . S
C447 C452 1.418 . S
C448 H443 0.930 . S
C448 C451 1.404 . S
C448 C452 1.353 . S
N449 Co414 2.145 . S
N449 C450 1.397 . S
N449 C451 1.334 . S
C450 H431 0.929 . S
C450 C447 1.388 . S
C450 N449 1.397 . S
C451 H432 0.929 . S
C451 C448 1.404 . S
C451 N449 1.334 . S
C452 H444 0.930 . S
C452 C447 1.418 . S
C452 C448 1.353 . S
C453 H423 0.930 . S
C453 N454 1.330 . S
C453 C455 1.446 . S
N454 Co413 2.151 1_655 S
N454 C453 1.330 . S
N454 C458 1.418 . S
C455 H434 0.929 . S
C455 C453 1.446 . S
C455 C456 1.332 . S
C456 H436 0.931 . S
C456 C455 1.332 . S
C456 C457 1.267 . S
C457 H425 0.929 . S
C457 C456 1.267 . S
C457 C458 1.251 . S
C458 H428 0.929 . S
C458 N454 1.418 . S
C458 C457 1.251 . S
C459 H426 0.930 . S
C459 C461 1.406 1_545 S
C459 C464 1.261 . S
C460 H427 0.930 1_655 S
C460 N462 1.325 . S
C460 C463 1.357 1_565 S
C461 H429 0.928 . S
C461 C459 1.406 1_565 S
C461 N462 1.261 . S
N462 Co413 2.214 1_655 S
N462 C460 1.325 . S
N462 C461 1.261 . S
C463 H433 0.931 . S
C463 C460 1.357 1_545 S
C463 C464 1.312 . S
C464 H435 0.930 . S
C464 C459 1.261 . S
C464 C463 1.312 . S
C465 O437 1.214 . S
C465 O445 1.234 . S
C466 H438 0.929 . S
C466 C469 1.391 . S
C466 C471 1.391 . S
C467 H439 0.929 . S
C467 C468 1.390 . S
C467 N470 1.391 . S
C468 H440 0.930 . S
C468 C467 1.390 . S
C468 C469 1.392 . S
C469 H441 0.929 . S
C469 C466 1.391 . S
C469 C468 1.392 . S
N470 Co414 2.257 . S
N470 C467 1.391 . S
N470 C471 1.388 . S
C471 H442 0.930 . S
C471 C466 1.391 . S
C471 N470 1.388 . S
C472 C473 1.387 . S
C472 H476 0.950 . S
C472 C481 1.390 1_554 S
C473 C472 1.387 . S
C473 C475 1.387 . S
H474 C481 0.950 . S
C475 C473 1.387 . S
C475 C477 1.390 1_554 S
C475 H479 0.950 . S
H476 C472 0.950 . S
C477 C475 1.390 1_556 S
C477 C478 1.387 . S
C477 H480 0.950 . S
C478 C477 1.387 . S
C478 C481 1.387 . S
H479 C475 0.950 . S
H480 C477 0.950 . S
C481 C472 1.390 1_556 S
C481 H474 0.950 . S
C481 C478 1.387 . S
C482 C483 1.387 . S
C482 H486 0.950 . S
C482 C491 1.390 . S
C483 C482 1.387 . S
C483 C485 1.387 . S
H484 C491 0.950 . S
C485 C483 1.387 . S
C485 C487 1.390 . S
C485 H489 0.950 . S
H486 C482 0.950 . S
C487 C485 1.390 . S
C487 C488 1.387 . S
C487 H490 0.950 . S
C488 C487 1.387 . S
C488 C491 1.387 . S
H489 C485 0.950 . S
H490 C487 0.950 . S
C491 C482 1.390 . S
C491 H484 0.950 . S
C491 C488 1.387 . S
C492 C493 1.387 . S
C492 H496 0.950 . S
C492 C501 1.390 1_556 S
C493 C492 1.387 . S
C493 C495 1.387 . S
H494 C501 0.950 . S
C495 C493 1.387 . S
C495 C497 1.390 1_556 S
C495 H499 0.950 . S
H496 C492 0.950 . S
C497 C495 1.390 1_554 S
C497 C498 1.387 . S
C497 H500 0.950 . S
C498 C497 1.387 . S
C498 C501 1.387 . S
H499 C495 0.950 . S
H500 C497 0.950 . S
C501 C492 1.390 1_554 S
C501 H494 0.950 . S
C501 C498 1.387 . S
C502 C503 1.387 . S
C502 H506 0.950 . S
C502 C511 1.390 . S
C503 C502 1.387 . S
C503 C505 1.387 . S
H504 C511 0.950 . S
C505 C503 1.387 . S
C505 C507 1.390 . S
C505 H509 0.950 . S
H506 C502 0.950 . S
C507 C505 1.390 . S
C507 C508 1.387 . S
C507 H510 0.950 . S
C508 C507 1.387 . S
C508 C511 1.387 . S
H509 C505 0.950 . S
H510 C507 0.950 . S
C511 C502 1.390 . S
C511 H504 0.950 . S
C511 C508 1.387 . S
C512 C513 1.387 . S
C512 H516 0.950 . S
C512 C521 1.390 . S
C513 C512 1.387 . S
C513 C515 1.387 . S
H514 C521 0.950 . S
C515 C513 1.387 . S
C515 C517 1.390 . S
C515 H519 0.950 . S
H516 C512 0.950 . S
C517 C515 1.390 . S
C517 C518 1.387 . S
C517 H520 0.950 . S
C518 C517 1.387 . S
C518 C521 1.387 . S
H519 C515 0.950 . S
H520 C517 0.950 . S
C521 C512 1.390 . S
C521 H514 0.950 . S
C521 C518 1.387 . S
C522 C523 1.387 . S
C522 H526 0.950 . S
C522 C531 1.390 . S
C523 C522 1.387 . S
C523 C525 1.387 . S
H524 C531 0.950 . S
C525 C523 1.387 . S
C525 C527 1.390 . S
C525 H529 0.950 . S
H526 C522 0.950 . S
C527 C525 1.390 . S
C527 C528 1.387 . S
C527 H530 0.950 . S
C528 C527 1.387 . S
C528 C531 1.387 . S
H529 C525 0.950 . S
H530 C527 0.950 . S
C531 C522 1.390 . S
C531 H524 0.950 . S
C531 C528 1.387 . S
C532 C533 1.387 . S
C532 H536 0.950 . S
C532 C541 1.390 . S
C533 C532 1.387 . S
C533 C535 1.387 . S
H534 C541 0.950 . S
C535 C533 1.387 . S
C535 C537 1.390 . S
C535 H539 0.950 . S
H536 C532 0.950 . S
C537 C535 1.390 . S
C537 C538 1.387 . S
C537 H540 0.950 . S
C538 C537 1.387 . S
C538 C541 1.387 . S
H539 C535 0.950 . S
H540 C537 0.950 . S
C541 C532 1.390 . S
C541 H534 0.950 . S
C541 C538 1.387 . S
C542 C543 1.387 . S
C542 H546 0.950 . S
C542 C551 1.390 . S
C543 C542 1.387 . S
C543 C545 1.387 . S
H544 C551 0.950 . S
C545 C543 1.387 . S
C545 C547 1.390 . S
C545 H549 0.950 . S
H546 C542 0.950 . S
C547 C545 1.390 . S
C547 C548 1.387 . S
C547 H550 0.950 . S
C548 C547 1.387 . S
C548 C551 1.387 . S
H549 C545 0.950 . S
H550 C547 0.950 . S
C551 C542 1.390 . S
C551 H544 0.950 . S
C551 C548 1.387 . S
C552 C553 1.387 . S
C552 H556 0.950 . S
C552 C561 1.390 . S
C553 C552 1.387 . S
C553 C555 1.387 . S
H554 C561 0.950 . S
C555 C553 1.387 . S
C555 C557 1.390 . S
C555 H559 0.950 . S
H556 C552 0.950 . S
C557 C555 1.390 . S
C557 C558 1.387 . S
C557 H560 0.950 . S
C558 C557 1.387 . S
C558 C561 1.387 . S
H559 C555 0.950 . S
H560 C557 0.950 . S
C561 C552 1.390 . S
C561 H554 0.950 . S
C561 C558 1.387 . S
C562 C563 1.387 . S
C562 H566 0.950 . S
C562 C571 1.390 . S
C563 C562 1.387 . S
C563 C565 1.387 . S
H564 C571 0.950 . S
C565 C563 1.387 . S
C565 C567 1.390 . S
C565 H569 0.950 . S
H566 C562 0.950 . S
C567 C565 1.390 . S
C567 C568 1.387 . S
C567 H570 0.950 . S
C568 C567 1.387 . S
C568 C571 1.387 . S
H569 C565 0.950 . S
H570 C567 0.950 . S
C571 C562 1.390 . S
C571 H564 0.950 . S
C571 C568 1.387 . S
C572 C573 1.387 . S
C572 H576 0.950 . S
C572 C581 1.390 . S
C573 C572 1.387 . S
C573 C575 1.387 . S
H574 C581 0.950 . S
C575 C573 1.387 . S
C575 C577 1.390 . S
C575 H579 0.950 . S
H576 C572 0.950 . S
C577 C575 1.390 . S
C577 C578 1.387 . S
C577 H580 0.950 . S
C578 C577 1.387 . S
C578 C581 1.387 . S
H579 C575 0.950 . S
H580 C577 0.950 . S
C581 C572 1.390 . S
C581 H574 0.950 . S
C581 C578 1.387 . S
C582 C583 1.387 . S
C582 H586 0.950 . S
C582 C591 1.390 . S
C583 C582 1.387 . S
C583 C585 1.387 . S
H584 C591 0.950 . S
C585 C583 1.387 . S
C585 C587 1.390 . S
C585 H589 0.950 . S
H586 C582 0.950 . S
C587 C585 1.390 . S
C587 C588 1.387 . S
C587 H590 0.950 . S
C588 C587 1.387 . S
C588 C591 1.387 . S
H589 C585 0.950 . S
H590 C587 0.950 . S
C591 C582 1.390 . S
C591 H584 0.950 . S
C591 C588 1.387 . S
C592 C593 1.387 . S
C592 H596 0.950 . S
C592 C601 1.390 . S
C593 C592 1.387 . S
C593 C595 1.387 . S
H594 C601 0.950 . S
C595 C593 1.387 . S
C595 C597 1.390 1_655 S
C595 H599 0.950 1_565 S
H596 C592 0.950 . S
C597 C595 1.390 1_455 S
C597 C598 1.387 1_455 S
C597 H600 0.950 . S
C598 C597 1.387 1_655 S
C598 C601 1.387 . S
H599 C595 0.950 1_545 S
H600 C597 0.950 . S
C601 C592 1.390 . S
C601 H594 0.950 . S
C601 C598 1.387 . S
C602 C603 1.387 1_545 S
C602 H606 0.950 . S
C602 C611 1.390 1_545 S
C603 C602 1.387 1_565 S
C603 C605 1.387 . S
H604 C611 0.950 . S
C605 C603 1.387 . S
C605 C607 1.390 . S
C605 H609 0.950 . S
H606 C602 0.950 . S
C607 C605 1.390 . S
C607 C608 1.387 . S
C607 H610 0.950 . S
C608 C607 1.387 . S
C608 C611 1.387 . S
H609 C605 0.950 . S
H610 C607 0.950 . S
C611 C602 1.390 1_565 S
C611 H604 0.950 . S
C611 C608 1.387 . S
C612 C613 1.387 . S
C612 H616 0.950 . S
C612 C621 1.390 . S
C613 C612 1.387 . S
C613 C615 1.387 . S
H614 C621 0.950 . S
C615 C613 1.387 . S
C615 C617 1.390 . S
C615 H619 0.950 . S
H616 C612 0.950 . S
C617 C615 1.390 . S
C617 C618 1.387 . S
C617 H620 0.950 . S
C618 C617 1.387 . S
C618 C621 1.387 . S
H619 C615 0.950 . S
H620 C617 0.950 . S
C621 C612 1.390 . S
C621 H614 0.950 . S
C621 C618 1.387 . S
C622 C623 1.387 . S
C622 H626 0.950 . S
C622 C631 1.390 . S
C623 C622 1.387 . S
C623 C625 1.387 1_655 S
H624 C631 0.950 . S
C625 C623 1.387 1_455 S
C625 C627 1.390 1_455 S
C625 H629 0.950 . S
H626 C622 0.950 . S
C627 C625 1.390 1_655 S
C627 C628 1.387 . S
C627 H630 0.950 . S
C628 C627 1.387 . S
C628 C631 1.387 . S
H629 C625 0.950 . S
H630 C627 0.950 . S
C631 C622 1.390 . S
C631 H624 0.950 . S
C631 C628 1.387 . S
C473 C3 1.579 . S
C478 C239 1.579 . S
C483 C62 1.579 . S
C488 C298 1.579 . S
C493 C357 1.579 . S
C498 C121 1.579 . S
C503 C416 1.579 . S
C508 C180 1.579 . S
C513 C5 1.704 . S
C518 C123 1.704 . S
C523 C64 1.704 . S
C528 C182 1.704 . S
C533 C359 1.701 . S
C538 C241 1.701 . S
C543 C300 1.701 . S
C548 C418 1.701 . S
C553 C328 1.149 . S
C558 C33 1.151 . S
C563 C92 1.150 . S
C568 C387 1.152 . S
C573 C446 1.150 . S
C578 C151 1.152 . S
C583 C210 1.150 . S
C588 C269 1.152 . S
C593 C406 1.722 1_565 S
C598 C229 1.722 1_655 S
C603 C52 1.721 1_565 S
C608 C465 1.721 . S
C613 C111 1.721 . S
C618 C288 1.721 . S
C623 C347 1.722 1_655 S
C628 C170 1.721 . S
