# Generated by pormake.
# Topology smk, (6)-cn, num edge types: 1
# Building blocks:
#     Node 0, Type 0, BuildingBlock: OJICUG_clean_sbu_0, # of connection points: 6
#     Node 1, Type 0, BuildingBlock: OJICUG_clean_sbu_0, # of connection points: 6
#     Node 2, Type 0, BuildingBlock: OJICUG_clean_sbu_0, # of connection points: 6
#     Node 3, Type 0, BuildingBlock: OJICUG_clean_sbu_0, # of connection points: 6
#     Node 4, Type 0, BuildingBlock: OJICUG_clean_sbu_0, # of connection points: 6
#     Node 5, Type 0, BuildingBlock: OJICUG_clean_sbu_0, # of connection points: 6
#     Edge 6, Type (0, 0), BuildingBlock: TEMPAE_clean_linker_10, # of connection points: 2
#     Edge 7, Type (0, 0), BuildingBlock: TEMPAE_clean_linker_10, # of connection points: 2
#     Edge 8, Type (0, 0), BuildingBlock: TEMPAE_clean_linker_10, # of connection points: 2
#     Edge 9, Type (0, 0), BuildingBlock: TEMPAE_clean_linker_10, # of connection points: 2
#     Edge 10, Type (0, 0), BuildingBlock: TEMPAE_clean_linker_10, # of connection points: 2
#     Edge 11, Type (0, 0), BuildingBlock: TEMPAE_clean_linker_10, # of connection points: 2
#     Edge 12, Type (0, 0), BuildingBlock: TEMPAE_clean_linker_10, # of connection points: 2
#     Edge 13, Type (0, 0), BuildingBlock: TEMPAE_clean_linker_10, # of connection points: 2
#     Edge 14, Type (0, 0), BuildingBlock: TEMPAE_clean_linker_10, # of connection points: 2
#     Edge 15, Type (0, 0), BuildingBlock: TEMPAE_clean_linker_10, # of connection points: 2
#     Edge 16, Type (0, 0), BuildingBlock: TEMPAE_clean_linker_10, # of connection points: 2
#     Edge 17, Type (0, 0), BuildingBlock: TEMPAE_clean_linker_10, # of connection points: 2
#     Edge 18, Type (0, 0), BuildingBlock: TEMPAE_clean_linker_10, # of connection points: 2
#     Edge 19, Type (0, 0), BuildingBlock: TEMPAE_clean_linker_10, # of connection points: 2
#     Edge 20, Type (0, 0), BuildingBlock: TEMPAE_clean_linker_10, # of connection points: 2
#     Edge 21, Type (0, 0), BuildingBlock: TEMPAE_clean_linker_10, # of connection points: 2
#     Edge 22, Type (0, 0), BuildingBlock: TEMPAE_clean_linker_10, # of connection points: 2
#     Edge 23, Type (0, 0), BuildingBlock: TEMPAE_clean_linker_10, # of connection points: 2
# Relax obj value: 0.194
# Max RMSD: 0.221
# Mean RMSD: 0.221
data_MOF--net-smk--node1-OJICUG_clean_sbu_0--edge1-TEMPAE_clean_linker_10
_symmetry_space_group_name_H-M    P1
_symmetry_Int_Tables_number       1
_symmetry_cell_setting            triclinic
loop_
_symmetry_equiv_pos_as_xyz
'x, y, z'
_cell_length_a     44.405794
_cell_length_b     44.365026
_cell_length_c     15.976385
_cell_angle_alpha  89.998929
_cell_angle_beta   89.992291
_cell_angle_gamma 120.0833
loop_
_atom_site_label
_atom_site_type_symbol
_atom_site_fract_x
_atom_site_fract_y
_atom_site_fract_z
_atom_type_partial_charge
Sc0 Sc 0.44309 0.20136 0.45046 0.0
Sc1 Sc 0.36303 0.17513 0.54545 0.0
Sc2 Sc 0.43927 0.23922 0.63744 0.0
O3 O 0.41527 0.2053 0.54434 0.0
C4 C 0.49234 0.21145 0.60071 0.0
C5 C 0.38496 0.12195 0.48933 0.0
C6 C 0.38158 0.179 0.74016 0.0
C7 C 0.37896 0.19073 0.34995 0.0
C8 C 0.48284 0.28379 0.485 0.0
C9 C 0.37138 0.24562 0.60223 0.0
O10 O 0.47729 0.19512 0.53422 0.0
O11 O 0.36755 0.12941 0.54009 0.0
O12 O 0.41396 0.19917 0.7293 0.0
O13 O 0.4117 0.20809 0.35941 0.0
O14 O 0.4666 0.28157 0.55226 0.0
O15 O 0.3571 0.22016 0.55132 0.0
O16 O 0.47892 0.2571 0.44543 0.0
O17 O 0.35822 0.17393 0.40952 0.0
O18 O 0.39859 0.25262 0.64412 0.0
O19 O 0.4102 0.1449 0.44582 0.0
O20 O 0.48282 0.23014 0.64062 0.0
O21 O 0.3595 0.17137 0.68151 0.0
Sc22 Sc 0.23801 0.44346 0.69468 0.0
Sc23 Sc 0.17476 0.36701 0.78768 0.0
Sc24 Sc 0.20057 0.44698 0.88266 0.0
O25 O 0.20454 0.41931 0.78848 0.0
C26 C 0.28286 0.48722 0.84672 0.0
C27 C 0.24505 0.37579 0.72945 0.0
C28 C 0.19047 0.38295 0.98305 0.0
C29 C 0.17811 0.38531 0.59289 0.0
C30 C 0.20984 0.49614 0.73262 0.0
C31 C 0.12134 0.38868 0.84342 0.0
O32 O 0.28057 0.47116 0.77906 0.0
O33 O 0.22004 0.36165 0.78158 0.0
O34 O 0.20766 0.41571 0.97345 0.0
O35 O 0.19769 0.41781 0.60371 0.0
O36 O 0.19394 0.48106 0.79948 0.0
O37 O 0.12892 0.37121 0.79312 0.0
O38 O 0.22852 0.48684 0.69194 0.0
O39 O 0.17098 0.36333 0.65159 0.0
O40 O 0.14416 0.41391 0.88724 0.0
O41 O 0.25164 0.40286 0.68725 0.0
O42 O 0.25622 0.48298 0.8871 0.0
O43 O 0.17363 0.36216 0.92361 0.0
Sc44 Sc 0.79101 0.25794 0.83966 0.0
Sc45 Sc 0.80237 0.18904 0.91189 0.0
Sc46 Sc 0.73367 0.19941 0.98979 0.0
O47 O 0.77572 0.21543 0.91381 0.0
C48 C 0.77045 0.28205 0.0075 0.0
C49 C 0.86378 0.26818 0.90289 0.0
C50 C 0.78408 0.18614 0.10642 0.0
C51 C 0.80378 0.20839 0.71837 0.0
C52 C 0.70829 0.22067 0.82514 0.0
C53 C 0.72351 0.12714 0.92238 0.0
O54 O 0.78622 0.28781 0.93803 0.0
O55 O 0.85192 0.23616 0.91971 0.0
O56 O 0.75895 0.19152 0.09396 0.0
O57 O 0.79821 0.23326 0.73322 0.0
O58 O 0.7031 0.20456 0.89395 0.0
O59 O 0.75542 0.13922 0.90411 0.0
O60 O 0.73862 0.24093 0.79627 0.0
O61 O 0.80536 0.18935 0.77593 0.0
O62 O 0.71193 0.14578 0.9532 0.0
O63 O 0.84495 0.27986 0.87384 0.0
O64 O 0.75057 0.25148 0.03565 0.0
O65 O 0.803 0.18533 0.04756 0.0
Sc66 Sc 0.54154 0.79013 0.9489 0.0
Sc67 Sc 0.62167 0.81584 0.04306 0.0
Sc68 Sc 0.54538 0.75212 0.13558 0.0
O69 O 0.5694 0.78597 0.04236 0.0
C70 C 0.49251 0.78013 0.09956 0.0
C71 C 0.60003 0.86939 0.9877 0.0
C72 C 0.6033 0.81219 0.23787 0.0
C73 C 0.60544 0.80033 0.84766 0.0
C74 C 0.50165 0.70767 0.98323 0.0
C75 C 0.61303 0.74533 0.10028 0.0
O76 O 0.50755 0.79652 0.03312 0.0
O77 O 0.61751 0.86177 0.03781 0.0
O78 O 0.57088 0.79222 0.22719 0.0
O79 O 0.5727 0.78332 0.85728 0.0
O80 O 0.51792 0.7098 0.05037 0.0
O81 O 0.62728 0.77062 0.04886 0.0
O82 O 0.50558 0.73442 0.94387 0.0
O83 O 0.62633 0.81693 0.90714 0.0
O84 O 0.58593 0.73858 0.14233 0.0
O85 O 0.57459 0.84656 0.94449 0.0
O86 O 0.50193 0.7613 0.13907 0.0
O87 O 0.62532 0.81962 0.17913 0.0
Sc88 Sc 0.74639 0.54796 0.19674 0.0
Sc89 Sc 0.80977 0.62443 0.28935 0.0
Sc90 Sc 0.78406 0.54443 0.38433 0.0
O91 O 0.77997 0.57212 0.29032 0.0
C92 C 0.70171 0.50426 0.34911 0.0
C93 C 0.73947 0.61569 0.23148 0.0
C94 C 0.79426 0.60852 0.48481 0.0
C95 C 0.80626 0.60604 0.0946 0.0
C96 C 0.77453 0.49524 0.23417 0.0
C97 C 0.86323 0.60263 0.34434 0.0
O98 O 0.70394 0.5203 0.28146 0.0
O99 O 0.76454 0.62987 0.28342 0.0
O100 O 0.77718 0.57575 0.47536 0.0
O101 O 0.7866 0.57356 0.10546 0.0
O102 O 0.79051 0.51029 0.30095 0.0
O103 O 0.85558 0.62018 0.29446 0.0
O104 O 0.75582 0.50457 0.19375 0.0
O105 O 0.81347 0.62805 0.15327 0.0
O106 O 0.84049 0.5774 0.38831 0.0
O107 O 0.73279 0.58855 0.18951 0.0
O108 O 0.72838 0.50849 0.38927 0.0
O109 O 0.81098 0.62931 0.42527 0.0
Sc110 Sc 0.19389 0.73343 0.33838 0.0
Sc111 Sc 0.18221 0.80233 0.40866 0.0
Sc112 Sc 0.2507 0.79215 0.48895 0.0
O113 O 0.20889 0.776 0.41206 0.0
C114 C 0.21392 0.70952 0.50735 0.0
C115 C 0.12089 0.72315 0.39966 0.0
C116 C 0.19981 0.80552 0.60356 0.0
C117 C 0.18166 0.78291 0.21551 0.0
C118 C 0.27664 0.77074 0.32545 0.0
C119 C 0.26102 0.86433 0.42039 0.0
O120 O 0.19842 0.7037 0.43749 0.0
O121 O 0.13267 0.7552 0.41586 0.0
O122 O 0.22511 0.80029 0.59214 0.0
O123 O 0.18709 0.75801 0.2312 0.0
O124 O 0.2816 0.78686 0.39418 0.0
O125 O 0.22916 0.85221 0.40156 0.0
O126 O 0.24641 0.7505 0.29609 0.0
O127 O 0.17979 0.80195 0.27262 0.0
O128 O 0.27254 0.84571 0.45168 0.0
O129 O 0.13983 0.71144 0.3715 0.0
O130 O 0.23365 0.74012 0.53555 0.0
O131 O 0.18098 0.80606 0.54416 0.0
C132 C 0.34196 0.15251 0.23415 0.0
C133 C 0.36577 0.18594 0.26352 0.0
C134 C 0.3364 0.14588 0.14784 0.0
C135 C 0.35469 0.1735 0.09039 0.0
C136 C 0.37609 0.20787 0.12052 0.0
C137 C 0.38171 0.21359 0.20675 0.0
C138 C 0.31353 0.10888 0.11839 0.0
C139 C 0.3954 0.23826 0.06153 0.0
C140 C 0.39045 0.16389 0.88428 0.0
C141 C 0.36943 0.16878 0.827 0.0
C142 C 0.38389 0.16221 0.9704 0.0
C143 C 0.35608 0.16633 -5e-05 0.0
C144 C 0.33315 0.16858 0.94203 0.0
C145 C 0.33996 0.1695 0.85585 0.0
C146 C 0.40847 0.15884 0.02992 0.0
C147 C 0.30331 0.17311 0.97091 0.0
H148 H 0.32988 0.13102 0.27808 0.0
H149 H 0.40002 0.23946 0.22965 0.0
H150 H 0.29752 0.10779 0.06394 0.0
H151 H 0.33017 0.09814 0.098 0.0
H152 H 0.29602 0.09193 0.1689 0.0
H153 H 0.40702 0.26367 0.09464 0.0
H154 H 0.41665 0.23623 0.03035 0.0
H155 H 0.37772 0.23788 0.01196 0.0
H156 H 0.41308 0.16304 0.8619 0.0
H157 H 0.32378 0.17353 0.81163 0.0
H158 H 0.39371 0.13923 0.07904 0.0
H159 H 0.42505 0.18416 0.06164 0.0
H160 H 0.42571 0.15121 0.99716 0.0
H161 H 0.28958 0.15578 0.02467 0.0
H162 H 0.28426 0.16769 0.91988 0.0
H163 H 0.31361 0.20035 0.99219 0.0
C164 C 0.16996 0.34404 0.47739 0.0
C165 C 0.16822 0.37302 0.50603 0.0
C166 C 0.16938 0.33729 0.39125 0.0
C167 C 0.16641 0.35976 0.33313 0.0
C168 C 0.16131 0.38702 0.36244 0.0
C169 C 0.16269 0.39355 0.44854 0.0
C170 C 0.17499 0.30806 0.36267 0.0
C171 C 0.15719 0.4111 0.3027 0.0
C172 C 0.21355 0.38633 0.12629 0.0
C173 C 0.18599 0.3698 0.06953 0.0
C174 C 0.20793 0.38065 0.21253 0.0
C175 C 0.17373 0.35853 0.24271 0.0
C176 C 0.14628 0.33964 0.1853 0.0
C177 C 0.15283 0.3453 0.09896 0.0
C178 C 0.23815 0.40064 0.27148 0.0
C179 C 0.10949 0.31593 0.21484 0.0
H180 H 0.17453 0.32826 0.52177 0.0
H181 H 0.16109 0.41582 0.47074 0.0
H182 H 0.158 0.29403 0.30868 0.0
H183 H 0.20237 0.31908 0.34185 0.0
H184 H 0.16997 0.28911 0.41374 0.0
H185 H 0.14893 0.42789 0.33526 0.0
H186 H 0.18238 0.42817 0.27097 0.0
H187 H 0.13777 0.39593 0.25359 0.0
H188 H 0.23923 0.40514 0.10337 0.0
H189 H 0.1314 0.33272 0.05508 0.0
H190 H 0.23831 0.38325 0.32116 0.0
H191 H 0.23545 0.42154 0.30253 0.0
H192 H 0.26357 0.41284 0.23836 0.0
H193 H 0.10893 0.30007 0.26913 0.0
H194 H 0.09282 0.2982 0.16431 0.0
H195 H 0.09809 0.33196 0.23551 0.0
C196 C 0.82431 0.19047 0.22274 0.0
C197 C 0.79076 0.18059 0.19416 0.0
C198 C 0.83089 0.19032 0.30893 0.0
C199 C 0.80326 0.18005 0.36692 0.0
C200 C 0.76891 0.16704 0.33732 0.0
C201 C 0.76314 0.16751 0.25149 0.0
C202 C 0.86774 0.20365 0.33808 0.0
C203 C 0.73855 0.15554 0.39661 0.0
C204 C 0.80582 0.17062 0.60283 0.0
C205 C 0.80854 0.20204 0.62947 0.0
C206 C 0.8068 0.16385 0.51701 0.0
C207 C 0.81038 0.18902 0.45714 0.0
C208 C 0.81551 0.22161 0.48426 0.0
C209 C 0.81462 0.2277 0.56976 0.0
C210 C 0.80198 0.12908 0.49049 0.0
C211 C 0.81951 0.24932 0.42281 0.0
H212 H 0.84568 0.20021 0.17853 0.0
H213 H 0.73696 0.15894 0.22948 0.0
H214 H 0.87903 0.231 0.35953 0.0
H215 H 0.86841 0.18811 0.39171 0.0
H216 H 0.8844 0.20303 0.28701 0.0
H217 H 0.71314 0.14229 0.3635 0.0
H218 H 0.73865 0.13756 0.44467 0.0
H219 H 0.74087 0.17862 0.42968 0.0
H220 H 0.80157 0.15081 0.64854 0.0
H221 H 0.81763 0.25243 0.58959 0.0
H222 H 0.81902 0.13206 0.43659 0.0
H223 H 0.77465 0.11186 0.47039 0.0
H224 H 0.80761 0.11603 0.54255 0.0
H225 H 0.84 0.25435 0.37617 0.0
H226 H 0.82631 0.27429 0.45417 0.0
H227 H 0.79474 0.24015 0.38821 0.0
C228 C 0.6446 0.82087 0.35357 0.0
C229 C 0.61555 0.82234 0.32463 0.0
C230 C 0.65131 0.82164 0.43977 0.0
C231 C 0.62873 0.82453 0.4976 0.0
C232 C 0.60141 0.82943 0.46793 0.0
C233 C 0.59491 0.82786 0.3818 0.0
C234 C 0.68061 0.81625 0.46875 0.0
C235 C 0.57723 0.83351 0.52736 0.0
C236 C 0.60211 0.77732 0.70437 0.0
C237 C 0.61855 0.80489 0.76117 0.0
C238 C 0.60783 0.78297 0.61815 0.0
C239 C 0.62986 0.81723 0.58805 0.0
C240 C 0.64861 0.84472 0.64551 0.0
C241 C 0.64293 0.83813 0.73183 0.0
C242 C 0.58799 0.75272 0.55913 0.0
C243 C 0.67218 0.88159 0.61607 0.0
H244 H 0.66047 0.81634 0.30942 0.0
H245 H 0.5726 0.82926 0.35933 0.0
H246 H 0.69456 0.83341 0.52259 0.0
H247 H 0.66972 0.78891 0.48993 0.0
H248 H 0.69959 0.82127 0.41779 0.0
H249 H 0.56046 0.84172 0.49452 0.0
H250 H 0.56017 0.8083 0.55906 0.0
H251 H 0.59228 0.85298 0.57651 0.0
H252 H 0.58337 0.75158 0.72724 0.0
H253 H 0.65541 0.85957 0.77576 0.0
H254 H 0.60545 0.75263 0.50961 0.0
H255 H 0.5671 0.75535 0.52789 0.0
H256 H 0.57582 0.72727 0.59224 0.0
H257 H 0.68805 0.88226 0.56173 0.0
H258 H 0.68985 0.8983 0.66663 0.0
H259 H 0.65607 0.8929 0.59551 0.0
C260 C 0.77111 0.60526 0.6279 0.0
C261 C 0.79872 0.62171 0.57123 0.0
C262 C 0.77668 0.61094 0.71415 0.0
C263 C 0.81088 0.63295 0.74443 0.0
C264 C 0.83839 0.65177 0.68708 0.0
C265 C 0.83189 0.64612 0.60073 0.0
C266 C 0.7464 0.59103 0.77302 0.0
C267 C 0.87519 0.67536 0.71671 0.0
C268 C 0.81459 0.64738 0.9791 0.0
C269 C 0.81617 0.61832 0.00773 0.0
C270 C 0.81525 0.65417 0.89297 0.0
C271 C 0.81813 0.63165 0.83485 0.0
C272 C 0.82306 0.60429 0.86416 0.0
C273 C 0.82162 0.59772 0.95025 0.0
C274 C 0.8098 0.6835 0.86438 0.0
C275 C 0.82709 0.58015 0.80442 0.0
H276 H 0.74542 0.58651 0.60492 0.0
H277 H 0.85335 0.65863 0.5569 0.0
H278 H 0.74896 0.57006 0.80409 0.0
H279 H 0.7463 0.60846 0.8227 0.0
H280 H 0.721 0.57894 0.73983 0.0
H281 H 0.89193 0.69306 0.66622 0.0
H282 H 0.87578 0.69124 0.77099 0.0
H283 H 0.88647 0.65924 0.73745 0.0
H284 H 0.8101 0.66321 0.02347 0.0
H285 H 0.8231 0.5754 0.97246 0.0
H286 H 0.78244 0.6726 0.84355 0.0
H287 H 0.82683 0.6975 0.8104 0.0
H288 H 0.81489 0.70247 0.91546 0.0
H289 H 0.8019 0.56317 0.77264 0.0
H290 H 0.83523 0.56326 0.837 0.0
H291 H 0.84656 0.59528 0.75536 0.0
C292 C 0.17464 0.76506 0.06575 0.0
C293 C 0.17743 0.78931 0.12621 0.0
C294 C 0.17353 0.77119 0.98037 0.0
C295 C 0.17504 0.80236 0.95399 0.0
C296 C 0.17568 0.82605 0.01442 0.0
C297 C 0.17699 0.81931 0.10013 0.0
C298 C 0.17285 0.74512 0.91827 0.0
C299 C 0.1767 0.85926 0.98868 0.0
C300 C 0.2209 0.82722 0.7467 0.0
C301 C 0.19289 0.81132 0.69073 0.0
C302 C 0.21539 0.8277 0.83269 0.0
C303 C 0.18094 0.81161 0.86372 0.0
C304 C 0.15261 0.79846 0.80688 0.0
C305 C 0.15894 0.79853 0.7205 0.0
C306 C 0.24643 0.8424 0.8907 0.0
C307 C 0.11556 0.7817 0.83756 0.0
H308 H 0.17424 0.74143 0.08487 0.0
H309 H 0.17873 0.83802 0.1463 0.0
H310 H 0.15166 0.73781 0.87208 0.0
H311 H 0.19778 0.75699 0.88319 0.0
H312 H 0.16907 0.72101 0.94908 0.0
H313 H 0.16941 0.87077 0.04116 0.0
H314 H 0.20344 0.87858 0.96825 0.0
H315 H 0.15898 0.8546 0.93513 0.0
H316 H 0.24727 0.83794 0.72351 0.0
H317 H 0.13726 0.78653 0.67719 0.0
H318 H 0.24733 0.82069 0.9229 0.0
H319 H 0.24425 0.85896 0.93951 0.0
H320 H 0.27136 0.85812 0.85659 0.0
H321 H 0.10716 0.75495 0.85988 0.0
H322 H 0.09751 0.77991 0.7871 0.0
H323 H 0.11333 0.79646 0.89096 0.0
C324 C 0.35104 0.05982 0.5341 0.0
C325 C 0.37353 0.08473 0.47627 0.0
C326 C 0.33675 0.02418 0.51869 0.0
C327 C 0.34502 0.01312 0.44339 0.0
C328 C 0.36886 0.03806 0.38632 0.0
C329 C 0.38295 0.07367 0.40356 0.0
C330 C 0.31168 -0.00166 0.58161 0.0
C331 C 0.37828 0.02717 0.30548 0.0
C332 C 0.31882 0.91779 0.44621 0.0
C333 C 0.28506 0.90237 0.41273 0.0
C334 C 0.33976 0.95412 0.45166 0.0
C335 C 0.32663 0.97544 0.42283 0.0
C336 C 0.2937 0.96016 0.38335 0.0
C337 C 0.2733 0.9238 0.37877 0.0
C338 C 0.37492 0.96952 0.49341 0.0
C339 C 0.27896 0.9821 0.35098 0.0
H340 H 0.34395 0.06815 0.59088 0.0
H341 H 0.40027 0.09276 0.35846 0.0
H342 H 0.28541 0.9833 0.55322 0.0
H343 H 0.32001 0.97946 0.59945 0.0
H344 H 0.30966 0.0112 0.63928 0.0
H345 H 0.4002 0.04949 0.27278 0.0
H346 H 0.38547 0.00694 0.31734 0.0
H347 H 0.35539 0.01558 0.26318 0.0
H348 H 0.32836 0.90153 0.47191 0.0
H349 H 0.24749 0.91222 0.35166 0.0
H350 H 0.37357 0.97933 0.55639 0.0
H351 H 0.39486 0.99197 0.45698 0.0
H352 H 0.38351 0.95007 0.50077 0.0
H353 H 0.27264 0.99388 0.40457 0.0
H354 H 0.25492 0.96659 0.31354 0.0
H355 H 0.2984 0.00374 0.31168 0.0
C356 C 0.36992 0.29519 0.67299 0.0
C357 C 0.35486 0.26703 0.61693 0.0
C358 C 0.3536 0.31444 0.69154 0.0
C359 C 0.32146 0.30533 0.65315 0.0
C360 C 0.30644 0.27748 0.59521 0.0
C361 C 0.32333 0.25866 0.57773 0.0
C362 C 0.37042 0.34411 0.75342 0.0
C363 C 0.27218 0.26714 0.55292 0.0
C364 C 0.26066 0.32994 0.76019 0.0
C365 C 0.26609 0.35898 0.71326 0.0
C366 C 0.27889 0.31252 0.74197 0.0
C367 C 0.30306 0.32439 0.67514 0.0
C368 C 0.30918 0.35402 0.6285 0.0
C369 C 0.29067 0.37101 0.64821 0.0
C370 C 0.27187 0.28106 0.79334 0.0
C371 C 0.33481 0.36739 0.5568 0.0
H372 H 0.39433 0.302 0.70346 0.0
H373 H 0.31148 0.23701 0.53428 0.0
H374 H 0.3741 0.36847 0.72459 0.0
H375 H 0.35317 0.33847 0.80847 0.0
H376 H 0.39608 0.34863 0.77555 0.0
H377 H 0.26456 0.24558 0.50737 0.0
H378 H 0.25133 0.25874 0.60064 0.0
H379 H 0.27374 0.28981 0.51956 0.0
H380 H 0.24183 0.32049 0.81073 0.0
H381 H 0.29507 0.39339 0.61142 0.0
H382 H 0.29646 0.28491 0.82104 0.0
H383 H 0.26144 0.25773 0.7525 0.0
H384 H 0.25296 0.27576 0.84465 0.0
H385 H 0.36083 0.37302 0.57869 0.0
H386 H 0.33733 0.3914 0.52838 0.0
H387 H 0.32639 0.34712 0.50753 0.0
C388 C 0.9227 0.28095 0.94984 0.0
C389 C 0.90174 0.29223 0.91096 0.0
C390 C 0.95905 0.30107 0.9465 0.0
C391 C 0.97483 0.33319 0.90308 0.0
C392 C 0.95395 0.34595 0.86907 0.0
C393 C 0.91758 0.32531 0.87351 0.0
C394 C 0.98048 0.28676 0.98445 0.0
C395 C 0.96989 0.38024 0.82295 0.0
C396 C 0.07296 0.3888 0.92427 0.0
C397 C 0.08414 0.37766 0.85473 0.0
C398 C 0.03736 0.37558 0.93954 0.0
C399 C 0.01256 0.35078 0.88381 0.0
C400 C 0.02376 0.34068 0.81161 0.0
C401 C 0.05937 0.3542 0.79803 0.0
C402 C 0.02631 0.387 0.01701 0.0
C403 C -0.00193 0.31448 0.75023 0.0
H404 H 0.91074 0.2557 0.98017 0.0
H405 H 0.90165 0.33441 0.84385 0.0
H406 H 0.99243 0.27915 0.93373 0.0
H407 H 0.00196 0.30692 0.0228 0.0
H408 H 0.96458 0.26357 0.02433 0.0
H409 H 0.95073 0.38895 0.81184 0.0
H410 H 0.99227 0.4008 0.85833 0.0
H411 H 0.97986 0.37746 0.76147 0.0
H412 H 0.09192 0.40695 0.96841 0.0
H413 H 0.06776 0.34576 0.74358 0.0
H414 H 0.0142 0.36505 0.06207 0.0
H415 H 0.00648 0.3943 0.00122 0.0
H416 H 0.04862 0.40945 0.04833 0.0
H417 H 0.98258 0.28886 0.78155 0.0
H418 H 0.01109 0.311 0.69469 0.0
H419 H 0.97962 0.32278 0.72851 0.0
C420 C 0.63437 0.93144 0.03276 0.0
C421 C 0.6115 0.90665 0.97526 0.0
C422 C 0.64858 0.96711 0.01795 0.0
C423 C 0.63982 0.97832 0.9436 0.0
C424 C 0.61563 0.9535 0.8869 0.0
C425 C 0.60165 0.91786 0.90351 0.0
C426 C 0.67404 0.99282 0.08046 0.0
C427 C 0.6057 0.96456 0.80707 0.0
C428 C 0.66591 0.07358 0.94909 0.0
C429 C 0.69947 0.08913 0.91445 0.0
C430 C 0.64503 0.03724 0.95411 0.0
C431 C 0.65803 0.01604 0.92359 0.0
C432 C 0.69074 0.03146 0.88294 0.0
C433 C 0.71108 0.06783 0.87889 0.0
C434 C 0.61013 0.02168 0.99721 0.0
C435 C 0.70532 0.00966 0.84874 0.0
H436 H 0.6418 0.923 0.08882 0.0
H437 H 0.58402 0.89886 0.85868 0.0
H438 H 0.70012 0.00795 0.05114 0.0
H439 H 0.66579 0.01164 0.0996 0.0
H440 H 0.67646 0.97984 0.13744 0.0
H441 H 0.58364 0.94229 0.7746 0.0
H442 H 0.59848 0.98468 0.82022 0.0
H443 H 0.62835 0.97635 0.76402 0.0
H444 H 0.6565 0.08975 0.97607 0.0
H445 H 0.73673 0.07953 0.85084 0.0
H446 H 0.61188 0.01173 0.05968 0.0
H447 H 0.58998 -0.00069 0.96098 0.0
H448 H 0.60155 0.04108 0.00591 0.0
H449 H 0.71201 -0.00223 0.90141 0.0
H450 H 0.7291 0.02528 0.81053 0.0
H451 H 0.68564 0.98809 0.80968 0.0
C452 C 0.69282 0.61946 0.15248 0.0
C453 C 0.71846 0.63251 0.2151 0.0
C454 C 0.6743 0.63638 0.13229 0.0
C455 C 0.68153 0.66702 0.17588 0.0
C456 C 0.7068 0.67997 0.24029 0.0
C457 C 0.72499 0.66256 0.25913 0.0
C458 C 0.64744 0.62183 0.0633 0.0
C459 C 0.71503 0.71254 0.28837 0.0
C460 C 0.66029 0.73129 0.07405 0.0
C461 C 0.62952 0.72395 0.11567 0.0
C462 C 0.67723 0.71257 0.09218 0.0
C463 C 0.66305 0.68592 0.15333 0.0
C464 C 0.63166 0.67784 0.19426 0.0
C465 C 0.61525 0.69692 0.17491 0.0
C466 C 0.71065 0.72175 0.04706 0.0
C467 C 0.61576 0.64949 0.25968 0.0
H468 H 0.68753 0.59627 0.11801 0.0
H469 H 0.74467 0.67283 0.30772 0.0
H470 H 0.6219 0.61687 0.08717 0.0
H471 H 0.65514 0.64113 0.01189 0.0
H472 H 0.64421 0.59718 0.03711 0.0
H473 H 0.73477 0.71867 0.33807 0.0
H474 H 0.72494 0.73503 0.24491 0.0
H475 H 0.69104 0.70954 0.31776 0.0
H476 H 0.6715 0.75204 0.0281 0.0
H477 H 0.59145 0.69094 0.20736 0.0
H478 H 0.7083 0.69833 0.01581 0.0
H479 H 0.73229 0.7309 0.09278 0.0
H480 H 0.71762 0.74241 0.99926 0.0
H481 H 0.61139 0.62448 0.23329 0.0
H482 H 0.59059 0.64565 0.28366 0.0
H483 H 0.63395 0.6561 0.31316 0.0
C484 C 0.91181 0.60239 0.42393 0.0
C485 C 0.90043 0.61353 0.35477 0.0
C486 C 0.94745 0.61554 0.43837 0.0
C487 C 0.97209 0.64026 0.38219 0.0
C488 C 0.96067 0.65032 0.3103 0.0
C489 C 0.92502 0.63687 0.29754 0.0
C490 C 0.95874 0.60416 0.51549 0.0
C491 C 0.98616 0.67644 0.24846 0.0
C492 C 0.06201 0.7103 0.44699 0.0
C493 C 0.08295 0.69908 0.40779 0.0
C494 C 0.02566 0.6901 0.44413 0.0
C495 C 0.00987 0.65795 0.40086 0.0
C496 C 0.03074 0.64526 0.36644 0.0
C497 C 0.06711 0.66599 0.37041 0.0
C498 C 0.00424 0.70435 0.48249 0.0
C499 C 0.01478 0.61094 0.32044 0.0
H500 H 0.89298 0.58433 0.46843 0.0
H501 H 0.91647 0.64528 0.24335 0.0
H502 H 0.9786 0.59695 0.49926 0.0
H503 H 0.97089 0.62611 0.56055 0.0
H504 H 0.93654 0.58167 0.547 0.0
H505 H 0.97297 0.6798 0.19313 0.0
H506 H 0.0017 0.70211 0.27949 0.0
H507 H 0.00458 0.66814 0.22645 0.0
H508 H 0.07398 0.73555 0.4773 0.0
H509 H 0.08305 0.65694 0.34049 0.0
H510 H 0.98293 0.68419 0.52125 0.0
H511 H 0.99206 0.71181 0.43201 0.0
H512 H 0.02019 0.72762 0.52207 0.0
H513 H 0.9925 0.59038 0.35609 0.0
H514 H 0.03397 0.6023 0.30901 0.0
H515 H 0.00465 0.61366 0.25912 0.0
C516 C 0.5336 0.32243 0.39402 0.0
C517 C 0.51006 0.31886 0.45711 0.0
C518 C 0.56274 0.35494 0.3762 0.0
C519 C 0.56834 0.38458 0.42225 0.0
C520 C 0.54364 0.38159 0.48238 0.0
C521 C 0.51478 0.34874 0.49918 0.0
C522 C 0.58847 0.35721 0.31109 0.0
C523 C 0.54856 0.41272 0.53196 0.0
C524 C 0.6632 0.45402 0.44174 0.0
C525 C 0.66671 0.47684 0.37679 0.0
C526 C 0.63089 0.42462 0.45956 0.0
C527 C 0.6014 0.418 0.41156 0.0
C528 C 0.60426 0.44201 0.3495 0.0
C529 C 0.63691 0.47116 0.33279 0.0
C530 C 0.62873 0.39967 0.52681 0.0
C531 C 0.57327 0.43598 0.29775 0.0
H532 H 0.53016 0.2996 0.36088 0.0
H533 H 0.49659 0.34636 0.54751 0.0
H534 H 0.59377 0.37807 0.26523 0.0
H535 H 0.61353 0.36408 0.34177 0.0
H536 H 0.57907 0.33231 0.27669 0.0
H537 H 0.52508 0.40686 0.56907 0.0
H538 H 0.5708 0.42114 0.57556 0.0
H539 H 0.55486 0.43497 0.48973 0.0
H540 H 0.68596 0.45823 0.47643 0.0
H541 H 0.63922 0.48878 0.28298 0.0
H542 H 0.62268 0.37451 0.49785 0.0
H543 H 0.60739 0.39424 0.57122 0.0
H544 H 0.6534 0.40989 0.56258 0.0
H545 H 0.56565 0.41349 0.25535 0.0
H546 H 0.57889 0.45906 0.25915 0.0
H547 H 0.55062 0.42949 0.33861 0.0
C548 C 0.22658 0.54541 0.63224 0.0
C549 C 0.2082 0.52706 0.70378 0.0
C550 C 0.22681 0.57575 0.60677 0.0
C551 C 0.20817 0.58809 0.65387 0.0
C552 C 0.18946 0.56973 0.72589 0.0
C553 C 0.18965 0.53941 0.74996 0.0
C554 C 0.24693 0.59459 0.52923 0.0
C555 C 0.1692 0.58208 0.7774 0.0
C556 C 0.23431 0.68258 0.61525 0.0
C557 C 0.21004 0.67897 0.55418 0.0
C558 C 0.23324 0.65312 0.65102 0.0
C559 C 0.20723 0.61944 0.62523 0.0
C560 C 0.18157 0.61568 0.56714 0.0
C561 C 0.18328 0.64546 0.53238 0.0
C562 C 0.26091 0.65805 0.71333 0.0
C563 C 0.15323 0.58021 0.53857 0.0
H564 H 0.24108 0.53622 0.5962 0.0
H565 H 0.17544 0.52556 0.80551 0.0
H566 H 0.229 0.59533 0.482 0.0
H567 H 0.26641 0.62195 0.54479 0.0
H568 H 0.26066 0.58199 0.50061 0.0
H569 H 0.15659 0.56523 0.83273 0.0
H570 H 0.18672 0.60911 0.79933 0.0
H571 H 0.14878 0.58252 0.73831 0.0
H572 H 0.25502 0.70836 0.6325 0.0
H573 H 0.16409 0.64238 0.48611 0.0
H574 H 0.27806 0.64927 0.68518 0.0
H575 H 0.24884 0.64189 0.76983 0.0
H576 H 0.27722 0.68568 0.73279 0.0
H577 H 0.16492 0.5672 0.5027 0.0
H578 H 0.13368 0.58177 0.49821 0.0
H579 H 0.13964 0.56347 0.59328 0.0
C580 C 0.64408 0.1895 0.80292 0.0
C581 C 0.6773 0.21647 0.77992 0.0
C582 C 0.61396 0.18705 0.76848 0.0
C583 C 0.61704 0.21217 0.70946 0.0
C584 C 0.65043 0.23851 0.68282 0.0
C585 C 0.68025 0.24032 0.71832 0.0
C586 C 0.57883 0.15842 0.79808 0.0
C587 C 0.65463 0.26564 0.61959 0.0
C588 C 0.53635 0.19215 0.58469 0.0
C589 C 0.52354 0.2105 0.63 0.0
C590 C 0.56702 0.19279 0.60909 0.0
C591 C 0.58528 0.21217 0.68051 0.0
C592 C 0.57246 0.23059 0.72676 0.0
C593 C 0.54177 0.22951 0.70103 0.0
C594 C 0.57989 0.17273 0.55854 0.0
C595 C 0.59116 0.25141 0.80364 0.0
H596 H 0.64148 0.17062 0.84963 0.0
H597 H 0.70579 0.26118 0.70009 0.0
H598 H 0.56546 0.16996 0.83309 0.0
H599 H 0.56214 0.14417 0.74385 0.0
H600 H 0.58093 0.13945 0.83952 0.0
H601 H 0.68216 0.28246 0.60005 0.0
H602 H 0.63863 0.25298 0.56323 0.0
H603 H 0.6452 0.28241 0.64687 0.0
H604 H 0.52259 0.17748 0.52955 0.0
H605 H 0.53223 0.24386 0.73642 0.0
H606 H 0.58096 0.15284 0.59852 0.0
H607 H 0.60672 0.19057 0.53597 0.0
H608 H 0.563 0.15945 0.5037 0.0
H609 H 0.59244 0.23399 0.85159 0.0
H610 H 0.57815 0.26485 0.83163 0.0
H611 H 0.61832 0.27124 0.78752 0.0
C612 C 0.45078 0.66919 0.89243 0.0
C613 C 0.47441 0.67265 0.95516 0.0
C614 C 0.42167 0.6367 0.8744 0.0
C615 C 0.41619 0.60696 0.91984 0.0
C616 C 0.44098 0.60986 0.97957 0.0
C617 C 0.4698 0.6427 0.99662 0.0
C618 C 0.39583 0.63453 0.80975 0.0
C619 C 0.43619 0.57862 0.02846 0.0
C620 C 0.32142 0.53732 0.93961 0.0
C621 C 0.31787 0.51467 0.87421 0.0
C622 C 0.35372 0.56673 0.95745 0.0
C623 C 0.38316 0.57353 0.909 0.0
C624 C 0.38027 0.54971 0.84641 0.0
C625 C 0.34764 0.52054 0.82969 0.0
C626 C 0.35591 0.59148 0.02526 0.0
C627 C 0.41121 0.55593 0.79415 0.0
H628 H 0.45414 0.69208 0.85976 0.0
H629 H 0.48808 0.645 0.04464 0.0
H630 H 0.39052 0.61381 0.76349 0.0
H631 H 0.37079 0.62752 0.84076 0.0
H632 H 0.40514 0.65951 0.77578 0.0
H633 H 0.45972 0.58445 0.0653 0.0
H634 H 0.41397 0.57002 0.07225 0.0
H635 H 0.42992 0.55652 0.98579 0.0
H636 H 0.2987 0.53297 0.97471 0.0
H637 H 0.3453 0.50306 0.77951 0.0
H638 H 0.36188 0.6167 0.99678 0.0
H639 H 0.37731 0.59684 0.06938 0.0
H640 H 0.33128 0.58113 0.06126 0.0
H641 H 0.41872 0.57853 0.75216 0.0
H642 H 0.40559 0.53298 0.75509 0.0
H643 H 0.43394 0.56237 0.83469 0.0
C644 C 0.79492 0.4521 0.25056 0.0
C645 C 0.77613 0.46434 0.20504 0.0
C646 C 0.79512 0.42182 0.22615 0.0
C647 C 0.77615 0.4034 0.15447 0.0
C648 C 0.75725 0.41562 0.10805 0.0
C649 C 0.75749 0.44593 0.13383 0.0
C650 C 0.81565 0.40958 0.27691 0.0
C651 C 0.73684 0.39671 0.03091 0.0
C652 C 0.80082 0.34616 0.03174 0.0
C653 C 0.77426 0.31263 0.05404 0.0
C654 C 0.80254 0.37591 0.06666 0.0
C655 C 0.77708 0.3721 0.12544 0.0
C656 C 0.75124 0.3384 0.15164 0.0
C657 C 0.75016 0.30897 0.11567 0.0
C658 C 0.83068 0.4114 0.03762 0.0
C659 C 0.72379 0.33343 0.21468 0.0
H660 H 0.80933 0.46601 0.30584 0.0
H661 H 0.7428 0.45503 0.09832 0.0
H662 H 0.79828 0.38254 0.299 0.0
H663 H 0.83596 0.40921 0.23722 0.0
H664 H 0.82844 0.42647 0.33208 0.0
H665 H 0.72292 0.40921 0.00285 0.0
H666 H 0.75461 0.396 0.98313 0.0
H667 H 0.71749 0.36933 0.04674 0.0
H668 H 0.81989 0.34928 0.98502 0.0
H669 H 0.7296 0.28319 0.13335 0.0
H670 H 0.84448 0.42818 0.09211 0.0
H671 H 0.81877 0.42433 0.00232 0.0
H672 H 0.85009 0.4099 0.99659 0.0
H673 H 0.73605 0.34959 0.27106 0.0
H674 H 0.70758 0.30579 0.23423 0.0
H675 H 0.7065 0.34217 0.18718 0.0
C676 C 0.44893 0.80007 0.08516 0.0
C677 C 0.46141 0.78118 0.12932 0.0
C678 C 0.41835 0.79953 0.11002 0.0
C679 C 0.39985 0.77966 0.1807 0.0
C680 C 0.41236 0.76072 0.22582 0.0
C681 C 0.44298 0.76174 0.19969 0.0
C682 C 0.40581 0.82018 0.06073 0.0
C683 C 0.39339 0.73935 0.30187 0.0
C684 C 0.34096 0.80167 0.30488 0.0
C685 C 0.30776 0.77502 0.28069 0.0
C686 C 0.37112 0.80425 0.27031 0.0
C687 C 0.3681 0.7796 0.20996 0.0
C688 C 0.33475 0.75358 0.18228 0.0
C689 C 0.30489 0.75162 0.21793 0.0
C690 C 0.40622 0.83252 0.30106 0.0
C691 C 0.33063 0.72694 0.11765 0.0
H692 H 0.46287 0.8151 0.03057 0.0
H693 H 0.45226 0.74696 0.2342 0.0
H694 H 0.37904 0.80265 0.03739 0.0
H695 H 0.40471 0.83975 0.10184 0.0
H696 H 0.42292 0.8339 0.00651 0.0
H697 H 0.40622 0.72559 0.32906 0.0
H698 H 0.39208 0.75644 0.35067 0.0
H699 H 0.36625 0.71975 0.28504 0.0
H700 H 0.3435 0.8202 0.35251 0.0
H701 H 0.27938 0.73103 0.19874 0.0
H702 H 0.4231 0.84717 0.24743 0.0
H703 H 0.41938 0.82059 0.33533 0.0
H704 H 0.40409 0.8512 0.34351 0.0
H705 H 0.34675 0.74003 0.06175 0.0
H706 H 0.30313 0.71034 0.09762 0.0
H707 H 0.33994 0.70991 0.14387 0.0
loop_
_geom_bond_atom_site_label_1
_geom_bond_atom_site_label_2
_geom_bond_distance
_geom_bond_site_symmetry_2
_ccdc_geom_bond_type
Sc0 O3 2.025 . S
Sc0 O10 2.105 . S
Sc0 O13 2.105 . S
Sc0 O16 2.105 . S
Sc0 O19 2.105 . S
Sc1 O3 2.025 . S
Sc1 O11 2.105 . S
Sc1 O15 2.105 . S
Sc1 O17 2.105 . S
Sc1 O21 2.105 . S
Sc2 O3 2.025 . S
Sc2 O12 2.105 . S
Sc2 O14 2.105 . S
Sc2 O18 2.105 . S
Sc2 O20 2.105 . S
O3 Sc0 2.025 . S
O3 Sc1 2.025 . S
O3 Sc2 2.025 . S
C4 O10 1.268 . S
C4 O20 1.268 . S
C5 O11 1.268 . S
C5 O19 1.268 . S
C6 O12 1.268 . S
C6 O21 1.268 . S
C7 O13 1.268 . S
C7 O17 1.268 . S
C8 O14 1.268 . S
C8 O16 1.268 . S
C9 O15 1.268 . S
C9 O18 1.268 . S
O10 Sc0 2.105 . S
O10 C4 1.268 . S
O11 Sc1 2.105 . S
O11 C5 1.268 . S
O12 Sc2 2.105 . S
O12 C6 1.268 . S
O13 Sc0 2.105 . S
O13 C7 1.268 . S
O14 Sc2 2.105 . S
O14 C8 1.268 . S
O15 Sc1 2.105 . S
O15 C9 1.268 . S
O16 Sc0 2.105 . S
O16 C8 1.268 . S
O17 Sc1 2.105 . S
O17 C7 1.268 . S
O18 Sc2 2.105 . S
O18 C9 1.268 . S
O19 Sc0 2.105 . S
O19 C5 1.268 . S
O20 Sc2 2.105 . S
O20 C4 1.268 . S
O21 Sc1 2.105 . S
O21 C6 1.268 . S
Sc22 O25 2.025 . S
Sc22 O32 2.105 . S
Sc22 O35 2.105 . S
Sc22 O38 2.105 . S
Sc22 O41 2.105 . S
Sc23 O25 2.025 . S
Sc23 O33 2.105 . S
Sc23 O37 2.105 . S
Sc23 O39 2.105 . S
Sc23 O43 2.105 . S
Sc24 O25 2.025 . S
Sc24 O34 2.105 . S
Sc24 O36 2.105 . S
Sc24 O40 2.105 . S
Sc24 O42 2.105 . S
O25 Sc22 2.025 . S
O25 Sc23 2.025 . S
O25 Sc24 2.025 . S
C26 O32 1.268 . S
C26 O42 1.268 . S
C27 O33 1.268 . S
C27 O41 1.268 . S
C28 O34 1.268 . S
C28 O43 1.268 . S
C29 O35 1.268 . S
C29 O39 1.268 . S
C30 O36 1.268 . S
C30 O38 1.268 . S
C31 O37 1.268 . S
C31 O40 1.268 . S
O32 Sc22 2.105 . S
O32 C26 1.268 . S
O33 Sc23 2.105 . S
O33 C27 1.268 . S
O34 Sc24 2.105 . S
O34 C28 1.268 . S
O35 Sc22 2.105 . S
O35 C29 1.268 . S
O36 Sc24 2.105 . S
O36 C30 1.268 . S
O37 Sc23 2.105 . S
O37 C31 1.268 . S
O38 Sc22 2.105 . S
O38 C30 1.268 . S
O39 Sc23 2.105 . S
O39 C29 1.268 . S
O40 Sc24 2.105 . S
O40 C31 1.268 . S
O41 Sc22 2.105 . S
O41 C27 1.268 . S
O42 Sc24 2.105 . S
O42 C26 1.268 . S
O43 Sc23 2.105 . S
O43 C28 1.268 . S
Sc44 O47 2.025 . S
Sc44 O54 2.105 . S
Sc44 O57 2.105 . S
Sc44 O60 2.105 . S
Sc44 O63 2.105 . S
Sc45 O47 2.025 . S
Sc45 O55 2.105 . S
Sc45 O59 2.105 . S
Sc45 O61 2.105 . S
Sc45 O65 2.105 1_556 S
Sc46 O47 2.025 1_554 S
Sc46 O56 2.105 . S
Sc46 O58 2.105 1_554 S
Sc46 O62 2.105 1_554 S
Sc46 O64 2.105 . S
O47 Sc44 2.025 . S
O47 Sc45 2.025 . S
O47 Sc46 2.025 1_556 S
C48 O54 1.268 . S
C48 O64 1.268 1_556 S
C49 O55 1.268 . S
C49 O63 1.268 . S
C50 O56 1.268 . S
C50 O65 1.268 . S
C51 O57 1.268 . S
C51 O61 1.268 . S
C52 O58 1.268 . S
C52 O60 1.268 . S
C53 O59 1.268 . S
C53 O62 1.268 . S
O54 Sc44 2.105 . S
O54 C48 1.268 . S
O55 Sc45 2.105 . S
O55 C49 1.268 . S
O56 Sc46 2.105 . S
O56 C50 1.268 . S
O57 Sc44 2.105 . S
O57 C51 1.268 . S
O58 Sc46 2.105 1_556 S
O58 C52 1.268 . S
O59 Sc45 2.105 . S
O59 C53 1.268 . S
O60 Sc44 2.105 . S
O60 C52 1.268 . S
O61 Sc45 2.105 . S
O61 C51 1.268 . S
O62 Sc46 2.105 1_556 S
O62 C53 1.268 . S
O63 Sc44 2.105 . S
O63 C49 1.268 . S
O64 Sc46 2.105 . S
O64 C48 1.268 1_554 S
O65 Sc45 2.105 1_554 S
O65 C50 1.268 . S
Sc66 O69 2.025 1_556 S
Sc66 O76 2.105 1_556 S
Sc66 O79 2.105 . S
Sc66 O82 2.105 . S
Sc66 O85 2.105 1_556 S
Sc67 O69 2.025 . S
Sc67 O77 2.105 . S
Sc67 O81 2.105 . S
Sc67 O83 2.105 1_554 S
Sc67 O87 2.105 . S
Sc68 O69 2.025 . S
Sc68 O78 2.105 . S
Sc68 O80 2.105 . S
Sc68 O84 2.105 . S
Sc68 O86 2.105 . S
O69 Sc66 2.025 1_554 S
O69 Sc67 2.025 . S
O69 Sc68 2.025 . S
C70 O76 1.268 . S
C70 O86 1.268 . S
C71 O77 1.268 . S
C71 O85 1.268 . S
C72 O78 1.268 . S
C72 O87 1.268 . S
C73 O79 1.268 . S
C73 O83 1.268 . S
C74 O80 1.268 . S
C74 O82 1.268 1_554 S
C75 O81 1.268 . S
C75 O84 1.268 . S
O76 Sc66 2.105 1_554 S
O76 C70 1.268 . S
O77 Sc67 2.105 . S
O77 C71 1.268 . S
O78 Sc68 2.105 . S
O78 C72 1.268 . S
O79 Sc66 2.105 . S
O79 C73 1.268 . S
O80 Sc68 2.105 . S
O80 C74 1.268 . S
O81 Sc67 2.105 . S
O81 C75 1.268 . S
O82 Sc66 2.105 . S
O82 C74 1.268 1_556 S
O83 Sc67 2.105 1_556 S
O83 C73 1.268 . S
O84 Sc68 2.105 . S
O84 C75 1.268 . S
O85 Sc66 2.105 1_554 S
O85 C71 1.268 . S
O86 Sc68 2.105 . S
O86 C70 1.268 . S
O87 Sc67 2.105 . S
O87 C72 1.268 . S
Sc88 O91 2.025 . S
Sc88 O98 2.105 . S
Sc88 O101 2.105 . S
Sc88 O104 2.105 . S
Sc88 O107 2.105 . S
Sc89 O91 2.025 . S
Sc89 O99 2.105 . S
Sc89 O103 2.105 . S
Sc89 O105 2.105 . S
Sc89 O109 2.105 . S
Sc90 O91 2.025 . S
Sc90 O100 2.105 . S
Sc90 O102 2.105 . S
Sc90 O106 2.105 . S
Sc90 O108 2.105 . S
O91 Sc88 2.025 . S
O91 Sc89 2.025 . S
O91 Sc90 2.025 . S
C92 O98 1.268 . S
C92 O108 1.268 . S
C93 O99 1.268 . S
C93 O107 1.268 . S
C94 O100 1.268 . S
C94 O109 1.268 . S
C95 O101 1.268 . S
C95 O105 1.268 . S
C96 O102 1.268 . S
C96 O104 1.268 . S
C97 O103 1.268 . S
C97 O106 1.268 . S
O98 Sc88 2.105 . S
O98 C92 1.268 . S
O99 Sc89 2.105 . S
O99 C93 1.268 . S
O100 Sc90 2.105 . S
O100 C94 1.268 . S
O101 Sc88 2.105 . S
O101 C95 1.268 . S
O102 Sc90 2.105 . S
O102 C96 1.268 . S
O103 Sc89 2.105 . S
O103 C97 1.268 . S
O104 Sc88 2.105 . S
O104 C96 1.268 . S
O105 Sc89 2.105 . S
O105 C95 1.268 . S
O106 Sc90 2.105 . S
O106 C97 1.268 . S
O107 Sc88 2.105 . S
O107 C93 1.268 . S
O108 Sc90 2.105 . S
O108 C92 1.268 . S
O109 Sc89 2.105 . S
O109 C94 1.268 . S
Sc110 O113 2.025 . S
Sc110 O120 2.105 . S
Sc110 O123 2.105 . S
Sc110 O126 2.105 . S
Sc110 O129 2.105 . S
Sc111 O113 2.025 . S
Sc111 O121 2.105 . S
Sc111 O125 2.105 . S
Sc111 O127 2.105 . S
Sc111 O131 2.105 . S
Sc112 O113 2.025 . S
Sc112 O122 2.105 . S
Sc112 O124 2.105 . S
Sc112 O128 2.105 . S
Sc112 O130 2.105 . S
O113 Sc110 2.025 . S
O113 Sc111 2.025 . S
O113 Sc112 2.025 . S
C114 O120 1.268 . S
C114 O130 1.268 . S
C115 O121 1.268 . S
C115 O129 1.268 . S
C116 O122 1.268 . S
C116 O131 1.268 . S
C117 O123 1.268 . S
C117 O127 1.268 . S
C118 O124 1.268 . S
C118 O126 1.268 . S
C119 O125 1.268 . S
C119 O128 1.268 . S
O120 Sc110 2.105 . S
O120 C114 1.268 . S
O121 Sc111 2.105 . S
O121 C115 1.268 . S
O122 Sc112 2.105 . S
O122 C116 1.268 . S
O123 Sc110 2.105 . S
O123 C117 1.268 . S
O124 Sc112 2.105 . S
O124 C118 1.268 . S
O125 Sc111 2.105 . S
O125 C119 1.268 . S
O126 Sc110 2.105 . S
O126 C118 1.268 . S
O127 Sc111 2.105 . S
O127 C117 1.268 . S
O128 Sc112 2.105 . S
O128 C119 1.268 . S
O129 Sc110 2.105 . S
O129 C115 1.268 . S
O130 Sc112 2.105 . S
O130 C114 1.268 . S
O131 Sc111 2.105 . S
O131 C116 1.268 . S
C132 C133 1.391 . S
C132 C134 1.394 . S
C132 H148 0.931 . S
C133 C132 1.391 . S
C133 C137 1.376 . S
C134 C132 1.394 . S
C134 C135 1.369 . S
C134 C138 1.531 . S
C135 C134 1.369 . S
C135 C136 1.410 . S
C135 C143 1.503 . S
C136 C135 1.410 . S
C136 C137 1.392 . S
C136 C139 1.511 . S
C137 C133 1.376 . S
C137 C136 1.392 . S
C137 H149 0.929 . S
C138 C134 1.531 . S
C138 H150 0.960 . S
C138 H151 0.962 . S
C138 H152 0.960 . S
C139 C136 1.511 . S
C139 H153 0.961 . S
C139 H154 0.961 . S
C139 H155 0.961 . S
C140 C141 1.370 . S
C140 C142 1.363 . S
C140 H156 0.931 . S
C141 C140 1.370 . S
C141 C145 1.408 . S
C142 C140 1.363 . S
C142 C143 1.370 1_556 S
C142 C146 1.524 1_556 S
C143 C135 1.503 . S
C143 C142 1.370 1_554 S
C143 C144 1.403 1_554 S
C144 C143 1.403 1_556 S
C144 C145 1.404 . S
C144 C147 1.539 1_556 S
C145 C141 1.408 . S
C145 C144 1.404 . S
C145 H157 0.930 . S
C146 C142 1.524 1_554 S
C146 H158 0.956 . S
C146 H159 0.961 . S
C146 H160 0.961 . S
C147 C144 1.539 1_554 S
C147 H161 0.958 . S
C147 H162 0.961 1_554 S
C147 H163 0.960 . S
H148 C132 0.931 . S
H149 C137 0.929 . S
H150 C138 0.960 . S
H151 C138 0.962 . S
H152 C138 0.960 . S
H153 C139 0.961 . S
H154 C139 0.961 . S
H155 C139 0.961 . S
H156 C140 0.931 . S
H157 C145 0.930 . S
H158 C146 0.956 . S
H159 C146 0.961 . S
H160 C146 0.961 . S
H161 C147 0.958 . S
H162 C147 0.961 1_556 S
H163 C147 0.960 . S
C164 C165 1.391 . S
C164 C166 1.394 . S
C164 H180 0.931 . S
C165 C164 1.391 . S
C165 C169 1.376 . S
C166 C164 1.394 . S
C166 C167 1.369 . S
C166 C170 1.531 . S
C167 C166 1.369 . S
C167 C168 1.410 . S
C167 C175 1.503 . S
C168 C167 1.410 . S
C168 C169 1.392 . S
C168 C171 1.511 . S
C169 C165 1.376 . S
C169 C168 1.392 . S
C169 H181 0.929 . S
C170 C166 1.531 . S
C170 H182 0.960 . S
C170 H183 0.962 . S
C170 H184 0.960 . S
C171 C168 1.511 . S
C171 H185 0.961 . S
C171 H186 0.961 . S
C171 H187 0.961 . S
C172 C173 1.370 . S
C172 C174 1.363 . S
C172 H188 0.931 . S
C173 C172 1.370 . S
C173 C177 1.408 . S
C174 C172 1.363 . S
C174 C175 1.370 . S
C174 C178 1.524 . S
C175 C167 1.503 . S
C175 C174 1.370 . S
C175 C176 1.403 . S
C176 C175 1.403 . S
C176 C177 1.404 . S
C176 C179 1.539 . S
C177 C173 1.408 . S
C177 C176 1.404 . S
C177 H189 0.930 . S
C178 C174 1.524 . S
C178 H190 0.956 . S
C178 H191 0.961 . S
C178 H192 0.961 . S
C179 C176 1.539 . S
C179 H193 0.958 . S
C179 H194 0.961 . S
C179 H195 0.960 . S
H180 C164 0.931 . S
H181 C169 0.929 . S
H182 C170 0.960 . S
H183 C170 0.962 . S
H184 C170 0.960 . S
H185 C171 0.961 . S
H186 C171 0.961 . S
H187 C171 0.961 . S
H188 C172 0.931 . S
H189 C177 0.930 . S
H190 C178 0.956 . S
H191 C178 0.961 . S
H192 C178 0.961 . S
H193 C179 0.958 . S
H194 C179 0.961 . S
H195 C179 0.960 . S
C196 C197 1.391 . S
C196 C198 1.394 . S
C196 H212 0.931 . S
C197 C196 1.391 . S
C197 C201 1.376 . S
C198 C196 1.394 . S
C198 C199 1.369 . S
C198 C202 1.531 . S
C199 C198 1.369 . S
C199 C200 1.410 . S
C199 C207 1.503 . S
C200 C199 1.410 . S
C200 C201 1.392 . S
C200 C203 1.511 . S
C201 C197 1.376 . S
C201 C200 1.392 . S
C201 H213 0.929 . S
C202 C198 1.531 . S
C202 H214 0.960 . S
C202 H215 0.962 . S
C202 H216 0.960 . S
C203 C200 1.511 . S
C203 H217 0.961 . S
C203 H218 0.961 . S
C203 H219 0.961 . S
C204 C205 1.370 . S
C204 C206 1.363 . S
C204 H220 0.931 . S
C205 C204 1.370 . S
C205 C209 1.408 . S
C206 C204 1.363 . S
C206 C207 1.370 . S
C206 C210 1.524 . S
C207 C199 1.503 . S
C207 C206 1.370 . S
C207 C208 1.403 . S
C208 C207 1.403 . S
C208 C209 1.404 . S
C208 C211 1.539 . S
C209 C205 1.408 . S
C209 C208 1.404 . S
C209 H221 0.930 . S
C210 C206 1.524 . S
C210 H222 0.956 . S
C210 H223 0.961 . S
C210 H224 0.961 . S
C211 C208 1.539 . S
C211 H225 0.958 . S
C211 H226 0.961 . S
C211 H227 0.960 . S
H212 C196 0.931 . S
H213 C201 0.929 . S
H214 C202 0.960 . S
H215 C202 0.962 . S
H216 C202 0.960 . S
H217 C203 0.961 . S
H218 C203 0.961 . S
H219 C203 0.961 . S
H220 C204 0.931 . S
H221 C209 0.930 . S
H222 C210 0.956 . S
H223 C210 0.961 . S
H224 C210 0.961 . S
H225 C211 0.958 . S
H226 C211 0.961 . S
H227 C211 0.960 . S
C228 C229 1.391 . S
C228 C230 1.394 . S
C228 H244 0.931 . S
C229 C228 1.391 . S
C229 C233 1.376 . S
C230 C228 1.394 . S
C230 C231 1.369 . S
C230 C234 1.531 . S
C231 C230 1.369 . S
C231 C232 1.410 . S
C231 C239 1.503 . S
C232 C231 1.410 . S
C232 C233 1.392 . S
C232 C235 1.511 . S
C233 C229 1.376 . S
C233 C232 1.392 . S
C233 H245 0.929 . S
C234 C230 1.531 . S
C234 H246 0.960 . S
C234 H247 0.962 . S
C234 H248 0.960 . S
C235 C232 1.511 . S
C235 H249 0.961 . S
C235 H250 0.961 . S
C235 H251 0.961 . S
C236 C237 1.370 . S
C236 C238 1.363 . S
C236 H252 0.931 . S
C237 C236 1.370 . S
C237 C241 1.408 . S
C238 C236 1.363 . S
C238 C239 1.370 . S
C238 C242 1.524 . S
C239 C231 1.503 . S
C239 C238 1.370 . S
C239 C240 1.403 . S
C240 C239 1.403 . S
C240 C241 1.404 . S
C240 C243 1.539 . S
C241 C237 1.408 . S
C241 C240 1.404 . S
C241 H253 0.930 . S
C242 C238 1.524 . S
C242 H254 0.956 . S
C242 H255 0.961 . S
C242 H256 0.961 . S
C243 C240 1.539 . S
C243 H257 0.958 . S
C243 H258 0.961 . S
C243 H259 0.960 . S
H244 C228 0.931 . S
H245 C233 0.929 . S
H246 C234 0.960 . S
H247 C234 0.962 . S
H248 C234 0.960 . S
H249 C235 0.961 . S
H250 C235 0.961 . S
H251 C235 0.961 . S
H252 C236 0.931 . S
H253 C241 0.930 . S
H254 C242 0.956 . S
H255 C242 0.961 . S
H256 C242 0.961 . S
H257 C243 0.958 . S
H258 C243 0.961 . S
H259 C243 0.960 . S
C260 C261 1.391 . S
C260 C262 1.394 . S
C260 H276 0.931 . S
C261 C260 1.391 . S
C261 C265 1.376 . S
C262 C260 1.394 . S
C262 C263 1.369 . S
C262 C266 1.531 . S
C263 C262 1.369 . S
C263 C264 1.410 . S
C263 C271 1.503 . S
C264 C263 1.410 . S
C264 C265 1.392 . S
C264 C267 1.511 . S
C265 C261 1.376 . S
C265 C264 1.392 . S
C265 H277 0.929 . S
C266 C262 1.531 . S
C266 H278 0.960 . S
C266 H279 0.962 . S
C266 H280 0.960 . S
C267 C264 1.511 . S
C267 H281 0.961 . S
C267 H282 0.961 . S
C267 H283 0.961 . S
C268 C269 1.370 . S
C268 C270 1.363 . S
C268 H284 0.931 . S
C269 C268 1.370 . S
C269 C273 1.408 . S
C270 C268 1.363 . S
C270 C271 1.370 . S
C270 C274 1.524 . S
C271 C263 1.503 . S
C271 C270 1.370 . S
C271 C272 1.403 . S
C272 C271 1.403 . S
C272 C273 1.404 . S
C272 C275 1.539 . S
C273 C269 1.408 . S
C273 C272 1.404 . S
C273 H285 0.930 . S
C274 C270 1.524 . S
C274 H286 0.956 . S
C274 H287 0.961 . S
C274 H288 0.961 . S
C275 C272 1.539 . S
C275 H289 0.958 . S
C275 H290 0.961 . S
C275 H291 0.960 . S
H276 C260 0.931 . S
H277 C265 0.929 . S
H278 C266 0.960 . S
H279 C266 0.962 . S
H280 C266 0.960 . S
H281 C267 0.961 . S
H282 C267 0.961 . S
H283 C267 0.961 . S
H284 C268 0.931 . S
H285 C273 0.930 . S
H286 C274 0.956 . S
H287 C274 0.961 . S
H288 C274 0.961 . S
H289 C275 0.958 . S
H290 C275 0.961 . S
H291 C275 0.960 . S
C292 C293 1.391 . S
C292 C294 1.394 . S
C292 H308 0.931 . S
C293 C292 1.391 . S
C293 C297 1.376 . S
C294 C292 1.394 . S
C294 C295 1.369 1_554 S
C294 C298 1.531 1_554 S
C295 C294 1.369 1_556 S
C295 C296 1.410 1_556 S
C295 C303 1.503 . S
C296 C295 1.410 1_554 S
C296 C297 1.392 . S
C296 C299 1.511 1_554 S
C297 C293 1.376 . S
C297 C296 1.392 . S
C297 H309 0.929 . S
C298 C294 1.531 1_556 S
C298 H310 0.960 . S
C298 H311 0.962 . S
C298 H312 0.960 1_556 S
C299 C296 1.511 1_556 S
C299 H313 0.961 . S
C299 H314 0.961 . S
C299 H315 0.961 . S
C300 C301 1.370 . S
C300 C302 1.363 . S
C300 H316 0.931 . S
C301 C300 1.370 . S
C301 C305 1.408 . S
C302 C300 1.363 . S
C302 C303 1.370 . S
C302 C306 1.524 . S
C303 C295 1.503 . S
C303 C302 1.370 . S
C303 C304 1.403 . S
C304 C303 1.403 . S
C304 C305 1.404 . S
C304 C307 1.539 . S
C305 C301 1.408 . S
C305 C304 1.404 . S
C305 H317 0.930 . S
C306 C302 1.524 . S
C306 H318 0.956 . S
C306 H319 0.961 . S
C306 H320 0.961 . S
C307 C304 1.539 . S
C307 H321 0.958 . S
C307 H322 0.961 . S
C307 H323 0.960 . S
H308 C292 0.931 . S
H309 C297 0.929 . S
H310 C298 0.960 . S
H311 C298 0.962 . S
H312 C298 0.960 1_554 S
H313 C299 0.961 . S
H314 C299 0.961 . S
H315 C299 0.961 . S
H316 C300 0.931 . S
H317 C305 0.930 . S
H318 C306 0.956 . S
H319 C306 0.961 . S
H320 C306 0.961 . S
H321 C307 0.958 . S
H322 C307 0.961 . S
H323 C307 0.960 . S
C324 C325 1.391 . S
C324 C326 1.394 . S
C324 H340 0.931 . S
C325 C324 1.391 . S
C325 C329 1.376 . S
C326 C324 1.394 . S
C326 C327 1.369 . S
C326 C330 1.531 . S
C327 C326 1.369 . S
C327 C328 1.410 . S
C327 C335 1.503 1_545 S
C328 C327 1.410 . S
C328 C329 1.392 . S
C328 C331 1.511 . S
C329 C325 1.376 . S
C329 C328 1.392 . S
C329 H341 0.929 . S
C330 C326 1.531 . S
C330 H342 0.960 1_545 S
C330 H343 0.962 1_545 S
C330 H344 0.960 . S
C331 C328 1.511 . S
C331 H345 0.961 . S
C331 H346 0.961 . S
C331 H347 0.961 . S
C332 C333 1.370 . S
C332 C334 1.363 . S
C332 H348 0.931 . S
C333 C332 1.370 . S
C333 C337 1.408 . S
C334 C332 1.363 . S
C334 C335 1.370 . S
C334 C338 1.524 . S
C335 C327 1.503 1_565 S
C335 C334 1.370 . S
C335 C336 1.403 . S
C336 C335 1.403 . S
C336 C337 1.404 . S
C336 C339 1.539 . S
C337 C333 1.408 . S
C337 C336 1.404 . S
C337 H349 0.930 . S
C338 C334 1.524 . S
C338 H350 0.956 . S
C338 H351 0.961 1_565 S
C338 H352 0.961 . S
C339 C336 1.539 . S
C339 H353 0.958 . S
C339 H354 0.961 . S
C339 H355 0.960 . S
H340 C324 0.931 . S
H341 C329 0.929 . S
H342 C330 0.960 1_565 S
H343 C330 0.962 1_565 S
H344 C330 0.960 . S
H345 C331 0.961 . S
H346 C331 0.961 . S
H347 C331 0.961 . S
H348 C332 0.931 . S
H349 C337 0.930 . S
H350 C338 0.956 . S
H351 C338 0.961 1_545 S
H352 C338 0.961 . S
H353 C339 0.958 . S
H354 C339 0.961 . S
H355 C339 0.960 . S
C356 C357 1.391 . S
C356 C358 1.394 . S
C356 H372 0.931 . S
C357 C356 1.391 . S
C357 C361 1.376 . S
C358 C356 1.394 . S
C358 C359 1.369 . S
C358 C362 1.531 . S
C359 C358 1.369 . S
C359 C360 1.410 . S
C359 C367 1.503 . S
C360 C359 1.410 . S
C360 C361 1.392 . S
C360 C363 1.511 . S
C361 C357 1.376 . S
C361 C360 1.392 . S
C361 H373 0.929 . S
C362 C358 1.531 . S
C362 H374 0.960 . S
C362 H375 0.962 . S
C362 H376 0.960 . S
C363 C360 1.511 . S
C363 H377 0.961 . S
C363 H378 0.961 . S
C363 H379 0.961 . S
C364 C365 1.370 . S
C364 C366 1.363 . S
C364 H380 0.931 . S
C365 C364 1.370 . S
C365 C369 1.408 . S
C366 C364 1.363 . S
C366 C367 1.370 . S
C366 C370 1.524 . S
C367 C359 1.503 . S
C367 C366 1.370 . S
C367 C368 1.403 . S
C368 C367 1.403 . S
C368 C369 1.404 . S
C368 C371 1.539 . S
C369 C365 1.408 . S
C369 C368 1.404 . S
C369 H381 0.930 . S
C370 C366 1.524 . S
C370 H382 0.956 . S
C370 H383 0.961 . S
C370 H384 0.961 . S
C371 C368 1.539 . S
C371 H385 0.958 . S
C371 H386 0.961 . S
C371 H387 0.960 . S
H372 C356 0.931 . S
H373 C361 0.929 . S
H374 C362 0.960 . S
H375 C362 0.962 . S
H376 C362 0.960 . S
H377 C363 0.961 . S
H378 C363 0.961 . S
H379 C363 0.961 . S
H380 C364 0.931 . S
H381 C369 0.930 . S
H382 C370 0.956 . S
H383 C370 0.961 . S
H384 C370 0.961 . S
H385 C371 0.958 . S
H386 C371 0.961 . S
H387 C371 0.960 . S
C388 C389 1.391 . S
C388 C390 1.394 . S
C388 H404 0.931 . S
C389 C388 1.391 . S
C389 C393 1.376 . S
C390 C388 1.394 . S
C390 C391 1.369 . S
C390 C394 1.531 . S
C391 C390 1.369 . S
C391 C392 1.410 . S
C391 C399 1.503 1_655 S
C392 C391 1.410 . S
C392 C393 1.392 . S
C392 C395 1.511 . S
C393 C389 1.376 . S
C393 C392 1.392 . S
C393 H405 0.929 . S
C394 C390 1.531 . S
C394 H406 0.960 1_655 S
C394 H407 0.962 1_655 S
C394 H408 0.960 1_556 S
C395 C392 1.511 . S
C395 H409 0.961 . S
C395 H410 0.961 . S
C395 H411 0.961 . S
C396 C397 1.370 . S
C396 C398 1.363 . S
C396 H412 0.931 . S
C397 C396 1.370 . S
C397 C401 1.408 . S
C398 C396 1.363 . S
C398 C399 1.370 . S
C398 C402 1.524 . S
C399 C391 1.503 1_455 S
C399 C398 1.370 . S
C399 C400 1.403 . S
C400 C399 1.403 . S
C400 C401 1.404 . S
C400 C403 1.539 . S
C401 C397 1.408 . S
C401 C400 1.404 . S
C401 H413 0.930 . S
C402 C398 1.524 . S
C402 H414 0.961 . S
C402 H415 0.961 1_455 S
C402 H416 0.961 . S
C403 C400 1.539 . S
C403 H417 0.958 . S
C403 H418 0.961 . S
C403 H419 0.960 . S
H404 C388 0.931 . S
H405 C393 0.929 . S
H406 C394 0.960 1_455 S
H407 C394 0.962 1_455 S
H408 C394 0.960 1_554 S
H409 C395 0.961 . S
H410 C395 0.961 . S
H411 C395 0.961 . S
H412 C396 0.931 . S
H413 C401 0.930 . S
H414 C402 0.961 . S
H415 C402 0.961 1_655 S
H416 C402 0.961 . S
H417 C403 0.958 . S
H418 C403 0.961 . S
H419 C403 0.960 . S
C420 C421 1.391 . S
C420 C422 1.394 . S
C420 H436 0.931 . S
C421 C420 1.391 . S
C421 C425 1.376 1_554 S
C422 C420 1.394 . S
C422 C423 1.369 . S
C422 C426 1.531 . S
C423 C422 1.369 . S
C423 C424 1.410 1_554 S
C423 C431 1.503 1_564 S
C424 C423 1.410 1_556 S
C424 C425 1.392 . S
C424 C427 1.511 . S
C425 C421 1.376 1_556 S
C425 C424 1.392 . S
C425 H437 0.929 . S
C426 C422 1.531 . S
C426 H438 0.960 1_565 S
C426 H439 0.962 1_565 S
C426 H440 0.960 . S
C427 C424 1.511 . S
C427 H441 0.961 . S
C427 H442 0.961 . S
C427 H443 0.961 . S
C428 C429 1.370 . S
C428 C430 1.363 . S
C428 H444 0.931 . S
C429 C428 1.370 . S
C429 C433 1.408 . S
C430 C428 1.363 . S
C430 C431 1.370 . S
C430 C434 1.524 1_556 S
C431 C423 1.503 1_546 S
C431 C430 1.370 . S
C431 C432 1.403 . S
C432 C431 1.403 . S
C432 C433 1.404 . S
C432 C435 1.539 . S
C433 C429 1.408 . S
C433 C432 1.404 . S
C433 H445 0.930 . S
C434 C430 1.524 1_554 S
C434 H446 0.956 . S
C434 H447 0.961 1_544 S
C434 H448 0.961 . S
C435 C432 1.539 . S
C435 H449 0.958 1_556 S
C435 H450 0.961 . S
C435 H451 0.960 1_545 S
H436 C420 0.931 . S
H437 C425 0.929 . S
H438 C426 0.960 1_545 S
H439 C426 0.962 1_545 S
H440 C426 0.960 . S
H441 C427 0.961 . S
H442 C427 0.961 . S
H443 C427 0.961 . S
H444 C428 0.931 . S
H445 C433 0.930 . S
H446 C434 0.956 . S
H447 C434 0.961 1_566 S
H448 C434 0.961 . S
H449 C435 0.958 1_554 S
H450 C435 0.961 . S
H451 C435 0.960 1_565 S
C452 C453 1.391 . S
C452 C454 1.394 . S
C452 H468 0.931 . S
C453 C452 1.391 . S
C453 C457 1.376 . S
C454 C452 1.394 . S
C454 C455 1.369 . S
C454 C458 1.531 . S
C455 C454 1.369 . S
C455 C456 1.410 . S
C455 C463 1.503 . S
C456 C455 1.410 . S
C456 C457 1.392 . S
C456 C459 1.511 . S
C457 C453 1.376 . S
C457 C456 1.392 . S
C457 H469 0.929 . S
C458 C454 1.531 . S
C458 H470 0.960 . S
C458 H471 0.962 . S
C458 H472 0.960 . S
C459 C456 1.511 . S
C459 H473 0.961 . S
C459 H474 0.961 . S
C459 H475 0.961 . S
C460 C461 1.370 . S
C460 C462 1.363 . S
C460 H476 0.931 . S
C461 C460 1.370 . S
C461 C465 1.408 . S
C462 C460 1.363 . S
C462 C463 1.370 . S
C462 C466 1.524 . S
C463 C455 1.503 . S
C463 C462 1.370 . S
C463 C464 1.403 . S
C464 C463 1.403 . S
C464 C465 1.404 . S
C464 C467 1.539 . S
C465 C461 1.408 . S
C465 C464 1.404 . S
C465 H477 0.930 . S
C466 C462 1.524 . S
C466 H478 0.956 . S
C466 H479 0.961 . S
C466 H480 0.961 1_554 S
C467 C464 1.539 . S
C467 H481 0.958 . S
C467 H482 0.961 . S
C467 H483 0.960 . S
H468 C452 0.931 . S
H469 C457 0.929 . S
H470 C458 0.960 . S
H471 C458 0.962 . S
H472 C458 0.960 . S
H473 C459 0.961 . S
H474 C459 0.961 . S
H475 C459 0.961 . S
H476 C460 0.931 . S
H477 C465 0.930 . S
H478 C466 0.956 . S
H479 C466 0.961 . S
H480 C466 0.961 1_556 S
H481 C467 0.958 . S
H482 C467 0.961 . S
H483 C467 0.960 . S
C484 C485 1.391 . S
C484 C486 1.394 . S
C484 H500 0.931 . S
C485 C484 1.391 . S
C485 C489 1.376 . S
C486 C484 1.394 . S
C486 C487 1.369 . S
C486 C490 1.531 . S
C487 C486 1.369 . S
C487 C488 1.410 . S
C487 C495 1.503 1_655 S
C488 C487 1.410 . S
C488 C489 1.392 . S
C488 C491 1.511 . S
C489 C485 1.376 . S
C489 C488 1.392 . S
C489 H501 0.929 . S
C490 C486 1.531 . S
C490 H502 0.960 1_655 S
C490 H503 0.962 . S
C490 H504 0.960 . S
C491 C488 1.511 . S
C491 H505 0.961 . S
C491 H506 0.961 . S
C491 H507 0.961 . S
C492 C493 1.370 . S
C492 C494 1.363 . S
C492 H508 0.931 . S
C493 C492 1.370 . S
C493 C497 1.408 . S
C494 C492 1.363 . S
C494 C495 1.370 . S
C494 C498 1.524 . S
C495 C487 1.503 1_455 S
C495 C494 1.370 . S
C495 C496 1.403 . S
C496 C495 1.403 . S
C496 C497 1.404 . S
C496 C499 1.539 . S
C497 C493 1.408 . S
C497 C496 1.404 . S
C497 H509 0.930 . S
C498 C494 1.524 . S
C498 H510 0.956 1_455 S
C498 H511 0.961 1_455 S
C498 H512 0.961 . S
C499 C496 1.539 . S
C499 H513 0.958 . S
C499 H514 0.961 . S
C499 H515 0.960 . S
H500 C484 0.931 . S
H501 C489 0.929 . S
H502 C490 0.960 1_455 S
H503 C490 0.962 . S
H504 C490 0.960 . S
H505 C491 0.961 . S
H506 C491 0.961 . S
H507 C491 0.961 . S
H508 C492 0.931 . S
H509 C497 0.930 . S
H510 C498 0.956 1_655 S
H511 C498 0.961 1_655 S
H512 C498 0.961 . S
H513 C499 0.958 . S
H514 C499 0.961 . S
H515 C499 0.960 . S
C516 C517 1.391 . S
C516 C518 1.394 . S
C516 H532 0.931 . S
C517 C516 1.391 . S
C517 C521 1.376 . S
C518 C516 1.394 . S
C518 C519 1.369 . S
C518 C522 1.531 . S
C519 C518 1.369 . S
C519 C520 1.410 . S
C519 C527 1.503 . S
C520 C519 1.410 . S
C520 C521 1.392 . S
C520 C523 1.511 . S
C521 C517 1.376 . S
C521 C520 1.392 . S
C521 H533 0.929 . S
C522 C518 1.531 . S
C522 H534 0.960 . S
C522 H535 0.962 . S
C522 H536 0.960 . S
C523 C520 1.511 . S
C523 H537 0.961 . S
C523 H538 0.961 . S
C523 H539 0.961 . S
C524 C525 1.370 . S
C524 C526 1.363 . S
C524 H540 0.931 . S
C525 C524 1.370 . S
C525 C529 1.408 . S
C526 C524 1.363 . S
C526 C527 1.370 . S
C526 C530 1.524 . S
C527 C519 1.503 . S
C527 C526 1.370 . S
C527 C528 1.403 . S
C528 C527 1.403 . S
C528 C529 1.404 . S
C528 C531 1.539 . S
C529 C525 1.408 . S
C529 C528 1.404 . S
C529 H541 0.930 . S
C530 C526 1.524 . S
C530 H542 0.956 . S
C530 H543 0.961 . S
C530 H544 0.961 . S
C531 C528 1.539 . S
C531 H545 0.958 . S
C531 H546 0.961 . S
C531 H547 0.960 . S
H532 C516 0.931 . S
H533 C521 0.929 . S
H534 C522 0.960 . S
H535 C522 0.962 . S
H536 C522 0.960 . S
H537 C523 0.961 . S
H538 C523 0.961 . S
H539 C523 0.961 . S
H540 C524 0.931 . S
H541 C529 0.930 . S
H542 C530 0.956 . S
H543 C530 0.961 . S
H544 C530 0.961 . S
H545 C531 0.958 . S
H546 C531 0.961 . S
H547 C531 0.960 . S
C548 C549 1.391 . S
C548 C550 1.394 . S
C548 H564 0.931 . S
C549 C548 1.391 . S
C549 C553 1.376 . S
C550 C548 1.394 . S
C550 C551 1.369 . S
C550 C554 1.531 . S
C551 C550 1.369 . S
C551 C552 1.410 . S
C551 C559 1.503 . S
C552 C551 1.410 . S
C552 C553 1.392 . S
C552 C555 1.511 . S
C553 C549 1.376 . S
C553 C552 1.392 . S
C553 H565 0.929 . S
C554 C550 1.531 . S
C554 H566 0.960 . S
C554 H567 0.962 . S
C554 H568 0.960 . S
C555 C552 1.511 . S
C555 H569 0.961 . S
C555 H570 0.961 . S
C555 H571 0.961 . S
C556 C557 1.370 . S
C556 C558 1.363 . S
C556 H572 0.931 . S
C557 C556 1.370 . S
C557 C561 1.408 . S
C558 C556 1.363 . S
C558 C559 1.370 . S
C558 C562 1.524 . S
C559 C551 1.503 . S
C559 C558 1.370 . S
C559 C560 1.403 . S
C560 C559 1.403 . S
C560 C561 1.404 . S
C560 C563 1.539 . S
C561 C557 1.408 . S
C561 C560 1.404 . S
C561 H573 0.930 . S
C562 C558 1.524 . S
C562 H574 0.956 . S
C562 H575 0.961 . S
C562 H576 0.961 . S
C563 C560 1.539 . S
C563 H577 0.958 . S
C563 H578 0.961 . S
C563 H579 0.960 . S
H564 C548 0.931 . S
H565 C553 0.929 . S
H566 C554 0.960 . S
H567 C554 0.962 . S
H568 C554 0.960 . S
H569 C555 0.961 . S
H570 C555 0.961 . S
H571 C555 0.961 . S
H572 C556 0.931 . S
H573 C561 0.930 . S
H574 C562 0.956 . S
H575 C562 0.961 . S
H576 C562 0.961 . S
H577 C563 0.958 . S
H578 C563 0.961 . S
H579 C563 0.960 . S
C580 C581 1.391 . S
C580 C582 1.394 . S
C580 H596 0.931 . S
C581 C580 1.391 . S
C581 C585 1.376 . S
C582 C580 1.394 . S
C582 C583 1.369 . S
C582 C586 1.531 . S
C583 C582 1.369 . S
C583 C584 1.410 . S
C583 C591 1.503 . S
C584 C583 1.410 . S
C584 C585 1.392 . S
C584 C587 1.511 . S
C585 C581 1.376 . S
C585 C584 1.392 . S
C585 H597 0.929 . S
C586 C582 1.531 . S
C586 H598 0.960 . S
C586 H599 0.962 . S
C586 H600 0.960 . S
C587 C584 1.511 . S
C587 H601 0.961 . S
C587 H602 0.961 . S
C587 H603 0.961 . S
C588 C589 1.370 . S
C588 C590 1.363 . S
C588 H604 0.931 . S
C589 C588 1.370 . S
C589 C593 1.408 . S
C590 C588 1.363 . S
C590 C591 1.370 . S
C590 C594 1.524 . S
C591 C583 1.503 . S
C591 C590 1.370 . S
C591 C592 1.403 . S
C592 C591 1.403 . S
C592 C593 1.404 . S
C592 C595 1.539 . S
C593 C589 1.408 . S
C593 C592 1.404 . S
C593 H605 0.930 . S
C594 C590 1.524 . S
C594 H606 0.956 . S
C594 H607 0.961 . S
C594 H608 0.961 . S
C595 C592 1.539 . S
C595 H609 0.958 . S
C595 H610 0.961 . S
C595 H611 0.960 . S
H596 C580 0.931 . S
H597 C585 0.929 . S
H598 C586 0.960 . S
H599 C586 0.962 . S
H600 C586 0.960 . S
H601 C587 0.961 . S
H602 C587 0.961 . S
H603 C587 0.961 . S
H604 C588 0.931 . S
H605 C593 0.930 . S
H606 C594 0.956 . S
H607 C594 0.961 . S
H608 C594 0.961 . S
H609 C595 0.958 . S
H610 C595 0.961 . S
H611 C595 0.960 . S
C612 C613 1.391 . S
C612 C614 1.394 . S
C612 H628 0.931 . S
C613 C612 1.391 . S
C613 C617 1.376 . S
C614 C612 1.394 . S
C614 C615 1.369 . S
C614 C618 1.531 . S
C615 C614 1.369 . S
C615 C616 1.410 . S
C615 C623 1.503 . S
C616 C615 1.410 . S
C616 C617 1.392 . S
C616 C619 1.511 . S
C617 C613 1.376 . S
C617 C616 1.392 . S
C617 H629 0.929 . S
C618 C614 1.531 . S
C618 H630 0.960 . S
C618 H631 0.962 . S
C618 H632 0.960 . S
C619 C616 1.511 . S
C619 H633 0.961 . S
C619 H634 0.961 . S
C619 H635 0.961 . S
C620 C621 1.370 . S
C620 C622 1.363 . S
C620 H636 0.931 . S
C621 C620 1.370 . S
C621 C625 1.408 . S
C622 C620 1.363 . S
C622 C623 1.370 . S
C622 C626 1.524 1_556 S
C623 C615 1.503 . S
C623 C622 1.370 . S
C623 C624 1.403 . S
C624 C623 1.403 . S
C624 C625 1.404 . S
C624 C627 1.539 . S
C625 C621 1.408 . S
C625 C624 1.404 . S
C625 H637 0.930 . S
C626 C622 1.524 1_554 S
C626 H638 0.956 . S
C626 H639 0.961 . S
C626 H640 0.961 . S
C627 C624 1.539 . S
C627 H641 0.958 . S
C627 H642 0.961 . S
C627 H643 0.960 . S
H628 C612 0.931 . S
H629 C617 0.929 . S
H630 C618 0.960 . S
H631 C618 0.962 . S
H632 C618 0.960 . S
H633 C619 0.961 . S
H634 C619 0.961 . S
H635 C619 0.961 . S
H636 C620 0.931 . S
H637 C625 0.930 . S
H638 C626 0.956 . S
H639 C626 0.961 . S
H640 C626 0.961 . S
H641 C627 0.958 . S
H642 C627 0.961 . S
H643 C627 0.960 . S
C644 C645 1.391 . S
C644 C646 1.394 . S
C644 H660 0.931 . S
C645 C644 1.391 . S
C645 C649 1.376 . S
C646 C644 1.394 . S
C646 C647 1.369 . S
C646 C650 1.531 . S
C647 C646 1.369 . S
C647 C648 1.410 . S
C647 C655 1.503 . S
C648 C647 1.410 . S
C648 C649 1.392 . S
C648 C651 1.511 . S
C649 C645 1.376 . S
C649 C648 1.392 . S
C649 H661 0.929 . S
C650 C646 1.531 . S
C650 H662 0.960 . S
C650 H663 0.962 1_554 S
C650 H664 0.960 . S
C651 C648 1.511 . S
C651 H665 0.961 . S
C651 H666 0.961 . S
C651 H667 0.961 . S
C652 C653 1.370 1_556 S
C652 C654 1.363 1_556 S
C652 H668 0.931 . S
C653 C652 1.370 1_554 S
C653 C657 1.408 . S
C654 C652 1.363 1_554 S
C654 C655 1.370 . S
C654 C658 1.524 1_554 S
C655 C647 1.503 . S
C655 C654 1.370 . S
C655 C656 1.403 . S
C656 C655 1.403 . S
C656 C657 1.404 . S
C656 C659 1.539 . S
C657 C653 1.408 . S
C657 C656 1.404 . S
C657 H669 0.930 . S
C658 C654 1.524 1_556 S
C658 H670 0.956 . S
C658 H671 0.961 . S
C658 H672 0.961 . S
C659 C656 1.539 . S
C659 H673 0.958 . S
C659 H674 0.961 . S
C659 H675 0.960 . S
H660 C644 0.931 . S
H661 C649 0.929 . S
H662 C650 0.960 . S
H663 C650 0.962 1_556 S
H664 C650 0.960 . S
H665 C651 0.961 . S
H666 C651 0.961 . S
H667 C651 0.961 . S
H668 C652 0.931 . S
H669 C657 0.930 . S
H670 C658 0.956 . S
H671 C658 0.961 . S
H672 C658 0.961 . S
H673 C659 0.958 . S
H674 C659 0.961 . S
H675 C659 0.960 . S
C676 C677 1.391 . S
C676 C678 1.394 . S
C676 H692 0.931 . S
C677 C676 1.391 . S
C677 C681 1.376 . S
C678 C676 1.394 . S
C678 C679 1.369 . S
C678 C682 1.531 . S
C679 C678 1.369 . S
C679 C680 1.410 . S
C679 C687 1.503 . S
C680 C679 1.410 . S
C680 C681 1.392 . S
C680 C683 1.511 . S
C681 C677 1.376 . S
C681 C680 1.392 . S
C681 H693 0.929 . S
C682 C678 1.531 . S
C682 H694 0.960 . S
C682 H695 0.962 . S
C682 H696 0.960 . S
C683 C680 1.511 . S
C683 H697 0.961 . S
C683 H698 0.961 . S
C683 H699 0.961 . S
C684 C685 1.370 . S
C684 C686 1.363 . S
C684 H700 0.931 . S
C685 C684 1.370 . S
C685 C689 1.408 . S
C686 C684 1.363 . S
C686 C687 1.370 . S
C686 C690 1.524 . S
C687 C679 1.503 . S
C687 C686 1.370 . S
C687 C688 1.403 . S
C688 C687 1.403 . S
C688 C689 1.404 . S
C688 C691 1.539 . S
C689 C685 1.408 . S
C689 C688 1.404 . S
C689 H701 0.930 . S
C690 C686 1.524 . S
C690 H702 0.956 . S
C690 H703 0.961 . S
C690 H704 0.961 . S
C691 C688 1.539 . S
C691 H705 0.958 . S
C691 H706 0.961 . S
C691 H707 0.960 . S
H692 C676 0.931 . S
H693 C681 0.929 . S
H694 C682 0.960 . S
H695 C682 0.962 . S
H696 C682 0.960 . S
H697 C683 0.961 . S
H698 C683 0.961 . S
H699 C683 0.961 . S
H700 C684 0.931 . S
H701 C689 0.930 . S
H702 C690 0.956 . S
H703 C690 0.961 . S
H704 C690 0.961 . S
H705 C691 0.958 . S
H706 C691 0.961 . S
H707 C691 0.960 . S
C133 C7 1.484 . S
C141 C6 1.487 . S
C165 C29 1.508 . S
C173 C28 1.473 1_554 S
C197 C50 1.479 . S
C205 C51 1.470 . S
C229 C72 1.503 . S
C237 C73 1.467 . S
C261 C94 1.444 . S
C269 C95 1.488 1_556 S
C293 C117 1.456 . S
C301 C116 1.494 . S
C325 C5 1.644 . S
C333 C119 1.647 . S
C357 C9 1.667 . S
C365 C27 1.643 . S
C389 C49 1.646 . S
C397 C31 1.646 . S
C421 C71 1.632 . S
C429 C53 1.652 . S
C453 C93 1.671 . S
C461 C75 1.643 . S
C485 C97 1.660 . S
C493 C115 1.643 . S
C517 C8 1.272 . S
C525 C92 1.243 . S
C549 C30 1.284 . S
C557 C114 1.252 . S
C581 C52 1.216 . S
C589 C4 1.249 . S
C613 C74 1.279 1_556 S
C621 C26 1.247 . S
C645 C96 1.238 . S
C653 C48 1.266 1_554 S
C677 C70 1.219 . S
C685 C118 1.258 . S
