# Generated by pormake.
# Topology vcp, (7)-cn, num edge types: 1
# Building blocks:
#     Node 0, Type 0, BuildingBlock: HICVOG_clean_sbu_0, # of connection points: 7
#     Node 1, Type 0, BuildingBlock: HICVOG_clean_sbu_0, # of connection points: 7
#     Node 2, Type 0, BuildingBlock: HICVOG_clean_sbu_0, # of connection points: 7
#     Node 3, Type 0, BuildingBlock: HICVOG_clean_sbu_0, # of connection points: 7
#     Node 4, Type 0, BuildingBlock: HICVOG_clean_sbu_0, # of connection points: 7
#     Node 5, Type 0, BuildingBlock: HICVOG_clean_sbu_0, # of connection points: 7
#     Node 6, Type 0, BuildingBlock: HICVOG_clean_sbu_0, # of connection points: 7
#     Node 7, Type 0, BuildingBlock: HICVOG_clean_sbu_0, # of connection points: 7
#     Node 8, Type 0, BuildingBlock: HICVOG_clean_sbu_0, # of connection points: 7
#     Node 9, Type 0, BuildingBlock: HICVOG_clean_sbu_0, # of connection points: 7
#     Node 10, Type 0, BuildingBlock: HICVOG_clean_sbu_0, # of connection points: 7
#     Node 11, Type 0, BuildingBlock: HICVOG_clean_sbu_0, # of connection points: 7
#     Node 12, Type 0, BuildingBlock: HICVOG_clean_sbu_0, # of connection points: 7
#     Node 13, Type 0, BuildingBlock: HICVOG_clean_sbu_0, # of connection points: 7
#     Node 14, Type 0, BuildingBlock: HICVOG_clean_sbu_0, # of connection points: 7
#     Node 15, Type 0, BuildingBlock: HICVOG_clean_sbu_0, # of connection points: 7
#     Edge 16, Type (0, 0), BuildingBlock: AJUNOK_clean_linker_0, # of connection points: 2
#     Edge 17, Type (0, 0), BuildingBlock: AJUNOK_clean_linker_0, # of connection points: 2
#     Edge 18, Type (0, 0), BuildingBlock: AJUNOK_clean_linker_0, # of connection points: 2
#     Edge 19, Type (0, 0), BuildingBlock: AJUNOK_clean_linker_0, # of connection points: 2
#     Edge 20, Type (0, 0), BuildingBlock: AJUNOK_clean_linker_0, # of connection points: 2
#     Edge 21, Type (0, 0), BuildingBlock: AJUNOK_clean_linker_0, # of connection points: 2
#     Edge 22, Type (0, 0), BuildingBlock: AJUNOK_clean_linker_0, # of connection points: 2
#     Edge 23, Type (0, 0), BuildingBlock: AJUNOK_clean_linker_0, # of connection points: 2
#     Edge 24, Type (0, 0), BuildingBlock: AJUNOK_clean_linker_0, # of connection points: 2
#     Edge 25, Type (0, 0), BuildingBlock: AJUNOK_clean_linker_0, # of connection points: 2
#     Edge 26, Type (0, 0), BuildingBlock: AJUNOK_clean_linker_0, # of connection points: 2
#     Edge 27, Type (0, 0), BuildingBlock: AJUNOK_clean_linker_0, # of connection points: 2
#     Edge 28, Type (0, 0), BuildingBlock: AJUNOK_clean_linker_0, # of connection points: 2
#     Edge 29, Type (0, 0), BuildingBlock: AJUNOK_clean_linker_0, # of connection points: 2
#     Edge 30, Type (0, 0), BuildingBlock: AJUNOK_clean_linker_0, # of connection points: 2
#     Edge 31, Type (0, 0), BuildingBlock: AJUNOK_clean_linker_0, # of connection points: 2
#     Edge 32, Type (0, 0), BuildingBlock: AJUNOK_clean_linker_0, # of connection points: 2
#     Edge 33, Type (0, 0), BuildingBlock: AJUNOK_clean_linker_0, # of connection points: 2
#     Edge 34, Type (0, 0), BuildingBlock: AJUNOK_clean_linker_0, # of connection points: 2
#     Edge 35, Type (0, 0), BuildingBlock: AJUNOK_clean_linker_0, # of connection points: 2
#     Edge 36, Type (0, 0), BuildingBlock: AJUNOK_clean_linker_0, # of connection points: 2
#     Edge 37, Type (0, 0), BuildingBlock: AJUNOK_clean_linker_0, # of connection points: 2
#     Edge 38, Type (0, 0), BuildingBlock: AJUNOK_clean_linker_0, # of connection points: 2
#     Edge 39, Type (0, 0), BuildingBlock: AJUNOK_clean_linker_0, # of connection points: 2
#     Edge 40, Type (0, 0), BuildingBlock: AJUNOK_clean_linker_0, # of connection points: 2
#     Edge 41, Type (0, 0), BuildingBlock: AJUNOK_clean_linker_0, # of connection points: 2
#     Edge 42, Type (0, 0), BuildingBlock: AJUNOK_clean_linker_0, # of connection points: 2
#     Edge 43, Type (0, 0), BuildingBlock: AJUNOK_clean_linker_0, # of connection points: 2
#     Edge 44, Type (0, 0), BuildingBlock: AJUNOK_clean_linker_0, # of connection points: 2
#     Edge 45, Type (0, 0), BuildingBlock: AJUNOK_clean_linker_0, # of connection points: 2
#     Edge 46, Type (0, 0), BuildingBlock: AJUNOK_clean_linker_0, # of connection points: 2
#     Edge 47, Type (0, 0), BuildingBlock: AJUNOK_clean_linker_0, # of connection points: 2
#     Edge 48, Type (0, 0), BuildingBlock: AJUNOK_clean_linker_0, # of connection points: 2
#     Edge 49, Type (0, 0), BuildingBlock: AJUNOK_clean_linker_0, # of connection points: 2
#     Edge 50, Type (0, 0), BuildingBlock: AJUNOK_clean_linker_0, # of connection points: 2
#     Edge 51, Type (0, 0), BuildingBlock: AJUNOK_clean_linker_0, # of connection points: 2
#     Edge 52, Type (0, 0), BuildingBlock: AJUNOK_clean_linker_0, # of connection points: 2
#     Edge 53, Type (0, 0), BuildingBlock: AJUNOK_clean_linker_0, # of connection points: 2
#     Edge 54, Type (0, 0), BuildingBlock: AJUNOK_clean_linker_0, # of connection points: 2
#     Edge 55, Type (0, 0), BuildingBlock: AJUNOK_clean_linker_0, # of connection points: 2
#     Edge 56, Type (0, 0), BuildingBlock: AJUNOK_clean_linker_0, # of connection points: 2
#     Edge 57, Type (0, 0), BuildingBlock: AJUNOK_clean_linker_0, # of connection points: 2
#     Edge 58, Type (0, 0), BuildingBlock: AJUNOK_clean_linker_0, # of connection points: 2
#     Edge 59, Type (0, 0), BuildingBlock: AJUNOK_clean_linker_0, # of connection points: 2
#     Edge 60, Type (0, 0), BuildingBlock: AJUNOK_clean_linker_0, # of connection points: 2
#     Edge 61, Type (0, 0), BuildingBlock: AJUNOK_clean_linker_0, # of connection points: 2
#     Edge 62, Type (0, 0), BuildingBlock: AJUNOK_clean_linker_0, # of connection points: 2
#     Edge 63, Type (0, 0), BuildingBlock: AJUNOK_clean_linker_0, # of connection points: 2
#     Edge 64, Type (0, 0), BuildingBlock: AJUNOK_clean_linker_0, # of connection points: 2
#     Edge 65, Type (0, 0), BuildingBlock: AJUNOK_clean_linker_0, # of connection points: 2
#     Edge 66, Type (0, 0), BuildingBlock: AJUNOK_clean_linker_0, # of connection points: 2
#     Edge 67, Type (0, 0), BuildingBlock: AJUNOK_clean_linker_0, # of connection points: 2
#     Edge 68, Type (0, 0), BuildingBlock: AJUNOK_clean_linker_0, # of connection points: 2
#     Edge 69, Type (0, 0), BuildingBlock: AJUNOK_clean_linker_0, # of connection points: 2
#     Edge 70, Type (0, 0), BuildingBlock: AJUNOK_clean_linker_0, # of connection points: 2
#     Edge 71, Type (0, 0), BuildingBlock: AJUNOK_clean_linker_0, # of connection points: 2
# Relax obj value: 0.200
# Max RMSD: 0.229
# Mean RMSD: 0.229
data_MOF--net-vcp--node1-HICVOG_clean_sbu_0--edge1-AJUNOK_clean_linker_0
_symmetry_space_group_name_H-M    P1
_symmetry_Int_Tables_number       1
_symmetry_cell_setting            triclinic
loop_
_symmetry_equiv_pos_as_xyz
'x, y, z'
_cell_length_a     63.266642
_cell_length_b     19.499523
_cell_length_c     26.246697
_cell_angle_alpha  89.985973
_cell_angle_beta   89.821199
_cell_angle_gamma 89.969332
loop_
_atom_site_label
_atom_site_type_symbol
_atom_site_fract_x
_atom_site_fract_y
_atom_site_fract_z
_atom_type_partial_charge
Zn0 Zn 0.11852 0.11823 0.48011 0.0
C1 C 0.14639 0.22909 0.36857 0.0
N2 N 0.14186 0.28037 0.40107 0.0
C3 C 0.13542 0.24756 0.44304 0.0
N4 N 0.13519 0.17906 0.43659 0.0
N5 N 0.14303 0.16624 0.39036 0.0
C6 C 0.1453 1.00264 0.28667 0.0
O7 O 0.13386 0.97104 0.32122 0.0
O8 O 0.12526 0.13017 0.55519 0.0
Zn9 Zn 0.15936 0.08006 0.37575 0.0
N10 N 0.088 0.13063 0.46907 0.0
C11 C 0.05998 0.19475 0.43192 0.0
C12 C 0.08146 0.18488 0.44072 0.0
C13 C 0.07371 0.08465 0.48824 0.0
N14 N 0.04578 0.1496 0.45139 0.0
C15 C 0.0518 0.09439 0.47964 0.0
O16 O 0.1504 0.99324 0.41641 0.0
C17 C 0.13626 0.97578 0.4487 0.0
O18 O 0.12449 0.02009 0.46971 0.0
H19 H 0.09284 0.21982 0.42445 0.0
H20 H 0.07952 0.04039 0.50864 0.0
C21 C 0.20687 0.06606 0.37742 0.0
C22 C 0.22717 0.08825 0.39353 0.0
C23 C 0.21085 0.17608 0.44251 0.0
C24 C 0.19106 0.15378 0.42707 0.0
N25 N 0.1892 0.10011 0.39428 0.0
N26 N 0.22829 0.14291 0.42561 0.0
H27 H 0.20517 0.02296 0.3518 0.0
C28 C 0.14255 0.10449 0.57095 0.0
O29 O 0.15595 0.07874 0.5378 0.0
O30 O 0.15705 0.05242 0.30053 0.0
H31 H 0.17725 0.17952 0.44145 0.0
H32 H 0.0546 0.23784 0.40944 0.0
H33 H 0.21236 0.2191 0.46826 0.0
Zn34 Zn 0.41637 0.90277 0.47668 0.0
C35 C 0.38534 0.80066 0.36647 0.0
N36 N 0.3881 0.74656 0.39759 0.0
C37 C 0.39596 0.77548 0.43997 0.0
N38 N 0.39843 0.84391 0.43486 0.0
N39 N 0.39089 0.8605 0.38931 0.0
C40 C 0.39112 1.00859 0.28539 0.0
O41 O 0.40579 0.0268 0.31796 0.0
O42 O 0.41103 0.89311 0.55278 0.0
Zn43 Zn 0.37486 0.94646 0.37621 0.0
N44 N 0.4464 0.89056 0.45963 0.0
C45 C 0.47225 0.83945 0.40551 0.0
C46 C 0.45125 0.84801 0.4203 0.0
C47 C 0.46187 0.92729 0.48361 0.0
N48 N 0.48762 0.87554 0.42948 0.0
C49 C 0.48321 0.91997 0.46809 0.0
O50 O 0.38492 0.03346 0.41448 0.0
C51 C 0.39944 0.04802 0.44635 0.0
O52 O 0.41052 1.00131 0.46653 0.0
H53 H 0.43886 0.82104 0.40034 0.0
H54 H 0.45754 0.96186 0.51415 0.0
C55 C 0.32794 0.96273 0.37824 0.0
C56 C 0.30745 0.94534 0.39634 0.0
C57 C 0.32282 0.85927 0.4486 0.0
C58 C 0.34287 0.8779 0.43188 0.0
N59 N 0.34523 0.92844 0.3966 0.0
N60 N 0.30573 0.89336 0.43072 0.0
H61 H 0.33018 1.00239 0.34995 0.0
C62 C 0.39443 0.92342 0.56883 0.0
O63 O 0.38074 0.94551 0.53507 0.0
O64 O 0.37603 0.97073 0.30103 0.0
H65 H 0.35647 0.85197 0.44724 0.0
H66 H 0.47629 0.80506 0.37465 0.0
H67 H 0.32085 0.8186 0.47625 0.0
Zn68 Zn 0.61837 0.90493 0.0418 0.0
C69 C 0.64618 0.79099 0.14994 0.0
N70 N 0.64282 0.74082 0.1158 0.0
C71 C 0.6368 0.77486 0.07406 0.0
N72 N 0.63588 0.84303 0.0821 0.0
N73 N 0.64283 0.85433 0.1292 0.0
C74 C 0.64341 1.00958 0.23399 0.0
O75 O 0.63038 0.03445 0.1998 0.0
O76 O 0.62336 0.89493 0.96583 0.0
Zn77 Zn 0.65972 0.93832 0.14498 0.0
N78 N 0.58821 0.89141 0.05698 0.0
C79 C 0.56164 0.82698 0.09995 0.0
C80 C 0.58278 0.83787 0.08747 0.0
C81 C 0.57313 0.93523 0.03872 0.0
N82 N 0.54668 0.87051 0.08198 0.0
C83 C 0.55161 0.92498 0.05172 0.0
O84 O 0.65166 0.02639 0.10452 0.0
C85 C 0.63728 0.04577 0.07356 0.0
O86 O 0.62485 1.00316 0.05291 0.0
H87 H 0.59477 0.80406 0.1024 0.0
H88 H 0.57794 0.97817 0.01532 0.0
C89 C 0.7071 0.94971 0.14537 0.0
C90 C 0.72752 0.92701 0.1303 0.0
C91 C 0.71159 0.83808 0.08197 0.0
C92 C 0.69168 0.86102 0.09628 0.0
N93 N 0.68956 0.91555 0.12824 0.0
N94 N 0.7289 0.87153 0.09903 0.0
H95 H 0.70518 0.99357 0.1702 0.0
C96 C 0.64031 0.92095 0.94806 0.0
O97 O 0.65468 0.9426 0.98029 0.0
O98 O 0.65708 0.96531 0.21997 0.0
H99 H 0.67801 0.83528 0.08148 0.0
H100 H 0.55713 0.78441 0.12409 0.0
H101 H 0.71331 0.79446 0.05682 0.0
Zn102 Zn 0.91571 0.11291 0.04759 0.0
C103 C 0.88483 0.21828 0.1571 0.0
N104 N 0.88722 0.27144 0.12497 0.0
C105 C 0.89503 0.24162 0.08277 0.0
N106 N 0.89798 0.1735 0.08907 0.0
N107 N 0.89058 0.15805 0.13508 0.0
C108 C 0.88821 1.0076 0.24277 0.0
O109 O 0.90135 0.97805 0.21077 0.0
O110 O 0.90967 0.12087 0.97195 0.0
Zn111 Zn 0.87452 0.07284 0.14987 0.0
N112 N 0.94595 0.12566 0.06164 0.0
C113 C 0.97268 0.17934 0.11112 0.0
C114 C 0.95147 0.17064 0.09874 0.0
C115 C 0.96093 0.08634 0.03784 0.0
N116 N 0.98759 0.14101 0.08709 0.0
C117 C 0.98255 0.09412 0.05062 0.0
O118 O 0.88469 0.98488 0.11355 0.0
C119 C 0.89921 0.96878 0.08194 0.0
O120 O 0.91028 0.01438 0.0602 0.0
H121 H 0.93942 0.19881 0.11919 0.0
H122 H 0.95582 0.04782 1.01098 0.0
C123 C 0.82776 0.05557 0.14683 0.0
C124 C 0.80735 0.07192 0.12806 0.0
C125 C 0.82276 0.15733 0.07513 0.0
C126 C 0.84275 0.13967 0.09251 0.0
N127 N 0.84504 0.09001 0.12848 0.0
N128 N 0.80567 0.1231 0.09304 0.0
H129 H 0.82993 0.0165 0.17558 0.0
C130 C 0.89357 0.08758 0.95658 0.0
O131 O 0.88051 0.06211 0.99066 0.0
O132 O 0.87521 0.05194 0.22579 0.0
H133 H 0.85635 0.1656 0.07706 0.0
H134 H 0.97727 0.21552 0.1403 0.0
H135 H 0.82083 0.1973 0.04693 0.0
Zn136 Zn 0.91617 0.90103 0.54643 0.0
C137 C 0.88631 0.79791 0.65835 0.0
N138 N 0.88918 0.74402 0.62706 0.0
C139 C 0.8963 0.77353 0.58402 0.0
N140 N 0.89843 0.84207 0.589 0.0
N141 N 0.89117 0.8582 0.635 0.0
C142 C 0.88831 0.01321 0.74137 0.0
O143 O 0.90092 0.04486 0.70925 0.0
O144 O 0.90905 0.89362 0.47142 0.0
Zn145 Zn 0.87532 0.94443 0.64875 0.0
N146 N 0.94641 0.88275 0.55773 0.0
C147 C 0.97286 0.81494 0.59787 0.0
C148 C 0.9517 0.82833 0.58739 0.0
C149 C 0.96168 0.92562 0.53894 0.0
N150 N 0.988 0.85763 0.57948 0.0
C151 C 0.98322 0.91343 0.5505 0.0
O152 O 0.88597 0.03122 0.61111 0.0
C153 C 0.90089 0.04676 0.58035 0.0
O154 O 0.912 1.00076 0.55907 0.0
H155 H 0.93956 0.79615 0.60359 0.0
H156 H 0.95699 0.96963 0.51663 0.0
C157 C 0.82839 0.96177 0.64565 0.0
C158 C 0.80802 0.94457 0.62697 0.0
C159 C 0.82371 0.85932 0.57438 0.0
C160 C 0.84363 0.8776 0.5918 0.0
N161 N 0.84578 0.92762 0.62749 0.0
N162 N 0.80652 0.89313 0.59213 0.0
H163 H 0.83042 1.00113 0.67422 0.0
C164 C 0.89306 0.92823 0.45696 0.0
O165 O 0.88056 0.95485 0.49177 0.0
O166 O 0.87595 0.96694 0.72451 0.0
H167 H 0.85732 0.85179 0.57672 0.0
H168 H 0.97724 0.77146 0.62118 0.0
H169 H 0.82193 0.81908 0.54635 0.0
Zn170 Zn 0.61883 0.11458 0.54219 0.0
C171 C 0.64766 0.22564 0.65114 0.0
N172 N 0.64346 0.27695 0.6184 0.0
C173 C 0.63664 0.24419 0.57683 0.0
N174 N 0.636 0.17577 0.58374 0.0
N175 N 0.64382 0.16288 0.62985 0.0
C176 C 0.64374 0.01318 0.73638 0.0
O177 O 0.62821 0.99705 0.70552 0.0
O178 O 0.62375 0.12567 0.46605 0.0
Zn179 Zn 0.6601 0.07646 0.64437 0.0
N180 N 0.5887 0.12344 0.55884 0.0
C181 C 0.56189 0.17164 0.61161 0.0
C182 C 0.58303 0.16672 0.59705 0.0
C183 C 0.57396 0.08324 0.5353 0.0
N184 N 0.54727 0.13142 0.58852 0.0
C185 C 0.55255 0.08625 0.551 0.0
O186 O 0.65084 0.9878 0.60618 0.0
C187 C 0.63675 0.97176 0.57359 0.0
O188 O 0.62554 0.0174 0.55266 0.0
H189 H 0.59486 0.19693 0.61638 0.0
H190 H 0.57899 0.04963 0.50483 0.0
C191 C 0.70734 0.06358 0.64265 0.0
C192 C 0.72765 0.08507 0.62601 0.0
C193 C 0.71141 0.16889 0.57335 0.0
C194 C 0.69157 0.14716 0.58927 0.0
N195 N 0.6897 0.0959 0.62418 0.0
N196 N 0.72884 0.13744 0.59186 0.0
H197 H 0.7056 0.02243 0.67001 0.0
C198 C 0.6398 0.09473 0.44761 0.0
O199 O 0.65364 0.06824 0.47924 0.0
O200 O 0.65884 0.04997 0.71944 0.0
H201 H 0.67774 0.17144 0.57367 0.0
H202 H 0.55716 0.20647 0.64162 0.0
H203 H 0.71298 0.21008 0.54598 0.0
Zn204 Zn 0.37538 0.07822 0.87436 0.0
C205 C 0.39614 0.24456 0.94574 0.0
N206 N 0.38918 0.2776 0.90442 0.0
C207 C 0.38661 0.22715 0.87006 0.0
N208 N 0.39134 0.16452 0.89029 0.0
N209 N 0.39842 0.17679 0.93716 0.0
C210 C 0.39445 0.09255 0.07177 0.0
O211 O 0.38107 0.0639 0.04007 0.0
O212 O 0.37683 0.05466 0.79856 0.0
Zn213 Zn 0.41598 0.11612 0.97801 0.0
N214 N 0.34564 0.09606 0.89491 0.0
C215 C 0.32433 0.16223 0.95164 0.0
C216 C 0.34403 0.14197 0.93373 0.0
C217 C 0.3278 0.06741 0.87428 0.0
N218 N 0.30673 0.13431 0.93118 0.0
C219 C 0.30759 0.0871 0.89307 0.0
O220 O 0.41083 0.01755 0.96538 0.0
C221 C 0.39973 0.97254 0.94326 0.0
O222 O 0.38528 0.98944 0.91174 0.0
H223 H 0.358 0.1628 0.95106 0.0
H224 H 0.32932 0.0302 0.84392 0.0
C225 C 0.46087 0.08918 0.98624 0.0
C226 C 0.48263 0.10014 0.97652 0.0
C227 C 0.47343 0.19554 0.92453 0.0
C228 C 0.45206 0.18444 0.93445 0.0
N229 N 0.44613 0.13193 0.96534 0.0
N230 N 0.4881 0.15336 0.94555 0.0
H231 H 0.45552 0.04636 1.00896 0.0
C232 C 0.39063 0.01263 0.78176 0.0
O233 O 0.40461 0.98762 0.81366 0.0
O234 O 0.41017 0.12518 0.05349 0.0
H235 H 0.44026 0.21701 0.91717 0.0
H236 H 0.32302 0.19923 0.9822 0.0
H237 H 0.47836 0.23718 0.89998 0.0
Zn238 Zn 0.11898 0.90465 0.97847 0.0
C239 C 0.14785 0.79394 0.86871 0.0
N240 N 0.14375 0.74298 0.90185 0.0
C241 C 0.13723 0.77615 0.94363 0.0
N242 N 0.13654 0.84449 0.93652 0.0
N243 N 0.14419 0.85692 0.89007 0.0
C244 C 0.15838 0.02981 0.78214 0.0
O245 O 0.16645 0.0757 0.81312 0.0
O246 O 0.12497 0.89376 0.05414 0.0
Zn247 Zn 0.15933 0.94454 0.87356 0.0
N248 N 0.0887 0.89043 0.96476 0.0
C249 C 0.06213 0.82821 0.92033 0.0
C250 C 0.08326 0.83834 0.93301 0.0
C251 C 0.07359 0.93353 0.98414 0.0
N252 N 0.04717 0.87118 0.93927 0.0
C253 C 0.05211 0.92416 0.97082 0.0
O254 O 0.15009 0.03132 0.91376 0.0
C255 C 0.13599 0.04805 0.94635 0.0
O256 O 0.12454 1.00305 0.96758 0.0
H257 H 0.09526 0.80537 0.91696 0.0
H258 H 0.07836 0.97557 1.00843 0.0
C259 C 0.20658 0.96546 0.8716 0.0
C260 C 0.22741 0.94641 0.88607 0.0
C261 C 0.2132 0.8533 0.93338 0.0
C262 C 0.19286 0.87322 0.92032 0.0
N263 N 0.18971 0.92793 0.88901 0.0
N264 N 0.22985 0.8902 0.91619 0.0
H265 H 0.20384 1.0088 0.8468 0.0
C266 C 0.14074 0.92689 0.07155 0.0
O267 O 0.15363 0.95698 0.03923 0.0
O268 O 0.15451 0.96993 0.79916 0.0
H269 H 0.17968 0.84472 0.93534 0.0
H270 H 0.05764 0.78685 0.89513 0.0
H271 H 0.21575 0.80931 0.95773 0.0
Zn272 Zn 0.61977 0.61586 0.47733 0.0
C273 C 0.64963 0.7192 0.36562 0.0
N274 N 0.64671 0.77295 0.39702 0.0
C275 C 0.63969 0.74322 0.44007 0.0
N276 N 0.63765 0.67468 0.43499 0.0
N277 N 0.6449 0.65877 0.38894 0.0
C278 C 0.6479 0.5024 0.28225 0.0
O279 O 0.6357 0.46958 0.31464 0.0
O280 O 0.62617 0.62534 0.55254 0.0
Zn281 Zn 0.66071 0.57248 0.37467 0.0
N282 N 0.58956 0.63324 0.46476 0.0
C283 C 0.56322 0.69973 0.42298 0.0
C284 C 0.58435 0.68701 0.43437 0.0
C285 C 0.57424 0.59063 0.4837 0.0
N286 N 0.54805 0.65725 0.44147 0.0
C287 C 0.55275 0.60228 0.47139 0.0
O288 O 0.65008 0.48581 0.4125 0.0
C289 C 0.63535 0.47029 0.44379 0.0
O290 O 0.62433 0.51626 0.46536 0.0
H291 H 0.59652 0.71928 0.41838 0.0
H292 H 0.57886 0.54729 0.50683 0.0
C293 C 0.70781 0.55731 0.37585 0.0
C294 C 0.72816 0.57391 0.39504 0.0
C295 C 0.71217 0.65414 0.45142 0.0
C296 C 0.69229 0.63625 0.43352 0.0
N297 N 0.6903 0.58902 0.39575 0.0
N298 N 0.72948 0.62259 0.43205 0.0
H299 H 0.70587 0.52032 0.34555 0.0
C300 C 0.64188 0.5915 0.56953 0.0
O301 O 0.65464 0.56162 0.53678 0.0
O302 O 0.65993 0.54979 0.29886 0.0
H303 H 0.6785 0.66005 0.44986 0.0
H304 H 0.5589 0.74261 0.39901 0.0
H305 H 0.71384 0.6922 0.48113 0.0
Zn306 Zn 0.91748 0.40246 0.48154 0.0
C307 C 0.88903 0.29081 0.37217 0.0
N308 N 0.89334 0.23968 0.40496 0.0
C309 C 0.89997 0.27256 0.44664 0.0
N310 N 0.90036 0.34105 0.43984 0.0
N311 N 0.89253 0.35375 0.39368 0.0
C312 C 0.87726 0.5263 0.28578 0.0
O313 O 0.8691 0.57212 0.31681 0.0
O314 O 0.91217 0.39229 0.55757 0.0
Zn315 Zn 0.87687 0.44115 0.37759 0.0
N316 N 0.94769 0.39393 0.4656 0.0
C317 C 0.97488 0.3438 0.41498 0.0
C318 C 0.95365 0.34903 0.4287 0.0
C319 C 0.96221 0.43578 0.48833 0.0
N320 N 0.9893 0.38549 0.43737 0.0
C321 C 0.98371 0.43247 0.47336 0.0
O322 O 0.88567 0.52919 0.41698 0.0
C323 C 0.89956 0.54515 0.45005 0.0
O324 O 0.91072 0.49952 0.47107 0.0
H325 H 0.94198 0.31776 0.40975 0.0
H326 H 0.95698 0.47104 0.51756 0.0
C327 C 0.82927 0.45705 0.37627 0.0
C328 C 0.80874 0.43493 0.39093 0.0
C329 C 0.82425 0.34699 0.44105 0.0
C330 C 0.84427 0.36929 0.42718 0.0
N331 N 0.84666 0.42277 0.39431 0.0
N332 N 0.8071 0.38019 0.42283 0.0
H333 H 0.83133 0.50017 0.3508 0.0
C334 C 0.89542 0.42141 0.57389 0.0
O335 O 0.88154 0.44291 0.54037 0.0
O336 O 0.88131 0.46657 0.30288 0.0
H337 H 0.85784 0.34359 0.44285 0.0
H338 H 0.97984 0.30759 0.3861 0.0
H339 H 0.82231 0.30399 0.46669 0.0
Zn340 Zn 0.16056 0.44766 0.14577 0.0
C341 C 0.1402 0.2766 0.07994 0.0
N342 N 0.14772 0.24718 0.12252 0.0
C343 C 0.15056 0.30106 0.15377 0.0
N344 N 0.14517 0.36114 0.131 0.0
N345 N 0.13782 0.34504 0.0852 0.0
C346 C 0.14269 0.42776 0.94936 0.0
O347 O 0.1556 0.45802 0.9814 0.0
O348 O 0.15944 0.46878 0.22177 0.0
Zn349 Zn 0.12044 0.40423 0.04231 0.0
N350 N 0.19022 0.43158 0.12491 0.0
C351 C 0.21265 0.36498 0.07112 0.0
C352 C 0.19261 0.38288 0.08825 0.0
C353 C 0.20748 0.4649 0.14423 0.0
N354 N 0.22972 0.39801 0.09002 0.0
C355 C 0.22797 0.44823 0.12578 0.0
O356 O 0.12516 0.50334 0.05427 0.0
C357 C 0.13575 0.54985 0.07621 0.0
O358 O 0.15004 0.53488 0.10855 0.0
H359 H 0.17902 0.35785 0.07219 0.0
H360 H 0.20525 0.50326 0.17351 0.0
C361 C 0.07527 0.43109 0.03335 0.0
C362 C 0.05357 0.41753 0.04139 0.0
C363 C 0.06292 0.3194 0.09003 0.0
C364 C 0.08429 0.33341 0.08238 0.0
N365 N 0.09015 0.38805 0.0535 0.0
N366 N 0.04814 0.36145 0.06939 0.0
H367 H 0.08027 0.47479 1.01094 0.0
C368 C 0.14708 0.51518 0.2387 0.0
O369 O 0.13469 0.5474 0.20657 0.0
O370 O 0.12708 0.39415 0.96723 0.0
H371 H 0.09613 0.30108 0.09959 0.0
H372 H 0.21464 0.32573 0.04236 0.0
H373 H 0.05809 0.27561 0.11253 0.0
Zn374 Zn 0.37581 0.58032 0.14583 0.0
C375 C 0.39911 0.74634 0.07642 0.0
N376 N 0.39235 0.7798 0.11793 0.0
C377 C 0.3883 0.72912 0.15133 0.0
N378 N 0.39214 0.66606 0.13051 0.0
N379 N 0.39989 0.6779 0.08407 0.0
C380 C 0.39584 0.59169 0.95227 0.0
O381 O 0.38228 0.56877 0.98621 0.0
O382 O 0.37783 0.55366 0.22088 0.0
Zn383 Zn 0.41756 0.61519 0.04404 0.0
N384 N 0.34612 0.59998 0.12644 0.0
C385 C 0.32445 0.67384 0.07644 0.0
C386 C 0.34427 0.65187 0.09205 0.0
C387 C 0.32847 0.56716 0.14455 0.0
N388 N 0.30702 0.64194 0.09462 0.0
C389 C 0.30817 0.58889 0.12817 0.0
O390 O 0.41155 0.51681 0.05594 0.0
C391 C 0.39945 0.47323 0.07673 0.0
O392 O 0.38488 0.49194 0.10748 0.0
H393 H 0.35809 0.67644 0.07654 0.0
H394 H 0.33018 0.52537 0.17135 0.0
C395 C 0.46297 0.58677 0.03878 0.0
C396 C 0.48423 0.59314 0.05485 0.0
C397 C 0.47357 0.68093 0.11234 0.0
C398 C 0.45263 0.67319 0.09722 0.0
N399 N 0.44766 0.62715 0.06031 0.0
N400 N 0.48875 0.64083 0.09111 0.0
H401 H 0.45848 0.54868 1.01087 0.0
C402 C 0.39276 0.51456 0.23559 0.0
O403 O 0.40719 0.49595 0.20228 0.0
O404 O 0.41228 0.62304 0.96786 0.0
H405 H 0.44038 0.70325 0.11531 0.0
H406 H 0.32292 0.71553 0.04949 0.0
H407 H 0.47771 0.71786 0.14139 0.0
Zn408 Zn 0.41683 0.40428 0.54219 0.0
C409 C 0.3881 0.29909 0.65464 0.0
N410 N 0.39158 0.24534 0.62362 0.0
C411 C 0.39841 0.27544 0.58054 0.0
N412 N 0.39966 0.34421 0.58515 0.0
N413 N 0.39232 0.35978 0.63118 0.0
C414 C 0.38961 0.51558 0.7373 0.0
O415 O 0.40165 0.548 0.70433 0.0
O416 O 0.41121 0.39295 0.4667 0.0
Zn417 Zn 0.37584 0.44448 0.64571 0.0
N418 N 0.44719 0.39101 0.55479 0.0
C419 C 0.47473 0.32756 0.59453 0.0
C420 C 0.45334 0.33771 0.5846 0.0
C421 C 0.46177 0.43533 0.53481 0.0
N422 N 0.48922 0.37131 0.57447 0.0
C423 C 0.48357 0.42528 0.54449 0.0
O424 O 0.38499 0.53153 0.60628 0.0
C425 C 0.3993 0.54807 0.57416 0.0
O426 O 0.41081 0.5031 0.55293 0.0
H427 H 0.44171 0.30364 0.60099 0.0
H428 H 0.45627 0.47851 0.51276 0.0
C429 C 0.32897 0.46107 0.64376 0.0
C430 C 0.3084 0.44128 0.62812 0.0
C431 C 0.32342 0.34804 0.58238 0.0
C432 C 0.34355 0.36869 0.59671 0.0
N433 N 0.34613 0.42404 0.62761 0.0
N434 N 0.30646 0.38467 0.59818 0.0
H435 H 0.33134 0.50473 0.66848 0.0
C436 C 0.39536 0.42439 0.44807 0.0
O437 O 0.38154 0.45174 0.47954 0.0
O438 O 0.37739 0.46835 0.72126 0.0
H439 H 0.357 0.34037 0.58302 0.0
H440 H 0.47981 0.28533 0.61826 0.0
H441 H 0.32129 0.30365 0.55821 0.0
Zn442 Zn 0.11944 0.6192 0.54385 0.0
C443 C 0.15093 0.72126 0.65356 0.0
N444 N 0.14837 0.77481 0.62186 0.0
C445 C 0.14029 0.74551 0.57992 0.0
N446 N 0.13739 0.67744 0.58591 0.0
N447 N 0.14497 0.66127 0.6315 0.0
C448 C 0.14558 0.51194 0.73581 0.0
O449 O 0.13069 0.49366 0.70384 0.0
O450 O 0.12626 0.62712 0.4685 0.0
Zn451 Zn 0.16074 0.5749 0.64434 0.0
N452 N 0.08934 0.63726 0.55672 0.0
C453 C 0.06306 0.70182 0.60065 0.0
C454 C 0.0842 0.68908 0.58905 0.0
C455 C 0.07399 0.59643 0.53619 0.0
N456 N 0.04783 0.66131 0.58033 0.0
C457 C 0.05247 0.60834 0.54838 0.0
O458 O 0.14975 0.48877 0.60706 0.0
C459 C 0.13481 0.47346 0.57655 0.0
O460 O 0.12362 0.51963 0.55591 0.0
H461 H 0.09644 0.71979 0.60629 0.0
H462 H 0.07859 0.55538 0.51076 0.0
C463 C 0.20799 0.56259 0.64091 0.0
C464 C 0.22801 0.58129 0.62074 0.0
C465 C 0.21088 0.65583 0.56235 0.0
C466 C 0.19132 0.63661 0.58175 0.0
N467 N 0.19005 0.59151 0.62114 0.0
N468 N 0.22863 0.62775 0.58206 0.0
H469 H 0.20671 0.52598 0.67176 0.0
C470 C 0.14223 0.59262 0.45345 0.0
O471 O 0.15482 0.56586 0.48781 0.0
O472 O 0.1604 0.55061 0.71972 0.0
H473 H 0.17719 0.65757 0.56524 0.0
H474 H 0.05878 0.74316 0.62616 0.0
H475 H 0.21197 0.6922 0.53132 0.0
Zn476 Zn 0.91751 0.61459 0.98292 0.0
C477 C 0.88866 0.72539 0.87389 0.0
N478 N 0.89159 0.77598 0.90797 0.0
C479 C 0.89828 0.74275 0.94944 0.0
N480 N 0.90006 0.67482 0.94129 0.0
N481 N 0.89295 0.66251 0.89445 0.0
C482 C 0.89162 0.50831 0.78726 0.0
O483 O 0.90514 0.48146 0.81948 0.0
O484 O 0.91142 0.62531 0.05861 0.0
Zn485 Zn 0.87659 0.57683 0.87919 0.0
N486 N 0.94785 0.62866 0.96875 0.0
C487 C 0.97465 0.6969 0.92979 0.0
C488 C 0.9534 0.68408 0.94029 0.0
C489 C 0.96294 0.58404 0.98591 0.0
N490 N 0.98963 0.65288 0.94709 0.0
C491 C 0.9845 0.59597 0.97445 0.0
O492 O 0.88572 0.48842 0.91837 0.0
C493 C 0.89983 0.47171 0.95087 0.0
O494 O 0.91119 0.51676 0.97211 0.0
H495 H 0.94142 0.71814 0.92565 0.0
H496 H 0.95826 0.54042 1.0087 0.0
C497 C 0.82914 0.56508 0.87943 0.0
C498 C 0.80881 0.58633 0.89642 0.0
C499 C 0.82512 0.6692 0.94971 0.0
C500 C 0.84493 0.64759 0.93351 0.0
N501 N 0.84681 0.59691 0.89819 0.0
N502 N 0.80768 0.6381 0.93107 0.0
H503 H 0.83086 0.52423 0.85184 0.0
C504 C 0.89384 0.60186 0.07471 0.0
O505 O 0.87998 0.57896 0.04172 0.0
O506 O 0.87826 0.55204 0.80373 0.0
H507 H 0.85874 0.67125 0.9494 0.0
H508 H 0.97921 0.74135 0.90767 0.0
H509 H 0.82359 0.70987 0.97751 0.0
Zn510 Zn 0.62026 0.40341 0.976 0.0
C511 C 0.65084 0.29849 0.86583 0.0
N512 N 0.64847 0.24493 0.89765 0.0
C513 C 0.64062 0.27428 0.94003 0.0
N514 N 0.63778 0.3426 0.93416 0.0
N515 N 0.64514 0.35853 0.88819 0.0
C516 C 0.64581 0.50858 0.78309 0.0
O517 O 0.63176 0.53054 0.81619 0.0
O518 O 0.62617 0.39484 0.0517 0.0
Zn519 Zn 0.66133 0.44398 0.87374 0.0
N520 N 0.59005 0.39203 0.96119 0.0
C521 C 0.56328 0.34185 0.90978 0.0
C522 C 0.58446 0.34842 0.92321 0.0
C523 C 0.57519 0.43164 0.98511 0.0
N524 N 0.54849 0.38059 0.93387 0.0
C525 C 0.55362 0.4258 0.97139 0.0
O526 O 0.65151 0.53209 0.9109 0.0
C527 C 0.63697 0.54793 0.94255 0.0
O528 O 0.62588 0.50206 0.9639 0.0
H529 H 0.59642 0.3194 0.90308 0.0
H530 H 0.58035 0.46893 0.01287 0.0
C531 C 0.70821 0.46145 0.87619 0.0
C532 C 0.72872 0.44352 0.89359 0.0
C533 C 0.71353 0.35458 0.94353 0.0
C534 C 0.69346 0.37364 0.92757 0.0
N535 N 0.69099 0.42578 0.89364 0.0
N536 N 0.73054 0.38985 0.92643 0.0
H537 H 0.70593 0.50264 0.84917 0.0
C538 C 0.64232 0.4279 0.06709 0.0
O539 O 0.65544 0.45304 0.03302 0.0
O540 O 0.66007 0.46716 0.79818 0.0
H541 H 0.67993 0.34677 0.94249 0.0
H542 H 0.55864 0.30689 0.87985 0.0
H543 H 0.71557 0.31261 0.97004 0.0
C544 C 1.01636 0.03751 0.46983 0.0
C545 C 0.03498 0.04636 0.49865 0.0
C546 C 0.99971 0.99527 0.48662 0.0
C547 C 1.00078 0.95987 0.53331 0.0
H548 H 1.01465 0.06314 0.43345 0.0
H549 H 0.98606 0.98963 0.46222 0.0
S550 S 0.04516 0.96925 0.62573 0.0
N551 N 0.05276 0.01883 0.57814 0.0
N552 N 0.02181 0.93896 0.60927 0.0
C553 C 0.01923 0.96867 0.56284 0.0
C554 C 0.03618 0.01192 0.54575 0.0
C555 C 0.51478 0.06898 0.52458 0.0
C556 C 0.53546 0.04238 0.52868 0.0
C557 C 0.49793 0.02917 0.50606 0.0
C558 C 0.50092 0.96055 0.49095 0.0
H559 H 0.51156 0.1216 0.53536 0.0
H560 H 0.48255 0.05309 0.50256 0.0
S561 S 0.55142 0.86347 0.49832 0.0
N562 N 0.5575 0.94081 0.51921 0.0
N563 N 0.52607 0.86662 0.48369 0.0
C564 C 0.52145 0.93285 0.49548 0.0
C565 C 0.53861 0.9734 0.51451 0.0
C566 C 0.51827 0.04396 0.96791 0.0
C567 C 0.4998 0.05491 0.99714 0.0
C568 C 0.53503 1.00308 0.98574 0.0
C569 C 0.53418 0.97128 0.03389 0.0
H570 H 0.51973 0.06652 0.93034 0.0
H571 H 0.54852 0.9953 0.96095 0.0
S572 S 0.49043 0.98854 0.128 0.0
N573 N 0.48254 0.03423 0.07867 0.0
N574 N 0.51367 0.95675 0.11173 0.0
C575 C 0.51596 0.98268 0.06394 0.0
C576 C 0.49891 0.02456 0.04582 0.0
C577 C 0.0348 0.99609 0.03957 0.0
C578 C 0.0347 0.96994 0.98962 0.0
C579 C 1.01788 0.03563 0.05841 0.0
C580 C 1.0 0.05107 0.02834 0.0
H581 H 0.04781 0.98459 0.06491 0.0
H582 H 0.01873 0.05344 0.09744 0.0
S583 S 0.99298 1.0008 0.89285 0.0
N584 N 1.01572 0.96574 0.90927 0.0
N585 N 0.98432 0.04112 0.94411 0.0
C586 C 0.99996 0.02667 0.97779 0.0
C587 C 1.01716 0.98595 0.9587 0.0
C588 C 0.53586 0.52336 0.53669 0.0
C589 C 0.53513 0.55633 0.48899 0.0
C590 C 0.51906 0.48209 0.55402 0.0
C591 C 0.50064 0.47181 0.5247 0.0
H592 H 0.54933 0.53033 0.56147 0.0
H593 H 0.52048 0.45846 0.59121 0.0
S594 S 0.49153 0.54162 0.39485 0.0
N595 N 0.51473 0.57295 0.41148 0.0
N596 N 0.48354 0.49474 0.44357 0.0
C597 C 0.49984 0.50356 0.47651 0.0
C598 C 0.51693 0.54586 0.45891 0.0
C599 C 0.03782 0.49427 0.51827 0.0
C600 C 0.03476 0.56452 0.52862 0.0
C601 C 0.02114 0.45239 0.50143 0.0
C602 C 1.00052 0.47832 0.49458 0.0
H603 H 0.05313 0.47074 0.52396 0.0
H604 H 0.02444 0.39879 0.49397 0.0
S605 S 0.98416 0.65962 0.51332 0.0
N606 N 1.00941 0.65857 0.52895 0.0
N607 N 0.97831 0.5801 0.49712 0.0
C608 C 0.99721 0.54851 0.5045 0.0
C609 C 1.01421 0.59131 0.52158 0.0
C610 C 0.03751 0.53443 0.02666 0.0
C611 C 0.03644 0.46268 0.02133 0.0
C612 C 0.02056 0.57677 0.0118 0.0
C613 C 1.00183 0.54915 0.99125 0.0
H614 H 0.05131 0.55798 0.04355 0.0
H615 H 0.02203 0.63166 0.01705 0.0
S616 S 0.99262 0.36559 0.96156 0.0
N617 N 1.01598 0.36659 0.98945 0.0
N618 N 0.98444 0.44606 0.96074 0.0
C619 C 1.00091 0.47775 0.98399 0.0
C620 C 0.01811 0.43466 0.99927 0.0
C621 C 0.50213 0.52751 0.98341 0.0
C622 C 0.50177 0.54897 0.03461 0.0
C623 C 0.51899 0.48841 0.96377 0.0
C624 C 0.53636 0.46894 0.99422 0.0
H625 H 0.4895 0.54212 0.95784 0.0
H626 H 0.51849 0.47396 0.92395 0.0
S627 S 0.54223 0.50668 0.13219 0.0
N628 N 0.51989 0.54463 0.11618 0.0
N629 N 0.55122 0.4705 0.07957 0.0
C630 C 0.53603 0.489 0.04577 0.0
C631 C 0.51888 0.52908 0.06576 0.0
C632 C 0.11779 0.88759 0.50179 0.0
C633 C 0.13492 0.90458 0.46945 0.0
C634 C 0.11843 0.83007 0.53371 0.0
C635 C 0.13593 0.78603 0.5337 0.0
H636 H 0.10442 0.92194 0.50565 0.0
H637 H 0.10595 0.82354 0.56159 0.0
S638 S 0.18308 0.79897 0.45017 0.0
N639 N 0.16866 0.86651 0.4348 0.0
N640 N 0.16954 0.75753 0.4944 0.0
C641 C 0.15209 0.79785 0.4979 0.0
C642 C 0.15162 0.85712 0.46563 0.0
C643 C 0.41894 0.13128 0.50122 0.0
C644 C 0.40183 0.11838 0.46807 0.0
C645 C 0.41901 0.18786 0.53404 0.0
C646 C 0.40237 0.23522 0.53396 0.0
H647 H 0.43168 0.09446 0.50497 0.0
H648 H 0.43135 0.19147 0.56244 0.0
S649 S 0.35574 0.23328 0.44892 0.0
N650 N 0.36907 0.16354 0.43302 0.0
N651 N 0.36966 0.27111 0.49404 0.0
C652 C 0.38635 0.22753 0.49743 0.0
C653 C 0.38602 0.169 0.46441 0.0
C654 C 0.65544 0.1545 0.04612 0.0
C655 C 0.63663 0.11727 0.05348 0.0
C656 C 0.65604 0.21167 0.01334 0.0
C657 C 0.63783 0.23422 0.98744 0.0
H658 H 0.67016 0.13581 0.06192 0.0
H659 H 0.67121 0.23487 1.0049 0.0
S660 S 0.58402 0.16155 1.00014 0.0
N661 N 0.59875 0.11325 0.03758 0.0
N662 N 0.60018 0.21927 0.97554 0.0
C663 C 0.61864 0.20147 0.99819 0.0
C664 C 0.61796 0.14349 0.03149 0.0
C665 C 0.91946 0.82439 0.99953 0.0
C666 C 0.90215 0.77969 0.99743 0.0
C667 C 0.91931 0.8815 0.03185 0.0
C668 C 0.90154 0.89742 0.06232 0.0
H669 H 0.93236 0.81913 0.97261 0.0
H670 H 0.93253 0.9167 0.02942 0.0
S671 S 0.85338 0.7903 0.07558 0.0
N672 N 0.86794 0.74961 0.03286 0.0
N673 N 0.86732 0.8579 0.09306 0.0
C674 C 0.88502 0.84916 0.06433 0.0
C675 C 0.88537 0.79024 0.03176 0.0
C676 C 0.88569 0.16216 0.55781 0.0
C677 C 0.90329 0.11806 0.56052 0.0
C678 C 0.88579 0.21964 0.5253 0.0
C679 C 0.90348 0.23515 0.49474 0.0
H680 H 0.87109 0.1488 0.57705 0.0
H681 H 0.87121 0.24805 0.52029 0.0
S682 S 0.95485 0.14417 0.49512 0.0
N683 N 0.94011 0.10124 0.5362 0.0
N684 N 0.93978 0.20709 0.47394 0.0
C685 C 0.92179 0.19574 0.50102 0.0
C686 C 0.92184 0.13787 0.53438 0.0
C687 C 0.61808 0.88722 0.51817 0.0
C688 C 0.63489 0.90106 0.55205 0.0
C689 C 0.61851 0.83061 0.4854 0.0
C690 C 0.63532 0.78388 0.48632 0.0
H691 H 0.60522 0.92341 0.51373 0.0
H692 H 0.60642 0.82664 0.45644 0.0
S693 S 0.68115 0.78789 0.57384 0.0
N694 N 0.66747 0.85728 0.58885 0.0
N695 N 0.66779 0.7494 0.52805 0.0
C696 C 0.65101 0.7924 0.52363 0.0
C697 C 0.65085 0.8511 0.55656 0.0
C698 C 0.38435 0.79995 0.99872 0.0
C699 C 0.40232 0.78316 0.0278 0.0
C700 C 0.38416 0.85764 0.96632 0.0
C701 C 0.40193 0.90073 0.96228 0.0
H702 H 0.36969 0.77244 1.00492 0.0
H703 H 0.36941 0.87208 0.94841 0.0
S704 S 0.45409 0.87139 0.02336 0.0
N705 N 0.43898 0.80911 0.04554 0.0
N706 N 0.4391 0.91531 0.98361 0.0
C707 C 0.42069 0.87961 0.98679 0.0
C708 C 0.42075 0.82152 0.01998 0.0
C709 C 0.1178 0.13419 1.00166 0.0
C710 C 0.13461 0.11882 0.96795 0.0
C711 C 0.11859 0.19065 0.03453 0.0
C712 C 0.13579 0.2358 0.03384 0.0
H713 H 0.1046 0.09923 1.00586 0.0
H714 H 0.10642 0.19559 0.06338 0.0
S715 S 0.18219 0.22678 0.94757 0.0
N716 N 0.16789 0.15905 0.93208 0.0
N717 N 0.1689 0.26668 0.99303 0.0
C718 C 0.15164 0.22559 0.99694 0.0
C719 C 0.1511 0.16704 0.96391 0.0
C720 C 0.65056 0.35469 0.46556 0.0
C721 C 0.63298 0.39892 0.46343 0.0
C722 C 0.65056 0.29707 0.49792 0.0
C723 C 0.63297 0.28156 0.52882 0.0
H724 H 0.6651 0.36808 0.44604 0.0
H725 H 0.66514 0.26857 0.50256 0.0
S726 S 0.58158 0.37235 0.52947 0.0
N727 N 0.59622 0.41562 0.48836 0.0
N728 N 0.59671 0.30927 0.5502 0.0
C729 C 0.61463 0.32089 0.52292 0.0
C730 C 0.61449 0.37898 0.48978 0.0
C731 C 0.91748 0.6861 0.53872 0.0
C732 C 0.90063 0.73265 0.53785 0.0
C733 C 0.918 0.62965 0.50584 0.0
C734 C 0.90123 0.61567 0.47193 0.0
H735 H 0.92956 0.69004 0.5677 0.0
H736 H 0.93092 0.59367 0.51018 0.0
S737 S 0.85465 0.7277 0.45079 0.0
N738 N 0.868 0.76644 0.49647 0.0
N739 N 0.86847 0.65869 0.43555 0.0
C740 C 0.88514 0.66523 0.46766 0.0
C741 C 0.8849 0.72384 0.50068 0.0
C742 C 0.11589 0.63493 0.02361 0.0
C743 C 0.13311 0.62104 0.05619 0.0
C744 C 0.11585 0.69204 0.99125 0.0
C745 C 0.13267 0.73876 0.99118 0.0
H746 H 0.10314 0.59826 0.01965 0.0
H747 H 0.10351 0.69605 0.96287 0.0
S748 S 0.17933 0.73501 0.07604 0.0
N749 N 0.1659 0.66538 0.09161 0.0
N750 N 0.16545 0.77361 0.03116 0.0
C751 C 0.14865 0.7305 0.02773 0.0
C752 C 0.14892 0.67156 0.06037 0.0
C753 C 0.4185 0.38267 0.02699 0.0
C754 C 0.40085 0.40141 0.05707 0.0
C755 C 0.41811 0.32473 0.99538 0.0
C756 C 0.40033 0.282 0.99347 0.0
H757 H 0.43213 0.4161 0.02445 0.0
H758 H 0.43104 0.3172 0.96883 0.0
S759 S 0.35157 0.2999 0.07089 0.0
N760 N 0.36616 0.36636 0.08771 0.0
N761 N 0.36574 0.25675 0.02876 0.0
C762 C 0.38358 0.29546 0.02733 0.0
C763 C 0.38379 0.35514 0.05923 0.0
C764 C 0.38235 0.65982 0.54946 0.0
C765 C 0.40063 0.61897 0.55326 0.0
C766 C 0.38174 0.71668 0.51644 0.0
C767 C 0.39941 0.735 0.48669 0.0
H768 H 0.36788 0.64437 0.56841 0.0
H769 H 0.36682 0.74294 0.51097 0.0
S770 S 0.45207 0.65232 0.48918 0.0
N771 N 0.43777 0.60753 0.53004 0.0
N772 N 0.4362 0.71256 0.46715 0.0
C773 C 0.41825 0.69862 0.49368 0.0
C774 C 0.41899 0.6412 0.52739 0.0
C775 C 0.11443 0.33107 0.49256 0.0
C776 C 0.13148 0.28521 0.49081 0.0
C777 C 0.11463 0.38782 0.52525 0.0
C778 C 0.13226 0.40241 0.55632 0.0
H779 H 0.10169 0.32672 0.4653 0.0
H780 H 0.10161 0.42375 0.52268 0.0
S781 S 0.17977 0.29231 0.57009 0.0
N782 N 0.16528 0.25282 0.52688 0.0
N783 N 0.16607 0.36054 0.58762 0.0
C784 C 0.14852 0.35312 0.55845 0.0
C785 C 0.14807 0.29446 0.52561 0.0
C786 C 0.88285 0.29815 1.00312 0.0
C787 C 0.89953 0.28222 0.03653 0.0
C788 C 0.88375 0.35615 0.97104 0.0
C789 C 0.90131 0.40056 0.97186 0.0
H790 H 0.86827 0.26907 1.005 0.0
H791 H 0.8699 0.36935 0.94897 0.0
S792 S 0.94998 0.37616 0.04895 0.0
N793 N 0.93454 0.31186 0.06559 0.0
N794 N 0.93687 0.41863 1.00478 0.0
C795 C 0.91884 0.38097 1.00183 0.0
C796 C 0.91776 0.32254 0.03446 0.0
C797 C 0.61647 0.63488 0.99223 0.0
C798 C 0.63439 0.61935 0.9621 0.0
C799 C 0.61594 0.69266 0.02392 0.0
C800 C 0.63303 0.73825 0.02587 0.0
H801 H 0.60342 0.59909 0.9948 0.0
H802 H 0.60294 0.69795 0.0506 0.0
S803 S 0.6819 0.72935 0.94798 0.0
N804 N 0.6684 0.66049 0.93115 0.0
N805 N 0.66708 0.76985 0.9903 0.0
C806 C 0.64991 0.72811 0.99173 0.0
C807 C 0.65064 0.66858 0.95975 0.0
C808 C 0.26827 0.94644 0.38141 0.0
C809 C 0.28759 0.98278 0.38245 0.0
C810 C 0.24862 0.98039 0.38038 0.0
C811 C 0.24743 0.0524 0.3806 0.0
H812 H 0.26827 0.891 0.38413 0.0
H813 H 0.23436 0.94991 0.38319 0.0
S814 S 0.29312 0.17219 0.377 0.0
N815 N 0.30404 0.09538 0.37941 0.0
N816 N 0.26736 0.15894 0.37615 0.0
C817 C 0.26662 0.08928 0.37769 0.0
C818 C 0.28661 0.0547 0.37886 0.0
C819 C 0.74862 0.03543 0.14339 0.0
C820 C 0.74764 0.96338 0.14324 0.0
C821 C 0.76815 0.06991 0.1426 0.0
C822 C 0.78757 0.03407 0.14188 0.0
H823 H 0.7343 0.06556 0.14034 0.0
H824 H 0.76801 0.12534 0.13977 0.0
S825 S 0.79367 0.84487 0.14759 0.0
N826 N 0.76787 0.85738 0.14809 0.0
N827 N 0.80436 0.92199 0.14525 0.0
C828 C 0.7868 0.96215 0.14554 0.0
C829 C 0.76692 0.92701 0.14647 0.0
C830 C 0.76885 0.94485 0.64181 0.0
C831 C 0.78809 0.98165 0.6407 0.0
C832 C 0.74914 0.97834 0.64189 0.0
C833 C 0.74782 0.05029 0.64053 0.0
H834 H 0.769 0.88936 0.63968 0.0
H835 H 0.73497 0.9475 0.63905 0.0
S836 S 0.79317 0.17123 0.64408 0.0
N837 N 0.80429 0.09464 0.64303 0.0
N838 N 0.76743 0.15741 0.64417 0.0
C839 C 0.76687 0.08772 0.64357 0.0
C840 C 0.78694 0.05359 0.6435 0.0
C841 C 0.28586 0.98396 0.86805 0.0
C842 C 0.28718 0.05497 0.87681 0.0
C843 C 0.26619 0.95038 0.86648 0.0
C844 C 0.24695 0.98616 0.8733 0.0
H845 H 0.30008 0.95308 0.86638 0.0
H846 H 0.26612 0.89501 0.86297 0.0
S847 S 0.24162 0.17433 0.88993 0.0
N848 N 0.26736 0.16131 0.88598 0.0
N849 N 0.23061 0.09802 0.8841 0.0
C850 C 0.24799 0.05792 0.87776 0.0
C851 C 0.26802 0.0922 0.87933 0.0
C852 C 0.78725 0.54282 0.37992 0.0
C853 C 0.78871 0.47101 0.37693 0.0
C854 C 0.76746 0.57586 0.38138 0.0
C855 C 0.74827 0.53874 0.37967 0.0
H856 H 0.80136 0.57341 0.38521 0.0
H857 H 0.7672 0.63092 0.38688 0.0
S858 S 0.74366 0.35006 0.36433 0.0
N859 N 0.76937 0.36437 0.36591 0.0
N860 N 0.73237 0.42603 0.36978 0.0
C861 C 0.74961 0.46737 0.3724 0.0
C862 C 0.76976 0.43376 0.37083 0.0
C863 C 0.28671 0.48172 0.14253 0.0
C864 C 0.28798 0.55369 0.14215 0.0
C865 C 0.26703 0.44815 0.14162 0.0
C866 C 0.24778 0.48493 0.14061 0.0
H867 H 0.30093 0.45101 0.1395 0.0
H868 H 0.26693 0.39273 0.1387 0.0
S869 S 0.24251 0.67436 0.14633 0.0
N870 N 0.26826 0.66065 0.14683 0.0
N871 N 0.23147 0.59775 0.14408 0.0
C872 C 0.24885 0.55678 0.14442 0.0
C873 C 0.26888 0.59098 0.14536 0.0
C874 C 0.24978 0.47787 0.64447 0.0
C875 C 0.24842 0.54903 0.63647 0.0
C876 C 0.26947 0.44443 0.64594 0.0
C877 C 0.28867 0.48057 0.63984 0.0
H878 H 0.23558 0.44692 0.64574 0.0
H879 H 0.26961 0.38902 0.64904 0.0
S880 S 0.29378 0.66909 0.62474 0.0
N881 N 0.26805 0.65571 0.62827 0.0
N882 N 0.30488 0.59282 0.63009 0.0
C883 C 0.28756 0.55241 0.63587 0.0
C884 C 0.26749 0.58649 0.63434 0.0
C885 C 0.78742 0.48 0.87793 0.0
C886 C 0.78858 0.55182 0.88187 0.0
C887 C 0.76781 0.44597 0.87751 0.0
C888 C 0.74848 0.48208 0.88071 0.0
H889 H 0.80169 0.44934 0.87901 0.0
H890 H 0.76783 0.3904 0.87752 0.0
S891 S 0.74279 0.67145 0.88497 0.0
N892 N 0.76857 0.65846 0.88314 0.0
N893 N 0.73193 0.59454 0.88354 0.0
C894 C 0.7494 0.55414 0.8807 0.0
C895 C 0.76937 0.58884 0.88107 0.0
C896 C 0.15451 0.01969 0.19438 0.0
C897 C 0.14451 0.98031 0.23234 0.0
C898 C 0.1537 1.0007 0.14287 0.0
C899 C 0.14271 0.94169 0.12689 0.0
H900 H 0.16279 0.06632 0.20428 0.0
H901 H 0.16131 0.03383 0.11523 0.0
S902 S 0.11504 0.81777 0.21093 0.0
N903 N 0.12413 0.87687 0.25021 0.0
N904 N 0.12247 0.84204 0.15334 0.0
C905 C 0.13296 0.90098 0.16434 0.0
C906 C 0.13389 0.92005 0.21698 0.0
C907 C 0.37758 0.03065 0.14507 0.0
C908 C 0.39305 0.07687 0.12722 0.0
C909 C 0.37704 1.00918 0.19608 0.0
C910 C 0.39193 0.033 0.23162 0.0
H911 H 0.36597 1.00949 0.11924 0.0
H912 H 0.36496 0.97287 0.20748 0.0
S913 S 0.43512 0.15753 0.20525 0.0
N914 N 0.4232 0.14781 0.14989 0.0
N915 N 0.42222 0.10776 0.24558 0.0
C916 C 0.40724 0.08044 0.2146 0.0
C917 C 0.40777 0.10235 0.16257 0.0
C918 C 0.65585 1.00479 0.32472 0.0
C919 C 0.64249 0.03403 0.28784 0.0
C920 C 0.65526 0.0264 0.3757 0.0
C921 C 0.64123 0.07805 0.3923 0.0
H922 H 0.66676 0.96425 0.31436 0.0
H923 H 0.66564 1.00101 0.40251 0.0
S924 S 0.60365 0.17412 0.31075 0.0
N925 N 0.6153 0.11981 0.27142 0.0
N926 N 0.61419 0.15978 0.3672 0.0
C927 C 0.62803 0.10868 0.35577 0.0
C928 C 0.62866 0.08684 0.30367 0.0
C929 C 0.90111 0.90994 0.36437 0.0
C930 C 0.89041 0.94705 0.40243 0.0
C931 C 0.90013 0.92976 0.31304 0.0
C932 C 0.88847 0.98772 0.29751 0.0
H933 H 0.91046 0.86536 0.37429 0.0
H934 H 0.9087 0.89928 0.28535 0.0
S935 S 0.85811 0.10419 0.3824 0.0
N936 N 0.86801 0.04573 0.42106 0.0
N937 N 0.86619 0.08264 0.32474 0.0
C938 C 0.87759 0.02521 0.33513 0.0
C939 C 0.87854 1.00496 0.38748 0.0
C940 C 0.90073 0.08868 0.8126 0.0
C941 C 0.88882 0.03162 0.79641 0.0
C942 C 0.9019 0.10712 0.8642 0.0
C943 C 0.89112 0.06953 0.90186 0.0
H944 H 0.90934 0.11956 0.78523 0.0
H945 H 0.91139 0.15114 0.87463 0.0
S946 S 0.8585 0.91363 0.88021 0.0
N947 N 0.86648 0.93645 0.82273 0.0
N948 N 0.86862 0.97088 0.91949 0.0
C949 C 0.87914 0.01223 0.88629 0.0
C950 C 0.87801 0.99333 0.83371 0.0
C951 C 0.62496 0.96015 0.81097 0.0
C952 C 0.64367 0.98719 0.78978 0.0
C953 C 0.62422 0.93624 0.86142 0.0
C954 C 0.64218 0.93829 0.89294 0.0
H955 H 0.61057 0.95852 0.78875 0.0
H956 H 0.60925 0.91787 0.87618 0.0
S957 S 0.69574 0.99697 0.85427 0.0
N958 N 0.68107 1.00914 0.80316 0.0
N959 N 0.67969 0.96498 0.89789 0.0
C960 C 0.6612 0.96289 0.87168 0.0
C961 C 0.66195 0.9872 0.82024 0.0
C962 C 0.40586 0.94147 0.71073 0.0
C963 C 0.39077 0.98983 0.72746 0.0
C964 C 0.40658 0.91893 0.65992 0.0
C965 C 0.39219 0.94349 0.62346 0.0
H966 H 0.41741 0.92091 0.73701 0.0
H967 H 0.41871 0.88245 0.6491 0.0
S968 S 0.34933 0.07042 0.64731 0.0
N969 N 0.36088 0.06102 0.70316 0.0
N970 N 0.36219 0.01909 0.60799 0.0
C971 C 0.3768 0.99131 0.63976 0.0
C972 C 0.37612 0.01437 0.69154 0.0
C973 C 0.15646 0.13104 0.65778 0.0
C974 C 0.14521 0.08744 0.62523 0.0
C975 C 0.16052 0.11209 0.70851 0.0
C976 C 0.15365 0.0485 0.72829 0.0
H977 H 0.16236 0.17968 0.64382 0.0
H978 H 0.16936 0.14736 0.73214 0.0
S979 S 0.12295 0.91721 0.65754 0.0
N980 N 0.12687 0.9791 0.61561 0.0
N981 N 0.13448 0.94284 0.71057 0.0
C982 C 0.14218 1.00479 0.69575 0.0
C983 C 0.13798 0.02443 0.64431 0.0
C984 C 0.63562 0.42631 0.21121 0.0
C985 C 0.64728 0.48404 0.2272 0.0
C986 C 0.63435 0.40789 0.15961 0.0
C987 C 0.64479 0.44611 0.12177 0.0
H988 H 0.62729 0.39489 0.23873 0.0
H989 H 0.62507 0.36333 0.14933 0.0
S990 S 0.67659 0.60394 0.1428 0.0
N991 N 0.66899 0.58055 0.20044 0.0
N992 N 0.66664 0.54614 0.10371 0.0
C993 C 0.6565 0.50411 0.13711 0.0
C994 C 0.65773 0.52301 0.18968 0.0
C995 C 0.87551 0.60913 0.21234 0.0
C996 C 0.8821 0.54511 0.2319 0.0
C997 C 0.87979 0.6283 0.16168 0.0
C998 C 0.89102 0.58453 0.12897 0.0
H999 H 0.86675 0.64462 0.23612 0.0
H1000 H 0.8741 0.67728 0.1479 0.0
S1001 S 0.91231 0.41282 0.16052 0.0
N1002 N 0.9008 0.43865 0.21367 0.0
N1003 N 0.90882 0.47525 0.11886 0.0
C1004 C 0.89789 0.521 0.14779 0.0
C1005 C 0.89346 0.50115 0.19915 0.0
C1006 C 0.13434 0.61214 0.36098 0.0
C1007 C 0.14479 0.57411 0.3988 0.0
C1008 C 0.13534 0.59283 0.30952 0.0
C1009 C 0.14674 0.5344 0.29361 0.0
H1010 H 0.1252 0.65711 0.37119 0.0
H1011 H 0.12699 0.6241 0.28203 0.0
S1012 S 0.17637 0.41555 0.37783 0.0
N1013 N 0.16666 0.47412 0.41682 0.0
N1014 N 0.16848 0.43803 0.32032 0.0
C1015 C 0.15734 0.49592 0.33103 0.0
C1016 C 0.15638 0.51572 0.38348 0.0
C1017 C 0.37732 0.5055 0.32366 0.0
C1018 C 0.39351 0.48844 0.28901 0.0
C1019 C 0.3777 0.48233 0.37427 0.0
C1020 C 0.39429 0.44097 0.39268 0.0
H1021 H 0.36425 0.53751 0.31184 0.0
H1022 H 0.365 0.49831 0.39938 0.0
S1023 S 0.44019 0.37887 0.3171 0.0
N1024 N 0.42637 0.42534 0.27653 0.0
N1025 N 0.42703 0.38196 0.37144 0.0
C1026 C 0.41035 0.42205 0.35817 0.0
C1027 C 0.40998 0.44575 0.30653 0.0
C1028 C 0.403 0.59029 0.80813 0.0
C1029 C 0.39052 0.53428 0.79232 0.0
C1030 C 0.40444 0.60909 0.85967 0.0
C1031 C 0.39335 0.57304 0.89762 0.0
H1032 H 0.41185 0.62004 0.78052 0.0
H1033 H 0.41434 0.65228 0.86979 0.0
S1034 S 0.3592 0.42034 0.87712 0.0
N1035 N 0.36731 0.44172 0.81946 0.0
N1036 N 0.36995 0.47687 0.91598 0.0
C1037 C 0.38083 0.51675 0.88246 0.0
C1038 C 0.37944 0.49743 0.82999 0.0
C1039 C 0.15932 0.51406 0.82548 0.0
C1040 C 0.14516 0.48704 0.78948 0.0
C1041 C 0.15889 0.49261 0.87652 0.0
C1042 C 0.14429 0.44318 0.89389 0.0
H1043 H 0.17063 0.55306 0.81445 0.0
H1044 H 0.16983 0.51644 0.90278 0.0
S1045 S 0.10475 0.35252 0.81429 0.0
N1046 N 0.11676 0.40521 0.77441 0.0
N1047 N 0.116 0.36519 0.87012 0.0
C1048 C 0.13043 0.41424 0.858 0.0
C1049 C 0.13083 0.43614 0.80597 0.0
C1050 C 0.90679 0.43758 0.71592 0.0
C1051 C 0.89176 0.486 0.73286 0.0
C1052 C 0.90752 0.41565 0.66496 0.0
C1053 C 0.89318 0.44086 0.62861 0.0
H1054 H 0.91829 0.41657 0.74213 0.0
H1055 H 0.9196 0.37912 0.65394 0.0
S1056 S 0.85049 0.5681 0.65305 0.0
N1057 N 0.86198 0.5579 0.70888 0.0
N1058 N 0.8633 0.51705 0.61346 0.0
C1059 C 0.87786 0.48869 0.64513 0.0
C1060 C 0.87717 0.51119 0.69703 0.0
C1061 C 0.65685 0.52109 0.64071 0.0
C1062 C 0.6438 0.57565 0.62477 0.0
C1063 C 0.65751 0.50012 0.69183 0.0
C1064 C 0.64518 0.53283 0.72931 0.0
H1065 H 0.66628 0.49289 0.61329 0.0
H1066 H 0.66752 0.45708 0.70179 0.0
S1067 S 0.60969 0.6823 0.70841 0.0
N1068 N 0.61917 0.66452 0.65127 0.0
N1069 N 0.62041 0.62556 0.74724 0.0
C1070 C 0.63249 0.58876 0.71417 0.0
C1071 C 0.63182 0.61008 0.66203 0.0
C1072 C 0.1373 0.31806 0.24202 0.0
C1073 C 0.1527 0.29041 0.2095 0.0
C1074 C 0.13542 0.2959 0.29266 0.0
C1075 C 0.14892 0.24539 0.31338 0.0
H1076 H 0.12587 0.35457 0.22758 0.0
H1077 H 0.12295 0.31812 0.31575 0.0
S1078 S 0.19444 0.16638 0.2464 0.0
N1079 N 0.18303 0.21449 0.20246 0.0
N1080 N 0.18029 0.17641 0.29892 0.0
C1081 C 0.16521 0.22025 0.28212 0.0
C1082 C 0.16688 0.24188 0.22992 0.0
C1083 C 0.39797 0.81867 0.27759 0.0
C1084 C 0.38289 0.79039 0.31073 0.0
C1085 C 0.39948 0.797 0.22672 0.0
C1086 C 0.38596 0.74627 0.20647 0.0
H1087 H 0.40945 0.8552 0.2917 0.0
H1088 H 0.41175 0.81948 0.20314 0.0
S1089 S 0.34118 0.66572 0.27524 0.0
N1090 N 0.35282 0.71371 0.31883 0.0
N1091 N 0.35486 0.6766 0.22209 0.0
C1092 C 0.36997 0.72063 0.23838 0.0
C1093 C 0.36867 0.74177 0.29073 0.0
C1094 C 0.66383 0.78385 0.28971 0.0
C1095 C 0.65126 0.7301 0.30962 0.0
C1096 C 0.66237 0.80438 0.23815 0.0
C1097 C 0.64782 0.77322 0.20512 0.0
H1098 H 0.67465 0.81095 0.31447 0.0
H1099 H 0.67278 0.84413 0.22409 0.0
S1100 S 0.6101 0.63407 0.23932 0.0
N1101 N 0.62324 0.6487 0.2924 0.0
N1102 N 0.6202 0.68701 0.1967 0.0
C1103 C 0.6352 0.71951 0.2248 0.0
C1104 C 0.63694 0.69814 0.27668 0.0
C1105 C 0.89721 0.19923 0.24594 0.0
C1106 C 0.88272 0.23012 0.21279 0.0
C1107 C 0.899 0.22082 0.29671 0.0
C1108 C 0.88634 0.27403 0.317 0.0
H1109 H 0.90802 0.16041 0.23195 0.0
H1110 H 0.91083 0.19606 0.32018 0.0
S1111 S 0.84354 0.36384 0.2477 0.0
N1112 N 0.85431 0.31315 0.20435 0.0
N1113 N 0.85669 0.34988 0.30101 0.0
C1114 C 0.87095 0.30269 0.28498 0.0
C1115 C 0.86942 0.2817 0.23265 0.0
C1116 C 0.87143 0.73437 0.73394 0.0
C1117 C 0.88443 0.78716 0.71431 0.0
C1118 C 0.87269 0.71324 0.78541 0.0
C1119 C 0.88742 0.74306 0.81866 0.0
H1120 H 0.86038 0.70861 0.70903 0.0
H1121 H 0.86199 0.67412 0.79923 0.0
S1122 S 0.92599 0.88017 0.78545 0.0
N1123 N 0.91289 0.86668 0.73213 0.0
N1124 N 0.91552 0.82748 0.82775 0.0
C1125 C 0.90041 0.79605 0.79932 0.0
C1126 C 0.8989 0.81791 0.7475 0.0
C1127 C 0.63741 0.31353 0.77768 0.0
C1128 C 0.65301 0.28731 0.81014 0.0
C1129 C 0.63581 0.29118 0.72705 0.0
C1130 C 0.64979 0.24195 0.70634 0.0
H1131 H 0.62567 0.34909 0.79216 0.0
H1132 H 0.62321 0.31224 0.70394 0.0
S1133 S 0.69586 0.16722 0.77309 0.0
N1134 N 0.68396 0.2142 0.81709 0.0
N1135 N 0.6817 0.17577 0.72065 0.0
C1136 C 0.66621 0.21821 0.73754 0.0
C1137 C 0.66761 0.24 0.78971 0.0
C1138 C 0.3717 0.23654 0.7287 0.0
C1139 C 0.38523 0.28867 0.71029 0.0
C1140 C 0.372 0.21569 0.78029 0.0
C1141 C 0.38627 0.24512 0.81485 0.0
H1142 H 0.361 0.21108 0.70276 0.0
H1143 H 0.36094 0.17703 0.79317 0.0
S1144 S 0.42594 0.38026 0.78507 0.0
N1145 N 0.41368 0.36709 0.73056 0.0
N1146 N 0.41456 0.32831 0.82649 0.0
C1147 C 0.3998 0.29744 0.7967 0.0
C1148 C 0.39925 0.31905 0.74474 0.0
C1149 C 0.1394 0.70116 0.74314 0.0
C1150 C 0.15348 0.73274 0.70916 0.0
C1151 C 0.13784 0.72278 0.79399 0.0
C1152 C 0.15034 0.7768 0.8135 0.0
H1153 H 0.12864 0.66192 0.72976 0.0
H1154 H 0.12628 0.69757 0.81809 0.0
S1155 S 0.19216 0.86869 0.74177 0.0
N1156 N 0.18139 0.81723 0.6991 0.0
N1157 N 0.17945 0.85419 0.7958 0.0
C1158 C 0.16535 0.80615 0.78062 0.0
C1159 C 0.16665 0.78503 0.72826 0.0
loop_
_geom_bond_atom_site_label_1
_geom_bond_atom_site_label_2
_geom_bond_distance
_geom_bond_site_symmetry_2
_ccdc_geom_bond_type
Zn0 N4 2.020 . S
Zn0 O8 2.019 . S
Zn0 N10 2.119 . S
Zn0 O18 1.975 1_545 S
C1 N2 1.334 . S
C1 N5 1.336 . S
N2 C1 1.334 . S
N2 C3 1.334 . S
C3 N2 1.334 . S
C3 N4 1.336 . S
N4 Zn0 2.020 . S
N4 C3 1.336 . S
N4 N5 1.354 . S
N5 C1 1.336 . S
N5 N4 1.354 . S
N5 Zn9 2.020 . S
C6 O7 1.244 1_565 S
C6 O30 1.257 . S
O7 C6 1.244 1_545 S
O8 Zn0 2.019 . S
O8 C28 1.257 . S
Zn9 N5 2.020 . S
Zn9 O16 1.975 1_545 S
Zn9 N25 2.119 . S
Zn9 O30 2.019 1_545 S
N10 Zn0 2.119 . S
N10 C12 1.334 . S
N10 C13 1.328 . S
C11 C12 1.387 1_565 S
C11 N14 1.328 1_565 S
C11 H32 0.935 . S
C12 N10 1.334 . S
C12 C11 1.387 1_545 S
C12 H19 0.930 . S
C13 N10 1.328 . S
C13 C15 1.392 . S
C13 H20 0.930 . S
N14 C11 1.328 1_545 S
N14 C15 1.331 . S
C15 C13 1.392 . S
C15 N14 1.331 . S
O16 Zn9 1.975 1_565 S
O16 C17 1.252 . S
C17 O16 1.252 . S
C17 O18 1.252 . S
O18 Zn0 1.975 1_565 S
O18 C17 1.252 . S
H19 C12 0.930 . S
H20 C13 0.930 . S
C21 C22 1.392 . S
C21 N25 1.328 . S
C21 H27 0.930 . S
C22 C21 1.392 . S
C22 N26 1.331 . S
C23 C24 1.391 . S
C23 N26 1.329 . S
C23 H33 0.930 . S
C24 C23 1.391 . S
C24 N25 1.334 . S
C24 H31 0.930 . S
N25 Zn9 2.119 . S
N25 C21 1.328 . S
N25 C24 1.334 . S
N26 C22 1.331 . S
N26 C23 1.329 . S
H27 C21 0.930 . S
C28 O8 1.257 . S
C28 O29 1.244 . S
O29 C28 1.244 . S
O30 C6 1.257 . S
O30 Zn9 2.019 1_565 S
H31 C24 0.930 . S
H32 C11 0.935 . S
H33 C23 0.930 . S
Zn34 N38 2.020 . S
Zn34 O42 2.019 . S
Zn34 N44 2.119 . S
Zn34 O52 1.975 1_565 S
C35 N36 1.334 . S
C35 N39 1.336 . S
N36 C35 1.334 . S
N36 C37 1.334 . S
C37 N36 1.334 . S
C37 N38 1.336 . S
N38 Zn34 2.020 . S
N38 C37 1.336 . S
N38 N39 1.354 . S
N39 C35 1.336 . S
N39 N38 1.354 . S
N39 Zn43 2.020 . S
C40 O41 1.244 1_545 S
C40 O64 1.257 . S
O41 C40 1.244 1_565 S
O42 Zn34 2.019 . S
O42 C62 1.257 . S
Zn43 N39 2.020 . S
Zn43 O50 1.975 1_565 S
Zn43 N59 2.119 . S
Zn43 O64 2.019 1_565 S
N44 Zn34 2.119 . S
N44 C46 1.334 . S
N44 C47 1.328 . S
C45 C46 1.387 1_545 S
C45 N48 1.328 1_545 S
C45 H66 0.935 . S
C46 N44 1.334 . S
C46 C45 1.387 1_565 S
C46 H53 0.930 . S
C47 N44 1.328 . S
C47 C49 1.392 . S
C47 H54 0.930 . S
N48 C45 1.328 1_565 S
N48 C49 1.331 . S
C49 C47 1.392 . S
C49 N48 1.331 . S
O50 Zn43 1.975 1_545 S
O50 C51 1.252 . S
C51 O50 1.252 . S
C51 O52 1.252 . S
O52 Zn34 1.975 1_545 S
O52 C51 1.252 . S
H53 C46 0.930 . S
H54 C47 0.930 . S
C55 C56 1.392 . S
C55 N59 1.328 . S
C55 H61 0.930 . S
C56 C55 1.392 . S
C56 N60 1.331 . S
C57 C58 1.391 . S
C57 N60 1.329 . S
C57 H67 0.930 . S
C58 C57 1.391 . S
C58 N59 1.334 . S
C58 H65 0.930 . S
N59 Zn43 2.119 . S
N59 C55 1.328 . S
N59 C58 1.334 . S
N60 C56 1.331 . S
N60 C57 1.329 . S
H61 C55 0.930 . S
C62 O42 1.257 . S
C62 O63 1.244 . S
O63 C62 1.244 . S
O64 C40 1.257 . S
O64 Zn43 2.019 1_545 S
H65 C58 0.930 . S
H66 C45 0.935 . S
H67 C57 0.930 . S
Zn68 N72 2.020 . S
Zn68 O76 2.019 1_554 S
Zn68 N78 2.119 . S
Zn68 O86 1.975 1_565 S
C69 N70 1.334 . S
C69 N73 1.336 . S
N70 C69 1.334 . S
N70 C71 1.334 . S
C71 N70 1.334 . S
C71 N72 1.336 . S
N72 Zn68 2.020 . S
N72 C71 1.336 . S
N72 N73 1.354 . S
N73 C69 1.336 . S
N73 N72 1.354 . S
N73 Zn77 2.020 . S
C74 O75 1.244 1_545 S
C74 O98 1.257 . S
O75 C74 1.244 1_565 S
O76 Zn68 2.019 1_556 S
O76 C96 1.257 . S
Zn77 N73 2.020 . S
Zn77 O84 1.975 1_565 S
Zn77 N93 2.119 . S
Zn77 O98 2.019 1_565 S
N78 Zn68 2.119 . S
N78 C80 1.334 . S
N78 C81 1.328 . S
C79 C80 1.387 1_545 S
C79 N82 1.328 1_545 S
C79 H100 0.935 . S
C80 N78 1.334 . S
C80 C79 1.387 1_565 S
C80 H87 0.930 . S
C81 N78 1.328 . S
C81 C83 1.392 . S
C81 H88 0.930 1_554 S
N82 C79 1.328 1_565 S
N82 C83 1.331 . S
C83 C81 1.392 . S
C83 N82 1.331 . S
O84 Zn77 1.975 1_545 S
O84 C85 1.252 . S
C85 O84 1.252 . S
C85 O86 1.252 . S
O86 Zn68 1.975 1_545 S
O86 C85 1.252 . S
H87 C80 0.930 . S
H88 C81 0.930 1_556 S
C89 C90 1.392 . S
C89 N93 1.328 . S
C89 H95 0.930 . S
C90 C89 1.392 . S
C90 N94 1.331 . S
C91 C92 1.391 . S
C91 N94 1.329 . S
C91 H101 0.930 . S
C92 C91 1.391 . S
C92 N93 1.334 . S
C92 H99 0.930 . S
N93 Zn77 2.119 . S
N93 C89 1.328 . S
N93 C92 1.334 . S
N94 C90 1.331 . S
N94 C91 1.329 . S
H95 C89 0.930 . S
C96 O76 1.257 . S
C96 O97 1.244 . S
O97 C96 1.244 . S
O98 C74 1.257 . S
O98 Zn77 2.019 1_545 S
H99 C92 0.930 . S
H100 C79 0.935 . S
H101 C91 0.930 . S
Zn102 N106 2.020 . S
Zn102 O110 2.019 1_554 S
Zn102 N112 2.119 . S
Zn102 O120 1.975 1_545 S
C103 N104 1.334 . S
C103 N107 1.336 . S
N104 C103 1.334 . S
N104 C105 1.334 . S
C105 N104 1.334 . S
C105 N106 1.336 . S
N106 Zn102 2.020 . S
N106 C105 1.336 . S
N106 N107 1.354 . S
N107 C103 1.336 . S
N107 N106 1.354 . S
N107 Zn111 2.020 . S
C108 O109 1.244 1_565 S
C108 O132 1.257 . S
O109 C108 1.244 1_545 S
O110 Zn102 2.019 1_556 S
O110 C130 1.257 . S
Zn111 N107 2.020 . S
Zn111 O118 1.975 1_545 S
Zn111 N127 2.119 . S
Zn111 O132 2.019 1_545 S
N112 Zn102 2.119 . S
N112 C114 1.334 . S
N112 C115 1.328 . S
C113 C114 1.387 1_565 S
C113 N116 1.328 1_565 S
C113 H134 0.935 . S
C114 N112 1.334 . S
C114 C113 1.387 1_545 S
C114 H121 0.930 . S
C115 N112 1.328 . S
C115 C117 1.392 . S
C115 H122 0.930 1_554 S
N116 C113 1.328 1_545 S
N116 C117 1.331 . S
C117 C115 1.392 . S
C117 N116 1.331 . S
O118 Zn111 1.975 1_565 S
O118 C119 1.252 . S
C119 O118 1.252 . S
C119 O120 1.252 . S
O120 Zn102 1.975 1_565 S
O120 C119 1.252 . S
H121 C114 0.930 . S
H122 C115 0.930 1_556 S
C123 C124 1.392 . S
C123 N127 1.328 . S
C123 H129 0.930 . S
C124 C123 1.392 . S
C124 N128 1.331 . S
C125 C126 1.391 . S
C125 N128 1.329 . S
C125 H135 0.930 . S
C126 C125 1.391 . S
C126 N127 1.334 . S
C126 H133 0.930 . S
N127 Zn111 2.119 . S
N127 C123 1.328 . S
N127 C126 1.334 . S
N128 C124 1.331 . S
N128 C125 1.329 . S
H129 C123 0.930 . S
C130 O110 1.257 . S
C130 O131 1.244 . S
O131 C130 1.244 . S
O132 C108 1.257 . S
O132 Zn111 2.019 1_565 S
H133 C126 0.930 . S
H134 C113 0.935 . S
H135 C125 0.930 . S
Zn136 N140 2.020 . S
Zn136 O144 2.019 . S
Zn136 N146 2.119 . S
Zn136 O154 1.975 1_565 S
C137 N138 1.334 . S
C137 N141 1.336 . S
N138 C137 1.334 . S
N138 C139 1.334 . S
C139 N138 1.334 . S
C139 N140 1.336 . S
N140 Zn136 2.020 . S
N140 C139 1.336 . S
N140 N141 1.354 . S
N141 C137 1.336 . S
N141 N140 1.354 . S
N141 Zn145 2.020 . S
C142 O143 1.244 1_545 S
C142 O166 1.257 . S
O143 C142 1.244 1_565 S
O144 Zn136 2.019 . S
O144 C164 1.257 . S
Zn145 N141 2.020 . S
Zn145 O152 1.975 1_565 S
Zn145 N161 2.119 . S
Zn145 O166 2.019 1_565 S
N146 Zn136 2.119 . S
N146 C148 1.334 . S
N146 C149 1.328 . S
C147 C148 1.387 1_545 S
C147 N150 1.328 1_545 S
C147 H168 0.935 . S
C148 N146 1.334 . S
C148 C147 1.387 1_565 S
C148 H155 0.930 . S
C149 N146 1.328 . S
C149 C151 1.392 . S
C149 H156 0.930 . S
N150 C147 1.328 1_565 S
N150 C151 1.331 . S
C151 C149 1.392 . S
C151 N150 1.331 . S
O152 Zn145 1.975 1_545 S
O152 C153 1.252 . S
C153 O152 1.252 . S
C153 O154 1.252 . S
O154 Zn136 1.975 1_545 S
O154 C153 1.252 . S
H155 C148 0.930 . S
H156 C149 0.930 . S
C157 C158 1.392 . S
C157 N161 1.328 . S
C157 H163 0.930 . S
C158 C157 1.392 . S
C158 N162 1.331 . S
C159 C160 1.391 . S
C159 N162 1.329 . S
C159 H169 0.930 . S
C160 C159 1.391 . S
C160 N161 1.334 . S
C160 H167 0.930 . S
N161 Zn145 2.119 . S
N161 C157 1.328 . S
N161 C160 1.334 . S
N162 C158 1.331 . S
N162 C159 1.329 . S
H163 C157 0.930 . S
C164 O144 1.257 . S
C164 O165 1.244 . S
O165 C164 1.244 . S
O166 C142 1.257 . S
O166 Zn145 2.019 1_545 S
H167 C160 0.930 . S
H168 C147 0.935 . S
H169 C159 0.930 . S
Zn170 N174 2.020 . S
Zn170 O178 2.019 . S
Zn170 N180 2.119 . S
Zn170 O188 1.975 1_545 S
C171 N172 1.334 . S
C171 N175 1.336 . S
N172 C171 1.334 . S
N172 C173 1.334 . S
C173 N172 1.334 . S
C173 N174 1.336 . S
N174 Zn170 2.020 . S
N174 C173 1.336 . S
N174 N175 1.354 . S
N175 C171 1.336 . S
N175 N174 1.354 . S
N175 Zn179 2.020 . S
C176 O177 1.244 1_565 S
C176 O200 1.257 . S
O177 C176 1.244 1_545 S
O178 Zn170 2.019 . S
O178 C198 1.257 . S
Zn179 N175 2.020 . S
Zn179 O186 1.975 1_545 S
Zn179 N195 2.119 . S
Zn179 O200 2.019 1_545 S
N180 Zn170 2.119 . S
N180 C182 1.334 . S
N180 C183 1.328 . S
C181 C182 1.387 1_565 S
C181 N184 1.328 1_565 S
C181 H202 0.935 . S
C182 N180 1.334 . S
C182 C181 1.387 1_545 S
C182 H189 0.930 . S
C183 N180 1.328 . S
C183 C185 1.392 . S
C183 H190 0.930 . S
N184 C181 1.328 1_545 S
N184 C185 1.331 . S
C185 C183 1.392 . S
C185 N184 1.331 . S
O186 Zn179 1.975 1_565 S
O186 C187 1.252 . S
C187 O186 1.252 . S
C187 O188 1.252 . S
O188 Zn170 1.975 1_565 S
O188 C187 1.252 . S
H189 C182 0.930 . S
H190 C183 0.930 . S
C191 C192 1.392 . S
C191 N195 1.328 . S
C191 H197 0.930 . S
C192 C191 1.392 . S
C192 N196 1.331 . S
C193 C194 1.391 . S
C193 N196 1.329 . S
C193 H203 0.930 . S
C194 C193 1.391 . S
C194 N195 1.334 . S
C194 H201 0.930 . S
N195 Zn179 2.119 . S
N195 C191 1.328 . S
N195 C194 1.334 . S
N196 C192 1.331 . S
N196 C193 1.329 . S
H197 C191 0.930 . S
C198 O178 1.257 . S
C198 O199 1.244 . S
O199 C198 1.244 . S
O200 C176 1.257 . S
O200 Zn179 2.019 1_565 S
H201 C194 0.930 . S
H202 C181 0.935 . S
H203 C193 0.930 . S
Zn204 N208 2.020 . S
Zn204 O212 2.019 1_545 S
Zn204 N214 2.119 . S
Zn204 O222 1.975 1_545 S
C205 N206 1.334 . S
C205 N209 1.336 . S
N206 C205 1.334 . S
N206 C207 1.334 . S
C207 N206 1.334 . S
C207 N208 1.336 . S
N208 Zn204 2.020 . S
N208 C207 1.336 . S
N208 N209 1.354 . S
N209 C205 1.336 . S
N209 N208 1.354 . S
N209 Zn213 2.020 . S
C210 O211 1.244 . S
C210 O234 1.257 . S
O211 C210 1.244 . S
O212 Zn204 2.019 1_565 S
O212 C232 1.257 . S
Zn213 N209 2.020 . S
Zn213 O220 1.975 1_545 S
Zn213 N229 2.119 . S
Zn213 O234 2.019 1_556 S
N214 Zn204 2.119 . S
N214 C216 1.334 . S
N214 C217 1.328 . S
C215 C216 1.391 . S
C215 N218 1.329 . S
C215 H236 0.930 . S
C216 N214 1.334 . S
C216 C215 1.391 . S
C216 H223 0.930 . S
C217 N214 1.328 . S
C217 C219 1.392 . S
C217 H224 0.930 . S
N218 C215 1.329 . S
N218 C219 1.331 . S
C219 C217 1.392 . S
C219 N218 1.331 . S
O220 Zn213 1.975 1_565 S
O220 C221 1.252 . S
C221 O220 1.252 . S
C221 O222 1.252 . S
O222 Zn204 1.975 1_565 S
O222 C221 1.252 . S
H223 C216 0.930 . S
H224 C217 0.930 . S
C225 C226 1.392 . S
C225 N229 1.328 . S
C225 H231 0.930 1_556 S
C226 C225 1.392 . S
C226 N230 1.331 . S
C227 C228 1.387 1_565 S
C227 N230 1.328 1_565 S
C227 H237 0.935 . S
C228 C227 1.387 1_545 S
C228 N229 1.334 . S
C228 H235 0.930 . S
N229 Zn213 2.119 . S
N229 C225 1.328 . S
N229 C228 1.334 . S
N230 C226 1.331 . S
N230 C227 1.328 1_545 S
H231 C225 0.930 1_554 S
C232 O212 1.257 . S
C232 O233 1.244 1_565 S
O233 C232 1.244 1_545 S
O234 C210 1.257 . S
O234 Zn213 2.019 1_554 S
H235 C228 0.930 . S
H236 C215 0.930 . S
H237 C227 0.935 . S
Zn238 N242 2.020 . S
Zn238 O246 2.019 1_556 S
Zn238 N248 2.119 . S
Zn238 O256 1.975 1_565 S
C239 N240 1.334 . S
C239 N243 1.336 . S
N240 C239 1.334 . S
N240 C241 1.334 . S
C241 N240 1.334 . S
C241 N242 1.336 . S
N242 Zn238 2.020 . S
N242 C241 1.336 . S
N242 N243 1.354 . S
N243 C239 1.336 . S
N243 N242 1.354 . S
N243 Zn247 2.020 . S
C244 O245 1.244 1_545 S
C244 O268 1.257 . S
O245 C244 1.244 1_565 S
O246 Zn238 2.019 1_554 S
O246 C266 1.257 . S
Zn247 N243 2.020 . S
Zn247 O254 1.975 1_565 S
Zn247 N263 2.119 . S
Zn247 O268 2.019 1_565 S
N248 Zn238 2.119 . S
N248 C250 1.334 . S
N248 C251 1.328 . S
C249 C250 1.387 1_545 S
C249 N252 1.328 1_545 S
C249 H270 0.935 . S
C250 N248 1.334 . S
C250 C249 1.387 1_565 S
C250 H257 0.930 . S
C251 N248 1.328 . S
C251 C253 1.392 . S
C251 H258 0.930 1_556 S
N252 C249 1.328 1_565 S
N252 C253 1.331 . S
C253 C251 1.392 . S
C253 N252 1.331 . S
O254 Zn247 1.975 1_545 S
O254 C255 1.252 . S
C255 O254 1.252 . S
C255 O256 1.252 . S
O256 Zn238 1.975 1_545 S
O256 C255 1.252 . S
H257 C250 0.930 . S
H258 C251 0.930 1_554 S
C259 C260 1.392 . S
C259 N263 1.328 . S
C259 H265 0.930 . S
C260 C259 1.392 . S
C260 N264 1.331 . S
C261 C262 1.391 . S
C261 N264 1.329 . S
C261 H271 0.930 . S
C262 C261 1.391 . S
C262 N263 1.334 . S
C262 H269 0.930 . S
N263 Zn247 2.119 . S
N263 C259 1.328 . S
N263 C262 1.334 . S
N264 C260 1.331 . S
N264 C261 1.329 . S
H265 C259 0.930 . S
C266 O246 1.257 . S
C266 O267 1.244 . S
O267 C266 1.244 . S
O268 C244 1.257 . S
O268 Zn247 2.019 1_545 S
H269 C262 0.930 . S
H270 C249 0.935 . S
H271 C261 0.930 . S
Zn272 N276 2.020 . S
Zn272 O280 2.019 . S
Zn272 N282 2.119 . S
Zn272 O290 1.975 . S
C273 N274 1.334 . S
C273 N277 1.336 . S
N274 C273 1.334 . S
N274 C275 1.334 . S
C275 N274 1.334 . S
C275 N276 1.336 . S
N276 Zn272 2.020 . S
N276 C275 1.336 . S
N276 N277 1.354 . S
N277 C273 1.336 . S
N277 N276 1.354 . S
N277 Zn281 2.020 . S
C278 O279 1.244 . S
C278 O302 1.257 . S
O279 C278 1.244 . S
O280 Zn272 2.019 . S
O280 C300 1.257 . S
Zn281 N277 2.020 . S
Zn281 O288 1.975 . S
Zn281 N297 2.119 . S
Zn281 O302 2.019 . S
N282 Zn272 2.119 . S
N282 C284 1.334 . S
N282 C285 1.328 . S
C283 C284 1.391 . S
C283 N286 1.329 . S
C283 H304 0.930 . S
C284 N282 1.334 . S
C284 C283 1.391 . S
C284 H291 0.930 . S
C285 N282 1.328 . S
C285 C287 1.392 . S
C285 H292 0.930 . S
N286 C283 1.329 . S
N286 C287 1.331 . S
C287 C285 1.392 . S
C287 N286 1.331 . S
O288 Zn281 1.975 . S
O288 C289 1.252 . S
C289 O288 1.252 . S
C289 O290 1.252 . S
O290 Zn272 1.975 . S
O290 C289 1.252 . S
H291 C284 0.930 . S
H292 C285 0.930 . S
C293 C294 1.392 . S
C293 N297 1.328 . S
C293 H299 0.930 . S
C294 C293 1.392 . S
C294 N298 1.331 . S
C295 C296 1.391 . S
C295 N298 1.329 . S
C295 H305 0.930 . S
C296 C295 1.391 . S
C296 N297 1.334 . S
C296 H303 0.930 . S
N297 Zn281 2.119 . S
N297 C293 1.328 . S
N297 C296 1.334 . S
N298 C294 1.331 . S
N298 C295 1.329 . S
H299 C293 0.930 . S
C300 O280 1.257 . S
C300 O301 1.244 . S
O301 C300 1.244 . S
O302 C278 1.257 . S
O302 Zn281 2.019 . S
H303 C296 0.930 . S
H304 C283 0.930 . S
H305 C295 0.930 . S
Zn306 N310 2.020 . S
Zn306 O314 2.019 . S
Zn306 N316 2.119 . S
Zn306 O324 1.975 . S
C307 N308 1.334 . S
C307 N311 1.336 . S
N308 C307 1.334 . S
N308 C309 1.334 . S
C309 N308 1.334 . S
C309 N310 1.336 . S
N310 Zn306 2.020 . S
N310 C309 1.336 . S
N310 N311 1.354 . S
N311 C307 1.336 . S
N311 N310 1.354 . S
N311 Zn315 2.020 . S
C312 O313 1.244 . S
C312 O336 1.257 . S
O313 C312 1.244 . S
O314 Zn306 2.019 . S
O314 C334 1.257 . S
Zn315 N311 2.020 . S
Zn315 O322 1.975 . S
Zn315 N331 2.119 . S
Zn315 O336 2.019 . S
N316 Zn306 2.119 . S
N316 C318 1.334 . S
N316 C319 1.328 . S
C317 C318 1.391 . S
C317 N320 1.329 . S
C317 H338 0.930 . S
C318 N316 1.334 . S
C318 C317 1.391 . S
C318 H325 0.930 . S
C319 N316 1.328 . S
C319 C321 1.392 . S
C319 H326 0.930 . S
N320 C317 1.329 . S
N320 C321 1.331 . S
C321 C319 1.392 . S
C321 N320 1.331 . S
O322 Zn315 1.975 . S
O322 C323 1.252 . S
C323 O322 1.252 . S
C323 O324 1.252 . S
O324 Zn306 1.975 . S
O324 C323 1.252 . S
H325 C318 0.930 . S
H326 C319 0.930 . S
C327 C328 1.392 . S
C327 N331 1.328 . S
C327 H333 0.930 . S
C328 C327 1.392 . S
C328 N332 1.331 . S
C329 C330 1.391 . S
C329 N332 1.329 . S
C329 H339 0.930 . S
C330 C329 1.391 . S
C330 N331 1.334 . S
C330 H337 0.930 . S
N331 Zn315 2.119 . S
N331 C327 1.328 . S
N331 C330 1.334 . S
N332 C328 1.331 . S
N332 C329 1.329 . S
H333 C327 0.930 . S
C334 O314 1.257 . S
C334 O335 1.244 . S
O335 C334 1.244 . S
O336 C312 1.257 . S
O336 Zn315 2.019 . S
H337 C330 0.930 . S
H338 C317 0.930 . S
H339 C329 0.930 . S
Zn340 N344 2.020 . S
Zn340 O348 2.019 . S
Zn340 N350 2.119 . S
Zn340 O358 1.975 . S
C341 N342 1.334 . S
C341 N345 1.336 . S
N342 C341 1.334 . S
N342 C343 1.334 . S
C343 N342 1.334 . S
C343 N344 1.336 . S
N344 Zn340 2.020 . S
N344 C343 1.336 . S
N344 N345 1.354 . S
N345 C341 1.336 . S
N345 N344 1.354 . S
N345 Zn349 2.020 . S
C346 O347 1.244 . S
C346 O370 1.257 . S
O347 C346 1.244 . S
O348 Zn340 2.019 . S
O348 C368 1.257 . S
Zn349 N345 2.020 . S
Zn349 O356 1.975 . S
Zn349 N365 2.119 . S
Zn349 O370 2.019 1_554 S
N350 Zn340 2.119 . S
N350 C352 1.334 . S
N350 C353 1.328 . S
C351 C352 1.391 . S
C351 N354 1.329 . S
C351 H372 0.930 . S
C352 N350 1.334 . S
C352 C351 1.391 . S
C352 H359 0.930 . S
C353 N350 1.328 . S
C353 C355 1.392 . S
C353 H360 0.930 . S
N354 C351 1.329 . S
N354 C355 1.331 . S
C355 C353 1.392 . S
C355 N354 1.331 . S
O356 Zn349 1.975 . S
O356 C357 1.252 . S
C357 O356 1.252 . S
C357 O358 1.252 . S
O358 Zn340 1.975 . S
O358 C357 1.252 . S
H359 C352 0.930 . S
H360 C353 0.930 . S
C361 C362 1.392 . S
C361 N365 1.328 . S
C361 H367 0.930 1_554 S
C362 C361 1.392 . S
C362 N366 1.331 . S
C363 C364 1.391 . S
C363 N366 1.329 . S
C363 H373 0.930 . S
C364 C363 1.391 . S
C364 N365 1.334 . S
C364 H371 0.930 . S
N365 Zn349 2.119 . S
N365 C361 1.328 . S
N365 C364 1.334 . S
N366 C362 1.331 . S
N366 C363 1.329 . S
H367 C361 0.930 1_556 S
C368 O348 1.257 . S
C368 O369 1.244 . S
O369 C368 1.244 . S
O370 C346 1.257 . S
O370 Zn349 2.019 1_556 S
H371 C364 0.930 . S
H372 C351 0.930 . S
H373 C363 0.930 . S
Zn374 N378 2.020 . S
Zn374 O382 2.019 . S
Zn374 N384 2.119 . S
Zn374 O392 1.975 . S
C375 N376 1.334 . S
C375 N379 1.336 . S
N376 C375 1.334 . S
N376 C377 1.334 . S
C377 N376 1.334 . S
C377 N378 1.336 . S
N378 Zn374 2.020 . S
N378 C377 1.336 . S
N378 N379 1.354 . S
N379 C375 1.336 . S
N379 N378 1.354 . S
N379 Zn383 2.020 . S
C380 O381 1.244 . S
C380 O404 1.257 . S
O381 C380 1.244 . S
O382 Zn374 2.019 . S
O382 C402 1.257 . S
Zn383 N379 2.020 . S
Zn383 O390 1.975 . S
Zn383 N399 2.119 . S
Zn383 O404 2.019 1_554 S
N384 Zn374 2.119 . S
N384 C386 1.334 . S
N384 C387 1.328 . S
C385 C386 1.391 . S
C385 N388 1.329 . S
C385 H406 0.930 . S
C386 N384 1.334 . S
C386 C385 1.391 . S
C386 H393 0.930 . S
C387 N384 1.328 . S
C387 C389 1.392 . S
C387 H394 0.930 . S
N388 C385 1.329 . S
N388 C389 1.331 . S
C389 C387 1.392 . S
C389 N388 1.331 . S
O390 Zn383 1.975 . S
O390 C391 1.252 . S
C391 O390 1.252 . S
C391 O392 1.252 . S
O392 Zn374 1.975 . S
O392 C391 1.252 . S
H393 C386 0.930 . S
H394 C387 0.930 . S
C395 C396 1.392 . S
C395 N399 1.328 . S
C395 H401 0.930 1_554 S
C396 C395 1.392 . S
C396 N400 1.331 . S
C397 C398 1.391 . S
C397 N400 1.329 . S
C397 H407 0.930 . S
C398 C397 1.391 . S
C398 N399 1.334 . S
C398 H405 0.930 . S
N399 Zn383 2.119 . S
N399 C395 1.328 . S
N399 C398 1.334 . S
N400 C396 1.331 . S
N400 C397 1.329 . S
H401 C395 0.930 1_556 S
C402 O382 1.257 . S
C402 O403 1.244 . S
O403 C402 1.244 . S
O404 C380 1.257 . S
O404 Zn383 2.019 1_556 S
H405 C398 0.930 . S
H406 C385 0.930 . S
H407 C397 0.930 . S
Zn408 N412 2.020 . S
Zn408 O416 2.019 . S
Zn408 N418 2.119 . S
Zn408 O426 1.975 . S
C409 N410 1.334 . S
C409 N413 1.336 . S
N410 C409 1.334 . S
N410 C411 1.334 . S
C411 N410 1.334 . S
C411 N412 1.336 . S
N412 Zn408 2.020 . S
N412 C411 1.336 . S
N412 N413 1.354 . S
N413 C409 1.336 . S
N413 N412 1.354 . S
N413 Zn417 2.020 . S
C414 O415 1.244 . S
C414 O438 1.257 . S
O415 C414 1.244 . S
O416 Zn408 2.019 . S
O416 C436 1.257 . S
Zn417 N413 2.020 . S
Zn417 O424 1.975 . S
Zn417 N433 2.119 . S
Zn417 O438 2.019 . S
N418 Zn408 2.119 . S
N418 C420 1.334 . S
N418 C421 1.328 . S
C419 C420 1.391 . S
C419 N422 1.329 . S
C419 H440 0.930 . S
C420 N418 1.334 . S
C420 C419 1.391 . S
C420 H427 0.930 . S
C421 N418 1.328 . S
C421 C423 1.392 . S
C421 H428 0.930 . S
N422 C419 1.329 . S
N422 C423 1.331 . S
C423 C421 1.392 . S
C423 N422 1.331 . S
O424 Zn417 1.975 . S
O424 C425 1.252 . S
C425 O424 1.252 . S
C425 O426 1.252 . S
O426 Zn408 1.975 . S
O426 C425 1.252 . S
H427 C420 0.930 . S
H428 C421 0.930 . S
C429 C430 1.392 . S
C429 N433 1.328 . S
C429 H435 0.930 . S
C430 C429 1.392 . S
C430 N434 1.331 . S
C431 C432 1.391 . S
C431 N434 1.329 . S
C431 H441 0.930 . S
C432 C431 1.391 . S
C432 N433 1.334 . S
C432 H439 0.930 . S
N433 Zn417 2.119 . S
N433 C429 1.328 . S
N433 C432 1.334 . S
N434 C430 1.331 . S
N434 C431 1.329 . S
H435 C429 0.930 . S
C436 O416 1.257 . S
C436 O437 1.244 . S
O437 C436 1.244 . S
O438 C414 1.257 . S
O438 Zn417 2.019 . S
H439 C432 0.930 . S
H440 C419 0.930 . S
H441 C431 0.930 . S
Zn442 N446 2.020 . S
Zn442 O450 2.019 . S
Zn442 N452 2.119 . S
Zn442 O460 1.975 . S
C443 N444 1.334 . S
C443 N447 1.336 . S
N444 C443 1.334 . S
N444 C445 1.334 . S
C445 N444 1.334 . S
C445 N446 1.336 . S
N446 Zn442 2.020 . S
N446 C445 1.336 . S
N446 N447 1.354 . S
N447 C443 1.336 . S
N447 N446 1.354 . S
N447 Zn451 2.020 . S
C448 O449 1.244 . S
C448 O472 1.257 . S
O449 C448 1.244 . S
O450 Zn442 2.019 . S
O450 C470 1.257 . S
Zn451 N447 2.020 . S
Zn451 O458 1.975 . S
Zn451 N467 2.119 . S
Zn451 O472 2.019 . S
N452 Zn442 2.119 . S
N452 C454 1.334 . S
N452 C455 1.328 . S
C453 C454 1.391 . S
C453 N456 1.329 . S
C453 H474 0.930 . S
C454 N452 1.334 . S
C454 C453 1.391 . S
C454 H461 0.930 . S
C455 N452 1.328 . S
C455 C457 1.392 . S
C455 H462 0.930 . S
N456 C453 1.329 . S
N456 C457 1.331 . S
C457 C455 1.392 . S
C457 N456 1.331 . S
O458 Zn451 1.975 . S
O458 C459 1.252 . S
C459 O458 1.252 . S
C459 O460 1.252 . S
O460 Zn442 1.975 . S
O460 C459 1.252 . S
H461 C454 0.930 . S
H462 C455 0.930 . S
C463 C464 1.392 . S
C463 N467 1.328 . S
C463 H469 0.930 . S
C464 C463 1.392 . S
C464 N468 1.331 . S
C465 C466 1.391 . S
C465 N468 1.329 . S
C465 H475 0.930 . S
C466 C465 1.391 . S
C466 N467 1.334 . S
C466 H473 0.930 . S
N467 Zn451 2.119 . S
N467 C463 1.328 . S
N467 C466 1.334 . S
N468 C464 1.331 . S
N468 C465 1.329 . S
H469 C463 0.930 . S
C470 O450 1.257 . S
C470 O471 1.244 . S
O471 C470 1.244 . S
O472 C448 1.257 . S
O472 Zn451 2.019 . S
H473 C466 0.930 . S
H474 C453 0.930 . S
H475 C465 0.930 . S
Zn476 N480 2.020 . S
Zn476 O484 2.019 1_556 S
Zn476 N486 2.119 . S
Zn476 O494 1.975 . S
C477 N478 1.334 . S
C477 N481 1.336 . S
N478 C477 1.334 . S
N478 C479 1.334 . S
C479 N478 1.334 . S
C479 N480 1.336 . S
N480 Zn476 2.020 . S
N480 C479 1.336 . S
N480 N481 1.354 . S
N481 C477 1.336 . S
N481 N480 1.354 . S
N481 Zn485 2.020 . S
C482 O483 1.244 . S
C482 O506 1.257 . S
O483 C482 1.244 . S
O484 Zn476 2.019 1_554 S
O484 C504 1.257 . S
Zn485 N481 2.020 . S
Zn485 O492 1.975 . S
Zn485 N501 2.119 . S
Zn485 O506 2.019 . S
N486 Zn476 2.119 . S
N486 C488 1.334 . S
N486 C489 1.328 . S
C487 C488 1.391 . S
C487 N490 1.329 . S
C487 H508 0.930 . S
C488 N486 1.334 . S
C488 C487 1.391 . S
C488 H495 0.930 . S
C489 N486 1.328 . S
C489 C491 1.392 . S
C489 H496 0.930 1_556 S
N490 C487 1.329 . S
N490 C491 1.331 . S
C491 C489 1.392 . S
C491 N490 1.331 . S
O492 Zn485 1.975 . S
O492 C493 1.252 . S
C493 O492 1.252 . S
C493 O494 1.252 . S
O494 Zn476 1.975 . S
O494 C493 1.252 . S
H495 C488 0.930 . S
H496 C489 0.930 1_554 S
C497 C498 1.392 . S
C497 N501 1.328 . S
C497 H503 0.930 . S
C498 C497 1.392 . S
C498 N502 1.331 . S
C499 C500 1.391 . S
C499 N502 1.329 . S
C499 H509 0.930 . S
C500 C499 1.391 . S
C500 N501 1.334 . S
C500 H507 0.930 . S
N501 Zn485 2.119 . S
N501 C497 1.328 . S
N501 C500 1.334 . S
N502 C498 1.331 . S
N502 C499 1.329 . S
H503 C497 0.930 . S
C504 O484 1.257 . S
C504 O505 1.244 . S
O505 C504 1.244 . S
O506 C482 1.257 . S
O506 Zn485 2.019 . S
H507 C500 0.930 . S
H508 C487 0.930 . S
H509 C499 0.930 . S
Zn510 N514 2.020 . S
Zn510 O518 2.019 1_556 S
Zn510 N520 2.119 . S
Zn510 O528 1.975 . S
C511 N512 1.334 . S
C511 N515 1.336 . S
N512 C511 1.334 . S
N512 C513 1.334 . S
C513 N512 1.334 . S
C513 N514 1.336 . S
N514 Zn510 2.020 . S
N514 C513 1.336 . S
N514 N515 1.354 . S
N515 C511 1.336 . S
N515 N514 1.354 . S
N515 Zn519 2.020 . S
C516 O517 1.244 . S
C516 O540 1.257 . S
O517 C516 1.244 . S
O518 Zn510 2.019 1_554 S
O518 C538 1.257 . S
Zn519 N515 2.020 . S
Zn519 O526 1.975 . S
Zn519 N535 2.119 . S
Zn519 O540 2.019 . S
N520 Zn510 2.119 . S
N520 C522 1.334 . S
N520 C523 1.328 . S
C521 C522 1.391 . S
C521 N524 1.329 . S
C521 H542 0.930 . S
C522 N520 1.334 . S
C522 C521 1.391 . S
C522 H529 0.930 . S
C523 N520 1.328 . S
C523 C525 1.392 . S
C523 H530 0.930 1_556 S
N524 C521 1.329 . S
N524 C525 1.331 . S
C525 C523 1.392 . S
C525 N524 1.331 . S
O526 Zn519 1.975 . S
O526 C527 1.252 . S
C527 O526 1.252 . S
C527 O528 1.252 . S
O528 Zn510 1.975 . S
O528 C527 1.252 . S
H529 C522 0.930 . S
H530 C523 0.930 1_554 S
C531 C532 1.392 . S
C531 N535 1.328 . S
C531 H537 0.930 . S
C532 C531 1.392 . S
C532 N536 1.331 . S
C533 C534 1.391 . S
C533 N536 1.329 . S
C533 H543 0.930 . S
C534 C533 1.391 . S
C534 N535 1.334 . S
C534 H541 0.930 . S
N535 Zn519 2.119 . S
N535 C531 1.328 . S
N535 C534 1.334 . S
N536 C532 1.331 . S
N536 C533 1.329 . S
H537 C531 0.930 . S
C538 O518 1.257 . S
C538 O539 1.244 . S
O539 C538 1.244 . S
O540 C516 1.257 . S
O540 Zn519 2.019 . S
H541 C534 0.930 . S
H542 C521 0.930 . S
H543 C533 0.930 . S
C544 C545 1.369 1_565 S
C544 C546 1.419 1_455 S
C544 H548 0.930 . S
C545 C544 1.369 1_545 S
C545 C554 1.429 . S
C546 C544 1.419 1_655 S
C546 C547 1.363 . S
C546 H549 0.929 . S
C547 C546 1.363 . S
C547 C553 1.428 1_565 S
H548 C544 0.930 . S
H549 C546 0.929 . S
S550 N551 1.613 1_655 S
S550 N552 1.610 . S
N551 S550 1.613 1_455 S
N551 C554 1.350 . S
N552 S550 1.610 . S
N552 C553 1.351 . S
C553 C547 1.428 1_545 S
C553 N552 1.351 . S
C553 C554 1.434 1_655 S
C554 C545 1.429 . S
C554 N551 1.350 . S
C554 C553 1.434 1_455 S
C555 C556 1.369 . S
C555 C557 1.419 . S
C555 H559 0.930 . S
C556 C555 1.369 . S
C556 C565 1.426 1_545 S
C557 C555 1.419 . S
C557 C558 1.363 1_545 S
C557 H560 0.929 . S
C558 C557 1.363 1_565 S
C558 C564 1.428 . S
H559 C555 0.930 . S
H560 C557 0.929 . S
S561 N562 1.613 . S
S561 N563 1.610 . S
N562 S561 1.613 . S
N562 C565 1.350 . S
N563 S561 1.610 . S
N563 C564 1.351 . S
C564 C558 1.428 . S
C564 N563 1.351 . S
C564 C565 1.437 . S
C565 C556 1.426 1_565 S
C565 N562 1.350 . S
C565 C564 1.437 . S
C566 C567 1.369 1_565 S
C566 C568 1.419 . S
C566 H570 0.930 . S
C567 C566 1.369 1_545 S
C567 C576 1.429 1_556 S
C568 C566 1.419 . S
C568 C569 1.363 1_556 S
C568 H571 0.929 . S
C569 C568 1.363 1_554 S
C569 C575 1.428 1_565 S
H570 C566 0.930 . S
H571 C568 0.929 . S
S572 N573 1.613 . S
S572 N574 1.610 . S
N573 S572 1.613 . S
N573 C576 1.350 . S
N574 S572 1.610 . S
N574 C575 1.351 . S
C575 C569 1.428 1_545 S
C575 N574 1.351 . S
C575 C576 1.434 . S
C576 C567 1.429 1_554 S
C576 N573 1.350 . S
C576 C575 1.434 . S
C577 C578 1.369 1_554 S
C577 C579 1.419 1_455 S
C577 H581 0.930 . S
C578 C577 1.369 1_556 S
C578 C587 1.429 1_565 S
C579 C577 1.419 1_655 S
C579 C580 1.363 1_565 S
C579 H582 0.929 . S
C580 C579 1.363 1_545 S
C580 C586 1.428 1_554 S
H581 C577 0.930 . S
H582 C579 0.929 . S
S583 N584 1.613 . S
S583 N585 1.610 1_455 S
N584 S583 1.613 . S
N584 C587 1.350 . S
N585 S583 1.610 1_655 S
N585 C586 1.351 . S
C586 C580 1.428 1_556 S
C586 N585 1.351 . S
C586 C587 1.434 1_655 S
C587 C578 1.429 1_545 S
C587 N584 1.350 . S
C587 C586 1.434 1_455 S
C588 C589 1.369 . S
C588 C590 1.419 . S
C588 H592 0.930 . S
C589 C588 1.369 . S
C589 C598 1.429 . S
C590 C588 1.419 . S
C590 C591 1.363 . S
C590 H593 0.929 . S
C591 C590 1.363 . S
C591 C597 1.428 . S
H592 C588 0.930 . S
H593 C590 0.929 . S
S594 N595 1.613 . S
S594 N596 1.610 . S
N595 S594 1.613 . S
N595 C598 1.350 . S
N596 S594 1.610 . S
N596 C597 1.351 . S
C597 C591 1.428 . S
C597 N596 1.351 . S
C597 C598 1.434 . S
C598 C589 1.429 . S
C598 N595 1.350 . S
C598 C597 1.434 . S
C599 C600 1.369 . S
C599 C601 1.419 1_455 S
C599 H603 0.930 . S
C600 C599 1.369 . S
C600 C609 1.429 . S
C601 C599 1.419 1_655 S
C601 C602 1.363 . S
C601 H604 0.929 . S
C602 C601 1.363 . S
C602 C608 1.428 . S
H603 C599 0.930 . S
H604 C601 0.929 . S
S605 N606 1.613 1_655 S
S605 N607 1.610 . S
N606 S605 1.613 1_455 S
N606 C609 1.350 . S
N607 S605 1.610 . S
N607 C608 1.351 . S
C608 C602 1.428 . S
C608 N607 1.351 . S
C608 C609 1.434 1_655 S
C609 C600 1.429 . S
C609 N606 1.350 . S
C609 C608 1.434 1_455 S
C610 C611 1.369 1_556 S
C610 C612 1.419 1_455 S
C610 H614 0.930 . S
C611 C610 1.369 1_554 S
C611 C620 1.429 . S
C612 C610 1.419 1_655 S
C612 C613 1.363 . S
C612 H615 0.929 . S
C613 C612 1.363 . S
C613 C619 1.428 1_556 S
H614 C610 0.930 . S
H615 C612 0.929 . S
S616 N617 1.613 1_655 S
S616 N618 1.610 . S
N617 S616 1.613 1_455 S
N617 C620 1.350 . S
N618 S616 1.610 . S
N618 C619 1.351 . S
C619 C613 1.428 1_554 S
C619 N618 1.351 . S
C619 C620 1.434 1_655 S
C620 C611 1.429 . S
C620 N617 1.350 . S
C620 C619 1.434 1_455 S
C621 C622 1.369 1_556 S
C621 C623 1.419 . S
C621 H625 0.930 . S
C622 C621 1.369 1_554 S
C622 C631 1.429 . S
C623 C621 1.419 . S
C623 C624 1.363 . S
C623 H626 0.929 . S
C624 C623 1.363 . S
C624 C630 1.428 1_556 S
H625 C621 0.930 . S
H626 C623 0.929 . S
S627 N628 1.613 . S
S627 N629 1.610 . S
N628 S627 1.613 . S
N628 C631 1.350 . S
N629 S627 1.610 . S
N629 C630 1.351 . S
C630 C624 1.428 1_554 S
C630 N629 1.351 . S
C630 C631 1.434 . S
C631 C622 1.429 . S
C631 N628 1.350 . S
C631 C630 1.434 . S
C632 C633 1.369 . S
C632 C634 1.419 . S
C632 H636 0.930 . S
C633 C632 1.369 . S
C633 C642 1.429 . S
C634 C632 1.419 . S
C634 C635 1.363 . S
C634 H637 0.929 . S
C635 C634 1.363 . S
C635 C641 1.428 . S
H636 C632 0.930 . S
H637 C634 0.929 . S
S638 N639 1.613 . S
S638 N640 1.610 . S
N639 S638 1.613 . S
N639 C642 1.350 . S
N640 S638 1.610 . S
N640 C641 1.351 . S
C641 C635 1.428 . S
C641 N640 1.351 . S
C641 C642 1.434 . S
C642 C633 1.429 . S
C642 N639 1.350 . S
C642 C641 1.434 . S
C643 C644 1.369 . S
C643 C645 1.419 . S
C643 H647 0.930 . S
C644 C643 1.369 . S
C644 C653 1.429 . S
C645 C643 1.419 . S
C645 C646 1.363 . S
C645 H648 0.929 . S
C646 C645 1.363 . S
C646 C652 1.428 . S
H647 C643 0.930 . S
H648 C645 0.929 . S
S649 N650 1.613 . S
S649 N651 1.610 . S
N650 S649 1.613 . S
N650 C653 1.350 . S
N651 S649 1.610 . S
N651 C652 1.351 . S
C652 C646 1.428 . S
C652 N651 1.351 . S
C652 C653 1.434 . S
C653 C644 1.429 . S
C653 N650 1.350 . S
C653 C652 1.434 . S
C654 C655 1.369 . S
C654 C656 1.419 . S
C654 H658 0.930 . S
C655 C654 1.369 . S
C655 C664 1.429 1_554 S
C656 C654 1.419 . S
C656 C657 1.363 1_554 S
C656 H659 0.929 . S
C657 C656 1.363 1_556 S
C657 C663 1.428 . S
H658 C654 0.930 . S
H659 C656 0.929 . S
S660 N661 1.613 . S
S660 N662 1.610 . S
N661 S660 1.613 . S
N661 C664 1.350 . S
N662 S660 1.610 . S
N662 C663 1.351 . S
C663 C657 1.428 . S
C663 N662 1.351 . S
C663 C664 1.434 . S
C664 C655 1.429 1_556 S
C664 N661 1.350 . S
C664 C663 1.434 . S
C665 C666 1.369 1_554 S
C665 C667 1.419 . S
C665 H669 0.930 . S
C666 C665 1.369 1_556 S
C666 C675 1.429 . S
C667 C665 1.419 . S
C667 C668 1.363 . S
C667 H670 0.929 . S
C668 C667 1.363 . S
C668 C674 1.428 1_554 S
H669 C665 0.930 . S
H670 C667 0.929 . S
S671 N672 1.613 . S
S671 N673 1.610 . S
N672 S671 1.613 . S
N672 C675 1.350 . S
N673 S671 1.610 . S
N673 C674 1.351 . S
C674 C668 1.428 1_556 S
C674 N673 1.351 . S
C674 C675 1.434 . S
C675 C666 1.429 . S
C675 N672 1.350 . S
C675 C674 1.434 . S
C676 C677 1.369 . S
C676 C678 1.419 . S
C676 H680 0.930 . S
C677 C676 1.369 . S
C677 C686 1.429 . S
C678 C676 1.419 . S
C678 C679 1.363 . S
C678 H681 0.929 . S
C679 C678 1.363 . S
C679 C685 1.428 . S
H680 C676 0.930 . S
H681 C678 0.929 . S
S682 N683 1.613 . S
S682 N684 1.610 . S
N683 S682 1.613 . S
N683 C686 1.350 . S
N684 S682 1.610 . S
N684 C685 1.351 . S
C685 C679 1.428 . S
C685 N684 1.351 . S
C685 C686 1.434 . S
C686 C677 1.429 . S
C686 N683 1.350 . S
C686 C685 1.434 . S
C687 C688 1.369 . S
C687 C689 1.419 . S
C687 H691 0.930 . S
C688 C687 1.369 . S
C688 C697 1.429 . S
C689 C687 1.419 . S
C689 C690 1.363 . S
C689 H692 0.929 . S
C690 C689 1.363 . S
C690 C696 1.428 . S
H691 C687 0.930 . S
H692 C689 0.929 . S
S693 N694 1.613 . S
S693 N695 1.610 . S
N694 S693 1.613 . S
N694 C697 1.350 . S
N695 S693 1.610 . S
N695 C696 1.351 . S
C696 C690 1.428 . S
C696 N695 1.351 . S
C696 C697 1.434 . S
C697 C688 1.429 . S
C697 N694 1.350 . S
C697 C696 1.434 . S
C698 C699 1.369 1_556 S
C698 C700 1.419 . S
C698 H702 0.930 . S
C699 C698 1.369 1_554 S
C699 C708 1.429 . S
C700 C698 1.419 . S
C700 C701 1.363 . S
C700 H703 0.929 . S
C701 C700 1.363 . S
C701 C707 1.428 . S
H702 C698 0.930 . S
H703 C700 0.929 . S
S704 N705 1.613 . S
S704 N706 1.610 1_554 S
N705 S704 1.613 . S
N705 C708 1.350 . S
N706 S704 1.610 1_556 S
N706 C707 1.351 . S
C707 C701 1.428 . S
C707 N706 1.351 . S
C707 C708 1.434 1_556 S
C708 C699 1.429 . S
C708 N705 1.350 . S
C708 C707 1.434 1_554 S
C709 C710 1.369 . S
C709 C711 1.419 . S
C709 H713 0.930 . S
C710 C709 1.369 . S
C710 C719 1.429 1_556 S
C711 C709 1.419 . S
C711 C712 1.363 1_556 S
C711 H714 0.929 . S
C712 C711 1.363 1_554 S
C712 C718 1.428 . S
H713 C709 0.930 . S
H714 C711 0.929 . S
S715 N716 1.613 . S
S715 N717 1.610 . S
N716 S715 1.613 . S
N716 C719 1.350 . S
N717 S715 1.610 . S
N717 C718 1.351 . S
C718 C712 1.428 . S
C718 N717 1.351 . S
C718 C719 1.434 . S
C719 C710 1.429 1_554 S
C719 N716 1.350 . S
C719 C718 1.434 . S
C720 C721 1.369 . S
C720 C722 1.419 . S
C720 H724 0.930 . S
C721 C720 1.369 . S
C721 C730 1.429 . S
C722 C720 1.419 . S
C722 C723 1.363 . S
C722 H725 0.929 . S
C723 C722 1.363 . S
C723 C729 1.428 . S
H724 C720 0.930 . S
H725 C722 0.929 . S
S726 N727 1.613 . S
S726 N728 1.610 . S
N727 S726 1.613 . S
N727 C730 1.350 . S
N728 S726 1.610 . S
N728 C729 1.351 . S
C729 C723 1.428 . S
C729 N728 1.351 . S
C729 C730 1.434 . S
C730 C721 1.429 . S
C730 N727 1.350 . S
C730 C729 1.434 . S
C731 C732 1.369 . S
C731 C733 1.419 . S
C731 H735 0.930 . S
C732 C731 1.369 . S
C732 C741 1.429 . S
C733 C731 1.419 . S
C733 C734 1.363 . S
C733 H736 0.929 . S
C734 C733 1.363 . S
C734 C740 1.428 . S
H735 C731 0.930 . S
H736 C733 0.929 . S
S737 N738 1.613 . S
S737 N739 1.610 . S
N738 S737 1.613 . S
N738 C741 1.350 . S
N739 S737 1.610 . S
N739 C740 1.351 . S
C740 C734 1.428 . S
C740 N739 1.351 . S
C740 C741 1.434 . S
C741 C732 1.429 . S
C741 N738 1.350 . S
C741 C740 1.434 . S
C742 C743 1.369 . S
C742 C744 1.419 1_554 S
C742 H746 0.930 1_554 S
C743 C742 1.369 . S
C743 C752 1.429 . S
C744 C742 1.419 1_556 S
C744 C745 1.363 . S
C744 H747 0.929 . S
C745 C744 1.363 . S
C745 C751 1.428 1_556 S
H746 C742 0.930 1_556 S
H747 C744 0.929 . S
S748 N749 1.613 . S
S748 N750 1.610 . S
N749 S748 1.613 . S
N749 C752 1.350 . S
N750 S748 1.610 . S
N750 C751 1.351 . S
C751 C745 1.428 1_554 S
C751 N750 1.351 . S
C751 C752 1.434 . S
C752 C743 1.429 . S
C752 N749 1.350 . S
C752 C751 1.434 . S
C753 C754 1.369 . S
C753 C755 1.419 1_554 S
C753 H757 0.930 1_554 S
C754 C753 1.369 . S
C754 C763 1.429 . S
C755 C753 1.419 1_556 S
C755 C756 1.363 . S
C755 H758 0.929 . S
C756 C755 1.363 . S
C756 C762 1.428 1_556 S
H757 C753 0.930 1_556 S
H758 C755 0.929 . S
S759 N760 1.613 . S
S759 N761 1.610 . S
N760 S759 1.613 . S
N760 C763 1.350 . S
N761 S759 1.610 . S
N761 C762 1.351 . S
C762 C756 1.428 1_554 S
C762 N761 1.351 . S
C762 C763 1.434 . S
C763 C754 1.429 . S
C763 N760 1.350 . S
C763 C762 1.434 . S
C764 C765 1.369 . S
C764 C766 1.419 . S
C764 H768 0.930 . S
C765 C764 1.369 . S
C765 C774 1.429 . S
C766 C764 1.419 . S
C766 C767 1.363 . S
C766 H769 0.929 . S
C767 C766 1.363 . S
C767 C773 1.428 . S
H768 C764 0.930 . S
H769 C766 0.929 . S
S770 N771 1.613 . S
S770 N772 1.610 . S
N771 S770 1.613 . S
N771 C774 1.350 . S
N772 S770 1.610 . S
N772 C773 1.351 . S
C773 C767 1.428 . S
C773 N772 1.351 . S
C773 C774 1.434 . S
C774 C765 1.429 . S
C774 N771 1.350 . S
C774 C773 1.434 . S
C775 C776 1.369 . S
C775 C777 1.419 . S
C775 H779 0.930 . S
C776 C775 1.369 . S
C776 C785 1.429 . S
C777 C775 1.419 . S
C777 C778 1.363 . S
C777 H780 0.929 . S
C778 C777 1.363 . S
C778 C784 1.428 . S
H779 C775 0.930 . S
H780 C777 0.929 . S
S781 N782 1.613 . S
S781 N783 1.610 . S
N782 S781 1.613 . S
N782 C785 1.350 . S
N783 S781 1.610 . S
N783 C784 1.351 . S
C784 C778 1.428 . S
C784 N783 1.351 . S
C784 C785 1.434 . S
C785 C776 1.429 . S
C785 N782 1.350 . S
C785 C784 1.434 . S
C786 C787 1.369 1_556 S
C786 C788 1.419 . S
C786 H790 0.930 . S
C787 C786 1.369 1_554 S
C787 C796 1.429 . S
C788 C786 1.419 . S
C788 C789 1.363 . S
C788 H791 0.929 . S
C789 C788 1.363 . S
C789 C795 1.428 . S
H790 C786 0.930 . S
H791 C788 0.929 . S
S792 N793 1.613 . S
S792 N794 1.610 1_554 S
N793 S792 1.613 . S
N793 C796 1.350 . S
N794 S792 1.610 1_556 S
N794 C795 1.351 . S
C795 C789 1.428 . S
C795 N794 1.351 . S
C795 C796 1.434 1_556 S
C796 C787 1.429 . S
C796 N793 1.350 . S
C796 C795 1.434 1_554 S
C797 C798 1.370 . S
C797 C799 1.418 1_556 S
C797 H801 0.930 1_556 S
C798 C797 1.370 . S
C798 C807 1.429 . S
C799 C797 1.418 1_554 S
C799 C800 1.363 . S
C799 H802 0.929 . S
C800 C799 1.363 . S
C800 C806 1.428 1_554 S
H801 C797 0.930 1_554 S
H802 C799 0.929 . S
S803 N804 1.613 . S
S803 N805 1.610 . S
N804 S803 1.613 . S
N804 C807 1.350 . S
N805 S803 1.610 . S
N805 C806 1.351 . S
C806 C800 1.428 1_556 S
C806 N805 1.351 . S
C806 C807 1.434 . S
C807 C798 1.429 . S
C807 N804 1.350 . S
C807 C806 1.434 . S
C808 C809 1.369 1_565 S
C808 C810 1.419 . S
C808 H812 0.930 . S
C809 C808 1.369 1_545 S
C809 C818 1.429 . S
C810 C808 1.419 . S
C810 C811 1.363 . S
C810 H813 0.929 . S
C811 C810 1.363 . S
C811 C817 1.428 1_565 S
H812 C808 0.930 . S
H813 C810 0.929 . S
S814 N815 1.613 . S
S814 N816 1.610 . S
N815 S814 1.613 . S
N815 C818 1.350 . S
N816 S814 1.610 . S
N816 C817 1.351 . S
C817 C811 1.428 1_545 S
C817 N816 1.351 . S
C817 C818 1.434 . S
C818 C809 1.429 . S
C818 N815 1.350 . S
C818 C817 1.434 . S
C819 C820 1.369 . S
C819 C821 1.419 . S
C819 H823 0.930 . S
C820 C819 1.369 . S
C820 C829 1.429 1_545 S
C821 C819 1.419 . S
C821 C822 1.363 1_545 S
C821 H824 0.929 . S
C822 C821 1.363 1_565 S
C822 C828 1.428 . S
H823 C819 0.930 . S
H824 C821 0.929 . S
S825 N826 1.613 . S
S825 N827 1.610 . S
N826 S825 1.613 . S
N826 C829 1.350 . S
N827 S825 1.610 . S
N827 C828 1.351 . S
C828 C822 1.428 . S
C828 N827 1.351 . S
C828 C829 1.434 . S
C829 C820 1.429 1_565 S
C829 N826 1.350 . S
C829 C828 1.434 . S
C830 C831 1.369 1_565 S
C830 C832 1.419 . S
C830 H834 0.930 . S
C831 C830 1.369 1_545 S
C831 C840 1.429 . S
C832 C830 1.419 . S
C832 C833 1.363 . S
C832 H835 0.929 . S
C833 C832 1.363 . S
C833 C839 1.428 1_565 S
H834 C830 0.930 . S
H835 C832 0.929 . S
S836 N837 1.613 . S
S836 N838 1.610 . S
N837 S836 1.613 . S
N837 C840 1.350 . S
N838 S836 1.610 . S
N838 C839 1.351 . S
C839 C833 1.428 1_545 S
C839 N838 1.351 . S
C839 C840 1.434 . S
C840 C831 1.429 . S
C840 N837 1.350 . S
C840 C839 1.434 . S
C841 C842 1.369 . S
C841 C843 1.419 . S
C841 H845 0.930 . S
C842 C841 1.369 . S
C842 C851 1.429 1_565 S
C843 C841 1.419 . S
C843 C844 1.363 1_565 S
C843 H846 0.929 . S
C844 C843 1.363 1_545 S
C844 C850 1.428 . S
H845 C841 0.930 . S
H846 C843 0.929 . S
S847 N848 1.613 . S
S847 N849 1.610 . S
N848 S847 1.613 . S
N848 C851 1.350 . S
N849 S847 1.610 . S
N849 C850 1.351 . S
C850 C844 1.428 . S
C850 N849 1.351 . S
C850 C851 1.434 . S
C851 C842 1.429 1_545 S
C851 N848 1.350 . S
C851 C850 1.434 . S
C852 C853 1.369 . S
C852 C854 1.419 . S
C852 H856 0.930 . S
C853 C852 1.369 . S
C853 C862 1.429 . S
C854 C852 1.419 . S
C854 C855 1.363 . S
C854 H857 0.929 . S
C855 C854 1.363 . S
C855 C861 1.428 . S
H856 C852 0.930 . S
H857 C854 0.929 . S
S858 N859 1.613 . S
S858 N860 1.610 . S
N859 S858 1.613 . S
N859 C862 1.350 . S
N860 S858 1.610 . S
N860 C861 1.351 . S
C861 C855 1.428 . S
C861 N860 1.351 . S
C861 C862 1.434 . S
C862 C853 1.429 . S
C862 N859 1.350 . S
C862 C861 1.434 . S
C863 C864 1.369 . S
C863 C865 1.419 . S
C863 H867 0.930 . S
C864 C863 1.369 . S
C864 C873 1.429 . S
C865 C863 1.419 . S
C865 C866 1.363 . S
C865 H868 0.929 . S
C866 C865 1.363 . S
C866 C872 1.428 . S
H867 C863 0.930 . S
H868 C865 0.929 . S
S869 N870 1.613 . S
S869 N871 1.610 . S
N870 S869 1.613 . S
N870 C873 1.350 . S
N871 S869 1.610 . S
N871 C872 1.351 . S
C872 C866 1.428 . S
C872 N871 1.351 . S
C872 C873 1.434 . S
C873 C864 1.429 . S
C873 N870 1.350 . S
C873 C872 1.434 . S
C874 C875 1.369 . S
C874 C876 1.419 . S
C874 H878 0.930 . S
C875 C874 1.369 . S
C875 C884 1.429 . S
C876 C874 1.419 . S
C876 C877 1.363 . S
C876 H879 0.929 . S
C877 C876 1.363 . S
C877 C883 1.428 . S
H878 C874 0.930 . S
H879 C876 0.929 . S
S880 N881 1.613 . S
S880 N882 1.610 . S
N881 S880 1.613 . S
N881 C884 1.350 . S
N882 S880 1.610 . S
N882 C883 1.351 . S
C883 C877 1.428 . S
C883 N882 1.351 . S
C883 C884 1.434 . S
C884 C875 1.429 . S
C884 N881 1.350 . S
C884 C883 1.434 . S
C885 C886 1.369 . S
C885 C887 1.419 . S
C885 H889 0.930 . S
C886 C885 1.369 . S
C886 C895 1.429 . S
C887 C885 1.419 . S
C887 C888 1.363 . S
C887 H890 0.929 . S
C888 C887 1.363 . S
C888 C894 1.428 . S
H889 C885 0.930 . S
H890 C887 0.929 . S
S891 N892 1.613 . S
S891 N893 1.610 . S
N892 S891 1.613 . S
N892 C895 1.350 . S
N893 S891 1.610 . S
N893 C894 1.351 . S
C894 C888 1.428 . S
C894 N893 1.351 . S
C894 C895 1.434 . S
C895 C886 1.429 . S
C895 N892 1.350 . S
C895 C894 1.434 . S
C896 C897 1.369 1_545 S
C896 C898 1.419 . S
C896 H900 0.930 . S
C897 C896 1.369 1_565 S
C897 C906 1.429 . S
C898 C896 1.419 . S
C898 C899 1.363 1_545 S
C898 H901 0.929 . S
C899 C898 1.363 1_565 S
C899 C905 1.428 . S
H900 C896 0.930 . S
H901 C898 0.929 . S
S902 N903 1.613 . S
S902 N904 1.610 . S
N903 S902 1.613 . S
N903 C906 1.350 . S
N904 S902 1.610 . S
N904 C905 1.351 . S
C905 C899 1.428 . S
C905 N904 1.351 . S
C905 C906 1.434 . S
C906 C897 1.429 . S
C906 N903 1.350 . S
C906 C905 1.434 . S
C907 C908 1.369 . S
C907 C909 1.419 . S
C907 H911 0.930 . S
C908 C907 1.369 . S
C908 C917 1.429 . S
C909 C907 1.419 . S
C909 C910 1.363 . S
C909 H912 0.929 1_545 S
C910 C909 1.363 . S
C910 C916 1.428 . S
H911 C907 0.930 . S
H912 C909 0.929 1_565 S
S913 N914 1.613 . S
S913 N915 1.610 . S
N914 S913 1.613 . S
N914 C917 1.350 . S
N915 S913 1.610 . S
N915 C916 1.351 . S
C916 C910 1.428 . S
C916 N915 1.351 . S
C916 C917 1.434 . S
C917 C908 1.429 . S
C917 N914 1.350 . S
C917 C916 1.434 . S
C918 C919 1.369 1_565 S
C918 C920 1.419 1_565 S
C918 H922 0.930 . S
C919 C918 1.369 1_545 S
C919 C928 1.429 . S
C920 C918 1.419 1_545 S
C920 C921 1.363 . S
C920 H923 0.929 1_545 S
C921 C920 1.363 . S
C921 C927 1.428 . S
H922 C918 0.930 . S
H923 C920 0.929 1_565 S
S924 N925 1.613 . S
S924 N926 1.610 . S
N925 S924 1.613 . S
N925 C928 1.350 . S
N926 S924 1.610 . S
N926 C927 1.351 . S
C927 C921 1.428 . S
C927 N926 1.351 . S
C927 C928 1.434 . S
C928 C919 1.429 . S
C928 N925 1.350 . S
C928 C927 1.434 . S
C929 C930 1.369 . S
C929 C931 1.419 . S
C929 H933 0.930 . S
C930 C929 1.369 . S
C930 C939 1.429 1_565 S
C931 C929 1.419 . S
C931 C932 1.363 . S
C931 H934 0.929 . S
C932 C931 1.363 . S
C932 C938 1.428 1_565 S
H933 C929 0.930 . S
H934 C931 0.929 . S
S935 N936 1.613 . S
S935 N937 1.610 . S
N936 S935 1.613 . S
N936 C939 1.350 . S
N937 S935 1.610 . S
N937 C938 1.351 . S
C938 C932 1.428 1_545 S
C938 N937 1.351 . S
C938 C939 1.434 . S
C939 C930 1.429 1_545 S
C939 N936 1.350 . S
C939 C938 1.434 . S
C940 C941 1.369 1_565 S
C940 C942 1.419 . S
C940 H944 0.930 . S
C941 C940 1.369 1_545 S
C941 C950 1.429 . S
C942 C940 1.419 . S
C942 C943 1.363 1_565 S
C942 H945 0.929 . S
C943 C942 1.363 1_545 S
C943 C949 1.428 . S
H944 C940 0.930 . S
H945 C942 0.929 . S
S946 N947 1.613 . S
S946 N948 1.610 . S
N947 S946 1.613 . S
N947 C950 1.350 . S
N948 S946 1.610 . S
N948 C949 1.351 . S
C949 C943 1.428 . S
C949 N948 1.351 . S
C949 C950 1.434 . S
C950 C941 1.429 . S
C950 N947 1.350 . S
C950 C949 1.434 . S
C951 C952 1.369 1_545 S
C951 C953 1.419 . S
C951 H955 0.930 . S
C952 C951 1.369 1_565 S
C952 C961 1.429 . S
C953 C951 1.419 . S
C953 C954 1.363 1_545 S
C953 H956 0.929 . S
C954 C953 1.363 1_565 S
C954 C960 1.428 . S
H955 C951 0.930 . S
H956 C953 0.929 . S
S957 N958 1.613 . S
S957 N959 1.610 . S
N958 S957 1.613 . S
N958 C961 1.350 . S
N959 S957 1.610 . S
N959 C960 1.351 . S
C960 C954 1.428 . S
C960 N959 1.351 . S
C960 C961 1.434 . S
C961 C952 1.429 . S
C961 N958 1.350 . S
C961 C960 1.434 . S
C962 C963 1.369 . S
C962 C964 1.419 . S
C962 H966 0.930 . S
C963 C962 1.369 . S
C963 C972 1.429 . S
C964 C962 1.419 . S
C964 C965 1.363 . S
C964 H967 0.929 . S
C965 C964 1.363 . S
C965 C971 1.428 . S
H966 C962 0.930 . S
H967 C964 0.929 . S
S968 N969 1.613 . S
S968 N970 1.610 1_545 S
N969 S968 1.613 . S
N969 C972 1.350 1_545 S
N970 S968 1.610 1_565 S
N970 C971 1.351 . S
C971 C965 1.428 . S
C971 N970 1.351 . S
C971 C972 1.434 . S
C972 C963 1.429 . S
C972 N969 1.350 1_565 S
C972 C971 1.434 . S
C973 C974 1.369 . S
C973 C975 1.419 . S
C973 H977 0.930 . S
C974 C973 1.369 . S
C974 C983 1.429 1_545 S
C975 C973 1.419 . S
C975 C976 1.363 . S
C975 H978 0.929 . S
C976 C975 1.363 . S
C976 C982 1.428 1_545 S
H977 C973 0.930 . S
H978 C975 0.929 . S
S979 N980 1.613 . S
S979 N981 1.610 . S
N980 S979 1.613 . S
N980 C983 1.350 . S
N981 S979 1.610 . S
N981 C982 1.351 . S
C982 C976 1.428 1_565 S
C982 N981 1.351 . S
C982 C983 1.434 . S
C983 C974 1.429 1_565 S
C983 N980 1.350 . S
C983 C982 1.434 . S
C984 C985 1.369 . S
C984 C986 1.419 . S
C984 H988 0.930 . S
C985 C984 1.369 . S
C985 C994 1.429 . S
C986 C984 1.419 . S
C986 C987 1.363 . S
C986 H989 0.929 . S
C987 C986 1.363 . S
C987 C993 1.428 . S
H988 C984 0.930 . S
H989 C986 0.929 . S
S990 N991 1.613 . S
S990 N992 1.610 . S
N991 S990 1.613 . S
N991 C994 1.350 . S
N992 S990 1.610 . S
N992 C993 1.351 . S
C993 C987 1.428 . S
C993 N992 1.351 . S
C993 C994 1.434 . S
C994 C985 1.429 . S
C994 N991 1.350 . S
C994 C993 1.434 . S
C995 C996 1.369 . S
C995 C997 1.419 . S
C995 H999 0.930 . S
C996 C995 1.369 . S
C996 C1005 1.429 . S
C997 C995 1.419 . S
C997 C998 1.363 . S
C997 H1000 0.929 . S
C998 C997 1.363 . S
C998 C1004 1.428 . S
H999 C995 0.930 . S
H1000 C997 0.929 . S
S1001 N1002 1.613 . S
S1001 N1003 1.610 . S
N1002 S1001 1.613 . S
N1002 C1005 1.350 . S
N1003 S1001 1.610 . S
N1003 C1004 1.351 . S
C1004 C998 1.428 . S
C1004 N1003 1.351 . S
C1004 C1005 1.434 . S
C1005 C996 1.429 . S
C1005 N1002 1.350 . S
C1005 C1004 1.434 . S
C1006 C1007 1.369 . S
C1006 C1008 1.419 . S
C1006 H1010 0.930 . S
C1007 C1006 1.369 . S
C1007 C1016 1.429 . S
C1008 C1006 1.419 . S
C1008 C1009 1.363 . S
C1008 H1011 0.929 . S
C1009 C1008 1.363 . S
C1009 C1015 1.428 . S
H1010 C1006 0.930 . S
H1011 C1008 0.929 . S
S1012 N1013 1.613 . S
S1012 N1014 1.610 . S
N1013 S1012 1.613 . S
N1013 C1016 1.350 . S
N1014 S1012 1.610 . S
N1014 C1015 1.351 . S
C1015 C1009 1.428 . S
C1015 N1014 1.351 . S
C1015 C1016 1.434 . S
C1016 C1007 1.429 . S
C1016 N1013 1.350 . S
C1016 C1015 1.434 . S
C1017 C1018 1.369 . S
C1017 C1019 1.419 . S
C1017 H1021 0.930 . S
C1018 C1017 1.369 . S
C1018 C1027 1.429 . S
C1019 C1017 1.419 . S
C1019 C1020 1.363 . S
C1019 H1022 0.929 . S
C1020 C1019 1.363 . S
C1020 C1026 1.428 . S
H1021 C1017 0.930 . S
H1022 C1019 0.929 . S
S1023 N1024 1.613 . S
S1023 N1025 1.610 . S
N1024 S1023 1.613 . S
N1024 C1027 1.350 . S
N1025 S1023 1.610 . S
N1025 C1026 1.351 . S
C1026 C1020 1.428 . S
C1026 N1025 1.351 . S
C1026 C1027 1.434 . S
C1027 C1018 1.429 . S
C1027 N1024 1.350 . S
C1027 C1026 1.434 . S
C1028 C1029 1.369 . S
C1028 C1030 1.419 . S
C1028 H1032 0.930 . S
C1029 C1028 1.369 . S
C1029 C1038 1.429 . S
C1030 C1028 1.419 . S
C1030 C1031 1.363 . S
C1030 H1033 0.929 . S
C1031 C1030 1.363 . S
C1031 C1037 1.428 . S
H1032 C1028 0.930 . S
H1033 C1030 0.929 . S
S1034 N1035 1.613 . S
S1034 N1036 1.610 . S
N1035 S1034 1.613 . S
N1035 C1038 1.350 . S
N1036 S1034 1.610 . S
N1036 C1037 1.351 . S
C1037 C1031 1.428 . S
C1037 N1036 1.351 . S
C1037 C1038 1.434 . S
C1038 C1029 1.429 . S
C1038 N1035 1.350 . S
C1038 C1037 1.434 . S
C1039 C1040 1.369 . S
C1039 C1041 1.419 . S
C1039 H1043 0.930 . S
C1040 C1039 1.369 . S
C1040 C1049 1.429 . S
C1041 C1039 1.419 . S
C1041 C1042 1.363 . S
C1041 H1044 0.929 . S
C1042 C1041 1.363 . S
C1042 C1048 1.428 . S
H1043 C1039 0.930 . S
H1044 C1041 0.929 . S
S1045 N1046 1.613 . S
S1045 N1047 1.610 . S
N1046 S1045 1.613 . S
N1046 C1049 1.350 . S
N1047 S1045 1.610 . S
N1047 C1048 1.351 . S
C1048 C1042 1.428 . S
C1048 N1047 1.351 . S
C1048 C1049 1.434 . S
C1049 C1040 1.429 . S
C1049 N1046 1.350 . S
C1049 C1048 1.434 . S
C1050 C1051 1.369 . S
C1050 C1052 1.419 . S
C1050 H1054 0.930 . S
C1051 C1050 1.369 . S
C1051 C1060 1.429 . S
C1052 C1050 1.419 . S
C1052 C1053 1.363 . S
C1052 H1055 0.929 . S
C1053 C1052 1.363 . S
C1053 C1059 1.428 . S
H1054 C1050 0.930 . S
H1055 C1052 0.929 . S
S1056 N1057 1.613 . S
S1056 N1058 1.610 . S
N1057 S1056 1.613 . S
N1057 C1060 1.350 . S
N1058 S1056 1.610 . S
N1058 C1059 1.351 . S
C1059 C1053 1.428 . S
C1059 N1058 1.351 . S
C1059 C1060 1.434 . S
C1060 C1051 1.429 . S
C1060 N1057 1.350 . S
C1060 C1059 1.434 . S
C1061 C1062 1.369 . S
C1061 C1063 1.419 . S
C1061 H1065 0.930 . S
C1062 C1061 1.369 . S
C1062 C1071 1.429 . S
C1063 C1061 1.419 . S
C1063 C1064 1.363 . S
C1063 H1066 0.929 . S
C1064 C1063 1.363 . S
C1064 C1070 1.428 . S
H1065 C1061 0.930 . S
H1066 C1063 0.929 . S
S1067 N1068 1.613 . S
S1067 N1069 1.610 . S
N1068 S1067 1.613 . S
N1068 C1071 1.350 . S
N1069 S1067 1.610 . S
N1069 C1070 1.351 . S
C1070 C1064 1.428 . S
C1070 N1069 1.351 . S
C1070 C1071 1.434 . S
C1071 C1062 1.429 . S
C1071 N1068 1.350 . S
C1071 C1070 1.434 . S
C1072 C1073 1.369 . S
C1072 C1074 1.419 . S
C1072 H1076 0.930 . S
C1073 C1072 1.369 . S
C1073 C1082 1.429 . S
C1074 C1072 1.419 . S
C1074 C1075 1.363 . S
C1074 H1077 0.929 . S
C1075 C1074 1.363 . S
C1075 C1081 1.428 . S
H1076 C1072 0.930 . S
H1077 C1074 0.929 . S
S1078 N1079 1.613 . S
S1078 N1080 1.610 . S
N1079 S1078 1.613 . S
N1079 C1082 1.350 . S
N1080 S1078 1.610 . S
N1080 C1081 1.351 . S
C1081 C1075 1.428 . S
C1081 N1080 1.351 . S
C1081 C1082 1.434 . S
C1082 C1073 1.429 . S
C1082 N1079 1.350 . S
C1082 C1081 1.434 . S
C1083 C1084 1.369 . S
C1083 C1085 1.419 . S
C1083 H1087 0.930 . S
C1084 C1083 1.369 . S
C1084 C1093 1.429 . S
C1085 C1083 1.419 . S
C1085 C1086 1.363 . S
C1085 H1088 0.929 . S
C1086 C1085 1.363 . S
C1086 C1092 1.428 . S
H1087 C1083 0.930 . S
H1088 C1085 0.929 . S
S1089 N1090 1.613 . S
S1089 N1091 1.610 . S
N1090 S1089 1.613 . S
N1090 C1093 1.350 . S
N1091 S1089 1.610 . S
N1091 C1092 1.351 . S
C1092 C1086 1.428 . S
C1092 N1091 1.351 . S
C1092 C1093 1.434 . S
C1093 C1084 1.429 . S
C1093 N1090 1.350 . S
C1093 C1092 1.434 . S
C1094 C1095 1.369 . S
C1094 C1096 1.419 . S
C1094 H1098 0.930 . S
C1095 C1094 1.369 . S
C1095 C1104 1.429 . S
C1096 C1094 1.419 . S
C1096 C1097 1.363 . S
C1096 H1099 0.929 . S
C1097 C1096 1.363 . S
C1097 C1103 1.428 . S
H1098 C1094 0.930 . S
H1099 C1096 0.929 . S
S1100 N1101 1.613 . S
S1100 N1102 1.610 . S
N1101 S1100 1.613 . S
N1101 C1104 1.350 . S
N1102 S1100 1.610 . S
N1102 C1103 1.351 . S
C1103 C1097 1.428 . S
C1103 N1102 1.351 . S
C1103 C1104 1.434 . S
C1104 C1095 1.429 . S
C1104 N1101 1.350 . S
C1104 C1103 1.434 . S
C1105 C1106 1.369 . S
C1105 C1107 1.419 . S
C1105 H1109 0.930 . S
C1106 C1105 1.369 . S
C1106 C1115 1.429 . S
C1107 C1105 1.419 . S
C1107 C1108 1.363 . S
C1107 H1110 0.929 . S
C1108 C1107 1.363 . S
C1108 C1114 1.428 . S
H1109 C1105 0.930 . S
H1110 C1107 0.929 . S
S1111 N1112 1.613 . S
S1111 N1113 1.610 . S
N1112 S1111 1.613 . S
N1112 C1115 1.350 . S
N1113 S1111 1.610 . S
N1113 C1114 1.351 . S
C1114 C1108 1.428 . S
C1114 N1113 1.351 . S
C1114 C1115 1.434 . S
C1115 C1106 1.429 . S
C1115 N1112 1.350 . S
C1115 C1114 1.434 . S
C1116 C1117 1.369 . S
C1116 C1118 1.419 . S
C1116 H1120 0.930 . S
C1117 C1116 1.369 . S
C1117 C1126 1.429 . S
C1118 C1116 1.419 . S
C1118 C1119 1.363 . S
C1118 H1121 0.929 . S
C1119 C1118 1.363 . S
C1119 C1125 1.428 . S
H1120 C1116 0.930 . S
H1121 C1118 0.929 . S
S1122 N1123 1.613 . S
S1122 N1124 1.610 . S
N1123 S1122 1.613 . S
N1123 C1126 1.350 . S
N1124 S1122 1.610 . S
N1124 C1125 1.351 . S
C1125 C1119 1.428 . S
C1125 N1124 1.351 . S
C1125 C1126 1.434 . S
C1126 C1117 1.429 . S
C1126 N1123 1.350 . S
C1126 C1125 1.434 . S
C1127 C1128 1.369 . S
C1127 C1129 1.419 . S
C1127 H1131 0.930 . S
C1128 C1127 1.369 . S
C1128 C1137 1.429 . S
C1129 C1127 1.419 . S
C1129 C1130 1.363 . S
C1129 H1132 0.929 . S
C1130 C1129 1.363 . S
C1130 C1136 1.428 . S
H1131 C1127 0.930 . S
H1132 C1129 0.929 . S
S1133 N1134 1.613 . S
S1133 N1135 1.610 . S
N1134 S1133 1.613 . S
N1134 C1137 1.350 . S
N1135 S1133 1.610 . S
N1135 C1136 1.351 . S
C1136 C1130 1.428 . S
C1136 N1135 1.351 . S
C1136 C1137 1.434 . S
C1137 C1128 1.429 . S
C1137 N1134 1.350 . S
C1137 C1136 1.434 . S
C1138 C1139 1.369 . S
C1138 C1140 1.419 . S
C1138 H1142 0.930 . S
C1139 C1138 1.369 . S
C1139 C1148 1.429 . S
C1140 C1138 1.419 . S
C1140 C1141 1.363 . S
C1140 H1143 0.929 . S
C1141 C1140 1.363 . S
C1141 C1147 1.428 . S
H1142 C1138 0.930 . S
H1143 C1140 0.929 . S
S1144 N1145 1.613 . S
S1144 N1146 1.610 . S
N1145 S1144 1.613 . S
N1145 C1148 1.350 . S
N1146 S1144 1.610 . S
N1146 C1147 1.351 . S
C1147 C1141 1.428 . S
C1147 N1146 1.351 . S
C1147 C1148 1.434 . S
C1148 C1139 1.429 . S
C1148 N1145 1.350 . S
C1148 C1147 1.434 . S
C1149 C1150 1.369 . S
C1149 C1151 1.419 . S
C1149 H1153 0.930 . S
C1150 C1149 1.369 . S
C1150 C1159 1.429 . S
C1151 C1149 1.419 . S
C1151 C1152 1.363 . S
C1151 H1154 0.929 . S
C1152 C1151 1.363 . S
C1152 C1158 1.428 . S
H1153 C1149 0.930 . S
H1154 C1151 0.929 . S
S1155 N1156 1.613 . S
S1155 N1157 1.610 . S
N1156 S1155 1.613 . S
N1156 C1159 1.350 . S
N1157 S1155 1.610 . S
N1157 C1158 1.351 . S
C1158 C1152 1.428 . S
C1158 N1157 1.351 . S
C1158 C1159 1.434 . S
C1159 C1150 1.429 . S
C1159 N1156 1.350 . S
C1159 C1158 1.434 . S
C545 C15 1.535 . S
C547 C151 1.525 . S
C556 C185 1.535 . S
C558 C49 1.525 . S
C567 C226 1.531 . S
C569 C83 1.527 . S
C578 C253 1.528 . S
C580 C117 1.531 . S
C589 C287 1.528 . S
C591 C423 1.530 . S
C600 C457 1.526 . S
C602 C321 1.531 . S
C611 C362 1.532 . S
C613 C491 1.528 . S
C622 C396 1.524 . S
C624 C525 1.533 . S
C633 C17 1.839 . S
C635 C445 1.806 . S
C644 C51 1.837 . S
C646 C411 1.803 . S
C655 C85 1.831 . S
C657 C513 1.803 . S
C666 C479 1.804 . S
C668 C119 1.832 . S
C677 C153 1.831 . S
C679 C309 1.806 . S
C688 C187 1.832 . S
C690 C275 1.802 . S
C699 C375 1.805 . S
C701 C221 1.832 . S
C710 C255 1.831 . S
C712 C341 1.804 . S
C721 C289 1.834 . S
C723 C173 1.809 . S
C732 C139 1.802 . S
C734 C323 1.832 . S
C743 C357 1.838 . S
C745 C241 1.807 . S
C754 C391 1.839 . S
C756 C205 1.807 . S
C765 C425 1.831 . S
C767 C37 1.806 . S
C776 C3 1.806 . S
C778 C459 1.838 . S
C787 C105 1.806 . S
C789 C493 1.832 . S
C798 C527 1.838 . S
C800 C71 1.805 . S
C809 C56 1.789 1_545 S
C811 C22 1.787 1_565 S
C820 C90 1.794 1_545 S
C822 C124 1.793 1_565 S
C831 C158 1.793 1_545 S
C833 C192 1.790 1_565 S
C842 C219 1.785 1_565 S
C844 C260 1.785 1_545 S
C853 C328 1.793 . S
C855 C294 1.793 . S
C864 C389 1.794 . S
C866 C355 1.793 . S
C875 C464 1.784 . S
C877 C430 1.787 . S
C886 C498 1.792 . S
C888 C532 1.793 . S
C897 C6 1.169 . S
C899 C266 1.161 . S
C908 C210 1.161 . S
C910 C40 1.167 . S
C919 C74 1.168 . S
C921 C198 1.162 . S
C930 C164 1.156 . S
C932 C108 1.167 . S
C941 C142 1.168 . S
C943 C130 1.161 . S
C952 C176 1.168 . S
C954 C96 1.162 . S
C963 C232 1.169 . S
C965 C62 1.158 . S
C974 C28 1.157 . S
C976 C244 1.167 . S
C985 C278 1.169 . S
C987 C538 1.158 . S
C996 C312 1.166 . S
C998 C504 1.158 . S
C1007 C470 1.157 . S
C1009 C368 1.169 . S
C1018 C402 1.168 . S
C1020 C436 1.162 . S
C1029 C414 1.168 . S
C1031 C380 1.157 . S
C1040 C448 1.167 . S
C1042 C346 1.157 . S
C1051 C482 1.169 . S
C1053 C334 1.161 . S
C1062 C300 1.162 . S
C1064 C516 1.168 . S
C1073 C343 1.806 . S
C1075 C1 1.811 . S
C1084 C35 1.806 . S
C1086 C377 1.811 . S
C1095 C273 1.809 . S
C1097 C69 1.806 . S
C1106 C103 1.808 . S
C1108 C307 1.812 . S
C1117 C137 1.805 . S
C1119 C477 1.807 . S
C1128 C511 1.808 . S
C1130 C171 1.812 . S
C1139 C409 1.808 . S
C1141 C207 1.805 . S
C1150 C443 1.807 . S
C1152 C239 1.811 . S
