# Generated by pormake.
# Topology crs, (6)-cn, num edge types: 1
# Building blocks:
#     Node 0, Type 0, BuildingBlock: BETFEN_clean_sbu_0, # of connection points: 6
#     Node 1, Type 0, BuildingBlock: BETFEN_clean_sbu_0, # of connection points: 6
#     Node 2, Type 0, BuildingBlock: BETFEN_clean_sbu_0, # of connection points: 6
#     Node 3, Type 0, BuildingBlock: BETFEN_clean_sbu_0, # of connection points: 6
#     Node 4, Type 0, BuildingBlock: BETFEN_clean_sbu_0, # of connection points: 6
#     Node 5, Type 0, BuildingBlock: BETFEN_clean_sbu_0, # of connection points: 6
#     Node 6, Type 0, BuildingBlock: BETFEN_clean_sbu_0, # of connection points: 6
#     Node 7, Type 0, BuildingBlock: BETFEN_clean_sbu_0, # of connection points: 6
#     Node 8, Type 0, BuildingBlock: BETFEN_clean_sbu_0, # of connection points: 6
#     Node 9, Type 0, BuildingBlock: BETFEN_clean_sbu_0, # of connection points: 6
#     Node 10, Type 0, BuildingBlock: BETFEN_clean_sbu_0, # of connection points: 6
#     Node 11, Type 0, BuildingBlock: BETFEN_clean_sbu_0, # of connection points: 6
#     Node 12, Type 0, BuildingBlock: BETFEN_clean_sbu_0, # of connection points: 6
#     Node 13, Type 0, BuildingBlock: BETFEN_clean_sbu_0, # of connection points: 6
#     Node 14, Type 0, BuildingBlock: BETFEN_clean_sbu_0, # of connection points: 6
#     Node 15, Type 0, BuildingBlock: BETFEN_clean_sbu_0, # of connection points: 6
#     Edge 16, Type (0, 0), BuildingBlock: XUDNAN_clean_linker_2, # of connection points: 2
#     Edge 17, Type (0, 0), BuildingBlock: XUDNAN_clean_linker_2, # of connection points: 2
#     Edge 18, Type (0, 0), BuildingBlock: XUDNAN_clean_linker_2, # of connection points: 2
#     Edge 19, Type (0, 0), BuildingBlock: XUDNAN_clean_linker_2, # of connection points: 2
#     Edge 20, Type (0, 0), BuildingBlock: XUDNAN_clean_linker_2, # of connection points: 2
#     Edge 21, Type (0, 0), BuildingBlock: XUDNAN_clean_linker_2, # of connection points: 2
#     Edge 22, Type (0, 0), BuildingBlock: XUDNAN_clean_linker_2, # of connection points: 2
#     Edge 23, Type (0, 0), BuildingBlock: XUDNAN_clean_linker_2, # of connection points: 2
#     Edge 24, Type (0, 0), BuildingBlock: XUDNAN_clean_linker_2, # of connection points: 2
#     Edge 25, Type (0, 0), BuildingBlock: XUDNAN_clean_linker_2, # of connection points: 2
#     Edge 26, Type (0, 0), BuildingBlock: XUDNAN_clean_linker_2, # of connection points: 2
#     Edge 27, Type (0, 0), BuildingBlock: XUDNAN_clean_linker_2, # of connection points: 2
#     Edge 28, Type (0, 0), BuildingBlock: XUDNAN_clean_linker_2, # of connection points: 2
#     Edge 29, Type (0, 0), BuildingBlock: XUDNAN_clean_linker_2, # of connection points: 2
#     Edge 30, Type (0, 0), BuildingBlock: XUDNAN_clean_linker_2, # of connection points: 2
#     Edge 31, Type (0, 0), BuildingBlock: XUDNAN_clean_linker_2, # of connection points: 2
#     Edge 32, Type (0, 0), BuildingBlock: XUDNAN_clean_linker_2, # of connection points: 2
#     Edge 33, Type (0, 0), BuildingBlock: XUDNAN_clean_linker_2, # of connection points: 2
#     Edge 34, Type (0, 0), BuildingBlock: XUDNAN_clean_linker_2, # of connection points: 2
#     Edge 35, Type (0, 0), BuildingBlock: XUDNAN_clean_linker_2, # of connection points: 2
#     Edge 36, Type (0, 0), BuildingBlock: XUDNAN_clean_linker_2, # of connection points: 2
#     Edge 37, Type (0, 0), BuildingBlock: XUDNAN_clean_linker_2, # of connection points: 2
#     Edge 38, Type (0, 0), BuildingBlock: XUDNAN_clean_linker_2, # of connection points: 2
#     Edge 39, Type (0, 0), BuildingBlock: XUDNAN_clean_linker_2, # of connection points: 2
#     Edge 40, Type (0, 0), BuildingBlock: XUDNAN_clean_linker_2, # of connection points: 2
#     Edge 41, Type (0, 0), BuildingBlock: XUDNAN_clean_linker_2, # of connection points: 2
#     Edge 42, Type (0, 0), BuildingBlock: XUDNAN_clean_linker_2, # of connection points: 2
#     Edge 43, Type (0, 0), BuildingBlock: XUDNAN_clean_linker_2, # of connection points: 2
#     Edge 44, Type (0, 0), BuildingBlock: XUDNAN_clean_linker_2, # of connection points: 2
#     Edge 45, Type (0, 0), BuildingBlock: XUDNAN_clean_linker_2, # of connection points: 2
#     Edge 46, Type (0, 0), BuildingBlock: XUDNAN_clean_linker_2, # of connection points: 2
#     Edge 47, Type (0, 0), BuildingBlock: XUDNAN_clean_linker_2, # of connection points: 2
#     Edge 48, Type (0, 0), BuildingBlock: XUDNAN_clean_linker_2, # of connection points: 2
#     Edge 49, Type (0, 0), BuildingBlock: XUDNAN_clean_linker_2, # of connection points: 2
#     Edge 50, Type (0, 0), BuildingBlock: XUDNAN_clean_linker_2, # of connection points: 2
#     Edge 51, Type (0, 0), BuildingBlock: XUDNAN_clean_linker_2, # of connection points: 2
#     Edge 52, Type (0, 0), BuildingBlock: XUDNAN_clean_linker_2, # of connection points: 2
#     Edge 53, Type (0, 0), BuildingBlock: XUDNAN_clean_linker_2, # of connection points: 2
#     Edge 54, Type (0, 0), BuildingBlock: XUDNAN_clean_linker_2, # of connection points: 2
#     Edge 55, Type (0, 0), BuildingBlock: XUDNAN_clean_linker_2, # of connection points: 2
#     Edge 56, Type (0, 0), BuildingBlock: XUDNAN_clean_linker_2, # of connection points: 2
#     Edge 57, Type (0, 0), BuildingBlock: XUDNAN_clean_linker_2, # of connection points: 2
#     Edge 58, Type (0, 0), BuildingBlock: XUDNAN_clean_linker_2, # of connection points: 2
#     Edge 59, Type (0, 0), BuildingBlock: XUDNAN_clean_linker_2, # of connection points: 2
#     Edge 60, Type (0, 0), BuildingBlock: XUDNAN_clean_linker_2, # of connection points: 2
#     Edge 61, Type (0, 0), BuildingBlock: XUDNAN_clean_linker_2, # of connection points: 2
#     Edge 62, Type (0, 0), BuildingBlock: XUDNAN_clean_linker_2, # of connection points: 2
#     Edge 63, Type (0, 0), BuildingBlock: XUDNAN_clean_linker_2, # of connection points: 2
# Relax obj value: 0.488
# Max RMSD: 0.367
# Mean RMSD: 0.303
data_MOF--net-crs--node1-BETFEN_clean_sbu_0--edge1-XUDNAN_clean_linker_2
_symmetry_space_group_name_H-M    P1
_symmetry_Int_Tables_number       1
_symmetry_cell_setting            triclinic
loop_
_symmetry_equiv_pos_as_xyz
'x, y, z'
_cell_length_a     55.801028
_cell_length_b     54.455365
_cell_length_c     46.048774
_cell_angle_alpha  76.020475
_cell_angle_beta   74.351698
_cell_angle_gamma 64.378302
loop_
_atom_site_label
_atom_site_type_symbol
_atom_site_fract_x
_atom_site_fract_y
_atom_site_fract_z
_atom_type_partial_charge
Pr0 Pr 0.98225 0.03498 0.9953 0.0
Pr1 Pr 0.97656 0.98415 0.04532 0.0
C2 C 0.99389 0.07714 0.96129 0.0
C3 C 0.01202 0.08907 0.9641 0.0
C4 C 0.02998 0.09451 0.93815 0.0
C5 C 0.052 0.09883 0.94119 0.0
C6 C 0.05618 0.09798 0.97024 0.0
C7 C 0.03704 0.09458 0.99606 0.0
C8 C 0.01533 0.08973 0.99303 0.0
C9 C -0.00207 0.98547 0.97427 0.0
C10 C 0.022 0.00565 0.0476 0.0
C11 C 0.97697 0.93452 0.07152 0.0
C12 C 0.95501 0.92572 0.08808 0.0
C13 C 0.93278 0.94264 0.10722 0.0
C14 C 0.90907 0.9378 0.11695 0.0
C15 C 0.90729 0.91631 0.10719 0.0
C16 C 0.9301 0.89832 0.08981 0.0
C17 C 0.95388 0.90295 0.08039 0.0
C18 C 0.94862 0.0329 0.07103 0.0
C19 C 0.92695 0.02453 1.00622 0.0
O20 O 0.97182 0.08076 0.9822 0.0
O21 O 0.00654 0.05196 0.95484 0.0
O22 O 0.00326 0.98771 0.99831 0.0
O23 O 0.98489 0.00933 0.95987 0.0
O24 O 0.01562 0.98402 0.05399 0.0
O25 O 0.01154 0.02728 0.0277 0.0
O26 O 0.97641 0.94348 0.04251 0.0
O27 O 0.98242 0.94966 0.08495 0.0
O28 O 0.96119 0.03011 0.04416 0.0
O29 O 0.9487 0.00932 0.0859 0.0
O30 O 0.93755 0.04329 0.99655 0.0
O31 O 0.93905 1.0002 0.02183 0.0
H32 H 0.02794 0.0937 0.91569 0.0
H33 H 0.06628 0.10191 0.92091 0.0
H34 H 0.03968 0.09407 0.01867 0.0
H35 H 0.00211 0.08487 0.01337 0.0
H36 H 0.93309 0.9606 0.11308 0.0
H37 H 0.89158 0.95194 0.13021 0.0
H38 H 0.92903 0.88153 0.08221 0.0
H39 H 0.97074 0.88988 0.06542 0.0
Pr40 Pr 0.00972 0.26543 0.27614 0.0
Pr41 Pr -0.00201 0.23151 0.24576 0.0
C42 C 0.00933 0.30271 0.30578 0.0
C43 C 0.0106 0.30819 0.33512 0.0
C44 C 0.03557 0.30375 0.34136 0.0
C45 C 0.03653 0.31364 0.36613 0.0
C46 C 0.01253 0.32833 0.38506 0.0
C47 C 0.98765 0.33115 0.38003 0.0
C48 C 0.98668 0.32126 0.35524 0.0
C49 C 0.0486 0.21098 0.27945 0.0
C50 C 0.96087 0.24153 0.31388 0.0
C51 C 0.00143 0.19534 0.21235 0.0
C52 C 0.98863 0.18239 0.20038 0.0
C53 C 0.96045 0.19198 0.20381 0.0
C54 C 0.94922 0.17954 0.1909 0.0
C55 C 0.96609 0.15757 0.17427 0.0
C56 C 0.99429 0.14802 0.17127 0.0
C57 C 0.00541 0.16033 0.18421 0.0
C58 C 0.9599 0.28621 0.24276 0.0
C59 C 0.0426 0.25875 0.20813 0.0
O60 O 0.9873 0.30107 0.30329 0.0
O61 O 0.03135 0.28585 0.29071 0.0
O62 O 0.02332 0.21756 0.28322 0.0
O63 O 0.05393 0.23249 0.27615 0.0
O64 O 0.96762 0.22662 0.29188 0.0
O65 O 0.97363 0.25754 0.3124 0.0
O66 O -0.00238 0.22096 0.20141 0.0
O67 O 0.00287 0.18894 0.24127 0.0
O68 O 0.98527 0.27902 0.23845 0.0
O69 O 0.95376 0.26507 0.24654 0.0
O70 O 0.02833 0.27811 0.22564 0.0
O71 O 0.03839 0.23578 0.21496 0.0
H72 H 0.05436 0.29396 0.32617 0.0
H73 H 0.056 0.31143 0.3691 0.0
H74 H 0.96883 0.34215 0.39444 0.0
H75 H 0.9671 0.32508 0.35101 0.0
H76 H 0.94724 0.2091 0.21619 0.0
H77 H 0.92742 0.18737 0.19351 0.0
H78 H 0.00782 0.1308 0.15915 0.0
H79 H 0.02723 0.15268 0.18142 0.0
Pr80 Pr 0.75347 0.26628 0.52569 0.0
Pr81 Pr 0.73821 0.25082 0.48428 0.0
C82 C 0.7801 0.27258 0.56229 0.0
C83 C 0.80079 0.28352 0.55772 0.0
C84 C 0.81598 0.27657 0.58034 0.0
C85 C 0.83736 0.28489 0.57513 0.0
C86 C 0.84388 0.30022 0.54714 0.0
C87 C 0.82829 0.30744 0.52465 0.0
C88 C 0.80688 0.29913 0.52992 0.0
C89 C 0.69801 0.2764 0.54569 0.0
C90 C 0.73293 0.31426 0.47013 0.0
C91 C 0.71499 0.24208 0.44574 0.0
C92 C 0.70735 0.2196 0.44529 0.0
C93 C 0.72377 0.19214 0.45462 0.0
C94 C 0.71569 0.17098 0.45567 0.0
C95 C 0.6909 0.17704 0.4479 0.0
C96 C 0.67457 0.2045 0.43845 0.0
C97 C 0.6828 0.22563 0.43707 0.0
C98 C 0.79363 0.243 0.46508 0.0
C99 C 0.75751 0.20155 0.53866 0.0
O100 O 0.78818 0.25003 0.55069 0.0
O101 O 0.75617 0.29041 0.55751 0.0
O102 O 0.7158 0.25459 0.53534 0.0
O103 O 0.70859 0.29398 0.54336 0.0
O104 O 0.72022 0.29883 0.47014 0.0
O105 O 0.7516 0.30446 0.48705 0.0
O106 O 0.701 0.25706 0.46753 0.0
O107 O 0.74086 0.23605 0.44134 0.0
O108 O 0.77462 0.26385 0.47559 0.0
O109 O 0.78454 0.22462 0.46555 0.0
O110 O 0.76638 0.21831 0.5447 0.0
O111 O 0.74345 0.20992 0.51698 0.0
H112 H 0.81167 0.26423 0.60177 0.0
H113 H 0.84923 0.2787 0.59272 0.0
H114 H 0.83262 0.3195 0.50302 0.0
H115 H 0.79534 0.30453 0.51217 0.0
H116 H 0.74265 0.18705 0.46153 0.0
H117 H 0.72845 0.14999 0.46329 0.0
H118 H 0.65545 0.20959 0.43211 0.0
H119 H 0.66985 0.24671 0.43001 0.0
Pr120 Pr 0.73633 0.99316 0.7358 0.0
Pr121 Pr 0.7669 0.01655 0.76922 0.0
C122 C 0.69858 0.98907 0.71351 0.0
C123 C 0.69354 0.98373 0.68632 0.0
C124 C 0.71194 0.96145 0.67093 0.0
C125 C 0.70546 0.95578 0.64662 0.0
C126 C 0.68058 0.97237 0.63725 0.0
C127 C 0.6627 0.99519 0.65212 0.0
C128 C 0.66913 1.00076 0.67641 0.0
C129 C 0.7926 0.96078 0.72937 0.0
C130 C 0.76149 0.04035 0.69569 0.0
C131 C 0.80304 0.02267 0.79226 0.0
C132 C 0.80579 0.0263 0.82179 0.0
C133 C 0.8025 0.05219 0.82651 0.0
C134 C 0.80645 0.05547 0.85379 0.0
C135 C 0.81402 0.03285 0.87677 0.0
C136 C 0.81669 0.00709 0.87227 0.0
C137 C 0.81263 0.00384 0.8451 0.0
C138 C 0.71079 0.0488 0.77686 0.0
C139 C 0.74124 0.97006 0.80982 0.0
O140 O 0.70078 0.01244 0.71151 0.0
O141 O 0.71501 0.96836 0.72944 0.0
O142 O 0.77889 0.98247 0.74134 0.0
O143 O 0.77667 0.95594 0.71744 0.0
O144 O 0.77328 0.03802 0.71828 0.0
O145 O 0.7465 0.02645 0.69732 0.0
O146 O 0.80404 0.99867 0.79024 0.0
O147 O 0.78515 0.04335 0.77806 0.0
O148 O 0.72382 0.02753 0.76391 0.0
O149 O 0.72738 0.05303 0.78828 0.0
O150 O 0.72951 0.97235 0.78715 0.0
O151 O 0.75662 0.98358 0.80804 0.0
H152 H 0.73103 0.94813 0.67803 0.0
H153 H 0.71972 0.93819 0.63546 0.0
H154 H 0.64317 0.00811 0.64588 0.0
H155 H 0.65466 0.01802 0.68803 0.0
H156 H 0.79729 0.06984 0.80892 0.0
H157 H 0.80404 0.07562 0.85668 0.0
H158 H 0.82301 0.98913 0.88924 0.0
H159 H 0.81546 0.98355 0.84217 0.0
Pr160 Pr 0.50079 0.77124 0.27341 0.0
Pr161 Pr 0.49475 0.73316 0.23727 0.0
C162 C 0.49452 0.8105 0.30408 0.0
C163 C 0.49272 0.81518 0.33498 0.0
C164 C 0.51605 0.8055 0.34756 0.0
C165 C 0.51474 0.81352 0.37471 0.0
C166 C 0.49009 0.83141 0.3898 0.0
C167 C 0.46645 0.83956 0.37827 0.0
C168 C 0.46778 0.83164 0.35102 0.0
C169 C 0.54092 0.71753 0.27637 0.0
C170 C 0.45763 0.74028 0.30779 0.0
C171 C 0.50042 0.69168 0.21083 0.0
C172 C 0.49408 0.68714 0.18397 0.0
C173 C 0.46741 0.69226 0.18257 0.0
C174 C 0.46233 0.68409 0.15912 0.0
C175 C 0.4838 0.67061 0.13679 0.0
C176 C 0.51014 0.66747 0.13693 0.0
C177 C 0.51524 0.67551 0.16041 0.0
C178 C 0.45907 0.78804 0.22105 0.0
C179 C 0.53737 0.76351 0.20502 0.0
O180 O 0.47412 0.80747 0.29888 0.0
O181 O 0.51802 0.79469 0.29012 0.0
O182 O 0.5161 0.72366 0.27733 0.0
O183 O 0.54484 0.73911 0.2773 0.0
O184 O 0.46695 0.72613 0.28459 0.0
O185 O 0.4666 0.7589 0.30878 0.0
O186 O 0.51941 0.70106 0.20586 0.0
O187 O 0.48015 0.70188 0.23272 0.0
O188 O 0.475 0.77964 0.23927 0.0
O189 O 0.46197 0.76749 0.20905 0.0
O190 O 0.52184 0.78256 0.22294 0.0
O191 O 0.53418 0.74011 0.20964 0.0
H192 H 0.53559 0.79277 0.33577 0.0
H193 H 0.5334 0.80717 0.38269 0.0
H194 H 0.44712 0.85314 0.38955 0.0
H195 H 0.44948 0.83938 0.34185 0.0
H196 H 0.45061 0.70137 0.20031 0.0
H197 H 0.44188 0.68652 0.15975 0.0
H198 H 0.52703 0.65732 0.11982 0.0
H199 H 0.53595 0.67146 0.16085 0.0
Pr200 Pr 0.2549 0.7559 0.52511 0.0
Pr201 Pr 0.24392 0.73968 0.48143 0.0
C202 C 0.27351 0.7646 0.56835 0.0
C203 C 0.28434 0.78393 0.57079 0.0
C204 C 0.28371 0.78859 0.59961 0.0
C205 C 0.29205 0.80855 0.60225 0.0
C206 C 0.30112 0.82412 0.57604 0.0
C207 C 0.30172 0.81928 0.54715 0.0
C208 C 0.29328 0.79938 0.54455 0.0
C209 C 0.20025 0.76099 0.54177 0.0
C210 C 0.23949 0.80419 0.4684 0.0
C211 C 0.2238 0.73078 0.43981 0.0
C212 C 0.21026 0.71329 0.43915 0.0
C213 C 0.19994 0.71626 0.41341 0.0
C214 C 0.18711 0.69942 0.41269 0.0
C215 C 0.18465 0.67934 0.43768 0.0
C216 C 0.19514 0.67644 0.46341 0.0
C217 C 0.20781 0.69335 0.46416 0.0
C218 C 0.29926 0.73026 0.4669 0.0
C219 C 0.26276 0.69153 0.53703 0.0
O220 O 0.28857 0.74648 0.54988 0.0
O221 O 0.24814 0.77568 0.56595 0.0
O222 O 0.22015 0.74084 0.53097 0.0
O223 O 0.20793 0.7803 0.54174 0.0
O224 O 0.23067 0.78755 0.46208 0.0
O225 O 0.25247 0.79592 0.4911 0.0
O226 O 0.20998 0.75051 0.45659 0.0
O227 O 0.24902 0.7178 0.44303 0.0
O228 O 0.28041 0.75233 0.47546 0.0
O229 O 0.28972 0.71189 0.46899 0.0
O230 O 0.27391 0.70777 0.53911 0.0
O231 O 0.24538 0.70073 0.5186 0.0
H232 H 0.2764 0.77707 0.62005 0.0
H233 H 0.29111 0.81203 0.62479 0.0
H234 H 0.309 0.83062 0.52654 0.0
H235 H 0.29354 0.79619 0.52211 0.0
H236 H 0.20179 0.73158 0.39393 0.0
H237 H 0.17927 0.70197 0.39256 0.0
H238 H 0.19309 0.66146 0.48319 0.0
H239 H 0.21563 0.69095 0.48427 0.0
Pr240 Pr 0.23171 0.49265 0.74001 0.0
Pr241 Pr 0.2675 0.50983 0.77317 0.0
C242 C 0.19088 0.49266 0.71992 0.0
C243 C 0.18528 0.49138 0.69121 0.0
C244 C 0.16558 0.48175 0.692 0.0
C245 C 0.15942 0.48098 0.66495 0.0
C246 C 0.17292 0.48984 0.63665 0.0
C247 C 0.19293 0.49923 0.63593 0.0
C248 C 0.19918 0.49987 0.66308 0.0
C249 C 0.28738 0.45789 0.72931 0.0
C250 C 0.26116 0.53593 0.7 0.0
C251 C 0.30831 0.51073 0.7925 0.0
C252 C 0.31463 0.51477 0.81934 0.0
C253 C 0.29808 0.5133 0.84812 0.0
C254 C 0.30585 0.51473 0.87389 0.0
C255 C 0.33021 0.51771 0.87111 0.0
C256 C 0.34626 0.51993 0.84201 0.0
C257 C 0.33849 0.51847 0.81635 0.0
C258 C 0.21187 0.54431 0.7842 0.0
C259 C 0.24016 0.46466 0.81263 0.0
O260 O 0.19306 0.51526 0.72166 0.0
O261 O 0.20876 0.47017 0.73195 0.0
O262 O 0.27557 0.47849 0.74329 0.0
O263 O 0.26954 0.45538 0.7182 0.0
O264 O 0.27516 0.52943 0.72187 0.0
O265 O 0.24231 0.52651 0.70212 0.0
O266 O 0.30417 0.48831 0.7951 0.0
O267 O 0.29177 0.53246 0.77774 0.0
O268 O 0.22367 0.52443 0.76922 0.0
O269 O 0.22955 0.54636 0.79599 0.0
O270 O 0.22634 0.46968 0.79089 0.0
O271 O 0.2575 0.47601 0.81032 0.0
H272 H 0.1547 0.47516 0.71357 0.0
H273 H 0.14354 0.47414 0.66624 0.0
H274 H 0.20366 0.50609 0.61443 0.0
H275 H 0.21462 0.5072 0.66216 0.0
H276 H 0.27952 0.51044 0.85069 0.0
H277 H 0.29302 0.51317 0.89599 0.0
H278 H 0.36537 0.52173 0.83914 0.0
H279 H 0.35152 0.51947 0.79426 0.0
Pr280 Pr 0.99665 0.52139 0.49722 0.0
Pr281 Pr 0.01016 0.46592 0.54154 0.0
C282 C 0.99111 0.57205 0.4684 0.0
C283 C 0.0076 0.58745 0.46651 0.0
C284 C 0.01489 0.60221 0.43859 0.0
C285 C 0.0357 0.61119 0.43459 0.0
C286 C 0.04955 0.60517 0.45841 0.0
C287 C 0.04095 0.59204 0.48693 0.0
C288 C 0.02015 0.58321 0.49095 0.0
C289 C 0.01379 0.475 0.46962 0.0
C290 C 0.05662 0.4901 0.51998 0.0
C291 C 0.01554 0.41495 0.56907 0.0
C292 C 0.00543 0.39668 0.56215 0.0
C293 C 0.00263 0.37444 0.58344 0.0
C294 C 0.9905 0.35897 0.57727 0.0
C295 C 0.98128 0.36555 0.54966 0.0
C296 C 0.9848 0.38742 0.52819 0.0
C297 C 0.99651 0.40296 0.53454 0.0
C298 C 0.99373 0.51243 0.56877 0.0
C299 C 0.95227 0.49505 0.51464 0.0
O300 O 0.97675 0.56767 0.49526 0.0
O301 O 0.00383 0.5502 0.45467 0.0
O302 O 0.02366 0.47655 0.4904 0.0
O303 O 0.99553 0.49859 0.4609 0.0
O304 O 0.05267 0.46704 0.52935 0.0
O305 O 0.03761 0.51338 0.51035 0.0
O306 O 0.03449 0.42003 0.54783 0.0
O307 O -0.00328 0.43705 0.57991 0.0
O308 O 0.98341 0.51076 0.54846 0.0
O309 O 0.01182 0.48877 0.57764 0.0
O310 O 0.9547 0.51892 0.50769 0.0
O311 O 0.97173 0.47225 0.52417 0.0
H312 H 0.00562 0.60534 0.41941 0.0
H313 H 0.04206 0.6213 0.41242 0.0
H314 H 0.05112 0.58754 0.50574 0.0
H315 H 0.01506 0.57163 0.51265 0.0
H316 H 0.00916 0.36952 0.60502 0.0
H317 H 0.98792 0.34219 0.59422 0.0
H318 H 0.97736 0.39335 0.50707 0.0
H319 H -0.00219 0.4205 0.51825 0.0
Pr320 Pr 0.25794 0.2555 0.02813 0.0
Pr321 Pr 0.24112 0.24497 0.98459 0.0
C322 C 0.2754 0.2719 0.06637 0.0
C323 C 0.28113 0.29463 0.07062 0.0
C324 C 0.2652 0.30967 0.09473 0.0
C325 C 0.27167 0.32958 0.10116 0.0
C326 C 0.29436 0.33465 0.08373 0.0
C327 C 0.30975 0.32023 0.0589 0.0
C328 C 0.30318 0.30042 0.05238 0.0
C329 C 0.20634 0.25335 0.05163 0.0
C330 C 0.23601 0.30742 0.97294 0.0
C331 C 0.22174 0.22585 0.95135 0.0
C332 C 0.21037 0.20503 0.95763 0.0
C333 C 0.21084 0.19323 0.93359 0.0
C334 C 0.20066 0.17287 0.93937 0.0
C335 C 0.18986 0.16406 0.96933 0.0
C336 C 0.18971 0.17576 0.99346 0.0
C337 C 0.20004 0.19605 0.98766 0.0
C338 C 0.29285 0.24639 0.96037 0.0
C339 C 0.26657 0.19302 0.03747 0.0
O340 O 0.29173 0.25654 0.04555 0.0
O341 O 0.2501 0.27669 0.06827 0.0
O342 O 0.21272 0.26658 0.02607 0.0
O343 O 0.22719 0.23953 0.06452 0.0
O344 O 0.22576 0.29218 0.96645 0.0
O345 O 0.25112 0.29718 0.99405 0.0
O346 O 0.2071 0.24788 0.96445 0.0
O347 O 0.24734 0.21632 0.95253 0.0
O348 O 0.28641 0.23377 0.98641 0.0
O349 O 0.27224 0.25914 0.94698 0.0
O350 O 0.27892 0.208 0.03965 0.0
O351 O 0.24736 0.20414 0.02109 0.0
H352 H 0.2481 0.30551 0.10915 0.0
H353 H 0.25928 0.34054 0.12022 0.0
H354 H 0.32763 0.32331 0.04532 0.0
H355 H 0.31586 0.28911 0.03366 0.0
H356 H 0.21897 0.19985 0.91034 0.0
H357 H 0.20059 0.16454 0.92029 0.0
H358 H 0.1816 0.16924 0.01675 0.0
H359 H 0.19988 0.20477 1.00655 0.0
Pr360 Pr 0.23766 0.99019 0.23443 0.0
Pr361 Pr 0.27332 0.00628 0.26856 0.0
C362 C 0.19877 0.98833 0.21231 0.0
C363 C 0.17653 0.00369 0.19517 0.0
C364 C 0.18017 0.9979 0.16582 0.0
C365 C 0.15838 0.00816 0.15092 0.0
C366 C 0.13235 0.02435 0.16512 0.0
C367 C 0.12905 0.03177 0.19364 0.0
C368 C 0.15096 0.02145 0.20862 0.0
C369 C 0.29267 0.9539 0.22487 0.0
C370 C 0.2655 0.035 0.19742 0.0
C371 C 0.31482 0.00512 0.28876 0.0
C372 C 0.32254 0.00777 0.31551 0.0
C373 C 0.30528 0.00923 0.3441 0.0
C374 C 0.31387 0.01022 0.36956 0.0
C375 C 0.33982 0.00978 0.36671 0.0
C376 C 0.35682 0.0086 0.33783 0.0
C377 C 0.34822 0.00764 0.31251 0.0
C378 C 0.21851 0.04404 0.27527 0.0
C379 C 0.24563 0.96054 0.30675 0.0
O380 O 0.19516 0.99234 0.24046 0.0
O381 O 0.22339 0.98366 0.19686 0.0
O382 O 0.28166 0.97378 0.23994 0.0
O383 O 0.27451 0.9526 0.21338 0.0
O384 O 0.28233 0.02446 0.21696 0.0
O385 O 0.24433 0.02851 0.20147 0.0
O386 O 0.31004 0.98322 0.29056 0.0
O387 O 0.29826 0.02751 0.27486 0.0
O388 O 0.22981 0.02292 0.26222 0.0
O389 O 0.23638 0.04596 0.28692 0.0
O390 O 0.23485 0.963 0.28315 0.0
O391 O 0.26003 0.97467 0.30658 0.0
H392 H 0.19962 0.98411 0.15501 0.0
H393 H 0.16164 1.00165 0.12924 0.0
H394 H 0.10928 0.04446 0.20501 0.0
H395 H 0.14756 0.02638 0.23119 0.0
H396 H 0.28537 0.00929 0.34676 0.0
H397 H 0.30023 0.01134 0.39142 0.0
H398 H 0.3771 0.00769 0.33488 0.0
H399 H 0.36185 0.0063 0.29061 0.0
Pr400 Pr 0.50301 0.27046 0.77661 0.0
Pr401 Pr 0.49537 0.23583 0.7366 0.0
C402 C 0.49733 0.30366 0.81475 0.0
C403 C 0.50916 0.31389 0.83173 0.0
C404 C 0.52285 0.29683 0.8554 0.0
C405 C 0.5292 0.30821 0.875 0.0
C406 C 0.52178 0.33676 0.8713 0.0
C407 C 0.50962 0.35346 0.84648 0.0
C408 C 0.50328 0.34214 0.82698 0.0
C409 C 0.54281 0.21682 0.77474 0.0
C410 C 0.45674 0.24309 0.8047 0.0
C411 C 0.50132 0.19498 0.7089 0.0
C412 C 0.49838 0.18761 0.68174 0.0
C413 C 0.47292 0.19628 0.67404 0.0
C414 C 0.47011 0.1846 0.65189 0.0
C415 C 0.49268 0.16409 0.63738 0.0
C416 C 0.51839 0.15716 0.64338 0.0
C417 C 0.52119 0.16877 0.66544 0.0
C418 C 0.45751 0.29124 0.72788 0.0
C419 C 0.53932 0.26697 0.70661 0.0
O420 O 0.49789 0.27872 0.82382 0.0
O421 O 0.49911 0.31145 0.78523 0.0
O422 O 0.51778 0.22357 0.77642 0.0
O423 O 0.54747 0.23771 0.77666 0.0
O424 O 0.47028 0.22551 0.7848 0.0
O425 O 0.4625 0.2646 0.80291 0.0
O426 O 0.52086 0.20313 0.70605 0.0
O427 O 0.4793 0.20735 0.72789 0.0
O428 O 0.47536 0.28076 0.744 0.0
O429 O 0.45914 0.27226 0.71404 0.0
O430 O 0.52742 0.28248 0.72883 0.0
O431 O 0.53281 0.24628 0.70636 0.0
H432 H 0.52757 0.27494 0.85963 0.0
H433 H 0.53862 0.2949 0.89392 0.0
H434 H 0.50421 0.37548 0.8427 0.0
H435 H 0.49264 0.3557 0.80899 0.0
H436 H 0.455 0.21091 0.68621 0.0
H437 H 0.45008 0.19015 0.64772 0.0
H438 H 0.53612 0.14153 0.63225 0.0
H439 H 0.54101 0.16184 0.67098 0.0
Pr440 Pr 0.01369 0.76268 0.77777 0.0
Pr441 Pr 0.99124 0.74061 0.74759 0.0
C442 C 0.03399 0.79061 0.79869 0.0
C443 C 0.02917 0.80707 0.82241 0.0
C444 C 0.05105 0.80281 0.83514 0.0
C445 C 0.04762 0.81837 0.85714 0.0
C446 C 0.02215 0.83864 0.8669 0.0
C447 C 0.00012 0.84273 0.85427 0.0
C448 C 0.00357 0.82702 0.83225 0.0
C449 C 0.03869 0.70487 0.78577 0.0
C450 C 0.96145 0.75023 0.81969 0.0
C451 C 0.96999 0.71246 0.72867 0.0
C452 C 0.97351 0.69424 0.70764 0.0
C453 C 0.95028 0.6937 0.70217 0.0
C454 C 0.9524 0.67729 0.68184 0.0
C455 C 0.97787 0.66108 0.66642 0.0
C456 C 0.00127 0.66141 0.67217 0.0
C457 C -0.0009 0.67801 0.6926 0.0
C458 C 0.96449 0.79845 0.74193 0.0
C459 C 0.04328 0.75292 0.70547 0.0
O460 O 0.01921 0.80162 0.77754 0.0
O461 O 0.0392 0.76447 0.80741 0.0
O462 O 0.03387 0.71982 0.76055 0.0
O463 O 0.02861 0.71966 0.80773 0.0
O464 O 0.96696 0.73504 0.79843 0.0
O465 O 0.97478 0.76614 0.81578 0.0
O466 O 0.98375 0.7022 0.75074 0.0
O467 O 0.96731 0.73763 0.71697 0.0
O468 O 0.97114 0.78264 0.76604 0.0
O469 O 0.97273 0.78451 0.71943 0.0
O470 O 0.0381 0.76798 0.72678 0.0
O471 O 0.02975 0.73725 0.7094 0.0
H472 H 0.07098 0.78757 0.82779 0.0
H473 H 0.06511 0.81496 0.86596 0.0
H474 H 0.98019 0.85801 0.86148 0.0
H475 H 0.98633 0.83055 0.82287 0.0
H476 H 0.93039 0.70606 0.71366 0.0
H477 H 0.93401 0.6771 0.67846 0.0
H478 H 0.02115 0.64921 0.66057 0.0
H479 H 0.01727 0.67832 0.69649 0.0
Pr480 Pr 0.74441 0.49746 0.23492 0.0
Pr481 Pr 0.76709 0.51723 0.27977 0.0
C482 C 0.71544 0.49138 0.20147 0.0
C483 C 0.69501 0.50477 0.18202 0.0
C484 C 0.70097 0.49594 0.15378 0.0
C485 C 0.68053 0.50354 0.13749 0.0
C486 C 0.65375 0.52 0.14933 0.0
C487 C 0.64834 0.53106 0.17615 0.0
C488 C 0.66885 0.52343 0.19248 0.0
C489 C 0.79742 0.45929 0.24094 0.0
C490 C 0.76865 0.5469 0.20724 0.0
C491 C 0.7958 0.5249 0.31252 0.0
C492 C 0.80974 0.51473 0.33856 0.0
C493 C 0.80094 0.5319 0.36084 0.0
C494 C 0.81429 0.5243 0.38508 0.0
C495 C 0.83691 0.49939 0.3875 0.0
C496 C 0.84527 0.48161 0.36579 0.0
C497 C 0.83179 0.48928 0.34132 0.0
C498 C 0.71347 0.55458 0.27384 0.0
C499 C 0.74073 0.46966 0.30856 0.0
O500 O 0.7075 0.49243 0.23089 0.0
O501 O 0.73931 0.49227 0.19013 0.0
O502 O 0.78407 0.48107 0.25291 0.0
O503 O 0.78309 0.45713 0.22454 0.0
O504 O 0.77989 0.53994 0.23157 0.0
O505 O 0.75231 0.53598 0.2047 0.0
O506 O 0.80715 0.51341 0.28757 0.0
O507 O 0.76947 0.53293 0.3192 0.0
O508 O 0.72756 0.53298 0.26183 0.0
O509 O 0.72752 0.55734 0.29016 0.0
O510 O 0.73057 0.47594 0.2835 0.0
O511 O 0.75698 0.48048 0.31164 0.0
H512 H 0.72108 0.48159 0.14532 0.0
H513 H 0.68531 0.49449 0.11706 0.0
H514 H 0.6279 0.54408 0.18555 0.0
H515 H 0.66386 0.5308 0.21406 0.0
H516 H 0.78393 0.55158 0.35918 0.0
H517 H 0.80717 0.53821 0.40172 0.0
H518 H 0.86276 0.46233 0.36711 0.0
H519 H 0.83886 0.47565 0.32441 0.0
Pr520 Pr 0.75167 0.76766 0.03389 0.0
Pr521 Pr 0.74444 0.74979 0.98853 0.0
C522 C 0.75859 0.79001 0.07549 0.0
C523 C 0.76529 0.8121 0.07935 0.0
C524 C 0.74779 0.82971 0.10069 0.0
C525 C 0.75434 0.84989 0.10631 0.0
C526 C 0.7786 0.85265 0.09076 0.0
C527 C 0.79573 0.83543 0.06871 0.0
C528 C 0.78907 0.81539 0.06295 0.0
C529 C 0.70331 0.75814 0.05315 0.0
C530 C 0.73674 0.81451 0.97292 0.0
C531 C 0.72465 0.73658 0.9499 0.0
C532 C 0.70183 0.72882 0.95356 0.0
C533 C 0.70258 0.71243 0.93386 0.0
C534 C 0.68129 0.70416 0.938 0.0
C535 C 0.65892 0.71231 0.96185 0.0
C536 C 0.65824 0.72878 0.98152 0.0
C537 C 0.67963 0.73683 0.97753 0.0
C538 C 0.79899 0.74469 0.97468 0.0
C539 C 0.76842 0.70337 0.04385 0.0
O540 O 0.77792 0.76929 0.06258 0.0
O541 O 0.73535 0.79765 0.06761 0.0
O542 O 0.71005 0.77094 0.0275 0.0
O543 O 0.72278 0.74793 0.06813 0.0
O544 O 0.7362 0.79462 0.96195 0.0
O545 O 0.74194 0.8097 1.0005 0.0
O546 O 0.71837 0.76186 0.95334 0.0
O547 O 0.74442 0.71877 0.96342 0.0
O548 O 0.77883 0.76475 0.9855 0.0
O549 O 0.79131 0.72618 0.97201 0.0
O550 O 0.77886 0.72089 0.04362 0.0
O551 O 0.74934 0.71154 0.0278 0.0
H552 H 0.72926 0.82751 0.11345 0.0
H553 H 0.74065 0.86301 0.12319 0.0
H554 H 0.81484 0.83666 0.05671 0.0
H555 H 0.80282 0.80211 0.04625 0.0
H556 H 0.71969 0.70594 0.9154 0.0
H557 H 0.68218 0.69161 0.92241 0.0
H558 H 0.6414 0.73503 1.00031 0.0
H559 H 0.67893 0.74916 0.99328 0.0
Pr560 Pr 0.50789 0.00951 0.4905 0.0
Pr561 Pr 0.50015 0.96438 0.54272 0.0
C562 C 0.52025 0.05097 0.45536 0.0
C563 C 0.54302 0.0586 0.45237 0.0
C564 C 0.56819 0.03829 0.4579 0.0
C565 C 0.58922 0.04571 0.45765 0.0
C566 C 0.58529 0.07355 0.45222 0.0
C567 C 0.56018 0.09379 0.44617 0.0
C568 C 0.53917 0.08634 0.44631 0.0
C569 C 0.51758 0.96084 0.47201 0.0
C570 C 0.55768 0.9691 0.52927 0.0
C571 C 0.48722 0.92401 0.58005 0.0
C572 C 0.46215 0.91942 0.58747 0.0
C573 C 0.4372 0.94192 0.58664 0.0
C574 C 0.41377 0.93769 0.58917 0.0
C575 C 0.41498 0.91092 0.59222 0.0
C576 C 0.4399 0.8884 0.59405 0.0
C577 C 0.46332 0.89265 0.59168 0.0
C578 C 0.48825 0.01437 0.56028 0.0
C579 C 0.45171 1.00173 0.5009 0.0
O580 O 0.5034 0.05385 0.48152 0.0
O581 O 0.52628 0.02796 0.4456 0.0
O582 O 0.5252 0.96242 0.49469 0.0
O583 O 0.50659 0.98492 0.45662 0.0
O584 O 0.54622 0.95118 0.53871 0.0
O585 O 0.54536 0.99374 0.51453 0.0
O586 O 0.50021 0.92166 0.55195 0.0
O587 O 0.48593 0.94531 0.58974 0.0
O588 O 0.48129 0.01167 0.53779 0.0
O589 O 0.50128 0.99073 0.57513 0.0
O590 O 0.4631 0.01969 0.48971 0.0
O591 O 0.46276 0.97891 0.51922 0.0
H592 H 0.57146 0.01672 0.46295 0.0
H593 H 0.60829 0.02971 0.46247 0.0
H594 H 0.55675 0.1154 0.44141 0.0
H595 H 0.51981 0.10222 0.44219 0.0
H596 H 0.43595 0.96282 0.58295 0.0
H597 H 0.39485 0.95541 0.58794 0.0
H598 H 0.4416 0.86753 0.59584 0.0
H599 H 0.4825 0.87512 0.59187 0.0
Pr600 Pr 0.49769 0.52278 0.99501 0.0
Pr601 Pr 0.4942 0.4733 0.04381 0.0
C602 C 0.5022 0.56954 0.96368 0.0
C603 C 0.51443 0.58747 0.96686 0.0
C604 C 0.50675 0.61433 0.95121 0.0
C605 C 0.51829 0.6316 0.95415 0.0
C606 C 0.53771 0.62214 0.97274 0.0
C607 C 0.54513 0.59524 0.98865 0.0
C608 C 0.53348 0.57806 0.98582 0.0
C609 C 0.51911 0.47279 0.97353 0.0
C610 C 0.54239 0.4907 0.04144 0.0
C611 C 0.48808 0.42756 0.07581 0.0
C612 C 0.46486 0.41928 0.08469 0.0
C613 C 0.44455 0.42822 0.11019 0.0
C614 C 0.42108 0.42314 0.11633 0.0
C615 C 0.41752 0.40898 0.09717 0.0
C616 C 0.4383 0.39906 0.07244 0.0
C617 C 0.46175 0.40411 0.06631 0.0
C618 C 0.47123 0.52409 0.06478 0.0
C619 C 0.44721 0.50593 0.99981 0.0
O620 O 0.48112 0.56919 0.9846 0.0
O621 O 0.5191 0.54512 0.95683 0.0
O622 O 0.5225 0.47609 0.99808 0.0
O623 O 0.5053 0.49595 0.95851 0.0
O624 O 0.53675 0.46882 0.04594 0.0
O625 O 0.52814 0.51435 0.02654 0.0
O626 O 0.49877 0.42955 0.04671 0.0
O627 O 0.486 0.44753 0.08869 0.0
O628 O 0.46901 0.51989 0.04014 0.0
O629 O 0.48441 0.5011 0.08054 0.0
O630 O 0.45628 0.52577 0.98956 0.0
O631 O 0.4591 0.48378 0.01839 0.0
H632 H 0.49197 0.62188 0.93661 0.0
H633 H 0.51244 0.65214 0.94139 0.0
H634 H 0.55985 0.58753 1.00334 0.0
H635 H 0.53946 0.55743 0.99829 0.0
H636 H 0.4464 0.43982 0.12495 0.0
H637 H 0.40541 0.43097 0.13557 0.0
H638 H 0.43642 0.38744 0.05773 0.0
H639 H 0.47715 0.39668 0.0467 0.0
H640 H 0.97169 0.07033 0.05547 0.0
H641 H 0.91019 0.04781 0.12154 0.0
H642 H 0.90346 0.08264 0.15222 0.0
H643 H 0.00261 0.07376 0.10871 0.0
H644 H 0.01182 0.10179 0.08727 0.0
H645 H 0.00758 0.07949 0.06773 0.0
H646 H 0.9715 0.1224 0.04106 0.0
H647 H 0.97674 0.14408 0.0606 0.0
H648 H 0.94319 0.1455 0.06422 0.0
H649 H 0.90749 0.11552 0.17869 0.0
H650 H 0.9232 0.14237 0.19986 0.0
H651 H 0.98377 0.14162 0.11758 0.0
C652 C 0.95605 0.0736 0.07571 0.0
C653 C 0.94097 0.05699 0.08588 0.0
C654 C 0.92154 0.0608 0.11321 0.0
C655 C 0.9176 0.0805 0.13072 0.0
C656 C 0.93351 0.09594 0.12068 0.0
C657 C 0.95236 0.09271 0.09377 0.0
C658 C 0.96946 0.10896 0.09017 0.0
C659 C -0.00036 0.08986 0.08836 0.0
C660 C 0.96496 0.13156 0.06236 0.0
C661 C 0.95774 0.12124 0.11957 0.0
C662 C 0.93669 0.11396 0.13659 0.0
C663 C 0.92368 0.12172 0.16535 0.0
C664 C 0.93266 0.13704 0.17716 0.0
C665 C 0.95467 0.14409 0.16038 0.0
C666 C 0.96695 0.13645 0.131 0.0
H667 H 0.82799 0.21439 0.41656 0.0
H668 H 0.81905 0.27381 0.4708 0.0
H669 H 0.86114 0.27787 0.43978 0.0
H670 H 0.90227 0.18087 0.40291 0.0
H671 H 0.9055 0.17726 0.36398 0.0
H672 H 0.87552 0.17747 0.39147 0.0
H673 H 0.84579 0.21777 0.35691 0.0
H674 H 0.87567 0.21768 0.32933 0.0
H675 H 0.85216 0.2488 0.34468 0.0
H676 H 0.9038 0.27628 0.40275 0.0
H677 H 0.9429 0.27125 0.36098 0.0
H678 H 0.9251 0.21429 0.32709 0.0
C679 C 0.83514 0.22795 0.42214 0.0
C680 C 0.82019 0.24357 0.44661 0.0
C681 C 0.83005 0.26152 0.45252 0.0
C682 C 0.85404 0.26395 0.43494 0.0
C683 C 0.86814 0.24855 0.41094 0.0
C684 C 0.85905 0.231 0.40429 0.0
C685 C 0.8776 0.21795 0.37611 0.0
C686 C 0.89102 0.18652 0.3841 0.0
C687 C 0.86186 0.22604 0.35022 0.0
C688 C 0.89849 0.23086 0.36807 0.0
C689 C 0.89258 0.24827 0.38876 0.0
C690 C 0.90856 0.2627 0.38645 0.0
C691 C 0.93095 0.2596 0.36242 0.0
C692 C 0.93759 0.24229 0.3403 0.0
C693 C 0.92096 0.22759 0.34346 0.0
H694 H 0.77241 0.08686 0.68861 0.0
H695 H 0.75537 0.03966 0.63903 0.0
H696 H 0.75571 0.07413 0.59317 0.0
H697 H 0.72947 0.1526 0.6564 0.0
H698 H 0.75125 0.16975 0.65467 0.0
H699 H 0.75202 0.1403 0.68309 0.0
H700 H 0.8036 0.116 0.66417 0.0
H701 H 0.80297 0.14541 0.63567 0.0
H702 H 0.81635 0.11172 0.62455 0.0
H703 H 0.75516 0.11466 0.55349 0.0
H704 H 0.75309 0.15899 0.52259 0.0
H705 H 0.77005 0.1815 0.59681 0.0
C706 C 0.7693 0.08349 0.66792 0.0
C707 C 0.76414 0.06024 0.66748 0.0
C708 C 0.75948 0.05711 0.64007 0.0
C709 C 0.75967 0.07661 0.6138 0.0
C710 C 0.76442 0.09941 0.6151 0.0
C711 C 0.76914 0.10304 0.64141 0.0
C712 C 0.7721 0.13032 0.63698 0.0
C713 C 0.74989 0.14937 0.6591 0.0
C714 C 0.80045 0.12557 0.64055 0.0
C715 C 0.7682 0.14146 0.60415 0.0
C716 C 0.76391 0.12314 0.59205 0.0
C717 C 0.75872 0.12905 0.56266 0.0
C718 C 0.75757 0.1544 0.54524 0.0
C719 C 0.7616 0.17382 0.55703 0.0
C720 C 0.76732 0.167 0.58687 0.0
H721 H 0.90875 0.05757 0.95559 0.0
H722 H 0.89021 1.00125 0.03363 0.0
H723 H 0.8529 0.00385 0.01227 0.0
H724 H 0.83814 0.09901 0.94021 0.0
H725 H 0.85039 0.10074 0.89963 0.0
H726 H 0.87123 0.0995 0.92428 0.0
H727 H 0.9099 0.0568 0.90211 0.0
H728 H 0.88925 0.05777 0.87762 0.0
H729 H 0.90332 0.02688 0.9034 0.0
H730 H 0.82258 0.00703 0.97906 0.0
H731 H 0.80306 0.00898 0.93596 0.0
H732 H 0.84349 0.06118 0.87876 0.0
C733 C 0.89611 0.04671 0.96879 0.0
C734 C 0.902 0.02958 0.99644 0.0
C735 C 0.88579 0.01472 0.0125 0.0
C736 C 0.86449 0.01618 1.00063 0.0
C737 C 0.85979 0.03254 0.97269 0.0
C738 C 0.87515 0.04758 0.95701 0.0
C739 C 0.86892 0.06014 0.92546 0.0
C740 C 0.85642 0.09172 0.92222 0.0
C741 C 0.89435 0.04976 0.90072 0.0
C742 C 0.84836 0.04905 0.92542 0.0
C743 C 0.8429 0.03366 0.95306 0.0
C744 C 0.82632 0.01941 0.95749 0.0
C745 C 0.81551 0.02046 0.93283 0.0
C746 C 0.82167 0.03533 0.90403 0.0
C747 C 0.83778 0.05028 0.90066 0.0
H748 H 0.06345 0.02381 0.03493 0.0
H749 H 0.0093 0.99614 0.10849 0.0
H750 H 0.02695 0.00588 0.14607 0.0
H751 H 0.11953 0.99101 0.07385 0.0
H752 H 0.13275 0.0174 0.05869 0.0
H753 H 0.11363 0.01141 0.03732 0.0
H754 H 0.08184 0.06243 0.03473 0.0
H755 H 0.09956 0.0689 0.05745 0.0
H756 H 0.06371 0.07729 0.06929 0.0
H757 H 0.05081 0.01653 0.17569 0.0
H758 H 0.08538 0.01947 0.19666 0.0
H759 H 0.12644 0.03837 0.10493 0.0
C760 C 0.05551 0.01977 0.05898 0.0
C761 C 0.03532 0.00893 0.06901 0.0
C762 C 0.02521 0.0039 0.10052 0.0
C763 C 0.03476 0.00979 0.12198 0.0
C764 C 0.05467 0.02042 0.11156 0.0
C765 C 0.06544 0.02481 0.08091 0.0
C766 C 0.08903 0.03313 0.07637 0.0
C767 C 0.11529 0.01197 0.06065 0.0
C768 C 0.08313 0.0622 0.05843 0.0
C769 C 0.08985 0.03241 0.10925 0.0
C770 C 0.06938 0.02571 0.12903 0.0
C771 C 0.06681 0.02208 0.16052 0.0
C772 C 0.08646 0.02405 0.17223 0.0
C773 C 0.10859 0.02928 0.15249 0.0
C774 C 0.1097 0.03445 0.1206 0.0
H775 H 0.98264 0.46753 0.43905 0.0
H776 H 0.05305 0.42389 0.48188 0.0
H777 H 0.0572 0.37986 0.47039 0.0
H778 H 0.95421 0.41592 0.46269 0.0
H779 H 0.94397 0.42161 0.42691 0.0
H780 H 0.94562 0.44942 0.4398 0.0
H781 H 0.97787 0.45722 0.39005 0.0
H782 H 0.97593 0.43001 0.37635 0.0
H783 H 0.00843 0.42871 0.37779 0.0
H784 H 0.0545 0.34106 0.45214 0.0
H785 H 0.04809 0.31146 0.42423 0.0
H786 H 0.97982 0.38138 0.39314 0.0
C787 C -0.00104 0.44871 0.44601 0.0
C788 C 0.0175 0.44894 0.46141 0.0
C789 C 0.03864 0.42399 0.47007 0.0
C790 C 0.04101 0.39894 0.46384 0.0
C791 C 0.02206 0.39937 0.44901 0.0
C792 C 0.00161 0.42367 0.43996 0.0
C793 C 0.98507 0.41897 0.42236 0.0
C794 C 0.95547 0.42693 0.43898 0.0
C795 C 0.98697 0.43464 0.38971 0.0
C796 C -0.00047 0.38822 0.42263 0.0
C797 C 0.02061 0.37718 0.4384 0.0
C798 C 0.03793 0.34944 0.43993 0.0
C799 C 0.03418 0.33281 0.42399 0.0
C800 C 0.01336 0.34407 0.40668 0.0
C801 C 0.99545 0.37195 0.40681 0.0
H802 H 0.67582 0.23645 0.57449 0.0
H803 H 0.65969 0.32304 0.56634 0.0
H804 H 0.6181 0.32961 0.6049 0.0
H805 H 0.60395 0.24626 0.58607 0.0
H806 H 0.60769 0.21559 0.61349 0.0
H807 H 0.6361 0.21728 0.58424 0.0
H808 H 0.6645 0.20537 0.62553 0.0
H809 H 0.63614 0.20378 0.6549 0.0
H810 H 0.65191 0.22633 0.65553 0.0
H811 H 0.57972 0.32705 0.64701 0.0
H812 H 0.54506 0.31601 0.68734 0.0
H813 H 0.58256 0.23165 0.6688 0.0
C814 C 0.66328 0.25686 0.58049 0.0
C815 C 0.67136 0.27926 0.56703 0.0
C816 C 0.6543 0.30548 0.57604 0.0
C817 C 0.63048 0.30948 0.59811 0.0
C818 C 0.62335 0.28713 0.61132 0.0
C819 C 0.63899 0.26133 0.60271 0.0
C820 C 0.62635 0.24096 0.62112 0.0
C821 C 0.61803 0.22933 0.59997 0.0
C822 C 0.64589 0.21773 0.64041 0.0
C823 C 0.60148 0.25933 0.64137 0.0
C824 C 0.6004 0.28585 0.63531 0.0
C825 C 0.58021 0.30641 0.65169 0.0
C826 C 0.56054 0.29989 0.67475 0.0
C827 C 0.56063 0.27305 0.68138 0.0
C828 C 0.5815 0.25252 0.66416 0.0
H829 H 0.73128 0.92288 0.81772 0.0
H830 H 0.74438 0.97328 0.86689 0.0
H831 H 0.74185 0.94057 0.91402 0.0
H832 H 0.68506 0.89992 0.88004 0.0
H833 H 0.6994 0.86548 0.87069 0.0
H834 H 0.70007 0.89389 0.84117 0.0
H835 H 0.75208 0.86925 0.82605 0.0
H836 H 0.75157 0.8408 0.85551 0.0
H837 H 0.77268 0.85847 0.85457 0.0
H838 H 0.73943 0.90172 0.95571 0.0
H839 H 0.73941 0.85863 0.98839 0.0
H840 H 0.72955 0.83156 0.91265 0.0
C841 C 0.73311 0.92728 0.83854 0.0
C842 C 0.73772 0.95097 0.83854 0.0
C843 C 0.74073 0.95547 0.86618 0.0
C844 C 0.73926 0.93698 0.89317 0.0
C845 C 0.73503 0.91374 0.89234 0.0
C846 C 0.73212 0.90871 0.86573 0.0
C847 C 0.72942 0.88124 0.87082 0.0
C848 C 0.70184 0.88539 0.86535 0.0
C849 C 0.75283 0.86126 0.85053 0.0
C850 C 0.73136 0.87162 0.90434 0.0
C851 C 0.73435 0.89087 0.91631 0.0
C852 C 0.73701 0.88657 0.94658 0.0
C853 C 0.73693 0.86192 0.96504 0.0
C854 C 0.73438 0.84151 0.95335 0.0
C855 C 0.73134 0.8467 0.92251 0.0
H856 H 0.18839 0.21737 0.0952 0.0
H857 H 0.16077 0.30126 0.04886 0.0
H858 H 0.11587 0.31152 0.08305 0.0
H859 H 0.12235 0.21097 0.10602 0.0
H860 H 0.12687 0.18911 0.14208 0.0
H861 H 0.1559 0.18885 0.11287 0.0
H862 H 0.17496 0.19976 0.15171 0.0
H863 H 0.14545 0.2008 0.18038 0.0
H864 H 0.15478 0.23004 0.17002 0.0
H865 H 0.07538 0.31383 0.12658 0.0
H866 H 0.04085 0.30653 0.17048 0.0
H867 H 0.09257 0.21994 0.18564 0.0
C868 C 0.17272 0.23781 0.09198 0.0
C869 C 0.17818 0.25858 0.06927 0.0
C870 C 0.1571 0.28499 0.06581 0.0
C871 C 0.13155 0.29102 0.08532 0.0
C872 C 0.12698 0.27025 0.10784 0.0
C873 C 0.1468 0.24395 0.11072 0.0
C874 C 0.13648 0.22517 0.13632 0.0
C875 C 0.13534 0.20216 0.12357 0.0
C876 C 0.15396 0.21324 0.16107 0.0
C877 C 0.10811 0.24521 0.14816 0.0
C878 C 0.10312 0.27117 0.13152 0.0
C879 C 0.07897 0.29346 0.1393 0.0
C880 C 0.05944 0.28915 0.16441 0.0
C881 C 0.06367 0.26264 0.18135 0.0
C882 C 0.08841 0.24037 0.17285 0.0
H883 H 0.76933 0.43602 0.35421 0.0
H884 H 0.69694 0.45625 0.31962 0.0
H885 H 0.68603 0.42114 0.35921 0.0
H886 H 0.78682 0.36327 0.36968 0.0
H887 H 0.79936 0.35802 0.40384 0.0
H888 H 0.80073 0.38614 0.37427 0.0
H889 H 0.77393 0.42044 0.41323 0.0
H890 H 0.77244 0.3924 0.44294 0.0
H891 H 0.74168 0.42106 0.43532 0.0
H892 H 0.68345 0.3829 0.40098 0.0
H893 H 0.69026 0.34258 0.44093 0.0
H894 H 0.76483 0.3451 0.44918 0.0
C895 C 0.75096 0.43334 0.35528 0.0
C896 C 0.73385 0.44922 0.33379 0.0
C897 C 0.71036 0.44453 0.33569 0.0
C898 C 0.70393 0.42462 0.35822 0.0
C899 C 0.72124 0.40922 0.37881 0.0
C900 C 0.74437 0.41317 0.37755 0.0
C901 C 0.76021 0.3926 0.40151 0.0
C902 C 0.78845 0.3739 0.38642 0.0
C903 C 0.76217 0.40752 0.42462 0.0
C904 C 0.74241 0.37647 0.4163 0.0
C905 C 0.71996 0.38664 0.40287 0.0
C906 C 0.70088 0.37487 0.41175 0.0
C907 C 0.70496 0.35188 0.43457 0.0
C908 C 0.72799 0.34058 0.4485 0.0
C909 C 0.7468 0.35339 0.43939 0.0
H910 H 0.5808 0.00473 0.52799 0.0
H911 H 0.59272 0.91863 0.55138 0.0
H912 H 0.63235 0.90872 0.57304 0.0
H913 H 0.65484 0.99362 0.51294 0.0
H914 H 0.64709 0.02303 0.53057 0.0
H915 H 0.62338 0.0231 0.51064 0.0
H916 H 0.58557 0.03286 0.55831 0.0
H917 H 0.60863 0.03387 0.57824 0.0
H918 H 0.59156 0.01072 0.59403 0.0
H919 H 0.66484 0.90944 0.60007 0.0
H920 H 0.6865 0.92104 0.63189 0.0
H921 H 0.65385 0.00667 0.59144 0.0
C922 C 0.59234 0.98361 0.53666 0.0
C923 C 0.58375 0.96242 0.53786 0.0
C924 C 0.59896 0.93519 0.55014 0.0
C925 C 0.62164 0.92932 0.56231 0.0
C926 C 0.629 0.95085 0.56182 0.0
C927 C 0.61494 0.97745 0.54909 0.0
C928 C 0.62456 0.99747 0.5553 0.0
C929 C 0.6383 0.01002 0.52558 0.0
C930 C 0.60118 0.02005 0.5725 0.0
C931 C 0.6449 0.97825 0.57519 0.0
C932 C 0.64776 0.95133 0.57791 0.0
C933 C 0.66332 0.93032 0.59753 0.0
C934 C 0.67562 0.9371 0.61549 0.0
C935 C 0.67198 0.96474 0.61406 0.0
C936 C 0.6571 0.98535 0.59292 0.0
H937 H 0.98041 0.97941 0.92787 0.0
H938 H 0.02763 0.93268 0.99846 0.0
H939 H 0.0368 0.88936 0.98068 0.0
H940 H 0.95061 0.93101 0.93094 0.0
H941 H 0.9522 0.93725 0.89034 0.0
H942 H 0.94844 0.96414 0.90969 0.0
H943 H 0.99116 0.96895 0.87346 0.0
H944 H 0.99501 0.94218 0.85393 0.0
H945 H 0.02254 0.93906 0.86988 0.0
H946 H 0.04234 0.85142 0.95318 0.0
H947 H 0.04428 0.82212 0.91844 0.0
H948 H 0.9935 0.89439 0.86586 0.0
C949 C 0.99259 0.96006 0.93973 0.0
C950 C 0.00333 0.95931 0.96456 0.0
C951 C 0.01917 0.93363 0.97944 0.0
C952 C 0.02442 0.90898 0.96952 0.0
C953 C 0.01357 0.91048 0.94481 0.0
C954 C -0.00207 0.93541 0.93019 0.0
C955 C 0.98926 0.93167 0.90366 0.0
C956 C 0.95829 0.9416 0.90899 0.0
C957 C 0.00015 0.94633 0.87346 0.0
C958 C 0.00291 0.90071 0.90514 0.0
C959 C 0.01667 0.88882 0.92915 0.0
C960 C 0.03154 0.86054 0.93442 0.0
C961 C 0.03264 0.84409 0.91444 0.0
C962 C 0.01905 0.85592 0.88937 0.0
C963 C 0.00374 0.88461 0.88505 0.0
H964 H 0.06121 0.12996 1.00386 0.0
H965 H 0.10759 0.06817 0.94373 0.0
H966 H 0.14951 0.07221 0.94553 0.0
H967 H 0.09253 0.17333 0.97046 0.0
H968 H 0.09245 0.18396 1.00467 0.0
H969 H 0.06729 0.17195 1.00415 0.0
H970 H 0.08146 0.13482 0.05065 0.0
H971 H 0.10671 0.14693 0.05132 0.0
H972 H 0.11633 0.11122 0.04893 0.0
H973 H 0.18435 0.08817 0.94657 0.0
H974 H 0.20953 0.11628 0.94525 0.0
H975 H 0.14082 0.16801 1.00447 0.0
C976 C 0.08035 0.11677 0.99183 0.0
C977 C 0.08132 0.09889 0.97355 0.0
C978 C 0.10652 0.08223 0.95759 0.0
C979 C 0.13043 0.08411 0.95881 0.0
C980 C 0.12877 0.10255 0.97633 0.0
C981 C 0.1044 0.1185 0.99271 0.0
C982 C 0.10763 0.13922 1.00646 0.0
C983 C 0.08888 0.16885 0.99577 0.0
C984 C 0.10275 0.13265 0.04142 0.0
C985 C 0.13713 0.13379 0.99334 0.0
C986 C 0.14915 0.11197 0.97684 0.0
C987 C 0.1754 0.1049 0.95995 0.0
C988 C 0.18945 0.12107 0.95913 0.0
C989 C 0.17708 0.14419 0.97483 0.0
C990 C 0.15096 0.15002 0.99291 0.0
H991 H 0.69178 0.608 0.28233 0.0
H992 H 0.673 0.54816 0.25593 0.0
H993 H 0.62615 0.583 0.25342 0.0
H994 H 0.62946 0.64007 0.32946 0.0
H995 H 0.62918 0.67423 0.31747 0.0
H996 H 0.66088 0.6448 0.31613 0.0
H997 H 0.67502 0.66058 0.25866 0.0
H998 H 0.64344 0.69022 0.25986 0.0
H999 H 0.6531 0.66701 0.23282 0.0
H1000 H 0.57929 0.62549 0.25766 0.0
H1001 H 0.54047 0.67061 0.26328 0.0
H1002 H 0.59238 0.70176 0.28431 0.0
C1003 C 0.67789 0.60219 0.27583 0.0
C1004 C 0.68599 0.57528 0.2695 0.0
C1005 C 0.66725 0.56866 0.2608 0.0
C1006 C 0.64057 0.58834 0.25946 0.0
C1007 C 0.63311 0.61468 0.26641 0.0
C1008 C 0.65157 0.6216 0.27389 0.0
C1009 C 0.63921 0.65115 0.27992 0.0
C1010 C 0.63971 0.65263 0.31269 0.0
C1011 C 0.65354 0.66824 0.25642 0.0
C1012 C 0.6106 0.65984 0.27549 0.0
C1013 C 0.60721 0.63867 0.26777 0.0
C1014 C 0.58197 0.64213 0.26345 0.0
C1015 C 0.55996 0.6678 0.26683 0.0
C1016 C 0.56332 0.68977 0.27424 0.0
C1017 C 0.58906 0.68548 0.27856 0.0
H1018 H 0.33304 0.81864 0.61476 0.0
H1019 H 0.29188 0.87544 0.5428 0.0
H1020 H 0.31226 0.90735 0.54395 0.0
H1021 H 0.32851 0.87221 0.65635 0.0
H1022 H 0.36158 0.8515 0.66556 0.0
H1023 H 0.34062 0.83519 0.66208 0.0
H1024 H 0.37923 0.80754 0.6219 0.0
H1025 H 0.40019 0.82382 0.62507 0.0
H1026 H 0.3932 0.82575 0.5884 0.0
H1027 H 0.34173 0.92968 0.54811 0.0
H1028 H 0.37817 0.9407 0.5548 0.0
H1029 H 0.39829 0.87037 0.62588 0.0
C1030 C 0.32758 0.83819 0.59995 0.0
C1031 C 0.31086 0.84462 0.57875 0.0
C1032 C 0.30486 0.87003 0.55905 0.0
C1033 C 0.3161 0.88839 0.55975 0.0
C1034 C 0.33298 0.88112 0.58053 0.0
C1035 C 0.33851 0.85673 0.60045 0.0
C1036 C 0.35921 0.85254 0.61858 0.0
C1037 C 0.34672 0.85289 0.65267 0.0
C1038 C 0.38444 0.82584 0.61313 0.0
C1039 C 0.36541 0.87776 0.60475 0.0
C1040 C 0.34977 0.89423 0.58319 0.0
C1041 C 0.35361 0.91735 0.56547 0.0
C1042 C 0.37431 0.92349 0.56953 0.0
C1043 C 0.39093 0.90648 0.59105 0.0
C1044 C 0.38589 0.88376 0.60931 0.0
H1045 H 0.08023 0.67605 0.74156 0.0
H1046 H 0.04711 0.67023 0.83852 0.0
H1047 H 0.08564 0.62635 0.84751 0.0
H1048 H 0.10945 0.6003 0.73791 0.0
H1049 H 0.13918 0.60132 0.7107 0.0
H1050 H 0.10756 0.63095 0.71101 0.0
H1051 H 0.13077 0.66107 0.71699 0.0
H1052 H 0.16239 0.63156 0.71673 0.0
H1053 H 0.14847 0.65111 0.74813 0.0
H1054 H 0.12996 0.5865 0.84747 0.0
H1055 H 0.17675 0.55165 0.83779 0.0
H1056 H 0.18204 0.58028 0.74087 0.0
C1057 C 0.08078 0.66513 0.76454 0.0
C1058 C 0.06041 0.67662 0.78937 0.0
C1059 C 0.06229 0.66192 0.81915 0.0
C1060 C 0.08415 0.6369 0.8245 0.0
C1061 C 0.1042 0.62644 0.79984 0.0
C1062 C 0.1027 0.63986 0.77036 0.0
C1063 C 0.12796 0.62462 0.7483 0.0
C1064 C 0.12059 0.61365 0.72564 0.0
C1065 C 0.1433 0.6432 0.73156 0.0
C1066 C 0.14406 0.60109 0.77013 0.0
C1067 C 0.12979 0.60261 0.79974 0.0
C1068 C 0.14106 0.5847 0.82432 0.0
C1069 C 0.16763 0.56492 0.81865 0.0
C1070 C 0.18267 0.56272 0.78863 0.0
C1071 C 0.1706 0.58088 0.76398 0.0
H1072 H 0.85799 0.31985 0.58646 0.0
H1073 H 0.88213 0.29882 0.49488 0.0
H1074 H 0.92123 0.31167 0.48588 0.0
H1075 H 0.8759 0.37812 0.56814 0.0
H1076 H 0.88766 0.37132 0.60321 0.0
H1077 H 0.8617 0.36053 0.60205 0.0
H1078 H 0.89089 0.31045 0.62259 0.0
H1079 H 0.91705 0.32106 0.62356 0.0
H1080 H 0.9249 0.29373 0.60251 0.0
H1081 H 0.95726 0.32761 0.48683 0.0
H1082 H 0.98694 0.34614 0.4975 0.0
H1083 H 0.93958 0.35503 0.58895 0.0
C1084 C 0.87163 0.31768 0.56461 0.0
C1085 C 0.86707 0.3083 0.54139 0.0
C1086 C 0.8851 0.30627 0.51288 0.0
C1087 C 0.90744 0.31331 0.50764 0.0
C1088 C 0.91144 0.32226 0.53116 0.0
C1089 C 0.89399 0.32451 0.55904 0.0
C1090 C 0.90247 0.33507 0.58041 0.0
C1091 C 0.88064 0.36291 0.58894 0.0
C1092 C 0.90923 0.3138 0.60895 0.0
C1093 C 0.92755 0.33827 0.56027 0.0
C1094 C 0.93238 0.33088 0.53191 0.0
C1095 C 0.95381 0.33323 0.50904 0.0
C1096 C 0.97052 0.34374 0.51529 0.0
C1097 C 0.96571 0.35158 0.54419 0.0
C1098 C 0.94413 0.3485 0.56696 0.0
H1099 H 0.32843 0.9238 0.265 0.0
H1100 H 0.32129 0.94036 0.17013 0.0
H1101 H 0.36578 0.90285 0.15824 0.0
H1102 H 0.40471 0.90122 0.25098 0.0
H1103 H 0.40816 0.87437 0.2833 0.0
H1104 H 0.37779 0.90545 0.28392 0.0
H1105 H 0.34904 0.87637 0.29549 0.0
H1106 H 0.37926 0.84528 0.29463 0.0
H1107 H 0.35597 0.85254 0.27013 0.0
H1108 H 0.4065 0.85973 0.15746 0.0
H1109 H 0.44349 0.81457 0.1674 0.0
H1110 H 0.42724 0.82467 0.26222 0.0
C1111 C 0.33689 0.92018 0.24158 0.0
C1112 C 0.3217 0.93541 0.21827 0.0
C1113 C 0.33278 0.92927 0.18815 0.0
C1114 C 0.35805 0.90793 0.18118 0.0
C1115 C 0.37218 0.89264 0.20462 0.0
C1116 C 0.36229 0.89854 0.2342 0.0
C1117 C 0.38077 0.87706 0.25535 0.0
C1118 C 0.39362 0.89032 0.26921 0.0
C1119 C 0.36533 0.86192 0.28037 0.0
C1120 C 0.40196 0.85792 0.23314 0.0
C1121 C 0.39651 0.8675 0.204 0.0
C1122 C 0.41142 0.85235 0.18 0.0
C1123 C 0.43235 0.82668 0.18584 0.0
C1124 C 0.4386 0.81643 0.21531 0.0
C1125 C 0.42342 0.83245 0.23923 0.0
H1126 H 0.31119 0.40844 0.70737 0.0
H1127 H 0.32771 0.46 0.75106 0.0
H1128 H 0.37338 0.42364 0.75456 0.0
H1129 H 0.34483 0.34447 0.75096 0.0
H1130 H 0.35787 0.32505 0.71953 0.0
H1131 H 0.32698 0.35545 0.7198 0.0
H1132 H 0.34732 0.3761 0.66728 0.0
H1133 H 0.37827 0.34573 0.66683 0.0
H1134 H 0.37911 0.37916 0.66249 0.0
H1135 H 0.41683 0.37984 0.75564 0.0
H1136 H 0.45439 0.33398 0.75223 0.0
H1137 H 0.4102 0.31171 0.70589 0.0
C1138 C 0.32451 0.41223 0.71741 0.0
C1139 C 0.31571 0.43709 0.72926 0.0
C1140 C 0.3338 0.44108 0.74226 0.0
C1141 C 0.35985 0.42052 0.7442 0.0
C1142 C 0.36773 0.39605 0.73277 0.0
C1143 C 0.35061 0.39195 0.71937 0.0
C1144 C 0.36376 0.36374 0.70912 0.0
C1145 C 0.34738 0.34615 0.72586 0.0
C1146 C 0.36733 0.36635 0.67436 0.0
C1147 C 0.3909 0.35244 0.71895 0.0
C1148 C 0.39279 0.37135 0.73266 0.0
C1149 C 0.41559 0.36508 0.74464 0.0
C1150 C 0.43687 0.33895 0.74261 0.0
C1151 C 0.43544 0.31932 0.72851 0.0
C1152 C 0.41212 0.32637 0.71641 0.0
H1153 H 0.16522 0.79027 0.58917 0.0
H1154 H 0.17918 0.7242 0.54164 0.0
H1155 H 0.14026 0.71625 0.5769 0.0
H1156 H 0.14794 0.7565 0.66432 0.0
H1157 H 0.1224 0.7874 0.67859 0.0
H1158 H 0.15023 0.78928 0.64855 0.0
H1159 H 0.11653 0.82467 0.61458 0.0
H1160 H 0.08858 0.82294 0.64456 0.0
H1161 H 0.09108 0.81619 0.60719 0.0
H1162 H 0.1 0.71479 0.61795 0.0
H1163 H 0.06278 0.71868 0.66224 0.0
H1164 H 0.07488 0.7845 0.68581 0.0
C1165 C 0.15981 0.77443 0.58588 0.0
C1166 C 0.17523 0.75809 0.56214 0.0
C1167 C 0.1677 0.73716 0.55928 0.0
C1168 C 0.14556 0.73247 0.57931 0.0
C1169 C 0.13097 0.74868 0.60256 0.0
C1170 C 0.13782 0.7692 0.60607 0.0
C1171 C 0.11943 0.78279 0.63391 0.0
C1172 C 0.13599 0.77875 0.65775 0.0
C1173 C 0.10293 0.81347 0.62449 0.0
C1174 C 0.10118 0.76677 0.64545 0.0
C1175 C 0.10817 0.74732 0.62682 0.0
C1176 C 0.09441 0.72999 0.63261 0.0
C1177 C 0.07312 0.73243 0.65798 0.0
C1178 C 0.06551 0.75194 0.67786 0.0
C1179 C 0.07993 0.76937 0.67125 0.0
H1180 H 0.23422 0.91397 0.31381 0.0
H1181 H 0.24958 0.96205 0.36395 0.0
H1182 H 0.24693 0.92894 0.41043 0.0
H1183 H 0.18728 0.89203 0.37636 0.0
H1184 H 0.20037 0.8578 0.36676 0.0
H1185 H 0.20175 0.8861 0.33738 0.0
H1186 H 0.25353 0.86002 0.32181 0.0
H1187 H 0.25228 0.83167 0.35111 0.0
H1188 H 0.27448 0.8481 0.35018 0.0
H1189 H 0.24505 0.88988 0.45113 0.0
H1190 H 0.24445 0.84688 0.48349 0.0
H1191 H 0.2303 0.82247 0.40869 0.0
C1192 C 0.23658 0.91775 0.33469 0.0
C1193 C 0.24196 0.94092 0.33502 0.0
C1194 C 0.24546 0.94464 0.36283 0.0
C1195 C 0.24392 0.92591 0.38951 0.0
C1196 C 0.23896 0.90322 0.38837 0.0
C1197 C 0.23535 0.89895 0.36174 0.0
C1198 C 0.23156 0.872 0.36676 0.0
C1199 C 0.20357 0.8773 0.3615 0.0
C1200 C 0.25432 0.85175 0.34624 0.0
C1201 C 0.23366 0.86189 0.40026 0.0
C1202 C 0.23788 0.88038 0.41215 0.0
C1203 C 0.24152 0.87537 0.44212 0.0
C1204 C 0.24115 0.85079 0.46039 0.0
C1205 C 0.23706 0.83123 0.44894 0.0
C1206 C 0.23298 0.83713 0.41841 0.0
H1207 H 0.01295 0.60747 0.6604 0.0
H1208 H 0.94617 0.67547 0.62405 0.0
H1209 H 0.9447 0.64535 0.59287 0.0
H1210 H 0.04537 0.57585 0.58835 0.0
H1211 H 0.05527 0.54143 0.60896 0.0
H1212 H 0.05313 0.56914 0.62577 0.0
H1213 H 0.02019 0.55728 0.67305 0.0
H1214 H 0.02196 0.52983 0.65622 0.0
H1215 H 0.9896 0.55653 0.66796 0.0
H1216 H 0.94702 0.607 0.57003 0.0
H1217 H 0.95485 0.56316 0.55485 0.0
H1218 H 0.021 0.52032 0.60451 0.0
C1219 C -0.00147 0.6162 0.64525 0.0
C1220 C 0.97955 0.64379 0.64483 0.0
C1221 C 0.96065 0.6543 0.62509 0.0
C1222 C 0.95976 0.63741 0.60712 0.0
C1223 C 0.97814 0.61011 0.60881 0.0
C1224 C -0.00255 0.59962 0.62701 0.0
C1225 C 0.01387 0.56914 0.62582 0.0
C1226 C 0.04368 0.56357 0.61136 0.0
C1227 C 0.01122 0.55221 0.65766 0.0
C1228 C 2e-05 0.56399 0.60514 0.0
C1229 C 0.97968 0.58796 0.5953 0.0
C1230 C 0.96321 0.58817 0.57715 0.0
C1231 C 0.96779 0.56321 0.5687 0.0
C1232 C 0.98864 0.53849 0.57833 0.0
C1233 C 0.00495 0.53895 0.59676 0.0
H1234 H 0.31972 0.77109 0.43687 0.0
H1235 H 0.34013 0.68314 0.45079 0.0
H1236 H 0.38252 0.67662 0.41361 0.0
H1237 H 0.34563 0.77767 0.35664 0.0
H1238 H 0.35955 0.80222 0.35583 0.0
H1239 H 0.33109 0.80055 0.38495 0.0
H1240 H 0.35762 0.79312 0.42667 0.0
H1241 H 0.38612 0.79492 0.39765 0.0
H1242 H 0.39045 0.76534 0.4268 0.0
H1243 H 0.42065 0.67921 0.37162 0.0
H1244 H 0.45462 0.69052 0.33035 0.0
H1245 H 0.41328 0.7763 0.3436 0.0
C1246 C 0.3334 0.75044 0.43251 0.0
C1247 C 0.32634 0.72758 0.44705 0.0
C1248 C 0.3448 0.701 0.44018 0.0
C1249 C 0.36906 0.69704 0.41895 0.0
C1250 C 0.37516 0.71981 0.40453 0.0
C1251 C 0.35816 0.746 0.41121 0.0
C1252 C 0.36986 0.76677 0.39171 0.0
C1253 C 0.35037 0.78806 0.37106 0.0
C1254 C 0.3764 0.78088 0.41192 0.0
C1255 C 0.39574 0.74813 0.37295 0.0
C1256 C 0.39812 0.72115 0.38074 0.0
C1257 C 0.41922 0.70022 0.36566 0.0
C1258 C 0.43845 0.70686 0.3421 0.0
C1259 C 0.43704 0.73418 0.33381 0.0
C1260 C 0.41534 0.75509 0.34973 0.0
H1261 H 0.22982 0.07534 0.16115 0.0
H1262 H 0.31338 0.04059 0.17293 0.0
H1263 H 0.3229 0.0749 0.13113 0.0
H1264 H 0.24309 0.09362 0.07745 0.0
H1265 H 0.21376 0.12564 0.07736 0.0
H1266 H 0.21347 0.09713 0.1069 0.0
H1267 H 0.20108 0.12813 0.14767 0.0
H1268 H 0.20185 0.15665 0.11842 0.0
H1269 H 0.22263 0.14532 0.14678 0.0
H1270 H 0.32328 0.11449 0.09076 0.0
H1271 H 0.31429 0.15729 0.05405 0.0
H1272 H 0.23083 0.16755 0.0662 0.0
C1273 C 0.25022 0.07467 0.15455 0.0
C1274 C 0.2709 0.05496 0.17043 0.0
C1275 C 0.29715 0.0553 0.16135 0.0
C1276 C 0.30282 0.07473 0.13747 0.0
C1277 C 0.28207 0.094 0.12261 0.0
C1278 C 0.25626 0.09423 0.13068 0.0
C1279 C 0.23744 0.11832 0.1118 0.0
C1280 C 0.22628 0.10806 0.09221 0.0
C1281 C 0.21438 0.13827 0.13241 0.0
C1282 C 0.25673 0.1315 0.09204 0.0
C1283 C 0.28236 0.11702 0.09878 0.0
C1284 C 0.30338 0.1258 0.08501 0.0
C1285 C 0.29808 0.15017 0.06413 0.0
C1286 C 0.27204 0.16558 0.05678 0.0
C1287 C 0.25115 0.15585 0.07071 0.0
H1288 H 0.8354 0.71579 0.92791 0.0
H1289 H 0.82036 0.78041 0.97825 0.0
H1290 H 0.86085 0.78741 0.9458 0.0
H1291 H 0.90947 0.68792 0.91434 0.0
H1292 H 0.91339 0.68175 0.87626 0.0
H1293 H 0.88427 0.68062 0.90456 0.0
H1294 H 0.85268 0.71715 0.869 0.0
H1295 H 0.88169 0.71843 0.84063 0.0
H1296 H 0.85619 0.74952 0.85451 0.0
H1297 H 0.90294 0.78807 0.90681 0.0
H1298 H 0.94158 0.7837 0.86397 0.0
H1299 H 0.92904 0.7198 0.83685 0.0
C1300 C 0.84084 0.73115 0.93242 0.0
C1301 C 0.82467 0.74736 0.95609 0.0
C1302 C 0.83237 0.76759 0.96058 0.0
C1303 C 0.85541 0.77172 0.94217 0.0
C1304 C 0.87071 0.75564 0.91893 0.0
C1305 C 0.86368 0.7358 0.9139 0.0
C1306 C 0.8829 0.72219 0.88646 0.0
C1307 C 0.89843 0.69128 0.89598 0.0
C1308 C 0.86744 0.72712 0.86115 0.0
C1309 C 0.90182 0.73743 0.87679 0.0
C1310 C 0.89449 0.75651 0.89602 0.0
C1311 C 0.90878 0.77315 0.89171 0.0
C1312 C 0.93087 0.77045 0.86719 0.0
C1313 C 0.93873 0.75135 0.84674 0.0
C1314 C 0.92384 0.73457 0.85192 0.0
H1315 H 0.22756 0.57219 0.65942 0.0
H1316 H 0.30812 0.54379 0.67859 0.0
H1317 H 0.31781 0.57795 0.63672 0.0
H1318 H 0.24632 0.58811 0.57536 0.0
H1319 H 0.21583 0.61869 0.57252 0.0
H1320 H 0.21554 0.59041 0.6024 0.0
H1321 H 0.19727 0.62322 0.64279 0.0
H1322 H 0.19754 0.65156 0.61307 0.0
H1323 H 0.21562 0.6433 0.6435 0.0
H1324 H 0.31814 0.61721 0.59611 0.0
H1325 H 0.30913 0.65925 0.55832 0.0
H1326 H 0.22875 0.6635 0.56304 0.0
C1327 C 0.24742 0.57279 0.65433 0.0
C1328 C 0.26714 0.55501 0.67238 0.0
C1329 C 0.29264 0.55702 0.6653 0.0
C1330 C 0.29841 0.57639 0.64142 0.0
C1331 C 0.27851 0.59389 0.62452 0.0
C1332 C 0.25352 0.59233 0.63047 0.0
C1333 C 0.23538 0.61484 0.60964 0.0
C1334 C 0.22782 0.60226 0.58874 0.0
C1335 C 0.20995 0.63438 0.62837 0.0
C1336 C 0.25401 0.62937 0.59144 0.0
C1337 C 0.2788 0.61675 0.60049 0.0
C1338 C 0.29894 0.62705 0.58854 0.0
C1339 C 0.29362 0.651 0.56705 0.0
C1340 C 0.26843 0.66453 0.5573 0.0
C1341 C 0.24846 0.65328 0.56945 0.0
H1342 H 0.36997 0.03728 0.37002 0.0
H1343 H 0.33289 0.98118 0.42416 0.0
H1344 H 0.35316 0.97752 0.46738 0.0
H1345 H 0.43198 1.00118 0.39413 0.0
H1346 H 0.43772 0.03138 0.39382 0.0
H1347 H 0.41744 0.03228 0.36884 0.0
H1348 H 0.37776 0.0743 0.39133 0.0
H1349 H 0.39794 0.07345 0.41652 0.0
H1350 H 0.36523 0.07186 0.43189 0.0
H1351 H 0.38202 0.97559 0.50227 0.0
H1352 H 0.41669 0.97587 0.52592 0.0
H1353 H 0.43452 0.03344 0.44886 0.0
C1354 C 0.36583 0.02445 0.39106 0.0
C1355 C 0.34973 0.00961 0.39371 0.0
C1356 C 0.34476 0.99313 0.42173 0.0
C1357 C 0.35628 0.99084 0.44637 0.0
C1358 C 0.3725 0.00534 0.44272 0.0
C1359 C 0.37716 0.02192 0.41578 0.0
C1360 C 0.39703 0.03363 0.41672 0.0
C1361 C 0.42254 0.02404 0.39192 0.0
C1362 C 0.38368 0.06518 0.41396 0.0
C1363 C 0.4032 0.02073 0.44824 0.0
C1364 C 0.38877 0.00457 0.46297 0.0
C1365 C 0.39296 0.98866 0.49124 0.0
C1366 C 0.41271 0.98894 0.50448 0.0
C1367 C 0.42797 0.00507 0.48949 0.0
C1368 C 0.42266 0.02155 0.46132 0.0
H1369 H 0.80428 0.88445 0.05265 0.0
H1370 H 0.7741 0.86224 0.14808 0.0
H1371 H 0.79724 0.88572 0.16263 0.0
H1372 H 0.86718 0.86622 0.06041 0.0
H1373 H 0.87465 0.89291 0.03278 0.0
H1374 H 0.84923 0.8826 0.02916 0.0
H1375 H 0.81381 0.93286 0.0292 0.0
H1376 H 0.83931 0.9435 0.03242 0.0
H1377 H 0.80806 0.95116 0.05986 0.0
H1378 H 0.83127 0.90199 0.16724 0.0
H1379 H 0.87313 0.90983 0.16097 0.0
H1380 H 0.88285 0.91879 0.06295 0.0
C1381 C 0.80186 0.88529 0.07657 0.0
C1382 C 0.7874 0.87158 0.09919 0.0
C1383 C 0.78468 0.87304 0.13029 0.0
C1384 C 0.79781 0.88631 0.13879 0.0
C1385 C 0.81333 0.89818 0.11594 0.0
C1386 C 0.81512 0.89809 0.08537 0.0
C1387 C 0.83651 0.90798 0.06545 0.0
C1388 C 0.85816 0.88612 0.04584 0.0
C1389 C 0.82365 0.93552 0.04557 0.0
C1390 C 0.8478 0.91167 0.08966 0.0
C1391 C 0.83366 0.90683 0.11861 0.0
C1392 C 0.84212 0.90647 0.14468 0.0
C1393 C 0.86588 0.91076 0.141 0.0
C1394 C 0.88097 0.91464 0.11154 0.0
C1395 C 0.87147 0.91579 0.08568 0.0
H1396 H 0.64166 0.17625 0.47584 0.0
H1397 H 0.71935 0.12835 0.42489 0.0
H1398 H 0.70226 0.09311 0.42546 0.0
H1399 H 0.62682 0.11646 0.52258 0.0
H1400 H 0.59125 0.13416 0.52144 0.0
H1401 H 0.61092 0.15339 0.52049 0.0
H1402 H 0.59575 0.18332 0.47043 0.0
H1403 H 0.57621 0.16414 0.47114 0.0
H1404 H 0.60165 0.16678 0.43817 0.0
H1405 H 0.67478 0.06639 0.42628 0.0
H1406 H 0.63932 0.05017 0.42763 0.0
H1407 H 0.58023 0.11536 0.47912 0.0
C1408 C 0.65514 0.15814 0.46516 0.0
C1409 C 0.6817 0.15491 0.45021 0.0
C1410 C 0.69894 0.13097 0.43661 0.0
C1411 C 0.68943 0.11091 0.43686 0.0
C1412 C 0.66286 0.11501 0.45127 0.0
C1413 C 0.64608 0.13791 0.46548 0.0
C1414 C 0.61788 0.13849 0.4776 0.0
C1415 C 0.61134 0.13543 0.51261 0.0
C1416 C 0.59664 0.16473 0.46348 0.0
C1417 C 0.62098 0.11315 0.46657 0.0
C1418 C 0.64715 0.09956 0.45193 0.0
C1419 C 0.65434 0.07657 0.43816 0.0
C1420 C 0.6341 0.06751 0.43904 0.0
C1421 C 0.60707 0.08164 0.45333 0.0
C1422 C 0.60069 0.10435 0.46778 0.0
H1423 H 0.81247 0.40506 0.24095 0.0
H1424 H 0.84207 0.4629 0.25275 0.0
H1425 H 0.88751 0.42492 0.255 0.0
H1426 H 0.85069 0.34723 0.29281 0.0
H1427 H 0.85553 0.32231 0.2699 0.0
H1428 H 0.8258 0.35393 0.27066 0.0
H1429 H 0.83733 0.3644 0.21179 0.0
H1430 H 0.86725 0.33304 0.21085 0.0
H1431 H 0.86991 0.36545 0.19373 0.0
H1432 H 0.93147 0.37966 0.25087 0.0
H1433 H 0.96677 0.33244 0.24696 0.0
H1434 H 0.90622 0.30504 0.24102 0.0
C1435 C 0.82842 0.40975 0.24438 0.0
C1436 C 0.82381 0.43697 0.24652 0.0
C1437 C 0.84513 0.44218 0.25121 0.0
C1438 C 0.87101 0.42072 0.25233 0.0
C1439 C 0.87501 0.39411 0.24936 0.0
C1440 C 0.85396 0.38862 0.24615 0.0
C1441 C 0.86291 0.35854 0.24371 0.0
C1442 C 0.84784 0.34469 0.27089 0.0
C1443 C 0.85912 0.35518 0.21321 0.0
C1444 C 0.89259 0.34783 0.2451 0.0
C1445 C 0.89939 0.36853 0.24826 0.0
C1446 C 0.92612 0.36337 0.24879 0.0
C1447 C 0.9461 0.3365 0.24639 0.0
C1448 C 0.9393 0.31498 0.24375 0.0
C1449 C 0.91212 0.32094 0.24315 0.0
H1450 H 0.05651 0.65317 0.43302 0.0
H1451 H 0.09824 0.56864 0.47164 0.0
H1452 H 0.13929 0.57731 0.46602 0.0
H1453 H 0.11625 0.66022 0.37777 0.0
H1454 H 0.10601 0.69534 0.38308 0.0
H1455 H 0.08082 0.68172 0.3873 0.0
H1456 H 0.06067 0.6953 0.44161 0.0
H1457 H 0.08574 0.70894 0.43755 0.0
H1458 H 0.08238 0.68297 0.46924 0.0
H1459 H 0.174 0.59603 0.46046 0.0
H1460 H 0.20033 0.62389 0.45572 0.0
H1461 H 0.1362 0.69624 0.42034 0.0
C1462 C 0.0745 0.63644 0.43973 0.0
C1463 C 0.07432 0.61034 0.45308 0.0
C1464 C 0.098 0.58891 0.46196 0.0
C1465 C 0.12143 0.59356 0.45852 0.0
C1466 C 0.12085 0.61969 0.44584 0.0
C1467 C 0.09808 0.64076 0.43645 0.0
C1468 C 0.10226 0.66739 0.42547 0.0
C1469 C 0.10128 0.67671 0.39138 0.0
C1470 C 0.08154 0.68997 0.44462 0.0
C1471 C 0.13056 0.65818 0.43114 0.0
C1472 C 0.14105 0.63051 0.4425 0.0
C1473 C 0.1662 0.61765 0.45122 0.0
C1474 C 0.18089 0.63363 0.44864 0.0
C1475 C 0.17028 0.66212 0.43758 0.0
C1476 C 0.14501 0.67438 0.42828 0.0
H1477 H 0.68992 0.10143 0.78774 0.0
H1478 H 0.66852 0.04355 0.76115 0.0
H1479 H 0.62232 0.07981 0.75826 0.0
H1480 H 0.6265 0.13666 0.83375 0.0
H1481 H 0.62859 0.16982 0.82121 0.0
H1482 H 0.65907 0.13903 0.8218 0.0
H1483 H 0.67604 0.15285 0.76456 0.0
H1484 H 0.64563 0.18371 0.76381 0.0
H1485 H 0.65503 0.16 0.7374 0.0
H1486 H 0.57705 0.12412 0.7599 0.0
H1487 H 0.5402 0.17076 0.76251 0.0
H1488 H 0.59398 0.19864 0.78505 0.0
C1489 C 0.67553 0.09618 0.78148 0.0
C1490 C 0.68278 0.0695 0.77497 0.0
C1491 C 0.66339 0.06379 0.76636 0.0
C1492 C 0.63711 0.08429 0.76472 0.0
C1493 C 0.63068 0.11049 0.77135 0.0
C1494 C 0.64963 0.11638 0.77925 0.0
C1495 C 0.63858 0.1461 0.78427 0.0
C1496 C 0.63816 0.148 0.81721 0.0
C1497 C 0.65478 0.16157 0.76113 0.0
C1498 C 0.61022 0.15624 0.77835 0.0
C1499 C 0.60576 0.13553 0.77111 0.0
C1500 C 0.58057 0.14038 0.76539 0.0
C1501 C 0.5597 0.16693 0.76697 0.0
C1502 C 0.56419 0.18842 0.77387 0.0
C1503 C 0.58986 0.18276 0.77957 0.0
H1504 H 0.73881 0.5795 0.16238 0.0
H1505 H 0.81064 0.56333 0.19584 0.0
H1506 H 0.81948 0.59946 0.15602 0.0
H1507 H 0.76495 0.59465 0.08158 0.0
H1508 H 0.73351 0.62218 0.07399 0.0
H1509 H 0.73324 0.59416 0.10423 0.0
H1510 H 0.70542 0.62886 0.14265 0.0
H1511 H 0.70561 0.65694 0.11254 0.0
H1512 H 0.7181 0.6531 0.14629 0.0
H1513 H 0.82012 0.63823 0.11358 0.0
H1514 H 0.81157 0.67807 0.07278 0.0
H1515 H 0.73902 0.6704 0.06628 0.0
C1516 C 0.75658 0.58333 0.16111 0.0
C1517 C 0.77417 0.56825 0.18227 0.0
C1518 C 0.79688 0.57441 0.18003 0.0
C1519 C 0.80212 0.59492 0.15737 0.0
C1520 C 0.7844 0.60943 0.13704 0.0
C1521 C 0.76197 0.60407 0.13875 0.0
C1522 C 0.74552 0.62364 0.11484 0.0
C1523 C 0.74424 0.6077 0.09232 0.0
C1524 C 0.71698 0.6417 0.12999 0.0
C1525 C 0.76229 0.64071 0.09937 0.0
C1526 C 0.78465 0.63206 0.11257 0.0
C1527 C 0.80275 0.64506 0.10299 0.0
C1528 C 0.79773 0.66772 0.0797 0.0
C1529 C 0.77479 0.67733 0.06596 0.0
C1530 C 0.75702 0.66332 0.07583 0.0
H1531 H 0.91652 0.53368 0.47986 0.0
H1532 H 0.93915 0.44999 0.52736 0.0
H1533 H 0.90907 0.44259 0.50281 0.0
H1534 H 0.84534 0.54709 0.47907 0.0
H1535 H 0.84728 0.56626 0.44127 0.0
H1536 H 0.86675 0.56616 0.46683 0.0
H1537 H 0.91039 0.54919 0.42613 0.0
H1538 H 0.89128 0.54857 0.40072 0.0
H1539 H 0.91937 0.51786 0.41147 0.0
H1540 H 0.88228 0.44216 0.46641 0.0
H1541 H 0.85672 0.45085 0.42587 0.0
H1542 H 0.85301 0.53432 0.4025 0.0
C1543 C 0.91445 0.5141 0.48602 0.0
C1544 C 0.93006 0.49251 0.50567 0.0
C1545 C 0.92723 0.46695 0.5125 0.0
C1546 C 0.9102 0.46252 0.49865 0.0
C1547 C 0.89621 0.48384 0.47805 0.0
C1548 C 0.89785 0.50927 0.47217 0.0
C1549 C 0.88285 0.52801 0.4472 0.0
C1550 C 0.85914 0.55338 0.45932 0.0
C1551 C 0.90213 0.53638 0.41977 0.0
C1552 C 0.87295 0.50903 0.43948 0.0
C1553 C 0.8808 0.48362 0.4574 0.0
C1554 C 0.87548 0.4622 0.45272 0.0
C1555 C 0.86123 0.46719 0.42953 0.0
C1556 C 0.85256 0.49337 0.41149 0.0
C1557 C 0.85875 0.51434 0.41651 0.0
H1558 H 0.16297 0.45028 0.62138 0.0
H1559 H 0.16313 0.53187 0.58905 0.0
H1560 H 0.14097 0.53675 0.54707 0.0
H1561 H 0.16928 0.43175 0.54427 0.0
H1562 H 0.14639 0.41459 0.56083 0.0
H1563 H 0.16848 0.41463 0.58306 0.0
H1564 H 0.12695 0.4354 0.62483 0.0
H1565 H 0.10485 0.43549 0.6028 0.0
H1566 H 0.0995 0.46703 0.61455 0.0
H1567 H 0.11007 0.53703 0.51707 0.0
H1568 H 0.07423 0.53221 0.49996 0.0
H1569 H 0.09413 0.45034 0.55187 0.0
C1570 C 0.1591 0.4688 0.60485 0.0
C1571 C 0.16477 0.49066 0.60832 0.0
C1572 C 0.15931 0.51471 0.58648 0.0
C1573 C 0.14672 0.51765 0.56259 0.0
C1574 C 0.14014 0.4962 0.56068 0.0
C1575 C 0.14652 0.47204 0.58101 0.0
C1576 C 0.13393 0.45377 0.5769 0.0
C1577 C 0.15583 0.4271 0.56558 0.0
C1578 C 0.1152 0.4476 0.60651 0.0
C1579 C 0.11809 0.47214 0.5524 0.0
C1580 C 0.12235 0.49627 0.54288 0.0
C1581 C 0.10719 0.5179 0.52346 0.0
C1582 C 0.08675 0.51503 0.51407 0.0
C1583 C 0.08148 0.49084 0.52447 0.0
C1584 C 0.09805 0.46883 0.54297 0.0
H1585 H 0.58904 0.72612 0.18683 0.0
H1586 H 0.53487 0.81094 0.1656 0.0
H1587 H 0.57 0.81778 0.12198 0.0
H1588 H 0.64916 0.74046 0.17137 0.0
H1589 H 0.67117 0.70883 0.15623 0.0
H1590 H 0.64112 0.71042 0.18421 0.0
H1591 H 0.62555 0.69353 0.14752 0.0
H1592 H 0.65535 0.69235 0.11922 0.0
H1593 H 0.62227 0.71234 0.10978 0.0
H1594 H 0.61127 0.81455 0.07872 0.0
H1595 H 0.65676 0.80416 0.04583 0.0
H1596 H 0.68577 0.72306 0.09852 0.0
C1597 C 0.58455 0.7461 0.17288 0.0
C1598 C 0.55898 0.76796 0.17946 0.0
C1599 C 0.55419 0.79392 0.16103 0.0
C1600 C 0.57402 0.79791 0.13606 0.0
C1601 C 0.59895 0.77592 0.13004 0.0
C1602 C 0.60446 0.75066 0.1484 0.0
C1603 C 0.6335 0.73097 0.13845 0.0
C1604 C 0.64969 0.72217 0.16409 0.0
C1605 C 0.63419 0.70581 0.12813 0.0
C1606 C 0.64352 0.74903 0.11164 0.0
C1607 C 0.6231 0.77468 0.10668 0.0
C1608 C 0.62739 0.79458 0.08265 0.0
C1609 C 0.65329 0.78844 0.06385 0.0
C1610 C 0.67489 0.76282 0.06946 0.0
C1611 C 0.66968 0.74284 0.09357 0.0
H1612 H 0.64882 0.52786 0.08933 0.0
H1613 H 0.60934 0.51128 0.18266 0.0
H1614 H 0.57767 0.50123 0.16416 0.0
H1615 H 0.58809 0.55986 0.05547 0.0
H1616 H 0.60403 0.54384 0.02148 0.0
H1617 H 0.62353 0.55149 0.04082 0.0
H1618 H 0.65734 0.50123 0.04557 0.0
H1619 H 0.63876 0.4927 0.02583 0.0
H1620 H 0.64538 0.47415 0.06285 0.0
H1621 H 0.55594 0.48537 0.13736 0.0
H1622 H 0.53566 0.47633 0.1019 0.0
H1623 H 0.58505 0.50722 0.02504 0.0
C1624 C 0.63303 0.52284 0.10575 0.0
C1625 C 0.63144 0.5205 0.13743 0.0
C1626 C 0.61065 0.5137 0.15831 0.0
C1627 C 0.59278 0.50758 0.14806 0.0
C1628 C 0.59581 0.50863 0.11689 0.0
C1629 C 0.61474 0.51693 0.09586 0.0
C1630 C 0.61368 0.51584 0.06361 0.0
C1631 C 0.60688 0.54445 0.04422 0.0
C1632 C 0.64038 0.49472 0.0486 0.0
C1633 C 0.59091 0.50598 0.07001 0.0
C1634 C 0.58176 0.50098 0.10102 0.0
C1635 C 0.5625 0.48965 0.11302 0.0
C1636 C 0.55136 0.4843 0.09275 0.0
C1637 C 0.55885 0.49119 0.06099 0.0
C1638 C 0.57905 0.50191 0.04934 0.0
H1639 H 0.38895 0.41396 0.05492 0.0
H1640 H 0.38969 0.39299 0.15184 0.0
H1641 H 0.35077 0.38015 0.16004 0.0
H1642 H 0.31354 0.43783 0.06099 0.0
H1643 H 0.3187 0.42257 0.02799 0.0
H1644 H 0.34226 0.43608 0.03068 0.0
H1645 H 0.38174 0.38893 0.02256 0.0
H1646 H 0.35844 0.37528 0.01995 0.0
H1647 H 0.38018 0.35839 0.04766 0.0
H1648 H 0.31829 0.36165 0.1565 0.0
H1649 H 0.29552 0.33801 0.1416 0.0
H1650 H 0.31549 0.37104 0.04684 0.0
C1651 C 0.38056 0.40717 0.07795 0.0
C1652 C 0.39229 0.40442 0.10275 0.0
C1653 C 0.38076 0.39557 0.13257 0.0
C1654 C 0.35864 0.38828 0.13744 0.0
C1655 C 0.34814 0.39032 0.1123 0.0
C1656 C 0.3586 0.39977 0.08314 0.0
C1657 C 0.34613 0.39669 0.05957 0.0
C1658 C 0.32914 0.42498 0.04389 0.0
C1659 C 0.36792 0.37875 0.03609 0.0
C1660 C 0.32836 0.38231 0.07983 0.0
C1661 C 0.32923 0.37951 0.11023 0.0
C1662 C 0.31681 0.36435 0.13289 0.0
C1663 C 0.30384 0.35105 0.12419 0.0
C1664 C 0.30362 0.3528 0.09304 0.0
C1665 C 0.31528 0.3694 0.07081 0.0
H1666 H 0.10103 0.19446 0.28503 0.0
H1667 H 0.04505 0.16314 0.27422 0.0
H1668 H 0.08227 0.11682 0.27124 0.0
H1669 H 0.15889 0.15533 0.23457 0.0
H1670 H 0.18255 0.14979 0.25786 0.0
H1671 H 0.15155 0.18009 0.25892 0.0
H1672 H 0.13916 0.16765 0.31744 0.0
H1673 H 0.1702 0.13738 0.31662 0.0
H1674 H 0.13826 0.13428 0.33312 0.0
H1675 H 0.12767 0.07376 0.26665 0.0
H1676 H 0.17443 0.03829 0.26614 0.0
H1677 H 0.1991 0.09782 0.28351 0.0
C1678 C 0.09649 0.17785 0.28222 0.0
C1679 C 0.07004 0.1825 0.27981 0.0
C1680 C 0.06507 0.16011 0.27621 0.0
C1681 C 0.08616 0.13373 0.27438 0.0
C1682 C 0.11211 0.12994 0.27657 0.0
C1683 C 0.11714 0.15143 0.28083 0.0
C1684 C 0.14649 0.14218 0.28316 0.0
C1685 C 0.1607 0.15777 0.25708 0.0
C1686 C 0.14864 0.14557 0.31445 0.0
C1687 C 0.15736 0.11206 0.27963 0.0
C1688 C 0.13742 0.10536 0.27538 0.0
C1689 C 0.14324 0.07885 0.27034 0.0
C1690 C 0.1699 0.0588 0.26997 0.0
C1691 C 0.19038 0.06514 0.27509 0.0
C1692 C 0.18383 0.09218 0.27996 0.0
H1693 H 0.22215 0.32862 0.91568 0.0
H1694 H 0.24567 0.34769 0.98726 0.0
H1695 H 0.24634 0.39088 0.95522 0.0
H1696 H 0.26459 0.35289 0.85423 0.0
H1697 H 0.24114 0.3669 0.82838 0.0
H1698 H 0.24015 0.33848 0.85768 0.0
H1699 H 0.18955 0.36633 0.87787 0.0
H1700 H 0.19032 0.39485 0.84854 0.0
H1701 H 0.1793 0.3999 0.88801 0.0
H1702 H 0.24753 0.43043 0.91461 0.0
H1703 H 0.24899 0.46399 0.86822 0.0
H1704 H 0.22458 0.42065 0.82158 0.0
C1705 C 0.22686 0.34218 0.92486 0.0
C1706 C 0.23357 0.33475 0.95431 0.0
C1707 C 0.2403 0.35284 0.965 0.0
C1708 C 0.24073 0.3775 0.94692 0.0
C1709 C 0.23445 0.384 0.91794 0.0
C1710 C 0.22758 0.36695 0.9069 0.0
C1711 C 0.22313 0.37828 0.87423 0.0
C1712 C 0.24346 0.35793 0.85234 0.0
C1713 C 0.19383 0.38525 0.87204 0.0
C1714 C 0.2287 0.40424 0.86863 0.0
C1715 C 0.23515 0.40705 0.89427 0.0
C1716 C 0.24227 0.42856 0.89452 0.0
C1717 C 0.24308 0.44755 0.86792 0.0
C1718 C 0.23672 0.44526 0.84112 0.0
C1719 C 0.22911 0.42336 0.84174 0.0
H1720 H 0.31044 0.2822 0.91648 0.0
H1721 H 0.33873 0.19849 0.96311 0.0
H1722 H 0.38345 0.18837 0.92839 0.0
H1723 H 0.34407 0.26886 0.84143 0.0
H1724 H 0.3528 0.29848 0.83066 0.0
H1725 H 0.32337 0.29926 0.85938 0.0
H1726 H 0.34165 0.31155 0.89747 0.0
H1727 H 0.37102 0.31114 0.86877 0.0
H1728 H 0.37507 0.28989 0.90523 0.0
H1729 H 0.42388 0.18638 0.88408 0.0
H1730 H 0.45843 0.19446 0.84056 0.0
H1731 H 0.40593 0.28083 0.82636 0.0
C1732 C 0.32622 0.26184 0.91967 0.0
C1733 C 0.32102 0.2411 0.94264 0.0
C1734 C 0.34222 0.21476 0.94599 0.0
C1735 C 0.36766 0.2088 0.92615 0.0
C1736 C 0.37195 0.22957 0.90338 0.0
C1737 C 0.35198 0.25579 0.90062 0.0
C1738 C 0.36194 0.2747 0.87489 0.0
C1739 C 0.34451 0.28598 0.85013 0.0
C1740 C 0.36245 0.29821 0.88734 0.0
C1741 C 0.39048 0.25497 0.86311 0.0
C1742 C 0.39572 0.2289 0.87953 0.0
C1743 C 0.42006 0.20685 0.87155 0.0
C1744 C 0.43958 0.21158 0.84663 0.0
C1745 C 0.43516 0.23829 0.83018 0.0
C1746 C 0.41017 0.26024 0.83874 0.0
H1747 H 0.42382 0.54194 0.95296 0.0
H1748 H 0.41878 0.47284 0.02133 0.0
H1749 H 0.38304 0.47262 0.99963 0.0
H1750 H 0.35116 0.57613 0.94702 0.0
H1751 H 0.35917 0.58542 0.90635 0.0
H1752 H 0.38124 0.58291 0.93018 0.0
H1753 H 0.42171 0.54815 0.89808 0.0
H1754 H 0.39985 0.55041 0.87427 0.0
H1755 H 0.41939 0.51738 0.89331 0.0
H1756 H 0.35182 0.47647 0.96708 0.0
H1757 H 0.32922 0.48279 0.92494 0.0
H1758 H 0.35448 0.5495 0.87822 0.0
C1759 C 0.41468 0.52726 0.96393 0.0
C1760 C 0.42388 0.50763 0.98901 0.0
C1761 C 0.41191 0.48825 1.00219 0.0
C1762 C 0.3915 0.48802 0.99013 0.0
C1763 C 0.38325 0.50736 0.965 0.0
C1764 C 0.39445 0.52664 0.95209 0.0
C1765 C 0.38423 0.54321 0.92328 0.0
C1766 C 0.36798 0.57373 0.92694 0.0
C1767 C 0.40769 0.53955 0.89562 0.0
C1768 C 0.36611 0.52973 0.92152 0.0
C1769 C 0.36546 0.50938 0.94601 0.0
C1770 C 0.35173 0.4927 0.94808 0.0
C1771 C 0.33885 0.49652 0.92411 0.0
C1772 C 0.34003 0.5167 0.89838 0.0
C1773 C 0.35325 0.53392 0.89759 0.0
H1774 H 0.66239 0.66068 0.9618 0.0
H1775 H 0.60474 0.74425 0.97181 0.0
H1776 H 0.56704 0.72981 0.97823 0.0
H1777 H 0.62797 0.6457 0.91843 0.0
H1778 H 0.63618 0.61049 0.93639 0.0
H1779 H 0.65843 0.6272 0.93405 0.0
H1780 H 0.65485 0.61577 0.9927 0.0
H1781 H 0.63248 0.5991 0.99522 0.0
H1782 H 0.62197 0.62654 0.01713 0.0
H1783 H 0.53595 0.70679 0.9808 0.0
H1784 H 0.5135 0.67648 0.98031 0.0
H1785 H 0.59162 0.60803 0.96898 0.0
C1786 C 0.64181 0.67591 0.96534 0.0
C1787 C 0.63637 0.70357 0.96628 0.0
C1788 C 0.60924 0.7229 0.97128 0.0
C1789 C 0.58776 0.71491 0.97488 0.0
C1790 C 0.59382 0.68749 0.9737 0.0
C1791 C 0.62017 0.66824 0.96923 0.0
C1792 C 0.62123 0.6402 0.96836 0.0
C1793 C 0.63687 0.63033 0.93747 0.0
C1794 C 0.63335 0.61917 0.99494 0.0
C1795 C 0.59138 0.64682 0.97239 0.0
C1796 C 0.57589 0.67417 0.97556 0.0
C1797 C 0.54783 0.6853 0.97854 0.0
C1798 C 0.53529 0.66801 0.97808 0.0
C1799 C 0.55085 0.63997 0.9747 0.0
C1800 C 0.5792 0.62929 0.97209 0.0
H1801 H 0.92982 0.82632 0.70091 0.0
H1802 H 0.94661 0.83249 0.78489 0.0
H1803 H 0.90632 0.87627 0.78887 0.0
H1804 H 0.90286 0.90044 0.67174 0.0
H1805 H 0.87703 0.89865 0.65682 0.0
H1806 H 0.90852 0.86922 0.65902 0.0
H1807 H 0.88222 0.83929 0.6907 0.0
H1808 H 0.85068 0.8686 0.68864 0.0
H1809 H 0.85864 0.84998 0.7252 0.0
H1810 H 0.86237 0.91807 0.78546 0.0
H1811 H 0.8181 0.95354 0.77558 0.0
H1812 H 0.82883 0.92054 0.6943 0.0
C1813 C 0.92533 0.83718 0.7198 0.0
C1814 C 0.94166 0.82609 0.74243 0.0
C1815 C 0.93461 0.84065 0.76717 0.0
C1816 C 0.91172 0.86556 0.76961 0.0
C1817 C 0.89582 0.87573 0.74721 0.0
C1818 C 0.90229 0.86197 0.72278 0.0
C1819 C 0.88085 0.87644 0.7029 0.0
C1820 C 0.89305 0.8868 0.67071 0.0
C1821 C 0.8673 0.85744 0.70181 0.0
C1822 C 0.86119 0.90032 0.72007 0.0
C1823 C 0.87038 0.89966 0.7454 0.0
C1824 C 0.85532 0.91904 0.76534 0.0
C1825 C 0.8303 0.93947 0.75934 0.0
C1826 C 0.82035 0.94062 0.73364 0.0
C1827 C 0.8361 0.92061 0.71384 0.0
H1828 H 0.51179 0.10868 0.64668 0.0
H1829 H 0.46444 0.18039 0.59057 0.0
H1830 H 0.4575 0.1499 0.56405 0.0
H1831 H 0.54512 0.06427 0.59003 0.0
H1832 H 0.54356 0.0341 0.61604 0.0
H1833 H 0.54493 0.06161 0.62986 0.0
H1834 H 0.50087 0.06569 0.66928 0.0
H1835 H 0.4994 0.03806 0.65581 0.0
H1836 H 0.471 0.07082 0.65649 0.0
H1837 H 0.45637 0.11044 0.54396 0.0
H1838 H 0.46056 0.06629 0.53274 0.0
H1839 H 0.50813 0.0219 0.60344 0.0
C1840 C 0.5003 0.11799 0.62847 0.0
C1841 C 0.48904 0.14674 0.62016 0.0
C1842 C 0.47339 0.15829 0.59696 0.0
C1843 C 0.46938 0.14116 0.58189 0.0
C1844 C 0.48086 0.11274 0.59072 0.0
C1845 C 0.49587 0.10137 0.61362 0.0
C1846 C 0.50558 0.07046 0.61965 0.0
C1847 C 0.53666 0.05681 0.61352 0.0
C1848 C 0.49348 0.0607 0.65224 0.0
C1849 C 0.49406 0.06595 0.59628 0.0
C1850 C 0.4798 0.09049 0.57977 0.0
C1851 C 0.46748 0.09116 0.55679 0.0
C1852 C 0.46996 0.06605 0.55054 0.0
C1853 C 0.48467 0.04083 0.56724 0.0
C1854 C 0.49669 0.04092 0.59039 0.0
H1855 H 0.48441 0.3819 0.89635 0.0
H1856 H 0.56619 0.32089 0.89733 0.0
H1857 H 0.57219 0.3459 0.93144 0.0
H1858 H 0.49825 0.438 0.88807 0.0
H1859 H 0.46758 0.45758 0.91201 0.0
H1860 H 0.46791 0.43193 0.89352 0.0
H1861 H 0.45112 0.40774 0.94589 0.0
H1862 H 0.45074 0.43355 0.96444 0.0
H1863 H 0.46973 0.39764 0.97623 0.0
H1864 H 0.57087 0.38106 0.96007 0.0
H1865 H 0.56317 0.42404 0.97772 0.0
H1866 H 0.48347 0.46232 0.95441 0.0
C1867 C 0.50346 0.37357 0.90411 0.0
C1868 C 0.52493 0.34964 0.89411 0.0
C1869 C 0.54946 0.33915 0.90494 0.0
C1870 C 0.55298 0.35317 0.92435 0.0
C1871 C 0.53162 0.37732 0.93296 0.0
C1872 C 0.50724 0.38727 0.92332 0.0
C1873 C 0.48848 0.41511 0.93272 0.0
C1874 C 0.4801 0.43692 0.90493 0.0
C1875 C 0.46355 0.41338 0.95622 0.0
C1876 C 0.50681 0.42022 0.9472 0.0
C1877 C 0.53123 0.39786 0.94828 0.0
C1878 C 0.55172 0.39854 0.95963 0.0
C1879 C 0.54727 0.42292 0.9695 0.0
C1880 C 0.52293 0.44625 0.96691 0.0
C1881 C 0.50235 0.44466 0.95629 0.0
H1882 H 0.46372 0.88561 0.39574 0.0
H1883 H 0.51795 0.8081 0.43725 0.0
H1884 H 0.52632 0.83312 0.46909 0.0
H1885 H 0.50176 0.92022 0.3856 0.0
H1886 H 0.47557 0.95306 0.39393 0.0
H1887 H 0.46779 0.92952 0.38054 0.0
H1888 H 0.42998 0.9303 0.42808 0.0
H1889 H 0.43711 0.9547 0.44101 0.0
H1890 H 0.43762 0.9233 0.46561 0.0
H1891 H 0.53531 0.86697 0.48886 0.0
H1892 H 0.5425 0.90684 0.49613 0.0
H1893 H 0.4828 0.96132 0.44067 0.0
C1894 C 0.47622 0.87372 0.41267 0.0
C1895 C 0.49005 0.84491 0.41417 0.0
C1896 C 0.50718 0.83022 0.43574 0.0
C1897 C 0.51191 0.84424 0.45403 0.0
C1898 C 0.49908 0.87286 0.45072 0.0
C1899 C 0.48113 0.8874 0.43096 0.0
C1900 C 0.47285 0.91809 0.42832 0.0
C1901 C 0.47994 0.93093 0.39514 0.0
C1902 C 0.4426 0.93241 0.44156 0.0
C1903 C 0.49025 0.91844 0.44811 0.0
C1904 C 0.50474 0.89231 0.46151 0.0
C1905 C 0.52365 0.88758 0.47898 0.0
C1906 C 0.52778 0.9102 0.4828 0.0
C1907 C 0.51338 0.93692 0.46873 0.0
C1908 C 0.49422 0.94102 0.45154 0.0
H1909 H 0.5039 0.53232 0.09152 0.0
H1910 H 0.43412 0.5757 0.04797 0.0
H1911 H 0.43112 0.62019 0.05741 0.0
H1912 H 0.48535 0.5702 0.14923 0.0
H1913 H 0.51848 0.56952 0.14639 0.0
H1914 H 0.51524 0.54224 0.13447 0.0
H1915 H 0.54229 0.55163 0.07968 0.0
H1916 H 0.54685 0.57723 0.09368 0.0
H1917 H 0.53261 0.58619 0.05988 0.0
H1918 H 0.43386 0.6592 0.07758 0.0
H1919 H 0.44343 0.6883 0.10332 0.0
H1920 H 0.51379 0.61773 0.12856 0.0
C1921 C 0.48803 0.55115 0.08387 0.0
C1922 C 0.46896 0.55075 0.06958 0.0
C1923 C 0.44874 0.57579 0.05931 0.0
C1924 C 0.44701 0.60103 0.06443 0.0
C1925 C 0.46622 0.60064 0.07889 0.0
C1926 C 0.48663 0.57626 0.08784 0.0
C1927 C 0.50502 0.58086 0.10266 0.0
C1928 C 0.50604 0.56477 0.13511 0.0
C1929 C 0.5334 0.57357 0.08279 0.0
C1930 C 0.4908 0.61143 0.10277 0.0
C1931 C 0.46865 0.62278 0.08863 0.0
C1932 C 0.4515 0.65058 0.08808 0.0
C1933 C 0.45704 0.66691 0.10273 0.0
C1934 C 0.47964 0.65533 0.11737 0.0
C1935 C 0.49687 0.6274 0.11675 0.0
loop_
_geom_bond_atom_site_label_1
_geom_bond_atom_site_label_2
_geom_bond_distance
_geom_bond_site_symmetry_2
_ccdc_geom_bond_type
Pr0 C2 2.880 . S
Pr0 O20 2.562 . S
Pr0 O21 2.490 . S
Pr0 O22 2.695 1_545 S
Pr0 O23 2.512 1_545 S
Pr0 O25 2.437 1_546 S
Pr0 O28 2.436 1_456 S
Pr0 O30 2.438 1_455 S
Pr1 C11 2.880 . S
Pr1 O22 2.436 1_654 S
Pr1 O24 2.438 1_655 S
Pr1 O26 2.562 . S
Pr1 O27 2.490 . S
Pr1 O28 2.695 1_565 S
Pr1 O29 2.512 1_565 S
Pr1 O31 2.420 1_564 S
C2 Pr0 2.880 . S
C2 C3 1.491 . S
C2 O20 1.254 . S
C2 O21 1.225 . S
C3 C2 1.491 . S
C3 C4 1.392 . S
C3 C8 1.356 . S
C4 C3 1.392 . S
C4 C5 1.368 . S
C4 H32 0.929 . S
C5 C4 1.368 . S
C5 C6 1.386 . S
C5 H33 0.929 . S
C6 C5 1.386 . S
C6 C7 1.373 . S
C7 C6 1.373 . S
C7 C8 1.409 . S
C7 H34 0.931 . S
C8 C3 1.356 . S
C8 C7 1.409 . S
C8 H35 0.932 1_556 S
C9 O22 1.270 . S
C9 O23 1.248 . S
C10 O24 1.267 . S
C10 O25 1.278 . S
C11 Pr1 2.880 . S
C11 C12 1.491 . S
C11 O26 1.254 . S
C11 O27 1.225 . S
C12 C11 1.491 . S
C12 C13 1.392 . S
C12 C17 1.356 . S
C13 C12 1.392 . S
C13 C14 1.368 . S
C13 H36 0.929 . S
C14 C13 1.368 . S
C14 C15 1.386 . S
C14 H37 0.929 . S
C15 C14 1.386 . S
C15 C16 1.373 . S
C16 C15 1.373 . S
C16 C17 1.409 . S
C16 H38 0.931 . S
C17 C12 1.356 . S
C17 C16 1.409 . S
C17 H39 0.943 . S
C18 O28 1.270 . S
C18 O29 1.248 . S
C19 O30 1.267 . S
C19 O31 1.302 . S
O20 Pr0 2.562 . S
O20 C2 1.254 . S
O21 Pr0 2.490 . S
O21 C2 1.225 . S
O22 Pr0 2.695 1_565 S
O22 Pr1 2.436 1_456 S
O22 C9 1.270 . S
O23 Pr0 2.512 1_565 S
O23 C9 1.248 . S
O24 Pr1 2.438 1_455 S
O24 C10 1.267 . S
O25 Pr0 2.437 1_564 S
O25 C10 1.278 . S
O26 Pr1 2.562 . S
O26 C11 1.254 . S
O27 Pr1 2.490 . S
O27 C11 1.225 . S
O28 Pr0 2.436 1_654 S
O28 Pr1 2.695 1_545 S
O28 C18 1.270 . S
O29 Pr1 2.512 1_545 S
O29 C18 1.248 . S
O30 Pr0 2.438 1_655 S
O30 C19 1.267 . S
O31 Pr1 2.420 1_546 S
O31 C19 1.302 . S
H32 C4 0.929 . S
H33 C5 0.929 . S
H34 C7 0.931 . S
H35 C8 0.932 1_554 S
H36 C13 0.929 . S
H37 C14 0.929 . S
H38 C16 0.931 . S
H39 C17 0.943 . S
Pr40 C42 2.880 . S
Pr40 O60 2.562 1_455 S
Pr40 O61 2.490 . S
Pr40 O62 2.695 . S
Pr40 O63 2.512 . S
Pr40 O65 2.437 1_455 S
Pr40 O68 2.436 1_455 S
Pr40 O70 2.438 . S
Pr41 C51 2.880 . S
Pr41 O62 2.436 1_655 S
Pr41 O64 2.438 . S
Pr41 O66 2.562 1_655 S
Pr41 O67 2.490 . S
Pr41 O68 2.695 . S
Pr41 O69 2.512 . S
Pr41 O71 2.437 1_655 S
C42 Pr40 2.880 . S
C42 C43 1.491 1_455 S
C42 O60 1.254 1_455 S
C42 O61 1.225 . S
C43 C42 1.491 1_655 S
C43 C44 1.392 1_655 S
C43 C48 1.356 . S
C44 C43 1.392 1_455 S
C44 C45 1.368 . S
C44 H72 0.929 . S
C45 C44 1.368 . S
C45 C46 1.386 1_455 S
C45 H73 0.929 . S
C46 C45 1.386 1_655 S
C46 C47 1.373 . S
C47 C46 1.373 . S
C47 C48 1.409 . S
C47 H74 0.931 . S
C48 C43 1.356 . S
C48 C47 1.409 . S
C48 H75 0.930 . S
C49 O62 1.270 . S
C49 O63 1.248 . S
C50 O64 1.267 . S
C50 O65 1.278 . S
C51 Pr41 2.880 . S
C51 C52 1.491 1_655 S
C51 O66 1.254 1_655 S
C51 O67 1.225 . S
C52 C51 1.491 1_455 S
C52 C53 1.392 1_455 S
C52 C57 1.356 . S
C53 C52 1.392 1_655 S
C53 C54 1.368 . S
C53 H76 0.929 . S
C54 C53 1.368 . S
C54 C55 1.386 1_655 S
C54 H77 0.929 . S
C55 C54 1.386 1_455 S
C55 C56 1.373 . S
C56 C55 1.373 . S
C56 C57 1.409 . S
C56 H78 0.931 . S
C57 C52 1.356 . S
C57 C56 1.409 . S
C57 H79 0.930 . S
C58 O68 1.270 . S
C58 O69 1.248 . S
C59 O70 1.267 . S
C59 O71 1.278 . S
O60 Pr40 2.562 1_655 S
O60 C42 1.254 1_655 S
O61 Pr40 2.490 . S
O61 C42 1.225 . S
O62 Pr40 2.695 . S
O62 Pr41 2.436 1_455 S
O62 C49 1.270 . S
O63 Pr40 2.512 . S
O63 C49 1.248 . S
O64 Pr41 2.438 . S
O64 C50 1.267 . S
O65 Pr40 2.437 1_655 S
O65 C50 1.278 . S
O66 Pr41 2.562 1_455 S
O66 C51 1.254 1_455 S
O67 Pr41 2.490 . S
O67 C51 1.225 . S
O68 Pr40 2.436 1_655 S
O68 Pr41 2.695 . S
O68 C58 1.270 . S
O69 Pr41 2.512 . S
O69 C58 1.248 . S
O70 Pr40 2.438 . S
O70 C59 1.267 . S
O71 Pr41 2.437 1_455 S
O71 C59 1.278 . S
H72 C44 0.929 . S
H73 C45 0.929 . S
H74 C47 0.931 . S
H75 C48 0.930 . S
H76 C53 0.929 . S
H77 C54 0.929 . S
H78 C56 0.931 . S
H79 C57 0.930 . S
Pr80 C82 2.880 . S
Pr80 O100 2.562 . S
Pr80 O101 2.490 . S
Pr80 O102 2.695 . S
Pr80 O103 2.512 . S
Pr80 O105 2.437 . S
Pr80 O108 2.436 . S
Pr80 O110 2.438 . S
Pr81 C91 2.880 . S
Pr81 O102 2.436 . S
Pr81 O104 2.438 . S
Pr81 O106 2.562 . S
Pr81 O107 2.490 . S
Pr81 O108 2.695 . S
Pr81 O109 2.512 . S
Pr81 O111 2.437 . S
C82 Pr80 2.880 . S
C82 C83 1.491 . S
C82 O100 1.254 . S
C82 O101 1.225 . S
C83 C82 1.491 . S
C83 C84 1.392 . S
C83 C88 1.356 . S
C84 C83 1.392 . S
C84 C85 1.368 . S
C84 H112 0.929 . S
C85 C84 1.368 . S
C85 C86 1.386 . S
C85 H113 0.929 . S
C86 C85 1.386 . S
C86 C87 1.373 . S
C87 C86 1.373 . S
C87 C88 1.409 . S
C87 H114 0.931 . S
C88 C83 1.356 . S
C88 C87 1.409 . S
C88 H115 0.930 . S
C89 O102 1.270 . S
C89 O103 1.248 . S
C90 O104 1.267 . S
C90 O105 1.278 . S
C91 Pr81 2.880 . S
C91 C92 1.491 . S
C91 O106 1.254 . S
C91 O107 1.225 . S
C92 C91 1.491 . S
C92 C93 1.392 . S
C92 C97 1.356 . S
C93 C92 1.392 . S
C93 C94 1.368 . S
C93 H116 0.929 . S
C94 C93 1.368 . S
C94 C95 1.386 . S
C94 H117 0.929 . S
C95 C94 1.386 . S
C95 C96 1.373 . S
C96 C95 1.373 . S
C96 C97 1.409 . S
C96 H118 0.931 . S
C97 C92 1.356 . S
C97 C96 1.409 . S
C97 H119 0.930 . S
C98 O108 1.270 . S
C98 O109 1.248 . S
C99 O110 1.267 . S
C99 O111 1.278 . S
O100 Pr80 2.562 . S
O100 C82 1.254 . S
O101 Pr80 2.490 . S
O101 C82 1.225 . S
O102 Pr80 2.695 . S
O102 Pr81 2.436 . S
O102 C89 1.270 . S
O103 Pr80 2.512 . S
O103 C89 1.248 . S
O104 Pr81 2.438 . S
O104 C90 1.267 . S
O105 Pr80 2.437 . S
O105 C90 1.278 . S
O106 Pr81 2.562 . S
O106 C91 1.254 . S
O107 Pr81 2.490 . S
O107 C91 1.225 . S
O108 Pr80 2.436 . S
O108 Pr81 2.695 . S
O108 C98 1.270 . S
O109 Pr81 2.512 . S
O109 C98 1.248 . S
O110 Pr80 2.438 . S
O110 C99 1.267 . S
O111 Pr81 2.437 . S
O111 C99 1.278 . S
H112 C84 0.929 . S
H113 C85 0.929 . S
H114 C87 0.931 . S
H115 C88 0.930 . S
H116 C93 0.929 . S
H117 C94 0.929 . S
H118 C96 0.931 . S
H119 C97 0.930 . S
Pr120 C122 2.880 . S
Pr120 O140 2.562 1_565 S
Pr120 O141 2.490 . S
Pr120 O142 2.695 . S
Pr120 O143 2.512 . S
Pr120 O145 2.437 1_565 S
Pr120 O148 2.436 1_565 S
Pr120 O150 2.438 . S
Pr121 C131 2.880 . S
Pr121 O142 2.436 1_545 S
Pr121 O144 2.438 . S
Pr121 O146 2.562 1_545 S
Pr121 O147 2.490 . S
Pr121 O148 2.695 . S
Pr121 O149 2.512 . S
Pr121 O151 2.437 1_545 S
C122 Pr120 2.880 . S
C122 C123 1.490 1_565 S
C122 O140 1.254 1_565 S
C122 O141 1.225 . S
C123 C122 1.490 1_545 S
C123 C124 1.396 1_545 S
C123 C128 1.352 . S
C124 C123 1.396 1_565 S
C124 C125 1.368 . S
C124 H152 0.929 . S
C125 C124 1.368 . S
C125 C126 1.386 1_565 S
C125 H153 0.929 . S
C126 C125 1.386 1_545 S
C126 C127 1.373 . S
C127 C126 1.373 . S
C127 C128 1.409 . S
C127 H154 0.931 . S
C128 C123 1.352 . S
C128 C127 1.409 . S
C128 H155 0.930 . S
C129 O142 1.270 . S
C129 O143 1.248 . S
C130 O144 1.267 . S
C130 O145 1.278 . S
C131 Pr121 2.880 . S
C131 C132 1.489 . S
C131 O146 1.254 1_545 S
C131 O147 1.225 . S
C132 C131 1.489 . S
C132 C133 1.406 . S
C132 C137 1.345 1_545 S
C133 C132 1.406 . S
C133 C134 1.368 . S
C133 H156 0.929 . S
C134 C133 1.368 . S
C134 C135 1.386 1_545 S
C134 H157 0.929 . S
C135 C134 1.386 1_565 S
C135 C136 1.373 . S
C136 C135 1.373 . S
C136 C137 1.409 . S
C136 H158 0.931 . S
C137 C132 1.345 1_565 S
C137 C136 1.409 . S
C137 H159 0.930 . S
C138 O148 1.270 . S
C138 O149 1.248 . S
C139 O150 1.267 . S
C139 O151 1.278 . S
O140 Pr120 2.562 1_545 S
O140 C122 1.254 1_545 S
O141 Pr120 2.490 . S
O141 C122 1.225 . S
O142 Pr120 2.695 . S
O142 Pr121 2.436 1_565 S
O142 C129 1.270 . S
O143 Pr120 2.512 . S
O143 C129 1.248 . S
O144 Pr121 2.438 . S
O144 C130 1.267 . S
O145 Pr120 2.437 1_545 S
O145 C130 1.278 . S
O146 Pr121 2.562 1_565 S
O146 C131 1.254 1_565 S
O147 Pr121 2.490 . S
O147 C131 1.225 . S
O148 Pr120 2.436 1_545 S
O148 Pr121 2.695 . S
O148 C138 1.270 . S
O149 Pr121 2.512 . S
O149 C138 1.248 . S
O150 Pr120 2.438 . S
O150 C139 1.267 . S
O151 Pr121 2.437 1_565 S
O151 C139 1.278 . S
H152 C124 0.929 . S
H153 C125 0.929 . S
H154 C127 0.931 . S
H155 C128 0.930 . S
H156 C133 0.929 . S
H157 C134 0.929 . S
H158 C136 0.931 . S
H159 C137 0.930 . S
Pr160 C162 2.880 . S
Pr160 O180 2.562 . S
Pr160 O181 2.490 . S
Pr160 O182 2.695 . S
Pr160 O183 2.512 . S
Pr160 O185 2.437 . S
Pr160 O188 2.436 . S
Pr160 O190 2.438 . S
Pr161 C171 2.880 . S
Pr161 O182 2.436 . S
Pr161 O184 2.438 . S
Pr161 O186 2.562 . S
Pr161 O187 2.490 . S
Pr161 O188 2.695 . S
Pr161 O189 2.512 . S
Pr161 O191 2.437 . S
C162 Pr160 2.880 . S
C162 C163 1.491 . S
C162 O180 1.254 . S
C162 O181 1.225 . S
C163 C162 1.491 . S
C163 C164 1.392 . S
C163 C168 1.356 . S
C164 C163 1.392 . S
C164 C165 1.368 . S
C164 H192 0.929 . S
C165 C164 1.368 . S
C165 C166 1.386 . S
C165 H193 0.929 . S
C166 C165 1.386 . S
C166 C167 1.373 . S
C167 C166 1.373 . S
C167 C168 1.409 . S
C167 H194 0.931 . S
C168 C163 1.356 . S
C168 C167 1.409 . S
C168 H195 0.930 . S
C169 O182 1.270 . S
C169 O183 1.248 . S
C170 O184 1.267 . S
C170 O185 1.278 . S
C171 Pr161 2.880 . S
C171 C172 1.491 . S
C171 O186 1.254 . S
C171 O187 1.225 . S
C172 C171 1.491 . S
C172 C173 1.392 . S
C172 C177 1.356 . S
C173 C172 1.392 . S
C173 C174 1.368 . S
C173 H196 0.929 . S
C174 C173 1.368 . S
C174 C175 1.386 . S
C174 H197 0.929 . S
C175 C174 1.386 . S
C175 C176 1.373 . S
C176 C175 1.373 . S
C176 C177 1.409 . S
C176 H198 0.931 . S
C177 C172 1.356 . S
C177 C176 1.409 . S
C177 H199 0.930 . S
C178 O188 1.270 . S
C178 O189 1.248 . S
C179 O190 1.267 . S
C179 O191 1.278 . S
O180 Pr160 2.562 . S
O180 C162 1.254 . S
O181 Pr160 2.490 . S
O181 C162 1.225 . S
O182 Pr160 2.695 . S
O182 Pr161 2.436 . S
O182 C169 1.270 . S
O183 Pr160 2.512 . S
O183 C169 1.248 . S
O184 Pr161 2.438 . S
O184 C170 1.267 . S
O185 Pr160 2.437 . S
O185 C170 1.278 . S
O186 Pr161 2.562 . S
O186 C171 1.254 . S
O187 Pr161 2.490 . S
O187 C171 1.225 . S
O188 Pr160 2.436 . S
O188 Pr161 2.695 . S
O188 C178 1.270 . S
O189 Pr161 2.512 . S
O189 C178 1.248 . S
O190 Pr160 2.438 . S
O190 C179 1.267 . S
O191 Pr161 2.437 . S
O191 C179 1.278 . S
H192 C164 0.929 . S
H193 C165 0.929 . S
H194 C167 0.931 . S
H195 C168 0.930 . S
H196 C173 0.929 . S
H197 C174 0.929 . S
H198 C176 0.931 . S
H199 C177 0.930 . S
Pr200 C202 2.880 . S
Pr200 O220 2.562 . S
Pr200 O221 2.490 . S
Pr200 O222 2.695 . S
Pr200 O223 2.512 . S
Pr200 O225 2.437 . S
Pr200 O228 2.436 . S
Pr200 O230 2.438 . S
Pr201 C211 2.880 . S
Pr201 O222 2.436 . S
Pr201 O224 2.438 . S
Pr201 O226 2.562 . S
Pr201 O227 2.490 . S
Pr201 O228 2.695 . S
Pr201 O229 2.512 . S
Pr201 O231 2.437 . S
C202 Pr200 2.880 . S
C202 C203 1.491 . S
C202 O220 1.254 . S
C202 O221 1.225 . S
C203 C202 1.491 . S
C203 C204 1.392 . S
C203 C208 1.356 . S
C204 C203 1.392 . S
C204 C205 1.368 . S
C204 H232 0.929 . S
C205 C204 1.368 . S
C205 C206 1.386 . S
C205 H233 0.929 . S
C206 C205 1.386 . S
C206 C207 1.373 . S
C207 C206 1.373 . S
C207 C208 1.409 . S
C207 H234 0.931 . S
C208 C203 1.356 . S
C208 C207 1.409 . S
C208 H235 0.930 . S
C209 O222 1.270 . S
C209 O223 1.248 . S
C210 O224 1.267 . S
C210 O225 1.278 . S
C211 Pr201 2.880 . S
C211 C212 1.491 . S
C211 O226 1.254 . S
C211 O227 1.225 . S
C212 C211 1.491 . S
C212 C213 1.392 . S
C212 C217 1.356 . S
C213 C212 1.392 . S
C213 C214 1.368 . S
C213 H236 0.929 . S
C214 C213 1.368 . S
C214 C215 1.386 . S
C214 H237 0.929 . S
C215 C214 1.386 . S
C215 C216 1.373 . S
C216 C215 1.373 . S
C216 C217 1.409 . S
C216 H238 0.931 . S
C217 C212 1.356 . S
C217 C216 1.409 . S
C217 H239 0.930 . S
C218 O228 1.270 . S
C218 O229 1.248 . S
C219 O230 1.267 . S
C219 O231 1.278 . S
O220 Pr200 2.562 . S
O220 C202 1.254 . S
O221 Pr200 2.490 . S
O221 C202 1.225 . S
O222 Pr200 2.695 . S
O222 Pr201 2.436 . S
O222 C209 1.270 . S
O223 Pr200 2.512 . S
O223 C209 1.248 . S
O224 Pr201 2.438 . S
O224 C210 1.267 . S
O225 Pr200 2.437 . S
O225 C210 1.278 . S
O226 Pr201 2.562 . S
O226 C211 1.254 . S
O227 Pr201 2.490 . S
O227 C211 1.225 . S
O228 Pr200 2.436 . S
O228 Pr201 2.695 . S
O228 C218 1.270 . S
O229 Pr201 2.512 . S
O229 C218 1.248 . S
O230 Pr200 2.438 . S
O230 C219 1.267 . S
O231 Pr201 2.437 . S
O231 C219 1.278 . S
H232 C204 0.929 . S
H233 C205 0.929 . S
H234 C207 0.931 . S
H235 C208 0.930 . S
H236 C213 0.929 . S
H237 C214 0.929 . S
H238 C216 0.931 . S
H239 C217 0.930 . S
Pr240 C242 2.880 . S
Pr240 O260 2.562 . S
Pr240 O261 2.490 . S
Pr240 O262 2.695 . S
Pr240 O263 2.512 . S
Pr240 O265 2.437 . S
Pr240 O268 2.436 . S
Pr240 O270 2.438 . S
Pr241 C251 2.880 . S
Pr241 O262 2.436 . S
Pr241 O264 2.438 . S
Pr241 O266 2.562 . S
Pr241 O267 2.490 . S
Pr241 O268 2.695 . S
Pr241 O269 2.512 . S
Pr241 O271 2.437 . S
C242 Pr240 2.880 . S
C242 C243 1.491 . S
C242 O260 1.254 . S
C242 O261 1.225 . S
C243 C242 1.491 . S
C243 C244 1.392 . S
C243 C248 1.356 . S
C244 C243 1.392 . S
C244 C245 1.368 . S
C244 H272 0.929 . S
C245 C244 1.368 . S
C245 C246 1.386 . S
C245 H273 0.929 . S
C246 C245 1.386 . S
C246 C247 1.373 . S
C247 C246 1.373 . S
C247 C248 1.409 . S
C247 H274 0.931 . S
C248 C243 1.356 . S
C248 C247 1.409 . S
C248 H275 0.930 . S
C249 O262 1.270 . S
C249 O263 1.248 . S
C250 O264 1.267 . S
C250 O265 1.278 . S
C251 Pr241 2.880 . S
C251 C252 1.491 . S
C251 O266 1.254 . S
C251 O267 1.225 . S
C252 C251 1.491 . S
C252 C253 1.392 . S
C252 C257 1.356 . S
C253 C252 1.392 . S
C253 C254 1.368 . S
C253 H276 0.929 . S
C254 C253 1.368 . S
C254 C255 1.386 . S
C254 H277 0.929 . S
C255 C254 1.386 . S
C255 C256 1.373 . S
C256 C255 1.373 . S
C256 C257 1.409 . S
C256 H278 0.931 . S
C257 C252 1.356 . S
C257 C256 1.409 . S
C257 H279 0.930 . S
C258 O268 1.270 . S
C258 O269 1.248 . S
C259 O270 1.267 . S
C259 O271 1.278 . S
O260 Pr240 2.562 . S
O260 C242 1.254 . S
O261 Pr240 2.490 . S
O261 C242 1.225 . S
O262 Pr240 2.695 . S
O262 Pr241 2.436 . S
O262 C249 1.270 . S
O263 Pr240 2.512 . S
O263 C249 1.248 . S
O264 Pr241 2.438 . S
O264 C250 1.267 . S
O265 Pr240 2.437 . S
O265 C250 1.278 . S
O266 Pr241 2.562 . S
O266 C251 1.254 . S
O267 Pr241 2.490 . S
O267 C251 1.225 . S
O268 Pr240 2.436 . S
O268 Pr241 2.695 . S
O268 C258 1.270 . S
O269 Pr241 2.512 . S
O269 C258 1.248 . S
O270 Pr240 2.438 . S
O270 C259 1.267 . S
O271 Pr241 2.437 . S
O271 C259 1.278 . S
H272 C244 0.929 . S
H273 C245 0.929 . S
H274 C247 0.931 . S
H275 C248 0.930 . S
H276 C253 0.929 . S
H277 C254 0.929 . S
H278 C256 0.931 . S
H279 C257 0.930 . S
Pr280 C282 2.880 . S
Pr280 O300 2.562 . S
Pr280 O301 2.490 . S
Pr280 O302 2.695 . S
Pr280 O303 2.512 . S
Pr280 O305 2.437 . S
Pr280 O308 2.436 1_455 S
Pr280 O310 2.438 1_455 S
Pr281 C291 2.880 . S
Pr281 O302 2.436 1_655 S
Pr281 O304 2.438 1_655 S
Pr281 O306 2.562 . S
Pr281 O307 2.490 . S
Pr281 O308 2.695 . S
Pr281 O309 2.512 . S
Pr281 O311 2.437 . S
C282 Pr280 2.880 . S
C282 C283 1.491 . S
C282 O300 1.254 . S
C282 O301 1.225 . S
C283 C282 1.491 . S
C283 C284 1.392 . S
C283 C288 1.356 . S
C284 C283 1.392 . S
C284 C285 1.368 . S
C284 H312 0.929 . S
C285 C284 1.368 . S
C285 C286 1.386 . S
C285 H313 0.929 . S
C286 C285 1.386 . S
C286 C287 1.373 . S
C287 C286 1.373 . S
C287 C288 1.409 . S
C287 H314 0.931 . S
C288 C283 1.356 . S
C288 C287 1.409 . S
C288 H315 0.930 . S
C289 O302 1.270 . S
C289 O303 1.248 . S
C290 O304 1.267 . S
C290 O305 1.278 . S
C291 Pr281 2.880 . S
C291 C292 1.491 . S
C291 O306 1.254 . S
C291 O307 1.225 . S
C292 C291 1.491 . S
C292 C293 1.392 . S
C292 C297 1.356 . S
C293 C292 1.392 . S
C293 C294 1.368 . S
C293 H316 0.929 . S
C294 C293 1.368 . S
C294 C295 1.386 . S
C294 H317 0.929 . S
C295 C294 1.386 . S
C295 C296 1.373 . S
C296 C295 1.373 . S
C296 C297 1.409 . S
C296 H318 0.931 . S
C297 C292 1.356 . S
C297 C296 1.409 . S
C297 H319 0.930 . S
C298 O308 1.270 . S
C298 O309 1.248 . S
C299 O310 1.267 . S
C299 O311 1.278 . S
O300 Pr280 2.562 . S
O300 C282 1.254 . S
O301 Pr280 2.490 . S
O301 C282 1.225 . S
O302 Pr280 2.695 . S
O302 Pr281 2.436 1_455 S
O302 C289 1.270 . S
O303 Pr280 2.512 . S
O303 C289 1.248 . S
O304 Pr281 2.438 1_455 S
O304 C290 1.267 . S
O305 Pr280 2.437 . S
O305 C290 1.278 . S
O306 Pr281 2.562 . S
O306 C291 1.254 . S
O307 Pr281 2.490 . S
O307 C291 1.225 . S
O308 Pr280 2.436 1_655 S
O308 Pr281 2.695 . S
O308 C298 1.270 . S
O309 Pr281 2.512 . S
O309 C298 1.248 . S
O310 Pr280 2.438 1_655 S
O310 C299 1.267 . S
O311 Pr281 2.437 . S
O311 C299 1.278 . S
H312 C284 0.929 . S
H313 C285 0.929 . S
H314 C287 0.931 . S
H315 C288 0.930 . S
H316 C293 0.929 . S
H317 C294 0.929 . S
H318 C296 0.931 . S
H319 C297 0.930 . S
Pr320 C322 2.880 . S
Pr320 O340 2.562 . S
Pr320 O341 2.490 . S
Pr320 O342 2.695 . S
Pr320 O343 2.512 . S
Pr320 O345 2.437 1_554 S
Pr320 O348 2.436 1_554 S
Pr320 O350 2.438 . S
Pr321 C331 2.880 . S
Pr321 O342 2.436 1_556 S
Pr321 O344 2.438 . S
Pr321 O346 2.562 . S
Pr321 O347 2.490 . S
Pr321 O348 2.695 . S
Pr321 O349 2.512 . S
Pr321 O351 2.437 1_556 S
C322 Pr320 2.880 . S
C322 C323 1.491 . S
C322 O340 1.254 . S
C322 O341 1.225 . S
C323 C322 1.491 . S
C323 C324 1.392 . S
C323 C328 1.356 1_554 S
C324 C323 1.392 . S
C324 C325 1.368 . S
C324 H352 0.929 . S
C325 C324 1.368 . S
C325 C326 1.386 . S
C325 H353 0.929 . S
C326 C325 1.386 . S
C326 C327 1.373 1_554 S
C327 C326 1.373 1_556 S
C327 C328 1.409 . S
C327 H354 0.931 . S
C328 C323 1.356 1_556 S
C328 C327 1.409 . S
C328 H355 0.930 . S
C329 O342 1.270 . S
C329 O343 1.248 . S
C330 O344 1.267 . S
C330 O345 1.278 . S
C331 Pr321 2.880 . S
C331 C332 1.491 . S
C331 O346 1.254 . S
C331 O347 1.225 . S
C332 C331 1.491 . S
C332 C333 1.392 . S
C332 C337 1.356 1_556 S
C333 C332 1.392 . S
C333 C334 1.368 . S
C333 H356 0.929 . S
C334 C333 1.368 . S
C334 C335 1.386 . S
C334 H357 0.929 . S
C335 C334 1.386 . S
C335 C336 1.373 1_556 S
C336 C335 1.373 1_554 S
C336 C337 1.409 . S
C336 H358 0.931 . S
C337 C332 1.356 1_554 S
C337 C336 1.409 . S
C337 H359 0.930 . S
C338 O348 1.270 . S
C338 O349 1.248 . S
C339 O350 1.267 . S
C339 O351 1.278 . S
O340 Pr320 2.562 . S
O340 C322 1.254 . S
O341 Pr320 2.490 . S
O341 C322 1.225 . S
O342 Pr320 2.695 . S
O342 Pr321 2.436 1_554 S
O342 C329 1.270 . S
O343 Pr320 2.512 . S
O343 C329 1.248 . S
O344 Pr321 2.438 . S
O344 C330 1.267 . S
O345 Pr320 2.437 1_556 S
O345 C330 1.278 . S
O346 Pr321 2.562 . S
O346 C331 1.254 . S
O347 Pr321 2.490 . S
O347 C331 1.225 . S
O348 Pr320 2.436 1_556 S
O348 Pr321 2.695 . S
O348 C338 1.270 . S
O349 Pr321 2.512 . S
O349 C338 1.248 . S
O350 Pr320 2.438 . S
O350 C339 1.267 . S
O351 Pr321 2.437 1_554 S
O351 C339 1.278 . S
H352 C324 0.929 . S
H353 C325 0.929 . S
H354 C327 0.931 . S
H355 C328 0.930 . S
H356 C333 0.929 . S
H357 C334 0.929 . S
H358 C336 0.931 . S
H359 C337 0.930 . S
Pr360 C362 2.880 . S
Pr360 O380 2.562 1_565 S
Pr360 O381 2.490 . S
Pr360 O382 2.695 . S
Pr360 O383 2.512 . S
Pr360 O385 2.437 1_565 S
Pr360 O388 2.436 1_565 S
Pr360 O390 2.438 . S
Pr361 C371 2.880 . S
Pr361 O382 2.436 1_545 S
Pr361 O384 2.438 . S
Pr361 O386 2.562 1_545 S
Pr361 O387 2.490 . S
Pr361 O388 2.695 . S
Pr361 O389 2.512 . S
Pr361 O391 2.437 1_545 S
C362 Pr360 2.880 . S
C362 C363 1.490 1_565 S
C362 O380 1.254 1_565 S
C362 O381 1.225 . S
C363 C362 1.490 1_545 S
C363 C364 1.396 1_545 S
C363 C368 1.352 . S
C364 C363 1.396 1_565 S
C364 C365 1.368 . S
C364 H392 0.929 . S
C365 C364 1.368 . S
C365 C366 1.386 1_565 S
C365 H393 0.929 . S
C366 C365 1.386 1_545 S
C366 C367 1.373 . S
C367 C366 1.373 . S
C367 C368 1.409 . S
C367 H394 0.931 . S
C368 C363 1.352 . S
C368 C367 1.409 . S
C368 H395 0.930 . S
C369 O382 1.270 . S
C369 O383 1.248 . S
C370 O384 1.267 . S
C370 O385 1.278 . S
C371 Pr361 2.880 . S
C371 C372 1.489 . S
C371 O386 1.254 1_545 S
C371 O387 1.225 . S
C372 C371 1.489 . S
C372 C373 1.406 . S
C372 C377 1.345 1_545 S
C373 C372 1.406 . S
C373 C374 1.368 . S
C373 H396 0.929 . S
C374 C373 1.368 . S
C374 C375 1.386 1_545 S
C374 H397 0.929 . S
C375 C374 1.386 1_565 S
C375 C376 1.373 . S
C376 C375 1.373 . S
C376 C377 1.409 . S
C376 H398 0.931 . S
C377 C372 1.345 1_565 S
C377 C376 1.409 . S
C377 H399 0.930 . S
C378 O388 1.270 . S
C378 O389 1.248 . S
C379 O390 1.267 . S
C379 O391 1.278 . S
O380 Pr360 2.562 1_545 S
O380 C362 1.254 1_545 S
O381 Pr360 2.490 . S
O381 C362 1.225 . S
O382 Pr360 2.695 . S
O382 Pr361 2.436 1_565 S
O382 C369 1.270 . S
O383 Pr360 2.512 . S
O383 C369 1.248 . S
O384 Pr361 2.438 . S
O384 C370 1.267 . S
O385 Pr360 2.437 1_545 S
O385 C370 1.278 . S
O386 Pr361 2.562 1_565 S
O386 C371 1.254 1_565 S
O387 Pr361 2.490 . S
O387 C371 1.225 . S
O388 Pr360 2.436 1_545 S
O388 Pr361 2.695 . S
O388 C378 1.270 . S
O389 Pr361 2.512 . S
O389 C378 1.248 . S
O390 Pr360 2.438 . S
O390 C379 1.267 . S
O391 Pr361 2.437 1_565 S
O391 C379 1.278 . S
H392 C364 0.929 . S
H393 C365 0.929 . S
H394 C367 0.931 . S
H395 C368 0.930 . S
H396 C373 0.929 . S
H397 C374 0.929 . S
H398 C376 0.931 . S
H399 C377 0.930 . S
Pr400 C402 2.880 . S
Pr400 O420 2.562 . S
Pr400 O421 2.490 . S
Pr400 O422 2.695 . S
Pr400 O423 2.512 . S
Pr400 O425 2.437 . S
Pr400 O428 2.436 . S
Pr400 O430 2.438 . S
Pr401 C411 2.880 . S
Pr401 O422 2.436 . S
Pr401 O424 2.438 . S
Pr401 O426 2.562 . S
Pr401 O427 2.490 . S
Pr401 O428 2.695 . S
Pr401 O429 2.512 . S
Pr401 O431 2.437 . S
C402 Pr400 2.880 . S
C402 C403 1.491 . S
C402 O420 1.254 . S
C402 O421 1.225 . S
C403 C402 1.491 . S
C403 C404 1.392 . S
C403 C408 1.356 . S
C404 C403 1.392 . S
C404 C405 1.368 . S
C404 H432 0.929 . S
C405 C404 1.368 . S
C405 C406 1.386 . S
C405 H433 0.929 . S
C406 C405 1.386 . S
C406 C407 1.373 . S
C407 C406 1.373 . S
C407 C408 1.409 . S
C407 H434 0.931 . S
C408 C403 1.356 . S
C408 C407 1.409 . S
C408 H435 0.930 . S
C409 O422 1.270 . S
C409 O423 1.248 . S
C410 O424 1.267 . S
C410 O425 1.278 . S
C411 Pr401 2.880 . S
C411 C412 1.491 . S
C411 O426 1.254 . S
C411 O427 1.225 . S
C412 C411 1.491 . S
C412 C413 1.392 . S
C412 C417 1.356 . S
C413 C412 1.392 . S
C413 C414 1.368 . S
C413 H436 0.929 . S
C414 C413 1.368 . S
C414 C415 1.386 . S
C414 H437 0.929 . S
C415 C414 1.386 . S
C415 C416 1.373 . S
C416 C415 1.373 . S
C416 C417 1.409 . S
C416 H438 0.931 . S
C417 C412 1.356 . S
C417 C416 1.409 . S
C417 H439 0.930 . S
C418 O428 1.270 . S
C418 O429 1.248 . S
C419 O430 1.267 . S
C419 O431 1.278 . S
O420 Pr400 2.562 . S
O420 C402 1.254 . S
O421 Pr400 2.490 . S
O421 C402 1.225 . S
O422 Pr400 2.695 . S
O422 Pr401 2.436 . S
O422 C409 1.270 . S
O423 Pr400 2.512 . S
O423 C409 1.248 . S
O424 Pr401 2.438 . S
O424 C410 1.267 . S
O425 Pr400 2.437 . S
O425 C410 1.278 . S
O426 Pr401 2.562 . S
O426 C411 1.254 . S
O427 Pr401 2.490 . S
O427 C411 1.225 . S
O428 Pr400 2.436 . S
O428 Pr401 2.695 . S
O428 C418 1.270 . S
O429 Pr401 2.512 . S
O429 C418 1.248 . S
O430 Pr400 2.438 . S
O430 C419 1.267 . S
O431 Pr401 2.437 . S
O431 C419 1.278 . S
H432 C404 0.929 . S
H433 C405 0.929 . S
H434 C407 0.931 . S
H435 C408 0.930 . S
H436 C413 0.929 . S
H437 C414 0.929 . S
H438 C416 0.931 . S
H439 C417 0.930 . S
Pr440 C442 2.880 . S
Pr440 O460 2.562 1_455 S
Pr440 O461 2.490 . S
Pr440 O462 2.695 . S
Pr440 O463 2.512 . S
Pr440 O465 2.437 1_455 S
Pr440 O468 2.436 1_455 S
Pr440 O470 2.438 . S
Pr441 C451 2.880 . S
Pr441 O462 2.436 1_655 S
Pr441 O464 2.438 . S
Pr441 O466 2.562 1_655 S
Pr441 O467 2.490 . S
Pr441 O468 2.695 . S
Pr441 O469 2.512 . S
Pr441 O471 2.437 1_655 S
C442 Pr440 2.880 . S
C442 C443 1.491 1_455 S
C442 O460 1.254 1_455 S
C442 O461 1.225 . S
C443 C442 1.491 1_655 S
C443 C444 1.392 1_655 S
C443 C448 1.356 . S
C444 C443 1.392 1_455 S
C444 C445 1.368 . S
C444 H472 0.929 . S
C445 C444 1.368 . S
C445 C446 1.386 1_455 S
C445 H473 0.929 . S
C446 C445 1.386 1_655 S
C446 C447 1.373 . S
C447 C446 1.373 . S
C447 C448 1.409 . S
C447 H474 0.931 . S
C448 C443 1.356 . S
C448 C447 1.409 . S
C448 H475 0.930 . S
C449 O462 1.270 . S
C449 O463 1.248 . S
C450 O464 1.267 . S
C450 O465 1.278 . S
C451 Pr441 2.880 . S
C451 C452 1.491 1_655 S
C451 O466 1.254 1_655 S
C451 O467 1.225 . S
C452 C451 1.491 1_455 S
C452 C453 1.392 1_455 S
C452 C457 1.356 . S
C453 C452 1.392 1_655 S
C453 C454 1.368 . S
C453 H476 0.929 . S
C454 C453 1.368 . S
C454 C455 1.386 1_655 S
C454 H477 0.929 . S
C455 C454 1.386 1_455 S
C455 C456 1.373 . S
C456 C455 1.373 . S
C456 C457 1.409 . S
C456 H478 0.931 . S
C457 C452 1.356 . S
C457 C456 1.409 . S
C457 H479 0.930 . S
C458 O468 1.270 . S
C458 O469 1.248 . S
C459 O470 1.267 . S
C459 O471 1.278 . S
O460 Pr440 2.562 1_655 S
O460 C442 1.254 1_655 S
O461 Pr440 2.490 . S
O461 C442 1.225 . S
O462 Pr440 2.695 . S
O462 Pr441 2.436 1_455 S
O462 C449 1.270 . S
O463 Pr440 2.512 . S
O463 C449 1.248 . S
O464 Pr441 2.438 . S
O464 C450 1.267 . S
O465 Pr440 2.437 1_655 S
O465 C450 1.278 . S
O466 Pr441 2.562 1_455 S
O466 C451 1.254 1_455 S
O467 Pr441 2.490 . S
O467 C451 1.225 . S
O468 Pr440 2.436 1_655 S
O468 Pr441 2.695 . S
O468 C458 1.270 . S
O469 Pr441 2.512 . S
O469 C458 1.248 . S
O470 Pr440 2.438 . S
O470 C459 1.267 . S
O471 Pr441 2.437 1_455 S
O471 C459 1.278 . S
H472 C444 0.929 . S
H473 C445 0.929 . S
H474 C447 0.931 . S
H475 C448 0.930 . S
H476 C453 0.929 . S
H477 C454 0.929 . S
H478 C456 0.931 . S
H479 C457 0.930 . S
Pr480 C482 2.880 . S
Pr480 O500 2.562 . S
Pr480 O501 2.490 . S
Pr480 O502 2.695 . S
Pr480 O503 2.512 . S
Pr480 O505 2.437 . S
Pr480 O508 2.436 . S
Pr480 O510 2.438 . S
Pr481 C491 2.880 . S
Pr481 O502 2.436 . S
Pr481 O504 2.438 . S
Pr481 O506 2.562 . S
Pr481 O507 2.490 . S
Pr481 O508 2.695 . S
Pr481 O509 2.512 . S
Pr481 O511 2.437 . S
C482 Pr480 2.880 . S
C482 C483 1.491 . S
C482 O500 1.254 . S
C482 O501 1.225 . S
C483 C482 1.491 . S
C483 C484 1.392 . S
C483 C488 1.356 . S
C484 C483 1.392 . S
C484 C485 1.368 . S
C484 H512 0.929 . S
C485 C484 1.368 . S
C485 C486 1.386 . S
C485 H513 0.929 . S
C486 C485 1.386 . S
C486 C487 1.373 . S
C487 C486 1.373 . S
C487 C488 1.409 . S
C487 H514 0.931 . S
C488 C483 1.356 . S
C488 C487 1.409 . S
C488 H515 0.930 . S
C489 O502 1.270 . S
C489 O503 1.248 . S
C490 O504 1.267 . S
C490 O505 1.278 . S
C491 Pr481 2.880 . S
C491 C492 1.491 . S
C491 O506 1.254 . S
C491 O507 1.225 . S
C492 C491 1.491 . S
C492 C493 1.392 . S
C492 C497 1.356 . S
C493 C492 1.392 . S
C493 C494 1.368 . S
C493 H516 0.929 . S
C494 C493 1.368 . S
C494 C495 1.386 . S
C494 H517 0.929 . S
C495 C494 1.386 . S
C495 C496 1.373 . S
C496 C495 1.373 . S
C496 C497 1.409 . S
C496 H518 0.931 . S
C497 C492 1.356 . S
C497 C496 1.409 . S
C497 H519 0.930 . S
C498 O508 1.270 . S
C498 O509 1.248 . S
C499 O510 1.267 . S
C499 O511 1.278 . S
O500 Pr480 2.562 . S
O500 C482 1.254 . S
O501 Pr480 2.490 . S
O501 C482 1.225 . S
O502 Pr480 2.695 . S
O502 Pr481 2.436 . S
O502 C489 1.270 . S
O503 Pr480 2.512 . S
O503 C489 1.248 . S
O504 Pr481 2.438 . S
O504 C490 1.267 . S
O505 Pr480 2.437 . S
O505 C490 1.278 . S
O506 Pr481 2.562 . S
O506 C491 1.254 . S
O507 Pr481 2.490 . S
O507 C491 1.225 . S
O508 Pr480 2.436 . S
O508 Pr481 2.695 . S
O508 C498 1.270 . S
O509 Pr481 2.512 . S
O509 C498 1.248 . S
O510 Pr480 2.438 . S
O510 C499 1.267 . S
O511 Pr481 2.437 . S
O511 C499 1.278 . S
H512 C484 0.929 . S
H513 C485 0.929 . S
H514 C487 0.931 . S
H515 C488 0.930 . S
H516 C493 0.929 . S
H517 C494 0.929 . S
H518 C496 0.931 . S
H519 C497 0.930 . S
Pr520 C522 2.880 . S
Pr520 O540 2.562 . S
Pr520 O541 2.490 . S
Pr520 O542 2.695 . S
Pr520 O543 2.512 . S
Pr520 O545 2.437 1_554 S
Pr520 O548 2.436 1_554 S
Pr520 O550 2.438 . S
Pr521 C531 2.880 . S
Pr521 O542 2.436 1_556 S
Pr521 O544 2.438 . S
Pr521 O546 2.562 . S
Pr521 O547 2.490 . S
Pr521 O548 2.695 . S
Pr521 O549 2.512 . S
Pr521 O551 2.437 1_556 S
C522 Pr520 2.880 . S
C522 C523 1.491 . S
C522 O540 1.254 . S
C522 O541 1.225 . S
C523 C522 1.491 . S
C523 C524 1.392 . S
C523 C528 1.356 1_554 S
C524 C523 1.392 . S
C524 C525 1.368 . S
C524 H552 0.929 . S
C525 C524 1.368 . S
C525 C526 1.386 . S
C525 H553 0.929 . S
C526 C525 1.386 . S
C526 C527 1.373 1_554 S
C527 C526 1.373 1_556 S
C527 C528 1.409 . S
C527 H554 0.931 . S
C528 C523 1.356 1_556 S
C528 C527 1.409 . S
C528 H555 0.930 . S
C529 O542 1.270 . S
C529 O543 1.248 . S
C530 O544 1.267 . S
C530 O545 1.278 . S
C531 Pr521 2.880 . S
C531 C532 1.491 . S
C531 O546 1.254 . S
C531 O547 1.225 . S
C532 C531 1.491 . S
C532 C533 1.392 . S
C532 C537 1.356 1_556 S
C533 C532 1.392 . S
C533 C534 1.368 . S
C533 H556 0.929 . S
C534 C533 1.368 . S
C534 C535 1.386 . S
C534 H557 0.929 . S
C535 C534 1.386 . S
C535 C536 1.373 1_556 S
C536 C535 1.373 1_554 S
C536 C537 1.409 . S
C536 H558 0.931 . S
C537 C532 1.356 1_554 S
C537 C536 1.409 . S
C537 H559 0.930 . S
C538 O548 1.270 . S
C538 O549 1.248 . S
C539 O550 1.267 . S
C539 O551 1.278 . S
O540 Pr520 2.562 . S
O540 C522 1.254 . S
O541 Pr520 2.490 . S
O541 C522 1.225 . S
O542 Pr520 2.695 . S
O542 Pr521 2.436 1_554 S
O542 C529 1.270 . S
O543 Pr520 2.512 . S
O543 C529 1.248 . S
O544 Pr521 2.438 . S
O544 C530 1.267 . S
O545 Pr520 2.437 1_556 S
O545 C530 1.278 . S
O546 Pr521 2.562 . S
O546 C531 1.254 . S
O547 Pr521 2.490 . S
O547 C531 1.225 . S
O548 Pr520 2.436 1_556 S
O548 Pr521 2.695 . S
O548 C538 1.270 . S
O549 Pr521 2.512 . S
O549 C538 1.248 . S
O550 Pr520 2.438 . S
O550 C539 1.267 . S
O551 Pr521 2.437 1_554 S
O551 C539 1.278 . S
H552 C524 0.929 . S
H553 C525 0.929 . S
H554 C527 0.931 . S
H555 C528 0.930 . S
H556 C533 0.929 . S
H557 C534 0.929 . S
H558 C536 0.931 . S
H559 C537 0.930 . S
Pr560 C562 2.880 . S
Pr560 O580 2.562 . S
Pr560 O581 2.490 . S
Pr560 O582 2.695 1_545 S
Pr560 O583 2.512 1_545 S
Pr560 O585 2.437 1_545 S
Pr560 O588 2.436 . S
Pr560 O590 2.438 . S
Pr561 C571 2.880 . S
Pr561 O582 2.436 . S
Pr561 O584 2.438 . S
Pr561 O586 2.562 . S
Pr561 O587 2.490 . S
Pr561 O588 2.695 1_565 S
Pr561 O589 2.512 1_565 S
Pr561 O591 2.437 1_565 S
C562 Pr560 2.880 . S
C562 C563 1.491 . S
C562 O580 1.254 . S
C562 O581 1.225 . S
C563 C562 1.491 . S
C563 C564 1.392 . S
C563 C568 1.356 . S
C564 C563 1.392 . S
C564 C565 1.368 . S
C564 H592 0.929 . S
C565 C564 1.368 . S
C565 C566 1.386 . S
C565 H593 0.929 . S
C566 C565 1.386 . S
C566 C567 1.373 . S
C567 C566 1.373 . S
C567 C568 1.409 . S
C567 H594 0.931 . S
C568 C563 1.356 . S
C568 C567 1.409 . S
C568 H595 0.930 . S
C569 O582 1.270 . S
C569 O583 1.248 . S
C570 O584 1.267 . S
C570 O585 1.278 . S
C571 Pr561 2.880 . S
C571 C572 1.491 . S
C571 O586 1.254 . S
C571 O587 1.225 . S
C572 C571 1.491 . S
C572 C573 1.392 . S
C572 C577 1.356 . S
C573 C572 1.392 . S
C573 C574 1.368 . S
C573 H596 0.929 . S
C574 C573 1.368 . S
C574 C575 1.386 . S
C574 H597 0.929 . S
C575 C574 1.386 . S
C575 C576 1.373 . S
C576 C575 1.373 . S
C576 C577 1.409 . S
C576 H598 0.931 . S
C577 C572 1.356 . S
C577 C576 1.409 . S
C577 H599 0.930 . S
C578 O588 1.270 . S
C578 O589 1.248 . S
C579 O590 1.267 . S
C579 O591 1.278 . S
O580 Pr560 2.562 . S
O580 C562 1.254 . S
O581 Pr560 2.490 . S
O581 C562 1.225 . S
O582 Pr560 2.695 1_565 S
O582 Pr561 2.436 . S
O582 C569 1.270 . S
O583 Pr560 2.512 1_565 S
O583 C569 1.248 . S
O584 Pr561 2.438 . S
O584 C570 1.267 . S
O585 Pr560 2.437 1_565 S
O585 C570 1.278 . S
O586 Pr561 2.562 . S
O586 C571 1.254 . S
O587 Pr561 2.490 . S
O587 C571 1.225 . S
O588 Pr560 2.436 . S
O588 Pr561 2.695 1_545 S
O588 C578 1.270 . S
O589 Pr561 2.512 1_545 S
O589 C578 1.248 . S
O590 Pr560 2.438 . S
O590 C579 1.267 . S
O591 Pr561 2.437 1_545 S
O591 C579 1.278 . S
H592 C564 0.929 . S
H593 C565 0.929 . S
H594 C567 0.931 . S
H595 C568 0.930 . S
H596 C573 0.929 . S
H597 C574 0.929 . S
H598 C576 0.931 . S
H599 C577 0.930 . S
Pr600 C602 2.880 . S
Pr600 O620 2.562 . S
Pr600 O621 2.490 . S
Pr600 O622 2.695 . S
Pr600 O623 2.512 . S
Pr600 O625 2.437 1_556 S
Pr600 O628 2.436 1_556 S
Pr600 O630 2.438 . S
Pr601 C611 2.880 . S
Pr601 O622 2.436 1_554 S
Pr601 O624 2.438 . S
Pr601 O626 2.562 . S
Pr601 O627 2.490 . S
Pr601 O628 2.695 . S
Pr601 O629 2.512 . S
Pr601 O631 2.420 1_554 S
C602 Pr600 2.880 . S
C602 C603 1.491 . S
C602 O620 1.254 . S
C602 O621 1.225 . S
C603 C602 1.491 . S
C603 C604 1.392 . S
C603 C608 1.356 . S
C604 C603 1.392 . S
C604 C605 1.368 . S
C604 H632 0.929 . S
C605 C604 1.368 . S
C605 C606 1.386 . S
C605 H633 0.929 . S
C606 C605 1.386 . S
C606 C607 1.373 . S
C607 C606 1.373 . S
C607 C608 1.409 . S
C607 H634 0.931 . S
C608 C603 1.356 . S
C608 C607 1.409 . S
C608 H635 0.932 1_556 S
C609 O622 1.270 . S
C609 O623 1.248 . S
C610 O624 1.267 . S
C610 O625 1.278 . S
C611 Pr601 2.880 . S
C611 C612 1.491 . S
C611 O626 1.254 . S
C611 O627 1.225 . S
C612 C611 1.491 . S
C612 C613 1.392 . S
C612 C617 1.356 . S
C613 C612 1.392 . S
C613 C614 1.368 . S
C613 H636 0.929 . S
C614 C613 1.368 . S
C614 C615 1.386 . S
C614 H637 0.929 . S
C615 C614 1.386 . S
C615 C616 1.373 . S
C616 C615 1.373 . S
C616 C617 1.409 . S
C616 H638 0.931 . S
C617 C612 1.356 . S
C617 C616 1.409 . S
C617 H639 0.943 . S
C618 O628 1.270 . S
C618 O629 1.248 . S
C619 O630 1.267 . S
C619 O631 1.302 . S
O620 Pr600 2.562 . S
O620 C602 1.254 . S
O621 Pr600 2.490 . S
O621 C602 1.225 . S
O622 Pr600 2.695 . S
O622 Pr601 2.436 1_556 S
O622 C609 1.270 . S
O623 Pr600 2.512 . S
O623 C609 1.248 . S
O624 Pr601 2.438 . S
O624 C610 1.267 . S
O625 Pr600 2.437 1_554 S
O625 C610 1.278 . S
O626 Pr601 2.562 . S
O626 C611 1.254 . S
O627 Pr601 2.490 . S
O627 C611 1.225 . S
O628 Pr600 2.436 1_554 S
O628 Pr601 2.695 . S
O628 C618 1.270 . S
O629 Pr601 2.512 . S
O629 C618 1.248 . S
O630 Pr600 2.438 . S
O630 C619 1.267 . S
O631 Pr601 2.420 1_556 S
O631 C619 1.302 . S
H632 C604 0.929 . S
H633 C605 0.929 . S
H634 C607 0.931 . S
H635 C608 0.932 1_554 S
H636 C613 0.929 . S
H637 C614 0.929 . S
H638 C616 0.931 . S
H639 C617 0.943 . S
H640 C652 0.930 . S
H641 C654 0.930 . S
H642 C655 0.930 . S
H643 C659 0.959 . S
H644 C659 0.959 . S
H645 C659 0.961 . S
H646 C660 0.960 1_556 S
H647 C660 0.942 1_456 S
H648 C660 0.959 . S
H649 C663 0.929 . S
H650 C664 0.931 . S
H651 C666 0.930 . S
C652 H640 0.930 . S
C652 C653 1.399 . S
C652 C657 1.399 . S
C653 C652 1.399 . S
C653 C654 1.376 . S
C654 H641 0.930 . S
C654 C653 1.376 . S
C654 C655 1.388 . S
C655 H642 0.930 . S
C655 C654 1.388 . S
C655 C656 1.390 . S
C656 C655 1.390 . S
C656 C657 1.394 . S
C656 C662 1.465 . S
C657 C652 1.399 . S
C657 C656 1.394 . S
C657 C658 1.516 1_655 S
C658 C657 1.516 1_455 S
C658 C659 1.502 . S
C658 C660 1.561 1_455 S
C658 C661 1.526 . S
C659 H643 0.959 . S
C659 H644 0.959 . S
C659 H645 0.961 . S
C659 C658 1.502 . S
C660 H646 0.960 1_554 S
C660 H647 0.942 1_654 S
C660 H648 0.959 . S
C660 C658 1.561 1_655 S
C661 C658 1.526 . S
C661 C662 1.396 1_455 S
C661 C666 1.390 . S
C662 C656 1.465 . S
C662 C661 1.396 1_655 S
C662 C663 1.399 . S
C663 H649 0.929 . S
C663 C662 1.399 . S
C663 C664 1.385 . S
C664 H650 0.931 . S
C664 C663 1.385 . S
C664 C665 1.389 1_655 S
C665 C664 1.389 1_455 S
C665 C666 1.387 . S
C666 H651 0.930 . S
C666 C661 1.390 . S
C666 C665 1.387 . S
H667 C679 0.930 . S
H668 C681 0.930 . S
H669 C682 0.930 . S
H670 C686 0.959 . S
H671 C686 0.959 . S
H672 C686 0.961 . S
H673 C687 0.960 . S
H674 C687 0.961 . S
H675 C687 0.959 . S
H676 C690 0.929 . S
H677 C691 0.931 . S
H678 C693 0.930 . S
C679 H667 0.930 . S
C679 C680 1.399 . S
C679 C684 1.399 . S
C680 C679 1.399 . S
C680 C681 1.376 . S
C681 H668 0.930 . S
C681 C680 1.376 . S
C681 C682 1.388 . S
C682 H669 0.930 . S
C682 C681 1.388 . S
C682 C683 1.390 . S
C683 C682 1.390 . S
C683 C684 1.394 . S
C683 C689 1.465 . S
C684 C679 1.399 . S
C684 C683 1.394 . S
C684 C685 1.516 . S
C685 C684 1.516 . S
C685 C686 1.502 . S
C685 C687 1.561 . S
C685 C688 1.526 . S
C686 H670 0.959 . S
C686 H671 0.959 . S
C686 H672 0.961 . S
C686 C685 1.502 . S
C687 H673 0.960 . S
C687 H674 0.961 . S
C687 H675 0.959 . S
C687 C685 1.561 . S
C688 C685 1.526 . S
C688 C689 1.396 . S
C688 C693 1.390 . S
C689 C683 1.465 . S
C689 C688 1.396 . S
C689 C690 1.399 . S
C690 H676 0.929 . S
C690 C689 1.399 . S
C690 C691 1.385 . S
C691 H677 0.931 . S
C691 C690 1.385 . S
C691 C692 1.389 . S
C692 C691 1.389 . S
C692 C693 1.387 . S
C693 H678 0.930 . S
C693 C688 1.390 . S
C693 C692 1.387 . S
H694 C706 0.930 . S
H695 C708 0.930 . S
H696 C709 0.930 . S
H697 C713 0.959 . S
H698 C713 0.959 . S
H699 C713 0.961 . S
H700 C714 0.960 . S
H701 C714 0.961 . S
H702 C714 0.959 . S
H703 C717 0.929 . S
H704 C718 0.931 . S
H705 C720 0.930 . S
C706 H694 0.930 . S
C706 C707 1.399 . S
C706 C711 1.399 . S
C707 C706 1.399 . S
C707 C708 1.376 . S
C708 H695 0.930 . S
C708 C707 1.376 . S
C708 C709 1.388 . S
C709 H696 0.930 . S
C709 C708 1.388 . S
C709 C710 1.390 . S
C710 C709 1.390 . S
C710 C711 1.394 . S
C710 C716 1.465 . S
C711 C706 1.399 . S
C711 C710 1.394 . S
C711 C712 1.516 . S
C712 C711 1.516 . S
C712 C713 1.502 . S
C712 C714 1.561 . S
C712 C715 1.526 . S
C713 H697 0.959 . S
C713 H698 0.959 . S
C713 H699 0.961 . S
C713 C712 1.502 . S
C714 H700 0.960 . S
C714 H701 0.961 . S
C714 H702 0.959 . S
C714 C712 1.561 . S
C715 C712 1.526 . S
C715 C716 1.396 . S
C715 C720 1.390 . S
C716 C710 1.465 . S
C716 C715 1.396 . S
C716 C717 1.399 . S
C717 H703 0.929 . S
C717 C716 1.399 . S
C717 C718 1.385 . S
C718 H704 0.931 . S
C718 C717 1.385 . S
C718 C719 1.389 . S
C719 C718 1.389 . S
C719 C720 1.387 . S
C720 H705 0.930 . S
C720 C715 1.390 . S
C720 C719 1.387 . S
H721 C733 0.930 . S
H722 C735 0.930 . S
H723 C736 0.930 . S
H724 C740 0.959 . S
H725 C740 0.959 . S
H726 C740 0.961 . S
H727 C741 0.960 . S
H728 C741 0.961 . S
H729 C741 0.959 . S
H730 C744 0.929 . S
H731 C745 0.931 . S
H732 C747 0.930 . S
C733 H721 0.930 . S
C733 C734 1.399 . S
C733 C738 1.399 . S
C734 C733 1.399 . S
C734 C735 1.376 1_545 S
C735 H722 0.930 . S
C735 C734 1.376 1_565 S
C735 C736 1.388 . S
C736 H723 0.930 . S
C736 C735 1.388 . S
C736 C737 1.390 . S
C737 C736 1.390 . S
C737 C738 1.394 1_565 S
C737 C743 1.465 . S
C738 C733 1.399 . S
C738 C737 1.394 1_545 S
C738 C739 1.516 . S
C739 C738 1.516 . S
C739 C740 1.502 . S
C739 C741 1.561 . S
C739 C742 1.526 . S
C740 H724 0.959 . S
C740 H725 0.959 . S
C740 H726 0.961 . S
C740 C739 1.502 . S
C741 H727 0.960 . S
C741 H728 0.961 . S
C741 H729 0.959 . S
C741 C739 1.561 . S
C742 C739 1.526 . S
C742 C743 1.396 1_545 S
C742 C747 1.390 . S
C743 C737 1.465 . S
C743 C742 1.396 1_565 S
C743 C744 1.399 . S
C744 H730 0.929 . S
C744 C743 1.399 . S
C744 C745 1.385 . S
C745 H731 0.931 . S
C745 C744 1.385 . S
C745 C746 1.389 . S
C746 C745 1.389 . S
C746 C747 1.387 1_565 S
C747 H732 0.930 . S
C747 C742 1.390 . S
C747 C746 1.387 1_545 S
H748 C760 0.930 . S
H749 C762 0.930 . S
H750 C763 0.930 . S
H751 C767 0.959 . S
H752 C767 0.959 . S
H753 C767 0.961 1_556 S
H754 C768 0.960 1_556 S
H755 C768 0.961 . S
H756 C768 0.959 . S
H757 C771 0.923 1_565 S
H758 C772 0.931 . S
H759 C774 0.930 . S
C760 H748 0.930 . S
C760 C761 1.399 . S
C760 C765 1.399 . S
C761 C760 1.399 . S
C761 C762 1.376 . S
C762 H749 0.930 . S
C762 C761 1.376 . S
C762 C763 1.388 . S
C763 H750 0.930 . S
C763 C762 1.388 . S
C763 C764 1.390 . S
C764 C763 1.390 . S
C764 C765 1.394 . S
C764 C770 1.464 . S
C765 C760 1.399 . S
C765 C764 1.394 . S
C765 C766 1.516 1_565 S
C766 C765 1.516 1_545 S
C766 C767 1.502 1_545 S
C766 C768 1.561 . S
C766 C769 1.526 . S
C767 H751 0.959 . S
C767 H752 0.959 . S
C767 H753 0.961 1_554 S
C767 C766 1.502 1_565 S
C768 H754 0.960 1_554 S
C768 H755 0.961 . S
C768 H756 0.959 . S
C768 C766 1.561 . S
C769 C766 1.526 . S
C769 C770 1.397 1_545 S
C769 C774 1.390 . S
C770 C764 1.464 . S
C770 C769 1.397 1_565 S
C770 C771 1.393 1_565 S
C771 H757 0.923 1_545 S
C771 C770 1.393 1_545 S
C771 C772 1.399 . S
C772 H758 0.931 . S
C772 C771 1.399 . S
C772 C773 1.389 . S
C773 C772 1.389 . S
C773 C774 1.387 . S
C774 H759 0.930 . S
C774 C769 1.390 . S
C774 C773 1.387 . S
H775 C787 0.930 . S
H776 C789 0.930 . S
H777 C790 0.930 . S
H778 C794 0.959 . S
H779 C794 0.959 . S
H780 C794 0.961 . S
H781 C795 0.960 . S
H782 C795 0.961 . S
H783 C795 0.959 . S
H784 C798 0.940 . S
H785 C799 0.931 . S
H786 C801 0.930 . S
C787 H775 0.930 . S
C787 C788 1.399 . S
C787 C792 1.399 . S
C788 C787 1.399 . S
C788 C789 1.376 . S
C789 H776 0.930 . S
C789 C788 1.376 . S
C789 C790 1.388 . S
C790 H777 0.930 . S
C790 C789 1.388 . S
C790 C791 1.390 . S
C791 C790 1.390 . S
C791 C792 1.394 . S
C791 C797 1.465 . S
C792 C787 1.399 . S
C792 C791 1.394 . S
C792 C793 1.516 . S
C793 C792 1.516 . S
C793 C794 1.502 1_455 S
C793 C795 1.561 . S
C793 C796 1.526 . S
C794 H778 0.959 . S
C794 H779 0.959 . S
C794 H780 0.961 . S
C794 C793 1.502 1_655 S
C795 H781 0.960 . S
C795 H782 0.961 . S
C795 H783 0.959 . S
C795 C793 1.561 . S
C796 C793 1.526 . S
C796 C797 1.396 . S
C796 C801 1.390 1_455 S
C797 C791 1.465 . S
C797 C796 1.396 . S
C797 C798 1.416 . S
C798 H784 0.940 . S
C798 C797 1.416 . S
C798 C799 1.359 1_455 S
C799 H785 0.931 . S
C799 C798 1.359 1_655 S
C799 C800 1.389 . S
C800 C799 1.389 . S
C800 C801 1.387 . S
C801 H786 0.930 . S
C801 C796 1.390 1_655 S
C801 C800 1.387 . S
H802 C814 0.930 . S
H803 C816 0.930 . S
H804 C817 0.930 . S
H805 C821 0.959 . S
H806 C821 0.959 . S
H807 C821 0.961 . S
H808 C822 0.960 . S
H809 C822 0.961 . S
H810 C822 0.959 . S
H811 C825 0.929 . S
H812 C826 0.931 . S
H813 C828 0.930 . S
C814 H802 0.930 . S
C814 C815 1.399 . S
C814 C819 1.399 . S
C815 C814 1.399 . S
C815 C816 1.376 . S
C816 H803 0.930 . S
C816 C815 1.376 . S
C816 C817 1.388 . S
C817 H804 0.930 . S
C817 C816 1.388 . S
C817 C818 1.390 . S
C818 C817 1.390 . S
C818 C819 1.394 . S
C818 C824 1.465 . S
C819 C814 1.399 . S
C819 C818 1.394 . S
C819 C820 1.516 . S
C820 C819 1.516 . S
C820 C821 1.502 . S
C820 C822 1.561 . S
C820 C823 1.526 . S
C821 H805 0.959 . S
C821 H806 0.959 . S
C821 H807 0.961 . S
C821 C820 1.502 . S
C822 H808 0.960 . S
C822 H809 0.961 . S
C822 H810 0.959 . S
C822 C820 1.561 . S
C823 C820 1.526 . S
C823 C824 1.396 . S
C823 C828 1.390 . S
C824 C818 1.465 . S
C824 C823 1.396 . S
C824 C825 1.399 . S
C825 H811 0.929 . S
C825 C824 1.399 . S
C825 C826 1.385 . S
C826 H812 0.931 . S
C826 C825 1.385 . S
C826 C827 1.389 . S
C827 C826 1.389 . S
C827 C828 1.387 . S
C828 H813 0.930 . S
C828 C823 1.390 . S
C828 C827 1.387 . S
H829 C841 0.930 . S
H830 C843 0.930 . S
H831 C844 0.930 . S
H832 C848 0.959 . S
H833 C848 0.959 . S
H834 C848 0.961 . S
H835 C849 0.960 . S
H836 C849 0.961 . S
H837 C849 0.959 . S
H838 C852 0.929 . S
H839 C853 0.931 . S
H840 C855 0.930 . S
C841 H829 0.930 . S
C841 C842 1.399 . S
C841 C846 1.399 . S
C842 C841 1.399 . S
C842 C843 1.376 . S
C843 H830 0.930 . S
C843 C842 1.376 . S
C843 C844 1.388 . S
C844 H831 0.930 . S
C844 C843 1.388 . S
C844 C845 1.390 . S
C845 C844 1.390 . S
C845 C846 1.394 . S
C845 C851 1.465 . S
C846 C841 1.399 . S
C846 C845 1.394 . S
C846 C847 1.516 . S
C847 C846 1.516 . S
C847 C848 1.502 . S
C847 C849 1.561 . S
C847 C850 1.526 . S
C848 H832 0.959 . S
C848 H833 0.959 . S
C848 H834 0.961 . S
C848 C847 1.502 . S
C849 H835 0.960 . S
C849 H836 0.961 . S
C849 H837 0.959 . S
C849 C847 1.561 . S
C850 C847 1.526 . S
C850 C851 1.396 . S
C850 C855 1.390 . S
C851 C845 1.465 . S
C851 C850 1.396 . S
C851 C852 1.399 . S
C852 H838 0.929 . S
C852 C851 1.399 . S
C852 C853 1.385 . S
C853 H839 0.931 . S
C853 C852 1.385 . S
C853 C854 1.389 . S
C854 C853 1.389 . S
C854 C855 1.387 . S
C855 H840 0.930 . S
C855 C850 1.390 . S
C855 C854 1.387 . S
H856 C868 0.930 . S
H857 C870 0.930 . S
H858 C871 0.930 . S
H859 C875 0.959 . S
H860 C875 0.959 . S
H861 C875 0.961 . S
H862 C876 0.960 . S
H863 C876 0.961 . S
H864 C876 0.959 . S
H865 C879 0.929 . S
H866 C880 0.931 . S
H867 C882 0.930 . S
C868 H856 0.930 . S
C868 C869 1.399 . S
C868 C873 1.399 . S
C869 C868 1.399 . S
C869 C870 1.376 . S
C870 H857 0.930 . S
C870 C869 1.376 . S
C870 C871 1.388 . S
C871 H858 0.930 . S
C871 C870 1.388 . S
C871 C872 1.390 . S
C872 C871 1.390 . S
C872 C873 1.394 . S
C872 C878 1.465 . S
C873 C868 1.399 . S
C873 C872 1.394 . S
C873 C874 1.516 . S
C874 C873 1.516 . S
C874 C875 1.502 . S
C874 C876 1.561 . S
C874 C877 1.526 . S
C875 H859 0.959 . S
C875 H860 0.959 . S
C875 H861 0.961 . S
C875 C874 1.502 . S
C876 H862 0.960 . S
C876 H863 0.961 . S
C876 H864 0.959 . S
C876 C874 1.561 . S
C877 C874 1.526 . S
C877 C878 1.396 . S
C877 C882 1.390 . S
C878 C872 1.465 . S
C878 C877 1.396 . S
C878 C879 1.399 . S
C879 H865 0.929 . S
C879 C878 1.399 . S
C879 C880 1.385 . S
C880 H866 0.931 . S
C880 C879 1.385 . S
C880 C881 1.389 . S
C881 C880 1.389 . S
C881 C882 1.387 . S
C882 H867 0.930 . S
C882 C877 1.390 . S
C882 C881 1.387 . S
H883 C895 0.930 . S
H884 C897 0.930 . S
H885 C898 0.930 . S
H886 C902 0.959 . S
H887 C902 0.959 . S
H888 C902 0.961 . S
H889 C903 0.960 . S
H890 C903 0.961 . S
H891 C903 0.959 . S
H892 C906 0.929 . S
H893 C907 0.931 . S
H894 C909 0.930 . S
C895 H883 0.930 . S
C895 C896 1.399 . S
C895 C900 1.399 . S
C896 C895 1.399 . S
C896 C897 1.376 . S
C897 H884 0.930 . S
C897 C896 1.376 . S
C897 C898 1.388 . S
C898 H885 0.930 . S
C898 C897 1.388 . S
C898 C899 1.390 . S
C899 C898 1.390 . S
C899 C900 1.394 . S
C899 C905 1.465 . S
C900 C895 1.399 . S
C900 C899 1.394 . S
C900 C901 1.516 . S
C901 C900 1.516 . S
C901 C902 1.502 . S
C901 C903 1.561 . S
C901 C904 1.526 . S
C902 H886 0.959 . S
C902 H887 0.959 . S
C902 H888 0.961 . S
C902 C901 1.502 . S
C903 H889 0.960 . S
C903 H890 0.961 . S
C903 H891 0.959 . S
C903 C901 1.561 . S
C904 C901 1.526 . S
C904 C905 1.396 . S
C904 C909 1.390 . S
C905 C899 1.465 . S
C905 C904 1.396 . S
C905 C906 1.399 . S
C906 H892 0.929 . S
C906 C905 1.399 . S
C906 C907 1.385 . S
C907 H893 0.931 . S
C907 C906 1.385 . S
C907 C908 1.389 . S
C908 C907 1.389 . S
C908 C909 1.387 . S
C909 H894 0.930 . S
C909 C904 1.390 . S
C909 C908 1.387 . S
H910 C922 0.930 1_545 S
H911 C924 0.930 . S
H912 C925 0.930 . S
H913 C929 0.959 1_565 S
H914 C929 0.959 . S
H915 C929 0.961 . S
H916 C930 0.960 . S
H917 C930 0.961 . S
H918 C930 0.959 . S
H919 C933 0.929 . S
H920 C934 0.931 . S
H921 C936 0.930 . S
C922 H910 0.930 1_565 S
C922 C923 1.399 . S
C922 C927 1.408 . S
C923 C922 1.399 . S
C923 C924 1.376 . S
C924 H911 0.930 . S
C924 C923 1.376 . S
C924 C925 1.388 . S
C925 H912 0.930 . S
C925 C924 1.388 . S
C925 C926 1.390 . S
C926 C925 1.390 . S
C926 C927 1.396 . S
C926 C932 1.465 . S
C927 C922 1.408 . S
C927 C926 1.396 . S
C927 C928 1.504 1_565 S
C928 C927 1.504 1_545 S
C928 C929 1.502 . S
C928 C930 1.561 . S
C928 C931 1.526 . S
C929 H913 0.959 1_545 S
C929 H914 0.959 . S
C929 H915 0.961 . S
C929 C928 1.502 . S
C930 H916 0.960 . S
C930 H917 0.961 . S
C930 H918 0.959 . S
C930 C928 1.561 . S
C931 C928 1.526 . S
C931 C932 1.396 1_545 S
C931 C936 1.390 . S
C932 C926 1.465 . S
C932 C931 1.396 1_565 S
C932 C933 1.399 . S
C933 H919 0.929 . S
C933 C932 1.399 . S
C933 C934 1.385 . S
C934 H920 0.931 . S
C934 C933 1.385 . S
C934 C935 1.389 1_565 S
C935 C934 1.389 1_545 S
C935 C936 1.387 . S
C936 H921 0.930 . S
C936 C931 1.390 . S
C936 C935 1.387 . S
H937 C949 0.930 . S
H938 C951 0.930 . S
H939 C952 0.930 . S
H940 C956 0.959 . S
H941 C956 0.959 . S
H942 C956 0.961 . S
H943 C957 0.960 . S
H944 C957 0.961 . S
H945 C957 0.959 . S
H946 C960 0.929 . S
H947 C961 0.930 . S
H948 C963 0.930 . S
C949 H937 0.930 . S
C949 C950 1.399 . S
C949 C954 1.399 . S
C950 C949 1.399 . S
C950 C951 1.376 . S
C951 H938 0.930 . S
C951 C950 1.376 . S
C951 C952 1.388 . S
C952 H939 0.930 . S
C952 C951 1.388 . S
C952 C953 1.390 . S
C953 C952 1.390 . S
C953 C954 1.394 . S
C953 C959 1.465 . S
C954 C949 1.399 . S
C954 C953 1.394 . S
C954 C955 1.516 . S
C955 C954 1.516 . S
C955 C956 1.502 1_455 S
C955 C957 1.561 . S
C955 C958 1.525 . S
C956 H940 0.959 . S
C956 H941 0.959 . S
C956 H942 0.961 . S
C956 C955 1.502 1_655 S
C957 H943 0.960 . S
C957 H944 0.961 . S
C957 H945 0.959 . S
C957 C955 1.561 . S
C958 C955 1.525 . S
C958 C959 1.395 . S
C958 C963 1.392 1_455 S
C959 C953 1.465 . S
C959 C958 1.395 . S
C959 C960 1.399 . S
C960 H946 0.929 . S
C960 C959 1.399 . S
C960 C961 1.389 . S
C961 H947 0.930 . S
C961 C960 1.389 . S
C961 C962 1.387 1_455 S
C962 C961 1.387 1_655 S
C962 C963 1.387 . S
C963 H948 0.930 . S
C963 C958 1.392 1_655 S
C963 C962 1.387 . S
H964 C976 0.930 . S
H965 C978 0.930 . S
H966 C979 0.930 . S
H967 C983 0.959 . S
H968 C983 0.959 . S
H969 C983 0.961 . S
H970 C984 0.960 . S
H971 C984 0.961 . S
H972 C984 0.959 . S
H973 C987 0.929 . S
H974 C988 0.931 . S
H975 C990 0.930 1_554 S
C976 H964 0.930 . S
C976 C977 1.399 . S
C976 C981 1.399 . S
C977 C976 1.399 . S
C977 C978 1.376 . S
C978 H965 0.930 . S
C978 C977 1.376 . S
C978 C979 1.388 . S
C979 H966 0.930 . S
C979 C978 1.388 . S
C979 C980 1.390 . S
C980 C979 1.390 . S
C980 C981 1.394 . S
C980 C986 1.465 . S
C981 C976 1.399 . S
C981 C980 1.394 . S
C981 C982 1.516 . S
C982 C981 1.516 . S
C982 C983 1.502 . S
C982 C984 1.561 1_556 S
C982 C985 1.526 . S
C983 H967 0.959 . S
C983 H968 0.959 . S
C983 H969 0.961 . S
C983 C982 1.502 . S
C984 H970 0.960 . S
C984 H971 0.961 . S
C984 H972 0.959 . S
C984 C982 1.561 1_554 S
C985 C982 1.526 . S
C985 C986 1.396 . S
C985 C990 1.390 . S
C986 C980 1.465 . S
C986 C985 1.396 . S
C986 C987 1.399 . S
C987 H973 0.929 . S
C987 C986 1.399 . S
C987 C988 1.385 . S
C988 H974 0.931 . S
C988 C987 1.385 . S
C988 C989 1.389 . S
C989 C988 1.389 . S
C989 C990 1.387 . S
C990 H975 0.930 1_556 S
C990 C985 1.390 . S
C990 C989 1.387 . S
H991 C1003 0.930 . S
H992 C1005 0.930 . S
H993 C1006 0.930 . S
H994 C1010 0.959 . S
H995 C1010 0.959 . S
H996 C1010 0.961 . S
H997 C1011 0.960 . S
H998 C1011 0.961 . S
H999 C1011 0.959 . S
H1000 C1014 0.929 . S
H1001 C1015 0.931 . S
H1002 C1017 0.930 . S
C1003 H991 0.930 . S
C1003 C1004 1.399 . S
C1003 C1008 1.399 . S
C1004 C1003 1.399 . S
C1004 C1005 1.376 . S
C1005 H992 0.930 . S
C1005 C1004 1.376 . S
C1005 C1006 1.388 . S
C1006 H993 0.930 . S
C1006 C1005 1.388 . S
C1006 C1007 1.390 . S
C1007 C1006 1.390 . S
C1007 C1008 1.394 . S
C1007 C1013 1.465 . S
C1008 C1003 1.399 . S
C1008 C1007 1.394 . S
C1008 C1009 1.516 . S
C1009 C1008 1.516 . S
C1009 C1010 1.502 . S
C1009 C1011 1.561 . S
C1009 C1012 1.526 . S
C1010 H994 0.959 . S
C1010 H995 0.959 . S
C1010 H996 0.961 . S
C1010 C1009 1.502 . S
C1011 H997 0.960 . S
C1011 H998 0.961 . S
C1011 H999 0.959 . S
C1011 C1009 1.561 . S
C1012 C1009 1.526 . S
C1012 C1013 1.396 . S
C1012 C1017 1.390 . S
C1013 C1007 1.465 . S
C1013 C1012 1.396 . S
C1013 C1014 1.399 . S
C1014 H1000 0.929 . S
C1014 C1013 1.399 . S
C1014 C1015 1.385 . S
C1015 H1001 0.931 . S
C1015 C1014 1.385 . S
C1015 C1016 1.389 . S
C1016 C1015 1.389 . S
C1016 C1017 1.387 . S
C1017 H1002 0.930 . S
C1017 C1012 1.390 . S
C1017 C1016 1.387 . S
H1018 C1030 0.930 . S
H1019 C1032 0.930 . S
H1020 C1033 0.930 . S
H1021 C1037 0.959 . S
H1022 C1037 0.959 . S
H1023 C1037 0.961 . S
H1024 C1038 0.960 . S
H1025 C1038 0.961 . S
H1026 C1038 0.959 . S
H1027 C1041 0.929 . S
H1028 C1042 0.931 . S
H1029 C1044 0.930 . S
C1030 H1018 0.930 . S
C1030 C1031 1.399 . S
C1030 C1035 1.399 . S
C1031 C1030 1.399 . S
C1031 C1032 1.376 . S
C1032 H1019 0.930 . S
C1032 C1031 1.376 . S
C1032 C1033 1.388 . S
C1033 H1020 0.930 . S
C1033 C1032 1.388 . S
C1033 C1034 1.390 . S
C1034 C1033 1.390 . S
C1034 C1035 1.394 . S
C1034 C1040 1.465 . S
C1035 C1030 1.399 . S
C1035 C1034 1.394 . S
C1035 C1036 1.516 . S
C1036 C1035 1.516 . S
C1036 C1037 1.502 . S
C1036 C1038 1.561 . S
C1036 C1039 1.526 . S
C1037 H1021 0.959 . S
C1037 H1022 0.959 . S
C1037 H1023 0.961 . S
C1037 C1036 1.502 . S
C1038 H1024 0.960 . S
C1038 H1025 0.961 . S
C1038 H1026 0.959 . S
C1038 C1036 1.561 . S
C1039 C1036 1.526 . S
C1039 C1040 1.396 . S
C1039 C1044 1.390 . S
C1040 C1034 1.465 . S
C1040 C1039 1.396 . S
C1040 C1041 1.399 . S
C1041 H1027 0.929 . S
C1041 C1040 1.399 . S
C1041 C1042 1.385 . S
C1042 H1028 0.931 . S
C1042 C1041 1.385 . S
C1042 C1043 1.389 . S
C1043 C1042 1.389 . S
C1043 C1044 1.387 . S
C1044 H1029 0.930 . S
C1044 C1039 1.390 . S
C1044 C1043 1.387 . S
H1045 C1057 0.930 . S
H1046 C1059 0.930 . S
H1047 C1060 0.930 . S
H1048 C1064 0.959 . S
H1049 C1064 0.959 . S
H1050 C1064 0.961 . S
H1051 C1065 0.960 . S
H1052 C1065 0.961 . S
H1053 C1065 0.959 . S
H1054 C1068 0.929 . S
H1055 C1069 0.931 . S
H1056 C1071 0.930 . S
C1057 H1045 0.930 . S
C1057 C1058 1.399 . S
C1057 C1062 1.399 . S
C1058 C1057 1.399 . S
C1058 C1059 1.376 . S
C1059 H1046 0.930 . S
C1059 C1058 1.376 . S
C1059 C1060 1.388 . S
C1060 H1047 0.930 . S
C1060 C1059 1.388 . S
C1060 C1061 1.390 . S
C1061 C1060 1.390 . S
C1061 C1062 1.394 . S
C1061 C1067 1.465 . S
C1062 C1057 1.399 . S
C1062 C1061 1.394 . S
C1062 C1063 1.516 . S
C1063 C1062 1.516 . S
C1063 C1064 1.502 . S
C1063 C1065 1.561 . S
C1063 C1066 1.526 . S
C1064 H1048 0.959 . S
C1064 H1049 0.959 . S
C1064 H1050 0.961 . S
C1064 C1063 1.502 . S
C1065 H1051 0.960 . S
C1065 H1052 0.961 . S
C1065 H1053 0.959 . S
C1065 C1063 1.561 . S
C1066 C1063 1.526 . S
C1066 C1067 1.396 . S
C1066 C1071 1.390 . S
C1067 C1061 1.465 . S
C1067 C1066 1.396 . S
C1067 C1068 1.399 . S
C1068 H1054 0.929 . S
C1068 C1067 1.399 . S
C1068 C1069 1.385 . S
C1069 H1055 0.931 . S
C1069 C1068 1.385 . S
C1069 C1070 1.389 . S
C1070 C1069 1.389 . S
C1070 C1071 1.387 . S
C1071 H1056 0.930 . S
C1071 C1066 1.390 . S
C1071 C1070 1.387 . S
H1072 C1084 0.930 . S
H1073 C1086 0.930 . S
H1074 C1087 0.930 . S
H1075 C1091 0.959 . S
H1076 C1091 0.959 . S
H1077 C1091 0.961 . S
H1078 C1092 0.960 . S
H1079 C1092 0.961 . S
H1080 C1092 0.959 . S
H1081 C1095 0.929 . S
H1082 C1096 0.931 . S
H1083 C1098 0.930 . S
C1084 H1072 0.930 . S
C1084 C1085 1.399 . S
C1084 C1089 1.399 . S
C1085 C1084 1.399 . S
C1085 C1086 1.376 . S
C1086 H1073 0.930 . S
C1086 C1085 1.376 . S
C1086 C1087 1.388 . S
C1087 H1074 0.930 . S
C1087 C1086 1.388 . S
C1087 C1088 1.390 . S
C1088 C1087 1.390 . S
C1088 C1089 1.394 . S
C1088 C1094 1.465 . S
C1089 C1084 1.399 . S
C1089 C1088 1.394 . S
C1089 C1090 1.516 . S
C1090 C1089 1.516 . S
C1090 C1091 1.502 . S
C1090 C1092 1.561 . S
C1090 C1093 1.526 . S
C1091 H1075 0.959 . S
C1091 H1076 0.959 . S
C1091 H1077 0.961 . S
C1091 C1090 1.502 . S
C1092 H1078 0.960 . S
C1092 H1079 0.961 . S
C1092 H1080 0.959 . S
C1092 C1090 1.561 . S
C1093 C1090 1.526 . S
C1093 C1094 1.396 . S
C1093 C1098 1.390 . S
C1094 C1088 1.465 . S
C1094 C1093 1.396 . S
C1094 C1095 1.399 . S
C1095 H1081 0.929 . S
C1095 C1094 1.399 . S
C1095 C1096 1.385 . S
C1096 H1082 0.931 . S
C1096 C1095 1.385 . S
C1096 C1097 1.389 . S
C1097 C1096 1.389 . S
C1097 C1098 1.387 . S
C1098 H1083 0.930 . S
C1098 C1093 1.390 . S
C1098 C1097 1.387 . S
H1099 C1111 0.930 . S
H1100 C1113 0.930 . S
H1101 C1114 0.930 . S
H1102 C1118 0.959 . S
H1103 C1118 0.959 . S
H1104 C1118 0.961 . S
H1105 C1119 0.960 . S
H1106 C1119 0.961 . S
H1107 C1119 0.959 . S
H1108 C1122 0.929 . S
H1109 C1123 0.931 . S
H1110 C1125 0.930 . S
C1111 H1099 0.930 . S
C1111 C1112 1.399 . S
C1111 C1116 1.399 . S
C1112 C1111 1.399 . S
C1112 C1113 1.376 . S
C1113 H1100 0.930 . S
C1113 C1112 1.376 . S
C1113 C1114 1.388 . S
C1114 H1101 0.930 . S
C1114 C1113 1.388 . S
C1114 C1115 1.390 . S
C1115 C1114 1.390 . S
C1115 C1116 1.394 . S
C1115 C1121 1.465 . S
C1116 C1111 1.399 . S
C1116 C1115 1.394 . S
C1116 C1117 1.516 . S
C1117 C1116 1.516 . S
C1117 C1118 1.502 . S
C1117 C1119 1.561 . S
C1117 C1120 1.526 . S
C1118 H1102 0.959 . S
C1118 H1103 0.959 . S
C1118 H1104 0.961 . S
C1118 C1117 1.502 . S
C1119 H1105 0.960 . S
C1119 H1106 0.961 . S
C1119 H1107 0.959 . S
C1119 C1117 1.561 . S
C1120 C1117 1.526 . S
C1120 C1121 1.396 . S
C1120 C1125 1.390 . S
C1121 C1115 1.465 . S
C1121 C1120 1.396 . S
C1121 C1122 1.399 . S
C1122 H1108 0.929 . S
C1122 C1121 1.399 . S
C1122 C1123 1.385 . S
C1123 H1109 0.931 . S
C1123 C1122 1.385 . S
C1123 C1124 1.389 . S
C1124 C1123 1.389 . S
C1124 C1125 1.387 . S
C1125 H1110 0.930 . S
C1125 C1120 1.390 . S
C1125 C1124 1.387 . S
H1126 C1138 0.930 . S
H1127 C1140 0.930 . S
H1128 C1141 0.930 . S
H1129 C1145 0.959 . S
H1130 C1145 0.959 . S
H1131 C1145 0.961 . S
H1132 C1146 0.960 . S
H1133 C1146 0.961 . S
H1134 C1146 0.959 . S
H1135 C1149 0.929 . S
H1136 C1150 0.931 . S
H1137 C1152 0.930 . S
C1138 H1126 0.930 . S
C1138 C1139 1.399 . S
C1138 C1143 1.399 . S
C1139 C1138 1.399 . S
C1139 C1140 1.376 . S
C1140 H1127 0.930 . S
C1140 C1139 1.376 . S
C1140 C1141 1.388 . S
C1141 H1128 0.930 . S
C1141 C1140 1.388 . S
C1141 C1142 1.390 . S
C1142 C1141 1.390 . S
C1142 C1143 1.394 . S
C1142 C1148 1.465 . S
C1143 C1138 1.399 . S
C1143 C1142 1.394 . S
C1143 C1144 1.516 . S
C1144 C1143 1.516 . S
C1144 C1145 1.502 . S
C1144 C1146 1.561 . S
C1144 C1147 1.526 . S
C1145 H1129 0.959 . S
C1145 H1130 0.959 . S
C1145 H1131 0.961 . S
C1145 C1144 1.502 . S
C1146 H1132 0.960 . S
C1146 H1133 0.961 . S
C1146 H1134 0.959 . S
C1146 C1144 1.561 . S
C1147 C1144 1.526 . S
C1147 C1148 1.396 . S
C1147 C1152 1.390 . S
C1148 C1142 1.465 . S
C1148 C1147 1.396 . S
C1148 C1149 1.399 . S
C1149 H1135 0.929 . S
C1149 C1148 1.399 . S
C1149 C1150 1.385 . S
C1150 H1136 0.931 . S
C1150 C1149 1.385 . S
C1150 C1151 1.389 . S
C1151 C1150 1.389 . S
C1151 C1152 1.387 . S
C1152 H1137 0.930 . S
C1152 C1147 1.390 . S
C1152 C1151 1.387 . S
H1153 C1165 0.930 . S
H1154 C1167 0.930 . S
H1155 C1168 0.930 . S
H1156 C1172 0.959 . S
H1157 C1172 0.959 . S
H1158 C1172 0.961 . S
H1159 C1173 0.960 . S
H1160 C1173 0.961 . S
H1161 C1173 0.959 . S
H1162 C1176 0.929 . S
H1163 C1177 0.931 . S
H1164 C1179 0.930 . S
C1165 H1153 0.930 . S
C1165 C1166 1.399 . S
C1165 C1170 1.399 . S
C1166 C1165 1.399 . S
C1166 C1167 1.376 . S
C1167 H1154 0.930 . S
C1167 C1166 1.376 . S
C1167 C1168 1.388 . S
C1168 H1155 0.930 . S
C1168 C1167 1.388 . S
C1168 C1169 1.390 . S
C1169 C1168 1.390 . S
C1169 C1170 1.394 . S
C1169 C1175 1.465 . S
C1170 C1165 1.399 . S
C1170 C1169 1.394 . S
C1170 C1171 1.516 . S
C1171 C1170 1.516 . S
C1171 C1172 1.502 . S
C1171 C1173 1.561 . S
C1171 C1174 1.526 . S
C1172 H1156 0.959 . S
C1172 H1157 0.959 . S
C1172 H1158 0.961 . S
C1172 C1171 1.502 . S
C1173 H1159 0.960 . S
C1173 H1160 0.961 . S
C1173 H1161 0.959 . S
C1173 C1171 1.561 . S
C1174 C1171 1.526 . S
C1174 C1175 1.396 . S
C1174 C1179 1.390 . S
C1175 C1169 1.465 . S
C1175 C1174 1.396 . S
C1175 C1176 1.399 . S
C1176 H1162 0.929 . S
C1176 C1175 1.399 . S
C1176 C1177 1.385 . S
C1177 H1163 0.931 . S
C1177 C1176 1.385 . S
C1177 C1178 1.389 . S
C1178 C1177 1.389 . S
C1178 C1179 1.387 . S
C1179 H1164 0.930 . S
C1179 C1174 1.390 . S
C1179 C1178 1.387 . S
H1180 C1192 0.930 . S
H1181 C1194 0.930 . S
H1182 C1195 0.930 . S
H1183 C1199 0.959 . S
H1184 C1199 0.959 . S
H1185 C1199 0.961 . S
H1186 C1200 0.960 . S
H1187 C1200 0.961 . S
H1188 C1200 0.959 . S
H1189 C1203 0.929 . S
H1190 C1204 0.931 . S
H1191 C1206 0.930 . S
C1192 H1180 0.930 . S
C1192 C1193 1.399 . S
C1192 C1197 1.399 . S
C1193 C1192 1.399 . S
C1193 C1194 1.376 . S
C1194 H1181 0.930 . S
C1194 C1193 1.376 . S
C1194 C1195 1.388 . S
C1195 H1182 0.930 . S
C1195 C1194 1.388 . S
C1195 C1196 1.390 . S
C1196 C1195 1.390 . S
C1196 C1197 1.394 . S
C1196 C1202 1.465 . S
C1197 C1192 1.399 . S
C1197 C1196 1.394 . S
C1197 C1198 1.516 . S
C1198 C1197 1.516 . S
C1198 C1199 1.502 . S
C1198 C1200 1.561 . S
C1198 C1201 1.526 . S
C1199 H1183 0.959 . S
C1199 H1184 0.959 . S
C1199 H1185 0.961 . S
C1199 C1198 1.502 . S
C1200 H1186 0.960 . S
C1200 H1187 0.961 . S
C1200 H1188 0.959 . S
C1200 C1198 1.561 . S
C1201 C1198 1.526 . S
C1201 C1202 1.396 . S
C1201 C1206 1.390 . S
C1202 C1196 1.465 . S
C1202 C1201 1.396 . S
C1202 C1203 1.399 . S
C1203 H1189 0.929 . S
C1203 C1202 1.399 . S
C1203 C1204 1.385 . S
C1204 H1190 0.931 . S
C1204 C1203 1.385 . S
C1204 C1205 1.389 . S
C1205 C1204 1.389 . S
C1205 C1206 1.387 . S
C1206 H1191 0.930 . S
C1206 C1201 1.390 . S
C1206 C1205 1.387 . S
H1207 C1219 0.930 . S
H1208 C1221 0.930 . S
H1209 C1222 0.930 . S
H1210 C1226 0.959 . S
H1211 C1226 0.959 . S
H1212 C1226 0.961 . S
H1213 C1227 0.960 1_455 S
H1214 C1227 0.961 . S
H1215 C1227 0.959 . S
H1216 C1230 0.929 . S
H1217 C1231 0.931 . S
H1218 C1233 0.930 . S
C1219 H1207 0.930 . S
C1219 C1220 1.399 . S
C1219 C1224 1.399 . S
C1220 C1219 1.399 . S
C1220 C1221 1.376 1_455 S
C1221 H1208 0.930 . S
C1221 C1220 1.376 1_655 S
C1221 C1222 1.388 . S
C1222 H1209 0.930 . S
C1222 C1221 1.388 . S
C1222 C1223 1.390 . S
C1223 C1222 1.390 . S
C1223 C1224 1.394 1_655 S
C1223 C1229 1.465 . S
C1224 C1219 1.399 . S
C1224 C1223 1.394 1_455 S
C1224 C1225 1.516 . S
C1225 C1224 1.516 . S
C1225 C1226 1.502 . S
C1225 C1227 1.561 1_455 S
C1225 C1228 1.526 1_455 S
C1226 H1210 0.959 . S
C1226 H1211 0.959 . S
C1226 H1212 0.961 . S
C1226 C1225 1.502 . S
C1227 H1213 0.960 1_655 S
C1227 H1214 0.961 . S
C1227 H1215 0.959 . S
C1227 C1225 1.561 1_655 S
C1228 C1225 1.526 1_655 S
C1228 C1229 1.396 . S
C1228 C1233 1.390 . S
C1229 C1223 1.465 . S
C1229 C1228 1.396 . S
C1229 C1230 1.399 . S
C1230 H1216 0.929 . S
C1230 C1229 1.399 . S
C1230 C1231 1.385 . S
C1231 H1217 0.931 . S
C1231 C1230 1.385 . S
C1231 C1232 1.389 . S
C1232 C1231 1.389 . S
C1232 C1233 1.387 . S
C1233 H1218 0.930 . S
C1233 C1228 1.390 . S
C1233 C1232 1.387 . S
H1234 C1246 0.930 . S
H1235 C1248 0.930 . S
H1236 C1249 0.930 . S
H1237 C1253 0.959 . S
H1238 C1253 0.959 . S
H1239 C1253 0.961 . S
H1240 C1254 0.960 . S
H1241 C1254 0.961 . S
H1242 C1254 0.959 . S
H1243 C1257 0.929 . S
H1244 C1258 0.931 . S
H1245 C1260 0.930 . S
C1246 H1234 0.930 . S
C1246 C1247 1.399 . S
C1246 C1251 1.399 . S
C1247 C1246 1.399 . S
C1247 C1248 1.376 . S
C1248 H1235 0.930 . S
C1248 C1247 1.376 . S
C1248 C1249 1.388 . S
C1249 H1236 0.930 . S
C1249 C1248 1.388 . S
C1249 C1250 1.390 . S
C1250 C1249 1.390 . S
C1250 C1251 1.394 . S
C1250 C1256 1.465 . S
C1251 C1246 1.399 . S
C1251 C1250 1.394 . S
C1251 C1252 1.516 . S
C1252 C1251 1.516 . S
C1252 C1253 1.502 . S
C1252 C1254 1.561 . S
C1252 C1255 1.526 . S
C1253 H1237 0.959 . S
C1253 H1238 0.959 . S
C1253 H1239 0.961 . S
C1253 C1252 1.502 . S
C1254 H1240 0.960 . S
C1254 H1241 0.961 . S
C1254 H1242 0.959 . S
C1254 C1252 1.561 . S
C1255 C1252 1.526 . S
C1255 C1256 1.396 . S
C1255 C1260 1.390 . S
C1256 C1250 1.465 . S
C1256 C1255 1.396 . S
C1256 C1257 1.399 . S
C1257 H1243 0.929 . S
C1257 C1256 1.399 . S
C1257 C1258 1.385 . S
C1258 H1244 0.931 . S
C1258 C1257 1.385 . S
C1258 C1259 1.389 . S
C1259 C1258 1.389 . S
C1259 C1260 1.387 . S
C1260 H1245 0.930 . S
C1260 C1255 1.390 . S
C1260 C1259 1.387 . S
H1261 C1273 0.930 . S
H1262 C1275 0.930 . S
H1263 C1276 0.930 . S
H1264 C1280 0.959 . S
H1265 C1280 0.959 . S
H1266 C1280 0.961 . S
H1267 C1281 0.960 . S
H1268 C1281 0.961 . S
H1269 C1281 0.959 . S
H1270 C1284 0.929 . S
H1271 C1285 0.931 . S
H1272 C1287 0.930 . S
C1273 H1261 0.930 . S
C1273 C1274 1.399 . S
C1273 C1278 1.399 . S
C1274 C1273 1.399 . S
C1274 C1275 1.376 . S
C1275 H1262 0.930 . S
C1275 C1274 1.376 . S
C1275 C1276 1.388 . S
C1276 H1263 0.930 . S
C1276 C1275 1.388 . S
C1276 C1277 1.390 . S
C1277 C1276 1.390 . S
C1277 C1278 1.394 . S
C1277 C1283 1.465 . S
C1278 C1273 1.399 . S
C1278 C1277 1.394 . S
C1278 C1279 1.516 . S
C1279 C1278 1.516 . S
C1279 C1280 1.502 . S
C1279 C1281 1.561 . S
C1279 C1282 1.526 . S
C1280 H1264 0.959 . S
C1280 H1265 0.959 . S
C1280 H1266 0.961 . S
C1280 C1279 1.502 . S
C1281 H1267 0.960 . S
C1281 H1268 0.961 . S
C1281 H1269 0.959 . S
C1281 C1279 1.561 . S
C1282 C1279 1.526 . S
C1282 C1283 1.396 . S
C1282 C1287 1.390 . S
C1283 C1277 1.465 . S
C1283 C1282 1.396 . S
C1283 C1284 1.399 . S
C1284 H1270 0.929 . S
C1284 C1283 1.399 . S
C1284 C1285 1.385 . S
C1285 H1271 0.931 . S
C1285 C1284 1.385 . S
C1285 C1286 1.389 . S
C1286 C1285 1.389 . S
C1286 C1287 1.387 . S
C1287 H1272 0.930 . S
C1287 C1282 1.390 . S
C1287 C1286 1.387 . S
H1288 C1300 0.930 . S
H1289 C1302 0.930 . S
H1290 C1303 0.930 . S
H1291 C1307 0.959 . S
H1292 C1307 0.959 . S
H1293 C1307 0.961 . S
H1294 C1308 0.960 . S
H1295 C1308 0.961 . S
H1296 C1308 0.959 . S
H1297 C1311 0.929 . S
H1298 C1312 0.931 . S
H1299 C1314 0.930 . S
C1300 H1288 0.930 . S
C1300 C1301 1.399 . S
C1300 C1305 1.399 . S
C1301 C1300 1.399 . S
C1301 C1302 1.376 . S
C1302 H1289 0.930 . S
C1302 C1301 1.376 . S
C1302 C1303 1.388 . S
C1303 H1290 0.930 . S
C1303 C1302 1.388 . S
C1303 C1304 1.390 . S
C1304 C1303 1.390 . S
C1304 C1305 1.394 . S
C1304 C1310 1.465 . S
C1305 C1300 1.399 . S
C1305 C1304 1.394 . S
C1305 C1306 1.516 . S
C1306 C1305 1.516 . S
C1306 C1307 1.502 . S
C1306 C1308 1.561 . S
C1306 C1309 1.526 . S
C1307 H1291 0.959 . S
C1307 H1292 0.959 . S
C1307 H1293 0.961 . S
C1307 C1306 1.502 . S
C1308 H1294 0.960 . S
C1308 H1295 0.961 . S
C1308 H1296 0.959 . S
C1308 C1306 1.561 . S
C1309 C1306 1.526 . S
C1309 C1310 1.396 . S
C1309 C1314 1.390 . S
C1310 C1304 1.465 . S
C1310 C1309 1.396 . S
C1310 C1311 1.399 . S
C1311 H1297 0.929 . S
C1311 C1310 1.399 . S
C1311 C1312 1.385 . S
C1312 H1298 0.931 . S
C1312 C1311 1.385 . S
C1312 C1313 1.389 . S
C1313 C1312 1.389 . S
C1313 C1314 1.387 . S
C1314 H1299 0.930 . S
C1314 C1309 1.390 . S
C1314 C1313 1.387 . S
H1315 C1327 0.930 . S
H1316 C1329 0.930 . S
H1317 C1330 0.930 . S
H1318 C1334 0.959 . S
H1319 C1334 0.959 . S
H1320 C1334 0.961 . S
H1321 C1335 0.960 . S
H1322 C1335 0.961 . S
H1323 C1335 0.959 . S
H1324 C1338 0.929 . S
H1325 C1339 0.931 . S
H1326 C1341 0.930 . S
C1327 H1315 0.930 . S
C1327 C1328 1.399 . S
C1327 C1332 1.399 . S
C1328 C1327 1.399 . S
C1328 C1329 1.376 . S
C1329 H1316 0.930 . S
C1329 C1328 1.376 . S
C1329 C1330 1.388 . S
C1330 H1317 0.930 . S
C1330 C1329 1.388 . S
C1330 C1331 1.390 . S
C1331 C1330 1.390 . S
C1331 C1332 1.394 . S
C1331 C1337 1.465 . S
C1332 C1327 1.399 . S
C1332 C1331 1.394 . S
C1332 C1333 1.516 . S
C1333 C1332 1.516 . S
C1333 C1334 1.502 . S
C1333 C1335 1.561 . S
C1333 C1336 1.526 . S
C1334 H1318 0.959 . S
C1334 H1319 0.959 . S
C1334 H1320 0.961 . S
C1334 C1333 1.502 . S
C1335 H1321 0.960 . S
C1335 H1322 0.961 . S
C1335 H1323 0.959 . S
C1335 C1333 1.561 . S
C1336 C1333 1.526 . S
C1336 C1337 1.396 . S
C1336 C1341 1.390 . S
C1337 C1331 1.465 . S
C1337 C1336 1.396 . S
C1337 C1338 1.399 . S
C1338 H1324 0.929 . S
C1338 C1337 1.399 . S
C1338 C1339 1.385 . S
C1339 H1325 0.931 . S
C1339 C1338 1.385 . S
C1339 C1340 1.389 . S
C1340 C1339 1.389 . S
C1340 C1341 1.387 . S
C1341 H1326 0.930 . S
C1341 C1336 1.390 . S
C1341 C1340 1.387 . S
H1342 C1354 0.930 . S
H1343 C1356 0.930 . S
H1344 C1357 0.930 . S
H1345 C1361 0.959 1_565 S
H1346 C1361 0.959 . S
H1347 C1361 0.961 . S
H1348 C1362 0.960 . S
H1349 C1362 0.961 . S
H1350 C1362 0.959 . S
H1351 C1365 0.929 . S
H1352 C1366 0.930 . S
H1353 C1368 0.930 . S
C1354 H1342 0.930 . S
C1354 C1355 1.399 1_545 S
C1354 C1359 1.399 . S
C1355 C1354 1.399 1_565 S
C1355 C1356 1.376 . S
C1356 H1343 0.930 . S
C1356 C1355 1.376 . S
C1356 C1357 1.388 . S
C1357 H1344 0.930 . S
C1357 C1356 1.388 . S
C1357 C1358 1.390 . S
C1358 C1357 1.390 . S
C1358 C1359 1.394 1_565 S
C1358 C1364 1.465 1_565 S
C1359 C1354 1.399 . S
C1359 C1358 1.394 1_545 S
C1359 C1360 1.516 . S
C1360 C1359 1.516 . S
C1360 C1361 1.502 . S
C1360 C1362 1.561 . S
C1360 C1363 1.526 . S
C1361 H1345 0.959 1_545 S
C1361 H1346 0.959 . S
C1361 H1347 0.961 . S
C1361 C1360 1.502 . S
C1362 H1348 0.960 . S
C1362 H1349 0.961 . S
C1362 H1350 0.959 . S
C1362 C1360 1.561 . S
C1363 C1360 1.526 . S
C1363 C1364 1.396 . S
C1363 C1368 1.390 . S
C1364 C1358 1.465 1_545 S
C1364 C1363 1.396 . S
C1364 C1365 1.399 1_545 S
C1365 H1351 0.929 . S
C1365 C1364 1.399 1_565 S
C1365 C1366 1.385 1_565 S
C1366 H1352 0.930 . S
C1366 C1365 1.385 1_545 S
C1366 C1367 1.389 . S
C1367 C1366 1.389 . S
C1367 C1368 1.387 . S
C1368 H1353 0.930 . S
C1368 C1363 1.390 . S
C1368 C1367 1.387 . S
H1369 C1381 0.930 . S
H1370 C1383 0.930 . S
H1371 C1384 0.930 . S
H1372 C1388 0.959 . S
H1373 C1388 0.959 . S
H1374 C1388 0.961 . S
H1375 C1389 0.960 . S
H1376 C1389 0.961 . S
H1377 C1389 0.959 1_554 S
H1378 C1392 0.929 . S
H1379 C1393 0.931 . S
H1380 C1395 0.930 . S
C1381 H1369 0.930 . S
C1381 C1382 1.399 1_556 S
C1381 C1386 1.399 1_556 S
C1382 C1381 1.399 1_554 S
C1382 C1383 1.376 . S
C1383 H1370 0.930 . S
C1383 C1382 1.376 . S
C1383 C1384 1.388 . S
C1384 H1371 0.930 . S
C1384 C1383 1.388 . S
C1384 C1385 1.390 . S
C1385 C1384 1.390 . S
C1385 C1386 1.394 . S
C1385 C1391 1.465 . S
C1386 C1381 1.399 1_554 S
C1386 C1385 1.394 . S
C1386 C1387 1.522 . S
C1387 C1386 1.522 . S
C1387 C1388 1.477 1_554 S
C1387 C1389 1.553 1_554 S
C1387 C1390 1.558 . S
C1388 H1372 0.959 . S
C1388 H1373 0.959 . S
C1388 H1374 0.961 . S
C1388 C1387 1.477 1_556 S
C1389 H1375 0.960 . S
C1389 H1376 0.961 . S
C1389 H1377 0.959 1_556 S
C1389 C1387 1.553 1_556 S
C1390 C1387 1.558 . S
C1390 C1391 1.396 . S
C1390 C1395 1.390 . S
C1391 C1385 1.465 . S
C1391 C1390 1.396 . S
C1391 C1392 1.399 . S
C1392 H1378 0.929 . S
C1392 C1391 1.399 . S
C1392 C1393 1.385 . S
C1393 H1379 0.931 . S
C1393 C1392 1.385 . S
C1393 C1394 1.389 . S
C1394 C1393 1.389 . S
C1394 C1395 1.387 . S
C1395 H1380 0.930 . S
C1395 C1390 1.390 . S
C1395 C1394 1.387 . S
H1396 C1408 0.930 . S
H1397 C1410 0.930 . S
H1398 C1411 0.930 . S
H1399 C1415 0.959 . S
H1400 C1415 0.959 . S
H1401 C1415 0.961 . S
H1402 C1416 0.960 . S
H1403 C1416 0.961 . S
H1404 C1416 0.959 . S
H1405 C1419 0.929 . S
H1406 C1420 0.931 . S
H1407 C1422 0.930 . S
C1408 H1396 0.930 . S
C1408 C1409 1.399 . S
C1408 C1413 1.399 . S
C1409 C1408 1.399 . S
C1409 C1410 1.376 . S
C1410 H1397 0.930 . S
C1410 C1409 1.376 . S
C1410 C1411 1.388 . S
C1411 H1398 0.930 . S
C1411 C1410 1.388 . S
C1411 C1412 1.390 . S
C1412 C1411 1.390 . S
C1412 C1413 1.394 . S
C1412 C1418 1.465 . S
C1413 C1408 1.399 . S
C1413 C1412 1.394 . S
C1413 C1414 1.516 . S
C1414 C1413 1.516 . S
C1414 C1415 1.502 . S
C1414 C1416 1.561 . S
C1414 C1417 1.526 . S
C1415 H1399 0.959 . S
C1415 H1400 0.959 . S
C1415 H1401 0.961 . S
C1415 C1414 1.502 . S
C1416 H1402 0.960 . S
C1416 H1403 0.961 . S
C1416 H1404 0.959 . S
C1416 C1414 1.561 . S
C1417 C1414 1.526 . S
C1417 C1418 1.396 . S
C1417 C1422 1.390 . S
C1418 C1412 1.465 . S
C1418 C1417 1.396 . S
C1418 C1419 1.399 . S
C1419 H1405 0.929 . S
C1419 C1418 1.399 . S
C1419 C1420 1.385 . S
C1420 H1406 0.931 . S
C1420 C1419 1.385 . S
C1420 C1421 1.389 . S
C1421 C1420 1.389 . S
C1421 C1422 1.387 . S
C1422 H1407 0.930 . S
C1422 C1417 1.390 . S
C1422 C1421 1.387 . S
H1423 C1435 0.930 . S
H1424 C1437 0.930 . S
H1425 C1438 0.930 . S
H1426 C1442 0.959 . S
H1427 C1442 0.959 . S
H1428 C1442 0.961 . S
H1429 C1443 0.960 . S
H1430 C1443 0.961 . S
H1431 C1443 0.959 . S
H1432 C1446 0.929 . S
H1433 C1447 0.931 . S
H1434 C1449 0.930 . S
C1435 H1423 0.930 . S
C1435 C1436 1.399 . S
C1435 C1440 1.399 . S
C1436 C1435 1.399 . S
C1436 C1437 1.376 . S
C1437 H1424 0.930 . S
C1437 C1436 1.376 . S
C1437 C1438 1.388 . S
C1438 H1425 0.930 . S
C1438 C1437 1.388 . S
C1438 C1439 1.390 . S
C1439 C1438 1.390 . S
C1439 C1440 1.394 . S
C1439 C1445 1.465 . S
C1440 C1435 1.399 . S
C1440 C1439 1.394 . S
C1440 C1441 1.516 . S
C1441 C1440 1.516 . S
C1441 C1442 1.502 . S
C1441 C1443 1.561 . S
C1441 C1444 1.526 . S
C1442 H1426 0.959 . S
C1442 H1427 0.959 . S
C1442 H1428 0.961 . S
C1442 C1441 1.502 . S
C1443 H1429 0.960 . S
C1443 H1430 0.961 . S
C1443 H1431 0.959 . S
C1443 C1441 1.561 . S
C1444 C1441 1.526 . S
C1444 C1445 1.396 . S
C1444 C1449 1.390 . S
C1445 C1439 1.465 . S
C1445 C1444 1.396 . S
C1445 C1446 1.399 . S
C1446 H1432 0.929 . S
C1446 C1445 1.399 . S
C1446 C1447 1.385 . S
C1447 H1433 0.931 . S
C1447 C1446 1.385 . S
C1447 C1448 1.389 . S
C1448 C1447 1.389 . S
C1448 C1449 1.387 . S
C1449 H1434 0.930 . S
C1449 C1444 1.390 . S
C1449 C1448 1.387 . S
H1450 C1462 0.930 . S
H1451 C1464 0.930 . S
H1452 C1465 0.930 . S
H1453 C1469 0.959 . S
H1454 C1469 0.959 . S
H1455 C1469 0.961 . S
H1456 C1470 0.960 . S
H1457 C1470 0.961 . S
H1458 C1470 0.959 . S
H1459 C1473 0.929 . S
H1460 C1474 0.931 . S
H1461 C1476 0.930 . S
C1462 H1450 0.930 . S
C1462 C1463 1.399 . S
C1462 C1467 1.399 . S
C1463 C1462 1.399 . S
C1463 C1464 1.376 . S
C1464 H1451 0.930 . S
C1464 C1463 1.376 . S
C1464 C1465 1.388 . S
C1465 H1452 0.930 . S
C1465 C1464 1.388 . S
C1465 C1466 1.390 . S
C1466 C1465 1.390 . S
C1466 C1467 1.394 . S
C1466 C1472 1.465 . S
C1467 C1462 1.399 . S
C1467 C1466 1.394 . S
C1467 C1468 1.516 . S
C1468 C1467 1.516 . S
C1468 C1469 1.502 . S
C1468 C1470 1.561 . S
C1468 C1471 1.526 . S
C1469 H1453 0.959 . S
C1469 H1454 0.959 . S
C1469 H1455 0.961 . S
C1469 C1468 1.502 . S
C1470 H1456 0.960 . S
C1470 H1457 0.961 . S
C1470 H1458 0.959 . S
C1470 C1468 1.561 . S
C1471 C1468 1.526 . S
C1471 C1472 1.396 . S
C1471 C1476 1.390 . S
C1472 C1466 1.465 . S
C1472 C1471 1.396 . S
C1472 C1473 1.399 . S
C1473 H1459 0.929 . S
C1473 C1472 1.399 . S
C1473 C1474 1.385 . S
C1474 H1460 0.931 . S
C1474 C1473 1.385 . S
C1474 C1475 1.389 . S
C1475 C1474 1.389 . S
C1475 C1476 1.387 . S
C1476 H1461 0.930 . S
C1476 C1471 1.390 . S
C1476 C1475 1.387 . S
H1477 C1489 0.930 . S
H1478 C1491 0.930 . S
H1479 C1492 0.930 . S
H1480 C1496 0.959 . S
H1481 C1496 0.959 . S
H1482 C1496 0.961 . S
H1483 C1497 0.960 . S
H1484 C1497 0.961 . S
H1485 C1497 0.959 . S
H1486 C1500 0.929 . S
H1487 C1501 0.931 . S
H1488 C1503 0.930 . S
C1489 H1477 0.930 . S
C1489 C1490 1.399 . S
C1489 C1494 1.399 . S
C1490 C1489 1.399 . S
C1490 C1491 1.376 . S
C1491 H1478 0.930 . S
C1491 C1490 1.376 . S
C1491 C1492 1.388 . S
C1492 H1479 0.930 . S
C1492 C1491 1.388 . S
C1492 C1493 1.390 . S
C1493 C1492 1.390 . S
C1493 C1494 1.394 . S
C1493 C1499 1.465 . S
C1494 C1489 1.399 . S
C1494 C1493 1.394 . S
C1494 C1495 1.516 . S
C1495 C1494 1.516 . S
C1495 C1496 1.502 . S
C1495 C1497 1.561 . S
C1495 C1498 1.526 . S
C1496 H1480 0.959 . S
C1496 H1481 0.959 . S
C1496 H1482 0.961 . S
C1496 C1495 1.502 . S
C1497 H1483 0.960 . S
C1497 H1484 0.961 . S
C1497 H1485 0.959 . S
C1497 C1495 1.561 . S
C1498 C1495 1.526 . S
C1498 C1499 1.396 . S
C1498 C1503 1.390 . S
C1499 C1493 1.465 . S
C1499 C1498 1.396 . S
C1499 C1500 1.399 . S
C1500 H1486 0.929 . S
C1500 C1499 1.399 . S
C1500 C1501 1.385 . S
C1501 H1487 0.931 . S
C1501 C1500 1.385 . S
C1501 C1502 1.389 . S
C1502 C1501 1.389 . S
C1502 C1503 1.387 . S
C1503 H1488 0.930 . S
C1503 C1498 1.390 . S
C1503 C1502 1.387 . S
H1504 C1516 0.930 . S
H1505 C1518 0.930 . S
H1506 C1519 0.930 . S
H1507 C1523 0.959 . S
H1508 C1523 0.959 . S
H1509 C1523 0.961 . S
H1510 C1524 0.960 . S
H1511 C1524 0.961 . S
H1512 C1524 0.959 . S
H1513 C1527 0.929 . S
H1514 C1528 0.931 . S
H1515 C1530 0.930 . S
C1516 H1504 0.930 . S
C1516 C1517 1.399 . S
C1516 C1521 1.399 . S
C1517 C1516 1.399 . S
C1517 C1518 1.376 . S
C1518 H1505 0.930 . S
C1518 C1517 1.376 . S
C1518 C1519 1.388 . S
C1519 H1506 0.930 . S
C1519 C1518 1.388 . S
C1519 C1520 1.390 . S
C1520 C1519 1.390 . S
C1520 C1521 1.394 . S
C1520 C1526 1.465 . S
C1521 C1516 1.399 . S
C1521 C1520 1.394 . S
C1521 C1522 1.516 . S
C1522 C1521 1.516 . S
C1522 C1523 1.502 . S
C1522 C1524 1.561 . S
C1522 C1525 1.526 . S
C1523 H1507 0.959 . S
C1523 H1508 0.959 . S
C1523 H1509 0.961 . S
C1523 C1522 1.502 . S
C1524 H1510 0.960 . S
C1524 H1511 0.961 . S
C1524 H1512 0.959 . S
C1524 C1522 1.561 . S
C1525 C1522 1.526 . S
C1525 C1526 1.396 . S
C1525 C1530 1.390 . S
C1526 C1520 1.465 . S
C1526 C1525 1.396 . S
C1526 C1527 1.399 . S
C1527 H1513 0.929 . S
C1527 C1526 1.399 . S
C1527 C1528 1.385 . S
C1528 H1514 0.931 . S
C1528 C1527 1.385 . S
C1528 C1529 1.389 . S
C1529 C1528 1.389 . S
C1529 C1530 1.387 . S
C1530 H1515 0.930 . S
C1530 C1525 1.390 . S
C1530 C1529 1.387 . S
H1531 C1543 0.930 . S
H1532 C1545 0.930 . S
H1533 C1546 0.930 . S
H1534 C1550 0.959 . S
H1535 C1550 0.959 . S
H1536 C1550 0.961 . S
H1537 C1551 0.960 . S
H1538 C1551 0.961 . S
H1539 C1551 0.959 . S
H1540 C1554 0.929 . S
H1541 C1555 0.931 . S
H1542 C1557 0.930 . S
C1543 H1531 0.930 . S
C1543 C1544 1.399 . S
C1543 C1548 1.399 . S
C1544 C1543 1.399 . S
C1544 C1545 1.376 . S
C1545 H1532 0.930 . S
C1545 C1544 1.376 . S
C1545 C1546 1.388 . S
C1546 H1533 0.930 . S
C1546 C1545 1.388 . S
C1546 C1547 1.390 . S
C1547 C1546 1.390 . S
C1547 C1548 1.394 . S
C1547 C1553 1.465 . S
C1548 C1543 1.399 . S
C1548 C1547 1.394 . S
C1548 C1549 1.516 . S
C1549 C1548 1.516 . S
C1549 C1550 1.502 . S
C1549 C1551 1.561 . S
C1549 C1552 1.526 . S
C1550 H1534 0.959 . S
C1550 H1535 0.959 . S
C1550 H1536 0.961 . S
C1550 C1549 1.502 . S
C1551 H1537 0.960 . S
C1551 H1538 0.961 . S
C1551 H1539 0.959 . S
C1551 C1549 1.561 . S
C1552 C1549 1.526 . S
C1552 C1553 1.396 . S
C1552 C1557 1.390 . S
C1553 C1547 1.465 . S
C1553 C1552 1.396 . S
C1553 C1554 1.399 . S
C1554 H1540 0.929 . S
C1554 C1553 1.399 . S
C1554 C1555 1.385 . S
C1555 H1541 0.931 . S
C1555 C1554 1.385 . S
C1555 C1556 1.389 . S
C1556 C1555 1.389 . S
C1556 C1557 1.387 . S
C1557 H1542 0.930 . S
C1557 C1552 1.390 . S
C1557 C1556 1.387 . S
H1558 C1570 0.930 . S
H1559 C1572 0.930 . S
H1560 C1573 0.930 . S
H1561 C1577 0.959 . S
H1562 C1577 0.959 . S
H1563 C1577 0.961 . S
H1564 C1578 0.960 . S
H1565 C1578 0.961 . S
H1566 C1578 0.959 . S
H1567 C1581 0.929 . S
H1568 C1582 0.931 . S
H1569 C1584 0.930 . S
C1570 H1558 0.930 . S
C1570 C1571 1.399 . S
C1570 C1575 1.399 . S
C1571 C1570 1.399 . S
C1571 C1572 1.376 . S
C1572 H1559 0.930 . S
C1572 C1571 1.376 . S
C1572 C1573 1.388 . S
C1573 H1560 0.930 . S
C1573 C1572 1.388 . S
C1573 C1574 1.390 . S
C1574 C1573 1.390 . S
C1574 C1575 1.394 . S
C1574 C1580 1.465 . S
C1575 C1570 1.399 . S
C1575 C1574 1.394 . S
C1575 C1576 1.516 . S
C1576 C1575 1.516 . S
C1576 C1577 1.502 . S
C1576 C1578 1.561 . S
C1576 C1579 1.526 . S
C1577 H1561 0.959 . S
C1577 H1562 0.959 . S
C1577 H1563 0.961 . S
C1577 C1576 1.502 . S
C1578 H1564 0.960 . S
C1578 H1565 0.961 . S
C1578 H1566 0.959 . S
C1578 C1576 1.561 . S
C1579 C1576 1.526 . S
C1579 C1580 1.396 . S
C1579 C1584 1.390 . S
C1580 C1574 1.465 . S
C1580 C1579 1.396 . S
C1580 C1581 1.399 . S
C1581 H1567 0.929 . S
C1581 C1580 1.399 . S
C1581 C1582 1.385 . S
C1582 H1568 0.931 . S
C1582 C1581 1.385 . S
C1582 C1583 1.389 . S
C1583 C1582 1.389 . S
C1583 C1584 1.387 . S
C1584 H1569 0.930 . S
C1584 C1579 1.390 . S
C1584 C1583 1.387 . S
H1585 C1597 0.930 . S
H1586 C1599 0.930 . S
H1587 C1600 0.930 . S
H1588 C1604 0.959 . S
H1589 C1604 0.959 . S
H1590 C1604 0.961 . S
H1591 C1605 0.960 . S
H1592 C1605 0.961 . S
H1593 C1605 0.959 . S
H1594 C1608 0.929 . S
H1595 C1609 0.931 . S
H1596 C1611 0.930 . S
C1597 H1585 0.930 . S
C1597 C1598 1.399 . S
C1597 C1602 1.399 . S
C1598 C1597 1.399 . S
C1598 C1599 1.376 . S
C1599 H1586 0.930 . S
C1599 C1598 1.376 . S
C1599 C1600 1.388 . S
C1600 H1587 0.930 . S
C1600 C1599 1.388 . S
C1600 C1601 1.390 . S
C1601 C1600 1.390 . S
C1601 C1602 1.394 . S
C1601 C1607 1.465 . S
C1602 C1597 1.399 . S
C1602 C1601 1.394 . S
C1602 C1603 1.516 . S
C1603 C1602 1.516 . S
C1603 C1604 1.502 . S
C1603 C1605 1.561 . S
C1603 C1606 1.526 . S
C1604 H1588 0.959 . S
C1604 H1589 0.959 . S
C1604 H1590 0.961 . S
C1604 C1603 1.502 . S
C1605 H1591 0.960 . S
C1605 H1592 0.961 . S
C1605 H1593 0.959 . S
C1605 C1603 1.561 . S
C1606 C1603 1.526 . S
C1606 C1607 1.396 . S
C1606 C1611 1.390 . S
C1607 C1601 1.465 . S
C1607 C1606 1.396 . S
C1607 C1608 1.399 . S
C1608 H1594 0.929 . S
C1608 C1607 1.399 . S
C1608 C1609 1.385 . S
C1609 H1595 0.931 . S
C1609 C1608 1.385 . S
C1609 C1610 1.389 . S
C1610 C1609 1.389 . S
C1610 C1611 1.387 . S
C1611 H1596 0.930 . S
C1611 C1606 1.390 . S
C1611 C1610 1.387 . S
H1612 C1624 0.930 . S
H1613 C1626 0.930 . S
H1614 C1627 0.930 . S
H1615 C1631 0.959 . S
H1616 C1631 0.959 1_556 S
H1617 C1631 0.961 1_556 S
H1618 C1632 0.960 . S
H1619 C1632 0.961 . S
H1620 C1632 0.959 . S
H1621 C1635 0.929 . S
H1622 C1636 0.931 . S
H1623 C1638 0.930 . S
C1624 H1612 0.930 . S
C1624 C1625 1.399 . S
C1624 C1629 1.399 . S
C1625 C1624 1.399 . S
C1625 C1626 1.376 . S
C1626 H1613 0.930 . S
C1626 C1625 1.376 . S
C1626 C1627 1.388 . S
C1627 H1614 0.930 . S
C1627 C1626 1.388 . S
C1627 C1628 1.390 . S
C1628 C1627 1.390 . S
C1628 C1629 1.394 . S
C1628 C1634 1.465 . S
C1629 C1624 1.399 . S
C1629 C1628 1.394 . S
C1629 C1630 1.516 . S
C1630 C1629 1.516 . S
C1630 C1631 1.502 . S
C1630 C1632 1.561 . S
C1630 C1633 1.526 . S
C1631 H1615 0.959 . S
C1631 H1616 0.959 1_554 S
C1631 H1617 0.961 1_554 S
C1631 C1630 1.502 . S
C1632 H1618 0.960 . S
C1632 H1619 0.961 . S
C1632 H1620 0.959 . S
C1632 C1630 1.561 . S
C1633 C1630 1.526 . S
C1633 C1634 1.396 . S
C1633 C1638 1.390 . S
C1634 C1628 1.465 . S
C1634 C1633 1.396 . S
C1634 C1635 1.399 . S
C1635 H1621 0.929 . S
C1635 C1634 1.399 . S
C1635 C1636 1.385 . S
C1636 H1622 0.931 . S
C1636 C1635 1.385 . S
C1636 C1637 1.389 . S
C1637 C1636 1.389 . S
C1637 C1638 1.387 . S
C1638 H1623 0.930 . S
C1638 C1633 1.390 . S
C1638 C1637 1.387 . S
H1639 C1651 0.930 . S
H1640 C1653 0.930 . S
H1641 C1654 0.930 . S
H1642 C1658 0.959 1_554 S
H1643 C1658 0.959 . S
H1644 C1658 0.961 . S
H1645 C1659 0.960 . S
H1646 C1659 0.961 . S
H1647 C1659 0.959 . S
H1648 C1662 0.929 . S
H1649 C1663 0.931 . S
H1650 C1665 0.930 1_556 S
C1651 H1639 0.930 . S
C1651 C1652 1.399 . S
C1651 C1656 1.399 . S
C1652 C1651 1.399 . S
C1652 C1653 1.376 . S
C1653 H1640 0.930 . S
C1653 C1652 1.376 . S
C1653 C1654 1.388 . S
C1654 H1641 0.930 . S
C1654 C1653 1.388 . S
C1654 C1655 1.390 . S
C1655 C1654 1.390 . S
C1655 C1656 1.394 . S
C1655 C1661 1.465 . S
C1656 C1651 1.399 . S
C1656 C1655 1.394 . S
C1656 C1657 1.516 . S
C1657 C1656 1.516 . S
C1657 C1658 1.502 1_554 S
C1657 C1659 1.561 1_554 S
C1657 C1660 1.526 . S
C1658 H1642 0.959 1_556 S
C1658 H1643 0.959 . S
C1658 H1644 0.961 . S
C1658 C1657 1.502 1_556 S
C1659 H1645 0.960 . S
C1659 H1646 0.961 . S
C1659 H1647 0.959 . S
C1659 C1657 1.561 1_556 S
C1660 C1657 1.526 . S
C1660 C1661 1.396 . S
C1660 C1665 1.390 . S
C1661 C1655 1.465 . S
C1661 C1660 1.396 . S
C1661 C1662 1.399 . S
C1662 H1648 0.929 . S
C1662 C1661 1.399 . S
C1662 C1663 1.385 . S
C1663 H1649 0.931 . S
C1663 C1662 1.385 . S
C1663 C1664 1.389 . S
C1664 C1663 1.389 . S
C1664 C1665 1.387 . S
C1665 H1650 0.930 1_554 S
C1665 C1660 1.390 . S
C1665 C1664 1.387 . S
H1666 C1678 0.930 . S
H1667 C1680 0.930 . S
H1668 C1681 0.930 . S
H1669 C1685 0.959 . S
H1670 C1685 0.959 . S
H1671 C1685 0.961 . S
H1672 C1686 0.960 . S
H1673 C1686 0.961 . S
H1674 C1686 0.959 . S
H1675 C1689 0.929 . S
H1676 C1690 0.931 . S
H1677 C1692 0.930 . S
C1678 H1666 0.930 . S
C1678 C1679 1.399 . S
C1678 C1683 1.399 . S
C1679 C1678 1.399 . S
C1679 C1680 1.376 . S
C1680 H1667 0.930 . S
C1680 C1679 1.376 . S
C1680 C1681 1.388 . S
C1681 H1668 0.930 . S
C1681 C1680 1.388 . S
C1681 C1682 1.390 . S
C1682 C1681 1.390 . S
C1682 C1683 1.394 . S
C1682 C1688 1.465 . S
C1683 C1678 1.399 . S
C1683 C1682 1.394 . S
C1683 C1684 1.516 . S
C1684 C1683 1.516 . S
C1684 C1685 1.502 . S
C1684 C1686 1.561 . S
C1684 C1687 1.526 . S
C1685 H1669 0.959 . S
C1685 H1670 0.959 . S
C1685 H1671 0.961 . S
C1685 C1684 1.502 . S
C1686 H1672 0.960 . S
C1686 H1673 0.961 . S
C1686 H1674 0.959 . S
C1686 C1684 1.561 . S
C1687 C1684 1.526 . S
C1687 C1688 1.396 . S
C1687 C1692 1.390 . S
C1688 C1682 1.465 . S
C1688 C1687 1.396 . S
C1688 C1689 1.399 . S
C1689 H1675 0.929 . S
C1689 C1688 1.399 . S
C1689 C1690 1.385 . S
C1690 H1676 0.931 . S
C1690 C1689 1.385 . S
C1690 C1691 1.389 . S
C1691 C1690 1.389 . S
C1691 C1692 1.387 . S
C1692 H1677 0.930 . S
C1692 C1687 1.390 . S
C1692 C1691 1.387 . S
H1693 C1705 0.930 . S
H1694 C1707 0.930 . S
H1695 C1708 0.930 . S
H1696 C1712 0.959 . S
H1697 C1712 0.959 . S
H1698 C1712 0.961 . S
H1699 C1713 0.960 . S
H1700 C1713 0.961 . S
H1701 C1713 0.959 . S
H1702 C1716 0.929 . S
H1703 C1717 0.931 . S
H1704 C1719 0.930 . S
C1705 H1693 0.930 . S
C1705 C1706 1.399 . S
C1705 C1710 1.399 . S
C1706 C1705 1.399 . S
C1706 C1707 1.376 . S
C1707 H1694 0.930 . S
C1707 C1706 1.376 . S
C1707 C1708 1.388 . S
C1708 H1695 0.930 . S
C1708 C1707 1.388 . S
C1708 C1709 1.390 . S
C1709 C1708 1.390 . S
C1709 C1710 1.394 . S
C1709 C1715 1.465 . S
C1710 C1705 1.399 . S
C1710 C1709 1.394 . S
C1710 C1711 1.516 . S
C1711 C1710 1.516 . S
C1711 C1712 1.502 . S
C1711 C1713 1.561 . S
C1711 C1714 1.526 . S
C1712 H1696 0.959 . S
C1712 H1697 0.959 . S
C1712 H1698 0.961 . S
C1712 C1711 1.502 . S
C1713 H1699 0.960 . S
C1713 H1700 0.961 . S
C1713 H1701 0.959 . S
C1713 C1711 1.561 . S
C1714 C1711 1.526 . S
C1714 C1715 1.396 . S
C1714 C1719 1.390 . S
C1715 C1709 1.465 . S
C1715 C1714 1.396 . S
C1715 C1716 1.399 . S
C1716 H1702 0.929 . S
C1716 C1715 1.399 . S
C1716 C1717 1.385 . S
C1717 H1703 0.931 . S
C1717 C1716 1.385 . S
C1717 C1718 1.389 . S
C1718 C1717 1.389 . S
C1718 C1719 1.387 . S
C1719 H1704 0.930 . S
C1719 C1714 1.390 . S
C1719 C1718 1.387 . S
H1720 C1732 0.930 . S
H1721 C1734 0.930 . S
H1722 C1735 0.930 . S
H1723 C1739 0.959 . S
H1724 C1739 0.959 . S
H1725 C1739 0.961 . S
H1726 C1740 0.960 . S
H1727 C1740 0.961 . S
H1728 C1740 0.959 . S
H1729 C1743 0.929 . S
H1730 C1744 0.931 . S
H1731 C1746 0.930 . S
C1732 H1720 0.930 . S
C1732 C1733 1.399 . S
C1732 C1737 1.399 . S
C1733 C1732 1.399 . S
C1733 C1734 1.376 . S
C1734 H1721 0.930 . S
C1734 C1733 1.376 . S
C1734 C1735 1.388 . S
C1735 H1722 0.930 . S
C1735 C1734 1.388 . S
C1735 C1736 1.390 . S
C1736 C1735 1.390 . S
C1736 C1737 1.394 . S
C1736 C1742 1.465 . S
C1737 C1732 1.399 . S
C1737 C1736 1.394 . S
C1737 C1738 1.516 . S
C1738 C1737 1.516 . S
C1738 C1739 1.502 . S
C1738 C1740 1.561 . S
C1738 C1741 1.526 . S
C1739 H1723 0.959 . S
C1739 H1724 0.959 . S
C1739 H1725 0.961 . S
C1739 C1738 1.502 . S
C1740 H1726 0.960 . S
C1740 H1727 0.961 . S
C1740 H1728 0.959 . S
C1740 C1738 1.561 . S
C1741 C1738 1.526 . S
C1741 C1742 1.396 . S
C1741 C1746 1.390 . S
C1742 C1736 1.465 . S
C1742 C1741 1.396 . S
C1742 C1743 1.399 . S
C1743 H1729 0.929 . S
C1743 C1742 1.399 . S
C1743 C1744 1.385 . S
C1744 H1730 0.931 . S
C1744 C1743 1.385 . S
C1744 C1745 1.389 . S
C1745 C1744 1.389 . S
C1745 C1746 1.387 . S
C1746 H1731 0.930 . S
C1746 C1741 1.390 . S
C1746 C1745 1.387 . S
H1747 C1759 0.930 . S
H1748 C1761 0.930 1_554 S
H1749 C1762 0.930 1_554 S
H1750 C1766 0.959 . S
H1751 C1766 0.959 . S
H1752 C1766 0.961 . S
H1753 C1767 0.960 . S
H1754 C1767 0.961 . S
H1755 C1767 0.959 . S
H1756 C1770 0.929 . S
H1757 C1771 0.931 . S
H1758 C1773 0.930 . S
C1759 H1747 0.930 . S
C1759 C1760 1.399 . S
C1759 C1764 1.399 . S
C1760 C1759 1.399 . S
C1760 C1761 1.376 . S
C1761 H1748 0.930 1_556 S
C1761 C1760 1.376 . S
C1761 C1762 1.388 . S
C1762 H1749 0.930 1_556 S
C1762 C1761 1.388 . S
C1762 C1763 1.390 . S
C1763 C1762 1.390 . S
C1763 C1764 1.394 . S
C1763 C1769 1.465 . S
C1764 C1759 1.399 . S
C1764 C1763 1.394 . S
C1764 C1765 1.516 . S
C1765 C1764 1.516 . S
C1765 C1766 1.502 . S
C1765 C1767 1.561 . S
C1765 C1768 1.526 . S
C1766 H1750 0.959 . S
C1766 H1751 0.959 . S
C1766 H1752 0.961 . S
C1766 C1765 1.502 . S
C1767 H1753 0.960 . S
C1767 H1754 0.961 . S
C1767 H1755 0.959 . S
C1767 C1765 1.561 . S
C1768 C1765 1.526 . S
C1768 C1769 1.396 . S
C1768 C1773 1.390 . S
C1769 C1763 1.465 . S
C1769 C1768 1.396 . S
C1769 C1770 1.399 . S
C1770 H1756 0.929 . S
C1770 C1769 1.399 . S
C1770 C1771 1.385 . S
C1771 H1757 0.931 . S
C1771 C1770 1.385 . S
C1771 C1772 1.389 . S
C1772 C1771 1.389 . S
C1772 C1773 1.387 . S
C1773 H1758 0.930 . S
C1773 C1768 1.390 . S
C1773 C1772 1.387 . S
H1774 C1786 0.930 1_554 S
H1775 C1788 0.930 . S
H1776 C1789 0.930 . S
H1777 C1793 0.959 . S
H1778 C1793 0.959 . S
H1779 C1793 0.984 . S
H1780 C1794 0.960 . S
H1781 C1794 0.961 . S
H1782 C1794 0.959 . S
H1783 C1797 0.929 . S
H1784 C1798 0.931 . S
H1785 C1800 0.930 . S
C1786 H1774 0.930 1_556 S
C1786 C1787 1.399 . S
C1786 C1791 1.399 . S
C1787 C1786 1.399 . S
C1787 C1788 1.376 . S
C1788 H1775 0.930 . S
C1788 C1787 1.376 . S
C1788 C1789 1.388 . S
C1789 H1776 0.930 . S
C1789 C1788 1.388 . S
C1789 C1790 1.390 . S
C1790 C1789 1.390 . S
C1790 C1791 1.394 . S
C1790 C1796 1.465 . S
C1791 C1786 1.399 . S
C1791 C1790 1.394 . S
C1791 C1792 1.516 . S
C1792 C1791 1.516 . S
C1792 C1793 1.502 . S
C1792 C1794 1.561 1_556 S
C1792 C1795 1.526 . S
C1793 H1777 0.959 . S
C1793 H1778 0.959 . S
C1793 H1779 0.984 . S
C1793 C1792 1.502 . S
C1794 H1780 0.960 . S
C1794 H1781 0.961 . S
C1794 H1782 0.959 . S
C1794 C1792 1.561 1_554 S
C1795 C1792 1.526 . S
C1795 C1796 1.396 . S
C1795 C1800 1.390 . S
C1796 C1790 1.465 . S
C1796 C1795 1.396 . S
C1796 C1797 1.399 . S
C1797 H1783 0.929 . S
C1797 C1796 1.399 . S
C1797 C1798 1.385 . S
C1798 H1784 0.931 . S
C1798 C1797 1.385 . S
C1798 C1799 1.389 . S
C1799 C1798 1.389 . S
C1799 C1800 1.387 . S
C1800 H1785 0.930 . S
C1800 C1795 1.390 . S
C1800 C1799 1.387 . S
H1801 C1813 0.930 . S
H1802 C1815 0.930 . S
H1803 C1816 0.930 . S
H1804 C1820 0.959 . S
H1805 C1820 0.959 . S
H1806 C1820 0.961 . S
H1807 C1821 0.960 . S
H1808 C1821 0.961 . S
H1809 C1821 0.959 . S
H1810 C1824 0.929 . S
H1811 C1825 0.931 . S
H1812 C1827 0.930 . S
C1813 H1801 0.930 . S
C1813 C1814 1.399 . S
C1813 C1818 1.399 . S
C1814 C1813 1.399 . S
C1814 C1815 1.376 . S
C1815 H1802 0.930 . S
C1815 C1814 1.376 . S
C1815 C1816 1.388 . S
C1816 H1803 0.930 . S
C1816 C1815 1.388 . S
C1816 C1817 1.390 . S
C1817 C1816 1.390 . S
C1817 C1818 1.394 . S
C1817 C1823 1.465 . S
C1818 C1813 1.399 . S
C1818 C1817 1.394 . S
C1818 C1819 1.516 . S
C1819 C1818 1.516 . S
C1819 C1820 1.502 . S
C1819 C1821 1.561 . S
C1819 C1822 1.526 . S
C1820 H1804 0.959 . S
C1820 H1805 0.959 . S
C1820 H1806 0.961 . S
C1820 C1819 1.502 . S
C1821 H1807 0.960 . S
C1821 H1808 0.961 . S
C1821 H1809 0.959 . S
C1821 C1819 1.561 . S
C1822 C1819 1.526 . S
C1822 C1823 1.396 . S
C1822 C1827 1.390 . S
C1823 C1817 1.465 . S
C1823 C1822 1.396 . S
C1823 C1824 1.399 . S
C1824 H1810 0.929 . S
C1824 C1823 1.399 . S
C1824 C1825 1.385 . S
C1825 H1811 0.931 . S
C1825 C1824 1.385 . S
C1825 C1826 1.389 . S
C1826 C1825 1.389 . S
C1826 C1827 1.387 . S
C1827 H1812 0.930 . S
C1827 C1822 1.390 . S
C1827 C1826 1.387 . S
H1828 C1840 0.930 . S
H1829 C1842 0.930 . S
H1830 C1843 0.930 . S
H1831 C1847 0.959 . S
H1832 C1847 0.959 . S
H1833 C1847 0.961 . S
H1834 C1848 0.960 . S
H1835 C1848 0.961 . S
H1836 C1848 0.959 . S
H1837 C1851 0.929 . S
H1838 C1852 0.931 . S
H1839 C1854 0.930 . S
C1840 H1828 0.930 . S
C1840 C1841 1.399 . S
C1840 C1845 1.399 . S
C1841 C1840 1.399 . S
C1841 C1842 1.376 . S
C1842 H1829 0.930 . S
C1842 C1841 1.376 . S
C1842 C1843 1.388 . S
C1843 H1830 0.930 . S
C1843 C1842 1.388 . S
C1843 C1844 1.390 . S
C1844 C1843 1.390 . S
C1844 C1845 1.394 . S
C1844 C1850 1.465 . S
C1845 C1840 1.399 . S
C1845 C1844 1.394 . S
C1845 C1846 1.516 . S
C1846 C1845 1.516 . S
C1846 C1847 1.502 . S
C1846 C1848 1.561 . S
C1846 C1849 1.526 . S
C1847 H1831 0.959 . S
C1847 H1832 0.959 . S
C1847 H1833 0.961 . S
C1847 C1846 1.502 . S
C1848 H1834 0.960 . S
C1848 H1835 0.961 . S
C1848 H1836 0.959 . S
C1848 C1846 1.561 . S
C1849 C1846 1.526 . S
C1849 C1850 1.396 . S
C1849 C1854 1.390 . S
C1850 C1844 1.465 . S
C1850 C1849 1.396 . S
C1850 C1851 1.399 . S
C1851 H1837 0.929 . S
C1851 C1850 1.399 . S
C1851 C1852 1.385 . S
C1852 H1838 0.931 . S
C1852 C1851 1.385 . S
C1852 C1853 1.389 . S
C1853 C1852 1.389 . S
C1853 C1854 1.387 . S
C1854 H1839 0.930 . S
C1854 C1849 1.390 . S
C1854 C1853 1.387 . S
H1855 C1867 0.930 . S
H1856 C1869 0.930 . S
H1857 C1870 0.930 . S
H1858 C1874 0.959 . S
H1859 C1874 0.959 . S
H1860 C1874 0.961 . S
H1861 C1875 0.962 . S
H1862 C1875 0.961 1_554 S
H1863 C1875 0.959 . S
H1864 C1878 0.929 . S
H1865 C1879 0.931 . S
H1866 C1881 0.930 . S
C1867 H1855 0.930 . S
C1867 C1868 1.399 . S
C1867 C1872 1.399 . S
C1868 C1867 1.399 . S
C1868 C1869 1.376 . S
C1869 H1856 0.930 . S
C1869 C1868 1.376 . S
C1869 C1870 1.388 . S
C1870 H1857 0.930 . S
C1870 C1869 1.388 . S
C1870 C1871 1.390 . S
C1871 C1870 1.390 . S
C1871 C1872 1.394 . S
C1871 C1877 1.465 . S
C1872 C1867 1.399 . S
C1872 C1871 1.394 . S
C1872 C1873 1.516 . S
C1873 C1872 1.516 . S
C1873 C1874 1.502 . S
C1873 C1875 1.561 . S
C1873 C1876 1.526 . S
C1874 H1858 0.959 . S
C1874 H1859 0.959 . S
C1874 H1860 0.961 . S
C1874 C1873 1.502 . S
C1875 H1861 0.962 . S
C1875 H1862 0.961 1_556 S
C1875 H1863 0.959 . S
C1875 C1873 1.561 . S
C1876 C1873 1.526 . S
C1876 C1877 1.396 . S
C1876 C1881 1.390 . S
C1877 C1871 1.465 . S
C1877 C1876 1.396 . S
C1877 C1878 1.399 . S
C1878 H1864 0.929 . S
C1878 C1877 1.399 . S
C1878 C1879 1.385 . S
C1879 H1865 0.931 . S
C1879 C1878 1.385 . S
C1879 C1880 1.389 . S
C1880 C1879 1.389 . S
C1880 C1881 1.387 . S
C1881 H1866 0.930 . S
C1881 C1876 1.390 . S
C1881 C1880 1.387 . S
H1882 C1894 0.930 . S
H1883 C1896 0.930 . S
H1884 C1897 0.930 . S
H1885 C1901 0.959 . S
H1886 C1901 0.959 . S
H1887 C1901 0.961 . S
H1888 C1902 0.960 . S
H1889 C1902 0.961 . S
H1890 C1902 0.959 . S
H1891 C1905 0.929 . S
H1892 C1906 0.931 . S
H1893 C1908 0.930 . S
C1894 H1882 0.930 . S
C1894 C1895 1.399 . S
C1894 C1899 1.399 . S
C1895 C1894 1.399 . S
C1895 C1896 1.376 . S
C1896 H1883 0.930 . S
C1896 C1895 1.376 . S
C1896 C1897 1.388 . S
C1897 H1884 0.930 . S
C1897 C1896 1.388 . S
C1897 C1898 1.390 . S
C1898 C1897 1.390 . S
C1898 C1899 1.394 . S
C1898 C1904 1.465 . S
C1899 C1894 1.399 . S
C1899 C1898 1.394 . S
C1899 C1900 1.516 . S
C1900 C1899 1.516 . S
C1900 C1901 1.502 . S
C1900 C1902 1.561 . S
C1900 C1903 1.526 . S
C1901 H1885 0.959 . S
C1901 H1886 0.959 . S
C1901 H1887 0.961 . S
C1901 C1900 1.502 . S
C1902 H1888 0.960 . S
C1902 H1889 0.961 . S
C1902 H1890 0.959 . S
C1902 C1900 1.561 . S
C1903 C1900 1.526 . S
C1903 C1904 1.396 . S
C1903 C1908 1.390 . S
C1904 C1898 1.465 . S
C1904 C1903 1.396 . S
C1904 C1905 1.399 . S
C1905 H1891 0.929 . S
C1905 C1904 1.399 . S
C1905 C1906 1.385 . S
C1906 H1892 0.931 . S
C1906 C1905 1.385 . S
C1906 C1907 1.389 . S
C1907 C1906 1.389 . S
C1907 C1908 1.387 . S
C1908 H1893 0.930 . S
C1908 C1903 1.390 . S
C1908 C1907 1.387 . S
H1909 C1921 0.930 . S
H1910 C1923 0.930 . S
H1911 C1924 0.930 . S
H1912 C1928 0.959 . S
H1913 C1928 0.959 . S
H1914 C1928 0.961 . S
H1915 C1929 0.960 . S
H1916 C1929 0.961 . S
H1917 C1929 0.959 . S
H1918 C1932 0.929 . S
H1919 C1933 0.931 . S
H1920 C1935 0.930 . S
C1921 H1909 0.930 . S
C1921 C1922 1.399 . S
C1921 C1926 1.399 . S
C1922 C1921 1.399 . S
C1922 C1923 1.376 . S
C1923 H1910 0.930 . S
C1923 C1922 1.376 . S
C1923 C1924 1.388 . S
C1924 H1911 0.930 . S
C1924 C1923 1.388 . S
C1924 C1925 1.390 . S
C1925 C1924 1.390 . S
C1925 C1926 1.394 . S
C1925 C1931 1.465 . S
C1926 C1921 1.399 . S
C1926 C1925 1.394 . S
C1926 C1927 1.516 . S
C1927 C1926 1.516 . S
C1927 C1928 1.502 . S
C1927 C1929 1.561 . S
C1927 C1930 1.526 . S
C1928 H1912 0.959 . S
C1928 H1913 0.959 . S
C1928 H1914 0.961 . S
C1928 C1927 1.502 . S
C1929 H1915 0.960 . S
C1929 H1916 0.961 . S
C1929 H1917 0.959 . S
C1929 C1927 1.561 . S
C1930 C1927 1.526 . S
C1930 C1931 1.396 . S
C1930 C1935 1.390 . S
C1931 C1925 1.465 . S
C1931 C1930 1.396 . S
C1931 C1932 1.399 . S
C1932 H1918 0.929 . S
C1932 C1931 1.399 . S
C1932 C1933 1.385 . S
C1933 H1919 0.931 . S
C1933 C1932 1.385 . S
C1933 C1934 1.389 . S
C1934 C1933 1.389 . S
C1934 C1935 1.387 . S
C1935 H1920 0.930 . S
C1935 C1930 1.390 . S
C1935 C1934 1.387 . S
C653 C18 1.369 . S
C665 C55 1.249 . S
C680 C98 2.215 . S
C692 C50 2.228 . S
C707 C130 1.877 . S
C719 C99 1.899 . S
C734 C19 1.179 . S
C746 C135 1.184 . S
C761 C10 1.206 . S
C773 C366 1.105 . S
C788 C289 1.365 . S
C800 C46 1.345 . S
C815 C89 2.219 . S
C827 C419 2.182 . S
C842 C139 1.885 . S
C854 C530 1.904 . S
C869 C329 2.220 . S
C881 C59 2.183 . S
C896 C499 1.859 . S
C908 C90 1.898 . S
C923 C570 1.213 . S
C935 C126 1.099 . S
C950 C9 1.374 . S
C962 C446 1.333 . S
C977 C6 0.551 . S
C989 C335 0.468 . S
C1004 C498 1.634 . S
C1016 C169 1.635 . S
C1031 C206 0.494 . S
C1043 C575 0.431 . S
C1058 C449 1.614 . S
C1070 C258 1.629 . S
C1085 C86 0.417 . S
C1097 C295 0.422 . S
C1112 C369 1.628 . S
C1124 C178 1.626 . S
C1139 C249 1.675 . S
C1151 C418 1.662 . S
C1166 C209 2.209 . S
C1178 C459 2.215 . S
C1193 C379 1.880 . S
C1205 C210 1.904 . S
C1220 C455 1.300 . S
C1232 C298 1.373 . S
C1247 C218 2.242 . S
C1259 C170 2.197 . S
C1274 C370 1.853 . S
C1286 C339 1.901 . S
C1301 C538 2.201 . S
C1313 C450 2.214 . S
C1328 C250 1.865 . S
C1340 C219 1.896 . S
C1355 C375 1.202 . S
C1367 C579 1.174 . S
C1382 C526 0.393 . S
C1394 C15 0.598 . S
C1409 C95 0.357 . S
C1421 C566 0.601 . S
C1436 C489 1.633 . S
C1448 C58 1.631 . S
C1463 C286 0.411 . S
C1475 C215 0.485 . S
C1490 C138 1.625 . S
C1502 C409 1.623 . S
C1517 C490 1.871 . S
C1529 C539 1.898 . S
C1544 C299 1.173 . S
C1556 C495 1.197 . S
C1571 C246 1.129 . S
C1583 C290 1.190 . S
C1598 C179 2.197 . S
C1610 C529 2.237 . S
C1625 C486 1.098 . S
C1637 C610 1.214 . S
C1652 C615 0.544 . S
C1664 C326 0.344 . S
C1679 C49 1.661 . S
C1691 C378 1.657 . S
C1706 C330 1.904 . S
C1718 C259 1.884 . S
C1733 C338 2.238 . S
C1745 C410 2.187 . S
C1760 C619 1.169 . S
C1772 C255 1.207 . S
C1787 C535 0.357 . S
C1799 C606 0.540 . S
C1814 C458 1.620 . S
C1826 C129 1.636 . S
C1841 C415 1.332 . S
C1853 C578 1.354 . S
C1868 C406 1.254 . S
C1880 C609 1.360 . S
C1895 C166 1.305 . S
C1907 C569 1.381 . S
C1922 C618 1.360 . S
C1934 C175 1.324 . S
