# Generated by pormake.
# Topology cha, (4)-cn, num edge types: 1
# Building blocks:
#     Node 0, Type 0, BuildingBlock: GALJAG_clean_sbu_0, # of connection points: 4
#     Node 1, Type 0, BuildingBlock: GALJAG_clean_sbu_0, # of connection points: 4
#     Node 2, Type 0, BuildingBlock: GALJAG_clean_sbu_0, # of connection points: 4
#     Node 3, Type 0, BuildingBlock: GALJAG_clean_sbu_0, # of connection points: 4
#     Node 4, Type 0, BuildingBlock: GALJAG_clean_sbu_0, # of connection points: 4
#     Node 5, Type 0, BuildingBlock: GALJAG_clean_sbu_0, # of connection points: 4
#     Node 6, Type 0, BuildingBlock: GALJAG_clean_sbu_0, # of connection points: 4
#     Node 7, Type 0, BuildingBlock: GALJAG_clean_sbu_0, # of connection points: 4
#     Node 8, Type 0, BuildingBlock: GALJAG_clean_sbu_0, # of connection points: 4
#     Node 9, Type 0, BuildingBlock: GALJAG_clean_sbu_0, # of connection points: 4
#     Node 10, Type 0, BuildingBlock: GALJAG_clean_sbu_0, # of connection points: 4
#     Node 11, Type 0, BuildingBlock: GALJAG_clean_sbu_0, # of connection points: 4
#     Node 12, Type 0, BuildingBlock: GALJAG_clean_sbu_0, # of connection points: 4
#     Node 13, Type 0, BuildingBlock: GALJAG_clean_sbu_0, # of connection points: 4
#     Node 14, Type 0, BuildingBlock: GALJAG_clean_sbu_0, # of connection points: 4
#     Node 15, Type 0, BuildingBlock: GALJAG_clean_sbu_0, # of connection points: 4
#     Node 16, Type 0, BuildingBlock: GALJAG_clean_sbu_0, # of connection points: 4
#     Node 17, Type 0, BuildingBlock: GALJAG_clean_sbu_0, # of connection points: 4
#     Node 18, Type 0, BuildingBlock: GALJAG_clean_sbu_0, # of connection points: 4
#     Node 19, Type 0, BuildingBlock: GALJAG_clean_sbu_0, # of connection points: 4
#     Node 20, Type 0, BuildingBlock: GALJAG_clean_sbu_0, # of connection points: 4
#     Node 21, Type 0, BuildingBlock: GALJAG_clean_sbu_0, # of connection points: 4
#     Node 22, Type 0, BuildingBlock: GALJAG_clean_sbu_0, # of connection points: 4
#     Node 23, Type 0, BuildingBlock: GALJAG_clean_sbu_0, # of connection points: 4
#     Node 24, Type 0, BuildingBlock: GALJAG_clean_sbu_0, # of connection points: 4
#     Node 25, Type 0, BuildingBlock: GALJAG_clean_sbu_0, # of connection points: 4
#     Node 26, Type 0, BuildingBlock: GALJAG_clean_sbu_0, # of connection points: 4
#     Node 27, Type 0, BuildingBlock: GALJAG_clean_sbu_0, # of connection points: 4
#     Node 28, Type 0, BuildingBlock: GALJAG_clean_sbu_0, # of connection points: 4
#     Node 29, Type 0, BuildingBlock: GALJAG_clean_sbu_0, # of connection points: 4
#     Node 30, Type 0, BuildingBlock: GALJAG_clean_sbu_0, # of connection points: 4
#     Node 31, Type 0, BuildingBlock: GALJAG_clean_sbu_0, # of connection points: 4
#     Node 32, Type 0, BuildingBlock: GALJAG_clean_sbu_0, # of connection points: 4
#     Node 33, Type 0, BuildingBlock: GALJAG_clean_sbu_0, # of connection points: 4
#     Node 34, Type 0, BuildingBlock: GALJAG_clean_sbu_0, # of connection points: 4
#     Node 35, Type 0, BuildingBlock: GALJAG_clean_sbu_0, # of connection points: 4
#     Edge 36, Type (0, 0), BuildingBlock: XIVTED_clean_linker_0, # of connection points: 2
#     Edge 37, Type (0, 0), BuildingBlock: XIVTED_clean_linker_0, # of connection points: 2
#     Edge 38, Type (0, 0), BuildingBlock: XIVTED_clean_linker_0, # of connection points: 2
#     Edge 39, Type (0, 0), BuildingBlock: XIVTED_clean_linker_0, # of connection points: 2
#     Edge 40, Type (0, 0), BuildingBlock: XIVTED_clean_linker_0, # of connection points: 2
#     Edge 41, Type (0, 0), BuildingBlock: XIVTED_clean_linker_0, # of connection points: 2
#     Edge 42, Type (0, 0), BuildingBlock: XIVTED_clean_linker_0, # of connection points: 2
#     Edge 43, Type (0, 0), BuildingBlock: XIVTED_clean_linker_0, # of connection points: 2
#     Edge 44, Type (0, 0), BuildingBlock: XIVTED_clean_linker_0, # of connection points: 2
#     Edge 45, Type (0, 0), BuildingBlock: XIVTED_clean_linker_0, # of connection points: 2
#     Edge 46, Type (0, 0), BuildingBlock: XIVTED_clean_linker_0, # of connection points: 2
#     Edge 47, Type (0, 0), BuildingBlock: XIVTED_clean_linker_0, # of connection points: 2
#     Edge 48, Type (0, 0), BuildingBlock: XIVTED_clean_linker_0, # of connection points: 2
#     Edge 49, Type (0, 0), BuildingBlock: XIVTED_clean_linker_0, # of connection points: 2
#     Edge 50, Type (0, 0), BuildingBlock: XIVTED_clean_linker_0, # of connection points: 2
#     Edge 51, Type (0, 0), BuildingBlock: XIVTED_clean_linker_0, # of connection points: 2
#     Edge 52, Type (0, 0), BuildingBlock: XIVTED_clean_linker_0, # of connection points: 2
#     Edge 53, Type (0, 0), BuildingBlock: XIVTED_clean_linker_0, # of connection points: 2
#     Edge 54, Type (0, 0), BuildingBlock: XIVTED_clean_linker_0, # of connection points: 2
#     Edge 55, Type (0, 0), BuildingBlock: XIVTED_clean_linker_0, # of connection points: 2
#     Edge 56, Type (0, 0), BuildingBlock: XIVTED_clean_linker_0, # of connection points: 2
#     Edge 57, Type (0, 0), BuildingBlock: XIVTED_clean_linker_0, # of connection points: 2
#     Edge 58, Type (0, 0), BuildingBlock: XIVTED_clean_linker_0, # of connection points: 2
#     Edge 59, Type (0, 0), BuildingBlock: XIVTED_clean_linker_0, # of connection points: 2
#     Edge 60, Type (0, 0), BuildingBlock: XIVTED_clean_linker_0, # of connection points: 2
#     Edge 61, Type (0, 0), BuildingBlock: XIVTED_clean_linker_0, # of connection points: 2
#     Edge 62, Type (0, 0), BuildingBlock: XIVTED_clean_linker_0, # of connection points: 2
#     Edge 63, Type (0, 0), BuildingBlock: XIVTED_clean_linker_0, # of connection points: 2
#     Edge 64, Type (0, 0), BuildingBlock: XIVTED_clean_linker_0, # of connection points: 2
#     Edge 65, Type (0, 0), BuildingBlock: XIVTED_clean_linker_0, # of connection points: 2
#     Edge 66, Type (0, 0), BuildingBlock: XIVTED_clean_linker_0, # of connection points: 2
#     Edge 67, Type (0, 0), BuildingBlock: XIVTED_clean_linker_0, # of connection points: 2
#     Edge 68, Type (0, 0), BuildingBlock: XIVTED_clean_linker_0, # of connection points: 2
#     Edge 69, Type (0, 0), BuildingBlock: XIVTED_clean_linker_0, # of connection points: 2
#     Edge 70, Type (0, 0), BuildingBlock: XIVTED_clean_linker_0, # of connection points: 2
#     Edge 71, Type (0, 0), BuildingBlock: XIVTED_clean_linker_0, # of connection points: 2
#     Edge 72, Type (0, 0), BuildingBlock: XIVTED_clean_linker_0, # of connection points: 2
#     Edge 73, Type (0, 0), BuildingBlock: XIVTED_clean_linker_0, # of connection points: 2
#     Edge 74, Type (0, 0), BuildingBlock: XIVTED_clean_linker_0, # of connection points: 2
#     Edge 75, Type (0, 0), BuildingBlock: XIVTED_clean_linker_0, # of connection points: 2
#     Edge 76, Type (0, 0), BuildingBlock: XIVTED_clean_linker_0, # of connection points: 2
#     Edge 77, Type (0, 0), BuildingBlock: XIVTED_clean_linker_0, # of connection points: 2
#     Edge 78, Type (0, 0), BuildingBlock: XIVTED_clean_linker_0, # of connection points: 2
#     Edge 79, Type (0, 0), BuildingBlock: XIVTED_clean_linker_0, # of connection points: 2
#     Edge 80, Type (0, 0), BuildingBlock: XIVTED_clean_linker_0, # of connection points: 2
#     Edge 81, Type (0, 0), BuildingBlock: XIVTED_clean_linker_0, # of connection points: 2
#     Edge 82, Type (0, 0), BuildingBlock: XIVTED_clean_linker_0, # of connection points: 2
#     Edge 83, Type (0, 0), BuildingBlock: XIVTED_clean_linker_0, # of connection points: 2
#     Edge 84, Type (0, 0), BuildingBlock: XIVTED_clean_linker_0, # of connection points: 2
#     Edge 85, Type (0, 0), BuildingBlock: XIVTED_clean_linker_0, # of connection points: 2
#     Edge 86, Type (0, 0), BuildingBlock: XIVTED_clean_linker_0, # of connection points: 2
#     Edge 87, Type (0, 0), BuildingBlock: XIVTED_clean_linker_0, # of connection points: 2
#     Edge 88, Type (0, 0), BuildingBlock: XIVTED_clean_linker_0, # of connection points: 2
#     Edge 89, Type (0, 0), BuildingBlock: XIVTED_clean_linker_0, # of connection points: 2
#     Edge 90, Type (0, 0), BuildingBlock: XIVTED_clean_linker_0, # of connection points: 2
#     Edge 91, Type (0, 0), BuildingBlock: XIVTED_clean_linker_0, # of connection points: 2
#     Edge 92, Type (0, 0), BuildingBlock: XIVTED_clean_linker_0, # of connection points: 2
#     Edge 93, Type (0, 0), BuildingBlock: XIVTED_clean_linker_0, # of connection points: 2
#     Edge 94, Type (0, 0), BuildingBlock: XIVTED_clean_linker_0, # of connection points: 2
#     Edge 95, Type (0, 0), BuildingBlock: XIVTED_clean_linker_0, # of connection points: 2
#     Edge 96, Type (0, 0), BuildingBlock: XIVTED_clean_linker_0, # of connection points: 2
#     Edge 97, Type (0, 0), BuildingBlock: XIVTED_clean_linker_0, # of connection points: 2
#     Edge 98, Type (0, 0), BuildingBlock: XIVTED_clean_linker_0, # of connection points: 2
#     Edge 99, Type (0, 0), BuildingBlock: XIVTED_clean_linker_0, # of connection points: 2
#     Edge 100, Type (0, 0), BuildingBlock: XIVTED_clean_linker_0, # of connection points: 2
#     Edge 101, Type (0, 0), BuildingBlock: XIVTED_clean_linker_0, # of connection points: 2
#     Edge 102, Type (0, 0), BuildingBlock: XIVTED_clean_linker_0, # of connection points: 2
#     Edge 103, Type (0, 0), BuildingBlock: XIVTED_clean_linker_0, # of connection points: 2
#     Edge 104, Type (0, 0), BuildingBlock: XIVTED_clean_linker_0, # of connection points: 2
#     Edge 105, Type (0, 0), BuildingBlock: XIVTED_clean_linker_0, # of connection points: 2
#     Edge 106, Type (0, 0), BuildingBlock: XIVTED_clean_linker_0, # of connection points: 2
#     Edge 107, Type (0, 0), BuildingBlock: XIVTED_clean_linker_0, # of connection points: 2
# Relax obj value: 0.076
# Max RMSD: 0.060
# Mean RMSD: 0.060
data_MOF--net-cha--node1-GALJAG_clean_sbu_0--edge1-XIVTED_clean_linker_0
_symmetry_space_group_name_H-M    P1
_symmetry_Int_Tables_number       1
_symmetry_cell_setting            triclinic
loop_
_symmetry_equiv_pos_as_xyz
'x, y, z'
_cell_length_a     58.170104
_cell_length_b     58.166892
_cell_length_c     84.113109
_cell_angle_alpha  89.994054
_cell_angle_beta   90.025119
_cell_angle_gamma 120.03079
loop_
_atom_site_label
_atom_site_type_symbol
_atom_site_fract_x
_atom_site_fract_y
_atom_site_fract_z
_atom_type_partial_charge
In0 In 0.02849 0.29275 0.08543 0.0
O1 O 0.05064 0.31772 0.06371 0.0
O2 O 0.00936 0.3033 0.06489 0.0
C3 C 0.02814 0.31675 0.11282 0.0
C4 C 0.07268 0.28935 0.08856 0.0
C5 C 0.98381 0.24473 0.08511 0.0
O6 O 0.0259 0.32532 0.09944 0.0
O7 O 0.03049 0.29639 0.11225 0.0
O8 O 0.00445 0.24925 0.0776 0.0
O9 O 0.9858 0.26434 0.0927 0.0
C10 C 0.03049 0.31596 0.05702 0.0
O11 O 0.05042 0.26943 0.08523 0.0
O12 O 0.07259 0.31087 0.09018 0.0
In13 In 0.76156 0.76095 0.08333 0.0
O14 O 0.73351 0.75346 0.0624 0.0
O15 O 0.75583 0.7339 0.06204 0.0
C16 C 0.73658 0.73669 0.1105 0.0
C17 C 0.76419 0.80846 0.08421 0.0
C18 C 0.80999 0.76554 0.08521 0.0
O19 O 0.73026 0.72489 0.09724 0.0
O20 O 0.75526 0.76042 0.10994 0.0
O21 O 0.80577 0.78148 0.07725 0.0
O22 O 0.78986 0.74744 0.09219 0.0
C23 C 0.73943 0.73841 0.05495 0.0
O24 O 0.78428 0.80623 0.08128 0.0
O25 O 0.74303 0.78684 0.08668 0.0
In26 In 0.29545 0.02892 0.08433 0.0
O27 O 0.31072 0.01112 0.06553 0.0
O28 O 0.31306 0.04788 0.06042 0.0
C29 C 0.32061 0.02985 0.11161 0.0
C30 C 0.24765 0.98411 0.08382 0.0
C31 C 0.2928 0.07382 0.08433 0.0
O32 O 0.33247 0.03717 0.09846 0.0
O33 O 0.29609 0.02163 0.11094 0.0
O34 O 0.27367 0.05179 0.07981 0.0
O35 O 0.31308 0.07307 0.08896 0.0
C36 C 0.31715 0.02972 0.05571 0.0
O37 O 0.25053 0.00618 0.08815 0.0
O38 O 0.26882 0.9847 0.0798 0.0
In39 In 0.29477 0.02853 0.91242 0.0
O40 O 0.27166 0.05082 0.91354 0.0
O41 O 0.31381 0.07336 0.9137 0.0
C42 C 0.24686 0.98423 0.91087 0.0
C43 C 0.31701 0.02585 0.94024 0.0
C44 C 0.31831 0.03025 0.88446 0.0
O45 O 0.25079 0.00439 0.91875 0.0
O46 O 0.26705 0.98655 0.90377 0.0
O47 O 0.32452 0.02331 0.89723 0.0
O48 O 0.30048 0.03637 0.88587 0.0
C49 C 0.29222 0.07349 0.91403 0.0
O50 O 0.29684 0.00627 0.93436 0.0
O51 O 0.32652 0.04652 0.93187 0.0
In52 In 0.02757 0.29456 0.91212 0.0
O53 O 0.05055 0.32203 0.93293 0.0
O54 O 0.00867 0.30301 0.93356 0.0
C55 C 0.02753 0.31976 0.88514 0.0
C56 C 0.98203 0.24752 0.91149 0.0
C57 C 0.07014 0.28783 0.91038 0.0
O58 O 0.03414 0.33152 0.8984 0.0
O59 O 0.02081 0.29555 0.88562 0.0
O60 O 0.05098 0.27443 0.9197 0.0
O61 O 0.06772 0.30445 0.90196 0.0
C62 C 0.03023 0.31795 0.94055 0.0
O63 O 0.00447 0.24924 0.91272 0.0
O64 O 0.98263 0.26946 0.91059 0.0
In65 In 0.76556 0.76757 0.91134 0.0
O66 O 0.73657 0.76007 0.93184 0.0
O67 O 0.75772 0.73926 0.93208 0.0
C68 C 0.74048 0.74231 0.88443 0.0
C69 C 0.81292 0.76978 0.91064 0.0
C70 C 0.77105 0.81644 0.90972 0.0
O71 O 0.72861 0.73732 0.89765 0.0
O72 O 0.7647 0.7598 0.8849 0.0
O73 O 0.78297 0.81045 0.92003 0.0
O74 O 0.75669 0.79793 0.90027 0.0
C75 C 0.74146 0.74404 0.93908 0.0
O76 O 0.81092 0.79003 0.91349 0.0
O77 O 0.7912 0.74877 0.90815 0.0
In78 In 0.02885 0.76514 0.91305 0.0
O79 O 0.00693 0.78842 0.91568 0.0
O80 O 0.98465 0.74758 0.90932 0.0
C81 C 0.07358 0.81289 0.91201 0.0
C82 C 0.02767 0.74133 0.94109 0.0
C83 C 0.02864 0.74202 0.88523 0.0
O84 O 0.05306 0.80923 0.91934 0.0
O85 O 0.07143 0.79254 0.90526 0.0
O86 O 0.03348 0.73452 0.89828 0.0
O87 O 0.02396 0.76088 0.88633 0.0
C88 C 0.98453 0.76877 0.91227 0.0
O89 O 0.04891 0.75883 0.93481 0.0
O90 O 0.00723 0.73514 0.93297 0.0
In91 In 0.28923 0.29037 0.91315 0.0
O92 O 0.31757 0.30253 0.93445 0.0
O93 O 0.2913 0.31767 0.93336 0.0
C94 C 0.31521 0.31372 0.88602 0.0
C95 C 0.2878 0.24339 0.91476 0.0
C96 C 0.24043 0.28443 0.91017 0.0
O97 O 0.3199 0.32634 0.89894 0.0
O98 O 0.29778 0.28953 0.8869 0.0
O99 O 0.24547 0.27122 0.92009 0.0
O100 O 0.25989 0.30027 0.90171 0.0
C101 C 0.30908 0.31623 0.94107 0.0
O102 O 0.26694 0.24496 0.91427 0.0
O103 O 0.30913 0.26539 0.91449 0.0
In104 In 0.76225 0.03017 0.91134 0.0
O105 O 0.75467 0.04969 0.93275 0.0
O106 O 0.73385 0.00773 0.9319 0.0
C107 C 0.73613 0.0292 0.88457 0.0
C108 C 0.80915 0.07588 0.91036 0.0
C109 C 0.76909 0.9876 0.91013 0.0
O110 O 0.72488 0.02315 0.89799 0.0
O111 O 0.76036 0.03595 0.88479 0.0
O112 O 0.78114 0.00611 0.92008 0.0
O113 O 0.75387 0.99072 0.90083 0.0
C114 C 0.7388 0.02829 0.93959 0.0
O115 O 0.80761 0.05356 0.91192 0.0
O116 O 0.78712 0.07504 0.90923 0.0
In117 In 0.76422 0.02678 0.08378 0.0
O118 O 0.78711 0.00442 0.08144 0.0
O119 O 0.74592 0.98245 0.08706 0.0
C120 C 0.81196 0.07166 0.08476 0.0
C121 C 0.74099 0.02702 0.05575 0.0
C122 C 0.74051 0.02531 0.11164 0.0
O123 O 0.80818 0.05148 0.07698 0.0
O124 O 0.79181 0.06903 0.09201 0.0
O125 O 0.73219 0.02899 0.09854 0.0
O126 O 0.7605 0.02239 0.11057 0.0
C127 C 0.76706 0.98204 0.08443 0.0
O128 O 0.75594 0.0479 0.06336 0.0
O129 O 0.737 0.00608 0.06253 0.0
In130 In 0.02851 0.76592 0.08539 0.0
O131 O 0.04303 0.74786 0.06635 0.0
O132 O 0.0073 0.74809 0.06195 0.0
C133 C 0.03027 0.74181 0.11247 0.0
C134 C 0.07411 0.81306 0.08373 0.0
C135 C 0.9838 0.76873 0.08761 0.0
O136 O 0.02221 0.72951 0.09947 0.0
O137 O 0.0377 0.76617 0.11173 0.0
O138 O 0.00426 0.78616 0.08045 0.0
O139 O 0.98603 0.75007 0.09367 0.0
C140 C 0.02416 0.74235 0.05689 0.0
O141 O 0.05268 0.81107 0.08861 0.0
O142 O 0.07242 0.79142 0.07968 0.0
In143 In 0.28997 0.29018 0.08515 0.0
O144 O 0.24488 0.26825 0.08543 0.0
O145 O 0.26539 0.30802 0.09408 0.0
C146 C 0.28846 0.2436 0.08057 0.0
C147 C 0.30664 0.31498 0.0567 0.0
C148 C 0.31621 0.30847 0.1129 0.0
O149 O 0.26804 0.24492 0.08402 0.0
O150 O 0.30945 0.26575 0.07907 0.0
O151 O 0.31671 0.32405 0.10228 0.0
O152 O 0.30265 0.28421 0.10948 0.0
C153 C 0.24335 0.28751 0.09115 0.0
O154 O 0.3224 0.31375 0.06649 0.0
O155 O 0.28299 0.30427 0.06139 0.0
In156 In 0.69597 0.62729 0.41736 0.0
O157 O 0.68567 0.6482 0.3975 0.0
O158 O 0.71651 0.63958 0.39348 0.0
C159 C 0.69408 0.64855 0.44543 0.0
C160 C 0.74138 0.62752 0.4229 0.0
C161 C 0.64974 0.581 0.41443 0.0
O162 O 0.69659 0.66058 0.43245 0.0
O163 O 0.69225 0.62615 0.44406 0.0
O164 O 0.67198 0.58266 0.41232 0.0
O165 O 0.65086 0.60263 0.41783 0.0
C166 C 0.7029 0.64906 0.38803 0.0
O167 O 0.71942 0.60623 0.4212 0.0
O168 O 0.74033 0.64866 0.42182 0.0
In169 In 0.43442 0.10249 0.41831 0.0
O170 O 0.40289 0.08482 0.39861 0.0
O171 O 0.43853 0.08368 0.39566 0.0
C172 C 0.40507 0.07895 0.44453 0.0
C173 C 0.43942 0.15095 0.41537 0.0
C174 C 0.48141 0.10435 0.42163 0.0
O175 O 0.40277 0.06631 0.4319 0.0
O176 O 0.42169 0.10337 0.44381 0.0
O177 O 0.47915 0.12223 0.41451 0.0
O178 O 0.46001 0.0857 0.42721 0.0
C179 C 0.41646 0.07844 0.38989 0.0
O180 O 0.45497 0.14686 0.42379 0.0
O181 O 0.42145 0.13066 0.40846 0.0
In182 In 0.95834 0.35843 0.42301 0.0
O183 O 0.98261 0.35729 0.40158 0.0
O184 O 0.94357 0.3505 0.39774 0.0
C185 C 0.98774 0.36206 0.44871 0.0
C186 C 0.91495 0.31107 0.42824 0.0
C187 C 0.95933 0.40533 0.42365 0.0
O188 O 0.99702 0.36537 0.43478 0.0
O189 O 0.96395 0.35669 0.44948 0.0
O190 O 0.93884 0.38352 0.42678 0.0
O191 O 0.9795 0.4036 0.42022 0.0
C192 C 0.9642 0.35223 0.39176 0.0
O193 O 0.91503 0.33276 0.42936 0.0
O194 O 0.93705 0.3132 0.42462 0.0
In195 In 0.95293 0.35844 0.24286 0.0
O196 O 0.93335 0.38363 0.24062 0.0
O197 O 0.9739 0.40306 0.24767 0.0
C198 C 0.90814 0.31305 0.23556 0.0
C199 C 0.96045 0.3507 0.27368 0.0
C200 C 0.9825 0.36208 0.21723 0.0
O201 O 0.90884 0.335 0.23702 0.0
O202 O 0.93015 0.31406 0.23758 0.0
O203 O 0.9847 0.35269 0.23031 0.0
O204 O 0.96603 0.37013 0.2173 0.0
C205 C 0.95375 0.40508 0.24454 0.0
O206 O 0.9798 0.3633 0.26435 0.0
O207 O 0.93799 0.34225 0.26743 0.0
In208 In 0.68943 0.62146 0.24174 0.0
O209 O 0.66474 0.57647 0.24464 0.0
O210 O 0.64434 0.59818 0.24335 0.0
C211 C 0.73464 0.62145 0.23498 0.0
C212 C 0.69675 0.64152 0.27153 0.0
C213 C 0.68679 0.64504 0.21477 0.0
O214 O 0.71267 0.60024 0.2367 0.0
O215 O 0.73367 0.64255 0.23654 0.0
O216 O 0.69468 0.6575 0.22776 0.0
O217 O 0.6798 0.62077 0.21554 0.0
C218 C 0.64275 0.57583 0.24469 0.0
O219 O 0.68172 0.64399 0.26171 0.0
O220 O 0.70784 0.62925 0.26629 0.0
In221 In 0.43356 0.10212 0.24507 0.0
O222 O 0.4017 0.0803 0.26436 0.0
O223 O 0.44121 0.08964 0.2691 0.0
C224 C 0.40975 0.08076 0.21706 0.0
C225 C 0.47907 0.10171 0.24103 0.0
C226 C 0.4334 0.14823 0.24884 0.0
O227 O 0.40109 0.06868 0.23008 0.0
O228 O 0.4301 0.10341 0.21825 0.0
O229 O 0.45459 0.14731 0.24818 0.0
O230 O 0.4125 0.12603 0.24756 0.0
C231 C 0.41775 0.07941 0.27407 0.0
O232 O 0.47847 0.12301 0.24275 0.0
O233 O 0.45664 0.0807 0.2411 0.0
In234 In 0.6936 0.09418 0.24258 0.0
O235 O 0.6703 0.11602 0.24202 0.0
O236 O 0.64855 0.07403 0.24462 0.0
C237 C 0.73852 0.13972 0.23586 0.0
C238 C 0.6993 0.08281 0.27312 0.0
C239 C 0.69136 0.06615 0.21644 0.0
O240 O 0.71663 0.13877 0.23829 0.0
O241 O 0.73769 0.11763 0.23671 0.0
O242 O 0.70071 0.06367 0.22947 0.0
O243 O 0.68271 0.08212 0.21682 0.0
C244 C 0.6479 0.09533 0.24341 0.0
O245 O 0.68289 0.06526 0.2638 0.0
O246 O 0.71264 0.10545 0.26699 0.0
In247 In 0.95174 0.6225 0.24168 0.0
O248 O 0.93186 0.57763 0.23962 0.0
O249 O 0.97249 0.59863 0.24646 0.0
C250 C 0.90637 0.62197 0.23446 0.0
C251 C 0.96003 0.63821 0.27243 0.0
C252 C 0.98148 0.64898 0.21621 0.0
O253 O 0.90758 0.60101 0.23599 0.0
O254 O 0.92818 0.64327 0.23637 0.0
O255 O 0.98322 0.6604 0.22928 0.0
O256 O 0.96532 0.62438 0.21619 0.0
C257 C 0.95221 0.57648 0.24348 0.0
O258 O 0.9791 0.64358 0.26313 0.0
O259 O 0.93741 0.62539 0.26617 0.0
In260 In 0.42187 0.36018 0.24944 0.0
O261 O 0.38861 0.34294 0.26817 0.0
O262 O 0.41874 0.38302 0.27061 0.0
C263 C 0.40157 0.35555 0.21996 0.0
C264 C 0.46921 0.40506 0.24837 0.0
C265 C 0.42484 0.31576 0.25356 0.0
O266 O 0.39349 0.36331 0.23158 0.0
O267 O 0.41964 0.35046 0.22327 0.0
O268 O 0.44523 0.33859 0.25317 0.0
O269 O 0.40311 0.31549 0.25214 0.0
C270 C 0.39801 0.36387 0.2763 0.0
O271 O 0.4662 0.38393 0.25456 0.0
O272 O 0.44835 0.40346 0.24267 0.0
In273 In 0.42996 0.36355 0.41687 0.0
O274 O 0.39615 0.34514 0.39869 0.0
O275 O 0.42564 0.38566 0.39583 0.0
C276 C 0.40487 0.35797 0.44494 0.0
C277 C 0.43691 0.32133 0.41339 0.0
C278 C 0.47672 0.40949 0.41612 0.0
O279 O 0.39823 0.36494 0.43238 0.0
O280 O 0.42375 0.3535 0.44328 0.0
O281 O 0.47318 0.38881 0.40907 0.0
O282 O 0.45673 0.40695 0.42355 0.0
C283 C 0.4048 0.36603 0.3905 0.0
O284 O 0.41851 0.32303 0.40658 0.0
O285 O 0.45204 0.34107 0.42188 0.0
In286 In 0.69599 0.09639 0.42108 0.0
O287 O 0.68316 0.06643 0.40024 0.0
O288 O 0.71534 0.10537 0.39675 0.0
C289 C 0.69405 0.06957 0.44768 0.0
C290 C 0.74234 0.14052 0.42701 0.0
C291 C 0.65106 0.09936 0.42043 0.0
O292 O 0.69413 0.06061 0.43399 0.0
O293 O 0.69505 0.09169 0.44777 0.0
O294 O 0.67348 0.11886 0.41704 0.0
O295 O 0.65129 0.07843 0.42393 0.0
C296 C 0.70044 0.08287 0.39081 0.0
O297 O 0.72048 0.14028 0.42675 0.0
O298 O 0.74076 0.11835 0.42437 0.0
In299 In 0.95566 0.62198 0.42129 0.0
O300 O 0.98138 0.6473 0.40023 0.0
O301 O 0.94158 0.6169 0.39593 0.0
C302 C 0.98209 0.64819 0.44764 0.0
C303 C 0.91123 0.62429 0.42566 0.0
C304 C 0.95846 0.57706 0.42211 0.0
O305 O 0.9919 0.65583 0.43394 0.0
O306 O 0.9595 0.62765 0.44786 0.0
O307 O 0.93735 0.57747 0.42471 0.0
O308 O 0.97838 0.5994 0.41908 0.0
C309 C 0.96291 0.63526 0.39023 0.0
O310 O 0.91166 0.60281 0.4262 0.0
O311 O 0.93341 0.64484 0.42299 0.0
In312 In 0.35861 0.96505 0.75005 0.0
O313 O 0.37812 0.99434 0.72956 0.0
O314 O 0.33634 0.97001 0.72904 0.0
C315 C 0.36059 0.99061 0.77726 0.0
C316 C 0.40246 0.96044 0.74976 0.0
C317 C 0.31458 0.9168 0.75167 0.0
O318 O 0.35233 0.99504 0.76438 0.0
O319 O 0.36804 0.97374 0.77627 0.0
O320 O 0.33307 0.922 0.74191 0.0
O321 O 0.31837 0.93589 0.76054 0.0
C322 C 0.35687 0.98755 0.72215 0.0
O323 O 0.37935 0.94052 0.7504 0.0
O324 O 0.40337 0.98254 0.74918 0.0
In325 In 0.10656 0.43994 0.75577 0.0
O326 O 0.07855 0.41837 0.7346 0.0
O327 O 0.12022 0.43698 0.73114 0.0
C328 C 0.07797 0.41497 0.7819 0.0
C329 C 0.10613 0.48593 0.75377 0.0
C330 C 0.15114 0.43832 0.76185 0.0
O331 O 0.07456 0.4031 0.76878 0.0
O332 O 0.09522 0.43928 0.78164 0.0
O333 O 0.15109 0.45989 0.76017 0.0
O334 O 0.12861 0.41763 0.76075 0.0
C335 C 0.09745 0.42388 0.72511 0.0
O336 O 0.12646 0.48492 0.75792 0.0
O337 O 0.08601 0.46373 0.75068 0.0
In338 In 0.62312 0.68868 0.75291 0.0
O339 O 0.63938 0.7088 0.72901 0.0
O340 O 0.64038 0.67356 0.73365 0.0
C341 C 0.64726 0.68911 0.78037 0.0
C342 C 0.57708 0.64232 0.75075 0.0
C343 C 0.61955 0.73248 0.75792 0.0
O344 O 0.65943 0.69532 0.76724 0.0
O345 O 0.62307 0.68234 0.77952 0.0
O346 O 0.59928 0.70988 0.75581 0.0
O347 O 0.64144 0.73287 0.75745 0.0
C348 C 0.64513 0.69195 0.72398 0.0
O349 O 0.57897 0.66414 0.74678 0.0
O350 O 0.59832 0.64401 0.75573 0.0
In351 In 0.6275 0.69021 0.57908 0.0
O352 O 0.60339 0.7114 0.57777 0.0
O353 O 0.64546 0.73494 0.57914 0.0
C354 C 0.57954 0.64583 0.57738 0.0
C355 C 0.64892 0.68979 0.60771 0.0
C356 C 0.65345 0.69132 0.55224 0.0
O357 O 0.58391 0.66507 0.58631 0.0
O358 O 0.59925 0.64914 0.56931 0.0
O359 O 0.65751 0.68322 0.5653 0.0
O360 O 0.63668 0.69894 0.55286 0.0
C361 C 0.62356 0.73439 0.57816 0.0
O362 O 0.6566 0.71054 0.5996 0.0
O363 O 0.63115 0.66902 0.60114 0.0
In364 In 0.35751 0.96933 0.57781 0.0
O365 O 0.37921 0.99309 0.59994 0.0
O366 O 0.33843 0.98074 0.59791 0.0
C367 C 0.35751 0.99274 0.55011 0.0
C368 C 0.31196 0.92256 0.57946 0.0
C369 C 0.40073 0.96398 0.57484 0.0
O370 O 0.3611 0.00443 0.5633 0.0
O371 O 0.35391 0.96956 0.55101 0.0
O372 O 0.37775 0.94437 0.57696 0.0
O373 O 0.40185 0.98619 0.57419 0.0
C374 C 0.3592 0.99232 0.60619 0.0
O375 O 0.33335 0.92591 0.58544 0.0
O376 O 0.31364 0.94277 0.57277 0.0
In377 In 0.11353 0.44785 0.57698 0.0
O378 O 0.08504 0.4237 0.59742 0.0
O379 O 0.12619 0.44795 0.60235 0.0
C380 C 0.08753 0.42288 0.55021 0.0
C381 C 0.15736 0.44436 0.57269 0.0
C382 C 0.1116 0.49328 0.57741 0.0
O383 O 0.07903 0.41325 0.56385 0.0
O384 O 0.10879 0.44494 0.55019 0.0
O385 O 0.133 0.49302 0.57575 0.0
O386 O 0.09122 0.47068 0.57887 0.0
C387 C 0.10344 0.43193 0.60762 0.0
O388 O 0.15789 0.46635 0.57289 0.0
O389 O 0.13461 0.42413 0.57441 0.0
In390 In 0.36436 0.42388 0.57884 0.0
O391 O 0.34368 0.44843 0.578 0.0
O392 O 0.31976 0.40636 0.57687 0.0
C393 C 0.40848 0.47221 0.57808 0.0
C394 C 0.36276 0.40094 0.60724 0.0
C395 C 0.36396 0.39839 0.55195 0.0
O396 O 0.40562 0.45308 0.56957 0.0
O397 O 0.38904 0.467 0.58703 0.0
O398 O 0.37133 0.39373 0.5651 0.0
O399 O 0.35695 0.41562 0.55251 0.0
C400 C 0.32066 0.42847 0.57686 0.0
O401 O 0.38421 0.41725 0.6006 0.0
O402 O 0.34232 0.3955 0.59932 0.0
In403 In 0.6087 0.9445 0.57535 0.0
O404 O 0.59031 0.90021 0.57087 0.0
O405 O 0.6318 0.92256 0.57584 0.0
C406 C 0.56504 0.94927 0.57283 0.0
C407 C 0.61907 0.95218 0.60675 0.0
C408 C 0.63664 0.97104 0.54946 0.0
O409 O 0.56437 0.92742 0.571 0.0
O410 O 0.58774 0.96872 0.5758 0.0
O411 O 0.64297 0.98083 0.56327 0.0
O412 O 0.61651 0.94812 0.54885 0.0
C413 C 0.6118 0.90014 0.57288 0.0
O414 O 0.6342 0.96914 0.59666 0.0
O415 O 0.59909 0.93223 0.60094 0.0
In416 In 0.09479 0.70289 0.58055 0.0
O417 O 0.07084 0.68229 0.60283 0.0
O418 O 0.08343 0.723 0.60009 0.0
C419 C 0.0715 0.70137 0.55253 0.0
C420 C 0.14153 0.74859 0.58131 0.0
C421 C 0.09916 0.65898 0.57893 0.0
O422 O 0.05993 0.69879 0.56566 0.0
O423 O 0.09461 0.70482 0.55362 0.0
O424 O 0.11898 0.68176 0.58135 0.0
O425 O 0.07737 0.65851 0.57727 0.0
C426 C 0.07166 0.70258 0.60865 0.0
O427 O 0.13856 0.72746 0.58749 0.0
O428 O 0.121 0.74652 0.57485 0.0
In429 In 0.09571 0.69894 0.75185 0.0
O430 O 0.06411 0.68151 0.73228 0.0
O431 O 0.09386 0.7219 0.73027 0.0
C432 C 0.07077 0.6972 0.77929 0.0
C433 C 0.09891 0.65429 0.75038 0.0
C434 C 0.14413 0.74273 0.75308 0.0
O435 O 0.06674 0.70611 0.76656 0.0
O436 O 0.08698 0.68893 0.77808 0.0
O437 O 0.13886 0.72362 0.7438 0.0
O438 O 0.12505 0.73959 0.76176 0.0
C439 C 0.07373 0.70252 0.72418 0.0
O440 O 0.11883 0.67674 0.75327 0.0
O441 O 0.07756 0.65445 0.74817 0.0
In442 In 0.36014 0.42251 0.75225 0.0
O443 O 0.38359 0.46649 0.74565 0.0
O444 O 0.40469 0.44857 0.75525 0.0
C445 C 0.31636 0.42615 0.75725 0.0
C446 C 0.35737 0.4003 0.72344 0.0
C447 C 0.36085 0.39897 0.77973 0.0
O448 O 0.33887 0.44628 0.75475 0.0
O449 O 0.31597 0.40425 0.75718 0.0
O450 O 0.35448 0.38658 0.76667 0.0
O451 O 0.36707 0.423 0.77879 0.0
C452 C 0.40567 0.46931 0.74992 0.0
O453 O 0.37644 0.40666 0.73286 0.0
O454 O 0.33953 0.40443 0.72869 0.0
In455 In 0.61315 0.94611 0.75614 0.0
O456 O 0.56854 0.92858 0.75891 0.0
O457 O 0.59144 0.96893 0.75163 0.0
C458 C 0.61446 0.90147 0.76254 0.0
C459 C 0.6261 0.95212 0.72499 0.0
C460 C 0.63972 0.97531 0.78172 0.0
O461 O 0.593 0.90193 0.76179 0.0
O462 O 0.63522 0.92364 0.76038 0.0
O463 O 0.65075 0.9786 0.7683 0.0
O464 O 0.61549 0.95782 0.78202 0.0
C465 C 0.56879 0.94962 0.7549 0.0
O466 O 0.63574 0.97178 0.73435 0.0
O467 O 0.61056 0.93019 0.73142 0.0
H468 H 0.07876 0.24604 0.08437 0.0
H469 H 0.23514 0.3273 0.10156 0.0
H470 H 0.12202 0.32912 0.09692 0.0
H471 H 0.19356 0.2462 0.08499 0.0
H472 H 0.193 0.32696 0.10244 0.0
H473 H 0.11986 0.24443 0.0868 0.0
C474 C 0.0969 0.26391 0.08768 0.0
C475 C 0.09707 0.28778 0.09036 0.0
C476 C 0.19305 0.30918 0.0987 0.0
C477 C 0.14405 0.28611 0.0932 0.0
C478 C 0.21709 0.30935 0.09824 0.0
C479 C 0.21782 0.2868 0.0931 0.0
C480 C 0.16958 0.28629 0.09398 0.0
C481 C 0.19387 0.26405 0.08895 0.0
C482 C 0.12034 0.26299 0.08907 0.0
C483 C 0.12106 0.31033 0.09467 0.0
N484 N 0.17072 0.26442 0.0894 0.0
N485 N 0.1436 0.30896 0.09591 0.0
H486 H 0.80956 0.97496 0.07865 0.0
H487 H 0.7235 0.81739 0.09068 0.0
H488 H 0.72632 0.93243 0.09084 0.0
H489 H 0.80682 0.85806 0.07871 0.0
H490 H 0.72476 0.85986 0.09107 0.0
H491 H 0.80963 0.93282 0.07889 0.0
C492 C 0.79134 0.95677 0.0814 0.0
C493 C 0.76789 0.95713 0.08471 0.0
C494 C 0.74282 0.85959 0.08837 0.0
C495 C 0.76781 0.90905 0.08499 0.0
C496 C 0.7421 0.83531 0.08814 0.0
C497 C 0.76509 0.83423 0.08464 0.0
C498 C 0.76671 0.88304 0.08504 0.0
C499 C 0.78864 0.85806 0.08146 0.0
C500 C 0.79139 0.93276 0.08153 0.0
C501 C 0.74484 0.93306 0.08819 0.0
N502 N 0.78885 0.88155 0.08172 0.0
N503 N 0.74539 0.91002 0.08823 0.0
H504 H 0.12208 0.82149 0.07338 0.0
H505 H 0.19927 0.9773 0.09254 0.0
H506 H 0.08362 0.8624 0.09265 0.0
H507 H 0.23688 0.93488 0.07434 0.0
H508 H 0.15646 0.93589 0.09208 0.0
H509 H 0.16407 0.86336 0.07297 0.0
C510 C 0.12248 0.83934 0.0775 0.0
C511 C 0.09937 0.83849 0.08309 0.0
C512 C 0.17408 0.93567 0.08818 0.0
C513 C 0.14743 0.88655 0.0827 0.0
C514 C 0.1985 0.95928 0.08843 0.0
C515 C 0.22162 0.95947 0.0835 0.0
C516 C 0.17285 0.91214 0.08293 0.0
C517 C 0.21954 0.9356 0.07828 0.0
C518 C 0.14648 0.86325 0.07728 0.0
C519 C 0.10101 0.8622 0.08826 0.0
N520 N 0.19559 0.91292 0.07815 0.0
N521 N 0.12468 0.8853 0.08797 0.0
H522 H 0.33408 0.12394 0.91568 0.0
H523 H 0.24466 0.19304 0.91466 0.0
H524 H 0.24844 0.07961 0.91404 0.0
H525 H 0.33033 0.23585 0.91615 0.0
H526 H 0.24516 0.15115 0.91503 0.0
H527 H 0.33268 0.16509 0.91646 0.0
C528 C 0.31495 0.12288 0.9155 0.0
C529 C 0.29134 0.09836 0.91476 0.0
C530 C 0.26383 0.16973 0.91531 0.0
C531 C 0.28955 0.14545 0.91563 0.0
C532 C 0.26355 0.19361 0.9151 0.0
C533 C 0.28749 0.21791 0.91534 0.0
C534 C 0.28823 0.17024 0.91575 0.0
C535 C 0.3114 0.21756 0.91592 0.0
C536 C 0.31416 0.1464 0.91595 0.0
C537 C 0.26711 0.09815 0.91459 0.0
N538 N 0.31116 0.19411 0.91608 0.0
N539 N 0.26683 0.12138 0.91499 0.0
H540 H 0.9753 0.19754 0.91348 0.0
H541 H 0.81684 0.12589 0.90732 0.0
H542 H 0.93177 0.23929 0.90866 0.0
H543 H 0.85933 0.08323 0.91288 0.0
H544 H 0.85902 0.1676 0.90737 0.0
H545 H 0.93327 0.15536 0.91292 0.0
C546 C 0.95689 0.19781 0.9123 0.0
C547 C 0.95697 0.2219 0.91112 0.0
C548 C 0.85918 0.14915 0.90857 0.0
C549 C 0.90892 0.17385 0.91048 0.0
C550 C 0.83509 0.12532 0.90853 0.0
C551 C 0.83463 0.1011 0.91011 0.0
C552 C 0.88303 0.14879 0.9102 0.0
C553 C 0.85884 0.1015 0.91164 0.0
C554 C 0.93293 0.17375 0.91198 0.0
C555 C 0.9326 0.22115 0.90961 0.0
N556 N 0.8821 0.125 0.91166 0.0
N557 N 0.90956 0.19752 0.90934 0.0
H558 H 0.82116 0.72874 0.90398 0.0
H559 H 0.97826 0.81167 0.91838 0.0
H560 H 0.86273 0.81175 0.91676 0.0
H561 H 0.93482 0.72894 0.90503 0.0
H562 H 0.93667 0.81278 0.91764 0.0
H563 H 0.86316 0.72908 0.90404 0.0
C564 C 0.83918 0.74709 0.90678 0.0
C565 C 0.83849 0.77025 0.9104 0.0
C566 C 0.9363 0.79442 0.91486 0.0
C567 C 0.88677 0.7708 0.91053 0.0
C568 C 0.95999 0.79378 0.91528 0.0
C569 C 0.95993 0.77016 0.91178 0.0
C570 C 0.91247 0.77128 0.91092 0.0
C571 C 0.93576 0.74756 0.90783 0.0
C572 C 0.8632 0.74728 0.90682 0.0
C573 C 0.86244 0.79346 0.91392 0.0
N574 N 0.91304 0.74868 0.90752 0.0
N575 N 0.88567 0.79315 0.91393 0.0
H576 H 0.79135 0.6706 0.42481 0.0
H577 H 0.86146 0.58257 0.4308 0.0
H578 H 0.74868 0.58493 0.42638 0.0
H579 H 0.90452 0.66758 0.42428 0.0
H580 H 0.82007 0.58358 0.43193 0.0
H581 H 0.83312 0.67037 0.42728 0.0
C582 C 0.79078 0.65175 0.42577 0.0
C583 C 0.76657 0.62773 0.42529 0.0
C584 C 0.83856 0.60205 0.43032 0.0
C585 C 0.81419 0.62732 0.4281 0.0
C586 C 0.8622 0.60148 0.42969 0.0
C587 C 0.8864 0.62502 0.42734 0.0
C588 C 0.83911 0.62632 0.42858 0.0
C589 C 0.88624 0.64897 0.42604 0.0
C590 C 0.81461 0.65163 0.42716 0.0
C591 C 0.76693 0.60389 0.42662 0.0
N592 N 0.86291 0.649 0.42661 0.0
N593 N 0.79039 0.60429 0.42791 0.0
H594 H 0.40886 0.27824 0.39429 0.0
H595 H 0.47367 0.19677 0.43101 0.0
H596 H 0.47101 0.31029 0.42963 0.0
H597 H 0.40999 0.16478 0.39666 0.0
H598 H 0.47533 0.23959 0.42937 0.0
H599 H 0.41147 0.23766 0.39357 0.0
C600 C 0.42315 0.27676 0.40185 0.0
C601 C 0.43963 0.29754 0.41211 0.0
C602 C 0.46109 0.22324 0.42214 0.0
C603 C 0.44263 0.25111 0.41143 0.0
C604 C 0.46015 0.19883 0.42306 0.0
C605 C 0.44156 0.17721 0.41402 0.0
C606 C 0.44333 0.22602 0.41208 0.0
C607 C 0.42452 0.18091 0.4039 0.0
C608 C 0.42463 0.25359 0.40145 0.0
C609 C 0.4579 0.29468 0.42157 0.0
N610 N 0.42576 0.20482 0.40325 0.0
N611 N 0.4588 0.27178 0.42108 0.0
H612 H 0.90835 0.26121 0.42504 0.0
H613 H 0.75049 0.18979 0.43413 0.0
H614 H 0.86575 0.30231 0.43594 0.0
H615 H 0.7923 0.14722 0.42532 0.0
H616 H 0.79299 0.23093 0.43639 0.0
H617 H 0.86653 0.21889 0.42663 0.0
C618 C 0.89023 0.2613 0.42788 0.0
C619 C 0.89044 0.28526 0.43026 0.0
C620 C 0.79293 0.21259 0.43405 0.0
C621 C 0.84265 0.23709 0.43204 0.0
C622 C 0.76865 0.1891 0.43276 0.0
C623 C 0.76791 0.16513 0.42944 0.0
C624 C 0.81666 0.21215 0.43192 0.0
C625 C 0.79202 0.16533 0.42784 0.0
C626 C 0.86639 0.23717 0.42878 0.0
C627 C 0.86646 0.28429 0.43394 0.0
N628 N 0.81545 0.18853 0.42899 0.0
N629 N 0.84352 0.26062 0.43462 0.0
H630 H 0.99528 0.45427 0.25207 0.0
H631 H 0.91081 0.52681 0.23762 0.0
H632 H 0.91271 0.41371 0.23832 0.0
H633 H 0.99355 0.56856 0.251 0.0
H634 H 0.91112 0.48505 0.23844 0.0
H635 H 0.99509 0.49629 0.25238 0.0
C636 C 0.97711 0.45422 0.24915 0.0
C637 C 0.95398 0.43053 0.24513 0.0
C638 C 0.92923 0.50331 0.24122 0.0
C639 C 0.95361 0.47838 0.24545 0.0
C640 C 0.92906 0.52717 0.24075 0.0
C641 C 0.95221 0.55116 0.24422 0.0
C642 C 0.95274 0.50341 0.24517 0.0
C643 C 0.97528 0.55048 0.24823 0.0
C644 C 0.97701 0.47818 0.24932 0.0
C645 C 0.93099 0.43153 0.24146 0.0
N646 N 0.97498 0.52696 0.24857 0.0
N647 N 0.9314 0.45506 0.24168 0.0
H648 H 0.59308 0.56933 0.24207 0.0
H649 H 0.51779 0.41252 0.25708 0.0
H650 H 0.63408 0.52565 0.2498 0.0
H651 H 0.47925 0.45418 0.23908 0.0
H652 H 0.5603 0.45423 0.25666 0.0
H653 H 0.55075 0.52771 0.24325 0.0
C654 C 0.59315 0.55097 0.24407 0.0
C655 C 0.61709 0.55089 0.24581 0.0
C656 C 0.54254 0.45421 0.25278 0.0
C657 C 0.56875 0.50322 0.24718 0.0
C658 C 0.51829 0.43045 0.25304 0.0
C659 C 0.49502 0.42994 0.24807 0.0
C660 C 0.54342 0.47762 0.24765 0.0
C661 C 0.49675 0.4537 0.24296 0.0
C662 C 0.56899 0.52721 0.24469 0.0
C663 C 0.61605 0.52655 0.24836 0.0
N664 N 0.52053 0.4766 0.24292 0.0
N665 N 0.59225 0.50366 0.24899 0.0
H666 H 0.5297 0.14398 0.24038 0.0
H667 H 0.59721 0.05327 0.24462 0.0
H668 H 0.48543 0.0583 0.23993 0.0
H669 H 0.6417 0.13876 0.24119 0.0
H670 H 0.55598 0.05474 0.24326 0.0
H671 H 0.57101 0.14256 0.24068 0.0
C672 C 0.52869 0.12488 0.24025 0.0
C673 C 0.50414 0.10122 0.24015 0.0
C674 C 0.57475 0.07318 0.2428 0.0
C675 C 0.55124 0.09942 0.24063 0.0
C676 C 0.59828 0.07236 0.24362 0.0
C677 C 0.62287 0.09594 0.24304 0.0
C678 C 0.57584 0.09778 0.24142 0.0
C679 C 0.62314 0.12011 0.2417 0.0
C680 C 0.55226 0.12407 0.24044 0.0
C681 C 0.50395 0.07701 0.23999 0.0
N682 N 0.59997 0.12042 0.24095 0.0
N683 N 0.52715 0.07673 0.24031 0.0
H684 H 0.40591 0.9155 0.75318 0.0
H685 H 0.56466 0.99323 0.74785 0.0
H686 H 0.45389 0.00034 0.747 0.0
H687 H 0.51758 0.91011 0.75975 0.0
H688 H 0.52406 0.99577 0.74619 0.0
H689 H 0.44642 0.91259 0.75423 0.0
C690 C 0.42498 0.9335 0.752 0.0
C691 C 0.4266 0.9582 0.75002 0.0
C692 C 0.52259 0.97697 0.74918 0.0
C693 C 0.47294 0.95505 0.75122 0.0
C694 C 0.54576 0.97552 0.75012 0.0
C695 C 0.54444 0.95143 0.75396 0.0
C696 C 0.49791 0.95415 0.75204 0.0
C697 C 0.51945 0.92909 0.75678 0.0
C698 C 0.44808 0.93184 0.75264 0.0
C699 C 0.45177 0.9809 0.74857 0.0
N700 N 0.49715 0.93098 0.75574 0.0
N701 N 0.47396 0.97878 0.74919 0.0
H702 H 0.14697 0.53614 0.75968 0.0
H703 H 0.05885 0.60424 0.74364 0.0
H704 H 0.06463 0.4929 0.7455 0.0
H705 H 0.14184 0.64824 0.75632 0.0
H706 H 0.06087 0.56332 0.74387 0.0
H707 H 0.14578 0.57752 0.7582 0.0
C708 C 0.12865 0.53537 0.75623 0.0
C709 C 0.10584 0.51108 0.75274 0.0
C710 C 0.07867 0.58191 0.74657 0.0
C711 C 0.10432 0.55828 0.75103 0.0
C712 C 0.07753 0.60528 0.74644 0.0
C713 C 0.10021 0.62963 0.75 0.0
C714 C 0.10266 0.58287 0.75034 0.0
C715 C 0.12389 0.62986 0.75352 0.0
C716 C 0.12799 0.55899 0.75538 0.0
C717 C 0.08266 0.51121 0.74832 0.0
N718 N 0.12449 0.6068 0.75364 0.0
N719 N 0.08248 0.53444 0.74762 0.0
H720 H 0.41314 0.51736 0.73977 0.0
H721 H 0.56899 0.59345 0.75868 0.0
H722 H 0.45513 0.47947 0.75826 0.0
H723 H 0.52819 0.63303 0.74093 0.0
H724 H 0.52737 0.55129 0.75779 0.0
H725 H 0.45501 0.55976 0.73927 0.0
C726 C 0.43118 0.51796 0.74368 0.0
C727 C 0.4307 0.49492 0.74909 0.0
C728 C 0.52746 0.56915 0.75406 0.0
C729 C 0.47853 0.5432 0.74858 0.0
C730 C 0.55124 0.59324 0.75456 0.0
C731 C 0.552 0.61675 0.7499 0.0
C732 C 0.50419 0.56851 0.74886 0.0
C733 C 0.52842 0.61533 0.74465 0.0
C734 C 0.45505 0.54214 0.7434 0.0
C735 C 0.4546 0.49677 0.75402 0.0
N736 N 0.50542 0.59158 0.7443 0.0
N737 N 0.47751 0.52049 0.75366 0.0
H738 H 0.66431 0.78551 0.57958 0.0
H739 H 0.57117 0.84927 0.56849 0.0
H740 H 0.57917 0.73884 0.57447 0.0
H741 H 0.65566 0.8951 0.57676 0.0
H742 H 0.57377 0.8086 0.56943 0.0
H743 H 0.66157 0.82591 0.57759 0.0
C744 C 0.64502 0.78378 0.57805 0.0
C745 C 0.62192 0.75882 0.57721 0.0
C746 C 0.59175 0.82755 0.571 0.0
C747 C 0.61862 0.80499 0.57487 0.0
C748 C 0.59029 0.85077 0.57042 0.0
C749 C 0.61324 0.87555 0.57257 0.0
C750 C 0.61634 0.82919 0.57374 0.0
C751 C 0.63747 0.87638 0.57506 0.0
C752 C 0.64346 0.80686 0.57691 0.0
C753 C 0.59745 0.75773 0.57521 0.0
N754 N 0.63838 0.85353 0.5756 0.0
N755 N 0.59644 0.78052 0.57409 0.0
H756 H 0.18899 0.75873 0.59426 0.0
H757 H 0.26398 0.91134 0.56746 0.0
H758 H 0.1518 0.79595 0.56882 0.0
H759 H 0.30284 0.87571 0.59278 0.0
H760 H 0.22259 0.86898 0.56819 0.0
H761 H 0.23088 0.80118 0.59418 0.0
C762 C 0.18965 0.77583 0.58867 0.0
C763 C 0.16695 0.77387 0.58153 0.0
C764 C 0.24013 0.87035 0.57361 0.0
C765 C 0.2146 0.82232 0.58139 0.0
C766 C 0.26378 0.89457 0.5732 0.0
C767 C 0.28685 0.897 0.58007 0.0
C768 C 0.23949 0.84835 0.58094 0.0
C769 C 0.28546 0.87463 0.58734 0.0
C770 C 0.21353 0.80002 0.58863 0.0
C771 C 0.16884 0.79659 0.57446 0.0
N772 N 0.26214 0.85118 0.58758 0.0
N773 N 0.19224 0.81983 0.57457 0.0
H774 H 0.26936 0.38822 0.57454 0.0
H775 H 0.20873 0.48498 0.57083 0.0
H776 H 0.31724 0.47369 0.57583 0.0
H777 H 0.1612 0.39949 0.57226 0.0
H778 H 0.24886 0.48138 0.57094 0.0
H779 H 0.2296 0.39207 0.57222 0.0
C780 C 0.27149 0.40781 0.57433 0.0
C781 C 0.29659 0.43068 0.57543 0.0
C782 C 0.22965 0.46341 0.57116 0.0
C783 C 0.25119 0.43526 0.57275 0.0
C784 C 0.20676 0.46545 0.57105 0.0
C785 C 0.18165 0.44249 0.5716 0.0
C786 C 0.22738 0.43822 0.57181 0.0
C787 C 0.18019 0.41769 0.57188 0.0
C788 C 0.24879 0.41001 0.57299 0.0
C789 C 0.29823 0.45556 0.57506 0.0
N790 N 0.20275 0.41622 0.57204 0.0
N791 N 0.27581 0.4572 0.57376 0.0
H792 H 0.016 0.35604 0.11802 0.0
H793 H 0.01319 0.33916 0.21264 0.0
H794 H 0.03735 0.3041 0.14238 0.0
H795 H 0.98153 0.38254 0.18822 0.0
H796 H 0.02943 0.33248 0.1872 0.0
H797 H 0.01018 0.37202 0.14385 0.0
C798 C 0.01971 0.34822 0.1288 0.0
C799 C 0.02686 0.32853 0.12809 0.0
C800 C 0.01917 0.34371 0.18744 0.0
C801 C 0.02029 0.34663 0.15759 0.0
C802 C 0.01001 0.34761 0.20196 0.0
C803 C 0.99576 0.36116 0.20249 0.0
C804 C 0.01403 0.35344 0.17338 0.0
C805 C 0.99223 0.37175 0.18831 0.0
C806 C 0.01637 0.3573 0.14352 0.0
C807 C 0.03154 0.31911 0.14239 0.0
N808 N 0.00108 0.36746 0.17431 0.0
N809 N 0.02801 0.32812 0.15655 0.0
H810 H 0.74409 0.7598 0.13962 0.0
H811 H 0.66948 0.62179 0.18573 0.0
H812 H 0.70139 0.68398 0.11593 0.0
H813 H 0.7074 0.69809 0.20909 0.0
H814 H 0.67701 0.64415 0.16009 0.0
H815 H 0.72715 0.73768 0.16508 0.0
C816 C 0.73096 0.73848 0.13978 0.0
C817 C 0.72433 0.72364 0.12568 0.0
C818 C 0.68342 0.65601 0.17082 0.0
C819 C 0.70498 0.69813 0.15481 0.0
C820 C 0.67911 0.64326 0.18547 0.0
C821 C 0.68808 0.65815 0.19953 0.0
C822 C 0.697 0.68387 0.17022 0.0
C823 C 0.70031 0.68587 0.19852 0.0
C824 C 0.72126 0.72586 0.15433 0.0
C825 C 0.70709 0.69613 0.12655 0.0
N826 N 0.70467 0.69786 0.18409 0.0
N827 N 0.69822 0.6842 0.14091 0.0
H828 H 0.37412 0.05538 0.11684 0.0
H829 H 0.36075 0.03745 0.21138 0.0
H830 H 0.29878 0.01167 0.14091 0.0
H831 H 0.43003 0.099 0.18761 0.0
H832 H 0.33944 0.02132 0.1854 0.0
H833 H 0.39668 0.06472 0.14257 0.0
C834 C 0.36236 0.04747 0.12753 0.0
C835 C 0.33456 0.03294 0.12679 0.0
C836 C 0.35936 0.03826 0.18591 0.0
C837 C 0.36017 0.04358 0.1562 0.0
C838 C 0.37152 0.04742 0.20069 0.0
C839 C 0.39707 0.06971 0.2016 0.0
C840 C 0.37302 0.05133 0.172 0.0
C841 C 0.41021 0.08189 0.18742 0.0
C842 C 0.37522 0.0529 0.1422 0.0
C843 C 0.32026 0.02313 0.14099 0.0
N844 N 0.39802 0.07257 0.17321 0.0
N845 N 0.33323 0.02874 0.15515 0.0
H846 H 0.354 0.014 0.87775 0.0
H847 H 0.3392 0.02223 0.78361 0.0
H848 H 0.30803 0.04491 0.85572 0.0
H849 H 0.37935 0.9852 0.80585 0.0
H850 H 0.33313 0.03669 0.80984 0.0
H851 H 0.36894 0.00918 0.85141 0.0
C852 C 0.34727 0.02 0.86737 0.0
C853 C 0.32956 0.0296 0.86888 0.0
C854 C 0.3435 0.02562 0.80896 0.0
C855 C 0.34642 0.02407 0.83875 0.0
C856 C 0.34702 0.01744 0.794 0.0
C857 C 0.35954 0.00228 0.79261 0.0
C858 C 0.35257 0.01855 0.82258 0.0
C859 C 0.36936 0.99666 0.80642 0.0
C860 C 0.35576 0.01723 0.85235 0.0
C861 C 0.32153 0.03721 0.85507 0.0
N862 N 0.36548 0.00461 0.82084 0.0
N863 N 0.32986 0.03409 0.84057 0.0
H864 H 0.08135 0.43715 0.81099 0.0
H865 H 0.0121 0.29749 0.85575 0.0
H866 H 0.04524 0.36163 0.78679 0.0
H867 H 0.04732 0.37295 0.88 0.0
H868 H 0.01947 0.3205 0.83038 0.0
H869 H 0.06441 0.41399 0.83621 0.0
C870 C 0.06957 0.41568 0.81096 0.0
C871 C 0.06489 0.40125 0.7968 0.0
C872 C 0.02537 0.33205 0.84124 0.0
C873 C 0.04565 0.37459 0.82566 0.0
C874 C 0.02117 0.31892 0.85574 0.0
C875 C 0.02936 0.33338 0.86999 0.0
C876 C 0.03802 0.35988 0.84095 0.0
C877 C 0.04084 0.36106 0.86928 0.0
C878 C 0.05993 0.40246 0.82538 0.0
C879 C 0.04941 0.37349 0.79745 0.0
N880 N 0.04508 0.37345 0.85498 0.0
N881 N 0.04057 0.36104 0.81168 0.0
H882 H 0.62436 0.67493 0.80967 0.0
H883 H 0.76311 0.74769 0.85532 0.0
H884 H 0.70029 0.70929 0.78606 0.0
H885 H 0.6873 0.70905 0.87921 0.0
H886 H 0.74047 0.73047 0.83 0.0
H887 H 0.64691 0.68374 0.83531 0.0
C888 C 0.64579 0.68409 0.80989 0.0
C889 C 0.66053 0.69162 0.79574 0.0
C890 C 0.72876 0.72554 0.84077 0.0
C891 C 0.68649 0.70195 0.82504 0.0
C892 C 0.74167 0.73539 0.85524 0.0
C893 C 0.72701 0.72996 0.86935 0.0
C894 C 0.70093 0.7103 0.84038 0.0
C895 C 0.69933 0.7138 0.86858 0.0
C896 C 0.65865 0.68912 0.82453 0.0
C897 C 0.6882 0.70329 0.7967 0.0
N898 N 0.68715 0.70473 0.8543 0.0
N899 N 0.70032 0.70834 0.81112 0.0
H900 H 0.01451 0.7523 0.8564 0.0
H901 H 0.07592 0.67803 0.80787 0.0
H902 H 0.04546 0.70659 0.87872 0.0
H903 H 0.0401 0.71949 0.78583 0.0
H904 H 0.06133 0.68473 0.83382 0.0
H905 H 0.02016 0.73711 0.83046 0.0
C906 C 0.02232 0.73888 0.85583 0.0
C907 C 0.02977 0.73087 0.8697 0.0
C908 C 0.05641 0.69213 0.8233 0.0
C909 C 0.03647 0.71351 0.84001 0.0
C910 C 0.06472 0.68831 0.80849 0.0
C911 C 0.0594 0.69845 0.79471 0.0
C912 C 0.04284 0.70636 0.82436 0.0
C913 C 0.04473 0.71147 0.79617 0.0
C914 C 0.02552 0.73018 0.84101 0.0
C915 C 0.03959 0.71333 0.8683 0.0
N916 N 0.03718 0.71529 0.81076 0.0
N917 N 0.04291 0.70542 0.85368 0.0
H918 H 0.34216 0.34623 0.78575 0.0
H919 H 0.34929 0.36646 0.88014 0.0
H920 H 0.37595 0.42266 0.80876 0.0
H921 H 0.30858 0.2899 0.85714 0.0
H922 H 0.36515 0.38739 0.85415 0.0
H923 H 0.33558 0.32524 0.81187 0.0
C924 C 0.34846 0.3586 0.79629 0.0
C925 C 0.35935 0.38617 0.79513 0.0
C926 C 0.35294 0.36599 0.85481 0.0
C927 C 0.35181 0.36238 0.82499 0.0
C928 C 0.34395 0.35405 0.86964 0.0
C929 C 0.32739 0.32646 0.87075 0.0
C930 C 0.34528 0.3502 0.84102 0.0
C931 C 0.32113 0.31128 0.85679 0.0
C932 C 0.34466 0.34663 0.81119 0.0
C933 C 0.36725 0.4013 0.80914 0.0
N934 N 0.32991 0.32337 0.84249 0.0
N935 N 0.36314 0.38919 0.82349 0.0
H936 H 0.68296 0.01042 0.8803 0.0
H937 H 0.69322 0.00906 0.7854 0.0
H938 H 0.7569 0.04191 0.85468 0.0
H939 H 0.61925 0.97233 0.81127 0.0
H940 H 0.71704 0.02699 0.81046 0.0
H941 H 0.65942 0.00199 0.85493 0.0
C942 C 0.69425 0.01582 0.86934 0.0
C943 C 0.72186 0.02662 0.86957 0.0
C944 C 0.69557 0.01522 0.81063 0.0
C945 C 0.69513 0.01694 0.84054 0.0
C946 C 0.68199 0.00506 0.79633 0.0
C947 C 0.65427 0.98898 0.7963 0.0
C948 C 0.6813 0.00922 0.82497 0.0
C949 C 0.64067 0.98445 0.81078 0.0
C950 C 0.68082 0.01097 0.85487 0.0
C951 C 0.73555 0.03334 0.85503 0.0
N952 N 0.65432 0.99433 0.82454 0.0
N953 N 0.72203 0.02819 0.84111 0.0
H954 H 0.75343 0.01447 0.14073 0.0
H955 H 0.66925 0.06615 0.18788 0.0
H956 H 0.7014 0.03725 0.11787 0.0
H957 H 0.71733 0.03855 0.21085 0.0
H958 H 0.67708 0.05132 0.16235 0.0
H959 H 0.73709 0.01904 0.16657 0.0
C960 C 0.73838 0.02024 0.14116 0.0
C961 C 0.72892 0.02575 0.12716 0.0
C962 C 0.68568 0.04821 0.17298 0.0
C963 C 0.71021 0.03115 0.15672 0.0
C964 C 0.6812 0.05664 0.18757 0.0
C965 C 0.69288 0.05379 0.20146 0.0
C966 C 0.70219 0.03705 0.17225 0.0
C967 C 0.70804 0.04122 0.2004 0.0
C968 C 0.72904 0.02281 0.15592 0.0
C969 C 0.70932 0.03296 0.12839 0.0
N970 N 0.71253 0.03359 0.186 0.0
N971 N 0.70079 0.03571 0.14294 0.0
H972 H 0.01312 0.68919 0.11743 0.0
H973 H 0.01292 0.70268 0.21198 0.0
H974 H 0.0443 0.76407 0.142 0.0
H975 H 0.98062 0.62795 0.18712 0.0
H976 H 0.03013 0.72598 0.18673 0.0
H977 H 0.00655 0.66686 0.14304 0.0
C978 C 0.01885 0.70095 0.12821 0.0
C979 C 0.02899 0.72845 0.12762 0.0
C980 C 0.01954 0.70448 0.18683 0.0
C981 C 0.02138 0.70308 0.15696 0.0
C982 C 0.00978 0.69119 0.20124 0.0
C983 C 0.99509 0.66337 0.2016 0.0
C984 C 0.01447 0.6898 0.17269 0.0
C985 C 0.99164 0.64944 0.18736 0.0
C986 C 0.01508 0.68821 0.14283 0.0
C987 C 0.03621 0.74277 0.14194 0.0
N988 N 0.00103 0.6628 0.17347 0.0
N989 N 0.03203 0.72988 0.15604 0.0
H990 H 0.33297 0.28179 0.13144 0.0
H991 H 0.36928 0.373 0.20739 0.0
H992 H 0.33126 0.35501 0.12902 0.0
H993 H 0.40822 0.32852 0.19588 0.0
H994 H 0.34978 0.36376 0.18049 0.0
H995 H 0.355 0.29527 0.15721 0.0
C996 C 0.33729 0.30076 0.13636 0.0
C997 C 0.3304 0.31738 0.12814 0.0
C998 C 0.36278 0.35628 0.18391 0.0
C999 C 0.35521 0.33272 0.15769 0.0
C1000 C 0.37376 0.3614 0.1992 0.0
C1001 C 0.39026 0.3514 0.20383 0.0
C1002 C 0.36798 0.34061 0.17345 0.0
C1003 C 0.39558 0.33659 0.19281 0.0
C1004 C 0.34993 0.30847 0.15101 0.0
C1005 C 0.33647 0.34177 0.13501 0.0
N1006 N 0.38424 0.3314 0.1782 0.0
N1007 N 0.34834 0.34866 0.14955 0.0
H1008 H 0.68226 0.66679 0.54626 0.0
H1009 H 0.68736 0.69102 0.4522 0.0
H1010 H 0.65148 0.71247 0.52371 0.0
H1011 H 0.69833 0.63026 0.47434 0.0
H1012 H 0.68237 0.70577 0.47869 0.0
H1013 H 0.69692 0.66019 0.52023 0.0
C1014 C 0.67892 0.67572 0.53586 0.0
C1015 C 0.6654 0.68993 0.53708 0.0
C1016 C 0.68607 0.68934 0.4777 0.0
C1017 C 0.68197 0.68243 0.50735 0.0
C1018 C 0.68895 0.68098 0.46263 0.0
C1019 C 0.69295 0.65924 0.46112 0.0
C1020 C 0.68748 0.67599 0.49128 0.0
C1021 C 0.69496 0.64693 0.47498 0.0
C1022 C 0.68718 0.67187 0.52102 0.0
C1023 C 0.66161 0.70114 0.52325 0.0
N1024 N 0.69211 0.65541 0.48947 0.0
N1025 N 0.66969 0.69701 0.50893 0.0
H1026 H 0.37227 0.02591 0.44995 0.0
H1027 H 0.37199 0.04462 0.54419 0.0
H1028 H 0.40754 0.10231 0.47311 0.0
H1029 H 0.34605 0.96944 0.52093 0.0
H1030 H 0.37819 0.06561 0.51806 0.0
H1031 H 0.3553 0.00444 0.47565 0.0
C1032 C 0.37613 0.03817 0.46042 0.0
C1033 C 0.39159 0.06589 0.45946 0.0
C1034 C 0.3709 0.04447 0.5187 0.0
C1035 C 0.37247 0.04152 0.48889 0.0
C1036 C 0.36733 0.03251 0.53359 0.0
C1037 C 0.35882 0.00536 0.53468 0.0
C1038 C 0.36584 0.02911 0.50486 0.0
C1039 C 0.35294 0.99051 0.52061 0.0
C1040 C 0.36651 0.02592 0.4751 0.0
C1041 C 0.3959 0.08084 0.47337 0.0
N1042 N 0.35674 0.00262 0.50628 0.0
N1043 N 0.38662 0.06846 0.48755 0.0
H1044 H 0.04191 0.38657 0.45152 0.0
H1045 H 0.03763 0.37984 0.54673 0.0
H1046 H 0.96952 0.34702 0.47885 0.0
H1047 H 0.10589 0.43643 0.5199 0.0
H1048 H 0.0141 0.36079 0.52172 0.0
H1049 H 0.06744 0.39797 0.47637 0.0
C1050 C 0.03144 0.37995 0.46273 0.0
C1051 C 0.00362 0.36609 0.46318 0.0
C1052 C 0.0343 0.37727 0.52133 0.0
C1053 C 0.03251 0.37901 0.49152 0.0
C1054 C 0.04771 0.3881 0.53558 0.0
C1055 C 0.0736 0.4099 0.53535 0.0
C1056 C 0.04698 0.38821 0.50678 0.0
C1057 C 0.08582 0.41979 0.52059 0.0
C1058 C 0.04597 0.38655 0.47688 0.0
C1059 C 0.99097 0.35798 0.478 0.0
N1060 N 0.07237 0.40893 0.50689 0.0
N1061 N 0.00551 0.36468 0.49158 0.0
H1062 H 0.38669 0.36777 0.54594 0.0
H1063 H 0.36623 0.37003 0.45198 0.0
H1064 H 0.34351 0.40142 0.52349 0.0
H1065 H 0.4174 0.34496 0.47357 0.0
H1066 H 0.35145 0.37433 0.47844 0.0
H1067 H 0.39206 0.35217 0.51987 0.0
C1068 C 0.37807 0.37157 0.53556 0.0
C1069 C 0.36493 0.38616 0.53681 0.0
C1070 C 0.36573 0.36764 0.47739 0.0
C1071 C 0.37099 0.36851 0.50706 0.0
C1072 C 0.37411 0.36513 0.46229 0.0
C1073 C 0.39329 0.35745 0.46062 0.0
C1074 C 0.37668 0.36251 0.49091 0.0
C1075 C 0.40275 0.35119 0.47435 0.0
C1076 C 0.38118 0.36273 0.5207 0.0
C1077 C 0.35406 0.3905 0.52302 0.0
N1078 N 0.39454 0.35411 0.48895 0.0
N1079 N 0.3575 0.38189 0.50871 0.0
H1080 H 0.67393 0.02372 0.54643 0.0
H1081 H 0.6788 0.01696 0.45138 0.0
H1082 H 0.6308 0.95128 0.51944 0.0
H1083 H 0.70293 0.08909 0.4778 0.0
H1084 H 0.66944 0.99259 0.47658 0.0
H1085 H 0.69303 0.04793 0.52161 0.0
C1086 C 0.66875 0.01288 0.5353 0.0
C1087 C 0.65055 0.98555 0.53493 0.0
C1088 C 0.67705 0.0138 0.47683 0.0
C1089 C 0.67225 0.01298 0.5066 0.0
C1090 C 0.68248 0.0277 0.46248 0.0
C1091 C 0.69135 0.05497 0.46254 0.0
C1092 C 0.68076 0.0274 0.49128 0.0
C1093 C 0.69581 0.06799 0.47723 0.0
C1094 C 0.67957 0.02669 0.52116 0.0
C1095 C 0.64454 0.97243 0.52021 0.0
N1096 N 0.69034 0.05406 0.491 0.0
N1097 N 0.65525 0.98629 0.50662 0.0
H1098 H 0.03494 0.68448 0.45203 0.0
H1099 H 0.01958 0.68627 0.54663 0.0
H1100 H 0.96038 0.64164 0.477 0.0
H1101 H 0.0943 0.71082 0.52315 0.0
H1102 H 0.99799 0.67801 0.52061 0.0
H1103 H 0.0574 0.70234 0.47756 0.0
C1104 C 0.0233 0.67911 0.46285 0.0
C1105 C 0.99587 0.66136 0.46248 0.0
C1106 C 0.01916 0.68542 0.52117 0.0
C1107 C 0.02122 0.68166 0.49153 0.0
C1108 C 0.03147 0.6902 0.536 0.0
C1109 C 0.05867 0.69893 0.53702 0.0
C1110 C 0.0342 0.68955 0.50729 0.0
C1111 C 0.0732 0.70381 0.52287 0.0
C1112 C 0.03609 0.68921 0.47739 0.0
C1113 C 0.98164 0.65503 0.4768 0.0
N1114 N 0.06075 0.6989 0.50858 0.0
N1115 N 0.99449 0.66508 0.49075 0.0
H1116 H 0.98864 0.3093 0.03873 0.0
H1117 H 0.07426 0.34657 0.95905 0.0
H1118 H 0.07357 0.34216 0.03756 0.0
H1119 H 0.98877 0.30845 0.96003 0.0
H1120 H 0.07517 0.35341 0.98777 0.0
H1121 H 0.98918 0.31709 0.01011 0.0
C1122 C 0.00746 0.31859 0.0325 0.0
C1123 C 0.03105 0.32477 0.04048 0.0
C1124 C 0.05623 0.3439 0.98168 0.0
C1125 C 0.0318 0.33349 0.00773 0.0
C1126 C 0.05571 0.34007 0.96527 0.0
C1127 C 0.03138 0.3266 0.95719 0.0
C1128 C 0.03224 0.33407 0.99008 0.0
C1129 C 0.00796 0.31871 0.96583 0.0
C1130 C 0.00776 0.32297 0.01615 0.0
C1131 C 0.05488 0.33685 0.03184 0.0
N1132 N 0.00894 0.32224 0.98184 0.0
N1133 N 0.0546 0.34051 0.0159 0.0
H1134 H 0.7098 0.75517 0.95782 0.0
H1135 H 0.75165 0.70799 0.03584 0.0
H1136 H 0.75219 0.71193 0.95752 0.0
H1137 H 0.70843 0.7504 0.03628 0.0
H1138 H 0.74452 0.70173 0.00717 0.0
H1139 H 0.70159 0.7462 0.98628 0.0
C1140 C 0.71695 0.74337 0.96369 0.0
C1141 C 0.73205 0.73463 0.95537 0.0
C1142 C 0.73622 0.71204 0.01356 0.0
C1143 C 0.72305 0.72457 0.98793 0.0
C1144 C 0.74024 0.71556 0.02994 0.0
C1145 C 0.73097 0.73009 0.03839 0.0
C1146 C 0.72305 0.72335 0.00556 0.0
C1147 C 0.71617 0.73932 0.03018 0.0
C1148 C 0.71231 0.7383 0.97994 0.0
C1149 C 0.74072 0.7193 0.96353 0.0
N1150 N 0.71302 0.73616 0.01417 0.0
N1151 N 0.73643 0.7151 0.9794 0.0
H1152 H 0.35384 0.06808 0.95746 0.0
H1153 H 0.31192 0.98692 0.03906 0.0
H1154 H 0.30035 0.9835 0.96036 0.0
H1155 H 0.34186 0.07116 0.03516 0.0
H1156 H 0.31951 0.98541 0.01047 0.0
H1157 H 0.36166 0.06901 0.98609 0.0
C1158 C 0.34419 0.04961 0.96406 0.0
C1159 C 0.32607 0.02574 0.95661 0.0
C1160 C 0.32485 0.00428 0.01597 0.0
C1161 C 0.33482 0.02671 0.98929 0.0
C1162 C 0.32063 0.00517 0.03225 0.0
C1163 C 0.32594 0.02914 0.03937 0.0
C1164 C 0.33468 0.02757 0.00686 0.0
C1165 C 0.33718 0.05222 0.03005 0.0
C1166 C 0.34858 0.05018 0.98039 0.0
C1167 C 0.31421 0.00238 0.9657 0.0
N1168 N 0.34097 0.05083 0.01424 0.0
N1169 N 0.31853 0.00349 0.98164 0.0
H1170 H 0.98337 0.70946 0.95852 0.0
H1171 H 0.06438 0.7423 0.04004 0.0
H1172 H 0.06894 0.75254 0.96125 0.0
H1173 H 0.98229 0.72176 0.03637 0.0
H1174 H 0.06461 0.73419 0.01144 0.0
H1175 H 0.98136 0.70174 0.98718 0.0
C1176 C 0.00175 0.71683 0.9651 0.0
C1177 C 0.02637 0.73203 0.95757 0.0
C1178 C 0.04644 0.73104 0.01698 0.0
C1179 C 0.02418 0.72341 0.99033 0.0
C1180 C 0.04626 0.73554 0.03328 0.0
C1181 C 0.02337 0.73303 0.04049 0.0
C1182 C 0.02351 0.72376 0.00792 0.0
C1183 C 0.00044 0.72424 0.03121 0.0
C1184 C 0.00057 0.7125 0.98146 0.0
C1185 C 0.04955 0.74098 0.96665 0.0
N1186 N 0.00116 0.72014 0.01537 0.0
N1187 N 0.04789 0.73681 0.98261 0.0
H1188 H 0.35013 0.32282 0.03966 0.0
H1189 H 0.28926 0.34164 0.95881 0.0
H1190 H 0.27981 0.32972 0.03655 0.0
H1191 H 0.34497 0.31322 0.96077 0.0
H1192 H 0.29486 0.35009 0.9874 0.0
H1193 H 0.3572 0.33171 0.01101 0.0
C1194 C 0.33656 0.32681 0.03301 0.0
C1195 C 0.31416 0.32519 0.04037 0.0
C1196 C 0.30619 0.34241 0.98153 0.0
C1197 C 0.32207 0.33531 0.00779 0.0
C1198 C 0.30308 0.33767 0.9652 0.0
C1199 C 0.31634 0.32629 0.95748 0.0
C1200 C 0.32266 0.33571 0.99018 0.0
C1201 C 0.33413 0.32171 0.96632 0.0
C1202 C 0.34052 0.33175 0.01668 0.0
C1203 C 0.29714 0.33046 0.03126 0.0
N1204 N 0.33651 0.3261 0.98227 0.0
N1205 N 0.30131 0.33505 0.01542 0.0
H1206 H 0.70834 0.98452 0.95793 0.0
H1207 H 0.7507 0.07002 0.03761 0.0
H1208 H 0.74991 0.07017 0.95908 0.0
H1209 H 0.71148 0.98446 0.03643 0.0
H1210 H 0.74272 0.07015 0.00908 0.0
H1211 H 0.70139 0.98383 0.98663 0.0
C1212 C 0.71557 0.00318 0.96418 0.0
C1213 C 0.73005 0.02745 0.95616 0.0
C1214 C 0.73548 0.05131 0.01509 0.0
C1215 C 0.7225 0.02683 0.98902 0.0
C1216 C 0.73998 0.05123 0.0314 0.0
C1217 C 0.73207 0.02721 0.03934 0.0
C1218 C 0.72314 0.0272 0.00667 0.0
C1219 C 0.71815 0.00345 0.03073 0.0
C1220 C 0.71167 0.00278 0.98058 0.0
C1221 C 0.73887 0.05101 0.96483 0.0
N1222 N 0.71446 0.00406 0.01482 0.0
N1223 N 0.73528 0.05013 0.98082 0.0
H1224 H 0.66491 0.65406 0.2894 0.0
H1225 H 0.74492 0.663 0.36858 0.0
H1226 H 0.73673 0.6497 0.29145 0.0
H1227 H 0.66664 0.65388 0.36938 0.0
H1228 H 0.74631 0.66871 0.33988 0.0
H1229 H 0.66899 0.66358 0.31811 0.0
C1230 C 0.68174 0.65556 0.29584 0.0
C1231 C 0.70034 0.65078 0.28815 0.0
C1232 C 0.7289 0.66578 0.34629 0.0
C1233 C 0.70517 0.66169 0.32073 0.0
C1234 C 0.72815 0.6626 0.3627 0.0
C1235 C 0.70548 0.65759 0.3713 0.0
C1236 C 0.70666 0.66357 0.33832 0.0
C1237 C 0.68443 0.65757 0.36313 0.0
C1238 C 0.68401 0.6609 0.31218 0.0
C1239 C 0.72175 0.65292 0.29697 0.0
N1240 N 0.68532 0.66005 0.347 0.0
N1241 N 0.72348 0.65804 0.31278 0.0
H1242 H 0.37665 0.07697 0.37159 0.0
H1243 H 0.44375 0.06244 0.29314 0.0
H1244 H 0.43975 0.05841 0.37071 0.0
H1245 H 0.37634 0.07439 0.29229 0.0
H1246 H 0.43722 0.05345 0.32153 0.0
H1247 H 0.37078 0.06886 0.34286 0.0
C1248 C 0.38886 0.07063 0.36541 0.0
C1249 C 0.40901 0.06878 0.37344 0.0
C1250 C 0.42354 0.05765 0.31517 0.0
C1251 C 0.40259 0.0597 0.34071 0.0
C1252 C 0.4273 0.06278 0.29894 0.0
C1253 C 0.41076 0.06949 0.29047 0.0
C1254 C 0.40343 0.05978 0.32308 0.0
C1255 C 0.38958 0.0694 0.29848 0.0
C1256 C 0.38556 0.06607 0.34902 0.0
C1257 C 0.42425 0.06047 0.36492 0.0
N1258 N 0.3868 0.06514 0.31446 0.0
N1259 N 0.42095 0.05658 0.349 0.0
H1260 H 0.00896 0.3693 0.37316 0.0
H1261 H 0.92158 0.31764 0.29379 0.0
H1262 H 0.92337 0.32718 0.3712 0.0
H1263 H 0.0053 0.3752 0.29254 0.0
H1264 H 0.92418 0.31461 0.32245 0.0
H1265 H 0.01006 0.36598 0.34395 0.0
C1266 C 0.99047 0.35911 0.36661 0.0
C1267 C 0.96604 0.34869 0.37453 0.0
C1268 C 0.94209 0.32785 0.31597 0.0
C1269 C 0.96712 0.34468 0.34144 0.0
C1270 C 0.94061 0.32956 0.29956 0.0
C1271 C 0.96319 0.34697 0.2908 0.0
C1272 C 0.96629 0.34381 0.32381 0.0
C1273 C 0.9874 0.36165 0.29891 0.0
C1274 C 0.99111 0.35731 0.35 0.0
C1275 C 0.94264 0.33574 0.36556 0.0
N1276 N 0.98829 0.35997 0.31505 0.0
N1277 N 0.94379 0.33416 0.34954 0.0
H1278 H 0.66404 0.04131 0.37241 0.0
H1279 H 0.74026 0.11394 0.29266 0.0
H1280 H 0.74069 0.11266 0.3705 0.0
H1281 H 0.66431 0.04166 0.29226 0.0
H1282 H 0.74265 0.10994 0.32129 0.0
H1283 H 0.66547 0.03724 0.34336 0.0
C1284 C 0.68133 0.05583 0.36591 0.0
C1285 C 0.70215 0.07751 0.37382 0.0
C1286 C 0.7255 0.09475 0.31501 0.0
C1287 C 0.70388 0.07309 0.34076 0.0
C1288 C 0.72415 0.09704 0.29862 0.0
C1289 C 0.70194 0.07824 0.29012 0.0
C1290 C 0.7043 0.07367 0.32309 0.0
C1291 C 0.68176 0.05662 0.29842 0.0
C1292 C 0.6821 0.05356 0.34936 0.0
C1293 C 0.72406 0.09579 0.36487 0.0
N1294 N 0.68323 0.05509 0.31453 0.0
N1295 N 0.72423 0.09327 0.34886 0.0
H1296 H 0.00821 0.66155 0.37191 0.0
H1297 H 0.92247 0.63546 0.29258 0.0
H1298 H 0.92277 0.6232 0.36971 0.0
H1299 H 0.00451 0.65523 0.29123 0.0
H1300 H 0.9253 0.64024 0.32131 0.0
H1301 H 0.00994 0.66776 0.34282 0.0
C1302 C 0.98991 0.65475 0.36534 0.0
C1303 C 0.9653 0.64162 0.37313 0.0
C1304 C 0.9428 0.64372 0.31479 0.0
C1305 C 0.96711 0.6488 0.3402 0.0
C1306 C 0.9412 0.64104 0.29835 0.0
C1307 C 0.96318 0.64459 0.28955 0.0
C1308 C 0.96651 0.6498 0.3226 0.0
C1309 C 0.98705 0.65215 0.29764 0.0
C1310 C 0.9909 0.65821 0.3488 0.0
C1311 C 0.94216 0.63315 0.36414 0.0
N1312 N 0.98803 0.65421 0.3138 0.0
N1313 N 0.94365 0.63684 0.3482 0.0
H1314 H 0.41648 0.4095 0.37254 0.0
H1315 H 0.36155 0.32242 0.29436 0.0
H1316 H 0.36871 0.32403 0.37263 0.0
H1317 H 0.41334 0.40741 0.295 0.0
H1318 H 0.35432 0.32348 0.32296 0.0
H1319 H 0.40574 0.40984 0.34453 0.0
C1320 C 0.40332 0.39082 0.36671 0.0
C1321 C 0.39388 0.36667 0.37479 0.0
C1322 C 0.36683 0.34196 0.31678 0.0
C1323 C 0.38188 0.36684 0.34267 0.0
C1324 C 0.37087 0.34138 0.30045 0.0
C1325 C 0.38849 0.36481 0.2924 0.0
C1326 C 0.38056 0.36614 0.32506 0.0
C1327 C 0.39995 0.38883 0.30082 0.0
C1328 C 0.39721 0.391 0.35071 0.0
C1329 C 0.37664 0.34307 0.36676 0.0
N1330 N 0.39612 0.38882 0.31673 0.0
N1331 N 0.3716 0.3437 0.35103 0.0
H1332 H 0.31368 0.97422 0.70326 0.0
H1333 H 0.40208 0.02077 0.62543 0.0
H1334 H 0.39923 0.02095 0.70374 0.0
H1335 H 0.31658 0.98242 0.62472 0.0
H1336 H 0.40147 0.02707 0.65408 0.0
H1337 H 0.31409 0.98284 0.67478 0.0
C1338 C 0.33253 0.9867 0.69742 0.0
C1339 C 0.35648 0.99657 0.7058 0.0
C1340 C 0.38284 0.01767 0.64765 0.0
C1341 C 0.35715 0.00622 0.67321 0.0
C1342 C 0.3832 0.0141 0.63128 0.0
C1343 C 0.35933 0.00073 0.62275 0.0
C1344 C 0.3584 0.00745 0.65559 0.0
C1345 C 0.33543 0.99266 0.63089 0.0
C1346 C 0.33276 0.9916 0.68116 0.0
C1347 C 0.38031 0.01273 0.69769 0.0
N1348 N 0.33554 0.99573 0.64691 0.0
N1349 N 0.38007 0.01671 0.68179 0.0
H1350 H 0.0537 0.40984 0.7061 0.0
H1351 H 0.14001 0.43318 0.62788 0.0
H1352 H 0.13376 0.42358 0.70521 0.0
H1353 H 0.05792 0.41298 0.62569 0.0
H1354 H 0.13559 0.42485 0.65629 0.0
H1355 H 0.05212 0.40597 0.6769 0.0
C1356 C 0.07071 0.41156 0.69979 0.0
C1357 C 0.09402 0.41738 0.70801 0.0
C1358 C 0.11837 0.42199 0.64968 0.0
C1359 C 0.09243 0.41312 0.67485 0.0
C1360 C 0.12094 0.42681 0.63342 0.0
C1361 C 0.09938 0.42404 0.62449 0.0
C1362 C 0.09416 0.41477 0.65724 0.0
C1363 C 0.07503 0.41541 0.63223 0.0
C1364 C 0.06984 0.40944 0.68316 0.0
C1365 C 0.11552 0.41946 0.69932 0.0
N1366 N 0.07314 0.41144 0.64827 0.0
N1367 N 0.11426 0.41755 0.68327 0.0
H1368 H 0.6437 0.65111 0.70697 0.0
H1369 H 0.68111 0.7333 0.62567 0.0
H1370 H 0.66608 0.73372 0.70343 0.0
H1371 H 0.63473 0.64778 0.62784 0.0
H1372 H 0.68735 0.73454 0.65447 0.0
H1373 H 0.6517 0.65077 0.67834 0.0
C1374 C 0.65082 0.66929 0.70023 0.0
C1375 C 0.65396 0.69241 0.70749 0.0
C1376 C 0.67616 0.71548 0.6486 0.0
C1377 C 0.66316 0.69216 0.67491 0.0
C1378 C 0.67268 0.71475 0.63216 0.0
C1379 C 0.65705 0.69041 0.62441 0.0
C1380 C 0.664 0.69172 0.65733 0.0
C1381 C 0.64669 0.66698 0.6334 0.0
C1382 C 0.65525 0.66905 0.68391 0.0
C1383 C 0.66314 0.71541 0.69824 0.0
N1384 N 0.6501 0.66822 0.64943 0.0
N1385 N 0.66725 0.71466 0.6824 0.0
H1386 H 0.39879 0.40288 0.70651 0.0
H1387 H 0.3184 0.36949 0.62471 0.0
H1388 H 0.31581 0.37893 0.70269 0.0
H1389 H 0.40396 0.41255 0.62759 0.0
H1390 H 0.31622 0.3619 0.65337 0.0
H1391 H 0.39975 0.39578 0.67783 0.0
C1392 C 0.38066 0.39562 0.69969 0.0
C1393 C 0.35726 0.3918 0.7069 0.0
C1394 C 0.33548 0.37267 0.6477 0.0
C1395 C 0.35822 0.3837 0.67422 0.0
C1396 C 0.33675 0.37693 0.63133 0.0
C1397 C 0.3614 0.39202 0.62382 0.0
C1398 C 0.35903 0.38358 0.65662 0.0
C1399 C 0.38453 0.40104 0.63296 0.0
C1400 C 0.38125 0.39168 0.68334 0.0
C1401 C 0.33434 0.3824 0.69755 0.0
N1402 N 0.38279 0.39696 0.64894 0.0
N1403 N 0.33545 0.37889 0.68167 0.0
H1404 H 0.61413 0.91155 0.7048 0.0
H1405 H 0.65306 0.99643 0.62446 0.0
H1406 H 0.64878 0.99673 0.70581 0.0
H1407 H 0.59674 0.9126 0.6283 0.0
H1408 H 0.65924 0.99819 0.65358 0.0
H1409 H 0.61647 0.91299 0.67599 0.0
C1410 C 0.62243 0.93065 0.69893 0.0
C1411 C 0.63092 0.95402 0.70769 0.0
C1412 C 0.64565 0.97948 0.64795 0.0
C1413 C 0.63339 0.95579 0.67452 0.0
C1414 C 0.64215 0.97845 0.6314 0.0
C1415 C 0.62423 0.95437 0.62402 0.0
C1416 C 0.63145 0.95615 0.65697 0.0
C1417 C 0.61058 0.93164 0.63349 0.0
C1418 C 0.6237 0.93145 0.68245 0.0
C1419 C 0.64187 0.97824 0.69944 0.0
N1420 N 0.61452 0.93311 0.6494 0.0
N1421 N 0.64256 0.97852 0.68323 0.0
H1422 H 0.03629 0.66122 0.70656 0.0
H1423 H 0.08148 0.74598 0.6264 0.0
H1424 H 0.09097 0.74564 0.7047 0.0
H1425 H 0.0427 0.66048 0.62831 0.0
H1426 H 0.07453 0.74678 0.65506 0.0
H1427 H 0.02803 0.66163 0.67807 0.0
C1428 C 0.04614 0.67993 0.70022 0.0
C1429 C 0.06467 0.70336 0.70792 0.0
C1430 C 0.06713 0.72783 0.64914 0.0
C1431 C 0.05546 0.70394 0.67537 0.0
C1432 C 0.07099 0.72735 0.63279 0.0
C1433 C 0.06301 0.70314 0.62506 0.0
C1434 C 0.05515 0.70393 0.65776 0.0
C1435 C 0.04946 0.6796 0.63388 0.0
C1436 C 0.04149 0.68014 0.68396 0.0
C1437 C 0.07678 0.72707 0.69916 0.0
N1438 N 0.04623 0.68059 0.6498 0.0
N1439 N 0.07222 0.7267 0.68329 0.0
H1440 H 0.82396 0.11684 0.10093 0.0
H1441 H 0.97391 0.19923 0.06952 0.0
H1442 H 0.8584 0.0835 0.06958 0.0
H1443 H 0.93758 0.231 0.10059 0.0
H1444 H 0.93237 0.15642 0.06958 0.0
H1445 H 0.86604 0.15855 0.1012 0.0
C1446 C 0.84043 0.11829 0.09411 0.0
C1447 C 0.83768 0.09669 0.0852 0.0
C1448 C 0.93353 0.17277 0.07639 0.0
C1449 C 0.88605 0.14452 0.08542 0.0
C1450 C 0.9572 0.19718 0.07636 0.0
C1451 C 0.95914 0.21867 0.08505 0.0
C1452 C 0.9117 0.16991 0.08518 0.0
C1453 C 0.93695 0.21496 0.09371 0.0
C1454 C 0.86449 0.14214 0.09427 0.0
C1455 C 0.8597 0.0997 0.07661 0.0
N1456 N 0.91418 0.19109 0.09354 0.0
N1457 N 0.88299 0.12322 0.07691 0.0
H1458 H 0.93787 0.73397 0.10274 0.0
H1459 H 0.85651 0.80247 0.07121 0.0
H1460 H 0.97274 0.80485 0.07391 0.0
H1461 H 0.82321 0.73304 0.10125 0.0
H1462 H 0.89954 0.80448 0.07245 0.0
H1463 H 0.89599 0.73412 0.10281 0.0
C1464 C 0.93673 0.74964 0.09647 0.0
C1465 C 0.95878 0.76939 0.08828 0.0
C1466 C 0.88283 0.78885 0.07881 0.0
C1467 C 0.91083 0.76965 0.08824 0.0
C1468 C 0.85828 0.7877 0.07809 0.0
C1469 C 0.83627 0.76752 0.08611 0.0
C1470 C 0.88534 0.76965 0.08758 0.0
C1471 C 0.83966 0.74891 0.09487 0.0
C1472 C 0.9128 0.74971 0.09651 0.0
C1473 C 0.95619 0.78923 0.08037 0.0
N1474 N 0.86369 0.75039 0.09534 0.0
N1475 N 0.9326 0.7888 0.0805 0.0
H1476 H 0.33389 0.1242 0.0888 0.0
H1477 H 0.24553 0.19327 0.08113 0.0
H1478 H 0.2501 0.08016 0.07812 0.0
H1479 H 0.33108 0.23621 0.07821 0.0
H1480 H 0.24618 0.15149 0.08161 0.0
H1481 H 0.33268 0.16549 0.08694 0.0
C1482 C 0.31521 0.12323 0.08611 0.0
C1483 C 0.29205 0.09876 0.08361 0.0
C1484 C 0.26478 0.17006 0.08075 0.0
C1485 C 0.29051 0.1459 0.08147 0.0
C1486 C 0.26442 0.19388 0.08047 0.0
C1487 C 0.28829 0.21819 0.07964 0.0
C1488 C 0.2892 0.17064 0.08039 0.0
C1489 C 0.31221 0.21788 0.07883 0.0
C1490 C 0.31456 0.14681 0.08497 0.0
C1491 C 0.26841 0.09865 0.08011 0.0
N1492 N 0.31207 0.19448 0.07935 0.0
N1493 N 0.26821 0.12189 0.0792 0.0
H1494 H 0.23418 0.93863 0.89487 0.0
H1495 H 0.08405 0.85954 0.92625 0.0
H1496 H 0.20056 0.97355 0.92563 0.0
H1497 H 0.11951 0.82511 0.8966 0.0
H1498 H 0.12587 0.90197 0.92553 0.0
H1499 H 0.19159 0.89735 0.89467 0.0
C1500 C 0.21778 0.93762 0.90155 0.0
C1501 C 0.2209 0.9595 0.91031 0.0
C1502 C 0.12447 0.88513 0.91916 0.0
C1503 C 0.17204 0.91225 0.91017 0.0
C1504 C 0.10062 0.86094 0.91956 0.0
C1505 C 0.09837 0.8388 0.9115 0.0
C1506 C 0.14616 0.88714 0.91062 0.0
C1507 C 0.1204 0.84167 0.90302 0.0
C1508 C 0.19346 0.91402 0.90145 0.0
C1509 C 0.19899 0.9571 0.91874 0.0
N1510 N 0.14337 0.86537 0.90282 0.0
N1511 N 0.17546 0.93385 0.91849 0.0
H1512 H 0.22555 0.31098 0.88973 0.0
H1513 H 0.08123 0.25502 0.92809 0.0
H1514 H 0.19588 0.25398 0.92803 0.0
H1515 H 0.11314 0.31412 0.89098 0.0
H1516 H 0.12177 0.25207 0.92725 0.0
H1517 H 0.18316 0.31 0.88893 0.0
C1518 C 0.21003 0.29813 0.89792 0.0
C1519 C 0.21426 0.28262 0.90901 0.0
C1520 C 0.11985 0.26561 0.91925 0.0
C1521 C 0.16565 0.28148 0.90823 0.0
C1522 C 0.09672 0.26728 0.91973 0.0
C1523 C 0.0939 0.28492 0.90964 0.0
C1524 C 0.14025 0.28169 0.90861 0.0
C1525 C 0.11454 0.30032 0.89901 0.0
C1526 C 0.18582 0.2976 0.89748 0.0
C1527 C 0.19344 0.2663 0.91932 0.0
N1528 N 0.13685 0.29839 0.89881 0.0
N1529 N 0.17004 0.26624 0.91873 0.0
H1530 H 0.74789 0.83341 0.88814 0.0
H1531 H 0.79828 0.97447 0.9299 0.0
H1532 H 0.79826 0.85905 0.92965 0.0
H1533 H 0.74601 0.94633 0.88926 0.0
H1534 H 0.80074 0.93361 0.92933 0.0
H1535 H 0.74924 0.87596 0.88763 0.0
C1536 C 0.75934 0.84807 0.89713 0.0
C1537 C 0.7729 0.84267 0.909 0.0
C1538 C 0.78883 0.93645 0.92051 0.0
C1539 C 0.77448 0.89151 0.90854 0.0
C1540 C 0.78744 0.95975 0.92082 0.0
C1541 C 0.77184 0.96371 0.90964 0.0
C1542 C 0.77452 0.91704 0.90893 0.0
C1543 C 0.7582 0.94404 0.89814 0.0
C1544 C 0.76009 0.87239 0.89684 0.0
C1545 C 0.78748 0.86242 0.92031 0.0
N1546 N 0.75981 0.92156 0.89811 0.0
N1547 N 0.7878 0.88597 0.91985 0.0
H1548 H 0.4868 0.45781 0.42702 0.0
H1549 H 0.64167 0.53192 0.40624 0.0
H1550 H 0.52417 0.41887 0.40375 0.0
H1551 H 0.60015 0.57249 0.42087 0.0
H1552 H 0.59937 0.48993 0.40609 0.0
H1553 H 0.52881 0.49972 0.42588 0.0
C1554 C 0.50389 0.4581 0.42169 0.0
C1555 C 0.50206 0.43486 0.4155 0.0
C1556 C 0.59953 0.50805 0.40926 0.0
C1557 C 0.55022 0.48274 0.41417 0.0
C1558 C 0.62364 0.53199 0.40936 0.0
C1559 C 0.62438 0.55567 0.4136 0.0
C1560 C 0.57607 0.50783 0.41356 0.0
C1561 C 0.60047 0.55468 0.41753 0.0
C1562 C 0.52785 0.48204 0.42099 0.0
C1563 C 0.52477 0.43637 0.40866 0.0
N1564 N 0.57732 0.53113 0.41748 0.0
N1565 N 0.54798 0.45991 0.40823 0.0
H1566 H 0.64485 0.14148 0.41217 0.0
H1567 H 0.49017 0.06619 0.43429 0.0
H1568 H 0.60151 0.06086 0.42943 0.0
H1569 H 0.5302 0.14243 0.41089 0.0
H1570 H 0.53175 0.0654 0.43438 0.0
H1571 H 0.60385 0.14357 0.41313 0.0
C1572 C 0.6267 0.12422 0.41614 0.0
C1573 C 0.62652 0.10094 0.42069 0.0
C1574 C 0.53148 0.08234 0.42925 0.0
C1575 C 0.57968 0.10322 0.4219 0.0
C1576 C 0.50777 0.08284 0.42925 0.0
C1577 C 0.50675 0.10438 0.42254 0.0
C1578 C 0.55439 0.10358 0.42254 0.0
C1579 C 0.53013 0.12541 0.41616 0.0
C1580 C 0.60332 0.12542 0.41669 0.0
C1581 C 0.60251 0.07918 0.42577 0.0
N1582 N 0.55302 0.12447 0.4163 0.0
N1583 N 0.58006 0.08086 0.42626 0.0
H1584 H 0.91804 0.41326 0.43047 0.0
H1585 H 0.00124 0.57052 0.4165 0.0
H1586 H 0.00081 0.45508 0.4172 0.0
H1587 H 0.91804 0.52723 0.42871 0.0
H1588 H 0.00205 0.52882 0.41714 0.0
H1589 H 0.91817 0.45525 0.43036 0.0
C1590 C 0.93627 0.43133 0.42755 0.0
C1591 C 0.95945 0.43073 0.42382 0.0
C1592 C 0.98363 0.52847 0.41969 0.0
C1593 C 0.95977 0.47891 0.42366 0.0
C1594 C 0.98317 0.55224 0.41933 0.0
C1595 C 0.95953 0.55228 0.42255 0.0
C1596 C 0.96028 0.50463 0.4233 0.0
C1597 C 0.93669 0.52809 0.42614 0.0
C1598 C 0.93634 0.45531 0.42748 0.0
C1599 C 0.98251 0.4547 0.42013 0.0
N1600 N 0.93763 0.50526 0.42641 0.0
N1601 N 0.98209 0.47786 0.42013 0.0
H1602 H 0.78836 0.14709 0.23164 0.0
H1603 H 0.85816 0.30566 0.23226 0.0
H1604 H 0.74542 0.1897 0.23409 0.0
H1605 H 0.90133 0.26317 0.2328 0.0
H1606 H 0.81663 0.26338 0.23007 0.0
H1607 H 0.82987 0.18939 0.22923 0.0
C1608 C 0.78766 0.16536 0.23155 0.0
C1609 C 0.76346 0.16493 0.23318 0.0
C1610 C 0.83518 0.26329 0.23055 0.0
C1611 C 0.81083 0.21338 0.23049 0.0
C1612 C 0.8589 0.28743 0.23178 0.0
C1613 C 0.88319 0.28787 0.23283 0.0
C1614 C 0.83575 0.23943 0.2304 0.0
C1615 C 0.88301 0.2637 0.23211 0.0
C1616 C 0.81136 0.1895 0.23019 0.0
C1617 C 0.76367 0.18915 0.23294 0.0
N1618 N 0.85964 0.24043 0.23103 0.0
N1619 N 0.78701 0.21241 0.23172 0.0
H1620 H 0.85683 0.57863 0.23111 0.0
H1621 H 0.78416 0.6646 0.2314 0.0
H1622 H 0.89836 0.6643 0.23189 0.0
H1623 H 0.74246 0.57894 0.23255 0.0
H1624 H 0.82611 0.66481 0.22897 0.0
H1625 H 0.81474 0.57828 0.22899 0.0
C1626 C 0.8571 0.59738 0.2307 0.0
C1627 C 0.88108 0.62154 0.23178 0.0
C1628 C 0.80779 0.64595 0.22965 0.0
C1629 C 0.83302 0.62129 0.22945 0.0
C1630 C 0.78383 0.64582 0.23103 0.0
C1631 C 0.75983 0.62171 0.23229 0.0
C1632 C 0.80777 0.62179 0.22957 0.0
C1633 C 0.76054 0.59797 0.23168 0.0
C1634 C 0.83306 0.59716 0.22952 0.0
C1635 C 0.88029 0.64523 0.23116 0.0
N1636 N 0.78415 0.59861 0.23046 0.0
N1637 N 0.85663 0.64451 0.23013 0.0
H1638 H 0.38351 0.26487 0.25479 0.0
H1639 H 0.47568 0.19888 0.25115 0.0
H1640 H 0.46913 0.31058 0.25462 0.0
H1641 H 0.39001 0.15436 0.25086 0.0
H1642 H 0.47404 0.24001 0.25367 0.0
H1643 H 0.38579 0.22413 0.25478 0.0
C1644 C 0.40281 0.26632 0.25485 0.0
C1645 C 0.42617 0.29112 0.25465 0.0
C1646 C 0.45561 0.22123 0.25311 0.0
C1647 C 0.42897 0.24452 0.25454 0.0
C1648 C 0.45654 0.19777 0.25166 0.0
C1649 C 0.43294 0.17322 0.25074 0.0
C1650 C 0.4309 0.22007 0.25363 0.0
C1651 C 0.40869 0.17288 0.25148 0.0
C1652 C 0.40411 0.24304 0.25482 0.0
C1653 C 0.45064 0.29183 0.25475 0.0
N1654 N 0.4083 0.19594 0.25285 0.0
N1655 N 0.45141 0.26885 0.25461 0.0
H1656 H 0.27257 0.90148 0.77171 0.0
H1657 H 0.18784 0.75544 0.73478 0.0
H1658 H 0.30105 0.87256 0.73364 0.0
H1659 H 0.15968 0.78604 0.77208 0.0
H1660 H 0.23023 0.79732 0.73485 0.0
H1661 H 0.2318 0.85847 0.77268 0.0
C1662 C 0.27025 0.88603 0.76357 0.0
C1663 C 0.29016 0.8906 0.75254 0.0
C1664 C 0.2148 0.79483 0.74306 0.0
C1665 C 0.24348 0.84126 0.75356 0.0
C1666 C 0.19063 0.77093 0.74303 0.0
C1667 C 0.17022 0.76733 0.75341 0.0
C1668 C 0.21852 0.81522 0.75354 0.0
C1669 C 0.17487 0.78801 0.76385 0.0
C1670 C 0.24695 0.86146 0.76413 0.0
C1671 C 0.28614 0.86986 0.7423 0.0
N1672 N 0.19849 0.81108 0.76362 0.0
N1673 N 0.2632 0.84609 0.74303 0.0
H1674 H 0.26588 0.38558 0.76254 0.0
H1675 H 0.20221 0.47985 0.76239 0.0
H1676 H 0.31187 0.47078 0.75755 0.0
H1677 H 0.15622 0.39436 0.7651 0.0
H1678 H 0.24291 0.4773 0.76288 0.0
H1679 H 0.22579 0.38873 0.7656 0.0
C1680 C 0.26754 0.40497 0.76215 0.0
C1681 C 0.29219 0.42795 0.7597 0.0
C1682 C 0.22392 0.4591 0.76348 0.0
C1683 C 0.2464 0.43173 0.76319 0.0
C1684 C 0.20069 0.46056 0.76324 0.0
C1685 C 0.17583 0.43727 0.76362 0.0
C1686 C 0.22225 0.43417 0.76409 0.0
C1687 C 0.17499 0.4128 0.76472 0.0
C1688 C 0.24465 0.40677 0.7639 0.0
C1689 C 0.29323 0.45256 0.75935 0.0
N1690 N 0.19787 0.41189 0.76483 0.0
N1691 N 0.27063 0.4538 0.76101 0.0
H1692 H 0.57507 0.73726 0.75917 0.0
H1693 H 0.65813 0.8958 0.76511 0.0
H1694 H 0.66053 0.78296 0.76231 0.0
H1695 H 0.5725 0.85066 0.764 0.0
H1696 H 0.65915 0.85436 0.76567 0.0
H1697 H 0.57338 0.77825 0.76228 0.0
C1698 C 0.59346 0.75591 0.76058 0.0
C1699 C 0.61798 0.75677 0.7604 0.0
C1700 C 0.64011 0.85347 0.76542 0.0
C1701 C 0.61623 0.80366 0.76395 0.0
C1702 C 0.63952 0.87714 0.76513 0.0
C1703 C 0.6152 0.87663 0.76443 0.0
C1704 C 0.61618 0.82909 0.76492 0.0
C1705 C 0.59169 0.85192 0.7645 0.0
C1706 C 0.59249 0.77928 0.76237 0.0
C1707 C 0.6412 0.78142 0.76232 0.0
N1708 N 0.59277 0.8291 0.76461 0.0
N1709 N 0.63976 0.80388 0.76394 0.0
H1710 H 0.56581 0.60262 0.55864 0.0
H1711 H 0.41998 0.51646 0.59554 0.0
H1712 H 0.53455 0.63241 0.59461 0.0
H1713 H 0.45239 0.48774 0.55964 0.0
H1714 H 0.46106 0.55955 0.59491 0.0
H1715 H 0.52364 0.56091 0.5583 0.0
C1716 C 0.55 0.6004 0.56644 0.0
C1717 C 0.55369 0.62097 0.57671 0.0
C1718 C 0.45915 0.54384 0.58715 0.0
C1719 C 0.50531 0.57317 0.57643 0.0
C1720 C 0.43572 0.51925 0.58751 0.0
C1721 C 0.43284 0.4985 0.57766 0.0
C1722 C 0.4798 0.54765 0.57687 0.0
C1723 C 0.45381 0.50318 0.56746 0.0
C1724 C 0.52591 0.57656 0.56625 0.0
C1725 C 0.53253 0.61702 0.58653 0.0
N1726 N 0.4764 0.52722 0.56736 0.0
N1727 N 0.50924 0.59353 0.58619 0.0
H1728 H 0.40331 0.9183 0.57434 0.0
H1729 H 0.56213 0.99462 0.57451 0.0
H1730 H 0.45239 0.00362 0.57251 0.0
H1731 H 0.51344 0.90964 0.56945 0.0
H1732 H 0.52206 0.99825 0.57416 0.0
H1733 H 0.44333 0.91455 0.57295 0.0
C1734 C 0.42252 0.93623 0.57361 0.0
C1735 C 0.42458 0.96131 0.57357 0.0
C1736 C 0.52012 0.97881 0.57306 0.0
C1737 C 0.47039 0.9572 0.57204 0.0
C1738 C 0.54299 0.97673 0.57327 0.0
C1739 C 0.54106 0.95179 0.57203 0.0
C1740 C 0.49512 0.95575 0.57171 0.0
C1741 C 0.51579 0.92926 0.57044 0.0
C1742 C 0.44534 0.93408 0.57279 0.0
C1743 C 0.44992 0.98389 0.57258 0.0
N1744 N 0.49378 0.93176 0.5704 0.0
N1745 N 0.47185 0.9813 0.57191 0.0
H1746 H 0.05867 0.60795 0.57587 0.0
H1747 H 0.15301 0.54442 0.57648 0.0
H1748 H 0.14384 0.6546 0.58078 0.0
H1749 H 0.06748 0.49836 0.57864 0.0
H1750 H 0.15038 0.58514 0.57667 0.0
H1751 H 0.06181 0.56767 0.57538 0.0
C1752 C 0.07806 0.60971 0.57682 0.0
C1753 C 0.10104 0.63463 0.57838 0.0
C1754 C 0.1322 0.56612 0.57712 0.0
C1755 C 0.10479 0.58858 0.57783 0.0
C1756 C 0.13368 0.5429 0.57699 0.0
C1757 C 0.11042 0.51802 0.57756 0.0
C1758 C 0.10725 0.56441 0.57772 0.0
C1759 C 0.08591 0.51715 0.57821 0.0
C1760 C 0.07983 0.58669 0.57657 0.0
C1761 C 0.12564 0.63575 0.57957 0.0
N1762 N 0.08497 0.54001 0.57824 0.0
N1763 N 0.12688 0.61302 0.57925 0.0
loop_
_geom_bond_atom_site_label_1
_geom_bond_atom_site_label_2
_geom_bond_distance
_geom_bond_site_symmetry_2
_ccdc_geom_bond_type
In0 O1 2.294 . S
In0 O2 2.326 . S
In0 O6 2.266 . S
In0 O7 2.326 . S
In0 O8 2.266 1_455 S
In0 O9 2.326 1_455 S
In0 O11 2.294 . S
In0 O12 2.326 . S
O1 In0 2.294 . S
O1 C10 1.240 . S
O2 In0 2.326 . S
O2 C10 1.252 . S
C3 O6 1.252 . S
C3 O7 1.260 . S
C4 O11 1.240 . S
C4 O12 1.252 . S
C5 O8 1.252 . S
C5 O9 1.260 . S
O6 In0 2.266 . S
O6 C3 1.252 . S
O7 In0 2.326 . S
O7 C3 1.260 . S
O8 In0 2.266 1_655 S
O8 C5 1.252 . S
O9 In0 2.326 1_655 S
O9 C5 1.260 . S
C10 O1 1.240 . S
C10 O2 1.252 . S
O11 In0 2.294 . S
O11 C4 1.240 . S
O12 In0 2.326 . S
O12 C4 1.252 . S
In13 O14 2.294 . S
In13 O15 2.326 . S
In13 O19 2.266 . S
In13 O20 2.326 . S
In13 O21 2.266 . S
In13 O22 2.326 . S
In13 O24 2.294 . S
In13 O25 2.326 . S
O14 In13 2.294 . S
O14 C23 1.240 . S
O15 In13 2.326 . S
O15 C23 1.252 . S
C16 O19 1.252 . S
C16 O20 1.260 . S
C17 O24 1.240 . S
C17 O25 1.252 . S
C18 O21 1.252 . S
C18 O22 1.260 . S
O19 In13 2.266 . S
O19 C16 1.252 . S
O20 In13 2.326 . S
O20 C16 1.260 . S
O21 In13 2.266 . S
O21 C18 1.252 . S
O22 In13 2.326 . S
O22 C18 1.260 . S
C23 O14 1.240 . S
C23 O15 1.252 . S
O24 In13 2.294 . S
O24 C17 1.240 . S
O25 In13 2.326 . S
O25 C17 1.252 . S
In26 O27 2.294 . S
In26 O28 2.326 . S
In26 O32 2.266 . S
In26 O33 2.326 . S
In26 O34 2.266 . S
In26 O35 2.326 . S
In26 O37 2.294 . S
In26 O38 2.326 1_545 S
O27 In26 2.294 . S
O27 C36 1.240 . S
O28 In26 2.326 . S
O28 C36 1.252 . S
C29 O32 1.252 . S
C29 O33 1.260 . S
C30 O37 1.240 1_565 S
C30 O38 1.252 . S
C31 O34 1.252 . S
C31 O35 1.260 . S
O32 In26 2.266 . S
O32 C29 1.252 . S
O33 In26 2.326 . S
O33 C29 1.260 . S
O34 In26 2.266 . S
O34 C31 1.252 . S
O35 In26 2.326 . S
O35 C31 1.260 . S
C36 O27 1.240 . S
C36 O28 1.252 . S
O37 In26 2.294 . S
O37 C30 1.240 1_545 S
O38 In26 2.326 1_565 S
O38 C30 1.252 . S
In39 O40 2.294 . S
In39 O41 2.326 . S
In39 O45 2.266 1_545 S
In39 O46 2.326 1_545 S
In39 O47 2.266 . S
In39 O48 2.326 . S
In39 O50 2.294 . S
In39 O51 2.326 . S
O40 In39 2.294 . S
O40 C49 1.240 . S
O41 In39 2.326 . S
O41 C49 1.252 . S
C42 O45 1.252 . S
C42 O46 1.260 . S
C43 O50 1.240 . S
C43 O51 1.252 . S
C44 O47 1.252 . S
C44 O48 1.260 . S
O45 In39 2.266 1_565 S
O45 C42 1.252 . S
O46 In39 2.326 1_565 S
O46 C42 1.260 . S
O47 In39 2.266 . S
O47 C44 1.252 . S
O48 In39 2.326 . S
O48 C44 1.260 . S
C49 O40 1.240 . S
C49 O41 1.252 . S
O50 In39 2.294 . S
O50 C43 1.240 . S
O51 In39 2.326 . S
O51 C43 1.252 . S
In52 O53 2.294 . S
In52 O54 2.326 . S
In52 O58 2.266 . S
In52 O59 2.326 . S
In52 O60 2.266 . S
In52 O61 2.326 . S
In52 O63 2.294 . S
In52 O64 2.326 1_455 S
O53 In52 2.294 . S
O53 C62 1.240 . S
O54 In52 2.326 . S
O54 C62 1.252 . S
C55 O58 1.252 . S
C55 O59 1.260 . S
C56 O63 1.240 1_655 S
C56 O64 1.252 . S
C57 O60 1.252 . S
C57 O61 1.260 . S
O58 In52 2.266 . S
O58 C55 1.252 . S
O59 In52 2.326 . S
O59 C55 1.260 . S
O60 In52 2.266 . S
O60 C57 1.252 . S
O61 In52 2.326 . S
O61 C57 1.260 . S
C62 O53 1.240 . S
C62 O54 1.252 . S
O63 In52 2.294 . S
O63 C56 1.240 1_455 S
O64 In52 2.326 1_655 S
O64 C56 1.252 . S
In65 O66 2.294 . S
In65 O67 2.326 . S
In65 O71 2.266 . S
In65 O72 2.326 . S
In65 O73 2.266 . S
In65 O74 2.326 . S
In65 O76 2.294 . S
In65 O77 2.326 . S
O66 In65 2.294 . S
O66 C75 1.240 . S
O67 In65 2.326 . S
O67 C75 1.252 . S
C68 O71 1.252 . S
C68 O72 1.260 . S
C69 O76 1.240 . S
C69 O77 1.252 . S
C70 O73 1.252 . S
C70 O74 1.260 . S
O71 In65 2.266 . S
O71 C68 1.252 . S
O72 In65 2.326 . S
O72 C68 1.260 . S
O73 In65 2.266 . S
O73 C70 1.252 . S
O74 In65 2.326 . S
O74 C70 1.260 . S
C75 O66 1.240 . S
C75 O67 1.252 . S
O76 In65 2.294 . S
O76 C69 1.240 . S
O77 In65 2.326 . S
O77 C69 1.252 . S
In78 O79 2.294 . S
In78 O80 2.326 1_455 S
In78 O84 2.266 . S
In78 O85 2.326 . S
In78 O86 2.266 . S
In78 O87 2.326 . S
In78 O89 2.294 . S
In78 O90 2.326 . S
O79 In78 2.294 . S
O79 C88 1.240 1_455 S
O80 In78 2.326 1_655 S
O80 C88 1.252 . S
C81 O84 1.252 . S
C81 O85 1.260 . S
C82 O89 1.240 . S
C82 O90 1.252 . S
C83 O86 1.252 . S
C83 O87 1.260 . S
O84 In78 2.266 . S
O84 C81 1.252 . S
O85 In78 2.326 . S
O85 C81 1.260 . S
O86 In78 2.266 . S
O86 C83 1.252 . S
O87 In78 2.326 . S
O87 C83 1.260 . S
C88 O79 1.240 1_655 S
C88 O80 1.252 . S
O89 In78 2.294 . S
O89 C82 1.240 . S
O90 In78 2.326 . S
O90 C82 1.252 . S
In91 O92 2.294 . S
In91 O93 2.326 . S
In91 O97 2.266 . S
In91 O98 2.326 . S
In91 O99 2.266 . S
In91 O100 2.326 . S
In91 O102 2.294 . S
In91 O103 2.326 . S
O92 In91 2.294 . S
O92 C101 1.240 . S
O93 In91 2.326 . S
O93 C101 1.252 . S
C94 O97 1.252 . S
C94 O98 1.260 . S
C95 O102 1.240 . S
C95 O103 1.252 . S
C96 O99 1.252 . S
C96 O100 1.260 . S
O97 In91 2.266 . S
O97 C94 1.252 . S
O98 In91 2.326 . S
O98 C94 1.260 . S
O99 In91 2.266 . S
O99 C96 1.252 . S
O100 In91 2.326 . S
O100 C96 1.260 . S
C101 O92 1.240 . S
C101 O93 1.252 . S
O102 In91 2.294 . S
O102 C95 1.240 . S
O103 In91 2.326 . S
O103 C95 1.252 . S
In104 O105 2.294 . S
In104 O106 2.326 . S
In104 O110 2.266 . S
In104 O111 2.326 . S
In104 O112 2.266 1_545 S
In104 O113 2.326 1_545 S
In104 O115 2.294 . S
In104 O116 2.326 . S
O105 In104 2.294 . S
O105 C114 1.240 . S
O106 In104 2.326 . S
O106 C114 1.252 . S
C107 O110 1.252 . S
C107 O111 1.260 . S
C108 O115 1.240 . S
C108 O116 1.252 . S
C109 O112 1.252 . S
C109 O113 1.260 . S
O110 In104 2.266 . S
O110 C107 1.252 . S
O111 In104 2.326 . S
O111 C107 1.260 . S
O112 In104 2.266 1_565 S
O112 C109 1.252 . S
O113 In104 2.326 1_565 S
O113 C109 1.260 . S
C114 O105 1.240 . S
C114 O106 1.252 . S
O115 In104 2.294 . S
O115 C108 1.240 . S
O116 In104 2.326 . S
O116 C108 1.252 . S
In117 O118 2.294 . S
In117 O119 2.326 1_545 S
In117 O123 2.266 . S
In117 O124 2.326 . S
In117 O125 2.266 . S
In117 O126 2.326 . S
In117 O128 2.294 . S
In117 O129 2.326 . S
O118 In117 2.294 . S
O118 C127 1.240 1_545 S
O119 In117 2.326 1_565 S
O119 C127 1.252 . S
C120 O123 1.252 . S
C120 O124 1.260 . S
C121 O128 1.240 . S
C121 O129 1.252 . S
C122 O125 1.252 . S
C122 O126 1.260 . S
O123 In117 2.266 . S
O123 C120 1.252 . S
O124 In117 2.326 . S
O124 C120 1.260 . S
O125 In117 2.266 . S
O125 C122 1.252 . S
O126 In117 2.326 . S
O126 C122 1.260 . S
C127 O118 1.240 1_565 S
C127 O119 1.252 . S
O128 In117 2.294 . S
O128 C121 1.240 . S
O129 In117 2.326 . S
O129 C121 1.252 . S
In130 O131 2.294 . S
In130 O132 2.326 . S
In130 O136 2.266 . S
In130 O137 2.326 . S
In130 O138 2.266 1_455 S
In130 O139 2.326 1_455 S
In130 O141 2.294 . S
In130 O142 2.326 . S
O131 In130 2.294 . S
O131 C140 1.240 . S
O132 In130 2.326 . S
O132 C140 1.252 . S
C133 O136 1.252 . S
C133 O137 1.260 . S
C134 O141 1.240 . S
C134 O142 1.252 . S
C135 O138 1.252 . S
C135 O139 1.260 . S
O136 In130 2.266 . S
O136 C133 1.252 . S
O137 In130 2.326 . S
O137 C133 1.260 . S
O138 In130 2.266 1_655 S
O138 C135 1.252 . S
O139 In130 2.326 1_655 S
O139 C135 1.260 . S
C140 O131 1.240 . S
C140 O132 1.252 . S
O141 In130 2.294 . S
O141 C134 1.240 . S
O142 In130 2.326 . S
O142 C134 1.252 . S
In143 O144 2.294 . S
In143 O145 2.326 . S
In143 O149 2.266 . S
In143 O150 2.326 . S
In143 O151 2.266 . S
In143 O152 2.326 . S
In143 O154 2.294 . S
In143 O155 2.326 . S
O144 In143 2.294 . S
O144 C153 1.240 . S
O145 In143 2.326 . S
O145 C153 1.252 . S
C146 O149 1.252 . S
C146 O150 1.260 . S
C147 O154 1.240 . S
C147 O155 1.252 . S
C148 O151 1.252 . S
C148 O152 1.260 . S
O149 In143 2.266 . S
O149 C146 1.252 . S
O150 In143 2.326 . S
O150 C146 1.260 . S
O151 In143 2.266 . S
O151 C148 1.252 . S
O152 In143 2.326 . S
O152 C148 1.260 . S
C153 O144 1.240 . S
C153 O145 1.252 . S
O154 In143 2.294 . S
O154 C147 1.240 . S
O155 In143 2.326 . S
O155 C147 1.252 . S
In156 O157 2.294 . S
In156 O158 2.326 . S
In156 O162 2.266 . S
In156 O163 2.326 . S
In156 O164 2.266 . S
In156 O165 2.326 . S
In156 O167 2.294 . S
In156 O168 2.326 . S
O157 In156 2.294 . S
O157 C166 1.240 . S
O158 In156 2.326 . S
O158 C166 1.252 . S
C159 O162 1.252 . S
C159 O163 1.260 . S
C160 O167 1.240 . S
C160 O168 1.252 . S
C161 O164 1.252 . S
C161 O165 1.260 . S
O162 In156 2.266 . S
O162 C159 1.252 . S
O163 In156 2.326 . S
O163 C159 1.260 . S
O164 In156 2.266 . S
O164 C161 1.252 . S
O165 In156 2.326 . S
O165 C161 1.260 . S
C166 O157 1.240 . S
C166 O158 1.252 . S
O167 In156 2.294 . S
O167 C160 1.240 . S
O168 In156 2.326 . S
O168 C160 1.252 . S
In169 O170 2.294 . S
In169 O171 2.326 . S
In169 O175 2.266 . S
In169 O176 2.326 . S
In169 O177 2.266 . S
In169 O178 2.326 . S
In169 O180 2.294 . S
In169 O181 2.326 . S
O170 In169 2.294 . S
O170 C179 1.240 . S
O171 In169 2.326 . S
O171 C179 1.252 . S
C172 O175 1.252 . S
C172 O176 1.260 . S
C173 O180 1.240 . S
C173 O181 1.252 . S
C174 O177 1.252 . S
C174 O178 1.260 . S
O175 In169 2.266 . S
O175 C172 1.252 . S
O176 In169 2.326 . S
O176 C172 1.260 . S
O177 In169 2.266 . S
O177 C174 1.252 . S
O178 In169 2.326 . S
O178 C174 1.260 . S
C179 O170 1.240 . S
C179 O171 1.252 . S
O180 In169 2.294 . S
O180 C173 1.240 . S
O181 In169 2.326 . S
O181 C173 1.252 . S
In182 O183 2.294 . S
In182 O184 2.326 . S
In182 O188 2.266 1_655 S
In182 O189 2.326 . S
In182 O190 2.266 . S
In182 O191 2.326 . S
In182 O193 2.294 . S
In182 O194 2.326 . S
O183 In182 2.294 . S
O183 C192 1.240 . S
O184 In182 2.326 . S
O184 C192 1.252 . S
C185 O188 1.252 1_655 S
C185 O189 1.260 . S
C186 O193 1.240 . S
C186 O194 1.252 . S
C187 O190 1.252 . S
C187 O191 1.260 . S
O188 In182 2.266 1_455 S
O188 C185 1.252 1_455 S
O189 In182 2.326 . S
O189 C185 1.260 . S
O190 In182 2.266 . S
O190 C187 1.252 . S
O191 In182 2.326 . S
O191 C187 1.260 . S
C192 O183 1.240 . S
C192 O184 1.252 . S
O193 In182 2.294 . S
O193 C186 1.240 . S
O194 In182 2.326 . S
O194 C186 1.252 . S
In195 O196 2.294 . S
In195 O197 2.326 . S
In195 O201 2.266 . S
In195 O202 2.326 . S
In195 O203 2.266 . S
In195 O204 2.326 . S
In195 O206 2.294 . S
In195 O207 2.326 . S
O196 In195 2.294 . S
O196 C205 1.240 . S
O197 In195 2.326 . S
O197 C205 1.252 . S
C198 O201 1.252 . S
C198 O202 1.260 . S
C199 O206 1.240 . S
C199 O207 1.252 . S
C200 O203 1.252 . S
C200 O204 1.260 . S
O201 In195 2.266 . S
O201 C198 1.252 . S
O202 In195 2.326 . S
O202 C198 1.260 . S
O203 In195 2.266 . S
O203 C200 1.252 . S
O204 In195 2.326 . S
O204 C200 1.260 . S
C205 O196 1.240 . S
C205 O197 1.252 . S
O206 In195 2.294 . S
O206 C199 1.240 . S
O207 In195 2.326 . S
O207 C199 1.252 . S
In208 O209 2.294 . S
In208 O210 2.326 . S
In208 O214 2.266 . S
In208 O215 2.326 . S
In208 O216 2.266 . S
In208 O217 2.326 . S
In208 O219 2.294 . S
In208 O220 2.326 . S
O209 In208 2.294 . S
O209 C218 1.240 . S
O210 In208 2.326 . S
O210 C218 1.252 . S
C211 O214 1.252 . S
C211 O215 1.260 . S
C212 O219 1.240 . S
C212 O220 1.252 . S
C213 O216 1.252 . S
C213 O217 1.260 . S
O214 In208 2.266 . S
O214 C211 1.252 . S
O215 In208 2.326 . S
O215 C211 1.260 . S
O216 In208 2.266 . S
O216 C213 1.252 . S
O217 In208 2.326 . S
O217 C213 1.260 . S
C218 O209 1.240 . S
C218 O210 1.252 . S
O219 In208 2.294 . S
O219 C212 1.240 . S
O220 In208 2.326 . S
O220 C212 1.252 . S
In221 O222 2.294 . S
In221 O223 2.326 . S
In221 O227 2.266 . S
In221 O228 2.326 . S
In221 O229 2.266 . S
In221 O230 2.326 . S
In221 O232 2.294 . S
In221 O233 2.326 . S
O222 In221 2.294 . S
O222 C231 1.240 . S
O223 In221 2.326 . S
O223 C231 1.252 . S
C224 O227 1.252 . S
C224 O228 1.260 . S
C225 O232 1.240 . S
C225 O233 1.252 . S
C226 O229 1.252 . S
C226 O230 1.260 . S
O227 In221 2.266 . S
O227 C224 1.252 . S
O228 In221 2.326 . S
O228 C224 1.260 . S
O229 In221 2.266 . S
O229 C226 1.252 . S
O230 In221 2.326 . S
O230 C226 1.260 . S
C231 O222 1.240 . S
C231 O223 1.252 . S
O232 In221 2.294 . S
O232 C225 1.240 . S
O233 In221 2.326 . S
O233 C225 1.252 . S
In234 O235 2.294 . S
In234 O236 2.326 . S
In234 O240 2.266 . S
In234 O241 2.326 . S
In234 O242 2.266 . S
In234 O243 2.326 . S
In234 O245 2.294 . S
In234 O246 2.326 . S
O235 In234 2.294 . S
O235 C244 1.240 . S
O236 In234 2.326 . S
O236 C244 1.252 . S
C237 O240 1.252 . S
C237 O241 1.260 . S
C238 O245 1.240 . S
C238 O246 1.252 . S
C239 O242 1.252 . S
C239 O243 1.260 . S
O240 In234 2.266 . S
O240 C237 1.252 . S
O241 In234 2.326 . S
O241 C237 1.260 . S
O242 In234 2.266 . S
O242 C239 1.252 . S
O243 In234 2.326 . S
O243 C239 1.260 . S
C244 O235 1.240 . S
C244 O236 1.252 . S
O245 In234 2.294 . S
O245 C238 1.240 . S
O246 In234 2.326 . S
O246 C238 1.252 . S
In247 O248 2.294 . S
In247 O249 2.326 . S
In247 O253 2.266 . S
In247 O254 2.326 . S
In247 O255 2.266 . S
In247 O256 2.326 . S
In247 O258 2.294 . S
In247 O259 2.326 . S
O248 In247 2.294 . S
O248 C257 1.240 . S
O249 In247 2.326 . S
O249 C257 1.252 . S
C250 O253 1.252 . S
C250 O254 1.260 . S
C251 O258 1.240 . S
C251 O259 1.252 . S
C252 O255 1.252 . S
C252 O256 1.260 . S
O253 In247 2.266 . S
O253 C250 1.252 . S
O254 In247 2.326 . S
O254 C250 1.260 . S
O255 In247 2.266 . S
O255 C252 1.252 . S
O256 In247 2.326 . S
O256 C252 1.260 . S
C257 O248 1.240 . S
C257 O249 1.252 . S
O258 In247 2.294 . S
O258 C251 1.240 . S
O259 In247 2.326 . S
O259 C251 1.252 . S
In260 O261 2.294 . S
In260 O262 2.326 . S
In260 O266 2.266 . S
In260 O267 2.326 . S
In260 O268 2.266 . S
In260 O269 2.326 . S
In260 O271 2.294 . S
In260 O272 2.326 . S
O261 In260 2.294 . S
O261 C270 1.240 . S
O262 In260 2.326 . S
O262 C270 1.252 . S
C263 O266 1.252 . S
C263 O267 1.260 . S
C264 O271 1.240 . S
C264 O272 1.252 . S
C265 O268 1.252 . S
C265 O269 1.260 . S
O266 In260 2.266 . S
O266 C263 1.252 . S
O267 In260 2.326 . S
O267 C263 1.260 . S
O268 In260 2.266 . S
O268 C265 1.252 . S
O269 In260 2.326 . S
O269 C265 1.260 . S
C270 O261 1.240 . S
C270 O262 1.252 . S
O271 In260 2.294 . S
O271 C264 1.240 . S
O272 In260 2.326 . S
O272 C264 1.252 . S
In273 O274 2.294 . S
In273 O275 2.326 . S
In273 O279 2.266 . S
In273 O280 2.326 . S
In273 O281 2.266 . S
In273 O282 2.326 . S
In273 O284 2.294 . S
In273 O285 2.326 . S
O274 In273 2.294 . S
O274 C283 1.240 . S
O275 In273 2.326 . S
O275 C283 1.252 . S
C276 O279 1.252 . S
C276 O280 1.260 . S
C277 O284 1.240 . S
C277 O285 1.252 . S
C278 O281 1.252 . S
C278 O282 1.260 . S
O279 In273 2.266 . S
O279 C276 1.252 . S
O280 In273 2.326 . S
O280 C276 1.260 . S
O281 In273 2.266 . S
O281 C278 1.252 . S
O282 In273 2.326 . S
O282 C278 1.260 . S
C283 O274 1.240 . S
C283 O275 1.252 . S
O284 In273 2.294 . S
O284 C277 1.240 . S
O285 In273 2.326 . S
O285 C277 1.252 . S
In286 O287 2.294 . S
In286 O288 2.326 . S
In286 O292 2.266 . S
In286 O293 2.326 . S
In286 O294 2.266 . S
In286 O295 2.326 . S
In286 O297 2.294 . S
In286 O298 2.326 . S
O287 In286 2.294 . S
O287 C296 1.240 . S
O288 In286 2.326 . S
O288 C296 1.252 . S
C289 O292 1.252 . S
C289 O293 1.260 . S
C290 O297 1.240 . S
C290 O298 1.252 . S
C291 O294 1.252 . S
C291 O295 1.260 . S
O292 In286 2.266 . S
O292 C289 1.252 . S
O293 In286 2.326 . S
O293 C289 1.260 . S
O294 In286 2.266 . S
O294 C291 1.252 . S
O295 In286 2.326 . S
O295 C291 1.260 . S
C296 O287 1.240 . S
C296 O288 1.252 . S
O297 In286 2.294 . S
O297 C290 1.240 . S
O298 In286 2.326 . S
O298 C290 1.252 . S
In299 O300 2.294 . S
In299 O301 2.326 . S
In299 O305 2.266 1_655 S
In299 O306 2.326 . S
In299 O307 2.266 . S
In299 O308 2.326 . S
In299 O310 2.294 . S
In299 O311 2.326 . S
O300 In299 2.294 . S
O300 C309 1.240 . S
O301 In299 2.326 . S
O301 C309 1.252 . S
C302 O305 1.252 1_655 S
C302 O306 1.260 . S
C303 O310 1.240 . S
C303 O311 1.252 . S
C304 O307 1.252 . S
C304 O308 1.260 . S
O305 In299 2.266 1_455 S
O305 C302 1.252 1_455 S
O306 In299 2.326 . S
O306 C302 1.260 . S
O307 In299 2.266 . S
O307 C304 1.252 . S
O308 In299 2.326 . S
O308 C304 1.260 . S
C309 O300 1.240 . S
C309 O301 1.252 . S
O310 In299 2.294 . S
O310 C303 1.240 . S
O311 In299 2.326 . S
O311 C303 1.252 . S
In312 O313 2.294 . S
In312 O314 2.326 . S
In312 O318 2.266 . S
In312 O319 2.326 . S
In312 O320 2.266 . S
In312 O321 2.326 . S
In312 O323 2.294 . S
In312 O324 2.326 . S
O313 In312 2.294 . S
O313 C322 1.240 . S
O314 In312 2.326 . S
O314 C322 1.252 . S
C315 O318 1.252 . S
C315 O319 1.260 . S
C316 O323 1.240 . S
C316 O324 1.252 . S
C317 O320 1.252 . S
C317 O321 1.260 . S
O318 In312 2.266 . S
O318 C315 1.252 . S
O319 In312 2.326 . S
O319 C315 1.260 . S
O320 In312 2.266 . S
O320 C317 1.252 . S
O321 In312 2.326 . S
O321 C317 1.260 . S
C322 O313 1.240 . S
C322 O314 1.252 . S
O323 In312 2.294 . S
O323 C316 1.240 . S
O324 In312 2.326 . S
O324 C316 1.252 . S
In325 O326 2.294 . S
In325 O327 2.326 . S
In325 O331 2.266 . S
In325 O332 2.326 . S
In325 O333 2.266 . S
In325 O334 2.326 . S
In325 O336 2.294 . S
In325 O337 2.326 . S
O326 In325 2.294 . S
O326 C335 1.240 . S
O327 In325 2.326 . S
O327 C335 1.252 . S
C328 O331 1.252 . S
C328 O332 1.260 . S
C329 O336 1.240 . S
C329 O337 1.252 . S
C330 O333 1.252 . S
C330 O334 1.260 . S
O331 In325 2.266 . S
O331 C328 1.252 . S
O332 In325 2.326 . S
O332 C328 1.260 . S
O333 In325 2.266 . S
O333 C330 1.252 . S
O334 In325 2.326 . S
O334 C330 1.260 . S
C335 O326 1.240 . S
C335 O327 1.252 . S
O336 In325 2.294 . S
O336 C329 1.240 . S
O337 In325 2.326 . S
O337 C329 1.252 . S
In338 O339 2.294 . S
In338 O340 2.326 . S
In338 O344 2.266 . S
In338 O345 2.326 . S
In338 O346 2.266 . S
In338 O347 2.326 . S
In338 O349 2.294 . S
In338 O350 2.326 . S
O339 In338 2.294 . S
O339 C348 1.240 . S
O340 In338 2.326 . S
O340 C348 1.252 . S
C341 O344 1.252 . S
C341 O345 1.260 . S
C342 O349 1.240 . S
C342 O350 1.252 . S
C343 O346 1.252 . S
C343 O347 1.260 . S
O344 In338 2.266 . S
O344 C341 1.252 . S
O345 In338 2.326 . S
O345 C341 1.260 . S
O346 In338 2.266 . S
O346 C343 1.252 . S
O347 In338 2.326 . S
O347 C343 1.260 . S
C348 O339 1.240 . S
C348 O340 1.252 . S
O349 In338 2.294 . S
O349 C342 1.240 . S
O350 In338 2.326 . S
O350 C342 1.252 . S
In351 O352 2.294 . S
In351 O353 2.326 . S
In351 O357 2.266 . S
In351 O358 2.326 . S
In351 O359 2.266 . S
In351 O360 2.326 . S
In351 O362 2.294 . S
In351 O363 2.326 . S
O352 In351 2.294 . S
O352 C361 1.240 . S
O353 In351 2.326 . S
O353 C361 1.252 . S
C354 O357 1.252 . S
C354 O358 1.260 . S
C355 O362 1.240 . S
C355 O363 1.252 . S
C356 O359 1.252 . S
C356 O360 1.260 . S
O357 In351 2.266 . S
O357 C354 1.252 . S
O358 In351 2.326 . S
O358 C354 1.260 . S
O359 In351 2.266 . S
O359 C356 1.252 . S
O360 In351 2.326 . S
O360 C356 1.260 . S
C361 O352 1.240 . S
C361 O353 1.252 . S
O362 In351 2.294 . S
O362 C355 1.240 . S
O363 In351 2.326 . S
O363 C355 1.252 . S
In364 O365 2.294 . S
In364 O366 2.326 . S
In364 O370 2.266 1_565 S
In364 O371 2.326 . S
In364 O372 2.266 . S
In364 O373 2.326 . S
In364 O375 2.294 . S
In364 O376 2.326 . S
O365 In364 2.294 . S
O365 C374 1.240 . S
O366 In364 2.326 . S
O366 C374 1.252 . S
C367 O370 1.252 1_565 S
C367 O371 1.260 . S
C368 O375 1.240 . S
C368 O376 1.252 . S
C369 O372 1.252 . S
C369 O373 1.260 . S
O370 In364 2.266 1_545 S
O370 C367 1.252 1_545 S
O371 In364 2.326 . S
O371 C367 1.260 . S
O372 In364 2.266 . S
O372 C369 1.252 . S
O373 In364 2.326 . S
O373 C369 1.260 . S
C374 O365 1.240 . S
C374 O366 1.252 . S
O375 In364 2.294 . S
O375 C368 1.240 . S
O376 In364 2.326 . S
O376 C368 1.252 . S
In377 O378 2.294 . S
In377 O379 2.326 . S
In377 O383 2.266 . S
In377 O384 2.326 . S
In377 O385 2.266 . S
In377 O386 2.326 . S
In377 O388 2.294 . S
In377 O389 2.326 . S
O378 In377 2.294 . S
O378 C387 1.240 . S
O379 In377 2.326 . S
O379 C387 1.252 . S
C380 O383 1.252 . S
C380 O384 1.260 . S
C381 O388 1.240 . S
C381 O389 1.252 . S
C382 O385 1.252 . S
C382 O386 1.260 . S
O383 In377 2.266 . S
O383 C380 1.252 . S
O384 In377 2.326 . S
O384 C380 1.260 . S
O385 In377 2.266 . S
O385 C382 1.252 . S
O386 In377 2.326 . S
O386 C382 1.260 . S
C387 O378 1.240 . S
C387 O379 1.252 . S
O388 In377 2.294 . S
O388 C381 1.240 . S
O389 In377 2.326 . S
O389 C381 1.252 . S
In390 O391 2.294 . S
In390 O392 2.326 . S
In390 O396 2.266 . S
In390 O397 2.326 . S
In390 O398 2.266 . S
In390 O399 2.326 . S
In390 O401 2.294 . S
In390 O402 2.326 . S
O391 In390 2.294 . S
O391 C400 1.240 . S
O392 In390 2.326 . S
O392 C400 1.252 . S
C393 O396 1.252 . S
C393 O397 1.260 . S
C394 O401 1.240 . S
C394 O402 1.252 . S
C395 O398 1.252 . S
C395 O399 1.260 . S
O396 In390 2.266 . S
O396 C393 1.252 . S
O397 In390 2.326 . S
O397 C393 1.260 . S
O398 In390 2.266 . S
O398 C395 1.252 . S
O399 In390 2.326 . S
O399 C395 1.260 . S
C400 O391 1.240 . S
C400 O392 1.252 . S
O401 In390 2.294 . S
O401 C394 1.240 . S
O402 In390 2.326 . S
O402 C394 1.252 . S
In403 O404 2.294 . S
In403 O405 2.326 . S
In403 O409 2.266 . S
In403 O410 2.326 . S
In403 O411 2.266 1_565 S
In403 O412 2.326 . S
In403 O414 2.294 . S
In403 O415 2.326 . S
O404 In403 2.294 . S
O404 C413 1.240 . S
O405 In403 2.326 . S
O405 C413 1.252 . S
C406 O409 1.252 . S
C406 O410 1.260 . S
C407 O414 1.240 . S
C407 O415 1.252 . S
C408 O411 1.252 1_565 S
C408 O412 1.260 . S
O409 In403 2.266 . S
O409 C406 1.252 . S
O410 In403 2.326 . S
O410 C406 1.260 . S
O411 In403 2.266 1_545 S
O411 C408 1.252 1_545 S
O412 In403 2.326 . S
O412 C408 1.260 . S
C413 O404 1.240 . S
C413 O405 1.252 . S
O414 In403 2.294 . S
O414 C407 1.240 . S
O415 In403 2.326 . S
O415 C407 1.252 . S
In416 O417 2.294 . S
In416 O418 2.326 . S
In416 O422 2.266 . S
In416 O423 2.326 . S
In416 O424 2.266 . S
In416 O425 2.326 . S
In416 O427 2.294 . S
In416 O428 2.326 . S
O417 In416 2.294 . S
O417 C426 1.240 . S
O418 In416 2.326 . S
O418 C426 1.252 . S
C419 O422 1.252 . S
C419 O423 1.260 . S
C420 O427 1.240 . S
C420 O428 1.252 . S
C421 O424 1.252 . S
C421 O425 1.260 . S
O422 In416 2.266 . S
O422 C419 1.252 . S
O423 In416 2.326 . S
O423 C419 1.260 . S
O424 In416 2.266 . S
O424 C421 1.252 . S
O425 In416 2.326 . S
O425 C421 1.260 . S
C426 O417 1.240 . S
C426 O418 1.252 . S
O427 In416 2.294 . S
O427 C420 1.240 . S
O428 In416 2.326 . S
O428 C420 1.252 . S
In429 O430 2.294 . S
In429 O431 2.326 . S
In429 O435 2.266 . S
In429 O436 2.326 . S
In429 O437 2.266 . S
In429 O438 2.326 . S
In429 O440 2.294 . S
In429 O441 2.326 . S
O430 In429 2.294 . S
O430 C439 1.240 . S
O431 In429 2.326 . S
O431 C439 1.252 . S
C432 O435 1.252 . S
C432 O436 1.260 . S
C433 O440 1.240 . S
C433 O441 1.252 . S
C434 O437 1.252 . S
C434 O438 1.260 . S
O435 In429 2.266 . S
O435 C432 1.252 . S
O436 In429 2.326 . S
O436 C432 1.260 . S
O437 In429 2.266 . S
O437 C434 1.252 . S
O438 In429 2.326 . S
O438 C434 1.260 . S
C439 O430 1.240 . S
C439 O431 1.252 . S
O440 In429 2.294 . S
O440 C433 1.240 . S
O441 In429 2.326 . S
O441 C433 1.252 . S
In442 O443 2.294 . S
In442 O444 2.326 . S
In442 O448 2.266 . S
In442 O449 2.326 . S
In442 O450 2.266 . S
In442 O451 2.326 . S
In442 O453 2.294 . S
In442 O454 2.326 . S
O443 In442 2.294 . S
O443 C452 1.240 . S
O444 In442 2.326 . S
O444 C452 1.252 . S
C445 O448 1.252 . S
C445 O449 1.260 . S
C446 O453 1.240 . S
C446 O454 1.252 . S
C447 O450 1.252 . S
C447 O451 1.260 . S
O448 In442 2.266 . S
O448 C445 1.252 . S
O449 In442 2.326 . S
O449 C445 1.260 . S
O450 In442 2.266 . S
O450 C447 1.252 . S
O451 In442 2.326 . S
O451 C447 1.260 . S
C452 O443 1.240 . S
C452 O444 1.252 . S
O453 In442 2.294 . S
O453 C446 1.240 . S
O454 In442 2.326 . S
O454 C446 1.252 . S
In455 O456 2.294 . S
In455 O457 2.326 . S
In455 O461 2.266 . S
In455 O462 2.326 . S
In455 O463 2.266 . S
In455 O464 2.326 . S
In455 O466 2.294 . S
In455 O467 2.326 . S
O456 In455 2.294 . S
O456 C465 1.240 . S
O457 In455 2.326 . S
O457 C465 1.252 . S
C458 O461 1.252 . S
C458 O462 1.260 . S
C459 O466 1.240 . S
C459 O467 1.252 . S
C460 O463 1.252 . S
C460 O464 1.260 . S
O461 In455 2.266 . S
O461 C458 1.252 . S
O462 In455 2.326 . S
O462 C458 1.260 . S
O463 In455 2.266 . S
O463 C460 1.252 . S
O464 In455 2.326 . S
O464 C460 1.260 . S
C465 O456 1.240 . S
C465 O457 1.252 . S
O466 In455 2.294 . S
O466 C459 1.240 . S
O467 In455 2.326 . S
O467 C459 1.252 . S
H468 C474 0.930 . S
H469 C478 0.930 . S
H470 C483 0.929 . S
H471 C481 0.929 . S
H472 C476 0.929 . S
H473 C482 0.929 . S
C474 H468 0.930 . S
C474 C475 1.367 . S
C474 C482 1.378 . S
C475 C474 1.367 . S
C475 C483 1.433 . S
C476 H472 0.929 . S
C476 C478 1.378 . S
C476 C480 1.350 . S
C477 C480 1.463 . S
C477 C482 1.350 . S
C477 N485 1.427 . S
C478 H469 0.930 . S
C478 C476 1.378 . S
C478 C479 1.367 . S
C479 C478 1.367 . S
C479 C481 1.433 . S
C480 C476 1.350 . S
C480 C477 1.463 . S
C480 N484 1.427 . S
C481 H471 0.929 . S
C481 C479 1.433 . S
C481 N484 1.384 . S
C482 H473 0.929 . S
C482 C474 1.378 . S
C482 C477 1.350 . S
C483 H470 0.929 . S
C483 C475 1.433 . S
C483 N485 1.384 . S
N484 C480 1.427 . S
N484 C481 1.384 . S
N485 C477 1.427 . S
N485 C483 1.384 . S
H486 C492 0.930 . S
H487 C496 0.930 . S
H488 C501 0.929 . S
H489 C499 0.929 . S
H490 C494 0.929 . S
H491 C500 0.929 . S
C492 H486 0.930 . S
C492 C493 1.367 . S
C492 C500 1.378 . S
C493 C492 1.367 . S
C493 C501 1.433 . S
C494 H490 0.929 . S
C494 C496 1.378 . S
C494 C498 1.350 . S
C495 C498 1.463 . S
C495 C500 1.350 . S
C495 N503 1.427 . S
C496 H487 0.930 . S
C496 C494 1.378 . S
C496 C497 1.367 . S
C497 C496 1.367 . S
C497 C499 1.433 . S
C498 C494 1.350 . S
C498 C495 1.463 . S
C498 N502 1.427 . S
C499 H489 0.929 . S
C499 C497 1.433 . S
C499 N502 1.384 . S
C500 H491 0.929 . S
C500 C492 1.378 . S
C500 C495 1.350 . S
C501 H488 0.929 . S
C501 C493 1.433 . S
C501 N503 1.384 . S
N502 C498 1.427 . S
N502 C499 1.384 . S
N503 C495 1.427 . S
N503 C501 1.384 . S
H504 C510 0.930 . S
H505 C514 0.930 . S
H506 C519 0.929 . S
H507 C517 0.929 . S
H508 C512 0.929 . S
H509 C518 0.929 . S
C510 H504 0.930 . S
C510 C511 1.367 . S
C510 C518 1.378 . S
C511 C510 1.367 . S
C511 C519 1.433 . S
C512 H508 0.929 . S
C512 C514 1.378 . S
C512 C516 1.350 . S
C513 C516 1.463 . S
C513 C518 1.350 . S
C513 N521 1.427 . S
C514 H505 0.930 . S
C514 C512 1.378 . S
C514 C515 1.367 . S
C515 C514 1.367 . S
C515 C517 1.433 . S
C516 C512 1.350 . S
C516 C513 1.463 . S
C516 N520 1.427 . S
C517 H507 0.929 . S
C517 C515 1.433 . S
C517 N520 1.384 . S
C518 H509 0.929 . S
C518 C510 1.378 . S
C518 C513 1.350 . S
C519 H506 0.929 . S
C519 C511 1.433 . S
C519 N521 1.384 . S
N520 C516 1.427 . S
N520 C517 1.384 . S
N521 C513 1.427 . S
N521 C519 1.384 . S
H522 C528 0.930 . S
H523 C532 0.930 . S
H524 C537 0.929 . S
H525 C535 0.929 . S
H526 C530 0.929 . S
H527 C536 0.929 . S
C528 H522 0.930 . S
C528 C529 1.367 . S
C528 C536 1.378 . S
C529 C528 1.367 . S
C529 C537 1.433 . S
C530 H526 0.929 . S
C530 C532 1.378 . S
C530 C534 1.350 . S
C531 C534 1.463 . S
C531 C536 1.350 . S
C531 N539 1.427 . S
C532 H523 0.930 . S
C532 C530 1.378 . S
C532 C533 1.367 . S
C533 C532 1.367 . S
C533 C535 1.433 . S
C534 C530 1.350 . S
C534 C531 1.463 . S
C534 N538 1.427 . S
C535 H525 0.929 . S
C535 C533 1.433 . S
C535 N538 1.384 . S
C536 H527 0.929 . S
C536 C528 1.378 . S
C536 C531 1.350 . S
C537 H524 0.929 . S
C537 C529 1.433 . S
C537 N539 1.384 . S
N538 C534 1.427 . S
N538 C535 1.384 . S
N539 C531 1.427 . S
N539 C537 1.384 . S
H540 C546 0.930 . S
H541 C550 0.930 . S
H542 C555 0.929 . S
H543 C553 0.929 . S
H544 C548 0.929 . S
H545 C554 0.929 . S
C546 H540 0.930 . S
C546 C547 1.367 . S
C546 C554 1.378 . S
C547 C546 1.367 . S
C547 C555 1.433 . S
C548 H544 0.929 . S
C548 C550 1.378 . S
C548 C552 1.350 . S
C549 C552 1.463 . S
C549 C554 1.350 . S
C549 N557 1.427 . S
C550 H541 0.930 . S
C550 C548 1.378 . S
C550 C551 1.367 . S
C551 C550 1.367 . S
C551 C553 1.433 . S
C552 C548 1.350 . S
C552 C549 1.463 . S
C552 N556 1.427 . S
C553 H543 0.929 . S
C553 C551 1.433 . S
C553 N556 1.384 . S
C554 H545 0.929 . S
C554 C546 1.378 . S
C554 C549 1.350 . S
C555 H542 0.929 . S
C555 C547 1.433 . S
C555 N557 1.384 . S
N556 C552 1.427 . S
N556 C553 1.384 . S
N557 C549 1.427 . S
N557 C555 1.384 . S
H558 C564 0.930 . S
H559 C568 0.930 . S
H560 C573 0.929 . S
H561 C571 0.929 . S
H562 C566 0.929 . S
H563 C572 0.929 . S
C564 H558 0.930 . S
C564 C565 1.367 . S
C564 C572 1.378 . S
C565 C564 1.367 . S
C565 C573 1.433 . S
C566 H562 0.929 . S
C566 C568 1.378 . S
C566 C570 1.350 . S
C567 C570 1.463 . S
C567 C572 1.350 . S
C567 N575 1.427 . S
C568 H559 0.930 . S
C568 C566 1.378 . S
C568 C569 1.367 . S
C569 C568 1.367 . S
C569 C571 1.433 . S
C570 C566 1.350 . S
C570 C567 1.463 . S
C570 N574 1.427 . S
C571 H561 0.929 . S
C571 C569 1.433 . S
C571 N574 1.384 . S
C572 H563 0.929 . S
C572 C564 1.378 . S
C572 C567 1.350 . S
C573 H560 0.929 . S
C573 C565 1.433 . S
C573 N575 1.384 . S
N574 C570 1.427 . S
N574 C571 1.384 . S
N575 C567 1.427 . S
N575 C573 1.384 . S
H576 C582 0.930 . S
H577 C586 0.930 . S
H578 C591 0.929 . S
H579 C589 0.929 . S
H580 C584 0.929 . S
H581 C590 0.929 . S
C582 H576 0.930 . S
C582 C583 1.367 . S
C582 C590 1.378 . S
C583 C582 1.367 . S
C583 C591 1.433 . S
C584 H580 0.929 . S
C584 C586 1.378 . S
C584 C588 1.350 . S
C585 C588 1.463 . S
C585 C590 1.350 . S
C585 N593 1.427 . S
C586 H577 0.930 . S
C586 C584 1.378 . S
C586 C587 1.367 . S
C587 C586 1.367 . S
C587 C589 1.433 . S
C588 C584 1.350 . S
C588 C585 1.463 . S
C588 N592 1.427 . S
C589 H579 0.929 . S
C589 C587 1.433 . S
C589 N592 1.384 . S
C590 H581 0.929 . S
C590 C582 1.378 . S
C590 C585 1.350 . S
C591 H578 0.929 . S
C591 C583 1.433 . S
C591 N593 1.384 . S
N592 C588 1.427 . S
N592 C589 1.384 . S
N593 C585 1.427 . S
N593 C591 1.384 . S
H594 C600 0.930 . S
H595 C604 0.930 . S
H596 C609 0.929 . S
H597 C607 0.929 . S
H598 C602 0.929 . S
H599 C608 0.929 . S
C600 H594 0.930 . S
C600 C601 1.367 . S
C600 C608 1.378 . S
C601 C600 1.367 . S
C601 C609 1.433 . S
C602 H598 0.929 . S
C602 C604 1.378 . S
C602 C606 1.350 . S
C603 C606 1.463 . S
C603 C608 1.350 . S
C603 N611 1.427 . S
C604 H595 0.930 . S
C604 C602 1.378 . S
C604 C605 1.367 . S
C605 C604 1.367 . S
C605 C607 1.433 . S
C606 C602 1.350 . S
C606 C603 1.463 . S
C606 N610 1.427 . S
C607 H597 0.929 . S
C607 C605 1.433 . S
C607 N610 1.384 . S
C608 H599 0.929 . S
C608 C600 1.378 . S
C608 C603 1.350 . S
C609 H596 0.929 . S
C609 C601 1.433 . S
C609 N611 1.384 . S
N610 C606 1.427 . S
N610 C607 1.384 . S
N611 C603 1.427 . S
N611 C609 1.384 . S
H612 C618 0.930 . S
H613 C622 0.930 . S
H614 C627 0.929 . S
H615 C625 0.929 . S
H616 C620 0.929 . S
H617 C626 0.929 . S
C618 H612 0.930 . S
C618 C619 1.367 . S
C618 C626 1.378 . S
C619 C618 1.367 . S
C619 C627 1.433 . S
C620 H616 0.929 . S
C620 C622 1.378 . S
C620 C624 1.350 . S
C621 C624 1.463 . S
C621 C626 1.350 . S
C621 N629 1.427 . S
C622 H613 0.930 . S
C622 C620 1.378 . S
C622 C623 1.367 . S
C623 C622 1.367 . S
C623 C625 1.433 . S
C624 C620 1.350 . S
C624 C621 1.463 . S
C624 N628 1.427 . S
C625 H615 0.929 . S
C625 C623 1.433 . S
C625 N628 1.384 . S
C626 H617 0.929 . S
C626 C618 1.378 . S
C626 C621 1.350 . S
C627 H614 0.929 . S
C627 C619 1.433 . S
C627 N629 1.384 . S
N628 C624 1.427 . S
N628 C625 1.384 . S
N629 C621 1.427 . S
N629 C627 1.384 . S
H630 C636 0.930 . S
H631 C640 0.930 . S
H632 C645 0.929 . S
H633 C643 0.929 . S
H634 C638 0.929 . S
H635 C644 0.929 . S
C636 H630 0.930 . S
C636 C637 1.367 . S
C636 C644 1.378 . S
C637 C636 1.367 . S
C637 C645 1.433 . S
C638 H634 0.929 . S
C638 C640 1.378 . S
C638 C642 1.350 . S
C639 C642 1.463 . S
C639 C644 1.350 . S
C639 N647 1.427 . S
C640 H631 0.930 . S
C640 C638 1.378 . S
C640 C641 1.367 . S
C641 C640 1.367 . S
C641 C643 1.433 . S
C642 C638 1.350 . S
C642 C639 1.463 . S
C642 N646 1.427 . S
C643 H633 0.929 . S
C643 C641 1.433 . S
C643 N646 1.384 . S
C644 H635 0.929 . S
C644 C636 1.378 . S
C644 C639 1.350 . S
C645 H632 0.929 . S
C645 C637 1.433 . S
C645 N647 1.384 . S
N646 C642 1.427 . S
N646 C643 1.384 . S
N647 C639 1.427 . S
N647 C645 1.384 . S
H648 C654 0.930 . S
H649 C658 0.930 . S
H650 C663 0.929 . S
H651 C661 0.929 . S
H652 C656 0.929 . S
H653 C662 0.929 . S
C654 H648 0.930 . S
C654 C655 1.367 . S
C654 C662 1.378 . S
C655 C654 1.367 . S
C655 C663 1.433 . S
C656 H652 0.929 . S
C656 C658 1.378 . S
C656 C660 1.350 . S
C657 C660 1.463 . S
C657 C662 1.350 . S
C657 N665 1.427 . S
C658 H649 0.930 . S
C658 C656 1.378 . S
C658 C659 1.367 . S
C659 C658 1.367 . S
C659 C661 1.433 . S
C660 C656 1.350 . S
C660 C657 1.463 . S
C660 N664 1.427 . S
C661 H651 0.929 . S
C661 C659 1.433 . S
C661 N664 1.384 . S
C662 H653 0.929 . S
C662 C654 1.378 . S
C662 C657 1.350 . S
C663 H650 0.929 . S
C663 C655 1.433 . S
C663 N665 1.384 . S
N664 C660 1.427 . S
N664 C661 1.384 . S
N665 C657 1.427 . S
N665 C663 1.384 . S
H666 C672 0.930 . S
H667 C676 0.930 . S
H668 C681 0.929 . S
H669 C679 0.929 . S
H670 C674 0.929 . S
H671 C680 0.929 . S
C672 H666 0.930 . S
C672 C673 1.367 . S
C672 C680 1.378 . S
C673 C672 1.367 . S
C673 C681 1.433 . S
C674 H670 0.929 . S
C674 C676 1.378 . S
C674 C678 1.350 . S
C675 C678 1.463 . S
C675 C680 1.350 . S
C675 N683 1.427 . S
C676 H667 0.930 . S
C676 C674 1.378 . S
C676 C677 1.367 . S
C677 C676 1.367 . S
C677 C679 1.433 . S
C678 C674 1.350 . S
C678 C675 1.463 . S
C678 N682 1.427 . S
C679 H669 0.929 . S
C679 C677 1.433 . S
C679 N682 1.384 . S
C680 H671 0.929 . S
C680 C672 1.378 . S
C680 C675 1.350 . S
C681 H668 0.929 . S
C681 C673 1.433 . S
C681 N683 1.384 . S
N682 C678 1.427 . S
N682 C679 1.384 . S
N683 C675 1.427 . S
N683 C681 1.384 . S
H684 C690 0.930 . S
H685 C694 0.930 1_545 S
H686 C699 0.929 1_545 S
H687 C697 0.929 . S
H688 C692 0.929 1_545 S
H689 C698 0.929 . S
C690 H684 0.930 . S
C690 C691 1.367 . S
C690 C698 1.378 . S
C691 C690 1.367 . S
C691 C699 1.433 . S
C692 H688 0.929 1_565 S
C692 C694 1.378 . S
C692 C696 1.350 . S
C693 C696 1.463 . S
C693 C698 1.350 . S
C693 N701 1.427 . S
C694 H685 0.930 1_565 S
C694 C692 1.378 . S
C694 C695 1.367 . S
C695 C694 1.367 . S
C695 C697 1.433 . S
C696 C692 1.350 . S
C696 C693 1.463 . S
C696 N700 1.427 . S
C697 H687 0.929 . S
C697 C695 1.433 . S
C697 N700 1.384 . S
C698 H689 0.929 . S
C698 C690 1.378 . S
C698 C693 1.350 . S
C699 H686 0.929 1_565 S
C699 C691 1.433 . S
C699 N701 1.384 . S
N700 C696 1.427 . S
N700 C697 1.384 . S
N701 C693 1.427 . S
N701 C699 1.384 . S
H702 C708 0.930 . S
H703 C712 0.930 . S
H704 C717 0.929 . S
H705 C715 0.929 . S
H706 C710 0.929 . S
H707 C716 0.929 . S
C708 H702 0.930 . S
C708 C709 1.367 . S
C708 C716 1.378 . S
C709 C708 1.367 . S
C709 C717 1.433 . S
C710 H706 0.929 . S
C710 C712 1.378 . S
C710 C714 1.350 . S
C711 C714 1.463 . S
C711 C716 1.350 . S
C711 N719 1.427 . S
C712 H703 0.930 . S
C712 C710 1.378 . S
C712 C713 1.367 . S
C713 C712 1.367 . S
C713 C715 1.433 . S
C714 C710 1.350 . S
C714 C711 1.463 . S
C714 N718 1.427 . S
C715 H705 0.929 . S
C715 C713 1.433 . S
C715 N718 1.384 . S
C716 H707 0.929 . S
C716 C708 1.378 . S
C716 C711 1.350 . S
C717 H704 0.929 . S
C717 C709 1.433 . S
C717 N719 1.384 . S
N718 C714 1.427 . S
N718 C715 1.384 . S
N719 C711 1.427 . S
N719 C717 1.384 . S
H720 C726 0.930 . S
H721 C730 0.930 . S
H722 C735 0.929 . S
H723 C733 0.929 . S
H724 C728 0.929 . S
H725 C734 0.929 . S
C726 H720 0.930 . S
C726 C727 1.367 . S
C726 C734 1.378 . S
C727 C726 1.367 . S
C727 C735 1.433 . S
C728 H724 0.929 . S
C728 C730 1.378 . S
C728 C732 1.350 . S
C729 C732 1.463 . S
C729 C734 1.350 . S
C729 N737 1.427 . S
C730 H721 0.930 . S
C730 C728 1.378 . S
C730 C731 1.367 . S
C731 C730 1.367 . S
C731 C733 1.433 . S
C732 C728 1.350 . S
C732 C729 1.463 . S
C732 N736 1.427 . S
C733 H723 0.929 . S
C733 C731 1.433 . S
C733 N736 1.384 . S
C734 H725 0.929 . S
C734 C726 1.378 . S
C734 C729 1.350 . S
C735 H722 0.929 . S
C735 C727 1.433 . S
C735 N737 1.384 . S
N736 C732 1.427 . S
N736 C733 1.384 . S
N737 C729 1.427 . S
N737 C735 1.384 . S
H738 C744 0.930 . S
H739 C748 0.930 . S
H740 C753 0.929 . S
H741 C751 0.929 . S
H742 C746 0.929 . S
H743 C752 0.929 . S
C744 H738 0.930 . S
C744 C745 1.367 . S
C744 C752 1.378 . S
C745 C744 1.367 . S
C745 C753 1.433 . S
C746 H742 0.929 . S
C746 C748 1.378 . S
C746 C750 1.350 . S
C747 C750 1.463 . S
C747 C752 1.350 . S
C747 N755 1.427 . S
C748 H739 0.930 . S
C748 C746 1.378 . S
C748 C749 1.367 . S
C749 C748 1.367 . S
C749 C751 1.433 . S
C750 C746 1.350 . S
C750 C747 1.463 . S
C750 N754 1.427 . S
C751 H741 0.929 . S
C751 C749 1.433 . S
C751 N754 1.384 . S
C752 H743 0.929 . S
C752 C744 1.378 . S
C752 C747 1.350 . S
C753 H740 0.929 . S
C753 C745 1.433 . S
C753 N755 1.384 . S
N754 C750 1.427 . S
N754 C751 1.384 . S
N755 C747 1.427 . S
N755 C753 1.384 . S
H756 C762 0.930 . S
H757 C766 0.930 . S
H758 C771 0.929 . S
H759 C769 0.929 . S
H760 C764 0.929 . S
H761 C770 0.929 . S
C762 H756 0.930 . S
C762 C763 1.367 . S
C762 C770 1.378 . S
C763 C762 1.367 . S
C763 C771 1.433 . S
C764 H760 0.929 . S
C764 C766 1.378 . S
C764 C768 1.350 . S
C765 C768 1.463 . S
C765 C770 1.350 . S
C765 N773 1.427 . S
C766 H757 0.930 . S
C766 C764 1.378 . S
C766 C767 1.367 . S
C767 C766 1.367 . S
C767 C769 1.433 . S
C768 C764 1.350 . S
C768 C765 1.463 . S
C768 N772 1.427 . S
C769 H759 0.929 . S
C769 C767 1.433 . S
C769 N772 1.384 . S
C770 H761 0.929 . S
C770 C762 1.378 . S
C770 C765 1.350 . S
C771 H758 0.929 . S
C771 C763 1.433 . S
C771 N773 1.384 . S
N772 C768 1.427 . S
N772 C769 1.384 . S
N773 C765 1.427 . S
N773 C771 1.384 . S
H774 C780 0.930 . S
H775 C784 0.930 . S
H776 C789 0.929 . S
H777 C787 0.929 . S
H778 C782 0.929 . S
H779 C788 0.929 . S
C780 H774 0.930 . S
C780 C781 1.367 . S
C780 C788 1.378 . S
C781 C780 1.367 . S
C781 C789 1.433 . S
C782 H778 0.929 . S
C782 C784 1.378 . S
C782 C786 1.350 . S
C783 C786 1.463 . S
C783 C788 1.350 . S
C783 N791 1.427 . S
C784 H775 0.930 . S
C784 C782 1.378 . S
C784 C785 1.367 . S
C785 C784 1.367 . S
C785 C787 1.433 . S
C786 C782 1.350 . S
C786 C783 1.463 . S
C786 N790 1.427 . S
C787 H777 0.929 . S
C787 C785 1.433 . S
C787 N790 1.384 . S
C788 H779 0.929 . S
C788 C780 1.378 . S
C788 C783 1.350 . S
C789 H776 0.929 . S
C789 C781 1.433 . S
C789 N791 1.384 . S
N790 C786 1.427 . S
N790 C787 1.384 . S
N791 C783 1.427 . S
N791 C789 1.384 . S
H792 C798 0.930 . S
H793 C802 0.930 . S
H794 C807 0.929 . S
H795 C805 0.929 . S
H796 C800 0.920 1_455 S
H797 C806 0.952 . S
C798 H792 0.930 . S
C798 C799 1.367 . S
C798 C806 1.368 1_455 S
C799 C798 1.367 . S
C799 C807 1.433 . S
C800 H796 0.920 1_655 S
C800 C802 1.382 . S
C800 C804 1.355 . S
C801 C804 1.463 1_455 S
C801 C806 1.337 1_455 S
C801 N809 1.427 . S
C802 H793 0.930 . S
C802 C800 1.382 . S
C802 C803 1.367 . S
C803 C802 1.367 . S
C803 C805 1.433 . S
C804 C800 1.355 . S
C804 C801 1.463 1_655 S
C804 N808 1.427 . S
C805 H795 0.929 . S
C805 C803 1.433 . S
C805 N808 1.384 . S
C806 H797 0.952 . S
C806 C798 1.368 1_655 S
C806 C801 1.337 1_655 S
C807 H794 0.929 . S
C807 C799 1.433 . S
C807 N809 1.384 . S
N808 C804 1.427 . S
N808 C805 1.384 . S
N809 C801 1.427 . S
N809 C807 1.384 . S
H810 C816 0.930 . S
H811 C820 0.930 . S
H812 C825 0.929 . S
H813 C823 0.929 . S
H814 C818 0.929 . S
H815 C824 0.929 . S
C816 H810 0.930 . S
C816 C817 1.367 . S
C816 C824 1.378 . S
C817 C816 1.367 . S
C817 C825 1.433 . S
C818 H814 0.929 . S
C818 C820 1.378 . S
C818 C822 1.350 . S
C819 C822 1.463 . S
C819 C824 1.350 . S
C819 N827 1.427 . S
C820 H811 0.930 . S
C820 C818 1.378 . S
C820 C821 1.367 . S
C821 C820 1.367 . S
C821 C823 1.433 . S
C822 C818 1.350 . S
C822 C819 1.463 . S
C822 N826 1.427 . S
C823 H813 0.929 . S
C823 C821 1.433 . S
C823 N826 1.384 . S
C824 H815 0.929 . S
C824 C816 1.378 . S
C824 C819 1.350 . S
C825 H812 0.929 . S
C825 C817 1.433 . S
C825 N827 1.384 . S
N826 C822 1.427 . S
N826 C823 1.384 . S
N827 C819 1.427 . S
N827 C825 1.384 . S
H828 C834 0.930 . S
H829 C838 0.930 . S
H830 C843 0.929 . S
H831 C841 0.929 . S
H832 C836 0.929 . S
H833 C842 0.929 . S
C834 H828 0.930 . S
C834 C835 1.367 . S
C834 C842 1.378 . S
C835 C834 1.367 . S
C835 C843 1.433 . S
C836 H832 0.929 . S
C836 C838 1.378 . S
C836 C840 1.350 . S
C837 C840 1.463 . S
C837 C842 1.350 . S
C837 N845 1.427 . S
C838 H829 0.930 . S
C838 C836 1.378 . S
C838 C839 1.367 . S
C839 C838 1.367 . S
C839 C841 1.433 . S
C840 C836 1.350 . S
C840 C837 1.463 . S
C840 N844 1.427 . S
C841 H831 0.929 . S
C841 C839 1.433 . S
C841 N844 1.384 . S
C842 H833 0.929 . S
C842 C834 1.378 . S
C842 C837 1.350 . S
C843 H830 0.929 . S
C843 C835 1.433 . S
C843 N845 1.384 . S
N844 C840 1.427 . S
N844 C841 1.384 . S
N845 C837 1.427 . S
N845 C843 1.384 . S
H846 C852 0.928 . S
H847 C856 0.907 1_545 S
H848 C861 0.929 . S
H849 C859 0.929 . S
H850 C854 0.929 . S
H851 C860 0.929 . S
C852 H846 0.928 . S
C852 C853 1.370 1_565 S
C852 C860 1.377 . S
C853 C852 1.370 1_545 S
C853 C861 1.433 . S
C854 H850 0.929 . S
C854 C856 1.364 1_545 S
C854 C858 1.350 1_545 S
C855 C858 1.463 1_545 S
C855 C860 1.350 1_545 S
C855 N863 1.427 . S
C856 H847 0.907 1_565 S
C856 C854 1.364 1_565 S
C856 C857 1.406 . S
C857 C856 1.406 . S
C857 C859 1.433 . S
C858 C854 1.350 1_565 S
C858 C855 1.463 1_565 S
C858 N862 1.427 . S
C859 H849 0.929 . S
C859 C857 1.433 . S
C859 N862 1.384 . S
C860 H851 0.929 . S
C860 C852 1.377 . S
C860 C855 1.350 1_565 S
C861 H848 0.929 . S
C861 C853 1.433 . S
C861 N863 1.384 . S
N862 C858 1.427 . S
N862 C859 1.384 . S
N863 C855 1.427 . S
N863 C861 1.384 . S
H864 C870 0.930 . S
H865 C874 0.930 . S
H866 C879 0.929 . S
H867 C877 0.929 . S
H868 C872 0.929 . S
H869 C878 0.929 . S
C870 H864 0.930 . S
C870 C871 1.367 . S
C870 C878 1.378 . S
C871 C870 1.367 . S
C871 C879 1.433 . S
C872 H868 0.929 . S
C872 C874 1.378 . S
C872 C876 1.350 . S
C873 C876 1.463 . S
C873 C878 1.350 . S
C873 N881 1.427 . S
C874 H865 0.930 . S
C874 C872 1.378 . S
C874 C875 1.367 . S
C875 C874 1.367 . S
C875 C877 1.433 . S
C876 C872 1.350 . S
C876 C873 1.463 . S
C876 N880 1.427 . S
C877 H867 0.929 . S
C877 C875 1.433 . S
C877 N880 1.384 . S
C878 H869 0.929 . S
C878 C870 1.378 . S
C878 C873 1.350 . S
C879 H866 0.929 . S
C879 C871 1.433 . S
C879 N881 1.384 . S
N880 C876 1.427 . S
N880 C877 1.384 . S
N881 C873 1.427 . S
N881 C879 1.384 . S
H882 C888 0.930 . S
H883 C892 0.930 . S
H884 C897 0.929 . S
H885 C895 0.929 . S
H886 C890 0.929 . S
H887 C896 0.929 . S
C888 H882 0.930 . S
C888 C889 1.367 . S
C888 C896 1.378 . S
C889 C888 1.367 . S
C889 C897 1.433 . S
C890 H886 0.929 . S
C890 C892 1.378 . S
C890 C894 1.350 . S
C891 C894 1.463 . S
C891 C896 1.350 . S
C891 N899 1.427 . S
C892 H883 0.930 . S
C892 C890 1.378 . S
C892 C893 1.367 . S
C893 C892 1.367 . S
C893 C895 1.433 . S
C894 C890 1.350 . S
C894 C891 1.463 . S
C894 N898 1.427 . S
C895 H885 0.929 . S
C895 C893 1.433 . S
C895 N898 1.384 . S
C896 H887 0.929 . S
C896 C888 1.378 . S
C896 C891 1.350 . S
C897 H884 0.929 . S
C897 C889 1.433 . S
C897 N899 1.384 . S
N898 C894 1.427 . S
N898 C895 1.384 . S
N899 C891 1.427 . S
N899 C897 1.384 . S
H900 C906 0.930 . S
H901 C910 0.930 . S
H902 C915 0.929 . S
H903 C913 0.929 . S
H904 C908 0.929 . S
H905 C914 0.929 . S
C906 H900 0.930 . S
C906 C907 1.367 . S
C906 C914 1.378 . S
C907 C906 1.367 . S
C907 C915 1.433 . S
C908 H904 0.929 . S
C908 C910 1.378 . S
C908 C912 1.350 . S
C909 C912 1.463 . S
C909 C914 1.350 . S
C909 N917 1.427 . S
C910 H901 0.930 . S
C910 C908 1.378 . S
C910 C911 1.367 . S
C911 C910 1.367 . S
C911 C913 1.433 . S
C912 C908 1.350 . S
C912 C909 1.463 . S
C912 N916 1.427 . S
C913 H903 0.929 . S
C913 C911 1.433 . S
C913 N916 1.384 . S
C914 H905 0.929 . S
C914 C906 1.378 . S
C914 C909 1.350 . S
C915 H902 0.929 . S
C915 C907 1.433 . S
C915 N917 1.384 . S
N916 C912 1.427 . S
N916 C913 1.384 . S
N917 C909 1.427 . S
N917 C915 1.384 . S
H918 C924 0.930 . S
H919 C928 0.930 . S
H920 C933 0.929 . S
H921 C931 0.929 . S
H922 C926 0.929 . S
H923 C932 0.929 . S
C924 H918 0.930 . S
C924 C925 1.367 . S
C924 C932 1.378 . S
C925 C924 1.367 . S
C925 C933 1.433 . S
C926 H922 0.929 . S
C926 C928 1.378 . S
C926 C930 1.350 . S
C927 C930 1.463 . S
C927 C932 1.350 . S
C927 N935 1.427 . S
C928 H919 0.930 . S
C928 C926 1.378 . S
C928 C929 1.367 . S
C929 C928 1.367 . S
C929 C931 1.433 . S
C930 C926 1.350 . S
C930 C927 1.463 . S
C930 N934 1.427 . S
C931 H921 0.929 . S
C931 C929 1.433 . S
C931 N934 1.384 . S
C932 H923 0.929 . S
C932 C924 1.378 . S
C932 C927 1.350 . S
C933 H920 0.929 . S
C933 C925 1.433 . S
C933 N935 1.384 . S
N934 C930 1.427 . S
N934 C931 1.384 . S
N935 C927 1.427 . S
N935 C933 1.384 . S
H936 C942 0.930 . S
H937 C946 0.930 . S
H938 C951 0.929 . S
H939 C949 0.929 . S
H940 C944 0.929 . S
H941 C950 0.929 . S
C942 H936 0.930 . S
C942 C943 1.367 1_565 S
C942 C950 1.378 . S
C943 C942 1.367 1_545 S
C943 C951 1.433 . S
C944 H940 0.929 . S
C944 C946 1.378 . S
C944 C948 1.350 1_545 S
C945 C948 1.463 1_545 S
C945 C950 1.350 1_545 S
C945 N953 1.427 . S
C946 H937 0.930 . S
C946 C944 1.378 . S
C946 C947 1.367 1_545 S
C947 C946 1.367 1_565 S
C947 C949 1.433 . S
C948 C944 1.350 1_565 S
C948 C945 1.463 1_565 S
C948 N952 1.427 . S
C949 H939 0.929 . S
C949 C947 1.433 . S
C949 N952 1.384 . S
C950 H941 0.929 . S
C950 C942 1.378 . S
C950 C945 1.350 1_565 S
C951 H938 0.929 . S
C951 C943 1.433 . S
C951 N953 1.384 . S
N952 C948 1.427 . S
N952 C949 1.384 . S
N953 C945 1.427 . S
N953 C951 1.384 . S
H954 C960 0.930 . S
H955 C964 0.930 . S
H956 C969 0.929 . S
H957 C967 0.929 . S
H958 C962 0.929 . S
H959 C968 0.929 . S
C960 H954 0.930 . S
C960 C961 1.367 . S
C960 C968 1.378 . S
C961 C960 1.367 . S
C961 C969 1.433 . S
C962 H958 0.929 . S
C962 C964 1.378 . S
C962 C966 1.350 . S
C963 C966 1.463 . S
C963 C968 1.350 . S
C963 N971 1.427 . S
C964 H955 0.930 . S
C964 C962 1.378 . S
C964 C965 1.367 . S
C965 C964 1.367 . S
C965 C967 1.433 . S
C966 C962 1.350 . S
C966 C963 1.463 . S
C966 N970 1.427 . S
C967 H957 0.929 . S
C967 C965 1.433 . S
C967 N970 1.384 . S
C968 H959 0.929 . S
C968 C960 1.378 . S
C968 C963 1.350 . S
C969 H956 0.929 . S
C969 C961 1.433 . S
C969 N971 1.384 . S
N970 C966 1.427 . S
N970 C967 1.384 . S
N971 C963 1.427 . S
N971 C969 1.384 . S
H972 C978 0.930 . S
H973 C982 0.930 . S
H974 C987 0.929 . S
H975 C985 0.929 . S
H976 C980 0.929 . S
H977 C986 0.929 . S
C978 H972 0.930 . S
C978 C979 1.367 . S
C978 C986 1.378 . S
C979 C978 1.367 . S
C979 C987 1.433 . S
C980 H976 0.929 . S
C980 C982 1.378 . S
C980 C984 1.350 . S
C981 C984 1.463 1_455 S
C981 C986 1.350 . S
C981 N989 1.427 . S
C982 H973 0.930 . S
C982 C980 1.378 . S
C982 C983 1.367 . S
C983 C982 1.367 . S
C983 C985 1.433 . S
C984 C980 1.350 . S
C984 C981 1.463 1_655 S
C984 N988 1.427 . S
C985 H975 0.929 . S
C985 C983 1.433 . S
C985 N988 1.384 . S
C986 H977 0.929 . S
C986 C978 1.378 . S
C986 C981 1.350 . S
C987 H974 0.929 . S
C987 C979 1.433 . S
C987 N989 1.384 . S
N988 C984 1.427 . S
N988 C985 1.384 . S
N989 C981 1.427 . S
N989 C987 1.384 . S
H990 C996 0.930 . S
H991 C1000 0.930 . S
H992 C1005 0.929 . S
H993 C1003 0.929 . S
H994 C998 0.929 . S
H995 C1004 0.929 . S
C996 H990 0.930 . S
C996 C997 1.367 . S
C996 C1004 1.378 . S
C997 C996 1.367 . S
C997 C1005 1.433 . S
C998 H994 0.929 . S
C998 C1000 1.378 . S
C998 C1002 1.350 . S
C999 C1002 1.463 . S
C999 C1004 1.350 . S
C999 N1007 1.427 . S
C1000 H991 0.930 . S
C1000 C998 1.378 . S
C1000 C1001 1.367 . S
C1001 C1000 1.367 . S
C1001 C1003 1.433 . S
C1002 C998 1.350 . S
C1002 C999 1.463 . S
C1002 N1006 1.427 . S
C1003 H993 0.929 . S
C1003 C1001 1.433 . S
C1003 N1006 1.384 . S
C1004 H995 0.929 . S
C1004 C996 1.378 . S
C1004 C999 1.350 . S
C1005 H992 0.929 . S
C1005 C997 1.433 . S
C1005 N1007 1.384 . S
N1006 C1002 1.427 . S
N1006 C1003 1.384 . S
N1007 C999 1.427 . S
N1007 C1005 1.384 . S
H1008 C1014 0.930 . S
H1009 C1018 0.930 . S
H1010 C1023 0.929 . S
H1011 C1021 0.929 . S
H1012 C1016 0.929 . S
H1013 C1022 0.929 . S
C1014 H1008 0.930 . S
C1014 C1015 1.367 . S
C1014 C1022 1.378 . S
C1015 C1014 1.367 . S
C1015 C1023 1.433 . S
C1016 H1012 0.929 . S
C1016 C1018 1.378 . S
C1016 C1020 1.350 . S
C1017 C1020 1.463 . S
C1017 C1022 1.350 . S
C1017 N1025 1.427 . S
C1018 H1009 0.930 . S
C1018 C1016 1.378 . S
C1018 C1019 1.367 . S
C1019 C1018 1.367 . S
C1019 C1021 1.433 . S
C1020 C1016 1.350 . S
C1020 C1017 1.463 . S
C1020 N1024 1.427 . S
C1021 H1011 0.929 . S
C1021 C1019 1.433 . S
C1021 N1024 1.384 . S
C1022 H1013 0.929 . S
C1022 C1014 1.378 . S
C1022 C1017 1.350 . S
C1023 H1010 0.929 . S
C1023 C1015 1.433 . S
C1023 N1025 1.384 . S
N1024 C1020 1.427 . S
N1024 C1021 1.384 . S
N1025 C1017 1.427 . S
N1025 C1023 1.384 . S
H1026 C1032 0.930 . S
H1027 C1036 0.930 . S
H1028 C1041 0.929 . S
H1029 C1039 0.929 . S
H1030 C1034 0.929 . S
H1031 C1040 0.929 . S
C1032 H1026 0.930 . S
C1032 C1033 1.367 . S
C1032 C1040 1.378 . S
C1033 C1032 1.367 . S
C1033 C1041 1.433 . S
C1034 H1030 0.929 . S
C1034 C1036 1.378 . S
C1034 C1038 1.350 . S
C1035 C1038 1.463 . S
C1035 C1040 1.350 . S
C1035 N1043 1.427 . S
C1036 H1027 0.930 . S
C1036 C1034 1.378 . S
C1036 C1037 1.367 . S
C1037 C1036 1.367 . S
C1037 C1039 1.433 1_545 S
C1038 C1034 1.350 . S
C1038 C1035 1.463 . S
C1038 N1042 1.427 . S
C1039 H1029 0.929 . S
C1039 C1037 1.433 1_565 S
C1039 N1042 1.384 1_565 S
C1040 H1031 0.929 . S
C1040 C1032 1.378 . S
C1040 C1035 1.350 . S
C1041 H1028 0.929 . S
C1041 C1033 1.433 . S
C1041 N1043 1.384 . S
N1042 C1038 1.427 . S
N1042 C1039 1.384 1_545 S
N1043 C1035 1.427 . S
N1043 C1041 1.384 . S
H1044 C1050 0.930 . S
H1045 C1054 0.930 . S
H1046 C1059 0.929 . S
H1047 C1057 0.929 . S
H1048 C1052 0.929 . S
H1049 C1058 0.929 . S
C1050 H1044 0.930 . S
C1050 C1051 1.367 . S
C1050 C1058 1.378 . S
C1051 C1050 1.367 . S
C1051 C1059 1.433 1_455 S
C1052 H1048 0.929 . S
C1052 C1054 1.378 . S
C1052 C1056 1.350 . S
C1053 C1056 1.463 . S
C1053 C1058 1.350 . S
C1053 N1061 1.427 . S
C1054 H1045 0.930 . S
C1054 C1052 1.378 . S
C1054 C1055 1.367 . S
C1055 C1054 1.367 . S
C1055 C1057 1.433 . S
C1056 C1052 1.350 . S
C1056 C1053 1.463 . S
C1056 N1060 1.427 . S
C1057 H1047 0.929 . S
C1057 C1055 1.433 . S
C1057 N1060 1.384 . S
C1058 H1049 0.929 . S
C1058 C1050 1.378 . S
C1058 C1053 1.350 . S
C1059 H1046 0.929 . S
C1059 C1051 1.433 1_655 S
C1059 N1061 1.384 1_655 S
N1060 C1056 1.427 . S
N1060 C1057 1.384 . S
N1061 C1053 1.427 . S
N1061 C1059 1.384 1_455 S
H1062 C1068 0.930 . S
H1063 C1072 0.930 . S
H1064 C1077 0.929 . S
H1065 C1075 0.929 . S
H1066 C1070 0.929 . S
H1067 C1076 0.929 . S
C1068 H1062 0.930 . S
C1068 C1069 1.367 . S
C1068 C1076 1.378 . S
C1069 C1068 1.367 . S
C1069 C1077 1.433 . S
C1070 H1066 0.929 . S
C1070 C1072 1.378 . S
C1070 C1074 1.350 . S
C1071 C1074 1.463 . S
C1071 C1076 1.350 . S
C1071 N1079 1.427 . S
C1072 H1063 0.930 . S
C1072 C1070 1.378 . S
C1072 C1073 1.367 . S
C1073 C1072 1.367 . S
C1073 C1075 1.433 . S
C1074 C1070 1.350 . S
C1074 C1071 1.463 . S
C1074 N1078 1.427 . S
C1075 H1065 0.929 . S
C1075 C1073 1.433 . S
C1075 N1078 1.384 . S
C1076 H1067 0.929 . S
C1076 C1068 1.378 . S
C1076 C1071 1.350 . S
C1077 H1064 0.929 . S
C1077 C1069 1.433 . S
C1077 N1079 1.384 . S
N1078 C1074 1.427 . S
N1078 C1075 1.384 . S
N1079 C1071 1.427 . S
N1079 C1077 1.384 . S
H1080 C1086 0.930 . S
H1081 C1090 0.930 . S
H1082 C1095 0.929 . S
H1083 C1093 0.929 . S
H1084 C1088 0.929 . S
H1085 C1094 0.929 . S
C1086 H1080 0.930 . S
C1086 C1087 1.367 . S
C1086 C1094 1.378 . S
C1087 C1086 1.367 . S
C1087 C1095 1.433 1_545 S
C1088 H1084 0.929 . S
C1088 C1090 1.378 . S
C1088 C1092 1.350 . S
C1089 C1092 1.463 . S
C1089 C1094 1.350 . S
C1089 N1097 1.427 1_545 S
C1090 H1081 0.930 . S
C1090 C1088 1.378 . S
C1090 C1091 1.367 . S
C1091 C1090 1.367 . S
C1091 C1093 1.433 . S
C1092 C1088 1.350 . S
C1092 C1089 1.463 . S
C1092 N1096 1.427 . S
C1093 H1083 0.929 . S
C1093 C1091 1.433 . S
C1093 N1096 1.384 . S
C1094 H1085 0.929 . S
C1094 C1086 1.378 . S
C1094 C1089 1.350 . S
C1095 H1082 0.929 . S
C1095 C1087 1.433 1_565 S
C1095 N1097 1.384 . S
N1096 C1092 1.427 . S
N1096 C1093 1.384 . S
N1097 C1089 1.427 1_565 S
N1097 C1095 1.384 . S
H1098 C1104 0.930 . S
H1099 C1108 0.930 . S
H1100 C1113 0.929 . S
H1101 C1111 0.929 . S
H1102 C1106 0.929 . S
H1103 C1112 0.929 . S
C1104 H1098 0.930 . S
C1104 C1105 1.367 . S
C1104 C1112 1.378 . S
C1105 C1104 1.367 . S
C1105 C1113 1.433 1_455 S
C1106 H1102 0.929 . S
C1106 C1108 1.378 . S
C1106 C1110 1.350 . S
C1107 C1110 1.463 . S
C1107 C1112 1.350 . S
C1107 N1115 1.427 . S
C1108 H1099 0.930 . S
C1108 C1106 1.378 . S
C1108 C1109 1.367 . S
C1109 C1108 1.367 . S
C1109 C1111 1.433 . S
C1110 C1106 1.350 . S
C1110 C1107 1.463 . S
C1110 N1114 1.427 . S
C1111 H1101 0.929 . S
C1111 C1109 1.433 . S
C1111 N1114 1.384 . S
C1112 H1103 0.929 . S
C1112 C1104 1.378 . S
C1112 C1107 1.350 . S
C1113 H1100 0.929 . S
C1113 C1105 1.433 1_655 S
C1113 N1115 1.384 1_655 S
N1114 C1110 1.427 . S
N1114 C1111 1.384 . S
N1115 C1107 1.427 . S
N1115 C1113 1.384 1_455 S
H1116 C1122 0.930 1_655 S
H1117 C1126 0.930 . S
H1118 C1131 0.929 . S
H1119 C1129 0.929 1_655 S
H1120 C1124 0.929 . S
H1121 C1130 0.929 1_655 S
C1122 H1116 0.930 1_455 S
C1122 C1123 1.367 . S
C1122 C1130 1.378 . S
C1123 C1122 1.367 . S
C1123 C1131 1.433 . S
C1124 H1120 0.929 . S
C1124 C1126 1.378 . S
C1124 C1128 1.350 . S
C1125 C1128 1.463 1_554 S
C1125 C1130 1.350 . S
C1125 N1133 1.427 . S
C1126 H1117 0.930 . S
C1126 C1124 1.378 . S
C1126 C1127 1.367 . S
C1127 C1126 1.367 . S
C1127 C1129 1.433 . S
C1128 C1124 1.350 . S
C1128 C1125 1.463 1_556 S
C1128 N1132 1.427 . S
C1129 H1119 0.929 1_455 S
C1129 C1127 1.433 . S
C1129 N1132 1.384 . S
C1130 H1121 0.929 1_455 S
C1130 C1122 1.378 . S
C1130 C1125 1.350 . S
C1131 H1118 0.929 . S
C1131 C1123 1.433 . S
C1131 N1133 1.384 . S
N1132 C1128 1.427 . S
N1132 C1129 1.384 . S
N1133 C1125 1.427 . S
N1133 C1131 1.384 . S
H1134 C1140 0.930 . S
H1135 C1144 0.930 . S
H1136 C1149 0.929 . S
H1137 C1147 0.929 . S
H1138 C1142 0.929 . S
H1139 C1148 0.929 . S
C1140 H1134 0.930 . S
C1140 C1141 1.367 . S
C1140 C1148 1.378 . S
C1141 C1140 1.367 . S
C1141 C1149 1.433 . S
C1142 H1138 0.929 . S
C1142 C1144 1.378 . S
C1142 C1146 1.350 . S
C1143 C1146 1.463 1_556 S
C1143 C1148 1.350 . S
C1143 N1151 1.427 . S
C1144 H1135 0.930 . S
C1144 C1142 1.378 . S
C1144 C1145 1.367 . S
C1145 C1144 1.367 . S
C1145 C1147 1.433 . S
C1146 C1142 1.350 . S
C1146 C1143 1.463 1_554 S
C1146 N1150 1.427 . S
C1147 H1137 0.929 . S
C1147 C1145 1.433 . S
C1147 N1150 1.384 . S
C1148 H1139 0.929 . S
C1148 C1140 1.378 . S
C1148 C1143 1.350 . S
C1149 H1136 0.929 . S
C1149 C1141 1.433 . S
C1149 N1151 1.384 . S
N1150 C1146 1.427 . S
N1150 C1147 1.384 . S
N1151 C1143 1.427 . S
N1151 C1149 1.384 . S
H1152 C1158 0.930 . S
H1153 C1162 0.930 . S
H1154 C1167 0.929 . S
H1155 C1165 0.929 . S
H1156 C1160 0.929 . S
H1157 C1166 0.929 . S
C1158 H1152 0.930 . S
C1158 C1159 1.367 . S
C1158 C1166 1.378 . S
C1159 C1158 1.367 . S
C1159 C1167 1.433 . S
C1160 H1156 0.929 . S
C1160 C1162 1.378 . S
C1160 C1164 1.350 . S
C1161 C1164 1.463 1_556 S
C1161 C1166 1.350 . S
C1161 N1169 1.427 . S
C1162 H1153 0.930 . S
C1162 C1160 1.378 . S
C1162 C1163 1.367 . S
C1163 C1162 1.367 . S
C1163 C1165 1.433 . S
C1164 C1160 1.350 . S
C1164 C1161 1.463 1_554 S
C1164 N1168 1.427 . S
C1165 H1155 0.929 . S
C1165 C1163 1.433 . S
C1165 N1168 1.384 . S
C1166 H1157 0.929 . S
C1166 C1158 1.378 . S
C1166 C1161 1.350 . S
C1167 H1154 0.929 . S
C1167 C1159 1.433 . S
C1167 N1169 1.384 . S
N1168 C1164 1.427 . S
N1168 C1165 1.384 . S
N1169 C1161 1.427 . S
N1169 C1167 1.384 . S
H1170 C1176 0.930 . S
H1171 C1180 0.930 . S
H1172 C1185 0.929 . S
H1173 C1183 0.929 . S
H1174 C1178 0.929 . S
H1175 C1184 0.929 . S
C1176 H1170 0.930 . S
C1176 C1177 1.367 . S
C1176 C1184 1.378 . S
C1177 C1176 1.367 . S
C1177 C1185 1.433 . S
C1178 H1174 0.929 . S
C1178 C1180 1.378 . S
C1178 C1182 1.350 . S
C1179 C1182 1.463 1_556 S
C1179 C1184 1.350 . S
C1179 N1187 1.427 . S
C1180 H1171 0.930 . S
C1180 C1178 1.378 . S
C1180 C1181 1.367 . S
C1181 C1180 1.367 . S
C1181 C1183 1.433 . S
C1182 C1178 1.350 . S
C1182 C1179 1.463 1_554 S
C1182 N1186 1.427 . S
C1183 H1173 0.929 . S
C1183 C1181 1.433 . S
C1183 N1186 1.384 . S
C1184 H1175 0.929 . S
C1184 C1176 1.378 . S
C1184 C1179 1.350 . S
C1185 H1172 0.929 . S
C1185 C1177 1.433 . S
C1185 N1187 1.384 . S
N1186 C1182 1.427 . S
N1186 C1183 1.384 . S
N1187 C1179 1.427 . S
N1187 C1185 1.384 . S
H1188 C1194 0.930 . S
H1189 C1198 0.930 . S
H1190 C1203 0.929 . S
H1191 C1201 0.929 . S
H1192 C1196 0.929 . S
H1193 C1202 0.929 . S
C1194 H1188 0.930 . S
C1194 C1195 1.367 . S
C1194 C1202 1.378 . S
C1195 C1194 1.367 . S
C1195 C1203 1.433 . S
C1196 H1192 0.929 . S
C1196 C1198 1.378 . S
C1196 C1200 1.350 . S
C1197 C1200 1.463 1_554 S
C1197 C1202 1.350 . S
C1197 N1205 1.427 . S
C1198 H1189 0.930 . S
C1198 C1196 1.378 . S
C1198 C1199 1.367 . S
C1199 C1198 1.367 . S
C1199 C1201 1.433 . S
C1200 C1196 1.350 . S
C1200 C1197 1.463 1_556 S
C1200 N1204 1.427 . S
C1201 H1191 0.929 . S
C1201 C1199 1.433 . S
C1201 N1204 1.384 . S
C1202 H1193 0.929 . S
C1202 C1194 1.378 . S
C1202 C1197 1.350 . S
C1203 H1190 0.929 . S
C1203 C1195 1.433 . S
C1203 N1205 1.384 . S
N1204 C1200 1.427 . S
N1204 C1201 1.384 . S
N1205 C1197 1.427 . S
N1205 C1203 1.384 . S
H1206 C1212 0.930 1_565 S
H1207 C1216 0.930 . S
H1208 C1221 0.929 . S
H1209 C1219 0.929 1_565 S
H1210 C1214 0.929 . S
H1211 C1220 0.929 1_565 S
C1212 H1206 0.930 1_545 S
C1212 C1213 1.367 . S
C1212 C1220 1.378 . S
C1213 C1212 1.367 . S
C1213 C1221 1.433 . S
C1214 H1210 0.929 . S
C1214 C1216 1.378 . S
C1214 C1218 1.350 . S
C1215 C1218 1.463 1_556 S
C1215 C1220 1.350 . S
C1215 N1223 1.427 . S
C1216 H1207 0.930 . S
C1216 C1214 1.378 . S
C1216 C1217 1.367 . S
C1217 C1216 1.367 . S
C1217 C1219 1.433 . S
C1218 C1214 1.350 . S
C1218 C1215 1.463 1_554 S
C1218 N1222 1.427 . S
C1219 H1209 0.929 1_545 S
C1219 C1217 1.433 . S
C1219 N1222 1.384 . S
C1220 H1211 0.929 1_545 S
C1220 C1212 1.378 . S
C1220 C1215 1.350 . S
C1221 H1208 0.929 . S
C1221 C1213 1.433 . S
C1221 N1223 1.384 . S
N1222 C1218 1.427 . S
N1222 C1219 1.384 . S
N1223 C1215 1.427 . S
N1223 C1221 1.384 . S
H1224 C1230 0.930 . S
H1225 C1234 0.930 . S
H1226 C1239 0.929 . S
H1227 C1237 0.929 . S
H1228 C1232 0.929 . S
H1229 C1238 0.929 . S
C1230 H1224 0.930 . S
C1230 C1231 1.367 . S
C1230 C1238 1.378 . S
C1231 C1230 1.367 . S
C1231 C1239 1.433 . S
C1232 H1228 0.929 . S
C1232 C1234 1.378 . S
C1232 C1236 1.350 . S
C1233 C1236 1.463 . S
C1233 C1238 1.350 . S
C1233 N1241 1.427 . S
C1234 H1225 0.930 . S
C1234 C1232 1.378 . S
C1234 C1235 1.367 . S
C1235 C1234 1.367 . S
C1235 C1237 1.433 . S
C1236 C1232 1.350 . S
C1236 C1233 1.463 . S
C1236 N1240 1.427 . S
C1237 H1227 0.929 . S
C1237 C1235 1.433 . S
C1237 N1240 1.384 . S
C1238 H1229 0.929 . S
C1238 C1230 1.378 . S
C1238 C1233 1.350 . S
C1239 H1226 0.929 . S
C1239 C1231 1.433 . S
C1239 N1241 1.384 . S
N1240 C1236 1.427 . S
N1240 C1237 1.384 . S
N1241 C1233 1.427 . S
N1241 C1239 1.384 . S
H1242 C1248 0.930 . S
H1243 C1252 0.930 . S
H1244 C1257 0.929 . S
H1245 C1255 0.929 . S
H1246 C1250 0.929 . S
H1247 C1256 0.929 . S
C1248 H1242 0.930 . S
C1248 C1249 1.367 . S
C1248 C1256 1.378 . S
C1249 C1248 1.367 . S
C1249 C1257 1.433 . S
C1250 H1246 0.929 . S
C1250 C1252 1.378 . S
C1250 C1254 1.350 . S
C1251 C1254 1.463 . S
C1251 C1256 1.350 . S
C1251 N1259 1.427 . S
C1252 H1243 0.930 . S
C1252 C1250 1.378 . S
C1252 C1253 1.367 . S
C1253 C1252 1.367 . S
C1253 C1255 1.433 . S
C1254 C1250 1.350 . S
C1254 C1251 1.463 . S
C1254 N1258 1.427 . S
C1255 H1245 0.929 . S
C1255 C1253 1.433 . S
C1255 N1258 1.384 . S
C1256 H1247 0.929 . S
C1256 C1248 1.378 . S
C1256 C1251 1.350 . S
C1257 H1244 0.929 . S
C1257 C1249 1.433 . S
C1257 N1259 1.384 . S
N1258 C1254 1.427 . S
N1258 C1255 1.384 . S
N1259 C1251 1.427 . S
N1259 C1257 1.384 . S
H1260 C1266 0.930 1_455 S
H1261 C1270 0.930 . S
H1262 C1275 0.929 . S
H1263 C1273 0.929 . S
H1264 C1268 0.929 . S
H1265 C1274 0.912 1_455 S
C1266 H1260 0.930 1_655 S
C1266 C1267 1.367 . S
C1266 C1274 1.378 . S
C1267 C1266 1.367 . S
C1267 C1275 1.433 . S
C1268 H1264 0.929 . S
C1268 C1270 1.378 . S
C1268 C1272 1.350 . S
C1269 C1272 1.463 . S
C1269 C1274 1.367 . S
C1269 N1277 1.427 . S
C1270 H1261 0.930 . S
C1270 C1268 1.378 . S
C1270 C1271 1.367 . S
C1271 C1270 1.367 . S
C1271 C1273 1.433 1_655 S
C1272 C1268 1.350 . S
C1272 C1269 1.463 . S
C1272 N1276 1.427 1_655 S
C1273 H1263 0.929 . S
C1273 C1271 1.433 1_455 S
C1273 N1276 1.384 . S
C1274 H1265 0.912 1_655 S
C1274 C1266 1.378 . S
C1274 C1269 1.367 . S
C1275 H1262 0.929 . S
C1275 C1267 1.433 . S
C1275 N1277 1.384 . S
N1276 C1272 1.427 1_455 S
N1276 C1273 1.384 . S
N1277 C1269 1.427 . S
N1277 C1275 1.384 . S
H1278 C1284 0.930 . S
H1279 C1288 0.930 . S
H1280 C1293 0.929 . S
H1281 C1291 0.929 . S
H1282 C1286 0.929 . S
H1283 C1292 0.929 . S
C1284 H1278 0.930 . S
C1284 C1285 1.367 . S
C1284 C1292 1.378 . S
C1285 C1284 1.367 . S
C1285 C1293 1.433 . S
C1286 H1282 0.929 . S
C1286 C1288 1.378 . S
C1286 C1290 1.350 . S
C1287 C1290 1.463 . S
C1287 C1292 1.350 . S
C1287 N1295 1.427 . S
C1288 H1279 0.930 . S
C1288 C1286 1.378 . S
C1288 C1289 1.367 . S
C1289 C1288 1.367 . S
C1289 C1291 1.433 . S
C1290 C1286 1.350 . S
C1290 C1287 1.463 . S
C1290 N1294 1.427 . S
C1291 H1281 0.929 . S
C1291 C1289 1.433 . S
C1291 N1294 1.384 . S
C1292 H1283 0.929 . S
C1292 C1284 1.378 . S
C1292 C1287 1.350 . S
C1293 H1280 0.929 . S
C1293 C1285 1.433 . S
C1293 N1295 1.384 . S
N1294 C1290 1.427 . S
N1294 C1291 1.384 . S
N1295 C1287 1.427 . S
N1295 C1293 1.384 . S
H1296 C1302 0.930 1_455 S
H1297 C1306 0.930 . S
H1298 C1311 0.929 . S
H1299 C1309 0.912 1_455 S
H1300 C1304 0.929 . S
H1301 C1310 0.929 1_455 S
C1302 H1296 0.930 1_655 S
C1302 C1303 1.367 . S
C1302 C1310 1.378 . S
C1303 C1302 1.367 . S
C1303 C1311 1.433 . S
C1304 H1300 0.929 . S
C1304 C1306 1.378 . S
C1304 C1308 1.350 . S
C1305 C1308 1.463 . S
C1305 C1310 1.350 . S
C1305 N1313 1.427 . S
C1306 H1297 0.930 . S
C1306 C1304 1.378 . S
C1306 C1307 1.367 . S
C1307 C1306 1.367 . S
C1307 C1309 1.450 . S
C1308 C1304 1.350 . S
C1308 C1305 1.463 . S
C1308 N1312 1.427 . S
C1309 H1299 0.912 1_655 S
C1309 C1307 1.450 . S
C1309 N1312 1.386 . S
C1310 H1301 0.929 1_655 S
C1310 C1302 1.378 . S
C1310 C1305 1.350 . S
C1311 H1298 0.929 . S
C1311 C1303 1.433 . S
C1311 N1313 1.384 . S
N1312 C1308 1.427 . S
N1312 C1309 1.386 . S
N1313 C1305 1.427 . S
N1313 C1311 1.384 . S
H1314 C1320 0.930 . S
H1315 C1324 0.930 . S
H1316 C1329 0.929 . S
H1317 C1327 0.929 . S
H1318 C1322 0.929 . S
H1319 C1328 0.929 . S
C1320 H1314 0.930 . S
C1320 C1321 1.367 . S
C1320 C1328 1.378 . S
C1321 C1320 1.367 . S
C1321 C1329 1.433 . S
C1322 H1318 0.929 . S
C1322 C1324 1.378 . S
C1322 C1326 1.350 . S
C1323 C1326 1.463 . S
C1323 C1328 1.350 . S
C1323 N1331 1.427 . S
C1324 H1315 0.930 . S
C1324 C1322 1.378 . S
C1324 C1325 1.367 . S
C1325 C1324 1.367 . S
C1325 C1327 1.433 . S
C1326 C1322 1.350 . S
C1326 C1323 1.463 . S
C1326 N1330 1.427 . S
C1327 H1317 0.929 . S
C1327 C1325 1.433 . S
C1327 N1330 1.384 . S
C1328 H1319 0.929 . S
C1328 C1320 1.378 . S
C1328 C1323 1.350 . S
C1329 H1316 0.929 . S
C1329 C1321 1.433 . S
C1329 N1331 1.384 . S
N1330 C1326 1.427 . S
N1330 C1327 1.384 . S
N1331 C1323 1.427 . S
N1331 C1329 1.384 . S
H1332 C1338 0.930 . S
H1333 C1342 0.930 . S
H1334 C1347 0.929 1_545 S
H1335 C1345 0.929 . S
H1336 C1340 0.929 1_545 S
H1337 C1346 0.929 . S
C1338 H1332 0.930 . S
C1338 C1339 1.367 . S
C1338 C1346 1.378 . S
C1339 C1338 1.367 . S
C1339 C1347 1.433 . S
C1340 H1336 0.929 1_565 S
C1340 C1342 1.378 . S
C1340 C1344 1.350 . S
C1341 C1344 1.463 . S
C1341 C1346 1.350 . S
C1341 N1349 1.427 . S
C1342 H1333 0.930 . S
C1342 C1340 1.378 . S
C1342 C1343 1.367 . S
C1343 C1342 1.367 . S
C1343 C1345 1.433 . S
C1344 C1340 1.350 . S
C1344 C1341 1.463 . S
C1344 N1348 1.427 . S
C1345 H1335 0.929 . S
C1345 C1343 1.433 . S
C1345 N1348 1.384 . S
C1346 H1337 0.929 . S
C1346 C1338 1.378 . S
C1346 C1341 1.350 . S
C1347 H1334 0.929 1_565 S
C1347 C1339 1.433 . S
C1347 N1349 1.384 . S
N1348 C1344 1.427 . S
N1348 C1345 1.384 . S
N1349 C1341 1.427 . S
N1349 C1347 1.384 . S
H1350 C1356 0.930 . S
H1351 C1360 0.930 . S
H1352 C1365 0.929 . S
H1353 C1363 0.929 . S
H1354 C1358 0.929 . S
H1355 C1364 0.929 . S
C1356 H1350 0.930 . S
C1356 C1357 1.367 . S
C1356 C1364 1.378 . S
C1357 C1356 1.367 . S
C1357 C1365 1.433 . S
C1358 H1354 0.929 . S
C1358 C1360 1.378 . S
C1358 C1362 1.350 . S
C1359 C1362 1.463 . S
C1359 C1364 1.350 . S
C1359 N1367 1.427 . S
C1360 H1351 0.930 . S
C1360 C1358 1.378 . S
C1360 C1361 1.367 . S
C1361 C1360 1.367 . S
C1361 C1363 1.433 . S
C1362 C1358 1.350 . S
C1362 C1359 1.463 . S
C1362 N1366 1.427 . S
C1363 H1353 0.929 . S
C1363 C1361 1.433 . S
C1363 N1366 1.384 . S
C1364 H1355 0.929 . S
C1364 C1356 1.378 . S
C1364 C1359 1.350 . S
C1365 H1352 0.929 . S
C1365 C1357 1.433 . S
C1365 N1367 1.384 . S
N1366 C1362 1.427 . S
N1366 C1363 1.384 . S
N1367 C1359 1.427 . S
N1367 C1365 1.384 . S
H1368 C1374 0.930 . S
H1369 C1378 0.930 . S
H1370 C1383 0.929 . S
H1371 C1381 0.929 . S
H1372 C1376 0.929 . S
H1373 C1382 0.929 . S
C1374 H1368 0.930 . S
C1374 C1375 1.367 . S
C1374 C1382 1.378 . S
C1375 C1374 1.367 . S
C1375 C1383 1.433 . S
C1376 H1372 0.929 . S
C1376 C1378 1.378 . S
C1376 C1380 1.350 . S
C1377 C1380 1.463 . S
C1377 C1382 1.350 . S
C1377 N1385 1.427 . S
C1378 H1369 0.930 . S
C1378 C1376 1.378 . S
C1378 C1379 1.367 . S
C1379 C1378 1.367 . S
C1379 C1381 1.433 . S
C1380 C1376 1.350 . S
C1380 C1377 1.463 . S
C1380 N1384 1.427 . S
C1381 H1371 0.929 . S
C1381 C1379 1.433 . S
C1381 N1384 1.384 . S
C1382 H1373 0.929 . S
C1382 C1374 1.378 . S
C1382 C1377 1.350 . S
C1383 H1370 0.929 . S
C1383 C1375 1.433 . S
C1383 N1385 1.384 . S
N1384 C1380 1.427 . S
N1384 C1381 1.384 . S
N1385 C1377 1.427 . S
N1385 C1383 1.384 . S
H1386 C1392 0.930 . S
H1387 C1396 0.930 . S
H1388 C1401 0.929 . S
H1389 C1399 0.929 . S
H1390 C1394 0.929 . S
H1391 C1400 0.929 . S
C1392 H1386 0.930 . S
C1392 C1393 1.367 . S
C1392 C1400 1.378 . S
C1393 C1392 1.367 . S
C1393 C1401 1.433 . S
C1394 H1390 0.929 . S
C1394 C1396 1.378 . S
C1394 C1398 1.350 . S
C1395 C1398 1.463 . S
C1395 C1400 1.350 . S
C1395 N1403 1.427 . S
C1396 H1387 0.930 . S
C1396 C1394 1.378 . S
C1396 C1397 1.367 . S
C1397 C1396 1.367 . S
C1397 C1399 1.433 . S
C1398 C1394 1.350 . S
C1398 C1395 1.463 . S
C1398 N1402 1.427 . S
C1399 H1389 0.929 . S
C1399 C1397 1.433 . S
C1399 N1402 1.384 . S
C1400 H1391 0.929 . S
C1400 C1392 1.378 . S
C1400 C1395 1.350 . S
C1401 H1388 0.929 . S
C1401 C1393 1.433 . S
C1401 N1403 1.384 . S
N1402 C1398 1.427 . S
N1402 C1399 1.384 . S
N1403 C1395 1.427 . S
N1403 C1401 1.384 . S
H1404 C1410 0.930 . S
H1405 C1414 0.930 1_545 S
H1406 C1419 0.930 1_545 S
H1407 C1417 0.929 . S
H1408 C1412 0.929 1_545 S
H1409 C1418 0.929 . S
C1410 H1404 0.930 . S
C1410 C1411 1.367 . S
C1410 C1418 1.378 . S
C1411 C1410 1.367 . S
C1411 C1419 1.432 . S
C1412 H1408 0.929 1_565 S
C1412 C1414 1.378 . S
C1412 C1416 1.350 . S
C1413 C1416 1.463 . S
C1413 C1418 1.350 . S
C1413 N1421 1.427 . S
C1414 H1405 0.930 1_565 S
C1414 C1412 1.378 . S
C1414 C1415 1.367 . S
C1415 C1414 1.367 . S
C1415 C1417 1.433 . S
C1416 C1412 1.350 . S
C1416 C1413 1.463 . S
C1416 N1420 1.427 . S
C1417 H1407 0.929 . S
C1417 C1415 1.433 . S
C1417 N1420 1.384 . S
C1418 H1409 0.929 . S
C1418 C1410 1.378 . S
C1418 C1413 1.350 . S
C1419 H1406 0.930 1_565 S
C1419 C1411 1.432 . S
C1419 N1421 1.383 . S
N1420 C1416 1.427 . S
N1420 C1417 1.384 . S
N1421 C1413 1.427 . S
N1421 C1419 1.383 . S
H1422 C1428 0.930 . S
H1423 C1432 0.930 . S
H1424 C1437 0.929 . S
H1425 C1435 0.929 . S
H1426 C1430 0.929 . S
H1427 C1436 0.929 . S
C1428 H1422 0.930 . S
C1428 C1429 1.367 . S
C1428 C1436 1.378 . S
C1429 C1428 1.367 . S
C1429 C1437 1.433 . S
C1430 H1426 0.929 . S
C1430 C1432 1.378 . S
C1430 C1434 1.350 . S
C1431 C1434 1.463 . S
C1431 C1436 1.350 . S
C1431 N1439 1.427 . S
C1432 H1423 0.930 . S
C1432 C1430 1.378 . S
C1432 C1433 1.367 . S
C1433 C1432 1.367 . S
C1433 C1435 1.433 . S
C1434 C1430 1.350 . S
C1434 C1431 1.463 . S
C1434 N1438 1.427 . S
C1435 H1425 0.929 . S
C1435 C1433 1.433 . S
C1435 N1438 1.384 . S
C1436 H1427 0.929 . S
C1436 C1428 1.378 . S
C1436 C1431 1.350 . S
C1437 H1424 0.929 . S
C1437 C1429 1.433 . S
C1437 N1439 1.384 . S
N1438 C1434 1.427 . S
N1438 C1435 1.384 . S
N1439 C1431 1.427 . S
N1439 C1437 1.384 . S
H1440 C1446 0.930 . S
H1441 C1450 0.930 . S
H1442 C1455 0.929 . S
H1443 C1453 0.929 . S
H1444 C1448 0.929 . S
H1445 C1454 0.929 . S
C1446 H1440 0.930 . S
C1446 C1447 1.367 . S
C1446 C1454 1.378 . S
C1447 C1446 1.367 . S
C1447 C1455 1.433 . S
C1448 H1444 0.929 . S
C1448 C1450 1.378 . S
C1448 C1452 1.350 . S
C1449 C1452 1.463 . S
C1449 C1454 1.350 . S
C1449 N1457 1.427 . S
C1450 H1441 0.930 . S
C1450 C1448 1.378 . S
C1450 C1451 1.367 . S
C1451 C1450 1.367 . S
C1451 C1453 1.433 . S
C1452 C1448 1.350 . S
C1452 C1449 1.463 . S
C1452 N1456 1.427 . S
C1453 H1443 0.929 . S
C1453 C1451 1.433 . S
C1453 N1456 1.384 . S
C1454 H1445 0.929 . S
C1454 C1446 1.378 . S
C1454 C1449 1.350 . S
C1455 H1442 0.929 . S
C1455 C1447 1.433 . S
C1455 N1457 1.384 . S
N1456 C1452 1.427 . S
N1456 C1453 1.384 . S
N1457 C1449 1.427 . S
N1457 C1455 1.384 . S
H1458 C1464 0.930 . S
H1459 C1468 0.930 . S
H1460 C1473 0.929 . S
H1461 C1471 0.929 . S
H1462 C1466 0.929 . S
H1463 C1472 0.929 . S
C1464 H1458 0.930 . S
C1464 C1465 1.367 . S
C1464 C1472 1.378 . S
C1465 C1464 1.367 . S
C1465 C1473 1.433 . S
C1466 H1462 0.929 . S
C1466 C1468 1.378 . S
C1466 C1470 1.350 . S
C1467 C1470 1.463 . S
C1467 C1472 1.350 . S
C1467 N1475 1.427 . S
C1468 H1459 0.930 . S
C1468 C1466 1.378 . S
C1468 C1469 1.367 . S
C1469 C1468 1.367 . S
C1469 C1471 1.433 . S
C1470 C1466 1.350 . S
C1470 C1467 1.463 . S
C1470 N1474 1.427 . S
C1471 H1461 0.929 . S
C1471 C1469 1.433 . S
C1471 N1474 1.384 . S
C1472 H1463 0.929 . S
C1472 C1464 1.378 . S
C1472 C1467 1.350 . S
C1473 H1460 0.929 . S
C1473 C1465 1.433 . S
C1473 N1475 1.384 . S
N1474 C1470 1.427 . S
N1474 C1471 1.384 . S
N1475 C1467 1.427 . S
N1475 C1473 1.384 . S
H1476 C1482 0.930 . S
H1477 C1486 0.930 . S
H1478 C1491 0.929 . S
H1479 C1489 0.929 . S
H1480 C1484 0.929 . S
H1481 C1490 0.929 . S
C1482 H1476 0.930 . S
C1482 C1483 1.367 . S
C1482 C1490 1.378 . S
C1483 C1482 1.367 . S
C1483 C1491 1.433 . S
C1484 H1480 0.929 . S
C1484 C1486 1.378 . S
C1484 C1488 1.350 . S
C1485 C1488 1.463 . S
C1485 C1490 1.350 . S
C1485 N1493 1.427 . S
C1486 H1477 0.930 . S
C1486 C1484 1.378 . S
C1486 C1487 1.367 . S
C1487 C1486 1.367 . S
C1487 C1489 1.433 . S
C1488 C1484 1.350 . S
C1488 C1485 1.463 . S
C1488 N1492 1.427 . S
C1489 H1479 0.929 . S
C1489 C1487 1.433 . S
C1489 N1492 1.384 . S
C1490 H1481 0.929 . S
C1490 C1482 1.378 . S
C1490 C1485 1.350 . S
C1491 H1478 0.929 . S
C1491 C1483 1.433 . S
C1491 N1493 1.384 . S
N1492 C1488 1.427 . S
N1492 C1489 1.384 . S
N1493 C1485 1.427 . S
N1493 C1491 1.384 . S
H1494 C1500 0.930 . S
H1495 C1504 0.930 . S
H1496 C1509 0.929 . S
H1497 C1507 0.929 . S
H1498 C1502 0.929 . S
H1499 C1508 0.929 . S
C1500 H1494 0.930 . S
C1500 C1501 1.367 . S
C1500 C1508 1.378 . S
C1501 C1500 1.367 . S
C1501 C1509 1.433 . S
C1502 H1498 0.929 . S
C1502 C1504 1.378 . S
C1502 C1506 1.350 . S
C1503 C1506 1.463 . S
C1503 C1508 1.350 . S
C1503 N1511 1.427 . S
C1504 H1495 0.930 . S
C1504 C1502 1.378 . S
C1504 C1505 1.367 . S
C1505 C1504 1.367 . S
C1505 C1507 1.433 . S
C1506 C1502 1.350 . S
C1506 C1503 1.463 . S
C1506 N1510 1.427 . S
C1507 H1497 0.929 . S
C1507 C1505 1.433 . S
C1507 N1510 1.384 . S
C1508 H1499 0.929 . S
C1508 C1500 1.378 . S
C1508 C1503 1.350 . S
C1509 H1496 0.929 . S
C1509 C1501 1.433 . S
C1509 N1511 1.384 . S
N1510 C1506 1.427 . S
N1510 C1507 1.384 . S
N1511 C1503 1.427 . S
N1511 C1509 1.384 . S
H1512 C1518 0.930 . S
H1513 C1522 0.930 . S
H1514 C1527 0.929 . S
H1515 C1525 0.929 . S
H1516 C1520 0.929 . S
H1517 C1526 0.929 . S
C1518 H1512 0.930 . S
C1518 C1519 1.367 . S
C1518 C1526 1.378 . S
C1519 C1518 1.367 . S
C1519 C1527 1.433 . S
C1520 H1516 0.929 . S
C1520 C1522 1.378 . S
C1520 C1524 1.350 . S
C1521 C1524 1.463 . S
C1521 C1526 1.350 . S
C1521 N1529 1.427 . S
C1522 H1513 0.930 . S
C1522 C1520 1.378 . S
C1522 C1523 1.367 . S
C1523 C1522 1.367 . S
C1523 C1525 1.433 . S
C1524 C1520 1.350 . S
C1524 C1521 1.463 . S
C1524 N1528 1.427 . S
C1525 H1515 0.929 . S
C1525 C1523 1.433 . S
C1525 N1528 1.384 . S
C1526 H1517 0.929 . S
C1526 C1518 1.378 . S
C1526 C1521 1.350 . S
C1527 H1514 0.929 . S
C1527 C1519 1.433 . S
C1527 N1529 1.384 . S
N1528 C1524 1.427 . S
N1528 C1525 1.384 . S
N1529 C1521 1.427 . S
N1529 C1527 1.384 . S
H1530 C1536 0.930 . S
H1531 C1540 0.930 . S
H1532 C1545 0.929 . S
H1533 C1543 0.929 . S
H1534 C1538 0.929 . S
H1535 C1544 0.929 . S
C1536 H1530 0.930 . S
C1536 C1537 1.367 . S
C1536 C1544 1.378 . S
C1537 C1536 1.367 . S
C1537 C1545 1.433 . S
C1538 H1534 0.929 . S
C1538 C1540 1.378 . S
C1538 C1542 1.350 . S
C1539 C1542 1.463 . S
C1539 C1544 1.350 . S
C1539 N1547 1.427 . S
C1540 H1531 0.930 . S
C1540 C1538 1.378 . S
C1540 C1541 1.367 . S
C1541 C1540 1.367 . S
C1541 C1543 1.433 . S
C1542 C1538 1.350 . S
C1542 C1539 1.463 . S
C1542 N1546 1.427 . S
C1543 H1533 0.929 . S
C1543 C1541 1.433 . S
C1543 N1546 1.384 . S
C1544 H1535 0.929 . S
C1544 C1536 1.378 . S
C1544 C1539 1.350 . S
C1545 H1532 0.929 . S
C1545 C1537 1.433 . S
C1545 N1547 1.384 . S
N1546 C1542 1.427 . S
N1546 C1543 1.384 . S
N1547 C1539 1.427 . S
N1547 C1545 1.384 . S
H1548 C1554 0.930 . S
H1549 C1558 0.930 . S
H1550 C1563 0.929 . S
H1551 C1561 0.929 . S
H1552 C1556 0.929 . S
H1553 C1562 0.929 . S
C1554 H1548 0.930 . S
C1554 C1555 1.367 . S
C1554 C1562 1.378 . S
C1555 C1554 1.367 . S
C1555 C1563 1.433 . S
C1556 H1552 0.929 . S
C1556 C1558 1.378 . S
C1556 C1560 1.350 . S
C1557 C1560 1.463 . S
C1557 C1562 1.350 . S
C1557 N1565 1.427 . S
C1558 H1549 0.930 . S
C1558 C1556 1.378 . S
C1558 C1559 1.367 . S
C1559 C1558 1.367 . S
C1559 C1561 1.433 . S
C1560 C1556 1.350 . S
C1560 C1557 1.463 . S
C1560 N1564 1.427 . S
C1561 H1551 0.929 . S
C1561 C1559 1.433 . S
C1561 N1564 1.384 . S
C1562 H1553 0.929 . S
C1562 C1554 1.378 . S
C1562 C1557 1.350 . S
C1563 H1550 0.929 . S
C1563 C1555 1.433 . S
C1563 N1565 1.384 . S
N1564 C1560 1.427 . S
N1564 C1561 1.384 . S
N1565 C1557 1.427 . S
N1565 C1563 1.384 . S
H1566 C1572 0.930 . S
H1567 C1576 0.930 . S
H1568 C1581 0.929 . S
H1569 C1579 0.929 . S
H1570 C1574 0.929 . S
H1571 C1580 0.929 . S
C1572 H1566 0.930 . S
C1572 C1573 1.367 . S
C1572 C1580 1.378 . S
C1573 C1572 1.367 . S
C1573 C1581 1.433 . S
C1574 H1570 0.929 . S
C1574 C1576 1.378 . S
C1574 C1578 1.350 . S
C1575 C1578 1.463 . S
C1575 C1580 1.350 . S
C1575 N1583 1.427 . S
C1576 H1567 0.930 . S
C1576 C1574 1.378 . S
C1576 C1577 1.367 . S
C1577 C1576 1.367 . S
C1577 C1579 1.433 . S
C1578 C1574 1.350 . S
C1578 C1575 1.463 . S
C1578 N1582 1.427 . S
C1579 H1569 0.929 . S
C1579 C1577 1.433 . S
C1579 N1582 1.384 . S
C1580 H1571 0.929 . S
C1580 C1572 1.378 . S
C1580 C1575 1.350 . S
C1581 H1568 0.929 . S
C1581 C1573 1.433 . S
C1581 N1583 1.384 . S
N1582 C1578 1.427 . S
N1582 C1579 1.384 . S
N1583 C1575 1.427 . S
N1583 C1581 1.384 . S
H1584 C1590 0.930 . S
H1585 C1594 0.930 1_455 S
H1586 C1599 0.929 1_455 S
H1587 C1597 0.929 . S
H1588 C1592 0.929 1_455 S
H1589 C1598 0.929 . S
C1590 H1584 0.930 . S
C1590 C1591 1.367 . S
C1590 C1598 1.378 . S
C1591 C1590 1.367 . S
C1591 C1599 1.433 . S
C1592 H1588 0.929 1_655 S
C1592 C1594 1.378 . S
C1592 C1596 1.350 . S
C1593 C1596 1.463 . S
C1593 C1598 1.350 . S
C1593 N1601 1.427 . S
C1594 H1585 0.930 1_655 S
C1594 C1592 1.378 . S
C1594 C1595 1.367 . S
C1595 C1594 1.367 . S
C1595 C1597 1.433 . S
C1596 C1592 1.350 . S
C1596 C1593 1.463 . S
C1596 N1600 1.427 . S
C1597 H1587 0.929 . S
C1597 C1595 1.433 . S
C1597 N1600 1.384 . S
C1598 H1589 0.929 . S
C1598 C1590 1.378 . S
C1598 C1593 1.350 . S
C1599 H1586 0.929 1_655 S
C1599 C1591 1.433 . S
C1599 N1601 1.384 . S
N1600 C1596 1.427 . S
N1600 C1597 1.384 . S
N1601 C1593 1.427 . S
N1601 C1599 1.384 . S
H1602 C1608 0.930 . S
H1603 C1612 0.930 . S
H1604 C1617 0.929 . S
H1605 C1615 0.929 . S
H1606 C1610 0.929 . S
H1607 C1616 0.929 . S
C1608 H1602 0.930 . S
C1608 C1609 1.367 . S
C1608 C1616 1.378 . S
C1609 C1608 1.367 . S
C1609 C1617 1.433 . S
C1610 H1606 0.929 . S
C1610 C1612 1.378 . S
C1610 C1614 1.350 . S
C1611 C1614 1.463 . S
C1611 C1616 1.350 . S
C1611 N1619 1.427 . S
C1612 H1603 0.930 . S
C1612 C1610 1.378 . S
C1612 C1613 1.367 . S
C1613 C1612 1.367 . S
C1613 C1615 1.433 . S
C1614 C1610 1.350 . S
C1614 C1611 1.463 . S
C1614 N1618 1.427 . S
C1615 H1605 0.929 . S
C1615 C1613 1.433 . S
C1615 N1618 1.384 . S
C1616 H1607 0.929 . S
C1616 C1608 1.378 . S
C1616 C1611 1.350 . S
C1617 H1604 0.929 . S
C1617 C1609 1.433 . S
C1617 N1619 1.384 . S
N1618 C1614 1.427 . S
N1618 C1615 1.384 . S
N1619 C1611 1.427 . S
N1619 C1617 1.384 . S
H1620 C1626 0.930 . S
H1621 C1630 0.930 . S
H1622 C1635 0.929 . S
H1623 C1633 0.929 . S
H1624 C1628 0.929 . S
H1625 C1634 0.929 . S
C1626 H1620 0.930 . S
C1626 C1627 1.367 . S
C1626 C1634 1.378 . S
C1627 C1626 1.367 . S
C1627 C1635 1.433 . S
C1628 H1624 0.929 . S
C1628 C1630 1.378 . S
C1628 C1632 1.350 . S
C1629 C1632 1.463 . S
C1629 C1634 1.350 . S
C1629 N1637 1.427 . S
C1630 H1621 0.930 . S
C1630 C1628 1.378 . S
C1630 C1631 1.367 . S
C1631 C1630 1.367 . S
C1631 C1633 1.433 . S
C1632 C1628 1.350 . S
C1632 C1629 1.463 . S
C1632 N1636 1.427 . S
C1633 H1623 0.929 . S
C1633 C1631 1.433 . S
C1633 N1636 1.384 . S
C1634 H1625 0.929 . S
C1634 C1626 1.378 . S
C1634 C1629 1.350 . S
C1635 H1622 0.929 . S
C1635 C1627 1.433 . S
C1635 N1637 1.384 . S
N1636 C1632 1.427 . S
N1636 C1633 1.384 . S
N1637 C1629 1.427 . S
N1637 C1635 1.384 . S
H1638 C1644 0.930 . S
H1639 C1648 0.930 . S
H1640 C1653 0.929 . S
H1641 C1651 0.929 . S
H1642 C1646 0.929 . S
H1643 C1652 0.929 . S
C1644 H1638 0.930 . S
C1644 C1645 1.367 . S
C1644 C1652 1.378 . S
C1645 C1644 1.367 . S
C1645 C1653 1.433 . S
C1646 H1642 0.929 . S
C1646 C1648 1.378 . S
C1646 C1650 1.350 . S
C1647 C1650 1.463 . S
C1647 C1652 1.350 . S
C1647 N1655 1.427 . S
C1648 H1639 0.930 . S
C1648 C1646 1.378 . S
C1648 C1649 1.367 . S
C1649 C1648 1.367 . S
C1649 C1651 1.433 . S
C1650 C1646 1.350 . S
C1650 C1647 1.463 . S
C1650 N1654 1.427 . S
C1651 H1641 0.929 . S
C1651 C1649 1.433 . S
C1651 N1654 1.384 . S
C1652 H1643 0.929 . S
C1652 C1644 1.378 . S
C1652 C1647 1.350 . S
C1653 H1640 0.929 . S
C1653 C1645 1.433 . S
C1653 N1655 1.384 . S
N1654 C1650 1.427 . S
N1654 C1651 1.384 . S
N1655 C1647 1.427 . S
N1655 C1653 1.384 . S
H1656 C1662 0.930 . S
H1657 C1666 0.930 . S
H1658 C1671 0.929 . S
H1659 C1669 0.929 . S
H1660 C1664 0.929 . S
H1661 C1670 0.929 . S
C1662 H1656 0.930 . S
C1662 C1663 1.367 . S
C1662 C1670 1.378 . S
C1663 C1662 1.367 . S
C1663 C1671 1.433 . S
C1664 H1660 0.929 . S
C1664 C1666 1.378 . S
C1664 C1668 1.350 . S
C1665 C1668 1.463 . S
C1665 C1670 1.350 . S
C1665 N1673 1.427 . S
C1666 H1657 0.930 . S
C1666 C1664 1.378 . S
C1666 C1667 1.367 . S
C1667 C1666 1.367 . S
C1667 C1669 1.433 . S
C1668 C1664 1.350 . S
C1668 C1665 1.463 . S
C1668 N1672 1.427 . S
C1669 H1659 0.929 . S
C1669 C1667 1.433 . S
C1669 N1672 1.384 . S
C1670 H1661 0.929 . S
C1670 C1662 1.378 . S
C1670 C1665 1.350 . S
C1671 H1658 0.929 . S
C1671 C1663 1.433 . S
C1671 N1673 1.384 . S
N1672 C1668 1.427 . S
N1672 C1669 1.384 . S
N1673 C1665 1.427 . S
N1673 C1671 1.384 . S
H1674 C1680 0.930 . S
H1675 C1684 0.930 . S
H1676 C1689 0.929 . S
H1677 C1687 0.929 . S
H1678 C1682 0.929 . S
H1679 C1688 0.929 . S
C1680 H1674 0.930 . S
C1680 C1681 1.367 . S
C1680 C1688 1.378 . S
C1681 C1680 1.367 . S
C1681 C1689 1.433 . S
C1682 H1678 0.929 . S
C1682 C1684 1.378 . S
C1682 C1686 1.350 . S
C1683 C1686 1.463 . S
C1683 C1688 1.350 . S
C1683 N1691 1.427 . S
C1684 H1675 0.930 . S
C1684 C1682 1.378 . S
C1684 C1685 1.367 . S
C1685 C1684 1.367 . S
C1685 C1687 1.433 . S
C1686 C1682 1.350 . S
C1686 C1683 1.463 . S
C1686 N1690 1.427 . S
C1687 H1677 0.929 . S
C1687 C1685 1.433 . S
C1687 N1690 1.384 . S
C1688 H1679 0.929 . S
C1688 C1680 1.378 . S
C1688 C1683 1.350 . S
C1689 H1676 0.929 . S
C1689 C1681 1.433 . S
C1689 N1691 1.384 . S
N1690 C1686 1.427 . S
N1690 C1687 1.384 . S
N1691 C1683 1.427 . S
N1691 C1689 1.384 . S
H1692 C1698 0.930 . S
H1693 C1702 0.930 . S
H1694 C1707 0.929 . S
H1695 C1705 0.929 . S
H1696 C1700 0.929 . S
H1697 C1706 0.929 . S
C1698 H1692 0.930 . S
C1698 C1699 1.367 . S
C1698 C1706 1.378 . S
C1699 C1698 1.367 . S
C1699 C1707 1.433 . S
C1700 H1696 0.929 . S
C1700 C1702 1.378 . S
C1700 C1704 1.350 . S
C1701 C1704 1.463 . S
C1701 C1706 1.350 . S
C1701 N1709 1.427 . S
C1702 H1693 0.930 . S
C1702 C1700 1.378 . S
C1702 C1703 1.367 . S
C1703 C1702 1.367 . S
C1703 C1705 1.433 . S
C1704 C1700 1.350 . S
C1704 C1701 1.463 . S
C1704 N1708 1.427 . S
C1705 H1695 0.929 . S
C1705 C1703 1.433 . S
C1705 N1708 1.384 . S
C1706 H1697 0.929 . S
C1706 C1698 1.378 . S
C1706 C1701 1.350 . S
C1707 H1694 0.929 . S
C1707 C1699 1.433 . S
C1707 N1709 1.384 . S
N1708 C1704 1.427 . S
N1708 C1705 1.384 . S
N1709 C1701 1.427 . S
N1709 C1707 1.384 . S
H1710 C1716 0.930 . S
H1711 C1720 0.930 . S
H1712 C1725 0.929 . S
H1713 C1723 0.929 . S
H1714 C1718 0.929 . S
H1715 C1724 0.929 . S
C1716 H1710 0.930 . S
C1716 C1717 1.367 . S
C1716 C1724 1.378 . S
C1717 C1716 1.367 . S
C1717 C1725 1.433 . S
C1718 H1714 0.929 . S
C1718 C1720 1.378 . S
C1718 C1722 1.350 . S
C1719 C1722 1.463 . S
C1719 C1724 1.350 . S
C1719 N1727 1.427 . S
C1720 H1711 0.930 . S
C1720 C1718 1.378 . S
C1720 C1721 1.367 . S
C1721 C1720 1.367 . S
C1721 C1723 1.433 . S
C1722 C1718 1.350 . S
C1722 C1719 1.463 . S
C1722 N1726 1.427 . S
C1723 H1713 0.929 . S
C1723 C1721 1.433 . S
C1723 N1726 1.384 . S
C1724 H1715 0.929 . S
C1724 C1716 1.378 . S
C1724 C1719 1.350 . S
C1725 H1712 0.929 . S
C1725 C1717 1.433 . S
C1725 N1727 1.384 . S
N1726 C1722 1.427 . S
N1726 C1723 1.384 . S
N1727 C1719 1.427 . S
N1727 C1725 1.384 . S
H1728 C1734 0.930 . S
H1729 C1738 0.930 . S
H1730 C1743 0.929 . S
H1731 C1741 0.929 . S
H1732 C1736 0.929 . S
H1733 C1742 0.929 . S
C1734 H1728 0.930 . S
C1734 C1735 1.367 . S
C1734 C1742 1.378 . S
C1735 C1734 1.367 . S
C1735 C1743 1.433 . S
C1736 H1732 0.929 . S
C1736 C1738 1.378 . S
C1736 C1740 1.350 . S
C1737 C1740 1.463 . S
C1737 C1742 1.350 . S
C1737 N1745 1.427 . S
C1738 H1729 0.930 . S
C1738 C1736 1.378 . S
C1738 C1739 1.367 . S
C1739 C1738 1.367 . S
C1739 C1741 1.433 . S
C1740 C1736 1.350 . S
C1740 C1737 1.463 . S
C1740 N1744 1.427 . S
C1741 H1731 0.929 . S
C1741 C1739 1.433 . S
C1741 N1744 1.384 . S
C1742 H1733 0.929 . S
C1742 C1734 1.378 . S
C1742 C1737 1.350 . S
C1743 H1730 0.929 . S
C1743 C1735 1.433 . S
C1743 N1745 1.384 . S
N1744 C1740 1.427 . S
N1744 C1741 1.384 . S
N1745 C1737 1.427 . S
N1745 C1743 1.384 . S
H1746 C1752 0.930 . S
H1747 C1756 0.930 . S
H1748 C1761 0.929 . S
H1749 C1759 0.929 . S
H1750 C1754 0.929 . S
H1751 C1760 0.929 . S
C1752 H1746 0.930 . S
C1752 C1753 1.367 . S
C1752 C1760 1.378 . S
C1753 C1752 1.367 . S
C1753 C1761 1.433 . S
C1754 H1750 0.929 . S
C1754 C1756 1.378 . S
C1754 C1758 1.350 . S
C1755 C1758 1.463 . S
C1755 C1760 1.350 . S
C1755 N1763 1.427 . S
C1756 H1747 0.930 . S
C1756 C1754 1.378 . S
C1756 C1757 1.367 . S
C1757 C1756 1.367 . S
C1757 C1759 1.433 . S
C1758 C1754 1.350 . S
C1758 C1755 1.463 . S
C1758 N1762 1.427 . S
C1759 H1749 0.929 . S
C1759 C1757 1.433 . S
C1759 N1762 1.384 . S
C1760 H1751 0.929 . S
C1760 C1752 1.378 . S
C1760 C1755 1.350 . S
C1761 H1748 0.929 . S
C1761 C1753 1.433 . S
C1761 N1763 1.384 . S
N1762 C1758 1.427 . S
N1762 C1759 1.384 . S
N1763 C1755 1.427 . S
N1763 C1761 1.384 . S
C475 C4 1.902 . S
C479 C153 1.904 . S
C493 C127 1.903 . S
C497 C17 1.904 . S
C511 C134 1.905 . S
C515 C30 1.902 . S
C529 C49 1.903 . S
C533 C95 1.903 . S
C547 C56 1.902 . S
C551 C108 1.905 . S
C565 C69 1.905 . S
C569 C88 1.902 . S
C583 C160 1.903 . S
C587 C303 1.904 . S
C601 C277 1.902 . S
C605 C173 1.904 . S
C619 C186 1.904 . S
C623 C290 1.902 . S
C637 C205 1.903 . S
C641 C257 1.904 . S
C655 C218 1.903 . S
C659 C264 1.903 . S
C673 C225 1.901 . S
C677 C244 1.905 . S
C691 C316 1.902 . S
C695 C465 1.904 . S
C709 C329 1.902 . S
C713 C433 1.904 . S
C727 C452 1.902 . S
C731 C342 1.905 . S
C745 C361 1.904 . S
C749 C413 1.902 . S
C763 C420 1.901 . S
C767 C368 1.905 . S
C781 C400 1.905 . S
C785 C381 1.901 . S
C799 C3 1.278 . S
C803 C200 1.277 . S
C817 C16 1.271 . S
C821 C213 1.269 . S
C835 C29 1.278 . S
C839 C224 1.275 . S
C853 C44 1.278 . S
C857 C315 1.278 . S
C871 C328 1.271 . S
C875 C55 1.269 . S
C889 C341 1.274 . S
C893 C68 1.269 . S
C907 C83 1.270 . S
C911 C432 1.274 . S
C925 C447 1.278 . S
C929 C94 1.276 . S
C943 C107 1.274 . S
C947 C460 1.278 . S
C961 C122 1.273 . S
C965 C239 1.269 . S
C979 C133 1.278 . S
C983 C252 1.275 . S
C997 C148 1.272 . S
C1001 C263 1.277 . S
C1015 C356 1.278 . S
C1019 C159 1.278 . S
C1033 C172 1.275 . S
C1037 C367 1.278 1_545 S
C1051 C185 1.274 1_455 S
C1055 C380 1.278 . S
C1069 C395 1.274 . S
C1073 C276 1.278 . S
C1087 C408 1.278 1_545 S
C1091 C289 1.276 . S
C1105 C302 1.278 1_455 S
C1109 C419 1.274 . S
C1123 C10 1.383 . S
C1127 C62 1.387 . S
C1141 C75 1.385 . S
C1145 C23 1.384 . S
C1159 C43 1.384 . S
C1163 C36 1.391 . S
C1177 C82 1.384 . S
C1181 C140 1.391 . S
C1195 C147 1.390 . S
C1199 C101 1.383 . S
C1213 C114 1.383 . S
C1217 C121 1.386 . S
C1231 C212 1.391 . S
C1235 C166 1.384 . S
C1249 C179 1.390 . S
C1253 C231 1.383 . S
C1267 C192 1.388 . S
C1271 C199 1.383 . S
C1285 C296 1.386 . S
C1289 C238 1.383 . S
C1303 C309 1.390 . S
C1307 C251 1.383 . S
C1321 C283 1.383 . S
C1325 C270 1.387 . S
C1339 C322 1.384 . S
C1343 C374 1.385 . S
C1357 C335 1.390 . S
C1361 C387 1.383 . S
C1375 C348 1.385 . S
C1379 C355 1.391 . S
C1393 C446 1.391 . S
C1397 C394 1.386 . S
C1411 C459 1.383 . S
C1415 C407 1.390 . S
C1429 C439 1.390 . S
C1433 C426 1.387 . S
C1447 C120 1.509 . S
C1451 C5 1.511 . S
C1465 C135 1.511 . S
C1469 C18 1.508 . S
C1483 C31 1.511 . S
C1487 C146 1.508 . S
C1501 C42 1.512 . S
C1505 C81 1.508 . S
C1519 C96 1.511 . S
C1523 C57 1.508 . S
C1537 C70 1.511 . S
C1541 C109 1.508 . S
C1555 C278 1.509 . S
C1559 C161 1.510 . S
C1573 C291 1.508 . S
C1577 C174 1.511 . S
C1591 C187 1.508 . S
C1595 C304 1.511 . S
C1609 C237 1.509 . S
C1613 C198 1.510 . S
C1627 C250 1.508 . S
C1631 C211 1.511 . S
C1645 C265 1.511 . S
C1649 C226 1.509 . S
C1663 C317 1.511 . S
C1667 C434 1.508 . S
C1681 C445 1.511 . S
C1685 C330 1.508 . S
C1699 C343 1.508 . S
C1703 C458 1.512 . S
C1717 C354 1.512 . S
C1721 C393 1.508 . S
C1735 C369 1.510 . S
C1739 C406 1.509 . S
C1753 C421 1.509 . S
C1757 C382 1.510 . S
