# Generated by pormake.
# Topology umj, (4)-cn, num edge types: 1
# Building blocks:
#     Node 0, Type 0, BuildingBlock: ESEHIV_clean_sbu_0, # of connection points: 4
#     Node 1, Type 0, BuildingBlock: ESEHIV_clean_sbu_0, # of connection points: 4
#     Node 2, Type 0, BuildingBlock: ESEHIV_clean_sbu_0, # of connection points: 4
#     Node 3, Type 0, BuildingBlock: ESEHIV_clean_sbu_0, # of connection points: 4
#     Node 4, Type 0, BuildingBlock: ESEHIV_clean_sbu_0, # of connection points: 4
#     Node 5, Type 0, BuildingBlock: ESEHIV_clean_sbu_0, # of connection points: 4
#     Node 6, Type 0, BuildingBlock: ESEHIV_clean_sbu_0, # of connection points: 4
#     Node 7, Type 0, BuildingBlock: ESEHIV_clean_sbu_0, # of connection points: 4
#     Node 8, Type 0, BuildingBlock: ESEHIV_clean_sbu_0, # of connection points: 4
#     Node 9, Type 0, BuildingBlock: ESEHIV_clean_sbu_0, # of connection points: 4
#     Node 10, Type 0, BuildingBlock: ESEHIV_clean_sbu_0, # of connection points: 4
#     Node 11, Type 0, BuildingBlock: ESEHIV_clean_sbu_0, # of connection points: 4
#     Edge 12, Type (0, 0), BuildingBlock: XUDNAN_clean_linker_2, # of connection points: 2
#     Edge 13, Type (0, 0), BuildingBlock: XUDNAN_clean_linker_2, # of connection points: 2
#     Edge 14, Type (0, 0), BuildingBlock: XUDNAN_clean_linker_2, # of connection points: 2
#     Edge 15, Type (0, 0), BuildingBlock: XUDNAN_clean_linker_2, # of connection points: 2
#     Edge 16, Type (0, 0), BuildingBlock: XUDNAN_clean_linker_2, # of connection points: 2
#     Edge 17, Type (0, 0), BuildingBlock: XUDNAN_clean_linker_2, # of connection points: 2
#     Edge 18, Type (0, 0), BuildingBlock: XUDNAN_clean_linker_2, # of connection points: 2
#     Edge 19, Type (0, 0), BuildingBlock: XUDNAN_clean_linker_2, # of connection points: 2
#     Edge 20, Type (0, 0), BuildingBlock: XUDNAN_clean_linker_2, # of connection points: 2
#     Edge 21, Type (0, 0), BuildingBlock: XUDNAN_clean_linker_2, # of connection points: 2
#     Edge 22, Type (0, 0), BuildingBlock: XUDNAN_clean_linker_2, # of connection points: 2
#     Edge 23, Type (0, 0), BuildingBlock: XUDNAN_clean_linker_2, # of connection points: 2
#     Edge 24, Type (0, 0), BuildingBlock: XUDNAN_clean_linker_2, # of connection points: 2
#     Edge 25, Type (0, 0), BuildingBlock: XUDNAN_clean_linker_2, # of connection points: 2
#     Edge 26, Type (0, 0), BuildingBlock: XUDNAN_clean_linker_2, # of connection points: 2
#     Edge 27, Type (0, 0), BuildingBlock: XUDNAN_clean_linker_2, # of connection points: 2
#     Edge 28, Type (0, 0), BuildingBlock: XUDNAN_clean_linker_2, # of connection points: 2
#     Edge 29, Type (0, 0), BuildingBlock: XUDNAN_clean_linker_2, # of connection points: 2
#     Edge 30, Type (0, 0), BuildingBlock: XUDNAN_clean_linker_2, # of connection points: 2
#     Edge 31, Type (0, 0), BuildingBlock: XUDNAN_clean_linker_2, # of connection points: 2
#     Edge 32, Type (0, 0), BuildingBlock: XUDNAN_clean_linker_2, # of connection points: 2
#     Edge 33, Type (0, 0), BuildingBlock: XUDNAN_clean_linker_2, # of connection points: 2
#     Edge 34, Type (0, 0), BuildingBlock: XUDNAN_clean_linker_2, # of connection points: 2
#     Edge 35, Type (0, 0), BuildingBlock: XUDNAN_clean_linker_2, # of connection points: 2
# Relax obj value: 0.040
# Max RMSD: 0.098
# Mean RMSD: 0.085
data_MOF--net-umj--node1-ESEHIV_clean_sbu_0--edge1-XUDNAN_clean_linker_2
_symmetry_space_group_name_H-M    P1
_symmetry_Int_Tables_number       1
_symmetry_cell_setting            triclinic
loop_
_symmetry_equiv_pos_as_xyz
'x, y, z'
_cell_length_a     29.876632
_cell_length_b     34.783229
_cell_length_c     89.879732
_cell_angle_alpha  90.101321
_cell_angle_beta   89.772147
_cell_angle_gamma 115.11295
loop_
_atom_site_label
_atom_site_type_symbol
_atom_site_fract_x
_atom_site_fract_y
_atom_site_fract_z
_atom_type_partial_charge
Cu0 Cu 0.03927 0.27818 0.08757 0.0
N1 N 1.00846 0.21919 0.08318 0.0
N2 N 0.99976 0.15161 0.08166 0.0
C3 C 0.01964 0.18875 0.08931 0.0
C4 C 0.97446 0.15889 0.07043 0.0
C5 C 0.97983 0.20034 0.07139 0.0
O6 O 0.09532 0.30486 0.07362 0.0
C7 C 0.05029 0.31229 0.11717 0.0
O8 O 0.05018 0.3457 0.11044 0.0
H9 H 0.04497 0.19475 0.09852 0.0
H10 H 0.96629 0.21636 0.06352 0.0
N11 N 0.99833 0.30626 0.08363 0.0
N12 N 0.97502 0.35931 0.07996 0.0
C13 C 1.01335 0.34822 0.08072 0.0
C14 C 0.94884 0.29025 0.08462 0.0
C15 C 0.93442 0.32262 0.08233 0.0
C16 C 0.10941 0.28314 0.06484 0.0
O17 O 0.09539 0.24261 0.06753 0.0
H18 H 0.0518 0.37033 0.07956 0.0
H19 H 0.925 0.25756 0.08729 0.0
O20 O 0.05194 0.28237 0.10926 0.0
H21 H 0.95459 0.13626 0.06185 0.0
H22 H 0.89684 0.31948 0.08294 0.0
Cu23 Cu 0.79129 0.07076 0.41795 0.0
N24 N 0.79924 0.09523 0.43702 0.0
N25 N 0.80089 0.09988 0.46196 0.0
C26 C 0.7945 0.07433 0.45003 0.0
C27 C 0.81009 0.13837 0.45617 0.0
C28 C 0.8089 0.13538 0.44085 0.0
O29 O 0.7192 0.03979 0.41381 0.0
C30 C 0.85958 0.03515 0.40852 0.0
O31 O 0.8528 0.04442 0.3948 0.0
H32 H 0.78654 0.04098 0.45069 0.0
H33 H 0.81382 0.16054 0.43306 0.0
N34 N 0.81797 0.11184 0.4028 0.0
N35 N 0.83463 0.14035 0.37982 0.0
C36 C 0.80531 0.10665 0.38826 0.0
C37 C 0.85659 0.15013 0.40364 0.0
C38 C 0.86675 0.16781 0.38959 0.0
C39 C 0.68659 0.04552 0.4217 0.0
O40 O 0.70051 0.06832 0.43387 0.0
H41 H 0.77648 0.07776 0.38393 0.0
H42 H 0.87695 0.16376 0.41369 0.0
O43 O 0.83268 0.03915 0.41896 0.0
H44 H 0.81617 0.16658 0.46255 0.0
H45 H 0.89611 0.1984 0.38685 0.0
Cu46 Cu 0.7448 0.77166 0.76873 0.0
N47 N 0.81459 0.79942 0.767 0.0
N48 N 0.8913 0.85271 0.76688 0.0
C49 C 0.84211 0.84206 0.76729 0.0
C50 C 0.89461 0.81514 0.76624 0.0
C51 C 0.8475 0.78252 0.7663 0.0
O52 O 0.71931 0.79868 0.75377 0.0
C53 C 0.7452 0.75538 0.7988 0.0
O54 O 0.7625 0.72965 0.79303 0.0
H55 H 0.82629 0.86477 0.76831 0.0
H56 H 0.83795 0.74884 0.76614 0.0
N57 N 0.71465 0.71258 0.76417 0.0
N58 N 0.6553 0.64537 0.76284 0.0
C59 C 0.6718 0.68327 0.77001 0.0
C60 C 0.72557 0.69235 0.75293 0.0
C61 C 0.68925 0.65115 0.75209 0.0
C62 C 0.73969 0.80369 0.74091 0.0
O63 O 0.77535 0.79157 0.73894 0.0
H64 H 0.6519 0.69024 0.77892 0.0
H65 H 0.7568 0.70696 0.74549 0.0
O66 O 0.73225 0.77763 0.78994 0.0
H67 H 0.92874 0.81137 0.76587 0.0
H68 H 0.68776 0.6274 0.74406 0.0
Cu69 Cu 0.99342 0.75908 0.08495 0.0
N70 N 0.02931 0.81722 0.07979 0.0
N71 N 0.04279 0.88607 0.07872 0.0
C72 C 0.0236 0.84955 0.08668 0.0
C73 C 0.06195 0.87644 0.06638 0.0
C74 C 0.05367 0.83413 0.06708 0.0
O75 O 0.93492 0.73613 0.07189 0.0
C76 C 0.02654 0.77612 0.11346 0.0
O77 O 0.06689 0.79145 0.10529 0.0
H78 H 1.00201 0.84535 0.09675 0.0
H79 H 0.06159 0.81625 0.05842 0.0
N80 N 0.02428 0.72237 0.081 0.0
N81 N 0.02878 0.65952 0.07834 0.0
C82 C 0.99893 0.67969 0.07998 0.0
C83 C 0.07219 0.72965 0.07996 0.0
C84 C 0.07506 0.69105 0.07835 0.0
C85 C 0.92308 0.75936 0.06319 0.0
O86 O 0.94019 0.80021 0.06587 0.0
H87 H 0.95908 0.66369 0.08088 0.0
H88 H 0.10291 0.76068 0.08059 0.0
O89 O 0.98501 0.75812 0.10677 0.0
H90 H 0.07908 0.89796 0.05724 0.0
H91 H 0.10868 0.68667 0.07722 0.0
Cu92 Cu 0.24289 0.96767 0.41892 0.0
N93 N 0.22817 0.94586 0.43841 0.0
N94 N 0.22656 0.94233 0.4634 0.0
C95 C 0.24783 0.96633 0.45127 0.0
C96 C 0.19201 0.9056 0.45789 0.0
C97 C 0.19286 0.90798 0.44257 0.0
O98 O 0.31615 0.99703 0.41765 0.0
C99 C 0.15759 0.98062 0.41294 0.0
O100 O 0.1398 0.93969 0.41032 0.0
H101 H 0.277 0.99824 0.4517 0.0
H102 H 0.16848 0.88413 0.43502 0.0
N103 N 0.2223 0.92388 0.40447 0.0
N104 N 0.20131 0.89064 0.38239 0.0
C105 C 0.21289 0.92732 0.38993 0.0
C106 C 0.21661 0.8836 0.40611 0.0
C107 C 0.20334 0.86299 0.39259 0.0
C108 C 0.33961 1.00018 0.40544 0.0
O109 O 0.31465 0.99124 0.39295 0.0
H110 H 0.21481 0.95633 0.38498 0.0
H111 H 0.22276 0.87033 0.41636 0.0
O112 O 0.20335 1.00078 0.41639 0.0
H113 H 0.16677 0.8792 0.46446 0.0
H114 H 0.19723 0.83056 0.39033 0.0
Cu115 Cu 0.27231 0.24937 0.76891 0.0
N116 N 0.20549 0.21429 0.76384 0.0
N117 N 0.13757 0.15168 0.76312 0.0
C118 C 0.17873 0.1769 0.77076 0.0
C119 C 0.13774 0.17493 0.75107 0.0
C120 C 0.17965 0.21322 0.75148 0.0
O121 O 0.31337 0.22956 0.75666 0.0
C122 C 0.30506 0.25766 0.80068 0.0
O123 O 0.35182 0.27281 0.79677 0.0
H124 H 0.19164 0.16709 0.78064 0.0
H125 H 0.19224 0.23684 0.74276 0.0
N126 N 0.29676 0.30788 0.76386 0.0
N127 N 0.35329 0.3762 0.76224 0.0
C128 C 0.33501 0.34021 0.77055 0.0
C129 C 0.29074 0.32426 0.75086 0.0
C130 C 0.32519 0.36614 0.74986 0.0
C131 C 0.29576 0.19482 0.74929 0.0
O132 O 0.25292 0.16473 0.75323 0.0
H133 H 0.35159 0.33653 0.7808 0.0
H134 H 0.26542 0.30626 0.74222 0.0
O135 O 0.27162 0.24543 0.79072 0.0
H136 H 0.11176 0.16375 0.74196 0.0
H137 H 0.33021 0.38709 0.74049 0.0
Cu138 Cu 0.73984 0.9719 0.60763 0.0
N139 N 0.72971 0.96172 0.58709 0.0
N140 N 0.73824 0.97798 0.56269 0.0
C141 C 0.74417 0.99295 0.57682 0.0
C142 C 0.71873 0.93528 0.56423 0.0
C143 C 0.71374 0.92539 0.57925 0.0
O144 O 0.70382 1.00712 0.61232 0.0
C145 C 0.84435 1.00853 0.61955 0.0
O146 O 0.83164 0.02061 0.6321 0.0
H147 H 0.75977 0.02619 0.57982 0.0
H148 H 0.70112 0.89405 0.58407 0.0
N149 N 0.71021 0.92208 0.61911 0.0
N150 N 0.68813 0.88285 0.63996 0.0
C151 C 0.72382 0.91634 0.63297 0.0
C152 C 0.66479 0.89061 0.61718 0.0
C153 C 0.65113 0.86641 0.62998 0.0
C154 C 0.67879 1.00209 0.62433 0.0
O155 O 0.68819 0.98254 0.63553 0.0
H156 H 0.75699 0.93876 0.63836 0.0
H157 H 0.64168 0.88749 0.60761 0.0
O158 O 0.81226 0.99207 0.60932 0.0
H159 H 0.71048 0.91271 0.5552 0.0
H160 H 0.61567 0.84006 0.63204 0.0
Cu161 Cu 0.78221 0.7651 0.93942 0.0
N162 N 0.80025 0.82234 0.94483 0.0
N163 N 0.84742 0.89266 0.94728 0.0
C164 C 0.84594 0.8546 0.94319 0.0
C165 C 0.80073 0.88365 0.95177 0.0
C166 C 0.77193 0.84055 0.95026 0.0
O167 O 0.82608 0.75005 0.95192 0.0
C168 C 0.78336 0.74055 0.90763 0.0
O169 O 0.77609 0.70196 0.91152 0.0
H170 H 0.8771 0.85036 0.9386 0.0
H171 H 0.73289 0.82384 0.9527 0.0
N172 N 0.71609 0.72731 0.94453 0.0
N173 N 0.6466 0.6661 0.94611 0.0
C174 C 0.68671 0.69025 0.93775 0.0
C175 C 0.69333 0.72654 0.95756 0.0
C176 C 0.65074 0.68918 0.95854 0.0
C177 C 0.81201 0.71467 0.95875 0.0
O178 O 0.77238 0.68206 0.95413 0.0
H179 H 0.69628 0.67981 0.92739 0.0
H180 H 0.70822 0.75034 0.96617 0.0
O181 O 0.78946 0.76837 0.91763 0.0
H182 H 0.78797 0.9066 0.95582 0.0
H183 H 0.62553 0.67932 0.96791 0.0
Cu184 Cu 0.04 0.76806 0.25405 0.0
N185 N 0.99591 0.79365 0.25676 0.0
N186 N 0.97118 0.8463 0.25911 0.0
C187 C 1.01008 0.83596 0.25846 0.0
C188 C 0.931 0.80879 0.25769 0.0
C189 C 0.94628 0.77662 0.25617 0.0
O190 O 0.09116 0.79561 0.26914 0.0
C191 C 0.02758 0.76045 0.22341 0.0
O192 O 0.98328 0.73418 0.22799 0.0
H193 H 0.04838 0.85873 0.25912 0.0
H194 H 0.92281 0.7434 0.25432 0.0
N195 N 1.0142 0.70814 0.25696 0.0
N196 N 1.0128 0.64262 0.25816 0.0
C197 C 0.03944 0.6842 0.25459 0.0
C198 C 0.96989 0.6807 0.26222 0.0
C199 C 0.96888 0.64057 0.26294 0.0
C200 C 0.07805 0.78415 0.28257 0.0
O201 O 0.03389 0.7536 0.28499 0.0
H202 H 0.07691 0.6974 0.25036 0.0
H203 H 0.94065 0.68928 0.26567 0.0
O204 O 0.06087 0.77918 0.23317 0.0
H205 H 0.89309 0.80482 0.25732 0.0
H206 H 0.93844 0.61237 0.2671 0.0
Cu207 Cu 0.2918 0.06428 0.61004 0.0
N208 N 0.29559 0.07501 0.58936 0.0
N209 N 0.28862 0.05968 0.56485 0.0
C210 C 0.29204 0.04622 0.57879 0.0
C211 C 0.29035 0.09884 0.56686 0.0
C212 C 0.29433 0.10803 0.58192 0.0
O213 O 0.33409 0.03461 0.61437 0.0
C214 C 0.19549 0.05642 0.61728 0.0
O215 O 0.21965 0.09782 0.61843 0.0
H216 H 0.29062 0.01543 0.58145 0.0
H217 H 0.29391 0.13597 0.58709 0.0
N218 N 0.31815 0.11307 0.62213 0.0
N219 N 0.33911 0.15196 0.64311 0.0
C220 C 0.31426 0.11287 0.63712 0.0
C221 C 0.34669 0.15366 0.61845 0.0
C222 C 0.35952 0.17768 0.63132 0.0
C223 C 0.37779 0.05028 0.60877 0.0
O224 O 0.39044 0.08283 0.59971 0.0
H225 H 0.29446 0.08423 0.6435 0.0
H226 H 0.35808 0.16493 0.60725 0.0
O227 O 0.21984 0.03448 0.61438 0.0
H228 H 0.28663 0.1188 0.55819 0.0
H229 H 0.38212 0.21154 0.63188 0.0
Cu230 Cu 0.24887 0.28029 0.93939 0.0
N231 N 0.22159 0.2206 0.94212 0.0
N232 N 0.15933 0.15451 0.94341 0.0
C233 C 0.17233 0.19698 0.94352 0.0
C234 C 0.20291 0.15157 0.942 0.0
C235 C 0.24103 0.19217 0.94115 0.0
O236 O 0.21086 0.29728 0.95373 0.0
C237 C 0.27098 0.28106 0.9094 0.0
O238 O 0.3048 0.27124 0.91539 0.0
H239 H 0.14655 0.21124 0.94422 0.0
H240 H 0.27981 0.20023 0.93936 0.0
N241 N 0.31654 0.31266 0.94417 0.0
N242 N 0.38827 0.37181 0.94559 0.0
C243 C 0.34626 0.3502 0.93776 0.0
C244 C 0.34084 0.31038 0.95647 0.0
C245 C 0.38493 0.34659 0.95735 0.0
C246 C 0.22751 0.33217 0.96095 0.0
O247 O 0.26828 0.36388 0.95641 0.0
H248 H 0.33539 0.36291 0.92815 0.0
H249 H 0.32612 0.28549 0.96472 0.0
O250 O 0.24107 0.28807 0.91803 0.0
H251 H 0.20713 0.12227 0.94106 0.0
H252 H 0.41166 0.35431 0.96625 0.0
Cu253 Cu 0.9919 0.24891 0.25507 0.0
N254 N 0.02102 0.20991 0.25707 0.0
N255 N 0.02463 0.1465 0.25905 0.0
C256 C 0.99524 0.16738 0.25864 0.0
C257 C 0.07102 0.1774 0.25765 0.0
C258 C 0.0687 0.21624 0.25644 0.0
O259 O 0.94359 0.23432 0.27138 0.0
C260 C 0.98853 0.23548 0.2236 0.0
O261 O 0.01681 0.21625 0.22669 0.0
H262 H 0.95538 0.15192 0.25901 0.0
H263 H 0.09964 0.24677 0.25487 0.0
N264 N 0.03419 0.30684 0.25855 0.0
N265 N 0.05938 0.37782 0.2601 0.0
C266 C 0.02294 0.34012 0.25583 0.0
C267 C 0.07906 0.32405 0.26492 0.0
C268 C 0.0947 0.36752 0.26581 0.0
C269 C 0.90288 0.20154 0.273 0.0
O270 O 0.88437 0.17561 0.26172 0.0
H271 H 0.9886 0.33666 0.25078 0.0
H272 H 0.0987 0.30627 0.26893 0.0
O273 O 0.96959 0.24802 0.23433 0.0
H274 H 0.10443 0.17248 0.25752 0.0
H275 H 0.12912 0.3897 0.27065 0.0
H276 H 1.01281 0.20431 0.1982 0.0
H277 H 0.96328 0.29827 0.21349 0.0
H278 H 0.97411 0.32778 0.18801 0.0
H279 H 0.1058 0.27043 0.17372 0.0
H280 H 0.09483 0.23075 0.15955 0.0
H281 H 0.08021 0.21499 0.17868 0.0
H282 H 0.98996 0.16604 0.17147 0.0
H283 H 1.00448 0.18114 0.15226 0.0
H284 H 0.95415 0.18773 0.16126 0.0
H285 H 0.998 0.35126 0.16146 0.0
H286 H 0.02253 0.3618 0.1351 0.0
H287 H 0.05348 0.25062 0.13638 0.0
C288 C 1.00332 0.23062 0.19615 0.0
C289 C 0.98697 0.24887 0.20792 0.0
C290 C 0.97529 0.2834 0.20471 0.0
C291 C 0.98172 0.30059 0.19027 0.0
C292 C 0.99929 0.28261 0.17907 0.0
C293 C 1.00901 0.24785 0.18177 0.0
C294 C 0.0278 0.23469 0.16778 0.0
C295 C 0.08028 0.23792 0.17008 0.0
C296 C 0.99195 0.18973 0.1629 0.0
C297 C 0.02789 0.26789 0.1568 0.0
C298 C 1.01166 0.29538 0.16362 0.0
C299 C 1.01016 0.3296 0.15599 0.0
C300 C 0.02458 0.33544 0.14097 0.0
C301 C 0.03999 0.30705 0.13352 0.0
C302 C 0.04184 0.27289 0.14167 0.0
H303 H 0.74678 0.02234 0.47487 0.0
H304 H 0.84917 0.15223 0.4847 0.0
H305 H 0.84402 0.13476 0.5114 0.0
H306 H 0.66936 1.00734 0.50714 0.0
H307 H 0.65881 0.95289 0.51005 0.0
H308 H 0.67097 0.97513 0.49159 0.0
H309 H 0.74418 0.95433 0.4889 0.0
H310 H 0.73219 0.93197 0.50735 0.0
H311 H 0.79261 0.97221 0.50263 0.0
H312 H 0.82839 0.10361 0.53703 0.0
H313 H 0.80295 0.06143 0.55991 0.0
H314 H 0.70867 0.95116 0.53405 0.0
C315 C 0.76848 0.047 0.48262 0.0
C316 C 0.79838 0.08883 0.47759 0.0
C317 C 0.82556 0.1202 0.4882 0.0
C318 C 0.82308 0.1105 0.50343 0.0
C319 C 0.79311 0.0692 0.508 0.0
C320 C 0.7662 0.03789 0.49794 0.0
C321 C 0.73624 0.9962 0.50592 0.0
C322 C 0.68054 0.98207 0.50353 0.0
C323 C 0.75228 0.96164 0.5009 0.0
C324 C 0.75062 1.00902 0.52201 0.0
C325 C 0.78354 0.05126 0.52289 0.0
C326 C 0.80239 0.07053 0.53647 0.0
C327 C 0.78726 0.04614 0.5495 0.0
C328 C 0.75322 1.00266 0.54904 0.0
C329 C 0.73486 0.98407 0.53497 0.0
H330 H 0.75071 0.70023 0.81957 0.0
H331 H 0.74106 0.82072 0.81546 0.0
H332 H 0.75047 0.83037 0.84281 0.0
H333 H 0.68223 0.668 0.85449 0.0
H334 H 0.72008 0.64303 0.8613 0.0
H335 H 0.71091 0.64549 0.84159 0.0
H336 H 0.80576 0.68238 0.83767 0.0
H337 H 0.81524 0.6805 0.85738 0.0
H338 H 0.84187 0.73057 0.84768 0.0
H339 H 0.76651 0.82844 0.87066 0.0
H340 H 0.7796 0.81263 0.8966 0.0
H341 H 0.77616 0.69198 0.8825 0.0
C342 C 0.75008 0.72854 0.8244 0.0
C343 C 0.74517 0.75981 0.81531 0.0
C344 C 0.74441 0.79622 0.82215 0.0
C345 C 0.75003 0.80204 0.83769 0.0
C346 C 0.75584 0.77094 0.84626 0.0
C347 C 0.75514 0.7346 0.83984 0.0
C348 C 0.76192 0.70583 0.85145 0.0
C349 C 0.71605 0.66306 0.85226 0.0
C350 C 0.809 0.69946 0.84835 0.0
C351 C 0.76718 0.7318 0.86545 0.0
C352 C 0.76385 0.76937 0.86221 0.0
C353 C 0.76875 0.79896 0.87329 0.0
C354 C 0.77646 0.7897 0.88803 0.0
C355 C 0.77892 0.75096 0.89172 0.0
C356 C 0.77442 0.72183 0.88015 0.0
H357 H 0.96033 0.73132 0.13614 0.0
H358 H 0.10603 0.83278 0.12818 0.0
H359 H 0.12172 0.8399 0.15504 0.0
H360 H 0.93487 0.77633 0.17049 0.0
H361 H 0.904 0.72544 0.17947 0.0
H362 H 0.90271 0.72921 0.1595 0.0
H363 H 0.93899 0.6738 0.15706 0.0
H364 H 0.94074 0.67013 0.17702 0.0
H365 H 0.9963 0.68328 0.16623 0.0
H366 H 0.12434 0.83471 0.18274 0.0
H367 H 0.11111 0.81903 0.20965 0.0
H368 H 0.96427 0.72142 0.20029 0.0
C369 C 0.99516 0.75538 0.14009 0.0
C370 C 0.0319 0.78139 0.12994 0.0
C371 C 0.07727 0.81219 0.13562 0.0
C372 C 0.08667 0.81662 0.15092 0.0
C373 C 0.05042 0.79006 0.16061 0.0
C374 C 1.00541 0.7602 0.15549 0.0
C375 C 0.97348 0.73521 0.16844 0.0
C376 C 0.92595 0.74197 0.16954 0.0
C377 C 0.96169 0.6878 0.1671 0.0
C378 C 1.00772 0.75562 0.1815 0.0
C379 C 0.05194 0.78717 0.17671 0.0
C380 C 0.08972 0.81016 0.18665 0.0
C381 C 0.08198 0.80096 0.20193 0.0
C382 C 0.03675 0.76906 0.20717 0.0
C383 C 0.99932 0.7461 0.19672 0.0
H384 H 0.29773 0.08994 0.53611 0.0
H385 H 0.25937 0.97416 0.56168 0.0
H386 H 0.24338 0.93328 0.53853 0.0
H387 H 0.20384 0.04367 0.50837 0.0
H388 H 0.2418 0.07431 0.49319 0.0
H389 H 0.25282 0.09552 0.5118 0.0
H390 H 0.34388 0.10625 0.50996 0.0
H391 H 0.3331 0.08498 0.49135 0.0
H392 H 0.35723 0.06176 0.50529 0.0
H393 H 0.2285 0.90365 0.51273 0.0
H394 H 0.21552 0.88752 0.48598 0.0
H395 H 0.26141 0.02122 0.47647 0.0
C396 C 0.28597 0.05603 0.53693 0.0
C397 C 0.28028 0.03577 0.55101 0.0
C398 C 0.26499 0.99113 0.55128 0.0
C399 C 0.25547 0.96733 0.53809 0.0
C400 C 0.26124 0.98825 0.52453 0.0
C401 C 0.27613 0.03158 0.52381 0.0
C402 C 0.27828 0.0459 0.50771 0.0
C403 C 0.24202 0.06604 0.50512 0.0
C404 C 0.33128 0.07654 0.50332 0.0
C405 C 0.26187 1.00376 0.49955 0.0
C406 C 0.25239 0.97101 0.50952 0.0
C407 C 0.23582 0.92906 0.50482 0.0
C408 C 0.22827 0.92017 0.48956 0.0
C409 C 0.23714 0.95293 0.47902 0.0
C410 C 0.25473 0.99544 0.48416 0.0
H411 H 0.36274 0.2728 0.82603 0.0
H412 H 0.21425 0.24627 0.81133 0.0
H413 H 0.1903 0.25272 0.83716 0.0
H414 H 0.32517 0.21307 0.86033 0.0
H415 H 0.37718 0.24991 0.87074 0.0
H416 H 0.38286 0.2441 0.851 0.0
H417 H 0.41082 0.32498 0.84757 0.0
H418 H 0.40475 0.33094 0.86729 0.0
H419 H 0.37195 0.34915 0.85437 0.0
H420 H 0.18276 0.2642 0.86489 0.0
H421 H 0.19063 0.2723 0.89232 0.0
H422 H 0.34242 0.28823 0.88904 0.0
C423 C 0.32515 0.26823 0.82824 0.0
C424 C 0.29054 0.2591 0.81653 0.0
C425 C 0.24161 0.25316 0.82002 0.0
C426 C 0.22761 0.25699 0.83469 0.0
C427 C 0.26269 0.26643 0.84593 0.0
C428 C 0.31029 0.27142 0.8429 0.0
C429 C 0.34039 0.27999 0.85709 0.0
C430 C 0.35738 0.24466 0.85996 0.0
C431 C 0.38459 0.32387 0.85654 0.0
C432 C 0.30234 0.279 0.86852 0.0
C433 C 0.25788 0.27166 0.86186 0.0
C434 C 0.21741 0.2698 0.87022 0.0
C435 C 0.22224 0.27468 0.88579 0.0
C436 C 0.26701 0.28081 0.89287 0.0
C437 C 0.30757 0.28342 0.88401 0.0
H438 H 0.11569 0.23832 0.04051 0.0
H439 H 0.1535 0.36691 0.05561 0.0
H440 H 0.18536 0.39381 0.03038 0.0
H441 H 0.21916 0.26152 0.0158 0.0
H442 H 0.18287 0.22299 1.00215 0.0
H443 H 0.1655 0.21492 0.02149 0.0
H444 H 0.07823 0.20816 0.01474 0.0
H445 H 0.09557 0.21679 0.99539 0.0
H446 H 0.07216 0.2505 1.00469 0.0
H447 H 0.21463 0.40618 1.00315 0.0
H448 H 0.23792 0.4029 0.97686 0.0
H449 H 0.17504 0.26551 0.97956 0.0
C450 C 0.13127 0.27227 0.03864 0.0
C451 C 0.13266 0.30057 0.05018 0.0
C452 C 0.15245 0.34462 0.04704 0.0
C453 C 0.17045 0.36014 0.03271 0.0
C454 C 0.16777 0.33117 0.02156 0.0
C455 C 0.14852 0.28812 0.0244 0.0
C456 C 0.14844 0.2633 1.0105 0.0
C457 C 0.18094 0.23928 0.01262 0.0
C458 C 0.09545 0.2329 1.00607 0.0
C459 C 0.17109 0.29905 0.99934 0.0
C460 C 0.18225 0.33803 1.00591 0.0
C461 C 0.20554 0.37576 0.99791 0.0
C462 C 0.2185 0.37359 0.98295 0.0
C463 C 0.20761 0.33396 0.97603 0.0
C464 C 0.18286 0.29628 0.98436 0.0
H465 H 0.90773 0.19691 0.36193 0.0
H466 H 0.75985 0.09442 0.36068 0.0
H467 H 0.75968 0.10066 0.33338 0.0
H468 H 0.88885 0.26006 0.33248 0.0
H469 H 0.9506 0.27711 0.32518 0.0
H470 H 0.93876 0.26503 0.34468 0.0
H471 H 0.97697 0.21084 0.34271 0.0
H472 H 0.98897 0.22279 0.32322 0.0
H473 H 0.95317 0.16879 0.32914 0.0
H474 H 0.77726 0.11621 0.30571 0.0
H475 H 0.81089 0.14027 0.28049 0.0
H476 H 0.94544 0.23454 0.29998 0.0
C477 C 0.87487 0.17601 0.35606 0.0
C478 C 0.83382 0.14497 0.36373 0.0
C479 C 0.79215 0.1181 0.35528 0.0
C480 C 0.79153 0.12159 0.33968 0.0
C481 C 0.83267 0.15233 0.33256 0.0
C482 C 0.87348 0.17921 0.3405 0.0
C483 C 0.91334 0.20916 0.33018 0.0
C484 C 0.92347 0.25559 0.33332 0.0
C485 C 0.96091 0.20247 0.33139 0.0
C486 C 0.88881 0.19473 0.31516 0.0
C487 C 0.84228 0.16188 0.31675 0.0
C488 C 0.81347 0.1422 0.30438 0.0
C489 C 0.83288 0.15612 0.29007 0.0
C490 C 0.88061 0.18964 0.28816 0.0
C491 C 0.90849 0.20935 0.30097 0.0
H492 H 0.79422 0.84227 0.71647 0.0
H493 H 0.6474 0.80094 0.73539 0.0
H494 H 0.61841 0.81903 0.71168 0.0
H495 H 0.79249 0.93143 0.69468 0.0
H496 H 0.8272 0.92291 0.67959 0.0
H497 H 0.83638 0.90966 0.69836 0.0
H498 H 0.81692 0.83298 0.68991 0.0
H499 H 0.80708 0.84579 0.67117 0.0
H500 H 0.7592 0.80195 0.68071 0.0
H501 H 0.60425 0.83493 0.68474 0.0
H502 H 0.60753 0.8536 0.65811 0.0
H503 H 0.76469 0.88684 0.65723 0.0
C504 C 0.75609 0.83766 0.71574 0.0
C505 C 0.72299 0.82016 0.72781 0.0
C506 C 0.67348 0.81466 0.72637 0.0
C507 C 0.6567 0.82464 0.7129 0.0
C508 C 0.69012 0.84073 0.70108 0.0
C509 C 0.73905 0.84793 0.70251 0.0
C510 C 0.76752 0.86474 0.68814 0.0
C511 C 0.80831 0.90987 0.69033 0.0
C512 C 0.78892 0.83455 0.68214 0.0
C513 C 0.72678 0.86492 0.6782 0.0
C514 C 0.68236 0.85088 0.68584 0.0
C515 C 0.63899 0.84638 0.67875 0.0
C516 C 0.64114 0.85672 0.66356 0.0
C517 C 0.68638 0.87168 0.65554 0.0
C518 C 0.72972 0.87596 0.66308 0.0
H519 H 0.9163 0.80549 0.03927 0.0
H520 H 0.88004 0.67631 0.05333 0.0
H521 H 0.8508 0.65089 0.02785 0.0
H522 H 0.81392 0.7816 0.01394 0.0
H523 H 0.85062 0.82152 1.0007 0.0
H524 H 0.86604 0.82856 0.02017 0.0
H525 H 0.95478 0.838 0.01382 0.0
H526 H 0.93937 0.8303 0.99435 0.0
H527 H 0.96339 0.79705 1.00356 0.0
H528 H 0.8255 0.63993 1.00046 0.0
H529 H 0.80431 0.64412 0.97411 0.0
H530 H 0.86168 0.78108 0.97786 0.0
C531 C 0.9015 0.77171 0.03712 0.0
C532 C 0.90001 0.74285 0.04844 0.0
C533 C 0.88116 0.69904 0.04494 0.0
C534 C 0.8647 0.68434 0.03046 0.0
C535 C 0.86774 0.71385 0.01951 0.0
C536 C 0.88558 0.75662 0.02272 0.0
C537 C 0.88608 0.78205 1.00895 0.0
C538 C 0.85214 0.80476 1.01107 0.0
C539 C 0.93906 0.81372 1.00494 0.0
C540 C 0.86548 0.74693 0.99747 0.0
C541 C 0.85501 0.70778 1.00376 0.0
C542 C 0.83392 0.67049 0.99543 0.0
C543 C 0.8222 0.6732 0.98043 0.0
C544 C 0.83198 0.71294 0.97379 0.0
C545 C 0.85475 0.75027 0.98245 0.0
H546 H 0.06976 0.7547 0.31102 0.0
H547 H 0.1541 0.86484 0.2838 0.0
H548 H 0.19649 0.90431 0.30644 0.0
H549 H 0.04988 0.80898 0.3415 0.0
H550 H 0.05617 0.77437 0.35541 0.0
H551 H 0.03509 0.75437 0.33704 0.0
H552 H 0.10578 0.73032 0.33437 0.0
H553 H 0.12683 0.74986 0.35281 0.0
H554 H 0.16883 0.76828 0.33725 0.0
H555 H 0.22425 0.93337 0.3328 0.0
H556 H 0.24036 0.94703 0.35975 0.0
H557 H 0.1392 0.81673 0.36928 0.0
C558 C 0.09766 0.78696 0.30975 0.0
C559 C 0.10865 0.80667 0.29559 0.0
C560 C 0.14538 0.84894 0.29448 0.0
C561 C 0.16941 0.87165 0.3073 0.0
C562 C 0.15675 0.85147 0.32114 0.0
C563 C 0.12222 0.80979 0.32236 0.0
C564 C 0.11455 0.79525 0.33845 0.0
C565 C 0.06074 0.7825 0.34338 0.0
C566 C 0.12993 0.75877 0.34086 0.0
C567 C 0.14958 0.83541 0.3462 0.0
C568 C 0.17346 0.86763 0.33607 0.0
C569 C 0.20605 0.90816 0.34076 0.0
C570 C 0.21471 0.91575 0.35611 0.0
C571 C 0.19124 0.88293 0.36665 0.0
C572 C 0.15829 0.84229 0.36152 0.0
H573 H 0.27661 0.10971 0.66592 0.0
H574 H 0.41216 0.22095 0.65609 0.0
H575 H 0.41928 0.24167 0.68253 0.0
H576 H 0.22915 0.15886 0.69234 0.0
H577 H 0.20294 0.11309 0.70432 0.0
H578 H 0.2098 0.10627 0.68472 0.0
H579 H 0.26051 0.06347 0.69059 0.0
H580 H 0.254 0.07037 0.71023 0.0
H581 H 0.31465 0.08684 0.70214 0.0
H582 H 0.4096 0.25208 0.71024 0.0
H583 H 0.38235 0.25189 0.7363 0.0
H584 H 0.25482 0.13276 0.7281 0.0
C585 C 0.30824 0.13811 0.6693 0.0
C586 C 0.34379 0.16359 0.65875 0.0
C587 C 0.38401 0.20099 0.66378 0.0
C588 C 0.38864 0.21292 0.67886 0.0
C589 C 0.3529 0.18713 0.68892 0.0
C590 C 0.31346 0.15048 0.68433 0.0
C591 C 0.27911 0.12908 0.69726 0.0
C592 C 0.22719 0.12671 0.69449 0.0
C593 C 0.27696 0.08482 0.70023 0.0
C594 C 0.30506 0.15961 0.70981 0.0
C595 C 0.34769 0.19284 0.70482 0.0
C596 C 0.37652 0.22594 0.71428 0.0
C597 C 0.36084 0.2255 0.72911 0.0
C598 C 0.3167 0.19214 0.73441 0.0
C599 C 0.28918 0.15847 0.72458 0.0
H600 H 0.0818 0.61391 0.08572 0.0
H601 H 0.94142 0.60077 0.06773 0.0
H602 H 0.9141 0.52348 0.06577 0.0
H603 H 0.09358 0.53205 0.06271 0.0
H604 H 0.12 0.51294 0.07734 0.0
H605 H 0.12947 0.56768 0.07716 0.0
H606 H 0.09335 0.5594 0.1038 0.0
H607 H 0.08381 0.50467 0.10406 0.0
H608 H 0.03271 0.51808 0.10759 0.0
H609 H 0.90086 0.44721 0.06591 0.0
H610 H 0.90211 0.37724 0.06849 0.0
H611 H 0.05053 0.43745 0.08652 0.0
C612 C 0.0455 0.59488 0.08123 0.0
C613 C 1.01378 0.61396 0.07694 0.0
C614 C 0.9663 0.58738 0.07131 0.0
C615 C 0.95049 0.54324 0.07005 0.0
C616 C 0.98237 0.52555 0.07446 0.0
C617 C 0.0289 0.55043 0.07995 0.0
C618 C 0.05529 0.52289 0.08417 0.0
C619 C 0.10238 0.5346 0.07478 0.0
C620 C 0.06697 0.52648 0.1009 0.0
C621 C 0.01629 0.47875 0.08021 0.0
C622 C 0.9746 0.48122 0.0746 0.0
C623 C 0.93332 0.44495 0.07032 0.0
C624 C 0.9343 0.40513 0.07191 0.0
C625 C 0.97622 0.40125 0.07778 0.0
C626 C 0.018 0.43896 0.08186 0.0
H627 H 0.60741 0.04262 0.4381 0.0
H628 H 0.6478 0.0192 0.3937 0.0
H629 H 0.56407 1.00601 0.38484 0.0
H630 H 0.47922 0.96216 0.43706 0.0
H631 H 0.4564 0.99433 0.44758 0.0
H632 H 0.51857 1.00003 0.45042 0.0
H633 H 0.55198 0.08042 0.44481 0.0
H634 H 0.49 0.0749 0.44176 0.0
H635 H 0.53632 0.09758 0.42747 0.0
H636 H 0.47762 1.00052 0.38051 0.0
H637 H 0.393 0.99545 0.38134 0.0
H638 H 0.407 0.02021 0.42886 0.0
C639 C 0.59856 0.03415 0.42653 0.0
C640 C 0.63448 0.03188 0.41659 0.0
C641 C 0.62107 0.02078 0.40156 0.0
C642 C 0.57362 1.01352 0.39642 0.0
C643 C 0.53965 0.01708 0.40645 0.0
C644 C 0.5513 0.02649 0.42125 0.0
C645 C 0.50816 0.02849 0.42976 0.0
C646 C 0.48948 0.9942 0.44193 0.0
C647 C 0.52249 0.07299 0.43633 0.0
C648 C 0.47038 0.01913 0.41741 0.0
C649 C 0.48953 1.01296 0.40404 0.0
C650 C 0.46225 1.00493 0.39096 0.0
C651 C 0.41405 1.00234 0.39156 0.0
C652 C 0.39278 1.00738 0.40517 0.0
C653 C 0.42183 0.01619 0.41826 0.0
H654 H 0.41962 0.42999 0.74214 0.0
H655 H 0.38582 0.41231 0.78926 0.0
H656 H 0.45867 0.47975 0.79458 0.0
H657 H 0.55219 0.47282 0.74618 0.0
H658 H 0.56492 0.50975 0.73098 0.0
H659 H 0.50947 0.46087 0.73089 0.0
H660 H 0.45667 0.50321 0.72798 0.0
H661 H 0.51196 0.55222 0.72806 0.0
H662 H 0.46323 0.54413 0.74127 0.0
H663 H 0.53495 0.55142 0.79462 0.0
H664 H 0.61048 0.61711 0.78956 0.0
H665 H 0.59719 0.58658 0.74255 0.0
C666 C 0.42725 0.44043 0.75358 0.0
C667 C 0.39642 0.41571 0.76529 0.0
C668 C 0.40869 0.43038 0.78011 0.0
C669 C 0.44999 0.46884 0.78322 0.0
C670 C 0.47946 0.49241 0.77143 0.0
C671 C 0.46886 0.47848 0.7569 0.0
C672 C 0.50735 0.509 0.74629 0.0
C673 C 0.53512 0.48678 0.7381 0.0
C674 C 0.48336 0.52828 0.73525 0.0
C675 C 0.54115 0.5424 0.75707 0.0
C676 C 0.52415 0.53249 0.77151 0.0
C677 C 0.54858 0.55922 0.78334 0.0
C678 C 0.59143 0.59667 0.78036 0.0
C679 C 0.61026 0.60719 0.76569 0.0
C680 C 0.5844 0.57938 0.75393 0.0
H681 H 0.46329 0.06281 0.59379 0.0
H682 H 0.38083 1.00629 0.63396 0.0
H683 H 0.44994 0.99033 0.64249 0.0
H684 H 0.51692 0.98652 0.589 0.0
H685 H 0.57479 0.0259 0.58197 0.0
H686 H 0.51856 0.03204 0.57904 0.0
H687 H 0.55832 0.10622 0.59139 0.0
H688 H 0.61444 0.10009 0.59455 0.0
H689 H 0.583 0.11137 0.60994 0.0
H690 H 0.53073 0.98493 0.64733 0.0
H691 H 0.61129 0.98162 0.64694 0.0
H692 H 0.64078 0.03841 0.60291 0.0
C693 C 0.45947 0.04667 0.60433 0.0
C694 C 0.41637 0.03583 0.61322 0.0
C695 C 0.41306 1.01464 0.6269 0.0
C696 C 0.45239 1.00574 0.63187 0.0
C697 C 0.49468 0.0177 0.62297 0.0
C698 C 0.49807 0.037 0.60935 0.0
C699 C 0.54719 0.04585 0.60177 0.0
C700 C 0.53885 0.0211 0.58708 0.0
C701 C 0.57752 0.09373 0.59927 0.0
C702 C 0.57132 0.02893 0.61333 0.0
C703 C 0.54049 1.01325 0.62552 0.0
C704 C 0.55484 0.99678 0.63777 0.0
C705 C 0.6011 0.99529 0.63745 0.0
C706 C 0.63297 1.00972 0.62489 0.0
C707 C 0.61771 0.0272 0.61272 0.0
H708 H 0.44467 0.43137 0.96597 0.0
H709 H 0.41801 0.40974 0.91865 0.0
H710 H 0.48171 0.48234 0.91355 0.0
H711 H 0.46227 0.54038 0.96569 0.0
H712 H 0.50991 0.55731 0.97966 0.0
H713 H 0.46331 0.50333 0.97954 0.0
H714 H 0.53144 0.47597 0.97835 0.0
H715 H 0.57826 0.52986 0.97849 0.0
H716 H 0.57712 0.49438 0.96371 0.0
H717 H 0.55041 0.55806 0.91364 0.0
H718 H 0.61404 0.6305 0.91897 0.0
H719 H 0.59448 0.60371 0.96625 0.0
C720 C 0.45251 0.44168 0.95452 0.0
C721 C 0.42619 0.4144 0.94269 0.0
C722 C 0.43723 0.42984 0.92791 0.0
C723 C 0.47362 0.47108 0.9249 0.0
C724 C 0.49873 0.4971 0.9368 0.0
C725 C 0.48838 0.48304 0.95133 0.0
C726 C 0.51967 0.5177 0.96213 0.0
C727 C 0.48682 0.53042 0.97236 0.0
C728 C 0.55364 0.50363 0.9712 0.0
C729 C 0.54933 0.55341 0.95144 0.0
C730 C 0.53699 0.54081 0.93686 0.0
C731 C 0.56013 0.56817 0.92503 0.0
C732 C 0.5965 0.60932 0.92816 0.0
C733 C 0.60943 0.62332 0.94302 0.0
C734 C 0.58522 0.59458 0.95476 0.0
H735 H 0.95454 0.55613 0.25869 0.0
H736 H 0.10744 0.64978 0.25677 0.0
H737 H 0.13474 0.59232 0.25636 0.0
H738 H 0.9754 0.48308 0.28306 0.0
H739 H 0.93097 0.43613 0.27405 0.0
H740 H 0.9228 0.48455 0.27376 0.0
H741 H 0.91886 0.48161 0.245 0.0
H742 H 0.92711 0.43321 0.2452 0.0
H743 H 0.96879 0.47822 0.23461 0.0
H744 H 0.14644 0.52466 0.25678 0.0
H745 H 0.14155 0.45224 0.25779 0.0
H746 H 0.98149 0.40071 0.25976 0.0
C747 C 0.99381 0.5648 0.25823 0.0
C748 C 0.02862 0.60822 0.2577 0.0
C749 C 0.07963 0.61734 0.25697 0.0
C750 C 0.09568 0.58469 0.25681 0.0
C751 C 0.06052 0.54256 0.25738 0.0
C752 C 1.0106 0.53245 0.25806 0.0
C753 C 0.98062 0.4844 0.25871 0.0
C754 C 0.95068 0.47127 0.27326 0.0
C755 C 0.94684 0.46843 0.24507 0.0
C756 C 0.02149 0.46913 0.25837 0.0
C757 C 0.06727 0.50336 0.25761 0.0
C758 C 0.11074 0.49769 0.25739 0.0
C759 C 0.10755 0.45621 0.25806 0.0
C760 C 0.06122 0.42028 0.25894 0.0
C761 C 0.01755 0.42716 0.25897 0.0
H762 H 1.0037 0.09555 0.06079 0.0
H763 H 1.01383 0.12102 0.10818 0.0
H764 H 0.02643 0.05606 0.1126 0.0
H765 H 0.93874 0.98144 0.06302 0.0
H766 H 0.9719 0.97197 0.0477 0.0
H767 H 0.9632 0.02012 0.04833 0.0
H768 H 0.05781 0.06457 0.0462 0.0
H769 H 0.0668 0.01655 0.0456 0.0
H770 H 0.09809 0.0564 0.05945 0.0
H771 H 0.03506 0.98611 0.11188 0.0
H772 H 0.04369 0.92002 0.10598 0.0
H773 H 0.03144 0.94127 0.05897 0.0
C774 C 1.0082 0.08735 0.07211 0.0
C775 C 1.00741 0.11353 0.08417 0.0
C776 C 1.01447 0.10181 0.09877 0.0
C777 C 0.02147 0.06478 0.10138 0.0
C778 C 0.02197 0.03973 0.08927 0.0
C779 C 0.01592 0.05074 0.0749 0.0
C780 C 0.01907 0.01887 0.0638 0.0
C781 C 0.97033 0.9968 0.05521 0.0
C782 C 0.06306 0.04039 0.05313 0.0
C783 C 0.02746 0.98801 0.07415 0.0
C784 C 0.02866 1.00047 0.08882 0.0
C785 C 0.03447 0.97633 0.10041 0.0
C786 C 0.03919 0.93868 0.09697 0.0
C787 C 0.03867 0.92539 0.08202 0.0
C788 C 0.03287 0.95075 0.07049 0.0
H789 H 0.90669 0.99743 0.39133 0.0
H790 H 0.91575 0.05994 0.43372 0.0
H791 H 0.99639 0.0583 0.43855 0.0
H792 H 0.95845 0.92621 0.40501 0.0
H793 H 0.99013 0.92737 0.38779 0.0
H794 H 0.93404 0.93478 0.38765 0.0
H795 H 0.98003 1.00601 0.37368 0.0
H796 H 0.0365 0.99917 0.37404 0.0
H797 H 0.03508 0.04659 0.38168 0.0
H798 H 0.07986 0.05376 0.43795 0.0
H799 H 0.14993 0.03412 0.43427 0.0
H800 H 0.08268 0.96868 0.39355 0.0
C801 C 0.92545 1.0104 0.40169 0.0
C802 C 0.90475 0.02884 0.41215 0.0
C803 C 0.93049 0.0453 0.42559 0.0
C804 C 0.97666 0.0449 0.42837 0.0
C805 C 0.99649 0.02721 0.41772 0.0
C806 C 0.97102 1.00923 0.40483 0.0
C807 C 0.99901 0.98991 0.3956 0.0
C808 C 0.9686 0.94171 0.39392 0.0
C809 C 1.0135 1.01173 0.38035 0.0
C810 C 0.04428 1.00003 0.40525 0.0
C811 C 0.04275 0.0224 0.41781 0.0
C812 C 0.08116 0.036 0.42819 0.0
C813 C 0.12115 0.02515 0.42595 0.0
C814 C 0.122 1.00022 0.41358 0.0
C815 C 0.08323 0.98807 0.40305 0.0
H816 H 0.04151 0.10487 0.754 0.0
H817 H 0.16251 0.09517 0.77778 0.0
H818 H 0.11187 0.01894 0.78156 0.0
H819 H 0.9425 0.02885 0.77703 0.0
H820 H 0.90079 1.00646 0.76168 0.0
H821 H 0.94597 0.06097 0.76096 0.0
H822 H 0.9798 0.04615 0.73611 0.0
H823 H 0.93477 0.9916 0.73676 0.0
H824 H 0.99961 1.00393 0.73517 0.0
H825 H 0.05005 0.94286 0.78205 0.0
H826 H 0.97967 0.87256 0.7801 0.0
H827 H 0.89597 0.92876 0.7564 0.0
C828 C 0.05731 0.08674 0.76003 0.0
C829 C 0.10631 0.10678 0.7657 0.0
C830 C 0.12514 0.08147 0.77356 0.0
C831 C 0.09663 0.03775 0.77568 0.0
C832 C 0.04884 0.01915 0.76997 0.0
C833 C 0.02903 0.04276 0.76237 0.0
C834 C 0.97643 1.01443 0.7574 0.0
C835 C 0.93922 0.02853 0.76471 0.0
C836 C 0.97243 1.01401 0.74035 0.0
C837 C 0.97008 0.9713 0.7633 0.0
C838 C 1.01256 0.97495 0.77045 0.0
C839 C 0.01656 0.9397 0.77652 0.0
C840 C 0.97634 0.89969 0.77527 0.0
C841 C 0.93203 0.89472 0.76808 0.0
C842 C 0.92899 0.93136 0.7621 0.0
H843 H 0.93255 0.05972 0.63358 0.0
H844 H 0.86973 0.95774 0.60142 0.0
H845 H 0.95053 0.95489 0.59886 0.0
H846 H 0.04915 0.11299 0.61445 0.0
H847 H 0.08499 0.12943 0.63127 0.0
H848 H 0.02146 0.12167 0.63123 0.0
H849 H 1.00272 0.06867 0.65312 0.0
H850 H 0.06615 0.07596 0.65311 0.0
H851 H 0.01693 0.02344 0.65123 0.0
H852 H 0.03905 0.96206 0.60013 0.0
H853 H 0.12955 0.98559 0.60255 0.0
H854 H 0.13654 0.08602 0.63239 0.0
C855 C 0.93578 0.03672 0.62604 0.0
C856 C 0.89439 1.00882 0.61776 0.0
C857 C 0.90064 0.97959 0.60787 0.0
C858 C 0.94646 0.9775 0.6064 0.0
C859 C 0.9864 1.00522 0.61474 0.0
C860 C 0.98174 0.03479 0.62419 0.0
C861 C 0.03128 0.0627 0.63116 0.0
C862 C 0.04768 0.10946 0.62676 0.0
C863 C 0.02912 0.05736 0.64817 0.0
C864 C 0.06441 0.04438 0.62413 0.0
C865 C 0.03766 1.01067 0.61491 0.0
C866 C 0.06032 0.98852 0.6073 0.0
C867 C 0.11175 1.00186 0.60882 0.0
C868 C 0.14029 0.03755 0.61767 0.0
C869 C 0.11584 0.05856 0.62555 0.0
H870 H 0.94745 0.91395 0.94905 0.0
H871 H 0.84138 0.96739 0.9428 0.0
H872 H 0.90938 0.03894 0.94124 0.0
H873 H 0.03255 0.99982 0.97189 0.0
H874 H 0.0875 0.99869 0.96397 0.0
H875 H 0.03066 0.95098 0.96446 0.0
H876 H 0.03599 0.94268 0.93598 0.0
H877 H 0.09286 0.99036 0.93541 0.0
H878 H 0.04157 0.98584 0.9239 0.0
H879 H 0.98813 0.10499 0.94009 0.0
H880 H 0.07209 0.16149 0.93975 0.0
H881 H 0.13071 0.06811 0.94729 0.0
C882 C 0.93858 0.94068 0.94726 0.0
C883 C 0.88849 0.93461 0.94614 0.0
C884 C 0.8789 0.9708 0.94394 0.0
C885 C 0.91749 1.01177 0.94294 0.0
C886 C 0.9661 0.01667 0.9442 0.0
C887 C 0.97698 0.98224 0.94634 0.0
C888 C 0.0328 0.99697 0.94753 0.0
C889 C 0.04669 0.98596 0.96288 0.0
C890 C 0.05193 0.97782 0.93495 0.0
C891 C 0.05138 0.0449 0.94564 0.0
C892 C 1.01204 0.05531 0.94372 0.0
C893 C 0.01923 0.0972 0.94167 0.0
C894 C 0.06766 0.12941 0.94159 0.0
C895 C 0.10931 0.12023 0.94361 0.0
C896 C 0.10045 0.07692 0.94565 0.0
H897 H 0.04544 0.924 0.25143 0.0
H898 H 0.89807 0.86454 0.27055 0.0
H899 H 0.89659 0.93456 0.27274 0.0
H900 H 0.08943 0.01943 0.27443 0.0
H901 H 0.1246 0.05416 0.25964 0.0
H902 H 0.11479 0.99934 0.25972 0.0
H903 H 0.0771 0.98949 0.23333 0.0
H904 H 0.08675 0.04425 0.23318 0.0
H905 H 0.02585 1.00275 0.23 0.0
H906 H 0.91021 1.01111 0.27276 0.0
H907 H 0.93774 0.08829 0.27055 0.0
H908 H 0.07636 0.09997 0.25118 0.0
C909 C 1.01304 0.92567 0.25621 0.0
C910 C 0.97169 0.88817 0.26075 0.0
C911 C 0.92993 0.89225 0.26677 0.0
C912 C 0.92883 0.9321 0.26815 0.0
C913 C 0.96981 0.96817 0.26348 0.0
C914 C 1.01121 0.96544 0.25763 0.0
C915 C 0.04991 1.00934 0.25325 0.0
C916 C 0.0975 0.02126 0.2623 0.0
C917 C 0.06052 1.01157 0.23644 0.0
C918 C 0.02372 0.03703 0.25751 0.0
C919 C 0.97758 1.01251 0.26342 0.0
C920 C 0.94624 0.03057 0.2681 0.0
C921 C 0.9622 0.07469 0.26669 0.0
C922 C 1.00925 0.1009 0.26058 0.0
C923 C 0.04037 0.08138 0.25601 0.0
loop_
_geom_bond_atom_site_label_1
_geom_bond_atom_site_label_2
_geom_bond_distance
_geom_bond_site_symmetry_2
_ccdc_geom_bond_type
Cu0 N1 1.999 . S
Cu0 O6 1.974 1_655 S
Cu0 N11 1.985 . S
Cu0 O20 1.959 . S
N1 Cu0 1.999 . S
N1 C3 1.263 . S
N1 C5 1.389 . S
N2 C3 1.358 . S
N2 C4 1.400 . S
C3 N1 1.263 . S
C3 N2 1.358 . S
C3 H9 0.930 1_655 S
C4 N2 1.400 . S
C4 C5 1.351 . S
C4 H21 0.930 . S
C5 N1 1.389 . S
C5 C4 1.351 . S
C5 H10 0.930 . S
O6 Cu0 1.974 1_455 S
O6 C16 1.282 . S
C7 O8 1.261 1_655 S
C7 O20 1.251 . S
O8 C7 1.261 1_455 S
H9 C3 0.930 1_455 S
H10 C5 0.930 . S
N11 Cu0 1.985 . S
N11 C13 1.335 . S
N11 C14 1.390 1_655 S
N12 C13 1.345 . S
N12 C15 1.336 1_655 S
C13 N11 1.335 . S
C13 N12 1.345 . S
C13 H18 0.930 . S
C14 N11 1.390 1_455 S
C14 C15 1.346 . S
C14 H19 0.930 . S
C15 N12 1.336 1_455 S
C15 C14 1.346 . S
C15 H22 0.929 . S
C16 O6 1.282 . S
C16 O17 1.216 . S
O17 C16 1.216 . S
H18 C13 0.930 . S
H19 C14 0.930 . S
O20 Cu0 1.959 . S
O20 C7 1.251 . S
H21 C4 0.930 . S
H22 C15 0.929 . S
Cu23 N24 1.999 . S
Cu23 O29 1.974 . S
Cu23 N34 1.985 . S
Cu23 O43 1.959 . S
N24 Cu23 1.999 . S
N24 C26 1.263 . S
N24 C28 1.389 . S
N25 C26 1.358 . S
N25 C27 1.400 . S
C26 N24 1.263 . S
C26 N25 1.358 . S
C26 H32 0.930 . S
C27 N25 1.400 . S
C27 C28 1.351 . S
C27 H44 0.930 . S
C28 N24 1.389 . S
C28 C27 1.351 . S
C28 H33 0.930 . S
O29 Cu23 1.974 . S
O29 C39 1.282 . S
C30 O31 1.261 1_545 S
C30 O43 1.251 . S
O31 C30 1.261 1_565 S
H32 C26 0.930 . S
H33 C28 0.930 . S
N34 Cu23 1.985 . S
N34 C36 1.335 . S
N34 C37 1.390 . S
N35 C36 1.345 . S
N35 C38 1.336 . S
C36 N34 1.335 . S
C36 N35 1.345 . S
C36 H41 0.930 . S
C37 N34 1.390 . S
C37 C38 1.346 . S
C37 H42 0.930 . S
C38 N35 1.336 . S
C38 C37 1.346 . S
C38 H45 0.929 . S
C39 O29 1.282 . S
C39 O40 1.216 1_545 S
O40 C39 1.216 1_565 S
H41 C36 0.930 . S
H42 C37 0.930 . S
O43 Cu23 1.959 . S
O43 C30 1.251 . S
H44 C27 0.930 . S
H45 C38 0.929 . S
Cu46 N47 1.999 . S
Cu46 O52 1.974 . S
Cu46 N57 1.985 . S
Cu46 O66 1.959 . S
N47 Cu46 1.999 . S
N47 C49 1.263 . S
N47 C51 1.389 . S
N48 C49 1.358 . S
N48 C50 1.400 . S
C49 N47 1.263 . S
C49 N48 1.358 . S
C49 H55 0.930 . S
C50 N48 1.400 . S
C50 C51 1.351 . S
C50 H67 0.930 . S
C51 N47 1.389 . S
C51 C50 1.351 . S
C51 H56 0.930 . S
O52 Cu46 1.974 . S
O52 C62 1.282 . S
C53 O54 1.261 . S
C53 O66 1.251 . S
O54 C53 1.261 . S
H55 C49 0.930 . S
H56 C51 0.930 . S
N57 Cu46 1.985 . S
N57 C59 1.335 . S
N57 C60 1.390 . S
N58 C59 1.345 . S
N58 C61 1.336 . S
C59 N57 1.335 . S
C59 N58 1.345 . S
C59 H64 0.930 . S
C60 N57 1.390 . S
C60 C61 1.346 . S
C60 H65 0.930 . S
C61 N58 1.336 . S
C61 C60 1.346 . S
C61 H68 0.929 . S
C62 O52 1.282 . S
C62 O63 1.216 . S
O63 C62 1.216 . S
H64 C59 0.930 . S
H65 C60 0.930 . S
O66 Cu46 1.959 . S
O66 C53 1.251 . S
H67 C50 0.930 . S
H68 C61 0.929 . S
Cu69 N70 1.999 . S
Cu69 O75 1.974 1_455 S
Cu69 N80 1.985 . S
Cu69 O89 1.959 . S
N70 Cu69 1.999 . S
N70 C72 1.263 . S
N70 C74 1.389 . S
N71 C72 1.358 . S
N71 C73 1.400 . S
C72 N70 1.263 . S
C72 N71 1.358 . S
C72 H78 0.930 1_455 S
C73 N71 1.400 . S
C73 C74 1.351 . S
C73 H90 0.930 . S
C74 N70 1.389 . S
C74 C73 1.351 . S
C74 H79 0.930 . S
O75 Cu69 1.974 1_655 S
O75 C85 1.282 . S
C76 O77 1.261 1_455 S
C76 O89 1.251 . S
O77 C76 1.261 1_655 S
H78 C72 0.930 1_655 S
H79 C74 0.930 . S
N80 Cu69 1.985 . S
N80 C82 1.335 . S
N80 C83 1.390 1_455 S
N81 C82 1.345 . S
N81 C84 1.336 1_455 S
C82 N80 1.335 . S
C82 N81 1.345 . S
C82 H87 0.930 . S
C83 N80 1.390 1_655 S
C83 C84 1.346 . S
C83 H88 0.930 . S
C84 N81 1.336 1_655 S
C84 C83 1.346 . S
C84 H91 0.929 . S
C85 O75 1.282 . S
C85 O86 1.216 . S
O86 C85 1.216 . S
H87 C82 0.930 . S
H88 C83 0.930 . S
O89 Cu69 1.959 . S
O89 C76 1.251 . S
H90 C73 0.930 . S
H91 C84 0.929 . S
Cu92 N93 1.999 . S
Cu92 O98 1.974 . S
Cu92 N103 1.985 . S
Cu92 O112 1.959 . S
N93 Cu92 1.999 . S
N93 C95 1.263 . S
N93 C97 1.389 . S
N94 C95 1.358 . S
N94 C96 1.400 . S
C95 N93 1.263 . S
C95 N94 1.358 . S
C95 H101 0.930 . S
C96 N94 1.400 . S
C96 C97 1.351 . S
C96 H113 0.930 . S
C97 N93 1.389 . S
C97 C96 1.351 . S
C97 H102 0.930 . S
O98 Cu92 1.974 . S
O98 C108 1.282 . S
C99 O100 1.261 1_565 S
C99 O112 1.251 . S
O100 C99 1.261 1_545 S
H101 C95 0.930 . S
H102 C97 0.930 . S
N103 Cu92 1.985 . S
N103 C105 1.335 . S
N103 C106 1.390 . S
N104 C105 1.345 . S
N104 C107 1.336 . S
C105 N103 1.335 . S
C105 N104 1.345 . S
C105 H110 0.930 . S
C106 N103 1.390 . S
C106 C107 1.346 . S
C106 H111 0.930 . S
C107 N104 1.336 . S
C107 C106 1.346 . S
C107 H114 0.929 . S
C108 O98 1.282 . S
C108 O109 1.216 1_565 S
O109 C108 1.216 1_545 S
H110 C105 0.930 . S
H111 C106 0.930 . S
O112 Cu92 1.959 . S
O112 C99 1.251 . S
H113 C96 0.930 . S
H114 C107 0.929 . S
Cu115 N116 1.999 . S
Cu115 O121 1.974 . S
Cu115 N126 1.985 . S
Cu115 O135 1.959 . S
N116 Cu115 1.999 . S
N116 C118 1.263 . S
N116 C120 1.389 . S
N117 C118 1.358 . S
N117 C119 1.400 . S
C118 N116 1.263 . S
C118 N117 1.358 . S
C118 H124 0.930 . S
C119 N117 1.400 . S
C119 C120 1.351 . S
C119 H136 0.930 . S
C120 N116 1.389 . S
C120 C119 1.351 . S
C120 H125 0.930 . S
O121 Cu115 1.974 . S
O121 C131 1.282 . S
C122 O123 1.261 . S
C122 O135 1.251 . S
O123 C122 1.261 . S
H124 C118 0.930 . S
H125 C120 0.930 . S
N126 Cu115 1.985 . S
N126 C128 1.335 . S
N126 C129 1.390 . S
N127 C128 1.345 . S
N127 C130 1.336 . S
C128 N126 1.335 . S
C128 N127 1.345 . S
C128 H133 0.930 . S
C129 N126 1.390 . S
C129 C130 1.346 . S
C129 H134 0.930 . S
C130 N127 1.336 . S
C130 C129 1.346 . S
C130 H137 0.929 . S
C131 O121 1.282 . S
C131 O132 1.216 . S
O132 C131 1.216 . S
H133 C128 0.930 . S
H134 C129 0.930 . S
O135 Cu115 1.959 . S
O135 C122 1.251 . S
H136 C119 0.930 . S
H137 C130 0.929 . S
Cu138 N139 1.999 . S
Cu138 O144 1.974 . S
Cu138 N149 1.985 . S
Cu138 O158 1.959 . S
N139 Cu138 1.999 . S
N139 C141 1.263 . S
N139 C143 1.389 . S
N140 C141 1.358 . S
N140 C142 1.400 . S
C141 N139 1.263 . S
C141 N140 1.358 . S
C141 H147 0.930 . S
C142 N140 1.400 . S
C142 C143 1.351 . S
C142 H159 0.930 . S
C143 N139 1.389 . S
C143 C142 1.351 . S
C143 H148 0.930 . S
O144 Cu138 1.974 . S
O144 C154 1.282 . S
C145 O146 1.261 1_565 S
C145 O158 1.251 . S
O146 C145 1.261 1_545 S
H147 C141 0.930 . S
H148 C143 0.930 . S
N149 Cu138 1.985 . S
N149 C151 1.335 . S
N149 C152 1.390 . S
N150 C151 1.345 . S
N150 C153 1.336 . S
C151 N149 1.335 . S
C151 N150 1.345 . S
C151 H156 0.930 . S
C152 N149 1.390 . S
C152 C153 1.346 . S
C152 H157 0.930 . S
C153 N150 1.336 . S
C153 C152 1.346 . S
C153 H160 0.929 . S
C154 O144 1.282 . S
C154 O155 1.216 1_565 S
O155 C154 1.216 1_545 S
H156 C151 0.930 . S
H157 C152 0.930 . S
O158 Cu138 1.959 . S
O158 C145 1.251 . S
H159 C142 0.930 . S
H160 C153 0.929 . S
Cu161 N162 1.999 . S
Cu161 O167 1.974 . S
Cu161 N172 1.985 . S
Cu161 O181 1.959 . S
N162 Cu161 1.999 . S
N162 C164 1.263 . S
N162 C166 1.389 . S
N163 C164 1.358 . S
N163 C165 1.400 . S
C164 N162 1.263 . S
C164 N163 1.358 . S
C164 H170 0.930 . S
C165 N163 1.400 . S
C165 C166 1.351 . S
C165 H182 0.930 . S
C166 N162 1.389 . S
C166 C165 1.351 . S
C166 H171 0.930 . S
O167 Cu161 1.974 . S
O167 C177 1.282 . S
C168 O169 1.261 . S
C168 O181 1.251 . S
O169 C168 1.261 . S
H170 C164 0.930 . S
H171 C166 0.930 . S
N172 Cu161 1.985 . S
N172 C174 1.335 . S
N172 C175 1.390 . S
N173 C174 1.345 . S
N173 C176 1.336 . S
C174 N172 1.335 . S
C174 N173 1.345 . S
C174 H179 0.930 . S
C175 N172 1.390 . S
C175 C176 1.346 . S
C175 H180 0.930 . S
C176 N173 1.336 . S
C176 C175 1.346 . S
C176 H183 0.929 . S
C177 O167 1.282 . S
C177 O178 1.216 . S
O178 C177 1.216 . S
H179 C174 0.930 . S
H180 C175 0.930 . S
O181 Cu161 1.959 . S
O181 C168 1.251 . S
H182 C165 0.930 . S
H183 C176 0.929 . S
Cu184 N185 1.999 . S
Cu184 O190 1.974 1_655 S
Cu184 N195 1.985 1_655 S
Cu184 O204 1.959 . S
N185 Cu184 1.999 . S
N185 C187 1.263 1_655 S
N185 C189 1.389 . S
N186 C187 1.358 1_655 S
N186 C188 1.400 . S
C187 N185 1.263 1_455 S
C187 N186 1.358 1_455 S
C187 H193 0.930 . S
C188 N186 1.400 . S
C188 C189 1.351 . S
C188 H205 0.930 . S
C189 N185 1.389 . S
C189 C188 1.351 . S
C189 H194 0.930 . S
O190 Cu184 1.974 1_455 S
O190 C200 1.282 . S
C191 O192 1.261 . S
C191 O204 1.251 1_455 S
O192 C191 1.261 . S
H193 C187 0.930 . S
H194 C189 0.930 . S
N195 Cu184 1.985 1_455 S
N195 C197 1.335 1_455 S
N195 C198 1.390 . S
N196 C197 1.345 1_455 S
N196 C199 1.336 . S
C197 N195 1.335 1_655 S
C197 N196 1.345 1_655 S
C197 H202 0.930 . S
C198 N195 1.390 . S
C198 C199 1.346 . S
C198 H203 0.930 . S
C199 N196 1.336 . S
C199 C198 1.346 . S
C199 H206 0.929 . S
C200 O190 1.282 . S
C200 O201 1.216 . S
O201 C200 1.216 . S
H202 C197 0.930 . S
H203 C198 0.930 . S
O204 Cu184 1.959 . S
O204 C191 1.251 1_655 S
H205 C188 0.930 . S
H206 C199 0.929 . S
Cu207 N208 1.999 . S
Cu207 O213 1.974 . S
Cu207 N218 1.985 . S
Cu207 O227 1.959 . S
N208 Cu207 1.999 . S
N208 C210 1.263 . S
N208 C212 1.389 . S
N209 C210 1.358 . S
N209 C211 1.400 . S
C210 N208 1.263 . S
C210 N209 1.358 . S
C210 H216 0.930 . S
C211 N209 1.400 . S
C211 C212 1.351 . S
C211 H228 0.930 . S
C212 N208 1.389 . S
C212 C211 1.351 . S
C212 H217 0.930 . S
O213 Cu207 1.974 . S
O213 C223 1.282 . S
C214 O215 1.261 1_545 S
C214 O227 1.251 . S
O215 C214 1.261 1_565 S
H216 C210 0.930 . S
H217 C212 0.930 . S
N218 Cu207 1.985 . S
N218 C220 1.335 . S
N218 C221 1.390 . S
N219 C220 1.345 . S
N219 C222 1.336 . S
C220 N218 1.335 . S
C220 N219 1.345 . S
C220 H225 0.930 . S
C221 N218 1.390 . S
C221 C222 1.346 . S
C221 H226 0.930 . S
C222 N219 1.336 . S
C222 C221 1.346 . S
C222 H229 0.929 . S
C223 O213 1.282 . S
C223 O224 1.216 1_545 S
O224 C223 1.216 1_565 S
H225 C220 0.930 . S
H226 C221 0.930 . S
O227 Cu207 1.959 . S
O227 C214 1.251 . S
H228 C211 0.930 . S
H229 C222 0.929 . S
Cu230 N231 1.999 . S
Cu230 O236 1.974 . S
Cu230 N241 1.985 . S
Cu230 O250 1.959 . S
N231 Cu230 1.999 . S
N231 C233 1.263 . S
N231 C235 1.389 . S
N232 C233 1.358 . S
N232 C234 1.400 . S
C233 N231 1.263 . S
C233 N232 1.358 . S
C233 H239 0.930 . S
C234 N232 1.400 . S
C234 C235 1.351 . S
C234 H251 0.930 . S
C235 N231 1.389 . S
C235 C234 1.351 . S
C235 H240 0.930 . S
O236 Cu230 1.974 . S
O236 C246 1.282 . S
C237 O238 1.261 . S
C237 O250 1.251 . S
O238 C237 1.261 . S
H239 C233 0.930 . S
H240 C235 0.930 . S
N241 Cu230 1.985 . S
N241 C243 1.335 . S
N241 C244 1.390 . S
N242 C243 1.345 . S
N242 C245 1.336 . S
C243 N241 1.335 . S
C243 N242 1.345 . S
C243 H248 0.930 . S
C244 N241 1.390 . S
C244 C245 1.346 . S
C244 H249 0.930 . S
C245 N242 1.336 . S
C245 C244 1.346 . S
C245 H252 0.929 . S
C246 O236 1.282 . S
C246 O247 1.216 . S
O247 C246 1.216 . S
H248 C243 0.930 . S
H249 C244 0.930 . S
O250 Cu230 1.959 . S
O250 C237 1.251 . S
H251 C234 0.930 . S
H252 C245 0.929 . S
Cu253 N254 1.999 . S
Cu253 O259 1.974 1_455 S
Cu253 N264 1.985 1_455 S
Cu253 O273 1.959 . S
N254 Cu253 1.999 . S
N254 C256 1.263 1_455 S
N254 C258 1.389 . S
N255 C256 1.358 1_455 S
N255 C257 1.400 . S
C256 N254 1.263 1_655 S
C256 N255 1.358 1_655 S
C256 H262 0.930 . S
C257 N255 1.400 . S
C257 C258 1.351 . S
C257 H274 0.930 . S
C258 N254 1.389 . S
C258 C257 1.351 . S
C258 H263 0.930 . S
O259 Cu253 1.974 1_655 S
O259 C269 1.282 . S
C260 O261 1.261 . S
C260 O273 1.251 1_655 S
O261 C260 1.261 . S
H262 C256 0.930 . S
H263 C258 0.930 . S
N264 Cu253 1.985 1_655 S
N264 C266 1.335 1_655 S
N264 C267 1.390 . S
N265 C266 1.345 1_655 S
N265 C268 1.336 . S
C266 N264 1.335 1_455 S
C266 N265 1.345 1_455 S
C266 H271 0.930 . S
C267 N264 1.390 . S
C267 C268 1.346 . S
C267 H272 0.930 . S
C268 N265 1.336 . S
C268 C267 1.346 . S
C268 H275 0.929 . S
C269 O259 1.282 . S
C269 O270 1.216 . S
O270 C269 1.216 . S
H271 C266 0.930 . S
H272 C267 0.930 . S
O273 Cu253 1.959 . S
O273 C260 1.251 1_455 S
H274 C257 0.930 . S
H275 C268 0.929 . S
H276 C288 0.930 . S
H277 C290 0.930 . S
H278 C291 0.930 . S
H279 C295 0.959 . S
H280 C295 0.959 1_655 S
H281 C295 0.961 . S
H282 C296 0.960 . S
H283 C296 0.961 . S
H284 C296 0.959 . S
H285 C299 0.934 1_455 S
H286 C300 0.931 1_455 S
H287 C302 0.930 . S
C288 H276 0.930 . S
C288 C289 1.399 . S
C288 C293 1.399 . S
C289 C288 1.399 . S
C289 C290 1.376 1_655 S
C290 H277 0.930 . S
C290 C289 1.376 1_455 S
C290 C291 1.388 . S
C291 H278 0.930 . S
C291 C290 1.388 . S
C291 C292 1.390 1_455 S
C292 C291 1.390 1_655 S
C292 C293 1.394 . S
C292 C298 1.465 . S
C293 C288 1.399 . S
C293 C292 1.394 . S
C293 C294 1.516 . S
C294 C293 1.516 . S
C294 C295 1.502 1_655 S
C294 C296 1.561 . S
C294 C297 1.526 . S
C295 H279 0.959 . S
C295 H280 0.959 1_455 S
C295 H281 0.961 . S
C295 C294 1.502 1_455 S
C296 H282 0.960 . S
C296 H283 0.961 . S
C296 H284 0.959 . S
C296 C294 1.561 . S
C297 C294 1.526 . S
C297 C298 1.396 . S
C297 C302 1.390 . S
C298 C292 1.465 . S
C298 C297 1.396 . S
C298 C299 1.395 . S
C299 H285 0.934 1_655 S
C299 C298 1.395 . S
C299 C300 1.384 . S
C300 H286 0.931 1_655 S
C300 C299 1.384 . S
C300 C301 1.389 . S
C301 C300 1.389 . S
C301 C302 1.387 . S
C302 H287 0.930 . S
C302 C297 1.390 . S
C302 C301 1.387 . S
H303 C315 0.930 . S
H304 C317 0.930 . S
H305 C318 0.930 . S
H306 C322 0.959 . S
H307 C322 0.959 . S
H308 C322 0.961 . S
H309 C323 0.960 . S
H310 C323 0.961 . S
H311 C323 0.959 . S
H312 C326 0.929 . S
H313 C327 0.931 . S
H314 C329 0.930 . S
C315 H303 0.930 . S
C315 C316 1.399 1_565 S
C315 C320 1.399 . S
C316 C315 1.399 1_545 S
C316 C317 1.376 . S
C317 H304 0.930 . S
C317 C316 1.376 . S
C317 C318 1.388 . S
C318 H305 0.930 . S
C318 C317 1.388 . S
C318 C319 1.390 . S
C319 C318 1.390 . S
C319 C320 1.394 1_545 S
C319 C325 1.465 . S
C320 C315 1.399 . S
C320 C319 1.394 1_565 S
C320 C321 1.516 . S
C321 C320 1.516 . S
C321 C322 1.502 . S
C321 C323 1.561 . S
C321 C324 1.526 . S
C322 H306 0.959 . S
C322 H307 0.959 . S
C322 H308 0.961 . S
C322 C321 1.502 . S
C323 H309 0.960 . S
C323 H310 0.961 . S
C323 H311 0.959 . S
C323 C321 1.561 . S
C324 C321 1.526 . S
C324 C325 1.396 1_565 S
C324 C329 1.390 . S
C325 C319 1.465 . S
C325 C324 1.396 1_545 S
C325 C326 1.399 . S
C326 H312 0.929 . S
C326 C325 1.399 . S
C326 C327 1.385 . S
C327 H313 0.931 . S
C327 C326 1.385 . S
C327 C328 1.389 1_545 S
C328 C327 1.389 1_565 S
C328 C329 1.387 . S
C329 H314 0.930 . S
C329 C324 1.390 . S
C329 C328 1.387 . S
H330 C342 0.930 . S
H331 C344 0.930 . S
H332 C345 0.930 . S
H333 C349 0.959 . S
H334 C349 0.959 . S
H335 C349 0.961 . S
H336 C350 0.960 . S
H337 C350 0.961 . S
H338 C350 0.959 . S
H339 C353 0.929 . S
H340 C354 0.931 . S
H341 C356 0.930 . S
C342 H330 0.930 . S
C342 C343 1.399 . S
C342 C347 1.399 . S
C343 C342 1.399 . S
C343 C344 1.376 . S
C344 H331 0.930 . S
C344 C343 1.376 . S
C344 C345 1.388 . S
C345 H332 0.930 . S
C345 C344 1.388 . S
C345 C346 1.390 . S
C346 C345 1.390 . S
C346 C347 1.394 . S
C346 C352 1.465 . S
C347 C342 1.399 . S
C347 C346 1.394 . S
C347 C348 1.516 . S
C348 C347 1.516 . S
C348 C349 1.502 . S
C348 C350 1.561 . S
C348 C351 1.526 . S
C349 H333 0.959 . S
C349 H334 0.959 . S
C349 H335 0.961 . S
C349 C348 1.502 . S
C350 H336 0.960 . S
C350 H337 0.961 . S
C350 H338 0.959 . S
C350 C348 1.561 . S
C351 C348 1.526 . S
C351 C352 1.396 . S
C351 C356 1.390 . S
C352 C346 1.465 . S
C352 C351 1.396 . S
C352 C353 1.399 . S
C353 H339 0.929 . S
C353 C352 1.399 . S
C353 C354 1.385 . S
C354 H340 0.931 . S
C354 C353 1.385 . S
C354 C355 1.389 . S
C355 C354 1.389 . S
C355 C356 1.387 . S
C356 H341 0.930 . S
C356 C351 1.390 . S
C356 C355 1.387 . S
H357 C369 0.930 . S
H358 C371 0.930 . S
H359 C372 0.930 . S
H360 C376 0.959 . S
H361 C376 0.959 . S
H362 C376 0.961 . S
H363 C377 0.960 . S
H364 C377 0.961 . S
H365 C377 0.959 1_455 S
H366 C380 0.929 . S
H367 C381 0.931 . S
H368 C383 0.930 . S
C369 H357 0.930 . S
C369 C370 1.399 1_655 S
C369 C374 1.399 . S
C370 C369 1.399 1_455 S
C370 C371 1.376 . S
C371 H358 0.930 . S
C371 C370 1.376 . S
C371 C372 1.388 . S
C372 H359 0.930 . S
C372 C371 1.388 . S
C372 C373 1.390 . S
C373 C372 1.390 . S
C373 C374 1.394 1_455 S
C373 C379 1.465 . S
C374 C369 1.399 . S
C374 C373 1.394 1_655 S
C374 C375 1.516 . S
C375 C374 1.516 . S
C375 C376 1.502 . S
C375 C377 1.561 . S
C375 C378 1.526 . S
C376 H360 0.959 . S
C376 H361 0.959 . S
C376 H362 0.961 . S
C376 C375 1.502 . S
C377 H363 0.960 . S
C377 H364 0.961 . S
C377 H365 0.959 1_655 S
C377 C375 1.561 . S
C378 C375 1.526 . S
C378 C379 1.396 1_655 S
C378 C383 1.390 . S
C379 C373 1.465 . S
C379 C378 1.396 1_455 S
C379 C380 1.399 . S
C380 H366 0.929 . S
C380 C379 1.399 . S
C380 C381 1.385 . S
C381 H367 0.931 . S
C381 C380 1.385 . S
C381 C382 1.389 . S
C382 C381 1.389 . S
C382 C383 1.387 1_455 S
C383 H368 0.930 . S
C383 C378 1.390 . S
C383 C382 1.387 1_655 S
H384 C396 0.930 . S
H385 C398 0.930 . S
H386 C399 0.930 . S
H387 C403 0.959 . S
H388 C403 0.959 . S
H389 C403 0.961 . S
H390 C404 0.960 . S
H391 C404 0.961 . S
H392 C404 0.959 . S
H393 C407 0.929 . S
H394 C408 0.931 . S
H395 C410 0.930 . S
C396 H384 0.930 . S
C396 C397 1.399 . S
C396 C401 1.399 . S
C397 C396 1.399 . S
C397 C398 1.376 1_545 S
C398 H385 0.930 . S
C398 C397 1.376 1_565 S
C398 C399 1.388 . S
C399 H386 0.930 . S
C399 C398 1.388 . S
C399 C400 1.390 . S
C400 C399 1.390 . S
C400 C401 1.394 1_565 S
C400 C406 1.465 . S
C401 C396 1.399 . S
C401 C400 1.394 1_545 S
C401 C402 1.516 . S
C402 C401 1.516 . S
C402 C403 1.502 . S
C402 C404 1.561 . S
C402 C405 1.526 . S
C403 H387 0.959 . S
C403 H388 0.959 . S
C403 H389 0.961 . S
C403 C402 1.502 . S
C404 H390 0.960 . S
C404 H391 0.961 . S
C404 H392 0.959 . S
C404 C402 1.561 . S
C405 C402 1.526 . S
C405 C406 1.396 1_545 S
C405 C410 1.390 . S
C406 C400 1.465 . S
C406 C405 1.396 1_565 S
C406 C407 1.399 . S
C407 H393 0.929 . S
C407 C406 1.399 . S
C407 C408 1.385 . S
C408 H394 0.931 . S
C408 C407 1.385 . S
C408 C409 1.389 . S
C409 C408 1.389 . S
C409 C410 1.387 1_565 S
C410 H395 0.930 . S
C410 C405 1.390 . S
C410 C409 1.387 1_545 S
H411 C423 0.930 . S
H412 C425 0.930 . S
H413 C426 0.930 . S
H414 C430 0.959 . S
H415 C430 0.959 . S
H416 C430 0.961 . S
H417 C431 0.960 . S
H418 C431 0.961 . S
H419 C431 0.959 . S
H420 C434 0.929 . S
H421 C435 0.931 . S
H422 C437 0.930 . S
C423 H411 0.930 . S
C423 C424 1.399 . S
C423 C428 1.399 . S
C424 C423 1.399 . S
C424 C425 1.376 . S
C425 H412 0.930 . S
C425 C424 1.376 . S
C425 C426 1.388 . S
C426 H413 0.930 . S
C426 C425 1.388 . S
C426 C427 1.390 . S
C427 C426 1.390 . S
C427 C428 1.394 . S
C427 C433 1.465 . S
C428 C423 1.399 . S
C428 C427 1.394 . S
C428 C429 1.516 . S
C429 C428 1.516 . S
C429 C430 1.502 . S
C429 C431 1.561 . S
C429 C432 1.526 . S
C430 H414 0.959 . S
C430 H415 0.959 . S
C430 H416 0.961 . S
C430 C429 1.502 . S
C431 H417 0.960 . S
C431 H418 0.961 . S
C431 H419 0.959 . S
C431 C429 1.561 . S
C432 C429 1.526 . S
C432 C433 1.396 . S
C432 C437 1.390 . S
C433 C427 1.465 . S
C433 C432 1.396 . S
C433 C434 1.399 . S
C434 H420 0.929 . S
C434 C433 1.399 . S
C434 C435 1.385 . S
C435 H421 0.931 . S
C435 C434 1.385 . S
C435 C436 1.389 . S
C436 C435 1.389 . S
C436 C437 1.387 . S
C437 H422 0.930 . S
C437 C432 1.390 . S
C437 C436 1.387 . S
H438 C450 0.930 . S
H439 C452 0.930 . S
H440 C453 0.931 . S
H441 C457 0.959 . S
H442 C457 0.959 . S
H443 C457 0.961 . S
H444 C458 0.960 . S
H445 C458 0.961 1_556 S
H446 C458 0.959 1_556 S
H447 C461 0.929 . S
H448 C462 0.931 . S
H449 C464 0.930 . S
C450 H438 0.930 . S
C450 C451 1.399 . S
C450 C455 1.399 . S
C451 C450 1.399 . S
C451 C452 1.376 . S
C452 H439 0.930 . S
C452 C451 1.376 . S
C452 C453 1.388 . S
C453 H440 0.931 . S
C453 C452 1.388 . S
C453 C454 1.390 . S
C454 C453 1.390 . S
C454 C455 1.394 . S
C454 C460 1.465 1_554 S
C455 C450 1.399 . S
C455 C454 1.394 . S
C455 C456 1.516 . S
C456 C455 1.516 . S
C456 C457 1.502 . S
C456 C458 1.561 . S
C456 C459 1.526 1_554 S
C457 H441 0.959 . S
C457 H442 0.959 . S
C457 H443 0.961 . S
C457 C456 1.502 . S
C458 H444 0.960 . S
C458 H445 0.961 1_554 S
C458 H446 0.959 1_554 S
C458 C456 1.561 . S
C459 C456 1.526 1_556 S
C459 C460 1.396 . S
C459 C464 1.390 . S
C460 C454 1.465 1_556 S
C460 C459 1.396 . S
C460 C461 1.399 . S
C461 H447 0.929 . S
C461 C460 1.399 . S
C461 C462 1.385 . S
C462 H448 0.931 . S
C462 C461 1.385 . S
C462 C463 1.389 . S
C463 C462 1.389 . S
C463 C464 1.387 . S
C464 H449 0.930 . S
C464 C459 1.390 . S
C464 C463 1.387 . S
H465 C477 0.930 . S
H466 C479 0.930 . S
H467 C480 0.930 . S
H468 C484 0.959 . S
H469 C484 0.959 . S
H470 C484 0.961 . S
H471 C485 0.960 . S
H472 C485 0.961 . S
H473 C485 0.959 . S
H474 C488 0.929 . S
H475 C489 0.931 . S
H476 C491 0.930 . S
C477 H465 0.930 . S
C477 C478 1.399 . S
C477 C482 1.399 . S
C478 C477 1.399 . S
C478 C479 1.376 . S
C479 H466 0.930 . S
C479 C478 1.376 . S
C479 C480 1.388 . S
C480 H467 0.930 . S
C480 C479 1.388 . S
C480 C481 1.390 . S
C481 C480 1.390 . S
C481 C482 1.394 . S
C481 C487 1.465 . S
C482 C477 1.399 . S
C482 C481 1.394 . S
C482 C483 1.516 . S
C483 C482 1.516 . S
C483 C484 1.502 . S
C483 C485 1.561 . S
C483 C486 1.526 . S
C484 H468 0.959 . S
C484 H469 0.959 . S
C484 H470 0.961 . S
C484 C483 1.502 . S
C485 H471 0.960 . S
C485 H472 0.961 . S
C485 H473 0.959 . S
C485 C483 1.561 . S
C486 C483 1.526 . S
C486 C487 1.396 . S
C486 C491 1.390 . S
C487 C481 1.465 . S
C487 C486 1.396 . S
C487 C488 1.399 . S
C488 H474 0.929 . S
C488 C487 1.399 . S
C488 C489 1.385 . S
C489 H475 0.931 . S
C489 C488 1.385 . S
C489 C490 1.389 . S
C490 C489 1.389 . S
C490 C491 1.387 . S
C491 H476 0.930 . S
C491 C486 1.390 . S
C491 C490 1.387 . S
H492 C504 0.930 . S
H493 C506 0.930 . S
H494 C507 0.930 . S
H495 C511 0.959 . S
H496 C511 0.959 . S
H497 C511 0.961 . S
H498 C512 0.960 . S
H499 C512 0.961 . S
H500 C512 0.959 . S
H501 C515 0.929 . S
H502 C516 0.931 . S
H503 C518 0.930 . S
C504 H492 0.930 . S
C504 C505 1.399 . S
C504 C509 1.399 . S
C505 C504 1.399 . S
C505 C506 1.376 . S
C506 H493 0.930 . S
C506 C505 1.376 . S
C506 C507 1.388 . S
C507 H494 0.930 . S
C507 C506 1.388 . S
C507 C508 1.390 . S
C508 C507 1.390 . S
C508 C509 1.394 . S
C508 C514 1.465 . S
C509 C504 1.399 . S
C509 C508 1.394 . S
C509 C510 1.516 . S
C510 C509 1.516 . S
C510 C511 1.502 . S
C510 C512 1.561 . S
C510 C513 1.526 . S
C511 H495 0.959 . S
C511 H496 0.959 . S
C511 H497 0.961 . S
C511 C510 1.502 . S
C512 H498 0.960 . S
C512 H499 0.961 . S
C512 H500 0.959 . S
C512 C510 1.561 . S
C513 C510 1.526 . S
C513 C514 1.396 . S
C513 C518 1.390 . S
C514 C508 1.465 . S
C514 C513 1.396 . S
C514 C515 1.399 . S
C515 H501 0.929 . S
C515 C514 1.399 . S
C515 C516 1.385 . S
C516 H502 0.931 . S
C516 C515 1.385 . S
C516 C517 1.389 . S
C517 C516 1.389 . S
C517 C518 1.387 . S
C518 H503 0.930 . S
C518 C513 1.390 . S
C518 C517 1.387 . S
H519 C531 0.930 . S
H520 C533 0.930 . S
H521 C534 0.930 . S
H522 C538 0.959 . S
H523 C538 0.959 . S
H524 C538 0.961 . S
H525 C539 0.960 1_554 S
H526 C539 0.961 . S
H527 C539 0.959 . S
H528 C542 0.929 . S
H529 C543 0.931 . S
H530 C545 0.930 . S
C531 H519 0.930 . S
C531 C532 1.399 . S
C531 C536 1.399 . S
C532 C531 1.399 . S
C532 C533 1.376 . S
C533 H520 0.930 . S
C533 C532 1.376 . S
C533 C534 1.388 . S
C534 H521 0.930 . S
C534 C533 1.388 . S
C534 C535 1.390 . S
C535 C534 1.390 . S
C535 C536 1.394 . S
C535 C541 1.465 1_554 S
C536 C531 1.399 . S
C536 C535 1.394 . S
C536 C537 1.516 . S
C537 C536 1.516 . S
C537 C538 1.502 . S
C537 C539 1.561 1_554 S
C537 C540 1.526 1_554 S
C538 H522 0.959 . S
C538 H523 0.959 . S
C538 H524 0.961 . S
C538 C537 1.502 . S
C539 H525 0.960 1_556 S
C539 H526 0.961 . S
C539 H527 0.959 . S
C539 C537 1.561 1_556 S
C540 C537 1.526 1_556 S
C540 C541 1.396 . S
C540 C545 1.390 . S
C541 C535 1.465 1_556 S
C541 C540 1.396 . S
C541 C542 1.399 . S
C542 H528 0.929 . S
C542 C541 1.399 . S
C542 C543 1.385 . S
C543 H529 0.931 . S
C543 C542 1.385 . S
C543 C544 1.389 . S
C544 C543 1.389 . S
C544 C545 1.387 . S
C545 H530 0.930 . S
C545 C540 1.390 . S
C545 C544 1.387 . S
H546 C558 0.930 . S
H547 C560 0.930 . S
H548 C561 0.930 . S
H549 C565 0.959 . S
H550 C565 0.959 . S
H551 C565 0.961 . S
H552 C566 0.960 . S
H553 C566 0.961 . S
H554 C566 0.959 . S
H555 C569 0.929 . S
H556 C570 0.931 . S
H557 C572 0.930 . S
C558 H546 0.930 . S
C558 C559 1.399 . S
C558 C563 1.399 . S
C559 C558 1.399 . S
C559 C560 1.376 . S
C560 H547 0.930 . S
C560 C559 1.376 . S
C560 C561 1.388 . S
C561 H548 0.930 . S
C561 C560 1.388 . S
C561 C562 1.390 . S
C562 C561 1.390 . S
C562 C563 1.394 . S
C562 C568 1.465 . S
C563 C558 1.399 . S
C563 C562 1.394 . S
C563 C564 1.516 . S
C564 C563 1.516 . S
C564 C565 1.502 . S
C564 C566 1.561 . S
C564 C567 1.526 . S
C565 H549 0.959 . S
C565 H550 0.959 . S
C565 H551 0.961 . S
C565 C564 1.502 . S
C566 H552 0.960 . S
C566 H553 0.961 . S
C566 H554 0.959 . S
C566 C564 1.561 . S
C567 C564 1.526 . S
C567 C568 1.396 . S
C567 C572 1.390 . S
C568 C562 1.465 . S
C568 C567 1.396 . S
C568 C569 1.399 . S
C569 H555 0.929 . S
C569 C568 1.399 . S
C569 C570 1.385 . S
C570 H556 0.931 . S
C570 C569 1.385 . S
C570 C571 1.389 . S
C571 C570 1.389 . S
C571 C572 1.387 . S
C572 H557 0.930 . S
C572 C567 1.390 . S
C572 C571 1.387 . S
H573 C585 0.930 . S
H574 C587 0.930 . S
H575 C588 0.930 . S
H576 C592 0.959 . S
H577 C592 0.959 . S
H578 C592 0.961 . S
H579 C593 0.960 . S
H580 C593 0.961 . S
H581 C593 0.959 . S
H582 C596 0.929 . S
H583 C597 0.931 . S
H584 C599 0.930 . S
C585 H573 0.930 . S
C585 C586 1.399 . S
C585 C590 1.399 . S
C586 C585 1.399 . S
C586 C587 1.376 . S
C587 H574 0.930 . S
C587 C586 1.376 . S
C587 C588 1.388 . S
C588 H575 0.930 . S
C588 C587 1.388 . S
C588 C589 1.390 . S
C589 C588 1.390 . S
C589 C590 1.394 . S
C589 C595 1.465 . S
C590 C585 1.399 . S
C590 C589 1.394 . S
C590 C591 1.516 . S
C591 C590 1.516 . S
C591 C592 1.502 . S
C591 C593 1.561 . S
C591 C594 1.526 . S
C592 H576 0.959 . S
C592 H577 0.959 . S
C592 H578 0.961 . S
C592 C591 1.502 . S
C593 H579 0.960 . S
C593 H580 0.961 . S
C593 H581 0.959 . S
C593 C591 1.561 . S
C594 C591 1.526 . S
C594 C595 1.396 . S
C594 C599 1.390 . S
C595 C589 1.465 . S
C595 C594 1.396 . S
C595 C596 1.399 . S
C596 H582 0.929 . S
C596 C595 1.399 . S
C596 C597 1.385 . S
C597 H583 0.931 . S
C597 C596 1.385 . S
C597 C598 1.389 . S
C598 C597 1.389 . S
C598 C599 1.387 . S
C599 H584 0.930 . S
C599 C594 1.390 . S
C599 C598 1.387 . S
H600 C612 0.930 . S
H601 C614 0.930 . S
H602 C615 0.930 . S
H603 C619 0.959 . S
H604 C619 0.959 . S
H605 C619 0.961 . S
H606 C620 0.960 . S
H607 C620 0.961 . S
H608 C620 0.959 . S
H609 C623 0.929 . S
H610 C624 0.931 . S
H611 C626 0.930 . S
C612 H600 0.930 . S
C612 C613 1.399 . S
C612 C617 1.399 . S
C613 C612 1.399 . S
C613 C614 1.376 1_455 S
C614 H601 0.930 . S
C614 C613 1.376 1_655 S
C614 C615 1.388 . S
C615 H602 0.930 . S
C615 C614 1.388 . S
C615 C616 1.390 . S
C616 C615 1.390 . S
C616 C617 1.394 1_655 S
C616 C622 1.465 . S
C617 C612 1.399 . S
C617 C616 1.394 1_455 S
C617 C618 1.516 . S
C618 C617 1.516 . S
C618 C619 1.502 . S
C618 C620 1.561 1_455 S
C618 C621 1.526 . S
C619 H603 0.959 . S
C619 H604 0.959 . S
C619 H605 0.961 . S
C619 C618 1.502 . S
C620 H606 0.960 . S
C620 H607 0.961 . S
C620 H608 0.959 . S
C620 C618 1.561 1_655 S
C621 C618 1.526 . S
C621 C622 1.396 1_455 S
C621 C626 1.390 . S
C622 C616 1.465 . S
C622 C621 1.396 1_655 S
C622 C623 1.399 . S
C623 H609 0.929 . S
C623 C622 1.399 . S
C623 C624 1.385 . S
C624 H610 0.931 . S
C624 C623 1.385 . S
C624 C625 1.389 . S
C625 C624 1.389 . S
C625 C626 1.387 1_655 S
C626 H611 0.930 . S
C626 C621 1.390 . S
C626 C625 1.387 1_455 S
H627 C639 0.930 1_565 S
H628 C641 0.930 . S
H629 C642 0.930 . S
H630 C646 0.959 . S
H631 C646 0.959 . S
H632 C646 0.961 . S
H633 C647 0.960 . S
H634 C647 0.961 . S
H635 C647 0.959 . S
H636 C650 0.929 . S
H637 C651 0.931 . S
H638 C653 0.930 . S
C639 H627 0.930 1_545 S
C639 C640 1.399 . S
C639 C644 1.399 . S
C640 C639 1.399 . S
C640 C641 1.376 . S
C641 H628 0.930 . S
C641 C640 1.376 . S
C641 C642 1.388 . S
C642 H629 0.930 . S
C642 C641 1.388 . S
C642 C643 1.390 . S
C643 C642 1.390 . S
C643 C644 1.394 . S
C643 C649 1.465 . S
C644 C639 1.399 . S
C644 C643 1.394 . S
C644 C645 1.516 1_545 S
C645 C644 1.516 1_565 S
C645 C646 1.502 . S
C645 C647 1.561 1_565 S
C645 C648 1.526 . S
C646 H630 0.959 . S
C646 H631 0.959 . S
C646 H632 0.961 . S
C646 C645 1.502 . S
C647 H633 0.960 . S
C647 H634 0.961 . S
C647 H635 0.959 . S
C647 C645 1.561 1_545 S
C648 C645 1.526 . S
C648 C649 1.396 1_565 S
C648 C653 1.390 . S
C649 C643 1.465 . S
C649 C648 1.396 1_545 S
C649 C650 1.399 . S
C650 H636 0.929 . S
C650 C649 1.399 . S
C650 C651 1.385 . S
C651 H637 0.931 . S
C651 C650 1.385 . S
C651 C652 1.389 1_545 S
C652 C651 1.389 1_565 S
C652 C653 1.387 . S
C653 H638 0.930 . S
C653 C648 1.390 . S
C653 C652 1.387 . S
H654 C666 0.930 . S
H655 C668 0.930 . S
H656 C669 0.930 . S
H657 C673 0.959 . S
H658 C673 0.959 . S
H659 C673 0.961 . S
H660 C674 0.960 . S
H661 C674 0.961 . S
H662 C674 0.959 . S
H663 C677 0.929 . S
H664 C678 0.931 . S
H665 C680 0.930 . S
C666 H654 0.930 . S
C666 C667 1.399 . S
C666 C671 1.399 . S
C667 C666 1.399 . S
C667 C668 1.376 . S
C668 H655 0.930 . S
C668 C667 1.376 . S
C668 C669 1.388 . S
C669 H656 0.930 . S
C669 C668 1.388 . S
C669 C670 1.390 . S
C670 C669 1.390 . S
C670 C671 1.394 . S
C670 C676 1.465 . S
C671 C666 1.399 . S
C671 C670 1.394 . S
C671 C672 1.516 . S
C672 C671 1.516 . S
C672 C673 1.502 . S
C672 C674 1.561 . S
C672 C675 1.526 . S
C673 H657 0.959 . S
C673 H658 0.959 . S
C673 H659 0.961 . S
C673 C672 1.502 . S
C674 H660 0.960 . S
C674 H661 0.961 . S
C674 H662 0.959 . S
C674 C672 1.561 . S
C675 C672 1.526 . S
C675 C676 1.396 . S
C675 C680 1.390 . S
C676 C670 1.465 . S
C676 C675 1.396 . S
C676 C677 1.399 . S
C677 H663 0.929 . S
C677 C676 1.399 . S
C677 C678 1.385 . S
C678 H664 0.931 . S
C678 C677 1.385 . S
C678 C679 1.389 . S
C679 C678 1.389 . S
C679 C680 1.387 . S
C680 H665 0.930 . S
C680 C675 1.390 . S
C680 C679 1.387 . S
H681 C693 0.930 1_565 S
H682 C695 0.930 . S
H683 C696 0.930 . S
H684 C700 0.959 . S
H685 C700 0.959 . S
H686 C700 0.961 . S
H687 C701 0.960 . S
H688 C701 0.961 . S
H689 C701 0.959 . S
H690 C704 0.929 . S
H691 C705 0.936 1_545 S
H692 C707 0.930 . S
C693 H681 0.930 1_545 S
C693 C694 1.399 . S
C693 C698 1.399 . S
C694 C693 1.399 . S
C694 C695 1.376 . S
C695 H682 0.930 . S
C695 C694 1.376 . S
C695 C696 1.388 . S
C696 H683 0.930 . S
C696 C695 1.388 . S
C696 C697 1.390 . S
C697 C696 1.390 . S
C697 C698 1.394 . S
C697 C703 1.465 . S
C698 C693 1.399 . S
C698 C697 1.394 . S
C698 C699 1.516 1_545 S
C699 C698 1.516 1_565 S
C699 C700 1.502 . S
C699 C701 1.561 1_565 S
C699 C702 1.526 . S
C700 H684 0.959 . S
C700 H685 0.959 . S
C700 H686 0.961 . S
C700 C699 1.502 . S
C701 H687 0.960 . S
C701 H688 0.961 . S
C701 H689 0.959 . S
C701 C699 1.561 1_545 S
C702 C699 1.526 . S
C702 C703 1.396 1_565 S
C702 C707 1.390 . S
C703 C697 1.465 . S
C703 C702 1.396 1_545 S
C703 C704 1.399 . S
C704 H690 0.929 . S
C704 C703 1.399 . S
C704 C705 1.371 1_545 S
C705 H691 0.936 1_565 S
C705 C704 1.371 1_565 S
C705 C706 1.399 . S
C706 C705 1.399 . S
C706 C707 1.387 . S
C707 H692 0.930 . S
C707 C702 1.390 . S
C707 C706 1.387 . S
H708 C720 0.930 . S
H709 C722 0.930 . S
H710 C723 0.930 . S
H711 C727 0.959 . S
H712 C727 0.959 . S
H713 C727 0.961 . S
H714 C728 0.960 . S
H715 C728 0.961 . S
H716 C728 0.959 . S
H717 C731 0.929 . S
H718 C732 0.931 . S
H719 C734 0.930 . S
C720 H708 0.930 . S
C720 C721 1.399 . S
C720 C725 1.399 . S
C721 C720 1.399 . S
C721 C722 1.376 . S
C722 H709 0.930 . S
C722 C721 1.376 . S
C722 C723 1.388 . S
C723 H710 0.930 . S
C723 C722 1.388 . S
C723 C724 1.390 . S
C724 C723 1.390 . S
C724 C725 1.394 . S
C724 C730 1.465 . S
C725 C720 1.399 . S
C725 C724 1.394 . S
C725 C726 1.516 . S
C726 C725 1.516 . S
C726 C727 1.502 . S
C726 C728 1.561 . S
C726 C729 1.526 . S
C727 H711 0.959 . S
C727 H712 0.959 . S
C727 H713 0.961 . S
C727 C726 1.502 . S
C728 H714 0.960 . S
C728 H715 0.961 . S
C728 H716 0.959 . S
C728 C726 1.561 . S
C729 C726 1.526 . S
C729 C730 1.396 . S
C729 C734 1.390 . S
C730 C724 1.465 . S
C730 C729 1.396 . S
C730 C731 1.399 . S
C731 H717 0.929 . S
C731 C730 1.399 . S
C731 C732 1.385 . S
C732 H718 0.931 . S
C732 C731 1.385 . S
C732 C733 1.389 . S
C733 C732 1.389 . S
C733 C734 1.387 . S
C734 H719 0.930 . S
C734 C729 1.390 . S
C734 C733 1.387 . S
H735 C747 0.930 . S
H736 C749 0.930 . S
H737 C750 0.930 . S
H738 C754 0.959 . S
H739 C754 0.959 . S
H740 C754 0.961 . S
H741 C755 0.960 . S
H742 C755 0.961 . S
H743 C755 0.959 1_455 S
H744 C758 0.929 . S
H745 C759 0.931 . S
H746 C761 0.930 . S
C747 H735 0.930 . S
C747 C748 1.399 1_655 S
C747 C752 1.399 . S
C748 C747 1.399 1_455 S
C748 C749 1.376 . S
C749 H736 0.930 . S
C749 C748 1.376 . S
C749 C750 1.388 . S
C750 H737 0.930 . S
C750 C749 1.388 . S
C750 C751 1.390 . S
C751 C750 1.390 . S
C751 C752 1.394 1_455 S
C751 C757 1.465 . S
C752 C747 1.399 . S
C752 C751 1.394 1_655 S
C752 C753 1.516 . S
C753 C752 1.516 . S
C753 C754 1.502 . S
C753 C755 1.561 . S
C753 C756 1.526 . S
C754 H738 0.959 . S
C754 H739 0.959 . S
C754 H740 0.961 . S
C754 C753 1.502 . S
C755 H741 0.960 . S
C755 H742 0.961 . S
C755 H743 0.959 1_655 S
C755 C753 1.561 . S
C756 C753 1.526 . S
C756 C757 1.396 1_655 S
C756 C761 1.390 . S
C757 C751 1.465 . S
C757 C756 1.396 1_455 S
C757 C758 1.399 . S
C758 H744 0.929 . S
C758 C757 1.399 . S
C758 C759 1.385 . S
C759 H745 0.931 . S
C759 C758 1.385 . S
C759 C760 1.389 . S
C760 C759 1.389 . S
C760 C761 1.387 1_455 S
C761 H746 0.930 . S
C761 C756 1.390 . S
C761 C760 1.387 1_655 S
H762 C774 0.930 . S
H763 C776 0.930 . S
H764 C777 0.930 . S
H765 C781 0.959 . S
H766 C781 0.959 . S
H767 C781 0.961 1_545 S
H768 C782 0.960 . S
H769 C782 0.961 . S
H770 C782 0.959 . S
H771 C785 0.929 . S
H772 C786 0.928 . S
H773 C788 0.930 . S
C774 H762 0.930 . S
C774 C775 1.399 1_455 S
C774 C779 1.399 . S
C775 C774 1.399 1_655 S
C775 C776 1.376 . S
C776 H763 0.930 . S
C776 C775 1.376 . S
C776 C777 1.388 . S
C777 H764 0.930 . S
C777 C776 1.388 . S
C777 C778 1.382 1_655 S
C778 C777 1.382 1_455 S
C778 C779 1.393 . S
C778 C784 1.474 1_545 S
C779 C774 1.399 . S
C779 C778 1.393 . S
C779 C780 1.516 . S
C780 C779 1.516 . S
C780 C781 1.502 1_445 S
C780 C782 1.561 . S
C780 C783 1.526 1_545 S
C781 H765 0.959 . S
C781 H766 0.959 . S
C781 H767 0.961 1_565 S
C781 C780 1.502 1_665 S
C782 H768 0.960 . S
C782 H769 0.961 . S
C782 H770 0.959 . S
C782 C780 1.561 . S
C783 C780 1.526 1_565 S
C783 C784 1.396 . S
C783 C788 1.390 . S
C784 C778 1.474 1_565 S
C784 C783 1.396 . S
C784 C785 1.399 1_455 S
C785 H771 0.929 . S
C785 C784 1.399 1_655 S
C785 C786 1.391 . S
C786 H772 0.928 . S
C786 C785 1.391 . S
C786 C787 1.386 1_655 S
C787 C786 1.386 1_455 S
C787 C788 1.387 . S
C788 H773 0.930 . S
C788 C783 1.390 . S
C788 C787 1.387 . S
H789 C801 0.927 1_565 S
H790 C803 0.930 . S
H791 C804 0.930 . S
H792 C808 0.959 . S
H793 C808 0.959 . S
H794 C808 0.961 . S
H795 C809 0.960 1_655 S
H796 C809 0.961 . S
H797 C809 0.959 . S
H798 C812 0.929 . S
H799 C813 0.935 1_545 S
H800 C815 0.930 . S
C801 H789 0.927 1_545 S
C801 C802 1.399 . S
C801 C806 1.399 . S
C802 C801 1.399 . S
C802 C803 1.376 . S
C803 H790 0.930 . S
C803 C802 1.376 . S
C803 C804 1.388 . S
C804 H791 0.930 . S
C804 C803 1.388 . S
C804 C805 1.390 . S
C805 C804 1.390 . S
C805 C806 1.394 . S
C805 C811 1.465 1_655 S
C806 C801 1.399 . S
C806 C805 1.394 . S
C806 C807 1.516 1_545 S
C807 C806 1.516 1_565 S
C807 C808 1.502 . S
C807 C809 1.561 1_665 S
C807 C810 1.526 1_655 S
C808 H792 0.959 . S
C808 H793 0.959 . S
C808 H794 0.961 . S
C808 C807 1.502 . S
C809 H795 0.960 1_455 S
C809 H796 0.961 . S
C809 H797 0.959 . S
C809 C807 1.561 1_445 S
C810 C807 1.526 1_455 S
C810 C811 1.396 1_565 S
C810 C815 1.390 . S
C811 C805 1.465 1_455 S
C811 C810 1.396 1_545 S
C811 C812 1.399 . S
C812 H798 0.929 . S
C812 C811 1.399 . S
C812 C813 1.385 1_545 S
C813 H799 0.935 1_565 S
C813 C812 1.385 1_565 S
C813 C814 1.389 . S
C814 C813 1.389 . S
C814 C815 1.387 . S
C815 H800 0.930 . S
C815 C810 1.390 . S
C815 C814 1.387 . S
H816 C828 0.930 . S
H817 C830 0.930 . S
H818 C831 0.930 . S
H819 C835 0.959 . S
H820 C835 0.959 . S
H821 C835 0.961 . S
H822 C836 0.960 . S
H823 C836 0.961 1_565 S
H824 C836 0.959 1_465 S
H825 C839 0.929 1_455 S
H826 C840 0.931 . S
H827 C842 0.930 . S
C828 H816 0.930 . S
C828 C829 1.399 . S
C828 C833 1.399 . S
C829 C828 1.399 . S
C829 C830 1.376 . S
C830 H817 0.930 . S
C830 C829 1.376 . S
C830 C831 1.388 . S
C831 H818 0.930 . S
C831 C830 1.388 . S
C831 C832 1.390 . S
C832 C831 1.390 . S
C832 C833 1.394 . S
C832 C838 1.465 1_445 S
C833 C828 1.399 . S
C833 C832 1.394 . S
C833 C834 1.516 1_455 S
C834 C833 1.516 1_655 S
C834 C835 1.502 . S
C834 C836 1.561 . S
C834 C837 1.526 1_545 S
C835 H819 0.959 . S
C835 H820 0.959 . S
C835 H821 0.961 . S
C835 C834 1.502 . S
C836 H822 0.960 . S
C836 H823 0.961 1_545 S
C836 H824 0.959 1_645 S
C836 C834 1.561 . S
C837 C834 1.526 1_565 S
C837 C838 1.396 . S
C837 C842 1.390 . S
C838 C832 1.465 1_665 S
C838 C837 1.396 . S
C838 C839 1.399 . S
C839 H825 0.929 1_655 S
C839 C838 1.399 . S
C839 C840 1.385 . S
C840 H826 0.931 . S
C840 C839 1.385 . S
C840 C841 1.389 . S
C841 C840 1.389 . S
C841 C842 1.387 . S
C842 H827 0.930 . S
C842 C837 1.390 . S
C842 C841 1.387 . S
H843 C855 0.930 . S
H844 C857 0.930 . S
H845 C858 0.930 . S
H846 C862 0.959 . S
H847 C862 0.959 . S
H848 C862 0.961 1_655 S
H849 C863 0.960 . S
H850 C863 0.961 1_455 S
H851 C863 0.959 . S
H852 C866 0.929 . S
H853 C867 0.931 . S
H854 C869 0.930 . S
C855 H843 0.930 . S
C855 C856 1.399 . S
C855 C860 1.399 . S
C856 C855 1.399 . S
C856 C857 1.376 . S
C857 H844 0.930 . S
C857 C856 1.376 . S
C857 C858 1.388 . S
C858 H845 0.930 . S
C858 C857 1.388 . S
C858 C859 1.390 . S
C859 C858 1.390 . S
C859 C860 1.394 . S
C859 C865 1.465 1_655 S
C860 C855 1.399 . S
C860 C859 1.394 . S
C860 C861 1.516 1_665 S
C861 C860 1.516 1_445 S
C861 C862 1.502 . S
C861 C863 1.561 1_445 S
C861 C864 1.526 . S
C862 H846 0.959 . S
C862 H847 0.959 . S
C862 H848 0.961 1_455 S
C862 C861 1.502 . S
C863 H849 0.960 . S
C863 H850 0.961 1_655 S
C863 H851 0.959 . S
C863 C861 1.561 1_665 S
C864 C861 1.526 . S
C864 C865 1.396 1_545 S
C864 C869 1.390 . S
C865 C859 1.465 1_455 S
C865 C864 1.396 1_565 S
C865 C866 1.399 . S
C866 H852 0.929 . S
C866 C865 1.399 . S
C866 C867 1.385 1_565 S
C867 H853 0.931 . S
C867 C866 1.385 1_545 S
C867 C868 1.389 . S
C868 C867 1.389 . S
C868 C869 1.387 . S
C869 H854 0.930 . S
C869 C864 1.390 . S
C869 C868 1.387 . S
H870 C882 0.930 . S
H871 C884 0.930 . S
H872 C885 0.930 . S
H873 C889 0.959 . S
H874 C889 0.959 1_455 S
H875 C889 0.961 1_565 S
H876 C890 0.960 . S
H877 C890 0.961 . S
H878 C890 0.959 . S
H879 C893 0.929 . S
H880 C894 0.931 . S
H881 C896 0.930 . S
C882 H870 0.930 . S
C882 C883 1.399 . S
C882 C887 1.399 . S
C883 C882 1.399 . S
C883 C884 1.376 . S
C884 H871 0.930 . S
C884 C883 1.376 . S
C884 C885 1.388 . S
C885 H872 0.930 . S
C885 C884 1.388 . S
C885 C886 1.390 . S
C886 C885 1.390 . S
C886 C887 1.394 . S
C886 C892 1.465 1_665 S
C887 C882 1.399 . S
C887 C886 1.394 . S
C887 C888 1.516 1_655 S
C888 C887 1.516 1_455 S
C888 C889 1.502 1_465 S
C888 C890 1.561 . S
C888 C891 1.526 1_565 S
C889 H873 0.959 . S
C889 H874 0.959 1_655 S
C889 H875 0.961 1_545 S
C889 C888 1.502 1_645 S
C890 H876 0.960 . S
C890 H877 0.961 . S
C890 H878 0.959 . S
C890 C888 1.561 . S
C891 C888 1.526 1_545 S
C891 C892 1.396 . S
C891 C896 1.390 . S
C892 C886 1.465 1_445 S
C892 C891 1.396 . S
C892 C893 1.399 . S
C893 H879 0.929 . S
C893 C892 1.399 . S
C893 C894 1.385 . S
C894 H880 0.931 . S
C894 C893 1.385 . S
C894 C895 1.389 . S
C895 C894 1.389 . S
C895 C896 1.387 . S
C896 H881 0.930 . S
C896 C891 1.390 . S
C896 C895 1.387 . S
H897 C909 0.930 . S
H898 C911 0.930 . S
H899 C912 0.930 . S
H900 C916 0.959 . S
H901 C916 0.959 . S
H902 C916 0.961 . S
H903 C917 0.960 1_565 S
H904 C917 0.961 . S
H905 C917 0.959 . S
H906 C920 0.929 . S
H907 C921 0.931 . S
H908 C923 0.930 . S
C909 H897 0.930 . S
C909 C910 1.399 1_455 S
C909 C914 1.399 . S
C910 C909 1.399 1_655 S
C910 C911 1.376 . S
C911 H898 0.930 . S
C911 C910 1.376 . S
C911 C912 1.388 . S
C912 H899 0.930 . S
C912 C911 1.388 . S
C912 C913 1.390 . S
C913 C912 1.390 . S
C913 C914 1.394 1_655 S
C913 C919 1.465 1_565 S
C914 C909 1.399 . S
C914 C913 1.394 1_455 S
C914 C915 1.516 1_565 S
C915 C914 1.516 1_545 S
C915 C916 1.502 . S
C915 C917 1.561 . S
C915 C918 1.526 . S
C916 H900 0.959 . S
C916 H901 0.959 . S
C916 H902 0.961 . S
C916 C915 1.502 . S
C917 H903 0.960 1_545 S
C917 H904 0.961 . S
C917 H905 0.959 . S
C917 C915 1.561 . S
C918 C915 1.526 . S
C918 C919 1.396 1_455 S
C918 C923 1.390 . S
C919 C913 1.465 1_545 S
C919 C918 1.396 1_655 S
C919 C920 1.399 . S
C920 H906 0.929 . S
C920 C919 1.399 . S
C920 C921 1.385 . S
C921 H907 0.931 . S
C921 C920 1.385 . S
C921 C922 1.389 . S
C922 C921 1.389 . S
C922 C923 1.387 1_655 S
C923 H908 0.930 . S
C923 C918 1.390 . S
C923 C922 1.387 1_455 S
C289 C260 1.654 . S
C301 C7 1.656 . S
C316 N25 1.493 . S
C328 N140 1.540 . S
C343 C53 1.629 . S
C355 C168 1.622 . S
C370 C76 1.654 . S
C382 C191 1.619 . S
C397 N209 1.585 . S
C409 N94 1.518 . S
C424 C122 1.627 . S
C436 C237 1.624 . S
C451 C16 1.619 . S
C463 C246 1.569 . S
C478 N35 1.610 . S
C490 C269 1.581 . S
C505 C62 1.610 . S
C517 N150 1.607 . S
C532 C85 1.606 . S
C544 C177 1.574 . S
C559 C200 1.564 . S
C571 N104 1.596 . S
C586 N219 1.565 . S
C598 C131 1.577 . S
C613 N81 1.398 . S
C625 N12 1.420 . S
C640 C39 1.513 . S
C652 C108 1.484 . S
C667 N127 1.507 . S
C679 N58 1.494 . S
C694 C223 1.511 . S
C706 C154 1.485 . S
C721 N242 1.473 . S
C733 N173 1.472 . S
C748 N196 1.452 . S
C760 N265 1.473 1_455 S
C775 N2 1.439 . S
C787 N71 1.431 . S
C802 C30 1.676 . S
C814 C99 1.660 . S
C829 N117 1.418 . S
C841 N48 1.361 . S
C856 C145 1.674 . S
C868 C214 1.660 . S
C883 N163 1.440 . S
C895 N232 1.429 . S
C910 N186 1.372 . S
C922 N255 1.431 1_655 S
