# Generated by pormake.
# Topology yfq, (5)-cn, num edge types: 1
# Building blocks:
#     Node 0, Type 0, BuildingBlock: XOMCOT_clean_sbu_0, # of connection points: 5
#     Node 1, Type 0, BuildingBlock: XOMCOT_clean_sbu_0, # of connection points: 5
#     Node 2, Type 0, BuildingBlock: XOMCOT_clean_sbu_0, # of connection points: 5
#     Node 3, Type 0, BuildingBlock: XOMCOT_clean_sbu_0, # of connection points: 5
#     Node 4, Type 0, BuildingBlock: XOMCOT_clean_sbu_0, # of connection points: 5
#     Node 5, Type 0, BuildingBlock: XOMCOT_clean_sbu_0, # of connection points: 5
#     Node 6, Type 0, BuildingBlock: XOMCOT_clean_sbu_0, # of connection points: 5
#     Node 7, Type 0, BuildingBlock: XOMCOT_clean_sbu_0, # of connection points: 5
#     Node 8, Type 0, BuildingBlock: XOMCOT_clean_sbu_0, # of connection points: 5
#     Node 9, Type 0, BuildingBlock: XOMCOT_clean_sbu_0, # of connection points: 5
#     Node 10, Type 0, BuildingBlock: XOMCOT_clean_sbu_0, # of connection points: 5
#     Node 11, Type 0, BuildingBlock: XOMCOT_clean_sbu_0, # of connection points: 5
#     Node 12, Type 0, BuildingBlock: XOMCOT_clean_sbu_0, # of connection points: 5
#     Node 13, Type 0, BuildingBlock: XOMCOT_clean_sbu_0, # of connection points: 5
#     Node 14, Type 0, BuildingBlock: XOMCOT_clean_sbu_0, # of connection points: 5
#     Node 15, Type 0, BuildingBlock: XOMCOT_clean_sbu_0, # of connection points: 5
#     Node 16, Type 0, BuildingBlock: XOMCOT_clean_sbu_0, # of connection points: 5
#     Node 17, Type 0, BuildingBlock: XOMCOT_clean_sbu_0, # of connection points: 5
#     Node 18, Type 0, BuildingBlock: XOMCOT_clean_sbu_0, # of connection points: 5
#     Node 19, Type 0, BuildingBlock: XOMCOT_clean_sbu_0, # of connection points: 5
#     Node 20, Type 0, BuildingBlock: XOMCOT_clean_sbu_0, # of connection points: 5
#     Node 21, Type 0, BuildingBlock: XOMCOT_clean_sbu_0, # of connection points: 5
#     Node 22, Type 0, BuildingBlock: XOMCOT_clean_sbu_0, # of connection points: 5
#     Node 23, Type 0, BuildingBlock: XOMCOT_clean_sbu_0, # of connection points: 5
#     Node 24, Type 0, BuildingBlock: XOMCOT_clean_sbu_0, # of connection points: 5
#     Node 25, Type 0, BuildingBlock: XOMCOT_clean_sbu_0, # of connection points: 5
#     Node 26, Type 0, BuildingBlock: XOMCOT_clean_sbu_0, # of connection points: 5
#     Node 27, Type 0, BuildingBlock: XOMCOT_clean_sbu_0, # of connection points: 5
#     Node 28, Type 0, BuildingBlock: XOMCOT_clean_sbu_0, # of connection points: 5
#     Node 29, Type 0, BuildingBlock: XOMCOT_clean_sbu_0, # of connection points: 5
#     Node 30, Type 0, BuildingBlock: XOMCOT_clean_sbu_0, # of connection points: 5
#     Node 31, Type 0, BuildingBlock: XOMCOT_clean_sbu_0, # of connection points: 5
#     Edge 32, Type (0, 0), BuildingBlock: XIVTED_clean_linker_0, # of connection points: 2
#     Edge 33, Type (0, 0), BuildingBlock: XIVTED_clean_linker_0, # of connection points: 2
#     Edge 34, Type (0, 0), BuildingBlock: XIVTED_clean_linker_0, # of connection points: 2
#     Edge 35, Type (0, 0), BuildingBlock: XIVTED_clean_linker_0, # of connection points: 2
#     Edge 36, Type (0, 0), BuildingBlock: XIVTED_clean_linker_0, # of connection points: 2
#     Edge 37, Type (0, 0), BuildingBlock: XIVTED_clean_linker_0, # of connection points: 2
#     Edge 38, Type (0, 0), BuildingBlock: XIVTED_clean_linker_0, # of connection points: 2
#     Edge 39, Type (0, 0), BuildingBlock: XIVTED_clean_linker_0, # of connection points: 2
#     Edge 40, Type (0, 0), BuildingBlock: XIVTED_clean_linker_0, # of connection points: 2
#     Edge 41, Type (0, 0), BuildingBlock: XIVTED_clean_linker_0, # of connection points: 2
#     Edge 42, Type (0, 0), BuildingBlock: XIVTED_clean_linker_0, # of connection points: 2
#     Edge 43, Type (0, 0), BuildingBlock: XIVTED_clean_linker_0, # of connection points: 2
#     Edge 44, Type (0, 0), BuildingBlock: XIVTED_clean_linker_0, # of connection points: 2
#     Edge 45, Type (0, 0), BuildingBlock: XIVTED_clean_linker_0, # of connection points: 2
#     Edge 46, Type (0, 0), BuildingBlock: XIVTED_clean_linker_0, # of connection points: 2
#     Edge 47, Type (0, 0), BuildingBlock: XIVTED_clean_linker_0, # of connection points: 2
#     Edge 48, Type (0, 0), BuildingBlock: XIVTED_clean_linker_0, # of connection points: 2
#     Edge 49, Type (0, 0), BuildingBlock: XIVTED_clean_linker_0, # of connection points: 2
#     Edge 50, Type (0, 0), BuildingBlock: XIVTED_clean_linker_0, # of connection points: 2
#     Edge 51, Type (0, 0), BuildingBlock: XIVTED_clean_linker_0, # of connection points: 2
#     Edge 52, Type (0, 0), BuildingBlock: XIVTED_clean_linker_0, # of connection points: 2
#     Edge 53, Type (0, 0), BuildingBlock: XIVTED_clean_linker_0, # of connection points: 2
#     Edge 54, Type (0, 0), BuildingBlock: XIVTED_clean_linker_0, # of connection points: 2
#     Edge 55, Type (0, 0), BuildingBlock: XIVTED_clean_linker_0, # of connection points: 2
#     Edge 56, Type (0, 0), BuildingBlock: XIVTED_clean_linker_0, # of connection points: 2
#     Edge 57, Type (0, 0), BuildingBlock: XIVTED_clean_linker_0, # of connection points: 2
#     Edge 58, Type (0, 0), BuildingBlock: XIVTED_clean_linker_0, # of connection points: 2
#     Edge 59, Type (0, 0), BuildingBlock: XIVTED_clean_linker_0, # of connection points: 2
#     Edge 60, Type (0, 0), BuildingBlock: XIVTED_clean_linker_0, # of connection points: 2
#     Edge 61, Type (0, 0), BuildingBlock: XIVTED_clean_linker_0, # of connection points: 2
#     Edge 62, Type (0, 0), BuildingBlock: XIVTED_clean_linker_0, # of connection points: 2
#     Edge 63, Type (0, 0), BuildingBlock: XIVTED_clean_linker_0, # of connection points: 2
#     Edge 64, Type (0, 0), BuildingBlock: XIVTED_clean_linker_0, # of connection points: 2
#     Edge 65, Type (0, 0), BuildingBlock: XIVTED_clean_linker_0, # of connection points: 2
#     Edge 66, Type (0, 0), BuildingBlock: XIVTED_clean_linker_0, # of connection points: 2
#     Edge 67, Type (0, 0), BuildingBlock: XIVTED_clean_linker_0, # of connection points: 2
#     Edge 68, Type (0, 0), BuildingBlock: XIVTED_clean_linker_0, # of connection points: 2
#     Edge 69, Type (0, 0), BuildingBlock: XIVTED_clean_linker_0, # of connection points: 2
#     Edge 70, Type (0, 0), BuildingBlock: XIVTED_clean_linker_0, # of connection points: 2
#     Edge 71, Type (0, 0), BuildingBlock: XIVTED_clean_linker_0, # of connection points: 2
#     Edge 72, Type (0, 0), BuildingBlock: XIVTED_clean_linker_0, # of connection points: 2
#     Edge 73, Type (0, 0), BuildingBlock: XIVTED_clean_linker_0, # of connection points: 2
#     Edge 74, Type (0, 0), BuildingBlock: XIVTED_clean_linker_0, # of connection points: 2
#     Edge 75, Type (0, 0), BuildingBlock: XIVTED_clean_linker_0, # of connection points: 2
#     Edge 76, Type (0, 0), BuildingBlock: XIVTED_clean_linker_0, # of connection points: 2
#     Edge 77, Type (0, 0), BuildingBlock: XIVTED_clean_linker_0, # of connection points: 2
#     Edge 78, Type (0, 0), BuildingBlock: XIVTED_clean_linker_0, # of connection points: 2
#     Edge 79, Type (0, 0), BuildingBlock: XIVTED_clean_linker_0, # of connection points: 2
#     Edge 80, Type (0, 0), BuildingBlock: XIVTED_clean_linker_0, # of connection points: 2
#     Edge 81, Type (0, 0), BuildingBlock: XIVTED_clean_linker_0, # of connection points: 2
#     Edge 82, Type (0, 0), BuildingBlock: XIVTED_clean_linker_0, # of connection points: 2
#     Edge 83, Type (0, 0), BuildingBlock: XIVTED_clean_linker_0, # of connection points: 2
#     Edge 84, Type (0, 0), BuildingBlock: XIVTED_clean_linker_0, # of connection points: 2
#     Edge 85, Type (0, 0), BuildingBlock: XIVTED_clean_linker_0, # of connection points: 2
#     Edge 86, Type (0, 0), BuildingBlock: XIVTED_clean_linker_0, # of connection points: 2
#     Edge 87, Type (0, 0), BuildingBlock: XIVTED_clean_linker_0, # of connection points: 2
#     Edge 88, Type (0, 0), BuildingBlock: XIVTED_clean_linker_0, # of connection points: 2
#     Edge 89, Type (0, 0), BuildingBlock: XIVTED_clean_linker_0, # of connection points: 2
#     Edge 90, Type (0, 0), BuildingBlock: XIVTED_clean_linker_0, # of connection points: 2
#     Edge 91, Type (0, 0), BuildingBlock: XIVTED_clean_linker_0, # of connection points: 2
#     Edge 92, Type (0, 0), BuildingBlock: XIVTED_clean_linker_0, # of connection points: 2
#     Edge 93, Type (0, 0), BuildingBlock: XIVTED_clean_linker_0, # of connection points: 2
#     Edge 94, Type (0, 0), BuildingBlock: XIVTED_clean_linker_0, # of connection points: 2
#     Edge 95, Type (0, 0), BuildingBlock: XIVTED_clean_linker_0, # of connection points: 2
#     Edge 96, Type (0, 0), BuildingBlock: XIVTED_clean_linker_0, # of connection points: 2
#     Edge 97, Type (0, 0), BuildingBlock: XIVTED_clean_linker_0, # of connection points: 2
#     Edge 98, Type (0, 0), BuildingBlock: XIVTED_clean_linker_0, # of connection points: 2
#     Edge 99, Type (0, 0), BuildingBlock: XIVTED_clean_linker_0, # of connection points: 2
#     Edge 100, Type (0, 0), BuildingBlock: XIVTED_clean_linker_0, # of connection points: 2
#     Edge 101, Type (0, 0), BuildingBlock: XIVTED_clean_linker_0, # of connection points: 2
#     Edge 102, Type (0, 0), BuildingBlock: XIVTED_clean_linker_0, # of connection points: 2
#     Edge 103, Type (0, 0), BuildingBlock: XIVTED_clean_linker_0, # of connection points: 2
#     Edge 104, Type (0, 0), BuildingBlock: XIVTED_clean_linker_0, # of connection points: 2
#     Edge 105, Type (0, 0), BuildingBlock: XIVTED_clean_linker_0, # of connection points: 2
#     Edge 106, Type (0, 0), BuildingBlock: XIVTED_clean_linker_0, # of connection points: 2
#     Edge 107, Type (0, 0), BuildingBlock: XIVTED_clean_linker_0, # of connection points: 2
#     Edge 108, Type (0, 0), BuildingBlock: XIVTED_clean_linker_0, # of connection points: 2
#     Edge 109, Type (0, 0), BuildingBlock: XIVTED_clean_linker_0, # of connection points: 2
#     Edge 110, Type (0, 0), BuildingBlock: XIVTED_clean_linker_0, # of connection points: 2
#     Edge 111, Type (0, 0), BuildingBlock: XIVTED_clean_linker_0, # of connection points: 2
# Relax obj value: 0.369
# Max RMSD: 0.294
# Mean RMSD: 0.294
data_MOF--net-yfq--node1-XOMCOT_clean_sbu_0--edge1-XIVTED_clean_linker_0
_symmetry_space_group_name_H-M    P1
_symmetry_Int_Tables_number       1
_symmetry_cell_setting            triclinic
loop_
_symmetry_equiv_pos_as_xyz
'x, y, z'
_cell_length_a     59.843652
_cell_length_b     59.692173
_cell_length_c     58.110557
_cell_angle_alpha  89.986859
_cell_angle_beta   89.929462
_cell_angle_gamma 89.938029
loop_
_atom_site_label
_atom_site_type_symbol
_atom_site_fract_x
_atom_site_fract_y
_atom_site_fract_z
_atom_type_partial_charge
Co0 Co 0.0871 0.22204 0.25847 0.0
C1 C 0.08645 0.19158 0.21809 0.0
C2 C 0.06624 0.17876 0.24538 0.0
C3 C 0.06219 0.16636 0.22582 0.0
N4 N 0.08172 0.19458 0.24074 0.0
N5 N 0.07474 0.17463 0.20852 0.0
H6 H 0.09635 0.20311 0.20804 0.0
H7 H 0.05664 0.17756 0.26106 0.0
C8 C 0.07851 0.19066 0.29838 0.0
O9 O 0.09461 0.17732 0.29136 0.0
N10 N 0.09178 0.24964 0.27548 0.0
C11 C 0.10761 0.26511 0.27119 0.0
C12 C 0.10727 0.28082 0.28856 0.0
C13 C 0.08189 0.25624 0.29527 0.0
N14 N 0.09118 0.27518 0.30381 0.0
C15 C 0.13174 0.2077 0.24915 0.0
C16 C 0.14788 0.21507 0.29307 0.0
C17 C 0.16302 0.21107 0.27512 0.0
C18 C 0.15465 0.20647 0.25315 0.0
C19 C 0.12502 0.21584 0.28839 0.0
N20 N 0.11723 0.2128 0.26649 0.0
H21 H 0.126 0.20634 0.23171 0.0
H22 H 0.11373 0.22047 0.30211 0.0
H23 H 0.1193 0.26444 0.257 0.0
H24 H 0.06853 0.24708 0.30353 0.0
O25 O 0.09375 0.2379 0.23013 0.0
O26 O 0.06006 0.23387 0.246 0.0
O27 O 0.07365 0.20829 0.28703 0.0
C28 C 0.07232 0.24138 0.22918 0.0
H29 H 0.04976 0.15332 0.2242 0.0
H30 H 0.11876 0.2947 0.29033 0.0
H31 H 0.15372 0.21874 0.31029 0.0
H32 H 0.16579 0.2038 0.2387 0.0
Co33 Co 0.04106 0.83955 0.53182 0.0
C34 C 0.0689 0.85885 0.49601 0.0
C35 C 0.08836 0.8383 0.51854 0.0
C36 C 0.10034 0.84187 0.49869 0.0
N37 N 0.06861 0.8491 0.51708 0.0
N38 N 0.08782 0.85426 0.48415 0.0
H39 H 0.05407 0.86581 0.48809 0.0
H40 H 0.09248 0.82598 0.53152 0.0
C41 C 0.07096 0.84785 0.57458 0.0
O42 O 0.08867 0.85449 0.56321 0.0
N43 N 0.01302 0.82989 0.54578 0.0
C44 C -0.00295 0.81641 0.53696 0.0
C45 C 0.97987 0.81451 0.55268 0.0
C46 C 0.00509 0.83616 0.56659 0.0
N47 N 0.98506 0.82684 0.57133 0.0
C48 C 0.01023 0.87306 0.51882 0.0
C49 C 0.03246 0.90903 0.53812 0.0
C50 C 0.01254 0.9128 0.52598 0.0
C51 C 0.00135 0.89446 0.51638 0.0
C52 C 0.04084 0.88725 0.5401 0.0
N53 N 0.02964 0.8697 0.53055 0.0
H54 H 0.00156 0.85905 0.51117 0.0
H55 H 0.0565 0.88456 0.54886 0.0
H56 H -0.00241 0.80842 0.5203 0.0
H57 H 0.01352 0.8477 0.57793 0.0
O58 O 0.03134 0.82914 0.50199 0.0
O59 O 0.05003 0.80888 0.52765 0.0
O60 O 0.05262 0.84349 0.56432 0.0
C61 C 0.04101 0.8103 0.50733 0.0
H62 H 0.11586 0.83361 0.49427 0.0
H63 H 0.96498 0.80441 0.55076 0.0
H64 H 0.04176 0.92282 0.54551 0.0
H65 H 0.9858 0.8966 0.5071 0.0
Co66 Co 0.39895 0.76207 0.75442 0.0
C67 C 0.39059 0.7961 0.71846 0.0
C68 C 0.41198 0.80904 0.74469 0.0
C69 C 0.4114 0.82412 0.72667 0.0
N70 N 0.39862 0.7915 0.73971 0.0
N71 N 0.39799 0.81585 0.71008 0.0
H72 H 0.38184 0.7841 0.70801 0.0
H73 H 0.42294 0.81001 0.75942 0.0
C74 C 0.39861 0.79289 0.79614 0.0
O75 O 0.38264 0.80542 0.78744 0.0
N76 N 0.39951 0.73271 0.76858 0.0
C77 C 0.38938 0.71415 0.76057 0.0
C78 C 0.39176 0.69727 0.77657 0.0
C79 C 0.40785 0.72693 0.78934 0.0
N80 N 0.40325 0.70538 0.79471 0.0
C81 C 0.35316 0.76171 0.7406 0.0
C82 C 0.3349 0.76121 0.78427 0.0
C83 C 0.32062 0.76128 0.76518 0.0
C84 C 0.33006 0.76129 0.74313 0.0
C85 C 0.358 0.76158 0.78092 0.0
N86 N 0.36687 0.76286 0.75928 0.0
H87 H 0.35993 0.76007 0.72355 0.0
H88 H 0.36867 0.76016 0.7958 0.0
H89 H 0.38023 0.71317 0.74457 0.0
H90 H 0.41686 0.73827 0.80046 0.0
O91 O 0.40002 0.74843 0.72399 0.0
O92 O 0.42931 0.75859 0.74506 0.0
O93 O 0.40576 0.77576 0.78527 0.0
C94 C 0.42158 0.75046 0.72594 0.0
H95 H 0.42122 0.83927 0.72538 0.0
H96 H 0.38476 0.6806 0.77534 0.0
H97 H 0.32835 0.76063 0.80164 0.0
H98 H 0.31972 0.76011 0.72788 0.0
Co99 Co 0.48227 0.13737 0.0262 0.0
C100 C 0.455 0.14014 0.98463 0.0
C101 C 0.44503 0.16522 1.00901 0.0
C102 C 0.43398 0.16903 0.98852 0.0
N103 N 0.45822 0.14712 1.00644 0.0
N104 N 0.4405 0.15337 0.97311 0.0
H105 H 0.46417 0.12641 0.97698 0.0
H106 H 0.44468 0.17583 0.0241 0.0
C107 C 0.46492 0.1382 0.07437 0.0
O108 O 0.47401 0.11835 0.0773 0.0
N109 N 0.50699 0.12804 0.04576 0.0
C110 C 0.51916 0.10899 0.0456 0.0
C111 C 0.53507 0.11018 0.06268 0.0
C112 C 0.51615 0.14072 0.06253 0.0
N113 N 0.53311 0.13012 0.07338 0.0
C114 C 0.47909 0.09182 0.01231 0.0
C115 C 0.43992 0.08147 0.03523 0.0
C116 C 0.45076 0.06493 0.02234 0.0
C117 C 0.47027 0.0704 0.01041 0.0
C118 C 0.44908 0.10301 0.03616 0.0
N119 N 0.46921 0.10756 0.02597 0.0
H120 H 0.49405 0.09564 1.00275 0.0
H121 H 0.43975 0.11596 0.04483 0.0
H122 H 0.51708 0.09511 0.03399 0.0
H123 H 0.50998 0.15718 0.06706 0.0
O124 O 0.50128 0.1349 0.99923 0.0
O125 O 0.49735 0.16521 0.02103 0.0
O126 O 0.46503 0.14729 0.05444 0.0
C127 C 0.50628 0.1557 1.00313 0.0
H128 H 0.42328 0.1832 0.98479 0.0
H129 H 0.54727 0.09738 0.06669 0.0
H130 H 0.42445 0.07785 0.04417 0.0
H131 H 0.47896 0.05803 1.00008 0.0
Co132 Co 0.0867 0.7898 0.26425 0.0
C133 C 0.09412 0.81957 0.30368 0.0
C134 C 0.0788 0.83771 0.27628 0.0
C135 C 0.07792 0.85064 0.2961 0.0
N136 N 0.08912 0.81812 0.28104 0.0
N137 N 0.08728 0.8389 0.31341 0.0
H138 H 0.10055 0.80584 0.31362 0.0
H139 H 0.07044 0.84152 0.26027 0.0
C140 C 0.09242 0.82054 0.22236 0.0
O141 O 0.11139 0.82919 0.2294 0.0
N142 N 0.08412 0.76134 0.2483 0.0
C143 C 0.09202 0.74173 0.25642 0.0
C144 C 0.09041 0.72579 0.23947 0.0
C145 C 0.07773 0.75702 0.22641 0.0
N146 N 0.08159 0.73539 0.22053 0.0
C147 C 0.13156 0.78534 0.28009 0.0
C148 C 0.15125 0.77955 0.2375 0.0
C149 C 0.16447 0.7781 0.25733 0.0
C150 C 0.15434 0.78112 0.27879 0.0
C151 C 0.12841 0.78408 0.23961 0.0
N152 N 0.11891 0.78752 0.26073 0.0
H153 H 0.12404 0.78533 0.29681 0.0
H154 H 0.11827 0.78385 0.22427 0.0
H155 H 0.09942 0.73936 0.27321 0.0
H156 H 0.0715 0.76959 0.21464 0.0
O157 O 0.08304 0.77407 0.29332 0.0
O158 O 0.05578 0.78898 0.27233 0.0
O159 O 0.0822 0.8058 0.23421 0.0
C160 C 0.06187 0.77848 0.29087 0.0
H161 H 0.06924 0.86645 0.29804 0.0
H162 H 0.09576 0.70852 0.24089 0.0
H163 H 0.15838 0.77677 0.2206 0.0
H164 H 0.16371 0.77903 0.29459 0.0
Co165 Co 0.45191 0.83432 0.49512 0.0
C166 C 0.42182 0.84844 0.53184 0.0
C167 C 0.40391 0.83054 0.50596 0.0
C168 C 0.39069 0.83203 0.52538 0.0
N169 N 0.42349 0.84101 0.50992 0.0
N170 N 0.40217 0.84301 0.54187 0.0
H171 H 0.43587 0.85468 0.54143 0.0
H172 H 0.40042 0.82034 0.49101 0.0
C173 C 0.42276 0.84893 0.45397 0.0
O174 O 0.4072 0.8584 0.46659 0.0
N175 N 0.48058 0.82741 0.48137 0.0
C176 C 0.50077 0.83064 0.49105 0.0
C177 C 0.51704 0.82701 0.47468 0.0
C178 C 0.48486 0.82131 0.45944 0.0
N179 N 0.50699 0.82131 0.45475 0.0
C180 C 0.47231 0.86914 0.5214 0.0
C181 C 0.47024 0.9025 0.48859 0.0
C182 C 0.47983 0.90723 0.51003 0.0
C183 C 0.4808 0.89024 0.52652 0.0
C184 C 0.4616 0.88115 0.48424 0.0
N185 N 0.4624 0.86478 0.5007 0.0
H186 H 0.47397 0.85623 0.53424 0.0
H187 H 0.45473 0.87798 0.46747 0.0
H188 H 0.5035 0.83602 0.50857 0.0
H189 H 0.47203 0.81773 0.44695 0.0
O190 O 0.46137 0.81999 0.52348 0.0
O191 O 0.44389 0.80322 0.49462 0.0
O192 O 0.44053 0.84114 0.46312 0.0
C193 C 0.4524 0.80193 0.51511 0.0
H194 H 0.37471 0.82387 0.5277 0.0
H195 H 0.53485 0.82885 0.47719 0.0
H196 H 0.46934 0.91522 0.47532 0.0
H197 H 0.48856 0.89306 0.5431 0.0
Co198 Co 0.40878 0.22313 0.75792 0.0
C199 C 0.40769 0.19062 0.79635 0.0
C200 C 0.42647 0.17781 0.76797 0.0
C201 C 0.42965 0.16389 0.78666 0.0
N202 N 0.41234 0.19451 0.77389 0.0
N203 N 0.41785 0.17209 0.80454 0.0
H204 H 0.39965 0.20256 0.80751 0.0
H205 H 0.43562 0.17688 0.75196 0.0
C206 C 0.40697 0.19041 0.71804 0.0
O207 O 0.39253 0.17778 0.72908 0.0
N208 N 0.40569 0.25177 0.74251 0.0
C209 C 0.39349 0.26936 0.74983 0.0
C210 C 0.39343 0.28555 0.7329 0.0
C211 C 0.41298 0.25751 0.72134 0.0
N212 N 0.40564 0.27805 0.71491 0.0
C213 C 0.36467 0.21979 0.776 0.0
C214 C 0.34258 0.22324 0.73445 0.0
C215 C 0.33022 0.22365 0.75495 0.0
C216 C 0.34153 0.2214 0.77585 0.0
C217 C 0.36583 0.22133 0.73537 0.0
N218 N 0.37663 0.21957 0.75602 0.0
H219 H 0.37288 0.22061 0.79235 0.0
H220 H 0.37517 0.22278 0.71954 0.0
H221 H 0.38461 0.27005 0.76604 0.0
H222 H 0.4227 0.24651 0.71049 0.0
O223 O 0.4107 0.23842 0.78732 0.0
O224 O 0.43938 0.22953 0.76465 0.0
O225 O 0.41416 0.20846 0.72715 0.0
C226 C 0.43216 0.238 0.78388 0.0
H227 H 0.44099 0.14977 0.7874 0.0
H228 H 0.38479 0.30145 0.73373 0.0
H229 H 0.33446 0.22531 0.71794 0.0
H230 H 0.33276 0.22259 0.79213 0.0
Co231 Co 0.00993 0.13832 0.98543 0.0
C232 C 0.03638 0.143 0.0281 0.0
C233 C 0.04646 0.16695 1.00276 0.0
C234 C 0.05696 0.17199 0.02326 0.0
N235 N 0.0338 0.14848 1.00567 0.0
N236 N 0.05041 0.15701 0.03927 0.0
H237 H 0.02706 0.13 0.0366 0.0
H238 H 0.04679 0.17704 0.98731 0.0
C239 C 0.04981 0.14177 0.95278 0.0
O240 O 0.06438 0.13586 0.96855 0.0
N241 N 0.98575 0.12867 0.96573 0.0
C242 C 0.97183 0.11123 0.96901 0.0
C243 C 0.95627 0.11104 0.95155 0.0
C244 C 0.97834 0.13902 0.94656 0.0
N245 N 0.96033 0.12858 0.9375 0.0
C246 C 0.01117 0.09695 0.0101 0.0
C247 C 0.0321 0.07178 0.97651 0.0
C248 C 0.02505 0.06117 0.99678 0.0
C249 C 0.01458 0.07416 0.01374 0.0
C250 C 0.02816 0.09465 0.97346 0.0
N251 N 0.01818 0.10711 0.99033 0.0
H252 H 0.00182 0.10616 0.02283 0.0
H253 H 0.03226 0.10179 0.95701 0.0
H254 H 0.97254 0.09972 0.98334 0.0
H255 H 0.98589 0.154 0.93954 0.0
O256 O 0.98877 0.14272 0.01056 0.0
O257 O -0.00136 0.1681 0.98441 0.0
O258 O 0.02893 0.14177 0.95716 0.0
C259 C 0.9869 0.16295 1.00237 0.0
H260 H 0.06723 0.18656 0.02651 0.0
H261 H 0.94259 0.09933 0.94978 0.0
H262 H 0.04006 0.06243 0.9628 0.0
H263 H 0.00798 0.06664 0.02928 0.0
Co264 Co 0.89843 0.78356 0.76011 0.0
C265 C 0.89618 0.81558 0.79901 0.0
C266 C 0.91399 0.8297 0.77064 0.0
C267 C 0.9166 0.84354 0.78951 0.0
N268 N 0.90089 0.81216 0.77646 0.0
N269 N 0.90529 0.83457 0.8073 0.0
H270 H 0.8885 0.80326 0.81009 0.0
H271 H 0.92289 0.83142 0.75456 0.0
C272 C 0.90002 0.8142 0.71819 0.0
O273 O 0.88225 0.82551 0.72465 0.0
N274 N 0.89659 0.75493 0.74432 0.0
C275 C 0.88425 0.73725 0.75106 0.0
C276 C 0.88565 0.72081 0.73452 0.0
C277 C 0.90541 0.74896 0.72377 0.0
N278 N 0.89886 0.72817 0.71724 0.0
C279 C 0.85321 0.79061 0.7734 0.0
C280 C 0.83437 0.78225 0.7309 0.0
C281 C 0.82043 0.78476 0.75015 0.0
C282 C 0.83014 0.78952 0.77145 0.0
C283 C 0.85754 0.78381 0.73357 0.0
N284 N 0.86671 0.78783 0.75472 0.0
H285 H 0.86008 0.79198 0.79035 0.0
H286 H 0.86813 0.78053 0.71888 0.0
H287 H 0.87438 0.73659 0.76665 0.0
H288 H 0.91575 0.75991 0.71346 0.0
O289 O 0.89675 0.76794 0.78933 0.0
O290 O 0.92793 0.77659 0.77033 0.0
O291 O 0.90749 0.79805 0.73031 0.0
C292 C 0.91846 0.76794 0.78841 0.0
H293 H 0.9271 0.85826 0.79043 0.0
H294 H 0.87737 0.70473 0.73521 0.0
H295 H 0.82749 0.7783 0.71415 0.0
H296 H 0.8201 0.79075 0.78693 0.0
Co297 Co 0.94316 0.1464 0.48807 0.0
C298 C 0.91419 0.13491 0.52632 0.0
C299 C 0.8953 0.15169 0.50015 0.0
C300 C 0.88241 0.1502 0.5199 0.0
N301 N 0.91527 0.14216 0.50435 0.0
N302 N 0.89445 0.13979 0.53643 0.0
H303 H 0.92855 0.12849 0.53549 0.0
H304 H 0.89114 0.16081 0.48465 0.0
C305 C 0.93614 0.13293 0.43913 0.0
O306 O 0.9535 0.11955 0.44102 0.0
N307 N 0.97189 0.15109 0.47262 0.0
C308 C 0.99218 0.14501 0.48051 0.0
C309 C 0.00812 0.15057 0.46459 0.0
C310 C 0.97616 0.16152 0.45233 0.0
N311 N -0.00185 0.16077 0.4466 0.0
C312 C 0.96407 0.10833 0.50879 0.0
C313 C 0.94019 0.07581 0.48574 0.0
C314 C 0.95691 0.06924 0.50122 0.0
C315 C 0.96863 0.08587 0.5131 0.0
C316 C 0.93616 0.0986 0.48197 0.0
N317 N 0.94907 0.11456 0.49231 0.0
H318 H 0.97232 0.12066 0.51927 0.0
H319 H 0.92237 0.10331 0.47104 0.0
H320 H -0.00432 0.1373 0.49681 0.0
H321 H 0.96337 0.16928 0.44191 0.0
O322 O 0.956 0.15784 0.51628 0.0
O323 O 0.93891 0.17819 0.48957 0.0
O324 O 0.92806 0.14228 0.45715 0.0
C325 C 0.94878 0.17729 0.50946 0.0
H326 H 0.86602 0.15752 0.52228 0.0
H327 H 0.0257 0.14677 0.46619 0.0
H328 H 0.93002 0.06349 0.47697 0.0
H329 H 0.98136 0.08166 0.52561 0.0
Co330 Co 0.59755 0.21929 0.25576 0.0
C331 C 0.60259 0.19033 0.29679 0.0
C332 C 0.58602 0.17285 0.26967 0.0
C333 C 0.58549 0.15973 0.28922 0.0
N334 N 0.59727 0.19192 0.27421 0.0
N335 N 0.59587 0.17084 0.30636 0.0
H336 H 0.60895 0.20408 0.30679 0.0
H337 H 0.57727 0.16933 0.25382 0.0
C338 C 0.60408 0.18387 0.21865 0.0
O339 O 0.61842 0.17259 0.23126 0.0
N340 N 0.59741 0.24673 0.23803 0.0
C341 C 0.60889 0.26545 0.24313 0.0
C342 C 0.60538 0.28097 0.226 0.0
C343 C 0.58682 0.25115 0.21802 0.0
N344 N 0.59156 0.27197 0.21015 0.0
C345 C 0.64108 0.2238 0.27511 0.0
C346 C 0.66472 0.22143 0.23432 0.0
C347 C 0.67629 0.22503 0.25494 0.0
C348 C 0.66417 0.22607 0.2755 0.0
C349 C 0.64148 0.21921 0.23472 0.0
N350 N 0.62998 0.21974 0.25506 0.0
H351 H 0.63214 0.22647 0.29089 0.0
H352 H 0.63275 0.21811 0.21853 0.0
H353 H 0.61933 0.26757 0.25816 0.0
H354 H 0.57625 0.23924 0.20924 0.0
O355 O 0.59243 0.23678 0.2834 0.0
O356 O 0.56614 0.22196 0.26101 0.0
O357 O 0.59531 0.20194 0.22614 0.0
C358 C 0.57136 0.23329 0.27932 0.0
H359 H 0.57703 0.14381 0.29088 0.0
H360 H 0.61245 0.29764 0.22534 0.0
H361 H 0.67341 0.22131 0.21796 0.0
H362 H 0.6724 0.22912 0.29179 0.0
Co363 Co 0.51486 0.83776 0.99577 0.0
C364 C 0.54206 0.85321 0.03438 0.0
C365 C 0.5626 0.83904 1.00801 0.0
C366 C 0.57526 0.84152 0.02766 0.0
N367 N 0.54175 0.84663 0.01211 0.0
N368 N 0.56219 0.85013 0.04443 0.0
H369 H 0.52714 0.85729 0.0439 0.0
H370 H 0.56767 0.83021 0.99261 0.0
C371 C 0.54398 0.85729 0.95686 0.0
O372 O 0.557 0.86895 0.9705 0.0
N373 N 0.4877 0.82862 0.98036 0.0
C374 C 0.46698 0.82915 0.98945 0.0
C375 C 0.45175 0.8245 0.97238 0.0
C376 C 0.48483 0.82323 0.95799 0.0
N377 N 0.46298 0.82093 0.95257 0.0
C378 C 0.49004 0.87018 0.02146 0.0
C379 C 0.4888 0.90301 0.98806 0.0
C380 C 0.47751 0.90666 1.00888 0.0
C381 C 0.47823 0.8899 0.02569 0.0
C382 C 0.50031 0.88298 0.98446 0.0
N383 N 0.50119 0.86693 1.0012 0.0
H384 H 0.48965 0.8573 0.03445 0.0
H385 H 0.50789 0.88052 0.9679 0.0
H386 H 0.46312 0.83332 1.00711 0.0
H387 H 0.49834 0.82177 0.94576 0.0
O388 O 0.50531 0.82197 0.02327 0.0
O389 O 0.52572 0.80758 0.99502 0.0
O390 O 0.52735 0.84635 0.96475 0.0
C391 C 0.51618 0.80493 0.0149 0.0
H392 H 0.59226 0.8357 0.02979 0.0
H393 H 0.43377 0.82411 0.97437 0.0
H394 H 0.48886 0.91555 0.97459 0.0
H395 H 0.46938 0.89174 0.04185 0.0
Co396 Co 0.89669 0.20709 0.75404 0.0
C397 C 0.88435 0.17676 0.71612 0.0
C398 C 0.90361 0.15958 0.74156 0.0
C399 C 0.90166 0.14597 0.72247 0.0
N400 N 0.89246 0.17888 0.73773 0.0
N401 N 0.88966 0.15692 0.70633 0.0
H402 H 0.87699 0.19035 0.70663 0.0
H403 H 0.91396 0.15633 0.75644 0.0
C404 C 0.88432 0.17446 0.79255 0.0
O405 O 0.87213 0.16181 0.77902 0.0
N406 N 0.901 0.23563 0.76938 0.0
C407 C 0.89622 0.25564 0.75994 0.0
C408 C 0.89847 0.27196 0.77641 0.0
C409 C 0.90629 0.24008 0.79154 0.0
N410 N 0.90475 0.26227 0.79641 0.0
C411 C 0.85764 0.22306 0.73102 0.0
C412 C 0.82951 0.22268 0.76871 0.0
C413 C 0.82154 0.23089 0.74769 0.0
C414 C 0.83585 0.2309 0.72867 0.0
C415 C 0.85141 0.21472 0.77027 0.0
N416 N 0.86511 0.21451 0.75142 0.0
H417 H 0.86875 0.22487 0.71655 0.0
H418 H 0.85739 0.2098 0.78697 0.0
H419 H 0.89055 0.25814 0.74247 0.0
H420 H 0.91089 0.22737 0.80386 0.0
O421 O 0.90796 0.22009 0.72562 0.0
O422 O 0.9283 0.20271 0.75208 0.0
O423 O 0.89325 0.19246 0.78509 0.0
C424 C 0.9274 0.21285 0.73235 0.0
H425 H 0.90968 0.12987 0.72021 0.0
H426 H 0.89474 0.28953 0.77392 0.0
H427 H 0.81903 0.22274 0.78392 0.0
H428 H 0.83057 0.23784 0.71232 0.0
Co429 Co 0.53222 0.14162 0.52483 0.0
C430 C 0.56214 0.1396 0.4844 0.0
C431 C 0.57833 0.15617 0.51235 0.0
C432 C 0.59146 0.15833 0.49289 0.0
N433 N 0.55998 0.14404 0.50715 0.0
N434 N 0.58115 0.1479 0.47528 0.0
H435 H 0.54899 0.13263 0.47397 0.0
H436 H 0.58123 0.1646 0.5285 0.0
C437 C 0.56491 0.14279 0.56555 0.0
O438 O 0.57762 0.12663 0.55748 0.0
N439 N 0.50445 0.13964 0.54182 0.0
C440 C 0.4872 0.12592 0.53715 0.0
C441 C 0.47119 0.12855 0.554 0.0
C442 C 0.49865 0.15059 0.56124 0.0
N443 N 0.47842 0.14403 0.56921 0.0
C444 C 0.53676 0.09661 0.50946 0.0
C445 C 0.53425 0.07636 0.55213 0.0
C446 C 0.53478 0.06291 0.53232 0.0
C447 C 0.53638 0.0734 0.51084 0.0
C448 C 0.53488 0.09972 0.54995 0.0
N449 N 0.53624 0.10957 0.52875 0.0
H450 H 0.53598 0.10405 0.49268 0.0
H451 H 0.53306 0.10985 0.56524 0.0
H452 H 0.48652 0.11449 0.52273 0.0
H453 H 0.50927 0.16267 0.56968 0.0
O454 O 0.51521 0.1416 0.49638 0.0
O455 O 0.52548 0.17175 0.51629 0.0
O456 O 0.54774 0.14934 0.55445 0.0
C457 C 0.51575 0.16331 0.4983 0.0
H458 H 0.60672 0.16794 0.4916 0.0
H459 H 0.45545 0.11969 0.55492 0.0
H460 H 0.53267 0.06895 0.56906 0.0
H461 H 0.53587 0.06382 0.49502 0.0
Co462 Co 0.58252 0.77191 0.25864 0.0
C463 C 0.58472 0.80527 0.22094 0.0
C464 C 0.56434 0.81719 0.24855 0.0
C465 C 0.56227 0.83173 0.23018 0.0
N466 N 0.57877 0.80067 0.24294 0.0
N467 N 0.57508 0.82411 0.21276 0.0
H468 H 0.59372 0.79376 0.21004 0.0
H469 H 0.55444 0.81776 0.26409 0.0
C470 C 0.57921 0.80275 0.30024 0.0
O471 O 0.59449 0.81641 0.29207 0.0
N472 N 0.58584 0.74324 0.2739 0.0
C473 C 0.60068 0.72709 0.26857 0.0
C474 C 0.60051 0.7112 0.28579 0.0
C475 C 0.57666 0.73684 0.29408 0.0
N476 N 0.5855 0.71741 0.30199 0.0
C477 C 0.62778 0.77894 0.24509 0.0
C478 C 0.64615 0.77529 0.28852 0.0
C479 C 0.66037 0.7766 0.26938 0.0
C480 C 0.65088 0.7789 0.24751 0.0
C481 C 0.62303 0.77545 0.28531 0.0
N482 N 0.61408 0.77738 0.26377 0.0
H483 H 0.62112 0.77848 0.22798 0.0
H484 H 0.61244 0.77257 0.30006 0.0
H485 H 0.61177 0.72751 0.25386 0.0
H486 H 0.56425 0.74662 0.3031 0.0
O487 O 0.58416 0.75716 0.22888 0.0
O488 O 0.55317 0.76381 0.24898 0.0
O489 O 0.57343 0.78538 0.28898 0.0
C490 C 0.5625 0.75611 0.23039 0.0
H491 H 0.55117 0.84602 0.22935 0.0
H492 H 0.61152 0.69685 0.28678 0.0
H493 H 0.65278 0.77323 0.30572 0.0
H494 H 0.66116 0.77904 0.23215 0.0
Co495 Co 0.96525 0.8268 0.02624 0.0
C496 C 0.93934 0.84715 0.98949 0.0
C497 C 0.91863 0.82601 0.0102 0.0
C498 C 0.90751 0.83076 0.99005 0.0
N499 N 0.9386 0.83642 0.00997 0.0
N500 N 0.92072 0.84377 0.97674 0.0
H501 H 0.95433 0.8551 0.9831 0.0
H502 H 0.9136 0.81363 0.02277 0.0
C503 C 0.93371 0.83716 0.06712 0.0
O504 O 0.91703 0.84486 0.0548 0.0
N505 N 0.99228 0.81737 0.0421 0.0
C506 C 0.0072 0.80123 0.03669 0.0
C507 C 0.02356 0.80067 0.05346 0.0
C508 C -3e-05 0.82649 0.06183 0.0
N509 N 0.01886 0.8165 0.06932 0.0
C510 C -0.00308 0.85965 0.01297 0.0
C511 C 0.97514 0.89601 0.03222 0.0
C512 C -0.00471 0.89939 0.02041 0.0
C513 C 0.00622 0.88093 0.01066 0.0
C514 C 0.96627 0.87448 0.03387 0.0
N515 N 0.97726 0.8567 0.02444 0.0
H516 H 0.00545 0.84543 1.00551 0.0
H517 H 0.9504 0.8722 0.04232 0.0
H518 H 0.00632 0.7904 0.02182 0.0
H519 H 0.99189 0.84034 0.07052 0.0
O520 O 0.97605 0.81477 0.99724 0.0
O521 O 0.95569 0.79637 0.02309 0.0
O522 O 0.95228 0.83188 0.05779 0.0
C523 C 0.96529 0.79663 1.00301 0.0
H524 H 0.89204 0.82303 0.98463 0.0
H525 H 0.03744 0.78906 0.05424 0.0
H526 H 0.96601 0.90997 0.03958 0.0
H527 H 0.02184 0.88292 1.00145 0.0
Co528 Co 0.58247 0.73988 0.76128 0.0
C529 C 0.58357 0.70698 0.72287 0.0
C530 C 0.56254 0.69592 0.75034 0.0
C531 C 0.55966 0.68175 0.73185 0.0
N532 N 0.57789 0.71163 0.74493 0.0
N533 N 0.57289 0.68882 0.71454 0.0
H534 H 0.5929 0.71811 0.71194 0.0
H535 H 0.55262 0.69581 0.7659 0.0
C536 C 0.58383 0.70575 0.79926 0.0
O537 O 0.59782 0.6938 0.78684 0.0
N538 N 0.58641 0.76807 0.77715 0.0
C539 C 0.60087 0.78445 0.7715 0.0
C540 C 0.59986 0.80092 0.78809 0.0
C541 C 0.57658 0.77485 0.79687 0.0
N542 N 0.58459 0.79485 0.80401 0.0
C543 C 0.62644 0.73587 0.74278 0.0
C544 C 0.64894 0.73686 0.78421 0.0
C545 C 0.66116 0.73732 0.76363 0.0
C546 C 0.64963 0.73637 0.74278 0.0
C547 C 0.6256 0.73594 0.78344 0.0
N548 N 0.61459 0.73525 0.76284 0.0
H549 H 0.6182 0.73797 0.72657 0.0
H550 H 0.61643 0.7373 0.79939 0.0
H551 H 0.61177 0.78418 0.75664 0.0
H552 H 0.56435 0.76503 0.80616 0.0
O553 O 0.58092 0.75553 0.73207 0.0
O554 O 0.55203 0.74762 0.75475 0.0
O555 O 0.57692 0.72467 0.79184 0.0
C556 C 0.55947 0.75604 0.73557 0.0
H557 H 0.54771 0.66819 0.73079 0.0
H558 H 0.60965 0.81615 0.78843 0.0
H559 H 0.65728 0.73813 0.80069 0.0
H560 H 0.65836 0.73777 0.72649 0.0
Co561 Co 0.5183 0.32437 0.01627 0.0
C562 C 0.54188 0.34837 0.98011 0.0
C563 C 0.5648 0.33014 1.00121 0.0
C564 C 0.57542 0.33584 0.98102 0.0
N565 N 0.5437 0.33808 1.00079 0.0
N566 N 0.56085 0.34691 0.96742 0.0
H567 H 0.52605 0.35422 0.97343 0.0
H568 H 0.57112 0.3184 0.01381 0.0
C569 C 0.54824 0.33672 0.0576 0.0
O570 O 0.56265 0.34839 0.04551 0.0
N571 N 0.49258 0.31047 0.03107 0.0
C572 C 0.4804 0.29281 0.02388 0.0
C573 C 0.46385 0.28859 0.03976 0.0
C574 C 0.48306 0.31679 0.05119 0.0
N575 N 0.46549 0.30366 0.05699 0.0
C576 C 0.4826 0.35416 1.00551 0.0
C577 C 0.50072 0.39155 0.02642 0.0
C578 C 0.48001 0.39342 0.01536 0.0
C579 C 0.47094 0.37444 1.0047 0.0
C580 C 0.51189 0.37108 0.02659 0.0
N581 N 0.50272 0.35271 0.01642 0.0
H582 H 0.47555 0.33953 0.99732 0.0
H583 H 0.5281 0.37019 0.03448 0.0
H584 H 0.48319 0.28339 1.00829 0.0
H585 H 0.48881 0.33089 0.06125 0.0
O586 O 0.50913 0.31301 0.98634 0.0
O587 O 0.53164 0.29573 0.01113 0.0
O588 O 0.53059 0.32881 0.04835 0.0
C589 C 0.52225 0.29614 0.99098 0.0
H590 H 0.59166 0.32973 0.97572 0.0
H591 H 0.45185 0.27508 0.03883 0.0
H592 H 0.50855 0.40597 0.03435 0.0
H593 H 0.455 0.37525 0.99593 0.0
Co594 Co 0.91665 0.2778 0.25608 0.0
C595 C 0.89894 0.31021 0.22283 0.0
C596 C 0.91877 0.3264 0.24847 0.0
C597 C 0.91563 0.34106 0.23043 0.0
N598 N 0.90825 0.30696 0.24378 0.0
N599 N 0.90344 0.33069 0.21409 0.0
H600 H 0.89194 0.29686 0.21263 0.0
H601 H 0.9302 0.32889 0.26264 0.0
C602 C 0.90914 0.30564 0.29961 0.0
O603 O 0.89308 0.31768 0.2904 0.0
N604 N 0.92522 0.24847 0.26797 0.0
C605 C 0.93343 0.23087 0.25606 0.0
C606 C 0.93608 0.21299 0.27079 0.0
C607 C 0.92286 0.24083 0.28979 0.0
N608 N 0.92938 0.21923 0.29202 0.0
C609 C 0.87502 0.26198 0.23874 0.0
C610 C 0.85195 0.26173 0.2799 0.0
C611 C 0.84071 0.25587 0.25966 0.0
C612 C 0.85263 0.2557 0.23894 0.0
C613 C 0.87441 0.26791 0.27893 0.0
N614 N 0.88548 0.26885 0.25837 0.0
H615 H 0.88385 0.26127 0.2226 0.0
H616 H 0.8827 0.27147 0.2949 0.0
H617 H 0.93696 0.23069 0.23783 0.0
H618 H 0.91641 0.25081 0.3038 0.0
O619 O 0.92316 0.26822 0.22475 0.0
O620 O 0.94704 0.2846 0.2486 0.0
O621 O 0.91826 0.2897 0.28841 0.0
C622 C 0.94283 0.27682 0.22821 0.0
H623 H 0.92352 0.35727 0.22861 0.0
H624 H 0.94196 0.19648 0.26602 0.0
H625 H 0.84355 0.26131 0.29642 0.0
H626 H 0.84466 0.25116 0.22288 0.0
Co627 Co 0.96715 0.65316 0.52597 0.0
C628 C 0.9374 0.65036 0.48556 0.0
C629 C 0.91909 0.66276 0.51444 0.0
C630 C 0.90524 0.66282 0.49536 0.0
N631 N 0.93926 0.65441 0.50838 0.0
N632 N 0.91687 0.65479 0.47727 0.0
H633 H 0.95121 0.64557 0.47464 0.0
H634 H 0.91484 0.66945 0.53113 0.0
C635 C 0.93563 0.65184 0.56768 0.0
O636 O 0.92496 0.63392 0.56054 0.0
N637 N -0.00483 0.65214 0.54269 0.0
C638 C 0.01332 0.64017 0.53651 0.0
C639 C 0.02914 0.64187 0.55357 0.0
C640 C 0.00026 0.66112 0.56335 0.0
N641 N 0.02089 0.65496 0.57051 0.0
C642 C 0.96395 0.60834 0.51027 0.0
C643 C 0.97421 0.5881 0.5517 0.0
C644 C 0.97508 0.57553 0.53136 0.0
C645 C 0.9687 0.58563 0.51072 0.0
C646 C 0.96897 0.61097 0.55052 0.0
N647 N 0.96467 0.62095 0.52979 0.0
H648 H 0.96192 0.61593 0.49372 0.0
H649 H 0.9704 0.62096 0.56595 0.0
H650 H 0.01468 0.6303 0.52097 0.0
H651 H 0.98882 0.67122 0.57334 0.0
O652 O 0.98421 0.65364 0.49758 0.0
O653 O 0.97281 0.68352 0.51733 0.0
O654 O 0.95135 0.6603 0.55568 0.0
C655 C 0.98323 0.67532 0.49958 0.0
H656 H 0.88817 0.66879 0.49477 0.0
H657 H 0.04537 0.63388 0.55355 0.0
H658 H 0.9792 0.58083 0.56798 0.0
H659 H 0.969 0.5764 0.49467 0.0
Co660 Co 0.58743 0.28278 0.75275 0.0
C661 C 0.5876 0.31735 0.78928 0.0
C662 C 0.56597 0.32652 0.76161 0.0
C663 C 0.5618 0.34053 0.78001 0.0
N664 N 0.58233 0.31193 0.76727 0.0
N665 N 0.57534 0.3346 0.79749 0.0
H666 H 0.59783 0.30706 0.80032 0.0
H667 H 0.55589 0.32556 0.74623 0.0
C668 C 0.58176 0.3117 0.70993 0.0
O669 O 0.59629 0.3265 0.71737 0.0
N670 N 0.59203 0.25359 0.73887 0.0
C671 C 0.60648 0.23777 0.74607 0.0
C672 C 0.60655 0.22045 0.7304 0.0
C673 C 0.58344 0.24566 0.71901 0.0
N674 N 0.59213 0.22546 0.71328 0.0
C675 C 0.63263 0.29224 0.76487 0.0
C676 C 0.65021 0.28621 0.72131 0.0
C677 C 0.66482 0.28788 0.74008 0.0
C678 C 0.65572 0.29164 0.76197 0.0
C679 C 0.62716 0.28673 0.725 0.0
N680 N 0.61859 0.28953 0.74663 0.0
H681 H 0.62622 0.29291 0.78211 0.0
H682 H 0.61633 0.28316 0.71064 0.0
H683 H 0.61677 0.23906 0.7613 0.0
H684 H 0.57172 0.25489 0.70851 0.0
O685 O 0.59031 0.26937 0.78311 0.0
O686 O 0.55869 0.27365 0.76344 0.0
O687 O 0.57715 0.29443 0.72195 0.0
C688 C 0.56871 0.26717 0.78211 0.0
H689 H 0.54859 0.35289 0.78102 0.0
H690 H 0.61669 0.20548 0.73148 0.0
H691 H 0.65644 0.28329 0.70407 0.0
H692 H 0.66622 0.29235 0.77712 0.0
Co693 Co 0.94715 0.35707 0.98565 0.0
C694 C 0.92836 0.35204 0.03188 0.0
C695 C 0.90225 0.35242 1.00658 0.0
C696 C 0.8927 0.35064 0.0282 0.0
N697 N 0.92458 0.35324 0.00905 0.0
N698 N 0.9092 0.35056 0.04407 0.0
H699 H 0.9449 0.35235 0.03937 0.0
H700 H 0.89353 0.3534 0.99032 0.0
C701 C 0.92087 0.34713 0.94448 0.0
O702 O 0.91997 0.36912 0.94379 0.0
N703 N 0.96958 0.36176 0.96227 0.0
C704 C 0.97283 0.38182 0.9523 0.0
C705 C 0.98959 0.37995 0.93631 0.0
C706 C 0.98432 0.34772 0.95204 0.0
N707 N -0.00311 0.35856 0.93612 0.0
C708 C 0.98182 0.37836 0.01148 0.0
C709 C 0.95831 0.41766 0.01898 0.0
C710 C 0.98045 0.41597 0.02685 0.0
C711 C 0.99209 0.39586 0.02326 0.0
C712 C 0.94864 0.39968 1.0073 0.0
N713 N 0.96046 0.38053 1.00365 0.0
H714 H 0.99127 0.3633 1.00805 0.0
H715 H 0.93182 0.40114 1.00066 0.0
H716 H 0.9634 0.3968 0.95629 0.0
H717 H 0.98585 0.33011 0.9561 0.0
O718 O 0.96497 0.33265 1.00073 0.0
O719 O 0.94062 0.32556 0.97534 0.0
O720 O 0.93021 0.33762 0.96208 0.0
C721 C 0.95447 0.31751 0.99011 0.0
H722 H 0.87499 0.35007 0.03196 0.0
H723 H -0.00451 0.39325 0.9252 0.0
H724 H 0.94884 0.433 0.02099 0.0
H725 H 0.00913 0.39378 0.02914 0.0
Co726 Co 0.8991 0.71857 0.264 0.0
C727 C 0.88891 0.68579 0.30021 0.0
C728 C 0.90853 0.67087 0.27357 0.0
C729 C 0.9079 0.65643 0.29212 0.0
N730 N 0.89636 0.68929 0.27853 0.0
N731 N 0.89569 0.66601 0.30901 0.0
H732 H 0.8814 0.69864 0.31063 0.0
H733 H 0.91898 0.66898 0.2585 0.0
C734 C 0.89215 0.68754 0.22292 0.0
O735 O 0.87788 0.67494 0.23421 0.0
N736 N 0.90193 0.74798 0.25032 0.0
C737 C 0.89246 0.76688 0.25846 0.0
C738 C 0.89504 0.78364 0.24241 0.0
C739 C 0.91049 0.75358 0.22961 0.0
N740 N 0.90628 0.77523 0.22423 0.0
C741 C 0.85625 0.72734 0.28348 0.0
C742 C 0.83261 0.72867 0.24274 0.0
C743 C 0.82143 0.73286 0.26349 0.0
C744 C 0.83354 0.73215 0.28401 0.0
C745 C 0.85543 0.72367 0.243 0.0
N746 N 0.86687 0.7224 0.26332 0.0
H747 H 0.86541 0.72884 0.2993 0.0
H748 H 0.86392 0.72192 0.22674 0.0
H749 H 0.88343 0.76814 0.27455 0.0
H750 H 0.91874 0.74187 0.21828 0.0
O751 O 0.9056 0.7315 0.29393 0.0
O752 O 0.93056 0.71733 0.2696 0.0
O753 O 0.9005 0.70496 0.23227 0.0
C754 C 0.92626 0.72624 0.2895 0.0
H755 H 0.91722 0.64096 0.29363 0.0
H756 H 0.8887 0.80058 0.24381 0.0
H757 H 0.8239 0.72958 0.22643 0.0
H758 H 0.82577 0.73631 0.30031 0.0
Co759 Co 0.52058 0.64134 0.49189 0.0
C760 C 0.54516 0.64454 0.53577 0.0
C761 C 0.56359 0.66031 0.50879 0.0
C762 C 0.57363 0.66533 0.52957 0.0
N763 N 0.54575 0.64698 0.5126 0.0
N764 N 0.56178 0.65557 0.54657 0.0
H765 H 0.53181 0.63625 0.54486 0.0
H766 H 0.56795 0.66774 0.49245 0.0
C767 C 0.55649 0.64413 0.45449 0.0
O768 O 0.56853 0.62791 0.46342 0.0
N769 N 0.49527 0.63651 0.47184 0.0
C770 C 0.47897 0.62121 0.47457 0.0
C771 C 0.46399 0.62341 0.45672 0.0
C772 C 0.48994 0.64796 0.4526 0.0
N773 N 0.47091 0.64024 0.44288 0.0
C774 C 0.52969 0.59742 0.50857 0.0
C775 C 0.52884 0.57615 0.46637 0.0
C776 C 0.52929 0.56318 0.48651 0.0
C777 C 0.53043 0.57417 0.50774 0.0
C778 C 0.52831 0.59953 0.46798 0.0
N779 N 0.5284 0.60988 0.48897 0.0
H780 H 0.52833 0.60514 0.52516 0.0
H781 H 0.52631 0.60922 0.45241 0.0
H782 H 0.47807 0.60929 0.48856 0.0
H783 H 0.49994 0.66151 0.44578 0.0
O784 O 0.50059 0.6393 0.51812 0.0
O785 O 0.50951 0.67048 0.4991 0.0
O786 O 0.53846 0.65056 0.46415 0.0
C787 C 0.49865 0.66089 0.51579 0.0
H788 H 0.5874 0.67682 0.53205 0.0
H789 H 0.44901 0.61355 0.45436 0.0
H790 H 0.52783 0.56833 0.44959 0.0
H791 H 0.53008 0.56492 0.52378 0.0
Co792 Co 0.39801 0.27896 0.25418 0.0
C793 C 0.38148 0.30687 0.29155 0.0
C794 C 0.3947 0.32737 0.26447 0.0
C795 C 0.39083 0.34064 0.28358 0.0
N796 N 0.38895 0.30618 0.26964 0.0
N797 N 0.38274 0.32762 0.30071 0.0
H798 H 0.37753 0.29196 0.30133 0.0
H799 H 0.40292 0.33246 0.24873 0.0
C800 C 0.38385 0.28557 0.20503 0.0
O801 O 0.37203 0.26709 0.20651 0.0
N802 N 0.40784 0.251 0.23947 0.0
C803 C 0.41004 0.23097 0.25008 0.0
C804 C 0.41826 0.21551 0.23486 0.0
C805 C 0.41624 0.24744 0.21805 0.0
N806 N 0.42205 0.22577 0.21461 0.0
C807 C 0.36265 0.25009 0.26934 0.0
C808 C 0.32795 0.27466 0.25076 0.0
C809 C 0.32315 0.25488 0.26279 0.0
C810 C 0.3408 0.24267 0.2723 0.0
C811 C 0.35017 0.28134 0.24797 0.0
N812 N 0.36729 0.26855 0.25634 0.0
H813 H 0.37564 0.24147 0.27845 0.0
H814 H 0.35361 0.297 0.23934 0.0
H815 H 0.40696 0.22767 0.26803 0.0
H816 H 0.41901 0.26043 0.20547 0.0
O817 O 0.4092 0.26792 0.2833 0.0
O818 O 0.42863 0.28759 0.25771 0.0
O819 O 0.3934 0.29341 0.22299 0.0
C820 C 0.42789 0.27754 0.27755 0.0
H821 H 0.39506 0.35819 0.28514 0.0
H822 H 0.42117 0.19797 0.23853 0.0
H823 H 0.31469 0.28485 0.24359 0.0
H824 H 0.33771 0.2279 0.28267 0.0
Co825 Co 0.46252 0.63198 0.98713 0.0
C826 C 0.43741 0.63097 0.03037 0.0
C827 C 0.42006 0.65023 1.00486 0.0
C828 C 0.4098 0.65346 0.02591 0.0
N829 N 0.43743 0.63618 1.00776 0.0
N830 N 0.42095 0.64158 0.04205 0.0
H831 H 0.45027 0.62086 0.03832 0.0
H832 H 0.41631 0.65904 0.98907 0.0
C833 C 0.44424 0.62552 0.93993 0.0
O834 O 0.45746 0.60804 0.93785 0.0
N835 N 0.4882 0.62854 0.96671 0.0
C836 C 0.50526 0.61379 0.96786 0.0
C837 C 0.52023 0.61838 0.95051 0.0
C838 C 0.49345 0.64223 0.94894 0.0
N839 N 0.51279 0.63622 0.93851 0.0
C840 C 0.47192 0.58777 1.00303 0.0
C841 C 0.43497 0.56699 0.98423 0.0
C842 C 0.45009 0.55429 0.99719 0.0
C843 C 0.46862 0.56502 1.00683 0.0
C844 C 0.43881 0.58991 0.98108 0.0
N845 N 0.45778 0.5998 0.98938 0.0
H846 H 0.48585 0.59574 0.01144 0.0
H847 H 0.42617 0.59969 0.97248 0.0
H848 H 0.50737 0.60083 0.98052 0.0
H849 H 0.4831 0.65618 0.94365 0.0
O850 O 0.48262 0.63596 0.01297 0.0
O851 O 0.46956 0.66309 0.99042 0.0
O852 O 0.44254 0.63554 0.95932 0.0
C853 C 0.48137 0.65716 1.00815 0.0
H854 H 0.39639 0.66518 0.0293 0.0
H855 H 0.5357 0.60949 0.9474 0.0
H856 H 0.42003 0.55942 0.97716 0.0
H857 H 0.48059 0.55589 0.01721 0.0
Co858 Co 0.07897 0.71628 0.76769 0.0
C859 C 0.09346 0.68498 0.80362 0.0
C860 C 0.07542 0.66799 0.77712 0.0
C861 C 0.07717 0.65396 0.79588 0.0
N862 N 0.08573 0.68752 0.78189 0.0
N863 N 0.0882 0.66484 0.81275 0.0
H864 H 0.09986 0.69864 0.8138 0.0
H865 H 0.06504 0.66504 0.76221 0.0
C866 C 0.08728 0.68656 0.72529 0.0
O867 O 0.10251 0.67405 0.73529 0.0
N868 N 0.07202 0.74525 0.75385 0.0
C869 C 0.0625 0.76327 0.76396 0.0
C870 C 0.06088 0.78034 0.74808 0.0
C871 C 0.07625 0.75186 0.73197 0.0
N872 N 0.06959 0.77315 0.728 0.0
C873 C 0.12028 0.73126 0.7865 0.0
C874 C 0.14526 0.72936 0.74658 0.0
C875 C 0.15564 0.73579 0.76712 0.0
C876 C 0.14282 0.73693 0.7872 0.0
C877 C 0.12265 0.72366 0.74667 0.0
N878 N 0.11054 0.72398 0.76663 0.0
H879 H 0.11071 0.73295 0.8021 0.0
H880 H 0.11511 0.71944 0.73049 0.0
H881 H 0.05716 0.76426 0.78169 0.0
H882 H 0.08386 0.7413 0.71906 0.0
O883 O 0.07131 0.72772 0.79803 0.0
O884 O 0.04799 0.71094 0.77391 0.0
O885 O 0.07838 0.70301 0.73589 0.0
C886 C 0.05144 0.71984 0.79397 0.0
H887 H 0.0691 0.63784 0.79762 0.0
H888 H 0.05415 0.79689 0.75122 0.0
H889 H 0.15456 0.72851 0.7306 0.0
H890 H 0.15005 0.7425 0.80329 0.0
Co891 Co 0.02999 0.3408 0.4985 0.0
C892 C 0.0562 0.32935 0.54001 0.0
C893 C 0.0777 0.34258 0.51398 0.0
C894 C 0.08983 0.34004 0.53407 0.0
N895 N 0.05644 0.33601 0.51775 0.0
N896 N 0.07614 0.33178 0.55046 0.0
H897 H 0.04126 0.32484 0.54925 0.0
H898 H 0.08382 0.35004 0.49831 0.0
C899 C 0.06143 0.34813 0.45649 0.0
O900 O 0.06831 0.3683 0.462 0.0
N901 N 0.00353 0.34531 0.4799 0.0
C902 C 0.98545 0.35739 0.486 0.0
C903 C 0.97008 0.35651 0.46846 0.0
C904 C -0.00114 0.337 0.45885 0.0
N905 N 0.9785 0.34372 0.45136 0.0
C906 C 0.03622 0.3813 0.5227 0.0
C907 C 0.027 0.41008 0.48671 0.0
C908 C 0.02864 0.41866 0.50914 0.0
C909 C 0.03409 0.40406 0.52708 0.0
C910 C 0.02945 0.38706 0.48303 0.0
N911 N 0.03369 0.37294 0.50101 0.0
H912 H 0.03842 0.37023 0.53717 0.0
H913 H 0.02654 0.38043 0.46598 0.0
H914 H 0.98362 0.36627 0.50212 0.0
H915 H 0.01019 0.32645 0.44919 0.0
O916 O 0.01053 0.33649 0.52481 0.0
O917 O 0.02287 0.30978 0.50118 0.0
O918 O 0.04812 0.33727 0.46951 0.0
C919 C 0.01098 0.31541 0.51899 0.0
H920 H 0.10707 0.34487 0.53662 0.0
H921 H 0.9538 0.36442 0.4685 0.0
H922 H 0.02249 0.42079 0.47241 0.0
H923 H 0.03567 0.41001 0.54461 0.0
Co924 Co 0.40141 0.7252 0.25666 0.0
C925 C 0.39943 0.69205 0.21855 0.0
C926 C 0.4198 0.68032 0.24622 0.0
C927 C 0.42242 0.66603 0.22776 0.0
N928 N 0.40502 0.69655 0.24067 0.0
N929 N 0.40964 0.67353 0.2103 0.0
H930 H 0.39047 0.70348 0.20757 0.0
H931 H 0.42962 0.67992 0.26181 0.0
C932 C 0.40021 0.69213 0.29588 0.0
O933 O 0.386 0.67966 0.28437 0.0
N934 N 0.39829 0.75386 0.27207 0.0
C935 C 0.38468 0.77064 0.26541 0.0
C936 C 0.38476 0.78703 0.2821 0.0
C937 C 0.40668 0.76036 0.2926 0.0
N938 N 0.39855 0.78054 0.29921 0.0
C939 C 0.35685 0.72181 0.23949 0.0
C940 C 0.33572 0.72434 0.28169 0.0
C941 C 0.32285 0.72501 0.26157 0.0
C942 C 0.33367 0.72321 0.24031 0.0
C943 C 0.35894 0.72275 0.28009 0.0
N944 N 0.36928 0.72138 0.25914 0.0
H945 H 0.36471 0.72299 0.22294 0.0
H946 H 0.36859 0.7242 0.29569 0.0
H947 H 0.37474 0.77058 0.24989 0.0
H948 H 0.41774 0.75016 0.30294 0.0
O949 O 0.40285 0.74036 0.22713 0.0
O950 O 0.43186 0.73183 0.24941 0.0
O951 O 0.4072 0.71056 0.28737 0.0
C952 C 0.42437 0.74011 0.23022 0.0
H953 H 0.43393 0.65206 0.22684 0.0
H954 H 0.37517 0.80241 0.28179 0.0
H955 H 0.32801 0.72604 0.29847 0.0
H956 H 0.32448 0.72459 0.22432 0.0
Co957 Co 0.02387 0.64396 0.0337 0.0
C958 C 0.05458 0.64142 0.994 0.0
C959 C 0.06614 0.66527 0.01859 0.0
C960 C 0.07823 0.66789 0.9985 0.0
N961 N 0.05136 0.64839 0.01595 0.0
N962 N 0.07069 0.65303 0.98287 0.0
H963 H 0.04376 0.62974 0.98543 0.0
H964 H 0.06653 0.67663 0.03305 0.0
C965 C 0.05644 0.6534 0.07235 0.0
O966 O 0.07066 0.63864 0.0641 0.0
N967 N -0.00379 0.63996 0.05053 0.0
C968 C 0.9809 0.62392 0.04652 0.0
C969 C 0.96428 0.62557 0.06282 0.0
C970 C 0.98866 0.65129 0.06909 0.0
N971 N 0.96918 0.64273 0.07707 0.0
C972 C 0.03464 0.59802 0.0248 0.0
C973 C 0.03228 0.58389 0.07004 0.0
C974 C 0.03459 0.56791 0.05256 0.0
C975 C 0.03636 0.57529 0.02976 0.0
C976 C 0.03099 0.6066 0.06432 0.0
N977 N 0.03205 0.61345 0.04187 0.0
H978 H 0.03359 0.60283 1.00707 0.0
H979 H 0.02757 0.61848 0.07788 0.0
H980 H 0.982 0.61158 0.03294 0.0
H981 H -0.00245 0.66505 0.07696 0.0
O982 O 0.00774 0.63843 1.00518 0.0
O983 O 0.01323 0.67165 0.02168 0.0
O984 O 0.03784 0.65684 0.06227 0.0
C985 C 0.00522 0.6601 1.00466 0.0
H986 H 0.09004 0.68119 0.99505 0.0
H987 H 0.94973 0.61489 0.06406 0.0
H988 H 0.03045 0.57882 0.08785 0.0
H989 H 0.03727 0.56347 0.01564 0.0
Co990 Co 0.09349 0.27542 0.76684 0.0
C991 C 0.09732 0.3096 0.7304 0.0
C992 C 0.07289 0.31867 0.75561 0.0
C993 C 0.07023 0.33231 0.73664 0.0
N994 N 0.08993 0.30431 0.75171 0.0
N995 N 0.08567 0.32651 0.72085 0.0
H996 H 0.10854 0.29936 0.72046 0.0
H997 H 0.06147 0.31755 0.77 0.0
C998 C 0.09334 0.30837 0.80643 0.0
O999 O 0.10561 0.3226 0.79469 0.0
N1000 N 0.09668 0.24654 0.78145 0.0
C1001 C 0.11091 0.23012 0.77518 0.0
C1002 C 0.10988 0.21321 0.79128 0.0
C1003 C 0.08694 0.23933 0.80103 0.0
N1004 N 0.09483 0.21906 0.8075 0.0
C1005 C 0.1374 0.27577 0.74806 0.0
C1006 C 0.16022 0.27808 0.78925 0.0
C1007 C 0.17223 0.27543 0.76871 0.0
C1008 C 0.16055 0.27464 0.74795 0.0
C1009 C 0.13691 0.27956 0.78855 0.0
N1010 N 0.12575 0.27869 0.76804 0.0
H1011 H 0.12894 0.27249 0.73213 0.0
H1012 H 0.12795 0.27987 0.80464 0.0
H1013 H 0.1217 0.23065 0.76025 0.0
H1014 H 0.07489 0.249 0.81072 0.0
O1015 O 0.09055 0.26069 0.73717 0.0
O1016 O 0.06265 0.26955 0.76079 0.0
O1017 O 0.08858 0.28924 0.79802 0.0
C1018 C 0.0692 0.26132 0.74123 0.0
H1019 H 0.05665 0.34398 0.73377 0.0
H1020 H 0.11951 0.19785 0.79112 0.0
H1021 H 0.16869 0.27816 0.80571 0.0
H1022 H 0.1691 0.2715 0.73182 0.0
Co1023 Co 0.45371 0.33041 0.51384 0.0
C1024 C 0.42143 0.34191 0.47757 0.0
C1025 C 0.40528 0.32499 0.50543 0.0
C1026 C 0.39046 0.32662 0.48727 0.0
N1027 N 0.42472 0.33478 0.49939 0.0
N1028 N 0.40076 0.3372 0.46969 0.0
H1029 H 0.4346 0.34804 0.46662 0.0
H1030 H 0.40264 0.31559 0.52111 0.0
C1031 C 0.42439 0.34168 0.55636 0.0
O1032 O 0.41121 0.35628 0.54627 0.0
N1033 N 0.48288 0.32608 0.52778 0.0
C1034 C 0.50273 0.33019 0.51766 0.0
C1035 C 0.51936 0.3287 0.53401 0.0
C1036 C 0.48774 0.32206 0.55012 0.0
N1037 N 0.50988 0.32366 0.55444 0.0
C1038 C 0.46749 0.36969 0.49012 0.0
C1039 C 0.46867 0.39822 0.52746 0.0
C1040 C 0.47493 0.40631 0.50573 0.0
C1041 C 0.47431 0.3917 0.48697 0.0
C1042 C 0.46165 0.37596 0.52982 0.0
N1043 N 0.4606 0.36211 0.51112 0.0
H1044 H 0.46861 0.35857 0.47559 0.0
H1045 H 0.45795 0.36985 0.54684 0.0
H1046 H 0.50491 0.33491 0.49983 0.0
H1047 H 0.47536 0.31919 0.56327 0.0
O1048 O 0.46537 0.31968 0.48461 0.0
O1049 O 0.44953 0.29869 0.51154 0.0
O1050 O 0.44068 0.33278 0.54558 0.0
C1051 C 0.45866 0.30001 0.49132 0.0
H1052 H 0.37394 0.31931 0.48662 0.0
H1053 H 0.53699 0.33157 0.53113 0.0
H1054 H 0.46935 0.40892 0.54249 0.0
H1055 H 0.47985 0.397 0.47007 0.0
H1056 H 0.02377 0.14155 0.07391 0.0
H1057 H 0.10508 0.18331 0.17464 0.0
H1058 H 0.08659 0.17471 0.06105 0.0
H1059 H 0.03955 0.15529 0.18617 0.0
H1060 H 0.09995 0.1781 0.13324 0.0
H1061 H 0.03073 0.14404 0.11508 0.0
C1062 C 0.03919 0.14913 0.07965 0.0
C1063 C 0.05467 0.15784 0.06379 0.0
C1064 C 0.08675 0.173 0.14486 0.0
C1065 C 0.06262 0.16106 0.11136 0.0
C1066 C 0.08963 0.17604 0.16856 0.0
C1067 C 0.0727 0.16987 0.18414 0.0
C1068 C 0.06679 0.16367 0.13653 0.0
C1069 C 0.05321 0.16014 0.17507 0.0
C1070 C 0.04307 0.1507 0.10329 0.0
C1071 C 0.0741 0.16793 0.07256 0.0
N1072 N 0.05079 0.15745 0.15195 0.0
N1073 N 0.07751 0.16926 0.09571 0.0
H1074 H 0.10714 0.82265 0.45713 0.0
H1075 H 0.08639 0.87958 0.3353 0.0
H1076 H 0.07271 0.88614 0.45423 0.0
H1077 H 0.0854 0.80832 0.34806 0.0
H1078 H 0.08718 0.88586 0.37739 0.0
H1079 H 0.10718 0.82114 0.41544 0.0
C1080 C 0.09999 0.83657 0.44777 0.0
C1081 C 0.09003 0.85466 0.45935 0.0
C1082 C 0.08685 0.86892 0.37075 0.0
C1083 C 0.08965 0.85273 0.41111 0.0
C1084 C 0.08636 0.86532 0.34681 0.0
C1085 C 0.08651 0.84338 0.33792 0.0
C1086 C 0.08775 0.85044 0.38573 0.0
C1087 C 0.08629 0.82553 0.35373 0.0
C1088 C 0.09977 0.83554 0.42386 0.0
C1089 C 0.08052 0.87188 0.44598 0.0
N1090 N 0.08716 0.82947 0.37666 0.0
N1091 N 0.08055 0.87053 0.42249 0.0
H1092 H 0.36464 0.80562 0.6801 0.0
H1093 H 0.42091 0.87024 0.57419 0.0
H1094 H 0.4255 0.84396 0.68594 0.0
H1095 H 0.37337 0.81641 0.56629 0.0
H1096 H 0.41787 0.86643 0.61592 0.0
H1097 H 0.36297 0.81507 0.63927 0.0
C1098 C 0.37765 0.81607 0.67289 0.0
C1099 C 0.39546 0.82365 0.6866 0.0
C1100 C 0.40799 0.85559 0.60501 0.0
C1101 C 0.39336 0.83489 0.63969 0.0
C1102 C 0.40974 0.85769 0.58111 0.0
C1103 C 0.39774 0.84334 0.56642 0.0
C1104 C 0.39392 0.8392 0.61446 0.0
C1105 C 0.38303 0.82787 0.57665 0.0
C1106 C 0.37661 0.82153 0.64954 0.0
C1107 C 0.41144 0.83769 0.67625 0.0
N1108 N 0.38168 0.82612 0.59997 0.0
N1109 N 0.41008 0.84272 0.65342 0.0
H1110 H 0.38676 0.17896 0.83778 0.0
H1111 H 0.4669 0.13642 0.93901 0.0
H1112 H 0.45246 0.15127 0.8264 0.0
H1113 H 0.40414 0.1702 0.95093 0.0
H1114 H 0.46011 0.13819 0.89775 0.0
H1115 H 0.39114 0.17242 0.87904 0.0
C1116 C 0.40207 0.1714 0.84393 0.0
C1117 C 0.41933 0.16584 0.82853 0.0
C1118 C 0.44774 0.1451 0.90937 0.0
C1119 C 0.42444 0.15819 0.87589 0.0
C1120 C 0.45152 0.14396 0.93305 0.0
C1121 C 0.43605 0.15318 0.94864 0.0
C1122 C 0.42832 0.15551 0.90105 0.0
C1123 C 0.41664 0.16309 0.93962 0.0
C1124 C 0.40455 0.16763 0.86752 0.0
C1125 C 0.43864 0.15571 0.83751 0.0
N1126 N 0.41336 0.16403 0.91646 0.0
N1127 N 0.44072 0.15236 0.86058 0.0
H1128 H 0.95311 0.85327 0.94473 0.0
H1129 H 0.87239 0.82987 0.83877 0.0
H1130 H 0.88197 0.84325 0.95212 0.0
H1131 H 0.94009 0.8531 0.83064 0.0
H1132 H 0.87523 0.83616 0.88027 0.0
H1133 H 0.9484 0.85522 0.90324 0.0
C1134 C 0.93642 0.8518 0.93784 0.0
C1135 C 0.91793 0.84778 0.95228 0.0
C1136 C 0.8894 0.84016 0.86943 0.0
C1137 C 0.91257 0.84961 0.90424 0.0
C1138 C 0.88779 0.83651 0.84575 0.0
C1139 C 0.90605 0.84089 0.83126 0.0
C1140 C 0.90956 0.84797 0.87884 0.0
C1141 C 0.92557 0.84965 0.84115 0.0
C1142 C 0.93379 0.85281 0.91396 0.0
C1143 C 0.89681 0.84586 0.94185 0.0
N1144 N 0.92691 0.85264 0.86436 0.0
N1145 N 0.89477 0.84654 0.91854 0.0
H1146 H 0.85867 0.17323 0.67633 0.0
H1147 H 0.91246 0.11083 0.56743 0.0
H1148 H 0.91429 0.12732 0.68079 0.0
H1149 H 0.86625 0.16611 0.5618 0.0
H1150 H 0.90893 0.11248 0.60927 0.0
H1151 H 0.85706 0.16669 0.63488 0.0
C1152 C 0.87053 0.16173 0.66869 0.0
C1153 C 0.88688 0.15112 0.68226 0.0
C1154 C 0.89942 0.12414 0.59888 0.0
C1155 C 0.88487 0.1433 0.63456 0.0
C1156 C 0.90146 0.12325 0.57494 0.0
C1157 C 0.88991 0.13857 0.56091 0.0
C1158 C 0.88564 0.14041 0.60907 0.0
C1159 C 0.87548 0.15392 0.57175 0.0
C1160 C 0.86952 0.15795 0.64497 0.0
C1161 C 0.90137 0.13592 0.67126 0.0
N1162 N 0.87392 0.15456 0.59514 0.0
N1163 N 0.90012 0.13261 0.64811 0.0
H1164 H 0.62366 0.18797 0.33908 0.0
H1165 H 0.56767 0.1189 0.44204 0.0
H1166 H 0.57001 0.14054 0.32958 0.0
H1167 H 0.60714 0.17849 0.45266 0.0
H1168 H 0.5732 0.12272 0.40063 0.0
H1169 H 0.62239 0.18083 0.3804 0.0
C1170 C 0.61157 0.17608 0.34557 0.0
C1171 C 0.59665 0.16516 0.3306 0.0
C1172 C 0.58074 0.1349 0.41203 0.0
C1173 C 0.59549 0.15657 0.37814 0.0
C1174 C 0.57753 0.1328 0.43573 0.0
C1175 C 0.58662 0.14861 0.45101 0.0
C1176 C 0.59331 0.15285 0.40337 0.0
C1177 C 0.5998 0.16587 0.44169 0.0
C1178 C 0.61096 0.17194 0.36923 0.0
C1179 C 0.58187 0.14941 0.3402 0.0
N1180 N 0.60263 0.1676 0.41849 0.0
N1181 N 0.58161 0.14568 0.36331 0.0
H1182 H 0.53942 0.87313 0.07762 0.0
H1183 H 0.6077 0.81684 0.18106 0.0
H1184 H 0.5951 0.82798 0.06797 0.0
H1185 H 0.54345 0.84861 0.18994 0.0
H1186 H 0.60647 0.82602 0.14016 0.0
H1187 H 0.54394 0.86953 0.11923 0.0
C1188 C 0.55264 0.86251 0.08412 0.0
C1189 C 0.56662 0.85055 0.06897 0.0
C1190 C 0.59269 0.8311 0.15108 0.0
C1191 C 0.57209 0.84666 0.11687 0.0
C1192 C 0.59333 0.82578 0.17447 0.0
C1193 C 0.57551 0.83164 0.18907 0.0
C1194 C 0.57415 0.84252 0.14205 0.0
C1195 C 0.55761 0.84376 0.17951 0.0
C1196 C 0.55524 0.86054 0.10795 0.0
C1197 C 0.58385 0.83757 0.07868 0.0
N1198 N 0.55733 0.84865 0.15661 0.0
N1199 N 0.58597 0.83588 0.10192 0.0
H1200 H 0.52886 0.65295 0.579 0.0
H1201 H 0.60651 0.69195 0.68333 0.0
H1202 H 0.59917 0.66702 0.57065 0.0
H1203 H 0.53829 0.66999 0.69115 0.0
H1204 H 0.60458 0.68295 0.64225 0.0
H1205 H 0.53243 0.65911 0.62003 0.0
C1206 C 0.54519 0.65703 0.58572 0.0
C1207 C 0.56384 0.65916 0.57112 0.0
C1208 C 0.59009 0.67996 0.65299 0.0
C1209 C 0.56789 0.66681 0.61863 0.0
C1210 C 0.59116 0.68515 0.67643 0.0
C1211 C 0.57253 0.68176 0.69076 0.0
C1212 C 0.57018 0.67145 0.64371 0.0
C1213 C 0.55315 0.67266 0.68091 0.0
C1214 C 0.54716 0.66073 0.60931 0.0
C1215 C 0.58433 0.66526 0.58113 0.0
N1216 N 0.55245 0.66798 0.65802 0.0
N1217 N 0.5858 0.66889 0.60424 0.0
H1218 H 0.59948 0.35126 0.94299 0.0
H1219 H 0.53789 0.34784 0.82051 0.0
H1220 H 0.52777 0.34976 0.93491 0.0
H1221 H 0.60831 0.33532 0.82946 0.0
H1222 H 0.53448 0.35468 0.86189 0.0
H1223 H 0.60345 0.35141 0.90113 0.0
C1224 C 0.58454 0.3511 0.93252 0.0
C1225 C 0.56326 0.35021 0.94279 0.0
C1226 C 0.55073 0.35064 0.85479 0.0
C1227 C 0.56775 0.35059 0.89455 0.0
C1228 C 0.55273 0.34693 0.83109 0.0
C1229 C 0.57345 0.34099 0.82144 0.0
C1230 C 0.56959 0.34857 0.86902 0.0
C1231 C 0.592 0.33967 0.83618 0.0
C1232 C 0.58685 0.35122 0.90855 0.0
C1233 C 0.54455 0.35053 0.92809 0.0
N1234 N 0.58963 0.34336 0.85918 0.0
N1235 N 0.54725 0.35053 0.90481 0.0
H1236 H 0.87149 0.31764 0.18376 0.0
H1237 H 0.93773 0.36791 0.07569 0.0
H1238 H 0.93143 0.35736 0.18921 0.0
H1239 H 0.87567 0.33177 0.06924 0.0
H1240 H 0.93467 0.36535 0.11744 0.0
H1241 H 0.87142 0.32409 0.14212 0.0
C1242 C 0.88451 0.32789 0.17625 0.0
C1243 C 0.90151 0.33689 0.19011 0.0
C1244 C 0.92165 0.35803 0.10695 0.0
C1245 C 0.90162 0.34428 0.14236 0.0
C1246 C 0.92348 0.35933 0.08303 0.0
C1247 C 0.90704 0.34983 0.06884 0.0
C1248 C 0.9033 0.34703 0.11692 0.0
C1249 C 0.88868 0.3394 0.07947 0.0
C1250 C 0.88446 0.33158 0.15247 0.0
C1251 C 0.91784 0.35024 0.17941 0.0
N1252 N 0.88739 0.33814 0.10284 0.0
N1253 N 0.91758 0.35334 0.15622 0.0
H1254 H 0.86501 0.67925 0.34085 0.0
H1255 H 0.93308 0.62563 0.44566 0.0
H1256 H 0.92452 0.63905 0.33275 0.0
H1257 H 0.88522 0.67907 0.45432 0.0
H1258 H 0.92514 0.62515 0.40456 0.0
H1259 H 0.86734 0.67401 0.3825 0.0
C1260 C 0.87849 0.6692 0.34775 0.0
C1261 C 0.89483 0.65994 0.33312 0.0
C1262 C 0.91627 0.63692 0.41543 0.0
C1263 C 0.89735 0.65363 0.38092 0.0
C1264 C 0.92087 0.63729 0.43893 0.0
C1265 C 0.91015 0.65276 0.45348 0.0
C1266 C 0.90071 0.65203 0.40623 0.0
C1267 C 0.89393 0.66693 0.4438 0.0
C1268 C 0.87975 0.66619 0.37156 0.0
C1269 C 0.91153 0.64655 0.34314 0.0
N1270 N 0.88985 0.66637 0.42073 0.0
N1271 N 0.91244 0.64397 0.36638 0.0
H1272 H 0.37079 0.31075 0.44702 0.0
H1273 H 0.40404 0.36099 0.32413 0.0
H1274 H 0.41447 0.36751 0.43782 0.0
H1275 H 0.35781 0.30624 0.33316 0.0
H1276 H 0.40488 0.36615 0.36576 0.0
H1277 H 0.36273 0.31128 0.40579 0.0
C1278 C 0.37843 0.32356 0.43646 0.0
C1279 C 0.39357 0.33896 0.44598 0.0
C1280 C 0.39437 0.35313 0.35864 0.0
C1281 C 0.38463 0.33944 0.39851 0.0
C1282 C 0.39375 0.35027 0.33476 0.0
C1283 C 0.38102 0.33295 0.32497 0.0
C1284 C 0.38225 0.33856 0.37298 0.0
C1285 C 0.36823 0.31951 0.33987 0.0
C1286 C 0.37392 0.32376 0.41282 0.0
C1287 C 0.40306 0.35503 0.43123 0.0
N1288 N 0.36934 0.32245 0.36307 0.0
N1289 N 0.3986 0.35472 0.40828 0.0
H1290 H 0.45261 0.63354 0.0749 0.0
H1291 H 0.3766 0.67813 0.17867 0.0
H1292 H 0.384 0.65433 0.06628 0.0
H1293 H 0.44352 0.65263 0.18734 0.0
H1294 H 0.37845 0.66851 0.13777 0.0
H1295 H 0.44895 0.63903 0.11618 0.0
C1296 C 0.43663 0.63895 0.08158 0.0
C1297 C 0.41856 0.64342 0.06681 0.0
C1298 C 0.39268 0.66488 0.14864 0.0
C1299 C 0.41442 0.65022 0.11453 0.0
C1300 C 0.39166 0.67044 0.172 0.0
C1301 C 0.40994 0.66627 0.18654 0.0
C1302 C 0.41219 0.65515 0.1396 0.0
C1303 C 0.42892 0.65598 0.17694 0.0
C1304 C 0.43462 0.64226 0.1053 0.0
C1305 C 0.39847 0.65089 0.07682 0.0
N1306 N 0.4296 0.65093 0.15411 0.0
N1307 N 0.39699 0.65414 0.09998 0.0
H1308 H 0.1076 0.66909 0.9606 0.0
H1309 H 0.05906 0.63805 0.83607 0.0
H1310 H 0.04431 0.63645 0.94839 0.0
H1311 H 0.11726 0.67969 0.8454 0.0
H1312 H 0.05672 0.6331 0.87753 0.0
H1313 H 0.11407 0.66982 0.9189 0.0
C1314 C 0.09509 0.66201 0.94931 0.0
C1315 C 0.07539 0.65264 0.95836 0.0
C1316 C 0.07013 0.64321 0.87055 0.0
C1317 C 0.08285 0.65321 0.91052 0.0
C1318 C 0.07163 0.64586 0.84673 0.0
C1319 C 0.08836 0.65943 0.83705 0.0
C1320 C 0.08543 0.65415 0.88502 0.0
C1321 C 0.10391 0.66934 0.85207 0.0
C1322 C 0.09886 0.66237 0.92548 0.0
C1323 C 0.05995 0.64351 0.94267 0.0
N1324 N 0.102 0.66663 0.87528 0.0
N1325 N 0.06401 0.64409 0.91968 0.0
H1326 H 0.12075 0.33549 0.69308 0.0
H1327 H 0.05293 0.30616 0.58082 0.0
H1328 H 0.04942 0.32612 0.69329 0.0
H1329 H 0.1081 0.35258 0.57656 0.0
H1330 H 0.05547 0.30727 0.62257 0.0
H1331 H 0.12005 0.33714 0.65066 0.0
C1332 C 0.10494 0.33422 0.68413 0.0
C1333 C 0.08507 0.33101 0.69655 0.0
C1334 C 0.06701 0.31721 0.61247 0.0
C1335 C 0.08424 0.33196 0.64847 0.0
C1336 C 0.06559 0.31664 0.58857 0.0
C1337 C 0.07995 0.32976 0.57496 0.0
C1338 C 0.08326 0.33055 0.62305 0.0
C1339 C 0.09661 0.34225 0.58623 0.0
C1340 C 0.10456 0.33508 0.66007 0.0
C1341 C 0.065 0.32906 0.68432 0.0
N1342 N 0.0978 0.34237 0.60967 0.0
N1343 N 0.06514 0.32924 0.66094 0.0
H1344 H 0.95189 0.24626 0.1943 0.0
H1345 H 0.06938 0.28537 0.2175 0.0
H1346 H 0.97228 0.31033 0.22106 0.0
H1347 H 0.0498 0.21921 0.19622 0.0
H1348 H 0.03743 0.30085 0.1967 0.0
H1349 H 0.98762 0.24338 0.17387 0.0
C1350 C 0.96362 0.26003 0.19521 0.0
C1351 C 0.95994 0.27795 0.21024 0.0
C1352 C 0.04059 0.28301 0.19568 0.0
C1353 C 0.0006 0.27473 0.1875 0.0
C1354 C 0.05892 0.27425 0.20746 0.0
C1355 C 0.06152 0.25106 0.20904 0.0
C1356 C 0.02446 0.26823 0.18668 0.0
C1357 C 0.04777 0.23723 0.19579 0.0
C1358 C 0.98398 0.25847 0.18353 0.0
C1359 C 0.97519 0.29569 0.21046 0.0
N1360 N 0.02932 0.24595 0.18569 0.0
N1361 N -0.00484 0.29341 0.19974 0.0
H1362 H 0.96486 0.70926 0.47546 0.0
H1363 H 0.06662 0.7726 0.50892 0.0
H1364 H 0.02732 0.67594 0.48889 0.0
H1365 H 0.01281 0.80349 0.47113 0.0
H1366 H 0.0577 0.73684 0.49101 0.0
H1367 H 0.98522 0.74198 0.46177 0.0
C1368 C 0.98295 0.70863 0.47464 0.0
C1369 C -0.00541 0.69034 0.48365 0.0
C1370 C 0.0482 0.75151 0.48604 0.0
C1371 C 0.01799 0.72791 0.46938 0.0
C1372 C 0.05322 0.77191 0.49642 0.0
C1373 C 0.03979 0.79067 0.49218 0.0
C1374 C 0.02916 0.74985 0.472 0.0
C1375 C 0.02312 0.78915 0.47536 0.0
C1376 C -0.00537 0.7273 0.46687 0.0
C1377 C 0.0179 0.69002 0.48223 0.0
N1378 N 0.01779 0.76887 0.46638 0.0
N1379 N 0.02895 0.70894 0.47601 0.0
H1380 H 0.43059 0.78143 0.6936 0.0
H1381 H 0.53118 0.79144 0.73302 0.0
H1382 H 0.44869 0.71523 0.7163 0.0
H1383 H 0.55109 0.73121 0.69776 0.0
H1384 H 0.49619 0.79133 0.7115 0.0
H1385 H 0.46853 0.78676 0.67894 0.0
C1386 C 0.44214 0.76746 0.69412 0.0
C1387 C 0.43686 0.74803 0.70653 0.0
C1388 C 0.50866 0.77875 0.7075 0.0
C1389 C 0.47999 0.75417 0.6904 0.0
C1390 C 0.52858 0.77883 0.71988 0.0
C1391 C 0.54376 0.76127 0.71714 0.0
C1392 C 0.50358 0.76031 0.69334 0.0
C1393 C 0.5396 0.74498 0.70032 0.0
C1394 C 0.46382 0.77062 0.68594 0.0
C1395 C 0.45235 0.73052 0.707 0.0
N1396 N 0.5194 0.74432 0.68972 0.0
N1397 N 0.47354 0.73421 0.6996 0.0
H1398 H 0.49313 0.16575 0.9598 0.0
H1399 H 0.49171 0.27549 0.9632 0.0
H1400 H 0.54521 0.17773 0.00932 0.0
H1401 H 0.56094 0.27418 0.9833 0.0
H1402 H 0.49501 0.23683 0.95009 0.0
H1403 H 0.5035 0.20039 0.93979 0.0
C1404 C 0.50746 0.17517 0.96576 0.0
C1405 C 0.51816 0.16938 0.98635 0.0
C1406 C 0.50988 0.24521 0.95622 0.0
C1407 C 0.52946 0.20903 0.96438 0.0
C1408 C 0.50789 0.26734 0.96381 0.0
C1409 C 0.52584 0.27743 0.97514 0.0
C1410 C 0.52991 0.23341 0.96035 0.0
C1411 C 0.5465 0.26644 0.97538 0.0
C1412 C 0.51316 0.19507 0.95456 0.0
C1413 C 0.53645 0.18197 0.99361 0.0
N1414 N 0.54784 0.24474 0.96874 0.0
N1415 N 0.54131 0.20149 0.98283 0.0
H1416 H 0.96152 0.69921 0.29752 0.0
H1417 H 0.06059 0.74009 0.31664 0.0
H1418 H 0.932 0.76179 0.31853 0.0
H1419 H 0.02502 0.80153 0.30335 0.0
H1420 H 0.02663 0.72448 0.33408 0.0
H1421 H -0.0036 0.71014 0.3154 0.0
C1422 C 0.96232 0.71505 0.3066 0.0
C1423 C 0.94435 0.73004 0.30593 0.0
C1424 C 0.02637 0.74153 0.32776 0.0
C1425 C 0.98426 0.74294 0.3263 0.0
C1426 C 0.04579 0.75047 0.31803 0.0
C1427 C 0.04503 0.77163 0.30769 0.0
C1428 C 0.00634 0.75389 0.3266 0.0
C1429 C 0.0258 0.78472 0.31032 0.0
C1430 C 0.9822 0.72124 0.31714 0.0
C1431 C 0.94581 0.75005 0.31831 0.0
N1432 N 0.007 0.77545 0.31908 0.0
N1433 N 0.96578 0.75633 0.32734 0.0
H1434 H 0.51439 0.68694 0.54993 0.0
H1435 H 0.42261 0.76807 0.51052 0.0
H1436 H 0.45388 0.66708 0.51563 0.0
H1437 H 0.48101 0.78783 0.5488 0.0
H1438 H 0.42664 0.73008 0.52523 0.0
H1439 H 0.49578 0.72087 0.56349 0.0
C1440 C 0.4968 0.68932 0.54621 0.0
C1441 C 0.48557 0.67461 0.53152 0.0
C1442 C 0.43835 0.74275 0.53087 0.0
C1443 C 0.46462 0.71369 0.5457 0.0
C1444 C 0.43612 0.7644 0.52234 0.0
C1445 C 0.45205 0.78071 0.5278 0.0
C1446 C 0.45708 0.73727 0.5443 0.0
C1447 C 0.46875 0.77545 0.54374 0.0
C1448 C 0.4862 0.70875 0.55377 0.0
C1449 C 0.46299 0.67827 0.52689 0.0
N1450 N 0.47125 0.75394 0.55095 0.0
N1451 N 0.45335 0.69785 0.53343 0.0
H1452 H 0.45089 0.2096 0.81434 0.0
H1453 H 0.5563 0.22521 0.79436 0.0
H1454 H 0.45039 0.27864 0.79291 0.0
H1455 H 0.54909 0.29465 0.81277 0.0
H1456 H 0.52082 0.21717 0.81302 0.0
H1457 H 0.48716 0.2155 0.83281 0.0
C1458 C 0.45808 0.22625 0.81439 0.0
C1459 C 0.4481 0.24364 0.80189 0.0
C1460 C 0.52742 0.234 0.81428 0.0
C1461 C 0.48971 0.25018 0.82171 0.0
C1462 C 0.5478 0.2385 0.80359 0.0
C1463 C 0.55526 0.26059 0.8019 0.0
C1464 C 0.51427 0.25195 0.8224 0.0
C1465 C 0.54361 0.2774 0.81367 0.0
C1466 C 0.47883 0.22955 0.82471 0.0
C1467 C 0.45785 0.26484 0.80227 0.0
N1468 N 0.52321 0.2729 0.82275 0.0
N1469 N 0.47846 0.26743 0.81159 0.0
H1470 H -0.00177 0.18988 0.03765 0.0
H1471 H 0.92725 0.28404 0.97527 0.0
H1472 H 0.94641 0.17673 0.9882 0.0
H1473 H 0.98301 0.2972 0.02022 0.0
H1474 H 0.92819 0.24475 0.98674 0.0
H1475 H 0.98558 0.2288 0.04029 0.0
C1476 C 0.98335 0.19495 0.02838 0.0
C1477 C 0.97318 0.18031 0.0128 0.0
C1478 C 0.94018 0.25622 0.99419 0.0
C1479 C 0.95945 0.22473 0.01463 0.0
C1480 C 0.93985 0.27858 0.98738 0.0
C1481 C 0.95549 0.29368 0.99632 0.0
C1482 C 0.95635 0.24889 0.00999 0.0
C1483 C 0.97095 0.28593 0.01259 0.0
C1484 C 0.9764 0.21723 0.0295 0.0
C1485 C 0.95445 0.18764 1.00057 0.0
N1486 N 0.97114 0.26398 0.01874 0.0
N1487 N 0.94846 0.20954 1.00133 0.0
H1488 H 0.91945 0.72572 0.8061 0.0
H1489 H 0.04441 0.75289 0.82576 0.0
H1490 H 0.949 0.79115 0.81254 0.0
H1491 H 0.01679 0.69128 0.79969 0.0
H1492 H 0.00809 0.76183 0.84299 0.0
H1493 H 0.9518 0.70959 0.82606 0.0
C1494 C 0.93232 0.73674 0.81267 0.0
C1495 C 0.93224 0.75953 0.80718 0.0
C1496 C 0.01022 0.74595 0.83425 0.0
C1497 C 0.96906 0.74146 0.82932 0.0
C1498 C 0.03091 0.74089 0.82439 0.0
C1499 C 0.03303 0.7219 0.81045 0.0
C1500 C 0.99182 0.73195 0.82979 0.0
C1501 C 0.01534 0.70661 0.80954 0.0
C1502 C 0.95076 0.7276 0.82401 0.0
C1503 C 0.94904 0.77331 0.816 0.0
N1504 N -0.00476 0.71222 0.81859 0.0
N1505 N 0.96713 0.76399 0.82623 0.0
H1506 H 0.96784 0.31552 0.53435 0.0
H1507 H 0.92525 0.21607 0.50669 0.0
H1508 H 0.02827 0.27624 0.53331 0.0
H1509 H 0.97943 0.18459 0.54342 0.0
H1510 H 0.93579 0.25195 0.52305 0.0
H1511 H 0.94683 0.28189 0.54571 0.0
C1512 C 0.9767 0.29993 0.53723 0.0
C1513 C -0.0005 0.29815 0.53223 0.0
C1514 C 0.94489 0.23717 0.52838 0.0
C1515 C 0.97594 0.26003 0.54447 0.0
C1516 C 0.93908 0.2167 0.51869 0.0
C1517 C 0.95201 0.19763 0.52316 0.0
C1518 C 0.96411 0.23856 0.54218 0.0
C1519 C 0.96938 0.19911 0.53919 0.0
C1520 C 0.96476 0.28077 0.54348 0.0
C1521 C 0.01048 0.27789 0.53638 0.0
N1522 N 0.9754 0.21944 0.54759 0.0
N1523 N -0.00149 0.25944 0.54191 0.0
H1524 H 0.43783 0.24554 0.3095 0.0
H1525 H 0.56508 0.27611 0.29404 0.0
H1526 H 0.46351 0.30568 0.278 0.0
H1527 H 0.53754 0.20956 0.29777 0.0
H1528 H 0.52936 0.29124 0.30807 0.0
H1529 H 0.47513 0.23771 0.32491 0.0
C1530 C 0.45116 0.25744 0.30647 0.0
C1531 C 0.44798 0.27581 0.29184 0.0
C1532 C 0.53147 0.27326 0.30669 0.0
C1533 C 0.49027 0.26709 0.30933 0.0
C1534 C 0.55178 0.26468 0.29876 0.0
C1535 C 0.55374 0.24174 0.29435 0.0
C1536 C 0.51337 0.25864 0.31016 0.0
C1537 C 0.53626 0.22746 0.30059 0.0
C1538 C 0.47238 0.253 0.31527 0.0
C1539 C 0.46561 0.29091 0.28862 0.0
N1540 N 0.51658 0.23618 0.30784 0.0
N1541 N 0.48619 0.28599 0.29692 0.0
H1542 H 0.49065 0.79028 0.05115 0.0
H1543 H 0.4581 0.68445 0.0359 0.0
H1544 H 0.5439 0.77015 1.00551 0.0
H1545 H 0.52494 0.6689 0.01358 0.0
H1546 H 0.47116 0.71995 0.05112 0.0
H1547 H 0.48693 0.75139 0.06386 0.0
C1548 C 0.50172 0.77769 0.04403 0.0
C1549 C 0.51687 0.78311 0.02651 0.0
C1550 C 0.48337 0.70858 0.04391 0.0
C1551 C 0.51226 0.73872 0.04021 0.0
C1552 C 0.47579 0.68831 0.03509 0.0
C1553 C 0.49052 0.67422 0.02331 0.0
C1554 C 0.50574 0.71488 0.04025 0.0
C1555 C 0.51318 0.67963 0.0225 0.0
C1556 C 0.49948 0.75545 0.05112 0.0
C1557 C 0.53134 0.76644 0.01838 0.0
N1558 N 0.52005 0.69991 0.03033 0.0
N1559 N 0.52837 0.74489 0.02495 0.0
H1560 H 0.9362 0.24616 0.70111 0.0
H1561 H 0.03733 0.28725 0.72256 0.0
H1562 H 0.96522 0.18803 0.73349 0.0
H1563 H 0.06305 0.21988 0.72271 0.0
H1564 H 0.00285 0.2739 0.70541 0.0
H1565 H 0.97349 0.25715 0.68767 0.0
C1566 C 0.95038 0.2355 0.70495 0.0
C1567 C 0.94797 0.21673 0.71919 0.0
C1568 C 0.01624 0.26201 0.70806 0.0
C1569 C 0.99038 0.22936 0.70462 0.0
C1570 C 0.03591 0.26969 0.71804 0.0
C1571 C 0.05262 0.25448 0.72427 0.0
C1572 C 0.01315 0.23884 0.70507 0.0
C1573 C 0.05028 0.23198 0.7182 0.0
C1574 C 0.97166 0.24186 0.69748 0.0
C1575 C 0.96662 0.20314 0.72328 0.0
N1576 N 0.03051 0.22466 0.70955 0.0
N1577 N 0.98714 0.20996 0.71641 0.0
H1578 H 0.48907 0.29304 0.45668 0.0
H1579 H 0.53782 0.19562 0.47553 0.0
H1580 H 0.436 0.26088 0.4945 0.0
H1581 H 0.47291 0.16541 0.48267 0.0
H1582 H 0.52076 0.22833 0.45807 0.0
H1583 H 0.50067 0.25636 0.44191 0.0
C1584 C 0.47962 0.27829 0.46149 0.0
C1585 C 0.46226 0.27968 0.47762 0.0
C1586 C 0.51012 0.21429 0.46232 0.0
C1587 C 0.47571 0.23793 0.46155 0.0
C1588 C 0.51995 0.19563 0.47246 0.0
C1589 C 0.50658 0.17826 0.48084 0.0
C1590 C 0.48668 0.21577 0.4614 0.0
C1591 C 0.48363 0.17875 0.47654 0.0
C1592 C 0.48633 0.25735 0.45322 0.0
C1593 C 0.45011 0.2603 0.48282 0.0
N1594 N 0.47425 0.19765 0.46777 0.0
N1595 N 0.45736 0.24013 0.4752 0.0
H1596 H 0.44363 0.77995 0.2195 0.0
H1597 H 0.54949 0.78313 0.19568 0.0
H1598 H 0.44178 0.71028 0.20058 0.0
H1599 H 0.54191 0.71643 0.22273 0.0
H1600 H 0.51277 0.7801 0.17752 0.0
H1601 H 0.47998 0.78336 0.20081 0.0
C1602 C 0.45042 0.7657 0.21027 0.0
C1603 C 0.44006 0.74481 0.21163 0.0
C1604 C 0.51956 0.76577 0.18657 0.0
C1605 C 0.48177 0.74816 0.19101 0.0
C1606 C 0.54061 0.76737 0.1967 0.0
C1607 C 0.54834 0.7501 0.21097 0.0
C1608 C 0.50634 0.74689 0.1912 0.0
C1609 C 0.53627 0.73013 0.21198 0.0
C1610 C 0.47118 0.76758 0.1995 0.0
C1611 C 0.44952 0.72664 0.1999 0.0
N1612 N 0.51553 0.72923 0.20267 0.0
N1613 N 0.47028 0.72851 0.19073 0.0
H1614 H 0.96138 0.66096 0.99207 0.0
H1615 H 0.93319 0.76477 1.00241 0.0
H1616 H 0.02618 0.68719 0.9747 0.0
H1617 H -0.00495 0.7835 0.96971 0.0
H1618 H 0.93615 0.72784 0.98577 0.0
H1619 H 0.94407 0.69388 0.97463 0.0
C1620 C 0.97188 0.67332 0.98371 0.0
C1621 C -0.00488 0.67198 0.98537 0.0
C1622 C 0.94891 0.73991 0.98145 0.0
C1623 C 0.97585 0.7105 0.96757 0.0
C1624 C 0.94724 0.76111 0.99125 0.0
C1625 C 0.96441 0.77673 0.9882 0.0
C1626 C 0.96829 0.73413 0.96905 0.0
C1627 C 0.98179 0.77158 0.97298 0.0
C1628 C 0.96207 0.69246 0.97425 0.0
C1629 C 0.0081 0.68812 0.97419 0.0
N1630 N 0.98365 0.75044 0.96451 0.0
N1631 N -0.00168 0.70713 0.96638 0.0
H1632 H 0.07177 0.25659 0.34173 0.0
H1633 H 0.08416 0.3669 0.41974 0.0
H1634 H 0.10038 0.31823 0.31638 0.0
H1635 H 0.05268 0.30554 0.44202 0.0
H1636 H 0.09166 0.3494 0.38222 0.0
H1637 H 0.06539 0.27448 0.37878 0.0
C1638 C 0.07655 0.27394 0.34379 0.0
C1639 C 0.08661 0.28586 0.32569 0.0
C1640 C 0.08318 0.3398 0.3954 0.0
C1641 C 0.07964 0.30649 0.36858 0.0
C1642 C 0.07898 0.34975 0.41686 0.0
C1643 C 0.06774 0.33774 0.43413 0.0
C1644 C 0.07612 0.31768 0.39123 0.0
C1645 C 0.06133 0.31557 0.42931 0.0
C1646 C 0.07305 0.28414 0.36512 0.0
C1647 C 0.0928 0.30825 0.32981 0.0
N1648 N 0.06556 0.30635 0.4084 0.0
N1649 N 0.08923 0.31782 0.35077 0.0
H1650 H 0.88344 0.83267 0.6782 0.0
H1651 H 0.002 0.83035 0.61431 0.0
H1652 H 0.94413 0.80816 0.70935 0.0
H1653 H 0.93997 0.82636 0.57691 0.0
H1654 H 0.98101 0.83045 0.65044 0.0
H1655 H 0.90404 0.83836 0.64189 0.0
C1656 C 0.90111 0.82878 0.67748 0.0
C1657 C 0.91209 0.81984 0.69673 0.0
C1658 C 0.97197 0.82971 0.63432 0.0
C1659 C 0.93563 0.82645 0.65561 0.0
C1660 C 0.98394 0.82982 0.6137 0.0
C1661 C 0.97271 0.8283 0.59259 0.0
C1662 C 0.94854 0.82834 0.63388 0.0
C1663 C 0.94925 0.82731 0.59284 0.0
C1664 C 0.91279 0.83189 0.65679 0.0
C1665 C 0.93497 0.81493 0.69486 0.0
N1666 N 0.9379 0.82737 0.61318 0.0
N1667 N 0.94597 0.81834 0.67473 0.0
H1668 H 0.44131 0.60753 0.89668 0.0
H1669 H 0.40786 0.7236 0.83735 0.0
H1670 H 0.4258 0.66739 0.9352 0.0
H1671 H 0.40956 0.66072 0.80081 0.0
H1672 H 0.41561 0.70356 0.87319 0.0
H1673 H 0.43011 0.6267 0.86135 0.0
C1674 C 0.43528 0.62461 0.89777 0.0
C1675 C 0.43452 0.63584 0.91898 0.0
C1676 C 0.41422 0.69413 0.85734 0.0
C1677 C 0.42203 0.65806 0.87845 0.0
C1678 C 0.41 0.7056 0.83682 0.0
C1679 C 0.40812 0.69384 0.81597 0.0
C1680 C 0.4168 0.67073 0.85706 0.0
C1681 C 0.41068 0.67045 0.81646 0.0
C1682 C 0.42894 0.63558 0.87755 0.0
C1683 C 0.42659 0.65801 0.91927 0.0
N1684 N 0.415 0.6597 0.83662 0.0
N1685 N 0.42088 0.66845 0.89931 0.0
H1686 H 0.53964 0.17335 0.08649 0.0
H1687 H 0.60759 0.1412 0.20078 0.0
H1688 H 0.55555 0.10519 0.10519 0.0
H1689 H 0.5843 0.20772 0.1843 0.0
H1690 H 0.59229 0.12784 0.16403 0.0
H1691 H 0.55924 0.18637 0.12065 0.0
C1692 C 0.54719 0.16108 0.09777 0.0
C1693 C 0.54571 0.13809 0.09294 0.0
C1694 C 0.59066 0.14538 0.16846 0.0
C1695 C 0.56853 0.15297 0.1322 0.0
C1696 C 0.59948 0.15302 0.18937 0.0
C1697 C 0.59702 0.17557 0.19576 0.0
C1698 C 0.57948 0.16045 0.15383 0.0
C1699 C 0.58632 0.19014 0.18031 0.0
C1700 C 0.55853 0.16855 0.11727 0.0
C1701 C 0.55634 0.12306 0.10805 0.0
N1702 N 0.57791 0.18234 0.16018 0.0
N1703 N 0.56719 0.13075 0.12705 0.0
H1704 H 0.09187 0.64822 0.10212 0.0
H1705 H 0.05132 0.74615 0.18738 0.0
H1706 H 0.03248 0.68791 0.09113 0.0
H1707 H 0.1054 0.70071 0.20271 0.0
H1708 H 0.04603 0.72708 0.15043 0.0
H1709 H 0.09888 0.66919 0.13763 0.0
C1710 C 0.08034 0.66136 0.1071 0.0
C1711 C 0.0615 0.66619 0.09363 0.0
C1712 C 0.05906 0.72129 0.1619 0.0
C1713 C 0.06943 0.69032 0.13425 0.0
C1714 C 0.06214 0.73226 0.18295 0.0
C1715 C 0.07865 0.7249 0.19834 0.0
C1716 C 0.0727 0.70293 0.15609 0.0
C1717 C 0.09215 0.7067 0.19168 0.0
C1718 C 0.08433 0.67331 0.12741 0.0
C1719 C 0.04716 0.68345 0.10099 0.0
N1720 N 0.08886 0.69637 0.17112 0.0
N1721 N 0.05141 0.69484 0.12076 0.0
H1722 H 0.59121 0.83298 0.33396 0.0
H1723 H 0.49169 0.79672 0.41874 0.0
H1724 H 0.54297 0.78143 0.31843 0.0
H1725 H 0.5461 0.83942 0.43977 0.0
H1726 H 0.50905 0.79299 0.38086 0.0
H1727 H 0.57367 0.83775 0.37188 0.0
C1728 C 0.57692 0.82275 0.33845 0.0
C1729 C 0.56863 0.80674 0.32298 0.0
C1730 C 0.51725 0.80312 0.39379 0.0
C1731 C 0.54851 0.81209 0.36625 0.0
C1732 C 0.50728 0.80532 0.41541 0.0
C1733 C 0.51746 0.81832 0.43256 0.0
C1734 C 0.53751 0.81414 0.38912 0.0
C1735 C 0.5378 0.82894 0.42725 0.0
C1736 C 0.56697 0.82541 0.36012 0.0
C1737 C 0.55008 0.79389 0.32979 0.0
N1738 N 0.54711 0.82668 0.406 0.0
N1739 N 0.54068 0.79687 0.35083 0.0
H1740 H 0.4383 0.26963 0.68352 0.0
H1741 H 0.39751 0.36018 0.59063 0.0
H1742 H 0.38047 0.3114 0.69547 0.0
H1743 H 0.44163 0.30454 0.57662 0.0
H1744 H 0.39288 0.34598 0.6303 0.0
H1745 H 0.44232 0.28622 0.64559 0.0
C1746 C 0.42635 0.28221 0.67822 0.0
C1747 C 0.40885 0.28883 0.69282 0.0
C1748 C 0.40365 0.33707 0.61844 0.0
C1749 C 0.41355 0.30828 0.64907 0.0
C1750 C 0.40627 0.34514 0.59584 0.0
C1751 C 0.42039 0.33388 0.58033 0.0
C1752 C 0.41529 0.31771 0.62544 0.0
C1753 C 0.43116 0.31432 0.58801 0.0
C1754 C 0.42871 0.29179 0.65649 0.0
C1755 C 0.39428 0.30576 0.68497 0.0
N1756 N 0.42848 0.307 0.60989 0.0
N1757 N 0.39691 0.31485 0.6636 0.0
H1758 H 0.95466 0.17068 0.92083 0.0
H1759 H 0.88619 0.13152 0.80976 0.0
H1760 H 0.93636 0.10179 0.90887 0.0
H1761 H 0.89649 0.20051 0.8289 0.0
H1762 H 0.90286 0.1199 0.8465 0.0
H1763 H 0.93295 0.18165 0.88715 0.0
C1764 C 0.94617 0.15783 0.91105 0.0
C1765 C 0.94746 0.13526 0.91765 0.0
C1766 C 0.90126 0.13759 0.84272 0.0
C1767 C 0.92228 0.14773 0.87902 0.0
C1768 C 0.89159 0.14422 0.82184 0.0
C1769 C 0.8903 0.16703 0.81609 0.0
C1770 C 0.90971 0.15391 0.85786 0.0
C1771 C 0.89767 0.18276 0.83234 0.0
C1772 C 0.93358 0.16412 0.8919 0.0
C1773 C 0.93571 0.1194 0.9045 0.0
N1774 N 0.90723 0.17593 0.85231 0.0
N1775 N 0.92374 0.1259 0.88574 0.0
H1776 H 0.87622 0.69316 0.69789 0.0
H1777 H 0.95416 0.68961 0.5861 0.0
H1778 H 0.93287 0.7367 0.68712 0.0
H1779 H 0.90356 0.63983 0.5998 0.0
H1780 H 0.9453 0.7077 0.62238 0.0
H1781 H 0.88488 0.67415 0.66182 0.0
C1782 C 0.89058 0.69871 0.68814 0.0
C1783 C 0.90384 0.71668 0.69585 0.0
C1784 C 0.93611 0.69281 0.61755 0.0
C1785 C 0.91364 0.69497 0.65405 0.0
C1786 C 0.94118 0.68236 0.59674 0.0
C1787 C 0.92969 0.66297 0.58979 0.0
C1788 C 0.91928 0.68402 0.63171 0.0
C1789 C 0.91289 0.65468 0.6044 0.0
C1790 C 0.89543 0.68784 0.66739 0.0
C1791 C 0.92197 0.72319 0.68197 0.0
N1792 N 0.90818 0.66526 0.62466 0.0
N1793 N 0.92628 0.71238 0.66183 0.0
H1794 H 0.97823 0.17286 0.40583 0.0
H1795 H 0.09131 0.16399 0.33438 0.0
H1796 H 0.0429 0.16348 0.43758 0.0
H1797 H 0.03717 0.20609 0.31117 0.0
H1798 H 0.07104 0.15756 0.37044 0.0
H1799 H -0.00288 0.18022 0.36916 0.0
C1800 C -0.00371 0.17243 0.40533 0.0
C1801 C 0.00881 0.16716 0.42512 0.0
C1802 C 0.0636 0.16817 0.3574 0.0
C1803 C 0.03043 0.17509 0.38292 0.0
C1804 C 0.07509 0.17173 0.33678 0.0
C1805 C 0.06596 0.18564 0.31978 0.0
C1806 C 0.04262 0.17824 0.3609 0.0
C1807 C 0.04488 0.19534 0.3239 0.0
C1808 C 0.00704 0.17657 0.38429 0.0
C1809 C 0.03227 0.16686 0.423 0.0
N1810 N 0.03385 0.19136 0.344 0.0
N1811 N 0.04221 0.1705 0.40234 0.0
H1812 H 0.58541 0.34722 0.08329 0.0
H1813 H 0.55377 0.26302 0.18575 0.0
H1814 H 0.52307 0.31102 0.08691 0.0
H1815 H 0.61276 0.30453 0.18574 0.0
H1816 H 0.54214 0.28056 0.14962 0.0
H1817 H 0.59531 0.33255 0.12127 0.0
C1818 C 0.57368 0.33641 0.09213 0.0
C1819 C 0.55342 0.3303 0.08174 0.0
C1820 C 0.55759 0.2859 0.15759 0.0
C1821 C 0.5648 0.31317 0.12519 0.0
C1822 C 0.56431 0.27576 0.17817 0.0
C1823 C 0.58428 0.28228 0.18891 0.0
C1824 C 0.57099 0.30259 0.14751 0.0
C1825 C 0.5971 0.29913 0.17833 0.0
C1826 C 0.57939 0.32796 0.11381 0.0
C1827 C 0.53893 0.31617 0.09411 0.0
N1828 N 0.5903 0.3086 0.15824 0.0
N1829 N 0.54497 0.30797 0.11504 0.0
H1830 H 0.42252 0.83502 0.93697 0.0
H1831 H 0.43627 0.77488 0.81503 0.0
H1832 H 0.48182 0.79901 0.91643 0.0
H1833 H 0.38348 0.82222 0.82941 0.0
H1834 H 0.45201 0.78209 0.85288 0.0
H1835 H 0.40681 0.82894 0.89867 0.0
C1836 C 0.43219 0.82569 0.92448 0.0
C1837 C 0.4535 0.81737 0.93003 0.0
C1838 C 0.43703 0.79098 0.84779 0.0
C1839 C 0.43563 0.81053 0.886 0.0
C1840 C 0.42793 0.78682 0.82615 0.0
C1841 C 0.40842 0.79792 0.81899 0.0
C1842 C 0.42651 0.80624 0.86263 0.0
C1843 C 0.39854 0.81331 0.83418 0.0
C1844 C 0.42327 0.82239 0.90254 0.0
C1845 C 0.46541 0.80581 0.91292 0.0
N1846 N 0.40763 0.81694 0.85534 0.0
N1847 N 0.45627 0.80264 0.89176 0.0
H1848 H 0.90721 0.36274 0.90253 0.0
H1849 H 0.90538 0.24349 0.83954 0.0
H1850 H 0.92304 0.30134 0.93819 0.0
H1851 H 0.91018 0.30698 0.80416 0.0
H1852 H 0.90789 0.26343 0.8763 0.0
H1853 H 0.90296 0.34153 0.86694 0.0
C1854 C 0.90955 0.34475 0.903 0.0
C1855 C 0.91557 0.33388 0.9235 0.0
C1856 C 0.90836 0.27291 0.86041 0.0
C1857 C 0.91086 0.30939 0.88252 0.0
C1858 C 0.90706 0.26152 0.83934 0.0
C1859 C 0.90735 0.27345 0.81842 0.0
C1860 C 0.90977 0.29641 0.86066 0.0
C1861 C 0.90938 0.29692 0.81958 0.0
C1862 C 0.90726 0.33265 0.88258 0.0
C1863 C 0.9184 0.31048 0.92287 0.0
N1864 N 0.91038 0.30754 0.84023 0.0
N1865 N 0.91607 0.29901 0.90273 0.0
H1866 H 0.48473 0.18303 0.5926 0.0
H1867 H 0.39764 0.15235 0.69291 0.0
H1868 H 0.44673 0.12161 0.59387 0.0
H1869 H 0.43728 0.21272 0.69127 0.0
H1870 H 0.41429 0.14115 0.65606 0.0
H1871 H 0.46659 0.19445 0.62831 0.0
C1872 C 0.47265 0.17187 0.60037 0.0
C1873 C 0.46737 0.15126 0.59009 0.0
C1874 C 0.41925 0.15688 0.66377 0.0
C1875 C 0.44625 0.1644 0.63112 0.0
C1876 C 0.40973 0.1633 0.6848 0.0
C1877 C 0.41602 0.18352 0.69529 0.0
C1878 C 0.43519 0.17078 0.65314 0.0
C1879 C 0.43182 0.197 0.68393 0.0
C1880 C 0.46217 0.17848 0.62076 0.0
C1881 C 0.45122 0.13774 0.60091 0.0
N1882 N 0.44084 0.19038 0.66358 0.0
N1883 N 0.4413 0.14451 0.62083 0.0
H1884 H 0.56525 0.73563 0.33983 0.0
H1885 H 0.58641 0.62956 0.42143 0.0
H1886 H 0.59707 0.67503 0.31552 0.0
H1887 H 0.54096 0.68361 0.43729 0.0
H1888 H 0.59423 0.64736 0.38408 0.0
H1889 H 0.55949 0.71797 0.37696 0.0
C1890 C 0.57091 0.71857 0.34206 0.0
C1891 C 0.5816 0.70689 0.32413 0.0
C1892 C 0.58261 0.65529 0.39583 0.0
C1893 C 0.57536 0.68657 0.36732 0.0
C1894 C 0.57825 0.64522 0.41718 0.0
C1895 C 0.56297 0.65505 0.43252 0.0
C1896 C 0.57179 0.67543 0.38994 0.0
C1897 C 0.55277 0.6753 0.42602 0.0
C1898 C 0.56771 0.7085 0.36348 0.0
C1899 C 0.58892 0.68488 0.32869 0.0
N1900 N 0.55737 0.68478 0.40532 0.0
N1901 N 0.5857 0.67547 0.3498 0.0
H1902 H 0.11473 0.82652 0.18133 0.0
H1903 H 0.001 0.83267 0.10893 0.0
H1904 H 0.04882 0.82523 0.21128 0.0
H1905 H 0.06297 0.80986 0.07896 0.0
H1906 H 0.01998 0.8379 0.14557 0.0
H1907 H 0.0976 0.82833 0.14277 0.0
C1908 C 0.09671 0.82719 0.1798 0.0
C1909 C 0.08313 0.82579 0.19944 0.0
C1910 C 0.02949 0.83187 0.13095 0.0
C1911 C 0.06354 0.82772 0.15572 0.0
C1912 C 0.01867 0.82899 0.10993 0.0
C1913 C 0.03034 0.82069 0.09076 0.0
C1914 C 0.05228 0.82662 0.13296 0.0
C1915 C 0.05325 0.816 0.09334 0.0
C1916 C 0.08696 0.82797 0.15785 0.0
C1917 C 0.05986 0.82628 0.19655 0.0
N1918 N 0.06348 0.81901 0.11406 0.0
N1919 N 0.05084 0.82718 0.17515 0.0
H1920 H 0.61145 0.82173 0.82964 0.0
H1921 H 0.51537 0.84826 0.92165 0.0
H1922 H 0.54456 0.79523 0.82594 0.0
H1923 H 0.58524 0.85896 0.9359 0.0
H1924 H 0.52509 0.83519 0.88316 0.0
H1925 H 0.60146 0.84111 0.86542 0.0
C1926 C 0.59461 0.82015 0.83623 0.0
C1927 C 0.57881 0.80677 0.8248 0.0
C1928 C 0.53832 0.84054 0.8946 0.0
C1929 C 0.56728 0.82895 0.86568 0.0
C1930 C 0.53279 0.84799 0.91661 0.0
C1931 C 0.54956 0.85422 0.93221 0.0
C1932 C 0.56084 0.8394 0.88796 0.0
C1933 C 0.57179 0.85425 0.92445 0.0
C1934 C 0.58896 0.83113 0.8567 0.0
C1935 C 0.55731 0.80512 0.8343 0.0
N1936 N 0.57683 0.84668 0.90292 0.0
N1937 N 0.55219 0.81609 0.85413 0.0
H1938 H 0.37018 0.27099 0.16253 0.0
H1939 H 0.47576 0.3233 0.09809 0.0
H1940 H 0.41604 0.31693 0.19496 0.0
H1941 H 0.42381 0.28633 0.06335 0.0
H1942 H 0.45331 0.32272 0.13322 0.0
H1943 H 0.38837 0.27816 0.12561 0.0
C1944 C 0.38378 0.28293 0.16186 0.0
C1945 C 0.39162 0.29325 0.18201 0.0
C1946 C 0.44676 0.31488 0.11784 0.0
C1947 C 0.41288 0.30125 0.13969 0.0
C1948 C 0.45958 0.31527 0.09768 0.0
C1949 C 0.45187 0.30468 0.07759 0.0
C1950 C 0.42608 0.30372 0.11807 0.0
C1951 C 0.43076 0.29433 0.07841 0.0
C1952 C 0.39426 0.28693 0.14074 0.0
C1953 C 0.4094 0.30852 0.17996 0.0
N1954 N 0.41874 0.29398 0.09828 0.0
N1955 N 0.41959 0.31181 0.15928 0.0
H1956 H 0.906 0.16623 0.42852 0.0
H1957 H 0.9545 0.18224 0.30111 0.0
H1958 H 0.9544 0.12194 0.39733 0.0
H1959 H 0.90321 0.22458 0.33017 0.0
H1960 H 0.95342 0.15913 0.33569 0.0
H1961 H 0.90288 0.18638 0.39201 0.0
C1962 C 0.91565 0.16043 0.41391 0.0
C1963 C 0.93056 0.14234 0.41613 0.0
C1964 C 0.94231 0.17341 0.33449 0.0
C1965 C 0.92735 0.1657 0.37428 0.0
C1966 C 0.94287 0.18663 0.31464 0.0
C1967 C 0.92892 0.20548 0.31256 0.0
C1968 C 0.92769 0.17898 0.35255 0.0
C1969 C 0.91449 0.21044 0.331 0.0
C1970 C 0.91398 0.17208 0.39307 0.0
C1971 C 0.94269 0.13575 0.39653 0.0
N1972 N 0.91428 0.19731 0.35018 0.0
N1973 N 0.94099 0.14754 0.37657 0.0
H1974 H 0.013 0.69085 0.59811 0.0
H1975 H 0.09812 0.65107 0.69673 0.0
H1976 H 0.05286 0.63076 0.59283 0.0
H1977 H 0.0587 0.71167 0.69941 0.0
H1978 H 0.0829 0.64353 0.65824 0.0
H1979 H 0.03039 0.69881 0.63514 0.0
C1980 C 0.02536 0.67928 0.60473 0.0
C1981 C 0.03141 0.6601 0.59225 0.0
C1982 C 0.07771 0.65851 0.66728 0.0
C1983 C 0.05163 0.66919 0.63476 0.0
C1984 C 0.08644 0.66285 0.68922 0.0
C1985 C 0.07967 0.68198 0.70144 0.0
C1986 C 0.06213 0.67343 0.65754 0.0
C1987 C 0.06442 0.69664 0.69081 0.0
C1988 C 0.03541 0.6839 0.62587 0.0
C1989 C 0.04783 0.6459 0.60165 0.0
N1990 N 0.05617 0.69202 0.66961 0.0
N1991 N 0.0573 0.65069 0.62235 0.0
H1992 H 0.55633 0.22869 0.68458 0.0
H1993 H 0.59835 0.13346 0.59715 0.0
H1994 H 0.61834 0.1928 0.69414 0.0
H1995 H 0.54316 0.17845 0.5845 0.0
H1996 H 0.60522 0.15293 0.63381 0.0
H1997 H 0.55028 0.20819 0.649 0.0
C1998 C 0.56876 0.2166 0.67924 0.0
C1999 C 0.58797 0.2127 0.69252 0.0
C2000 C 0.5916 0.15844 0.62294 0.0
C2001 C 0.58095 0.18875 0.65155 0.0
C2002 C 0.58768 0.14734 0.60202 0.0
C2003 C 0.57003 0.15414 0.5877 0.0
C2004 C 0.57771 0.17637 0.62957 0.0
C2005 C 0.55679 0.17231 0.59495 0.0
C2006 C 0.56524 0.20477 0.65887 0.0
C2007 C 0.60318 0.19634 0.68472 0.0
N2008 N 0.56086 0.18266 0.61528 0.0
N2009 N 0.59937 0.18501 0.66476 0.0
H2010 H 0.09508 0.34911 0.82859 0.0
H2011 H 0.00055 0.31583 0.92005 0.0
H2012 H 0.06748 0.2826 0.83489 0.0
H2013 H 0.03185 0.38084 0.91718 0.0
H2014 H 0.02701 0.30241 0.89093 0.0
H2015 H 0.07411 0.36031 0.86292 0.0
C2016 C 0.08484 0.33679 0.8373 0.0
C2017 C 0.08294 0.31493 0.82865 0.0
C2018 C 0.02819 0.31958 0.89681 0.0
C2019 C 0.05869 0.32767 0.86789 0.0
C2020 C 0.01315 0.32719 0.91355 0.0
C2021 C 0.01374 0.34958 0.92087 0.0
C2022 C 0.04394 0.33446 0.88731 0.0
C2023 C 0.03039 0.3636 0.91168 0.0
C2024 C 0.07281 0.3432 0.8569 0.0
C2025 C 0.06938 0.29969 0.84074 0.0
N2026 N 0.04466 0.35588 0.8953 0.0
N2027 N 0.05766 0.30639 0.85957 0.0
H2028 H 0.88158 0.8079 0.20386 0.0
H2029 H 0.96388 0.81746 0.09596 0.0
H2030 H 0.94099 0.76782 0.19516 0.0
H2031 H 0.89658 0.84361 0.09478 0.0
H2032 H 0.95789 0.80439 0.13501 0.0
H2033 H 0.88883 0.82567 0.16659 0.0
C2034 C 0.89628 0.803 0.19423 0.0
C2035 C 0.91074 0.78634 0.20266 0.0
C2036 C 0.94444 0.8131 0.12631 0.0
C2037 C 0.91907 0.80659 0.15998 0.0
C2038 C 0.94789 0.82079 0.10397 0.0
C2039 C 0.93068 0.8317 0.09188 0.0
C2040 C 0.92363 0.81628 0.13689 0.0
C2041 C 0.91031 0.83527 0.10335 0.0
C2042 C 0.90031 0.81305 0.17289 0.0
C2043 C 0.92932 0.78042 0.18924 0.0
N2044 N 0.9073 0.82749 0.1252 0.0
N2045 N 0.93298 0.79056 0.16863 0.0
H2046 H 0.39245 0.65234 0.31842 0.0
H2047 H 0.47525 0.68122 0.42271 0.0
H2048 H 0.42866 0.71455 0.32462 0.0
H2049 H 0.44199 0.61749 0.41527 0.0
H2050 H 0.45733 0.69405 0.38742 0.0
H2051 H 0.40907 0.63976 0.3547 0.0
C2052 C 0.40378 0.66341 0.32743 0.0
C2053 C 0.40917 0.68453 0.31837 0.0
C2054 C 0.45392 0.67725 0.39352 0.0
C2055 C 0.42833 0.6702 0.35989 0.0
C2056 C 0.46428 0.66984 0.41366 0.0
C2057 C 0.46023 0.64817 0.4221 0.0
C2058 C 0.43934 0.66294 0.3816 0.0
C2059 C 0.44547 0.6344 0.40968 0.0
C2060 C 0.41331 0.65619 0.34813 0.0
C2061 C 0.42401 0.69812 0.33085 0.0
N2062 N 0.43562 0.64199 0.39009 0.0
N2063 N 0.43307 0.69072 0.35089 0.0
H2064 H 0.4663 0.1255 0.11948 0.0
H2065 H 0.41441 0.23894 0.1703 0.0
H2066 H 0.44604 0.18036 0.07576 0.0
H2067 H 0.44707 0.18803 0.21093 0.0
H2068 H 0.42433 0.21802 0.13532 0.0
H2069 H 0.45661 0.14779 0.15308 0.0
C2070 C 0.45962 0.14219 0.1169 0.0
C2071 C 0.457 0.15102 0.09469 0.0
C2072 C 0.42936 0.21153 0.15193 0.0
C2073 C 0.446 0.1769 0.13337 0.0
C2074 C 0.42385 0.22354 0.17189 0.0
C2075 C 0.42967 0.21513 0.19369 0.0
C2076 C 0.44069 0.19095 0.15382 0.0
C2077 C 0.44176 0.19496 0.19464 0.0
C2078 C 0.45421 0.155 0.13616 0.0
C2079 C 0.44832 0.17284 0.09255 0.0
N2080 N 0.4467 0.18357 0.17509 0.0
N2081 N 0.44314 0.18505 0.11165 0.0
H2082 H 0.5545 0.72577 0.8293 0.0
H2083 H 0.54268 0.61704 0.90918 0.0
H2084 H 0.59157 0.66455 0.81869 0.0
H2085 H 0.50725 0.6788 0.92216 0.0
H2086 H 0.5609 0.63447 0.87631 0.0
H2087 H 0.53745 0.70928 0.86361 0.0
C2088 C 0.55918 0.7089 0.83423 0.0
C2089 C 0.57451 0.69652 0.82099 0.0
C2090 C 0.54918 0.64426 0.88635 0.0
C2091 C 0.55486 0.67748 0.86029 0.0
C2092 C 0.5388 0.63432 0.90529 0.0
C2093 C 0.52341 0.64643 0.91872 0.0
C2094 C 0.5442 0.66655 0.88058 0.0
C2095 C 0.51881 0.66869 0.91231 0.0
C2096 C 0.54938 0.69949 0.85383 0.0
C2097 C 0.57987 0.67475 0.8283 0.0
N2098 N 0.52916 0.67801 0.89374 0.0
N2099 N 0.57001 0.66592 0.84736 0.0
H2100 H 0.0391 0.85181 0.60802 0.0
H2101 H 0.10113 0.76888 0.69452 0.0
H2102 H 0.10659 0.82901 0.59692 0.0
H2103 H 0.04188 0.80601 0.71285 0.0
H2104 H 0.10317 0.7899 0.65834 0.0
H2105 H 0.03968 0.83502 0.64637 0.0
C2106 C 0.05412 0.84343 0.61376 0.0
C2107 C 0.07274 0.84164 0.59919 0.0
C2108 C 0.08981 0.79355 0.67035 0.0
C2109 C 0.07353 0.82213 0.64307 0.0
C2110 C 0.08853 0.78141 0.69092 0.0
C2111 C 0.07126 0.78563 0.70675 0.0
C2112 C 0.07354 0.80984 0.66538 0.0
C2113 C 0.05557 0.80232 0.70128 0.0
C2114 C 0.05449 0.83389 0.6357 0.0
C2115 C 0.09192 0.83089 0.60766 0.0
N2116 N 0.05698 0.81366 0.68103 0.0
N2117 N 0.09172 0.82126 0.62892 0.0
H2118 H 0.93904 0.28111 0.32453 0.0
H2119 H 0.94623 0.36762 0.42928 0.0
H2120 H 0.89897 0.34122 0.32818 0.0
H2121 H 0.98611 0.30755 0.42393 0.0
H2122 H 0.92784 0.35793 0.39315 0.0
H2123 H 0.95517 0.2901 0.3617 0.0
C2124 C 0.93349 0.29618 0.33319 0.0
C2125 C 0.9176 0.31047 0.32308 0.0
C2126 C 0.94059 0.34686 0.3999 0.0
C2127 C 0.93634 0.32098 0.36592 0.0
C2128 C 0.95107 0.35232 0.42063 0.0
C2129 C 0.96778 0.33836 0.4298 0.0
C2130 C 0.94682 0.32727 0.38818 0.0
C2131 C 0.97355 0.31897 0.41749 0.0
C2132 C 0.9428 0.30133 0.35448 0.0
C2133 C 0.91113 0.32971 0.33529 0.0
N2134 N 0.96308 0.31401 0.39738 0.0
N2135 N 0.92061 0.33447 0.35603 0.0
H2136 H 0.43646 0.78056 0.32484 0.0
H2137 H 0.38273 0.84647 0.43072 0.0
H2138 H 0.3694 0.80693 0.32274 0.0
H2139 H 0.45385 0.83995 0.42063 0.0
H2140 H 0.3768 0.83142 0.39187 0.0
H2141 H 0.44254 0.80031 0.3613 0.0
C2142 C 0.42302 0.79047 0.33207 0.0
C2143 C 0.40243 0.79213 0.32067 0.0
C2144 C 0.39371 0.83345 0.39815 0.0
C2145 C 0.40919 0.81478 0.36245 0.0
C2146 C 0.39711 0.84219 0.42026 0.0
C2147 C 0.41882 0.84402 0.42921 0.0
C2148 C 0.41214 0.82631 0.38498 0.0
C2149 C 0.4368 0.83813 0.41482 0.0
C2150 C 0.42652 0.80188 0.35279 0.0
C2151 C 0.38562 0.80539 0.33077 0.0
N2152 N 0.43306 0.82928 0.39362 0.0
N2153 N 0.3893 0.81604 0.35114 0.0
H2154 H 0.88808 0.64689 0.20069 0.0
H2155 H 0.96887 0.68389 0.09713 0.0
H2156 H 0.91488 0.71342 0.19202 0.0
H2157 H 0.94078 0.61758 0.10306 0.0
H2158 H 0.94811 0.69512 0.13142 0.0
H2159 H 0.90548 0.63602 0.16404 0.0
C2160 C 0.89739 0.65928 0.19102 0.0
C2161 C 0.9002 0.68106 0.19966 0.0
C2162 C 0.9464 0.67811 0.12518 0.0
C2163 C 0.92031 0.66872 0.15786 0.0
C2164 C 0.9584 0.67165 0.10564 0.0
C2165 C 0.95666 0.64973 0.09712 0.0
C2166 C 0.93258 0.66254 0.13647 0.0
C2167 C 0.94249 0.63472 0.10878 0.0
C2168 C 0.90742 0.65304 0.17015 0.0
C2169 C 0.91251 0.69637 0.18635 0.0
N2170 N 0.93109 0.64137 0.12788 0.0
N2171 N 0.92217 0.68989 0.16628 0.0
H2172 H 0.02331 0.15554 0.91737 0.0
H2173 H 0.12181 0.19189 0.83269 0.0
H2174 H 0.09273 0.14786 0.93611 0.0
H2175 H 0.0547 0.21797 0.82898 0.0
H2176 H 0.11151 0.17108 0.86757 0.0
H2177 H 0.03465 0.17325 0.88164 0.0
C2178 C 0.041 0.1574 0.91396 0.0
C2179 C 0.05709 0.15031 0.92999 0.0
C2180 C 0.09907 0.18136 0.85909 0.0
C2181 C 0.07018 0.17077 0.88875 0.0
C2182 C 0.10488 0.19311 0.83914 0.0
C2183 C 0.08905 0.20666 0.82793 0.0
C2184 C 0.07719 0.1829 0.86765 0.0
C2185 C 0.06744 0.20789 0.83718 0.0
C2186 C 0.04744 0.16765 0.8935 0.0
C2187 C 0.07975 0.15312 0.92432 0.0
N2188 N 0.06213 0.19609 0.85641 0.0
N2189 N 0.08565 0.16321 0.90415 0.0
H2190 H 0.54668 0.28769 0.69288 0.0
H2191 H 0.54814 0.34443 0.56811 0.0
H2192 H 0.59182 0.34127 0.67484 0.0
H2193 H 0.49636 0.29971 0.5917 0.0
H2194 H 0.56576 0.34215 0.60605 0.0
H2195 H 0.52939 0.29075 0.65513 0.0
C2196 C 0.553 0.30015 0.68099 0.0
C2197 C 0.57082 0.31424 0.68713 0.0
C2198 C 0.55053 0.33286 0.60292 0.0
C2199 C 0.55095 0.31777 0.64353 0.0
C2200 C 0.54055 0.334 0.58118 0.0
C2201 C 0.52072 0.32219 0.57662 0.0
C2202 C 0.54077 0.31966 0.62022 0.0
C2203 C 0.51149 0.30925 0.59443 0.0
C2204 C 0.54303 0.30191 0.65939 0.0
C2205 C 0.57811 0.33011 0.67092 0.0
N2206 N 0.52161 0.30828 0.61535 0.0
N2207 N 0.56821 0.33138 0.64982 0.0
H2208 H 0.18299 0.24612 0.29696 0.0
H2209 H 0.30656 0.21261 0.2575 0.0
H2210 H 0.198 0.18556 0.25944 0.0
H2211 H 0.28699 0.27977 0.27622 0.0
H2212 H 0.26812 0.2001 0.26399 0.0
H2213 H 0.22261 0.2559 0.29622 0.0
C2214 C 0.19471 0.23462 0.28903 0.0
C2215 C 0.18723 0.215 0.2782 0.0
C2216 C 0.27226 0.21756 0.26669 0.0
C2217 C 0.23246 0.22633 0.27691 0.0
C2218 C 0.29415 0.22469 0.26304 0.0
C2219 C 0.29987 0.24727 0.26622 0.0
C2220 C 0.25604 0.23308 0.27381 0.0
C2221 C 0.28318 0.26228 0.27329 0.0
C2222 C 0.21726 0.24036 0.28837 0.0
C2223 C 0.20309 0.20092 0.26783 0.0
N2224 N 0.262 0.2549 0.2769 0.0
N2225 N 0.22498 0.20691 0.26733 0.0
H2226 H 0.00938 0.94633 0.55802 0.0
H2227 H 0.95973 0.03574 0.46915 0.0
H2228 H -0.00479 0.93135 0.48687 0.0
H2229 H 0.96662 0.04822 0.54198 0.0
H2230 H 0.97203 -0.00283 0.47537 0.0
H2231 H -0.00596 0.98393 0.55242 0.0
C2232 C 0.00312 0.951 0.54121 0.0
C2233 C 0.00354 0.93572 0.52289 0.0
C2234 C 0.97074 0.00832 0.49001 0.0
C2235 C 0.98582 0.97857 0.51638 0.0
C2236 C 0.96356 0.0303 0.48648 0.0
C2237 C 0.96234 0.04529 0.50503 0.0
C2238 C 0.9768 0.00132 0.51223 0.0
C2239 C 0.96777 0.03737 0.5271 0.0
C2240 C -0.00578 0.97239 0.53806 0.0
C2241 C -0.00504 0.94253 0.50153 0.0
N2242 N 0.97489 0.01598 0.53005 0.0
N2243 N 0.98652 0.96348 0.49885 0.0
H2244 H 0.17946 0.76118 0.73649 0.0
H2245 H 0.29684 0.7362 0.79626 0.0
H2246 H 0.18646 0.7229 0.79909 0.0
H2247 H 0.28844 0.78294 0.74019 0.0
H2248 H 0.25636 0.73172 0.79816 0.0
H2249 H 0.21946 0.76936 0.73752 0.0
C2250 C 0.18945 0.75447 0.75042 0.0
C2251 C 0.1797 0.74129 0.76769 0.0
C2252 C 0.26337 0.74309 0.78555 0.0
C2253 C 0.22535 0.75067 0.76909 0.0
C2254 C 0.28648 0.74578 0.78456 0.0
C2255 C 0.29606 0.75987 0.76794 0.0
C2256 C 0.24975 0.75446 0.76971 0.0
C2257 C 0.28179 0.77159 0.753 0.0
C2258 C 0.21223 0.75927 0.7511 0.0
C2259 C 0.19331 0.73328 0.78554 0.0
N2260 N 0.25937 0.76849 0.75413 0.0
N2261 N 0.21549 0.738 0.78571 0.0
H2262 H 0.47503 0.9307 0.04905 0.0
H2263 H 0.43872 0.0402 0.98513 0.0
H2264 H 0.45241 0.93132 0.9785 0.0
H2265 H 0.44669 0.03663 0.0587 0.0
H2266 H 0.4371 -0.00066 0.98352 0.0
H2267 H 0.45897 0.96784 0.0544 0.0
C2268 C 0.46634 0.93845 0.03477 0.0
C2269 C 0.4655 0.92803 0.01313 0.0
C2270 C 0.43861 0.00742 1.00013 0.0
C2271 C 0.44739 0.9708 0.01908 0.0
C2272 C 0.43942 0.03071 1.00101 0.0
C2273 C 0.44303 0.04156 0.02204 0.0
C2274 C 0.44204 -0.00501 0.02036 0.0
C2275 C 0.44391 0.02873 0.04218 0.0
C2276 C 0.45719 0.95972 0.03785 0.0
C2277 C 0.45411 0.939 0.99528 0.0
N2278 N 0.44397 0.00601 0.0408 0.0
N2279 N 0.44581 0.95993 0.99854 0.0
H2280 H 0.28886 0.70699 0.23597 0.0
H2281 H 0.1992 0.79619 0.28125 0.0
H2282 H 0.30233 0.7565 0.28826 0.0
H2283 H 0.18369 0.74491 0.23145 0.0
H2284 H 0.23747 0.78227 0.28312 0.0
H2285 H 0.25026 0.72038 0.23387 0.0
C2286 C 0.28362 0.72053 0.24716 0.0
C2287 C 0.29879 0.73064 0.26233 0.0
C2288 C 0.22576 0.77409 0.27169 0.0
C2289 C 0.25484 0.74615 0.25988 0.0
C2290 C 0.20394 0.78207 0.27059 0.0
C2291 C 0.18828 0.77162 0.25624 0.0
C2292 C 0.232 0.75549 0.25837 0.0
C2293 C 0.19532 0.75357 0.24258 0.0
C2294 C 0.26163 0.72818 0.24592 0.0
C2295 C 0.29113 0.74801 0.27655 0.0
N2296 N 0.21668 0.74597 0.24408 0.0
N2297 N 0.26973 0.7553 0.27486 0.0
H2298 H 0.55533 0.03025 0.50682 0.0
H2299 H 0.47369 0.93251 0.54872 0.0
H2300 H 0.50539 0.03969 0.55962 0.0
H2301 H 0.50777 0.93242 0.48326 0.0
H2302 H 0.49014 0.96914 0.5573 0.0
H2303 H 0.54359 0.99125 0.50298 0.0
C2304 C 0.54208 0.02404 0.51782 0.0
C2305 C 0.53109 0.03836 0.53332 0.0
C2306 C 0.49404 0.96107 0.54109 0.0
C2307 C 0.51764 0.99376 0.52902 0.0
C2308 C 0.4847 0.94021 0.5362 0.0
C2309 C 0.4893 0.92955 0.51519 0.0
C2310 C 0.50828 0.97119 0.52497 0.0
C2311 C 0.50357 0.94023 0.49952 0.0
C2312 C 0.53537 0.00181 0.51557 0.0
C2313 C 0.51437 0.02927 0.54749 0.0
N2314 N 0.51261 0.96046 0.50474 0.0
N2315 N 0.50799 0.00758 0.54483 0.0
H2316 H 0.20434 0.29294 0.74058 0.0
H2317 H 0.29714 0.20502 0.78121 0.0
H2318 H 0.19468 0.24588 0.79606 0.0
H2319 H 0.30888 0.25588 0.72981 0.0
H2320 H 0.25897 0.21885 0.78582 0.0
H2321 H 0.24275 0.27961 0.73624 0.0
C2322 C 0.21046 0.28 0.75205 0.0
C2323 C 0.19639 0.27047 0.76869 0.0
C2324 C 0.26985 0.2269 0.77343 0.0
C2325 C 0.24006 0.25489 0.76361 0.0
C2326 C 0.29158 0.21895 0.77073 0.0
C2327 C 0.30618 0.22935 0.75514 0.0
C2328 C 0.26268 0.2454 0.76046 0.0
C2329 C 0.2981 0.2472 0.74183 0.0
C2330 C 0.23231 0.27233 0.74951 0.0
C2331 C 0.20508 0.25383 0.78318 0.0
N2332 N 0.27691 0.25476 0.74489 0.0
N2333 N 0.22633 0.24642 0.78017 0.0
H2334 H 0.00071 0.93156 0.05333 0.0
H2335 H 0.01959 0.02888 0.9636 0.0
H2336 H 0.0102 0.91904 0.98087 0.0
H2337 H 0.03338 0.03695 0.0361 0.0
H2338 H 0.01702 0.98857 0.96933 0.0
H2339 H 0.01282 0.9703 0.04751 0.0
C2340 C 0.00549 0.93699 0.03623 0.0
C2341 C 0.00434 0.92223 0.01752 0.0
C2342 C 0.02092 -0.00086 0.98392 0.0
C2343 C 0.01806 0.96637 0.01069 0.0
C2344 C 0.02254 0.02221 0.98065 0.0
C2345 C 0.02648 0.03646 0.99945 0.0
C2346 C 0.0229 0.99025 1.00618 0.0
C2347 C 0.02977 0.02671 0.0212 0.0
C2348 C 0.01253 0.95901 0.03293 0.0
C2349 C 0.01093 0.92993 0.99574 0.0
N2350 N 0.02758 0.00424 0.02403 0.0
N2351 N 0.01725 0.9516 0.99286 0.0
H2352 H 0.78619 0.80768 0.77058 0.0
H2353 H 0.69342 0.71699 0.73759 0.0
H2354 H 0.79988 0.74991 0.72817 0.0
H2355 H 0.68365 0.769 0.78816 0.0
H2356 H 0.73209 0.72937 0.73257 0.0
H2357 H 0.74756 0.79521 0.77469 0.0
C2358 C 0.78096 0.7925 0.76191 0.0
C2359 C 0.79626 0.77974 0.74912 0.0
C2360 C 0.72155 0.73794 0.74492 0.0
C2361 C 0.75219 0.76525 0.75393 0.0
C2362 C 0.69956 0.73082 0.74786 0.0
C2363 C 0.6854 0.74198 0.76334 0.0
C2364 C 0.72933 0.75647 0.75741 0.0
C2365 C 0.6941 0.75977 0.77626 0.0
C2366 C 0.75896 0.78533 0.76436 0.0
C2367 C 0.78858 0.76035 0.73802 0.0
N2368 N 0.71548 0.76659 0.77286 0.0
N2369 N 0.76708 0.75359 0.74083 0.0
H2370 H 0.80765 0.27682 0.28392 0.0
H2371 H 0.70893 0.2026 0.231 0.0
H2372 H 0.81885 0.22271 0.23597 0.0
H2373 H 0.69903 0.25684 0.27908 0.0
H2374 H 0.74929 0.2094 0.23243 0.0
H2375 H 0.76774 0.26889 0.28294 0.0
C2376 C 0.80173 0.26311 0.27336 0.0
C2377 C 0.81659 0.25043 0.25999 0.0
C2378 C 0.73825 0.21976 0.24269 0.0
C2379 C 0.77084 0.24146 0.25847 0.0
C2380 C 0.71525 0.21597 0.24177 0.0
C2381 C 0.70067 0.22906 0.25507 0.0
C2382 C 0.74663 0.23682 0.25693 0.0
C2383 C 0.70971 0.24607 0.26887 0.0
C2384 C 0.77891 0.2587 0.27266 0.0
C2385 C 0.80793 0.23311 0.24631 0.0
N2386 N 0.73208 0.24944 0.26944 0.0
N2387 N 0.78559 0.22915 0.24587 0.0
H2388 H 0.80096 0.26024 0.77697 0.0
H2389 H 0.6843 0.25642 0.71212 0.0
H2390 H 0.79078 0.22372 0.71379 0.0
H2391 H 0.70045 0.30676 0.76286 0.0
H2392 H 0.72308 0.24417 0.71238 0.0
H2393 H 0.76364 0.27655 0.77297 0.0
C2394 C 0.79078 0.25557 0.76234 0.0
C2395 C 0.79885 0.24052 0.74575 0.0
C2396 C 0.71819 0.25808 0.72325 0.0
C2397 C 0.75634 0.25924 0.74094 0.0
C2398 C 0.69605 0.26527 0.72296 0.0
C2399 C 0.68897 0.28264 0.73758 0.0
C2400 C 0.73337 0.26808 0.73847 0.0
C2401 C 0.70501 0.29304 0.75161 0.0
C2402 C 0.76961 0.26505 0.75993 0.0
C2403 C 0.78518 0.23532 0.72691 0.0
N2404 N 0.7264 0.28543 0.7519 0.0
N2405 N 0.76452 0.24456 0.72508 0.0
H2406 H 0.68167 0.74628 0.29703 0.0
H2407 H 0.7999 0.76277 0.23553 0.0
H2408 H 0.69444 0.79744 0.24615 0.0
H2409 H 0.78904 0.71812 0.29287 0.0
H2410 H 0.76103 0.77519 0.23852 0.0
H2411 H 0.72112 0.73624 0.29629 0.0
C2412 C 0.69284 0.75573 0.28604 0.0
C2413 C 0.68471 0.77269 0.27157 0.0
C2414 C 0.76716 0.76267 0.25045 0.0
C2415 C 0.72982 0.76082 0.27013 0.0
C2416 C 0.78924 0.75542 0.24858 0.0
C2417 C 0.79762 0.73938 0.26395 0.0
C2418 C 0.75338 0.75372 0.26773 0.0
C2419 C 0.78325 0.73065 0.28079 0.0
C2420 C 0.71535 0.74981 0.28543 0.0
C2421 C 0.69994 0.78403 0.25735 0.0
N2422 N 0.76181 0.73792 0.28222 0.0
N2423 N 0.72174 0.77776 0.25684 0.0
H2424 H 0.43958 0.52235 0.96514 0.0
H2425 H 0.47336 0.42327 0.05025 0.0
H2426 H 0.45369 0.53092 0.03738 0.0
H2427 H 0.4611 0.41366 0.97779 0.0
H2428 H 0.45966 0.46165 0.04698 0.0
H2429 H 0.44063 0.48162 0.97053 0.0
C2430 C 0.44247 0.51563 0.98221 0.0
C2431 C 0.44696 0.52995 1.00077 0.0
C2432 C 0.45969 0.45111 0.03181 0.0
C2433 C 0.44841 0.48357 1.00702 0.0
C2434 C 0.46757 0.42923 0.03368 0.0
C2435 C 0.46867 0.41543 0.01419 0.0
C2436 C 0.4531 0.45938 0.01022 0.0
C2437 C 0.46056 0.4238 0.99323 0.0
C2438 C 0.44318 0.49242 0.98526 0.0
C2439 C 0.45065 0.52044 0.02251 0.0
N2440 N 0.45343 0.44538 0.99171 0.0
N2441 N 0.45154 0.49786 0.02498 0.0
H2442 H 0.00743 0.56117 0.50227 0.0
H2443 H 0.00313 0.43415 0.54473 0.0
H2444 H 0.96626 0.53899 0.55882 0.0
H2445 H 0.04005 0.45657 0.48518 0.0
H2446 H 0.99217 0.47277 0.55252 0.0
H2447 H 0.02229 0.52343 0.49833 0.0
C2448 C 0.0015 0.54825 0.51387 0.0
C2449 C 0.98526 0.55301 0.5306 0.0
C2450 C 0.00277 0.46927 0.53784 0.0
C2451 C 0.00234 0.50975 0.52629 0.0
C2452 C 0.00917 0.44726 0.53344 0.0
C2453 C 0.02263 0.44217 0.51431 0.0
C2454 C 0.00983 0.48636 0.52297 0.0
C2455 C 0.02954 0.45974 0.5 0.0
C2456 C 0.01006 0.52673 0.51165 0.0
C2457 C 0.97864 0.53589 0.5456 0.0
N2458 N 0.02303 0.48106 0.50462 0.0
N2459 N 0.98707 0.51487 0.54295 0.0
H2460 H 0.003 0.5479 0.07957 0.0
H2461 H 0.02336 0.43002 0.01932 0.0
H2462 H 0.05901 0.5329 0.03535 0.0
H2463 H 0.96365 0.44694 0.05734 0.0
H2464 H 0.04059 0.46462 0.03255 0.0
H2465 H 0.99286 0.50827 0.07945 0.0
C2466 C 0.01355 0.53616 0.07039 0.0
C2467 C 0.0317 0.5437 0.05719 0.0
C2468 C 0.02382 0.46065 0.03826 0.0
C2469 C 0.0199 0.49848 0.05654 0.0
C2470 C 0.01399 0.4408 0.03082 0.0
C2471 C 0.99189 0.43566 0.03702 0.0
C2472 C 0.01147 0.47561 0.05189 0.0
C2473 C 0.98054 0.45046 0.05173 0.0
C2474 C 0.00762 0.51357 0.07013 0.0
C2475 C 0.04466 0.5278 0.04543 0.0
N2476 N 0.99037 0.46989 0.05847 0.0
N2477 N 0.03832 0.50598 0.04511 0.0
H2478 H 0.46391 0.43549 0.47145 0.0
H2479 H 0.54883 0.53055 0.51306 0.0
H2480 H 0.50498 0.4295 0.53212 0.0
H2481 H 0.49991 0.54013 0.4594 0.0
H2482 H 0.5364 0.49175 0.5172 0.0
H2483 H 0.4797 0.47254 0.46434 0.0
C2484 C 0.47625 0.44203 0.4833 0.0
C2485 C 0.48314 0.42946 0.50242 0.0
C2486 C 0.52855 0.5023 0.50436 0.0
C2487 C 0.50137 0.47179 0.49434 0.0
C2488 C 0.53568 0.52441 0.50194 0.0
C2489 C 0.52527 0.53868 0.48599 0.0
C2490 C 0.51091 0.49439 0.49072 0.0
C2491 C 0.50856 0.52974 0.47179 0.0
C2492 C 0.48525 0.46317 0.47924 0.0
C2493 C 0.49902 0.43878 0.51734 0.0
N2494 N 0.50176 0.50822 0.47464 0.0
N2495 N 0.50767 0.45939 0.51294 0.0
loop_
_geom_bond_atom_site_label_1
_geom_bond_atom_site_label_2
_geom_bond_distance
_geom_bond_site_symmetry_2
_ccdc_geom_bond_type
Co0 N4 2.148 . S
Co0 N10 2.128 . S
Co0 N20 2.194 . S
Co0 O25 2.351 . S
Co0 O26 2.155 . S
Co0 O27 2.096 . S
C1 N4 1.301 . S
C1 N5 1.328 . S
C1 H6 0.930 . S
C2 C3 1.333 . S
C2 N4 1.317 . S
C2 H7 0.930 . S
C3 C2 1.333 . S
C3 N5 1.350 . S
C3 H29 0.931 . S
N4 Co0 2.148 . S
N4 C1 1.301 . S
N4 C2 1.317 . S
N5 C1 1.328 . S
N5 C3 1.350 . S
H6 C1 0.930 . S
H7 C2 0.930 . S
C8 O9 1.224 . S
C8 O27 1.247 . S
O9 C8 1.224 . S
N10 Co0 2.128 . S
N10 C11 1.355 . S
N10 C13 1.311 . S
C11 N10 1.355 . S
C11 C12 1.363 . S
C11 H23 0.929 . S
C12 C11 1.363 . S
C12 N14 1.375 . S
C12 H30 0.931 . S
C13 N10 1.311 . S
C13 N14 1.347 . S
C13 H24 0.929 . S
N14 C12 1.375 . S
N14 C13 1.347 . S
C15 C18 1.365 . S
C15 N20 1.328 . S
C15 H21 0.929 . S
C16 C17 1.362 . S
C16 C19 1.378 . S
C16 H31 0.929 . S
C17 C16 1.362 . S
C17 C18 1.366 . S
C18 C15 1.365 . S
C18 C17 1.366 . S
C18 H32 0.930 . S
C19 C16 1.378 . S
C19 N20 1.315 . S
C19 H22 0.930 . S
N20 Co0 2.194 . S
N20 C15 1.328 . S
N20 C19 1.315 . S
H21 C15 0.929 . S
H22 C19 0.930 . S
H23 C11 0.929 . S
H24 C13 0.929 . S
O25 Co0 2.351 . S
O25 C28 1.244 . S
O26 Co0 2.155 . S
O26 C28 1.240 . S
O27 Co0 2.096 . S
O27 C8 1.247 . S
C28 O25 1.244 . S
C28 O26 1.240 . S
H29 C3 0.931 . S
H30 C12 0.931 . S
H31 C16 0.929 . S
H32 C18 0.930 . S
Co33 N37 2.148 . S
Co33 N43 2.128 . S
Co33 N53 2.194 . S
Co33 O58 2.351 . S
Co33 O59 2.155 . S
Co33 O60 2.096 . S
C34 N37 1.301 . S
C34 N38 1.328 . S
C34 H39 0.930 . S
C35 C36 1.333 . S
C35 N37 1.317 . S
C35 H40 0.930 . S
C36 C35 1.333 . S
C36 N38 1.350 . S
C36 H62 0.931 . S
N37 Co33 2.148 . S
N37 C34 1.301 . S
N37 C35 1.317 . S
N38 C34 1.328 . S
N38 C36 1.350 . S
H39 C34 0.930 . S
H40 C35 0.930 . S
C41 O42 1.224 . S
C41 O60 1.247 . S
O42 C41 1.224 . S
N43 Co33 2.128 . S
N43 C44 1.355 1_455 S
N43 C46 1.311 . S
C44 N43 1.355 1_655 S
C44 C45 1.363 . S
C44 H56 0.929 . S
C45 C44 1.363 . S
C45 N47 1.375 . S
C45 H63 0.931 . S
C46 N43 1.311 . S
C46 N47 1.347 1_455 S
C46 H57 0.929 . S
N47 C45 1.375 . S
N47 C46 1.347 1_655 S
C48 C51 1.365 . S
C48 N53 1.328 . S
C48 H54 0.929 . S
C49 C50 1.362 . S
C49 C52 1.378 . S
C49 H64 0.929 . S
C50 C49 1.362 . S
C50 C51 1.366 . S
C51 C48 1.365 . S
C51 C50 1.366 . S
C51 H65 0.930 1_455 S
C52 C49 1.378 . S
C52 N53 1.315 . S
C52 H55 0.930 . S
N53 Co33 2.194 . S
N53 C48 1.328 . S
N53 C52 1.315 . S
H54 C48 0.929 . S
H55 C52 0.930 . S
H56 C44 0.929 . S
H57 C46 0.929 . S
O58 Co33 2.351 . S
O58 C61 1.244 . S
O59 Co33 2.155 . S
O59 C61 1.240 . S
O60 Co33 2.096 . S
O60 C41 1.247 . S
C61 O58 1.244 . S
C61 O59 1.240 . S
H62 C36 0.931 . S
H63 C45 0.931 . S
H64 C49 0.929 . S
H65 C51 0.930 1_655 S
Co66 N70 2.148 . S
Co66 N76 2.128 . S
Co66 N86 2.194 . S
Co66 O91 2.351 . S
Co66 O92 2.155 . S
Co66 O93 2.096 . S
C67 N70 1.301 . S
C67 N71 1.328 . S
C67 H72 0.930 . S
C68 C69 1.333 . S
C68 N70 1.317 . S
C68 H73 0.930 . S
C69 C68 1.333 . S
C69 N71 1.350 . S
C69 H95 0.931 . S
N70 Co66 2.148 . S
N70 C67 1.301 . S
N70 C68 1.317 . S
N71 C67 1.328 . S
N71 C69 1.350 . S
H72 C67 0.930 . S
H73 C68 0.930 . S
C74 O75 1.224 . S
C74 O93 1.247 . S
O75 C74 1.224 . S
N76 Co66 2.128 . S
N76 C77 1.355 . S
N76 C79 1.311 . S
C77 N76 1.355 . S
C77 C78 1.363 . S
C77 H89 0.929 . S
C78 C77 1.363 . S
C78 N80 1.375 . S
C78 H96 0.931 . S
C79 N76 1.311 . S
C79 N80 1.347 . S
C79 H90 0.929 . S
N80 C78 1.375 . S
N80 C79 1.347 . S
C81 C84 1.365 . S
C81 N86 1.328 . S
C81 H87 0.929 . S
C82 C83 1.362 . S
C82 C85 1.378 . S
C82 H97 0.929 . S
C83 C82 1.362 . S
C83 C84 1.366 . S
C84 C81 1.365 . S
C84 C83 1.366 . S
C84 H98 0.930 . S
C85 C82 1.378 . S
C85 N86 1.315 . S
C85 H88 0.930 . S
N86 Co66 2.194 . S
N86 C81 1.328 . S
N86 C85 1.315 . S
H87 C81 0.929 . S
H88 C85 0.930 . S
H89 C77 0.929 . S
H90 C79 0.929 . S
O91 Co66 2.351 . S
O91 C94 1.244 . S
O92 Co66 2.155 . S
O92 C94 1.240 . S
O93 Co66 2.096 . S
O93 C74 1.247 . S
C94 O91 1.244 . S
C94 O92 1.240 . S
H95 C69 0.931 . S
H96 C78 0.931 . S
H97 C82 0.929 . S
H98 C84 0.930 . S
Co99 N103 2.148 1_554 S
Co99 N109 2.128 . S
Co99 N119 2.194 . S
Co99 O124 2.351 1_554 S
Co99 O125 2.155 . S
Co99 O126 2.096 . S
C100 N103 1.301 . S
C100 N104 1.328 . S
C100 H105 0.930 . S
C101 C102 1.333 . S
C101 N103 1.317 . S
C101 H106 0.930 1_556 S
C102 C101 1.333 . S
C102 N104 1.350 . S
C102 H128 0.931 . S
N103 Co99 2.148 1_556 S
N103 C100 1.301 . S
N103 C101 1.317 . S
N104 C100 1.328 . S
N104 C102 1.350 . S
H105 C100 0.930 . S
H106 C101 0.930 1_554 S
C107 O108 1.224 . S
C107 O126 1.247 . S
O108 C107 1.224 . S
N109 Co99 2.128 . S
N109 C110 1.355 . S
N109 C112 1.311 . S
C110 N109 1.355 . S
C110 C111 1.363 . S
C110 H122 0.929 . S
C111 C110 1.363 . S
C111 N113 1.375 . S
C111 H129 0.931 . S
C112 N109 1.311 . S
C112 N113 1.347 . S
C112 H123 0.929 . S
N113 C111 1.375 . S
N113 C112 1.347 . S
C114 C117 1.365 . S
C114 N119 1.328 1_556 S
C114 H120 0.929 . S
C115 C116 1.399 . S
C115 C118 1.378 . S
C115 H130 0.929 . S
C116 C115 1.399 . S
C116 C117 1.340 1_554 S
C117 C114 1.365 . S
C117 C116 1.340 1_556 S
C117 H131 0.930 . S
C118 C115 1.378 . S
C118 N119 1.315 . S
C118 H121 0.930 . S
N119 Co99 2.194 . S
N119 C114 1.328 1_554 S
N119 C118 1.315 . S
H120 C114 0.929 . S
H121 C118 0.930 . S
H122 C110 0.929 . S
H123 C112 0.929 . S
O124 Co99 2.351 1_556 S
O124 C127 1.244 . S
O125 Co99 2.155 . S
O125 C127 1.240 1_554 S
O126 Co99 2.096 . S
O126 C107 1.247 . S
C127 O124 1.244 . S
C127 O125 1.240 1_556 S
H128 C102 0.931 . S
H129 C111 0.931 . S
H130 C115 0.929 . S
H131 C117 0.930 . S
Co132 N136 2.148 . S
Co132 N142 2.128 . S
Co132 N152 2.194 . S
Co132 O157 2.351 . S
Co132 O158 2.155 . S
Co132 O159 2.096 . S
C133 N136 1.301 . S
C133 N137 1.328 . S
C133 H138 0.930 . S
C134 C135 1.333 . S
C134 N136 1.317 . S
C134 H139 0.930 . S
C135 C134 1.333 . S
C135 N137 1.350 . S
C135 H161 0.931 . S
N136 Co132 2.148 . S
N136 C133 1.301 . S
N136 C134 1.317 . S
N137 C133 1.328 . S
N137 C135 1.350 . S
H138 C133 0.930 . S
H139 C134 0.930 . S
C140 O141 1.224 . S
C140 O159 1.247 . S
O141 C140 1.224 . S
N142 Co132 2.128 . S
N142 C143 1.355 . S
N142 C145 1.311 . S
C143 N142 1.355 . S
C143 C144 1.363 . S
C143 H155 0.929 . S
C144 C143 1.363 . S
C144 N146 1.375 . S
C144 H162 0.931 . S
C145 N142 1.311 . S
C145 N146 1.347 . S
C145 H156 0.929 . S
N146 C144 1.375 . S
N146 C145 1.347 . S
C147 C150 1.365 . S
C147 N152 1.328 . S
C147 H153 0.929 . S
C148 C149 1.362 . S
C148 C151 1.378 . S
C148 H163 0.929 . S
C149 C148 1.362 . S
C149 C150 1.366 . S
C150 C147 1.365 . S
C150 C149 1.366 . S
C150 H164 0.930 . S
C151 C148 1.378 . S
C151 N152 1.315 . S
C151 H154 0.930 . S
N152 Co132 2.194 . S
N152 C147 1.328 . S
N152 C151 1.315 . S
H153 C147 0.929 . S
H154 C151 0.930 . S
H155 C143 0.929 . S
H156 C145 0.929 . S
O157 Co132 2.351 . S
O157 C160 1.244 . S
O158 Co132 2.155 . S
O158 C160 1.240 . S
O159 Co132 2.096 . S
O159 C140 1.247 . S
C160 O157 1.244 . S
C160 O158 1.240 . S
H161 C135 0.931 . S
H162 C144 0.931 . S
H163 C148 0.929 . S
H164 C150 0.930 . S
Co165 N169 2.148 . S
Co165 N175 2.128 . S
Co165 N185 2.194 . S
Co165 O190 2.351 . S
Co165 O191 2.155 . S
Co165 O192 2.096 . S
C166 N169 1.301 . S
C166 N170 1.328 . S
C166 H171 0.930 . S
C167 C168 1.333 . S
C167 N169 1.317 . S
C167 H172 0.930 . S
C168 C167 1.333 . S
C168 N170 1.350 . S
C168 H194 0.931 . S
N169 Co165 2.148 . S
N169 C166 1.301 . S
N169 C167 1.317 . S
N170 C166 1.328 . S
N170 C168 1.350 . S
H171 C166 0.930 . S
H172 C167 0.930 . S
C173 O174 1.224 . S
C173 O192 1.247 . S
O174 C173 1.224 . S
N175 Co165 2.128 . S
N175 C176 1.355 . S
N175 C178 1.311 . S
C176 N175 1.355 . S
C176 C177 1.363 . S
C176 H188 0.929 . S
C177 C176 1.363 . S
C177 N179 1.375 . S
C177 H195 0.931 . S
C178 N175 1.311 . S
C178 N179 1.347 . S
C178 H189 0.929 . S
N179 C177 1.375 . S
N179 C178 1.347 . S
C180 C183 1.365 . S
C180 N185 1.328 . S
C180 H186 0.929 . S
C181 C182 1.362 . S
C181 C184 1.378 . S
C181 H196 0.929 . S
C182 C181 1.362 . S
C182 C183 1.366 . S
C183 C180 1.365 . S
C183 C182 1.366 . S
C183 H197 0.930 . S
C184 C181 1.378 . S
C184 N185 1.315 . S
C184 H187 0.930 . S
N185 Co165 2.194 . S
N185 C180 1.328 . S
N185 C184 1.315 . S
H186 C180 0.929 . S
H187 C184 0.930 . S
H188 C176 0.929 . S
H189 C178 0.929 . S
O190 Co165 2.351 . S
O190 C193 1.244 . S
O191 Co165 2.155 . S
O191 C193 1.240 . S
O192 Co165 2.096 . S
O192 C173 1.247 . S
C193 O190 1.244 . S
C193 O191 1.240 . S
H194 C168 0.931 . S
H195 C177 0.931 . S
H196 C181 0.929 . S
H197 C183 0.930 . S
Co198 N202 2.148 . S
Co198 N208 2.128 . S
Co198 N218 2.194 . S
Co198 O223 2.351 . S
Co198 O224 2.155 . S
Co198 O225 2.096 . S
C199 N202 1.301 . S
C199 N203 1.328 . S
C199 H204 0.930 . S
C200 C201 1.333 . S
C200 N202 1.317 . S
C200 H205 0.930 . S
C201 C200 1.333 . S
C201 N203 1.350 . S
C201 H227 0.931 . S
N202 Co198 2.148 . S
N202 C199 1.301 . S
N202 C200 1.317 . S
N203 C199 1.328 . S
N203 C201 1.350 . S
H204 C199 0.930 . S
H205 C200 0.930 . S
C206 O207 1.224 . S
C206 O225 1.247 . S
O207 C206 1.224 . S
N208 Co198 2.128 . S
N208 C209 1.355 . S
N208 C211 1.311 . S
C209 N208 1.355 . S
C209 C210 1.363 . S
C209 H221 0.929 . S
C210 C209 1.363 . S
C210 N212 1.375 . S
C210 H228 0.931 . S
C211 N208 1.311 . S
C211 N212 1.347 . S
C211 H222 0.929 . S
N212 C210 1.375 . S
N212 C211 1.347 . S
C213 C216 1.365 . S
C213 N218 1.328 . S
C213 H219 0.929 . S
C214 C215 1.362 . S
C214 C217 1.378 . S
C214 H229 0.929 . S
C215 C214 1.362 . S
C215 C216 1.366 . S
C216 C213 1.365 . S
C216 C215 1.366 . S
C216 H230 0.930 . S
C217 C214 1.378 . S
C217 N218 1.315 . S
C217 H220 0.930 . S
N218 Co198 2.194 . S
N218 C213 1.328 . S
N218 C217 1.315 . S
H219 C213 0.929 . S
H220 C217 0.930 . S
H221 C209 0.929 . S
H222 C211 0.929 . S
O223 Co198 2.351 . S
O223 C226 1.244 . S
O224 Co198 2.155 . S
O224 C226 1.240 . S
O225 Co198 2.096 . S
O225 C206 1.247 . S
C226 O223 1.244 . S
C226 O224 1.240 . S
H227 C201 0.931 . S
H228 C210 0.931 . S
H229 C214 0.929 . S
H230 C216 0.930 . S
Co231 N235 2.148 1_556 S
Co231 N241 2.128 . S
Co231 N251 2.194 . S
Co231 O256 2.351 1_556 S
Co231 O257 2.155 . S
Co231 O258 2.096 . S
C232 N235 1.301 . S
C232 N236 1.328 . S
C232 H237 0.930 . S
C233 C234 1.333 . S
C233 N235 1.317 . S
C233 H238 0.930 1_554 S
C234 C233 1.333 . S
C234 N236 1.350 . S
C234 H260 0.931 . S
N235 Co231 2.148 1_554 S
N235 C232 1.301 . S
N235 C233 1.317 . S
N236 C232 1.328 . S
N236 C234 1.350 . S
H237 C232 0.930 . S
H238 C233 0.930 1_556 S
C239 O240 1.224 . S
C239 O258 1.247 . S
O240 C239 1.224 . S
N241 Co231 2.128 . S
N241 C242 1.355 1_455 S
N241 C244 1.311 . S
C242 N241 1.355 1_655 S
C242 C243 1.363 . S
C242 H254 0.929 . S
C243 C242 1.363 . S
C243 N245 1.375 . S
C243 H261 0.931 . S
C244 N241 1.311 . S
C244 N245 1.347 1_455 S
C244 H255 0.929 . S
N245 C243 1.375 . S
N245 C244 1.347 1_655 S
C246 C249 1.365 . S
C246 N251 1.328 1_554 S
C246 H252 0.929 . S
C247 C248 1.399 . S
C247 C250 1.378 . S
C247 H262 0.929 . S
C248 C247 1.399 . S
C248 C249 1.340 1_556 S
C249 C246 1.365 . S
C249 C248 1.340 1_554 S
C249 H263 0.930 1_455 S
C250 C247 1.378 . S
C250 N251 1.315 . S
C250 H253 0.930 . S
N251 Co231 2.194 . S
N251 C246 1.328 1_556 S
N251 C250 1.315 . S
H252 C246 0.929 . S
H253 C250 0.930 . S
H254 C242 0.929 . S
H255 C244 0.929 . S
O256 Co231 2.351 1_554 S
O256 C259 1.244 . S
O257 Co231 2.155 . S
O257 C259 1.240 1_556 S
O258 Co231 2.096 . S
O258 C239 1.247 . S
C259 O256 1.244 . S
C259 O257 1.240 1_554 S
H260 C234 0.931 . S
H261 C243 0.931 . S
H262 C247 0.929 . S
H263 C249 0.930 1_655 S
Co264 N268 2.148 . S
Co264 N274 2.128 . S
Co264 N284 2.194 . S
Co264 O289 2.351 . S
Co264 O290 2.155 . S
Co264 O291 2.096 . S
C265 N268 1.301 . S
C265 N269 1.328 . S
C265 H270 0.930 . S
C266 C267 1.333 . S
C266 N268 1.317 . S
C266 H271 0.930 . S
C267 C266 1.333 . S
C267 N269 1.350 . S
C267 H293 0.931 . S
N268 Co264 2.148 . S
N268 C265 1.301 . S
N268 C266 1.317 . S
N269 C265 1.328 . S
N269 C267 1.350 . S
H270 C265 0.930 . S
H271 C266 0.930 . S
C272 O273 1.224 . S
C272 O291 1.247 . S
O273 C272 1.224 . S
N274 Co264 2.128 . S
N274 C275 1.355 . S
N274 C277 1.311 . S
C275 N274 1.355 . S
C275 C276 1.363 . S
C275 H287 0.929 . S
C276 C275 1.363 . S
C276 N278 1.375 . S
C276 H294 0.931 . S
C277 N274 1.311 . S
C277 N278 1.347 . S
C277 H288 0.929 . S
N278 C276 1.375 . S
N278 C277 1.347 . S
C279 C282 1.365 . S
C279 N284 1.328 . S
C279 H285 0.929 . S
C280 C281 1.362 . S
C280 C283 1.378 . S
C280 H295 0.929 . S
C281 C280 1.362 . S
C281 C282 1.366 . S
C282 C279 1.365 . S
C282 C281 1.366 . S
C282 H296 0.930 . S
C283 C280 1.378 . S
C283 N284 1.315 . S
C283 H286 0.930 . S
N284 Co264 2.194 . S
N284 C279 1.328 . S
N284 C283 1.315 . S
H285 C279 0.929 . S
H286 C283 0.930 . S
H287 C275 0.929 . S
H288 C277 0.929 . S
O289 Co264 2.351 . S
O289 C292 1.244 . S
O290 Co264 2.155 . S
O290 C292 1.240 . S
O291 Co264 2.096 . S
O291 C272 1.247 . S
C292 O289 1.244 . S
C292 O290 1.240 . S
H293 C267 0.931 . S
H294 C276 0.931 . S
H295 C280 0.929 . S
H296 C282 0.930 . S
Co297 N301 2.148 . S
Co297 N307 2.128 . S
Co297 N317 2.194 . S
Co297 O322 2.351 . S
Co297 O323 2.155 . S
Co297 O324 2.096 . S
C298 N301 1.301 . S
C298 N302 1.328 . S
C298 H303 0.930 . S
C299 C300 1.333 . S
C299 N301 1.317 . S
C299 H304 0.930 . S
C300 C299 1.333 . S
C300 N302 1.350 . S
C300 H326 0.931 . S
N301 Co297 2.148 . S
N301 C298 1.301 . S
N301 C299 1.317 . S
N302 C298 1.328 . S
N302 C300 1.350 . S
H303 C298 0.930 . S
H304 C299 0.930 . S
C305 O306 1.224 . S
C305 O324 1.247 . S
O306 C305 1.224 . S
N307 Co297 2.128 . S
N307 C308 1.355 1_655 S
N307 C310 1.311 . S
C308 N307 1.355 1_455 S
C308 C309 1.363 . S
C308 H320 0.929 . S
C309 C308 1.363 . S
C309 N311 1.375 . S
C309 H327 0.931 . S
C310 N307 1.311 . S
C310 N311 1.347 1_655 S
C310 H321 0.929 . S
N311 C309 1.375 . S
N311 C310 1.347 1_455 S
C312 C315 1.365 . S
C312 N317 1.328 . S
C312 H318 0.929 . S
C313 C314 1.362 . S
C313 C316 1.378 . S
C313 H328 0.929 . S
C314 C313 1.362 . S
C314 C315 1.366 . S
C315 C312 1.365 . S
C315 C314 1.366 . S
C315 H329 0.930 1_655 S
C316 C313 1.378 . S
C316 N317 1.315 . S
C316 H319 0.930 . S
N317 Co297 2.194 . S
N317 C312 1.328 . S
N317 C316 1.315 . S
H318 C312 0.929 . S
H319 C316 0.930 . S
H320 C308 0.929 . S
H321 C310 0.929 . S
O322 Co297 2.351 . S
O322 C325 1.244 . S
O323 Co297 2.155 . S
O323 C325 1.240 . S
O324 Co297 2.096 . S
O324 C305 1.247 . S
C325 O322 1.244 . S
C325 O323 1.240 . S
H326 C300 0.931 . S
H327 C309 0.931 . S
H328 C313 0.929 . S
H329 C315 0.930 1_455 S
Co330 N334 2.148 . S
Co330 N340 2.128 . S
Co330 N350 2.194 . S
Co330 O355 2.351 . S
Co330 O356 2.155 . S
Co330 O357 2.096 . S
C331 N334 1.301 . S
C331 N335 1.328 . S
C331 H336 0.930 . S
C332 C333 1.333 . S
C332 N334 1.317 . S
C332 H337 0.930 . S
C333 C332 1.333 . S
C333 N335 1.350 . S
C333 H359 0.931 . S
N334 Co330 2.148 . S
N334 C331 1.301 . S
N334 C332 1.317 . S
N335 C331 1.328 . S
N335 C333 1.350 . S
H336 C331 0.930 . S
H337 C332 0.930 . S
C338 O339 1.224 . S
C338 O357 1.247 . S
O339 C338 1.224 . S
N340 Co330 2.128 . S
N340 C341 1.355 . S
N340 C343 1.311 . S
C341 N340 1.355 . S
C341 C342 1.363 . S
C341 H353 0.929 . S
C342 C341 1.363 . S
C342 N344 1.375 . S
C342 H360 0.931 . S
C343 N340 1.311 . S
C343 N344 1.347 . S
C343 H354 0.929 . S
N344 C342 1.375 . S
N344 C343 1.347 . S
C345 C348 1.365 . S
C345 N350 1.328 . S
C345 H351 0.929 . S
C346 C347 1.362 . S
C346 C349 1.378 . S
C346 H361 0.929 . S
C347 C346 1.362 . S
C347 C348 1.366 . S
C348 C345 1.365 . S
C348 C347 1.366 . S
C348 H362 0.930 . S
C349 C346 1.378 . S
C349 N350 1.315 . S
C349 H352 0.930 . S
N350 Co330 2.194 . S
N350 C345 1.328 . S
N350 C349 1.315 . S
H351 C345 0.929 . S
H352 C349 0.930 . S
H353 C341 0.929 . S
H354 C343 0.929 . S
O355 Co330 2.351 . S
O355 C358 1.244 . S
O356 Co330 2.155 . S
O356 C358 1.240 . S
O357 Co330 2.096 . S
O357 C338 1.247 . S
C358 O355 1.244 . S
C358 O356 1.240 . S
H359 C333 0.931 . S
H360 C342 0.931 . S
H361 C346 0.929 . S
H362 C348 0.930 . S
Co363 N367 2.148 1_556 S
Co363 N373 2.128 . S
Co363 N383 2.194 . S
Co363 O388 2.351 1_556 S
Co363 O389 2.155 . S
Co363 O390 2.096 . S
C364 N367 1.301 . S
C364 N368 1.328 . S
C364 H369 0.930 . S
C365 C366 1.333 . S
C365 N367 1.317 . S
C365 H370 0.930 1_554 S
C366 C365 1.333 . S
C366 N368 1.350 . S
C366 H392 0.931 . S
N367 Co363 2.148 1_554 S
N367 C364 1.301 . S
N367 C365 1.317 . S
N368 C364 1.328 . S
N368 C366 1.350 . S
H369 C364 0.930 . S
H370 C365 0.930 1_556 S
C371 O372 1.224 . S
C371 O390 1.247 . S
O372 C371 1.224 . S
N373 Co363 2.128 . S
N373 C374 1.355 . S
N373 C376 1.311 . S
C374 N373 1.355 . S
C374 C375 1.363 . S
C374 H386 0.929 . S
C375 C374 1.363 . S
C375 N377 1.375 . S
C375 H393 0.931 . S
C376 N373 1.311 . S
C376 N377 1.347 . S
C376 H387 0.929 . S
N377 C375 1.375 . S
N377 C376 1.347 . S
C378 C381 1.365 . S
C378 N383 1.328 1_554 S
C378 H384 0.929 . S
C379 C380 1.399 . S
C379 C382 1.378 . S
C379 H394 0.929 . S
C380 C379 1.399 . S
C380 C381 1.340 1_556 S
C381 C378 1.365 . S
C381 C380 1.340 1_554 S
C381 H395 0.930 . S
C382 C379 1.378 . S
C382 N383 1.315 . S
C382 H385 0.930 . S
N383 Co363 2.194 . S
N383 C378 1.328 1_556 S
N383 C382 1.315 . S
H384 C378 0.929 . S
H385 C382 0.930 . S
H386 C374 0.929 . S
H387 C376 0.929 . S
O388 Co363 2.351 1_554 S
O388 C391 1.244 . S
O389 Co363 2.155 . S
O389 C391 1.240 1_556 S
O390 Co363 2.096 . S
O390 C371 1.247 . S
C391 O388 1.244 . S
C391 O389 1.240 1_554 S
H392 C366 0.931 . S
H393 C375 0.931 . S
H394 C379 0.929 . S
H395 C381 0.930 . S
Co396 N400 2.148 . S
Co396 N406 2.128 . S
Co396 N416 2.194 . S
Co396 O421 2.351 . S
Co396 O422 2.155 . S
Co396 O423 2.096 . S
C397 N400 1.301 . S
C397 N401 1.328 . S
C397 H402 0.930 . S
C398 C399 1.333 . S
C398 N400 1.317 . S
C398 H403 0.930 . S
C399 C398 1.333 . S
C399 N401 1.350 . S
C399 H425 0.931 . S
N400 Co396 2.148 . S
N400 C397 1.301 . S
N400 C398 1.317 . S
N401 C397 1.328 . S
N401 C399 1.350 . S
H402 C397 0.930 . S
H403 C398 0.930 . S
C404 O405 1.224 . S
C404 O423 1.247 . S
O405 C404 1.224 . S
N406 Co396 2.128 . S
N406 C407 1.355 . S
N406 C409 1.311 . S
C407 N406 1.355 . S
C407 C408 1.363 . S
C407 H419 0.929 . S
C408 C407 1.363 . S
C408 N410 1.375 . S
C408 H426 0.931 . S
C409 N406 1.311 . S
C409 N410 1.347 . S
C409 H420 0.929 . S
N410 C408 1.375 . S
N410 C409 1.347 . S
C411 C414 1.365 . S
C411 N416 1.328 . S
C411 H417 0.929 . S
C412 C413 1.362 . S
C412 C415 1.378 . S
C412 H427 0.929 . S
C413 C412 1.362 . S
C413 C414 1.366 . S
C414 C411 1.365 . S
C414 C413 1.366 . S
C414 H428 0.930 . S
C415 C412 1.378 . S
C415 N416 1.315 . S
C415 H418 0.930 . S
N416 Co396 2.194 . S
N416 C411 1.328 . S
N416 C415 1.315 . S
H417 C411 0.929 . S
H418 C415 0.930 . S
H419 C407 0.929 . S
H420 C409 0.929 . S
O421 Co396 2.351 . S
O421 C424 1.244 . S
O422 Co396 2.155 . S
O422 C424 1.240 . S
O423 Co396 2.096 . S
O423 C404 1.247 . S
C424 O421 1.244 . S
C424 O422 1.240 . S
H425 C399 0.931 . S
H426 C408 0.931 . S
H427 C412 0.929 . S
H428 C414 0.930 . S
Co429 N433 2.148 . S
Co429 N439 2.128 . S
Co429 N449 2.194 . S
Co429 O454 2.351 . S
Co429 O455 2.155 . S
Co429 O456 2.096 . S
C430 N433 1.301 . S
C430 N434 1.328 . S
C430 H435 0.930 . S
C431 C432 1.333 . S
C431 N433 1.317 . S
C431 H436 0.930 . S
C432 C431 1.333 . S
C432 N434 1.350 . S
C432 H458 0.931 . S
N433 Co429 2.148 . S
N433 C430 1.301 . S
N433 C431 1.317 . S
N434 C430 1.328 . S
N434 C432 1.350 . S
H435 C430 0.930 . S
H436 C431 0.930 . S
C437 O438 1.224 . S
C437 O456 1.247 . S
O438 C437 1.224 . S
N439 Co429 2.128 . S
N439 C440 1.355 . S
N439 C442 1.311 . S
C440 N439 1.355 . S
C440 C441 1.363 . S
C440 H452 0.929 . S
C441 C440 1.363 . S
C441 N443 1.375 . S
C441 H459 0.931 . S
C442 N439 1.311 . S
C442 N443 1.347 . S
C442 H453 0.929 . S
N443 C441 1.375 . S
N443 C442 1.347 . S
C444 C447 1.365 . S
C444 N449 1.328 . S
C444 H450 0.929 . S
C445 C446 1.362 . S
C445 C448 1.378 . S
C445 H460 0.929 . S
C446 C445 1.362 . S
C446 C447 1.366 . S
C447 C444 1.365 . S
C447 C446 1.366 . S
C447 H461 0.930 . S
C448 C445 1.378 . S
C448 N449 1.315 . S
C448 H451 0.930 . S
N449 Co429 2.194 . S
N449 C444 1.328 . S
N449 C448 1.315 . S
H450 C444 0.929 . S
H451 C448 0.930 . S
H452 C440 0.929 . S
H453 C442 0.929 . S
O454 Co429 2.351 . S
O454 C457 1.244 . S
O455 Co429 2.155 . S
O455 C457 1.240 . S
O456 Co429 2.096 . S
O456 C437 1.247 . S
C457 O454 1.244 . S
C457 O455 1.240 . S
H458 C432 0.931 . S
H459 C441 0.931 . S
H460 C445 0.929 . S
H461 C447 0.930 . S
Co462 N466 2.148 . S
Co462 N472 2.128 . S
Co462 N482 2.194 . S
Co462 O487 2.351 . S
Co462 O488 2.155 . S
Co462 O489 2.096 . S
C463 N466 1.301 . S
C463 N467 1.328 . S
C463 H468 0.930 . S
C464 C465 1.333 . S
C464 N466 1.317 . S
C464 H469 0.930 . S
C465 C464 1.333 . S
C465 N467 1.350 . S
C465 H491 0.931 . S
N466 Co462 2.148 . S
N466 C463 1.301 . S
N466 C464 1.317 . S
N467 C463 1.328 . S
N467 C465 1.350 . S
H468 C463 0.930 . S
H469 C464 0.930 . S
C470 O471 1.224 . S
C470 O489 1.247 . S
O471 C470 1.224 . S
N472 Co462 2.128 . S
N472 C473 1.355 . S
N472 C475 1.311 . S
C473 N472 1.355 . S
C473 C474 1.363 . S
C473 H485 0.929 . S
C474 C473 1.363 . S
C474 N476 1.375 . S
C474 H492 0.931 . S
C475 N472 1.311 . S
C475 N476 1.347 . S
C475 H486 0.929 . S
N476 C474 1.375 . S
N476 C475 1.347 . S
C477 C480 1.365 . S
C477 N482 1.328 . S
C477 H483 0.929 . S
C478 C479 1.362 . S
C478 C481 1.378 . S
C478 H493 0.929 . S
C479 C478 1.362 . S
C479 C480 1.366 . S
C480 C477 1.365 . S
C480 C479 1.366 . S
C480 H494 0.930 . S
C481 C478 1.378 . S
C481 N482 1.315 . S
C481 H484 0.930 . S
N482 Co462 2.194 . S
N482 C477 1.328 . S
N482 C481 1.315 . S
H483 C477 0.929 . S
H484 C481 0.930 . S
H485 C473 0.929 . S
H486 C475 0.929 . S
O487 Co462 2.351 . S
O487 C490 1.244 . S
O488 Co462 2.155 . S
O488 C490 1.240 . S
O489 Co462 2.096 . S
O489 C470 1.247 . S
C490 O487 1.244 . S
C490 O488 1.240 . S
H491 C465 0.931 . S
H492 C474 0.931 . S
H493 C478 0.929 . S
H494 C480 0.930 . S
Co495 N499 2.148 1_554 S
Co495 N505 2.128 . S
Co495 N515 2.194 . S
Co495 O520 2.351 1_554 S
Co495 O521 2.155 . S
Co495 O522 2.096 . S
C496 N499 1.301 . S
C496 N500 1.328 . S
C496 H501 0.930 . S
C497 C498 1.333 . S
C497 N499 1.317 . S
C497 H502 0.930 1_556 S
C498 C497 1.333 . S
C498 N500 1.350 . S
C498 H524 0.931 . S
N499 Co495 2.148 1_556 S
N499 C496 1.301 . S
N499 C497 1.317 . S
N500 C496 1.328 . S
N500 C498 1.350 . S
H501 C496 0.930 . S
H502 C497 0.930 1_554 S
C503 O504 1.224 . S
C503 O522 1.247 . S
O504 C503 1.224 . S
N505 Co495 2.128 . S
N505 C506 1.355 1_655 S
N505 C508 1.311 . S
C506 N505 1.355 1_455 S
C506 C507 1.363 . S
C506 H518 0.929 . S
C507 C506 1.363 . S
C507 N509 1.375 . S
C507 H525 0.931 . S
C508 N505 1.311 . S
C508 N509 1.347 1_655 S
C508 H519 0.929 . S
N509 C507 1.375 . S
N509 C508 1.347 1_455 S
C510 C513 1.365 . S
C510 N515 1.328 1_556 S
C510 H516 0.929 . S
C511 C512 1.399 . S
C511 C514 1.378 . S
C511 H526 0.929 . S
C512 C511 1.399 . S
C512 C513 1.340 1_554 S
C513 C510 1.365 . S
C513 C512 1.340 1_556 S
C513 H527 0.930 1_655 S
C514 C511 1.378 . S
C514 N515 1.315 . S
C514 H517 0.930 . S
N515 Co495 2.194 . S
N515 C510 1.328 1_554 S
N515 C514 1.315 . S
H516 C510 0.929 . S
H517 C514 0.930 . S
H518 C506 0.929 . S
H519 C508 0.929 . S
O520 Co495 2.351 1_556 S
O520 C523 1.244 . S
O521 Co495 2.155 . S
O521 C523 1.240 1_554 S
O522 Co495 2.096 . S
O522 C503 1.247 . S
C523 O520 1.244 . S
C523 O521 1.240 1_556 S
H524 C498 0.931 . S
H525 C507 0.931 . S
H526 C511 0.929 . S
H527 C513 0.930 1_455 S
Co528 N532 2.148 . S
Co528 N538 2.128 . S
Co528 N548 2.194 . S
Co528 O553 2.351 . S
Co528 O554 2.155 . S
Co528 O555 2.096 . S
C529 N532 1.301 . S
C529 N533 1.328 . S
C529 H534 0.930 . S
C530 C531 1.333 . S
C530 N532 1.317 . S
C530 H535 0.930 . S
C531 C530 1.333 . S
C531 N533 1.350 . S
C531 H557 0.931 . S
N532 Co528 2.148 . S
N532 C529 1.301 . S
N532 C530 1.317 . S
N533 C529 1.328 . S
N533 C531 1.350 . S
H534 C529 0.930 . S
H535 C530 0.930 . S
C536 O537 1.224 . S
C536 O555 1.247 . S
O537 C536 1.224 . S
N538 Co528 2.128 . S
N538 C539 1.355 . S
N538 C541 1.311 . S
C539 N538 1.355 . S
C539 C540 1.363 . S
C539 H551 0.929 . S
C540 C539 1.363 . S
C540 N542 1.375 . S
C540 H558 0.931 . S
C541 N538 1.311 . S
C541 N542 1.347 . S
C541 H552 0.929 . S
N542 C540 1.375 . S
N542 C541 1.347 . S
C543 C546 1.365 . S
C543 N548 1.328 . S
C543 H549 0.929 . S
C544 C545 1.362 . S
C544 C547 1.378 . S
C544 H559 0.929 . S
C545 C544 1.362 . S
C545 C546 1.366 . S
C546 C543 1.365 . S
C546 C545 1.366 . S
C546 H560 0.930 . S
C547 C544 1.378 . S
C547 N548 1.315 . S
C547 H550 0.930 . S
N548 Co528 2.194 . S
N548 C543 1.328 . S
N548 C547 1.315 . S
H549 C543 0.929 . S
H550 C547 0.930 . S
H551 C539 0.929 . S
H552 C541 0.929 . S
O553 Co528 2.351 . S
O553 C556 1.244 . S
O554 Co528 2.155 . S
O554 C556 1.240 . S
O555 Co528 2.096 . S
O555 C536 1.247 . S
C556 O553 1.244 . S
C556 O554 1.240 . S
H557 C531 0.931 . S
H558 C540 0.931 . S
H559 C544 0.929 . S
H560 C546 0.930 . S
Co561 N565 2.148 1_554 S
Co561 N571 2.128 . S
Co561 N581 2.194 . S
Co561 O586 2.351 1_554 S
Co561 O587 2.155 . S
Co561 O588 2.096 . S
C562 N565 1.301 . S
C562 N566 1.328 . S
C562 H567 0.930 . S
C563 C564 1.333 . S
C563 N565 1.317 . S
C563 H568 0.930 1_556 S
C564 C563 1.333 . S
C564 N566 1.350 . S
C564 H590 0.931 . S
N565 Co561 2.148 1_556 S
N565 C562 1.301 . S
N565 C563 1.317 . S
N566 C562 1.328 . S
N566 C564 1.350 . S
H567 C562 0.930 . S
H568 C563 0.930 1_554 S
C569 O570 1.224 . S
C569 O588 1.247 . S
O570 C569 1.224 . S
N571 Co561 2.128 . S
N571 C572 1.355 . S
N571 C574 1.311 . S
C572 N571 1.355 . S
C572 C573 1.363 . S
C572 H584 0.929 . S
C573 C572 1.363 . S
C573 N575 1.375 . S
C573 H591 0.931 . S
C574 N571 1.311 . S
C574 N575 1.347 . S
C574 H585 0.929 . S
N575 C573 1.375 . S
N575 C574 1.347 . S
C576 C579 1.365 . S
C576 N581 1.328 1_556 S
C576 H582 0.929 . S
C577 C578 1.399 . S
C577 C580 1.378 . S
C577 H592 0.929 . S
C578 C577 1.399 . S
C578 C579 1.340 1_554 S
C579 C576 1.365 . S
C579 C578 1.340 1_556 S
C579 H593 0.930 . S
C580 C577 1.378 . S
C580 N581 1.315 . S
C580 H583 0.930 . S
N581 Co561 2.194 . S
N581 C576 1.328 1_554 S
N581 C580 1.315 . S
H582 C576 0.929 . S
H583 C580 0.930 . S
H584 C572 0.929 . S
H585 C574 0.929 . S
O586 Co561 2.351 1_556 S
O586 C589 1.244 . S
O587 Co561 2.155 . S
O587 C589 1.240 1_554 S
O588 Co561 2.096 . S
O588 C569 1.247 . S
C589 O586 1.244 . S
C589 O587 1.240 1_556 S
H590 C564 0.931 . S
H591 C573 0.931 . S
H592 C577 0.929 . S
H593 C579 0.930 . S
Co594 N598 2.148 . S
Co594 N604 2.128 . S
Co594 N614 2.194 . S
Co594 O619 2.351 . S
Co594 O620 2.155 . S
Co594 O621 2.096 . S
C595 N598 1.301 . S
C595 N599 1.328 . S
C595 H600 0.930 . S
C596 C597 1.333 . S
C596 N598 1.317 . S
C596 H601 0.930 . S
C597 C596 1.333 . S
C597 N599 1.350 . S
C597 H623 0.931 . S
N598 Co594 2.148 . S
N598 C595 1.301 . S
N598 C596 1.317 . S
N599 C595 1.328 . S
N599 C597 1.350 . S
H600 C595 0.930 . S
H601 C596 0.930 . S
C602 O603 1.224 . S
C602 O621 1.247 . S
O603 C602 1.224 . S
N604 Co594 2.128 . S
N604 C605 1.355 . S
N604 C607 1.311 . S
C605 N604 1.355 . S
C605 C606 1.363 . S
C605 H617 0.929 . S
C606 C605 1.363 . S
C606 N608 1.375 . S
C606 H624 0.931 . S
C607 N604 1.311 . S
C607 N608 1.347 . S
C607 H618 0.929 . S
N608 C606 1.375 . S
N608 C607 1.347 . S
C609 C612 1.365 . S
C609 N614 1.328 . S
C609 H615 0.929 . S
C610 C611 1.362 . S
C610 C613 1.378 . S
C610 H625 0.929 . S
C611 C610 1.362 . S
C611 C612 1.366 . S
C612 C609 1.365 . S
C612 C611 1.366 . S
C612 H626 0.930 . S
C613 C610 1.378 . S
C613 N614 1.315 . S
C613 H616 0.930 . S
N614 Co594 2.194 . S
N614 C609 1.328 . S
N614 C613 1.315 . S
H615 C609 0.929 . S
H616 C613 0.930 . S
H617 C605 0.929 . S
H618 C607 0.929 . S
O619 Co594 2.351 . S
O619 C622 1.244 . S
O620 Co594 2.155 . S
O620 C622 1.240 . S
O621 Co594 2.096 . S
O621 C602 1.247 . S
C622 O619 1.244 . S
C622 O620 1.240 . S
H623 C597 0.931 . S
H624 C606 0.931 . S
H625 C610 0.929 . S
H626 C612 0.930 . S
Co627 N631 2.148 . S
Co627 N637 2.128 . S
Co627 N647 2.194 . S
Co627 O652 2.351 . S
Co627 O653 2.155 . S
Co627 O654 2.096 . S
C628 N631 1.301 . S
C628 N632 1.328 . S
C628 H633 0.930 . S
C629 C630 1.333 . S
C629 N631 1.317 . S
C629 H634 0.930 . S
C630 C629 1.333 . S
C630 N632 1.350 . S
C630 H656 0.931 . S
N631 Co627 2.148 . S
N631 C628 1.301 . S
N631 C629 1.317 . S
N632 C628 1.328 . S
N632 C630 1.350 . S
H633 C628 0.930 . S
H634 C629 0.930 . S
C635 O636 1.224 . S
C635 O654 1.247 . S
O636 C635 1.224 . S
N637 Co627 2.128 . S
N637 C638 1.355 1_655 S
N637 C640 1.311 . S
C638 N637 1.355 1_455 S
C638 C639 1.363 . S
C638 H650 0.929 . S
C639 C638 1.363 . S
C639 N641 1.375 . S
C639 H657 0.931 . S
C640 N637 1.311 . S
C640 N641 1.347 1_655 S
C640 H651 0.929 . S
N641 C639 1.375 . S
N641 C640 1.347 1_455 S
C642 C645 1.365 . S
C642 N647 1.328 . S
C642 H648 0.929 . S
C643 C644 1.362 . S
C643 C646 1.378 . S
C643 H658 0.929 . S
C644 C643 1.362 . S
C644 C645 1.366 . S
C645 C642 1.365 . S
C645 C644 1.366 . S
C645 H659 0.930 1_655 S
C646 C643 1.378 . S
C646 N647 1.315 . S
C646 H649 0.930 . S
N647 Co627 2.194 . S
N647 C642 1.328 . S
N647 C646 1.315 . S
H648 C642 0.929 . S
H649 C646 0.930 . S
H650 C638 0.929 . S
H651 C640 0.929 . S
O652 Co627 2.351 . S
O652 C655 1.244 . S
O653 Co627 2.155 . S
O653 C655 1.240 . S
O654 Co627 2.096 . S
O654 C635 1.247 . S
C655 O652 1.244 . S
C655 O653 1.240 . S
H656 C630 0.931 . S
H657 C639 0.931 . S
H658 C643 0.929 . S
H659 C645 0.930 1_455 S
Co660 N664 2.148 . S
Co660 N670 2.128 . S
Co660 N680 2.194 . S
Co660 O685 2.351 . S
Co660 O686 2.155 . S
Co660 O687 2.096 . S
C661 N664 1.301 . S
C661 N665 1.328 . S
C661 H666 0.930 . S
C662 C663 1.333 . S
C662 N664 1.317 . S
C662 H667 0.930 . S
C663 C662 1.333 . S
C663 N665 1.350 . S
C663 H689 0.931 . S
N664 Co660 2.148 . S
N664 C661 1.301 . S
N664 C662 1.317 . S
N665 C661 1.328 . S
N665 C663 1.350 . S
H666 C661 0.930 . S
H667 C662 0.930 . S
C668 O669 1.224 . S
C668 O687 1.247 . S
O669 C668 1.224 . S
N670 Co660 2.128 . S
N670 C671 1.355 . S
N670 C673 1.311 . S
C671 N670 1.355 . S
C671 C672 1.363 . S
C671 H683 0.929 . S
C672 C671 1.363 . S
C672 N674 1.375 . S
C672 H690 0.931 . S
C673 N670 1.311 . S
C673 N674 1.347 . S
C673 H684 0.929 . S
N674 C672 1.375 . S
N674 C673 1.347 . S
C675 C678 1.365 . S
C675 N680 1.328 . S
C675 H681 0.929 . S
C676 C677 1.362 . S
C676 C679 1.378 . S
C676 H691 0.929 . S
C677 C676 1.362 . S
C677 C678 1.366 . S
C678 C675 1.365 . S
C678 C677 1.366 . S
C678 H692 0.930 . S
C679 C676 1.378 . S
C679 N680 1.315 . S
C679 H682 0.930 . S
N680 Co660 2.194 . S
N680 C675 1.328 . S
N680 C679 1.315 . S
H681 C675 0.929 . S
H682 C679 0.930 . S
H683 C671 0.929 . S
H684 C673 0.929 . S
O685 Co660 2.351 . S
O685 C688 1.244 . S
O686 Co660 2.155 . S
O686 C688 1.240 . S
O687 Co660 2.096 . S
O687 C668 1.247 . S
C688 O685 1.244 . S
C688 O686 1.240 . S
H689 C663 0.931 . S
H690 C672 0.931 . S
H691 C676 0.929 . S
H692 C678 0.930 . S
Co693 N697 2.148 1_556 S
Co693 N703 2.128 . S
Co693 N713 2.194 . S
Co693 O718 2.351 1_556 S
Co693 O719 2.155 . S
Co693 O720 2.096 . S
C694 N697 1.301 . S
C694 N698 1.328 . S
C694 H699 0.930 . S
C695 C696 1.333 . S
C695 N697 1.317 . S
C695 H700 0.930 1_554 S
C696 C695 1.333 . S
C696 N698 1.350 . S
C696 H722 0.931 . S
N697 Co693 2.148 1_554 S
N697 C694 1.301 . S
N697 C695 1.317 . S
N698 C694 1.328 . S
N698 C696 1.350 . S
H699 C694 0.930 . S
H700 C695 0.930 1_556 S
C701 O702 1.224 . S
C701 O720 1.247 . S
O702 C701 1.224 . S
N703 Co693 2.128 . S
N703 C704 1.355 1_655 S
N703 C706 1.311 . S
C704 N703 1.355 1_455 S
C704 C705 1.363 . S
C704 H716 0.929 . S
C705 C704 1.363 . S
C705 N707 1.375 . S
C705 H723 0.931 . S
C706 N703 1.311 . S
C706 N707 1.347 1_655 S
C706 H717 0.929 . S
N707 C705 1.375 . S
N707 C706 1.347 1_455 S
C708 C711 1.365 . S
C708 N713 1.328 1_554 S
C708 H714 0.929 . S
C709 C710 1.399 . S
C709 C712 1.378 . S
C709 H724 0.929 . S
C710 C709 1.399 . S
C710 C711 1.340 1_556 S
C711 C708 1.365 . S
C711 C710 1.340 1_554 S
C711 H725 0.930 1_655 S
C712 C709 1.378 . S
C712 N713 1.315 . S
C712 H715 0.930 . S
N713 Co693 2.194 . S
N713 C708 1.328 1_556 S
N713 C712 1.315 . S
H714 C708 0.929 . S
H715 C712 0.930 . S
H716 C704 0.929 . S
H717 C706 0.929 . S
O718 Co693 2.351 1_554 S
O718 C721 1.244 . S
O719 Co693 2.155 . S
O719 C721 1.240 1_556 S
O720 Co693 2.096 . S
O720 C701 1.247 . S
C721 O718 1.244 . S
C721 O719 1.240 1_554 S
H722 C696 0.931 . S
H723 C705 0.931 . S
H724 C709 0.929 . S
H725 C711 0.930 1_455 S
Co726 N730 2.148 . S
Co726 N736 2.128 . S
Co726 N746 2.194 . S
Co726 O751 2.351 . S
Co726 O752 2.155 . S
Co726 O753 2.096 . S
C727 N730 1.301 . S
C727 N731 1.328 . S
C727 H732 0.930 . S
C728 C729 1.333 . S
C728 N730 1.317 . S
C728 H733 0.930 . S
C729 C728 1.333 . S
C729 N731 1.350 . S
C729 H755 0.931 . S
N730 Co726 2.148 . S
N730 C727 1.301 . S
N730 C728 1.317 . S
N731 C727 1.328 . S
N731 C729 1.350 . S
H732 C727 0.930 . S
H733 C728 0.930 . S
C734 O735 1.224 . S
C734 O753 1.247 . S
O735 C734 1.224 . S
N736 Co726 2.128 . S
N736 C737 1.355 . S
N736 C739 1.311 . S
C737 N736 1.355 . S
C737 C738 1.363 . S
C737 H749 0.929 . S
C738 C737 1.363 . S
C738 N740 1.375 . S
C738 H756 0.931 . S
C739 N736 1.311 . S
C739 N740 1.347 . S
C739 H750 0.929 . S
N740 C738 1.375 . S
N740 C739 1.347 . S
C741 C744 1.365 . S
C741 N746 1.328 . S
C741 H747 0.929 . S
C742 C743 1.362 . S
C742 C745 1.378 . S
C742 H757 0.929 . S
C743 C742 1.362 . S
C743 C744 1.366 . S
C744 C741 1.365 . S
C744 C743 1.366 . S
C744 H758 0.930 . S
C745 C742 1.378 . S
C745 N746 1.315 . S
C745 H748 0.930 . S
N746 Co726 2.194 . S
N746 C741 1.328 . S
N746 C745 1.315 . S
H747 C741 0.929 . S
H748 C745 0.930 . S
H749 C737 0.929 . S
H750 C739 0.929 . S
O751 Co726 2.351 . S
O751 C754 1.244 . S
O752 Co726 2.155 . S
O752 C754 1.240 . S
O753 Co726 2.096 . S
O753 C734 1.247 . S
C754 O751 1.244 . S
C754 O752 1.240 . S
H755 C729 0.931 . S
H756 C738 0.931 . S
H757 C742 0.929 . S
H758 C744 0.930 . S
Co759 N763 2.148 . S
Co759 N769 2.128 . S
Co759 N779 2.194 . S
Co759 O784 2.351 . S
Co759 O785 2.155 . S
Co759 O786 2.096 . S
C760 N763 1.301 . S
C760 N764 1.328 . S
C760 H765 0.930 . S
C761 C762 1.333 . S
C761 N763 1.317 . S
C761 H766 0.930 . S
C762 C761 1.333 . S
C762 N764 1.350 . S
C762 H788 0.931 . S
N763 Co759 2.148 . S
N763 C760 1.301 . S
N763 C761 1.317 . S
N764 C760 1.328 . S
N764 C762 1.350 . S
H765 C760 0.930 . S
H766 C761 0.930 . S
C767 O768 1.224 . S
C767 O786 1.247 . S
O768 C767 1.224 . S
N769 Co759 2.128 . S
N769 C770 1.355 . S
N769 C772 1.311 . S
C770 N769 1.355 . S
C770 C771 1.363 . S
C770 H782 0.929 . S
C771 C770 1.363 . S
C771 N773 1.375 . S
C771 H789 0.931 . S
C772 N769 1.311 . S
C772 N773 1.347 . S
C772 H783 0.929 . S
N773 C771 1.375 . S
N773 C772 1.347 . S
C774 C777 1.365 . S
C774 N779 1.328 . S
C774 H780 0.929 . S
C775 C776 1.362 . S
C775 C778 1.378 . S
C775 H790 0.929 . S
C776 C775 1.362 . S
C776 C777 1.366 . S
C777 C774 1.365 . S
C777 C776 1.366 . S
C777 H791 0.930 . S
C778 C775 1.378 . S
C778 N779 1.315 . S
C778 H781 0.930 . S
N779 Co759 2.194 . S
N779 C774 1.328 . S
N779 C778 1.315 . S
H780 C774 0.929 . S
H781 C778 0.930 . S
H782 C770 0.929 . S
H783 C772 0.929 . S
O784 Co759 2.351 . S
O784 C787 1.244 . S
O785 Co759 2.155 . S
O785 C787 1.240 . S
O786 Co759 2.096 . S
O786 C767 1.247 . S
C787 O784 1.244 . S
C787 O785 1.240 . S
H788 C762 0.931 . S
H789 C771 0.931 . S
H790 C775 0.929 . S
H791 C777 0.930 . S
Co792 N796 2.148 . S
Co792 N802 2.128 . S
Co792 N812 2.194 . S
Co792 O817 2.351 . S
Co792 O818 2.155 . S
Co792 O819 2.096 . S
C793 N796 1.301 . S
C793 N797 1.328 . S
C793 H798 0.930 . S
C794 C795 1.333 . S
C794 N796 1.317 . S
C794 H799 0.930 . S
C795 C794 1.333 . S
C795 N797 1.350 . S
C795 H821 0.931 . S
N796 Co792 2.148 . S
N796 C793 1.301 . S
N796 C794 1.317 . S
N797 C793 1.328 . S
N797 C795 1.350 . S
H798 C793 0.930 . S
H799 C794 0.930 . S
C800 O801 1.224 . S
C800 O819 1.247 . S
O801 C800 1.224 . S
N802 Co792 2.128 . S
N802 C803 1.355 . S
N802 C805 1.311 . S
C803 N802 1.355 . S
C803 C804 1.363 . S
C803 H815 0.929 . S
C804 C803 1.363 . S
C804 N806 1.375 . S
C804 H822 0.931 . S
C805 N802 1.311 . S
C805 N806 1.347 . S
C805 H816 0.929 . S
N806 C804 1.375 . S
N806 C805 1.347 . S
C807 C810 1.365 . S
C807 N812 1.328 . S
C807 H813 0.929 . S
C808 C809 1.362 . S
C808 C811 1.378 . S
C808 H823 0.929 . S
C809 C808 1.362 . S
C809 C810 1.366 . S
C810 C807 1.365 . S
C810 C809 1.366 . S
C810 H824 0.930 . S
C811 C808 1.378 . S
C811 N812 1.315 . S
C811 H814 0.930 . S
N812 Co792 2.194 . S
N812 C807 1.328 . S
N812 C811 1.315 . S
H813 C807 0.929 . S
H814 C811 0.930 . S
H815 C803 0.929 . S
H816 C805 0.929 . S
O817 Co792 2.351 . S
O817 C820 1.244 . S
O818 Co792 2.155 . S
O818 C820 1.240 . S
O819 Co792 2.096 . S
O819 C800 1.247 . S
C820 O817 1.244 . S
C820 O818 1.240 . S
H821 C795 0.931 . S
H822 C804 0.931 . S
H823 C808 0.929 . S
H824 C810 0.930 . S
Co825 N829 2.148 1_556 S
Co825 N835 2.128 . S
Co825 N845 2.194 . S
Co825 O850 2.351 1_556 S
Co825 O851 2.155 . S
Co825 O852 2.096 . S
C826 N829 1.301 . S
C826 N830 1.328 . S
C826 H831 0.930 . S
C827 C828 1.333 . S
C827 N829 1.317 . S
C827 H832 0.930 1_554 S
C828 C827 1.333 . S
C828 N830 1.350 . S
C828 H854 0.931 . S
N829 Co825 2.148 1_554 S
N829 C826 1.301 . S
N829 C827 1.317 . S
N830 C826 1.328 . S
N830 C828 1.350 . S
H831 C826 0.930 . S
H832 C827 0.930 1_556 S
C833 O834 1.224 . S
C833 O852 1.247 . S
O834 C833 1.224 . S
N835 Co825 2.128 . S
N835 C836 1.355 . S
N835 C838 1.311 . S
C836 N835 1.355 . S
C836 C837 1.363 . S
C836 H848 0.929 . S
C837 C836 1.363 . S
C837 N839 1.375 . S
C837 H855 0.931 . S
C838 N835 1.311 . S
C838 N839 1.347 . S
C838 H849 0.929 . S
N839 C837 1.375 . S
N839 C838 1.347 . S
C840 C843 1.365 . S
C840 N845 1.328 1_554 S
C840 H846 0.929 . S
C841 C842 1.399 . S
C841 C844 1.378 . S
C841 H856 0.929 . S
C842 C841 1.399 . S
C842 C843 1.340 1_556 S
C843 C840 1.365 . S
C843 C842 1.340 1_554 S
C843 H857 0.930 . S
C844 C841 1.378 . S
C844 N845 1.315 . S
C844 H847 0.930 . S
N845 Co825 2.194 . S
N845 C840 1.328 1_556 S
N845 C844 1.315 . S
H846 C840 0.929 . S
H847 C844 0.930 . S
H848 C836 0.929 . S
H849 C838 0.929 . S
O850 Co825 2.351 1_554 S
O850 C853 1.244 . S
O851 Co825 2.155 . S
O851 C853 1.240 1_556 S
O852 Co825 2.096 . S
O852 C833 1.247 . S
C853 O850 1.244 . S
C853 O851 1.240 1_554 S
H854 C828 0.931 . S
H855 C837 0.931 . S
H856 C841 0.929 . S
H857 C843 0.930 . S
Co858 N862 2.148 . S
Co858 N868 2.128 . S
Co858 N878 2.194 . S
Co858 O883 2.351 . S
Co858 O884 2.155 . S
Co858 O885 2.096 . S
C859 N862 1.301 . S
C859 N863 1.328 . S
C859 H864 0.930 . S
C860 C861 1.333 . S
C860 N862 1.317 . S
C860 H865 0.930 . S
C861 C860 1.333 . S
C861 N863 1.350 . S
C861 H887 0.931 . S
N862 Co858 2.148 . S
N862 C859 1.301 . S
N862 C860 1.317 . S
N863 C859 1.328 . S
N863 C861 1.350 . S
H864 C859 0.930 . S
H865 C860 0.930 . S
C866 O867 1.224 . S
C866 O885 1.247 . S
O867 C866 1.224 . S
N868 Co858 2.128 . S
N868 C869 1.355 . S
N868 C871 1.311 . S
C869 N868 1.355 . S
C869 C870 1.363 . S
C869 H881 0.929 . S
C870 C869 1.363 . S
C870 N872 1.375 . S
C870 H888 0.931 . S
C871 N868 1.311 . S
C871 N872 1.347 . S
C871 H882 0.929 . S
N872 C870 1.375 . S
N872 C871 1.347 . S
C873 C876 1.365 . S
C873 N878 1.328 . S
C873 H879 0.929 . S
C874 C875 1.362 . S
C874 C877 1.378 . S
C874 H889 0.929 . S
C875 C874 1.362 . S
C875 C876 1.366 . S
C876 C873 1.365 . S
C876 C875 1.366 . S
C876 H890 0.930 . S
C877 C874 1.378 . S
C877 N878 1.315 . S
C877 H880 0.930 . S
N878 Co858 2.194 . S
N878 C873 1.328 . S
N878 C877 1.315 . S
H879 C873 0.929 . S
H880 C877 0.930 . S
H881 C869 0.929 . S
H882 C871 0.929 . S
O883 Co858 2.351 . S
O883 C886 1.244 . S
O884 Co858 2.155 . S
O884 C886 1.240 . S
O885 Co858 2.096 . S
O885 C866 1.247 . S
C886 O883 1.244 . S
C886 O884 1.240 . S
H887 C861 0.931 . S
H888 C870 0.931 . S
H889 C874 0.929 . S
H890 C876 0.930 . S
Co891 N895 2.148 . S
Co891 N901 2.128 . S
Co891 N911 2.194 . S
Co891 O916 2.351 . S
Co891 O917 2.155 . S
Co891 O918 2.096 . S
C892 N895 1.301 . S
C892 N896 1.328 . S
C892 H897 0.930 . S
C893 C894 1.333 . S
C893 N895 1.317 . S
C893 H898 0.930 . S
C894 C893 1.333 . S
C894 N896 1.350 . S
C894 H920 0.931 . S
N895 Co891 2.148 . S
N895 C892 1.301 . S
N895 C893 1.317 . S
N896 C892 1.328 . S
N896 C894 1.350 . S
H897 C892 0.930 . S
H898 C893 0.930 . S
C899 O900 1.224 . S
C899 O918 1.247 . S
O900 C899 1.224 . S
N901 Co891 2.128 . S
N901 C902 1.355 1_455 S
N901 C904 1.311 . S
C902 N901 1.355 1_655 S
C902 C903 1.363 . S
C902 H914 0.929 . S
C903 C902 1.363 . S
C903 N905 1.375 . S
C903 H921 0.931 . S
C904 N901 1.311 . S
C904 N905 1.347 1_455 S
C904 H915 0.929 . S
N905 C903 1.375 . S
N905 C904 1.347 1_655 S
C906 C909 1.365 . S
C906 N911 1.328 . S
C906 H912 0.929 . S
C907 C908 1.362 . S
C907 C910 1.378 . S
C907 H922 0.929 . S
C908 C907 1.362 . S
C908 C909 1.366 . S
C909 C906 1.365 . S
C909 C908 1.366 . S
C909 H923 0.930 1_455 S
C910 C907 1.378 . S
C910 N911 1.315 . S
C910 H913 0.930 . S
N911 Co891 2.194 . S
N911 C906 1.328 . S
N911 C910 1.315 . S
H912 C906 0.929 . S
H913 C910 0.930 . S
H914 C902 0.929 . S
H915 C904 0.929 . S
O916 Co891 2.351 . S
O916 C919 1.244 . S
O917 Co891 2.155 . S
O917 C919 1.240 . S
O918 Co891 2.096 . S
O918 C899 1.247 . S
C919 O916 1.244 . S
C919 O917 1.240 . S
H920 C894 0.931 . S
H921 C903 0.931 . S
H922 C907 0.929 . S
H923 C909 0.930 1_655 S
Co924 N928 2.148 . S
Co924 N934 2.128 . S
Co924 N944 2.194 . S
Co924 O949 2.351 . S
Co924 O950 2.155 . S
Co924 O951 2.096 . S
C925 N928 1.301 . S
C925 N929 1.328 . S
C925 H930 0.930 . S
C926 C927 1.333 . S
C926 N928 1.317 . S
C926 H931 0.930 . S
C927 C926 1.333 . S
C927 N929 1.350 . S
C927 H953 0.931 . S
N928 Co924 2.148 . S
N928 C925 1.301 . S
N928 C926 1.317 . S
N929 C925 1.328 . S
N929 C927 1.350 . S
H930 C925 0.930 . S
H931 C926 0.930 . S
C932 O933 1.224 . S
C932 O951 1.247 . S
O933 C932 1.224 . S
N934 Co924 2.128 . S
N934 C935 1.355 . S
N934 C937 1.311 . S
C935 N934 1.355 . S
C935 C936 1.363 . S
C935 H947 0.929 . S
C936 C935 1.363 . S
C936 N938 1.375 . S
C936 H954 0.931 . S
C937 N934 1.311 . S
C937 N938 1.347 . S
C937 H948 0.929 . S
N938 C936 1.375 . S
N938 C937 1.347 . S
C939 C942 1.365 . S
C939 N944 1.328 . S
C939 H945 0.929 . S
C940 C941 1.362 . S
C940 C943 1.378 . S
C940 H955 0.929 . S
C941 C940 1.362 . S
C941 C942 1.366 . S
C942 C939 1.365 . S
C942 C941 1.366 . S
C942 H956 0.930 . S
C943 C940 1.378 . S
C943 N944 1.315 . S
C943 H946 0.930 . S
N944 Co924 2.194 . S
N944 C939 1.328 . S
N944 C943 1.315 . S
H945 C939 0.929 . S
H946 C943 0.930 . S
H947 C935 0.929 . S
H948 C937 0.929 . S
O949 Co924 2.351 . S
O949 C952 1.244 . S
O950 Co924 2.155 . S
O950 C952 1.240 . S
O951 Co924 2.096 . S
O951 C932 1.247 . S
C952 O949 1.244 . S
C952 O950 1.240 . S
H953 C927 0.931 . S
H954 C936 0.931 . S
H955 C940 0.929 . S
H956 C942 0.930 . S
Co957 N961 2.148 1_554 S
Co957 N967 2.128 . S
Co957 N977 2.194 . S
Co957 O982 2.351 1_554 S
Co957 O983 2.155 . S
Co957 O984 2.096 . S
C958 N961 1.301 . S
C958 N962 1.328 . S
C958 H963 0.930 . S
C959 C960 1.333 . S
C959 N961 1.317 . S
C959 H964 0.930 1_556 S
C960 C959 1.333 . S
C960 N962 1.350 . S
C960 H986 0.931 . S
N961 Co957 2.148 1_556 S
N961 C958 1.301 . S
N961 C959 1.317 . S
N962 C958 1.328 . S
N962 C960 1.350 . S
H963 C958 0.930 . S
H964 C959 0.930 1_554 S
C965 O966 1.224 . S
C965 O984 1.247 . S
O966 C965 1.224 . S
N967 Co957 2.128 . S
N967 C968 1.355 1_455 S
N967 C970 1.311 . S
C968 N967 1.355 1_655 S
C968 C969 1.363 . S
C968 H980 0.929 . S
C969 C968 1.363 . S
C969 N971 1.375 . S
C969 H987 0.931 . S
C970 N967 1.311 . S
C970 N971 1.347 1_455 S
C970 H981 0.929 . S
N971 C969 1.375 . S
N971 C970 1.347 1_655 S
C972 C975 1.365 . S
C972 N977 1.328 1_556 S
C972 H978 0.929 . S
C973 C974 1.399 . S
C973 C976 1.378 . S
C973 H988 0.929 . S
C974 C973 1.399 . S
C974 C975 1.340 1_554 S
C975 C972 1.365 . S
C975 C974 1.340 1_556 S
C975 H989 0.930 1_455 S
C976 C973 1.378 . S
C976 N977 1.315 . S
C976 H979 0.930 . S
N977 Co957 2.194 . S
N977 C972 1.328 1_554 S
N977 C976 1.315 . S
H978 C972 0.929 . S
H979 C976 0.930 . S
H980 C968 0.929 . S
H981 C970 0.929 . S
O982 Co957 2.351 1_556 S
O982 C985 1.244 . S
O983 Co957 2.155 . S
O983 C985 1.240 1_554 S
O984 Co957 2.096 . S
O984 C965 1.247 . S
C985 O982 1.244 . S
C985 O983 1.240 1_556 S
H986 C960 0.931 . S
H987 C969 0.931 . S
H988 C973 0.929 . S
H989 C975 0.930 1_655 S
Co990 N994 2.148 . S
Co990 N1000 2.128 . S
Co990 N1010 2.194 . S
Co990 O1015 2.351 . S
Co990 O1016 2.155 . S
Co990 O1017 2.096 . S
C991 N994 1.301 . S
C991 N995 1.328 . S
C991 H996 0.930 . S
C992 C993 1.333 . S
C992 N994 1.317 . S
C992 H997 0.930 . S
C993 C992 1.333 . S
C993 N995 1.350 . S
C993 H1019 0.931 . S
N994 Co990 2.148 . S
N994 C991 1.301 . S
N994 C992 1.317 . S
N995 C991 1.328 . S
N995 C993 1.350 . S
H996 C991 0.930 . S
H997 C992 0.930 . S
C998 O999 1.224 . S
C998 O1017 1.247 . S
O999 C998 1.224 . S
N1000 Co990 2.128 . S
N1000 C1001 1.355 . S
N1000 C1003 1.311 . S
C1001 N1000 1.355 . S
C1001 C1002 1.363 . S
C1001 H1013 0.929 . S
C1002 C1001 1.363 . S
C1002 N1004 1.375 . S
C1002 H1020 0.931 . S
C1003 N1000 1.311 . S
C1003 N1004 1.347 . S
C1003 H1014 0.929 . S
N1004 C1002 1.375 . S
N1004 C1003 1.347 . S
C1005 C1008 1.365 . S
C1005 N1010 1.328 . S
C1005 H1011 0.929 . S
C1006 C1007 1.362 . S
C1006 C1009 1.378 . S
C1006 H1021 0.929 . S
C1007 C1006 1.362 . S
C1007 C1008 1.366 . S
C1008 C1005 1.365 . S
C1008 C1007 1.366 . S
C1008 H1022 0.930 . S
C1009 C1006 1.378 . S
C1009 N1010 1.315 . S
C1009 H1012 0.930 . S
N1010 Co990 2.194 . S
N1010 C1005 1.328 . S
N1010 C1009 1.315 . S
H1011 C1005 0.929 . S
H1012 C1009 0.930 . S
H1013 C1001 0.929 . S
H1014 C1003 0.929 . S
O1015 Co990 2.351 . S
O1015 C1018 1.244 . S
O1016 Co990 2.155 . S
O1016 C1018 1.240 . S
O1017 Co990 2.096 . S
O1017 C998 1.247 . S
C1018 O1015 1.244 . S
C1018 O1016 1.240 . S
H1019 C993 0.931 . S
H1020 C1002 0.931 . S
H1021 C1006 0.929 . S
H1022 C1008 0.930 . S
Co1023 N1027 2.148 . S
Co1023 N1033 2.128 . S
Co1023 N1043 2.194 . S
Co1023 O1048 2.351 . S
Co1023 O1049 2.155 . S
Co1023 O1050 2.096 . S
C1024 N1027 1.301 . S
C1024 N1028 1.328 . S
C1024 H1029 0.930 . S
C1025 C1026 1.333 . S
C1025 N1027 1.317 . S
C1025 H1030 0.930 . S
C1026 C1025 1.333 . S
C1026 N1028 1.350 . S
C1026 H1052 0.931 . S
N1027 Co1023 2.148 . S
N1027 C1024 1.301 . S
N1027 C1025 1.317 . S
N1028 C1024 1.328 . S
N1028 C1026 1.350 . S
H1029 C1024 0.930 . S
H1030 C1025 0.930 . S
C1031 O1032 1.224 . S
C1031 O1050 1.247 . S
O1032 C1031 1.224 . S
N1033 Co1023 2.128 . S
N1033 C1034 1.355 . S
N1033 C1036 1.311 . S
C1034 N1033 1.355 . S
C1034 C1035 1.363 . S
C1034 H1046 0.929 . S
C1035 C1034 1.363 . S
C1035 N1037 1.375 . S
C1035 H1053 0.931 . S
C1036 N1033 1.311 . S
C1036 N1037 1.347 . S
C1036 H1047 0.929 . S
N1037 C1035 1.375 . S
N1037 C1036 1.347 . S
C1038 C1041 1.365 . S
C1038 N1043 1.328 . S
C1038 H1044 0.929 . S
C1039 C1040 1.362 . S
C1039 C1042 1.378 . S
C1039 H1054 0.929 . S
C1040 C1039 1.362 . S
C1040 C1041 1.366 . S
C1041 C1038 1.365 . S
C1041 C1040 1.366 . S
C1041 H1055 0.930 . S
C1042 C1039 1.378 . S
C1042 N1043 1.315 . S
C1042 H1045 0.930 . S
N1043 Co1023 2.194 . S
N1043 C1038 1.328 . S
N1043 C1042 1.315 . S
H1044 C1038 0.929 . S
H1045 C1042 0.930 . S
H1046 C1034 0.929 . S
H1047 C1036 0.929 . S
O1048 Co1023 2.351 . S
O1048 C1051 1.244 . S
O1049 Co1023 2.155 . S
O1049 C1051 1.240 . S
O1050 Co1023 2.096 . S
O1050 C1031 1.247 . S
C1051 O1048 1.244 . S
C1051 O1049 1.240 . S
H1052 C1026 0.931 . S
H1053 C1035 0.931 . S
H1054 C1039 0.929 . S
H1055 C1041 0.930 . S
H1056 C1062 0.930 . S
H1057 C1066 0.930 . S
H1058 C1071 0.929 . S
H1059 C1069 0.929 . S
H1060 C1064 0.929 . S
H1061 C1070 0.929 . S
C1062 H1056 0.930 . S
C1062 C1063 1.367 . S
C1062 C1070 1.378 . S
C1063 C1062 1.367 . S
C1063 C1071 1.433 . S
C1064 H1060 0.929 . S
C1064 C1066 1.378 . S
C1064 C1068 1.350 . S
C1065 C1068 1.463 . S
C1065 C1070 1.350 . S
C1065 N1073 1.427 . S
C1066 H1057 0.930 . S
C1066 C1064 1.378 . S
C1066 C1067 1.367 . S
C1067 C1066 1.367 . S
C1067 C1069 1.433 . S
C1068 C1064 1.350 . S
C1068 C1065 1.463 . S
C1068 N1072 1.427 . S
C1069 H1059 0.929 . S
C1069 C1067 1.433 . S
C1069 N1072 1.384 . S
C1070 H1061 0.929 . S
C1070 C1062 1.378 . S
C1070 C1065 1.350 . S
C1071 H1058 0.929 . S
C1071 C1063 1.433 . S
C1071 N1073 1.384 . S
N1072 C1068 1.427 . S
N1072 C1069 1.384 . S
N1073 C1065 1.427 . S
N1073 C1071 1.384 . S
H1074 C1080 0.930 . S
H1075 C1084 0.930 . S
H1076 C1089 0.929 . S
H1077 C1087 0.929 . S
H1078 C1082 0.929 . S
H1079 C1088 0.929 . S
C1080 H1074 0.930 . S
C1080 C1081 1.367 . S
C1080 C1088 1.378 . S
C1081 C1080 1.367 . S
C1081 C1089 1.433 . S
C1082 H1078 0.929 . S
C1082 C1084 1.378 . S
C1082 C1086 1.350 . S
C1083 C1086 1.463 . S
C1083 C1088 1.350 . S
C1083 N1091 1.427 . S
C1084 H1075 0.930 . S
C1084 C1082 1.378 . S
C1084 C1085 1.367 . S
C1085 C1084 1.367 . S
C1085 C1087 1.433 . S
C1086 C1082 1.350 . S
C1086 C1083 1.463 . S
C1086 N1090 1.427 . S
C1087 H1077 0.929 . S
C1087 C1085 1.433 . S
C1087 N1090 1.384 . S
C1088 H1079 0.929 . S
C1088 C1080 1.378 . S
C1088 C1083 1.350 . S
C1089 H1076 0.929 . S
C1089 C1081 1.433 . S
C1089 N1091 1.384 . S
N1090 C1086 1.427 . S
N1090 C1087 1.384 . S
N1091 C1083 1.427 . S
N1091 C1089 1.384 . S
H1092 C1098 0.930 . S
H1093 C1102 0.930 . S
H1094 C1107 0.929 . S
H1095 C1105 0.929 . S
H1096 C1100 0.929 . S
H1097 C1106 0.929 . S
C1098 H1092 0.930 . S
C1098 C1099 1.367 . S
C1098 C1106 1.378 . S
C1099 C1098 1.367 . S
C1099 C1107 1.433 . S
C1100 H1096 0.929 . S
C1100 C1102 1.378 . S
C1100 C1104 1.350 . S
C1101 C1104 1.463 . S
C1101 C1106 1.350 . S
C1101 N1109 1.427 . S
C1102 H1093 0.930 . S
C1102 C1100 1.378 . S
C1102 C1103 1.367 . S
C1103 C1102 1.367 . S
C1103 C1105 1.433 . S
C1104 C1100 1.350 . S
C1104 C1101 1.463 . S
C1104 N1108 1.427 . S
C1105 H1095 0.929 . S
C1105 C1103 1.433 . S
C1105 N1108 1.384 . S
C1106 H1097 0.929 . S
C1106 C1098 1.378 . S
C1106 C1101 1.350 . S
C1107 H1094 0.929 . S
C1107 C1099 1.433 . S
C1107 N1109 1.384 . S
N1108 C1104 1.427 . S
N1108 C1105 1.384 . S
N1109 C1101 1.427 . S
N1109 C1107 1.384 . S
H1110 C1116 0.930 . S
H1111 C1120 0.930 . S
H1112 C1125 0.929 . S
H1113 C1123 0.929 . S
H1114 C1118 0.929 . S
H1115 C1124 0.929 . S
C1116 H1110 0.930 . S
C1116 C1117 1.367 . S
C1116 C1124 1.378 . S
C1117 C1116 1.367 . S
C1117 C1125 1.433 . S
C1118 H1114 0.929 . S
C1118 C1120 1.378 . S
C1118 C1122 1.350 . S
C1119 C1122 1.463 . S
C1119 C1124 1.350 . S
C1119 N1127 1.427 . S
C1120 H1111 0.930 . S
C1120 C1118 1.378 . S
C1120 C1121 1.367 . S
C1121 C1120 1.367 . S
C1121 C1123 1.433 . S
C1122 C1118 1.350 . S
C1122 C1119 1.463 . S
C1122 N1126 1.427 . S
C1123 H1113 0.929 . S
C1123 C1121 1.433 . S
C1123 N1126 1.384 . S
C1124 H1115 0.929 . S
C1124 C1116 1.378 . S
C1124 C1119 1.350 . S
C1125 H1112 0.929 . S
C1125 C1117 1.433 . S
C1125 N1127 1.384 . S
N1126 C1122 1.427 . S
N1126 C1123 1.384 . S
N1127 C1119 1.427 . S
N1127 C1125 1.384 . S
H1128 C1134 0.930 . S
H1129 C1138 0.930 . S
H1130 C1143 0.929 . S
H1131 C1141 0.929 . S
H1132 C1136 0.929 . S
H1133 C1142 0.929 . S
C1134 H1128 0.930 . S
C1134 C1135 1.367 . S
C1134 C1142 1.378 . S
C1135 C1134 1.367 . S
C1135 C1143 1.433 . S
C1136 H1132 0.929 . S
C1136 C1138 1.378 . S
C1136 C1140 1.350 . S
C1137 C1140 1.463 . S
C1137 C1142 1.350 . S
C1137 N1145 1.427 . S
C1138 H1129 0.930 . S
C1138 C1136 1.378 . S
C1138 C1139 1.367 . S
C1139 C1138 1.367 . S
C1139 C1141 1.433 . S
C1140 C1136 1.350 . S
C1140 C1137 1.463 . S
C1140 N1144 1.427 . S
C1141 H1131 0.929 . S
C1141 C1139 1.433 . S
C1141 N1144 1.384 . S
C1142 H1133 0.929 . S
C1142 C1134 1.378 . S
C1142 C1137 1.350 . S
C1143 H1130 0.929 . S
C1143 C1135 1.433 . S
C1143 N1145 1.384 . S
N1144 C1140 1.427 . S
N1144 C1141 1.384 . S
N1145 C1137 1.427 . S
N1145 C1143 1.384 . S
H1146 C1152 0.930 . S
H1147 C1156 0.930 . S
H1148 C1161 0.929 . S
H1149 C1159 0.929 . S
H1150 C1154 0.929 . S
H1151 C1160 0.929 . S
C1152 H1146 0.930 . S
C1152 C1153 1.367 . S
C1152 C1160 1.378 . S
C1153 C1152 1.367 . S
C1153 C1161 1.433 . S
C1154 H1150 0.929 . S
C1154 C1156 1.378 . S
C1154 C1158 1.350 . S
C1155 C1158 1.463 . S
C1155 C1160 1.350 . S
C1155 N1163 1.427 . S
C1156 H1147 0.930 . S
C1156 C1154 1.378 . S
C1156 C1157 1.367 . S
C1157 C1156 1.367 . S
C1157 C1159 1.433 . S
C1158 C1154 1.350 . S
C1158 C1155 1.463 . S
C1158 N1162 1.427 . S
C1159 H1149 0.929 . S
C1159 C1157 1.433 . S
C1159 N1162 1.384 . S
C1160 H1151 0.929 . S
C1160 C1152 1.378 . S
C1160 C1155 1.350 . S
C1161 H1148 0.929 . S
C1161 C1153 1.433 . S
C1161 N1163 1.384 . S
N1162 C1158 1.427 . S
N1162 C1159 1.384 . S
N1163 C1155 1.427 . S
N1163 C1161 1.384 . S
H1164 C1170 0.930 . S
H1165 C1174 0.930 . S
H1166 C1179 0.929 . S
H1167 C1177 0.929 . S
H1168 C1172 0.929 . S
H1169 C1178 0.929 . S
C1170 H1164 0.930 . S
C1170 C1171 1.367 . S
C1170 C1178 1.378 . S
C1171 C1170 1.367 . S
C1171 C1179 1.433 . S
C1172 H1168 0.929 . S
C1172 C1174 1.378 . S
C1172 C1176 1.350 . S
C1173 C1176 1.463 . S
C1173 C1178 1.350 . S
C1173 N1181 1.427 . S
C1174 H1165 0.930 . S
C1174 C1172 1.378 . S
C1174 C1175 1.367 . S
C1175 C1174 1.367 . S
C1175 C1177 1.433 . S
C1176 C1172 1.350 . S
C1176 C1173 1.463 . S
C1176 N1180 1.427 . S
C1177 H1167 0.929 . S
C1177 C1175 1.433 . S
C1177 N1180 1.384 . S
C1178 H1169 0.929 . S
C1178 C1170 1.378 . S
C1178 C1173 1.350 . S
C1179 H1166 0.929 . S
C1179 C1171 1.433 . S
C1179 N1181 1.384 . S
N1180 C1176 1.427 . S
N1180 C1177 1.384 . S
N1181 C1173 1.427 . S
N1181 C1179 1.384 . S
H1182 C1188 0.930 . S
H1183 C1192 0.930 . S
H1184 C1197 0.929 . S
H1185 C1195 0.929 . S
H1186 C1190 0.929 . S
H1187 C1196 0.929 . S
C1188 H1182 0.930 . S
C1188 C1189 1.367 . S
C1188 C1196 1.378 . S
C1189 C1188 1.367 . S
C1189 C1197 1.433 . S
C1190 H1186 0.929 . S
C1190 C1192 1.378 . S
C1190 C1194 1.350 . S
C1191 C1194 1.463 . S
C1191 C1196 1.350 . S
C1191 N1199 1.427 . S
C1192 H1183 0.930 . S
C1192 C1190 1.378 . S
C1192 C1193 1.367 . S
C1193 C1192 1.367 . S
C1193 C1195 1.433 . S
C1194 C1190 1.350 . S
C1194 C1191 1.463 . S
C1194 N1198 1.427 . S
C1195 H1185 0.929 . S
C1195 C1193 1.433 . S
C1195 N1198 1.384 . S
C1196 H1187 0.929 . S
C1196 C1188 1.378 . S
C1196 C1191 1.350 . S
C1197 H1184 0.929 . S
C1197 C1189 1.433 . S
C1197 N1199 1.384 . S
N1198 C1194 1.427 . S
N1198 C1195 1.384 . S
N1199 C1191 1.427 . S
N1199 C1197 1.384 . S
H1200 C1206 0.930 . S
H1201 C1210 0.930 . S
H1202 C1215 0.929 . S
H1203 C1213 0.929 . S
H1204 C1208 0.929 . S
H1205 C1214 0.929 . S
C1206 H1200 0.930 . S
C1206 C1207 1.367 . S
C1206 C1214 1.378 . S
C1207 C1206 1.367 . S
C1207 C1215 1.433 . S
C1208 H1204 0.929 . S
C1208 C1210 1.378 . S
C1208 C1212 1.350 . S
C1209 C1212 1.463 . S
C1209 C1214 1.350 . S
C1209 N1217 1.427 . S
C1210 H1201 0.930 . S
C1210 C1208 1.378 . S
C1210 C1211 1.367 . S
C1211 C1210 1.367 . S
C1211 C1213 1.433 . S
C1212 C1208 1.350 . S
C1212 C1209 1.463 . S
C1212 N1216 1.427 . S
C1213 H1203 0.929 . S
C1213 C1211 1.433 . S
C1213 N1216 1.384 . S
C1214 H1205 0.929 . S
C1214 C1206 1.378 . S
C1214 C1209 1.350 . S
C1215 H1202 0.929 . S
C1215 C1207 1.433 . S
C1215 N1217 1.384 . S
N1216 C1212 1.427 . S
N1216 C1213 1.384 . S
N1217 C1209 1.427 . S
N1217 C1215 1.384 . S
H1218 C1224 0.930 . S
H1219 C1228 0.930 . S
H1220 C1233 0.929 . S
H1221 C1231 0.929 . S
H1222 C1226 0.929 . S
H1223 C1232 0.929 . S
C1224 H1218 0.930 . S
C1224 C1225 1.367 . S
C1224 C1232 1.378 . S
C1225 C1224 1.367 . S
C1225 C1233 1.433 . S
C1226 H1222 0.929 . S
C1226 C1228 1.378 . S
C1226 C1230 1.350 . S
C1227 C1230 1.463 . S
C1227 C1232 1.350 . S
C1227 N1235 1.427 . S
C1228 H1219 0.930 . S
C1228 C1226 1.378 . S
C1228 C1229 1.367 . S
C1229 C1228 1.367 . S
C1229 C1231 1.433 . S
C1230 C1226 1.350 . S
C1230 C1227 1.463 . S
C1230 N1234 1.427 . S
C1231 H1221 0.929 . S
C1231 C1229 1.433 . S
C1231 N1234 1.384 . S
C1232 H1223 0.929 . S
C1232 C1224 1.378 . S
C1232 C1227 1.350 . S
C1233 H1220 0.929 . S
C1233 C1225 1.433 . S
C1233 N1235 1.384 . S
N1234 C1230 1.427 . S
N1234 C1231 1.384 . S
N1235 C1227 1.427 . S
N1235 C1233 1.384 . S
H1236 C1242 0.930 . S
H1237 C1246 0.930 . S
H1238 C1251 0.929 . S
H1239 C1249 0.929 . S
H1240 C1244 0.929 . S
H1241 C1250 0.929 . S
C1242 H1236 0.930 . S
C1242 C1243 1.367 . S
C1242 C1250 1.378 . S
C1243 C1242 1.367 . S
C1243 C1251 1.433 . S
C1244 H1240 0.929 . S
C1244 C1246 1.378 . S
C1244 C1248 1.350 . S
C1245 C1248 1.463 . S
C1245 C1250 1.350 . S
C1245 N1253 1.427 . S
C1246 H1237 0.930 . S
C1246 C1244 1.378 . S
C1246 C1247 1.367 . S
C1247 C1246 1.367 . S
C1247 C1249 1.433 . S
C1248 C1244 1.350 . S
C1248 C1245 1.463 . S
C1248 N1252 1.427 . S
C1249 H1239 0.929 . S
C1249 C1247 1.433 . S
C1249 N1252 1.384 . S
C1250 H1241 0.929 . S
C1250 C1242 1.378 . S
C1250 C1245 1.350 . S
C1251 H1238 0.929 . S
C1251 C1243 1.433 . S
C1251 N1253 1.384 . S
N1252 C1248 1.427 . S
N1252 C1249 1.384 . S
N1253 C1245 1.427 . S
N1253 C1251 1.384 . S
H1254 C1260 0.930 . S
H1255 C1264 0.930 . S
H1256 C1269 0.929 . S
H1257 C1267 0.929 . S
H1258 C1262 0.929 . S
H1259 C1268 0.929 . S
C1260 H1254 0.930 . S
C1260 C1261 1.367 . S
C1260 C1268 1.378 . S
C1261 C1260 1.367 . S
C1261 C1269 1.433 . S
C1262 H1258 0.929 . S
C1262 C1264 1.378 . S
C1262 C1266 1.350 . S
C1263 C1266 1.463 . S
C1263 C1268 1.350 . S
C1263 N1271 1.427 . S
C1264 H1255 0.930 . S
C1264 C1262 1.378 . S
C1264 C1265 1.367 . S
C1265 C1264 1.367 . S
C1265 C1267 1.433 . S
C1266 C1262 1.350 . S
C1266 C1263 1.463 . S
C1266 N1270 1.427 . S
C1267 H1257 0.929 . S
C1267 C1265 1.433 . S
C1267 N1270 1.384 . S
C1268 H1259 0.929 . S
C1268 C1260 1.378 . S
C1268 C1263 1.350 . S
C1269 H1256 0.929 . S
C1269 C1261 1.433 . S
C1269 N1271 1.384 . S
N1270 C1266 1.427 . S
N1270 C1267 1.384 . S
N1271 C1263 1.427 . S
N1271 C1269 1.384 . S
H1272 C1278 0.930 . S
H1273 C1282 0.930 . S
H1274 C1287 0.929 . S
H1275 C1285 0.929 . S
H1276 C1280 0.929 . S
H1277 C1286 0.929 . S
C1278 H1272 0.930 . S
C1278 C1279 1.367 . S
C1278 C1286 1.378 . S
C1279 C1278 1.367 . S
C1279 C1287 1.433 . S
C1280 H1276 0.929 . S
C1280 C1282 1.378 . S
C1280 C1284 1.350 . S
C1281 C1284 1.463 . S
C1281 C1286 1.350 . S
C1281 N1289 1.427 . S
C1282 H1273 0.930 . S
C1282 C1280 1.378 . S
C1282 C1283 1.367 . S
C1283 C1282 1.367 . S
C1283 C1285 1.433 . S
C1284 C1280 1.350 . S
C1284 C1281 1.463 . S
C1284 N1288 1.427 . S
C1285 H1275 0.929 . S
C1285 C1283 1.433 . S
C1285 N1288 1.384 . S
C1286 H1277 0.929 . S
C1286 C1278 1.378 . S
C1286 C1281 1.350 . S
C1287 H1274 0.929 . S
C1287 C1279 1.433 . S
C1287 N1289 1.384 . S
N1288 C1284 1.427 . S
N1288 C1285 1.384 . S
N1289 C1281 1.427 . S
N1289 C1287 1.384 . S
H1290 C1296 0.930 . S
H1291 C1300 0.930 . S
H1292 C1305 0.929 . S
H1293 C1303 0.929 . S
H1294 C1298 0.929 . S
H1295 C1304 0.929 . S
C1296 H1290 0.930 . S
C1296 C1297 1.367 . S
C1296 C1304 1.378 . S
C1297 C1296 1.367 . S
C1297 C1305 1.433 . S
C1298 H1294 0.929 . S
C1298 C1300 1.378 . S
C1298 C1302 1.350 . S
C1299 C1302 1.463 . S
C1299 C1304 1.350 . S
C1299 N1307 1.427 . S
C1300 H1291 0.930 . S
C1300 C1298 1.378 . S
C1300 C1301 1.367 . S
C1301 C1300 1.367 . S
C1301 C1303 1.433 . S
C1302 C1298 1.350 . S
C1302 C1299 1.463 . S
C1302 N1306 1.427 . S
C1303 H1293 0.929 . S
C1303 C1301 1.433 . S
C1303 N1306 1.384 . S
C1304 H1295 0.929 . S
C1304 C1296 1.378 . S
C1304 C1299 1.350 . S
C1305 H1292 0.929 . S
C1305 C1297 1.433 . S
C1305 N1307 1.384 . S
N1306 C1302 1.427 . S
N1306 C1303 1.384 . S
N1307 C1299 1.427 . S
N1307 C1305 1.384 . S
H1308 C1314 0.930 . S
H1309 C1318 0.930 . S
H1310 C1323 0.929 . S
H1311 C1321 0.929 . S
H1312 C1316 0.929 . S
H1313 C1322 0.929 . S
C1314 H1308 0.930 . S
C1314 C1315 1.367 . S
C1314 C1322 1.378 . S
C1315 C1314 1.367 . S
C1315 C1323 1.433 . S
C1316 H1312 0.929 . S
C1316 C1318 1.378 . S
C1316 C1320 1.350 . S
C1317 C1320 1.463 . S
C1317 C1322 1.350 . S
C1317 N1325 1.427 . S
C1318 H1309 0.930 . S
C1318 C1316 1.378 . S
C1318 C1319 1.367 . S
C1319 C1318 1.367 . S
C1319 C1321 1.433 . S
C1320 C1316 1.350 . S
C1320 C1317 1.463 . S
C1320 N1324 1.427 . S
C1321 H1311 0.929 . S
C1321 C1319 1.433 . S
C1321 N1324 1.384 . S
C1322 H1313 0.929 . S
C1322 C1314 1.378 . S
C1322 C1317 1.350 . S
C1323 H1310 0.929 . S
C1323 C1315 1.433 . S
C1323 N1325 1.384 . S
N1324 C1320 1.427 . S
N1324 C1321 1.384 . S
N1325 C1317 1.427 . S
N1325 C1323 1.384 . S
H1326 C1332 0.930 . S
H1327 C1336 0.930 . S
H1328 C1341 0.929 . S
H1329 C1339 0.929 . S
H1330 C1334 0.929 . S
H1331 C1340 0.929 . S
C1332 H1326 0.930 . S
C1332 C1333 1.367 . S
C1332 C1340 1.378 . S
C1333 C1332 1.367 . S
C1333 C1341 1.433 . S
C1334 H1330 0.929 . S
C1334 C1336 1.378 . S
C1334 C1338 1.350 . S
C1335 C1338 1.463 . S
C1335 C1340 1.350 . S
C1335 N1343 1.427 . S
C1336 H1327 0.930 . S
C1336 C1334 1.378 . S
C1336 C1337 1.367 . S
C1337 C1336 1.367 . S
C1337 C1339 1.433 . S
C1338 C1334 1.350 . S
C1338 C1335 1.463 . S
C1338 N1342 1.427 . S
C1339 H1329 0.929 . S
C1339 C1337 1.433 . S
C1339 N1342 1.384 . S
C1340 H1331 0.929 . S
C1340 C1332 1.378 . S
C1340 C1335 1.350 . S
C1341 H1328 0.929 . S
C1341 C1333 1.433 . S
C1341 N1343 1.384 . S
N1342 C1338 1.427 . S
N1342 C1339 1.384 . S
N1343 C1335 1.427 . S
N1343 C1341 1.384 . S
H1344 C1350 0.930 . S
H1345 C1354 0.930 . S
H1346 C1359 0.929 . S
H1347 C1357 0.929 . S
H1348 C1352 0.929 . S
H1349 C1358 0.929 . S
C1350 H1344 0.930 . S
C1350 C1351 1.367 . S
C1350 C1358 1.378 . S
C1351 C1350 1.367 . S
C1351 C1359 1.433 . S
C1352 H1348 0.929 . S
C1352 C1354 1.378 . S
C1352 C1356 1.350 . S
C1353 C1356 1.463 1_655 S
C1353 C1358 1.350 . S
C1353 N1361 1.427 . S
C1354 H1345 0.930 . S
C1354 C1352 1.378 . S
C1354 C1355 1.367 . S
C1355 C1354 1.367 . S
C1355 C1357 1.433 . S
C1356 C1352 1.350 . S
C1356 C1353 1.463 1_455 S
C1356 N1360 1.427 . S
C1357 H1347 0.929 . S
C1357 C1355 1.433 . S
C1357 N1360 1.384 . S
C1358 H1349 0.929 . S
C1358 C1350 1.378 . S
C1358 C1353 1.350 . S
C1359 H1346 0.929 . S
C1359 C1351 1.433 . S
C1359 N1361 1.384 . S
N1360 C1356 1.427 . S
N1360 C1357 1.384 . S
N1361 C1353 1.427 . S
N1361 C1359 1.384 . S
H1362 C1368 0.930 . S
H1363 C1372 0.930 . S
H1364 C1377 0.929 . S
H1365 C1375 0.929 . S
H1366 C1370 0.929 . S
H1367 C1376 0.929 . S
C1368 H1362 0.930 . S
C1368 C1369 1.367 . S
C1368 C1376 1.378 . S
C1369 C1368 1.367 . S
C1369 C1377 1.433 1_655 S
C1370 H1366 0.929 . S
C1370 C1372 1.378 . S
C1370 C1374 1.385 . S
C1371 C1374 1.459 1_655 S
C1371 C1376 1.385 . S
C1371 N1379 1.394 1_655 S
C1372 H1363 0.930 . S
C1372 C1370 1.378 . S
C1372 C1373 1.367 . S
C1373 C1372 1.367 . S
C1373 C1375 1.433 1_455 S
C1374 C1370 1.385 . S
C1374 C1371 1.459 1_455 S
C1374 N1378 1.394 1_455 S
C1375 H1365 0.929 . S
C1375 C1373 1.433 1_655 S
C1375 N1378 1.384 . S
C1376 H1367 0.929 . S
C1376 C1368 1.378 . S
C1376 C1371 1.385 . S
C1377 H1364 0.929 . S
C1377 C1369 1.433 1_455 S
C1377 N1379 1.384 . S
N1378 C1374 1.394 1_655 S
N1378 C1375 1.384 . S
N1379 C1371 1.394 1_455 S
N1379 C1377 1.384 . S
H1380 C1386 0.930 . S
H1381 C1390 0.930 . S
H1382 C1395 0.929 . S
H1383 C1393 0.929 . S
H1384 C1388 0.929 . S
H1385 C1394 0.929 . S
C1386 H1380 0.930 . S
C1386 C1387 1.367 . S
C1386 C1394 1.378 . S
C1387 C1386 1.367 . S
C1387 C1395 1.433 . S
C1388 H1384 0.929 . S
C1388 C1390 1.378 . S
C1388 C1392 1.350 . S
C1389 C1392 1.463 . S
C1389 C1394 1.350 . S
C1389 N1397 1.427 . S
C1390 H1381 0.930 . S
C1390 C1388 1.378 . S
C1390 C1391 1.367 . S
C1391 C1390 1.367 . S
C1391 C1393 1.433 . S
C1392 C1388 1.350 . S
C1392 C1389 1.463 . S
C1392 N1396 1.427 . S
C1393 H1383 0.929 . S
C1393 C1391 1.433 . S
C1393 N1396 1.384 . S
C1394 H1385 0.929 . S
C1394 C1386 1.378 . S
C1394 C1389 1.350 . S
C1395 H1382 0.929 . S
C1395 C1387 1.433 . S
C1395 N1397 1.384 . S
N1396 C1392 1.427 . S
N1396 C1393 1.384 . S
N1397 C1389 1.427 . S
N1397 C1395 1.384 . S
H1398 C1404 0.930 . S
H1399 C1408 0.930 . S
H1400 C1413 0.929 . S
H1401 C1411 0.929 . S
H1402 C1406 0.929 . S
H1403 C1412 0.929 . S
C1404 H1398 0.930 . S
C1404 C1405 1.367 . S
C1404 C1412 1.378 . S
C1405 C1404 1.367 . S
C1405 C1413 1.433 1_556 S
C1406 H1402 0.929 . S
C1406 C1408 1.378 . S
C1406 C1410 1.350 1_554 S
C1407 C1410 1.463 . S
C1407 C1412 1.350 . S
C1407 N1415 1.427 1_556 S
C1408 H1399 0.930 . S
C1408 C1406 1.378 . S
C1408 C1409 1.367 1_554 S
C1409 C1408 1.367 1_556 S
C1409 C1411 1.433 . S
C1410 C1406 1.350 1_556 S
C1410 C1407 1.463 . S
C1410 N1414 1.427 . S
C1411 H1401 0.929 . S
C1411 C1409 1.433 . S
C1411 N1414 1.384 . S
C1412 H1403 0.929 . S
C1412 C1404 1.378 . S
C1412 C1407 1.350 . S
C1413 H1400 0.929 . S
C1413 C1405 1.433 1_554 S
C1413 N1415 1.384 . S
N1414 C1410 1.427 . S
N1414 C1411 1.384 . S
N1415 C1407 1.427 1_554 S
N1415 C1413 1.384 . S
H1416 C1422 0.930 . S
H1417 C1426 0.930 . S
H1418 C1431 0.929 . S
H1419 C1429 0.929 . S
H1420 C1424 0.929 . S
H1421 C1430 0.929 . S
C1422 H1416 0.930 . S
C1422 C1423 1.367 . S
C1422 C1430 1.378 . S
C1423 C1422 1.367 . S
C1423 C1431 1.433 . S
C1424 H1420 0.929 . S
C1424 C1426 1.378 . S
C1424 C1428 1.350 . S
C1425 C1428 1.463 1_655 S
C1425 C1430 1.350 . S
C1425 N1433 1.427 . S
C1426 H1417 0.930 . S
C1426 C1424 1.378 . S
C1426 C1427 1.367 . S
C1427 C1426 1.367 . S
C1427 C1429 1.433 . S
C1428 C1424 1.350 . S
C1428 C1425 1.463 1_455 S
C1428 N1432 1.427 . S
C1429 H1419 0.929 . S
C1429 C1427 1.433 . S
C1429 N1432 1.384 . S
C1430 H1421 0.929 . S
C1430 C1422 1.378 . S
C1430 C1425 1.350 . S
C1431 H1418 0.929 . S
C1431 C1423 1.433 . S
C1431 N1433 1.384 . S
N1432 C1428 1.427 . S
N1432 C1429 1.384 . S
N1433 C1425 1.427 . S
N1433 C1431 1.384 . S
H1434 C1440 0.930 . S
H1435 C1444 0.930 . S
H1436 C1449 0.929 . S
H1437 C1447 0.929 . S
H1438 C1442 0.929 . S
H1439 C1448 0.929 . S
C1440 H1434 0.930 . S
C1440 C1441 1.367 . S
C1440 C1448 1.378 . S
C1441 C1440 1.367 . S
C1441 C1449 1.433 . S
C1442 H1438 0.929 . S
C1442 C1444 1.378 . S
C1442 C1446 1.350 . S
C1443 C1446 1.463 . S
C1443 C1448 1.350 . S
C1443 N1451 1.427 . S
C1444 H1435 0.930 . S
C1444 C1442 1.378 . S
C1444 C1445 1.367 . S
C1445 C1444 1.367 . S
C1445 C1447 1.433 . S
C1446 C1442 1.350 . S
C1446 C1443 1.463 . S
C1446 N1450 1.427 . S
C1447 H1437 0.929 . S
C1447 C1445 1.433 . S
C1447 N1450 1.384 . S
C1448 H1439 0.929 . S
C1448 C1440 1.378 . S
C1448 C1443 1.350 . S
C1449 H1436 0.929 . S
C1449 C1441 1.433 . S
C1449 N1451 1.384 . S
N1450 C1446 1.427 . S
N1450 C1447 1.384 . S
N1451 C1443 1.427 . S
N1451 C1449 1.384 . S
H1452 C1458 0.930 . S
H1453 C1462 0.930 . S
H1454 C1467 0.929 . S
H1455 C1465 0.929 . S
H1456 C1460 0.929 . S
H1457 C1466 0.929 . S
C1458 H1452 0.930 . S
C1458 C1459 1.367 . S
C1458 C1466 1.378 . S
C1459 C1458 1.367 . S
C1459 C1467 1.433 . S
C1460 H1456 0.929 . S
C1460 C1462 1.378 . S
C1460 C1464 1.350 . S
C1461 C1464 1.463 . S
C1461 C1466 1.350 . S
C1461 N1469 1.427 . S
C1462 H1453 0.930 . S
C1462 C1460 1.378 . S
C1462 C1463 1.367 . S
C1463 C1462 1.367 . S
C1463 C1465 1.433 . S
C1464 C1460 1.350 . S
C1464 C1461 1.463 . S
C1464 N1468 1.427 . S
C1465 H1455 0.929 . S
C1465 C1463 1.433 . S
C1465 N1468 1.384 . S
C1466 H1457 0.929 . S
C1466 C1458 1.378 . S
C1466 C1461 1.350 . S
C1467 H1454 0.929 . S
C1467 C1459 1.433 . S
C1467 N1469 1.384 . S
N1468 C1464 1.427 . S
N1468 C1465 1.384 . S
N1469 C1461 1.427 . S
N1469 C1467 1.384 . S
H1470 C1476 0.930 . S
H1471 C1480 0.930 . S
H1472 C1485 0.929 . S
H1473 C1483 0.929 . S
H1474 C1478 0.929 . S
H1475 C1484 0.929 . S
C1476 H1470 0.930 . S
C1476 C1477 1.367 . S
C1476 C1484 1.378 . S
C1477 C1476 1.367 . S
C1477 C1485 1.433 1_454 S
C1478 H1474 0.929 . S
C1478 C1480 1.378 . S
C1478 C1482 1.373 1_556 S
C1479 C1482 1.460 1_455 S
C1479 C1484 1.373 . S
C1479 N1487 1.406 1_454 S
C1480 H1471 0.930 . S
C1480 C1478 1.378 . S
C1480 C1481 1.367 1_556 S
C1481 C1480 1.367 1_554 S
C1481 C1483 1.433 1_655 S
C1482 C1478 1.373 1_554 S
C1482 C1479 1.460 1_655 S
C1482 N1486 1.406 1_655 S
C1483 H1473 0.929 . S
C1483 C1481 1.433 1_455 S
C1483 N1486 1.384 . S
C1484 H1475 0.929 . S
C1484 C1476 1.378 . S
C1484 C1479 1.373 . S
C1485 H1472 0.929 . S
C1485 C1477 1.433 1_656 S
C1485 N1487 1.384 . S
N1486 C1482 1.406 1_455 S
N1486 C1483 1.384 . S
N1487 C1479 1.406 1_656 S
N1487 C1485 1.384 . S
H1488 C1494 0.930 . S
H1489 C1498 0.930 . S
H1490 C1503 0.929 . S
H1491 C1501 0.929 . S
H1492 C1496 0.929 . S
H1493 C1502 0.929 . S
C1494 H1488 0.930 . S
C1494 C1495 1.367 . S
C1494 C1502 1.378 . S
C1495 C1494 1.367 . S
C1495 C1503 1.433 . S
C1496 H1492 0.929 . S
C1496 C1498 1.378 . S
C1496 C1500 1.350 . S
C1497 C1500 1.463 1_655 S
C1497 C1502 1.350 . S
C1497 N1505 1.427 . S
C1498 H1489 0.930 . S
C1498 C1496 1.378 . S
C1498 C1499 1.367 . S
C1499 C1498 1.367 . S
C1499 C1501 1.433 . S
C1500 C1496 1.350 . S
C1500 C1497 1.463 1_455 S
C1500 N1504 1.427 . S
C1501 H1491 0.929 . S
C1501 C1499 1.433 . S
C1501 N1504 1.384 . S
C1502 H1493 0.929 . S
C1502 C1494 1.378 . S
C1502 C1497 1.350 . S
C1503 H1490 0.929 . S
C1503 C1495 1.433 . S
C1503 N1505 1.384 . S
N1504 C1500 1.427 . S
N1504 C1501 1.384 . S
N1505 C1497 1.427 . S
N1505 C1503 1.384 . S
H1506 C1512 0.930 . S
H1507 C1516 0.930 . S
H1508 C1521 0.929 . S
H1509 C1519 0.929 . S
H1510 C1514 0.929 . S
H1511 C1520 0.929 . S
C1512 H1506 0.930 . S
C1512 C1513 1.367 . S
C1512 C1520 1.378 . S
C1513 C1512 1.367 . S
C1513 C1521 1.433 1_455 S
C1514 H1510 0.929 . S
C1514 C1516 1.378 . S
C1514 C1518 1.363 . S
C1515 C1518 1.461 1_455 S
C1515 C1520 1.363 . S
C1515 N1523 1.415 1_455 S
C1516 H1507 0.930 . S
C1516 C1514 1.378 . S
C1516 C1517 1.367 . S
C1517 C1516 1.367 . S
C1517 C1519 1.433 1_655 S
C1518 C1514 1.363 . S
C1518 C1515 1.461 1_655 S
C1518 N1522 1.415 1_655 S
C1519 H1509 0.929 . S
C1519 C1517 1.433 1_455 S
C1519 N1522 1.384 . S
C1520 H1511 0.929 . S
C1520 C1512 1.378 . S
C1520 C1515 1.363 . S
C1521 H1508 0.929 . S
C1521 C1513 1.433 1_655 S
C1521 N1523 1.384 . S
N1522 C1518 1.415 1_455 S
N1522 C1519 1.384 . S
N1523 C1515 1.415 1_655 S
N1523 C1521 1.384 . S
H1524 C1530 0.930 . S
H1525 C1534 0.930 . S
H1526 C1539 0.929 . S
H1527 C1537 0.929 . S
H1528 C1532 0.929 . S
H1529 C1538 0.929 . S
C1530 H1524 0.930 . S
C1530 C1531 1.367 . S
C1530 C1538 1.378 . S
C1531 C1530 1.367 . S
C1531 C1539 1.433 . S
C1532 H1528 0.929 . S
C1532 C1534 1.378 . S
C1532 C1536 1.350 . S
C1533 C1536 1.463 . S
C1533 C1538 1.350 . S
C1533 N1541 1.427 . S
C1534 H1525 0.930 . S
C1534 C1532 1.378 . S
C1534 C1535 1.367 . S
C1535 C1534 1.367 . S
C1535 C1537 1.433 . S
C1536 C1532 1.350 . S
C1536 C1533 1.463 . S
C1536 N1540 1.427 . S
C1537 H1527 0.929 . S
C1537 C1535 1.433 . S
C1537 N1540 1.384 . S
C1538 H1529 0.929 . S
C1538 C1530 1.378 . S
C1538 C1533 1.350 . S
C1539 H1526 0.929 . S
C1539 C1531 1.433 . S
C1539 N1541 1.384 . S
N1540 C1536 1.427 . S
N1540 C1537 1.384 . S
N1541 C1533 1.427 . S
N1541 C1539 1.384 . S
H1542 C1548 0.930 . S
H1543 C1552 0.930 . S
H1544 C1557 0.929 . S
H1545 C1555 0.929 . S
H1546 C1550 0.929 . S
H1547 C1556 0.929 . S
C1548 H1542 0.930 . S
C1548 C1549 1.367 1_556 S
C1548 C1556 1.378 . S
C1549 C1548 1.367 1_554 S
C1549 C1557 1.433 . S
C1550 H1546 0.929 . S
C1550 C1552 1.378 . S
C1550 C1554 1.350 . S
C1551 C1554 1.463 . S
C1551 C1556 1.350 1_554 S
C1551 N1559 1.427 . S
C1552 H1543 0.930 . S
C1552 C1550 1.378 . S
C1552 C1553 1.367 . S
C1553 C1552 1.367 . S
C1553 C1555 1.433 1_554 S
C1554 C1550 1.350 . S
C1554 C1551 1.463 . S
C1554 N1558 1.427 1_554 S
C1555 H1545 0.929 . S
C1555 C1553 1.433 1_556 S
C1555 N1558 1.384 . S
C1556 H1547 0.929 . S
C1556 C1548 1.378 . S
C1556 C1551 1.350 1_556 S
C1557 H1544 0.929 . S
C1557 C1549 1.433 . S
C1557 N1559 1.384 . S
N1558 C1554 1.427 1_556 S
N1558 C1555 1.384 . S
N1559 C1551 1.427 . S
N1559 C1557 1.384 . S
H1560 C1566 0.930 . S
H1561 C1570 0.930 . S
H1562 C1575 0.929 . S
H1563 C1573 0.929 . S
H1564 C1568 0.929 . S
H1565 C1574 0.929 . S
C1566 H1560 0.930 . S
C1566 C1567 1.367 . S
C1566 C1574 1.378 . S
C1567 C1566 1.367 . S
C1567 C1575 1.433 . S
C1568 H1564 0.929 . S
C1568 C1570 1.378 . S
C1568 C1572 1.350 . S
C1569 C1572 1.463 1_655 S
C1569 C1574 1.350 . S
C1569 N1577 1.427 . S
C1570 H1561 0.930 . S
C1570 C1568 1.378 . S
C1570 C1571 1.367 . S
C1571 C1570 1.367 . S
C1571 C1573 1.433 . S
C1572 C1568 1.350 . S
C1572 C1569 1.463 1_455 S
C1572 N1576 1.427 . S
C1573 H1563 0.929 . S
C1573 C1571 1.433 . S
C1573 N1576 1.384 . S
C1574 H1565 0.929 . S
C1574 C1566 1.378 . S
C1574 C1569 1.350 . S
C1575 H1562 0.929 . S
C1575 C1567 1.433 . S
C1575 N1577 1.384 . S
N1576 C1572 1.427 . S
N1576 C1573 1.384 . S
N1577 C1569 1.427 . S
N1577 C1575 1.384 . S
H1578 C1584 0.930 . S
H1579 C1588 0.930 . S
H1580 C1593 0.929 . S
H1581 C1591 0.929 . S
H1582 C1586 0.929 . S
H1583 C1592 0.929 . S
C1584 H1578 0.930 . S
C1584 C1585 1.367 . S
C1584 C1592 1.378 . S
C1585 C1584 1.367 . S
C1585 C1593 1.433 . S
C1586 H1582 0.929 . S
C1586 C1588 1.378 . S
C1586 C1590 1.350 . S
C1587 C1590 1.463 . S
C1587 C1592 1.350 . S
C1587 N1595 1.427 . S
C1588 H1579 0.930 . S
C1588 C1586 1.378 . S
C1588 C1589 1.367 . S
C1589 C1588 1.367 . S
C1589 C1591 1.433 . S
C1590 C1586 1.350 . S
C1590 C1587 1.463 . S
C1590 N1594 1.427 . S
C1591 H1581 0.929 . S
C1591 C1589 1.433 . S
C1591 N1594 1.384 . S
C1592 H1583 0.929 . S
C1592 C1584 1.378 . S
C1592 C1587 1.350 . S
C1593 H1580 0.929 . S
C1593 C1585 1.433 . S
C1593 N1595 1.384 . S
N1594 C1590 1.427 . S
N1594 C1591 1.384 . S
N1595 C1587 1.427 . S
N1595 C1593 1.384 . S
H1596 C1602 0.930 . S
H1597 C1606 0.930 . S
H1598 C1611 0.929 . S
H1599 C1609 0.929 . S
H1600 C1604 0.929 . S
H1601 C1610 0.929 . S
C1602 H1596 0.930 . S
C1602 C1603 1.367 . S
C1602 C1610 1.378 . S
C1603 C1602 1.367 . S
C1603 C1611 1.433 . S
C1604 H1600 0.929 . S
C1604 C1606 1.378 . S
C1604 C1608 1.350 . S
C1605 C1608 1.463 . S
C1605 C1610 1.350 . S
C1605 N1613 1.427 . S
C1606 H1597 0.930 . S
C1606 C1604 1.378 . S
C1606 C1607 1.367 . S
C1607 C1606 1.367 . S
C1607 C1609 1.433 . S
C1608 C1604 1.350 . S
C1608 C1605 1.463 . S
C1608 N1612 1.427 . S
C1609 H1599 0.929 . S
C1609 C1607 1.433 . S
C1609 N1612 1.384 . S
C1610 H1601 0.929 . S
C1610 C1602 1.378 . S
C1610 C1605 1.350 . S
C1611 H1598 0.929 . S
C1611 C1603 1.433 . S
C1611 N1613 1.384 . S
N1612 C1608 1.427 . S
N1612 C1609 1.384 . S
N1613 C1605 1.427 . S
N1613 C1611 1.384 . S
H1614 C1620 0.930 . S
H1615 C1624 0.930 . S
H1616 C1629 0.929 . S
H1617 C1627 0.929 . S
H1618 C1622 0.928 . S
H1619 C1628 0.928 . S
C1620 H1614 0.930 . S
C1620 C1621 1.367 1_554 S
C1620 C1628 1.378 . S
C1621 C1620 1.367 1_556 S
C1621 C1629 1.433 . S
C1622 H1618 0.928 . S
C1622 C1624 1.378 . S
C1622 C1626 1.350 . S
C1623 C1626 1.462 1_455 S
C1623 C1628 1.350 1_556 S
C1623 N1631 1.427 . S
C1624 H1615 0.930 . S
C1624 C1622 1.378 . S
C1624 C1625 1.367 . S
C1625 C1624 1.367 . S
C1625 C1627 1.433 1_556 S
C1626 C1622 1.350 . S
C1626 C1623 1.462 1_655 S
C1626 N1630 1.427 1_556 S
C1627 H1617 0.929 . S
C1627 C1625 1.433 1_554 S
C1627 N1630 1.386 . S
C1628 H1619 0.928 . S
C1628 C1620 1.378 . S
C1628 C1623 1.350 1_554 S
C1629 H1616 0.929 . S
C1629 C1621 1.433 . S
C1629 N1631 1.386 . S
N1630 C1626 1.427 1_554 S
N1630 C1627 1.386 . S
N1631 C1623 1.427 . S
N1631 C1629 1.386 . S
H1632 C1638 0.930 . S
H1633 C1642 0.930 . S
H1634 C1647 0.929 . S
H1635 C1645 0.929 . S
H1636 C1640 0.929 . S
H1637 C1646 0.929 . S
C1638 H1632 0.930 . S
C1638 C1639 1.367 . S
C1638 C1646 1.378 . S
C1639 C1638 1.367 . S
C1639 C1647 1.433 . S
C1640 H1636 0.929 . S
C1640 C1642 1.378 . S
C1640 C1644 1.350 . S
C1641 C1644 1.463 . S
C1641 C1646 1.350 . S
C1641 N1649 1.427 . S
C1642 H1633 0.930 . S
C1642 C1640 1.378 . S
C1642 C1643 1.367 . S
C1643 C1642 1.367 . S
C1643 C1645 1.433 . S
C1644 C1640 1.350 . S
C1644 C1641 1.463 . S
C1644 N1648 1.427 . S
C1645 H1635 0.929 . S
C1645 C1643 1.433 . S
C1645 N1648 1.384 . S
C1646 H1637 0.929 . S
C1646 C1638 1.378 . S
C1646 C1641 1.350 . S
C1647 H1634 0.929 . S
C1647 C1639 1.433 . S
C1647 N1649 1.384 . S
N1648 C1644 1.427 . S
N1648 C1645 1.384 . S
N1649 C1641 1.427 . S
N1649 C1647 1.384 . S
H1650 C1656 0.930 . S
H1651 C1660 0.930 . S
H1652 C1665 0.929 . S
H1653 C1663 0.906 1_455 S
H1654 C1658 0.929 . S
H1655 C1664 0.929 . S
C1656 H1650 0.930 . S
C1656 C1657 1.367 . S
C1656 C1664 1.378 . S
C1657 C1656 1.367 . S
C1657 C1665 1.433 . S
C1658 H1654 0.929 . S
C1658 C1660 1.378 . S
C1658 C1662 1.350 . S
C1659 C1662 1.463 . S
C1659 C1664 1.350 . S
C1659 N1667 1.427 . S
C1660 H1651 0.930 . S
C1660 C1658 1.378 . S
C1660 C1661 1.367 . S
C1661 C1660 1.367 . S
C1661 C1663 1.433 . S
C1662 C1658 1.350 . S
C1662 C1659 1.463 . S
C1662 N1666 1.427 . S
C1663 H1653 0.906 1_655 S
C1663 C1661 1.433 . S
C1663 N1666 1.384 . S
C1664 H1655 0.929 . S
C1664 C1656 1.378 . S
C1664 C1659 1.350 . S
C1665 H1652 0.929 . S
C1665 C1657 1.433 . S
C1665 N1667 1.384 . S
N1666 C1662 1.427 . S
N1666 C1663 1.384 . S
N1667 C1659 1.427 . S
N1667 C1665 1.384 . S
H1668 C1674 0.930 . S
H1669 C1678 0.930 . S
H1670 C1683 0.929 . S
H1671 C1681 0.929 . S
H1672 C1676 0.929 . S
H1673 C1682 0.929 . S
C1674 H1668 0.930 . S
C1674 C1675 1.367 . S
C1674 C1682 1.378 . S
C1675 C1674 1.367 . S
C1675 C1683 1.433 . S
C1676 H1672 0.929 . S
C1676 C1678 1.378 . S
C1676 C1680 1.350 . S
C1677 C1680 1.463 . S
C1677 C1682 1.350 . S
C1677 N1685 1.427 . S
C1678 H1669 0.930 . S
C1678 C1676 1.378 . S
C1678 C1679 1.367 . S
C1679 C1678 1.367 . S
C1679 C1681 1.433 . S
C1680 C1676 1.350 . S
C1680 C1677 1.463 . S
C1680 N1684 1.427 . S
C1681 H1671 0.929 . S
C1681 C1679 1.433 . S
C1681 N1684 1.384 . S
C1682 H1673 0.929 . S
C1682 C1674 1.378 . S
C1682 C1677 1.350 . S
C1683 H1670 0.929 . S
C1683 C1675 1.433 . S
C1683 N1685 1.384 . S
N1684 C1680 1.427 . S
N1684 C1681 1.384 . S
N1685 C1677 1.427 . S
N1685 C1683 1.384 . S
H1686 C1692 0.930 . S
H1687 C1696 0.930 . S
H1688 C1701 0.929 . S
H1689 C1699 0.929 . S
H1690 C1694 0.929 . S
H1691 C1700 0.929 . S
C1692 H1686 0.930 . S
C1692 C1693 1.367 . S
C1692 C1700 1.378 . S
C1693 C1692 1.367 . S
C1693 C1701 1.433 . S
C1694 H1690 0.929 . S
C1694 C1696 1.378 . S
C1694 C1698 1.350 . S
C1695 C1698 1.463 . S
C1695 C1700 1.350 . S
C1695 N1703 1.427 . S
C1696 H1687 0.930 . S
C1696 C1694 1.378 . S
C1696 C1697 1.367 . S
C1697 C1696 1.367 . S
C1697 C1699 1.433 . S
C1698 C1694 1.350 . S
C1698 C1695 1.463 . S
C1698 N1702 1.427 . S
C1699 H1689 0.929 . S
C1699 C1697 1.433 . S
C1699 N1702 1.384 . S
C1700 H1691 0.929 . S
C1700 C1692 1.378 . S
C1700 C1695 1.350 . S
C1701 H1688 0.929 . S
C1701 C1693 1.433 . S
C1701 N1703 1.384 . S
N1702 C1698 1.427 . S
N1702 C1699 1.384 . S
N1703 C1695 1.427 . S
N1703 C1701 1.384 . S
H1704 C1710 0.930 . S
H1705 C1714 0.930 . S
H1706 C1719 0.929 . S
H1707 C1717 0.929 . S
H1708 C1712 0.929 . S
H1709 C1718 0.929 . S
C1710 H1704 0.930 . S
C1710 C1711 1.367 . S
C1710 C1718 1.378 . S
C1711 C1710 1.367 . S
C1711 C1719 1.433 . S
C1712 H1708 0.929 . S
C1712 C1714 1.378 . S
C1712 C1716 1.350 . S
C1713 C1716 1.463 . S
C1713 C1718 1.350 . S
C1713 N1721 1.427 . S
C1714 H1705 0.930 . S
C1714 C1712 1.378 . S
C1714 C1715 1.367 . S
C1715 C1714 1.367 . S
C1715 C1717 1.433 . S
C1716 C1712 1.350 . S
C1716 C1713 1.463 . S
C1716 N1720 1.427 . S
C1717 H1707 0.929 . S
C1717 C1715 1.433 . S
C1717 N1720 1.384 . S
C1718 H1709 0.929 . S
C1718 C1710 1.378 . S
C1718 C1713 1.350 . S
C1719 H1706 0.929 . S
C1719 C1711 1.433 . S
C1719 N1721 1.384 . S
N1720 C1716 1.427 . S
N1720 C1717 1.384 . S
N1721 C1713 1.427 . S
N1721 C1719 1.384 . S
H1722 C1728 0.930 . S
H1723 C1732 0.930 . S
H1724 C1737 0.929 . S
H1725 C1735 0.929 . S
H1726 C1730 0.929 . S
H1727 C1736 0.929 . S
C1728 H1722 0.930 . S
C1728 C1729 1.367 . S
C1728 C1736 1.378 . S
C1729 C1728 1.367 . S
C1729 C1737 1.433 . S
C1730 H1726 0.929 . S
C1730 C1732 1.378 . S
C1730 C1734 1.350 . S
C1731 C1734 1.463 . S
C1731 C1736 1.350 . S
C1731 N1739 1.427 . S
C1732 H1723 0.930 . S
C1732 C1730 1.378 . S
C1732 C1733 1.367 . S
C1733 C1732 1.367 . S
C1733 C1735 1.433 . S
C1734 C1730 1.350 . S
C1734 C1731 1.463 . S
C1734 N1738 1.427 . S
C1735 H1725 0.929 . S
C1735 C1733 1.433 . S
C1735 N1738 1.384 . S
C1736 H1727 0.929 . S
C1736 C1728 1.378 . S
C1736 C1731 1.350 . S
C1737 H1724 0.929 . S
C1737 C1729 1.433 . S
C1737 N1739 1.384 . S
N1738 C1734 1.427 . S
N1738 C1735 1.384 . S
N1739 C1731 1.427 . S
N1739 C1737 1.384 . S
H1740 C1746 0.930 . S
H1741 C1750 0.930 . S
H1742 C1755 0.929 . S
H1743 C1753 0.929 . S
H1744 C1748 0.929 . S
H1745 C1754 0.929 . S
C1746 H1740 0.930 . S
C1746 C1747 1.367 . S
C1746 C1754 1.378 . S
C1747 C1746 1.367 . S
C1747 C1755 1.433 . S
C1748 H1744 0.929 . S
C1748 C1750 1.378 . S
C1748 C1752 1.350 . S
C1749 C1752 1.463 . S
C1749 C1754 1.350 . S
C1749 N1757 1.427 . S
C1750 H1741 0.930 . S
C1750 C1748 1.378 . S
C1750 C1751 1.367 . S
C1751 C1750 1.367 . S
C1751 C1753 1.433 . S
C1752 C1748 1.350 . S
C1752 C1749 1.463 . S
C1752 N1756 1.427 . S
C1753 H1743 0.929 . S
C1753 C1751 1.433 . S
C1753 N1756 1.384 . S
C1754 H1745 0.929 . S
C1754 C1746 1.378 . S
C1754 C1749 1.350 . S
C1755 H1742 0.929 . S
C1755 C1747 1.433 . S
C1755 N1757 1.384 . S
N1756 C1752 1.427 . S
N1756 C1753 1.384 . S
N1757 C1749 1.427 . S
N1757 C1755 1.384 . S
H1758 C1764 0.930 . S
H1759 C1768 0.930 . S
H1760 C1773 0.901 1_455 S
H1761 C1771 0.929 . S
H1762 C1766 0.929 . S
H1763 C1772 0.929 . S
C1764 H1758 0.930 . S
C1764 C1765 1.367 . S
C1764 C1772 1.378 . S
C1765 C1764 1.367 . S
C1765 C1773 1.433 . S
C1766 H1762 0.929 . S
C1766 C1768 1.378 . S
C1766 C1770 1.350 . S
C1767 C1770 1.463 . S
C1767 C1772 1.350 . S
C1767 N1775 1.427 . S
C1768 H1759 0.930 . S
C1768 C1766 1.378 . S
C1768 C1769 1.367 . S
C1769 C1768 1.367 . S
C1769 C1771 1.433 . S
C1770 C1766 1.350 . S
C1770 C1767 1.463 . S
C1770 N1774 1.427 . S
C1771 H1761 0.929 . S
C1771 C1769 1.433 . S
C1771 N1774 1.384 . S
C1772 H1763 0.929 . S
C1772 C1764 1.378 . S
C1772 C1767 1.350 . S
C1773 H1760 0.901 1_655 S
C1773 C1765 1.433 . S
C1773 N1775 1.384 . S
N1774 C1770 1.427 . S
N1774 C1771 1.384 . S
N1775 C1767 1.427 . S
N1775 C1773 1.384 . S
H1776 C1782 0.930 . S
H1777 C1786 0.930 . S
H1778 C1791 0.929 . S
H1779 C1789 0.929 . S
H1780 C1784 0.929 . S
H1781 C1790 0.929 . S
C1782 H1776 0.930 . S
C1782 C1783 1.367 . S
C1782 C1790 1.378 . S
C1783 C1782 1.367 . S
C1783 C1791 1.433 . S
C1784 H1780 0.929 . S
C1784 C1786 1.378 . S
C1784 C1788 1.350 . S
C1785 C1788 1.463 . S
C1785 C1790 1.350 . S
C1785 N1793 1.427 . S
C1786 H1777 0.930 . S
C1786 C1784 1.378 . S
C1786 C1787 1.367 . S
C1787 C1786 1.367 . S
C1787 C1789 1.433 . S
C1788 C1784 1.350 . S
C1788 C1785 1.463 . S
C1788 N1792 1.427 . S
C1789 H1779 0.929 . S
C1789 C1787 1.433 . S
C1789 N1792 1.384 . S
C1790 H1781 0.929 . S
C1790 C1782 1.378 . S
C1790 C1785 1.350 . S
C1791 H1778 0.929 . S
C1791 C1783 1.433 . S
C1791 N1793 1.384 . S
N1792 C1788 1.427 . S
N1792 C1789 1.384 . S
N1793 C1785 1.427 . S
N1793 C1791 1.384 . S
H1794 C1800 0.930 1_655 S
H1795 C1804 0.930 . S
H1796 C1809 0.929 . S
H1797 C1807 0.929 . S
H1798 C1802 0.929 . S
H1799 C1808 0.929 . S
C1800 H1794 0.930 1_455 S
C1800 C1801 1.367 . S
C1800 C1808 1.378 . S
C1801 C1800 1.367 . S
C1801 C1809 1.433 . S
C1802 H1798 0.929 . S
C1802 C1804 1.378 . S
C1802 C1806 1.350 . S
C1803 C1806 1.463 . S
C1803 C1808 1.350 . S
C1803 N1811 1.427 . S
C1804 H1795 0.930 . S
C1804 C1802 1.378 . S
C1804 C1805 1.367 . S
C1805 C1804 1.367 . S
C1805 C1807 1.433 . S
C1806 C1802 1.350 . S
C1806 C1803 1.463 . S
C1806 N1810 1.427 . S
C1807 H1797 0.929 . S
C1807 C1805 1.433 . S
C1807 N1810 1.384 . S
C1808 H1799 0.929 . S
C1808 C1800 1.378 . S
C1808 C1803 1.350 . S
C1809 H1796 0.929 . S
C1809 C1801 1.433 . S
C1809 N1811 1.384 . S
N1810 C1806 1.427 . S
N1810 C1807 1.384 . S
N1811 C1803 1.427 . S
N1811 C1809 1.384 . S
H1812 C1818 0.930 . S
H1813 C1822 0.930 . S
H1814 C1827 0.929 . S
H1815 C1825 0.929 . S
H1816 C1820 0.929 . S
H1817 C1826 0.929 . S
C1818 H1812 0.930 . S
C1818 C1819 1.367 . S
C1818 C1826 1.378 . S
C1819 C1818 1.367 . S
C1819 C1827 1.433 . S
C1820 H1816 0.929 . S
C1820 C1822 1.378 . S
C1820 C1824 1.350 . S
C1821 C1824 1.463 . S
C1821 C1826 1.350 . S
C1821 N1829 1.427 . S
C1822 H1813 0.930 . S
C1822 C1820 1.378 . S
C1822 C1823 1.367 . S
C1823 C1822 1.367 . S
C1823 C1825 1.433 . S
C1824 C1820 1.350 . S
C1824 C1821 1.463 . S
C1824 N1828 1.427 . S
C1825 H1815 0.929 . S
C1825 C1823 1.433 . S
C1825 N1828 1.384 . S
C1826 H1817 0.929 . S
C1826 C1818 1.378 . S
C1826 C1821 1.350 . S
C1827 H1814 0.929 . S
C1827 C1819 1.433 . S
C1827 N1829 1.384 . S
N1828 C1824 1.427 . S
N1828 C1825 1.384 . S
N1829 C1821 1.427 . S
N1829 C1827 1.384 . S
H1830 C1836 0.930 . S
H1831 C1840 0.930 . S
H1832 C1845 0.929 . S
H1833 C1843 0.929 . S
H1834 C1838 0.929 . S
H1835 C1844 0.929 . S
C1836 H1830 0.930 . S
C1836 C1837 1.367 . S
C1836 C1844 1.378 . S
C1837 C1836 1.367 . S
C1837 C1845 1.433 . S
C1838 H1834 0.929 . S
C1838 C1840 1.378 . S
C1838 C1842 1.350 . S
C1839 C1842 1.463 . S
C1839 C1844 1.350 . S
C1839 N1847 1.427 . S
C1840 H1831 0.930 . S
C1840 C1838 1.378 . S
C1840 C1841 1.367 . S
C1841 C1840 1.367 . S
C1841 C1843 1.433 . S
C1842 C1838 1.350 . S
C1842 C1839 1.463 . S
C1842 N1846 1.427 . S
C1843 H1833 0.929 . S
C1843 C1841 1.433 . S
C1843 N1846 1.384 . S
C1844 H1835 0.929 . S
C1844 C1836 1.378 . S
C1844 C1839 1.350 . S
C1845 H1832 0.929 . S
C1845 C1837 1.433 . S
C1845 N1847 1.384 . S
N1846 C1842 1.427 . S
N1846 C1843 1.384 . S
N1847 C1839 1.427 . S
N1847 C1845 1.384 . S
H1848 C1854 0.930 . S
H1849 C1858 0.930 . S
H1850 C1863 0.929 . S
H1851 C1861 0.929 . S
H1852 C1856 0.929 . S
H1853 C1862 0.929 . S
C1854 H1848 0.930 . S
C1854 C1855 1.367 . S
C1854 C1862 1.378 . S
C1855 C1854 1.367 . S
C1855 C1863 1.433 . S
C1856 H1852 0.929 . S
C1856 C1858 1.378 . S
C1856 C1860 1.350 . S
C1857 C1860 1.463 . S
C1857 C1862 1.350 . S
C1857 N1865 1.427 . S
C1858 H1849 0.930 . S
C1858 C1856 1.378 . S
C1858 C1859 1.367 . S
C1859 C1858 1.367 . S
C1859 C1861 1.433 . S
C1860 C1856 1.350 . S
C1860 C1857 1.463 . S
C1860 N1864 1.427 . S
C1861 H1851 0.929 . S
C1861 C1859 1.433 . S
C1861 N1864 1.384 . S
C1862 H1853 0.929 . S
C1862 C1854 1.378 . S
C1862 C1857 1.350 . S
C1863 H1850 0.929 . S
C1863 C1855 1.433 . S
C1863 N1865 1.384 . S
N1864 C1860 1.427 . S
N1864 C1861 1.384 . S
N1865 C1857 1.427 . S
N1865 C1863 1.384 . S
H1866 C1872 0.930 . S
H1867 C1876 0.930 . S
H1868 C1881 0.929 . S
H1869 C1879 0.929 . S
H1870 C1874 0.929 . S
H1871 C1880 0.929 . S
C1872 H1866 0.930 . S
C1872 C1873 1.367 . S
C1872 C1880 1.378 . S
C1873 C1872 1.367 . S
C1873 C1881 1.433 . S
C1874 H1870 0.929 . S
C1874 C1876 1.378 . S
C1874 C1878 1.350 . S
C1875 C1878 1.463 . S
C1875 C1880 1.350 . S
C1875 N1883 1.427 . S
C1876 H1867 0.930 . S
C1876 C1874 1.378 . S
C1876 C1877 1.367 . S
C1877 C1876 1.367 . S
C1877 C1879 1.433 . S
C1878 C1874 1.350 . S
C1878 C1875 1.463 . S
C1878 N1882 1.427 . S
C1879 H1869 0.929 . S
C1879 C1877 1.433 . S
C1879 N1882 1.384 . S
C1880 H1871 0.929 . S
C1880 C1872 1.378 . S
C1880 C1875 1.350 . S
C1881 H1868 0.929 . S
C1881 C1873 1.433 . S
C1881 N1883 1.384 . S
N1882 C1878 1.427 . S
N1882 C1879 1.384 . S
N1883 C1875 1.427 . S
N1883 C1881 1.384 . S
H1884 C1890 0.930 . S
H1885 C1894 0.930 . S
H1886 C1899 0.929 . S
H1887 C1897 0.929 . S
H1888 C1892 0.929 . S
H1889 C1898 0.929 . S
C1890 H1884 0.930 . S
C1890 C1891 1.367 . S
C1890 C1898 1.378 . S
C1891 C1890 1.367 . S
C1891 C1899 1.433 . S
C1892 H1888 0.929 . S
C1892 C1894 1.378 . S
C1892 C1896 1.350 . S
C1893 C1896 1.463 . S
C1893 C1898 1.350 . S
C1893 N1901 1.427 . S
C1894 H1885 0.930 . S
C1894 C1892 1.378 . S
C1894 C1895 1.367 . S
C1895 C1894 1.367 . S
C1895 C1897 1.433 . S
C1896 C1892 1.350 . S
C1896 C1893 1.463 . S
C1896 N1900 1.427 . S
C1897 H1887 0.929 . S
C1897 C1895 1.433 . S
C1897 N1900 1.384 . S
C1898 H1889 0.929 . S
C1898 C1890 1.378 . S
C1898 C1893 1.350 . S
C1899 H1886 0.929 . S
C1899 C1891 1.433 . S
C1899 N1901 1.384 . S
N1900 C1896 1.427 . S
N1900 C1897 1.384 . S
N1901 C1893 1.427 . S
N1901 C1899 1.384 . S
H1902 C1908 0.930 . S
H1903 C1912 0.930 1_655 S
H1904 C1917 0.929 . S
H1905 C1915 0.929 . S
H1906 C1910 0.929 . S
H1907 C1916 0.929 . S
C1908 H1902 0.930 . S
C1908 C1909 1.367 . S
C1908 C1916 1.378 . S
C1909 C1908 1.367 . S
C1909 C1917 1.433 . S
C1910 H1906 0.929 . S
C1910 C1912 1.378 . S
C1910 C1914 1.350 . S
C1911 C1914 1.463 . S
C1911 C1916 1.350 . S
C1911 N1919 1.427 . S
C1912 H1903 0.930 1_455 S
C1912 C1910 1.378 . S
C1912 C1913 1.367 . S
C1913 C1912 1.367 . S
C1913 C1915 1.433 . S
C1914 C1910 1.350 . S
C1914 C1911 1.463 . S
C1914 N1918 1.427 . S
C1915 H1905 0.929 . S
C1915 C1913 1.433 . S
C1915 N1918 1.384 . S
C1916 H1907 0.929 . S
C1916 C1908 1.378 . S
C1916 C1911 1.350 . S
C1917 H1904 0.929 . S
C1917 C1909 1.433 . S
C1917 N1919 1.384 . S
N1918 C1914 1.427 . S
N1918 C1915 1.384 . S
N1919 C1911 1.427 . S
N1919 C1917 1.384 . S
H1920 C1926 0.930 . S
H1921 C1930 0.930 . S
H1922 C1935 0.929 . S
H1923 C1933 0.929 . S
H1924 C1928 0.929 . S
H1925 C1934 0.929 . S
C1926 H1920 0.930 . S
C1926 C1927 1.367 . S
C1926 C1934 1.378 . S
C1927 C1926 1.367 . S
C1927 C1935 1.433 . S
C1928 H1924 0.929 . S
C1928 C1930 1.378 . S
C1928 C1932 1.350 . S
C1929 C1932 1.463 . S
C1929 C1934 1.350 . S
C1929 N1937 1.427 . S
C1930 H1921 0.930 . S
C1930 C1928 1.378 . S
C1930 C1931 1.367 . S
C1931 C1930 1.367 . S
C1931 C1933 1.433 . S
C1932 C1928 1.350 . S
C1932 C1929 1.463 . S
C1932 N1936 1.427 . S
C1933 H1923 0.929 . S
C1933 C1931 1.433 . S
C1933 N1936 1.384 . S
C1934 H1925 0.929 . S
C1934 C1926 1.378 . S
C1934 C1929 1.350 . S
C1935 H1922 0.929 . S
C1935 C1927 1.433 . S
C1935 N1937 1.384 . S
N1936 C1932 1.427 . S
N1936 C1933 1.384 . S
N1937 C1929 1.427 . S
N1937 C1935 1.384 . S
H1938 C1944 0.930 . S
H1939 C1948 0.930 . S
H1940 C1953 0.929 . S
H1941 C1951 0.929 . S
H1942 C1946 0.929 . S
H1943 C1952 0.929 . S
C1944 H1938 0.930 . S
C1944 C1945 1.367 . S
C1944 C1952 1.378 . S
C1945 C1944 1.367 . S
C1945 C1953 1.433 . S
C1946 H1942 0.929 . S
C1946 C1948 1.378 . S
C1946 C1950 1.350 . S
C1947 C1950 1.463 . S
C1947 C1952 1.350 . S
C1947 N1955 1.427 . S
C1948 H1939 0.930 . S
C1948 C1946 1.378 . S
C1948 C1949 1.367 . S
C1949 C1948 1.367 . S
C1949 C1951 1.433 . S
C1950 C1946 1.350 . S
C1950 C1947 1.463 . S
C1950 N1954 1.427 . S
C1951 H1941 0.929 . S
C1951 C1949 1.433 . S
C1951 N1954 1.384 . S
C1952 H1943 0.929 . S
C1952 C1944 1.378 . S
C1952 C1947 1.350 . S
C1953 H1940 0.929 . S
C1953 C1945 1.433 . S
C1953 N1955 1.384 . S
N1954 C1950 1.427 . S
N1954 C1951 1.384 . S
N1955 C1947 1.427 . S
N1955 C1953 1.384 . S
H1956 C1962 0.930 . S
H1957 C1966 0.930 . S
H1958 C1971 0.929 . S
H1959 C1969 0.929 . S
H1960 C1964 0.929 . S
H1961 C1970 0.929 . S
C1962 H1956 0.930 . S
C1962 C1963 1.367 . S
C1962 C1970 1.378 . S
C1963 C1962 1.367 . S
C1963 C1971 1.433 . S
C1964 H1960 0.929 . S
C1964 C1966 1.378 . S
C1964 C1968 1.350 . S
C1965 C1968 1.463 . S
C1965 C1970 1.350 . S
C1965 N1973 1.427 . S
C1966 H1957 0.930 . S
C1966 C1964 1.378 . S
C1966 C1967 1.367 . S
C1967 C1966 1.367 . S
C1967 C1969 1.433 . S
C1968 C1964 1.350 . S
C1968 C1965 1.463 . S
C1968 N1972 1.427 . S
C1969 H1959 0.929 . S
C1969 C1967 1.433 . S
C1969 N1972 1.384 . S
C1970 H1961 0.929 . S
C1970 C1962 1.378 . S
C1970 C1965 1.350 . S
C1971 H1958 0.929 . S
C1971 C1963 1.433 . S
C1971 N1973 1.384 . S
N1972 C1968 1.427 . S
N1972 C1969 1.384 . S
N1973 C1965 1.427 . S
N1973 C1971 1.384 . S
H1974 C1980 0.930 . S
H1975 C1984 0.930 . S
H1976 C1989 0.929 . S
H1977 C1987 0.929 . S
H1978 C1982 0.929 . S
H1979 C1988 0.929 . S
C1980 H1974 0.930 . S
C1980 C1981 1.367 . S
C1980 C1988 1.378 . S
C1981 C1980 1.367 . S
C1981 C1989 1.433 . S
C1982 H1978 0.929 . S
C1982 C1984 1.378 . S
C1982 C1986 1.350 . S
C1983 C1986 1.463 . S
C1983 C1988 1.350 . S
C1983 N1991 1.427 . S
C1984 H1975 0.930 . S
C1984 C1982 1.378 . S
C1984 C1985 1.367 . S
C1985 C1984 1.367 . S
C1985 C1987 1.433 . S
C1986 C1982 1.350 . S
C1986 C1983 1.463 . S
C1986 N1990 1.427 . S
C1987 H1977 0.929 . S
C1987 C1985 1.433 . S
C1987 N1990 1.384 . S
C1988 H1979 0.929 . S
C1988 C1980 1.378 . S
C1988 C1983 1.350 . S
C1989 H1976 0.929 . S
C1989 C1981 1.433 . S
C1989 N1991 1.384 . S
N1990 C1986 1.427 . S
N1990 C1987 1.384 . S
N1991 C1983 1.427 . S
N1991 C1989 1.384 . S
H1992 C1998 0.930 . S
H1993 C2002 0.930 . S
H1994 C2007 0.929 . S
H1995 C2005 0.929 . S
H1996 C2000 0.929 . S
H1997 C2006 0.929 . S
C1998 H1992 0.930 . S
C1998 C1999 1.367 . S
C1998 C2006 1.378 . S
C1999 C1998 1.367 . S
C1999 C2007 1.433 . S
C2000 H1996 0.929 . S
C2000 C2002 1.378 . S
C2000 C2004 1.350 . S
C2001 C2004 1.463 . S
C2001 C2006 1.350 . S
C2001 N2009 1.427 . S
C2002 H1993 0.930 . S
C2002 C2000 1.378 . S
C2002 C2003 1.367 . S
C2003 C2002 1.367 . S
C2003 C2005 1.433 . S
C2004 C2000 1.350 . S
C2004 C2001 1.463 . S
C2004 N2008 1.427 . S
C2005 H1995 0.929 . S
C2005 C2003 1.433 . S
C2005 N2008 1.384 . S
C2006 H1997 0.929 . S
C2006 C1998 1.378 . S
C2006 C2001 1.350 . S
C2007 H1994 0.929 . S
C2007 C1999 1.433 . S
C2007 N2009 1.384 . S
N2008 C2004 1.427 . S
N2008 C2005 1.384 . S
N2009 C2001 1.427 . S
N2009 C2007 1.384 . S
H2010 C2016 0.930 . S
H2011 C2020 0.930 . S
H2012 C2025 0.929 . S
H2013 C2023 0.929 . S
H2014 C2018 0.929 . S
H2015 C2024 0.929 . S
C2016 H2010 0.930 . S
C2016 C2017 1.367 . S
C2016 C2024 1.378 . S
C2017 C2016 1.367 . S
C2017 C2025 1.433 . S
C2018 H2014 0.929 . S
C2018 C2020 1.378 . S
C2018 C2022 1.350 . S
C2019 C2022 1.463 . S
C2019 C2024 1.350 . S
C2019 N2027 1.427 . S
C2020 H2011 0.930 . S
C2020 C2018 1.378 . S
C2020 C2021 1.367 . S
C2021 C2020 1.367 . S
C2021 C2023 1.433 . S
C2022 C2018 1.350 . S
C2022 C2019 1.463 . S
C2022 N2026 1.427 . S
C2023 H2013 0.929 . S
C2023 C2021 1.433 . S
C2023 N2026 1.384 . S
C2024 H2015 0.929 . S
C2024 C2016 1.378 . S
C2024 C2019 1.350 . S
C2025 H2012 0.929 . S
C2025 C2017 1.433 . S
C2025 N2027 1.384 . S
N2026 C2022 1.427 . S
N2026 C2023 1.384 . S
N2027 C2019 1.427 . S
N2027 C2025 1.384 . S
H2028 C2034 0.930 . S
H2029 C2038 0.930 . S
H2030 C2043 0.929 . S
H2031 C2041 0.929 . S
H2032 C2036 0.929 . S
H2033 C2042 0.929 . S
C2034 H2028 0.930 . S
C2034 C2035 1.367 . S
C2034 C2042 1.378 . S
C2035 C2034 1.367 . S
C2035 C2043 1.433 . S
C2036 H2032 0.929 . S
C2036 C2038 1.378 . S
C2036 C2040 1.350 . S
C2037 C2040 1.463 . S
C2037 C2042 1.350 . S
C2037 N2045 1.427 . S
C2038 H2029 0.930 . S
C2038 C2036 1.378 . S
C2038 C2039 1.367 . S
C2039 C2038 1.367 . S
C2039 C2041 1.433 . S
C2040 C2036 1.350 . S
C2040 C2037 1.463 . S
C2040 N2044 1.427 . S
C2041 H2031 0.929 . S
C2041 C2039 1.433 . S
C2041 N2044 1.384 . S
C2042 H2033 0.929 . S
C2042 C2034 1.378 . S
C2042 C2037 1.350 . S
C2043 H2030 0.929 . S
C2043 C2035 1.433 . S
C2043 N2045 1.384 . S
N2044 C2040 1.427 . S
N2044 C2041 1.384 . S
N2045 C2037 1.427 . S
N2045 C2043 1.384 . S
H2046 C2052 0.930 . S
H2047 C2056 0.930 . S
H2048 C2061 0.929 . S
H2049 C2059 0.929 . S
H2050 C2054 0.929 . S
H2051 C2060 0.929 . S
C2052 H2046 0.930 . S
C2052 C2053 1.367 . S
C2052 C2060 1.378 . S
C2053 C2052 1.367 . S
C2053 C2061 1.433 . S
C2054 H2050 0.929 . S
C2054 C2056 1.378 . S
C2054 C2058 1.350 . S
C2055 C2058 1.463 . S
C2055 C2060 1.350 . S
C2055 N2063 1.427 . S
C2056 H2047 0.930 . S
C2056 C2054 1.378 . S
C2056 C2057 1.367 . S
C2057 C2056 1.367 . S
C2057 C2059 1.433 . S
C2058 C2054 1.350 . S
C2058 C2055 1.463 . S
C2058 N2062 1.427 . S
C2059 H2049 0.929 . S
C2059 C2057 1.433 . S
C2059 N2062 1.384 . S
C2060 H2051 0.929 . S
C2060 C2052 1.378 . S
C2060 C2055 1.350 . S
C2061 H2048 0.929 . S
C2061 C2053 1.433 . S
C2061 N2063 1.384 . S
N2062 C2058 1.427 . S
N2062 C2059 1.384 . S
N2063 C2055 1.427 . S
N2063 C2061 1.384 . S
H2064 C2070 0.930 . S
H2065 C2074 0.930 . S
H2066 C2079 0.929 . S
H2067 C2077 0.929 . S
H2068 C2072 0.929 . S
H2069 C2078 0.929 . S
C2070 H2064 0.930 . S
C2070 C2071 1.367 . S
C2070 C2078 1.378 . S
C2071 C2070 1.367 . S
C2071 C2079 1.433 . S
C2072 H2068 0.929 . S
C2072 C2074 1.378 . S
C2072 C2076 1.350 . S
C2073 C2076 1.463 . S
C2073 C2078 1.350 . S
C2073 N2081 1.427 . S
C2074 H2065 0.930 . S
C2074 C2072 1.378 . S
C2074 C2075 1.367 . S
C2075 C2074 1.367 . S
C2075 C2077 1.433 . S
C2076 C2072 1.350 . S
C2076 C2073 1.463 . S
C2076 N2080 1.427 . S
C2077 H2067 0.929 . S
C2077 C2075 1.433 . S
C2077 N2080 1.384 . S
C2078 H2069 0.929 . S
C2078 C2070 1.378 . S
C2078 C2073 1.350 . S
C2079 H2066 0.929 . S
C2079 C2071 1.433 . S
C2079 N2081 1.384 . S
N2080 C2076 1.427 . S
N2080 C2077 1.384 . S
N2081 C2073 1.427 . S
N2081 C2079 1.384 . S
H2082 C2088 0.930 . S
H2083 C2092 0.930 . S
H2084 C2097 0.929 . S
H2085 C2095 0.929 . S
H2086 C2090 0.929 . S
H2087 C2096 0.929 . S
C2088 H2082 0.930 . S
C2088 C2089 1.367 . S
C2088 C2096 1.378 . S
C2089 C2088 1.367 . S
C2089 C2097 1.433 . S
C2090 H2086 0.929 . S
C2090 C2092 1.378 . S
C2090 C2094 1.350 . S
C2091 C2094 1.463 . S
C2091 C2096 1.350 . S
C2091 N2099 1.427 . S
C2092 H2083 0.930 . S
C2092 C2090 1.378 . S
C2092 C2093 1.367 . S
C2093 C2092 1.367 . S
C2093 C2095 1.433 . S
C2094 C2090 1.350 . S
C2094 C2091 1.463 . S
C2094 N2098 1.427 . S
C2095 H2085 0.929 . S
C2095 C2093 1.433 . S
C2095 N2098 1.384 . S
C2096 H2087 0.929 . S
C2096 C2088 1.378 . S
C2096 C2091 1.350 . S
C2097 H2084 0.929 . S
C2097 C2089 1.433 . S
C2097 N2099 1.384 . S
N2098 C2094 1.427 . S
N2098 C2095 1.384 . S
N2099 C2091 1.427 . S
N2099 C2097 1.384 . S
H2100 C2106 0.930 . S
H2101 C2110 0.930 . S
H2102 C2115 0.929 . S
H2103 C2113 0.929 . S
H2104 C2108 0.929 . S
H2105 C2114 0.929 . S
C2106 H2100 0.930 . S
C2106 C2107 1.367 . S
C2106 C2114 1.378 . S
C2107 C2106 1.367 . S
C2107 C2115 1.433 . S
C2108 H2104 0.929 . S
C2108 C2110 1.378 . S
C2108 C2112 1.350 . S
C2109 C2112 1.463 . S
C2109 C2114 1.350 . S
C2109 N2117 1.427 . S
C2110 H2101 0.930 . S
C2110 C2108 1.378 . S
C2110 C2111 1.367 . S
C2111 C2110 1.367 . S
C2111 C2113 1.433 . S
C2112 C2108 1.350 . S
C2112 C2109 1.463 . S
C2112 N2116 1.427 . S
C2113 H2103 0.929 . S
C2113 C2111 1.433 . S
C2113 N2116 1.384 . S
C2114 H2105 0.929 . S
C2114 C2106 1.378 . S
C2114 C2109 1.350 . S
C2115 H2102 0.929 . S
C2115 C2107 1.433 . S
C2115 N2117 1.384 . S
N2116 C2112 1.427 . S
N2116 C2113 1.384 . S
N2117 C2109 1.427 . S
N2117 C2115 1.384 . S
H2118 C2124 0.930 . S
H2119 C2128 0.930 . S
H2120 C2133 0.929 . S
H2121 C2131 0.929 . S
H2122 C2126 0.929 . S
H2123 C2132 0.929 . S
C2124 H2118 0.930 . S
C2124 C2125 1.367 . S
C2124 C2132 1.378 . S
C2125 C2124 1.367 . S
C2125 C2133 1.433 . S
C2126 H2122 0.929 . S
C2126 C2128 1.378 . S
C2126 C2130 1.350 . S
C2127 C2130 1.463 . S
C2127 C2132 1.350 . S
C2127 N2135 1.427 . S
C2128 H2119 0.930 . S
C2128 C2126 1.378 . S
C2128 C2129 1.367 . S
C2129 C2128 1.367 . S
C2129 C2131 1.433 . S
C2130 C2126 1.350 . S
C2130 C2127 1.463 . S
C2130 N2134 1.427 . S
C2131 H2121 0.929 . S
C2131 C2129 1.433 . S
C2131 N2134 1.384 . S
C2132 H2123 0.929 . S
C2132 C2124 1.378 . S
C2132 C2127 1.350 . S
C2133 H2120 0.929 . S
C2133 C2125 1.433 . S
C2133 N2135 1.384 . S
N2134 C2130 1.427 . S
N2134 C2131 1.384 . S
N2135 C2127 1.427 . S
N2135 C2133 1.384 . S
H2136 C2142 0.930 . S
H2137 C2146 0.930 . S
H2138 C2151 0.929 . S
H2139 C2149 0.929 . S
H2140 C2144 0.929 . S
H2141 C2150 0.929 . S
C2142 H2136 0.930 . S
C2142 C2143 1.367 . S
C2142 C2150 1.378 . S
C2143 C2142 1.367 . S
C2143 C2151 1.433 . S
C2144 H2140 0.929 . S
C2144 C2146 1.378 . S
C2144 C2148 1.350 . S
C2145 C2148 1.463 . S
C2145 C2150 1.350 . S
C2145 N2153 1.427 . S
C2146 H2137 0.930 . S
C2146 C2144 1.378 . S
C2146 C2147 1.367 . S
C2147 C2146 1.367 . S
C2147 C2149 1.433 . S
C2148 C2144 1.350 . S
C2148 C2145 1.463 . S
C2148 N2152 1.427 . S
C2149 H2139 0.929 . S
C2149 C2147 1.433 . S
C2149 N2152 1.384 . S
C2150 H2141 0.929 . S
C2150 C2142 1.378 . S
C2150 C2145 1.350 . S
C2151 H2138 0.929 . S
C2151 C2143 1.433 . S
C2151 N2153 1.384 . S
N2152 C2148 1.427 . S
N2152 C2149 1.384 . S
N2153 C2145 1.427 . S
N2153 C2151 1.384 . S
H2154 C2160 0.930 . S
H2155 C2164 0.930 . S
H2156 C2169 0.929 . S
H2157 C2167 0.929 . S
H2158 C2162 0.929 . S
H2159 C2168 0.929 . S
C2160 H2154 0.930 . S
C2160 C2161 1.367 . S
C2160 C2168 1.378 . S
C2161 C2160 1.367 . S
C2161 C2169 1.433 . S
C2162 H2158 0.929 . S
C2162 C2164 1.378 . S
C2162 C2166 1.350 . S
C2163 C2166 1.463 . S
C2163 C2168 1.350 . S
C2163 N2171 1.427 . S
C2164 H2155 0.930 . S
C2164 C2162 1.378 . S
C2164 C2165 1.367 . S
C2165 C2164 1.367 . S
C2165 C2167 1.433 . S
C2166 C2162 1.350 . S
C2166 C2163 1.463 . S
C2166 N2170 1.427 . S
C2167 H2157 0.929 . S
C2167 C2165 1.433 . S
C2167 N2170 1.384 . S
C2168 H2159 0.929 . S
C2168 C2160 1.378 . S
C2168 C2163 1.350 . S
C2169 H2156 0.929 . S
C2169 C2161 1.433 . S
C2169 N2171 1.384 . S
N2170 C2166 1.427 . S
N2170 C2167 1.384 . S
N2171 C2163 1.427 . S
N2171 C2169 1.384 . S
H2172 C2178 0.930 . S
H2173 C2182 0.930 . S
H2174 C2187 0.929 . S
H2175 C2185 0.929 . S
H2176 C2180 0.929 . S
H2177 C2186 0.929 . S
C2178 H2172 0.930 . S
C2178 C2179 1.367 . S
C2178 C2186 1.378 . S
C2179 C2178 1.367 . S
C2179 C2187 1.433 . S
C2180 H2176 0.929 . S
C2180 C2182 1.378 . S
C2180 C2184 1.350 . S
C2181 C2184 1.463 . S
C2181 C2186 1.350 . S
C2181 N2189 1.427 . S
C2182 H2173 0.930 . S
C2182 C2180 1.378 . S
C2182 C2183 1.367 . S
C2183 C2182 1.367 . S
C2183 C2185 1.433 . S
C2184 C2180 1.350 . S
C2184 C2181 1.463 . S
C2184 N2188 1.427 . S
C2185 H2175 0.929 . S
C2185 C2183 1.433 . S
C2185 N2188 1.384 . S
C2186 H2177 0.929 . S
C2186 C2178 1.378 . S
C2186 C2181 1.350 . S
C2187 H2174 0.929 . S
C2187 C2179 1.433 . S
C2187 N2189 1.384 . S
N2188 C2184 1.427 . S
N2188 C2185 1.384 . S
N2189 C2181 1.427 . S
N2189 C2187 1.384 . S
H2190 C2196 0.930 . S
H2191 C2200 0.930 . S
H2192 C2205 0.929 . S
H2193 C2203 0.929 . S
H2194 C2198 0.929 . S
H2195 C2204 0.929 . S
C2196 H2190 0.930 . S
C2196 C2197 1.367 . S
C2196 C2204 1.378 . S
C2197 C2196 1.367 . S
C2197 C2205 1.433 . S
C2198 H2194 0.929 . S
C2198 C2200 1.378 . S
C2198 C2202 1.350 . S
C2199 C2202 1.463 . S
C2199 C2204 1.350 . S
C2199 N2207 1.427 . S
C2200 H2191 0.930 . S
C2200 C2198 1.378 . S
C2200 C2201 1.367 . S
C2201 C2200 1.367 . S
C2201 C2203 1.433 . S
C2202 C2198 1.350 . S
C2202 C2199 1.463 . S
C2202 N2206 1.427 . S
C2203 H2193 0.929 . S
C2203 C2201 1.433 . S
C2203 N2206 1.384 . S
C2204 H2195 0.929 . S
C2204 C2196 1.378 . S
C2204 C2199 1.350 . S
C2205 H2192 0.929 . S
C2205 C2197 1.433 . S
C2205 N2207 1.384 . S
N2206 C2202 1.427 . S
N2206 C2203 1.384 . S
N2207 C2199 1.427 . S
N2207 C2205 1.384 . S
H2208 C2214 0.930 . S
H2209 C2218 0.930 . S
H2210 C2223 0.929 . S
H2211 C2221 0.929 . S
H2212 C2216 0.929 . S
H2213 C2222 0.929 . S
C2214 H2208 0.930 . S
C2214 C2215 1.367 . S
C2214 C2222 1.378 . S
C2215 C2214 1.367 . S
C2215 C2223 1.433 . S
C2216 H2212 0.929 . S
C2216 C2218 1.378 . S
C2216 C2220 1.350 . S
C2217 C2220 1.463 . S
C2217 C2222 1.350 . S
C2217 N2225 1.427 . S
C2218 H2209 0.930 . S
C2218 C2216 1.378 . S
C2218 C2219 1.367 . S
C2219 C2218 1.367 . S
C2219 C2221 1.433 . S
C2220 C2216 1.350 . S
C2220 C2217 1.463 . S
C2220 N2224 1.427 . S
C2221 H2211 0.929 . S
C2221 C2219 1.433 . S
C2221 N2224 1.384 . S
C2222 H2213 0.929 . S
C2222 C2214 1.378 . S
C2222 C2217 1.350 . S
C2223 H2210 0.929 . S
C2223 C2215 1.433 . S
C2223 N2225 1.384 . S
N2224 C2220 1.427 . S
N2224 C2221 1.384 . S
N2225 C2217 1.427 . S
N2225 C2223 1.384 . S
H2226 C2232 0.930 . S
H2227 C2236 0.930 . S
H2228 C2241 0.929 . S
H2229 C2239 0.929 . S
H2230 C2234 0.929 . S
H2231 C2240 0.929 . S
C2232 H2226 0.930 . S
C2232 C2233 1.367 . S
C2232 C2240 1.378 . S
C2233 C2232 1.367 . S
C2233 C2241 1.433 1_455 S
C2234 H2230 0.929 . S
C2234 C2236 1.378 . S
C2234 C2238 1.350 . S
C2235 C2238 1.463 1_465 S
C2235 C2240 1.350 . S
C2235 N2243 1.427 1_455 S
C2236 H2227 0.930 . S
C2236 C2234 1.378 . S
C2236 C2237 1.367 . S
C2237 C2236 1.367 . S
C2237 C2239 1.433 1_655 S
C2238 C2234 1.350 . S
C2238 C2235 1.463 1_645 S
C2238 N2242 1.427 1_655 S
C2239 H2229 0.929 . S
C2239 C2237 1.433 1_455 S
C2239 N2242 1.384 . S
C2240 H2231 0.929 . S
C2240 C2232 1.378 . S
C2240 C2235 1.350 . S
C2241 H2228 0.929 . S
C2241 C2233 1.433 1_655 S
C2241 N2243 1.384 . S
N2242 C2238 1.427 1_455 S
N2242 C2239 1.384 . S
N2243 C2235 1.427 1_655 S
N2243 C2241 1.384 . S
H2244 C2250 0.930 . S
H2245 C2254 0.930 . S
H2246 C2259 0.929 . S
H2247 C2257 0.929 . S
H2248 C2252 0.929 . S
H2249 C2258 0.929 . S
C2250 H2244 0.930 . S
C2250 C2251 1.367 . S
C2250 C2258 1.378 . S
C2251 C2250 1.367 . S
C2251 C2259 1.433 . S
C2252 H2248 0.929 . S
C2252 C2254 1.378 . S
C2252 C2256 1.350 . S
C2253 C2256 1.463 . S
C2253 C2258 1.350 . S
C2253 N2261 1.427 . S
C2254 H2245 0.930 . S
C2254 C2252 1.378 . S
C2254 C2255 1.367 . S
C2255 C2254 1.367 . S
C2255 C2257 1.433 . S
C2256 C2252 1.350 . S
C2256 C2253 1.463 . S
C2256 N2260 1.427 . S
C2257 H2247 0.929 . S
C2257 C2255 1.433 . S
C2257 N2260 1.384 . S
C2258 H2249 0.929 . S
C2258 C2250 1.378 . S
C2258 C2253 1.350 . S
C2259 H2246 0.929 . S
C2259 C2251 1.433 . S
C2259 N2261 1.384 . S
N2260 C2256 1.427 . S
N2260 C2257 1.384 . S
N2261 C2253 1.427 . S
N2261 C2259 1.384 . S
H2262 C2268 0.930 . S
H2263 C2272 0.930 . S
H2264 C2277 0.929 . S
H2265 C2275 0.929 . S
H2266 C2270 0.929 . S
H2267 C2276 0.929 . S
C2268 H2262 0.930 . S
C2268 C2269 1.367 . S
C2268 C2276 1.378 . S
C2269 C2268 1.367 . S
C2269 C2277 1.433 1_554 S
C2270 H2266 0.929 . S
C2270 C2272 1.378 . S
C2270 C2274 1.385 . S
C2271 C2274 1.460 1_564 S
C2271 C2276 1.385 . S
C2271 N2279 1.392 1_554 S
C2272 H2263 0.930 . S
C2272 C2270 1.378 . S
C2272 C2273 1.367 . S
C2273 C2272 1.367 . S
C2273 C2275 1.433 1_556 S
C2274 C2270 1.385 . S
C2274 C2271 1.460 1_546 S
C2274 N2278 1.392 1_556 S
C2275 H2265 0.929 . S
C2275 C2273 1.433 1_554 S
C2275 N2278 1.384 . S
C2276 H2267 0.929 . S
C2276 C2268 1.378 . S
C2276 C2271 1.385 . S
C2277 H2264 0.929 . S
C2277 C2269 1.433 1_556 S
C2277 N2279 1.384 . S
N2278 C2274 1.392 1_554 S
N2278 C2275 1.384 . S
N2279 C2271 1.392 1_556 S
N2279 C2277 1.384 . S
H2280 C2286 0.930 . S
H2281 C2290 0.930 . S
H2282 C2295 0.929 . S
H2283 C2293 0.929 . S
H2284 C2288 0.929 . S
H2285 C2294 0.929 . S
C2286 H2280 0.930 . S
C2286 C2287 1.367 . S
C2286 C2294 1.378 . S
C2287 C2286 1.367 . S
C2287 C2295 1.433 . S
C2288 H2284 0.929 . S
C2288 C2290 1.378 . S
C2288 C2292 1.350 . S
C2289 C2292 1.463 . S
C2289 C2294 1.350 . S
C2289 N2297 1.427 . S
C2290 H2281 0.930 . S
C2290 C2288 1.378 . S
C2290 C2291 1.367 . S
C2291 C2290 1.367 . S
C2291 C2293 1.433 . S
C2292 C2288 1.350 . S
C2292 C2289 1.463 . S
C2292 N2296 1.427 . S
C2293 H2283 0.929 . S
C2293 C2291 1.433 . S
C2293 N2296 1.384 . S
C2294 H2285 0.929 . S
C2294 C2286 1.378 . S
C2294 C2289 1.350 . S
C2295 H2282 0.929 . S
C2295 C2287 1.433 . S
C2295 N2297 1.384 . S
N2296 C2292 1.427 . S
N2296 C2293 1.384 . S
N2297 C2289 1.427 . S
N2297 C2295 1.384 . S
H2298 C2304 0.930 . S
H2299 C2308 0.930 . S
H2300 C2313 0.929 . S
H2301 C2311 0.929 . S
H2302 C2306 0.929 . S
H2303 C2312 0.929 . S
C2304 H2298 0.930 . S
C2304 C2305 1.367 . S
C2304 C2312 1.378 . S
C2305 C2304 1.367 . S
C2305 C2313 1.433 . S
C2306 H2302 0.929 . S
C2306 C2308 1.378 . S
C2306 C2310 1.350 . S
C2307 C2310 1.463 1_545 S
C2307 C2312 1.350 . S
C2307 N2315 1.427 . S
C2308 H2299 0.930 . S
C2308 C2306 1.378 . S
C2308 C2309 1.367 . S
C2309 C2308 1.367 . S
C2309 C2311 1.433 . S
C2310 C2306 1.350 . S
C2310 C2307 1.463 1_565 S
C2310 N2314 1.427 . S
C2311 H2301 0.929 . S
C2311 C2309 1.433 . S
C2311 N2314 1.384 . S
C2312 H2303 0.929 . S
C2312 C2304 1.378 . S
C2312 C2307 1.350 . S
C2313 H2300 0.929 . S
C2313 C2305 1.433 . S
C2313 N2315 1.384 . S
N2314 C2310 1.427 . S
N2314 C2311 1.384 . S
N2315 C2307 1.427 . S
N2315 C2313 1.384 . S
H2316 C2322 0.930 . S
H2317 C2326 0.930 . S
H2318 C2331 0.929 . S
H2319 C2329 0.929 . S
H2320 C2324 0.929 . S
H2321 C2330 0.929 . S
C2322 H2316 0.930 . S
C2322 C2323 1.367 . S
C2322 C2330 1.378 . S
C2323 C2322 1.367 . S
C2323 C2331 1.433 . S
C2324 H2320 0.929 . S
C2324 C2326 1.378 . S
C2324 C2328 1.350 . S
C2325 C2328 1.463 . S
C2325 C2330 1.350 . S
C2325 N2333 1.427 . S
C2326 H2317 0.930 . S
C2326 C2324 1.378 . S
C2326 C2327 1.367 . S
C2327 C2326 1.367 . S
C2327 C2329 1.433 . S
C2328 C2324 1.350 . S
C2328 C2325 1.463 . S
C2328 N2332 1.427 . S
C2329 H2319 0.929 . S
C2329 C2327 1.433 . S
C2329 N2332 1.384 . S
C2330 H2321 0.929 . S
C2330 C2322 1.378 . S
C2330 C2325 1.350 . S
C2331 H2318 0.929 . S
C2331 C2323 1.433 . S
C2331 N2333 1.384 . S
N2332 C2328 1.427 . S
N2332 C2329 1.384 . S
N2333 C2325 1.427 . S
N2333 C2331 1.384 . S
H2334 C2340 0.930 . S
H2335 C2344 0.930 . S
H2336 C2349 0.929 . S
H2337 C2347 0.929 . S
H2338 C2342 0.929 . S
H2339 C2348 0.929 . S
C2340 H2334 0.930 . S
C2340 C2341 1.362 1_454 S
C2340 C2348 1.378 . S
C2341 C2340 1.362 1_656 S
C2341 C2349 1.438 . S
C2342 H2338 0.929 . S
C2342 C2344 1.378 . S
C2342 C2346 1.364 1_655 S
C2343 C2346 1.462 1_664 S
C2343 C2348 1.364 1_655 S
C2343 N2351 1.413 1_554 S
C2344 H2335 0.930 . S
C2344 C2342 1.378 . S
C2344 C2345 1.362 1_656 S
C2345 C2344 1.362 1_454 S
C2345 C2347 1.438 . S
C2346 C2342 1.364 1_455 S
C2346 C2343 1.462 1_446 S
C2346 N2350 1.413 1_556 S
C2347 H2337 0.929 . S
C2347 C2345 1.438 . S
C2347 N2350 1.384 . S
C2348 H2339 0.929 . S
C2348 C2340 1.378 . S
C2348 C2343 1.364 1_455 S
C2349 H2336 0.929 . S
C2349 C2341 1.438 . S
C2349 N2351 1.384 . S
N2350 C2346 1.413 1_554 S
N2350 C2347 1.384 . S
N2351 C2343 1.413 1_556 S
N2351 C2349 1.384 . S
H2352 C2358 0.930 . S
H2353 C2362 0.930 . S
H2354 C2367 0.929 . S
H2355 C2365 0.929 . S
H2356 C2360 0.929 . S
H2357 C2366 0.929 . S
C2358 H2352 0.930 . S
C2358 C2359 1.367 . S
C2358 C2366 1.378 . S
C2359 C2358 1.367 . S
C2359 C2367 1.433 . S
C2360 H2356 0.929 . S
C2360 C2362 1.378 . S
C2360 C2364 1.350 . S
C2361 C2364 1.463 . S
C2361 C2366 1.350 . S
C2361 N2369 1.427 . S
C2362 H2353 0.930 . S
C2362 C2360 1.378 . S
C2362 C2363 1.367 . S
C2363 C2362 1.367 . S
C2363 C2365 1.433 . S
C2364 C2360 1.350 . S
C2364 C2361 1.463 . S
C2364 N2368 1.427 . S
C2365 H2355 0.929 . S
C2365 C2363 1.433 . S
C2365 N2368 1.384 . S
C2366 H2357 0.929 . S
C2366 C2358 1.378 . S
C2366 C2361 1.350 . S
C2367 H2354 0.929 . S
C2367 C2359 1.433 . S
C2367 N2369 1.384 . S
N2368 C2364 1.427 . S
N2368 C2365 1.384 . S
N2369 C2361 1.427 . S
N2369 C2367 1.384 . S
H2370 C2376 0.930 . S
H2371 C2380 0.930 . S
H2372 C2385 0.929 . S
H2373 C2383 0.929 . S
H2374 C2378 0.929 . S
H2375 C2384 0.929 . S
C2376 H2370 0.930 . S
C2376 C2377 1.367 . S
C2376 C2384 1.378 . S
C2377 C2376 1.367 . S
C2377 C2385 1.433 . S
C2378 H2374 0.929 . S
C2378 C2380 1.378 . S
C2378 C2382 1.350 . S
C2379 C2382 1.463 . S
C2379 C2384 1.350 . S
C2379 N2387 1.427 . S
C2380 H2371 0.930 . S
C2380 C2378 1.378 . S
C2380 C2381 1.367 . S
C2381 C2380 1.367 . S
C2381 C2383 1.433 . S
C2382 C2378 1.350 . S
C2382 C2379 1.463 . S
C2382 N2386 1.427 . S
C2383 H2373 0.929 . S
C2383 C2381 1.433 . S
C2383 N2386 1.384 . S
C2384 H2375 0.929 . S
C2384 C2376 1.378 . S
C2384 C2379 1.350 . S
C2385 H2372 0.929 . S
C2385 C2377 1.433 . S
C2385 N2387 1.384 . S
N2386 C2382 1.427 . S
N2386 C2383 1.384 . S
N2387 C2379 1.427 . S
N2387 C2385 1.384 . S
H2388 C2394 0.930 . S
H2389 C2398 0.930 . S
H2390 C2403 0.929 . S
H2391 C2401 0.929 . S
H2392 C2396 0.929 . S
H2393 C2402 0.929 . S
C2394 H2388 0.930 . S
C2394 C2395 1.367 . S
C2394 C2402 1.378 . S
C2395 C2394 1.367 . S
C2395 C2403 1.433 . S
C2396 H2392 0.929 . S
C2396 C2398 1.378 . S
C2396 C2400 1.350 . S
C2397 C2400 1.463 . S
C2397 C2402 1.350 . S
C2397 N2405 1.427 . S
C2398 H2389 0.930 . S
C2398 C2396 1.378 . S
C2398 C2399 1.367 . S
C2399 C2398 1.367 . S
C2399 C2401 1.433 . S
C2400 C2396 1.350 . S
C2400 C2397 1.463 . S
C2400 N2404 1.427 . S
C2401 H2391 0.929 . S
C2401 C2399 1.433 . S
C2401 N2404 1.384 . S
C2402 H2393 0.929 . S
C2402 C2394 1.378 . S
C2402 C2397 1.350 . S
C2403 H2390 0.929 . S
C2403 C2395 1.433 . S
C2403 N2405 1.384 . S
N2404 C2400 1.427 . S
N2404 C2401 1.384 . S
N2405 C2397 1.427 . S
N2405 C2403 1.384 . S
H2406 C2412 0.930 . S
H2407 C2416 0.930 . S
H2408 C2421 0.929 . S
H2409 C2419 0.929 . S
H2410 C2414 0.929 . S
H2411 C2420 0.929 . S
C2412 H2406 0.930 . S
C2412 C2413 1.367 . S
C2412 C2420 1.378 . S
C2413 C2412 1.367 . S
C2413 C2421 1.433 . S
C2414 H2410 0.929 . S
C2414 C2416 1.378 . S
C2414 C2418 1.350 . S
C2415 C2418 1.463 . S
C2415 C2420 1.350 . S
C2415 N2423 1.427 . S
C2416 H2407 0.930 . S
C2416 C2414 1.378 . S
C2416 C2417 1.367 . S
C2417 C2416 1.367 . S
C2417 C2419 1.433 . S
C2418 C2414 1.350 . S
C2418 C2415 1.463 . S
C2418 N2422 1.427 . S
C2419 H2409 0.929 . S
C2419 C2417 1.433 . S
C2419 N2422 1.384 . S
C2420 H2411 0.929 . S
C2420 C2412 1.378 . S
C2420 C2415 1.350 . S
C2421 H2408 0.929 . S
C2421 C2413 1.433 . S
C2421 N2423 1.384 . S
N2422 C2418 1.427 . S
N2422 C2419 1.384 . S
N2423 C2415 1.427 . S
N2423 C2421 1.384 . S
H2424 C2430 0.930 . S
H2425 C2434 0.930 . S
H2426 C2439 0.929 . S
H2427 C2437 0.929 . S
H2428 C2432 0.929 . S
H2429 C2438 0.929 . S
C2430 H2424 0.930 . S
C2430 C2431 1.363 1_556 S
C2430 C2438 1.378 . S
C2431 C2430 1.363 1_554 S
C2431 C2439 1.437 . S
C2432 H2428 0.929 . S
C2432 C2434 1.378 . S
C2432 C2436 1.367 . S
C2433 C2436 1.461 1_556 S
C2433 C2438 1.367 . S
C2433 N2441 1.410 1_556 S
C2434 H2425 0.930 . S
C2434 C2432 1.378 . S
C2434 C2435 1.363 1_554 S
C2435 C2434 1.363 1_556 S
C2435 C2437 1.437 . S
C2436 C2432 1.367 . S
C2436 C2433 1.461 1_554 S
C2436 N2440 1.410 1_554 S
C2437 H2427 0.929 . S
C2437 C2435 1.437 . S
C2437 N2440 1.384 . S
C2438 H2429 0.929 . S
C2438 C2430 1.378 . S
C2438 C2433 1.367 . S
C2439 H2426 0.929 . S
C2439 C2431 1.437 . S
C2439 N2441 1.384 . S
N2440 C2436 1.410 1_556 S
N2440 C2437 1.384 . S
N2441 C2433 1.410 1_554 S
N2441 C2439 1.384 . S
H2442 C2448 0.930 . S
H2443 C2452 0.930 . S
H2444 C2457 0.929 . S
H2445 C2455 0.929 . S
H2446 C2450 0.929 . S
H2447 C2456 0.929 . S
C2448 H2442 0.930 . S
C2448 C2449 1.367 1_455 S
C2448 C2456 1.378 . S
C2449 C2448 1.367 1_655 S
C2449 C2457 1.433 . S
C2450 H2446 0.929 . S
C2450 C2452 1.378 . S
C2450 C2454 1.350 1_655 S
C2451 C2454 1.463 1_655 S
C2451 C2456 1.350 1_655 S
C2451 N2459 1.427 . S
C2452 H2443 0.930 . S
C2452 C2450 1.378 . S
C2452 C2453 1.367 1_655 S
C2453 C2452 1.367 1_455 S
C2453 C2455 1.433 . S
C2454 C2450 1.350 1_455 S
C2454 C2451 1.463 1_455 S
C2454 N2458 1.427 . S
C2455 H2445 0.929 . S
C2455 C2453 1.433 . S
C2455 N2458 1.384 . S
C2456 H2447 0.929 . S
C2456 C2448 1.378 . S
C2456 C2451 1.350 1_455 S
C2457 H2444 0.929 . S
C2457 C2449 1.433 . S
C2457 N2459 1.384 . S
N2458 C2454 1.427 . S
N2458 C2455 1.384 . S
N2459 C2451 1.427 . S
N2459 C2457 1.384 . S
H2460 C2466 0.930 . S
H2461 C2470 0.930 . S
H2462 C2475 0.929 . S
H2463 C2473 0.929 . S
H2464 C2468 0.929 . S
H2465 C2474 0.929 . S
C2466 H2460 0.930 . S
C2466 C2467 1.361 1_554 S
C2466 C2474 1.378 . S
C2467 C2466 1.361 1_556 S
C2467 C2475 1.439 1_455 S
C2468 H2464 0.929 . S
C2468 C2470 1.378 . S
C2468 C2472 1.362 . S
C2469 C2472 1.462 1_454 S
C2469 C2474 1.362 . S
C2469 N2477 1.415 1_454 S
C2470 H2461 0.930 . S
C2470 C2468 1.378 . S
C2470 C2471 1.361 1_556 S
C2471 C2470 1.361 1_554 S
C2471 C2473 1.439 1_655 S
C2472 C2468 1.362 . S
C2472 C2469 1.462 1_656 S
C2472 N2476 1.415 1_656 S
C2473 H2463 0.929 . S
C2473 C2471 1.439 1_455 S
C2473 N2476 1.384 . S
C2474 H2465 0.929 . S
C2474 C2466 1.378 . S
C2474 C2469 1.362 . S
C2475 H2462 0.929 . S
C2475 C2467 1.439 1_655 S
C2475 N2477 1.384 . S
N2476 C2472 1.415 1_454 S
N2476 C2473 1.384 . S
N2477 C2469 1.415 1_656 S
N2477 C2475 1.384 . S
H2478 C2484 0.930 . S
H2479 C2488 0.930 . S
H2480 C2493 0.929 . S
H2481 C2491 0.929 . S
H2482 C2486 0.929 . S
H2483 C2492 0.929 . S
C2484 H2478 0.930 . S
C2484 C2485 1.367 . S
C2484 C2492 1.378 . S
C2485 C2484 1.367 . S
C2485 C2493 1.433 . S
C2486 H2482 0.929 . S
C2486 C2488 1.378 . S
C2486 C2490 1.350 . S
C2487 C2490 1.463 . S
C2487 C2492 1.350 . S
C2487 N2495 1.427 . S
C2488 H2479 0.930 . S
C2488 C2486 1.378 . S
C2488 C2489 1.367 . S
C2489 C2488 1.367 . S
C2489 C2491 1.433 . S
C2490 C2486 1.350 . S
C2490 C2487 1.463 . S
C2490 N2494 1.427 . S
C2491 H2481 0.929 . S
C2491 C2489 1.433 . S
C2491 N2494 1.384 . S
C2492 H2483 0.929 . S
C2492 C2484 1.378 . S
C2492 C2487 1.350 . S
C2493 H2480 0.929 . S
C2493 C2485 1.433 . S
C2493 N2495 1.384 . S
N2494 C2490 1.427 . S
N2494 C2491 1.384 . S
N2495 C2487 1.427 . S
N2495 C2493 1.384 . S
C1063 N236 1.710 . S
C1067 N5 1.713 . S
C1081 N38 1.710 . S
C1085 N137 1.713 . S
C1099 N71 1.711 . S
C1103 N170 1.711 . S
C1117 N203 1.711 . S
C1121 N104 1.711 . S
C1135 N500 1.712 . S
C1139 N269 1.711 . S
C1153 N401 1.712 . S
C1157 N302 1.710 . S
C1171 N335 1.711 . S
C1175 N434 1.712 . S
C1189 N368 1.712 . S
C1193 N467 1.711 . S
C1207 N764 1.710 . S
C1211 N533 1.713 . S
C1225 N566 1.710 . S
C1229 N665 1.713 . S
C1243 N599 1.711 . S
C1247 N698 1.711 . S
C1261 N731 1.711 . S
C1265 N632 1.712 . S
C1279 N1028 1.710 . S
C1283 N797 1.713 . S
C1297 N830 1.712 . S
C1301 N929 1.711 . S
C1315 N962 1.711 . S
C1319 N863 1.712 . S
C1333 N995 1.713 . S
C1337 N896 1.710 . S
C1351 C622 0.600 . S
C1355 C28 0.604 . S
C1369 C655 0.583 . S
C1373 C61 0.561 . S
C1387 C94 0.597 . S
C1391 C556 0.562 . S
C1405 C127 0.604 . S
C1409 C589 0.567 . S
C1423 C754 0.598 . S
C1427 C160 0.562 . S
C1441 C787 0.583 . S
C1445 C193 0.561 . S
C1459 C226 0.605 . S
C1463 C688 0.568 . S
C1477 C259 0.590 . S
C1481 C721 0.560 . S
C1495 C292 0.601 . S
C1499 C886 0.603 . S
C1513 C919 0.561 . S
C1517 C325 0.595 . S
C1531 C820 0.594 . S
C1535 C358 0.608 . S
C1549 C391 0.560 . S
C1553 C853 0.588 . S
C1567 C424 0.577 . S
C1571 C1018 0.609 . S
C1585 C1051 0.560 . S
C1589 C457 0.590 . S
C1603 C952 0.571 . S
C1607 C490 0.607 . S
C1621 C985 0.567 . S
C1625 C523 0.604 . S
C1639 N14 1.048 . S
C1643 C899 1.028 . S
C1657 C272 1.028 . S
C1661 N47 1.028 . S
C1675 C833 1.035 . S
C1679 N80 1.044 . S
C1693 N113 1.031 . S
C1697 C338 1.033 . S
C1711 C965 1.031 . S
C1715 N146 1.030 . S
C1729 C470 1.036 . S
C1733 N179 1.040 . S
C1747 N212 1.034 . S
C1751 C1031 1.035 . S
C1765 N245 1.028 . S
C1769 C404 1.028 . S
C1783 N278 1.033 . S
C1787 C635 1.011 . S
C1801 N311 1.048 . S
C1805 C8 1.028 . S
C1819 C569 1.035 . S
C1823 N344 1.034 . S
C1837 N377 1.026 . S
C1841 C74 1.019 . S
C1855 C701 1.018 . S
C1859 N410 1.046 . S
C1873 N443 1.027 . S
C1877 C206 1.025 . S
C1891 N476 1.048 . S
C1895 C767 1.028 . S
C1909 C140 1.036 . S
C1913 N509 1.041 . S
C1927 N542 1.046 . S
C1931 C371 1.017 . S
C1945 C800 1.036 . S
C1949 N575 1.041 . S
C1963 C305 1.013 . S
C1967 N608 1.029 . S
C1981 N641 1.029 . S
C1985 C866 1.031 . S
C1999 N674 1.037 . S
C2003 C437 1.036 . S
C2017 C998 1.029 . S
C2021 N707 1.029 . S
C2035 N740 1.046 . S
C2039 C503 1.017 . S
C2053 C932 1.029 . S
C2057 N773 1.028 . S
C2071 C107 1.034 . S
C2075 N806 1.045 . S
C2089 C536 1.013 . S
C2093 N839 1.042 . S
C2107 C41 1.023 . S
C2111 N872 1.048 . S
C2125 C602 1.012 . S
C2129 N905 1.040 . S
C2143 N938 1.027 . S
C2147 C173 1.026 . S
C2161 C734 1.036 . S
C2165 N971 1.038 . S
C2179 C239 1.012 . S
C2183 N1004 1.031 . S
C2197 C668 1.012 . S
C2201 N1037 1.041 . S
C2215 C17 1.224 . S
C2219 C809 1.224 . S
C2233 C50 1.218 . S
C2237 C314 1.218 . S
C2251 C875 1.220 . S
C2255 C83 1.220 . S
C2269 C380 1.220 1_554 S
C2273 C116 1.220 1_556 S
C2287 C941 1.223 . S
C2291 C149 1.223 . S
C2305 C446 1.222 . S
C2309 C182 1.222 . S
C2323 C1007 1.220 . S
C2327 C215 1.220 . S
C2341 C512 1.218 1_556 S
C2345 C248 1.218 1_554 S
C2359 C281 1.224 . S
C2363 C545 1.224 . S
C2377 C611 1.218 . S
C2381 C347 1.218 . S
C2395 C413 1.221 . S
C2399 C677 1.221 . S
C2413 C479 1.218 . S
C2417 C743 1.218 . S
C2431 C842 1.218 1_554 S
C2435 C578 1.218 1_556 S
C2449 C644 1.224 . S
C2453 C908 1.224 . S
C2467 C974 1.216 1_556 S
C2471 C710 1.216 1_554 S
C2485 C1040 1.219 . S
C2489 C776 1.219 . S
