# Generated by pormake.
# Topology zfi, (5)-cn, num edge types: 1
# Building blocks:
#     Node 0, Type 0, BuildingBlock: BEQFEK_clean_sbu_0, # of connection points: 5
#     Node 1, Type 0, BuildingBlock: BEQFEK_clean_sbu_0, # of connection points: 5
#     Node 2, Type 0, BuildingBlock: BEQFEK_clean_sbu_0, # of connection points: 5
#     Node 3, Type 0, BuildingBlock: BEQFEK_clean_sbu_0, # of connection points: 5
#     Node 4, Type 0, BuildingBlock: BEQFEK_clean_sbu_0, # of connection points: 5
#     Node 5, Type 0, BuildingBlock: BEQFEK_clean_sbu_0, # of connection points: 5
#     Node 6, Type 0, BuildingBlock: BEQFEK_clean_sbu_0, # of connection points: 5
#     Node 7, Type 0, BuildingBlock: BEQFEK_clean_sbu_0, # of connection points: 5
#     Node 8, Type 0, BuildingBlock: BEQFEK_clean_sbu_0, # of connection points: 5
#     Node 9, Type 0, BuildingBlock: BEQFEK_clean_sbu_0, # of connection points: 5
#     Node 10, Type 0, BuildingBlock: BEQFEK_clean_sbu_0, # of connection points: 5
#     Node 11, Type 0, BuildingBlock: BEQFEK_clean_sbu_0, # of connection points: 5
#     Node 12, Type 0, BuildingBlock: BEQFEK_clean_sbu_0, # of connection points: 5
#     Node 13, Type 0, BuildingBlock: BEQFEK_clean_sbu_0, # of connection points: 5
#     Node 14, Type 0, BuildingBlock: BEQFEK_clean_sbu_0, # of connection points: 5
#     Node 15, Type 0, BuildingBlock: BEQFEK_clean_sbu_0, # of connection points: 5
#     Edge 16, Type (0, 0), BuildingBlock: MIFKUJ_clean_linker_0, # of connection points: 2
#     Edge 17, Type (0, 0), BuildingBlock: MIFKUJ_clean_linker_0, # of connection points: 2
#     Edge 18, Type (0, 0), BuildingBlock: MIFKUJ_clean_linker_0, # of connection points: 2
#     Edge 19, Type (0, 0), BuildingBlock: MIFKUJ_clean_linker_0, # of connection points: 2
#     Edge 20, Type (0, 0), BuildingBlock: MIFKUJ_clean_linker_0, # of connection points: 2
#     Edge 21, Type (0, 0), BuildingBlock: MIFKUJ_clean_linker_0, # of connection points: 2
#     Edge 22, Type (0, 0), BuildingBlock: MIFKUJ_clean_linker_0, # of connection points: 2
#     Edge 23, Type (0, 0), BuildingBlock: MIFKUJ_clean_linker_0, # of connection points: 2
#     Edge 24, Type (0, 0), BuildingBlock: MIFKUJ_clean_linker_0, # of connection points: 2
#     Edge 25, Type (0, 0), BuildingBlock: MIFKUJ_clean_linker_0, # of connection points: 2
#     Edge 26, Type (0, 0), BuildingBlock: MIFKUJ_clean_linker_0, # of connection points: 2
#     Edge 27, Type (0, 0), BuildingBlock: MIFKUJ_clean_linker_0, # of connection points: 2
#     Edge 28, Type (0, 0), BuildingBlock: MIFKUJ_clean_linker_0, # of connection points: 2
#     Edge 29, Type (0, 0), BuildingBlock: MIFKUJ_clean_linker_0, # of connection points: 2
#     Edge 30, Type (0, 0), BuildingBlock: MIFKUJ_clean_linker_0, # of connection points: 2
#     Edge 31, Type (0, 0), BuildingBlock: MIFKUJ_clean_linker_0, # of connection points: 2
#     Edge 32, Type (0, 0), BuildingBlock: MIFKUJ_clean_linker_0, # of connection points: 2
#     Edge 33, Type (0, 0), BuildingBlock: MIFKUJ_clean_linker_0, # of connection points: 2
#     Edge 34, Type (0, 0), BuildingBlock: MIFKUJ_clean_linker_0, # of connection points: 2
#     Edge 35, Type (0, 0), BuildingBlock: MIFKUJ_clean_linker_0, # of connection points: 2
#     Edge 36, Type (0, 0), BuildingBlock: MIFKUJ_clean_linker_0, # of connection points: 2
#     Edge 37, Type (0, 0), BuildingBlock: MIFKUJ_clean_linker_0, # of connection points: 2
#     Edge 38, Type (0, 0), BuildingBlock: MIFKUJ_clean_linker_0, # of connection points: 2
#     Edge 39, Type (0, 0), BuildingBlock: MIFKUJ_clean_linker_0, # of connection points: 2
#     Edge 40, Type (0, 0), BuildingBlock: MIFKUJ_clean_linker_0, # of connection points: 2
#     Edge 41, Type (0, 0), BuildingBlock: MIFKUJ_clean_linker_0, # of connection points: 2
#     Edge 42, Type (0, 0), BuildingBlock: MIFKUJ_clean_linker_0, # of connection points: 2
#     Edge 43, Type (0, 0), BuildingBlock: MIFKUJ_clean_linker_0, # of connection points: 2
#     Edge 44, Type (0, 0), BuildingBlock: MIFKUJ_clean_linker_0, # of connection points: 2
#     Edge 45, Type (0, 0), BuildingBlock: MIFKUJ_clean_linker_0, # of connection points: 2
#     Edge 46, Type (0, 0), BuildingBlock: MIFKUJ_clean_linker_0, # of connection points: 2
#     Edge 47, Type (0, 0), BuildingBlock: MIFKUJ_clean_linker_0, # of connection points: 2
#     Edge 48, Type (0, 0), BuildingBlock: MIFKUJ_clean_linker_0, # of connection points: 2
#     Edge 49, Type (0, 0), BuildingBlock: MIFKUJ_clean_linker_0, # of connection points: 2
#     Edge 50, Type (0, 0), BuildingBlock: MIFKUJ_clean_linker_0, # of connection points: 2
#     Edge 51, Type (0, 0), BuildingBlock: MIFKUJ_clean_linker_0, # of connection points: 2
#     Edge 52, Type (0, 0), BuildingBlock: MIFKUJ_clean_linker_0, # of connection points: 2
#     Edge 53, Type (0, 0), BuildingBlock: MIFKUJ_clean_linker_0, # of connection points: 2
#     Edge 54, Type (0, 0), BuildingBlock: MIFKUJ_clean_linker_0, # of connection points: 2
#     Edge 55, Type (0, 0), BuildingBlock: MIFKUJ_clean_linker_0, # of connection points: 2
# Relax obj value: 0.224
# Max RMSD: 0.190
# Mean RMSD: 0.190
data_MOF--net-zfi--node1-BEQFEK_clean_sbu_0--edge1-MIFKUJ_clean_linker_0
_symmetry_space_group_name_H-M    P1
_symmetry_Int_Tables_number       1
_symmetry_cell_setting            triclinic
loop_
_symmetry_equiv_pos_as_xyz
'x, y, z'
_cell_length_a     46.33423
_cell_length_b     46.361703
_cell_length_c     74.679528
_cell_angle_alpha  89.937892
_cell_angle_beta   89.996091
_cell_angle_gamma 90.008215
loop_
_atom_site_label
_atom_site_type_symbol
_atom_site_fract_x
_atom_site_fract_y
_atom_site_fract_z
_atom_type_partial_charge
Co0 Co 0.61861 0.08793 0.12483 0.0
Co1 Co 0.60162 0.02373 0.133 0.0
C2 C 0.59248 0.06976 0.16027 0.0
O3 O 0.60302 0.0891 0.15 0.0
O4 O 0.58984 0.04377 0.15508 0.0
C5 C 0.64612 0.13925 0.12915 0.0
O6 O 0.65017 0.12547 0.14432 0.0
C7 C 0.56465 0.97243 0.13849 0.0
C8 C 0.59635 0.93773 0.13341 0.0
C9 C 0.5677 0.94269 0.13765 0.0
N10 N 0.59039 0.98443 0.13471 0.0
N11 N 0.60922 0.96355 0.13181 0.0
C12 C 0.53833 0.9891 0.14375 0.0
H13 H 0.5279 0.97879 0.15551 0.0
H14 H 0.54396 0.0118 0.14686 0.0
H15 H 0.5225 0.98901 0.13263 0.0
C16 C 0.58132 0.07589 0.09255 0.0
N17 N 0.5931 0.06857 0.10849 0.0
N18 N 0.58664 0.04144 0.11198 0.0
C19 C 0.57096 0.03064 0.09835 0.0
C20 C 0.56659 0.05213 0.08574 0.0
C21 C 0.58501 0.10466 0.08383 0.0
H22 H 0.58307 0.12198 0.09401 0.0
H23 H 0.56886 0.10794 0.07304 0.0
H24 H 0.60699 0.10595 0.07797 0.0
O25 O 0.65623 0.06778 0.12561 0.0
O26 O 0.64401 0.02292 0.13224 0.0
H27 H 0.58165 0.9857 0.10069 0.0
H28 H 0.55892 0.99409 0.08194 0.0
C29 C 0.56352 -0.0006 0.09612 0.0
H30 H 0.54407 0.99432 0.10413 0.0
H31 H 0.63085 0.9669 0.12854 0.0
O32 O 0.63011 0.12763 0.11732 0.0
C33 C 0.66314 0.04186 0.12906 0.0
Co34 Co 0.4066 0.61743 0.12716 0.0
Co35 Co 0.47225 0.60539 0.13427 0.0
C36 C 0.42763 0.59633 0.16302 0.0
O37 O 0.40672 0.60355 0.1528 0.0
O38 O 0.45349 0.59594 0.15725 0.0
C39 C 0.34719 0.63307 0.13004 0.0
O40 O 0.35131 0.6266 0.14697 0.0
C41 C 0.52518 0.5715 0.1411 0.0
C42 C 0.55847 0.60299 0.13283 0.0
C43 C 0.55478 0.57525 0.13932 0.0
N44 N 0.51207 0.59588 0.13569 0.0
N45 N 0.53212 0.61461 0.13085 0.0
C46 C 0.50966 0.54589 0.14863 0.0
H47 H 0.48774 0.55198 0.1532 0.0
H48 H 0.50743 0.52915 0.13814 0.0
H49 H 0.52211 0.53648 0.15991 0.0
C50 C 0.41946 0.57848 0.09583 0.0
N51 N 0.42677 0.59177 0.11128 0.0
N52 N 0.45435 0.587 0.11446 0.0
C53 C 0.46538 0.57076 0.10116 0.0
C54 C 0.44366 0.56445 0.08903 0.0
C55 C 0.39026 0.58031 0.08742 0.0
H56 H 0.37338 0.57746 0.09782 0.0
H57 H 0.38763 0.56384 0.07676 0.0
H58 H 0.38746 0.60209 0.08148 0.0
O59 O 0.42488 0.65603 0.12658 0.0
O60 O 0.4712 0.6474 0.13123 0.0
H61 H 0.50972 0.58408 0.10159 0.0
H62 H 0.50182 0.55721 0.08498 0.0
C63 C 0.49687 0.56447 0.09878 0.0
H64 H 0.50341 0.54724 0.10822 0.0
H65 H 0.5278 0.63532 0.12607 0.0
O66 O 0.36698 0.62736 0.11877 0.0
C67 C 0.45065 0.6649 0.12835 0.0
Co68 Co 0.87958 0.41452 0.12658 0.0
Co69 Co 0.89172 0.47977 0.13446 0.0
C70 C 0.90472 0.43462 0.16185 0.0
O71 O 0.89574 0.41446 0.15163 0.0
O72 O 0.90517 0.46075 0.1566 0.0
C73 C 0.8562 0.36088 0.13101 0.0
O74 O 0.85384 0.37288 0.14687 0.0
C75 C 0.92533 0.53258 0.14034 0.0
C76 C 0.89414 0.56577 0.1315 0.0
C77 C 0.92216 0.56199 0.13752 0.0
N78 N 0.90039 0.51963 0.13593 0.0
N79 N 0.88169 0.53962 0.13098 0.0
C80 C 0.95217 0.51663 0.14543 0.0
H81 H 0.95063 0.49368 0.14131 0.0
H82 H 0.97139 0.5268 0.13918 0.0
H83 H 0.95481 0.51748 0.16019 0.0
C84 C 0.91659 0.42875 0.09442 0.0
N85 N 0.90355 0.43552 0.11007 0.0
N86 N 0.90799 0.46307 0.11343 0.0
C87 C 0.92359 0.47468 0.09999 0.0
C88 C 0.93 0.45334 0.0876 0.0
C89 C 0.91597 0.39941 0.08617 0.0
H90 H 0.91684 0.38265 0.09678 0.0
H91 H 0.9342 0.39652 0.07669 0.0
H92 H 0.89539 0.39674 0.07876 0.0
O93 O 0.84064 0.43202 0.12778 0.0
O94 O 0.84941 0.47781 0.13392 0.0
H95 H 0.93536 0.51196 0.08397 0.0
H96 H 0.94787 0.51235 0.10678 0.0
C97 C 0.92964 0.50627 0.09796 0.0
H98 H 0.91035 0.51892 0.10176 0.0
H99 H 0.86075 0.53529 0.12659 0.0
O100 O 0.86999 0.37441 0.11888 0.0
C101 C 0.83176 0.45737 0.1311 0.0
Co102 Co 0.08994 0.88229 0.12543 0.0
Co103 Co 0.02509 0.89425 0.13512 0.0
C104 C 0.07312 0.90595 0.16128 0.0
O105 O 0.0929 0.89757 0.15057 0.0
O106 O 0.04671 0.90619 0.15659 0.0
C107 C 0.15106 0.8703 0.12478 0.0
O108 O 0.15118 0.8821 0.14076 0.0
C109 C 0.97242 0.928 0.14315 0.0
C110 C 0.93917 0.89435 0.13935 0.0
C111 C 0.94286 0.92311 0.14374 0.0
N112 N 0.98546 0.90319 0.13849 0.0
N113 N 0.96544 0.88318 0.13635 0.0
C114 C 0.98814 0.95514 0.14789 0.0
H115 H 0.01094 0.9504 0.15131 0.0
H116 H 0.98794 0.97009 0.13631 0.0
H117 H 0.97731 0.96606 0.15928 0.0
C118 C 0.07313 0.91971 0.09402 0.0
N119 N 0.06751 0.90669 0.10985 0.0
N120 N 0.04012 0.91084 0.11386 0.0
C121 C 0.02742 0.92603 0.10064 0.0
C122 C 0.04793 0.93265 0.08774 0.0
C123 C 0.10195 0.91931 0.08503 0.0
H124 H 0.11937 0.92038 0.09521 0.0
H125 H 0.10408 0.93752 0.07546 0.0
H126 H 0.10431 0.89874 0.07759 0.0
O127 O 0.07217 0.84355 0.12725 0.0
O128 O 0.02645 0.85212 0.13375 0.0
H129 H 0.98889 0.93462 0.08509 0.0
H130 H 0.9895 0.95014 0.10713 0.0
C131 C 0.99554 0.93092 0.09918 0.0
H132 H 0.98364 0.91196 0.10435 0.0
H133 H 0.96969 0.86189 0.1327 0.0
O134 O 0.12826 0.87168 0.11533 0.0
C135 C 0.04687 0.83459 0.13066 0.0
Co136 Co 0.1198 0.91092 0.38763 0.0
Co137 Co 0.10435 0.97502 0.37779 0.0
C138 C 0.09358 0.92711 0.35196 0.0
O139 O 0.10365 0.90822 0.36273 0.0
O140 O 0.09186 0.95355 0.35638 0.0
C141 C 0.12766 0.84741 0.40267 0.0
O142 O 0.10239 0.84156 0.40974 0.0
C143 C 0.0703 0.02762 0.36923 0.0
C144 C 0.10182 0.06115 0.37699 0.0
C145 C 0.07423 0.05732 0.37028 0.0
N146 N 0.09444 0.01469 0.37527 0.0
N147 N 0.11318 0.0349 0.37977 0.0
C148 C 0.04473 0.01176 0.36195 0.0
H149 H 0.05089 0.9898 0.35759 0.0
H150 H 0.02815 0.00962 0.37258 0.0
H151 H 0.03512 0.02379 0.35056 0.0
C152 C 0.08412 0.92719 0.42034 0.0
N153 N 0.09553 0.93242 0.40396 0.0
N154 N 0.08924 0.9592 0.3994 0.0
C155 C 0.07366 0.97159 0.41255 0.0
C156 C 0.06957 0.95174 0.42618 0.0
C157 C 0.08722 0.89936 0.43023 0.0
H158 H 0.10973 0.89146 0.42905 0.0
H159 H 0.07261 0.88323 0.42408 0.0
H160 H 0.08136 0.90166 0.44455 0.0
O161 O 0.15776 0.92995 0.38545 0.0
O162 O 0.14684 0.97483 0.37815 0.0
H163 H 0.08448 0.01628 0.40987 0.0
H164 H 0.05681 0.00946 0.42616 0.0
C165 C 0.06536 0.00281 0.41293 0.0
H166 H 0.04865 0.00687 0.40264 0.0
H167 H 0.13373 0.03077 0.38488 0.0
O168 O 0.13233 0.87171 0.3953 0.0
C169 C 0.16543 0.95539 0.38135 0.0
Co170 Co 0.59113 0.11768 0.38707 0.0
Co171 Co 0.5262 0.10382 0.37841 0.0
C172 C 0.57251 0.09309 0.3514 0.0
O173 O 0.59224 0.10248 0.36182 0.0
O174 O 0.54631 0.09179 0.35643 0.0
C175 C 0.65565 0.12461 0.40086 0.0
O176 O 0.66218 0.0988 0.40687 0.0
C177 C 0.47266 0.0708 0.3707 0.0
C178 C 0.43997 0.10299 0.37878 0.0
C179 C 0.44308 0.07532 0.3721 0.0
N180 N 0.48625 0.09469 0.37651 0.0
N181 N 0.46653 0.11382 0.38122 0.0
C182 C 0.48777 0.04491 0.36327 0.0
H183 H 0.48971 0.02822 0.37384 0.0
H184 H 0.47527 0.03566 0.35197 0.0
H185 H 0.50981 0.05058 0.35874 0.0
C186 C 0.57603 0.08091 0.41953 0.0
N187 N 0.57012 0.09299 0.40342 0.0
N188 N 0.54291 0.08756 0.39943 0.0
C189 C 0.53087 0.07196 0.41271 0.0
C190 C 0.55142 0.06686 0.4258 0.0
C191 C 0.60453 0.08303 0.42877 0.0
H192 H 0.61249 0.10557 0.42811 0.0
H193 H 0.6202 0.06901 0.4217 0.0
H194 H 0.60314 0.07594 0.44293 0.0
O195 O 0.57241 0.15591 0.3863 0.0
O196 O 0.52703 0.14615 0.37955 0.0
H197 H 0.48642 0.08432 0.41096 0.0
H198 H 0.49321 0.05668 0.42727 0.0
C199 C 0.49938 0.0648 0.41384 0.0
H200 H 0.49415 0.04808 0.40378 0.0
H201 H 0.47122 0.13431 0.38621 0.0
O202 O 0.63083 0.12958 0.39427 0.0
C203 C 0.54689 0.1642 0.3829 0.0
Co204 Co 0.3819 0.591 0.39029 0.0
Co205 Co 0.39692 0.52595 0.38363 0.0
C206 C 0.4053 0.56956 0.35467 0.0
O207 O 0.3963 0.58997 0.36473 0.0
O208 O 0.40739 0.5438 0.36052 0.0
C209 C 0.3599 0.64699 0.38611 0.0
O210 O 0.3596 0.63835 0.36937 0.0
C211 C 0.43037 0.47213 0.379 0.0
C212 C 0.40098 0.44133 0.39241 0.0
C213 C 0.42785 0.44372 0.38451 0.0
N214 N 0.40611 0.48607 0.38374 0.0
N215 N 0.3884 0.46735 0.39135 0.0
C216 C 0.45637 0.48637 0.37109 0.0
H217 H 0.45487 0.51017 0.37245 0.0
H218 H 0.47628 0.47832 0.37769 0.0
H219 H 0.45769 0.48079 0.35667 0.0
C220 C 0.4205 0.58038 0.4221 0.0
N221 N 0.40783 0.57219 0.4066 0.0
N222 N 0.4142 0.54494 0.40354 0.0
C223 C 0.43112 0.53505 0.4169 0.0
C224 C 0.43595 0.55714 0.42902 0.0
C225 C 0.41701 0.60953 0.43032 0.0
H226 H 0.42051 0.62638 0.41998 0.0
H227 H 0.43227 0.61272 0.44161 0.0
H228 H 0.39455 0.61182 0.43529 0.0
O229 O 0.34366 0.57206 0.39086 0.0
O230 O 0.35476 0.5265 0.38565 0.0
H231 H 0.42091 0.49001 0.41769 0.0
H232 H 0.44957 0.50003 0.4325 0.0
C233 C 0.43997 0.50418 0.41917 0.0
H234 H 0.45608 0.49855 0.4088 0.0
H235 H 0.36828 0.47269 0.39668 0.0
O236 O 0.37165 0.63091 0.39785 0.0
C237 C 0.33614 0.54599 0.38856 0.0
Co238 Co 0.91088 0.37937 0.38742 0.0
Co239 Co 0.97561 0.39366 0.37853 0.0
C240 C 0.92823 0.40809 0.35273 0.0
O241 O 0.90871 0.39771 0.36297 0.0
O242 O 0.95462 0.40867 0.35748 0.0
C243 C 0.85331 0.35968 0.38563 0.0
O244 O 0.85836 0.36271 0.36843 0.0
C245 C 0.02928 0.42726 0.37227 0.0
C246 C 0.06176 0.39429 0.37947 0.0
C247 C 0.05875 0.42269 0.37406 0.0
N248 N 0.01555 0.40268 0.37674 0.0
N249 N 0.03515 0.38305 0.38083 0.0
C250 C 0.01452 0.45409 0.36588 0.0
H251 H 0.01185 0.46933 0.37718 0.0
H252 H 0.02775 0.4649 0.35545 0.0
H253 H 0.99283 0.449 0.36049 0.0
C254 C 0.92704 0.41147 0.42097 0.0
N255 N 0.93282 0.40161 0.40432 0.0
N256 N 0.96005 0.40702 0.40054 0.0
C257 C 0.9725 0.42012 0.41468 0.0
C258 C 0.95211 0.42338 0.42813 0.0
C259 C 0.89875 0.40736 0.43024 0.0
H260 H 0.89471 0.38393 0.43201 0.0
H261 H 0.88117 0.41605 0.42169 0.0
H262 H 0.89841 0.41811 0.4435 0.0
O263 O 0.92866 0.34103 0.38407 0.0
O264 O 0.97404 0.35126 0.37746 0.0
H265 H 0.01757 0.41012 0.41316 0.0
H266 H 0.00937 0.43943 0.42825 0.0
C267 C 0.00354 0.42915 0.41537 0.0
H268 H 0.00768 0.44498 0.40462 0.0
H269 H 0.03033 0.36206 0.38489 0.0
O270 O 0.8721 0.36855 0.39676 0.0
C271 C 0.95398 0.333 0.3799 0.0
Co272 Co 0.37841 0.90923 0.88834 0.0
Co273 Co 0.38783 0.97531 0.88174 0.0
C274 C 0.39815 0.9309 0.85272 0.0
O275 O 0.39246 0.90945 0.86287 0.0
O276 O 0.39707 0.95663 0.85863 0.0
C277 C 0.36667 0.84834 0.8864 0.0
O278 O 0.3757 0.85086 0.8698 0.0
C279 C 0.42205 0.02781 0.87518 0.0
C280 C 0.39038 0.06156 0.88232 0.0
C281 C 0.41853 0.05744 0.87664 0.0
N282 N 0.39717 0.01508 0.88003 0.0
N283 N 0.37831 0.03538 0.88417 0.0
C284 C 0.44796 0.01185 0.86845 0.0
H285 H 0.44184 0.99002 0.86376 0.0
H286 H 0.46388 0.00938 0.87942 0.0
H287 H 0.45842 0.02408 0.85743 0.0
C288 C 0.41756 0.92272 0.91947 0.0
N289 N 0.4035 0.92999 0.90425 0.0
N290 N 0.407 0.95782 0.90138 0.0
C291 C 0.423 0.96911 0.91472 0.0
C292 C 0.43064 0.94728 0.92646 0.0
C293 C 0.41743 0.89315 0.92744 0.0
H294 H 0.42052 0.87686 0.91673 0.0
H295 H 0.43452 0.89085 0.93776 0.0
H296 H 0.39609 0.88913 0.93371 0.0
O297 O 0.33928 0.92658 0.88843 0.0
O298 O 0.34594 0.97356 0.88523 0.0
H299 H 0.40799 0.01295 0.91408 0.0
H300 H 0.43322 0.00547 0.93177 0.0
C301 C 0.42771 0.00075 0.91762 0.0
H302 H 0.44579 0.00823 0.90911 0.0
H303 H 0.35724 0.03135 0.88843 0.0
O304 O 0.36937 0.86964 0.89699 0.0
C305 C 0.32932 0.95206 0.88737 0.0
Co306 Co 0.58606 0.37912 0.89 0.0
Co307 Co 0.52056 0.39188 0.88297 0.0
C308 C 0.5661 0.40252 0.85476 0.0
O309 O 0.58712 0.39506 0.86483 0.0
O310 O 0.54026 0.40228 0.86054 0.0
C311 C 0.64718 0.36668 0.88861 0.0
O312 O 0.64592 0.37817 0.87255 0.0
C313 C 0.46964 0.42849 0.87667 0.0
C314 C 0.43439 0.39738 0.88175 0.0
C315 C 0.43983 0.4258 0.87713 0.0
N316 N 0.48122 0.40284 0.88103 0.0
N317 N 0.46004 0.38435 0.88399 0.0
C318 C 0.48684 0.45437 0.8712 0.0
H319 H 0.50933 0.4482 0.8679 0.0
H320 H 0.48747 0.4701 0.88236 0.0
H321 H 0.47656 0.4651 0.85954 0.0
C322 C 0.57303 0.4164 0.92213 0.0
N323 N 0.56573 0.40374 0.90646 0.0
N324 N 0.53813 0.40851 0.90341 0.0
C325 C 0.52702 0.42398 0.91702 0.0
C326 C 0.54874 0.42993 0.9292 0.0
C327 C 0.60237 0.4147 0.93036 0.0
H328 H 0.61907 0.41799 0.9199 0.0
H329 H 0.60495 0.43093 0.94116 0.0
H330 H 0.60548 0.39282 0.93607 0.0
O331 O 0.56714 0.34067 0.8888 0.0
O332 O 0.52075 0.3498 0.88466 0.0
H333 H 0.48255 0.41113 0.91531 0.0
H334 H 0.49045 0.43463 0.93381 0.0
C335 C 0.49551 0.42996 0.91959 0.0
H336 H 0.48925 0.44896 0.91149 0.0
H337 H 0.46309 0.3628 0.88758 0.0
O338 O 0.62515 0.36801 0.89873 0.0
C339 C 0.54132 0.33202 0.88669 0.0
Co340 Co 0.11795 0.59043 0.88739 0.0
Co341 Co 0.10652 0.52593 0.87711 0.0
C342 C 0.0939 0.5742 0.85139 0.0
O343 O 0.10242 0.59369 0.86225 0.0
O344 O 0.09377 0.54771 0.85586 0.0
C345 C 0.13122 0.65069 0.88761 0.0
O346 O 0.1216 0.64969 0.87108 0.0
C347 C 0.07252 0.47366 0.86917 0.0
C348 C 0.10624 0.4402 0.87187 0.0
C349 C 0.07723 0.44415 0.86815 0.0
N350 N 0.09764 0.48644 0.87346 0.0
N351 N 0.1177 0.46633 0.87493 0.0
C352 C 0.04519 0.48963 0.86518 0.0
H353 H 0.04982 0.51251 0.86195 0.0
H354 H 0.03083 0.48908 0.87704 0.0
H355 H 0.03361 0.47923 0.85388 0.0
C356 C 0.08132 0.57255 0.91893 0.0
N357 N 0.094 0.56748 0.90293 0.0
N358 N 0.0902 0.54014 0.89873 0.0
C359 C 0.0756 0.52691 0.91203 0.0
C360 C 0.06898 0.547 0.92516 0.0
C361 C 0.0815 0.60115 0.92813 0.0
H362 H 0.08013 0.61877 0.9181 0.0
H363 H 0.06336 0.60287 0.93778 0.0
H364 H 0.10213 0.60359 0.93553 0.0
O365 O 0.15692 0.57313 0.88555 0.0
O366 O 0.14878 0.52776 0.87801 0.0
H367 H 0.06867 0.48797 0.92748 0.0
H368 H 0.0518 0.48867 0.90584 0.0
C369 C 0.0714 0.49492 0.91336 0.0
H370 H 0.09026 0.48349 0.90768 0.0
H371 H 0.13922 0.4704 0.87817 0.0
O372 O 0.12802 0.62874 0.89764 0.0
C373 C 0.16613 0.54817 0.88152 0.0
Co374 Co 0.91135 0.12049 0.88737 0.0
Co375 Co 0.97501 0.10383 0.87732 0.0
C376 C 0.92607 0.09388 0.85182 0.0
O377 O 0.90732 0.10463 0.8624 0.0
O378 O 0.95244 0.09174 0.85634 0.0
C379 C 0.85102 0.13502 0.88712 0.0
O380 O 0.85167 0.1233 0.87113 0.0
C381 C 0.02389 0.06478 0.87057 0.0
C382 C 0.06037 0.09551 0.87104 0.0
C383 C 0.05365 0.06662 0.86894 0.0
N384 N 0.01359 0.09142 0.87366 0.0
N385 N 0.03548 0.10969 0.87379 0.0
C386 C 0.00539 0.0386 0.86814 0.0
H387 H 0.98239 0.04477 0.86664 0.0
H388 H 0.00743 0.02421 0.87992 0.0
H389 H 0.01269 0.02632 0.85622 0.0
C390 C 0.92643 0.08334 0.91931 0.0
N391 N 0.93241 0.0952 0.90317 0.0
N392 N 0.95949 0.0895 0.8991 0.0
C393 C 0.97172 0.07462 0.91262 0.0
C394 C 0.95113 0.06961 0.92574 0.0
C395 C 0.89787 0.08571 0.92847 0.0
H396 H 0.88022 0.08559 0.91843 0.0
H397 H 0.89479 0.06781 0.93818 0.0
H398 H 0.89696 0.10648 0.93582 0.0
O399 O 0.93178 0.15791 0.88536 0.0
O400 O 0.9764 0.14606 0.8778 0.0
H401 H 0.01009 0.06753 0.92854 0.0
H402 H 0.00883 0.0483 0.90773 0.0
C403 C 0.00348 0.06902 0.91429 0.0
H404 H 0.01595 0.08659 0.9079 0.0
H405 H 0.03346 0.13184 0.87591 0.0
O406 O 0.87326 0.13322 0.89707 0.0
C407 C 0.95744 0.16501 0.88127 0.0
Co408 Co 0.88108 0.08987 0.62569 0.0
Co409 Co 0.89521 0.02453 0.63306 0.0
C410 C 0.90616 0.06925 0.66094 0.0
O411 O 0.89696 0.0894 0.65077 0.0
O412 O 0.9074 0.04323 0.65555 0.0
C413 C 0.85337 0.14052 0.63083 0.0
O414 O 0.85022 0.12599 0.64582 0.0
C415 C 0.92712 0.96973 0.63937 0.0
C416 C 0.89343 0.93855 0.6313 0.0
C417 C 0.92131 0.94046 0.63779 0.0
N418 N 0.9036 0.98439 0.63396 0.0
N419 N 0.88362 0.96556 0.62918 0.0
C420 C 0.95379 0.98345 0.64677 0.0
H421 H 0.94968 0.00626 0.65042 0.0
H422 H 0.97112 0.98293 0.63654 0.0
H423 H 0.96149 0.97123 0.65864 0.0
C424 C 0.91792 0.07705 0.59323 0.0
N425 N 0.90564 0.06985 0.60904 0.0
N426 N 0.91135 0.04251 0.61243 0.0
C427 C 0.92728 0.03156 0.59896 0.0
C428 C 0.93228 0.05304 0.58642 0.0
C429 C 0.91526 0.10605 0.58465 0.0
H430 H 0.91589 0.12314 0.59504 0.0
H431 H 0.93269 0.10957 0.57469 0.0
H432 H 0.89411 0.10742 0.57773 0.0
O433 O 0.84285 0.07127 0.62649 0.0
O434 O 0.85289 0.02562 0.63213 0.0
H435 H 0.91574 0.98683 0.59982 0.0
H436 H 0.94323 0.99505 0.58364 0.0
C437 C 0.93501 0.00032 0.59719 0.0
H438 H 0.95184 0.99488 0.60716 0.0
H439 H 0.86318 0.97113 0.62446 0.0
O440 O 0.8698 0.13004 0.61879 0.0
C441 C 0.83471 0.04559 0.62942 0.0
Co442 Co 0.4097 0.88252 0.62607 0.0
Co443 Co 0.47444 0.89563 0.63487 0.0
C444 C 0.42798 0.90812 0.66156 0.0
O445 O 0.40819 0.8989 0.65109 0.0
O446 O 0.45429 0.90883 0.65661 0.0
C447 C 0.35034 0.86687 0.62763 0.0
O448 O 0.35347 0.8736 0.6446 0.0
C449 C 0.52782 0.92886 0.64064 0.0
C450 C 0.56026 0.89687 0.63183 0.0
C451 C 0.55708 0.92512 0.63748 0.0
N452 N 0.51434 0.90401 0.63666 0.0
N453 N 0.53392 0.88483 0.6318 0.0
C454 C 0.51254 0.95613 0.64555 0.0
H455 H 0.4893 0.9547 0.64203 0.0
H456 H 0.52257 0.97486 0.63868 0.0
H457 H 0.51445 0.95954 0.6602 0.0
C458 C 0.42486 0.91853 0.59379 0.0
N459 N 0.4312 0.90634 0.60978 0.0
N460 N 0.4585 0.91148 0.61354 0.0
C461 C 0.47035 0.92685 0.60007 0.0
C462 C 0.44944 0.9322 0.58721 0.0
C463 C 0.39598 0.91665 0.58496 0.0
H464 H 0.37874 0.92051 0.59499 0.0
H465 H 0.39407 0.93243 0.57383 0.0
H466 H 0.39301 0.89454 0.57959 0.0
O467 O 0.42732 0.84369 0.62788 0.0
O468 O 0.47274 0.85345 0.63448 0.0
H469 H 0.51487 0.91478 0.6024 0.0
H470 H 0.50785 0.93983 0.58461 0.0
C471 C 0.50184 0.93375 0.59849 0.0
H472 H 0.50711 0.95202 0.60745 0.0
H473 H 0.52915 0.86389 0.62765 0.0
O474 O 0.37076 0.87245 0.61679 0.0
C475 C 0.45274 0.83538 0.63157 0.0
Co476 Co 0.62136 0.41541 0.62819 0.0
Co477 Co 0.61299 0.48155 0.63483 0.0
C478 C 0.60054 0.43733 0.66356 0.0
O479 O 0.60575 0.41585 0.65338 0.0
O480 O 0.60256 0.46306 0.65774 0.0
C481 C 0.64007 0.35891 0.63206 0.0
O482 O 0.64095 0.36809 0.64868 0.0
C483 C 0.5789 0.53397 0.64112 0.0
C484 C 0.61057 0.56788 0.63422 0.0
C485 C 0.58229 0.56362 0.63965 0.0
N486 N 0.60392 0.52137 0.63646 0.0
N487 N 0.6228 0.54175 0.63248 0.0
C488 C 0.55289 0.51785 0.6476 0.0
H489 H 0.55904 0.49627 0.65269 0.0
H490 H 0.53756 0.51477 0.63637 0.0
H491 H 0.54175 0.53022 0.65828 0.0
C492 C 0.58407 0.42987 0.59636 0.0
N493 N 0.59763 0.43674 0.61182 0.0
N494 N 0.59452 0.46459 0.61472 0.0
C495 C 0.57923 0.4763 0.60118 0.0
C496 C 0.57169 0.45473 0.58925 0.0
C497 C 0.58387 0.40036 0.58836 0.0
H498 H 0.6055 0.39574 0.58267 0.0
H499 H 0.57958 0.38412 0.59896 0.0
H500 H 0.56744 0.39859 0.5776 0.0
O501 O 0.66095 0.43187 0.62896 0.0
O502 O 0.65501 0.47888 0.63256 0.0
H503 H 0.5947 0.51995 0.60212 0.0
H504 H 0.56964 0.51304 0.58424 0.0
C505 C 0.57489 0.50802 0.5984 0.0
H506 H 0.55679 0.51557 0.60685 0.0
H507 H 0.64396 0.5378 0.62838 0.0
O508 O 0.62929 0.37528 0.62013 0.0
C509 C 0.67135 0.4571 0.63066 0.0
Co510 Co 0.09286 0.618 0.62418 0.0
Co511 Co 0.02998 0.59862 0.63412 0.0
C512 C 0.07815 0.59152 0.6602 0.0
O513 O 0.09639 0.60308 0.64954 0.0
O514 O 0.05203 0.58744 0.65555 0.0
C515 C 0.15419 0.63055 0.62331 0.0
O516 O 0.1554 0.61629 0.63849 0.0
C517 C 0.97839 0.56296 0.64261 0.0
C518 C 0.94408 0.59289 0.63374 0.0
C519 C 0.94868 0.56583 0.64103 0.0
N520 N 0.99073 0.58722 0.6363 0.0
N521 N 0.97005 0.605 0.63112 0.0
C522 C 0.99468 0.53813 0.65049 0.0
H523 H 0.98243 0.52856 0.6618 0.0
H524 H 0.0163 0.5451 0.6551 0.0
H525 H 0.99764 0.52124 0.64015 0.0
C526 C 0.07881 0.58225 0.59166 0.0
N527 N 0.07291 0.59221 0.60829 0.0
N528 N 0.04649 0.58439 0.61264 0.0
C529 C 0.03482 0.56935 0.59902 0.0
C530 C 0.05473 0.56755 0.58521 0.0
C531 C 0.10577 0.58932 0.58158 0.0
H532 H 0.12482 0.58398 0.58995 0.0
H533 H 0.10688 0.57745 0.5687 0.0
H534 H 0.10636 0.61287 0.5789 0.0
O535 O 0.07188 0.65498 0.62559 0.0
O536 O 0.02814 0.641 0.6336 0.0
H537 H 0.98911 0.57593 0.59969 0.0
H538 H 6e-05 0.54485 0.58679 0.0
C539 C 0.00464 0.55778 0.59893 0.0
H540 H 0.00148 0.54379 0.61077 0.0
H541 H 0.97368 0.62541 0.62567 0.0
O542 O 0.13068 0.63099 0.61454 0.0
C543 C 0.04606 0.66086 0.62993 0.0
H544 H 0.57404 0.89165 0.15444 0.0
H545 H 0.5431 0.84928 0.15162 0.0
H546 H 0.48187 0.89881 0.12088 0.0
H547 H 0.51308 0.94137 0.12339 0.0
H548 H 0.46166 0.8495 0.15036 0.0
H549 H 0.51321 0.86884 0.09469 0.0
H550 H 0.55649 0.88412 0.07789 0.0
H551 H 0.60557 0.81603 0.10222 0.0
H552 H 0.56268 0.80061 0.11934 0.0
H553 H 0.41313 0.70919 0.12091 0.0
H554 H 0.42383 0.76095 0.12053 0.0
H555 H 0.51252 0.74282 0.13411 0.0
H556 H 0.50229 0.69139 0.13415 0.0
H557 H 0.50972 0.78187 0.10834 0.0
H558 H 0.46211 0.76517 0.16564 0.0
H559 H 0.42132 0.74968 0.18459 0.0
H560 H 0.36627 0.81176 0.15897 0.0
H561 H 0.4067 0.82739 0.13972 0.0
C562 C 0.55358 0.89375 0.14754 0.0
C563 C 0.54582 0.9198 0.13928 0.0
C564 C 0.53591 0.86962 0.14599 0.0
C565 C 0.51031 0.87109 0.13607 0.0
C566 C 0.50141 0.89752 0.12879 0.0
C567 C 0.51918 0.92182 0.13034 0.0
C568 C 0.49585 0.84392 0.13117 0.0
C569 C 0.47155 0.83489 0.14082 0.0
C570 C 0.50917 0.82492 0.11894 0.0
C571 C 0.53481 0.83372 0.10836 0.0
C572 C 0.53329 0.85728 0.09654 0.0
C573 C 0.55773 0.86594 0.08695 0.0
C574 C 0.58377 0.85111 0.08902 0.0
C575 C 0.58539 0.82751 0.10063 0.0
C576 C 0.56102 0.81877 0.11025 0.0
C577 C 0.43494 0.71626 0.12373 0.0
C578 C 0.45686 0.69616 0.12758 0.0
C579 C 0.44096 0.74583 0.12357 0.0
C580 C 0.46892 0.75571 0.12741 0.0
C581 C 0.49082 0.73565 0.13104 0.0
C582 C 0.4849 0.70622 0.13111 0.0
C583 C 0.47584 0.78687 0.12789 0.0
C584 C 0.499 0.79666 0.11743 0.0
C585 C 0.46146 0.80639 0.13944 0.0
C586 C 0.4373 0.7972 0.15112 0.0
C587 C 0.44125 0.77538 0.16398 0.0
C588 C 0.41821 0.7666 0.17478 0.0
C589 C 0.39119 0.77966 0.17294 0.0
C590 C 0.38719 0.80162 0.16035 0.0
C591 C 0.41016 0.81046 0.1495 0.0
H592 H 0.37338 0.77283 0.18131 0.0
H593 H 0.60266 0.85787 0.0816 0.0
H594 H 0.78691 0.41986 0.12505 0.0
H595 H 0.73525 0.42922 0.12916 0.0
H596 H 0.75439 0.51654 0.14511 0.0
H597 H 0.80573 0.50755 0.14107 0.0
H598 H 0.71571 0.4887 0.168 0.0
H599 H 0.73144 0.50272 0.10369 0.0
H600 H 0.74571 0.48615 0.07358 0.0
H601 H 0.68252 0.4185 0.07613 0.0
H602 H 0.66813 0.43448 0.10637 0.0
H603 H 0.60715 0.58785 0.15298 0.0
H604 H 0.64915 0.55649 0.15489 0.0
H605 H 0.59871 0.4853 0.13472 0.0
H606 H 0.55665 0.51707 0.13221 0.0
H607 H 0.64766 0.49042 0.11673 0.0
H608 H 0.62412 0.48377 0.17798 0.0
H609 H 0.60916 0.50032 0.20793 0.0
H610 H 0.68569 0.55212 0.21194 0.0
H611 H 0.70094 0.53626 0.1819 0.0
C612 C 0.78009 0.44109 0.12936 0.0
C613 C 0.80045 0.46299 0.1327 0.0
C614 C 0.7506 0.44635 0.13172 0.0
C615 C 0.74111 0.47352 0.13749 0.0
C616 C 0.76135 0.49535 0.14078 0.0
C617 C 0.7907 0.49021 0.13833 0.0
C618 C 0.71011 0.47988 0.13993 0.0
C619 C 0.70072 0.48906 0.15684 0.0
C620 C 0.69036 0.47903 0.12552 0.0
C621 C 0.699 0.46953 0.10736 0.0
C622 C 0.72078 0.48415 0.09789 0.0
C623 C 0.72885 0.47491 0.08079 0.0
C624 C 0.71511 0.45122 0.07298 0.0
C625 C 0.6932 0.4368 0.08222 0.0
C626 C 0.68507 0.44594 0.09933 0.0
C627 C 0.60485 0.56538 0.14926 0.0
C628 C 0.57852 0.5548 0.14274 0.0
C629 C 0.62881 0.54739 0.15049 0.0
C630 C 0.62694 0.51838 0.14527 0.0
C631 C 0.60048 0.50752 0.13906 0.0
C632 C 0.57638 0.52561 0.13784 0.0
C633 C 0.65355 0.50071 0.14465 0.0
C634 C 0.6622 0.48927 0.1281 0.0
C635 C 0.67257 0.49929 0.15945 0.0
C636 C 0.66364 0.50883 0.17762 0.0
C637 C 0.6377 0.49882 0.18519 0.0
C638 C 0.62917 0.50807 0.2022 0.0
C639 C 0.64645 0.52727 0.21182 0.0
C640 C 0.67233 0.53722 0.20447 0.0
C641 C 0.68097 0.52805 0.18746 0.0
H642 H 0.6398 0.53441 0.22498 0.0
H643 H 0.72138 0.4441 0.05974 0.0
H644 H 0.99485 0.8081 0.13501 0.0
H645 H 0.98551 0.75686 0.13895 0.0
H646 H 0.07643 0.73872 0.13369 0.0
H647 H 0.08608 0.79026 0.12941 0.0
H648 H 0.04386 0.7007 0.11504 0.0
H649 H 0.04666 0.73591 0.17451 0.0
H650 H 0.03572 0.76982 0.199 0.0
H651 H 0.94557 0.74956 0.19475 0.0
H652 H 0.95587 0.7159 0.17002 0.0
H653 H 0.96382 0.57102 0.16309 0.0
H654 H 0.99819 0.61138 0.16441 0.0
H655 H 0.96353 0.64492 0.11497 0.0
H656 H 0.92956 0.60487 0.11355 0.0
H657 H 0.98383 0.66876 0.16644 0.0
H658 H 0.01559 0.67541 0.09071 0.0
H659 H 0.0269 0.64186 0.0661 0.0
H660 H 0.05147 0.57689 0.10416 0.0
H661 H 0.04077 0.61016 0.129 0.0
C662 C 0.01293 0.7933 0.13463 0.0
C663 C 0.04124 0.8033 0.132 0.0
C664 C 0.00755 0.76401 0.13701 0.0
C665 C 0.03037 0.74412 0.13701 0.0
C666 C 0.05859 0.75382 0.13389 0.0
C667 C 0.06402 0.78323 0.13143 0.0
C668 C 0.02418 0.71319 0.13997 0.0
C669 C 0.03109 0.69353 0.12638 0.0
C670 C 0.00835 0.70377 0.1551 0.0
C671 C 0.00207 0.72337 0.17036 0.0
C672 C 0.02449 0.73873 0.17875 0.0
C673 C 0.0184 0.75794 0.19268 0.0
C674 C 0.98998 0.76185 0.19842 0.0
C675 C 0.96759 0.74648 0.1903 0.0
C676 C 0.97355 0.72729 0.17635 0.0
C677 C 0.96405 0.58671 0.15235 0.0
C678 C 0.94424 0.58482 0.13815 0.0
C679 C 0.98353 0.60975 0.15316 0.0
C680 C 0.98365 0.63083 0.13965 0.0
C681 C 0.96417 0.62858 0.12535 0.0
C682 C 0.9446 0.60586 0.12464 0.0
C683 C 0.00203 0.65678 0.14098 0.0
C684 C 0.9974 0.67558 0.15538 0.0
C685 C 0.02024 0.66529 0.1267 0.0
C686 C 0.02727 0.64532 0.11176 0.0
C687 C 0.02364 0.65406 0.09385 0.0
C688 C 0.02988 0.63506 0.07984 0.0
C689 C 0.03986 0.60725 0.08356 0.0
C690 C 0.04368 0.59841 0.10129 0.0
C691 C 0.03749 0.61733 0.11534 0.0
H692 H 0.04464 0.59257 0.07269 0.0
H693 H 0.9853 0.77678 0.20917 0.0
H694 H 0.89303 0.91242 0.1612 0.0
H695 H 0.84868 0.94071 0.15974 0.0
H696 H 0.89328 0.00732 0.13042 0.0
H697 H 0.9378 0.97888 0.1316 0.0
H698 H 0.84615 0.02591 0.15711 0.0
H699 H 0.86455 0.96596 0.10542 0.0
H700 H 0.87907 0.92056 0.0908 0.0
H701 H 0.80901 0.87616 0.11648 0.0
H702 H 0.79441 0.92122 0.13152 0.0
H703 H 0.71052 0.0752 0.12137 0.0
H704 H 0.76138 0.06151 0.12406 0.0
H705 H 0.73606 0.97691 0.14241 0.0
H706 H 0.68547 0.99006 0.13937 0.0
H707 H 0.77719 0.97282 0.11835 0.0
H708 H 0.76012 0.03045 0.17134 0.0
H709 H 0.7457 0.07452 0.18751 0.0
H710 H 0.81215 0.12244 0.16061 0.0
H711 H 0.82674 0.07869 0.14411 0.0
C712 C 0.89362 0.93348 0.15491 0.0
C713 C 0.91885 0.94347 0.14654 0.0
C714 C 0.86833 0.94963 0.15413 0.0
C715 C 0.8678 0.97591 0.14486 0.0
C716 C 0.89346 0.98715 0.13775 0.0
C717 C 0.9189 0.97092 0.13852 0.0
C718 C 0.83967 0.98884 0.14027 0.0
C719 C 0.83116 0.01471 0.14839 0.0
C720 C 0.8202 0.9739 0.12904 0.0
C721 C 0.82854 0.94691 0.1197 0.0
C722 C 0.85237 0.94647 0.10805 0.0
C723 C 0.8606 0.9208 0.09968 0.0
C724 C 0.845 0.89548 0.10273 0.0
C725 C 0.82109 0.89579 0.11413 0.0
C726 C 0.81281 0.92139 0.12257 0.0
C727 C 0.71581 0.05365 0.12591 0.0
C728 C 0.69393 0.03371 0.13014 0.0
C729 C 0.74487 0.04593 0.12754 0.0
C730 C 0.75248 0.01829 0.1336 0.0
C731 C 0.73067 0.99835 0.13768 0.0
C732 C 0.70172 0.00593 0.13594 0.0
C733 C 0.78307 0.00962 0.13558 0.0
C734 C 0.79217 0.98444 0.12687 0.0
C735 C 0.80289 0.02519 0.14633 0.0
C736 C 0.7943 0.0514 0.15635 0.0
C737 C 0.77152 0.05044 0.16878 0.0
C738 C 0.76334 0.07534 0.17802 0.0
C739 C 0.77794 0.10128 0.17505 0.0
C740 C 0.80083 0.10234 0.16287 0.0
C741 C 0.80907 0.0775 0.15359 0.0
H742 H 0.77157 0.12054 0.18221 0.0
H743 H 0.85142 0.87562 0.09624 0.0
H744 H 0.91607 0.28759 0.38189 0.0
H745 H 0.92627 0.23661 0.37612 0.0
H746 H 0.01547 0.25747 0.36574 0.0
H747 H 0.00554 0.30826 0.37126 0.0
H748 H 0.99293 0.22074 0.34054 0.0
H749 H 0.99346 0.22979 0.40625 0.0
H750 H 0.97003 0.24125 0.43505 0.0
H751 H 0.90321 0.1796 0.42396 0.0
H752 H 0.92614 0.16798 0.39501 0.0
H753 H 0.08849 0.11016 0.3579 0.0
H754 H 0.05764 0.15224 0.35509 0.0
H755 H 0.98374 0.10122 0.37046 0.0
H756 H 0.01498 0.05921 0.3743 0.0
H757 H 0.98457 0.14806 0.38905 0.0
H758 H 0.99008 0.13027 0.32712 0.0
H759 H 0.01215 0.11805 0.29807 0.0
H760 H 0.06414 0.19461 0.30044 0.0
H761 H 0.04273 0.20711 0.32963 0.0
C762 C 0.93788 0.28131 0.37842 0.0
C763 C 0.96003 0.30201 0.37709 0.0
C764 C 0.94363 0.25218 0.37511 0.0
C765 C 0.97162 0.24332 0.37051 0.0
C766 C 0.99367 0.26392 0.36916 0.0
C767 C 0.98798 0.29294 0.37243 0.0
C768 C 0.97858 0.21258 0.36747 0.0
C769 C 0.99115 0.20475 0.3511 0.0
C770 C 0.97482 0.19147 0.38095 0.0
C771 C 0.96132 0.19826 0.39842 0.0
C772 C 0.97368 0.21881 0.40992 0.0
C773 C 0.96052 0.22531 0.42627 0.0
C774 C 0.93511 0.21122 0.43131 0.0
C775 C 0.92287 0.19052 0.42003 0.0
C776 C 0.93595 0.18396 0.40366 0.0
C777 C 0.06559 0.10772 0.36041 0.0
C778 C 0.05417 0.08118 0.36605 0.0
C779 C 0.04787 0.13178 0.3586 0.0
C780 C 0.01819 0.12983 0.36219 0.0
C781 C 0.0065 0.10314 0.36739 0.0
C782 C 0.02436 0.079 0.36934 0.0
C783 C 0.0005 0.15649 0.3624 0.0
C784 C 0.98572 0.16361 0.37821 0.0
C785 C 0.0019 0.17686 0.34828 0.0
C786 C 0.01479 0.16959 0.33063 0.0
C787 C 0.00633 0.14444 0.32151 0.0
C788 C 0.01872 0.13746 0.305 0.0
C789 C 0.03954 0.15554 0.29742 0.0
C790 C 0.04798 0.18065 0.30632 0.0
C791 C 0.03567 0.18772 0.32283 0.0
H792 H 0.04911 0.15009 0.28464 0.0
H793 H 0.92493 0.21629 0.44397 0.0
H794 H 0.21161 0.91863 0.38464 0.0
H795 H 0.26263 0.9299 0.3796 0.0
H796 H 0.24038 0.01838 0.36839 0.0
H797 H 0.1895 0.00743 0.37308 0.0
H798 H 0.27838 0.99495 0.34361 0.0
H799 H 0.26557 0.99829 0.40845 0.0
H800 H 0.2537 0.97719 0.43787 0.0
H801 H 0.32025 0.91371 0.43104 0.0
H802 H 0.33209 0.93405 0.40138 0.0
H803 H 0.39054 0.0903 0.35953 0.0
H804 H 0.3477 0.06026 0.3573 0.0
H805 H 0.39709 0.98604 0.374 0.0
H806 H 0.43993 0.01645 0.37709 0.0
H807 H 0.34996 0.98975 0.39289 0.0
H808 H 0.36888 0.99059 0.33087 0.0
H809 H 0.38177 0.01058 0.30134 0.0
H810 H 0.3058 0.06358 0.302 0.0
H811 H 0.29265 0.04426 0.33167 0.0
C812 C 0.21758 0.94053 0.38119 0.0
C813 C 0.19645 0.96218 0.37931 0.0
C814 C 0.24672 0.94687 0.37834 0.0
C815 C 0.25519 0.97494 0.37371 0.0
C816 C 0.23421 0.99653 0.37187 0.0
C817 C 0.20515 0.99026 0.37467 0.0
C818 C 0.2859 0.98235 0.37095 0.0
C819 C 0.29411 0.99388 0.35435 0.0
C820 C 0.30663 0.97959 0.38475 0.0
C821 C 0.29941 0.96741 0.40257 0.0
C822 C 0.27744 0.97962 0.41312 0.0
C823 C 0.27075 0.96782 0.42985 0.0
C824 C 0.28613 0.94405 0.43629 0.0
C825 C 0.30833 0.9321 0.42603 0.0
C826 C 0.315 0.94372 0.40925 0.0
C827 C 0.39244 0.06748 0.36244 0.0
C828 C 0.41875 0.0557 0.36822 0.0
C829 C 0.36796 0.05023 0.36099 0.0
C830 C 0.36926 0.02074 0.36516 0.0
C831 C 0.3957 0.00868 0.3705 0.0
C832 C 0.42028 0.02604 0.37203 0.0
C833 C 0.34222 0.00367 0.36574 0.0
C834 C 0.33462 0.99018 0.38192 0.0
C835 C 0.32212 0.00433 0.35148 0.0
C836 C 0.32983 0.016 0.33356 0.0
C837 C 0.355 0.00664 0.32478 0.0
C838 C 0.36235 0.01784 0.308 0.0
C839 C 0.34463 0.03835 0.29981 0.0
C840 C 0.3195 0.04767 0.30836 0.0
C841 C 0.31205 0.03655 0.32515 0.0
H842 H 0.35036 0.047 0.28682 0.0
H843 H 0.28091 0.93494 0.44924 0.0
H844 H 0.58147 0.20902 0.39354 0.0
H845 H 0.56878 0.26026 0.39483 0.0
H846 H 0.48482 0.24097 0.37292 0.0
H847 H 0.49696 0.18987 0.37196 0.0
H848 H 0.55241 0.30083 0.3706 0.0
H849 H 0.43472 0.2793 0.39389 0.0
H850 H 0.40774 0.24289 0.41125 0.0
H851 H 0.48509 0.21981 0.43949 0.0
H852 H 0.51243 0.25636 0.4225 0.0
H853 H 0.45691 0.41959 0.35655 0.0
H854 H 0.48649 0.37569 0.35768 0.0
H855 H 0.47855 0.37433 0.41532 0.0
H856 H 0.44785 0.4171 0.414 0.0
H857 H 0.46285 0.32608 0.40342 0.0
H858 H 0.54486 0.38504 0.39307 0.0
H859 H 0.57471 0.42215 0.37835 0.0
H860 H 0.5742 0.37315 0.32959 0.0
H861 H 0.54398 0.33592 0.34394 0.0
C862 C 0.56033 0.21572 0.38895 0.0
C863 C 0.54006 0.19533 0.38289 0.0
C864 C 0.55321 0.245 0.38961 0.0
C865 C 0.52575 0.25429 0.38421 0.0
C866 C 0.50596 0.23414 0.37746 0.0
C867 C 0.51294 0.20493 0.37693 0.0
C868 C 0.51699 0.28476 0.3864 0.0
C869 C 0.53291 0.30651 0.37782 0.0
C870 C 0.49206 0.29213 0.39629 0.0
C871 C 0.47565 0.27042 0.40681 0.0
C872 C 0.44593 0.26656 0.40387 0.0
C873 C 0.43058 0.24588 0.41363 0.0
C874 C 0.44471 0.22899 0.42643 0.0
C875 C 0.4742 0.23284 0.42954 0.0
C876 C 0.48963 0.25351 0.41983 0.0
C877 C 0.46216 0.41015 0.36942 0.0
C878 C 0.45012 0.42128 0.38517 0.0
C879 C 0.47914 0.38522 0.3701 0.0
C880 C 0.48474 0.37164 0.38661 0.0
C881 C 0.47434 0.38423 0.40243 0.0
C882 C 0.4569 0.40864 0.40169 0.0
C883 C 0.49784 0.34247 0.38726 0.0
C884 C 0.48259 0.32075 0.39635 0.0
C885 C 0.52379 0.33543 0.37827 0.0
C886 C 0.54195 0.35778 0.36956 0.0
C887 C 0.55091 0.38228 0.37916 0.0
C888 C 0.56794 0.40332 0.37089 0.0
C889 C 0.5763 0.40004 0.35304 0.0
C890 C 0.56769 0.37568 0.34342 0.0
C891 C 0.55064 0.35457 0.35163 0.0
H892 H 0.58949 0.41635 0.34666 0.0
H893 H 0.4328 0.21297 0.43395 0.0
H894 H 0.11163 0.41223 0.3605 0.0
H895 H 0.15482 0.44186 0.36395 0.0
H896 H 0.10423 0.50857 0.38908 0.0
H897 H 0.06081 0.47877 0.38587 0.0
H898 H 0.1525 0.52777 0.36422 0.0
H899 H 0.13335 0.47101 0.41651 0.0
H900 H 0.11951 0.42665 0.43265 0.0
H901 H 0.19308 0.38266 0.4109 0.0
H902 H 0.20704 0.42657 0.39433 0.0
H903 H 0.2895 0.5806 0.39602 0.0
H904 H 0.23844 0.56694 0.39521 0.0
H905 H 0.26204 0.48045 0.37995 0.0
H906 H 0.3128 0.49347 0.38113 0.0
H907 H 0.22208 0.47898 0.40474 0.0
H908 H 0.23665 0.53367 0.34921 0.0
H909 H 0.25037 0.57766 0.33262 0.0
H910 H 0.18595 0.62602 0.36101 0.0
H911 H 0.17206 0.58236 0.37788 0.0
C912 C 0.10957 0.43353 0.36634 0.0
C913 C 0.08288 0.4433 0.37278 0.0
C914 C 0.1342 0.45041 0.36828 0.0
C915 C 0.13261 0.47723 0.37686 0.0
C916 C 0.10572 0.48799 0.38229 0.0
C917 C 0.08093 0.47102 0.38033 0.0
C918 C 0.15965 0.49187 0.38198 0.0
C919 C 0.16757 0.51752 0.37335 0.0
C920 C 0.17913 0.47838 0.3939 0.0
C921 C 0.17111 0.45204 0.40409 0.0
C922 C 0.14645 0.45181 0.41506 0.0
C923 C 0.1386 0.42677 0.4243 0.0
C924 C 0.15539 0.40186 0.42278 0.0
C925 C 0.18009 0.40197 0.41205 0.0
C926 C 0.188 0.42694 0.40275 0.0
C927 C 0.28379 0.55863 0.39259 0.0
C928 C 0.30524 0.53811 0.38864 0.0
C929 C 0.25462 0.55094 0.39208 0.0
C930 C 0.24643 0.5228 0.38742 0.0
C931 C 0.26784 0.50229 0.38365 0.0
C932 C 0.2969 0.50982 0.38429 0.0
C933 C 0.21569 0.51422 0.38632 0.0
C934 C 0.20693 0.48967 0.39586 0.0
C935 C 0.19553 0.52882 0.37529 0.0
C936 C 0.20347 0.55485 0.36487 0.0
C937 C 0.22548 0.55372 0.35193 0.0
C938 C 0.23328 0.57858 0.34249 0.0
C939 C 0.21905 0.60462 0.34577 0.0
C940 C 0.19691 0.60583 0.35846 0.0
C941 C 0.18907 0.58104 0.36796 0.0
H942 H 0.22517 0.62386 0.33848 0.0
H943 H 0.14927 0.38249 0.42994 0.0
H944 H 0.40812 0.10985 0.86229 0.0
H945 H 0.44048 0.1512 0.86123 0.0
H946 H 0.50874 0.09975 0.88421 0.0
H947 H 0.47595 0.05839 0.88584 0.0
H948 H 0.50307 0.14903 0.90166 0.0
H949 H 0.51472 0.12427 0.84094 0.0
H950 H 0.5007 0.10914 0.81054 0.0
H951 H 0.45102 0.18662 0.80409 0.0
H952 H 0.46435 0.20205 0.83456 0.0
H953 H 0.57793 0.28674 0.89364 0.0
H954 H 0.56778 0.23514 0.88985 0.0
H955 H 0.48127 0.25542 0.87265 0.0
H956 H 0.49096 0.30664 0.8765 0.0
H957 H 0.51087 0.21608 0.85007 0.0
H958 H 0.49165 0.23326 0.91369 0.0
H959 H 0.5059 0.24767 0.94422 0.0
H960 H 0.57218 0.18293 0.94444 0.0
H961 H 0.55854 0.16841 0.91379 0.0
C962 C 0.43019 0.1072 0.86681 0.0
C963 C 0.43967 0.08078 0.87384 0.0
C964 C 0.44875 0.13077 0.86607 0.0
C965 C 0.47723 0.12842 0.87232 0.0
C966 C 0.48698 0.10189 0.87907 0.0
C967 C 0.46833 0.07818 0.87979 0.0
C968 C 0.49539 0.15466 0.87338 0.0
C969 C 0.50555 0.16333 0.89025 0.0
C970 C 0.49857 0.17335 0.85852 0.0
C971 C 0.49051 0.16429 0.8401 0.0
C972 C 0.50066 0.13802 0.8331 0.0
C973 C 0.49285 0.12939 0.81583 0.0
C974 C 0.47497 0.1469 0.80539 0.0
C975 C 0.46489 0.17309 0.81219 0.0
C976 C 0.47263 0.18182 0.82945 0.0
C977 C 0.55671 0.28017 0.88914 0.0
C978 C 0.53523 0.30079 0.8854 0.0
C979 C 0.551 0.25074 0.88696 0.0
C980 C 0.52385 0.24162 0.88088 0.0
C981 C 0.50243 0.26212 0.87723 0.0
C982 C 0.50797 0.29139 0.87956 0.0
C983 C 0.5171 0.21075 0.87843 0.0
C984 C 0.50919 0.2013 0.86129 0.0
C985 C 0.51623 0.19128 0.89299 0.0
C986 C 0.52437 0.20004 0.91138 0.0
C987 C 0.50945 0.2223 0.92019 0.0
C988 C 0.51737 0.23044 0.93752 0.0
C989 C 0.54001 0.2163 0.94624 0.0
C990 C 0.55471 0.19392 0.93765 0.0
C991 C 0.54689 0.18572 0.9203 0.0
H992 H 0.5461 0.22263 0.95966 0.0
H993 H 0.46894 0.14017 0.79203 0.0
H994 H 0.38964 0.41845 0.85943 0.0
H995 H 0.34923 0.45193 0.85753 0.0
H996 H 0.39832 0.51582 0.88647 0.0
H997 H 0.43874 0.48191 0.88877 0.0
H998 H 0.34645 0.50811 0.90105 0.0
H999 H 0.38003 0.52866 0.84295 0.0
H1000 H 0.39945 0.51923 0.8128 0.0
H1001 H 0.32275 0.47217 0.79914 0.0
H1002 H 0.30302 0.4809 0.8293 0.0
H1003 H 0.21035 0.58376 0.89203 0.0
H1004 H 0.26233 0.57476 0.88919 0.0
H1005 H 0.24458 0.49234 0.86483 0.0
H1006 H 0.19293 0.50093 0.86766 0.0
H1007 H 0.28705 0.52478 0.84674 0.0
H1008 H 0.26113 0.4951 0.90765 0.0
H1009 H 0.24232 0.50416 0.93803 0.0
H1010 H 0.30614 0.57011 0.94592 0.0
H1011 H 0.32508 0.56166 0.91547 0.0
C1012 C 0.39202 0.43985 0.86507 0.0
C1013 C 0.41744 0.44777 0.87398 0.0
C1014 C 0.36902 0.45906 0.86386 0.0
C1015 C 0.37095 0.48658 0.87158 0.0
C1016 C 0.39658 0.49483 0.88019 0.0
C1017 C 0.41975 0.47557 0.88133 0.0
C1018 C 0.34488 0.50501 0.87225 0.0
C1019 C 0.33386 0.51258 0.88911 0.0
C1020 C 0.3284 0.51071 0.8567 0.0
C1021 C 0.34006 0.5054 0.83845 0.0
C1022 C 0.36736 0.51614 0.83357 0.0
C1023 C 0.37842 0.51093 0.81646 0.0
C1024 C 0.36235 0.4951 0.80406 0.0
C1025 C 0.33516 0.48446 0.80875 0.0
C1026 C 0.324 0.48959 0.82585 0.0
C1027 C 0.21755 0.56372 0.88608 0.0
C1028 C 0.19752 0.54298 0.88016 0.0
C1029 C 0.2472 0.55868 0.88444 0.0
C1030 C 0.25717 0.53294 0.87676 0.0
C1031 C 0.23724 0.51242 0.87069 0.0
C1032 C 0.20773 0.51729 0.87245 0.0
C1033 C 0.2883 0.52643 0.87553 0.0
C1034 C 0.30017 0.52119 0.85857 0.0
C1035 C 0.30563 0.52302 0.89096 0.0
C1036 C 0.29424 0.52805 0.90922 0.0
C1037 C 0.27096 0.51172 0.91581 0.0
C1038 C 0.26032 0.5167 0.93305 0.0
C1039 C 0.27295 0.53778 0.94387 0.0
C1040 C 0.29632 0.55385 0.9375 0.0
C1041 C 0.30702 0.54898 0.92026 0.0
H1042 H 0.26469 0.54159 0.95722 0.0
H1043 H 0.37095 0.49109 0.79082 0.0
H1044 H 0.92487 0.21204 0.89077 0.0
H1045 H 0.93845 0.26296 0.88843 0.0
H1046 H 0.02083 0.23839 0.86621 0.0
H1047 H 0.00783 0.18774 0.86887 0.0
H1048 H 0.02756 0.27754 0.89137 0.0
H1049 H 0.96441 0.26483 0.84011 0.0
H1050 H 0.91845 0.25224 0.82541 0.0
H1051 H 0.87468 0.31749 0.85583 0.0
H1052 H 0.92037 0.33022 0.87088 0.0
H1053 H 0.08634 0.39501 0.84969 0.0
H1054 H 0.0576 0.35094 0.85104 0.0
H1055 H 0.99345 0.39478 0.88276 0.0
H1056 H 0.02232 0.439 0.88165 0.0
H1057 H 0.9721 0.34965 0.85621 0.0
H1058 H 0.03672 0.36404 0.90603 0.0
H1059 H 0.08345 0.37702 0.9196 0.0
H1060 H 0.12467 0.30785 0.89122 0.0
H1061 H 0.07823 0.2948 0.87721 0.0
C1062 C 0.94589 0.21752 0.8854 0.0
C1063 C 0.96531 0.19584 0.88005 0.0
C1064 C 0.95353 0.24661 0.88399 0.0
C1065 C 0.98055 0.25444 0.87701 0.0
C1066 C -0.00011 0.23282 0.87168 0.0
C1067 C 0.9924 0.20384 0.8732 0.0
C1068 C 0.98937 0.28503 0.87555 0.0
C1069 C 0.01543 0.29321 0.88361 0.0
C1070 C 0.9731 0.30575 0.86591 0.0
C1071 C 0.94572 0.29825 0.85676 0.0
C1072 C 0.94494 0.27634 0.84376 0.0
C1073 C 0.91895 0.26921 0.83534 0.0
C1074 C 0.89364 0.284 0.83972 0.0
C1075 C 0.8943 0.30602 0.85248 0.0
C1076 C 0.92023 0.31322 0.86094 0.0
C1077 C 0.0657 0.39551 0.8565 0.0
C1078 C 0.05653 0.42041 0.86552 0.0
C1079 C 0.04929 0.37039 0.85721 0.0
C1080 C 0.02361 0.3697 0.86712 0.0
C1081 C 0.01314 0.3951 0.87495 0.0
C1082 C 0.02961 0.42037 0.87421 0.0
C1083 C 0.01061 0.34153 0.87151 0.0
C1084 C 0.98386 0.33395 0.86414 0.0
C1085 C 0.0262 0.3212 0.88178 0.0
C1086 C 0.05404 0.3286 0.89047 0.0
C1087 C 0.05579 0.35174 0.90258 0.0
C1088 C 0.08222 0.35909 0.91036 0.0
C1089 C 0.10703 0.34331 0.90625 0.0
C1090 C 0.10543 0.32007 0.89438 0.0
C1091 C 0.07906 0.31267 0.88653 0.0
H1092 H 0.12747 0.34904 0.91228 0.0
H1093 H 0.87354 0.27844 0.8332 0.0
H1094 H 0.28661 0.91186 0.88294 0.0
H1095 H 0.23461 0.92076 0.88052 0.0
H1096 H 0.24896 0.0114 0.88993 0.0
H1097 H 0.30078 0.00284 0.89225 0.0
H1098 H 0.20121 0.98951 0.90841 0.0
H1099 H 0.24333 0.98918 0.84869 0.0
H1100 H 0.27018 0.96712 0.82371 0.0
H1101 H 0.20848 0.8981 0.82134 0.0
H1102 H 0.18148 0.91958 0.84652 0.0
H1103 H 0.10104 0.06631 0.84789 0.0
H1104 H 0.14267 0.03426 0.85054 0.0
H1105 H 0.09737 0.98361 0.89005 0.0
H1106 H 0.05581 0.01593 0.88764 0.0
H1107 H 0.15662 0.97579 0.84856 0.0
H1108 H 0.14598 0.97506 0.92458 0.0
H1109 H 0.12058 0.00134 0.94864 0.0
H1110 H 0.12201 0.07871 0.91697 0.0
H1111 H 0.14776 0.05297 0.89288 0.0
C1112 C 0.27864 0.93363 0.88473 0.0
C1113 C 0.2978 0.95671 0.88766 0.0
C1114 C 0.24897 0.93864 0.88331 0.0
C1115 C 0.23808 0.96672 0.88497 0.0
C1116 C 0.25701 0.98956 0.88866 0.0
C1117 C 0.28662 0.98464 0.88989 0.0
C1118 C 0.20728 0.97302 0.88173 0.0
C1119 C 0.19126 0.98602 0.89544 0.0
C1120 C 0.19445 0.96862 0.86475 0.0
C1121 C 0.21062 0.95576 0.84962 0.0
C1122 C 0.23564 0.96916 0.84294 0.0
C1123 C 0.25086 0.95679 0.82873 0.0
C1124 C 0.24109 0.93117 0.82097 0.0
C1125 C 0.21605 0.9179 0.82739 0.0
C1126 C 0.20079 0.93016 0.84163 0.0
C1127 C 0.09965 0.04778 0.85671 0.0
C1128 C 0.07521 0.04344 0.86746 0.0
C1129 C 0.12334 0.02941 0.85814 0.0
C1130 C 0.12311 0.00672 0.87057 0.0
C1131 C 0.09788 0.00101 0.88036 0.0
C1132 C 0.07404 0.01933 0.87885 0.0
C1133 C 0.15068 0.99253 0.8752 0.0
C1134 C 0.16616 0.97822 0.86175 0.0
C1135 C 0.16324 0.99611 0.89234 0.0
C1136 C 0.14842 0.012 0.90688 0.0
C1137 C 0.14093 0.9977 0.92281 0.0
C1138 C 0.12649 0.01249 0.93644 0.0
C1139 C 0.11958 0.04164 0.9343 0.0
C1140 C 0.12727 0.05611 0.91858 0.0
C1141 C 0.14178 0.04143 0.90494 0.0
H1142 H 0.10834 0.05304 0.94485 0.0
H1143 H 0.25286 0.92164 0.80995 0.0
H1144 H 0.99511 0.68116 0.64305 0.0
H1145 H 0.97941 0.7311 0.64528 0.0
H1146 H 0.05965 0.75958 0.62189 0.0
H1147 H 0.07599 0.70939 0.61996 0.0
H1148 H 0.04354 0.794 0.64967 0.0
H1149 H -0.00017 0.7575 0.59648 0.0
H1150 H 0.97246 0.72295 0.57802 0.0
H1151 H 0.89764 0.73558 0.61102 0.0
H1152 H 0.92469 0.76991 0.62984 0.0
H1153 H 0.97837 0.93328 0.62896 0.0
H1154 H 0.00537 0.88782 0.62941 0.0
H1155 H 0.93248 0.84524 0.65381 0.0
H1156 H 0.90553 0.89044 0.65337 0.0
H1157 H 0.94914 0.81998 0.6228 0.0
H1158 H 0.99457 0.85539 0.67679 0.0
H1159 H 0.02257 0.89015 0.69474 0.0
H1160 H 0.0947 0.88064 0.65912 0.0
H1161 H 0.06697 0.84611 0.64081 0.0
C1162 C 0.00948 0.69796 0.63834 0.0
C1163 C 0.0367 0.69126 0.63116 0.0
C1164 C 0.00044 0.72653 0.63962 0.0
C1165 C 0.01819 0.74898 0.63349 0.0
C1166 C 0.04562 0.74251 0.62664 0.0
C1167 C 0.05483 0.71385 0.62547 0.0
C1168 C 0.00753 0.77905 0.63395 0.0
C1169 C 0.02313 0.79988 0.64357 0.0
C1170 C 0.98083 0.78658 0.62605 0.0
C1171 C 0.96437 0.76615 0.61464 0.0
C1172 C 0.9776 0.75278 0.59987 0.0
C1173 C 0.96213 0.73325 0.58933 0.0
C1174 C 0.93334 0.72703 0.59336 0.0
C1175 C 0.91994 0.74041 0.60791 0.0
C1176 C 0.93532 0.75994 0.61851 0.0
C1177 C 0.96857 0.9145 0.63504 0.0
C1178 C 0.93995 0.91533 0.64123 0.0
C1179 C 0.98394 0.8885 0.63518 0.0
C1180 C 0.97084 0.86319 0.64159 0.0
C1181 C 0.9429 0.86451 0.64874 0.0
C1182 C 0.92756 0.89032 0.64851 0.0
C1183 C 0.98459 0.83471 0.63907 0.0
C1184 C 0.96964 0.81421 0.62885 0.0
C1185 C 0.01191 0.82769 0.6463 0.0
C1186 C 0.02857 0.84842 0.65732 0.0
C1187 C 0.0163 0.86092 0.67269 0.0
C1188 C 0.03215 0.88053 0.68295 0.0
C1189 C 0.06036 0.88767 0.67804 0.0
C1190 C 0.07282 0.87514 0.66289 0.0
C1191 C 0.05706 0.85552 0.65258 0.0
H1192 H 0.0726 0.90286 0.686 0.0
H1193 H 0.92141 0.71189 0.58519 0.0
H1194 H 0.80953 0.99262 0.63248 0.0
H1195 H 0.7583 0.98176 0.63549 0.0
H1196 H 0.73831 0.07239 0.63256 0.0
H1197 H 0.78952 0.08365 0.62919 0.0
H1198 H 0.7207 0.99604 0.66075 0.0
H1199 H 0.66955 0.07886 0.61332 0.0
H1200 H 0.68197 0.10849 0.58696 0.0
H1201 H 0.74506 0.04579 0.57092 0.0
H1202 H 0.73263 0.01555 0.597 0.0
H1203 H 0.56932 0.96685 0.66241 0.0
H1204 H 0.61172 0.99881 0.66268 0.0
H1205 H 0.63911 0.96346 0.61202 0.0
H1206 H 0.59712 0.93183 0.61169 0.0
H1207 H 0.64891 0.02228 0.61421 0.0
H1208 H 0.66327 0.93415 0.64958 0.0
H1209 H 0.65127 0.90113 0.67442 0.0
H1210 H 0.66381 0.96972 0.71224 0.0
H1211 H 0.67554 0.00323 0.68755 0.0
C1212 C 0.79425 0.01031 0.63239 0.0
C1213 C 0.8036 0.039 0.63054 0.0
C1214 C 0.76499 0.00407 0.63422 0.0
C1215 C 0.74449 0.02634 0.63427 0.0
C1216 C 0.75374 0.05497 0.63243 0.0
C1217 C 0.78302 0.06129 0.63048 0.0
C1218 C 0.71352 0.01917 0.63608 0.0
C1219 C 0.70494 0.00212 0.65068 0.0
C1220 C 0.69285 0.02738 0.62308 0.0
C1221 C 0.70043 0.04518 0.60725 0.0
C1222 C 0.686 0.07136 0.60413 0.0
C1223 C 0.693 0.08823 0.58922 0.0
C1224 C 0.71437 0.07909 0.57731 0.0
C1225 C 0.72862 0.05293 0.58021 0.0
C1226 C 0.7216 0.03592 0.59505 0.0
C1227 C 0.58408 0.9665 0.65118 0.0
C1228 C 0.58019 0.94687 0.63708 0.0
C1229 C 0.60823 0.98466 0.65135 0.0
C1230 C 0.62849 0.98339 0.63737 0.0
C1231 C 0.62364 0.96488 0.62286 0.0
C1232 C 0.59983 0.94663 0.62279 0.0
C1233 C 0.65651 0.99844 0.63851 0.0
C1234 C 0.66451 0.01706 0.62456 0.0
C1235 C 0.67679 0.99137 0.65195 0.0
C1236 C 0.66989 0.97123 0.66675 0.0
C1237 C 0.66325 0.94221 0.66319 0.0
C1238 C 0.65653 0.92341 0.67723 0.0
C1239 C 0.65668 0.93334 0.69489 0.0
C1240 C 0.66363 0.96208 0.69855 0.0
C1241 C 0.67031 0.98098 0.68454 0.0
H1242 H 0.65149 0.91875 0.70575 0.0
H1243 H 0.71984 0.09223 0.56582 0.0
H1244 H 0.59224 0.61647 0.65352 0.0
H1245 H 0.55902 0.65709 0.65509 0.0
H1246 H 0.4911 0.6043 0.63297 0.0
H1247 H 0.52472 0.56377 0.63072 0.0
H1248 H 0.49435 0.65404 0.61591 0.0
H1249 H 0.48705 0.62732 0.67669 0.0
H1250 H 0.50361 0.61195 0.70658 0.0
H1251 H 0.5508 0.69107 0.7125 0.0
H1252 H 0.53492 0.70676 0.68253 0.0
H1253 H 0.41683 0.78938 0.62488 0.0
H1254 H 0.42793 0.73799 0.6288 0.0
H1255 H 0.51381 0.75999 0.64641 0.0
H1256 H 0.50312 0.81096 0.64256 0.0
H1257 H 0.48687 0.71935 0.66828 0.0
H1258 H 0.50244 0.73862 0.60439 0.0
H1259 H 0.48616 0.75331 0.57428 0.0
H1260 H 0.42166 0.68678 0.57493 0.0
H1261 H 0.43736 0.67195 0.60516 0.0
C1262 C 0.57011 0.61338 0.64925 0.0
C1263 C 0.56093 0.58679 0.64236 0.0
C1264 C 0.55105 0.63653 0.65029 0.0
C1265 C 0.52238 0.63355 0.64451 0.0
C1266 C 0.51301 0.60691 0.63777 0.0
C1267 C 0.53216 0.58366 0.6367 0.0
C1268 C 0.50338 0.65922 0.64406 0.0
C1269 C 0.49197 0.66794 0.62749 0.0
C1270 C 0.50031 0.67737 0.65916 0.0
C1271 C 0.50981 0.66819 0.6773 0.0
C1272 C 0.50109 0.64139 0.68431 0.0
C1273 C 0.51035 0.63262 0.70128 0.0
C1274 C 0.52825 0.65052 0.71143 0.0
C1275 C 0.5369 0.67724 0.70463 0.0
C1276 C 0.52772 0.68611 0.68766 0.0
C1277 C 0.43808 0.78323 0.62955 0.0
C1278 C 0.45913 0.80427 0.63335 0.0
C1279 C 0.44434 0.75391 0.63181 0.0
C1280 C 0.47164 0.74532 0.63794 0.0
C1281 C 0.49254 0.76626 0.64179 0.0
C1282 C 0.48642 0.7954 0.63945 0.0
C1283 C 0.4793 0.71457 0.64 0.0
C1284 C 0.48845 0.70494 0.65688 0.0
C1285 C 0.48013 0.69552 0.62525 0.0
C1286 C 0.47079 0.70445 0.6071 0.0
C1287 C 0.48462 0.7273 0.59817 0.0
C1288 C 0.47554 0.73562 0.58107 0.0
C1289 C 0.45282 0.72106 0.57272 0.0
C1290 C 0.4392 0.69809 0.58143 0.0
C1291 C 0.44818 0.68972 0.59854 0.0
H1292 H 0.44583 0.72752 0.55949 0.0
H1293 H 0.5354 0.64369 0.72456 0.0
H1294 H 0.8966 0.57794 0.65515 0.0
H1295 H 0.85491 0.54628 0.65714 0.0
H1296 H 0.90604 0.47524 0.63743 0.0
H1297 H 0.94786 0.50738 0.63485 0.0
H1298 H 0.85803 0.47995 0.6189 0.0
H1299 H 0.87812 0.47287 0.68028 0.0
H1300 H 0.8921 0.48855 0.71059 0.0
H1301 H 0.81665 0.54205 0.71365 0.0
H1302 H 0.8024 0.52709 0.68325 0.0
H1303 H 0.71393 0.41672 0.62522 0.0
H1304 H 0.76603 0.4231 0.6298 0.0
H1305 H 0.752 0.5121 0.64392 0.0
H1306 H 0.70033 0.50624 0.63931 0.0
H1307 H 0.78684 0.48112 0.6685 0.0
H1308 H 0.77563 0.49474 0.60357 0.0
H1309 H 0.76274 0.47782 0.57331 0.0
H1310 H 0.82347 0.40827 0.57806 0.0
H1311 H 0.83635 0.42452 0.60849 0.0
C1312 C 0.89915 0.55542 0.65162 0.0
C1313 C 0.92553 0.54504 0.64507 0.0
C1314 C 0.87536 0.53724 0.6529 0.0
C1315 C 0.87745 0.50821 0.64772 0.0
C1316 C 0.90407 0.49747 0.64171 0.0
C1317 C 0.92803 0.51577 0.64043 0.0
C1318 C 0.85079 0.49067 0.64665 0.0
C1319 C 0.84279 0.47938 0.62993 0.0
C1320 C 0.83092 0.4898 0.66103 0.0
C1321 C 0.8392 0.49883 0.67942 0.0
C1322 C 0.86457 0.4881 0.68736 0.0
C1323 C 0.87254 0.49686 0.70457 0.0
C1324 C 0.85528 0.51628 0.71403 0.0
C1325 C 0.82998 0.52697 0.70631 0.0
C1326 C 0.82191 0.5183 0.6891 0.0
C1327 C 0.72198 0.43771 0.62917 0.0
C1328 C 0.70296 0.46099 0.63192 0.0
C1329 C 0.75167 0.44122 0.63181 0.0
C1330 C 0.76266 0.46794 0.63732 0.0
C1331 C 0.74381 0.49122 0.63981 0.0
C1332 C 0.7143 0.48786 0.63704 0.0
C1333 C 0.7938 0.47223 0.64056 0.0
C1334 C 0.80253 0.48082 0.65772 0.0
C1335 C 0.81442 0.47023 0.62668 0.0
C1336 C 0.80664 0.46059 0.60839 0.0
C1337 C 0.78601 0.47567 0.59823 0.0
C1338 C 0.77875 0.46623 0.58104 0.0
C1339 C 0.7922 0.44193 0.57379 0.0
C1340 C 0.81305 0.42708 0.58369 0.0
C1341 C 0.82031 0.43637 0.60092 0.0
H1342 H 0.78654 0.43464 0.56048 0.0
H1343 H 0.86149 0.52304 0.72735 0.0
H1344 H 0.67237 0.17328 0.15366 0.0
H1345 H 0.70554 0.21298 0.14837 0.0
H1346 H 0.69236 0.20502 0.09141 0.0
H1347 H 0.6589 0.1646 0.09667 0.0
H1348 H 0.75026 0.20852 0.10035 0.0
H1349 H 0.66595 0.2631 0.11215 0.0
H1350 H 0.62122 0.277 0.1278 0.0
H1351 H 0.66962 0.29507 0.17551 0.0
H1352 H 0.71461 0.28088 0.16024 0.0
H1353 H 0.83959 0.33978 0.09805 0.0
H1354 H 0.80238 0.30304 0.09242 0.0
H1355 H 0.79489 0.28804 0.14923 0.0
H1356 H 0.83168 0.32435 0.15492 0.0
H1357 H 0.74287 0.30096 0.13341 0.0
H1358 H 0.82555 0.23876 0.12241 0.0
H1359 H 0.8701 0.2244 0.1067 0.0
H1360 H 0.82405 0.22158 0.05683 0.0
H1361 H 0.77928 0.2363 0.07223 0.0
C1362 C 0.67613 0.18015 0.13999 0.0
C1363 C 0.66294 0.1658 0.12558 0.0
C1364 C 0.69509 0.20296 0.13699 0.0
C1365 C 0.70131 0.21216 0.1195 0.0
C1366 C 0.68779 0.19831 0.10502 0.0
C1367 C 0.66853 0.17542 0.10804 0.0
C1368 C 0.72302 0.23535 0.11676 0.0
C1369 C 0.74838 0.22906 0.1072 0.0
C1370 C 0.72068 0.26206 0.12579 0.0
C1371 C 0.69367 0.2708 0.13505 0.0
C1372 C 0.66705 0.26987 0.12601 0.0
C1373 C 0.64164 0.27782 0.13481 0.0
C1374 C 0.64258 0.28689 0.15264 0.0
C1375 C 0.66893 0.28806 0.16169 0.0
C1376 C 0.69441 0.28011 0.15296 0.0
C1377 C 0.83049 0.32811 0.10928 0.0
C1378 C 0.83841 0.33514 0.12695 0.0
C1379 C 0.80916 0.30723 0.10605 0.0
C1380 C 0.79562 0.29307 0.12043 0.0
C1381 C 0.80479 0.29894 0.13795 0.0
C1382 C 0.82595 0.31965 0.14117 0.0
C1383 C 0.77056 0.27357 0.11771 0.0
C1384 C 0.7445 0.2807 0.12621 0.0
C1385 C 0.77228 0.24779 0.10765 0.0
C1386 C 0.79918 0.23901 0.09842 0.0
C1387 C 0.825 0.23536 0.10807 0.0
C1388 C 0.85027 0.22709 0.09923 0.0
C1389 C 0.84993 0.22218 0.08077 0.0
C1390 C 0.8243 0.22545 0.07112 0.0
C1391 C 0.79897 0.23374 0.0799 0.0
H1392 H 0.86952 0.21577 0.07395 0.0
H1393 H 0.62288 0.29303 0.15943 0.0
H1394 H 0.29592 0.64087 0.1473 0.0
H1395 H 0.26111 0.67976 0.14263 0.0
H1396 H 0.31192 0.7114 0.0983 0.0
H1397 H 0.34587 0.67171 0.10237 0.0
H1398 H 0.26812 0.73269 0.14732 0.0
H1399 H 0.27326 0.75373 0.07054 0.0
H1400 H 0.27793 0.72606 0.04249 0.0
H1401 H 0.24335 0.65098 0.06848 0.0
H1402 H 0.23811 0.67828 0.09662 0.0
H1403 H 0.2074 0.86933 0.13575 0.0
H1404 H 0.24165 0.82944 0.13256 0.0
H1405 H 0.17881 0.78206 0.10167 0.0
H1406 H 0.14543 0.82252 0.10382 0.0
H1407 H 0.22749 0.76783 0.08987 0.0
H1408 H 0.1887 0.7738 0.14932 0.0
H1409 H 0.17743 0.79701 0.1782 0.0
H1410 H 0.26785 0.80932 0.18828 0.0
H1411 H 0.27963 0.78649 0.15934 0.0
C1412 C 0.2992 0.65566 0.13625 0.0
C1413 C 0.32356 0.65312 0.12517 0.0
C1414 C 0.2794 0.67806 0.13366 0.0
C1415 C 0.28375 0.69871 0.12011 0.0
C1416 C 0.3076 0.69556 0.10863 0.0
C1417 C 0.32708 0.67279 0.11098 0.0
C1418 C 0.2647 0.72463 0.11897 0.0
C1419 C 0.25919 0.74022 0.13473 0.0
C1420 C 0.25269 0.73455 0.10263 0.0
C1421 C 0.25559 0.71799 0.08574 0.0
C1422 C 0.26657 0.73134 0.07025 0.0
C1423 C 0.26933 0.71572 0.05434 0.0
C1424 C 0.26104 0.68676 0.05372 0.0
C1425 C 0.24988 0.67338 0.069 0.0
C1426 C 0.24705 0.68891 0.08494 0.0
C1427 C 0.20124 0.85069 0.12789 0.0
C1428 C 0.17369 0.84902 0.12012 0.0
C1429 C 0.2207 0.82774 0.12622 0.0
C1430 C 0.21255 0.80221 0.11737 0.0
C1431 C 0.18569 0.80133 0.10866 0.0
C1432 C 0.16657 0.82458 0.10989 0.0
C1433 C 0.23092 0.77576 0.11822 0.0
C1434 C 0.23643 0.7602 0.10244 0.0
C1435 C 0.24201 0.76514 0.13465 0.0
C1436 C 0.23502 0.77871 0.1521 0.0
C1437 C 0.20616 0.7816 0.15766 0.0
C1438 C 0.19969 0.79467 0.17403 0.0
C1439 C 0.22191 0.8047 0.18504 0.0
C1440 C 0.25066 0.80159 0.17972 0.0
C1441 C 0.25725 0.78857 0.16335 0.0
H1442 H 0.21685 0.81482 0.19771 0.0
H1443 H 0.2632 0.6747 0.04139 0.0
H1444 H 0.33502 0.65723 0.4188 0.0
H1445 H 0.29738 0.69282 0.42557 0.0
H1446 H 0.30496 0.72741 0.37216 0.0
H1447 H 0.34218 0.69172 0.36521 0.0
H1448 H 0.29878 0.77014 0.39972 0.0
H1449 H 0.25586 0.67883 0.38042 0.0
H1450 H 0.24531 0.62681 0.38292 0.0
H1451 H 0.20903 0.64011 0.43517 0.0
H1452 H 0.22006 0.69205 0.43319 0.0
H1453 H 0.17215 0.84321 0.37925 0.0
H1454 H 0.21293 0.81022 0.38017 0.0
H1455 H 0.17887 0.7712 0.42824 0.0
H1456 H 0.1369 0.80353 0.42681 0.0
H1457 H 0.20001 0.73121 0.40852 0.0
H1458 H 0.23792 0.82009 0.42889 0.0
H1459 H 0.24639 0.87261 0.42856 0.0
H1460 H 0.29173 0.8651 0.37866 0.0
H1461 H 0.28328 0.81253 0.37857 0.0
C1462 C 0.32914 0.67286 0.40864 0.0
C1463 C 0.3415 0.67165 0.39144 0.0
C1464 C 0.3075 0.69303 0.4125 0.0
C1465 C 0.29819 0.71252 0.3993 0.0
C1466 C 0.3118 0.71252 0.38252 0.0
C1467 C 0.33306 0.69211 0.37857 0.0
C1468 C 0.27306 0.73173 0.4024 0.0
C1469 C 0.27716 0.76169 0.4016 0.0
C1470 C 0.24501 0.72068 0.40551 0.0
C1471 C 0.23912 0.68929 0.40675 0.0
C1472 C 0.24601 0.67061 0.39254 0.0
C1473 C 0.23985 0.64114 0.39384 0.0
C1474 C 0.22647 0.63021 0.40919 0.0
C1475 C 0.21941 0.64863 0.4233 0.0
C1476 C 0.22566 0.67805 0.42211 0.0
C1477 C 0.17326 0.82756 0.39001 0.0
C1478 C 0.15143 0.8261 0.40305 0.0
C1479 C 0.19677 0.80883 0.39062 0.0
C1480 C 0.19958 0.78874 0.40459 0.0
C1481 C 0.17739 0.78668 0.41741 0.0
C1482 C 0.1534 0.80512 0.41659 0.0
C1483 C 0.22552 0.76976 0.40548 0.0
C1484 C 0.22164 0.73983 0.40698 0.0
C1485 C 0.25387 0.78087 0.40347 0.0
C1486 C 0.25979 0.81236 0.40367 0.0
C1487 C 0.24962 0.82963 0.41781 0.0
C1488 C 0.25442 0.8594 0.4177 0.0
C1489 C 0.2695 0.87215 0.40357 0.0
C1490 C 0.28003 0.85515 0.38958 0.0
C1491 C 0.2753 0.82535 0.38963 0.0
H1492 H 0.273 0.89519 0.40346 0.0
H1493 H 0.2214 0.60751 0.41017 0.0
H1494 H 0.80403 0.3464 0.3675 0.0
H1495 H 0.76928 0.30834 0.37467 0.0
H1496 H 0.81507 0.29011 0.42365 0.0
H1497 H 0.84967 0.32857 0.41673 0.0
H1498 H 0.80621 0.24135 0.40057 0.0
H1499 H 0.75195 0.31745 0.42783 0.0
H1500 H 0.72853 0.36513 0.42932 0.0
H1501 H 0.67335 0.34224 0.38538 0.0
H1502 H 0.69675 0.29457 0.38344 0.0
H1503 H 0.70416 0.12977 0.42193 0.0
H1504 H 0.73727 0.17104 0.42348 0.0
H1505 H 0.68842 0.21416 0.38215 0.0
H1506 H 0.65489 0.17386 0.38113 0.0
H1507 H 0.70002 0.25113 0.40604 0.0
H1508 H 0.7565 0.17923 0.37544 0.0
H1509 H 0.78084 0.1324 0.37129 0.0
H1510 H 0.83242 0.1478 0.41809 0.0
H1511 H 0.80806 0.19454 0.42267 0.0
C1512 C 0.80631 0.33475 0.38001 0.0
C1513 C 0.82956 0.34052 0.39155 0.0
C1514 C 0.78646 0.313 0.38408 0.0
C1515 C 0.78966 0.29637 0.39967 0.0
C1516 C 0.81224 0.30272 0.41156 0.0
C1517 C 0.83184 0.32485 0.40764 0.0
C1518 C 0.77069 0.27104 0.40273 0.0
C1519 C 0.78301 0.2434 0.40214 0.0
C1520 C 0.74043 0.27383 0.40426 0.0
C1521 C 0.72628 0.30249 0.4054 0.0
C1522 C 0.735 0.32267 0.41838 0.0
C1523 C 0.72169 0.34968 0.41932 0.0
C1524 C 0.69951 0.35673 0.40743 0.0
C1525 C 0.69055 0.33676 0.39458 0.0
C1526 C 0.70381 0.30972 0.39356 0.0
C1527 C 0.70063 0.14804 0.41315 0.0
C1528 C 0.67689 0.14854 0.40143 0.0
C1529 C 0.71961 0.1716 0.414 0.0
C1530 C 0.71556 0.19578 0.40284 0.0
C1531 C 0.69201 0.19599 0.39101 0.0
C1532 C 0.67286 0.17279 0.39039 0.0
C1533 C 0.73536 0.22115 0.40341 0.0
C1534 C 0.72322 0.24889 0.4047 0.0
C1535 C 0.76578 0.21844 0.40215 0.0
C1536 C 0.78016 0.19019 0.39955 0.0
C1537 C 0.77282 0.17249 0.38496 0.0
C1538 C 0.78665 0.14599 0.38251 0.0
C1539 C 0.80808 0.13708 0.39446 0.0
C1540 C 0.81575 0.15468 0.40888 0.0
C1541 C 0.80193 0.18117 0.41141 0.0
H1542 H 0.81879 0.11657 0.39253 0.0
H1543 H 0.68922 0.37766 0.40818 0.0
H1544 H 0.13646 0.70486 0.87357 0.0
H1545 H 0.17709 0.73798 0.87732 0.0
H1546 H 0.21569 0.67954 0.91543 0.0
H1547 H 0.17445 0.64715 0.91242 0.0
H1548 H 0.22933 0.73061 0.92479 0.0
H1549 H 0.23433 0.67934 0.8698 0.0
H1550 H 0.21721 0.66103 0.84068 0.0
H1551 H 0.20942 0.74778 0.82106 0.0
H1552 H 0.22612 0.76662 0.85016 0.0
H1553 H 0.36466 0.79427 0.87191 0.0
H1554 H 0.32706 0.75786 0.87628 0.0
H1555 H 0.28485 0.81349 0.91452 0.0
H1556 H 0.32324 0.84888 0.91103 0.0
H1557 H 0.2757 0.75952 0.86766 0.0
H1558 H 0.2392 0.77907 0.94154 0.0
H1559 H 0.26118 0.78994 0.97085 0.0
H1560 H 0.34162 0.75388 0.95316 0.0
H1561 H 0.32004 0.74244 0.92383 0.0
C1562 C 0.15325 0.69946 0.88309 0.0
C1563 C 0.15232 0.67331 0.89259 0.0
C1564 C 0.17663 0.71827 0.88511 0.0
C1565 C 0.19998 0.71087 0.89624 0.0
C1566 C 0.1981 0.68571 0.90667 0.0
C1567 C 0.17442 0.66719 0.90495 0.0
C1568 C 0.22711 0.7282 0.89603 0.0
C1569 C 0.23947 0.73698 0.91231 0.0
C1570 C 0.2411 0.7356 0.87979 0.0
C1571 C 0.23122 0.72439 0.86222 0.0
C1572 C 0.2288 0.69451 0.85931 0.0
C1573 C 0.21918 0.68404 0.84281 0.0
C1574 C 0.21217 0.70323 0.82904 0.0
C1575 C 0.21483 0.73294 0.83174 0.0
C1576 C 0.22438 0.74353 0.84823 0.0
C1577 C 0.34779 0.79828 0.88164 0.0
C1578 C 0.34704 0.82434 0.8912 0.0
C1579 C 0.32615 0.77757 0.88404 0.0
C1580 C 0.30296 0.78271 0.89579 0.0
C1581 C 0.30272 0.80845 0.90573 0.0
C1582 C 0.32474 0.82881 0.90367 0.0
C1583 C 0.27786 0.76249 0.89646 0.0
C1584 C 0.26577 0.75314 0.88021 0.0
C1585 C 0.26493 0.75353 0.91276 0.0
C1586 C 0.27804 0.76015 0.93042 0.0
C1587 C 0.26154 0.77335 0.94393 0.0
C1588 C 0.27394 0.77963 0.96054 0.0
C1589 C 0.3028 0.77268 0.96384 0.0
C1590 C 0.3193 0.75935 0.95056 0.0
C1591 C 0.307 0.753 0.93393 0.0
H1592 H 0.31236 0.77758 0.97671 0.0
H1593 H 0.20473 0.69508 0.81627 0.0
H1594 H 0.70199 0.3656 0.87496 0.0
H1595 H 0.73774 0.32711 0.87833 0.0
H1596 H 0.68033 0.28196 0.91423 0.0
H1597 H 0.64544 0.3211 0.91174 0.0
H1598 H 0.73118 0.27151 0.92458 0.0
H1599 H 0.68509 0.26785 0.86695 0.0
H1600 H 0.66978 0.28679 0.83755 0.0
H1601 H 0.75834 0.3 0.82274 0.0
H1602 H 0.77416 0.28151 0.85214 0.0
H1603 H 0.79728 0.13834 0.87227 0.0
H1604 H 0.76178 0.17683 0.87609 0.0
H1605 H 0.81728 0.21793 0.91484 0.0
H1606 H 0.85219 0.17888 0.91163 0.0
H1607 H 0.76613 0.22942 0.86754 0.0
H1608 H 0.78012 0.26245 0.94212 0.0
H1609 H 0.78992 0.23954 0.97133 0.0
H1610 H 0.7557 0.15939 0.9519 0.0
H1611 H 0.74535 0.18191 0.92267 0.0
C1612 C 0.69733 0.34777 0.88389 0.0
C1613 C 0.67083 0.34633 0.89299 0.0
C1614 C 0.71766 0.32561 0.88568 0.0
C1615 C 0.71145 0.30106 0.8961 0.0
C1616 C 0.68569 0.30049 0.90603 0.0
C1617 C 0.6657 0.32297 0.9046 0.0
C1618 C 0.73072 0.27525 0.89582 0.0
C1619 C 0.73887 0.26236 0.9121 0.0
C1620 C 0.74026 0.26269 0.87955 0.0
C1621 C 0.73078 0.27356 0.8618 0.0
C1622 C 0.70128 0.27494 0.85745 0.0
C1623 C 0.69251 0.28559 0.84079 0.0
C1624 C 0.71308 0.29466 0.82831 0.0
C1625 C 0.74244 0.29301 0.83243 0.0
C1626 C 0.75132 0.28244 0.84908 0.0
C1627 C 0.80158 0.15521 0.88193 0.0
C1628 C 0.82753 0.15548 0.89167 0.0
C1629 C 0.78135 0.17735 0.88402 0.0
C1630 C 0.78672 0.20044 0.89575 0.0
C1631 C 0.81223 0.20021 0.90594 0.0
C1632 C 0.83227 0.17781 0.90407 0.0
C1633 C 0.76667 0.22563 0.89631 0.0
C1634 C 0.75846 0.2385 0.88005 0.0
C1635 C 0.7563 0.23751 0.91256 0.0
C1636 C 0.76225 0.22382 0.93014 0.0
C1637 C 0.7746 0.23997 0.9441 0.0
C1638 C 0.78027 0.22704 0.96066 0.0
C1639 C 0.77353 0.198 0.96344 0.0
C1640 C 0.76102 0.18185 0.9497 0.0
C1641 C 0.75529 0.19468 0.93313 0.0
H1642 H 0.77794 0.18804 0.97627 0.0
H1643 H 0.70628 0.30291 0.81542 0.0
H1644 H 0.81895 0.16757 0.65491 0.0
H1645 H 0.78152 0.2031 0.64913 0.0
H1646 H 0.80572 0.20592 0.59342 0.0
H1647 H 0.84353 0.16966 0.59907 0.0
H1648 H 0.79318 0.26194 0.61014 0.0
H1649 H 0.75041 0.16813 0.60316 0.0
H1650 H 0.7364 0.11843 0.61105 0.0
H1651 H 0.69185 0.14946 0.65761 0.0
H1652 H 0.70646 0.1992 0.65041 0.0
H1653 H 0.66342 0.34483 0.59941 0.0
H1654 H 0.69834 0.30621 0.59335 0.0
H1655 H 0.6897 0.27625 0.64779 0.0
H1656 H 0.65506 0.31458 0.65391 0.0
H1657 H 0.69298 0.23176 0.62436 0.0
H1658 H 0.74374 0.32001 0.63709 0.0
H1659 H 0.7549 0.37131 0.63214 0.0
H1660 H 0.78348 0.35235 0.57872 0.0
H1661 H 0.772 0.30079 0.58331 0.0
C1662 C 0.81667 0.17586 0.64142 0.0
C1663 C 0.83413 0.16552 0.62741 0.0
C1664 C 0.79511 0.19615 0.63814 0.0
C1665 C 0.79046 0.20671 0.6208 0.0
C1666 C 0.80885 0.19781 0.60689 0.0
C1667 C 0.83048 0.17721 0.61015 0.0
C1668 C 0.76571 0.22634 0.61749 0.0
C1669 C 0.77117 0.25517 0.61279 0.0
C1670 C 0.73706 0.21768 0.62141 0.0
C1671 C 0.7296 0.18748 0.62622 0.0
C1672 C 0.73799 0.16434 0.61522 0.0
C1673 C 0.72985 0.13614 0.61956 0.0
C1674 C 0.713 0.13085 0.63474 0.0
C1675 C 0.70478 0.15362 0.64582 0.0
C1676 C 0.71305 0.1818 0.64163 0.0
C1677 C 0.66846 0.32956 0.60994 0.0
C1678 C 0.65659 0.33277 0.62717 0.0
C1679 C 0.68858 0.30767 0.6065 0.0
C1680 C 0.69689 0.28858 0.62018 0.0
C1681 C 0.68366 0.29074 0.63703 0.0
C1682 C 0.66386 0.31269 0.64052 0.0
C1683 C 0.72055 0.26738 0.6176 0.0
C1684 C 0.7149 0.23829 0.62122 0.0
C1685 C 0.74902 0.27592 0.61315 0.0
C1686 C 0.75665 0.30666 0.61045 0.0
C1687 C 0.75223 0.32681 0.62424 0.0
C1688 C 0.75863 0.35592 0.62151 0.0
C1689 C 0.76976 0.36513 0.60509 0.0
C1690 C 0.77475 0.34518 0.59141 0.0
C1691 C 0.7683 0.31599 0.59407 0.0
H1692 H 0.77454 0.38771 0.60297 0.0
H1693 H 0.70611 0.10917 0.63792 0.0
H1694 H 0.29874 0.85763 0.64431 0.0
H1695 H 0.26565 0.8173 0.63948 0.0
H1696 H 0.31802 0.78805 0.5953 0.0
H1697 H 0.35037 0.82907 0.59954 0.0
H1698 H 0.26521 0.77545 0.58824 0.0
H1699 H 0.32635 0.7602 0.6384 0.0
H1700 H 0.34989 0.77157 0.66716 0.0
H1701 H 0.26729 0.77352 0.69322 0.0
H1702 H 0.24321 0.76255 0.66455 0.0
H1703 H 0.21071 0.62975 0.63397 0.0
H1704 H 0.24651 0.66808 0.63011 0.0
H1705 H 0.18449 0.71796 0.60002 0.0
H1706 H 0.14951 0.67913 0.60291 0.0
H1707 H 0.24706 0.71728 0.64288 0.0
H1708 H 0.21402 0.76864 0.57439 0.0
H1709 H 0.19748 0.75279 0.54458 0.0
H1710 H 0.23593 0.66965 0.55311 0.0
H1711 H 0.25304 0.6851 0.58285 0.0
C1712 C 0.30278 0.84301 0.63328 0.0
C1713 C 0.32729 0.84641 0.62241 0.0
C1714 C 0.284 0.8198 0.63062 0.0
C1715 C 0.28981 0.79906 0.61737 0.0
C1716 C 0.31313 0.80358 0.60569 0.0
C1717 C 0.33162 0.82713 0.60812 0.0
C1718 C 0.2729 0.77175 0.61658 0.0
C1719 C 0.26119 0.76272 0.60017 0.0
C1720 C 0.2686 0.7544 0.63199 0.0
C1721 C 0.28297 0.7608 0.6493 0.0
C1722 C 0.31319 0.76323 0.65025 0.0
C1723 C 0.32663 0.76959 0.66653 0.0
C1724 C 0.31009 0.77333 0.682 0.0
C1725 C 0.28007 0.77065 0.68122 0.0
C1726 C 0.26652 0.76434 0.66496 0.0
C1727 C 0.20505 0.64858 0.62612 0.0
C1728 C 0.17734 0.65133 0.61869 0.0
C1729 C 0.22546 0.6706 0.624 0.0
C1730 C 0.21841 0.69606 0.6147 0.0
C1731 C 0.19093 0.69839 0.60686 0.0
C1732 C 0.1708 0.67612 0.6086 0.0
C1733 C 0.23868 0.72111 0.61456 0.0
C1734 C 0.25108 0.7298 0.63085 0.0
C1735 C 0.24459 0.73738 0.59888 0.0
C1736 C 0.23459 0.72798 0.58093 0.0
C1737 C 0.21906 0.74702 0.56987 0.0
C1738 C 0.20956 0.73809 0.55299 0.0
C1739 C 0.21558 0.71021 0.54698 0.0
C1740 C 0.23119 0.69121 0.55781 0.0
C1741 C 0.24076 0.70003 0.57469 0.0
H1742 H 0.20819 0.70334 0.53391 0.0
H1743 H 0.32053 0.77826 0.69459 0.0
H1744 H 0.51076 0.03697 0.08129 0.0
H1745 H 0.48774 0.01978 0.0538 0.0
H1746 H 0.56525 0.0393 0.02414 0.0
H1747 H 0.5881 0.05716 0.05174 0.0
H1748 H 0.51684 0.05064 1.00442 0.0
H1749 H 0.55261 0.97048 0.03945 0.0
H1750 H 0.55746 0.94194 0.0672 0.0
H1751 H 0.46584 0.92825 0.06831 0.0
H1752 H 0.46043 0.95677 0.04059 0.0
H1753 H 0.48597 0.96497 0.92965 0.0
H1754 H 0.51013 0.98205 0.9568 0.0
H1755 H 0.43539 0.95844 0.98805 0.0
H1756 H 0.41165 0.94035 0.96083 0.0
H1757 H 0.48284 0.94915 1.007 0.0
H1758 H 0.44618 0.02857 0.97256 0.0
H1759 H 0.4398 0.0583 0.94543 0.0
H1760 H 0.53094 0.07477 0.94374 0.0
H1761 H 0.53792 0.04491 0.97078 0.0
C1762 C 0.52253 0.03835 0.06878 0.0
C1763 C 0.5511 0.04844 0.06855 0.0
C1764 C 0.50952 0.02823 0.05313 0.0
C1765 C 0.525 0.02752 0.03697 0.0
C1766 C 0.55293 0.03944 0.03647 0.0
C1767 C 0.56592 0.04981 0.05218 0.0
C1768 C 0.51262 0.01284 0.02095 0.0
C1769 C 0.50978 0.02834 1.00491 0.0
C1770 C 0.50276 0.98389 0.02167 0.0
C1771 C 0.5061 0.96595 0.03802 0.0
C1772 C 0.5335 0.96142 0.04563 0.0
C1773 C 0.53634 0.94522 0.06134 0.0
C1774 C 0.51195 0.93344 0.06957 0.0
C1775 C 0.4847 0.93747 0.06196 0.0
C1776 C 0.48174 0.95356 0.04621 0.0
C1777 C 0.47513 0.96265 0.94243 0.0
C1778 C 0.44711 0.95123 0.94325 0.0
C1779 C 0.48875 0.97275 0.9579 0.0
C1780 C 0.47431 0.97231 0.97445 0.0
C1781 C 0.44694 0.95921 0.97545 0.0
C1782 C 0.43344 0.94872 0.95995 0.0
C1783 C 0.48707 0.98693 0.9904 0.0
C1784 C 0.48996 0.97143 1.00646 0.0
C1785 C 0.49679 0.01596 0.98972 0.0
C1786 C 0.4926 0.03428 0.97361 0.0
C1787 C 0.46489 0.03841 0.96635 0.0
C1788 C 0.46116 0.05531 0.951 0.0
C1789 C 0.48496 0.06832 0.94283 0.0
C1790 C 0.51253 0.06462 0.95006 0.0
C1791 C 0.51638 0.04776 0.96542 0.0
H1792 H 0.48204 0.08131 0.93091 0.0
H1793 H 0.51416 0.92119 0.08183 0.0
H1794 H 0.45929 0.50863 0.085 0.0
H1795 H 0.47645 0.4852 0.05763 0.0
H1796 H 0.45672 0.56219 0.0275 0.0
H1797 H 0.43869 0.58531 0.05494 0.0
H1798 H 0.44589 0.51534 0.00775 0.0
H1799 H 0.52584 0.54842 0.04337 0.0
H1800 H 0.55501 0.55257 0.07087 0.0
H1801 H 0.56821 0.46092 0.07124 0.0
H1802 H 0.53892 0.45618 0.0438 0.0
H1803 H 0.53303 0.48565 0.93332 0.0
H1804 H 0.51588 0.50895 0.96072 0.0
H1805 H 0.53575 0.43188 0.99074 0.0
H1806 H 0.55386 0.40892 0.96326 0.0
H1807 H 0.54646 0.4787 0.01055 0.0
H1808 H 0.46649 0.44577 0.97478 0.0
H1809 H 0.43756 0.44188 0.94715 0.0
H1810 H 0.42458 0.53357 0.947 0.0
H1811 H 0.45362 0.53804 0.97456 0.0
C1812 C 0.45785 0.52016 0.07241 0.0
C1813 C 0.44757 0.54864 0.07198 0.0
C1814 C 0.46798 0.50694 0.05681 0.0
C1815 C 0.46864 0.52217 0.04053 0.0
C1816 C 0.45663 0.55004 0.03989 0.0
C1817 C 0.44617 0.56319 0.05552 0.0
C1818 C 0.48325 0.50961 0.02452 0.0
C1819 C 0.46798 0.50766 0.00833 0.0
C1820 C 0.51198 0.49906 0.02526 0.0
C1821 C 0.52998 0.50192 0.04161 0.0
C1822 C 0.53486 0.52913 0.04936 0.0
C1823 C 0.55144 0.5316 0.06492 0.0
C1824 C 0.56337 0.50702 0.07284 0.0
C1825 C 0.55891 0.47993 0.06512 0.0
C1826 C 0.54237 0.47735 0.04954 0.0
C1827 C 0.53452 0.47407 0.94589 0.0
C1828 C 0.54489 0.44563 0.94628 0.0
C1829 C 0.52438 0.48723 0.96151 0.0
C1830 C 0.52374 0.47193 0.97776 0.0
C1831 C 0.53582 0.44409 0.97837 0.0
C1832 C 0.54633 0.43102 0.96272 0.0
C1833 C 0.5091 0.48441 0.99379 0.0
C1834 C 0.52436 0.48636 0.00998 0.0
C1835 C 0.48037 0.49498 0.99304 0.0
C1836 C 0.46243 0.49226 0.97666 0.0
C1837 C 0.45756 0.46512 0.96881 0.0
C1838 C 0.44112 0.46281 0.95318 0.0
C1839 C 0.42933 0.48747 0.94529 0.0
C1840 C 0.43377 0.51449 0.9531 0.0
C1841 C 0.45016 0.51691 0.96875 0.0
H1842 H 0.41671 0.48565 0.93314 0.0
H1843 H 0.57612 0.50896 0.08492 0.0
H1844 H 0.91358 0.44053 0.05324 0.0
H1845 H 0.93795 0.45548 0.02549 0.0
H1846 H 0.00783 0.49122 0.05657 0.0
H1847 H 0.98342 0.47647 0.08416 0.0
H1848 H 0.98951 0.5295 0.03278 0.0
H1849 H 0.01623 0.42964 0.03124 0.0
H1850 H 0.0079 0.37711 0.0317 0.0
H1851 H 0.9556 0.38388 0.98442 0.0
H1852 H 0.96328 0.43654 0.98382 0.0
H1853 H 0.08575 0.55934 0.95958 0.0
H1854 H 0.06243 0.54324 0.98739 0.0
H1855 H 0.99369 0.50476 0.95659 0.0
H1856 H 0.01719 0.52046 0.92891 0.0
H1857 H 0.0117 0.46773 0.98043 0.0
H1858 H 0.98536 0.56774 0.98185 0.0
H1859 H 0.99307 0.62036 0.98173 0.0
H1860 H 0.04404 0.61361 0.02958 0.0
H1861 H 0.03711 0.56086 0.02979 0.0
C1862 C 0.93448 0.45091 0.05405 0.0
C1863 C 0.94665 0.45737 0.07079 0.0
C1864 C 0.94837 0.45957 0.03822 0.0
C1865 C 0.97477 0.4746 0.03889 0.0
C1866 C 0.98743 0.47988 0.05565 0.0
C1867 C 0.97358 0.47129 0.0714 0.0
C1868 C 0.98851 0.48625 0.0223 0.0
C1869 C 0.99475 0.5159 0.02142 0.0
C1870 C 0.99471 0.46874 1.00728 0.0
C1871 C 0.99009 0.43708 0.00759 0.0
C1872 C 0.00275 0.41996 0.02102 0.0
C1873 C 0.99818 0.39016 0.0213 0.0
C1874 C 0.98116 0.37718 0.00813 0.0
C1875 C 0.96874 0.39397 0.99463 0.0
C1876 C 0.97321 0.4238 0.99431 0.0
C1877 C 0.06536 0.54797 0.95883 0.0
C1878 C 0.05323 0.54115 0.94213 0.0
C1879 C 0.05205 0.5387 0.97472 0.0
C1880 C 0.02618 0.52275 0.97417 0.0
C1881 C 0.01368 0.51682 0.95744 0.0
C1882 C 0.02703 0.52592 0.94163 0.0
C1883 C 0.01271 0.51105 0.99086 0.0
C1884 C 0.00651 0.48137 0.99177 0.0
C1885 C 0.00654 0.52857 1.00593 0.0
C1886 C 0.01101 0.56027 1.0057 0.0
C1887 C 0.99849 0.57742 0.99223 0.0
C1888 C 0.00268 0.60729 0.99217 0.0
C1889 C 0.01913 0.62031 1.0056 0.0
C1890 C 0.03139 0.60349 0.01914 0.0
C1891 C 0.02734 0.5736 0.01924 0.0
H1892 H 0.02231 0.64343 1.00554 0.0
H1893 H 0.97766 0.3541 0.00836 0.0
H1894 H 0.97525 0.01686 0.92994 0.0
H1895 H 0.991 0.99395 0.95773 0.0
H1896 H 0.95452 0.06424 0.98804 0.0
H1897 H 0.93932 0.08766 0.96 0.0
H1898 H 0.00848 0.05276 0.99895 0.0
H1899 H 0.92379 0.99641 0.98841 0.0
H1900 H 0.89026 0.96607 0.97104 0.0
H1901 H 0.95634 0.90202 0.9645 0.0
H1902 H 0.99042 0.93216 0.98163 0.0
H1903 H 0.02265 0.98506 0.08421 0.0
H1904 H 0.00664 0.00863 0.05664 0.0
H1905 H 0.04435 0.93987 0.02557 0.0
H1906 H 0.06005 0.91596 0.05334 0.0
H1907 H 0.98941 0.95076 0.01524 0.0
H1908 H 0.07412 0.00734 0.02569 0.0
H1909 H 0.10756 0.0377 0.04311 0.0
H1910 H 0.04117 0.10136 0.04993 0.0
H1911 H 0.00718 0.07118 0.03275 0.0
C1912 C 0.97021 0.0272 0.94256 0.0
C1913 C 0.95604 0.05399 0.94284 0.0
C1914 C 0.97913 0.01404 0.95846 0.0
C1915 C 0.97384 0.02722 0.97506 0.0
C1916 C 0.95884 0.05362 0.97541 0.0
C1917 C 0.94988 0.06684 0.95943 0.0
C1918 C 0.98542 0.0141 0.99184 0.0
C1919 C 0.00388 0.0306 1.00267 0.0
C1920 C 0.9802 0.9849 0.99646 0.0
C1921 C 0.95974 0.96668 0.98618 0.0
C1922 C 0.93125 0.97596 0.98315 0.0
C1923 C 0.91213 0.95878 0.97337 0.0
C1924 C 0.92118 0.93217 0.96664 0.0
C1925 C 0.94937 0.92265 0.96971 0.0
C1926 C 0.96858 0.93976 0.97948 0.0
C1927 C 0.02793 0.97524 0.07146 0.0
C1928 C 0.04263 0.94875 0.07087 0.0
C1929 C 0.01883 0.98875 0.05571 0.0
C1930 C 0.02435 0.97613 0.03897 0.0
C1931 C 0.03985 0.95004 0.03832 0.0
C1932 C 0.04906 0.93654 0.05414 0.0
C1933 C 0.01249 0.98941 0.02232 0.0
C1934 C 0.99397 0.97293 0.01152 0.0
C1935 C 0.01763 0.01863 0.01775 0.0
C1936 C 0.03802 0.03685 0.02807 0.0
C1937 C 0.06657 0.0277 0.03103 0.0
C1938 C 0.08564 0.0449 0.04084 0.0
C1939 C 0.07647 0.07141 0.04766 0.0
C1940 C 0.04823 0.0808 0.04465 0.0
C1941 C 0.02906 0.06367 0.03487 0.0
H1942 H 0.09127 0.0847 0.05525 0.0
H1943 H 0.90635 0.9189 0.95907 0.0
H1944 H 0.98798 0.03697 0.58198 0.0
H1945 H 0.01139 0.0213 0.55426 0.0
H1946 H 0.93465 0.04333 0.52452 0.0
H1947 H 0.91116 0.05902 0.55244 0.0
H1948 H 0.95316 0.98855 0.51724 0.0
H1949 H 0.99577 0.08248 0.51937 0.0
H1950 H 0.02188 0.12325 0.53301 0.0
H1951 H 0.09638 0.06957 0.5407 0.0
H1952 H 0.07056 0.02834 0.52733 0.0
H1953 H 0.01366 0.96731 0.43051 0.0
H1954 H 0.99032 0.98478 0.45783 0.0
H1955 H 0.06816 0.96739 0.48768 0.0
H1956 H 0.0917 0.9504 0.46013 0.0
H1957 H 0.04878 0.02031 0.49478 0.0
H1958 H 0.00659 0.92631 0.49328 0.0
H1959 H 0.98077 0.88496 0.48011 0.0
H1960 H 0.9059 0.93788 0.4718 0.0
H1961 H 0.93142 0.97968 0.4847 0.0
C1962 C 0.97645 0.03918 0.56943 0.0
C1963 C 0.94791 0.04938 0.56926 0.0
C1964 C 0.98979 0.03017 0.55361 0.0
C1965 C 0.97484 0.03115 0.53725 0.0
C1966 C 0.94662 0.04237 0.53697 0.0
C1967 C 0.93332 0.0516 0.55284 0.0
C1968 C 0.98807 0.01867 0.52079 0.0
C1969 C 0.97383 0.99585 0.51214 0.0
C1970 C 0.01551 0.02747 0.51446 0.0
C1971 C 0.03112 0.05224 0.52249 0.0
C1972 C 0.01763 0.07929 0.52411 0.0
C1973 C 0.0324 0.1025 0.53176 0.0
C1974 C 0.06075 0.09898 0.53776 0.0
C1975 C 0.07441 0.07226 0.53607 0.0
C1976 C 0.05973 0.04897 0.52843 0.0
C1977 C 0.02551 0.96663 0.44301 0.0
C1978 C 0.05431 0.9572 0.44331 0.0
C1979 C 0.01219 0.97662 0.45863 0.0
C1980 C 0.02736 0.97728 0.47492 0.0
C1981 C 0.05596 0.96707 0.47531 0.0
C1982 C 0.0693 0.95705 0.45964 0.0
C1983 C 0.01388 0.99015 0.49121 0.0
C1984 C 0.02807 0.01303 0.49985 0.0
C1985 C 0.98645 0.98131 0.49758 0.0
C1986 C 0.97103 0.95621 0.4898 0.0
C1987 C 0.98471 0.92921 0.48851 0.0
C1988 C 0.9701 0.90567 0.48112 0.0
C1989 C 0.94174 0.90881 0.47508 0.0
C1990 C 0.92789 0.93549 0.47646 0.0
C1991 C 0.9424 0.9591 0.48383 0.0
H1992 H 0.93046 0.89056 0.46937 0.0
H1993 H 0.07215 0.11698 0.54368 0.0
H1994 H 0.55532 0.0882 0.45984 0.0
H1995 H 0.53814 0.06502 0.48746 0.0
H1996 H 0.5174 0.98811 0.45761 0.0
H1997 H 0.53427 0.01143 0.43006 0.0
H1998 H 0.47299 0.00348 0.47781 0.0
H1999 H 0.57463 0.9907 0.48744 0.0
H2000 H 0.62542 0.00599 0.49012 0.0
H2001 H 0.60307 0.06187 0.53379 0.0
H2002 H 0.55205 0.04722 0.5312 0.0
H2003 H 0.44302 0.9117 0.55311 0.0
H2004 H 0.45995 0.93473 0.52539 0.0
H2005 H 0.48407 0.01055 0.55536 0.0
H2006 H 0.46785 0.98719 0.58301 0.0
H2007 H 0.52687 0.99556 0.53495 0.0
H2008 H 0.42537 0.00884 0.52539 0.0
H2009 H 0.37442 0.99409 0.52271 0.0
H2010 H 0.39615 0.93802 0.47902 0.0
H2011 H 0.44732 0.95214 0.4816 0.0
C2012 C 0.54786 0.06607 0.45934 0.0
C2013 C 0.5464 0.05143 0.44293 0.0
C2014 C 0.5379 0.05286 0.47509 0.0
C2015 C 0.52647 0.02472 0.47468 0.0
C2016 C 0.52599 0.00981 0.45831 0.0
C2017 C 0.53587 0.02302 0.44262 0.0
C2018 C 0.51357 0.01134 0.49102 0.0
C2019 C 0.48493 0.00138 0.49024 0.0
C2020 C 0.52878 0.00926 0.50741 0.0
C2021 C 0.55946 0.01807 0.509 0.0
C2022 C 0.5805 0.00643 0.49751 0.0
C2023 C 0.60934 0.01495 0.49904 0.0
C2024 C 0.61745 0.03494 0.51209 0.0
C2025 C 0.59675 0.04641 0.52367 0.0
C2026 C 0.56787 0.03799 0.52219 0.0
C2027 C 0.45124 0.93356 0.55362 0.0
C2028 C 0.454 0.9478 0.5701 0.0
C2029 C 0.461 0.94672 0.5378 0.0
C2030 C 0.47332 0.9745 0.5382 0.0
C2031 C 0.47484 0.98911 0.55465 0.0
C2032 C 0.46534 0.97589 0.57041 0.0
C2033 C 0.48621 0.98774 0.52179 0.0
C2034 C 0.51488 0.99766 0.52254 0.0
C2035 C 0.47099 0.98986 0.50539 0.0
C2036 C 0.44023 0.98133 0.50382 0.0
C2037 C 0.41932 0.99319 0.51531 0.0
C2038 C 0.3904 0.98497 0.51379 0.0
C2039 C 0.38207 0.96507 0.50074 0.0
C2040 C 0.40264 0.9534 0.48914 0.0
C2041 C 0.43161 0.96152 0.49062 0.0
H2042 H 0.35966 0.95875 0.49958 0.0
H2043 H 0.63979 0.0415 0.51325 0.0
H2044 H 0.49247 0.54426 0.43355 0.0
H2045 H 0.51594 0.52783 0.46113 0.0
H2046 H 0.43769 0.54473 0.49061 0.0
H2047 H 0.41433 0.56162 0.46294 0.0
H2048 H 0.48573 0.55784 0.5104 0.0
H2049 H 0.45251 0.47686 0.47522 0.0
H2050 H 0.4488 0.44692 0.44801 0.0
H2051 H 0.54065 0.43473 0.44802 0.0
H2052 H 0.54493 0.46475 0.47515 0.0
H2053 H 0.51646 0.47253 0.5856 0.0
H2054 H 0.49287 0.48976 0.55827 0.0
H2055 H 0.56846 0.46682 0.52766 0.0
H2056 H 0.5916 0.44852 0.55505 0.0
H2057 H 0.52193 0.45712 0.50835 0.0
H2058 H 0.55612 0.53689 0.54316 0.0
H2059 H 0.56118 0.56649 0.5704 0.0
H2060 H 0.46982 0.58195 0.57081 0.0
H2061 H 0.46415 0.55213 0.54369 0.0
C2062 C 0.48063 0.54527 0.44604 0.0
C2063 C 0.45169 0.55425 0.4462 0.0
C2064 C 0.49391 0.53557 0.46175 0.0
C2065 C 0.47839 0.53436 0.47789 0.0
C2066 C 0.45006 0.54528 0.47831 0.0
C2067 C 0.43678 0.55511 0.46255 0.0
C2068 C 0.49111 0.52011 0.49398 0.0
C2069 C 0.49332 0.53571 0.51002 0.0
C2070 C 0.50167 0.49141 0.49341 0.0
C2071 C 0.49906 0.47325 0.47713 0.0
C2072 C 0.47193 0.46792 0.46936 0.0
C2073 C 0.46972 0.45089 0.45398 0.0
C2074 C 0.49449 0.43901 0.44627 0.0
C2075 C 0.52149 0.444 0.45399 0.0
C2076 C 0.52382 0.46095 0.46939 0.0
C2077 C 0.52762 0.47043 0.57292 0.0
C2078 C 0.55568 0.45907 0.57232 0.0
C2079 C 0.51433 0.48062 0.55735 0.0
C2080 C 0.52915 0.48038 0.54092 0.0
C2081 C 0.55661 0.46744 0.54016 0.0
C2082 C 0.56978 0.45683 0.55575 0.0
C2083 C 0.51657 0.49482 0.52483 0.0
C2084 C 0.51438 0.47926 0.50877 0.0
C2085 C 0.50626 0.52365 0.52534 0.0
C2086 C 0.50968 0.54206 0.54147 0.0
C2087 C 0.53708 0.54649 0.5491 0.0
C2088 C 0.54007 0.56331 0.56452 0.0
C2089 C 0.51583 0.57601 0.57237 0.0
C2090 C 0.48857 0.57205 0.56474 0.0
C2091 C 0.48547 0.55522 0.54933 0.0
H2092 H 0.51817 0.58897 0.58433 0.0
H2093 H 0.49278 0.42589 0.43435 0.0
H2094 H 0.01522 0.5872 0.56145 0.0
H2095 H 0.99807 0.56292 0.53436 0.0
H2096 H 0.06289 0.49709 0.54132 0.0
H2097 H 0.08017 0.52161 0.56853 0.0
H2098 H 0.05417 0.51154 0.50525 0.0
H2099 H 0.99697 0.48448 0.55617 0.0
H2100 H 0.96724 0.49348 0.58297 0.0
H2101 H 0.90494 0.53853 0.55086 0.0
H2102 H 0.93452 0.53012 0.52388 0.0
H2103 H 0.98963 0.40316 0.45301 0.0
H2104 H 0.00657 0.42812 0.47993 0.0
H2105 H 0.94433 0.49573 0.47085 0.0
H2106 H 0.92756 0.4708 0.44366 0.0
H2107 H 0.95165 0.4805 0.50784 0.0
H2108 H 0.00848 0.5072 0.45689 0.0
H2109 H 0.03771 0.49762 0.42997 0.0
H2110 H 0.10059 0.45326 0.46201 0.0
H2111 H 0.07141 0.46209 0.48911 0.0
C2112 C 0.02623 0.56793 0.55692 0.0
C2113 C 0.04893 0.55617 0.56703 0.0
C2114 C 0.01631 0.55396 0.54153 0.0
C2115 C 0.02881 0.52786 0.53598 0.0
C2116 C 0.05283 0.51712 0.54539 0.0
C2117 C 0.06277 0.53115 0.56086 0.0
C2118 C 0.01544 0.51096 0.52118 0.0
C2119 C 0.03189 0.50445 0.50592 0.0
C2120 C 0.98614 0.50213 0.52187 0.0
C2121 C 0.9681 0.50689 0.53803 0.0
C2122 C 0.97702 0.49646 0.55484 0.0
C2123 C 0.96017 0.50142 0.57006 0.0
C2124 C 0.93425 0.51663 0.56863 0.0
C2125 C 0.92505 0.52679 0.55195 0.0
C2126 C 0.94183 0.5219 0.53669 0.0
C2127 C 0.97916 0.42303 0.45701 0.0
C2128 C 0.95748 0.43523 0.44626 0.0
C2129 C 0.98892 0.43733 0.47232 0.0
C2130 C 0.97706 0.46403 0.47723 0.0
C2131 C 0.95386 0.4752 0.46726 0.0
C2132 C 0.94421 0.46094 0.4518 0.0
C2133 C 0.99037 0.4811 0.49195 0.0
C2134 C 0.97393 0.48761 0.50718 0.0
C2135 C 0.01965 0.48992 0.49122 0.0
C2136 C 0.0376 0.48506 0.47502 0.0
C2137 C 0.02843 0.49522 0.45819 0.0
C2138 C 0.045 0.48995 0.4429 0.0
C2139 C 0.07094 0.47477 0.44427 0.0
C2140 C 0.08044 0.46495 0.46096 0.0
C2141 C 0.0639 0.4701 0.4763 0.0
H2142 H 0.08368 0.47069 0.43239 0.0
H2143 H 0.92127 0.5205 0.58044 0.0
H2144 H 0.61683 0.11423 0.33093 0.0
H2145 H 0.62203 0.11045 0.29832 0.0
H2146 H 0.54781 0.05446 0.29621 0.0
H2147 H 0.54221 0.05844 0.32868 0.0
H2148 H 0.59472 0.03726 0.27348 0.0
H2149 H 0.53732 0.12156 0.28787 0.0
H2150 H 0.52845 0.16798 0.30299 0.0
H2151 H 0.60263 0.20461 0.27705 0.0
H2152 H 0.61219 0.15823 0.26198 0.0
H2153 H 0.55641 0.04126 0.18311 0.0
H2154 H 0.55371 0.04628 0.21562 0.0
H2155 H 0.61476 0.11649 0.21343 0.0
H2156 H 0.61657 0.11235 0.18077 0.0
H2157 H 0.5778 0.12699 0.23869 0.0
H2158 H 0.63542 0.04527 0.22344 0.0
H2159 H 0.64686 0.99925 0.20853 0.0
H2160 H 0.57685 0.958 0.2362 0.0
H2161 H 0.56472 0.00391 0.25109 0.0
C2162 C 0.60202 0.1006 0.32357 0.0
C2163 C 0.57905 0.0867 0.33238 0.0
C2164 C 0.6049 0.09863 0.30494 0.0
C2165 C 0.5851 0.08243 0.29485 0.0
C2166 C 0.56326 0.06713 0.30374 0.0
C2167 C 0.5601 0.06944 0.3223 0.0
C2168 C 0.58592 0.08273 0.27497 0.0
C2169 C 0.59081 0.0568 0.26584 0.0
C2170 C 0.58156 0.1084 0.26505 0.0
C2171 C 0.57565 0.13634 0.27396 0.0
C2172 C 0.55188 0.13944 0.28551 0.0
C2173 C 0.5467 0.16575 0.29405 0.0
C2174 C 0.56501 0.18921 0.29102 0.0
C2175 C 0.58849 0.18641 0.27941 0.0
C2176 C 0.59379 0.16012 0.27086 0.0
C2177 C 0.56882 0.05815 0.18952 0.0
C2178 C 0.58685 0.07628 0.17938 0.0
C2179 C 0.56748 0.06084 0.20814 0.0
C2180 C 0.58475 0.08116 0.2171 0.0
C2181 C 0.60142 0.10047 0.20689 0.0
C2182 C 0.60236 0.09814 0.1882 0.0
C2183 C 0.58634 0.08136 0.23705 0.0
C2184 C 0.58192 0.10741 0.24624 0.0
C2185 C 0.59159 0.05584 0.24704 0.0
C2186 C 0.59901 0.0281 0.23826 0.0
C2187 C 0.62236 0.02643 0.22627 0.0
C2188 C 0.62897 0.00036 0.21782 0.0
C2189 C 0.61255 0.97573 0.22138 0.0
C2190 C 0.58953 0.97711 0.23344 0.0
C2191 C 0.58279 0.00314 0.2419 0.0
H2192 H 0.6177 0.95557 0.21482 0.0
H2193 H 0.56097 0.20957 0.29764 0.0
H2194 H 0.39758 0.61992 0.33565 0.0
H2195 H 0.39952 0.62614 0.30306 0.0
H2196 H 0.42571 0.53745 0.2971 0.0
H2197 H 0.42385 0.53098 0.32948 0.0
H2198 H 0.44167 0.61985 0.27741 0.0
H2199 H 0.39035 0.50886 0.26127 0.0
H2200 H 0.35683 0.47406 0.27517 0.0
H2201 H 0.31736 0.54241 0.30522 0.0
H2202 H 0.35034 0.57766 0.29131 0.0
H2203 H 0.46757 0.58078 0.18814 0.0
H2204 H 0.46144 0.578 0.22047 0.0
H2205 H 0.3709 0.59729 0.21476 0.0
H2206 H 0.3768 0.60028 0.18213 0.0
H2207 H 0.38166 0.55437 0.24026 0.0
H2208 H 0.41378 0.6498 0.22688 0.0
H2209 H 0.44505 0.68655 0.21294 0.0
H2210 H 0.51799 0.65377 0.24201 0.0
H2211 H 0.48723 0.61653 0.25593 0.0
C2212 C 0.40417 0.60185 0.32744 0.0
C2213 C 0.41034 0.57488 0.33526 0.0
C2214 C 0.40522 0.60544 0.3088 0.0
C2215 C 0.41223 0.58211 0.29762 0.0
C2216 C 0.41972 0.55561 0.30543 0.0
C2217 C 0.41878 0.55202 0.324 0.0
C2218 C 0.41095 0.58502 0.27777 0.0
C2219 C 0.42853 0.60556 0.26931 0.0
C2220 C 0.39331 0.56681 0.26716 0.0
C2221 C 0.373 0.54585 0.27535 0.0
C2222 C 0.37442 0.51648 0.27078 0.0
C2223 C 0.35553 0.49667 0.27867 0.0
C2224 C 0.33504 0.50601 0.29111 0.0
C2225 C 0.33331 0.53519 0.29563 0.0
C2226 C 0.35212 0.55509 0.28776 0.0
C2227 C 0.44621 0.58419 0.19364 0.0
C2228 C 0.4227 0.591 0.18245 0.0
C2229 C 0.44281 0.58268 0.2122 0.0
C2230 C 0.41584 0.58792 0.22007 0.0
C2231 C 0.39196 0.59333 0.20896 0.0
C2232 C 0.39537 0.595 0.19031 0.0
C2233 C 0.41308 0.58856 0.23992 0.0
C2234 C 0.39473 0.56871 0.24838 0.0
C2235 C 0.42969 0.60769 0.25054 0.0
C2236 C 0.44823 0.63023 0.24234 0.0
C2237 C 0.43653 0.6503 0.2302 0.0
C2238 C 0.45416 0.67123 0.22232 0.0
C2239 C 0.4835 0.67246 0.22656 0.0
C2240 C 0.49526 0.65279 0.23873 0.0
C2241 C 0.47773 0.63178 0.24664 0.0
H2242 H 0.49712 0.68868 0.22044 0.0
H2243 H 0.32046 0.49063 0.29722 0.0
H2244 H 0.9376 0.46662 0.1848 0.0
H2245 H 0.94163 0.46098 0.2173 0.0
H2246 H 0.88892 0.38446 0.21489 0.0
H2247 H 0.8852 0.38962 0.18229 0.0
H2248 H 0.86997 0.42812 0.24014 0.0
H2249 H 0.95524 0.37485 0.22415 0.0
H2250 H 0.00186 0.3673 0.20896 0.0
H2251 H 0.03779 0.43995 0.23675 0.0
H2252 H 0.99122 0.4482 0.25193 0.0
H2253 H 0.88507 0.3864 0.33173 0.0
H2254 H 0.88051 0.39096 0.29927 0.0
H2255 H 0.95146 0.45133 0.29862 0.0
H2256 H 0.95695 0.44566 0.33096 0.0
H2257 H 0.9607 0.41461 0.27433 0.0
H2258 H 0.87728 0.47008 0.28969 0.0
H2259 H 0.8309 0.48072 0.30447 0.0
H2260 H 0.79161 0.40879 0.27772 0.0
H2261 H 0.83787 0.39749 0.26295 0.0
C2262 C 0.92735 0.44825 0.19113 0.0
C2263 C 0.91114 0.42852 0.18094 0.0
C2264 C 0.92963 0.4451 0.20971 0.0
C2265 C 0.91545 0.42239 0.21851 0.0
C2266 C 0.89996 0.40217 0.20835 0.0
C2267 C 0.89808 0.40501 0.18971 0.0
C2268 C 0.91571 0.42069 0.23837 0.0
C2269 C 0.8897 0.42473 0.24767 0.0
C2270 C 0.94161 0.41726 0.24813 0.0
C2271 C 0.96965 0.41231 0.23904 0.0
C2272 C 0.97299 0.38938 0.2269 0.0
C2273 C 0.99943 0.38494 0.21832 0.0
C2274 C 0.02275 0.40318 0.22185 0.0
C2275 C 0.0197 0.42586 0.23401 0.0
C2276 C 0.99329 0.43041 0.24262 0.0
C2277 C 0.8992 0.40121 0.32473 0.0
C2278 C 0.92133 0.41572 0.33393 0.0
C2279 C 0.8966 0.40382 0.3061 0.0
C2280 C 0.91557 0.4216 0.29634 0.0
C2281 C 0.93667 0.43729 0.30572 0.0
C2282 C 0.93965 0.43423 0.32426 0.0
C2283 C 0.91488 0.42232 0.27634 0.0
C2284 C 0.94085 0.41805 0.26693 0.0
C2285 C 0.88897 0.42604 0.26649 0.0
C2286 C 0.86112 0.43277 0.27536 0.0
C2287 C 0.85881 0.45639 0.28707 0.0
C2288 C 0.83253 0.46257 0.29543 0.0
C2289 C 0.80834 0.44539 0.29208 0.0
C2290 C 0.81037 0.42205 0.28032 0.0
C2291 C 0.83661 0.41576 0.27194 0.0
H2292 H 0.78801 0.45021 0.29856 0.0
H2293 H 0.04321 0.39969 0.21519 0.0
H2294 H 0.11826 0.8841 0.33219 0.0
H2295 H 0.11556 0.87792 0.29961 0.0
H2296 H 0.05331 0.94681 0.29641 0.0
H2297 H 0.05642 0.95363 0.32888 0.0
H2298 H 0.04229 0.89441 0.2738 0.0
H2299 H 0.11586 0.96571 0.28871 0.0
H2300 H 0.15975 0.98165 0.30453 0.0
H2301 H 0.20817 0.91331 0.28 0.0
H2302 H 0.16439 0.89668 0.26425 0.0
H2303 H 0.04131 0.93754 0.18481 0.0
H2304 H 0.0464 0.93911 0.21728 0.0
H2305 H 0.1239 0.88788 0.21377 0.0
H2306 H 0.1193 0.88682 0.18105 0.0
H2307 H 0.12893 0.92646 0.24005 0.0
H2308 H 0.05965 0.85589 0.22379 0.0
H2309 H 0.01709 0.83584 0.20837 0.0
H2310 H 0.96235 0.89643 0.23548 0.0
H2311 H 0.00464 0.91707 0.25093 0.0
C2312 C 0.10346 0.89744 0.32461 0.0
C2313 C 0.08755 0.91937 0.33309 0.0
C2314 C 0.10209 0.89401 0.306 0.0
C2315 C 0.08441 0.91207 0.29563 0.0
C2316 C 0.06709 0.93268 0.30419 0.0
C2317 C 0.06889 0.93654 0.32273 0.0
C2318 C 0.08549 0.91105 0.2758 0.0
C2319 C 0.06109 0.90162 0.26639 0.0
C2320 C 0.11043 0.91953 0.2662 0.0
C2321 C 0.13679 0.92975 0.27548 0.0
C2322 C 0.1358 0.95392 0.28682 0.0
C2323 C 0.16067 0.96311 0.29575 0.0
C2324 C 0.18672 0.94845 0.29332 0.0
C2325 C 0.18797 0.92462 0.2819 0.0
C2326 C 0.16314 0.91531 0.27297 0.0
C2327 C 0.05979 0.92708 0.19089 0.0
C2328 C 0.07977 0.91183 0.18035 0.0
C2329 C 0.06254 0.9278 0.20949 0.0
C2330 C 0.08504 0.91288 0.21804 0.0
C2331 C 0.1062 0.89932 0.2075 0.0
C2332 C 0.10362 0.89884 0.18878 0.0
C2333 C 0.08543 0.91037 0.23792 0.0
C2334 C 0.11012 0.91905 0.24738 0.0
C2335 C 0.06093 0.9006 0.24758 0.0
C2336 C 0.03536 0.88819 0.23841 0.0
C2337 C 0.03856 0.86507 0.22638 0.0
C2338 C 0.01448 0.85357 0.21764 0.0
C2339 C 0.98705 0.86491 0.22091 0.0
C2340 C 0.98362 0.8877 0.23295 0.0
C2341 C 0.00764 0.89928 0.24173 0.0
H2342 H 0.96843 0.85599 0.21413 0.0
H2343 H 0.20595 0.95559 0.30024 0.0
H2344 H 0.40859 0.97225 0.82746 0.0
H2345 H 0.41148 0.96641 0.79512 0.0
H2346 H 0.40229 0.87436 0.80101 0.0
H2347 H 0.39913 0.87995 0.83364 0.0
H2348 H 0.44392 0.88996 0.77553 0.0
H2349 H 0.34566 0.91043 0.78886 0.0
H2350 H 0.30531 0.93678 0.80275 0.0
H2351 H 0.32835 0.01311 0.77343 0.0
H2352 H 0.36926 0.98733 0.75961 0.0
H2353 H 0.3777 0.89751 0.68008 0.0
H2354 H 0.37061 0.9001 0.71257 0.0
H2355 H 0.45622 0.93516 0.71874 0.0
H2356 H 0.46359 0.93252 0.68646 0.0
H2357 H 0.37204 0.94201 0.73824 0.0
H2358 H 0.48826 0.90378 0.7546 0.0
H2359 H 0.52669 0.87451 0.74075 0.0
H2360 H 0.4633 0.82754 0.71063 0.0
H2361 H 0.42447 0.85622 0.7245 0.0
C2362 C 0.40742 0.95065 0.822 0.0
C2363 C 0.40341 0.92656 0.83324 0.0
C2364 C 0.40897 0.9474 0.80344 0.0
C2365 C 0.40665 0.92002 0.79562 0.0
C2366 C 0.40398 0.89573 0.80677 0.0
C2367 C 0.40221 0.89896 0.82542 0.0
C2368 C 0.4063 0.91716 0.77579 0.0
C2369 C 0.42819 0.90128 0.76738 0.0
C2370 C 0.38538 0.93143 0.76514 0.0
C2371 C 0.36068 0.947 0.77331 0.0
C2372 C 0.34228 0.9329 0.78548 0.0
C2373 C 0.31927 0.94773 0.79333 0.0
C2374 C 0.31427 0.97662 0.78899 0.0
C2375 C 0.33226 0.99073 0.77678 0.0
C2376 C 0.35536 0.97601 0.76893 0.0
C2377 C 0.39482 0.9063 0.68831 0.0
C2378 C 0.42133 0.91452 0.68063 0.0
C2379 C 0.39075 0.90769 0.7069 0.0
C2380 C 0.41312 0.91722 0.71813 0.0
C2381 C 0.43887 0.92715 0.71039 0.0
C2382 C 0.44297 0.92575 0.69188 0.0
C2383 C 0.41027 0.91563 0.73797 0.0
C2384 C 0.38774 0.93063 0.74638 0.0
C2385 C 0.43032 0.90013 0.74862 0.0
C2386 C 0.45349 0.88234 0.74049 0.0
C2387 C 0.48251 0.8871 0.7451 0.0
C2388 C 0.50437 0.87063 0.73723 0.0
C2389 C 0.49745 0.84923 0.72478 0.0
C2390 C 0.46864 0.84418 0.72023 0.0
C2391 C 0.4467 0.86056 0.72808 0.0
H2392 H 0.51441 0.83654 0.71869 0.0
H2393 H 0.29642 0.98806 0.79507 0.0
H2394 H 0.58868 0.38667 0.68161 0.0
H2395 H 0.58213 0.38036 0.71402 0.0
H2396 H 0.59562 0.47158 0.72178 0.0
H2397 H 0.60076 0.47819 0.68972 0.0
H2398 H 0.61495 0.38729 0.74177 0.0
H2399 H 0.55985 0.49767 0.75631 0.0
H2400 H 0.52672 0.53175 0.7414 0.0
H2401 H 0.49266 0.46295 0.70927 0.0
H2402 H 0.5253 0.42842 0.72414 0.0
H2403 H 0.61751 0.40902 0.83633 0.0
H2404 H 0.6237 0.41544 0.80393 0.0
H2405 H 0.53121 0.41435 0.79709 0.0
H2406 H 0.52491 0.40949 0.82914 0.0
H2407 H 0.55014 0.45168 0.77631 0.0
H2408 H 0.57739 0.35395 0.78818 0.0
H2409 H 0.60477 0.31486 0.8028 0.0
H2410 H 0.68385 0.34897 0.78156 0.0
H2411 H 0.65695 0.38851 0.76698 0.0
C2412 C 0.58981 0.4054 0.69023 0.0
C2413 C 0.59486 0.43297 0.68298 0.0
C2414 C 0.58628 0.40176 0.70877 0.0
C2415 C 0.58795 0.42555 0.72042 0.0
C2416 C 0.59344 0.45295 0.71315 0.0
C2417 C 0.59645 0.45667 0.69471 0.0
C2418 C 0.58419 0.42205 0.74016 0.0
C2419 C 0.60071 0.40131 0.74931 0.0
C2420 C 0.56525 0.43995 0.75008 0.0
C2421 C 0.54523 0.46052 0.74123 0.0
C2422 C 0.5452 0.4898 0.74612 0.0
C2423 C 0.52652 0.5092 0.73767 0.0
C2424 C 0.50766 0.49954 0.72436 0.0
C2425 C 0.50736 0.47043 0.71953 0.0
C2426 C 0.52596 0.45094 0.72795 0.0
C2427 C 0.59854 0.41053 0.82792 0.0
C2428 C 0.57074 0.40872 0.83542 0.0
C2429 C 0.60208 0.41392 0.80935 0.0
C2430 C 0.57792 0.41491 0.7979 0.0
C2431 C 0.55026 0.41373 0.8055 0.0
C2432 C 0.5467 0.41088 0.82395 0.0
C2433 C 0.58098 0.41698 0.77802 0.0
C2434 C 0.56439 0.43759 0.76882 0.0
C2435 C 0.59897 0.39819 0.76804 0.0
C2436 C 0.61519 0.37434 0.77664 0.0
C2437 C 0.60064 0.35321 0.78672 0.0
C2438 C 0.61607 0.33097 0.79499 0.0
C2439 C 0.64604 0.32948 0.79315 0.0
C2440 C 0.66064 0.35019 0.78299 0.0
C2441 C 0.64532 0.3725 0.77471 0.0
H2442 H 0.65792 0.31223 0.79956 0.0
H2443 H 0.49325 0.51459 0.71782 0.0
H2444 H 0.05513 0.55169 0.68293 0.0
H2445 H 0.05948 0.55043 0.7155 0.0
H2446 H 0.1204 0.62076 0.71345 0.0
H2447 H 0.11711 0.62116 0.6807 0.0
H2448 H 0.13442 0.58668 0.7399 0.0
H2449 H 0.04653 0.63165 0.72154 0.0
H2450 H 0.00052 0.63567 0.70513 0.0
H2451 H 0.96764 0.56162 0.73305 0.0
H2452 H 0.01363 0.55689 0.74945 0.0
H2453 H 0.11236 0.62111 0.83203 0.0
H2454 H 0.11003 0.62719 0.79941 0.0
H2455 H 0.06009 0.54901 0.79515 0.0
H2456 H 0.06236 0.54275 0.82759 0.0
H2457 H 0.04083 0.59193 0.77209 0.0
H2458 H 0.13125 0.54654 0.78906 0.0
H2459 H 0.17731 0.54435 0.80557 0.0
H2460 H 0.20498 0.62295 0.78039 0.0
H2461 H 0.15889 0.62579 0.76391 0.0
C2462 C 0.07001 0.5664 0.68939 0.0
C2463 C 0.08565 0.58663 0.67925 0.0
C2464 C 0.07226 0.56589 0.70805 0.0
C2465 C 0.08949 0.58619 0.71705 0.0
C2466 C 0.10672 0.60507 0.70688 0.0
C2467 C 0.10492 0.60519 0.68813 0.0
C2468 C 0.08819 0.58869 0.73696 0.0
C2469 C 0.11395 0.58826 0.74688 0.0
C2470 C 0.06151 0.59071 0.74622 0.0
C2471 C 0.03362 0.59379 0.73662 0.0
C2472 C 0.02953 0.61614 0.72412 0.0
C2473 C 0.00346 0.61854 0.71482 0.0
C2474 C 0.98119 0.59887 0.71802 0.0
C2475 C 0.98492 0.57682 0.73058 0.0
C2476 C 0.01098 0.57429 0.73989 0.0
C2477 C 0.10026 0.60562 0.82419 0.0
C2478 C 0.08766 0.58137 0.8324 0.0
C2479 C 0.09917 0.60899 0.80553 0.0
C2480 C 0.08526 0.58829 0.79482 0.0
C2481 C 0.07104 0.56517 0.80313 0.0
C2482 C 0.07237 0.56163 0.82169 0.0
C2483 C 0.08696 0.58946 0.77493 0.0
C2484 C 0.06126 0.59061 0.76504 0.0
C2485 C 0.11367 0.58848 0.76572 0.0
C2486 C 0.14153 0.58653 0.7754 0.0
C2487 C 0.14709 0.56344 0.78714 0.0
C2488 C 0.17321 0.56207 0.79647 0.0
C2489 C 0.19403 0.58354 0.79407 0.0
C2490 C 0.18882 0.60636 0.78226 0.0
C2491 C 0.16271 0.60785 0.77291 0.0
H2492 H 0.21423 0.58245 0.80132 0.0
H2493 H 0.96103 0.60075 0.71079 0.0
H2494 H 0.88515 0.11971 0.83085 0.0
H2495 H 0.88059 0.11598 0.79829 0.0
H2496 H 0.94564 0.04931 0.79776 0.0
H2497 H 0.95119 0.05404 0.83014 0.0
H2498 H 0.95889 0.08612 0.77404 0.0
H2499 H 0.87051 0.03753 0.78832 0.0
H2500 H 0.82295 0.03099 0.80259 0.0
H2501 H 0.791 0.10625 0.77554 0.0
H2502 H 0.83849 0.11347 0.76127 0.0
H2503 H 0.93678 0.03619 0.68456 0.0
H2504 H 0.93964 0.04192 0.71706 0.0
H2505 H 0.89015 0.12046 0.71352 0.0
H2506 H 0.88741 0.11508 0.68092 0.0
H2507 H 0.86846 0.07987 0.73876 0.0
H2508 H 0.95806 0.12604 0.72365 0.0
H2509 H 0.00562 0.12996 0.70903 0.0
H2510 H 0.03508 0.05512 0.73759 0.0
H2511 H 0.98754 0.05051 0.7522 0.0
C2512 C 0.89791 0.10374 0.82382 0.0
C2513 C 0.91852 0.08716 0.83303 0.0
C2514 C 0.89532 0.10161 0.80517 0.0
C2515 C 0.91275 0.08231 0.79545 0.0
C2516 C 0.93211 0.06456 0.80486 0.0
C2517 C 0.93512 0.0671 0.8234 0.0
C2518 C 0.91254 0.08203 0.77546 0.0
C2519 C 0.93907 0.08428 0.76639 0.0
C2520 C 0.88673 0.0805 0.76533 0.0
C2521 C 0.85815 0.0762 0.77387 0.0
C2522 C 0.85341 0.05282 0.78552 0.0
C2523 C 0.82645 0.04896 0.79359 0.0
C2524 C 0.80399 0.06824 0.79001 0.0
C2525 C 0.80842 0.09136 0.77832 0.0
C2526 C 0.83535 0.09533 0.77022 0.0
C2527 C 0.92696 0.05499 0.69064 0.0
C2528 C 0.91191 0.07521 0.68013 0.0
C2529 C 0.92859 0.0582 0.70922 0.0
C2530 C 0.91502 0.08156 0.7177 0.0
C2531 C 0.9007 0.10225 0.70723 0.0
C2532 C 0.89939 0.09926 0.68859 0.0
C2533 C 0.91473 0.08353 0.73755 0.0
C2534 C 0.88817 0.08168 0.74652 0.0
C2535 C 0.9405 0.085 0.74762 0.0
C2536 C 0.96914 0.08778 0.73889 0.0
C2537 C 0.97459 0.11028 0.7267 0.0
C2538 C 0.00157 0.11265 0.71844 0.0
C2539 C 0.02334 0.09276 0.72235 0.0
C2540 C 0.01819 0.0705 0.73456 0.0
C2541 C 0.99125 0.06801 0.74285 0.0
H2542 H 0.04421 0.09464 0.71594 0.0
H2543 H 0.78314 0.06521 0.79627 0.0
loop_
_geom_bond_atom_site_label_1
_geom_bond_atom_site_label_2
_geom_bond_distance
_geom_bond_site_symmetry_2
_ccdc_geom_bond_type
Co0 O3 1.970 . S
Co0 N17 1.989 . S
Co0 O25 1.967 . S
Co0 O32 1.920 . S
Co1 O4 1.955 1_565 S
Co1 N10 2.045 . S
Co1 N18 1.980 1_565 S
Co1 O26 1.946 . S
C2 O3 1.258 . S
C2 O4 1.263 . S
O3 Co0 1.970 . S
O3 C2 1.258 . S
O4 Co1 1.955 1_545 S
O4 C2 1.263 . S
C5 O6 1.235 . S
C5 O32 1.289 . S
O6 C5 1.235 . S
C7 C9 1.400 . S
C7 N10 1.351 . S
C7 C12 1.501 . S
C8 C9 1.387 . S
C8 N11 1.341 . S
C9 C7 1.400 . S
C9 C8 1.387 . S
N10 Co1 2.045 . S
N10 C7 1.351 . S
N10 N11 1.365 . S
N11 C8 1.341 . S
N11 N10 1.365 . S
N11 H31 0.862 . S
C12 C7 1.501 . S
C12 H13 0.961 . S
C12 H14 0.961 . S
C12 H15 0.960 . S
H13 C12 0.961 . S
H14 C12 0.961 . S
H15 C12 0.960 . S
C16 N17 1.342 . S
C16 C20 1.401 . S
C16 C21 1.499 . S
N17 Co0 1.989 . S
N17 C16 1.342 . S
N17 N18 1.388 . S
N18 Co1 1.980 1_545 S
N18 N17 1.388 . S
N18 C19 1.346 . S
C19 N18 1.346 . S
C19 C20 1.396 . S
C19 C29 1.510 1_545 S
C20 C16 1.401 . S
C20 C19 1.396 . S
C21 C16 1.499 . S
C21 H22 0.959 . S
C21 H23 0.960 . S
C21 H24 0.961 . S
H22 C21 0.959 . S
H23 C21 0.960 . S
H24 C21 0.961 . S
O25 Co0 1.967 . S
O25 C33 1.258 . S
O26 Co1 1.946 . S
O26 C33 1.266 1_565 S
H27 C29 0.959 . S
H28 C29 0.961 . S
C29 C19 1.510 1_565 S
C29 H27 0.959 . S
C29 H28 0.961 . S
C29 H30 0.960 . S
H30 C29 0.960 . S
H31 N11 0.862 . S
O32 Co0 1.920 . S
O32 C5 1.289 . S
C33 O25 1.258 . S
C33 O26 1.266 1_545 S
Co34 O37 1.970 . S
Co34 N51 1.989 . S
Co34 O59 1.967 . S
Co34 O66 1.920 . S
Co35 O38 1.966 . S
Co35 N44 2.022 . S
Co35 N52 1.993 . S
Co35 O60 1.941 . S
C36 O37 1.258 . S
C36 O38 1.263 . S
O37 Co34 1.970 . S
O37 C36 1.258 . S
O38 Co35 1.966 . S
O38 C36 1.263 . S
C39 O40 1.235 . S
C39 O66 1.289 . S
O40 C39 1.235 . S
C41 C43 1.400 . S
C41 N44 1.351 . S
C41 C46 1.501 . S
C42 C43 1.387 . S
C42 N45 1.341 . S
C43 C41 1.400 . S
C43 C42 1.387 . S
N44 Co35 2.022 . S
N44 C41 1.351 . S
N44 N45 1.365 . S
N45 C42 1.341 . S
N45 N44 1.365 . S
N45 H65 0.862 . S
C46 C41 1.501 . S
C46 H47 0.961 . S
C46 H48 0.961 . S
C46 H49 0.960 . S
H47 C46 0.961 . S
H48 C46 0.961 . S
H49 C46 0.960 . S
C50 N51 1.342 . S
C50 C54 1.401 . S
C50 C55 1.499 . S
N51 Co34 1.989 . S
N51 C50 1.342 . S
N51 N52 1.388 . S
N52 Co35 1.993 . S
N52 N51 1.388 . S
N52 C53 1.346 . S
C53 N52 1.346 . S
C53 C54 1.396 . S
C53 C63 1.510 . S
C54 C50 1.401 . S
C54 C53 1.396 . S
C55 C50 1.499 . S
C55 H56 0.959 . S
C55 H57 0.960 . S
C55 H58 0.961 . S
H56 C55 0.959 . S
H57 C55 0.960 . S
H58 C55 0.961 . S
O59 Co34 1.967 . S
O59 C67 1.258 . S
O60 Co35 1.941 . S
O60 C67 1.266 . S
H61 C63 0.959 . S
H62 C63 0.961 . S
C63 C53 1.510 . S
C63 H61 0.959 . S
C63 H62 0.961 . S
C63 H64 0.960 . S
H64 C63 0.960 . S
H65 N45 0.862 . S
O66 Co34 1.920 . S
O66 C39 1.289 . S
C67 O59 1.258 . S
C67 O60 1.266 . S
Co68 O71 1.970 . S
Co68 N85 1.989 . S
Co68 O93 1.967 . S
Co68 O100 1.920 . S
Co69 O72 1.966 . S
Co69 N78 2.022 . S
Co69 N86 1.993 . S
Co69 O94 1.941 . S
C70 O71 1.258 . S
C70 O72 1.263 . S
O71 Co68 1.970 . S
O71 C70 1.258 . S
O72 Co69 1.966 . S
O72 C70 1.263 . S
C73 O74 1.235 . S
C73 O100 1.289 . S
O74 C73 1.235 . S
C75 C77 1.400 . S
C75 N78 1.351 . S
C75 C80 1.501 . S
C76 C77 1.387 . S
C76 N79 1.341 . S
C77 C75 1.400 . S
C77 C76 1.387 . S
N78 Co69 2.022 . S
N78 C75 1.351 . S
N78 N79 1.365 . S
N79 C76 1.341 . S
N79 N78 1.365 . S
N79 H99 0.862 . S
C80 C75 1.501 . S
C80 H81 0.961 . S
C80 H82 0.961 . S
C80 H83 0.960 . S
H81 C80 0.961 . S
H82 C80 0.961 . S
H83 C80 0.960 . S
C84 N85 1.342 . S
C84 C88 1.401 . S
C84 C89 1.499 . S
N85 Co68 1.989 . S
N85 C84 1.342 . S
N85 N86 1.388 . S
N86 Co69 1.993 . S
N86 N85 1.388 . S
N86 C87 1.346 . S
C87 N86 1.346 . S
C87 C88 1.396 . S
C87 C97 1.510 . S
C88 C84 1.401 . S
C88 C87 1.396 . S
C89 C84 1.499 . S
C89 H90 0.959 . S
C89 H91 0.960 . S
C89 H92 0.961 . S
H90 C89 0.959 . S
H91 C89 0.960 . S
H92 C89 0.961 . S
O93 Co68 1.967 . S
O93 C101 1.258 . S
O94 Co69 1.941 . S
O94 C101 1.266 . S
H95 C97 0.959 . S
H96 C97 0.961 . S
C97 C87 1.510 . S
C97 H95 0.959 . S
C97 H96 0.961 . S
C97 H98 0.960 . S
H98 C97 0.960 . S
H99 N79 0.862 . S
O100 Co68 1.920 . S
O100 C73 1.289 . S
C101 O93 1.258 . S
C101 O94 1.266 . S
Co102 O105 1.970 . S
Co102 N119 1.989 . S
Co102 O127 1.967 . S
Co102 O134 1.920 . S
Co103 O106 1.955 1_655 S
Co103 N112 2.045 . S
Co103 N120 1.980 1_655 S
Co103 O128 1.946 . S
C104 O105 1.258 . S
C104 O106 1.263 . S
O105 Co102 1.970 . S
O105 C104 1.258 . S
O106 Co103 1.955 1_455 S
O106 C104 1.263 . S
C107 O108 1.235 . S
C107 O134 1.289 . S
O108 C107 1.235 . S
C109 C111 1.400 . S
C109 N112 1.351 . S
C109 C114 1.501 . S
C110 C111 1.387 . S
C110 N113 1.341 . S
C111 C109 1.400 . S
C111 C110 1.387 . S
N112 Co103 2.045 . S
N112 C109 1.351 . S
N112 N113 1.365 . S
N113 C110 1.341 . S
N113 N112 1.365 . S
N113 H133 0.862 . S
C114 C109 1.501 . S
C114 H115 0.961 . S
C114 H116 0.961 . S
C114 H117 0.960 . S
H115 C114 0.961 . S
H116 C114 0.961 . S
H117 C114 0.960 . S
C118 N119 1.342 . S
C118 C122 1.401 . S
C118 C123 1.499 . S
N119 Co102 1.989 . S
N119 C118 1.342 . S
N119 N120 1.388 . S
N120 Co103 1.980 1_455 S
N120 N119 1.388 . S
N120 C121 1.346 . S
C121 N120 1.346 . S
C121 C122 1.396 . S
C121 C131 1.510 1_455 S
C122 C118 1.401 . S
C122 C121 1.396 . S
C123 C118 1.499 . S
C123 H124 0.959 . S
C123 H125 0.960 . S
C123 H126 0.961 . S
H124 C123 0.959 . S
H125 C123 0.960 . S
H126 C123 0.961 . S
O127 Co102 1.967 . S
O127 C135 1.258 . S
O128 Co103 1.946 . S
O128 C135 1.266 1_655 S
H129 C131 0.959 . S
H130 C131 0.961 . S
C131 C121 1.510 1_655 S
C131 H129 0.959 . S
C131 H130 0.961 . S
C131 H132 0.960 . S
H132 C131 0.960 . S
H133 N113 0.862 . S
O134 Co102 1.920 . S
O134 C107 1.289 . S
C135 O127 1.258 . S
C135 O128 1.266 1_455 S
Co136 O139 1.970 . S
Co136 N153 1.989 . S
Co136 O161 1.967 . S
Co136 O168 1.920 . S
Co137 O140 1.955 1_545 S
Co137 N146 2.045 . S
Co137 N154 1.980 1_545 S
Co137 O162 1.946 . S
C138 O139 1.258 . S
C138 O140 1.263 . S
O139 Co136 1.970 . S
O139 C138 1.258 . S
O140 Co137 1.955 1_565 S
O140 C138 1.263 . S
C141 O142 1.235 . S
C141 O168 1.289 . S
O142 C141 1.235 . S
C143 C145 1.400 . S
C143 N146 1.351 . S
C143 C148 1.501 . S
C144 C145 1.387 . S
C144 N147 1.341 . S
C145 C143 1.400 . S
C145 C144 1.387 . S
N146 Co137 2.045 . S
N146 C143 1.351 . S
N146 N147 1.365 . S
N147 C144 1.341 . S
N147 N146 1.365 . S
N147 H167 0.862 . S
C148 C143 1.501 . S
C148 H149 0.961 . S
C148 H150 0.961 . S
C148 H151 0.960 . S
H149 C148 0.961 . S
H150 C148 0.961 . S
H151 C148 0.960 . S
C152 N153 1.342 . S
C152 C156 1.401 . S
C152 C157 1.499 . S
N153 Co136 1.989 . S
N153 C152 1.342 . S
N153 N154 1.388 . S
N154 Co137 1.980 1_565 S
N154 N153 1.388 . S
N154 C155 1.346 . S
C155 N154 1.346 . S
C155 C156 1.396 . S
C155 C165 1.510 1_565 S
C156 C152 1.401 . S
C156 C155 1.396 . S
C157 C152 1.499 . S
C157 H158 0.959 . S
C157 H159 0.960 . S
C157 H160 0.961 . S
H158 C157 0.959 . S
H159 C157 0.960 . S
H160 C157 0.961 . S
O161 Co136 1.967 . S
O161 C169 1.258 . S
O162 Co137 1.946 . S
O162 C169 1.266 1_545 S
H163 C165 0.959 . S
H164 C165 0.961 . S
C165 C155 1.510 1_545 S
C165 H163 0.959 . S
C165 H164 0.961 . S
C165 H166 0.960 . S
H166 C165 0.960 . S
H167 N147 0.862 . S
O168 Co136 1.920 . S
O168 C141 1.289 . S
C169 O161 1.258 . S
C169 O162 1.266 1_565 S
Co170 O173 1.970 . S
Co170 N187 1.989 . S
Co170 O195 1.967 . S
Co170 O202 1.920 . S
Co171 O174 1.966 . S
Co171 N180 2.022 . S
Co171 N188 1.993 . S
Co171 O196 1.941 . S
C172 O173 1.258 . S
C172 O174 1.263 . S
O173 Co170 1.970 . S
O173 C172 1.258 . S
O174 Co171 1.966 . S
O174 C172 1.263 . S
C175 O176 1.235 . S
C175 O202 1.289 . S
O176 C175 1.235 . S
C177 C179 1.400 . S
C177 N180 1.351 . S
C177 C182 1.501 . S
C178 C179 1.387 . S
C178 N181 1.341 . S
C179 C177 1.400 . S
C179 C178 1.387 . S
N180 Co171 2.022 . S
N180 C177 1.351 . S
N180 N181 1.365 . S
N181 C178 1.341 . S
N181 N180 1.365 . S
N181 H201 0.862 . S
C182 C177 1.501 . S
C182 H183 0.961 . S
C182 H184 0.961 . S
C182 H185 0.960 . S
H183 C182 0.961 . S
H184 C182 0.961 . S
H185 C182 0.960 . S
C186 N187 1.342 . S
C186 C190 1.401 . S
C186 C191 1.499 . S
N187 Co170 1.989 . S
N187 C186 1.342 . S
N187 N188 1.388 . S
N188 Co171 1.993 . S
N188 N187 1.388 . S
N188 C189 1.346 . S
C189 N188 1.346 . S
C189 C190 1.396 . S
C189 C199 1.510 . S
C190 C186 1.401 . S
C190 C189 1.396 . S
C191 C186 1.499 . S
C191 H192 0.959 . S
C191 H193 0.960 . S
C191 H194 0.961 . S
H192 C191 0.959 . S
H193 C191 0.960 . S
H194 C191 0.961 . S
O195 Co170 1.967 . S
O195 C203 1.258 . S
O196 Co171 1.941 . S
O196 C203 1.266 . S
H197 C199 0.959 . S
H198 C199 0.961 . S
C199 C189 1.510 . S
C199 H197 0.959 . S
C199 H198 0.961 . S
C199 H200 0.960 . S
H200 C199 0.960 . S
H201 N181 0.862 . S
O202 Co170 1.920 . S
O202 C175 1.289 . S
C203 O195 1.258 . S
C203 O196 1.266 . S
Co204 O207 1.970 . S
Co204 N221 1.989 . S
Co204 O229 1.967 . S
Co204 O236 1.920 . S
Co205 O208 1.966 . S
Co205 N214 2.022 . S
Co205 N222 1.993 . S
Co205 O230 1.941 . S
C206 O207 1.258 . S
C206 O208 1.263 . S
O207 Co204 1.970 . S
O207 C206 1.258 . S
O208 Co205 1.966 . S
O208 C206 1.263 . S
C209 O210 1.235 . S
C209 O236 1.289 . S
O210 C209 1.235 . S
C211 C213 1.400 . S
C211 N214 1.351 . S
C211 C216 1.501 . S
C212 C213 1.387 . S
C212 N215 1.341 . S
C213 C211 1.400 . S
C213 C212 1.387 . S
N214 Co205 2.022 . S
N214 C211 1.351 . S
N214 N215 1.365 . S
N215 C212 1.341 . S
N215 N214 1.365 . S
N215 H235 0.862 . S
C216 C211 1.501 . S
C216 H217 0.961 . S
C216 H218 0.961 . S
C216 H219 0.960 . S
H217 C216 0.961 . S
H218 C216 0.961 . S
H219 C216 0.960 . S
C220 N221 1.342 . S
C220 C224 1.401 . S
C220 C225 1.499 . S
N221 Co204 1.989 . S
N221 C220 1.342 . S
N221 N222 1.388 . S
N222 Co205 1.993 . S
N222 N221 1.388 . S
N222 C223 1.346 . S
C223 N222 1.346 . S
C223 C224 1.396 . S
C223 C233 1.510 . S
C224 C220 1.401 . S
C224 C223 1.396 . S
C225 C220 1.499 . S
C225 H226 0.959 . S
C225 H227 0.960 . S
C225 H228 0.961 . S
H226 C225 0.959 . S
H227 C225 0.960 . S
H228 C225 0.961 . S
O229 Co204 1.967 . S
O229 C237 1.258 . S
O230 Co205 1.941 . S
O230 C237 1.266 . S
H231 C233 0.959 . S
H232 C233 0.961 . S
C233 C223 1.510 . S
C233 H231 0.959 . S
C233 H232 0.961 . S
C233 H234 0.960 . S
H234 C233 0.960 . S
H235 N215 0.862 . S
O236 Co204 1.920 . S
O236 C209 1.289 . S
C237 O229 1.258 . S
C237 O230 1.266 . S
Co238 O241 1.970 . S
Co238 N255 1.989 . S
Co238 O263 1.967 . S
Co238 O270 1.920 . S
Co239 O242 1.955 1_455 S
Co239 N248 2.045 . S
Co239 N256 1.980 1_455 S
Co239 O264 1.946 . S
C240 O241 1.258 . S
C240 O242 1.263 . S
O241 Co238 1.970 . S
O241 C240 1.258 . S
O242 Co239 1.955 1_655 S
O242 C240 1.263 . S
C243 O244 1.235 . S
C243 O270 1.289 . S
O244 C243 1.235 . S
C245 C247 1.400 . S
C245 N248 1.351 . S
C245 C250 1.501 . S
C246 C247 1.387 . S
C246 N249 1.341 . S
C247 C245 1.400 . S
C247 C246 1.387 . S
N248 Co239 2.045 . S
N248 C245 1.351 . S
N248 N249 1.365 . S
N249 C246 1.341 . S
N249 N248 1.365 . S
N249 H269 0.862 . S
C250 C245 1.501 . S
C250 H251 0.961 . S
C250 H252 0.961 . S
C250 H253 0.960 . S
H251 C250 0.961 . S
H252 C250 0.961 . S
H253 C250 0.960 . S
C254 N255 1.342 . S
C254 C258 1.401 . S
C254 C259 1.499 . S
N255 Co238 1.989 . S
N255 C254 1.342 . S
N255 N256 1.388 . S
N256 Co239 1.980 1_655 S
N256 N255 1.388 . S
N256 C257 1.346 . S
C257 N256 1.346 . S
C257 C258 1.396 . S
C257 C267 1.510 1_655 S
C258 C254 1.401 . S
C258 C257 1.396 . S
C259 C254 1.499 . S
C259 H260 0.959 . S
C259 H261 0.960 . S
C259 H262 0.961 . S
H260 C259 0.959 . S
H261 C259 0.960 . S
H262 C259 0.961 . S
O263 Co238 1.967 . S
O263 C271 1.258 . S
O264 Co239 1.946 . S
O264 C271 1.266 1_455 S
H265 C267 0.959 . S
H266 C267 0.961 . S
C267 C257 1.510 1_455 S
C267 H265 0.959 . S
C267 H266 0.961 . S
C267 H268 0.960 . S
H268 C267 0.960 . S
H269 N249 0.862 . S
O270 Co238 1.920 . S
O270 C243 1.289 . S
C271 O263 1.258 . S
C271 O264 1.266 1_655 S
Co272 O275 1.970 . S
Co272 N289 1.989 . S
Co272 O297 1.967 . S
Co272 O304 1.920 . S
Co273 O276 1.955 1_545 S
Co273 N282 2.045 . S
Co273 N290 1.980 1_545 S
Co273 O298 1.946 . S
C274 O275 1.258 . S
C274 O276 1.263 . S
O275 Co272 1.970 . S
O275 C274 1.258 . S
O276 Co273 1.955 1_565 S
O276 C274 1.263 . S
C277 O278 1.235 . S
C277 O304 1.289 . S
O278 C277 1.235 . S
C279 C281 1.400 . S
C279 N282 1.351 . S
C279 C284 1.501 . S
C280 C281 1.387 . S
C280 N283 1.341 . S
C281 C279 1.400 . S
C281 C280 1.387 . S
N282 Co273 2.045 . S
N282 C279 1.351 . S
N282 N283 1.365 . S
N283 C280 1.341 . S
N283 N282 1.365 . S
N283 H303 0.862 . S
C284 C279 1.501 . S
C284 H285 0.961 . S
C284 H286 0.961 . S
C284 H287 0.960 . S
H285 C284 0.961 . S
H286 C284 0.961 . S
H287 C284 0.960 . S
C288 N289 1.342 . S
C288 C292 1.401 . S
C288 C293 1.499 . S
N289 Co272 1.989 . S
N289 C288 1.342 . S
N289 N290 1.388 . S
N290 Co273 1.980 1_565 S
N290 N289 1.388 . S
N290 C291 1.346 . S
C291 N290 1.346 . S
C291 C292 1.396 . S
C291 C301 1.510 1_565 S
C292 C288 1.401 . S
C292 C291 1.396 . S
C293 C288 1.499 . S
C293 H294 0.959 . S
C293 H295 0.960 . S
C293 H296 0.961 . S
H294 C293 0.959 . S
H295 C293 0.960 . S
H296 C293 0.961 . S
O297 Co272 1.967 . S
O297 C305 1.258 . S
O298 Co273 1.946 . S
O298 C305 1.266 1_545 S
H299 C301 0.959 . S
H300 C301 0.961 . S
C301 C291 1.510 1_545 S
C301 H299 0.959 . S
C301 H300 0.961 . S
C301 H302 0.960 . S
H302 C301 0.960 . S
H303 N283 0.862 . S
O304 Co272 1.920 . S
O304 C277 1.289 . S
C305 O297 1.258 . S
C305 O298 1.266 1_565 S
Co306 O309 1.970 . S
Co306 N323 1.989 . S
Co306 O331 1.967 . S
Co306 O338 1.920 . S
Co307 O310 1.966 . S
Co307 N316 2.022 . S
Co307 N324 1.993 . S
Co307 O332 1.941 . S
C308 O309 1.258 . S
C308 O310 1.263 . S
O309 Co306 1.970 . S
O309 C308 1.258 . S
O310 Co307 1.966 . S
O310 C308 1.263 . S
C311 O312 1.235 . S
C311 O338 1.289 . S
O312 C311 1.235 . S
C313 C315 1.400 . S
C313 N316 1.351 . S
C313 C318 1.501 . S
C314 C315 1.387 . S
C314 N317 1.341 . S
C315 C313 1.400 . S
C315 C314 1.387 . S
N316 Co307 2.022 . S
N316 C313 1.351 . S
N316 N317 1.365 . S
N317 C314 1.341 . S
N317 N316 1.365 . S
N317 H337 0.862 . S
C318 C313 1.501 . S
C318 H319 0.961 . S
C318 H320 0.961 . S
C318 H321 0.960 . S
H319 C318 0.961 . S
H320 C318 0.961 . S
H321 C318 0.960 . S
C322 N323 1.342 . S
C322 C326 1.401 . S
C322 C327 1.499 . S
N323 Co306 1.989 . S
N323 C322 1.342 . S
N323 N324 1.388 . S
N324 Co307 1.993 . S
N324 N323 1.388 . S
N324 C325 1.346 . S
C325 N324 1.346 . S
C325 C326 1.396 . S
C325 C335 1.510 . S
C326 C322 1.401 . S
C326 C325 1.396 . S
C327 C322 1.499 . S
C327 H328 0.959 . S
C327 H329 0.960 . S
C327 H330 0.961 . S
H328 C327 0.959 . S
H329 C327 0.960 . S
H330 C327 0.961 . S
O331 Co306 1.967 . S
O331 C339 1.258 . S
O332 Co307 1.941 . S
O332 C339 1.266 . S
H333 C335 0.959 . S
H334 C335 0.961 . S
C335 C325 1.510 . S
C335 H333 0.959 . S
C335 H334 0.961 . S
C335 H336 0.960 . S
H336 C335 0.960 . S
H337 N317 0.862 . S
O338 Co306 1.920 . S
O338 C311 1.289 . S
C339 O331 1.258 . S
C339 O332 1.266 . S
Co340 O343 1.970 . S
Co340 N357 1.989 . S
Co340 O365 1.967 . S
Co340 O372 1.920 . S
Co341 O344 1.966 . S
Co341 N350 2.022 . S
Co341 N358 1.993 . S
Co341 O366 1.941 . S
C342 O343 1.258 . S
C342 O344 1.263 . S
O343 Co340 1.970 . S
O343 C342 1.258 . S
O344 Co341 1.966 . S
O344 C342 1.263 . S
C345 O346 1.235 . S
C345 O372 1.289 . S
O346 C345 1.235 . S
C347 C349 1.400 . S
C347 N350 1.351 . S
C347 C352 1.501 . S
C348 C349 1.387 . S
C348 N351 1.341 . S
C349 C347 1.400 . S
C349 C348 1.387 . S
N350 Co341 2.022 . S
N350 C347 1.351 . S
N350 N351 1.365 . S
N351 C348 1.341 . S
N351 N350 1.365 . S
N351 H371 0.862 . S
C352 C347 1.501 . S
C352 H353 0.961 . S
C352 H354 0.961 . S
C352 H355 0.960 . S
H353 C352 0.961 . S
H354 C352 0.961 . S
H355 C352 0.960 . S
C356 N357 1.342 . S
C356 C360 1.401 . S
C356 C361 1.499 . S
N357 Co340 1.989 . S
N357 C356 1.342 . S
N357 N358 1.388 . S
N358 Co341 1.993 . S
N358 N357 1.388 . S
N358 C359 1.346 . S
C359 N358 1.346 . S
C359 C360 1.396 . S
C359 C369 1.510 . S
C360 C356 1.401 . S
C360 C359 1.396 . S
C361 C356 1.499 . S
C361 H362 0.959 . S
C361 H363 0.960 . S
C361 H364 0.961 . S
H362 C361 0.959 . S
H363 C361 0.960 . S
H364 C361 0.961 . S
O365 Co340 1.967 . S
O365 C373 1.258 . S
O366 Co341 1.941 . S
O366 C373 1.266 . S
H367 C369 0.959 . S
H368 C369 0.961 . S
C369 C359 1.510 . S
C369 H367 0.959 . S
C369 H368 0.961 . S
C369 H370 0.960 . S
H370 C369 0.960 . S
H371 N351 0.862 . S
O372 Co340 1.920 . S
O372 C345 1.289 . S
C373 O365 1.258 . S
C373 O366 1.266 . S
Co374 O377 1.970 . S
Co374 N391 1.989 . S
Co374 O399 1.967 . S
Co374 O406 1.920 . S
Co375 O378 1.955 1_455 S
Co375 N384 2.045 . S
Co375 N392 1.980 1_455 S
Co375 O400 1.946 . S
C376 O377 1.258 . S
C376 O378 1.263 . S
O377 Co374 1.970 . S
O377 C376 1.258 . S
O378 Co375 1.955 1_655 S
O378 C376 1.263 . S
C379 O380 1.235 . S
C379 O406 1.289 . S
O380 C379 1.235 . S
C381 C383 1.400 . S
C381 N384 1.351 . S
C381 C386 1.501 . S
C382 C383 1.387 . S
C382 N385 1.341 . S
C383 C381 1.400 . S
C383 C382 1.387 . S
N384 Co375 2.045 . S
N384 C381 1.351 . S
N384 N385 1.365 . S
N385 C382 1.341 . S
N385 N384 1.365 . S
N385 H405 0.862 . S
C386 C381 1.501 . S
C386 H387 0.961 . S
C386 H388 0.961 . S
C386 H389 0.960 . S
H387 C386 0.961 . S
H388 C386 0.961 . S
H389 C386 0.960 . S
C390 N391 1.342 . S
C390 C394 1.401 . S
C390 C395 1.499 . S
N391 Co374 1.989 . S
N391 C390 1.342 . S
N391 N392 1.388 . S
N392 Co375 1.980 1_655 S
N392 N391 1.388 . S
N392 C393 1.346 . S
C393 N392 1.346 . S
C393 C394 1.396 . S
C393 C403 1.510 1_655 S
C394 C390 1.401 . S
C394 C393 1.396 . S
C395 C390 1.499 . S
C395 H396 0.959 . S
C395 H397 0.960 . S
C395 H398 0.961 . S
H396 C395 0.959 . S
H397 C395 0.960 . S
H398 C395 0.961 . S
O399 Co374 1.967 . S
O399 C407 1.258 . S
O400 Co375 1.946 . S
O400 C407 1.266 1_455 S
H401 C403 0.959 . S
H402 C403 0.961 . S
C403 C393 1.510 1_455 S
C403 H401 0.959 . S
C403 H402 0.961 . S
C403 H404 0.960 . S
H404 C403 0.960 . S
H405 N385 0.862 . S
O406 Co374 1.920 . S
O406 C379 1.289 . S
C407 O399 1.258 . S
C407 O400 1.266 1_655 S
Co408 O411 1.970 . S
Co408 N425 1.989 . S
Co408 O433 1.967 . S
Co408 O440 1.920 . S
Co409 O412 1.955 1_565 S
Co409 N418 2.045 . S
Co409 N426 1.980 1_565 S
Co409 O434 1.946 . S
C410 O411 1.258 . S
C410 O412 1.263 . S
O411 Co408 1.970 . S
O411 C410 1.258 . S
O412 Co409 1.955 1_545 S
O412 C410 1.263 . S
C413 O414 1.235 . S
C413 O440 1.289 . S
O414 C413 1.235 . S
C415 C417 1.400 . S
C415 N418 1.351 . S
C415 C420 1.501 . S
C416 C417 1.387 . S
C416 N419 1.341 . S
C417 C415 1.400 . S
C417 C416 1.387 . S
N418 Co409 2.045 . S
N418 C415 1.351 . S
N418 N419 1.365 . S
N419 C416 1.341 . S
N419 N418 1.365 . S
N419 H439 0.862 . S
C420 C415 1.501 . S
C420 H421 0.961 . S
C420 H422 0.961 . S
C420 H423 0.960 . S
H421 C420 0.961 . S
H422 C420 0.961 . S
H423 C420 0.960 . S
C424 N425 1.342 . S
C424 C428 1.401 . S
C424 C429 1.499 . S
N425 Co408 1.989 . S
N425 C424 1.342 . S
N425 N426 1.388 . S
N426 Co409 1.980 1_545 S
N426 N425 1.388 . S
N426 C427 1.346 . S
C427 N426 1.346 . S
C427 C428 1.396 . S
C427 C437 1.510 1_545 S
C428 C424 1.401 . S
C428 C427 1.396 . S
C429 C424 1.499 . S
C429 H430 0.959 . S
C429 H431 0.960 . S
C429 H432 0.961 . S
H430 C429 0.959 . S
H431 C429 0.960 . S
H432 C429 0.961 . S
O433 Co408 1.967 . S
O433 C441 1.258 . S
O434 Co409 1.946 . S
O434 C441 1.266 1_565 S
H435 C437 0.959 . S
H436 C437 0.961 . S
C437 C427 1.510 1_565 S
C437 H435 0.959 . S
C437 H436 0.961 . S
C437 H438 0.960 . S
H438 C437 0.960 . S
H439 N419 0.862 . S
O440 Co408 1.920 . S
O440 C413 1.289 . S
C441 O433 1.258 . S
C441 O434 1.266 1_545 S
Co442 O445 1.970 . S
Co442 N459 1.989 . S
Co442 O467 1.967 . S
Co442 O474 1.920 . S
Co443 O446 1.966 . S
Co443 N452 2.022 . S
Co443 N460 1.993 . S
Co443 O468 1.941 . S
C444 O445 1.258 . S
C444 O446 1.263 . S
O445 Co442 1.970 . S
O445 C444 1.258 . S
O446 Co443 1.966 . S
O446 C444 1.263 . S
C447 O448 1.235 . S
C447 O474 1.289 . S
O448 C447 1.235 . S
C449 C451 1.400 . S
C449 N452 1.351 . S
C449 C454 1.501 . S
C450 C451 1.387 . S
C450 N453 1.341 . S
C451 C449 1.400 . S
C451 C450 1.387 . S
N452 Co443 2.022 . S
N452 C449 1.351 . S
N452 N453 1.365 . S
N453 C450 1.341 . S
N453 N452 1.365 . S
N453 H473 0.862 . S
C454 C449 1.501 . S
C454 H455 0.961 . S
C454 H456 0.961 . S
C454 H457 0.960 . S
H455 C454 0.961 . S
H456 C454 0.961 . S
H457 C454 0.960 . S
C458 N459 1.342 . S
C458 C462 1.401 . S
C458 C463 1.499 . S
N459 Co442 1.989 . S
N459 C458 1.342 . S
N459 N460 1.388 . S
N460 Co443 1.993 . S
N460 N459 1.388 . S
N460 C461 1.346 . S
C461 N460 1.346 . S
C461 C462 1.396 . S
C461 C471 1.510 . S
C462 C458 1.401 . S
C462 C461 1.396 . S
C463 C458 1.499 . S
C463 H464 0.959 . S
C463 H465 0.960 . S
C463 H466 0.961 . S
H464 C463 0.959 . S
H465 C463 0.960 . S
H466 C463 0.961 . S
O467 Co442 1.967 . S
O467 C475 1.258 . S
O468 Co443 1.941 . S
O468 C475 1.266 . S
H469 C471 0.959 . S
H470 C471 0.961 . S
C471 C461 1.510 . S
C471 H469 0.959 . S
C471 H470 0.961 . S
C471 H472 0.960 . S
H472 C471 0.960 . S
H473 N453 0.862 . S
O474 Co442 1.920 . S
O474 C447 1.289 . S
C475 O467 1.258 . S
C475 O468 1.266 . S
Co476 O479 1.970 . S
Co476 N493 1.989 . S
Co476 O501 1.967 . S
Co476 O508 1.920 . S
Co477 O480 1.966 . S
Co477 N486 2.022 . S
Co477 N494 1.993 . S
Co477 O502 1.941 . S
C478 O479 1.258 . S
C478 O480 1.263 . S
O479 Co476 1.970 . S
O479 C478 1.258 . S
O480 Co477 1.966 . S
O480 C478 1.263 . S
C481 O482 1.235 . S
C481 O508 1.289 . S
O482 C481 1.235 . S
C483 C485 1.400 . S
C483 N486 1.351 . S
C483 C488 1.501 . S
C484 C485 1.387 . S
C484 N487 1.341 . S
C485 C483 1.400 . S
C485 C484 1.387 . S
N486 Co477 2.022 . S
N486 C483 1.351 . S
N486 N487 1.365 . S
N487 C484 1.341 . S
N487 N486 1.365 . S
N487 H507 0.862 . S
C488 C483 1.501 . S
C488 H489 0.961 . S
C488 H490 0.961 . S
C488 H491 0.960 . S
H489 C488 0.961 . S
H490 C488 0.961 . S
H491 C488 0.960 . S
C492 N493 1.342 . S
C492 C496 1.401 . S
C492 C497 1.499 . S
N493 Co476 1.989 . S
N493 C492 1.342 . S
N493 N494 1.388 . S
N494 Co477 1.993 . S
N494 N493 1.388 . S
N494 C495 1.346 . S
C495 N494 1.346 . S
C495 C496 1.396 . S
C495 C505 1.510 . S
C496 C492 1.401 . S
C496 C495 1.396 . S
C497 C492 1.499 . S
C497 H498 0.959 . S
C497 H499 0.960 . S
C497 H500 0.961 . S
H498 C497 0.959 . S
H499 C497 0.960 . S
H500 C497 0.961 . S
O501 Co476 1.967 . S
O501 C509 1.258 . S
O502 Co477 1.941 . S
O502 C509 1.266 . S
H503 C505 0.959 . S
H504 C505 0.961 . S
C505 C495 1.510 . S
C505 H503 0.959 . S
C505 H504 0.961 . S
C505 H506 0.960 . S
H506 C505 0.960 . S
H507 N487 0.862 . S
O508 Co476 1.920 . S
O508 C481 1.289 . S
C509 O501 1.258 . S
C509 O502 1.266 . S
Co510 O513 1.970 . S
Co510 N527 1.989 . S
Co510 O535 1.967 . S
Co510 O542 1.920 . S
Co511 O514 1.955 1_655 S
Co511 N520 2.045 . S
Co511 N528 1.980 1_655 S
Co511 O536 1.946 . S
C512 O513 1.258 . S
C512 O514 1.263 . S
O513 Co510 1.970 . S
O513 C512 1.258 . S
O514 Co511 1.955 1_455 S
O514 C512 1.263 . S
C515 O516 1.235 . S
C515 O542 1.289 . S
O516 C515 1.235 . S
C517 C519 1.400 . S
C517 N520 1.351 . S
C517 C522 1.501 . S
C518 C519 1.387 . S
C518 N521 1.341 . S
C519 C517 1.400 . S
C519 C518 1.387 . S
N520 Co511 2.045 . S
N520 C517 1.351 . S
N520 N521 1.365 . S
N521 C518 1.341 . S
N521 N520 1.365 . S
N521 H541 0.862 . S
C522 C517 1.501 . S
C522 H523 0.961 . S
C522 H524 0.961 . S
C522 H525 0.960 . S
H523 C522 0.961 . S
H524 C522 0.961 . S
H525 C522 0.960 . S
C526 N527 1.342 . S
C526 C530 1.401 . S
C526 C531 1.499 . S
N527 Co510 1.989 . S
N527 C526 1.342 . S
N527 N528 1.388 . S
N528 Co511 1.980 1_455 S
N528 N527 1.388 . S
N528 C529 1.346 . S
C529 N528 1.346 . S
C529 C530 1.396 . S
C529 C539 1.510 1_455 S
C530 C526 1.401 . S
C530 C529 1.396 . S
C531 C526 1.499 . S
C531 H532 0.959 . S
C531 H533 0.960 . S
C531 H534 0.961 . S
H532 C531 0.959 . S
H533 C531 0.960 . S
H534 C531 0.961 . S
O535 Co510 1.967 . S
O535 C543 1.258 . S
O536 Co511 1.946 . S
O536 C543 1.266 1_655 S
H537 C539 0.959 . S
H538 C539 0.961 . S
C539 C529 1.510 1_655 S
C539 H537 0.959 . S
C539 H538 0.961 . S
C539 H540 0.960 . S
H540 C539 0.960 . S
H541 N521 0.862 . S
O542 Co510 1.920 . S
O542 C515 1.289 . S
C543 O535 1.258 . S
C543 O536 1.266 1_455 S
H544 C562 0.951 . S
H545 C564 0.951 . S
H546 C566 0.950 . S
H547 C567 0.950 . S
H548 C569 0.950 . S
H549 C572 0.950 . S
H550 C573 0.950 . S
H551 C575 0.950 . S
H552 C576 0.950 . S
H553 C577 0.951 . S
H554 C579 0.951 . S
H555 C581 0.950 . S
H556 C582 0.950 . S
H557 C584 0.950 . S
H558 C587 0.950 . S
H559 C588 0.950 . S
H560 C590 0.950 . S
H561 C591 0.950 . S
C562 H544 0.951 . S
C562 C563 1.366 . S
C562 C564 1.388 . S
C563 C562 1.366 . S
C563 C567 1.385 . S
C564 H545 0.951 . S
C564 C562 1.388 . S
C564 C565 1.366 . S
C565 C564 1.366 . S
C565 C566 1.414 . S
C565 C568 1.499 . S
C566 H546 0.950 . S
C566 C565 1.414 . S
C566 C567 1.374 . S
C567 H547 0.950 . S
C567 C563 1.385 . S
C567 C566 1.374 . S
C568 C565 1.499 . S
C568 C569 1.373 . S
C568 C570 1.389 . S
C569 H548 0.950 . S
C569 C568 1.373 . S
C569 C585 1.377 . S
C570 C568 1.389 . S
C570 C571 1.524 . S
C570 C584 1.377 . S
C571 C570 1.524 . S
C571 C572 1.397 . S
C571 C576 1.363 . S
C572 H549 0.950 . S
C572 C571 1.397 . S
C572 C573 1.334 . S
C573 H550 0.950 . S
C573 C572 1.334 . S
C573 C574 1.287 . S
C574 C573 1.287 . S
C574 C575 1.524 . S
C574 H593 0.913 . S
C575 H551 0.950 . S
C575 C574 1.524 . S
C575 C576 1.415 . S
C576 H552 0.950 . S
C576 C571 1.363 . S
C576 C575 1.415 . S
C577 H553 0.951 . S
C577 C578 1.366 . S
C577 C579 1.388 . S
C578 C577 1.366 . S
C578 C582 1.385 . S
C579 H554 0.951 . S
C579 C577 1.388 . S
C579 C580 1.366 . S
C580 C579 1.366 . S
C580 C581 1.414 . S
C580 C583 1.499 . S
C581 H555 0.950 . S
C581 C580 1.414 . S
C581 C582 1.374 . S
C582 H556 0.950 . S
C582 C578 1.385 . S
C582 C581 1.374 . S
C583 C580 1.499 . S
C583 C584 1.373 . S
C583 C585 1.389 . S
C584 H557 0.950 . S
C584 C570 1.377 . S
C584 C583 1.373 . S
C585 C569 1.377 . S
C585 C583 1.389 . S
C585 C586 1.524 . S
C586 C585 1.524 . S
C586 C587 1.397 . S
C586 C591 1.363 . S
C587 H558 0.950 . S
C587 C586 1.397 . S
C587 C588 1.334 . S
C588 H559 0.950 . S
C588 C587 1.334 . S
C588 C589 1.287 . S
C589 C588 1.287 . S
C589 C590 1.524 . S
C589 H592 0.999 . S
C590 H560 0.950 . S
C590 C589 1.524 . S
C590 C591 1.415 . S
C591 H561 0.950 . S
C591 C586 1.363 . S
C591 C590 1.415 . S
H592 C589 0.999 . S
H593 C574 0.913 . S
H594 C612 0.951 . S
H595 C614 0.951 . S
H596 C616 0.950 . S
H597 C617 0.950 . S
H598 C619 0.950 . S
H599 C622 0.950 . S
H600 C623 0.950 . S
H601 C625 0.950 . S
H602 C626 0.950 . S
H603 C627 0.951 . S
H604 C629 0.951 . S
H605 C631 0.950 . S
H606 C632 0.950 . S
H607 C634 0.950 . S
H608 C637 0.950 . S
H609 C638 0.950 . S
H610 C640 0.950 . S
H611 C641 0.950 . S
C612 H594 0.951 . S
C612 C613 1.366 . S
C612 C614 1.388 . S
C613 C612 1.366 . S
C613 C617 1.385 . S
C614 H595 0.951 . S
C614 C612 1.388 . S
C614 C615 1.366 . S
C615 C614 1.366 . S
C615 C616 1.414 . S
C615 C618 1.499 . S
C616 H596 0.950 . S
C616 C615 1.414 . S
C616 C617 1.374 . S
C617 H597 0.950 . S
C617 C613 1.385 . S
C617 C616 1.374 . S
C618 C615 1.499 . S
C618 C619 1.373 . S
C618 C620 1.389 . S
C619 H598 0.950 . S
C619 C618 1.373 . S
C619 C635 1.377 . S
C620 C618 1.389 . S
C620 C621 1.524 . S
C620 C634 1.377 . S
C621 C620 1.524 . S
C621 C622 1.397 . S
C621 C626 1.363 . S
C622 H599 0.950 . S
C622 C621 1.397 . S
C622 C623 1.334 . S
C623 H600 0.950 . S
C623 C622 1.334 . S
C623 C624 1.287 . S
C624 C623 1.287 . S
C624 C625 1.524 . S
C624 H643 0.913 . S
C625 H601 0.950 . S
C625 C624 1.524 . S
C625 C626 1.415 . S
C626 H602 0.950 . S
C626 C621 1.363 . S
C626 C625 1.415 . S
C627 H603 0.951 . S
C627 C628 1.366 . S
C627 C629 1.388 . S
C628 C627 1.366 . S
C628 C632 1.385 . S
C629 H604 0.951 . S
C629 C627 1.388 . S
C629 C630 1.366 . S
C630 C629 1.366 . S
C630 C631 1.414 . S
C630 C633 1.499 . S
C631 H605 0.950 . S
C631 C630 1.414 . S
C631 C632 1.374 . S
C632 H606 0.950 . S
C632 C628 1.385 . S
C632 C631 1.374 . S
C633 C630 1.499 . S
C633 C634 1.373 . S
C633 C635 1.389 . S
C634 H607 0.950 . S
C634 C620 1.377 . S
C634 C633 1.373 . S
C635 C619 1.377 . S
C635 C633 1.389 . S
C635 C636 1.524 . S
C636 C635 1.524 . S
C636 C637 1.397 . S
C636 C641 1.363 . S
C637 H608 0.950 . S
C637 C636 1.397 . S
C637 C638 1.334 . S
C638 H609 0.950 . S
C638 C637 1.334 . S
C638 C639 1.287 . S
C639 C638 1.287 . S
C639 C640 1.524 . S
C639 H642 0.999 . S
C640 H610 0.950 . S
C640 C639 1.524 . S
C640 C641 1.415 . S
C641 H611 0.950 . S
C641 C636 1.363 . S
C641 C640 1.415 . S
H642 C639 0.999 . S
H643 C624 0.913 . S
H644 C662 0.951 . S
H645 C664 0.951 . S
H646 C666 0.950 . S
H647 C667 0.950 . S
H648 C669 0.950 . S
H649 C672 0.950 . S
H650 C673 0.950 . S
H651 C675 0.950 . S
H652 C676 0.950 . S
H653 C677 0.951 . S
H654 C679 0.951 . S
H655 C681 0.950 . S
H656 C682 0.950 . S
H657 C684 0.950 . S
H658 C687 0.950 . S
H659 C688 0.950 . S
H660 C690 0.950 . S
H661 C691 0.950 . S
C662 H644 0.951 . S
C662 C663 1.366 1_655 S
C662 C664 1.388 . S
C663 C662 1.366 1_455 S
C663 C667 1.385 . S
C664 H645 0.951 . S
C664 C662 1.388 . S
C664 C665 1.366 . S
C665 C664 1.366 . S
C665 C666 1.414 1_655 S
C665 C668 1.499 . S
C666 H646 0.950 . S
C666 C665 1.414 1_455 S
C666 C667 1.374 . S
C667 H647 0.950 . S
C667 C663 1.385 . S
C667 C666 1.374 . S
C668 C665 1.499 . S
C668 C669 1.373 1_655 S
C668 C670 1.389 . S
C669 H648 0.950 . S
C669 C668 1.373 1_455 S
C669 C685 1.377 . S
C670 C668 1.389 . S
C670 C671 1.524 . S
C670 C684 1.377 . S
C671 C670 1.524 . S
C671 C672 1.397 . S
C671 C676 1.363 . S
C672 H649 0.950 . S
C672 C671 1.397 . S
C672 C673 1.334 . S
C673 H650 0.950 . S
C673 C672 1.334 . S
C673 C674 1.287 . S
C674 C673 1.287 . S
C674 C675 1.524 . S
C674 H693 0.913 . S
C675 H651 0.950 . S
C675 C674 1.524 . S
C675 C676 1.415 . S
C676 H652 0.950 . S
C676 C671 1.363 . S
C676 C675 1.415 . S
C677 H653 0.951 . S
C677 C678 1.366 . S
C677 C679 1.388 . S
C678 C677 1.366 . S
C678 C682 1.385 . S
C679 H654 0.951 . S
C679 C677 1.388 . S
C679 C680 1.366 . S
C680 C679 1.366 . S
C680 C681 1.414 . S
C680 C683 1.499 . S
C681 H655 0.950 . S
C681 C680 1.414 . S
C681 C682 1.374 . S
C682 H656 0.950 . S
C682 C678 1.385 . S
C682 C681 1.374 . S
C683 C680 1.499 . S
C683 C684 1.373 . S
C683 C685 1.389 1_655 S
C684 H657 0.950 . S
C684 C670 1.377 . S
C684 C683 1.373 . S
C685 C669 1.377 . S
C685 C683 1.389 1_455 S
C685 C686 1.524 . S
C686 C685 1.524 . S
C686 C687 1.397 . S
C686 C691 1.363 . S
C687 H658 0.950 . S
C687 C686 1.397 . S
C687 C688 1.334 . S
C688 H659 0.950 . S
C688 C687 1.334 . S
C688 C689 1.287 . S
C689 C688 1.287 . S
C689 C690 1.524 . S
C689 H692 0.999 . S
C690 H660 0.950 . S
C690 C689 1.524 . S
C690 C691 1.415 . S
C691 H661 0.950 . S
C691 C686 1.363 . S
C691 C690 1.415 . S
H692 C689 0.999 . S
H693 C674 0.913 . S
H694 C712 0.951 . S
H695 C714 0.951 . S
H696 C716 0.950 1_545 S
H697 C717 0.950 . S
H698 C719 0.950 . S
H699 C722 0.950 . S
H700 C723 0.950 . S
H701 C725 0.950 . S
H702 C726 0.950 . S
H703 C727 0.951 . S
H704 C729 0.951 . S
H705 C731 0.950 . S
H706 C732 0.950 . S
H707 C734 0.950 . S
H708 C737 0.950 . S
H709 C738 0.950 . S
H710 C740 0.950 . S
H711 C741 0.950 . S
C712 H694 0.951 . S
C712 C713 1.366 . S
C712 C714 1.388 . S
C713 C712 1.366 . S
C713 C717 1.385 . S
C714 H695 0.951 . S
C714 C712 1.388 . S
C714 C715 1.366 . S
C715 C714 1.366 . S
C715 C716 1.414 . S
C715 C718 1.499 . S
C716 H696 0.950 1_565 S
C716 C715 1.414 . S
C716 C717 1.374 . S
C717 H697 0.950 . S
C717 C713 1.385 . S
C717 C716 1.374 . S
C718 C715 1.499 . S
C718 C719 1.373 1_565 S
C718 C720 1.389 . S
C719 H698 0.950 . S
C719 C718 1.373 1_545 S
C719 C735 1.377 . S
C720 C718 1.389 . S
C720 C721 1.524 . S
C720 C734 1.377 . S
C721 C720 1.524 . S
C721 C722 1.397 . S
C721 C726 1.363 . S
C722 H699 0.950 . S
C722 C721 1.397 . S
C722 C723 1.334 . S
C723 H700 0.950 . S
C723 C722 1.334 . S
C723 C724 1.287 . S
C724 C723 1.287 . S
C724 C725 1.524 . S
C724 H743 0.913 . S
C725 H701 0.950 . S
C725 C724 1.524 . S
C725 C726 1.415 . S
C726 H702 0.950 . S
C726 C721 1.363 . S
C726 C725 1.415 . S
C727 H703 0.951 . S
C727 C728 1.366 . S
C727 C729 1.388 . S
C728 C727 1.366 . S
C728 C732 1.385 1_545 S
C729 H704 0.951 . S
C729 C727 1.388 . S
C729 C730 1.366 1_545 S
C730 C729 1.366 1_565 S
C730 C731 1.414 . S
C730 C733 1.499 . S
C731 H705 0.950 . S
C731 C730 1.414 . S
C731 C732 1.374 . S
C732 H706 0.950 . S
C732 C728 1.385 1_565 S
C732 C731 1.374 . S
C733 C730 1.499 . S
C733 C734 1.373 . S
C733 C735 1.389 1_565 S
C734 H707 0.950 . S
C734 C720 1.377 . S
C734 C733 1.373 . S
C735 C719 1.377 . S
C735 C733 1.389 1_545 S
C735 C736 1.524 . S
C736 C735 1.524 . S
C736 C737 1.397 . S
C736 C741 1.363 . S
C737 H708 0.950 . S
C737 C736 1.397 . S
C737 C738 1.334 . S
C738 H709 0.950 . S
C738 C737 1.334 . S
C738 C739 1.287 . S
C739 C738 1.287 . S
C739 C740 1.524 . S
C739 H742 0.999 . S
C740 H710 0.950 . S
C740 C739 1.524 . S
C740 C741 1.415 . S
C741 H711 0.950 . S
C741 C736 1.363 . S
C741 C740 1.415 . S
H742 C739 0.999 . S
H743 C724 0.913 . S
H744 C762 0.951 . S
H745 C764 0.951 . S
H746 C766 0.950 . S
H747 C767 0.950 . S
H748 C769 0.950 . S
H749 C772 0.950 . S
H750 C773 0.950 . S
H751 C775 0.950 . S
H752 C776 0.950 . S
H753 C777 0.951 . S
H754 C779 0.951 . S
H755 C781 0.950 1_655 S
H756 C782 0.950 . S
H757 C784 0.950 . S
H758 C787 0.950 . S
H759 C788 0.950 . S
H760 C790 0.950 . S
H761 C791 0.950 . S
C762 H744 0.951 . S
C762 C763 1.366 . S
C762 C764 1.388 . S
C763 C762 1.366 . S
C763 C767 1.385 1_655 S
C764 H745 0.951 . S
C764 C762 1.388 . S
C764 C765 1.366 1_655 S
C765 C764 1.366 1_455 S
C765 C766 1.414 . S
C765 C768 1.499 . S
C766 H746 0.950 . S
C766 C765 1.414 . S
C766 C767 1.374 . S
C767 H747 0.950 . S
C767 C763 1.385 1_455 S
C767 C766 1.374 . S
C768 C765 1.499 . S
C768 C769 1.373 . S
C768 C770 1.389 1_455 S
C769 H748 0.950 . S
C769 C768 1.373 . S
C769 C785 1.377 . S
C770 C768 1.389 1_655 S
C770 C771 1.524 . S
C770 C784 1.377 . S
C771 C770 1.524 . S
C771 C772 1.397 . S
C771 C776 1.363 . S
C772 H749 0.950 . S
C772 C771 1.397 . S
C772 C773 1.334 . S
C773 H750 0.950 . S
C773 C772 1.334 . S
C773 C774 1.287 . S
C774 C773 1.287 . S
C774 C775 1.524 . S
C774 H793 0.913 . S
C775 H751 0.950 . S
C775 C774 1.524 . S
C775 C776 1.415 . S
C776 H752 0.950 . S
C776 C771 1.363 . S
C776 C775 1.415 . S
C777 H753 0.951 . S
C777 C778 1.366 . S
C777 C779 1.388 . S
C778 C777 1.366 . S
C778 C782 1.385 . S
C779 H754 0.951 . S
C779 C777 1.388 . S
C779 C780 1.366 . S
C780 C779 1.366 . S
C780 C781 1.414 . S
C780 C783 1.499 . S
C781 H755 0.950 1_455 S
C781 C780 1.414 . S
C781 C782 1.374 . S
C782 H756 0.950 . S
C782 C778 1.385 . S
C782 C781 1.374 . S
C783 C780 1.499 . S
C783 C784 1.373 1_455 S
C783 C785 1.389 . S
C784 H757 0.950 . S
C784 C770 1.377 . S
C784 C783 1.373 1_655 S
C785 C769 1.377 . S
C785 C783 1.389 . S
C785 C786 1.524 . S
C786 C785 1.524 . S
C786 C787 1.397 . S
C786 C791 1.363 . S
C787 H758 0.950 . S
C787 C786 1.397 . S
C787 C788 1.334 . S
C788 H759 0.950 . S
C788 C787 1.334 . S
C788 C789 1.287 . S
C789 C788 1.287 . S
C789 C790 1.524 . S
C789 H792 0.999 . S
C790 H760 0.950 . S
C790 C789 1.524 . S
C790 C791 1.415 . S
C791 H761 0.950 . S
C791 C786 1.363 . S
C791 C790 1.415 . S
H792 C789 0.999 . S
H793 C774 0.913 . S
H794 C812 0.951 . S
H795 C814 0.951 . S
H796 C816 0.950 . S
H797 C817 0.950 . S
H798 C819 0.950 . S
H799 C822 0.946 1_545 S
H800 C823 0.950 . S
H801 C825 0.950 . S
H802 C826 0.950 . S
H803 C827 0.951 . S
H804 C829 0.951 . S
H805 C831 0.950 1_565 S
H806 C832 0.948 1_565 S
H807 C834 0.950 1_565 S
H808 C837 0.950 . S
H809 C838 0.950 . S
H810 C840 0.950 . S
H811 C841 0.950 . S
C812 H794 0.951 . S
C812 C813 1.366 . S
C812 C814 1.388 . S
C813 C812 1.366 . S
C813 C817 1.385 1_565 S
C814 H795 0.951 . S
C814 C812 1.388 . S
C814 C815 1.366 1_565 S
C815 C814 1.366 1_545 S
C815 C816 1.414 . S
C815 C818 1.499 . S
C816 H796 0.950 . S
C816 C815 1.414 . S
C816 C817 1.374 . S
C817 H797 0.950 . S
C817 C813 1.385 1_545 S
C817 C816 1.374 . S
C818 C815 1.499 . S
C818 C819 1.373 . S
C818 C820 1.403 . S
C819 H798 0.950 . S
C819 C818 1.373 . S
C819 C835 1.377 . S
C820 C818 1.403 . S
C820 C821 1.506 1_545 S
C820 C834 1.384 . S
C821 C820 1.506 1_565 S
C821 C822 1.398 . S
C821 C826 1.363 . S
C822 H799 0.946 1_565 S
C822 C821 1.398 . S
C822 C823 1.335 . S
C823 H800 0.950 . S
C823 C822 1.335 . S
C823 C824 1.287 . S
C824 C823 1.287 . S
C824 C825 1.524 . S
C824 H843 0.913 . S
C825 H801 0.950 . S
C825 C824 1.524 . S
C825 C826 1.415 . S
C826 H802 0.950 . S
C826 C821 1.363 . S
C826 C825 1.415 . S
C827 H803 0.951 . S
C827 C828 1.366 . S
C827 C829 1.388 . S
C828 C827 1.366 . S
C828 C832 1.385 . S
C829 H804 0.951 . S
C829 C827 1.388 . S
C829 C830 1.366 . S
C830 C829 1.366 . S
C830 C831 1.414 . S
C830 C833 1.499 . S
C831 H805 0.950 1_545 S
C831 C830 1.414 . S
C831 C832 1.374 . S
C832 H806 0.948 1_545 S
C832 C828 1.385 . S
C832 C831 1.374 . S
C833 C830 1.499 . S
C833 C834 1.373 . S
C833 C835 1.389 . S
C834 H807 0.950 1_545 S
C834 C820 1.384 . S
C834 C833 1.373 . S
C835 C819 1.377 . S
C835 C833 1.389 . S
C835 C836 1.524 . S
C836 C835 1.524 . S
C836 C837 1.397 . S
C836 C841 1.363 . S
C837 H808 0.950 . S
C837 C836 1.397 . S
C837 C838 1.334 . S
C838 H809 0.950 . S
C838 C837 1.334 . S
C838 C839 1.287 . S
C839 C838 1.287 . S
C839 C840 1.524 . S
C839 H842 0.999 . S
C840 H810 0.950 . S
C840 C839 1.524 . S
C840 C841 1.415 . S
C841 H811 0.950 . S
C841 C836 1.363 . S
C841 C840 1.415 . S
H842 C839 0.999 . S
H843 C824 0.913 . S
H844 C862 0.951 . S
H845 C864 0.951 . S
H846 C866 0.950 . S
H847 C867 0.950 . S
H848 C869 0.950 . S
H849 C872 0.950 . S
H850 C873 0.950 . S
H851 C875 0.950 . S
H852 C876 0.950 . S
H853 C877 0.951 . S
H854 C879 0.951 . S
H855 C881 0.950 . S
H856 C882 0.950 . S
H857 C884 0.950 . S
H858 C887 0.950 . S
H859 C888 0.950 . S
H860 C890 0.950 . S
H861 C891 0.950 . S
C862 H844 0.951 . S
C862 C863 1.366 . S
C862 C864 1.388 . S
C863 C862 1.366 . S
C863 C867 1.385 . S
C864 H845 0.951 . S
C864 C862 1.388 . S
C864 C865 1.366 . S
C865 C864 1.366 . S
C865 C866 1.414 . S
C865 C868 1.499 . S
C866 H846 0.950 . S
C866 C865 1.414 . S
C866 C867 1.374 . S
C867 H847 0.950 . S
C867 C863 1.385 . S
C867 C866 1.374 . S
C868 C865 1.499 . S
C868 C869 1.373 . S
C868 C870 1.389 . S
C869 H848 0.950 . S
C869 C868 1.373 . S
C869 C885 1.377 . S
C870 C868 1.389 . S
C870 C871 1.524 . S
C870 C884 1.377 . S
C871 C870 1.524 . S
C871 C872 1.397 . S
C871 C876 1.363 . S
C872 H849 0.950 . S
C872 C871 1.397 . S
C872 C873 1.334 . S
C873 H850 0.950 . S
C873 C872 1.334 . S
C873 C874 1.287 . S
C874 C873 1.287 . S
C874 C875 1.524 . S
C874 H893 0.913 . S
C875 H851 0.950 . S
C875 C874 1.524 . S
C875 C876 1.415 . S
C876 H852 0.950 . S
C876 C871 1.363 . S
C876 C875 1.415 . S
C877 H853 0.951 . S
C877 C878 1.366 . S
C877 C879 1.388 . S
C878 C877 1.366 . S
C878 C882 1.385 . S
C879 H854 0.951 . S
C879 C877 1.388 . S
C879 C880 1.366 . S
C880 C879 1.366 . S
C880 C881 1.414 . S
C880 C883 1.499 . S
C881 H855 0.950 . S
C881 C880 1.414 . S
C881 C882 1.374 . S
C882 H856 0.950 . S
C882 C878 1.385 . S
C882 C881 1.374 . S
C883 C880 1.499 . S
C883 C884 1.373 . S
C883 C885 1.389 . S
C884 H857 0.950 . S
C884 C870 1.377 . S
C884 C883 1.373 . S
C885 C869 1.377 . S
C885 C883 1.389 . S
C885 C886 1.524 . S
C886 C885 1.524 . S
C886 C887 1.397 . S
C886 C891 1.363 . S
C887 H858 0.950 . S
C887 C886 1.397 . S
C887 C888 1.334 . S
C888 H859 0.950 . S
C888 C887 1.334 . S
C888 C889 1.287 . S
C889 C888 1.287 . S
C889 C890 1.524 . S
C889 H892 0.999 . S
C890 H860 0.950 . S
C890 C889 1.524 . S
C890 C891 1.415 . S
C891 H861 0.950 . S
C891 C886 1.363 . S
C891 C890 1.415 . S
H892 C889 0.999 . S
H893 C874 0.913 . S
H894 C912 0.951 . S
H895 C914 0.951 . S
H896 C916 0.950 . S
H897 C917 0.950 . S
H898 C919 0.950 . S
H899 C922 0.950 . S
H900 C923 0.950 . S
H901 C925 0.950 . S
H902 C926 0.950 . S
H903 C927 0.951 . S
H904 C929 0.951 . S
H905 C931 0.950 . S
H906 C932 0.950 . S
H907 C934 0.950 . S
H908 C937 0.950 . S
H909 C938 0.950 . S
H910 C940 0.950 . S
H911 C941 0.950 . S
C912 H894 0.951 . S
C912 C913 1.366 . S
C912 C914 1.388 . S
C913 C912 1.366 . S
C913 C917 1.385 . S
C914 H895 0.951 . S
C914 C912 1.388 . S
C914 C915 1.366 . S
C915 C914 1.366 . S
C915 C916 1.414 . S
C915 C918 1.499 . S
C916 H896 0.950 . S
C916 C915 1.414 . S
C916 C917 1.374 . S
C917 H897 0.950 . S
C917 C913 1.385 . S
C917 C916 1.374 . S
C918 C915 1.499 . S
C918 C919 1.373 . S
C918 C920 1.389 . S
C919 H898 0.950 . S
C919 C918 1.373 . S
C919 C935 1.377 . S
C920 C918 1.389 . S
C920 C921 1.524 . S
C920 C934 1.377 . S
C921 C920 1.524 . S
C921 C922 1.397 . S
C921 C926 1.363 . S
C922 H899 0.950 . S
C922 C921 1.397 . S
C922 C923 1.334 . S
C923 H900 0.950 . S
C923 C922 1.334 . S
C923 C924 1.287 . S
C924 C923 1.287 . S
C924 C925 1.524 . S
C924 H943 0.913 . S
C925 H901 0.950 . S
C925 C924 1.524 . S
C925 C926 1.415 . S
C926 H902 0.950 . S
C926 C921 1.363 . S
C926 C925 1.415 . S
C927 H903 0.951 . S
C927 C928 1.366 . S
C927 C929 1.388 . S
C928 C927 1.366 . S
C928 C932 1.385 . S
C929 H904 0.951 . S
C929 C927 1.388 . S
C929 C930 1.366 . S
C930 C929 1.366 . S
C930 C931 1.414 . S
C930 C933 1.499 . S
C931 H905 0.950 . S
C931 C930 1.414 . S
C931 C932 1.374 . S
C932 H906 0.950 . S
C932 C928 1.385 . S
C932 C931 1.374 . S
C933 C930 1.499 . S
C933 C934 1.373 . S
C933 C935 1.389 . S
C934 H907 0.950 . S
C934 C920 1.377 . S
C934 C933 1.373 . S
C935 C919 1.377 . S
C935 C933 1.389 . S
C935 C936 1.524 . S
C936 C935 1.524 . S
C936 C937 1.397 . S
C936 C941 1.363 . S
C937 H908 0.950 . S
C937 C936 1.397 . S
C937 C938 1.334 . S
C938 H909 0.950 . S
C938 C937 1.334 . S
C938 C939 1.287 . S
C939 C938 1.287 . S
C939 C940 1.524 . S
C939 H942 0.999 . S
C940 H910 0.950 . S
C940 C939 1.524 . S
C940 C941 1.415 . S
C941 H911 0.950 . S
C941 C936 1.363 . S
C941 C940 1.415 . S
H942 C939 0.999 . S
H943 C924 0.913 . S
H944 C962 0.951 . S
H945 C964 0.951 . S
H946 C966 0.950 . S
H947 C967 0.950 . S
H948 C969 0.950 . S
H949 C972 0.950 . S
H950 C973 0.950 . S
H951 C975 0.950 . S
H952 C976 0.950 . S
H953 C977 0.951 . S
H954 C979 0.951 . S
H955 C981 0.950 . S
H956 C982 0.950 . S
H957 C984 0.950 . S
H958 C987 0.950 . S
H959 C988 0.950 . S
H960 C990 0.950 . S
H961 C991 0.950 . S
C962 H944 0.951 . S
C962 C963 1.366 . S
C962 C964 1.388 . S
C963 C962 1.366 . S
C963 C967 1.385 . S
C964 H945 0.951 . S
C964 C962 1.388 . S
C964 C965 1.366 . S
C965 C964 1.366 . S
C965 C966 1.414 . S
C965 C968 1.499 . S
C966 H946 0.950 . S
C966 C965 1.414 . S
C966 C967 1.374 . S
C967 H947 0.950 . S
C967 C963 1.385 . S
C967 C966 1.374 . S
C968 C965 1.499 . S
C968 C969 1.373 . S
C968 C970 1.389 . S
C969 H948 0.950 . S
C969 C968 1.373 . S
C969 C985 1.377 . S
C970 C968 1.389 . S
C970 C971 1.524 . S
C970 C984 1.377 . S
C971 C970 1.524 . S
C971 C972 1.397 . S
C971 C976 1.363 . S
C972 H949 0.950 . S
C972 C971 1.397 . S
C972 C973 1.334 . S
C973 H950 0.950 . S
C973 C972 1.334 . S
C973 C974 1.287 . S
C974 C973 1.287 . S
C974 C975 1.524 . S
C974 H993 0.913 . S
C975 H951 0.950 . S
C975 C974 1.524 . S
C975 C976 1.415 . S
C976 H952 0.950 . S
C976 C971 1.363 . S
C976 C975 1.415 . S
C977 H953 0.951 . S
C977 C978 1.366 . S
C977 C979 1.388 . S
C978 C977 1.366 . S
C978 C982 1.385 . S
C979 H954 0.951 . S
C979 C977 1.388 . S
C979 C980 1.366 . S
C980 C979 1.366 . S
C980 C981 1.414 . S
C980 C983 1.499 . S
C981 H955 0.950 . S
C981 C980 1.414 . S
C981 C982 1.374 . S
C982 H956 0.950 . S
C982 C978 1.385 . S
C982 C981 1.374 . S
C983 C980 1.499 . S
C983 C984 1.373 . S
C983 C985 1.389 . S
C984 H957 0.950 . S
C984 C970 1.377 . S
C984 C983 1.373 . S
C985 C969 1.377 . S
C985 C983 1.389 . S
C985 C986 1.524 . S
C986 C985 1.524 . S
C986 C987 1.397 . S
C986 C991 1.363 . S
C987 H958 0.950 . S
C987 C986 1.397 . S
C987 C988 1.334 . S
C988 H959 0.950 . S
C988 C987 1.334 . S
C988 C989 1.287 . S
C989 C988 1.287 . S
C989 C990 1.524 . S
C989 H992 0.999 . S
C990 H960 0.950 . S
C990 C989 1.524 . S
C990 C991 1.415 . S
C991 H961 0.950 . S
C991 C986 1.363 . S
C991 C990 1.415 . S
H992 C989 0.999 . S
H993 C974 0.913 . S
H994 C1012 0.951 . S
H995 C1014 0.951 . S
H996 C1016 0.950 . S
H997 C1017 0.950 . S
H998 C1019 0.950 . S
H999 C1022 0.950 . S
H1000 C1023 0.950 . S
H1001 C1025 0.950 . S
H1002 C1026 0.950 . S
H1003 C1027 0.951 . S
H1004 C1029 0.951 . S
H1005 C1031 0.950 . S
H1006 C1032 0.950 . S
H1007 C1034 0.950 . S
H1008 C1037 0.950 . S
H1009 C1038 0.950 . S
H1010 C1040 0.950 . S
H1011 C1041 0.950 . S
C1012 H994 0.951 . S
C1012 C1013 1.366 . S
C1012 C1014 1.388 . S
C1013 C1012 1.366 . S
C1013 C1017 1.385 . S
C1014 H995 0.951 . S
C1014 C1012 1.388 . S
C1014 C1015 1.366 . S
C1015 C1014 1.366 . S
C1015 C1016 1.414 . S
C1015 C1018 1.499 . S
C1016 H996 0.950 . S
C1016 C1015 1.414 . S
C1016 C1017 1.374 . S
C1017 H997 0.950 . S
C1017 C1013 1.385 . S
C1017 C1016 1.374 . S
C1018 C1015 1.499 . S
C1018 C1019 1.373 . S
C1018 C1020 1.389 . S
C1019 H998 0.950 . S
C1019 C1018 1.373 . S
C1019 C1035 1.377 . S
C1020 C1018 1.389 . S
C1020 C1021 1.524 . S
C1020 C1034 1.377 . S
C1021 C1020 1.524 . S
C1021 C1022 1.397 . S
C1021 C1026 1.363 . S
C1022 H999 0.950 . S
C1022 C1021 1.397 . S
C1022 C1023 1.334 . S
C1023 H1000 0.950 . S
C1023 C1022 1.334 . S
C1023 C1024 1.287 . S
C1024 C1023 1.287 . S
C1024 C1025 1.524 . S
C1024 H1043 0.913 . S
C1025 H1001 0.950 . S
C1025 C1024 1.524 . S
C1025 C1026 1.415 . S
C1026 H1002 0.950 . S
C1026 C1021 1.363 . S
C1026 C1025 1.415 . S
C1027 H1003 0.951 . S
C1027 C1028 1.366 . S
C1027 C1029 1.388 . S
C1028 C1027 1.366 . S
C1028 C1032 1.385 . S
C1029 H1004 0.951 . S
C1029 C1027 1.388 . S
C1029 C1030 1.366 . S
C1030 C1029 1.366 . S
C1030 C1031 1.414 . S
C1030 C1033 1.499 . S
C1031 H1005 0.950 . S
C1031 C1030 1.414 . S
C1031 C1032 1.374 . S
C1032 H1006 0.950 . S
C1032 C1028 1.385 . S
C1032 C1031 1.374 . S
C1033 C1030 1.499 . S
C1033 C1034 1.373 . S
C1033 C1035 1.389 . S
C1034 H1007 0.950 . S
C1034 C1020 1.377 . S
C1034 C1033 1.373 . S
C1035 C1019 1.377 . S
C1035 C1033 1.389 . S
C1035 C1036 1.524 . S
C1036 C1035 1.524 . S
C1036 C1037 1.397 . S
C1036 C1041 1.363 . S
C1037 H1008 0.950 . S
C1037 C1036 1.397 . S
C1037 C1038 1.334 . S
C1038 H1009 0.950 . S
C1038 C1037 1.334 . S
C1038 C1039 1.287 . S
C1039 C1038 1.287 . S
C1039 C1040 1.524 . S
C1039 H1042 0.999 . S
C1040 H1010 0.950 . S
C1040 C1039 1.524 . S
C1040 C1041 1.415 . S
C1041 H1011 0.950 . S
C1041 C1036 1.363 . S
C1041 C1040 1.415 . S
H1042 C1039 0.999 . S
H1043 C1024 0.913 . S
H1044 C1062 0.951 . S
H1045 C1064 0.951 . S
H1046 C1066 0.950 . S
H1047 C1067 0.950 . S
H1048 C1069 0.950 . S
H1049 C1072 0.950 . S
H1050 C1073 0.950 . S
H1051 C1075 0.950 . S
H1052 C1076 0.950 . S
H1053 C1077 0.951 . S
H1054 C1079 0.951 . S
H1055 C1081 0.950 . S
H1056 C1082 0.950 . S
H1057 C1084 0.950 . S
H1058 C1087 0.950 . S
H1059 C1088 0.950 . S
H1060 C1090 0.950 . S
H1061 C1091 0.950 . S
C1062 H1044 0.951 . S
C1062 C1063 1.366 . S
C1062 C1064 1.388 . S
C1063 C1062 1.366 . S
C1063 C1067 1.385 1_655 S
C1064 H1045 0.951 . S
C1064 C1062 1.388 . S
C1064 C1065 1.366 1_655 S
C1065 C1064 1.366 1_455 S
C1065 C1066 1.414 . S
C1065 C1068 1.499 . S
C1066 H1046 0.950 . S
C1066 C1065 1.414 . S
C1066 C1067 1.374 . S
C1067 H1047 0.950 . S
C1067 C1063 1.385 1_455 S
C1067 C1066 1.374 . S
C1068 C1065 1.499 . S
C1068 C1069 1.373 . S
C1068 C1070 1.389 1_455 S
C1069 H1048 0.950 . S
C1069 C1068 1.373 . S
C1069 C1085 1.377 . S
C1070 C1068 1.389 1_655 S
C1070 C1071 1.524 . S
C1070 C1084 1.377 . S
C1071 C1070 1.524 . S
C1071 C1072 1.397 . S
C1071 C1076 1.363 . S
C1072 H1049 0.950 . S
C1072 C1071 1.397 . S
C1072 C1073 1.334 . S
C1073 H1050 0.950 . S
C1073 C1072 1.334 . S
C1073 C1074 1.287 . S
C1074 C1073 1.287 . S
C1074 C1075 1.524 . S
C1074 H1093 0.913 . S
C1075 H1051 0.950 . S
C1075 C1074 1.524 . S
C1075 C1076 1.415 . S
C1076 H1052 0.950 . S
C1076 C1071 1.363 . S
C1076 C1075 1.415 . S
C1077 H1053 0.951 . S
C1077 C1078 1.366 . S
C1077 C1079 1.388 . S
C1078 C1077 1.366 . S
C1078 C1082 1.385 . S
C1079 H1054 0.951 . S
C1079 C1077 1.388 . S
C1079 C1080 1.366 . S
C1080 C1079 1.366 . S
C1080 C1081 1.414 . S
C1080 C1083 1.499 . S
C1081 H1055 0.950 . S
C1081 C1080 1.414 . S
C1081 C1082 1.374 . S
C1082 H1056 0.950 . S
C1082 C1078 1.385 . S
C1082 C1081 1.374 . S
C1083 C1080 1.499 . S
C1083 C1084 1.373 1_455 S
C1083 C1085 1.389 . S
C1084 H1057 0.950 . S
C1084 C1070 1.377 . S
C1084 C1083 1.373 1_655 S
C1085 C1069 1.377 . S
C1085 C1083 1.389 . S
C1085 C1086 1.524 . S
C1086 C1085 1.524 . S
C1086 C1087 1.397 . S
C1086 C1091 1.363 . S
C1087 H1058 0.950 . S
C1087 C1086 1.397 . S
C1087 C1088 1.334 . S
C1088 H1059 0.950 . S
C1088 C1087 1.334 . S
C1088 C1089 1.287 . S
C1089 C1088 1.287 . S
C1089 C1090 1.524 . S
C1089 H1092 0.999 . S
C1090 H1060 0.950 . S
C1090 C1089 1.524 . S
C1090 C1091 1.415 . S
C1091 H1061 0.950 . S
C1091 C1086 1.363 . S
C1091 C1090 1.415 . S
H1092 C1089 0.999 . S
H1093 C1074 0.913 . S
H1094 C1112 0.951 . S
H1095 C1114 0.951 . S
H1096 C1116 0.950 . S
H1097 C1117 0.950 . S
H1098 C1119 0.950 . S
H1099 C1122 0.950 1_545 S
H1100 C1123 0.950 . S
H1101 C1125 0.950 . S
H1102 C1126 0.950 . S
H1103 C1127 0.951 . S
H1104 C1129 0.951 . S
H1105 C1131 0.950 1_565 S
H1106 C1132 0.930 1_565 S
H1107 C1134 0.950 1_565 S
H1108 C1137 0.950 . S
H1109 C1138 0.950 . S
H1110 C1140 0.950 . S
H1111 C1141 0.950 . S
C1112 H1094 0.951 . S
C1112 C1113 1.366 . S
C1112 C1114 1.388 . S
C1113 C1112 1.366 . S
C1113 C1117 1.385 1_565 S
C1114 H1095 0.951 . S
C1114 C1112 1.388 . S
C1114 C1115 1.366 1_565 S
C1115 C1114 1.366 1_545 S
C1115 C1116 1.414 . S
C1115 C1118 1.499 . S
C1116 H1096 0.950 . S
C1116 C1115 1.414 . S
C1116 C1117 1.374 . S
C1117 H1097 0.950 . S
C1117 C1113 1.385 1_545 S
C1117 C1116 1.374 . S
C1118 C1115 1.499 . S
C1118 C1119 1.373 . S
C1118 C1120 1.389 1_545 S
C1119 H1098 0.950 . S
C1119 C1118 1.373 . S
C1119 C1135 1.377 . S
C1120 C1118 1.389 1_565 S
C1120 C1121 1.524 . S
C1120 C1134 1.377 1_565 S
C1121 C1120 1.524 . S
C1121 C1122 1.397 . S
C1121 C1126 1.363 . S
C1122 H1099 0.950 1_565 S
C1122 C1121 1.397 . S
C1122 C1123 1.334 . S
C1123 H1100 0.950 . S
C1123 C1122 1.334 . S
C1123 C1124 1.287 . S
C1124 C1123 1.287 . S
C1124 C1125 1.524 . S
C1124 H1143 0.913 . S
C1125 H1101 0.950 . S
C1125 C1124 1.524 . S
C1125 C1126 1.415 . S
C1126 H1102 0.950 . S
C1126 C1121 1.363 . S
C1126 C1125 1.415 . S
C1127 H1103 0.951 . S
C1127 C1128 1.366 . S
C1127 C1129 1.388 . S
C1128 C1127 1.366 . S
C1128 C1132 1.385 . S
C1129 H1104 0.951 . S
C1129 C1127 1.388 . S
C1129 C1130 1.366 . S
C1130 C1129 1.366 . S
C1130 C1131 1.414 . S
C1130 C1133 1.499 . S
C1131 H1105 0.950 1_545 S
C1131 C1130 1.414 . S
C1131 C1132 1.374 . S
C1132 H1106 0.930 1_545 S
C1132 C1128 1.385 . S
C1132 C1131 1.374 . S
C1133 C1130 1.499 . S
C1133 C1134 1.373 . S
C1133 C1135 1.389 . S
C1134 H1107 0.950 1_545 S
C1134 C1120 1.377 1_545 S
C1134 C1133 1.373 . S
C1135 C1119 1.377 . S
C1135 C1133 1.389 . S
C1135 C1136 1.524 . S
C1136 C1135 1.524 . S
C1136 C1137 1.397 . S
C1136 C1141 1.363 . S
C1137 H1108 0.950 . S
C1137 C1136 1.397 . S
C1137 C1138 1.334 . S
C1138 H1109 0.950 . S
C1138 C1137 1.334 . S
C1138 C1139 1.287 . S
C1139 C1138 1.287 . S
C1139 C1140 1.524 . S
C1139 H1142 0.999 . S
C1140 H1110 0.950 . S
C1140 C1139 1.524 . S
C1140 C1141 1.415 . S
C1141 H1111 0.950 . S
C1141 C1136 1.363 . S
C1141 C1140 1.415 . S
H1142 C1139 0.999 . S
H1143 C1124 0.913 . S
H1144 C1162 0.951 . S
H1145 C1164 0.951 . S
H1146 C1166 0.950 . S
H1147 C1167 0.950 . S
H1148 C1169 0.950 . S
H1149 C1172 0.950 . S
H1150 C1173 0.950 . S
H1151 C1175 0.950 . S
H1152 C1176 0.950 . S
H1153 C1177 0.951 . S
H1154 C1179 0.951 . S
H1155 C1181 0.950 . S
H1156 C1182 0.950 . S
H1157 C1184 0.950 . S
H1158 C1187 0.950 . S
H1159 C1188 0.950 . S
H1160 C1190 0.950 . S
H1161 C1191 0.950 . S
C1162 H1144 0.951 . S
C1162 C1163 1.366 1_655 S
C1162 C1164 1.388 . S
C1163 C1162 1.366 1_455 S
C1163 C1167 1.385 . S
C1164 H1145 0.951 . S
C1164 C1162 1.388 . S
C1164 C1165 1.366 . S
C1165 C1164 1.366 . S
C1165 C1166 1.414 1_655 S
C1165 C1168 1.499 . S
C1166 H1146 0.950 . S
C1166 C1165 1.414 1_455 S
C1166 C1167 1.374 . S
C1167 H1147 0.950 . S
C1167 C1163 1.385 . S
C1167 C1166 1.374 . S
C1168 C1165 1.499 . S
C1168 C1169 1.373 1_655 S
C1168 C1170 1.389 . S
C1169 H1148 0.950 . S
C1169 C1168 1.373 1_455 S
C1169 C1185 1.377 . S
C1170 C1168 1.389 . S
C1170 C1171 1.524 . S
C1170 C1184 1.377 . S
C1171 C1170 1.524 . S
C1171 C1172 1.397 . S
C1171 C1176 1.363 . S
C1172 H1149 0.950 . S
C1172 C1171 1.397 . S
C1172 C1173 1.334 . S
C1173 H1150 0.950 . S
C1173 C1172 1.334 . S
C1173 C1174 1.287 . S
C1174 C1173 1.287 . S
C1174 C1175 1.524 . S
C1174 H1193 0.913 . S
C1175 H1151 0.950 . S
C1175 C1174 1.524 . S
C1175 C1176 1.415 . S
C1176 H1152 0.950 . S
C1176 C1171 1.363 . S
C1176 C1175 1.415 . S
C1177 H1153 0.951 . S
C1177 C1178 1.366 . S
C1177 C1179 1.388 . S
C1178 C1177 1.366 . S
C1178 C1182 1.385 . S
C1179 H1154 0.951 . S
C1179 C1177 1.388 . S
C1179 C1180 1.366 . S
C1180 C1179 1.366 . S
C1180 C1181 1.414 . S
C1180 C1183 1.499 . S
C1181 H1155 0.950 . S
C1181 C1180 1.414 . S
C1181 C1182 1.374 . S
C1182 H1156 0.950 . S
C1182 C1178 1.385 . S
C1182 C1181 1.374 . S
C1183 C1180 1.499 . S
C1183 C1184 1.373 . S
C1183 C1185 1.389 1_655 S
C1184 H1157 0.950 . S
C1184 C1170 1.377 . S
C1184 C1183 1.373 . S
C1185 C1169 1.377 . S
C1185 C1183 1.389 1_455 S
C1185 C1186 1.524 . S
C1186 C1185 1.524 . S
C1186 C1187 1.397 . S
C1186 C1191 1.363 . S
C1187 H1158 0.950 . S
C1187 C1186 1.397 . S
C1187 C1188 1.334 . S
C1188 H1159 0.950 . S
C1188 C1187 1.334 . S
C1188 C1189 1.287 . S
C1189 C1188 1.287 . S
C1189 C1190 1.524 . S
C1189 H1192 0.999 . S
C1190 H1160 0.950 . S
C1190 C1189 1.524 . S
C1190 C1191 1.415 . S
C1191 H1161 0.950 . S
C1191 C1186 1.363 . S
C1191 C1190 1.415 . S
H1192 C1189 0.999 . S
H1193 C1174 0.913 . S
H1194 C1212 0.951 . S
H1195 C1214 0.951 . S
H1196 C1216 0.950 . S
H1197 C1217 0.950 . S
H1198 C1219 0.950 . S
H1199 C1222 0.950 . S
H1200 C1223 0.950 . S
H1201 C1225 0.950 . S
H1202 C1226 0.950 1_565 S
H1203 C1227 0.951 . S
H1204 C1229 0.951 . S
H1205 C1231 0.950 . S
H1206 C1232 0.950 . S
H1207 C1234 0.950 . S
H1208 C1237 0.950 . S
H1209 C1238 0.950 . S
H1210 C1240 0.950 . S
H1211 C1241 0.950 . S
C1212 H1194 0.951 . S
C1212 C1213 1.366 1_565 S
C1212 C1214 1.388 . S
C1213 C1212 1.366 1_545 S
C1213 C1217 1.385 . S
C1214 H1195 0.951 . S
C1214 C1212 1.388 . S
C1214 C1215 1.366 . S
C1215 C1214 1.366 . S
C1215 C1216 1.414 1_565 S
C1215 C1218 1.499 . S
C1216 H1196 0.950 . S
C1216 C1215 1.414 1_545 S
C1216 C1217 1.374 . S
C1217 H1197 0.950 . S
C1217 C1213 1.385 . S
C1217 C1216 1.374 . S
C1218 C1215 1.499 . S
C1218 C1219 1.373 . S
C1218 C1220 1.389 . S
C1219 H1198 0.950 . S
C1219 C1218 1.373 . S
C1219 C1235 1.377 . S
C1220 C1218 1.389 . S
C1220 C1221 1.524 1_565 S
C1220 C1234 1.377 . S
C1221 C1220 1.524 1_545 S
C1221 C1222 1.397 . S
C1221 C1226 1.363 . S
C1222 H1199 0.950 . S
C1222 C1221 1.397 . S
C1222 C1223 1.334 . S
C1223 H1200 0.950 . S
C1223 C1222 1.334 . S
C1223 C1224 1.287 . S
C1224 C1223 1.287 . S
C1224 C1225 1.524 . S
C1224 H1243 0.913 . S
C1225 H1201 0.950 . S
C1225 C1224 1.524 . S
C1225 C1226 1.415 . S
C1226 H1202 0.950 1_545 S
C1226 C1221 1.363 . S
C1226 C1225 1.415 . S
C1227 H1203 0.951 . S
C1227 C1228 1.366 . S
C1227 C1229 1.388 . S
C1228 C1227 1.366 . S
C1228 C1232 1.385 . S
C1229 H1204 0.951 . S
C1229 C1227 1.388 . S
C1229 C1230 1.366 . S
C1230 C1229 1.366 . S
C1230 C1231 1.414 . S
C1230 C1233 1.499 . S
C1231 H1205 0.950 . S
C1231 C1230 1.414 . S
C1231 C1232 1.374 . S
C1232 H1206 0.950 . S
C1232 C1228 1.385 . S
C1232 C1231 1.374 . S
C1233 C1230 1.499 . S
C1233 C1234 1.373 . S
C1233 C1235 1.389 . S
C1234 H1207 0.950 . S
C1234 C1220 1.377 . S
C1234 C1233 1.373 . S
C1235 C1219 1.377 . S
C1235 C1233 1.389 . S
C1235 C1236 1.524 . S
C1236 C1235 1.524 . S
C1236 C1237 1.397 . S
C1236 C1241 1.363 . S
C1237 H1208 0.950 . S
C1237 C1236 1.397 . S
C1237 C1238 1.334 . S
C1238 H1209 0.950 . S
C1238 C1237 1.334 . S
C1238 C1239 1.287 . S
C1239 C1238 1.287 . S
C1239 C1240 1.524 . S
C1239 H1242 0.999 . S
C1240 H1210 0.950 . S
C1240 C1239 1.524 . S
C1240 C1241 1.415 . S
C1241 H1211 0.950 . S
C1241 C1236 1.363 . S
C1241 C1240 1.415 . S
H1242 C1239 0.999 . S
H1243 C1224 0.913 . S
H1244 C1262 0.951 . S
H1245 C1264 0.951 . S
H1246 C1266 0.950 . S
H1247 C1267 0.950 . S
H1248 C1269 0.950 . S
H1249 C1272 0.950 . S
H1250 C1273 0.950 . S
H1251 C1275 0.950 . S
H1252 C1276 0.950 . S
H1253 C1277 0.951 . S
H1254 C1279 0.951 . S
H1255 C1281 0.950 . S
H1256 C1282 0.950 . S
H1257 C1284 0.950 . S
H1258 C1287 0.950 . S
H1259 C1288 0.950 . S
H1260 C1290 0.950 . S
H1261 C1291 0.950 . S
C1262 H1244 0.951 . S
C1262 C1263 1.366 . S
C1262 C1264 1.388 . S
C1263 C1262 1.366 . S
C1263 C1267 1.385 . S
C1264 H1245 0.951 . S
C1264 C1262 1.388 . S
C1264 C1265 1.366 . S
C1265 C1264 1.366 . S
C1265 C1266 1.414 . S
C1265 C1268 1.499 . S
C1266 H1246 0.950 . S
C1266 C1265 1.414 . S
C1266 C1267 1.374 . S
C1267 H1247 0.950 . S
C1267 C1263 1.385 . S
C1267 C1266 1.374 . S
C1268 C1265 1.499 . S
C1268 C1269 1.373 . S
C1268 C1270 1.389 . S
C1269 H1248 0.950 . S
C1269 C1268 1.373 . S
C1269 C1285 1.377 . S
C1270 C1268 1.389 . S
C1270 C1271 1.524 . S
C1270 C1284 1.377 . S
C1271 C1270 1.524 . S
C1271 C1272 1.397 . S
C1271 C1276 1.363 . S
C1272 H1249 0.950 . S
C1272 C1271 1.397 . S
C1272 C1273 1.334 . S
C1273 H1250 0.950 . S
C1273 C1272 1.334 . S
C1273 C1274 1.287 . S
C1274 C1273 1.287 . S
C1274 C1275 1.524 . S
C1274 H1293 0.913 . S
C1275 H1251 0.950 . S
C1275 C1274 1.524 . S
C1275 C1276 1.415 . S
C1276 H1252 0.950 . S
C1276 C1271 1.363 . S
C1276 C1275 1.415 . S
C1277 H1253 0.951 . S
C1277 C1278 1.366 . S
C1277 C1279 1.388 . S
C1278 C1277 1.366 . S
C1278 C1282 1.385 . S
C1279 H1254 0.951 . S
C1279 C1277 1.388 . S
C1279 C1280 1.366 . S
C1280 C1279 1.366 . S
C1280 C1281 1.414 . S
C1280 C1283 1.499 . S
C1281 H1255 0.950 . S
C1281 C1280 1.414 . S
C1281 C1282 1.374 . S
C1282 H1256 0.950 . S
C1282 C1278 1.385 . S
C1282 C1281 1.374 . S
C1283 C1280 1.499 . S
C1283 C1284 1.373 . S
C1283 C1285 1.389 . S
C1284 H1257 0.950 . S
C1284 C1270 1.377 . S
C1284 C1283 1.373 . S
C1285 C1269 1.377 . S
C1285 C1283 1.389 . S
C1285 C1286 1.524 . S
C1286 C1285 1.524 . S
C1286 C1287 1.397 . S
C1286 C1291 1.363 . S
C1287 H1258 0.950 . S
C1287 C1286 1.397 . S
C1287 C1288 1.334 . S
C1288 H1259 0.950 . S
C1288 C1287 1.334 . S
C1288 C1289 1.287 . S
C1289 C1288 1.287 . S
C1289 C1290 1.524 . S
C1289 H1292 0.999 . S
C1290 H1260 0.950 . S
C1290 C1289 1.524 . S
C1290 C1291 1.415 . S
C1291 H1261 0.950 . S
C1291 C1286 1.363 . S
C1291 C1290 1.415 . S
H1292 C1289 0.999 . S
H1293 C1274 0.913 . S
H1294 C1312 0.951 . S
H1295 C1314 0.951 . S
H1296 C1316 0.950 . S
H1297 C1317 0.950 . S
H1298 C1319 0.950 . S
H1299 C1322 0.950 . S
H1300 C1323 0.950 . S
H1301 C1325 0.950 . S
H1302 C1326 0.950 . S
H1303 C1327 0.951 . S
H1304 C1329 0.951 . S
H1305 C1331 0.950 . S
H1306 C1332 0.950 . S
H1307 C1334 0.950 . S
H1308 C1337 0.950 . S
H1309 C1338 0.950 . S
H1310 C1340 0.950 . S
H1311 C1341 0.950 . S
C1312 H1294 0.951 . S
C1312 C1313 1.366 . S
C1312 C1314 1.388 . S
C1313 C1312 1.366 . S
C1313 C1317 1.385 . S
C1314 H1295 0.951 . S
C1314 C1312 1.388 . S
C1314 C1315 1.366 . S
C1315 C1314 1.366 . S
C1315 C1316 1.414 . S
C1315 C1318 1.499 . S
C1316 H1296 0.950 . S
C1316 C1315 1.414 . S
C1316 C1317 1.374 . S
C1317 H1297 0.950 . S
C1317 C1313 1.385 . S
C1317 C1316 1.374 . S
C1318 C1315 1.499 . S
C1318 C1319 1.373 . S
C1318 C1320 1.389 . S
C1319 H1298 0.950 . S
C1319 C1318 1.373 . S
C1319 C1335 1.377 . S
C1320 C1318 1.389 . S
C1320 C1321 1.524 . S
C1320 C1334 1.377 . S
C1321 C1320 1.524 . S
C1321 C1322 1.397 . S
C1321 C1326 1.363 . S
C1322 H1299 0.950 . S
C1322 C1321 1.397 . S
C1322 C1323 1.334 . S
C1323 H1300 0.950 . S
C1323 C1322 1.334 . S
C1323 C1324 1.287 . S
C1324 C1323 1.287 . S
C1324 C1325 1.524 . S
C1324 H1343 0.913 . S
C1325 H1301 0.950 . S
C1325 C1324 1.524 . S
C1325 C1326 1.415 . S
C1326 H1302 0.950 . S
C1326 C1321 1.363 . S
C1326 C1325 1.415 . S
C1327 H1303 0.951 . S
C1327 C1328 1.366 . S
C1327 C1329 1.388 . S
C1328 C1327 1.366 . S
C1328 C1332 1.385 . S
C1329 H1304 0.951 . S
C1329 C1327 1.388 . S
C1329 C1330 1.366 . S
C1330 C1329 1.366 . S
C1330 C1331 1.414 . S
C1330 C1333 1.499 . S
C1331 H1305 0.950 . S
C1331 C1330 1.414 . S
C1331 C1332 1.374 . S
C1332 H1306 0.950 . S
C1332 C1328 1.385 . S
C1332 C1331 1.374 . S
C1333 C1330 1.499 . S
C1333 C1334 1.373 . S
C1333 C1335 1.389 . S
C1334 H1307 0.950 . S
C1334 C1320 1.377 . S
C1334 C1333 1.373 . S
C1335 C1319 1.377 . S
C1335 C1333 1.389 . S
C1335 C1336 1.524 . S
C1336 C1335 1.524 . S
C1336 C1337 1.397 . S
C1336 C1341 1.363 . S
C1337 H1308 0.950 . S
C1337 C1336 1.397 . S
C1337 C1338 1.334 . S
C1338 H1309 0.950 . S
C1338 C1337 1.334 . S
C1338 C1339 1.287 . S
C1339 C1338 1.287 . S
C1339 C1340 1.524 . S
C1339 H1342 0.999 . S
C1340 H1310 0.950 . S
C1340 C1339 1.524 . S
C1340 C1341 1.415 . S
C1341 H1311 0.950 . S
C1341 C1336 1.363 . S
C1341 C1340 1.415 . S
H1342 C1339 0.999 . S
H1343 C1324 0.913 . S
H1344 C1362 0.951 . S
H1345 C1364 0.951 . S
H1346 C1366 0.950 . S
H1347 C1367 0.950 . S
H1348 C1369 0.950 . S
H1349 C1372 0.950 . S
H1350 C1373 0.950 . S
H1351 C1375 0.950 . S
H1352 C1376 0.950 . S
H1353 C1377 0.951 . S
H1354 C1379 0.951 . S
H1355 C1381 0.950 . S
H1356 C1382 0.950 . S
H1357 C1384 0.950 . S
H1358 C1387 0.950 . S
H1359 C1388 0.950 . S
H1360 C1390 0.950 . S
H1361 C1391 0.950 . S
C1362 H1344 0.951 . S
C1362 C1363 1.366 . S
C1362 C1364 1.388 . S
C1363 C1362 1.366 . S
C1363 C1367 1.385 . S
C1364 H1345 0.951 . S
C1364 C1362 1.388 . S
C1364 C1365 1.366 . S
C1365 C1364 1.366 . S
C1365 C1366 1.414 . S
C1365 C1368 1.499 . S
C1366 H1346 0.950 . S
C1366 C1365 1.414 . S
C1366 C1367 1.374 . S
C1367 H1347 0.950 . S
C1367 C1363 1.385 . S
C1367 C1366 1.374 . S
C1368 C1365 1.499 . S
C1368 C1369 1.373 . S
C1368 C1370 1.389 . S
C1369 H1348 0.950 . S
C1369 C1368 1.373 . S
C1369 C1385 1.377 . S
C1370 C1368 1.389 . S
C1370 C1371 1.524 . S
C1370 C1384 1.377 . S
C1371 C1370 1.524 . S
C1371 C1372 1.397 . S
C1371 C1376 1.363 . S
C1372 H1349 0.950 . S
C1372 C1371 1.397 . S
C1372 C1373 1.334 . S
C1373 H1350 0.950 . S
C1373 C1372 1.334 . S
C1373 C1374 1.287 . S
C1374 C1373 1.287 . S
C1374 C1375 1.524 . S
C1374 H1393 0.913 . S
C1375 H1351 0.950 . S
C1375 C1374 1.524 . S
C1375 C1376 1.415 . S
C1376 H1352 0.950 . S
C1376 C1371 1.363 . S
C1376 C1375 1.415 . S
C1377 H1353 0.951 . S
C1377 C1378 1.366 . S
C1377 C1379 1.388 . S
C1378 C1377 1.366 . S
C1378 C1382 1.385 . S
C1379 H1354 0.951 . S
C1379 C1377 1.388 . S
C1379 C1380 1.366 . S
C1380 C1379 1.366 . S
C1380 C1381 1.414 . S
C1380 C1383 1.499 . S
C1381 H1355 0.950 . S
C1381 C1380 1.414 . S
C1381 C1382 1.374 . S
C1382 H1356 0.950 . S
C1382 C1378 1.385 . S
C1382 C1381 1.374 . S
C1383 C1380 1.499 . S
C1383 C1384 1.373 . S
C1383 C1385 1.389 . S
C1384 H1357 0.950 . S
C1384 C1370 1.377 . S
C1384 C1383 1.373 . S
C1385 C1369 1.377 . S
C1385 C1383 1.389 . S
C1385 C1386 1.524 . S
C1386 C1385 1.524 . S
C1386 C1387 1.397 . S
C1386 C1391 1.363 . S
C1387 H1358 0.950 . S
C1387 C1386 1.397 . S
C1387 C1388 1.334 . S
C1388 H1359 0.950 . S
C1388 C1387 1.334 . S
C1388 C1389 1.287 . S
C1389 C1388 1.287 . S
C1389 C1390 1.524 . S
C1389 H1392 0.999 . S
C1390 H1360 0.950 . S
C1390 C1389 1.524 . S
C1390 C1391 1.415 . S
C1391 H1361 0.950 . S
C1391 C1386 1.363 . S
C1391 C1390 1.415 . S
H1392 C1389 0.999 . S
H1393 C1374 0.913 . S
H1394 C1412 0.951 . S
H1395 C1414 0.951 . S
H1396 C1416 0.950 . S
H1397 C1417 0.950 . S
H1398 C1419 0.950 . S
H1399 C1422 0.950 . S
H1400 C1423 0.950 . S
H1401 C1425 0.950 . S
H1402 C1426 0.950 . S
H1403 C1427 0.951 . S
H1404 C1429 0.951 . S
H1405 C1431 0.950 . S
H1406 C1432 0.950 . S
H1407 C1434 0.950 . S
H1408 C1437 0.950 . S
H1409 C1438 0.950 . S
H1410 C1440 0.950 . S
H1411 C1441 0.950 . S
C1412 H1394 0.951 . S
C1412 C1413 1.366 . S
C1412 C1414 1.388 . S
C1413 C1412 1.366 . S
C1413 C1417 1.385 . S
C1414 H1395 0.951 . S
C1414 C1412 1.388 . S
C1414 C1415 1.366 . S
C1415 C1414 1.366 . S
C1415 C1416 1.414 . S
C1415 C1418 1.499 . S
C1416 H1396 0.950 . S
C1416 C1415 1.414 . S
C1416 C1417 1.374 . S
C1417 H1397 0.950 . S
C1417 C1413 1.385 . S
C1417 C1416 1.374 . S
C1418 C1415 1.499 . S
C1418 C1419 1.373 . S
C1418 C1420 1.389 . S
C1419 H1398 0.950 . S
C1419 C1418 1.373 . S
C1419 C1435 1.377 . S
C1420 C1418 1.389 . S
C1420 C1421 1.524 . S
C1420 C1434 1.377 . S
C1421 C1420 1.524 . S
C1421 C1422 1.397 . S
C1421 C1426 1.363 . S
C1422 H1399 0.950 . S
C1422 C1421 1.397 . S
C1422 C1423 1.334 . S
C1423 H1400 0.950 . S
C1423 C1422 1.334 . S
C1423 C1424 1.287 . S
C1424 C1423 1.287 . S
C1424 C1425 1.524 . S
C1424 H1443 0.913 . S
C1425 H1401 0.950 . S
C1425 C1424 1.524 . S
C1425 C1426 1.415 . S
C1426 H1402 0.950 . S
C1426 C1421 1.363 . S
C1426 C1425 1.415 . S
C1427 H1403 0.951 . S
C1427 C1428 1.366 . S
C1427 C1429 1.388 . S
C1428 C1427 1.366 . S
C1428 C1432 1.385 . S
C1429 H1404 0.951 . S
C1429 C1427 1.388 . S
C1429 C1430 1.366 . S
C1430 C1429 1.366 . S
C1430 C1431 1.414 . S
C1430 C1433 1.499 . S
C1431 H1405 0.950 . S
C1431 C1430 1.414 . S
C1431 C1432 1.374 . S
C1432 H1406 0.950 . S
C1432 C1428 1.385 . S
C1432 C1431 1.374 . S
C1433 C1430 1.499 . S
C1433 C1434 1.373 . S
C1433 C1435 1.389 . S
C1434 H1407 0.950 . S
C1434 C1420 1.377 . S
C1434 C1433 1.373 . S
C1435 C1419 1.377 . S
C1435 C1433 1.389 . S
C1435 C1436 1.524 . S
C1436 C1435 1.524 . S
C1436 C1437 1.397 . S
C1436 C1441 1.363 . S
C1437 H1408 0.950 . S
C1437 C1436 1.397 . S
C1437 C1438 1.334 . S
C1438 H1409 0.950 . S
C1438 C1437 1.334 . S
C1438 C1439 1.287 . S
C1439 C1438 1.287 . S
C1439 C1440 1.524 . S
C1439 H1442 0.999 . S
C1440 H1410 0.950 . S
C1440 C1439 1.524 . S
C1440 C1441 1.415 . S
C1441 H1411 0.950 . S
C1441 C1436 1.363 . S
C1441 C1440 1.415 . S
H1442 C1439 0.999 . S
H1443 C1424 0.913 . S
H1444 C1462 0.951 . S
H1445 C1464 0.951 . S
H1446 C1466 0.950 . S
H1447 C1467 0.950 . S
H1448 C1469 0.950 . S
H1449 C1472 0.950 . S
H1450 C1473 0.950 . S
H1451 C1475 0.950 . S
H1452 C1476 0.950 . S
H1453 C1477 0.951 . S
H1454 C1479 0.951 . S
H1455 C1481 0.950 . S
H1456 C1482 0.950 . S
H1457 C1484 0.950 . S
H1458 C1487 0.950 . S
H1459 C1488 0.950 . S
H1460 C1490 0.950 . S
H1461 C1491 0.950 . S
C1462 H1444 0.951 . S
C1462 C1463 1.366 . S
C1462 C1464 1.388 . S
C1463 C1462 1.366 . S
C1463 C1467 1.385 . S
C1464 H1445 0.951 . S
C1464 C1462 1.388 . S
C1464 C1465 1.366 . S
C1465 C1464 1.366 . S
C1465 C1466 1.414 . S
C1465 C1468 1.499 . S
C1466 H1446 0.950 . S
C1466 C1465 1.414 . S
C1466 C1467 1.374 . S
C1467 H1447 0.950 . S
C1467 C1463 1.385 . S
C1467 C1466 1.374 . S
C1468 C1465 1.499 . S
C1468 C1469 1.373 . S
C1468 C1470 1.389 . S
C1469 H1448 0.950 . S
C1469 C1468 1.373 . S
C1469 C1485 1.377 . S
C1470 C1468 1.389 . S
C1470 C1471 1.524 . S
C1470 C1484 1.377 . S
C1471 C1470 1.524 . S
C1471 C1472 1.397 . S
C1471 C1476 1.363 . S
C1472 H1449 0.950 . S
C1472 C1471 1.397 . S
C1472 C1473 1.334 . S
C1473 H1450 0.950 . S
C1473 C1472 1.334 . S
C1473 C1474 1.287 . S
C1474 C1473 1.287 . S
C1474 C1475 1.524 . S
C1474 H1493 0.913 . S
C1475 H1451 0.950 . S
C1475 C1474 1.524 . S
C1475 C1476 1.415 . S
C1476 H1452 0.950 . S
C1476 C1471 1.363 . S
C1476 C1475 1.415 . S
C1477 H1453 0.951 . S
C1477 C1478 1.366 . S
C1477 C1479 1.388 . S
C1478 C1477 1.366 . S
C1478 C1482 1.385 . S
C1479 H1454 0.951 . S
C1479 C1477 1.388 . S
C1479 C1480 1.366 . S
C1480 C1479 1.366 . S
C1480 C1481 1.414 . S
C1480 C1483 1.499 . S
C1481 H1455 0.950 . S
C1481 C1480 1.414 . S
C1481 C1482 1.374 . S
C1482 H1456 0.950 . S
C1482 C1478 1.385 . S
C1482 C1481 1.374 . S
C1483 C1480 1.499 . S
C1483 C1484 1.373 . S
C1483 C1485 1.389 . S
C1484 H1457 0.950 . S
C1484 C1470 1.377 . S
C1484 C1483 1.373 . S
C1485 C1469 1.377 . S
C1485 C1483 1.389 . S
C1485 C1486 1.524 . S
C1486 C1485 1.524 . S
C1486 C1487 1.397 . S
C1486 C1491 1.363 . S
C1487 H1458 0.950 . S
C1487 C1486 1.397 . S
C1487 C1488 1.334 . S
C1488 H1459 0.950 . S
C1488 C1487 1.334 . S
C1488 C1489 1.287 . S
C1489 C1488 1.287 . S
C1489 C1490 1.524 . S
C1489 H1492 0.999 . S
C1490 H1460 0.950 . S
C1490 C1489 1.524 . S
C1490 C1491 1.415 . S
C1491 H1461 0.950 . S
C1491 C1486 1.363 . S
C1491 C1490 1.415 . S
H1492 C1489 0.999 . S
H1493 C1474 0.913 . S
H1494 C1512 0.951 . S
H1495 C1514 0.951 . S
H1496 C1516 0.950 . S
H1497 C1517 0.950 . S
H1498 C1519 0.950 . S
H1499 C1522 0.950 . S
H1500 C1523 0.950 . S
H1501 C1525 0.950 . S
H1502 C1526 0.950 . S
H1503 C1527 0.951 . S
H1504 C1529 0.951 . S
H1505 C1531 0.950 . S
H1506 C1532 0.950 . S
H1507 C1534 0.950 . S
H1508 C1537 0.950 . S
H1509 C1538 0.950 . S
H1510 C1540 0.950 . S
H1511 C1541 0.950 . S
C1512 H1494 0.951 . S
C1512 C1513 1.366 . S
C1512 C1514 1.388 . S
C1513 C1512 1.366 . S
C1513 C1517 1.385 . S
C1514 H1495 0.951 . S
C1514 C1512 1.388 . S
C1514 C1515 1.366 . S
C1515 C1514 1.366 . S
C1515 C1516 1.414 . S
C1515 C1518 1.499 . S
C1516 H1496 0.950 . S
C1516 C1515 1.414 . S
C1516 C1517 1.374 . S
C1517 H1497 0.950 . S
C1517 C1513 1.385 . S
C1517 C1516 1.374 . S
C1518 C1515 1.499 . S
C1518 C1519 1.373 . S
C1518 C1520 1.389 . S
C1519 H1498 0.950 . S
C1519 C1518 1.373 . S
C1519 C1535 1.377 . S
C1520 C1518 1.389 . S
C1520 C1521 1.524 . S
C1520 C1534 1.377 . S
C1521 C1520 1.524 . S
C1521 C1522 1.397 . S
C1521 C1526 1.363 . S
C1522 H1499 0.950 . S
C1522 C1521 1.397 . S
C1522 C1523 1.334 . S
C1523 H1500 0.950 . S
C1523 C1522 1.334 . S
C1523 C1524 1.287 . S
C1524 C1523 1.287 . S
C1524 C1525 1.524 . S
C1524 H1543 0.913 . S
C1525 H1501 0.950 . S
C1525 C1524 1.524 . S
C1525 C1526 1.415 . S
C1526 H1502 0.950 . S
C1526 C1521 1.363 . S
C1526 C1525 1.415 . S
C1527 H1503 0.951 . S
C1527 C1528 1.366 . S
C1527 C1529 1.388 . S
C1528 C1527 1.366 . S
C1528 C1532 1.385 . S
C1529 H1504 0.951 . S
C1529 C1527 1.388 . S
C1529 C1530 1.366 . S
C1530 C1529 1.366 . S
C1530 C1531 1.414 . S
C1530 C1533 1.499 . S
C1531 H1505 0.950 . S
C1531 C1530 1.414 . S
C1531 C1532 1.374 . S
C1532 H1506 0.950 . S
C1532 C1528 1.385 . S
C1532 C1531 1.374 . S
C1533 C1530 1.499 . S
C1533 C1534 1.373 . S
C1533 C1535 1.389 . S
C1534 H1507 0.950 . S
C1534 C1520 1.377 . S
C1534 C1533 1.373 . S
C1535 C1519 1.377 . S
C1535 C1533 1.389 . S
C1535 C1536 1.524 . S
C1536 C1535 1.524 . S
C1536 C1537 1.397 . S
C1536 C1541 1.363 . S
C1537 H1508 0.950 . S
C1537 C1536 1.397 . S
C1537 C1538 1.334 . S
C1538 H1509 0.950 . S
C1538 C1537 1.334 . S
C1538 C1539 1.287 . S
C1539 C1538 1.287 . S
C1539 C1540 1.524 . S
C1539 H1542 0.999 . S
C1540 H1510 0.950 . S
C1540 C1539 1.524 . S
C1540 C1541 1.415 . S
C1541 H1511 0.950 . S
C1541 C1536 1.363 . S
C1541 C1540 1.415 . S
H1542 C1539 0.999 . S
H1543 C1524 0.913 . S
H1544 C1562 0.951 . S
H1545 C1564 0.951 . S
H1546 C1566 0.950 . S
H1547 C1567 0.950 . S
H1548 C1569 0.950 . S
H1549 C1572 0.950 . S
H1550 C1573 0.950 . S
H1551 C1575 0.950 . S
H1552 C1576 0.950 . S
H1553 C1577 0.951 . S
H1554 C1579 0.951 . S
H1555 C1581 0.950 . S
H1556 C1582 0.950 . S
H1557 C1584 0.950 . S
H1558 C1587 0.950 . S
H1559 C1588 0.950 . S
H1560 C1590 0.950 . S
H1561 C1591 0.950 . S
C1562 H1544 0.951 . S
C1562 C1563 1.366 . S
C1562 C1564 1.388 . S
C1563 C1562 1.366 . S
C1563 C1567 1.385 . S
C1564 H1545 0.951 . S
C1564 C1562 1.388 . S
C1564 C1565 1.366 . S
C1565 C1564 1.366 . S
C1565 C1566 1.414 . S
C1565 C1568 1.499 . S
C1566 H1546 0.950 . S
C1566 C1565 1.414 . S
C1566 C1567 1.374 . S
C1567 H1547 0.950 . S
C1567 C1563 1.385 . S
C1567 C1566 1.374 . S
C1568 C1565 1.499 . S
C1568 C1569 1.373 . S
C1568 C1570 1.389 . S
C1569 H1548 0.950 . S
C1569 C1568 1.373 . S
C1569 C1585 1.377 . S
C1570 C1568 1.389 . S
C1570 C1571 1.524 . S
C1570 C1584 1.377 . S
C1571 C1570 1.524 . S
C1571 C1572 1.397 . S
C1571 C1576 1.363 . S
C1572 H1549 0.950 . S
C1572 C1571 1.397 . S
C1572 C1573 1.334 . S
C1573 H1550 0.950 . S
C1573 C1572 1.334 . S
C1573 C1574 1.287 . S
C1574 C1573 1.287 . S
C1574 C1575 1.524 . S
C1574 H1593 0.913 . S
C1575 H1551 0.950 . S
C1575 C1574 1.524 . S
C1575 C1576 1.415 . S
C1576 H1552 0.950 . S
C1576 C1571 1.363 . S
C1576 C1575 1.415 . S
C1577 H1553 0.951 . S
C1577 C1578 1.366 . S
C1577 C1579 1.388 . S
C1578 C1577 1.366 . S
C1578 C1582 1.385 . S
C1579 H1554 0.951 . S
C1579 C1577 1.388 . S
C1579 C1580 1.366 . S
C1580 C1579 1.366 . S
C1580 C1581 1.414 . S
C1580 C1583 1.499 . S
C1581 H1555 0.950 . S
C1581 C1580 1.414 . S
C1581 C1582 1.374 . S
C1582 H1556 0.950 . S
C1582 C1578 1.385 . S
C1582 C1581 1.374 . S
C1583 C1580 1.499 . S
C1583 C1584 1.373 . S
C1583 C1585 1.389 . S
C1584 H1557 0.950 . S
C1584 C1570 1.377 . S
C1584 C1583 1.373 . S
C1585 C1569 1.377 . S
C1585 C1583 1.389 . S
C1585 C1586 1.524 . S
C1586 C1585 1.524 . S
C1586 C1587 1.397 . S
C1586 C1591 1.363 . S
C1587 H1558 0.950 . S
C1587 C1586 1.397 . S
C1587 C1588 1.334 . S
C1588 H1559 0.950 . S
C1588 C1587 1.334 . S
C1588 C1589 1.287 . S
C1589 C1588 1.287 . S
C1589 C1590 1.524 . S
C1589 H1592 0.999 . S
C1590 H1560 0.950 . S
C1590 C1589 1.524 . S
C1590 C1591 1.415 . S
C1591 H1561 0.950 . S
C1591 C1586 1.363 . S
C1591 C1590 1.415 . S
H1592 C1589 0.999 . S
H1593 C1574 0.913 . S
H1594 C1612 0.951 . S
H1595 C1614 0.951 . S
H1596 C1616 0.950 . S
H1597 C1617 0.950 . S
H1598 C1619 0.950 . S
H1599 C1622 0.950 . S
H1600 C1623 0.950 . S
H1601 C1625 0.950 . S
H1602 C1626 0.950 . S
H1603 C1627 0.951 . S
H1604 C1629 0.951 . S
H1605 C1631 0.950 . S
H1606 C1632 0.950 . S
H1607 C1634 0.950 . S
H1608 C1637 0.950 . S
H1609 C1638 0.950 . S
H1610 C1640 0.950 . S
H1611 C1641 0.950 . S
C1612 H1594 0.951 . S
C1612 C1613 1.366 . S
C1612 C1614 1.388 . S
C1613 C1612 1.366 . S
C1613 C1617 1.385 . S
C1614 H1595 0.951 . S
C1614 C1612 1.388 . S
C1614 C1615 1.366 . S
C1615 C1614 1.366 . S
C1615 C1616 1.414 . S
C1615 C1618 1.499 . S
C1616 H1596 0.950 . S
C1616 C1615 1.414 . S
C1616 C1617 1.374 . S
C1617 H1597 0.950 . S
C1617 C1613 1.385 . S
C1617 C1616 1.374 . S
C1618 C1615 1.499 . S
C1618 C1619 1.373 . S
C1618 C1620 1.389 . S
C1619 H1598 0.950 . S
C1619 C1618 1.373 . S
C1619 C1635 1.377 . S
C1620 C1618 1.389 . S
C1620 C1621 1.524 . S
C1620 C1634 1.377 . S
C1621 C1620 1.524 . S
C1621 C1622 1.397 . S
C1621 C1626 1.363 . S
C1622 H1599 0.950 . S
C1622 C1621 1.397 . S
C1622 C1623 1.334 . S
C1623 H1600 0.950 . S
C1623 C1622 1.334 . S
C1623 C1624 1.287 . S
C1624 C1623 1.287 . S
C1624 C1625 1.524 . S
C1624 H1643 0.913 . S
C1625 H1601 0.950 . S
C1625 C1624 1.524 . S
C1625 C1626 1.415 . S
C1626 H1602 0.950 . S
C1626 C1621 1.363 . S
C1626 C1625 1.415 . S
C1627 H1603 0.951 . S
C1627 C1628 1.366 . S
C1627 C1629 1.388 . S
C1628 C1627 1.366 . S
C1628 C1632 1.385 . S
C1629 H1604 0.951 . S
C1629 C1627 1.388 . S
C1629 C1630 1.366 . S
C1630 C1629 1.366 . S
C1630 C1631 1.414 . S
C1630 C1633 1.499 . S
C1631 H1605 0.950 . S
C1631 C1630 1.414 . S
C1631 C1632 1.374 . S
C1632 H1606 0.950 . S
C1632 C1628 1.385 . S
C1632 C1631 1.374 . S
C1633 C1630 1.499 . S
C1633 C1634 1.373 . S
C1633 C1635 1.389 . S
C1634 H1607 0.950 . S
C1634 C1620 1.377 . S
C1634 C1633 1.373 . S
C1635 C1619 1.377 . S
C1635 C1633 1.389 . S
C1635 C1636 1.524 . S
C1636 C1635 1.524 . S
C1636 C1637 1.397 . S
C1636 C1641 1.363 . S
C1637 H1608 0.950 . S
C1637 C1636 1.397 . S
C1637 C1638 1.334 . S
C1638 H1609 0.950 . S
C1638 C1637 1.334 . S
C1638 C1639 1.287 . S
C1639 C1638 1.287 . S
C1639 C1640 1.524 . S
C1639 H1642 0.999 . S
C1640 H1610 0.950 . S
C1640 C1639 1.524 . S
C1640 C1641 1.415 . S
C1641 H1611 0.950 . S
C1641 C1636 1.363 . S
C1641 C1640 1.415 . S
H1642 C1639 0.999 . S
H1643 C1624 0.913 . S
H1644 C1662 0.951 . S
H1645 C1664 0.951 . S
H1646 C1666 0.950 . S
H1647 C1667 0.950 . S
H1648 C1669 0.950 . S
H1649 C1672 0.950 . S
H1650 C1673 0.950 . S
H1651 C1675 0.950 . S
H1652 C1676 0.950 . S
H1653 C1677 0.951 . S
H1654 C1679 0.951 . S
H1655 C1681 0.950 . S
H1656 C1682 0.950 . S
H1657 C1684 0.950 . S
H1658 C1687 0.950 . S
H1659 C1688 0.950 . S
H1660 C1690 0.950 . S
H1661 C1691 0.950 . S
C1662 H1644 0.951 . S
C1662 C1663 1.366 . S
C1662 C1664 1.388 . S
C1663 C1662 1.366 . S
C1663 C1667 1.385 . S
C1664 H1645 0.951 . S
C1664 C1662 1.388 . S
C1664 C1665 1.366 . S
C1665 C1664 1.366 . S
C1665 C1666 1.414 . S
C1665 C1668 1.499 . S
C1666 H1646 0.950 . S
C1666 C1665 1.414 . S
C1666 C1667 1.374 . S
C1667 H1647 0.950 . S
C1667 C1663 1.385 . S
C1667 C1666 1.374 . S
C1668 C1665 1.499 . S
C1668 C1669 1.373 . S
C1668 C1670 1.389 . S
C1669 H1648 0.950 . S
C1669 C1668 1.373 . S
C1669 C1685 1.377 . S
C1670 C1668 1.389 . S
C1670 C1671 1.524 . S
C1670 C1684 1.377 . S
C1671 C1670 1.524 . S
C1671 C1672 1.397 . S
C1671 C1676 1.363 . S
C1672 H1649 0.950 . S
C1672 C1671 1.397 . S
C1672 C1673 1.334 . S
C1673 H1650 0.950 . S
C1673 C1672 1.334 . S
C1673 C1674 1.287 . S
C1674 C1673 1.287 . S
C1674 C1675 1.524 . S
C1674 H1693 0.913 . S
C1675 H1651 0.950 . S
C1675 C1674 1.524 . S
C1675 C1676 1.415 . S
C1676 H1652 0.950 . S
C1676 C1671 1.363 . S
C1676 C1675 1.415 . S
C1677 H1653 0.951 . S
C1677 C1678 1.366 . S
C1677 C1679 1.388 . S
C1678 C1677 1.366 . S
C1678 C1682 1.385 . S
C1679 H1654 0.951 . S
C1679 C1677 1.388 . S
C1679 C1680 1.366 . S
C1680 C1679 1.366 . S
C1680 C1681 1.414 . S
C1680 C1683 1.499 . S
C1681 H1655 0.950 . S
C1681 C1680 1.414 . S
C1681 C1682 1.374 . S
C1682 H1656 0.950 . S
C1682 C1678 1.385 . S
C1682 C1681 1.374 . S
C1683 C1680 1.499 . S
C1683 C1684 1.373 . S
C1683 C1685 1.389 . S
C1684 H1657 0.950 . S
C1684 C1670 1.377 . S
C1684 C1683 1.373 . S
C1685 C1669 1.377 . S
C1685 C1683 1.389 . S
C1685 C1686 1.524 . S
C1686 C1685 1.524 . S
C1686 C1687 1.397 . S
C1686 C1691 1.363 . S
C1687 H1658 0.950 . S
C1687 C1686 1.397 . S
C1687 C1688 1.334 . S
C1688 H1659 0.950 . S
C1688 C1687 1.334 . S
C1688 C1689 1.287 . S
C1689 C1688 1.287 . S
C1689 C1690 1.524 . S
C1689 H1692 0.999 . S
C1690 H1660 0.950 . S
C1690 C1689 1.524 . S
C1690 C1691 1.415 . S
C1691 H1661 0.950 . S
C1691 C1686 1.363 . S
C1691 C1690 1.415 . S
H1692 C1689 0.999 . S
H1693 C1674 0.913 . S
H1694 C1712 0.951 . S
H1695 C1714 0.951 . S
H1696 C1716 0.950 . S
H1697 C1717 0.950 . S
H1698 C1719 0.950 . S
H1699 C1722 0.950 . S
H1700 C1723 0.950 . S
H1701 C1725 0.950 . S
H1702 C1726 0.950 . S
H1703 C1727 0.951 . S
H1704 C1729 0.951 . S
H1705 C1731 0.950 . S
H1706 C1732 0.950 . S
H1707 C1734 0.950 . S
H1708 C1737 0.950 . S
H1709 C1738 0.950 . S
H1710 C1740 0.950 . S
H1711 C1741 0.950 . S
C1712 H1694 0.951 . S
C1712 C1713 1.366 . S
C1712 C1714 1.388 . S
C1713 C1712 1.366 . S
C1713 C1717 1.385 . S
C1714 H1695 0.951 . S
C1714 C1712 1.388 . S
C1714 C1715 1.366 . S
C1715 C1714 1.366 . S
C1715 C1716 1.414 . S
C1715 C1718 1.499 . S
C1716 H1696 0.950 . S
C1716 C1715 1.414 . S
C1716 C1717 1.374 . S
C1717 H1697 0.950 . S
C1717 C1713 1.385 . S
C1717 C1716 1.374 . S
C1718 C1715 1.499 . S
C1718 C1719 1.373 . S
C1718 C1720 1.389 . S
C1719 H1698 0.950 . S
C1719 C1718 1.373 . S
C1719 C1735 1.377 . S
C1720 C1718 1.389 . S
C1720 C1721 1.524 . S
C1720 C1734 1.377 . S
C1721 C1720 1.524 . S
C1721 C1722 1.397 . S
C1721 C1726 1.363 . S
C1722 H1699 0.950 . S
C1722 C1721 1.397 . S
C1722 C1723 1.334 . S
C1723 H1700 0.950 . S
C1723 C1722 1.334 . S
C1723 C1724 1.287 . S
C1724 C1723 1.287 . S
C1724 C1725 1.524 . S
C1724 H1743 0.913 . S
C1725 H1701 0.950 . S
C1725 C1724 1.524 . S
C1725 C1726 1.415 . S
C1726 H1702 0.950 . S
C1726 C1721 1.363 . S
C1726 C1725 1.415 . S
C1727 H1703 0.951 . S
C1727 C1728 1.366 . S
C1727 C1729 1.388 . S
C1728 C1727 1.366 . S
C1728 C1732 1.385 . S
C1729 H1704 0.951 . S
C1729 C1727 1.388 . S
C1729 C1730 1.366 . S
C1730 C1729 1.366 . S
C1730 C1731 1.414 . S
C1730 C1733 1.499 . S
C1731 H1705 0.950 . S
C1731 C1730 1.414 . S
C1731 C1732 1.374 . S
C1732 H1706 0.950 . S
C1732 C1728 1.385 . S
C1732 C1731 1.374 . S
C1733 C1730 1.499 . S
C1733 C1734 1.373 . S
C1733 C1735 1.389 . S
C1734 H1707 0.950 . S
C1734 C1720 1.377 . S
C1734 C1733 1.373 . S
C1735 C1719 1.377 . S
C1735 C1733 1.389 . S
C1735 C1736 1.524 . S
C1736 C1735 1.524 . S
C1736 C1737 1.397 . S
C1736 C1741 1.363 . S
C1737 H1708 0.950 . S
C1737 C1736 1.397 . S
C1737 C1738 1.334 . S
C1738 H1709 0.950 . S
C1738 C1737 1.334 . S
C1738 C1739 1.287 . S
C1739 C1738 1.287 . S
C1739 C1740 1.524 . S
C1739 H1742 0.999 . S
C1740 H1710 0.950 . S
C1740 C1739 1.524 . S
C1740 C1741 1.415 . S
C1741 H1711 0.950 . S
C1741 C1736 1.363 . S
C1741 C1740 1.415 . S
H1742 C1739 0.999 . S
H1743 C1724 0.913 . S
H1744 C1762 0.951 . S
H1745 C1764 0.951 . S
H1746 C1766 0.950 . S
H1747 C1767 0.950 . S
H1748 C1769 0.954 . S
H1749 C1772 0.950 . S
H1750 C1773 0.950 . S
H1751 C1775 0.950 . S
H1752 C1776 0.950 . S
H1753 C1777 0.951 . S
H1754 C1779 0.951 . S
H1755 C1781 0.950 . S
H1756 C1782 0.950 . S
H1757 C1784 0.954 . S
H1758 C1787 0.950 . S
H1759 C1788 0.950 . S
H1760 C1790 0.950 . S
H1761 C1791 0.950 . S
C1762 H1744 0.951 . S
C1762 C1763 1.366 . S
C1762 C1764 1.388 . S
C1763 C1762 1.366 . S
C1763 C1767 1.385 . S
C1764 H1745 0.951 . S
C1764 C1762 1.388 . S
C1764 C1765 1.366 . S
C1765 C1764 1.366 . S
C1765 C1766 1.414 . S
C1765 C1768 1.499 . S
C1766 H1746 0.950 . S
C1766 C1765 1.414 . S
C1766 C1767 1.374 . S
C1767 H1747 0.950 . S
C1767 C1763 1.385 . S
C1767 C1766 1.374 . S
C1768 C1765 1.499 . S
C1768 C1769 1.332 1_554 S
C1768 C1770 1.389 1_545 S
C1769 H1748 0.954 . S
C1769 C1768 1.332 1_556 S
C1769 C1785 1.416 . S
C1770 C1768 1.389 1_565 S
C1770 C1771 1.524 . S
C1770 C1784 1.416 . S
C1771 C1770 1.524 . S
C1771 C1772 1.397 . S
C1771 C1776 1.363 . S
C1772 H1749 0.950 . S
C1772 C1771 1.397 . S
C1772 C1773 1.334 . S
C1773 H1750 0.950 . S
C1773 C1772 1.334 . S
C1773 C1774 1.287 . S
C1774 C1773 1.287 . S
C1774 C1775 1.524 . S
C1774 H1793 0.913 . S
C1775 H1751 0.950 . S
C1775 C1774 1.524 . S
C1775 C1776 1.415 . S
C1776 H1752 0.950 . S
C1776 C1771 1.363 . S
C1776 C1775 1.415 . S
C1777 H1753 0.951 . S
C1777 C1778 1.366 . S
C1777 C1779 1.388 . S
C1778 C1777 1.366 . S
C1778 C1782 1.385 . S
C1779 H1754 0.951 . S
C1779 C1777 1.388 . S
C1779 C1780 1.366 . S
C1780 C1779 1.366 . S
C1780 C1781 1.414 . S
C1780 C1783 1.499 . S
C1781 H1755 0.950 . S
C1781 C1780 1.414 . S
C1781 C1782 1.374 . S
C1782 H1756 0.950 . S
C1782 C1778 1.385 . S
C1782 C1781 1.374 . S
C1783 C1780 1.499 . S
C1783 C1784 1.332 1_556 S
C1783 C1785 1.389 1_565 S
C1784 H1757 0.954 . S
C1784 C1770 1.416 . S
C1784 C1783 1.332 1_554 S
C1785 C1769 1.416 . S
C1785 C1783 1.389 1_545 S
C1785 C1786 1.524 . S
C1786 C1785 1.524 . S
C1786 C1787 1.397 . S
C1786 C1791 1.363 . S
C1787 H1758 0.950 . S
C1787 C1786 1.397 . S
C1787 C1788 1.334 . S
C1788 H1759 0.950 . S
C1788 C1787 1.334 . S
C1788 C1789 1.287 . S
C1789 C1788 1.287 . S
C1789 C1790 1.524 . S
C1789 H1792 0.999 . S
C1790 H1760 0.950 . S
C1790 C1789 1.524 . S
C1790 C1791 1.415 . S
C1791 H1761 0.950 . S
C1791 C1786 1.363 . S
C1791 C1790 1.415 . S
H1792 C1789 0.999 . S
H1793 C1774 0.913 . S
H1794 C1812 0.951 . S
H1795 C1814 0.951 . S
H1796 C1816 0.950 . S
H1797 C1817 0.950 . S
H1798 C1819 0.952 . S
H1799 C1822 0.950 . S
H1800 C1823 0.950 . S
H1801 C1825 0.950 . S
H1802 C1826 0.950 . S
H1803 C1827 0.951 . S
H1804 C1829 0.951 . S
H1805 C1831 0.950 . S
H1806 C1832 0.950 . S
H1807 C1834 0.952 . S
H1808 C1837 0.950 . S
H1809 C1838 0.950 . S
H1810 C1840 0.950 . S
H1811 C1841 0.950 . S
C1812 H1794 0.951 . S
C1812 C1813 1.366 . S
C1812 C1814 1.388 . S
C1813 C1812 1.366 . S
C1813 C1817 1.385 . S
C1814 H1795 0.951 . S
C1814 C1812 1.388 . S
C1814 C1815 1.366 . S
C1815 C1814 1.366 . S
C1815 C1816 1.414 . S
C1815 C1818 1.499 . S
C1816 H1796 0.950 . S
C1816 C1815 1.414 . S
C1816 C1817 1.374 . S
C1817 H1797 0.950 . S
C1817 C1813 1.385 . S
C1817 C1816 1.374 . S
C1818 C1815 1.499 . S
C1818 C1819 1.344 1_554 S
C1818 C1820 1.389 . S
C1819 H1798 0.952 . S
C1819 C1818 1.344 1_556 S
C1819 C1835 1.405 . S
C1820 C1818 1.389 . S
C1820 C1821 1.524 . S
C1820 C1834 1.405 . S
C1821 C1820 1.524 . S
C1821 C1822 1.397 . S
C1821 C1826 1.363 . S
C1822 H1799 0.950 . S
C1822 C1821 1.397 . S
C1822 C1823 1.334 . S
C1823 H1800 0.950 . S
C1823 C1822 1.334 . S
C1823 C1824 1.287 . S
C1824 C1823 1.287 . S
C1824 C1825 1.524 . S
C1824 H1843 0.913 . S
C1825 H1801 0.950 . S
C1825 C1824 1.524 . S
C1825 C1826 1.415 . S
C1826 H1802 0.950 . S
C1826 C1821 1.363 . S
C1826 C1825 1.415 . S
C1827 H1803 0.951 . S
C1827 C1828 1.366 . S
C1827 C1829 1.388 . S
C1828 C1827 1.366 . S
C1828 C1832 1.385 . S
C1829 H1804 0.951 . S
C1829 C1827 1.388 . S
C1829 C1830 1.366 . S
C1830 C1829 1.366 . S
C1830 C1831 1.414 . S
C1830 C1833 1.499 . S
C1831 H1805 0.950 . S
C1831 C1830 1.414 . S
C1831 C1832 1.374 . S
C1832 H1806 0.950 . S
C1832 C1828 1.385 . S
C1832 C1831 1.374 . S
C1833 C1830 1.499 . S
C1833 C1834 1.344 1_556 S
C1833 C1835 1.389 . S
C1834 H1807 0.952 . S
C1834 C1820 1.405 . S
C1834 C1833 1.344 1_554 S
C1835 C1819 1.405 . S
C1835 C1833 1.389 . S
C1835 C1836 1.524 . S
C1836 C1835 1.524 . S
C1836 C1837 1.397 . S
C1836 C1841 1.363 . S
C1837 H1808 0.950 . S
C1837 C1836 1.397 . S
C1837 C1838 1.334 . S
C1838 H1809 0.950 . S
C1838 C1837 1.334 . S
C1838 C1839 1.287 . S
C1839 C1838 1.287 . S
C1839 C1840 1.524 . S
C1839 H1842 0.999 . S
C1840 H1810 0.950 . S
C1840 C1839 1.524 . S
C1840 C1841 1.415 . S
C1841 H1811 0.950 . S
C1841 C1836 1.363 . S
C1841 C1840 1.415 . S
H1842 C1839 0.999 . S
H1843 C1824 0.913 . S
H1844 C1862 0.951 . S
H1845 C1864 0.951 . S
H1846 C1866 0.950 . S
H1847 C1867 0.950 . S
H1848 C1869 0.950 . S
H1849 C1872 0.950 . S
H1850 C1873 0.965 . S
H1851 C1875 0.950 . S
H1852 C1876 0.950 . S
H1853 C1877 0.951 . S
H1854 C1879 0.951 . S
H1855 C1881 0.950 . S
H1856 C1882 0.950 . S
H1857 C1884 0.950 . S
H1858 C1887 0.950 . S
H1859 C1888 0.965 . S
H1860 C1890 0.950 . S
H1861 C1891 0.950 . S
C1862 H1844 0.951 . S
C1862 C1863 1.366 . S
C1862 C1864 1.388 . S
C1863 C1862 1.366 . S
C1863 C1867 1.385 . S
C1864 H1845 0.951 . S
C1864 C1862 1.388 . S
C1864 C1865 1.366 . S
C1865 C1864 1.366 . S
C1865 C1866 1.414 . S
C1865 C1868 1.499 . S
C1866 H1846 0.950 . S
C1866 C1865 1.414 . S
C1866 C1867 1.374 . S
C1867 H1847 0.950 . S
C1867 C1863 1.385 . S
C1867 C1866 1.374 . S
C1868 C1865 1.499 . S
C1868 C1869 1.373 . S
C1868 C1870 1.389 . S
C1869 H1848 0.950 . S
C1869 C1868 1.373 . S
C1869 C1885 1.377 1_654 S
C1870 C1868 1.389 . S
C1870 C1871 1.524 . S
C1870 C1884 1.377 1_654 S
C1871 C1870 1.524 . S
C1871 C1872 1.397 1_655 S
C1871 C1876 1.363 1_554 S
C1872 H1849 0.950 . S
C1872 C1871 1.397 1_455 S
C1872 C1873 1.337 . S
C1873 H1850 0.965 . S
C1873 C1872 1.337 . S
C1873 C1874 1.271 1_455 S
C1874 C1873 1.271 1_655 S
C1874 C1875 1.524 1_554 S
C1874 H1893 0.913 . S
C1875 H1851 0.950 . S
C1875 C1874 1.524 1_556 S
C1875 C1876 1.415 . S
C1876 H1852 0.950 . S
C1876 C1871 1.363 1_556 S
C1876 C1875 1.415 . S
C1877 H1853 0.951 . S
C1877 C1878 1.366 . S
C1877 C1879 1.388 . S
C1878 C1877 1.366 . S
C1878 C1882 1.385 . S
C1879 H1854 0.951 . S
C1879 C1877 1.388 . S
C1879 C1880 1.366 . S
C1880 C1879 1.366 . S
C1880 C1881 1.414 . S
C1880 C1883 1.499 . S
C1881 H1855 0.950 . S
C1881 C1880 1.414 . S
C1881 C1882 1.374 . S
C1882 H1856 0.950 . S
C1882 C1878 1.385 . S
C1882 C1881 1.374 . S
C1883 C1880 1.499 . S
C1883 C1884 1.373 . S
C1883 C1885 1.389 . S
C1884 H1857 0.950 . S
C1884 C1870 1.377 1_456 S
C1884 C1883 1.373 . S
C1885 C1869 1.377 1_456 S
C1885 C1883 1.389 . S
C1885 C1886 1.524 . S
C1886 C1885 1.524 . S
C1886 C1887 1.397 1_455 S
C1886 C1891 1.363 1_556 S
C1887 H1858 0.950 . S
C1887 C1886 1.397 1_655 S
C1887 C1888 1.337 . S
C1888 H1859 0.965 . S
C1888 C1887 1.337 . S
C1888 C1889 1.271 1_655 S
C1889 C1888 1.271 1_455 S
C1889 C1890 1.524 1_556 S
C1889 H1892 0.999 . S
C1890 H1860 0.950 . S
C1890 C1889 1.524 1_554 S
C1890 C1891 1.415 . S
C1891 H1861 0.950 . S
C1891 C1886 1.363 1_554 S
C1891 C1890 1.415 . S
H1892 C1889 0.999 . S
H1893 C1874 0.913 . S
H1894 C1912 0.951 . S
H1895 C1914 0.951 1_455 S
H1896 C1916 0.950 . S
H1897 C1917 0.950 . S
H1898 C1919 0.950 . S
H1899 C1922 0.950 . S
H1900 C1923 0.950 . S
H1901 C1925 0.950 . S
H1902 C1926 0.950 1_455 S
H1903 C1927 0.951 . S
H1904 C1929 0.951 1_655 S
H1905 C1931 0.950 . S
H1906 C1932 0.950 . S
H1907 C1934 0.950 . S
H1908 C1937 0.950 . S
H1909 C1938 0.950 . S
H1910 C1940 0.950 . S
H1911 C1941 0.950 1_655 S
C1912 H1894 0.951 . S
C1912 C1913 1.366 . S
C1912 C1914 1.388 . S
C1913 C1912 1.366 . S
C1913 C1917 1.385 . S
C1914 H1895 0.951 1_655 S
C1914 C1912 1.388 . S
C1914 C1915 1.366 . S
C1915 C1914 1.366 . S
C1915 C1916 1.414 . S
C1915 C1918 1.499 . S
C1916 H1896 0.950 . S
C1916 C1915 1.414 . S
C1916 C1917 1.374 . S
C1917 H1897 0.950 . S
C1917 C1913 1.385 . S
C1917 C1916 1.374 . S
C1918 C1915 1.499 . S
C1918 C1919 1.404 1_655 S
C1918 C1920 1.389 1_545 S
C1919 H1898 0.950 . S
C1919 C1918 1.404 1_455 S
C1919 C1935 1.346 1_556 S
C1920 C1918 1.389 1_565 S
C1920 C1921 1.524 . S
C1920 C1934 1.346 1_556 S
C1921 C1920 1.524 . S
C1921 C1922 1.397 . S
C1921 C1926 1.363 . S
C1922 H1899 0.950 . S
C1922 C1921 1.397 . S
C1922 C1923 1.334 . S
C1923 H1900 0.950 . S
C1923 C1922 1.334 . S
C1923 C1924 1.287 . S
C1924 C1923 1.287 . S
C1924 C1925 1.524 . S
C1924 H1943 0.913 . S
C1925 H1901 0.950 . S
C1925 C1924 1.524 . S
C1925 C1926 1.415 . S
C1926 H1902 0.950 1_655 S
C1926 C1921 1.363 . S
C1926 C1925 1.415 . S
C1927 H1903 0.951 . S
C1927 C1928 1.366 . S
C1927 C1929 1.388 . S
C1928 C1927 1.366 . S
C1928 C1932 1.385 . S
C1929 H1904 0.951 1_455 S
C1929 C1927 1.388 . S
C1929 C1930 1.366 . S
C1930 C1929 1.366 . S
C1930 C1931 1.414 . S
C1930 C1933 1.499 . S
C1931 H1905 0.950 . S
C1931 C1930 1.414 . S
C1931 C1932 1.374 . S
C1932 H1906 0.950 . S
C1932 C1928 1.385 . S
C1932 C1931 1.374 . S
C1933 C1930 1.499 . S
C1933 C1934 1.404 1_455 S
C1933 C1935 1.389 1_565 S
C1934 H1907 0.950 . S
C1934 C1920 1.346 1_554 S
C1934 C1933 1.404 1_655 S
C1935 C1919 1.346 1_554 S
C1935 C1933 1.389 1_545 S
C1935 C1936 1.524 . S
C1936 C1935 1.524 . S
C1936 C1937 1.397 . S
C1936 C1941 1.363 . S
C1937 H1908 0.950 . S
C1937 C1936 1.397 . S
C1937 C1938 1.334 . S
C1938 H1909 0.950 . S
C1938 C1937 1.334 . S
C1938 C1939 1.287 . S
C1939 C1938 1.287 . S
C1939 C1940 1.524 . S
C1939 H1942 0.999 . S
C1940 H1910 0.950 . S
C1940 C1939 1.524 . S
C1940 C1941 1.415 . S
C1941 H1911 0.950 1_455 S
C1941 C1936 1.363 . S
C1941 C1940 1.415 . S
H1942 C1939 0.999 . S
H1943 C1924 0.913 . S
H1944 C1962 0.951 . S
H1945 C1964 0.951 1_455 S
H1946 C1966 0.950 . S
H1947 C1967 0.950 . S
H1948 C1969 0.950 . S
H1949 C1972 0.950 . S
H1950 C1973 0.950 . S
H1951 C1975 0.950 . S
H1952 C1976 0.950 . S
H1953 C1977 0.951 . S
H1954 C1979 0.951 1_655 S
H1955 C1981 0.950 . S
H1956 C1982 0.950 . S
H1957 C1984 0.950 . S
H1958 C1987 0.950 . S
H1959 C1988 0.950 . S
H1960 C1990 0.950 . S
H1961 C1991 0.950 . S
C1962 H1944 0.951 . S
C1962 C1963 1.366 . S
C1962 C1964 1.388 . S
C1963 C1962 1.366 . S
C1963 C1967 1.385 . S
C1964 H1945 0.951 1_655 S
C1964 C1962 1.388 . S
C1964 C1965 1.366 . S
C1965 C1964 1.366 . S
C1965 C1966 1.414 . S
C1965 C1968 1.499 . S
C1966 H1946 0.950 . S
C1966 C1965 1.414 . S
C1966 C1967 1.374 . S
C1967 H1947 0.950 . S
C1967 C1963 1.385 . S
C1967 C1966 1.374 . S
C1968 C1965 1.499 . S
C1968 C1969 1.373 1_545 S
C1968 C1970 1.389 1_655 S
C1969 H1948 0.950 . S
C1969 C1968 1.373 1_565 S
C1969 C1985 1.377 . S
C1970 C1968 1.389 1_455 S
C1970 C1971 1.524 . S
C1970 C1984 1.377 . S
C1971 C1970 1.524 . S
C1971 C1972 1.397 1_455 S
C1971 C1976 1.363 . S
C1972 H1949 0.950 . S
C1972 C1971 1.397 1_655 S
C1972 C1973 1.334 . S
C1973 H1950 0.950 . S
C1973 C1972 1.334 . S
C1973 C1974 1.287 1_655 S
C1974 C1973 1.287 1_455 S
C1974 C1975 1.524 . S
C1974 H1993 0.913 . S
C1975 H1951 0.950 . S
C1975 C1974 1.524 . S
C1975 C1976 1.415 . S
C1976 H1952 0.950 . S
C1976 C1971 1.363 . S
C1976 C1975 1.415 . S
C1977 H1953 0.951 . S
C1977 C1978 1.366 . S
C1977 C1979 1.388 . S
C1978 C1977 1.366 . S
C1978 C1982 1.385 . S
C1979 H1954 0.951 1_455 S
C1979 C1977 1.388 . S
C1979 C1980 1.366 . S
C1980 C1979 1.366 . S
C1980 C1981 1.414 . S
C1980 C1983 1.499 . S
C1981 H1955 0.950 . S
C1981 C1980 1.414 . S
C1981 C1982 1.374 . S
C1982 H1956 0.950 . S
C1982 C1978 1.385 . S
C1982 C1981 1.374 . S
C1983 C1980 1.499 . S
C1983 C1984 1.373 1_565 S
C1983 C1985 1.389 1_455 S
C1984 H1957 0.950 . S
C1984 C1970 1.377 . S
C1984 C1983 1.373 1_545 S
C1985 C1969 1.377 . S
C1985 C1983 1.389 1_655 S
C1985 C1986 1.524 . S
C1986 C1985 1.524 . S
C1986 C1987 1.397 1_655 S
C1986 C1991 1.363 . S
C1987 H1958 0.950 . S
C1987 C1986 1.397 1_455 S
C1987 C1988 1.334 . S
C1988 H1959 0.950 . S
C1988 C1987 1.334 . S
C1988 C1989 1.287 1_455 S
C1989 C1988 1.287 1_655 S
C1989 C1990 1.524 . S
C1989 H1992 0.999 . S
C1990 H1960 0.950 . S
C1990 C1989 1.524 . S
C1990 C1991 1.415 . S
C1991 H1961 0.950 . S
C1991 C1986 1.363 . S
C1991 C1990 1.415 . S
H1992 C1989 0.999 . S
H1993 C1974 0.913 . S
H1994 C2012 0.951 . S
H1995 C2014 0.951 . S
H1996 C2016 0.950 1_565 S
H1997 C2017 0.950 . S
H1998 C2019 0.950 . S
H1999 C2022 0.950 . S
H2000 C2023 0.950 . S
H2001 C2025 0.950 . S
H2002 C2026 0.950 . S
H2003 C2027 0.951 . S
H2004 C2029 0.951 . S
H2005 C2031 0.950 1_545 S
H2006 C2032 0.950 . S
H2007 C2034 0.950 . S
H2008 C2037 0.950 . S
H2009 C2038 0.950 . S
H2010 C2040 0.950 . S
H2011 C2041 0.950 . S
C2012 H1994 0.951 . S
C2012 C2013 1.366 . S
C2012 C2014 1.388 . S
C2013 C2012 1.366 . S
C2013 C2017 1.385 . S
C2014 H1995 0.951 . S
C2014 C2012 1.388 . S
C2014 C2015 1.366 . S
C2015 C2014 1.366 . S
C2015 C2016 1.414 . S
C2015 C2018 1.499 . S
C2016 H1996 0.950 1_545 S
C2016 C2015 1.414 . S
C2016 C2017 1.374 . S
C2017 H1997 0.950 . S
C2017 C2013 1.385 . S
C2017 C2016 1.374 . S
C2018 C2015 1.499 . S
C2018 C2019 1.373 1_545 S
C2018 C2020 1.389 . S
C2019 H1998 0.950 . S
C2019 C2018 1.373 1_565 S
C2019 C2035 1.377 . S
C2020 C2018 1.389 . S
C2020 C2021 1.524 . S
C2020 C2034 1.377 . S
C2021 C2020 1.524 . S
C2021 C2022 1.397 . S
C2021 C2026 1.363 . S
C2022 H1999 0.950 . S
C2022 C2021 1.397 . S
C2022 C2023 1.334 . S
C2023 H2000 0.950 . S
C2023 C2022 1.334 . S
C2023 C2024 1.287 . S
C2024 C2023 1.287 . S
C2024 C2025 1.524 . S
C2024 H2043 0.913 . S
C2025 H2001 0.950 . S
C2025 C2024 1.524 . S
C2025 C2026 1.415 . S
C2026 H2002 0.950 . S
C2026 C2021 1.363 . S
C2026 C2025 1.415 . S
C2027 H2003 0.951 . S
C2027 C2028 1.366 . S
C2027 C2029 1.388 . S
C2028 C2027 1.366 . S
C2028 C2032 1.385 . S
C2029 H2004 0.951 . S
C2029 C2027 1.388 . S
C2029 C2030 1.366 . S
C2030 C2029 1.366 . S
C2030 C2031 1.414 . S
C2030 C2033 1.499 . S
C2031 H2005 0.950 1_565 S
C2031 C2030 1.414 . S
C2031 C2032 1.374 . S
C2032 H2006 0.950 . S
C2032 C2028 1.385 . S
C2032 C2031 1.374 . S
C2033 C2030 1.499 . S
C2033 C2034 1.373 1_565 S
C2033 C2035 1.389 . S
C2034 H2007 0.950 . S
C2034 C2020 1.377 . S
C2034 C2033 1.373 1_545 S
C2035 C2019 1.377 . S
C2035 C2033 1.389 . S
C2035 C2036 1.524 . S
C2036 C2035 1.524 . S
C2036 C2037 1.397 . S
C2036 C2041 1.363 . S
C2037 H2008 0.950 . S
C2037 C2036 1.397 . S
C2037 C2038 1.334 . S
C2038 H2009 0.950 . S
C2038 C2037 1.334 . S
C2038 C2039 1.287 . S
C2039 C2038 1.287 . S
C2039 C2040 1.524 . S
C2039 H2042 0.999 . S
C2040 H2010 0.950 . S
C2040 C2039 1.524 . S
C2040 C2041 1.415 . S
C2041 H2011 0.950 . S
C2041 C2036 1.363 . S
C2041 C2040 1.415 . S
H2042 C2039 0.999 . S
H2043 C2024 0.913 . S
H2044 C2062 0.951 . S
H2045 C2064 0.951 . S
H2046 C2066 0.950 . S
H2047 C2067 0.950 . S
H2048 C2069 0.950 . S
H2049 C2072 0.950 . S
H2050 C2073 0.950 . S
H2051 C2075 0.950 . S
H2052 C2076 0.950 . S
H2053 C2077 0.951 . S
H2054 C2079 0.951 . S
H2055 C2081 0.950 . S
H2056 C2082 0.950 . S
H2057 C2084 0.950 . S
H2058 C2087 0.950 . S
H2059 C2088 0.950 . S
H2060 C2090 0.950 . S
H2061 C2091 0.950 . S
C2062 H2044 0.951 . S
C2062 C2063 1.366 . S
C2062 C2064 1.388 . S
C2063 C2062 1.366 . S
C2063 C2067 1.385 . S
C2064 H2045 0.951 . S
C2064 C2062 1.388 . S
C2064 C2065 1.366 . S
C2065 C2064 1.366 . S
C2065 C2066 1.414 . S
C2065 C2068 1.499 . S
C2066 H2046 0.950 . S
C2066 C2065 1.414 . S
C2066 C2067 1.374 . S
C2067 H2047 0.950 . S
C2067 C2063 1.385 . S
C2067 C2066 1.374 . S
C2068 C2065 1.499 . S
C2068 C2069 1.373 . S
C2068 C2070 1.389 . S
C2069 H2048 0.950 . S
C2069 C2068 1.373 . S
C2069 C2085 1.377 . S
C2070 C2068 1.389 . S
C2070 C2071 1.524 . S
C2070 C2084 1.377 . S
C2071 C2070 1.524 . S
C2071 C2072 1.397 . S
C2071 C2076 1.363 . S
C2072 H2049 0.950 . S
C2072 C2071 1.397 . S
C2072 C2073 1.334 . S
C2073 H2050 0.950 . S
C2073 C2072 1.334 . S
C2073 C2074 1.287 . S
C2074 C2073 1.287 . S
C2074 C2075 1.524 . S
C2074 H2093 0.913 . S
C2075 H2051 0.950 . S
C2075 C2074 1.524 . S
C2075 C2076 1.415 . S
C2076 H2052 0.950 . S
C2076 C2071 1.363 . S
C2076 C2075 1.415 . S
C2077 H2053 0.951 . S
C2077 C2078 1.366 . S
C2077 C2079 1.388 . S
C2078 C2077 1.366 . S
C2078 C2082 1.385 . S
C2079 H2054 0.951 . S
C2079 C2077 1.388 . S
C2079 C2080 1.366 . S
C2080 C2079 1.366 . S
C2080 C2081 1.414 . S
C2080 C2083 1.499 . S
C2081 H2055 0.950 . S
C2081 C2080 1.414 . S
C2081 C2082 1.374 . S
C2082 H2056 0.950 . S
C2082 C2078 1.385 . S
C2082 C2081 1.374 . S
C2083 C2080 1.499 . S
C2083 C2084 1.373 . S
C2083 C2085 1.389 . S
C2084 H2057 0.950 . S
C2084 C2070 1.377 . S
C2084 C2083 1.373 . S
C2085 C2069 1.377 . S
C2085 C2083 1.389 . S
C2085 C2086 1.524 . S
C2086 C2085 1.524 . S
C2086 C2087 1.397 . S
C2086 C2091 1.363 . S
C2087 H2058 0.950 . S
C2087 C2086 1.397 . S
C2087 C2088 1.334 . S
C2088 H2059 0.950 . S
C2088 C2087 1.334 . S
C2088 C2089 1.287 . S
C2089 C2088 1.287 . S
C2089 C2090 1.524 . S
C2089 H2092 0.999 . S
C2090 H2060 0.950 . S
C2090 C2089 1.524 . S
C2090 C2091 1.415 . S
C2091 H2061 0.950 . S
C2091 C2086 1.363 . S
C2091 C2090 1.415 . S
H2092 C2089 0.999 . S
H2093 C2074 0.913 . S
H2094 C2112 0.951 1_655 S
H2095 C2114 0.951 . S
H2096 C2116 0.950 . S
H2097 C2117 0.950 . S
H2098 C2119 0.950 . S
H2099 C2122 0.950 . S
H2100 C2123 0.950 . S
H2101 C2125 0.950 . S
H2102 C2126 0.950 . S
H2103 C2127 0.951 1_455 S
H2104 C2129 0.951 . S
H2105 C2131 0.950 . S
H2106 C2132 0.950 . S
H2107 C2134 0.950 . S
H2108 C2137 0.950 . S
H2109 C2138 0.950 . S
H2110 C2140 0.950 . S
H2111 C2141 0.950 . S
C2112 H2094 0.951 1_455 S
C2112 C2113 1.366 . S
C2112 C2114 1.388 1_455 S
C2113 C2112 1.366 . S
C2113 C2117 1.385 . S
C2114 H2095 0.951 . S
C2114 C2112 1.388 1_655 S
C2114 C2115 1.366 1_655 S
C2115 C2114 1.366 1_455 S
C2115 C2116 1.414 . S
C2115 C2118 1.499 . S
C2116 H2096 0.950 . S
C2116 C2115 1.414 . S
C2116 C2117 1.374 . S
C2117 H2097 0.950 . S
C2117 C2113 1.385 . S
C2117 C2116 1.374 . S
C2118 C2115 1.499 . S
C2118 C2119 1.373 . S
C2118 C2120 1.389 1_455 S
C2119 H2098 0.950 . S
C2119 C2118 1.373 . S
C2119 C2135 1.377 . S
C2120 C2118 1.389 1_655 S
C2120 C2121 1.524 . S
C2120 C2134 1.377 . S
C2121 C2120 1.524 . S
C2121 C2122 1.397 . S
C2121 C2126 1.363 . S
C2122 H2099 0.950 . S
C2122 C2121 1.397 . S
C2122 C2123 1.334 . S
C2123 H2100 0.950 . S
C2123 C2122 1.334 . S
C2123 C2124 1.287 . S
C2124 C2123 1.287 . S
C2124 C2125 1.524 . S
C2124 H2143 0.913 . S
C2125 H2101 0.950 . S
C2125 C2124 1.524 . S
C2125 C2126 1.415 . S
C2126 H2102 0.950 . S
C2126 C2121 1.363 . S
C2126 C2125 1.415 . S
C2127 H2103 0.951 1_655 S
C2127 C2128 1.366 . S
C2127 C2129 1.388 1_655 S
C2128 C2127 1.366 . S
C2128 C2132 1.385 . S
C2129 H2104 0.951 . S
C2129 C2127 1.388 1_455 S
C2129 C2130 1.366 1_455 S
C2130 C2129 1.366 1_655 S
C2130 C2131 1.414 . S
C2130 C2133 1.499 . S
C2131 H2105 0.950 . S
C2131 C2130 1.414 . S
C2131 C2132 1.374 . S
C2132 H2106 0.950 . S
C2132 C2128 1.385 . S
C2132 C2131 1.374 . S
C2133 C2130 1.499 . S
C2133 C2134 1.373 . S
C2133 C2135 1.389 1_655 S
C2134 H2107 0.950 . S
C2134 C2120 1.377 . S
C2134 C2133 1.373 . S
C2135 C2119 1.377 . S
C2135 C2133 1.389 1_455 S
C2135 C2136 1.524 . S
C2136 C2135 1.524 . S
C2136 C2137 1.397 . S
C2136 C2141 1.363 . S
C2137 H2108 0.950 . S
C2137 C2136 1.397 . S
C2137 C2138 1.334 . S
C2138 H2109 0.950 . S
C2138 C2137 1.334 . S
C2138 C2139 1.287 . S
C2139 C2138 1.287 . S
C2139 C2140 1.524 . S
C2139 H2142 0.999 . S
C2140 H2110 0.950 . S
C2140 C2139 1.524 . S
C2140 C2141 1.415 . S
C2141 H2111 0.950 . S
C2141 C2136 1.363 . S
C2141 C2140 1.415 . S
H2142 C2139 0.999 . S
H2143 C2124 0.913 . S
H2144 C2162 0.951 . S
H2145 C2164 0.951 . S
H2146 C2166 0.950 . S
H2147 C2167 0.950 . S
H2148 C2169 0.950 . S
H2149 C2172 0.950 . S
H2150 C2173 0.950 . S
H2151 C2175 0.950 . S
H2152 C2176 0.950 . S
H2153 C2177 0.951 . S
H2154 C2179 0.951 . S
H2155 C2181 0.950 . S
H2156 C2182 0.950 . S
H2157 C2184 0.950 . S
H2158 C2187 0.956 . S
H2159 C2188 0.950 . S
H2160 C2190 0.950 . S
H2161 C2191 0.963 . S
C2162 H2144 0.951 . S
C2162 C2163 1.366 . S
C2162 C2164 1.388 . S
C2163 C2162 1.366 . S
C2163 C2167 1.385 . S
C2164 H2145 0.951 . S
C2164 C2162 1.388 . S
C2164 C2165 1.366 . S
C2165 C2164 1.366 . S
C2165 C2166 1.414 . S
C2165 C2168 1.499 . S
C2166 H2146 0.950 . S
C2166 C2165 1.414 . S
C2166 C2167 1.374 . S
C2167 H2147 0.950 . S
C2167 C2163 1.385 . S
C2167 C2166 1.374 . S
C2168 C2165 1.499 . S
C2168 C2169 1.373 . S
C2168 C2170 1.389 . S
C2169 H2148 0.950 . S
C2169 C2168 1.373 . S
C2169 C2185 1.377 . S
C2170 C2168 1.389 . S
C2170 C2171 1.524 . S
C2170 C2184 1.377 . S
C2171 C2170 1.524 . S
C2171 C2172 1.397 . S
C2171 C2176 1.363 . S
C2172 H2149 0.950 . S
C2172 C2171 1.397 . S
C2172 C2173 1.334 . S
C2173 H2150 0.950 . S
C2173 C2172 1.334 . S
C2173 C2174 1.287 . S
C2174 C2173 1.287 . S
C2174 C2175 1.524 . S
C2174 H2193 0.913 . S
C2175 H2151 0.950 . S
C2175 C2174 1.524 . S
C2175 C2176 1.415 . S
C2176 H2152 0.950 . S
C2176 C2171 1.363 . S
C2176 C2175 1.415 . S
C2177 H2153 0.951 . S
C2177 C2178 1.366 . S
C2177 C2179 1.388 . S
C2178 C2177 1.366 . S
C2178 C2182 1.385 . S
C2179 H2154 0.951 . S
C2179 C2177 1.388 . S
C2179 C2180 1.366 . S
C2180 C2179 1.366 . S
C2180 C2181 1.414 . S
C2180 C2183 1.499 . S
C2181 H2155 0.950 . S
C2181 C2180 1.414 . S
C2181 C2182 1.374 . S
C2182 H2156 0.950 . S
C2182 C2178 1.385 . S
C2182 C2181 1.374 . S
C2183 C2180 1.499 . S
C2183 C2184 1.373 . S
C2183 C2185 1.389 . S
C2184 H2157 0.950 . S
C2184 C2170 1.377 . S
C2184 C2183 1.373 . S
C2185 C2169 1.377 . S
C2185 C2183 1.389 . S
C2185 C2186 1.524 . S
C2186 C2185 1.524 . S
C2186 C2187 1.403 . S
C2186 C2191 1.374 . S
C2187 H2158 0.956 . S
C2187 C2186 1.403 . S
C2187 C2188 1.322 1_545 S
C2188 H2159 0.950 . S
C2188 C2187 1.322 1_565 S
C2188 C2189 1.287 . S
C2189 C2188 1.287 . S
C2189 C2190 1.524 . S
C2189 H2192 0.999 . S
C2190 H2160 0.950 . S
C2190 C2189 1.524 . S
C2190 C2191 1.391 1_565 S
C2191 H2161 0.963 . S
C2191 C2186 1.374 . S
C2191 C2190 1.391 1_545 S
H2192 C2189 0.999 . S
H2193 C2174 0.913 . S
H2194 C2212 0.951 . S
H2195 C2214 0.951 . S
H2196 C2216 0.950 . S
H2197 C2217 0.950 . S
H2198 C2219 0.950 . S
H2199 C2222 0.950 . S
H2200 C2223 0.950 . S
H2201 C2225 0.950 . S
H2202 C2226 0.950 . S
H2203 C2227 0.951 . S
H2204 C2229 0.951 . S
H2205 C2231 0.950 . S
H2206 C2232 0.950 . S
H2207 C2234 0.950 . S
H2208 C2237 0.950 . S
H2209 C2238 0.950 . S
H2210 C2240 0.950 . S
H2211 C2241 0.950 . S
C2212 H2194 0.951 . S
C2212 C2213 1.366 . S
C2212 C2214 1.388 . S
C2213 C2212 1.366 . S
C2213 C2217 1.385 . S
C2214 H2195 0.951 . S
C2214 C2212 1.388 . S
C2214 C2215 1.366 . S
C2215 C2214 1.366 . S
C2215 C2216 1.414 . S
C2215 C2218 1.499 . S
C2216 H2196 0.950 . S
C2216 C2215 1.414 . S
C2216 C2217 1.374 . S
C2217 H2197 0.950 . S
C2217 C2213 1.385 . S
C2217 C2216 1.374 . S
C2218 C2215 1.499 . S
C2218 C2219 1.373 . S
C2218 C2220 1.389 . S
C2219 H2198 0.950 . S
C2219 C2218 1.373 . S
C2219 C2235 1.377 . S
C2220 C2218 1.389 . S
C2220 C2221 1.524 . S
C2220 C2234 1.377 . S
C2221 C2220 1.524 . S
C2221 C2222 1.397 . S
C2221 C2226 1.363 . S
C2222 H2199 0.950 . S
C2222 C2221 1.397 . S
C2222 C2223 1.334 . S
C2223 H2200 0.950 . S
C2223 C2222 1.334 . S
C2223 C2224 1.287 . S
C2224 C2223 1.287 . S
C2224 C2225 1.524 . S
C2224 H2243 0.913 . S
C2225 H2201 0.950 . S
C2225 C2224 1.524 . S
C2225 C2226 1.415 . S
C2226 H2202 0.950 . S
C2226 C2221 1.363 . S
C2226 C2225 1.415 . S
C2227 H2203 0.951 . S
C2227 C2228 1.366 . S
C2227 C2229 1.388 . S
C2228 C2227 1.366 . S
C2228 C2232 1.385 . S
C2229 H2204 0.951 . S
C2229 C2227 1.388 . S
C2229 C2230 1.366 . S
C2230 C2229 1.366 . S
C2230 C2231 1.414 . S
C2230 C2233 1.499 . S
C2231 H2205 0.950 . S
C2231 C2230 1.414 . S
C2231 C2232 1.374 . S
C2232 H2206 0.950 . S
C2232 C2228 1.385 . S
C2232 C2231 1.374 . S
C2233 C2230 1.499 . S
C2233 C2234 1.373 . S
C2233 C2235 1.389 . S
C2234 H2207 0.950 . S
C2234 C2220 1.377 . S
C2234 C2233 1.373 . S
C2235 C2219 1.377 . S
C2235 C2233 1.389 . S
C2235 C2236 1.524 . S
C2236 C2235 1.524 . S
C2236 C2237 1.397 . S
C2236 C2241 1.363 . S
C2237 H2208 0.950 . S
C2237 C2236 1.397 . S
C2237 C2238 1.334 . S
C2238 H2209 0.950 . S
C2238 C2237 1.334 . S
C2238 C2239 1.287 . S
C2239 C2238 1.287 . S
C2239 C2240 1.524 . S
C2239 H2242 0.999 . S
C2240 H2210 0.950 . S
C2240 C2239 1.524 . S
C2240 C2241 1.415 . S
C2241 H2211 0.950 . S
C2241 C2236 1.363 . S
C2241 C2240 1.415 . S
H2242 C2239 0.999 . S
H2243 C2224 0.913 . S
H2244 C2262 0.951 . S
H2245 C2264 0.951 . S
H2246 C2266 0.950 . S
H2247 C2267 0.950 . S
H2248 C2269 0.950 . S
H2249 C2272 0.950 . S
H2250 C2273 0.950 . S
H2251 C2275 0.950 . S
H2252 C2276 0.950 1_455 S
H2253 C2277 0.951 . S
H2254 C2279 0.951 . S
H2255 C2281 0.950 . S
H2256 C2282 0.950 . S
H2257 C2284 0.950 . S
H2258 C2287 0.950 . S
H2259 C2288 0.950 . S
H2260 C2290 0.950 . S
H2261 C2291 0.950 . S
C2262 H2244 0.951 . S
C2262 C2263 1.366 . S
C2262 C2264 1.388 . S
C2263 C2262 1.366 . S
C2263 C2267 1.385 . S
C2264 H2245 0.951 . S
C2264 C2262 1.388 . S
C2264 C2265 1.366 . S
C2265 C2264 1.366 . S
C2265 C2266 1.414 . S
C2265 C2268 1.499 . S
C2266 H2246 0.950 . S
C2266 C2265 1.414 . S
C2266 C2267 1.374 . S
C2267 H2247 0.950 . S
C2267 C2263 1.385 . S
C2267 C2266 1.374 . S
C2268 C2265 1.499 . S
C2268 C2269 1.373 . S
C2268 C2270 1.389 . S
C2269 H2248 0.950 . S
C2269 C2268 1.373 . S
C2269 C2285 1.377 . S
C2270 C2268 1.389 . S
C2270 C2271 1.524 . S
C2270 C2284 1.377 . S
C2271 C2270 1.524 . S
C2271 C2272 1.397 . S
C2271 C2276 1.363 . S
C2272 H2249 0.950 . S
C2272 C2271 1.397 . S
C2272 C2273 1.334 . S
C2273 H2250 0.950 . S
C2273 C2272 1.334 . S
C2273 C2274 1.287 1_655 S
C2274 C2273 1.287 1_455 S
C2274 C2275 1.524 . S
C2274 H2293 0.913 . S
C2275 H2251 0.950 . S
C2275 C2274 1.524 . S
C2275 C2276 1.415 1_455 S
C2276 H2252 0.950 1_655 S
C2276 C2271 1.363 . S
C2276 C2275 1.415 1_655 S
C2277 H2253 0.951 . S
C2277 C2278 1.366 . S
C2277 C2279 1.388 . S
C2278 C2277 1.366 . S
C2278 C2282 1.385 . S
C2279 H2254 0.951 . S
C2279 C2277 1.388 . S
C2279 C2280 1.366 . S
C2280 C2279 1.366 . S
C2280 C2281 1.414 . S
C2280 C2283 1.499 . S
C2281 H2255 0.950 . S
C2281 C2280 1.414 . S
C2281 C2282 1.374 . S
C2282 H2256 0.950 . S
C2282 C2278 1.385 . S
C2282 C2281 1.374 . S
C2283 C2280 1.499 . S
C2283 C2284 1.373 . S
C2283 C2285 1.389 . S
C2284 H2257 0.950 . S
C2284 C2270 1.377 . S
C2284 C2283 1.373 . S
C2285 C2269 1.377 . S
C2285 C2283 1.389 . S
C2285 C2286 1.524 . S
C2286 C2285 1.524 . S
C2286 C2287 1.397 . S
C2286 C2291 1.363 . S
C2287 H2258 0.950 . S
C2287 C2286 1.397 . S
C2287 C2288 1.334 . S
C2288 H2259 0.950 . S
C2288 C2287 1.334 . S
C2288 C2289 1.287 . S
C2289 C2288 1.287 . S
C2289 C2290 1.524 . S
C2289 H2292 0.999 . S
C2290 H2260 0.950 . S
C2290 C2289 1.524 . S
C2290 C2291 1.415 . S
C2291 H2261 0.950 . S
C2291 C2286 1.363 . S
C2291 C2290 1.415 . S
H2292 C2289 0.999 . S
H2293 C2274 0.913 . S
H2294 C2312 0.951 . S
H2295 C2314 0.951 . S
H2296 C2316 0.950 . S
H2297 C2317 0.950 . S
H2298 C2319 0.950 . S
H2299 C2322 0.950 . S
H2300 C2323 0.950 . S
H2301 C2325 0.950 . S
H2302 C2326 0.950 . S
H2303 C2327 0.951 . S
H2304 C2329 0.951 . S
H2305 C2331 0.950 . S
H2306 C2332 0.950 . S
H2307 C2334 0.950 . S
H2308 C2337 0.950 . S
H2309 C2338 0.950 . S
H2310 C2340 0.950 . S
H2311 C2341 0.951 . S
C2312 H2294 0.951 . S
C2312 C2313 1.366 . S
C2312 C2314 1.388 . S
C2313 C2312 1.366 . S
C2313 C2317 1.385 . S
C2314 H2295 0.951 . S
C2314 C2312 1.388 . S
C2314 C2315 1.366 . S
C2315 C2314 1.366 . S
C2315 C2316 1.414 . S
C2315 C2318 1.499 . S
C2316 H2296 0.950 . S
C2316 C2315 1.414 . S
C2316 C2317 1.374 . S
C2317 H2297 0.950 . S
C2317 C2313 1.385 . S
C2317 C2316 1.374 . S
C2318 C2315 1.499 . S
C2318 C2319 1.373 . S
C2318 C2320 1.389 . S
C2319 H2298 0.950 . S
C2319 C2318 1.373 . S
C2319 C2335 1.377 . S
C2320 C2318 1.389 . S
C2320 C2321 1.524 . S
C2320 C2334 1.377 . S
C2321 C2320 1.524 . S
C2321 C2322 1.397 . S
C2321 C2326 1.363 . S
C2322 H2299 0.950 . S
C2322 C2321 1.397 . S
C2322 C2323 1.334 1_565 S
C2323 H2300 0.950 . S
C2323 C2322 1.334 1_545 S
C2323 C2324 1.287 . S
C2324 C2323 1.287 . S
C2324 C2325 1.524 1_545 S
C2324 H2343 0.913 . S
C2325 H2301 0.950 . S
C2325 C2324 1.524 1_565 S
C2325 C2326 1.415 . S
C2326 H2302 0.950 . S
C2326 C2321 1.363 . S
C2326 C2325 1.415 . S
C2327 H2303 0.951 . S
C2327 C2328 1.366 . S
C2327 C2329 1.388 . S
C2328 C2327 1.366 . S
C2328 C2332 1.385 . S
C2329 H2304 0.951 . S
C2329 C2327 1.388 . S
C2329 C2330 1.366 . S
C2330 C2329 1.366 . S
C2330 C2331 1.414 . S
C2330 C2333 1.499 . S
C2331 H2305 0.950 . S
C2331 C2330 1.414 . S
C2331 C2332 1.374 . S
C2332 H2306 0.950 . S
C2332 C2328 1.385 . S
C2332 C2331 1.374 . S
C2333 C2330 1.499 . S
C2333 C2334 1.373 . S
C2333 C2335 1.389 . S
C2334 H2307 0.950 . S
C2334 C2320 1.377 . S
C2334 C2333 1.373 . S
C2335 C2319 1.377 . S
C2335 C2333 1.389 . S
C2335 C2336 1.524 . S
C2336 C2335 1.524 . S
C2336 C2337 1.397 . S
C2336 C2341 1.360 1_455 S
C2337 H2308 0.950 . S
C2337 C2336 1.397 . S
C2337 C2338 1.334 . S
C2338 H2309 0.950 . S
C2338 C2337 1.334 . S
C2338 C2339 1.287 1_455 S
C2339 C2338 1.287 1_655 S
C2339 C2340 1.524 . S
C2339 H2342 0.999 . S
C2340 H2310 0.950 . S
C2340 C2339 1.524 . S
C2340 C2341 1.417 . S
C2341 H2311 0.951 . S
C2341 C2336 1.360 1_655 S
C2341 C2340 1.417 . S
H2342 C2339 0.999 . S
H2343 C2324 0.913 . S
H2344 C2362 0.951 . S
H2345 C2364 0.951 . S
H2346 C2366 0.950 . S
H2347 C2367 0.950 . S
H2348 C2369 0.950 . S
H2349 C2372 0.950 . S
H2350 C2373 0.950 . S
H2351 C2375 0.950 . S
H2352 C2376 0.950 . S
H2353 C2377 0.951 . S
H2354 C2379 0.951 . S
H2355 C2381 0.950 . S
H2356 C2382 0.950 . S
H2357 C2384 0.950 . S
H2358 C2387 0.950 . S
H2359 C2388 0.950 . S
H2360 C2390 0.950 . S
H2361 C2391 0.950 . S
C2362 H2344 0.951 . S
C2362 C2363 1.366 . S
C2362 C2364 1.388 . S
C2363 C2362 1.366 . S
C2363 C2367 1.385 . S
C2364 H2345 0.951 . S
C2364 C2362 1.388 . S
C2364 C2365 1.366 . S
C2365 C2364 1.366 . S
C2365 C2366 1.414 . S
C2365 C2368 1.499 . S
C2366 H2346 0.950 . S
C2366 C2365 1.414 . S
C2366 C2367 1.374 . S
C2367 H2347 0.950 . S
C2367 C2363 1.385 . S
C2367 C2366 1.374 . S
C2368 C2365 1.499 . S
C2368 C2369 1.373 . S
C2368 C2370 1.389 . S
C2369 H2348 0.950 . S
C2369 C2368 1.373 . S
C2369 C2385 1.377 . S
C2370 C2368 1.389 . S
C2370 C2371 1.524 . S
C2370 C2384 1.377 . S
C2371 C2370 1.524 . S
C2371 C2372 1.397 . S
C2371 C2376 1.363 . S
C2372 H2349 0.950 . S
C2372 C2371 1.397 . S
C2372 C2373 1.334 . S
C2373 H2350 0.950 . S
C2373 C2372 1.334 . S
C2373 C2374 1.287 . S
C2374 C2373 1.287 . S
C2374 C2375 1.524 . S
C2374 H2393 0.913 . S
C2375 H2351 0.950 . S
C2375 C2374 1.524 . S
C2375 C2376 1.415 . S
C2376 H2352 0.950 . S
C2376 C2371 1.363 . S
C2376 C2375 1.415 . S
C2377 H2353 0.951 . S
C2377 C2378 1.366 . S
C2377 C2379 1.388 . S
C2378 C2377 1.366 . S
C2378 C2382 1.385 . S
C2379 H2354 0.951 . S
C2379 C2377 1.388 . S
C2379 C2380 1.366 . S
C2380 C2379 1.366 . S
C2380 C2381 1.414 . S
C2380 C2383 1.499 . S
C2381 H2355 0.950 . S
C2381 C2380 1.414 . S
C2381 C2382 1.374 . S
C2382 H2356 0.950 . S
C2382 C2378 1.385 . S
C2382 C2381 1.374 . S
C2383 C2380 1.499 . S
C2383 C2384 1.373 . S
C2383 C2385 1.389 . S
C2384 H2357 0.950 . S
C2384 C2370 1.377 . S
C2384 C2383 1.373 . S
C2385 C2369 1.377 . S
C2385 C2383 1.389 . S
C2385 C2386 1.524 . S
C2386 C2385 1.524 . S
C2386 C2387 1.397 . S
C2386 C2391 1.363 . S
C2387 H2358 0.950 . S
C2387 C2386 1.397 . S
C2387 C2388 1.334 . S
C2388 H2359 0.950 . S
C2388 C2387 1.334 . S
C2388 C2389 1.287 . S
C2389 C2388 1.287 . S
C2389 C2390 1.524 . S
C2389 H2392 0.999 . S
C2390 H2360 0.950 . S
C2390 C2389 1.524 . S
C2390 C2391 1.415 . S
C2391 H2361 0.950 . S
C2391 C2386 1.363 . S
C2391 C2390 1.415 . S
H2392 C2389 0.999 . S
H2393 C2374 0.913 . S
H2394 C2412 0.951 . S
H2395 C2414 0.951 . S
H2396 C2416 0.950 . S
H2397 C2417 0.950 . S
H2398 C2419 0.950 . S
H2399 C2422 0.950 . S
H2400 C2423 0.950 . S
H2401 C2425 0.950 . S
H2402 C2426 0.950 . S
H2403 C2427 0.951 . S
H2404 C2429 0.951 . S
H2405 C2431 0.950 . S
H2406 C2432 0.950 . S
H2407 C2434 0.950 . S
H2408 C2437 0.950 . S
H2409 C2438 0.950 . S
H2410 C2440 0.950 . S
H2411 C2441 0.950 . S
C2412 H2394 0.951 . S
C2412 C2413 1.366 . S
C2412 C2414 1.388 . S
C2413 C2412 1.366 . S
C2413 C2417 1.385 . S
C2414 H2395 0.951 . S
C2414 C2412 1.388 . S
C2414 C2415 1.366 . S
C2415 C2414 1.366 . S
C2415 C2416 1.414 . S
C2415 C2418 1.499 . S
C2416 H2396 0.950 . S
C2416 C2415 1.414 . S
C2416 C2417 1.374 . S
C2417 H2397 0.950 . S
C2417 C2413 1.385 . S
C2417 C2416 1.374 . S
C2418 C2415 1.499 . S
C2418 C2419 1.373 . S
C2418 C2420 1.389 . S
C2419 H2398 0.950 . S
C2419 C2418 1.373 . S
C2419 C2435 1.377 . S
C2420 C2418 1.389 . S
C2420 C2421 1.524 . S
C2420 C2434 1.377 . S
C2421 C2420 1.524 . S
C2421 C2422 1.397 . S
C2421 C2426 1.363 . S
C2422 H2399 0.950 . S
C2422 C2421 1.397 . S
C2422 C2423 1.334 . S
C2423 H2400 0.950 . S
C2423 C2422 1.334 . S
C2423 C2424 1.287 . S
C2424 C2423 1.287 . S
C2424 C2425 1.524 . S
C2424 H2443 0.913 . S
C2425 H2401 0.950 . S
C2425 C2424 1.524 . S
C2425 C2426 1.415 . S
C2426 H2402 0.950 . S
C2426 C2421 1.363 . S
C2426 C2425 1.415 . S
C2427 H2403 0.951 . S
C2427 C2428 1.366 . S
C2427 C2429 1.388 . S
C2428 C2427 1.366 . S
C2428 C2432 1.385 . S
C2429 H2404 0.951 . S
C2429 C2427 1.388 . S
C2429 C2430 1.366 . S
C2430 C2429 1.366 . S
C2430 C2431 1.414 . S
C2430 C2433 1.499 . S
C2431 H2405 0.950 . S
C2431 C2430 1.414 . S
C2431 C2432 1.374 . S
C2432 H2406 0.950 . S
C2432 C2428 1.385 . S
C2432 C2431 1.374 . S
C2433 C2430 1.499 . S
C2433 C2434 1.373 . S
C2433 C2435 1.389 . S
C2434 H2407 0.950 . S
C2434 C2420 1.377 . S
C2434 C2433 1.373 . S
C2435 C2419 1.377 . S
C2435 C2433 1.389 . S
C2435 C2436 1.524 . S
C2436 C2435 1.524 . S
C2436 C2437 1.397 . S
C2436 C2441 1.363 . S
C2437 H2408 0.950 . S
C2437 C2436 1.397 . S
C2437 C2438 1.334 . S
C2438 H2409 0.950 . S
C2438 C2437 1.334 . S
C2438 C2439 1.287 . S
C2439 C2438 1.287 . S
C2439 C2440 1.524 . S
C2439 H2442 0.999 . S
C2440 H2410 0.950 . S
C2440 C2439 1.524 . S
C2440 C2441 1.415 . S
C2441 H2411 0.950 . S
C2441 C2436 1.363 . S
C2441 C2440 1.415 . S
H2442 C2439 0.999 . S
H2443 C2424 0.913 . S
H2444 C2462 0.951 . S
H2445 C2464 0.951 . S
H2446 C2466 0.950 . S
H2447 C2467 0.950 . S
H2448 C2469 0.950 . S
H2449 C2472 0.950 . S
H2450 C2473 0.952 . S
H2451 C2475 0.950 . S
H2452 C2476 0.950 . S
H2453 C2477 0.951 . S
H2454 C2479 0.951 . S
H2455 C2481 0.950 . S
H2456 C2482 0.950 . S
H2457 C2484 0.950 . S
H2458 C2487 0.950 . S
H2459 C2488 0.950 . S
H2460 C2490 0.950 . S
H2461 C2491 0.950 . S
C2462 H2444 0.951 . S
C2462 C2463 1.366 . S
C2462 C2464 1.388 . S
C2463 C2462 1.366 . S
C2463 C2467 1.385 . S
C2464 H2445 0.951 . S
C2464 C2462 1.388 . S
C2464 C2465 1.366 . S
C2465 C2464 1.366 . S
C2465 C2466 1.414 . S
C2465 C2468 1.499 . S
C2466 H2446 0.950 . S
C2466 C2465 1.414 . S
C2466 C2467 1.374 . S
C2467 H2447 0.950 . S
C2467 C2463 1.385 . S
C2467 C2466 1.374 . S
C2468 C2465 1.499 . S
C2468 C2469 1.373 . S
C2468 C2470 1.389 . S
C2469 H2448 0.950 . S
C2469 C2468 1.373 . S
C2469 C2485 1.377 . S
C2470 C2468 1.389 . S
C2470 C2471 1.524 . S
C2470 C2484 1.377 . S
C2471 C2470 1.524 . S
C2471 C2472 1.397 . S
C2471 C2476 1.363 . S
C2472 H2449 0.950 . S
C2472 C2471 1.397 . S
C2472 C2473 1.333 1_455 S
C2473 H2450 0.952 . S
C2473 C2472 1.333 1_655 S
C2473 C2474 1.286 1_655 S
C2474 C2473 1.286 1_455 S
C2474 C2475 1.524 . S
C2474 H2493 0.913 1_455 S
C2475 H2451 0.950 . S
C2475 C2474 1.524 . S
C2475 C2476 1.415 . S
C2476 H2452 0.950 . S
C2476 C2471 1.363 . S
C2476 C2475 1.415 . S
C2477 H2453 0.951 . S
C2477 C2478 1.366 . S
C2477 C2479 1.388 . S
C2478 C2477 1.366 . S
C2478 C2482 1.385 . S
C2479 H2454 0.951 . S
C2479 C2477 1.388 . S
C2479 C2480 1.366 . S
C2480 C2479 1.366 . S
C2480 C2481 1.414 . S
C2480 C2483 1.499 . S
C2481 H2455 0.950 . S
C2481 C2480 1.414 . S
C2481 C2482 1.374 . S
C2482 H2456 0.950 . S
C2482 C2478 1.385 . S
C2482 C2481 1.374 . S
C2483 C2480 1.499 . S
C2483 C2484 1.373 . S
C2483 C2485 1.389 . S
C2484 H2457 0.950 . S
C2484 C2470 1.377 . S
C2484 C2483 1.373 . S
C2485 C2469 1.377 . S
C2485 C2483 1.389 . S
C2485 C2486 1.524 . S
C2486 C2485 1.524 . S
C2486 C2487 1.397 . S
C2486 C2491 1.363 . S
C2487 H2458 0.950 . S
C2487 C2486 1.397 . S
C2487 C2488 1.334 . S
C2488 H2459 0.950 . S
C2488 C2487 1.334 . S
C2488 C2489 1.287 . S
C2489 C2488 1.287 . S
C2489 C2490 1.524 . S
C2489 H2492 0.999 . S
C2490 H2460 0.950 . S
C2490 C2489 1.524 . S
C2490 C2491 1.415 . S
C2491 H2461 0.950 . S
C2491 C2486 1.363 . S
C2491 C2490 1.415 . S
H2492 C2489 0.999 . S
H2493 C2474 0.913 1_655 S
H2494 C2512 0.951 . S
H2495 C2514 0.951 . S
H2496 C2516 0.950 . S
H2497 C2517 0.950 . S
H2498 C2519 0.950 . S
H2499 C2522 0.950 . S
H2500 C2523 0.950 . S
H2501 C2525 0.950 . S
H2502 C2526 0.950 . S
H2503 C2527 0.951 . S
H2504 C2529 0.951 . S
H2505 C2531 0.950 . S
H2506 C2532 0.950 . S
H2507 C2534 0.950 . S
H2508 C2537 0.950 . S
H2509 C2538 0.950 1_455 S
H2510 C2540 0.950 . S
H2511 C2541 0.946 1_565 S
C2512 H2494 0.951 . S
C2512 C2513 1.366 . S
C2512 C2514 1.388 . S
C2513 C2512 1.366 . S
C2513 C2517 1.385 . S
C2514 H2495 0.951 . S
C2514 C2512 1.388 . S
C2514 C2515 1.366 . S
C2515 C2514 1.366 . S
C2515 C2516 1.414 . S
C2515 C2518 1.499 . S
C2516 H2496 0.950 . S
C2516 C2515 1.414 . S
C2516 C2517 1.374 . S
C2517 H2497 0.950 . S
C2517 C2513 1.385 . S
C2517 C2516 1.374 . S
C2518 C2515 1.499 . S
C2518 C2519 1.373 . S
C2518 C2520 1.389 . S
C2519 H2498 0.950 . S
C2519 C2518 1.373 . S
C2519 C2535 1.377 . S
C2520 C2518 1.389 . S
C2520 C2521 1.524 . S
C2520 C2534 1.377 . S
C2521 C2520 1.524 . S
C2521 C2522 1.397 . S
C2521 C2526 1.363 . S
C2522 H2499 0.950 . S
C2522 C2521 1.397 . S
C2522 C2523 1.334 . S
C2523 H2500 0.950 . S
C2523 C2522 1.334 . S
C2523 C2524 1.287 . S
C2524 C2523 1.287 . S
C2524 C2525 1.524 . S
C2524 H2543 0.913 . S
C2525 H2501 0.950 . S
C2525 C2524 1.524 . S
C2525 C2526 1.415 . S
C2526 H2502 0.950 . S
C2526 C2521 1.363 . S
C2526 C2525 1.415 . S
C2527 H2503 0.951 . S
C2527 C2528 1.366 . S
C2527 C2529 1.388 . S
C2528 C2527 1.366 . S
C2528 C2532 1.385 . S
C2529 H2504 0.951 . S
C2529 C2527 1.388 . S
C2529 C2530 1.366 . S
C2530 C2529 1.366 . S
C2530 C2531 1.414 . S
C2530 C2533 1.499 . S
C2531 H2505 0.950 . S
C2531 C2530 1.414 . S
C2531 C2532 1.374 . S
C2532 H2506 0.950 . S
C2532 C2528 1.385 . S
C2532 C2531 1.374 . S
C2533 C2530 1.499 . S
C2533 C2534 1.373 . S
C2533 C2535 1.389 . S
C2534 H2507 0.950 . S
C2534 C2520 1.377 . S
C2534 C2533 1.373 . S
C2535 C2519 1.377 . S
C2535 C2533 1.389 . S
C2535 C2536 1.524 . S
C2536 C2535 1.524 . S
C2536 C2537 1.397 . S
C2536 C2541 1.363 . S
C2537 H2508 0.950 . S
C2537 C2536 1.397 . S
C2537 C2538 1.334 . S
C2538 H2509 0.950 1_655 S
C2538 C2537 1.334 . S
C2538 C2539 1.287 1_645 S
C2539 C2538 1.287 1_465 S
C2539 C2540 1.524 1_455 S
C2539 H2542 0.999 . S
C2540 H2510 0.950 . S
C2540 C2539 1.524 1_655 S
C2540 C2541 1.415 1_565 S
C2541 H2511 0.946 1_545 S
C2541 C2536 1.363 . S
C2541 C2540 1.415 1_545 S
H2542 C2539 0.999 . S
H2543 C2524 0.913 . S
C563 C9 0.675 . S
C578 C67 0.611 . S
C613 C101 0.611 . S
C628 C43 0.673 . S
C663 C135 0.611 . S
C678 C77 0.671 . S
C713 C111 0.675 . S
C728 C33 0.611 . S
C763 C271 0.611 . S
C778 C145 0.674 . S
C813 C169 0.611 . S
C828 C179 0.672 . S
C863 C203 0.611 . S
C878 C213 0.671 . S
C913 C247 0.674 . S
C928 C237 0.611 . S
C963 C281 0.672 . S
C978 C339 0.611 . S
C1013 C315 0.671 . S
C1028 C373 0.611 . S
C1063 C407 0.611 . S
C1078 C349 0.675 . S
C1113 C305 0.611 . S
C1128 C383 0.674 . S
C1163 C543 0.611 . S
C1178 C417 0.671 . S
C1213 C441 0.611 . S
C1228 C451 0.674 . S
C1263 C485 0.674 . S
C1278 C475 0.611 . S
C1313 C519 0.671 . S
C1328 C509 0.611 . S
C1363 C5 2.230 . S
C1378 C73 2.229 . S
C1413 C39 2.229 . S
C1428 C107 2.230 . S
C1463 C209 2.230 . S
C1478 C141 2.230 . S
C1513 C243 2.229 . S
C1528 C175 2.230 . S
C1563 C345 2.230 . S
C1578 C277 2.229 . S
C1613 C311 2.230 . S
C1628 C379 2.229 . S
C1663 C413 2.230 . S
C1678 C481 2.230 . S
C1713 C447 2.230 . S
C1728 C515 2.230 . S
C1763 C20 1.794 . S
C1778 C292 1.794 . S
C1813 C54 1.794 . S
C1828 C326 1.794 . S
C1863 C88 1.794 . S
C1878 C360 1.794 . S
C1913 C394 1.794 . S
C1928 C122 1.794 . S
C1963 C428 1.794 . S
C1978 C156 1.794 . S
C2013 C190 1.794 . S
C2028 C462 1.794 . S
C2063 C224 1.794 . S
C2078 C496 1.794 . S
C2113 C530 1.794 . S
C2128 C258 1.794 . S
C2163 C172 1.637 . S
C2178 C2 1.637 . S
C2213 C206 1.637 . S
C2228 C36 1.637 . S
C2263 C70 1.638 . S
C2278 C240 1.638 . S
C2313 C138 1.637 . S
C2328 C104 1.637 . S
C2363 C274 1.637 . S
C2378 C444 1.637 . S
C2413 C478 1.637 . S
C2428 C308 1.638 . S
C2463 C512 1.637 . S
C2478 C342 1.637 . S
C2513 C376 1.638 . S
C2528 C410 1.637 . S
