# Generated by pormake.
# Topology usf, (4)-cn, num edge types: 1
# Building blocks:
#     Node 0, Type 0, BuildingBlock: NAWXER_clean_sbu_0, # of connection points: 4
#     Node 1, Type 0, BuildingBlock: NAWXER_clean_sbu_0, # of connection points: 4
#     Node 2, Type 0, BuildingBlock: NAWXER_clean_sbu_0, # of connection points: 4
#     Node 3, Type 0, BuildingBlock: NAWXER_clean_sbu_0, # of connection points: 4
#     Node 4, Type 0, BuildingBlock: NAWXER_clean_sbu_0, # of connection points: 4
#     Node 5, Type 0, BuildingBlock: NAWXER_clean_sbu_0, # of connection points: 4
#     Node 6, Type 0, BuildingBlock: NAWXER_clean_sbu_0, # of connection points: 4
#     Node 7, Type 0, BuildingBlock: NAWXER_clean_sbu_0, # of connection points: 4
#     Node 8, Type 0, BuildingBlock: NAWXER_clean_sbu_0, # of connection points: 4
#     Node 9, Type 0, BuildingBlock: NAWXER_clean_sbu_0, # of connection points: 4
#     Node 10, Type 0, BuildingBlock: NAWXER_clean_sbu_0, # of connection points: 4
#     Node 11, Type 0, BuildingBlock: NAWXER_clean_sbu_0, # of connection points: 4
#     Node 12, Type 0, BuildingBlock: NAWXER_clean_sbu_0, # of connection points: 4
#     Node 13, Type 0, BuildingBlock: NAWXER_clean_sbu_0, # of connection points: 4
#     Node 14, Type 0, BuildingBlock: NAWXER_clean_sbu_0, # of connection points: 4
#     Node 15, Type 0, BuildingBlock: NAWXER_clean_sbu_0, # of connection points: 4
#     Node 16, Type 0, BuildingBlock: NAWXER_clean_sbu_0, # of connection points: 4
#     Node 17, Type 0, BuildingBlock: NAWXER_clean_sbu_0, # of connection points: 4
#     Edge 18, Type (0, 0), BuildingBlock: XIVTED_clean_linker_0, # of connection points: 2
#     Edge 19, Type (0, 0), BuildingBlock: XIVTED_clean_linker_0, # of connection points: 2
#     Edge 20, Type (0, 0), BuildingBlock: XIVTED_clean_linker_0, # of connection points: 2
#     Edge 21, Type (0, 0), BuildingBlock: XIVTED_clean_linker_0, # of connection points: 2
#     Edge 22, Type (0, 0), BuildingBlock: XIVTED_clean_linker_0, # of connection points: 2
#     Edge 23, Type (0, 0), BuildingBlock: XIVTED_clean_linker_0, # of connection points: 2
#     Edge 24, Type (0, 0), BuildingBlock: XIVTED_clean_linker_0, # of connection points: 2
#     Edge 25, Type (0, 0), BuildingBlock: XIVTED_clean_linker_0, # of connection points: 2
#     Edge 26, Type (0, 0), BuildingBlock: XIVTED_clean_linker_0, # of connection points: 2
#     Edge 27, Type (0, 0), BuildingBlock: XIVTED_clean_linker_0, # of connection points: 2
#     Edge 28, Type (0, 0), BuildingBlock: XIVTED_clean_linker_0, # of connection points: 2
#     Edge 29, Type (0, 0), BuildingBlock: XIVTED_clean_linker_0, # of connection points: 2
#     Edge 30, Type (0, 0), BuildingBlock: XIVTED_clean_linker_0, # of connection points: 2
#     Edge 31, Type (0, 0), BuildingBlock: XIVTED_clean_linker_0, # of connection points: 2
#     Edge 32, Type (0, 0), BuildingBlock: XIVTED_clean_linker_0, # of connection points: 2
#     Edge 33, Type (0, 0), BuildingBlock: XIVTED_clean_linker_0, # of connection points: 2
#     Edge 34, Type (0, 0), BuildingBlock: XIVTED_clean_linker_0, # of connection points: 2
#     Edge 35, Type (0, 0), BuildingBlock: XIVTED_clean_linker_0, # of connection points: 2
#     Edge 36, Type (0, 0), BuildingBlock: XIVTED_clean_linker_0, # of connection points: 2
#     Edge 37, Type (0, 0), BuildingBlock: XIVTED_clean_linker_0, # of connection points: 2
#     Edge 38, Type (0, 0), BuildingBlock: XIVTED_clean_linker_0, # of connection points: 2
#     Edge 39, Type (0, 0), BuildingBlock: XIVTED_clean_linker_0, # of connection points: 2
#     Edge 40, Type (0, 0), BuildingBlock: XIVTED_clean_linker_0, # of connection points: 2
#     Edge 41, Type (0, 0), BuildingBlock: XIVTED_clean_linker_0, # of connection points: 2
#     Edge 42, Type (0, 0), BuildingBlock: XIVTED_clean_linker_0, # of connection points: 2
#     Edge 43, Type (0, 0), BuildingBlock: XIVTED_clean_linker_0, # of connection points: 2
#     Edge 44, Type (0, 0), BuildingBlock: XIVTED_clean_linker_0, # of connection points: 2
#     Edge 45, Type (0, 0), BuildingBlock: XIVTED_clean_linker_0, # of connection points: 2
#     Edge 46, Type (0, 0), BuildingBlock: XIVTED_clean_linker_0, # of connection points: 2
#     Edge 47, Type (0, 0), BuildingBlock: XIVTED_clean_linker_0, # of connection points: 2
#     Edge 48, Type (0, 0), BuildingBlock: XIVTED_clean_linker_0, # of connection points: 2
#     Edge 49, Type (0, 0), BuildingBlock: XIVTED_clean_linker_0, # of connection points: 2
#     Edge 50, Type (0, 0), BuildingBlock: XIVTED_clean_linker_0, # of connection points: 2
#     Edge 51, Type (0, 0), BuildingBlock: XIVTED_clean_linker_0, # of connection points: 2
#     Edge 52, Type (0, 0), BuildingBlock: XIVTED_clean_linker_0, # of connection points: 2
#     Edge 53, Type (0, 0), BuildingBlock: XIVTED_clean_linker_0, # of connection points: 2
# Relax obj value: 0.054
# Max RMSD: 0.096
# Mean RMSD: 0.096
data_MOF--net-usf--node1-NAWXER_clean_sbu_0--edge1-XIVTED_clean_linker_0
_symmetry_space_group_name_H-M    P1
_symmetry_Int_Tables_number       1
_symmetry_cell_setting            triclinic
loop_
_symmetry_equiv_pos_as_xyz
'x, y, z'
_cell_length_a     48.315947
_cell_length_b     48.517112
_cell_length_c     28.893138
_cell_angle_alpha  89.873704
_cell_angle_beta   90.318152
_cell_angle_gamma 120.12633
loop_
_atom_site_label
_atom_site_type_symbol
_atom_site_fract_x
_atom_site_fract_y
_atom_site_fract_z
_atom_type_partial_charge
C0 C 0.02743 0.5663 0.91023 0.0
C1 C 0.03132 0.54044 0.07137 0.0
O2 O 0.0486 0.58295 0.94022 0.0
Zn3 Zn 0.03031 0.55317 0.99023 0.0
O4 O 1.00408 0.53874 0.92119 0.0
Zn5 Zn 0.98771 0.50831 0.98128 0.0
O6 O 0.94579 0.50433 0.99238 0.0
O7 O 0.98656 0.55295 0.00256 0.0
O8 O 1.00757 0.51764 0.04996 0.0
O9 O 0.05076 0.56549 0.0496 0.0
O10 O 0.03821 0.51561 0.96828 0.0
O11 O 0.99136 0.47177 0.96141 0.0
C12 C 0.95631 0.53345 0.00269 0.0
C13 C 0.02169 0.48593 0.95816 0.0
C14 C 0.55889 0.54336 0.06888 0.0
C15 C 0.5339 0.511 0.9075 0.0
O16 O 0.53327 0.54237 0.05434 0.0
Zn17 Zn 0.5054 0.5316 0.99183 0.0
O18 O 0.57587 0.53786 0.04101 0.0
Zn19 Zn 0.54851 0.52913 0.98745 0.0
O20 O 0.55467 0.57452 0.97089 0.0
O21 O 0.50807 0.57215 0.97634 0.0
O22 O 0.55881 0.51625 0.92982 0.0
O23 O 0.51277 0.51561 0.92683 0.0
O24 O 0.46534 0.49425 0.01242 0.0
O25 O 0.50705 0.48711 0.01163 0.0
C26 C 0.53785 0.58808 0.96749 0.0
C27 C 0.47746 0.47666 0.02044 0.0
C28 C 0.46746 0.95377 0.13501 0.0
C29 C 0.48817 0.94721 0.97093 0.0
O30 O 0.46555 0.92995 0.11376 0.0
Zn31 Zn 0.48143 0.9506 0.05434 0.0
O32 O 0.47893 0.98061 0.11394 0.0
Zn33 Zn 0.49682 0.99987 0.04612 0.0
O34 O 0.46682 0.01395 0.02689 0.0
O35 O 0.44504 0.96192 0.03597 0.0
O36 O 0.49641 0.97555 0.98404 0.0
O37 O 0.47829 0.92491 0.00063 0.0
O38 O 0.53221 0.98167 0.06562 0.0
O39 O 0.54187 0.03074 0.05621 0.0
C40 C 0.44221 0.98617 0.02609 0.0
C41 C 0.55212 0.01179 0.06541 0.0
C42 C 0.44757 0.93979 0.63192 0.0
C43 C 0.42043 0.94547 0.46879 0.0
O44 O 0.46954 0.96293 0.60884 0.0
Zn45 Zn 0.47768 0.98321 0.54163 0.0
O46 O 0.42082 0.92133 0.6124 0.0
Zn47 Zn 0.43108 0.94199 0.55137 0.0
O48 O 0.46722 0.93256 0.52758 0.0
O49 O 0.51259 0.97802 0.51941 0.0
O50 O 0.40197 0.92459 0.49785 0.0
O51 O 0.44788 0.96794 0.48191 0.0
O52 O 0.48388 0.02513 0.55275 0.0
O53 O 0.43396 0.98707 0.56426 0.0
C54 C 0.49672 0.94778 0.5159 0.0
C55 C 0.45529 0.01679 0.56379 0.0
C56 C 0.04378 0.572 0.57373 0.0
C57 C 0.0294 0.53439 0.41548 0.0
O58 O 0.02284 0.56923 0.54449 0.0
Zn59 Zn 0.03564 0.55171 0.49513 0.0
O60 O 0.06419 0.56363 0.56262 0.0
Zn61 Zn 0.07494 0.54416 0.50324 0.0
O62 O 0.1184 0.57764 0.4883 0.0
O63 O 0.08133 0.59053 0.47431 0.0
O64 O 0.05253 0.53315 0.43555 0.0
O65 O 1.01267 0.54318 0.43805 0.0
O66 O 0.02292 0.50522 0.52035 0.0
O67 O 0.06739 0.50324 0.52562 0.0
C68 C 0.11066 0.59747 0.473 0.0
C69 C 0.03725 0.48981 0.53071 0.0
C70 C 0.52406 0.4931 0.40233 0.0
C71 C 0.50435 0.47705 0.56712 0.0
O72 O 0.5245 0.4682 0.41654 0.0
Zn73 Zn 0.5158 0.44194 0.48095 0.0
O74 O 0.5162 0.50826 0.43005 0.0
Zn75 Zn 0.51075 0.48308 0.48381 0.0
O76 O 0.55808 0.49141 0.49391 0.0
O77 O 0.55804 0.4459 0.49184 0.0
O78 O 0.50401 0.49812 0.54137 0.0
O79 O 0.50767 0.45473 0.54909 0.0
O80 O 0.47712 0.40045 0.46785 0.0
O81 O 0.46726 0.44003 0.47056 0.0
C82 C 0.57324 0.47611 0.49656 0.0
C83 C 0.45721 0.41028 0.46499 0.0
C84 C 0.65851 0.84005 0.39878 0.0
C85 C 0.64415 0.85555 0.23566 0.0
O86 O 0.67775 0.86309 0.37326 0.0
Zn87 Zn 0.65421 0.8471 0.31595 0.0
O88 O 0.6336 0.81635 0.38095 0.0
Zn89 Zn 0.60978 0.80254 0.31518 0.0
O90 O 0.6107 0.76386 0.29871 0.0
O91 O 0.65857 0.80687 0.29918 0.0
O92 O 0.62153 0.8292 0.25178 0.0
O93 O 0.66839 0.87301 0.26086 0.0
O94 O 0.61288 0.84952 0.33294 0.0
O95 O 0.57001 0.8014 0.33225 0.0
C96 C 0.64078 0.77674 0.29335 0.0
C97 C 0.58278 0.83134 0.33865 0.0
C98 C 0.26745 0.92387 0.30529 0.0
C99 C 0.23425 0.81244 0.34218 0.0
O100 O 0.28529 0.91167 0.30924 0.0
Zn101 Zn 0.25237 0.86822 0.32494 0.0
O102 O 0.23732 0.90635 0.31231 0.0
Zn103 Zn 0.20399 0.85799 0.32952 0.0
O104 O 0.18672 0.85975 0.38864 0.0
O105 O 0.2374 0.87236 0.39284 0.0
O106 O 0.21139 0.81853 0.33997 0.0
O107 O 0.26306 0.83469 0.33652 0.0
O108 O 0.22417 0.85091 0.26232 0.0
O109 O 0.17598 0.8435 0.27659 0.0
C110 C 0.21178 0.86785 0.41258 0.0
C111 C 0.19557 0.84219 0.24875 0.0
C112 C 0.14842 0.28298 0.42039 0.0
C113 C 0.1809 0.29529 0.25933 0.0
O114 O 0.1529 0.26024 0.4072 0.0
Zn115 Zn 0.1684 0.24725 0.34485 0.0
O116 O 0.15396 0.3054 0.39248 0.0
Zn117 Zn 0.1674 0.29053 0.34078 0.0
O118 O 0.12442 0.24849 0.31957 0.0
O119 O 0.13012 0.20639 0.32846 0.0
O120 O 0.17789 0.31496 0.28477 0.0
O121 O 0.17857 0.26999 0.27736 0.0
O122 O 0.20913 0.24978 0.36312 0.0
O123 O 0.21219 0.29656 0.3624 0.0
C124 C 0.11315 0.21841 0.3156 0.0
C125 C 0.22543 0.27975 0.3696 0.0
C126 C 0.21021 0.3331 0.8102 0.0
C127 C 0.14129 0.37787 0.84847 0.0
O128 O 0.1811 0.31248 0.81935 0.0
Zn129 Zn 0.13724 0.30989 0.83801 0.0
O130 O 0.21913 0.36264 0.81202 0.0
Zn131 Zn 0.17719 0.35709 0.82895 0.0
O132 O 0.17109 0.3384 0.89761 0.0
O133 O 0.12941 0.2896 0.8981 0.0
O134 O 0.17082 0.3933 0.83795 0.0
O135 O 0.12665 0.34732 0.84921 0.0
O136 O 0.11078 0.28669 0.78529 0.0
O137 O 0.14991 0.33498 0.76768 0.0
C138 C 0.15239 0.31271 0.91951 0.0
C139 C 0.12577 0.30833 0.75529 0.0
C140 C 0.7082 0.92732 0.80612 0.0
C141 C 0.64857 0.8142 0.8511 0.0
O142 O 0.72034 0.91004 0.81623 0.0
Zn143 Zn 0.68027 0.87069 0.82819 0.0
O144 O 0.67776 0.91512 0.80678 0.0
Zn145 Zn 0.63573 0.87049 0.81947 0.0
O146 O 0.61702 0.88 0.87238 0.0
O147 O 0.66328 0.88288 0.88791 0.0
O148 O 0.63092 0.82612 0.84082 0.0
O149 O 0.67887 0.83156 0.84827 0.0
O150 O 0.66016 0.85869 0.76079 0.0
O151 O 0.61581 0.86132 0.75834 0.0
C152 C 0.63941 0.88549 0.9009 0.0
C153 C 0.63622 0.85629 0.73817 0.0
C154 C 0.16467 0.81238 0.91341 0.0
C155 C 0.20093 0.84195 0.75454 0.0
O156 O 0.17357 0.79769 0.88629 0.0
Zn157 Zn 0.18309 0.82604 0.83422 0.0
O158 O 0.16459 0.83746 0.89944 0.0
Zn159 Zn 0.1766 0.86686 0.83885 0.0
O160 O 0.13492 0.86152 0.8207 0.0
O161 O 0.13703 0.81731 0.81469 0.0
O162 O 0.19403 0.86136 0.77416 0.0
O163 O 0.19832 0.81814 0.77679 0.0
O164 O 0.22261 0.86795 0.86208 0.0
O165 O 0.21228 0.90742 0.86226 0.0
C166 C 0.12136 0.83201 0.81047 0.0
C167 C 0.23108 0.89689 0.87169 0.0
C168 C 0.41887 0.23421 0.7719 0.0
C169 C 0.41537 0.26179 0.61046 0.0
O170 O 0.44033 0.25799 0.74985 0.0
Zn171 Zn 0.41705 0.24941 0.69177 0.0
O172 O 0.3923 0.21521 0.75176 0.0
Zn173 Zn 0.37033 0.20982 0.6854 0.0
O174 O 0.36292 0.16862 0.66629 0.0
O175 O 0.41408 0.20521 0.66996 0.0
O176 O 0.38929 0.23741 0.62378 0.0
O177 O 0.43833 0.27642 0.63897 0.0
O178 O 0.37895 0.25937 0.70776 0.0
O179 O 0.33382 0.21392 0.6986 0.0
C180 C 0.39208 0.1764 0.66154 0.0
C181 C 0.34821 0.24331 0.70901 0.0
C182 C 0.92362 0.21163 0.74318 0.0
C183 C 0.89983 0.18876 0.57773 0.0
O184 O 0.89962 0.21361 0.72855 0.0
Zn185 Zn 0.87333 0.20767 0.6665 0.0
O186 O 0.93986 0.20534 0.71494 0.0
Zn187 Zn 0.91475 0.20183 0.65964 0.0
O188 O 0.92402 0.24901 0.64865 0.0
O189 O 0.8792 0.25015 0.65563 0.0
O190 O 0.92418 0.19117 0.59876 0.0
O191 O 0.87997 0.19408 0.59946 0.0
O192 O 0.83219 0.17071 0.68393 0.0
O193 O 0.87133 0.15999 0.67748 0.0
C194 C 0.9091 0.2646 0.64742 0.0
C195 C 0.84204 0.15078 0.68643 0.0
C196 C 0.90304 0.70313 0.66617 0.0
C197 C 0.79448 0.62961 0.60914 0.0
O198 O 0.88782 0.7173 0.65402 0.0
Zn199 Zn 0.84191 0.70513 0.62669 0.0
O200 O 0.88963 0.67305 0.66166 0.0
Zn201 Zn 0.84876 0.66546 0.63743 0.0
O202 O 0.8601 0.68585 0.56933 0.0
O203 O 0.85216 0.72684 0.56771 0.0
O204 O 0.8147 0.62219 0.62412 0.0
O205 O 0.80185 0.65901 0.60886 0.0
O206 O 0.82549 0.71995 0.67586 0.0
O207 O 0.82966 0.67806 0.69508 0.0
C208 C 0.86029 0.70887 0.54712 0.0
C209 C 0.8222 0.69917 0.70557 0.0
C210 C 0.84497 0.6958 0.20565 0.0
C211 C 0.81186 0.69506 0.04589 0.0
O212 O 0.85839 0.71799 0.17598 0.0
Zn213 Zn 0.82908 0.69592 0.12572 0.0
O214 O 0.8199 0.66949 0.19438 0.0
Zn215 Zn 0.78914 0.64882 0.13493 0.0
O216 O 0.79399 0.61193 0.12148 0.0
O217 O 0.83797 0.658 0.10963 0.0
O218 O 0.79338 0.66896 0.06719 0.0
O219 O 0.83549 0.71746 0.06726 0.0
O220 O 0.78687 0.69369 0.15109 0.0
O221 O 0.7484 0.64366 0.15752 0.0
C222 C 0.82316 0.62744 0.10906 0.0
C223 C 0.7581 0.67322 0.16221 0.0
C224 C 0.38466 0.26168 0.16286 0.0
C225 C 0.35562 0.15271 0.20874 0.0
O226 O 0.40846 0.25793 0.17272 0.0
Zn227 Zn 0.41839 0.22128 0.19292 0.0
O228 O 0.35635 0.2379 0.16462 0.0
Zn229 Zn 0.36888 0.20709 0.18532 0.0
O230 O 0.38956 0.22561 0.25214 0.0
O231 O 0.44018 0.23785 0.25126 0.0
O232 O 0.33686 0.16308 0.19837 0.0
O233 O 0.38595 0.1719 0.20773 0.0
O234 O 0.44253 0.22065 0.1399 0.0
O235 O 0.3916 0.20342 0.12429 0.0
C236 C 0.4167 0.23666 0.27272 0.0
C237 C 0.41944 0.20966 0.11111 0.0
C238 C 0.86926 0.16235 0.07414 0.0
C239 C 0.84967 0.15468 0.2397 0.0
O240 O 0.85976 0.13404 0.08922 0.0
Zn241 Zn 0.84249 0.1087 0.15461 0.0
O242 O 0.86896 0.18285 0.10105 0.0
Zn243 Zn 0.85467 0.15706 0.15567 0.0
O244 O 0.89338 0.14775 0.16692 0.0
O245 O 0.87437 0.09572 0.16682 0.0
O246 O 0.85669 0.17812 0.21306 0.0
O247 O 0.84289 0.12767 0.22237 0.0
O248 O 0.79765 0.07665 0.14303 0.0
O249 O 0.80466 0.12504 0.14285 0.0
C250 C 0.89793 0.12399 0.171 0.0
C251 C 0.78597 0.09487 0.13867 0.0
H252 H 0.04167 0.49598 0.36042 0.0
H253 H 0.05445 0.58949 0.13282 0.0
H254 H 1.01018 0.5649 0.35593 0.0
H255 H 1.01271 0.48742 0.12461 0.0
H256 H 0.05184 0.58551 0.21747 0.0
H257 H 0.0425 0.4959 0.2752 0.0
C258 C 0.03455 0.51072 0.34146 0.0
C259 C 0.02562 0.53031 0.36498 0.0
C260 C 0.04353 0.56409 0.19697 0.0
C261 C 0.02779 0.53123 0.26867 0.0
C262 C 0.0453 0.56634 0.14889 0.0
C263 C 0.03376 0.53872 0.12194 0.0
C264 C 0.03092 0.53414 0.21806 0.0
C265 C 0.02175 0.50923 0.14438 0.0
C266 C 0.0351 0.5107 0.29313 0.0
C267 C 0.01683 0.54919 0.33903 0.0
N268 N 0.0208 0.50768 0.19138 0.0
N269 N 0.01867 0.54961 0.29216 0.0
H270 H 0.52128 0.5418 0.35863 0.0
H271 H 0.58972 0.51875 0.11914 0.0
H272 H 0.55006 0.47168 0.33746 0.0
H273 H 0.53995 0.57129 0.13321 0.0
H274 H 0.5865 0.51062 0.20316 0.0
H275 H 0.53775 0.56082 0.27966 0.0
C276 C 0.53108 0.5304 0.33742 0.0
C277 C 0.53392 0.50483 0.35454 0.0
C278 C 0.5768 0.52441 0.18788 0.0
C279 C 0.55316 0.52677 0.26421 0.0
C280 C 0.57898 0.52937 0.14004 0.0
C281 C 0.56481 0.54546 0.11924 0.0
C282 C 0.56057 0.53582 0.2149 0.0
C283 C 0.5509 0.55846 0.14787 0.0
C284 C 0.54058 0.54135 0.29237 0.0
C285 C 0.54707 0.4912 0.32553 0.0
N286 N 0.54884 0.55309 0.19417 0.0
N287 N 0.55611 0.50227 0.28173 0.0
H288 H 0.46521 0.99949 0.18707 0.0
H289 H 0.39702 0.89194 0.41462 0.0
H290 H 0.44121 0.901 0.19218 0.0
H291 H 0.43182 0.99285 0.40883 0.0
H292 H 0.40343 0.89173 0.3302 0.0
H293 H 0.44505 0.99474 0.26534 0.0
C294 C 0.45575 0.97681 0.20466 0.0
C295 C 0.4553 0.95071 0.183 0.0
C296 C 0.40893 0.91376 0.3473 0.0
C297 C 0.43183 0.94503 0.27329 0.0
C298 C 0.40478 0.91376 0.39534 0.0
C299 C 0.4138 0.94245 0.41857 0.0
C300 C 0.42208 0.94263 0.32264 0.0
C301 C 0.42453 0.97023 0.39217 0.0
C302 C 0.44407 0.97407 0.24945 0.0
C303 C 0.44233 0.92185 0.20762 0.0
N304 N 0.42866 0.96968 0.34581 0.0
N305 N 0.43128 0.91983 0.25155 0.0
H306 H 0.99377 0.57116 0.61895 0.0
H307 H 0.08185 0.6091 0.86485 0.0
H308 H 0.09203 0.59496 0.63771 0.0
H309 H 0.98005 0.54796 0.84575 0.0
H310 H 0.08723 0.61993 0.78143 0.0
H311 H 0.99048 0.57885 0.70209 0.0
C312 C 0.01484 0.57866 0.64037 0.0
C313 C 0.04306 0.58192 0.62168 0.0
C314 C 0.06369 0.60459 0.79577 0.0
C315 C 0.03946 0.59085 0.71628 0.0
C316 C 0.06058 0.5985 0.84326 0.0
C317 C 0.03053 0.57721 0.86193 0.0
C318 C 0.03649 0.58963 0.76714 0.0
C319 C 1.00373 0.56411 0.83252 0.0
C320 C 1.01289 0.58291 0.68774 0.0
C321 C 0.06965 0.5917 0.65094 0.0
N322 N 1.00736 0.57035 0.78646 0.0
N323 N 0.06714 0.59557 0.69694 0.0
H324 H 0.5319 0.5323 0.61604 0.0
H325 H 0.47959 0.46599 0.865 0.0
H326 H 0.48091 0.43015 0.633 0.0
H327 H 0.57823 0.53593 0.83895 0.0
H328 H 0.47114 0.45553 0.78129 0.0
H329 H 0.54005 0.53836 0.7001 0.0
C330 C 0.5219 0.51118 0.63757 0.0
C331 C 0.50558 0.48067 0.61779 0.0
C332 C 0.49466 0.47286 0.79416 0.0
C333 C 0.5147 0.48752 0.71331 0.0
C334 C 0.4995 0.47881 0.8416 0.0
C335 C 0.5297 0.50164 0.85852 0.0
C336 C 0.51988 0.49079 0.76368 0.0
C337 C 0.55473 0.51788 0.82707 0.0
C338 C 0.5269 0.51468 0.68525 0.0
C339 C 0.49357 0.45406 0.6471 0.0
N340 N 0.54912 0.51259 0.78089 0.0
N341 N 0.49809 0.45807 0.69367 0.0
H342 H 0.52779 0.98653 0.90447 0.0
H343 H 0.40722 0.89576 0.69667 0.0
H344 H 0.44392 0.89417 0.92324 0.0
H345 H 0.50327 0.97483 0.67942 0.0
H346 H 0.41938 0.89307 0.77892 0.0
H347 H 0.5192 0.98094 0.82104 0.0
C348 C 0.50787 0.96476 0.89083 0.0
C349 C 0.48661 0.94076 0.92072 0.0
C350 C 0.4378 0.91076 0.75684 0.0
C351 C 0.47589 0.9345 0.82499 0.0
C352 C 0.43084 0.91237 0.70997 0.0
C353 C 0.4541 0.93577 0.68106 0.0
C354 C 0.46812 0.93283 0.77478 0.0
C355 C 0.48437 0.95656 0.70022 0.0
C356 C 0.50286 0.96158 0.84315 0.0
C357 C 0.46105 0.91309 0.90125 0.0
N358 N 0.49034 0.95474 0.74569 0.0
N359 N 0.45606 0.91091 0.85455 0.0
H360 H 0.62206 0.88569 0.66881 0.0
H361 H 0.64352 0.79243 0.46105 0.0
H362 H 0.64928 0.81488 0.6942 0.0
H363 H 0.67593 0.89281 0.45133 0.0
H364 H 0.63637 0.79487 0.54474 0.0
H365 H 0.63029 0.88235 0.58543 0.0
C366 C 0.62896 0.8689 0.65665 0.0
C367 C 0.63482 0.85036 0.68807 0.0
C368 C 0.64545 0.8164 0.52428 0.0
C369 C 0.64445 0.84664 0.59369 0.0
C370 C 0.64977 0.8151 0.47679 0.0
C371 C 0.66077 0.84257 0.44958 0.0
C372 C 0.65113 0.84513 0.54424 0.0
C373 C 0.66797 0.87126 0.47134 0.0
C374 C 0.6341 0.86736 0.60937 0.0
C375 C 0.64442 0.82945 0.67086 0.0
N376 N 0.66252 0.8717 0.51739 0.0
N377 N 0.6488 0.82801 0.62473 0.0
H378 H 0.18009 0.79524 0.68921 0.0
H379 H 0.25961 0.90603 0.47244 0.0
H380 H 0.23576 0.89719 0.70686 0.0
H381 H 0.16217 0.82809 0.46782 0.0
H382 H 0.25971 0.89998 0.55695 0.0
H383 H 0.18301 0.80289 0.60485 0.0
C384 C 0.19363 0.81913 0.67525 0.0
C385 C 0.20782 0.84565 0.70471 0.0
C386 C 0.2383 0.88445 0.53729 0.0
C387 C 0.21112 0.85446 0.60915 0.0
C388 C 0.23815 0.88796 0.48936 0.0
C389 C 0.2107 0.86776 0.46345 0.0
C390 C 0.21122 0.85988 0.55896 0.0
C391 C 0.18361 0.84444 0.48675 0.0
C392 C 0.1949 0.82347 0.62737 0.0
C393 C 0.22457 0.87619 0.68508 0.0
N394 N 0.18469 0.84081 0.53325 0.0
N395 N 0.22589 0.8798 0.63837 0.0
H396 H 0.12946 0.23684 0.48741 0.0
H397 H 0.13703 0.35173 0.68769 0.0
H398 H 0.14333 0.33072 0.4625 0.0
H399 H 0.09982 0.25122 0.70928 0.0
H400 H 0.13599 0.34337 0.60435 0.0
H401 H 0.11588 0.24037 0.56784 0.0
C402 C 0.12945 0.2581 0.49872 0.0
C403 C 0.13791 0.28367 0.46823 0.0
C404 C 0.12752 0.32299 0.62714 0.0
C405 C 0.12244 0.28786 0.56026 0.0
C406 C 0.12806 0.32776 0.67475 0.0
C407 C 0.11867 0.30216 0.70538 0.0
C408 C 0.11817 0.29248 0.60996 0.0
C409 C 0.10718 0.27159 0.6868 0.0
C410 C 0.12154 0.26003 0.54461 0.0
C411 C 0.13721 0.3105 0.48478 0.0
N412 N 0.10781 0.26767 0.64024 0.0
N413 N 0.12998 0.31202 0.52973 0.0
H414 H 0.5917 0.82864 0.17888 0.0
H415 H 0.68837 0.92387 0.95792 0.0
H416 H 0.68991 0.90519 0.18447 0.0
H417 H 0.58641 0.85944 0.95633 0.0
H418 H 0.68787 0.92257 0.04231 0.0
H419 H 0.58788 0.84332 0.09934 0.0
C420 C 0.61248 0.84863 0.16343 0.0
C421 C 0.64137 0.86541 0.18818 0.0
C422 C 0.66545 0.90921 0.02371 0.0
C423 C 0.63705 0.88242 0.09694 0.0
C424 C 0.66571 0.91007 0.97554 0.0
C425 C 0.63741 0.89153 0.95032 0.0
C426 C 0.63677 0.88907 0.04683 0.0
C427 C 0.60871 0.87411 0.97462 0.0
C428 C 0.61018 0.85714 0.11805 0.0
C429 C 0.66729 0.89138 0.16656 0.0
N430 N 0.60921 0.87276 0.02165 0.0
N431 N 0.66462 0.89885 0.12198 0.0
H432 H 0.12697 0.82294 0.97166 0.0
H433 H 0.22544 0.8223 0.18893 0.0
H434 H 0.19051 0.78471 0.96779 0.0
H435 H 0.14296 0.83413 0.20038 0.0
H436 H 0.21061 0.80504 0.10893 0.0
H437 H 0.12862 0.82243 0.05608 0.0
C438 C 0.14066 0.8137 0.9887 0.0
C439 C 0.15891 0.80416 0.96285 0.0
C440 C 0.19552 0.81105 0.12903 0.0
C441 C 0.16161 0.80432 0.05932 0.0
C442 C 0.20413 0.82119 0.17462 0.0
C443 C 0.18566 0.83015 0.20112 0.0
C444 C 0.16852 0.81033 0.10947 0.0
C445 C 0.15802 0.82771 0.18104 0.0
C446 C 0.14166 0.81348 0.03688 0.0
C447 C 0.17612 0.79228 0.9865 0.0
N448 N 0.15052 0.81846 0.13615 0.0
N449 N 0.17762 0.79335 0.03351 0.0
H450 H 0.18875 0.36155 0.97864 0.0
H451 H 0.16857 0.24989 0.19396 0.0
H452 H 0.12955 0.25909 0.97377 0.0
H453 H 0.195 0.34867 0.20879 0.0
H454 H 0.16305 0.25409 0.11047 0.0
H455 H 0.19914 0.35808 0.06062 0.0
C456 C 0.17795 0.33828 0.9948 0.0
C457 C 0.15815 0.31053 0.96934 0.0
C458 C 0.1703 0.27488 0.13201 0.0
C459 C 0.17031 0.30648 0.0631 0.0
C460 C 0.17378 0.27264 0.17961 0.0
C461 C 0.18224 0.299 0.20844 0.0
C462 C 0.17571 0.30379 0.113 0.0
C463 C 0.18837 0.32775 0.18789 0.0
C464 C 0.18388 0.33637 0.04161 0.0
C465 C 0.14478 0.28107 0.99216 0.0
N466 N 0.18495 0.32937 0.14139 0.0
N467 N 0.15123 0.2798 0.03778 0.0
H468 H 0.37688 0.16705 0.04994 0.0
H469 H 0.46931 0.27144 0.83057 0.0
H470 H 0.47274 0.24744 0.05924 0.0
H471 H 0.37946 0.1827 0.82433 0.0
H472 H 0.47394 0.26143 0.91283 0.0
H473 H 0.38051 0.16981 0.96591 0.0
C474 C 0.39897 0.18494 0.03413 0.0
C475 C 0.42447 0.20715 0.06141 0.0
C476 C 0.45342 0.24405 0.89321 0.0
C477 C 0.42857 0.21115 0.96502 0.0
C478 C 0.45071 0.24978 0.84633 0.0
C479 C 0.42373 0.22811 0.82065 0.0
C480 C 0.42893 0.2165 0.91438 0.0
C481 C 0.40048 0.20034 0.84277 0.0
C482 C 0.40103 0.18662 0.9861 0.0
C483 C 0.45258 0.22981 0.03929 0.0
N484 N 0.40352 0.19551 0.88828 0.0
N485 N 0.4537 0.23164 0.99222 0.0
H486 H 0.91857 0.25031 0.80581 0.0
H487 H 0.88199 0.12784 0.01117 0.0
H488 H 0.93615 0.17184 0.79511 0.0
H489 H 0.88607 0.21814 0.0287 0.0
H490 H 0.90351 0.14405 0.933 0.0
H491 H 0.91031 0.24086 0.88891 0.0
C492 C 0.92161 0.23164 0.82135 0.0
C493 C 0.92818 0.21191 0.79372 0.0
C494 C 0.89989 0.16038 0.95409 0.0
C495 C 0.91743 0.20001 0.88858 0.0
C496 C 0.88734 0.15104 0.99861 0.0
C497 C 0.88189 0.17153 0.02647 0.0
C498 C 0.90678 0.19031 0.93709 0.0
C499 C 0.88965 0.20146 0.00845 0.0
C500 C 0.91663 0.22606 0.86874 0.0
C501 C 0.9315 0.18781 0.81537 0.0
N502 N 0.90145 0.20981 0.96489 0.0
N503 N 0.92546 0.18211 0.86147 0.0
H504 H 0.76779 0.64906 0.98871 0.0
H505 H 0.83466 0.75162 0.75705 0.0
H506 H 0.84429 0.74716 0.98901 0.0
H507 H 0.78855 0.64913 0.76313 0.0
H508 H 0.82667 0.75266 0.84095 0.0
H509 H 0.76366 0.65163 0.90486 0.0
C510 C 0.7835 0.6713 0.97127 0.0
C511 C 0.80678 0.69781 0.99592 0.0
C512 C 0.81786 0.72998 0.82362 0.0
C513 C 0.80203 0.70083 0.89978 0.0
C514 C 0.82216 0.72935 0.77585 0.0
C515 C 0.81242 0.70025 0.75343 0.0
C516 C 0.80325 0.70126 0.84861 0.0
C517 C 0.79665 0.67207 0.77929 0.0
C518 C 0.78112 0.67269 0.92336 0.0
C519 C 0.82626 0.72603 0.97133 0.0
N520 N 0.79266 0.67328 0.82553 0.0
N521 N 0.82362 0.72674 0.92447 0.0
H522 H 0.46901 0.25849 0.33073 0.0
H523 H 0.36936 0.25568 0.55022 0.0
H524 H 0.37219 0.24104 0.32483 0.0
H525 H 0.46957 0.285 0.55791 0.0
H526 H 0.37257 0.25743 0.46604 0.0
H527 H 0.47216 0.27404 0.41214 0.0
C528 C 0.44852 0.25811 0.34641 0.0
C529 C 0.42012 0.24793 0.3211 0.0
C530 C 0.39406 0.26396 0.48595 0.0
C531 C 0.42362 0.26584 0.41395 0.0
C532 C 0.39222 0.26307 0.53403 0.0
C533 C 0.41916 0.26991 0.56087 0.0
C534 C 0.42287 0.27094 0.46445 0.0
C535 C 0.44825 0.27955 0.53831 0.0
C536 C 0.45038 0.26712 0.39281 0.0
C537 C 0.39443 0.24823 0.34307 0.0
N538 N 0.44921 0.27915 0.49125 0.0
N539 N 0.39672 0.25673 0.38822 0.0
H540 H 0.81853 0.11099 0.30812 0.0
H541 H 0.94272 0.21147 0.50625 0.0
H542 H 0.89234 0.20856 0.28585 0.0
H543 H 0.84302 0.14854 0.53697 0.0
H544 H 0.92967 0.20314 0.42297 0.0
H545 H 0.83148 0.11763 0.39118 0.0
C546 C 0.83718 0.13388 0.32082 0.0
C547 C 0.85412 0.1594 0.29027 0.0
C548 C 0.91081 0.19098 0.44813 0.0
C549 C 0.86984 0.16665 0.38442 0.0
C550 C 0.91827 0.19541 0.49541 0.0
C551 C 0.89388 0.18058 0.52821 0.0
C552 C 0.87892 0.17098 0.43395 0.0
C553 C 0.86246 0.16039 0.51257 0.0
C554 C 0.84463 0.13758 0.36802 0.0
C555 C 0.87836 0.18846 0.30838 0.0
N556 N 0.85587 0.15602 0.46653 0.0
N557 N 0.8858 0.19121 0.35425 0.0
H558 H 0.86492 0.75546 0.48763 0.0
H559 H 0.83992 0.65084 0.26665 0.0
H560 H 0.87024 0.66926 0.49172 0.0
H561 H 0.87428 0.75156 0.2551 0.0
H562 H 0.85099 0.65749 0.34966 0.0
H563 H 0.86868 0.75555 0.40296 0.0
C564 C 0.86731 0.73682 0.47086 0.0
C565 C 0.86689 0.71212 0.49683 0.0
C566 C 0.8566 0.67827 0.32894 0.0
C567 C 0.87082 0.71192 0.40026 0.0
C568 C 0.85023 0.67445 0.2816 0.0
C569 C 0.85613 0.70067 0.25414 0.0
C570 C 0.86822 0.70839 0.34925 0.0
C571 C 0.86954 0.73077 0.27515 0.0
C572 C 0.86953 0.73694 0.42258 0.0
C573 C 0.8702 0.68866 0.47322 0.0
N574 N 0.87462 0.73376 0.32173 0.0
N575 N 0.87154 0.68889 0.42633 0.0
H576 H 0.99601 0.42239 0.93574 0.0
H577 H 0.16499 0.44221 0.86036 0.0
H578 H 0.08564 0.51128 0.94213 0.0
H579 H 0.07744 0.35144 0.86727 0.0
H580 H 0.13561 0.46834 0.88611 0.0
H581 H 0.02476 0.39619 0.90712 0.0
C582 C 0.02169 0.43639 0.93122 0.0
C583 C 0.03837 0.4691 0.94153 0.0
C584 C 0.12281 0.4427 0.88189 0.0
C585 C 0.07145 0.43931 0.90849 0.0
C586 C 0.13959 0.42778 0.86703 0.0
C587 C 0.12375 0.39455 0.8617 0.0
C588 C 0.08989 0.42432 0.8914 0.0
C589 C 0.09075 0.37711 0.87099 0.0
C590 C 0.03811 0.42143 0.91484 0.0
C591 C 0.07169 0.48601 0.93484 0.0
N592 N 0.07497 0.39216 0.88539 0.0
N593 N 0.08705 0.47097 0.91875 0.0
H594 H 0.67682 0.77922 0.87719 0.0
H595 H 0.51032 0.62471 0.94776 0.0
H596 H 0.58476 0.7729 0.86359 0.0
H597 H 0.60149 0.62847 0.95192 0.0
H598 H 0.53745 0.67981 0.9196 0.0
H599 H 0.64989 0.72445 0.90674 0.0
C600 C 0.651 0.76634 0.88026 0.0
C601 C 0.6331 0.78075 0.86777 0.0
C602 C 0.5515 0.66855 0.92675 0.0
C603 C 0.60209 0.71812 0.90184 0.0
C604 C 0.536 0.63711 0.94296 0.0
C605 C 0.55357 0.62183 0.95216 0.0
C606 C 0.58482 0.68488 0.9198 0.0
C607 C 0.58686 0.63915 0.94519 0.0
C608 C 0.63561 0.73508 0.8972 0.0
C609 C 0.59964 0.76285 0.87265 0.0
N610 N 0.60134 0.66964 0.92945 0.0
N611 N 0.58529 0.7326 0.88931 0.0
H612 H 0.27605 0.96171 0.86803 0.0
H613 H 0.38527 0.93965 0.0575 0.0
H614 H 0.25379 0.87421 0.93743 0.0
H615 H 0.42621 0.01871 0.9623 0.0
H616 H 0.33259 0.92265 0.02519 0.0
H617 H 0.32731 0.98912 0.91153 0.0
C618 C 0.28178 0.94843 0.89267 0.0
C619 C 0.26091 0.9156 0.89879 0.0
C620 C 0.35294 0.94392 0.01145 0.0
C621 C 0.31859 0.94657 0.94875 0.0
C622 C 0.38306 0.95372 0.03009 0.0
C623 C 0.41019 0.98038 0.01217 0.0
C624 C 0.34968 0.96055 0.97396 0.0
C625 C 0.40583 0.99796 0.977 0.0
C626 C 0.31094 0.96399 0.91727 0.0
C627 C 0.26936 0.89943 0.93105 0.0
N628 N 0.3761 0.98743 0.9584 0.0
N629 N 0.29736 0.91502 0.95464 0.0
H630 H 0.49445 0.08163 0.57201 0.0
H631 H 0.3523 0.11257 0.64468 0.0
H632 H 0.39586 1.00702 0.58499 0.0
H633 H 0.4519 0.18599 0.64341 0.0
H634 H 0.36757 0.07393 0.61972 0.0
H635 H 0.47908 0.12062 0.59485 0.0
C636 C 0.46957 0.07342 0.57955 0.0
C637 C 0.44644 0.04094 0.57664 0.0
C638 C 0.38609 0.0985 0.62491 0.0
C639 C 0.42867 0.0855 0.60285 0.0
C640 C 0.37738 0.1206 0.63915 0.0
C641 C 0.40084 0.15261 0.64628 0.0
C642 C 0.41851 0.10843 0.61757 0.0
C643 C 0.43297 0.16157 0.63849 0.0
C644 C 0.46081 0.09571 0.59267 0.0
C645 C 0.41455 0.03177 0.58685 0.0
N646 N 0.44083 0.13963 0.62456 0.0
N647 N 0.40664 0.0539 0.59948 0.0
H648 H 0.88601 0.30526 0.628 0.0
H649 H 0.05921 0.44984 0.55761 0.0
H650 H 0.97354 0.30194 0.63634 0.0
H651 H 0.97264 0.45472 0.54641 0.0
H652 H 0.02792 0.39594 0.58871 0.0
H653 H 0.91707 0.36065 0.601 0.0
C654 C 0.91171 0.31619 0.62452 0.0
C655 C 0.9271 0.2988 0.6343 0.0
C656 C 0.01573 0.40878 0.57948 0.0
C657 C 0.96274 0.36202 0.60321 0.0
C658 C 0.03363 0.43959 0.56162 0.0
C659 C 0.0186 0.45689 0.54921 0.0
C660 C 0.98246 0.39502 0.58504 0.0
C661 C 0.9853 0.4423 0.55538 0.0
C662 C 0.92942 0.34777 0.60895 0.0
C663 C 0.9605 0.31423 0.62902 0.0
N664 N 0.96838 0.41225 0.57279 0.0
N665 N 0.97708 0.34478 0.61377 0.0
H666 H 0.75202 0.6399 0.56115 0.0
H667 H 0.61224 0.45803 0.54273 0.0
H668 H 0.765 0.56371 0.61346 0.0
H669 H 0.61338 0.53727 0.47292 0.0
H670 H 0.668 0.49407 0.56817 0.0
H671 H 0.70057 0.60089 0.52952 0.0
C672 C 0.74402 0.61487 0.56614 0.0
C673 C 0.76294 0.60517 0.59026 0.0
C674 C 0.65604 0.50332 0.54678 0.0
C675 C 0.70334 0.55979 0.55361 0.0
C676 C 0.62437 0.48275 0.53205 0.0
C677 C 0.60807 0.49477 0.50611 0.0
C678 C 0.67121 0.53592 0.53534 0.0
C679 C 0.6248 0.52702 0.49344 0.0
C680 C 0.71454 0.59247 0.54775 0.0
C681 C 0.75118 0.57226 0.59513 0.0
N682 N 0.65516 0.54637 0.50842 0.0
N683 N 0.72198 0.55067 0.57719 0.0
H684 H 0.80111 0.5627 0.09943 0.0
H685 H 0.97218 0.59529 0.01202 0.0
H686 H 0.88524 0.65532 0.08206 0.0
H687 H 0.8914 0.49988 0.02323 0.0
H688 H 0.93884 0.61643 0.03695 0.0
H689 H 0.83187 0.53804 0.07173 0.0
C690 C 0.82594 0.57783 0.0899 0.0
C691 C 0.84056 0.61118 0.09318 0.0
C692 C 0.92815 0.59084 0.034 0.0
C693 C 0.87569 0.5832 0.06145 0.0
C694 C 0.9473 0.57865 0.01967 0.0
C695 C 0.9347 0.54566 0.01564 0.0
C696 C 0.89587 0.57005 0.04477 0.0
C697 C 0.90212 0.52548 0.02582 0.0
C698 C 0.84343 0.56374 0.07404 0.0
C699 C 0.87279 0.62956 0.08026 0.0
N700 N 0.8838 0.538 0.04016 0.0
N701 N 0.88909 0.61537 0.0651 0.0
H702 H 0.35076 0.27899 0.10311 0.0
H703 H 0.50258 0.45185 0.07889 0.0
H704 H 0.43479 0.31769 0.19027 0.0
H705 H 0.41232 0.43154 0.01874 0.0
H706 H 0.47613 0.40111 0.11814 0.0
H707 H 0.3698 0.33293 0.07142 0.0
C708 C 0.37278 0.29887 0.11623 0.0
C709 C 0.39152 0.29384 0.14881 0.0
C710 C 0.4618 0.40753 0.09665 0.0
C711 C 0.41336 0.35498 0.11275 0.0
C712 C 0.47703 0.43656 0.07383 0.0
C713 C 0.4597 0.44584 0.04504 0.0
C714 C 0.42883 0.38693 0.09048 0.0
C715 C 0.42652 0.42517 0.04059 0.0
C716 C 0.38366 0.32953 0.09806 0.0
C717 C 0.41986 0.32031 0.16458 0.0
N718 N 0.4121 0.39634 0.06267 0.0
N719 N 0.42997 0.34949 0.14616 0.0
H720 H 0.73833 0.03203 0.12903 0.0
H721 H 0.60071 0.07419 0.07134 0.0
H722 H 0.75421 0.12781 0.12432 0.0
H723 H 0.58268 0.97791 0.0837 0.0
H724 H 0.65716 0.09406 0.08917 0.0
H725 H 0.68162 0.01161 0.11117 0.0
C726 C 0.72996 0.0488 0.12431 0.0
C727 C 0.75126 0.08176 0.12828 0.0
C728 C 0.64089 0.06857 0.08801 0.0
C729 C 0.68613 0.05845 0.10764 0.0
C730 C 0.60856 0.05717 0.07776 0.0
C731 C 0.5867 0.02426 0.07599 0.0
C732 C 0.65173 0.04699 0.09652 0.0
C733 C 0.59852 1.00347 0.08469 0.0
C734 C 0.69752 0.03709 0.1141 0.0
C735 C 0.73884 0.10224 0.1217 0.0
N736 N 0.63012 0.01515 0.09451 0.0
N737 N 0.70726 0.09029 0.11171 0.0
H738 H 0.47218 0.88339 0.51503 0.0
H739 H 0.59696 0.89236 0.32729 0.0
H740 H 0.55122 0.97121 0.46373 0.0
H741 H 0.52927 0.80455 0.39405 0.0
H742 H 0.57602 0.9205 0.37127 0.0
H743 H 0.49003 0.85348 0.4682 0.0
C744 C 0.49354 0.89642 0.49431 0.0
C745 C 0.51026 0.92992 0.49327 0.0
C746 C 0.56549 0.89504 0.37615 0.0
C747 C 0.53041 0.89571 0.43894 0.0
C748 C 0.57724 0.87888 0.35075 0.0
C749 C 0.56493 0.84609 0.35729 0.0
C750 C 0.54122 0.87839 0.40857 0.0
C751 C 0.5393 0.82981 0.38786 0.0
C752 C 0.50358 0.87928 0.46742 0.0
C753 C 0.53771 0.94547 0.46581 0.0
N754 N 0.52845 0.84623 0.41283 0.0
N755 N 0.54679 0.92821 0.43947 0.0
H756 H 0.1759 0.63504 0.48896 0.0
H757 H 0.18971 0.76062 0.29717 0.0
H758 H 0.09873 0.62777 0.40416 0.0
H759 H 0.25746 0.78901 0.40971 0.0
H760 H 0.16414 0.70572 0.32427 0.0
H761 H 0.21261 0.68627 0.45083 0.0
C762 C 0.1668 0.64407 0.46216 0.0
C763 C 0.13419 0.62742 0.45007 0.0
C764 C 0.18494 0.72375 0.34274 0.0
C765 C 0.1758 0.68503 0.40597 0.0
C766 C 0.1997 0.75502 0.32699 0.0
C767 C 0.2256 0.77921 0.35133 0.0
C768 C 0.19573 0.71657 0.38375 0.0
C769 C 0.23761 0.77083 0.38989 0.0
C770 C 0.18766 0.67318 0.44054 0.0
C771 C 0.12356 0.64003 0.41512 0.0
N772 N 0.22218 0.74013 0.40555 0.0
N773 N 0.14424 0.66792 0.3944 0.0
H774 H 0.2666 0.25552 0.38038 0.0
H775 H 0.40999 0.42504 0.46566 0.0
H776 H 0.26195 0.34159 0.39578 0.0
H777 H 0.42521 0.34596 0.44033 0.0
H778 H 0.35427 0.39182 0.44497 0.0
H779 H 0.32309 0.28521 0.406 0.0
C780 C 0.27731 0.28051 0.3892 0.0
C781 C 0.25938 0.29603 0.38569 0.0
C782 C 0.36958 0.38148 0.44382 0.0
C783 C 0.3237 0.32995 0.4151 0.0
C784 C 0.40165 0.40057 0.45576 0.0
C785 C 0.42265 0.38851 0.45445 0.0
C786 C 0.35783 0.34975 0.43012 0.0
C787 C 0.40997 0.35636 0.44166 0.0
C788 C 0.30953 0.29742 0.40375 0.0
C789 C 0.27459 0.32845 0.39759 0.0
N790 N 0.37835 0.33808 0.42975 0.0
N791 N 0.30559 0.34412 0.41162 0.0
H792 H 0.69315 0.6401 0.18372 0.0
H793 H 0.70411 0.79643 0.29442 0.0
H794 H 0.77728 0.73384 0.18785 0.0
H795 H 0.61255 0.71472 0.25996 0.0
H796 H 0.73051 0.76888 0.26533 0.0
H797 H 0.66232 0.66262 0.21916 0.0
C798 C 0.70511 0.66527 0.19196 0.0
C799 C 0.73787 0.68508 0.18261 0.0
C800 C 0.70462 0.75679 0.264 0.0
C801 C 0.70308 0.71067 0.22341 0.0
C802 C 0.68944 0.77256 0.28077 0.0
C803 C 0.65601 0.75809 0.27913 0.0
C804 C 0.68646 0.72613 0.24503 0.0
C805 C 0.63841 0.72684 0.26164 0.0
C806 C 0.68753 0.67806 0.21211 0.0
C807 C 0.75213 0.7175 0.19405 0.0
N808 N 0.65388 0.71189 0.24488 0.0
N809 N 0.73474 0.7291 0.21382 0.0
H810 H 0.38952 0.1227 0.22869 0.0
H811 H 0.23458 0.9554 0.29034 0.0
H812 H 0.29288 0.10549 0.22021 0.0
H813 H 0.33028 0.96976 0.28884 0.0
H814 H 0.25583 0.01061 0.26664 0.0
H815 H 0.36859 0.06737 0.25224 0.0
C816 C 0.36387 0.10732 0.23173 0.0
C817 C 0.34295 0.11891 0.22242 0.0
C818 C 0.27223 1.00177 0.27147 0.0
C819 C 0.3188 0.05527 0.24961 0.0
C820 C 0.26012 0.97016 0.28514 0.0
C821 C 0.28065 0.95777 0.29168 0.0
C822 C 0.30523 0.02143 0.2643 0.0
C823 C 0.31353 0.9782 0.28426 0.0
C824 C 0.35195 0.07565 0.24519 0.0
C825 C 0.30995 0.0977 0.22696 0.0
N826 N 0.32478 0.009 0.271 0.0
N827 N 0.29894 0.06699 0.24029 0.0
H828 H 0.06864 0.15343 0.32087 0.0
H829 H 0.95328 0.17291 0.13961 0.0
H830 H 0.08717 0.24055 0.25362 0.0
H831 H 0.91685 0.09154 0.2303 0.0
H832 H 1.00678 0.19172 0.17015 0.0
H833 H 0.01658 0.12515 0.27962 0.0
C834 C 0.06188 0.16651 0.29741 0.0
C835 C 0.08207 0.19948 0.29121 0.0
C836 C 0.98727 0.16955 0.18325 0.0
C837 C 0.02342 0.16744 0.24358 0.0
C838 C 0.95671 0.15871 0.16554 0.0
C839 C 0.9306 0.1308 0.18272 0.0
C840 C 0.99197 0.15274 0.21916 0.0
C841 C 0.93645 0.11318 0.21611 0.0
C842 C 0.03227 0.15042 0.27398 0.0
C843 C 0.07225 0.21528 0.26025 0.0
N844 N 0.96655 0.12472 0.23392 0.0
N845 N 0.04385 0.19917 0.23778 0.0
H846 H 0.36988 0.30654 0.72958 0.0
H847 H 0.19526 0.2715 0.80009 0.0
H848 H 0.28364 0.21469 0.72103 0.0
H849 H 0.27492 0.36755 0.78824 0.0
H850 H 0.22938 0.25115 0.77557 0.0
H851 H 0.33761 0.33005 0.75444 0.0
C852 C 0.34422 0.29132 0.73284 0.0
C853 C 0.32949 0.25852 0.72323 0.0
C854 C 0.23959 0.27671 0.7782 0.0
C855 C 0.29258 0.28525 0.75183 0.0
C856 C 0.22005 0.28847 0.79243 0.0
C857 C 0.23213 0.32143 0.79627 0.0
C858 C 0.27178 0.29787 0.76768 0.0
C859 C 0.26456 0.34198 0.78574 0.0
C860 C 0.32585 0.30479 0.74698 0.0
C861 C 0.29616 0.24003 0.72801 0.0
N862 N 0.28333 0.32986 0.77192 0.0
N863 N 0.27898 0.25361 0.74204 0.0
H864 H 0.8577 0.10428 0.69281 0.0
H865 H 0.68944 0.97135 0.79361 0.0
H866 H 0.77936 0.12125 0.71697 0.0
H867 H 0.77238 0.96007 0.78479 0.0
H868 H 0.72119 0.02557 0.76432 0.0
H869 H 0.82578 0.05082 0.72357 0.0
C870 C 0.83366 0.09676 0.70438 0.0
C871 C 0.82125 0.11748 0.70227 0.0
C872 C 0.73251 0.01133 0.76895 0.0
C873 C 0.78441 0.05577 0.73802 0.0
C874 C 0.71442 0.9803 0.78572 0.0
C875 C 0.72824 0.96099 0.79157 0.0
C876 C 0.76471 0.02324 0.75758 0.0
C877 C 0.76072 0.97404 0.7809 0.0
C878 C 0.81546 0.06612 0.72218 0.0
C879 C 0.78989 0.10614 0.71783 0.0
N880 N 0.77779 1.00429 0.76419 0.0
N881 N 0.77254 0.07601 0.73511 0.0
H882 H 0.08152 0.85464 0.78247 0.0
H883 H 0.94251 0.68181 0.69893 0.0
H884 H 0.08552 0.76807 0.79623 0.0
H885 H 0.93721 0.76747 0.68175 0.0
H886 H 0.99488 0.71344 0.73585 0.0
H887 H 0.028 0.82342 0.74752 0.0
C888 C 0.07112 0.82913 0.77847 0.0
C889 C 0.08816 0.81405 0.79216 0.0
C890 C 0.98228 0.72535 0.72396 0.0
C891 C 0.02718 0.77825 0.75207 0.0
C892 C 0.95238 0.70727 0.70274 0.0
C893 C 0.9354 0.72195 0.68709 0.0
C894 C 0.99538 0.75841 0.72967 0.0
C895 C 0.94942 0.75508 0.69318 0.0
C896 C 0.04065 0.81133 0.75838 0.0
C897 C 0.07349 0.78088 0.78601 0.0
N898 N 0.97854 0.77216 0.71398 0.0
N899 N 0.04402 0.76422 0.7664 0.0
loop_
_geom_bond_atom_site_label_1
_geom_bond_atom_site_label_2
_geom_bond_distance
_geom_bond_site_symmetry_2
_ccdc_geom_bond_type
C0 O2 1.247 1_655 S
C0 O4 1.258 . S
C1 O8 1.247 1_455 S
C1 O9 1.258 . S
O2 C0 1.247 1_455 S
O2 Zn3 2.025 1_556 S
Zn3 O2 2.025 1_554 S
Zn3 O7 2.027 1_455 S
Zn3 O9 2.039 . S
Zn3 O10 2.027 1_554 S
O4 C0 1.258 . S
O4 Zn5 2.015 1_556 S
Zn5 O4 2.015 1_554 S
Zn5 O6 2.031 . S
Zn5 O8 2.048 . S
Zn5 O11 2.014 1_654 S
O6 Zn5 2.031 . S
O6 C12 1.247 . S
O7 Zn3 2.027 1_655 S
O7 C12 1.266 . S
O8 C1 1.247 1_655 S
O8 Zn5 2.048 . S
O9 C1 1.258 . S
O9 Zn3 2.039 . S
O10 Zn3 2.027 1_556 S
O10 C13 1.247 . S
O11 Zn5 2.014 1_456 S
O11 C13 1.274 . S
C12 O6 1.247 . S
C12 O7 1.266 . S
C13 O10 1.247 . S
C13 O11 1.274 . S
C14 O16 1.247 . S
C14 O18 1.258 . S
C15 O22 1.247 . S
C15 O23 1.258 . S
O16 C14 1.247 . S
O16 Zn17 2.048 . S
Zn17 O16 2.048 . S
Zn17 O21 2.032 1_554 S
Zn17 O23 2.015 1_554 S
Zn17 O24 2.031 . S
O18 C14 1.258 . S
O18 Zn19 2.038 . S
Zn19 O18 2.038 . S
Zn19 O20 2.027 1_554 S
Zn19 O22 2.025 1_554 S
Zn19 O25 2.036 . S
O20 Zn19 2.027 1_556 S
O20 C26 1.247 . S
O21 Zn17 2.032 1_556 S
O21 C26 1.258 . S
O22 C15 1.247 . S
O22 Zn19 2.025 1_556 S
O23 C15 1.258 . S
O23 Zn17 2.015 1_556 S
O24 Zn17 2.031 . S
O24 C27 1.247 . S
O25 Zn19 2.036 . S
O25 C27 1.258 . S
C26 O20 1.247 . S
C26 O21 1.258 . S
C27 O24 1.247 . S
C27 O25 1.258 . S
C28 O30 1.247 . S
C28 O32 1.258 1_565 S
C29 O36 1.247 . S
C29 O37 1.258 1_545 S
O30 C28 1.247 . S
O30 Zn31 2.047 . S
Zn31 O30 2.047 . S
Zn31 O35 2.032 1_554 S
Zn31 O37 2.016 1_554 S
Zn31 O38 2.031 1_565 S
O32 C28 1.258 1_545 S
O32 Zn33 2.038 . S
Zn33 O32 2.038 . S
Zn33 O34 2.029 1_554 S
Zn33 O36 2.025 1_554 S
Zn33 O39 2.036 . S
O34 Zn33 2.029 1_556 S
O34 C40 1.237 1_545 S
O35 Zn31 2.032 1_556 S
O35 C40 1.258 . S
O36 C29 1.247 . S
O36 Zn33 2.025 1_556 S
O37 C29 1.258 1_565 S
O37 Zn31 2.016 1_556 S
O38 Zn31 2.031 1_545 S
O38 C41 1.247 . S
O39 Zn33 2.036 . S
O39 C41 1.258 . S
C40 O34 1.237 1_565 S
C40 O35 1.258 . S
C41 O38 1.247 . S
C41 O39 1.258 . S
C42 O44 1.247 1_565 S
C42 O46 1.258 . S
C43 O50 1.247 1_545 S
C43 O51 1.258 . S
O44 C42 1.247 1_545 S
O44 Zn45 2.028 . S
Zn45 O44 2.028 . S
Zn45 O49 2.049 . S
Zn45 O51 2.035 . S
Zn45 O52 2.028 . S
O46 C42 1.258 . S
O46 Zn47 2.035 . S
Zn47 O46 2.035 . S
Zn47 O48 2.028 . S
Zn47 O50 2.028 . S
Zn47 O53 2.035 1_565 S
O48 Zn47 2.028 . S
O48 C54 1.247 . S
O49 Zn45 2.049 . S
O49 C54 1.246 1_545 S
O50 C43 1.247 1_565 S
O50 Zn47 2.028 . S
O51 C43 1.258 . S
O51 Zn45 2.035 . S
O52 Zn45 2.028 . S
O52 C55 1.247 . S
O53 Zn47 2.035 1_545 S
O53 C55 1.258 . S
C54 O48 1.247 . S
C54 O49 1.246 1_565 S
C55 O52 1.247 . S
C55 O53 1.258 . S
C56 O58 1.247 1_455 S
C56 O60 1.258 . S
C57 O64 1.247 1_655 S
C57 O65 1.258 . S
O58 C56 1.247 1_655 S
O58 Zn59 2.028 . S
Zn59 O58 2.028 . S
Zn59 O63 2.032 1_655 S
Zn59 O65 2.035 . S
Zn59 O66 2.028 . S
O60 C56 1.258 . S
O60 Zn61 2.035 . S
Zn61 O60 2.035 . S
Zn61 O62 2.028 . S
Zn61 O64 2.028 . S
Zn61 O67 2.034 1_455 S
O62 Zn61 2.028 . S
O62 C68 1.247 . S
O63 Zn59 2.032 1_455 S
O63 C68 1.275 . S
O64 C57 1.247 1_455 S
O64 Zn61 2.028 . S
O65 C57 1.258 . S
O65 Zn59 2.035 . S
O66 Zn59 2.028 . S
O66 C69 1.247 . S
O67 Zn61 2.034 1_655 S
O67 C69 1.267 . S
C68 O62 1.247 . S
C68 O63 1.275 . S
C69 O66 1.247 . S
C69 O67 1.267 . S
C70 O72 1.247 . S
C70 O74 1.258 . S
C71 O78 1.247 . S
C71 O79 1.258 . S
O72 C70 1.247 . S
O72 Zn73 2.028 . S
Zn73 O72 2.028 . S
Zn73 O77 2.035 . S
Zn73 O79 2.035 . S
Zn73 O80 2.028 . S
O74 C70 1.258 . S
O74 Zn75 2.035 . S
Zn75 O74 2.035 . S
Zn75 O76 2.028 . S
Zn75 O78 2.028 . S
Zn75 O81 2.035 . S
O76 Zn75 2.028 . S
O76 C82 1.247 . S
O77 Zn73 2.035 . S
O77 C82 1.258 . S
O78 C71 1.247 . S
O78 Zn75 2.028 . S
O79 C71 1.258 . S
O79 Zn73 2.035 . S
O80 Zn73 2.028 . S
O80 C83 1.247 . S
O81 Zn75 2.035 . S
O81 C83 1.258 . S
C82 O76 1.247 . S
C82 O77 1.258 . S
C83 O80 1.247 . S
C83 O81 1.258 . S
C84 O86 1.247 . S
C84 O88 1.258 . S
C85 O92 1.247 . S
C85 O93 1.258 . S
O86 C84 1.247 . S
O86 Zn87 2.028 . S
Zn87 O86 2.028 . S
Zn87 O91 2.035 . S
Zn87 O93 2.035 . S
Zn87 O94 2.028 . S
O88 C84 1.258 . S
O88 Zn89 2.035 . S
Zn89 O88 2.035 . S
Zn89 O90 2.028 . S
Zn89 O92 2.028 . S
Zn89 O95 2.035 . S
O90 Zn89 2.028 . S
O90 C96 1.247 . S
O91 Zn87 2.035 . S
O91 C96 1.258 . S
O92 C85 1.247 . S
O92 Zn89 2.028 . S
O93 C85 1.258 . S
O93 Zn87 2.035 . S
O94 Zn87 2.028 . S
O94 C97 1.247 . S
O95 Zn89 2.035 . S
O95 C97 1.258 . S
C96 O90 1.247 . S
C96 O91 1.258 . S
C97 O94 1.247 . S
C97 O95 1.258 . S
C98 O100 1.247 . S
C98 O102 1.258 . S
C99 O106 1.247 . S
C99 O107 1.258 . S
O100 C98 1.247 . S
O100 Zn101 2.028 . S
Zn101 O100 2.028 . S
Zn101 O105 2.035 . S
Zn101 O107 2.035 . S
Zn101 O108 2.028 . S
O102 C98 1.258 . S
O102 Zn103 2.035 . S
Zn103 O102 2.035 . S
Zn103 O104 2.028 . S
Zn103 O106 2.028 . S
Zn103 O109 2.035 . S
O104 Zn103 2.028 . S
O104 C110 1.247 . S
O105 Zn101 2.035 . S
O105 C110 1.258 . S
O106 C99 1.247 . S
O106 Zn103 2.028 . S
O107 C99 1.258 . S
O107 Zn101 2.035 . S
O108 Zn101 2.028 . S
O108 C111 1.247 . S
O109 Zn103 2.035 . S
O109 C111 1.258 . S
C110 O104 1.247 . S
C110 O105 1.258 . S
C111 O108 1.247 . S
C111 O109 1.258 . S
C112 O114 1.247 . S
C112 O116 1.258 . S
C113 O120 1.247 . S
C113 O121 1.258 . S
O114 C112 1.247 . S
O114 Zn115 2.028 . S
Zn115 O114 2.028 . S
Zn115 O119 2.035 . S
Zn115 O121 2.035 . S
Zn115 O122 2.028 . S
O116 C112 1.258 . S
O116 Zn117 2.035 . S
Zn117 O116 2.035 . S
Zn117 O118 2.028 . S
Zn117 O120 2.028 . S
Zn117 O123 2.035 . S
O118 Zn117 2.028 . S
O118 C124 1.247 . S
O119 Zn115 2.035 . S
O119 C124 1.258 . S
O120 C113 1.247 . S
O120 Zn117 2.028 . S
O121 C113 1.258 . S
O121 Zn115 2.035 . S
O122 Zn115 2.028 . S
O122 C125 1.247 . S
O123 Zn117 2.035 . S
O123 C125 1.258 . S
C124 O118 1.247 . S
C124 O119 1.258 . S
C125 O122 1.247 . S
C125 O123 1.258 . S
C126 O128 1.247 . S
C126 O130 1.258 . S
C127 O134 1.247 . S
C127 O135 1.258 . S
O128 C126 1.247 . S
O128 Zn129 2.028 . S
Zn129 O128 2.028 . S
Zn129 O133 2.035 . S
Zn129 O135 2.035 . S
Zn129 O136 2.028 . S
O130 C126 1.258 . S
O130 Zn131 2.035 . S
Zn131 O130 2.035 . S
Zn131 O132 2.028 . S
Zn131 O134 2.028 . S
Zn131 O137 2.035 . S
O132 Zn131 2.028 . S
O132 C138 1.247 . S
O133 Zn129 2.035 . S
O133 C138 1.258 . S
O134 C127 1.247 . S
O134 Zn131 2.028 . S
O135 C127 1.258 . S
O135 Zn129 2.035 . S
O136 Zn129 2.028 . S
O136 C139 1.247 . S
O137 Zn131 2.035 . S
O137 C139 1.258 . S
C138 O132 1.247 . S
C138 O133 1.258 . S
C139 O136 1.247 . S
C139 O137 1.258 . S
C140 O142 1.247 . S
C140 O144 1.258 . S
C141 O148 1.247 . S
C141 O149 1.258 . S
O142 C140 1.247 . S
O142 Zn143 2.028 . S
Zn143 O142 2.028 . S
Zn143 O147 2.035 . S
Zn143 O149 2.035 . S
Zn143 O150 2.028 . S
O144 C140 1.258 . S
O144 Zn145 2.035 . S
Zn145 O144 2.035 . S
Zn145 O146 2.028 . S
Zn145 O148 2.028 . S
Zn145 O151 2.035 . S
O146 Zn145 2.028 . S
O146 C152 1.247 . S
O147 Zn143 2.035 . S
O147 C152 1.258 . S
O148 C141 1.247 . S
O148 Zn145 2.028 . S
O149 C141 1.258 . S
O149 Zn143 2.035 . S
O150 Zn143 2.028 . S
O150 C153 1.247 . S
O151 Zn145 2.035 . S
O151 C153 1.258 . S
C152 O146 1.247 . S
C152 O147 1.258 . S
C153 O150 1.247 . S
C153 O151 1.258 . S
C154 O156 1.247 . S
C154 O158 1.258 . S
C155 O162 1.247 . S
C155 O163 1.258 . S
O156 C154 1.247 . S
O156 Zn157 2.028 . S
Zn157 O156 2.028 . S
Zn157 O161 2.035 . S
Zn157 O163 2.035 . S
Zn157 O164 2.028 . S
O158 C154 1.258 . S
O158 Zn159 2.035 . S
Zn159 O158 2.035 . S
Zn159 O160 2.028 . S
Zn159 O162 2.028 . S
Zn159 O165 2.035 . S
O160 Zn159 2.028 . S
O160 C166 1.247 . S
O161 Zn157 2.035 . S
O161 C166 1.258 . S
O162 C155 1.247 . S
O162 Zn159 2.028 . S
O163 C155 1.258 . S
O163 Zn157 2.035 . S
O164 Zn157 2.028 . S
O164 C167 1.247 . S
O165 Zn159 2.035 . S
O165 C167 1.258 . S
C166 O160 1.247 . S
C166 O161 1.258 . S
C167 O164 1.247 . S
C167 O165 1.258 . S
C168 O170 1.247 . S
C168 O172 1.258 . S
C169 O176 1.247 . S
C169 O177 1.258 . S
O170 C168 1.247 . S
O170 Zn171 2.028 . S
Zn171 O170 2.028 . S
Zn171 O175 2.035 . S
Zn171 O177 2.035 . S
Zn171 O178 2.028 . S
O172 C168 1.258 . S
O172 Zn173 2.035 . S
Zn173 O172 2.035 . S
Zn173 O174 2.028 . S
Zn173 O176 2.028 . S
Zn173 O179 2.035 . S
O174 Zn173 2.028 . S
O174 C180 1.247 . S
O175 Zn171 2.035 . S
O175 C180 1.258 . S
O176 C169 1.247 . S
O176 Zn173 2.028 . S
O177 C169 1.258 . S
O177 Zn171 2.035 . S
O178 Zn171 2.028 . S
O178 C181 1.247 . S
O179 Zn173 2.035 . S
O179 C181 1.258 . S
C180 O174 1.247 . S
C180 O175 1.258 . S
C181 O178 1.247 . S
C181 O179 1.258 . S
C182 O184 1.247 . S
C182 O186 1.258 . S
C183 O190 1.247 . S
C183 O191 1.258 . S
O184 C182 1.247 . S
O184 Zn185 2.028 . S
Zn185 O184 2.028 . S
Zn185 O189 2.035 . S
Zn185 O191 2.035 . S
Zn185 O192 2.028 . S
O186 C182 1.258 . S
O186 Zn187 2.035 . S
Zn187 O186 2.035 . S
Zn187 O188 2.028 . S
Zn187 O190 2.028 . S
Zn187 O193 2.035 . S
O188 Zn187 2.028 . S
O188 C194 1.247 . S
O189 Zn185 2.035 . S
O189 C194 1.258 . S
O190 C183 1.247 . S
O190 Zn187 2.028 . S
O191 C183 1.258 . S
O191 Zn185 2.035 . S
O192 Zn185 2.028 . S
O192 C195 1.247 . S
O193 Zn187 2.035 . S
O193 C195 1.258 . S
C194 O188 1.247 . S
C194 O189 1.258 . S
C195 O192 1.247 . S
C195 O193 1.258 . S
C196 O198 1.247 . S
C196 O200 1.258 . S
C197 O204 1.247 . S
C197 O205 1.258 . S
O198 C196 1.247 . S
O198 Zn199 2.028 . S
Zn199 O198 2.028 . S
Zn199 O203 2.035 . S
Zn199 O205 2.035 . S
Zn199 O206 2.028 . S
O200 C196 1.258 . S
O200 Zn201 2.035 . S
Zn201 O200 2.035 . S
Zn201 O202 2.028 . S
Zn201 O204 2.028 . S
Zn201 O207 2.035 . S
O202 Zn201 2.028 . S
O202 C208 1.247 . S
O203 Zn199 2.035 . S
O203 C208 1.258 . S
O204 C197 1.247 . S
O204 Zn201 2.028 . S
O205 C197 1.258 . S
O205 Zn199 2.035 . S
O206 Zn199 2.028 . S
O206 C209 1.247 . S
O207 Zn201 2.035 . S
O207 C209 1.258 . S
C208 O202 1.247 . S
C208 O203 1.258 . S
C209 O206 1.247 . S
C209 O207 1.258 . S
C210 O212 1.247 . S
C210 O214 1.258 . S
C211 O218 1.247 . S
C211 O219 1.258 . S
O212 C210 1.247 . S
O212 Zn213 2.028 . S
Zn213 O212 2.028 . S
Zn213 O217 2.035 . S
Zn213 O219 2.035 . S
Zn213 O220 2.028 . S
O214 C210 1.258 . S
O214 Zn215 2.035 . S
Zn215 O214 2.035 . S
Zn215 O216 2.028 . S
Zn215 O218 2.028 . S
Zn215 O221 2.035 . S
O216 Zn215 2.028 . S
O216 C222 1.247 . S
O217 Zn213 2.035 . S
O217 C222 1.258 . S
O218 C211 1.247 . S
O218 Zn215 2.028 . S
O219 C211 1.258 . S
O219 Zn213 2.035 . S
O220 Zn213 2.028 . S
O220 C223 1.247 . S
O221 Zn215 2.035 . S
O221 C223 1.258 . S
C222 O216 1.247 . S
C222 O217 1.258 . S
C223 O220 1.247 . S
C223 O221 1.258 . S
C224 O226 1.247 . S
C224 O228 1.258 . S
C225 O232 1.247 . S
C225 O233 1.258 . S
O226 C224 1.247 . S
O226 Zn227 2.028 . S
Zn227 O226 2.028 . S
Zn227 O231 2.035 . S
Zn227 O233 2.035 . S
Zn227 O234 2.028 . S
O228 C224 1.258 . S
O228 Zn229 2.035 . S
Zn229 O228 2.035 . S
Zn229 O230 2.028 . S
Zn229 O232 2.028 . S
Zn229 O235 2.035 . S
O230 Zn229 2.028 . S
O230 C236 1.247 . S
O231 Zn227 2.035 . S
O231 C236 1.258 . S
O232 C225 1.247 . S
O232 Zn229 2.028 . S
O233 C225 1.258 . S
O233 Zn227 2.035 . S
O234 Zn227 2.028 . S
O234 C237 1.247 . S
O235 Zn229 2.035 . S
O235 C237 1.258 . S
C236 O230 1.247 . S
C236 O231 1.258 . S
C237 O234 1.247 . S
C237 O235 1.258 . S
C238 O240 1.247 . S
C238 O242 1.258 . S
C239 O246 1.247 . S
C239 O247 1.258 . S
O240 C238 1.247 . S
O240 Zn241 2.028 . S
Zn241 O240 2.028 . S
Zn241 O245 2.035 . S
Zn241 O247 2.035 . S
Zn241 O248 2.028 . S
O242 C238 1.258 . S
O242 Zn243 2.035 . S
Zn243 O242 2.035 . S
Zn243 O244 2.028 . S
Zn243 O246 2.028 . S
Zn243 O249 2.035 . S
O244 Zn243 2.028 . S
O244 C250 1.247 . S
O245 Zn241 2.035 . S
O245 C250 1.258 . S
O246 C239 1.247 . S
O246 Zn243 2.028 . S
O247 C239 1.258 . S
O247 Zn241 2.035 . S
O248 Zn241 2.028 . S
O248 C251 1.247 . S
O249 Zn243 2.035 . S
O249 C251 1.258 . S
C250 O244 1.247 . S
C250 O245 1.258 . S
C251 O248 1.247 . S
C251 O249 1.258 . S
H252 C258 0.930 . S
H253 C262 0.930 . S
H254 C267 0.929 . S
H255 C265 0.929 . S
H256 C260 0.929 . S
H257 C266 0.929 . S
C258 H252 0.930 . S
C258 C259 1.367 1_455 S
C258 C266 1.378 . S
C259 C258 1.367 1_655 S
C259 C267 1.433 . S
C260 H256 0.929 . S
C260 C262 1.378 . S
C260 C264 1.351 . S
C261 C264 1.462 1_455 S
C261 C266 1.359 . S
C261 N269 1.418 1_455 S
C262 H253 0.930 . S
C262 C260 1.378 . S
C262 C263 1.367 1_655 S
C263 C262 1.367 1_455 S
C263 C265 1.433 . S
C264 C260 1.351 . S
C264 C261 1.462 1_655 S
C264 N268 1.426 1_655 S
C265 H255 0.929 . S
C265 C263 1.433 . S
C265 N268 1.384 . S
C266 H257 0.929 . S
C266 C258 1.378 . S
C266 C261 1.359 . S
C267 H254 0.929 . S
C267 C259 1.433 . S
C267 N269 1.384 . S
N268 C264 1.426 1_455 S
N268 C265 1.384 . S
N269 C261 1.418 1_655 S
N269 C267 1.384 . S
H270 C276 0.930 . S
H271 C280 0.930 . S
H272 C285 0.929 . S
H273 C283 0.929 . S
H274 C278 0.929 . S
H275 C284 0.929 . S
C276 H270 0.930 . S
C276 C277 1.367 . S
C276 C284 1.378 . S
C277 C276 1.367 . S
C277 C285 1.433 . S
C278 H274 0.929 . S
C278 C280 1.378 . S
C278 C282 1.350 . S
C279 C282 1.463 . S
C279 C284 1.350 . S
C279 N287 1.427 . S
C280 H271 0.930 . S
C280 C278 1.378 . S
C280 C281 1.367 . S
C281 C280 1.367 . S
C281 C283 1.433 . S
C282 C278 1.350 . S
C282 C279 1.463 . S
C282 N286 1.427 . S
C283 H273 0.929 . S
C283 C281 1.433 . S
C283 N286 1.384 . S
C284 H275 0.929 . S
C284 C276 1.378 . S
C284 C279 1.350 . S
C285 H272 0.929 . S
C285 C277 1.433 . S
C285 N287 1.384 . S
N286 C282 1.427 . S
N286 C283 1.384 . S
N287 C279 1.427 . S
N287 C285 1.384 . S
H288 C294 0.930 . S
H289 C298 0.930 . S
H290 C303 0.929 . S
H291 C301 0.929 . S
H292 C296 0.929 . S
H293 C302 0.929 . S
C294 H288 0.930 . S
C294 C295 1.367 1_545 S
C294 C302 1.378 . S
C295 C294 1.367 1_565 S
C295 C303 1.433 . S
C296 H292 0.929 . S
C296 C298 1.378 . S
C296 C300 1.330 1_565 S
C297 C300 1.463 . S
C297 C302 1.350 . S
C297 N305 1.427 1_545 S
C298 H289 0.930 . S
C298 C296 1.378 . S
C298 C299 1.367 1_565 S
C299 C298 1.367 1_545 S
C299 C301 1.433 . S
C300 C296 1.330 1_545 S
C300 C297 1.463 . S
C300 N304 1.449 . S
C301 H291 0.929 . S
C301 C299 1.433 . S
C301 N304 1.384 . S
C302 H293 0.929 . S
C302 C294 1.378 . S
C302 C297 1.350 . S
C303 H290 0.929 . S
C303 C295 1.433 . S
C303 N305 1.384 . S
N304 C300 1.449 . S
N304 C301 1.384 . S
N305 C297 1.427 1_565 S
N305 C303 1.384 . S
H306 C312 0.930 . S
H307 C316 0.930 . S
H308 C321 0.929 . S
H309 C319 0.929 . S
H310 C314 0.929 . S
H311 C320 0.929 . S
C312 H306 0.930 . S
C312 C313 1.367 . S
C312 C320 1.378 . S
C313 C312 1.367 . S
C313 C321 1.433 1_455 S
C314 H310 0.929 . S
C314 C316 1.378 . S
C314 C318 1.369 . S
C315 C318 1.459 1_455 S
C315 C320 1.375 . S
C315 N323 1.404 1_455 S
C316 H307 0.930 . S
C316 C314 1.378 . S
C316 C317 1.367 . S
C317 C316 1.367 . S
C317 C319 1.433 1_655 S
C318 C314 1.369 . S
C318 C315 1.459 1_655 S
C318 N322 1.409 1_655 S
C319 H309 0.929 . S
C319 C317 1.433 1_455 S
C319 N322 1.384 . S
C320 H311 0.929 . S
C320 C312 1.378 . S
C320 C315 1.375 . S
C321 H308 0.929 . S
C321 C313 1.433 1_655 S
C321 N323 1.384 . S
N322 C318 1.409 1_455 S
N322 C319 1.384 . S
N323 C315 1.404 1_655 S
N323 C321 1.384 . S
H324 C330 0.930 . S
H325 C334 0.930 . S
H326 C339 0.929 . S
H327 C337 0.929 . S
H328 C332 0.929 . S
H329 C338 0.929 . S
C330 H324 0.930 . S
C330 C331 1.367 . S
C330 C338 1.378 . S
C331 C330 1.367 . S
C331 C339 1.433 . S
C332 H328 0.929 . S
C332 C334 1.378 . S
C332 C336 1.350 . S
C333 C336 1.463 . S
C333 C338 1.350 . S
C333 N341 1.427 . S
C334 H325 0.930 . S
C334 C332 1.378 . S
C334 C335 1.367 . S
C335 C334 1.367 . S
C335 C337 1.433 . S
C336 C332 1.350 . S
C336 C333 1.463 . S
C336 N340 1.427 . S
C337 H327 0.929 . S
C337 C335 1.433 . S
C337 N340 1.384 . S
C338 H329 0.929 . S
C338 C330 1.378 . S
C338 C333 1.350 . S
C339 H326 0.929 . S
C339 C331 1.433 . S
C339 N341 1.384 . S
N340 C336 1.427 . S
N340 C337 1.384 . S
N341 C333 1.427 . S
N341 C339 1.384 . S
H342 C348 0.930 . S
H343 C352 0.930 . S
H344 C357 0.929 . S
H345 C355 0.929 . S
H346 C350 0.929 . S
H347 C356 0.929 . S
C348 H342 0.930 . S
C348 C349 1.367 . S
C348 C356 1.378 . S
C349 C348 1.367 . S
C349 C357 1.433 1_545 S
C350 H346 0.929 . S
C350 C352 1.378 . S
C350 C354 1.352 . S
C351 C354 1.462 1_545 S
C351 C356 1.350 . S
C351 N359 1.427 1_545 S
C352 H343 0.930 . S
C352 C350 1.378 . S
C352 C353 1.367 . S
C353 C352 1.367 . S
C353 C355 1.433 1_565 S
C354 C350 1.352 . S
C354 C351 1.462 1_565 S
C354 N358 1.426 1_565 S
C355 H345 0.929 . S
C355 C353 1.433 1_545 S
C355 N358 1.384 . S
C356 H347 0.929 . S
C356 C348 1.378 . S
C356 C351 1.350 . S
C357 H344 0.929 . S
C357 C349 1.433 1_565 S
C357 N359 1.384 . S
N358 C354 1.426 1_545 S
N358 C355 1.384 . S
N359 C351 1.427 1_565 S
N359 C357 1.384 . S
H360 C366 0.930 . S
H361 C370 0.930 . S
H362 C375 0.929 . S
H363 C373 0.929 . S
H364 C368 0.929 . S
H365 C374 0.929 . S
C366 H360 0.930 . S
C366 C367 1.367 . S
C366 C374 1.378 . S
C367 C366 1.367 . S
C367 C375 1.433 . S
C368 H364 0.929 . S
C368 C370 1.378 . S
C368 C372 1.350 . S
C369 C372 1.463 . S
C369 C374 1.350 . S
C369 N377 1.427 . S
C370 H361 0.930 . S
C370 C368 1.378 . S
C370 C371 1.367 . S
C371 C370 1.367 . S
C371 C373 1.433 . S
C372 C368 1.350 . S
C372 C369 1.463 . S
C372 N376 1.427 . S
C373 H363 0.929 . S
C373 C371 1.433 . S
C373 N376 1.384 . S
C374 H365 0.929 . S
C374 C366 1.378 . S
C374 C369 1.350 . S
C375 H362 0.929 . S
C375 C367 1.433 . S
C375 N377 1.384 . S
N376 C372 1.427 . S
N376 C373 1.384 . S
N377 C369 1.427 . S
N377 C375 1.384 . S
H378 C384 0.930 . S
H379 C388 0.930 . S
H380 C393 0.929 . S
H381 C391 0.929 . S
H382 C386 0.929 . S
H383 C392 0.929 . S
C384 H378 0.930 . S
C384 C385 1.367 . S
C384 C392 1.378 . S
C385 C384 1.367 . S
C385 C393 1.433 . S
C386 H382 0.929 . S
C386 C388 1.378 . S
C386 C390 1.350 . S
C387 C390 1.463 . S
C387 C392 1.350 . S
C387 N395 1.427 . S
C388 H379 0.930 . S
C388 C386 1.378 . S
C388 C389 1.367 . S
C389 C388 1.367 . S
C389 C391 1.433 . S
C390 C386 1.350 . S
C390 C387 1.463 . S
C390 N394 1.427 . S
C391 H381 0.929 . S
C391 C389 1.433 . S
C391 N394 1.384 . S
C392 H383 0.929 . S
C392 C384 1.378 . S
C392 C387 1.350 . S
C393 H380 0.929 . S
C393 C385 1.433 . S
C393 N395 1.384 . S
N394 C390 1.427 . S
N394 C391 1.384 . S
N395 C387 1.427 . S
N395 C393 1.384 . S
H396 C402 0.930 . S
H397 C406 0.930 . S
H398 C411 0.929 . S
H399 C409 0.929 . S
H400 C404 0.929 . S
H401 C410 0.929 . S
C402 H396 0.930 . S
C402 C403 1.367 . S
C402 C410 1.378 . S
C403 C402 1.367 . S
C403 C411 1.433 . S
C404 H400 0.929 . S
C404 C406 1.378 . S
C404 C408 1.350 . S
C405 C408 1.463 . S
C405 C410 1.350 . S
C405 N413 1.427 . S
C406 H397 0.930 . S
C406 C404 1.378 . S
C406 C407 1.367 . S
C407 C406 1.367 . S
C407 C409 1.433 . S
C408 C404 1.350 . S
C408 C405 1.463 . S
C408 N412 1.427 . S
C409 H399 0.929 . S
C409 C407 1.433 . S
C409 N412 1.384 . S
C410 H401 0.929 . S
C410 C402 1.378 . S
C410 C405 1.350 . S
C411 H398 0.929 . S
C411 C403 1.433 . S
C411 N413 1.384 . S
N412 C408 1.427 . S
N412 C409 1.384 . S
N413 C405 1.427 . S
N413 C411 1.384 . S
H414 C420 0.930 . S
H415 C424 0.930 . S
H416 C429 0.929 . S
H417 C427 0.929 . S
H418 C422 0.929 . S
H419 C428 0.929 . S
C420 H414 0.930 . S
C420 C421 1.367 . S
C420 C428 1.378 . S
C421 C420 1.367 . S
C421 C429 1.433 . S
C422 H418 0.929 . S
C422 C424 1.378 1_554 S
C422 C426 1.350 . S
C423 C426 1.463 . S
C423 C428 1.350 . S
C423 N431 1.427 . S
C424 H415 0.930 . S
C424 C422 1.378 1_556 S
C424 C425 1.367 . S
C425 C424 1.367 . S
C425 C427 1.433 . S
C426 C422 1.350 . S
C426 C423 1.463 . S
C426 N430 1.427 . S
C427 H417 0.929 . S
C427 C425 1.433 . S
C427 N430 1.384 1_556 S
C428 H419 0.929 . S
C428 C420 1.378 . S
C428 C423 1.350 . S
C429 H416 0.929 . S
C429 C421 1.433 . S
C429 N431 1.384 . S
N430 C426 1.427 . S
N430 C427 1.384 1_554 S
N431 C423 1.427 . S
N431 C429 1.384 . S
H432 C438 0.930 . S
H433 C442 0.930 . S
H434 C447 0.929 . S
H435 C445 0.929 . S
H436 C440 0.929 . S
H437 C446 0.929 . S
C438 H432 0.930 . S
C438 C439 1.367 . S
C438 C446 1.378 1_556 S
C439 C438 1.367 . S
C439 C447 1.433 . S
C440 H436 0.929 . S
C440 C442 1.378 . S
C440 C444 1.350 . S
C441 C444 1.463 . S
C441 C446 1.350 . S
C441 N449 1.427 . S
C442 H433 0.930 . S
C442 C440 1.378 . S
C442 C443 1.367 . S
C443 C442 1.367 . S
C443 C445 1.433 . S
C444 C440 1.350 . S
C444 C441 1.463 . S
C444 N448 1.427 . S
C445 H435 0.929 . S
C445 C443 1.433 . S
C445 N448 1.384 . S
C446 H437 0.929 . S
C446 C438 1.378 1_554 S
C446 C441 1.350 . S
C447 H434 0.929 . S
C447 C439 1.433 . S
C447 N449 1.384 1_556 S
N448 C444 1.427 . S
N448 C445 1.384 . S
N449 C441 1.427 . S
N449 C447 1.384 1_554 S
H450 C456 0.930 . S
H451 C460 0.930 . S
H452 C465 0.929 . S
H453 C463 0.929 . S
H454 C458 0.929 . S
H455 C464 0.929 . S
C456 H450 0.930 . S
C456 C457 1.367 . S
C456 C464 1.378 1_556 S
C457 C456 1.367 . S
C457 C465 1.433 . S
C458 H454 0.929 . S
C458 C460 1.378 . S
C458 C462 1.350 . S
C459 C462 1.463 . S
C459 C464 1.350 . S
C459 N467 1.427 . S
C460 H451 0.930 . S
C460 C458 1.378 . S
C460 C461 1.367 . S
C461 C460 1.367 . S
C461 C463 1.433 . S
C462 C458 1.350 . S
C462 C459 1.463 . S
C462 N466 1.427 . S
C463 H453 0.929 . S
C463 C461 1.433 . S
C463 N466 1.384 . S
C464 H455 0.929 . S
C464 C456 1.378 1_554 S
C464 C459 1.350 . S
C465 H452 0.929 . S
C465 C457 1.433 . S
C465 N467 1.384 1_556 S
N466 C462 1.427 . S
N466 C463 1.384 . S
N467 C459 1.427 . S
N467 C465 1.384 1_554 S
H468 C474 0.930 . S
H469 C478 0.930 . S
H470 C483 0.929 . S
H471 C481 0.929 . S
H472 C476 0.929 . S
H473 C482 0.929 . S
C474 H468 0.930 . S
C474 C475 1.367 . S
C474 C482 1.378 1_554 S
C475 C474 1.367 . S
C475 C483 1.433 . S
C476 H472 0.929 . S
C476 C478 1.378 . S
C476 C480 1.350 . S
C477 C480 1.463 . S
C477 C482 1.350 . S
C477 N485 1.427 . S
C478 H469 0.930 . S
C478 C476 1.378 . S
C478 C479 1.367 . S
C479 C478 1.367 . S
C479 C481 1.433 . S
C480 C476 1.350 . S
C480 C477 1.463 . S
C480 N484 1.427 . S
C481 H471 0.929 . S
C481 C479 1.433 . S
C481 N484 1.384 . S
C482 H473 0.929 . S
C482 C474 1.378 1_556 S
C482 C477 1.350 . S
C483 H470 0.929 . S
C483 C475 1.433 . S
C483 N485 1.384 1_554 S
N484 C480 1.427 . S
N484 C481 1.384 . S
N485 C477 1.427 . S
N485 C483 1.384 1_556 S
H486 C492 0.930 . S
H487 C496 0.930 . S
H488 C501 0.929 . S
H489 C499 0.929 . S
H490 C494 0.929 . S
H491 C500 0.929 . S
C492 H486 0.930 . S
C492 C493 1.367 . S
C492 C500 1.378 . S
C493 C492 1.367 . S
C493 C501 1.433 . S
C494 H490 0.929 . S
C494 C496 1.378 1_556 S
C494 C498 1.350 . S
C495 C498 1.463 . S
C495 C500 1.350 . S
C495 N503 1.427 . S
C496 H487 0.930 . S
C496 C494 1.378 1_554 S
C496 C497 1.367 . S
C497 C496 1.367 . S
C497 C499 1.433 . S
C498 C494 1.350 . S
C498 C495 1.463 . S
C498 N502 1.427 . S
C499 H489 0.929 . S
C499 C497 1.433 . S
C499 N502 1.384 1_554 S
C500 H491 0.929 . S
C500 C492 1.378 . S
C500 C495 1.350 . S
C501 H488 0.929 . S
C501 C493 1.433 . S
C501 N503 1.384 . S
N502 C498 1.427 . S
N502 C499 1.384 1_556 S
N503 C495 1.427 . S
N503 C501 1.384 . S
H504 C510 0.930 . S
H505 C514 0.930 . S
H506 C519 0.929 . S
H507 C517 0.929 . S
H508 C512 0.929 . S
H509 C518 0.929 . S
C510 H504 0.930 . S
C510 C511 1.367 . S
C510 C518 1.378 1_554 S
C511 C510 1.367 . S
C511 C519 1.433 . S
C512 H508 0.929 . S
C512 C514 1.378 . S
C512 C516 1.350 . S
C513 C516 1.463 . S
C513 C518 1.350 . S
C513 N521 1.427 . S
C514 H505 0.930 . S
C514 C512 1.378 . S
C514 C515 1.367 . S
C515 C514 1.367 . S
C515 C517 1.433 . S
C516 C512 1.350 . S
C516 C513 1.463 . S
C516 N520 1.427 . S
C517 H507 0.929 . S
C517 C515 1.433 . S
C517 N520 1.384 . S
C518 H509 0.929 . S
C518 C510 1.378 1_556 S
C518 C513 1.350 . S
C519 H506 0.929 . S
C519 C511 1.433 . S
C519 N521 1.384 1_554 S
N520 C516 1.427 . S
N520 C517 1.384 . S
N521 C513 1.427 . S
N521 C519 1.384 1_556 S
H522 C528 0.930 . S
H523 C532 0.930 . S
H524 C537 0.929 . S
H525 C535 0.929 . S
H526 C530 0.929 . S
H527 C536 0.929 . S
C528 H522 0.930 . S
C528 C529 1.367 . S
C528 C536 1.378 . S
C529 C528 1.367 . S
C529 C537 1.433 . S
C530 H526 0.929 . S
C530 C532 1.378 . S
C530 C534 1.350 . S
C531 C534 1.463 . S
C531 C536 1.350 . S
C531 N539 1.427 . S
C532 H523 0.930 . S
C532 C530 1.378 . S
C532 C533 1.367 . S
C533 C532 1.367 . S
C533 C535 1.433 . S
C534 C530 1.350 . S
C534 C531 1.463 . S
C534 N538 1.427 . S
C535 H525 0.929 . S
C535 C533 1.433 . S
C535 N538 1.384 . S
C536 H527 0.929 . S
C536 C528 1.378 . S
C536 C531 1.350 . S
C537 H524 0.929 . S
C537 C529 1.433 . S
C537 N539 1.384 . S
N538 C534 1.427 . S
N538 C535 1.384 . S
N539 C531 1.427 . S
N539 C537 1.384 . S
H540 C546 0.930 . S
H541 C550 0.930 . S
H542 C555 0.929 . S
H543 C553 0.929 . S
H544 C548 0.929 . S
H545 C554 0.929 . S
C546 H540 0.930 . S
C546 C547 1.367 . S
C546 C554 1.378 . S
C547 C546 1.367 . S
C547 C555 1.433 . S
C548 H544 0.929 . S
C548 C550 1.378 . S
C548 C552 1.350 . S
C549 C552 1.463 . S
C549 C554 1.350 . S
C549 N557 1.427 . S
C550 H541 0.930 . S
C550 C548 1.378 . S
C550 C551 1.367 . S
C551 C550 1.367 . S
C551 C553 1.433 . S
C552 C548 1.350 . S
C552 C549 1.463 . S
C552 N556 1.427 . S
C553 H543 0.929 . S
C553 C551 1.433 . S
C553 N556 1.384 . S
C554 H545 0.929 . S
C554 C546 1.378 . S
C554 C549 1.350 . S
C555 H542 0.929 . S
C555 C547 1.433 . S
C555 N557 1.384 . S
N556 C552 1.427 . S
N556 C553 1.384 . S
N557 C549 1.427 . S
N557 C555 1.384 . S
H558 C564 0.930 . S
H559 C568 0.930 . S
H560 C573 0.929 . S
H561 C571 0.929 . S
H562 C566 0.929 . S
H563 C572 0.929 . S
C564 H558 0.930 . S
C564 C565 1.367 . S
C564 C572 1.378 . S
C565 C564 1.367 . S
C565 C573 1.433 . S
C566 H562 0.929 . S
C566 C568 1.378 . S
C566 C570 1.350 . S
C567 C570 1.463 . S
C567 C572 1.350 . S
C567 N575 1.427 . S
C568 H559 0.930 . S
C568 C566 1.378 . S
C568 C569 1.367 . S
C569 C568 1.367 . S
C569 C571 1.433 . S
C570 C566 1.350 . S
C570 C567 1.463 . S
C570 N574 1.427 . S
C571 H561 0.929 . S
C571 C569 1.433 . S
C571 N574 1.384 . S
C572 H563 0.929 . S
C572 C564 1.378 . S
C572 C567 1.350 . S
C573 H560 0.929 . S
C573 C565 1.433 . S
C573 N575 1.384 . S
N574 C570 1.427 . S
N574 C571 1.384 . S
N575 C567 1.427 . S
N575 C573 1.384 . S
H576 C582 0.930 . S
H577 C586 0.930 . S
H578 C591 0.929 . S
H579 C589 0.929 . S
H580 C584 0.929 . S
H581 C590 0.929 . S
C582 H576 0.930 . S
C582 C583 1.367 . S
C582 C590 1.378 . S
C583 C582 1.367 . S
C583 C591 1.433 . S
C584 H580 0.929 . S
C584 C586 1.378 . S
C584 C588 1.350 . S
C585 C588 1.463 . S
C585 C590 1.350 . S
C585 N593 1.427 . S
C586 H577 0.930 . S
C586 C584 1.378 . S
C586 C587 1.367 . S
C587 C586 1.367 . S
C587 C589 1.433 . S
C588 C584 1.350 . S
C588 C585 1.463 . S
C588 N592 1.427 . S
C589 H579 0.929 . S
C589 C587 1.433 . S
C589 N592 1.384 . S
C590 H581 0.929 . S
C590 C582 1.378 . S
C590 C585 1.350 . S
C591 H578 0.929 . S
C591 C583 1.433 . S
C591 N593 1.384 . S
N592 C588 1.427 . S
N592 C589 1.384 . S
N593 C585 1.427 . S
N593 C591 1.384 . S
H594 C600 0.930 . S
H595 C604 0.930 1_554 S
H596 C609 0.929 . S
H597 C607 0.929 . S
H598 C602 0.929 . S
H599 C608 0.929 . S
C600 H594 0.930 . S
C600 C601 1.367 . S
C600 C608 1.378 . S
C601 C600 1.367 . S
C601 C609 1.433 . S
C602 H598 0.929 . S
C602 C604 1.378 . S
C602 C606 1.350 . S
C603 C606 1.463 . S
C603 C608 1.350 . S
C603 N611 1.427 . S
C604 H595 0.930 1_556 S
C604 C602 1.378 . S
C604 C605 1.367 . S
C605 C604 1.367 . S
C605 C607 1.433 . S
C606 C602 1.350 . S
C606 C603 1.463 . S
C606 N610 1.427 . S
C607 H597 0.929 . S
C607 C605 1.433 . S
C607 N610 1.384 . S
C608 H599 0.929 . S
C608 C600 1.378 . S
C608 C603 1.350 . S
C609 H596 0.929 . S
C609 C601 1.433 . S
C609 N611 1.384 . S
N610 C606 1.427 . S
N610 C607 1.384 . S
N611 C603 1.427 . S
N611 C609 1.384 . S
H612 C618 0.930 . S
H613 C622 0.930 1_554 S
H614 C627 0.929 . S
H615 C625 0.929 . S
H616 C620 0.929 . S
H617 C626 0.929 . S
C618 H612 0.930 . S
C618 C619 1.367 . S
C618 C626 1.378 . S
C619 C618 1.367 . S
C619 C627 1.433 . S
C620 H616 0.929 . S
C620 C622 1.378 . S
C620 C624 1.350 . S
C621 C624 1.463 . S
C621 C626 1.350 . S
C621 N629 1.427 . S
C622 H613 0.930 1_556 S
C622 C620 1.378 . S
C622 C623 1.367 . S
C623 C622 1.367 . S
C623 C625 1.433 . S
C624 C620 1.350 . S
C624 C621 1.463 . S
C624 N628 1.427 . S
C625 H615 0.929 . S
C625 C623 1.433 . S
C625 N628 1.384 . S
C626 H617 0.929 . S
C626 C618 1.378 . S
C626 C621 1.350 . S
C627 H614 0.929 . S
C627 C619 1.433 . S
C627 N629 1.384 . S
N628 C624 1.427 . S
N628 C625 1.384 . S
N629 C621 1.427 . S
N629 C627 1.384 . S
H630 C636 0.930 . S
H631 C640 0.930 . S
H632 C645 0.929 . S
H633 C643 0.929 . S
H634 C638 0.929 . S
H635 C644 0.929 . S
C636 H630 0.930 . S
C636 C637 1.367 . S
C636 C644 1.378 . S
C637 C636 1.367 . S
C637 C645 1.433 . S
C638 H634 0.929 . S
C638 C640 1.378 . S
C638 C642 1.350 . S
C639 C642 1.463 . S
C639 C644 1.350 . S
C639 N647 1.427 . S
C640 H631 0.930 . S
C640 C638 1.378 . S
C640 C641 1.367 . S
C641 C640 1.367 . S
C641 C643 1.433 . S
C642 C638 1.350 . S
C642 C639 1.463 . S
C642 N646 1.427 . S
C643 H633 0.929 . S
C643 C641 1.433 . S
C643 N646 1.384 . S
C644 H635 0.929 . S
C644 C636 1.378 . S
C644 C639 1.350 . S
C645 H632 0.929 . S
C645 C637 1.433 . S
C645 N647 1.384 . S
N646 C642 1.427 . S
N646 C643 1.384 . S
N647 C639 1.427 . S
N647 C645 1.384 . S
H648 C654 0.930 . S
H649 C658 0.930 . S
H650 C663 0.929 . S
H651 C661 0.929 . S
H652 C656 0.929 . S
H653 C662 0.929 . S
C654 H648 0.930 . S
C654 C655 1.367 . S
C654 C662 1.378 . S
C655 C654 1.367 . S
C655 C663 1.433 . S
C656 H652 0.929 . S
C656 C658 1.378 . S
C656 C660 1.350 . S
C657 C660 1.463 . S
C657 C662 1.350 . S
C657 N665 1.427 . S
C658 H649 0.930 . S
C658 C656 1.378 . S
C658 C659 1.367 . S
C659 C658 1.367 . S
C659 C661 1.433 . S
C660 C656 1.350 . S
C660 C657 1.463 . S
C660 N664 1.427 . S
C661 H651 0.929 . S
C661 C659 1.433 . S
C661 N664 1.384 . S
C662 H653 0.929 . S
C662 C654 1.378 . S
C662 C657 1.350 . S
C663 H650 0.929 . S
C663 C655 1.433 . S
C663 N665 1.384 . S
N664 C660 1.427 . S
N664 C661 1.384 . S
N665 C657 1.427 . S
N665 C663 1.384 . S
H666 C672 0.930 . S
H667 C676 0.930 . S
H668 C681 0.929 . S
H669 C679 0.929 . S
H670 C674 0.929 . S
H671 C680 0.929 . S
C672 H666 0.930 . S
C672 C673 1.367 . S
C672 C680 1.378 . S
C673 C672 1.367 . S
C673 C681 1.433 . S
C674 H670 0.929 . S
C674 C676 1.378 . S
C674 C678 1.350 . S
C675 C678 1.463 . S
C675 C680 1.350 . S
C675 N683 1.427 . S
C676 H667 0.930 . S
C676 C674 1.378 . S
C676 C677 1.367 . S
C677 C676 1.367 . S
C677 C679 1.433 . S
C678 C674 1.350 . S
C678 C675 1.463 . S
C678 N682 1.427 . S
C679 H669 0.929 . S
C679 C677 1.433 . S
C679 N682 1.384 . S
C680 H671 0.929 . S
C680 C672 1.378 . S
C680 C675 1.350 . S
C681 H668 0.929 . S
C681 C673 1.433 . S
C681 N683 1.384 . S
N682 C678 1.427 . S
N682 C679 1.384 . S
N683 C675 1.427 . S
N683 C681 1.384 . S
H684 C690 0.930 . S
H685 C694 0.941 . S
H686 C699 0.929 . S
H687 C697 0.929 . S
H688 C692 0.929 . S
H689 C698 0.929 . S
C690 H684 0.930 . S
C690 C691 1.367 . S
C690 C698 1.378 . S
C691 C690 1.367 . S
C691 C699 1.433 . S
C692 H688 0.929 . S
C692 C694 1.378 . S
C692 C696 1.350 . S
C693 C696 1.463 . S
C693 C698 1.350 . S
C693 N701 1.427 . S
C694 H685 0.941 . S
C694 C692 1.378 . S
C694 C695 1.367 . S
C695 C694 1.367 . S
C695 C697 1.433 . S
C696 C692 1.350 . S
C696 C693 1.463 . S
C696 N700 1.427 . S
C697 H687 0.929 . S
C697 C695 1.433 . S
C697 N700 1.384 . S
C698 H689 0.929 . S
C698 C690 1.378 . S
C698 C693 1.350 . S
C699 H686 0.929 . S
C699 C691 1.433 . S
C699 N701 1.384 . S
N700 C696 1.427 . S
N700 C697 1.384 . S
N701 C693 1.427 . S
N701 C699 1.384 . S
H702 C708 0.930 . S
H703 C712 0.930 . S
H704 C717 0.929 . S
H705 C715 0.929 1_556 S
H706 C710 0.929 . S
H707 C716 0.929 . S
C708 H702 0.930 . S
C708 C709 1.367 . S
C708 C716 1.378 . S
C709 C708 1.367 . S
C709 C717 1.433 . S
C710 H706 0.929 . S
C710 C712 1.378 . S
C710 C714 1.350 . S
C711 C714 1.463 . S
C711 C716 1.350 . S
C711 N719 1.427 . S
C712 H703 0.930 . S
C712 C710 1.378 . S
C712 C713 1.367 . S
C713 C712 1.367 . S
C713 C715 1.433 . S
C714 C710 1.350 . S
C714 C711 1.463 . S
C714 N718 1.427 . S
C715 H705 0.929 1_554 S
C715 C713 1.433 . S
C715 N718 1.384 . S
C716 H707 0.929 . S
C716 C708 1.378 . S
C716 C711 1.350 . S
C717 H704 0.929 . S
C717 C709 1.433 . S
C717 N719 1.384 . S
N718 C714 1.427 . S
N718 C715 1.384 . S
N719 C711 1.427 . S
N719 C717 1.384 . S
H720 C726 0.930 . S
H721 C730 0.930 1_556 S
H722 C735 0.929 . S
H723 C733 0.929 . S
H724 C728 0.929 . S
H725 C734 0.929 . S
C726 H720 0.930 . S
C726 C727 1.367 . S
C726 C734 1.378 . S
C727 C726 1.367 . S
C727 C735 1.433 . S
C728 H724 0.929 . S
C728 C730 1.378 . S
C728 C732 1.350 . S
C729 C732 1.463 . S
C729 C734 1.350 . S
C729 N737 1.427 . S
C730 H721 0.930 1_554 S
C730 C728 1.378 . S
C730 C731 1.367 . S
C731 C730 1.367 . S
C731 C733 1.433 . S
C732 C728 1.350 . S
C732 C729 1.463 . S
C732 N736 1.427 . S
C733 H723 0.929 . S
C733 C731 1.433 . S
C733 N736 1.384 . S
C734 H725 0.929 . S
C734 C726 1.378 . S
C734 C729 1.350 . S
C735 H722 0.929 . S
C735 C727 1.433 . S
C735 N737 1.384 . S
N736 C732 1.427 . S
N736 C733 1.384 . S
N737 C729 1.427 . S
N737 C735 1.384 . S
H738 C744 0.930 . S
H739 C748 0.930 . S
H740 C753 0.929 . S
H741 C751 0.929 . S
H742 C746 0.929 . S
H743 C752 0.929 . S
C744 H738 0.930 . S
C744 C745 1.367 . S
C744 C752 1.378 . S
C745 C744 1.367 . S
C745 C753 1.433 . S
C746 H742 0.929 . S
C746 C748 1.378 . S
C746 C750 1.350 . S
C747 C750 1.463 . S
C747 C752 1.350 . S
C747 N755 1.427 . S
C748 H739 0.930 . S
C748 C746 1.378 . S
C748 C749 1.367 . S
C749 C748 1.367 . S
C749 C751 1.433 . S
C750 C746 1.350 . S
C750 C747 1.463 . S
C750 N754 1.427 . S
C751 H741 0.929 . S
C751 C749 1.433 . S
C751 N754 1.384 . S
C752 H743 0.929 . S
C752 C744 1.378 . S
C752 C747 1.350 . S
C753 H740 0.929 . S
C753 C745 1.433 . S
C753 N755 1.384 . S
N754 C750 1.427 . S
N754 C751 1.384 . S
N755 C747 1.427 . S
N755 C753 1.384 . S
H756 C762 0.930 . S
H757 C766 0.930 . S
H758 C771 0.929 . S
H759 C769 0.929 . S
H760 C764 0.929 . S
H761 C770 0.929 . S
C762 H756 0.930 . S
C762 C763 1.367 . S
C762 C770 1.378 . S
C763 C762 1.367 . S
C763 C771 1.433 . S
C764 H760 0.929 . S
C764 C766 1.378 . S
C764 C768 1.350 . S
C765 C768 1.463 . S
C765 C770 1.350 . S
C765 N773 1.427 . S
C766 H757 0.930 . S
C766 C764 1.378 . S
C766 C767 1.367 . S
C767 C766 1.367 . S
C767 C769 1.433 . S
C768 C764 1.350 . S
C768 C765 1.463 . S
C768 N772 1.427 . S
C769 H759 0.929 . S
C769 C767 1.433 . S
C769 N772 1.384 . S
C770 H761 0.929 . S
C770 C762 1.378 . S
C770 C765 1.350 . S
C771 H758 0.929 . S
C771 C763 1.433 . S
C771 N773 1.384 . S
N772 C768 1.427 . S
N772 C769 1.384 . S
N773 C765 1.427 . S
N773 C771 1.384 . S
H774 C780 0.930 . S
H775 C784 0.930 . S
H776 C789 0.929 . S
H777 C787 0.929 . S
H778 C782 0.929 . S
H779 C788 0.929 . S
C780 H774 0.930 . S
C780 C781 1.367 . S
C780 C788 1.378 . S
C781 C780 1.367 . S
C781 C789 1.433 . S
C782 H778 0.929 . S
C782 C784 1.378 . S
C782 C786 1.350 . S
C783 C786 1.463 . S
C783 C788 1.350 . S
C783 N791 1.427 . S
C784 H775 0.930 . S
C784 C782 1.378 . S
C784 C785 1.367 . S
C785 C784 1.367 . S
C785 C787 1.433 . S
C786 C782 1.350 . S
C786 C783 1.463 . S
C786 N790 1.427 . S
C787 H777 0.929 . S
C787 C785 1.433 . S
C787 N790 1.384 . S
C788 H779 0.929 . S
C788 C780 1.378 . S
C788 C783 1.350 . S
C789 H776 0.929 . S
C789 C781 1.433 . S
C789 N791 1.384 . S
N790 C786 1.427 . S
N790 C787 1.384 . S
N791 C783 1.427 . S
N791 C789 1.384 . S
H792 C798 0.930 . S
H793 C802 0.930 . S
H794 C807 0.929 . S
H795 C805 0.929 . S
H796 C800 0.929 . S
H797 C806 0.929 . S
C798 H792 0.930 . S
C798 C799 1.367 . S
C798 C806 1.378 . S
C799 C798 1.367 . S
C799 C807 1.433 . S
C800 H796 0.929 . S
C800 C802 1.378 . S
C800 C804 1.350 . S
C801 C804 1.463 . S
C801 C806 1.350 . S
C801 N809 1.427 . S
C802 H793 0.930 . S
C802 C800 1.378 . S
C802 C803 1.367 . S
C803 C802 1.367 . S
C803 C805 1.433 . S
C804 C800 1.350 . S
C804 C801 1.463 . S
C804 N808 1.427 . S
C805 H795 0.929 . S
C805 C803 1.433 . S
C805 N808 1.384 . S
C806 H797 0.929 . S
C806 C798 1.378 . S
C806 C801 1.350 . S
C807 H794 0.929 . S
C807 C799 1.433 . S
C807 N809 1.384 . S
N808 C804 1.427 . S
N808 C805 1.384 . S
N809 C801 1.427 . S
N809 C807 1.384 . S
H810 C816 0.930 . S
H811 C820 0.930 . S
H812 C825 0.929 . S
H813 C823 0.929 . S
H814 C818 0.929 . S
H815 C824 0.929 . S
C816 H810 0.930 . S
C816 C817 1.367 . S
C816 C824 1.378 . S
C817 C816 1.367 . S
C817 C825 1.433 . S
C818 H814 0.929 . S
C818 C820 1.378 . S
C818 C822 1.350 . S
C819 C822 1.463 1_545 S
C819 C824 1.350 . S
C819 N827 1.427 . S
C820 H811 0.930 . S
C820 C818 1.378 . S
C820 C821 1.367 . S
C821 C820 1.367 . S
C821 C823 1.433 . S
C822 C818 1.350 . S
C822 C819 1.463 1_565 S
C822 N826 1.427 . S
C823 H813 0.929 . S
C823 C821 1.433 . S
C823 N826 1.384 . S
C824 H815 0.929 . S
C824 C816 1.378 . S
C824 C819 1.350 . S
C825 H812 0.929 . S
C825 C817 1.433 . S
C825 N827 1.384 . S
N826 C822 1.427 . S
N826 C823 1.384 . S
N827 C819 1.427 . S
N827 C825 1.384 . S
H828 C834 0.930 . S
H829 C838 0.930 . S
H830 C843 0.929 . S
H831 C841 0.929 . S
H832 C836 0.929 . S
H833 C842 0.929 . S
C834 H828 0.930 . S
C834 C835 1.367 . S
C834 C842 1.378 . S
C835 C834 1.367 . S
C835 C843 1.433 . S
C836 H832 0.929 . S
C836 C838 1.378 . S
C836 C840 1.350 . S
C837 C840 1.463 1_455 S
C837 C842 1.350 . S
C837 N845 1.427 . S
C838 H829 0.930 . S
C838 C836 1.378 . S
C838 C839 1.367 . S
C839 C838 1.367 . S
C839 C841 1.433 . S
C840 C836 1.350 . S
C840 C837 1.463 1_655 S
C840 N844 1.427 . S
C841 H831 0.929 . S
C841 C839 1.433 . S
C841 N844 1.384 . S
C842 H833 0.929 . S
C842 C834 1.378 . S
C842 C837 1.350 . S
C843 H830 0.929 . S
C843 C835 1.433 . S
C843 N845 1.384 . S
N844 C840 1.427 . S
N844 C841 1.384 . S
N845 C837 1.427 . S
N845 C843 1.384 . S
H846 C852 0.930 . S
H847 C856 0.930 . S
H848 C861 0.929 . S
H849 C859 0.929 . S
H850 C854 0.929 . S
H851 C860 0.929 . S
C852 H846 0.930 . S
C852 C853 1.367 . S
C852 C860 1.378 . S
C853 C852 1.367 . S
C853 C861 1.433 . S
C854 H850 0.929 . S
C854 C856 1.378 . S
C854 C858 1.350 . S
C855 C858 1.463 . S
C855 C860 1.350 . S
C855 N863 1.427 . S
C856 H847 0.930 . S
C856 C854 1.378 . S
C856 C857 1.367 . S
C857 C856 1.367 . S
C857 C859 1.433 . S
C858 C854 1.350 . S
C858 C855 1.463 . S
C858 N862 1.427 . S
C859 H849 0.929 . S
C859 C857 1.433 . S
C859 N862 1.384 . S
C860 H851 0.929 . S
C860 C852 1.378 . S
C860 C855 1.350 . S
C861 H848 0.929 . S
C861 C853 1.433 . S
C861 N863 1.384 . S
N862 C858 1.427 . S
N862 C859 1.384 . S
N863 C855 1.427 . S
N863 C861 1.384 . S
H864 C870 0.930 . S
H865 C874 0.930 . S
H866 C879 0.929 . S
H867 C877 0.929 . S
H868 C872 0.929 . S
H869 C878 0.929 . S
C870 H864 0.930 . S
C870 C871 1.367 . S
C870 C878 1.378 . S
C871 C870 1.367 . S
C871 C879 1.433 . S
C872 H868 0.929 . S
C872 C874 1.378 . S
C872 C876 1.350 . S
C873 C876 1.463 1_545 S
C873 C878 1.350 . S
C873 N881 1.427 . S
C874 H865 0.930 . S
C874 C872 1.378 . S
C874 C875 1.367 . S
C875 C874 1.367 . S
C875 C877 1.433 . S
C876 C872 1.350 . S
C876 C873 1.463 1_565 S
C876 N880 1.427 . S
C877 H867 0.929 . S
C877 C875 1.433 . S
C877 N880 1.384 . S
C878 H869 0.929 . S
C878 C870 1.378 . S
C878 C873 1.350 . S
C879 H866 0.929 . S
C879 C871 1.433 . S
C879 N881 1.384 . S
N880 C876 1.427 . S
N880 C877 1.384 . S
N881 C873 1.427 . S
N881 C879 1.384 . S
H882 C888 0.930 . S
H883 C892 0.930 . S
H884 C897 0.929 . S
H885 C895 0.929 . S
H886 C890 0.929 . S
H887 C896 0.929 . S
C888 H882 0.930 . S
C888 C889 1.367 . S
C888 C896 1.378 . S
C889 C888 1.367 . S
C889 C897 1.433 . S
C890 H886 0.929 . S
C890 C892 1.378 . S
C890 C894 1.350 . S
C891 C894 1.463 1_455 S
C891 C896 1.350 . S
C891 N899 1.427 . S
C892 H883 0.930 . S
C892 C890 1.378 . S
C892 C893 1.367 . S
C893 C892 1.367 . S
C893 C895 1.433 . S
C894 C890 1.350 . S
C894 C891 1.463 1_655 S
C894 N898 1.427 . S
C895 H885 0.929 . S
C895 C893 1.433 . S
C895 N898 1.384 . S
C896 H887 0.929 . S
C896 C888 1.378 . S
C896 C891 1.350 . S
C897 H884 0.929 . S
C897 C889 1.433 . S
C897 N899 1.384 . S
N898 C894 1.427 . S
N898 C895 1.384 . S
N899 C891 1.427 . S
N899 C897 1.384 . S
C259 C57 1.220 . S
C263 C1 1.220 . S
C277 C70 1.221 . S
C281 C14 1.222 . S
C295 C28 1.221 . S
C299 C43 1.221 . S
C313 C56 1.222 . S
C317 C0 1.222 . S
C331 C71 1.222 . S
C335 C15 1.222 . S
C349 C29 1.222 . S
C353 C42 1.222 . S
C367 C153 1.222 . S
C371 C84 1.222 . S
C385 C155 1.221 . S
C389 C110 1.221 . S
C403 C112 1.222 . S
C407 C139 1.222 . S
C421 C85 1.222 . S
C425 C152 1.222 . S
C439 C154 1.222 . S
C443 C111 1.222 . S
C457 C138 1.221 . S
C461 C113 1.221 . S
C475 C237 1.222 . S
C479 C168 1.222 . S
C493 C182 1.222 . S
C497 C238 1.222 . S
C511 C211 1.221 . S
C515 C209 1.221 . S
C529 C236 1.221 . S
C533 C169 1.221 . S
C547 C239 1.221 . S
C551 C183 1.221 . S
C565 C208 1.222 . S
C569 C210 1.222 . S
C583 C13 1.527 . S
C587 C127 1.524 . S
C601 C141 1.527 . S
C605 C26 1.527 . S
C619 C167 1.527 . S
C623 C40 1.527 . S
C637 C55 1.526 . S
C641 C180 1.526 . S
C655 C194 1.525 . S
C659 C69 1.525 . S
C673 C197 1.526 . S
C677 C82 1.526 . S
C691 C222 1.526 . S
C695 C12 1.529 . S
C709 C224 1.525 . S
C713 C27 1.525 . S
C727 C251 1.527 . S
C731 C41 1.527 . S
C745 C54 1.526 . S
C749 C97 1.526 . S
C763 C68 1.527 . S
C767 C99 1.526 . S
C781 C125 1.525 . S
C785 C83 1.525 . S
C799 C223 1.525 . S
C803 C96 1.525 . S
C817 C225 1.525 . S
C821 C98 1.525 . S
C835 C124 1.527 . S
C839 C250 1.527 . S
C853 C181 1.525 . S
C857 C126 1.525 . S
C871 C195 1.527 . S
C875 C140 1.527 . S
C889 C166 1.527 . S
C893 C196 1.527 . S
