# Generated by pormake.
# Topology sra, (4)-cn, num edge types: 1
# Building blocks:
#     Node 0, Type 0, BuildingBlock: KUFVIS_clean_sbu_0, # of connection points: 4
#     Node 1, Type 0, BuildingBlock: KUFVIS_clean_sbu_0, # of connection points: 4
#     Node 2, Type 0, BuildingBlock: KUFVIS_clean_sbu_0, # of connection points: 4
#     Node 3, Type 0, BuildingBlock: KUFVIS_clean_sbu_0, # of connection points: 4
#     Node 4, Type 0, BuildingBlock: KUFVIS_clean_sbu_0, # of connection points: 4
#     Node 5, Type 0, BuildingBlock: KUFVIS_clean_sbu_0, # of connection points: 4
#     Node 6, Type 0, BuildingBlock: KUFVIS_clean_sbu_0, # of connection points: 4
#     Node 7, Type 0, BuildingBlock: KUFVIS_clean_sbu_0, # of connection points: 4
#     Edge 8, Type (0, 0), BuildingBlock: EZIPEK_clean_linker_0, # of connection points: 2
#     Edge 9, Type (0, 0), BuildingBlock: EZIPEK_clean_linker_0, # of connection points: 2
#     Edge 10, Type (0, 0), BuildingBlock: EZIPEK_clean_linker_0, # of connection points: 2
#     Edge 11, Type (0, 0), BuildingBlock: EZIPEK_clean_linker_0, # of connection points: 2
#     Edge 12, Type (0, 0), BuildingBlock: EZIPEK_clean_linker_0, # of connection points: 2
#     Edge 13, Type (0, 0), BuildingBlock: EZIPEK_clean_linker_0, # of connection points: 2
#     Edge 14, Type (0, 0), BuildingBlock: EZIPEK_clean_linker_0, # of connection points: 2
#     Edge 15, Type (0, 0), BuildingBlock: EZIPEK_clean_linker_0, # of connection points: 2
#     Edge 16, Type (0, 0), BuildingBlock: EZIPEK_clean_linker_0, # of connection points: 2
#     Edge 17, Type (0, 0), BuildingBlock: EZIPEK_clean_linker_0, # of connection points: 2
#     Edge 18, Type (0, 0), BuildingBlock: EZIPEK_clean_linker_0, # of connection points: 2
#     Edge 19, Type (0, 0), BuildingBlock: EZIPEK_clean_linker_0, # of connection points: 2
#     Edge 20, Type (0, 0), BuildingBlock: EZIPEK_clean_linker_0, # of connection points: 2
#     Edge 21, Type (0, 0), BuildingBlock: EZIPEK_clean_linker_0, # of connection points: 2
#     Edge 22, Type (0, 0), BuildingBlock: EZIPEK_clean_linker_0, # of connection points: 2
#     Edge 23, Type (0, 0), BuildingBlock: EZIPEK_clean_linker_0, # of connection points: 2
# Relax obj value: 0.056
# Max RMSD: 0.084
# Mean RMSD: 0.084
data_MOF--net-sra--node1-KUFVIS_clean_sbu_0--edge1-EZIPEK_clean_linker_0
_symmetry_space_group_name_H-M    P1
_symmetry_Int_Tables_number       1
_symmetry_cell_setting            triclinic
loop_
_symmetry_equiv_pos_as_xyz
'x, y, z'
_cell_length_a     19.585395
_cell_length_b     37.926797
_cell_length_c     24.104108
_cell_angle_alpha  89.794244
_cell_angle_beta   90.417491
_cell_angle_gamma 90.002796
loop_
_atom_site_label
_atom_site_type_symbol
_atom_site_fract_x
_atom_site_fract_y
_atom_site_fract_z
_atom_type_partial_charge
Mn0 Mn 0.98704 0.13258 0.16689 0.0
Mn1 Mn -0.00452 0.0508 0.22197 0.0
C2 C 0.88607 0.10516 0.1979 0.0
C3 C -0.00416 0.19393 0.17466 0.0
C4 C 0.00821 0.06611 0.09832 0.0
O5 O 0.08871 0.12641 0.18632 0.0
O6 O 0.0825 0.07568 0.23475 0.0
C7 C 0.0106 0.06662 0.3417 0.0
N8 N 0.97639 0.05037 0.29952 0.0
C9 C 0.91028 1.01611 0.36373 0.0
C10 C 0.9434 0.03311 0.40794 0.0
C11 C -0.00658 0.0587 0.39684 0.0
C12 C 0.92677 0.02656 0.30971 0.0
H13 H 0.05067 0.08542 0.33326 0.0
C14 C 0.11498 0.10283 0.21797 0.0
O15 O 0.006 0.17798 0.12806 0.0
O16 O 0.98096 0.17444 0.21734 0.0
N17 N 0.91494 0.02312 0.21368 0.0
C18 C 0.89095 1.00784 0.16633 0.0
C19 C 0.84873 0.97819 0.16992 0.0
C20 C 0.83171 0.96455 0.2221 0.0
C21 C 0.85291 0.98209 0.27038 0.0
C22 C 0.89585 1.01127 0.26421 0.0
H23 H 0.90691 1.01686 0.12603 0.0
O24 O 0.88449 0.13093 0.16223 0.0
O25 O 0.94711 0.09597 0.21391 0.0
O26 O -0.00467 0.09896 0.10086 0.0
O27 O 0.01517 0.04669 0.14136 0.0
C28 C 0.83696 0.97041 0.32435 0.0
C29 C 0.86394 0.9881 0.37101 0.0
H30 H 0.93184 0.02624 0.45052 0.0
H31 H 0.01982 0.07165 0.4307 0.0
H32 H 0.83191 0.96494 0.13255 0.0
H33 H 0.80405 0.93996 0.22428 0.0
H34 H 0.80455 0.94762 0.3305 0.0
H35 H 0.85096 0.979 0.41227 0.0
Mn36 Mn 0.02089 0.40828 0.17865 0.0
Mn37 Mn 0.0121 0.48529 0.24916 0.0
C38 C 0.1222 0.4335 0.21335 0.0
C39 C 0.01261 0.3467 0.17842 0.0
C40 C 0.00355 0.48071 0.12266 0.0
O41 O 0.91928 0.41212 0.19606 0.0
O42 O 0.92399 0.46075 0.24805 0.0
C43 C 0.98484 0.45379 0.35947 0.0
N44 N 0.02233 0.47572 0.32667 0.0
C45 C 0.08379 0.49813 0.40565 0.0
C46 C 0.04634 0.47563 0.44024 0.0
C47 C -0.00296 0.45312 0.41694 0.0
C48 C 0.07161 0.49642 0.34834 0.0
H49 H 0.94591 0.43693 0.34193 0.0
C50 C 0.89173 0.43465 0.22778 0.0
O51 O 0.00234 0.36509 0.13364 0.0
O52 O 0.02766 0.36386 0.2233 0.0
N53 N 0.09199 0.51376 0.25692 0.0
C54 C 0.11458 0.53799 0.21944 0.0
C55 C 0.15525 0.56617 0.2372 0.0
C56 C 0.17219 0.56946 0.29356 0.0
C57 C 0.14978 0.54414 0.33148 0.0
C58 C 0.1072 0.51727 0.31165 0.0
H59 H 0.09713 0.53766 0.17707 0.0
O60 O 0.12253 0.41002 0.17433 0.0
O61 O 0.06167 0.44145 0.23185 0.0
O62 O 0.01151 0.44732 0.11923 0.0
O63 O 0.00187 0.49743 0.16879 0.0
C64 C 0.16317 0.54642 0.38888 0.0
C65 C 0.13121 0.52291 0.4259 0.0
H66 H 0.0544 0.47575 0.48476 0.0
H67 H 0.96768 0.43576 0.44333 0.0
H68 H 0.17116 0.58612 0.2078 0.0
H69 H 0.20062 0.59226 0.30763 0.0
H70 H 0.19671 0.56669 0.4051 0.0
H71 H 0.14145 0.52503 0.46999 0.0
Mn72 Mn 0.97819 0.9096 0.84502 0.0
Mn73 Mn 0.98514 0.98532 0.7702 0.0
C74 C 0.87598 0.93345 0.80951 0.0
C75 C 0.98826 0.84807 0.84859 0.0
C76 C -0.00111 0.98227 0.89662 0.0
O77 O 0.07948 0.91447 0.82689 0.0
O78 O 0.07187 0.95975 0.76726 0.0
C79 C 0.00351 0.95468 0.6585 0.0
N80 N 0.9685 0.97621 0.69341 0.0
C81 C 0.90272 1.00024 0.6177 0.0
C82 C 0.9371 0.9779 0.58104 0.0
C83 C 0.98739 0.95482 0.60163 0.0
C84 C 0.91857 0.99766 0.67436 0.0
H85 H 0.04339 0.93751 0.67393 0.0
C86 C 0.10528 0.93514 0.79098 0.0
O87 O -0.00163 0.86733 0.89223 0.0
O88 O 0.97267 0.86434 0.80279 0.0
N89 N 0.90581 1.01449 0.76674 0.0
C90 C 0.88712 0.0386 0.80555 0.0
C91 C 0.84698 0.06756 0.79007 0.0
C92 C 0.82591 0.07157 0.73473 0.0
C93 C 0.84422 0.0463 0.69546 0.0
C94 C 0.88671 1.01864 0.7129 0.0
H95 H 0.9071 0.0375 0.84717 0.0
O96 O 0.87657 0.91049 0.84955 0.0
O97 O 0.93615 0.94171 0.79057 0.0
O98 O 0.98656 0.9494 0.90236 0.0
O99 O 0.00255 0.99775 0.84944 0.0
C100 C 0.82687 0.04928 0.63879 0.0
C101 C 0.85508 0.02578 0.60004 0.0
H102 H 0.92608 0.97865 0.53694 0.0
H103 H 0.01459 0.9377 0.57359 0.0
H104 H 0.83423 0.08741 0.82044 0.0
H105 H 0.79711 0.09476 0.72262 0.0
H106 H 0.79329 0.07014 0.62439 0.0
H107 H 0.84197 0.02852 0.55649 0.0
Mn108 Mn 0.01087 0.63347 0.85523 0.0
Mn109 Mn 0.00247 0.55421 0.79142 0.0
C110 C 0.11153 0.60733 0.82143 0.0
C111 C 0.00289 0.69512 0.85315 0.0
C112 C -0.00463 0.56316 0.9173 0.0
O113 O 0.90894 0.62873 0.83682 0.0
O114 O 0.91435 0.57873 0.78796 0.0
C115 C 0.97532 0.57958 0.67685 0.0
N116 N 0.01317 0.55988 0.71315 0.0
C117 C 0.07457 0.53285 0.63855 0.0
C118 C 0.03702 0.55315 0.60037 0.0
C119 C 0.98754 0.57685 0.61968 0.0
C120 C 0.06237 0.53794 0.69516 0.0
H121 H 0.93611 0.59723 0.69139 0.0
C122 C 0.88174 0.60535 0.80582 0.0
O123 O -0.00699 0.67733 0.89837 0.0
O124 O 0.0171 0.67731 0.80879 0.0
N125 N 0.08347 0.52642 0.78886 0.0
C126 C 0.11011 0.50635 0.83071 0.0
C127 C 0.15129 0.47735 0.81789 0.0
C128 C 0.1654 0.46955 0.76224 0.0
C129 C 0.14116 0.49172 0.72007 0.0
C130 C 0.09802 0.51939 0.73513 0.0
H131 H 0.09679 0.51108 0.87341 0.0
O132 O 0.11314 0.63148 0.85947 0.0
O133 O 0.05059 0.599 0.80409 0.0
O134 O 0.00239 0.59659 0.91747 0.0
O135 O -0.00817 0.54505 0.87262 0.0
C136 C 0.15416 0.48585 0.6634 0.0
C137 C 0.12203 0.50697 0.62266 0.0
H138 H 0.04507 0.55039 0.55618 0.0
H139 H 0.95799 0.59247 0.59052 0.0
H140 H 0.17032 0.4604 0.85073 0.0
H141 H 0.19423 0.44611 0.75217 0.0
H142 H 0.18795 0.46481 0.65068 0.0
H143 H 0.13222 0.5022 0.57921 0.0
Mn144 Mn 0.47219 0.63113 0.67369 0.0
Mn145 Mn 0.4821 0.55817 0.75383 0.0
C146 C 0.37243 0.60794 0.7127 0.0
C147 C 0.48152 0.69246 0.66519 0.0
C148 C 0.49213 0.55652 0.62707 0.0
O149 O 0.57437 0.62734 0.69134 0.0
O150 O 0.57026 0.58258 0.75232 0.0
C151 C 0.5087 0.5914 0.86301 0.0
N152 N 0.47108 0.5693 0.83048 0.0
C153 C 0.41317 0.54548 0.90984 0.0
C154 C 0.45049 0.5683 0.94422 0.0
C155 C 0.49804 0.59161 0.9206 0.0
C156 C 0.42392 0.5476 0.85258 0.0
H157 H 0.54678 0.60854 0.84515 0.0
C158 C 0.60224 0.60704 0.72717 0.0
O159 O 0.49003 0.6719 0.62289 0.0
O160 O 0.46745 0.67761 0.71228 0.0
N161 N 0.40057 0.53131 0.76143 0.0
C162 C 0.36828 0.5115 0.72243 0.0
C163 C 0.3269 0.48338 0.7394 0.0
C164 C 0.31693 0.47714 0.79631 0.0
C165 C 0.34446 0.50035 0.8354 0.0
C166 C 0.38798 0.52675 0.81609 0.0
H167 H 0.37623 0.5164 0.67891 0.0
O168 O 0.37005 0.62936 0.6706 0.0
O169 O 0.43354 0.60115 0.73144 0.0
O170 O 0.47943 0.5893 0.61944 0.0
O171 O 0.49539 0.54281 0.67556 0.0
C172 C 0.33351 0.49712 0.89292 0.0
C173 C 0.3669 0.52015 0.93009 0.0
H174 H 0.44359 0.56788 0.98877 0.0
H175 H 0.52743 0.60913 0.94685 0.0
H176 H 0.30438 0.46605 0.70879 0.0
H177 H 0.28874 0.45421 0.80986 0.0
H178 H 0.2997 0.47698 0.90897 0.0
H179 H 0.35789 0.51756 0.97416 0.0
Mn180 Mn 0.5113 0.90654 0.66461 0.0
Mn181 Mn 0.50688 0.98275 0.73722 0.0
C182 C 0.61251 0.93081 0.70023 0.0
C183 C 0.50264 0.845 0.66041 0.0
C184 C 0.4984 0.98045 0.61111 0.0
O185 O 0.41069 0.91038 0.684 0.0
O186 O 0.41648 0.96023 0.73352 0.0
C187 C 0.47395 0.95066 0.84624 0.0
N188 N 0.51417 0.97194 0.81459 0.0
C189 C 0.57668 0.99162 0.89491 0.0
C190 C 0.53624 0.96983 0.92837 0.0
C191 C 0.48502 0.94902 0.90383 0.0
C192 C 0.56503 0.99107 0.83751 0.0
H193 H 0.43368 0.93511 0.82774 0.0
C194 C 0.38364 0.93389 0.71427 0.0
O195 O 0.49164 0.86458 0.61703 0.0
O196 O 0.51874 0.86093 0.7062 0.0
N197 N 0.58984 1.00828 0.74692 0.0
C198 C 0.61981 0.03016 0.70942 0.0
C199 C 0.66474 0.05631 0.72805 0.0
C200 C 0.67977 0.05919 0.78492 0.0
C201 C 0.65101 0.03543 0.82252 0.0
C202 C 0.60392 1.01101 0.80185 0.0
H203 H 0.60642 0.02916 0.66594 0.0
O204 O 0.61323 0.90856 0.65943 0.0
O205 O 0.55232 0.93825 0.71925 0.0
O206 O 0.50011 0.9468 0.60765 0.0
O207 O 0.50093 0.99661 0.65757 0.0
C208 C 0.66349 0.03676 0.88015 0.0
C209 C 0.6272 1.01437 0.91627 0.0
H210 H 0.5437 0.96909 0.97295 0.0
H211 H 0.45345 0.93218 0.92934 0.0
H212 H 0.68546 0.07503 0.69874 0.0
H213 H 0.71112 0.08067 0.79974 0.0
H214 H 0.7003 0.05519 0.89715 0.0
H215 H 0.63733 1.01548 0.96046 0.0
Mn216 Mn 0.48601 0.40754 0.35756 0.0
Mn217 Mn 0.49219 0.48601 0.29116 0.0
C218 C 0.38509 0.43281 0.32226 0.0
C219 C 0.49598 0.34596 0.35461 0.0
C220 C 0.49907 0.47857 0.41756 0.0
O221 O 0.58777 0.41298 0.34154 0.0
O222 O 0.58147 0.46222 0.29044 0.0
C223 C 0.52061 0.45856 0.17857 0.0
N224 N 0.48197 0.47863 0.2131 0.0
C225 C 0.41698 0.50183 0.13627 0.0
C226 C 0.4556 0.48123 0.09991 0.0
C227 C 0.5073 0.45927 0.12124 0.0
C228 C 0.43071 0.49888 0.19322 0.0
H229 H 0.56124 0.4421 0.1946 0.0
C230 C 0.61467 0.43598 0.3099 0.0
O231 O 0.50421 0.36327 0.40055 0.0
O232 O 0.48206 0.36438 0.3105 0.0
N233 N 0.40991 0.51271 0.28578 0.0
C234 C 0.38197 0.5333 0.32584 0.0
C235 C 0.33759 0.56066 0.31054 0.0
C236 C 0.32166 0.56626 0.25431 0.0
C237 C 0.34756 0.54356 0.21412 0.0
C238 C 0.39396 0.51773 0.23152 0.0
H239 H 0.39651 0.53031 0.36887 0.0
O240 O 0.38365 0.4086 0.3604 0.0
O241 O 0.44579 0.44134 0.3055 0.0
O242 O 0.49342 0.44499 0.4187 0.0
O243 O 0.50122 0.49629 0.37218 0.0
C244 C 0.33293 0.54725 0.15707 0.0
C245 C 0.36662 0.52585 0.11821 0.0
H246 H 0.44648 0.48235 0.05554 0.0
H247 H 0.53754 0.44336 0.09348 0.0
H248 H 0.31775 0.5782 0.34186 0.0
H249 H 0.29119 0.58878 0.24208 0.0
H250 H 0.29651 0.56679 0.14259 0.0
H251 H 0.35506 0.52893 0.07449 0.0
Mn252 Mn 0.5275 0.13095 0.34701 0.0
Mn253 Mn 0.5144 0.05603 0.27578 0.0
C254 C 0.62692 0.10672 0.30876 0.0
C255 C 0.51695 0.19273 0.34621 0.0
C256 C 0.50159 0.06047 0.40218 0.0
O257 O 0.42425 0.12431 0.33298 0.0
O258 O 0.42954 0.0835 0.26614 0.0
C259 C 0.50231 0.07925 0.15865 0.0
N260 N 0.53517 0.06021 0.19876 0.0
C261 C 0.59826 0.02775 0.13059 0.0
C262 C 0.5666 0.04768 0.08856 0.0
C263 C 0.5188 0.07374 0.1027 0.0
C264 C 0.58222 0.03565 0.18562 0.0
H265 H 0.46368 0.09834 0.16934 0.0
C266 C 0.39618 0.10579 0.29493 0.0
O267 O 0.51003 0.1745 0.39157 0.0
O268 O 0.52935 0.17511 0.30145 0.0
N269 N 0.59365 0.0272 0.28072 0.0
C270 C 0.62176 1.0117 0.32637 0.0
C271 C 0.66321 0.98198 0.31991 0.0
C272 C 0.67697 0.9695 0.26642 0.0
C273 C 0.65448 0.98866 0.21984 0.0
C274 C 0.61177 1.01747 0.2291 0.0
H275 H 0.6104 0.02111 0.36736 0.0
O276 O 0.63026 0.13031 0.34758 0.0
O277 O 0.56522 0.09882 0.29291 0.0
O278 O 0.52417 0.09196 0.40693 0.0
O279 O 0.4908 0.04659 0.35479 0.0
C280 C 0.66981 0.97941 0.16471 0.0
C281 C 0.6431 0.99951 0.12013 0.0
H282 H 0.57767 0.04279 0.04531 0.0
H283 H 0.49348 0.0889 0.07049 0.0
H284 H 0.68242 0.96804 0.35603 0.0
H285 H 0.70388 0.94491 0.26193 0.0
H286 H 0.70186 0.95687 0.15607 0.0
H287 H 0.65573 0.99237 0.07795 0.0
C288 C 0.94331 0.2909 0.17428 0.0
C289 C 0.00813 0.30756 0.17822 0.0
C290 C 0.06438 0.24964 0.18414 0.0
C291 C -0.00019 0.233 0.17805 0.0
N292 N 0.87863 0.23677 0.16144 0.0
N293 N 0.13087 0.30379 0.18115 0.0
C294 C 0.93941 0.25338 0.17177 0.0
C295 C 0.06884 0.28718 0.18202 0.0
N296 N 0.88538 0.31104 0.17428 0.0
N297 N 0.12138 0.2294 0.19228 0.0
H298 H 0.13605 0.33115 0.17992 0.0
H299 H 0.17743 0.29079 0.17809 0.0
H300 H 0.12051 0.20196 0.19021 0.0
H301 H 0.16891 0.23936 0.2037 0.0
H302 H 0.83634 0.30087 0.17833 0.0
H303 H 0.88633 0.33852 0.17335 0.0
H304 H 0.8339 0.24979 0.1501 0.0
H305 H 0.87352 0.20939 0.16096 0.0
C306 C 0.93092 0.78885 0.85138 0.0
C307 C -0.00783 0.80891 0.85132 0.0
C308 C 0.0603 0.75438 0.85571 0.0
C309 C -0.00085 0.73431 0.85273 0.0
N310 N 0.87651 0.7312 0.84793 0.0
N311 N 0.11493 0.81199 0.85307 0.0
C312 C 0.93447 0.75125 0.8508 0.0
C313 C 0.05685 0.79197 0.85367 0.0
N314 N 0.86945 0.80592 0.85417 0.0
N315 N 0.12142 0.73733 0.86245 0.0
H316 H 0.11419 0.83942 0.85554 0.0
H317 H 0.16389 0.80193 0.84819 0.0
H318 H 0.12579 0.70992 0.8633 0.0
H319 H 0.16766 0.74989 0.87021 0.0
H320 H 0.8227 0.79341 0.85932 0.0
H321 H 0.86504 0.83332 0.85446 0.0
H322 H 0.82796 0.74114 0.83992 0.0
H323 H 0.8771 0.70383 0.85186 0.0
C324 C 0.42647 0.75221 0.66058 0.0
C325 C 0.4868 0.73146 0.66004 0.0
C326 C 0.55679 0.78517 0.65288 0.0
C327 C 0.49686 0.80594 0.65789 0.0
N328 N 0.37486 0.81035 0.66711 0.0
N329 N 0.60942 0.72714 0.65724 0.0
C330 C 0.43166 0.78973 0.6616 0.0
C331 C 0.55201 0.74767 0.65619 0.0
N332 N 0.36419 0.73589 0.65821 0.0
N333 N 0.61799 0.80143 0.64335 0.0
H334 H 0.60773 0.69968 0.65646 0.0
H335 H 0.65876 0.73697 0.66151 0.0
H336 H 0.62331 0.82878 0.64138 0.0
H337 H 0.66279 0.78815 0.6337 0.0
H338 H 0.31801 0.74907 0.65309 0.0
H339 H 0.35862 0.70854 0.65762 0.0
H340 H 0.3267 0.80074 0.67698 0.0
H341 H 0.37632 0.83776 0.66399 0.0
C342 C 0.55961 0.28944 0.3764 0.0
C343 C 0.50219 0.30675 0.35229 0.0
C344 C 0.46275 0.25009 0.3149 0.0
C345 C 0.51392 0.23211 0.34609 0.0
N346 N 0.60985 0.23481 0.40955 0.0
N347 N 0.39111 0.30189 0.30874 0.0
C348 C 0.56158 0.25184 0.3782 0.0
C349 C 0.45161 0.28664 0.32419 0.0
N350 N 0.61439 0.30876 0.39436 0.0
N351 N 0.42531 0.23271 0.2756 0.0
H352 H 0.37909 0.3281 0.31715 0.0
H353 H 0.34985 0.28751 0.29327 0.0
H354 H 0.43265 0.20628 0.26602 0.0
H355 H 0.39206 0.24552 0.24825 0.0
H356 H 0.66053 0.29752 0.40688 0.0
H357 H 0.61668 0.33615 0.39128 0.0
H358 H 0.63994 0.24753 0.43916 0.0
H359 H 0.61763 0.20764 0.40813 0.0
C360 C 0.2892 0.07456 0.26843 0.0
C361 C 0.32064 0.10675 0.28427 0.0
C362 C 0.21122 0.13654 0.26509 0.0
C363 C 0.18702 0.10585 0.23748 0.0
N364 N 0.21153 0.04707 0.20424 0.0
N365 N 0.30911 0.16996 0.29651 0.0
C366 C 0.22868 0.07532 0.23647 0.0
C367 C 0.28106 0.13831 0.28245 0.0
N368 N 0.31553 0.04304 0.286 0.0
N369 N 0.1669 0.16296 0.27827 0.0
H370 H 0.3574 0.17257 0.31391 0.0
H371 H 0.28487 0.19395 0.28857 0.0
H372 H 0.11481 0.16177 0.26933 0.0
H373 H 0.18048 0.18428 0.30317 0.0
H374 H 0.29115 0.01903 0.27872 0.0
H375 H 0.35636 0.04141 0.31397 0.0
H376 H 0.24393 0.02553 0.19902 0.0
H377 H 0.16885 0.04685 0.1782 0.0
C378 C 0.71906 0.40037 0.27923 0.0
C379 C 0.68749 0.43316 0.29249 0.0
C380 C 0.78127 0.46386 0.24716 0.0
C381 C 0.81863 0.43205 0.2432 0.0
N382 N 0.82744 0.37053 0.26987 0.0
N383 N 0.70456 0.49595 0.30523 0.0
C384 C 0.78897 0.40027 0.26322 0.0
C385 C 0.72346 0.46489 0.28137 0.0
N386 N 0.68279 0.36963 0.27905 0.0
N387 N 0.80049 0.49317 0.21809 0.0
H388 H 0.6666 0.49735 0.33515 0.0
H389 H 0.73278 0.51911 0.30074 0.0
H390 H 0.84065 0.49296 0.18988 0.0
H391 H 0.77136 0.51619 0.21735 0.0
H392 H 0.70344 0.34593 0.26515 0.0
H393 H 0.63059 0.36826 0.28635 0.0
H394 H 0.80868 0.3478 0.28887 0.0
H395 H 0.87964 0.36972 0.26209 0.0
C396 C 0.21415 0.96443 0.76587 0.0
C397 C 0.1782 0.93258 0.7756 0.0
C398 C 0.28033 0.89982 0.749 0.0
C399 C 0.31063 0.93165 0.72977 0.0
N400 N 0.29292 0.9927 0.7042 0.0
N401 N 0.17308 0.86945 0.76099 0.0
C402 C 0.27328 0.96351 0.73324 0.0
C403 C 0.20992 0.89994 0.76286 0.0
N404 N 0.19309 0.99548 0.78866 0.0
N405 N 0.31848 0.87014 0.75713 0.0
H406 H 0.12041 0.86873 0.76659 0.0
H407 H 0.19395 0.84567 0.74764 0.0
H408 H 0.37121 0.86951 0.75197 0.0
H409 H 0.29851 0.84735 0.77514 0.0
H410 H 0.22119 1.01873 0.78509 0.0
H411 H 0.15267 0.99696 0.81651 0.0
H412 H 0.26407 1.01582 0.7031 0.0
H413 H 0.33276 0.99201 0.67581 0.0
C414 C 0.70922 0.64133 0.75439 0.0
C415 C 0.67628 0.60924 0.74003 0.0
C416 C 0.77136 0.57642 0.77998 0.0
C417 C 0.80914 0.60808 0.78734 0.0
N418 N 0.81892 0.66993 0.76265 0.0
N419 N 0.68958 0.54707 0.72127 0.0
C420 C 0.7797 0.64052 0.76924 0.0
C421 C 0.71194 0.57706 0.74685 0.0
N422 N 0.67358 0.67219 0.75635 0.0
N423 N 0.79032 0.54588 0.806 0.0
H424 H 0.64822 0.54699 0.69369 0.0
H425 H 0.7172 0.52355 0.72237 0.0
H426 H 0.83057 0.54457 0.83435 0.0
H427 H 0.76066 0.52305 0.8045 0.0
H428 H 0.69512 0.69554 0.77107 0.0
H429 H 0.62125 0.67367 0.74871 0.0
H430 H 0.79975 0.69324 0.74553 0.0
H431 H 0.87177 0.66978 0.76772 0.0
C432 C 0.7373 0.94525 0.69764 0.0
C433 C 0.67777 0.93962 0.72949 0.0
C434 C 0.74894 0.94251 0.81327 0.0
C435 C 0.80937 0.94117 0.78091 0.0
N436 N 0.85299 0.9252 0.69053 0.0
N437 N 0.63469 0.91955 0.81823 0.0
C438 C 0.80206 0.93869 0.7223 0.0
C439 C 0.6851 0.93496 0.78773 0.0
N440 N 0.73228 0.95503 0.64329 0.0
N441 N 0.75227 0.94901 0.86882 0.0
H442 H 0.58985 0.90964 0.80092 0.0
H443 H 0.6411 0.91291 0.85997 0.0
H444 H 0.79793 0.95427 0.88941 0.0
H445 H 0.70881 0.95207 0.89304 0.0
H446 H 0.77511 0.96036 0.61923 0.0
H447 H 0.68554 0.96118 0.62462 0.0
H448 H 0.84665 0.92038 0.64822 0.0
H449 H 0.89771 0.91468 0.7073 0.0
C450 C 0.30075 0.60294 0.80013 0.0
C451 C 0.30769 0.59865 0.74193 0.0
C452 C 0.18307 0.59914 0.73398 0.0
C453 C 0.1766 0.59762 0.79273 0.0
N454 N 0.23411 0.58645 0.87982 0.0
N455 N 0.25246 0.58198 0.65604 0.0
C456 C 0.23719 0.59505 0.82504 0.0
C457 C 0.24782 0.59252 0.7099 0.0
N458 N 0.35096 0.61835 0.83111 0.0
N459 N 0.13101 0.61116 0.70119 0.0
H460 H 0.29921 0.57609 0.63769 0.0
H461 H 0.20948 0.5756 0.6323 0.0
H462 H 0.08573 0.62115 0.71703 0.0
H463 H 0.13649 0.61509 0.6586 0.0
H464 H 0.34472 0.62418 0.87303 0.0
H465 H 0.39506 0.62895 0.81391 0.0
H466 H 0.27772 0.58312 0.90437 0.0
H467 H 0.18851 0.57862 0.89802 0.0
C468 C 0.75094 0.08999 0.31071 0.0
C469 C 0.69077 0.09625 0.27908 0.0
C470 C 0.76037 0.09236 0.19523 0.0
C471 C 0.82134 0.09493 0.22705 0.0
N472 N 0.86899 0.10678 0.31835 0.0
N473 N 0.64544 0.11433 0.18959 0.0
C474 C 0.81569 0.09594 0.28593 0.0
C475 C 0.69682 0.09987 0.22061 0.0
N476 N 0.74652 0.07995 0.36494 0.0
N477 N 0.7631 0.08401 0.14041 0.0
H478 H 0.60092 0.12433 0.20684 0.0
H479 H 0.65074 0.11993 0.14744 0.0
H480 H 0.80885 0.07705 0.12164 0.0
H481 H 0.71932 0.08004 0.11631 0.0
H482 H 0.78939 0.07289 0.38842 0.0
H483 H 0.69973 0.07516 0.38404 0.0
H484 H 0.86445 0.11053 0.361 0.0
H485 H 0.91479 0.11602 0.30228 0.0
C486 C 0.24878 0.44467 0.20899 0.0
C487 C 0.18853 0.44236 0.24154 0.0
C488 C 0.26074 0.44763 0.32455 0.0
C489 C 0.32038 0.4425 0.29274 0.0
N490 N 0.36483 0.42425 0.20376 0.0
N491 N 0.14539 0.42709 0.3326 0.0
C492 C 0.31327 0.43829 0.23444 0.0
C493 C 0.19608 0.44043 0.30022 0.0
N494 N 0.2448 0.45097 0.15334 0.0
N495 N 0.26575 0.45759 0.37869 0.0
H496 H 0.10056 0.41642 0.31643 0.0
H497 H 0.15188 0.42268 0.37506 0.0
H498 H 0.31252 0.46407 0.39692 0.0
H499 H 0.22296 0.46289 0.40276 0.0
H500 H 0.28792 0.45553 0.12919 0.0
H501 H 0.19864 0.45448 0.13251 0.0
H502 H 0.35893 0.41778 0.16199 0.0
H503 H 0.4106 0.41534 0.22092 0.0
C504 C 0.06914 0.03171 0.02349 0.0
C505 C 0.00881 0.04835 0.04293 0.0
C506 C 0.94255 0.02001 0.96842 0.0
C507 C 0.00301 1.00457 0.94744 0.0
N508 N 0.1252 0.99838 0.95048 0.0
N509 N 0.89123 0.06473 0.0258 0.0
C510 C 0.06683 1.01124 0.9737 0.0
C511 C 0.94657 0.04452 0.0128 0.0
N512 N 0.12862 0.03561 0.05276 0.0
N513 N 0.88059 1.01028 0.94707 0.0
H514 H 0.89153 0.08316 0.05758 0.0
H515 H 0.847 0.06587 1.00162 0.0
H516 H 0.87587 0.99335 0.91341 0.0
H517 H 0.83408 1.01682 0.965 0.0
H518 H 0.17271 0.02111 0.04542 0.0
H519 H 0.1332 0.05307 0.08589 0.0
H520 H 0.17417 1.005 0.9638 0.0
H521 H 0.12474 0.98228 0.91547 0.0
C522 C 0.93651 0.52439 0.98876 0.0
C523 C -0.00496 0.54386 0.97186 0.0
C524 C 0.05952 0.51956 0.05128 0.0
C525 C 0.00027 0.50177 0.07006 0.0
N526 N 0.88032 0.48952 0.06032 0.0
N527 N 0.10781 0.56572 0.9945 0.0
C528 C 0.93814 0.50475 0.03965 0.0
C529 C 0.0551 0.5432 1.00542 0.0
N530 N 0.87911 0.52504 0.95627 0.0
N531 N 0.12109 0.51274 0.076 0.0
H532 H 0.10724 0.58363 0.96181 0.0
H533 H 0.14944 0.56919 0.02106 0.0
H534 H 0.1259 0.49618 0.11027 0.0
H535 H 0.16769 0.52111 0.0601 0.0
H536 H 0.83746 0.5084 0.96181 0.0
H537 H 0.87401 0.54188 0.92229 0.0
H538 H 0.83166 0.49354 0.04393 0.0
H539 H 0.88044 0.47413 0.09628 0.0
C540 C 0.4595 0.48685 0.51668 0.0
C541 C 0.50142 0.498 0.47204 0.0
C542 C 0.54364 0.54654 0.53135 0.0
C543 C 0.50427 0.53366 0.57668 0.0
N544 N 0.45587 0.48005 0.61554 0.0
N545 N 0.59832 0.5331 0.44398 0.0
C546 C 0.47157 0.50037 0.57064 0.0
C547 C 0.54756 0.52653 0.48117 0.0
N548 N 0.40624 0.46425 0.508 0.0
N549 N 0.58001 0.57708 0.53686 0.0
H550 H 0.60618 0.51764 0.4091 0.0
H551 H 0.6374 0.55122 0.45081 0.0
H552 H 0.58837 0.58929 0.57499 0.0
H553 H 0.60096 0.59052 0.50327 0.0
H554 H 0.37137 0.45802 0.53906 0.0
H555 H 0.39188 0.45527 0.46888 0.0
H556 H 0.43515 0.45483 0.61175 0.0
H557 H 0.47405 0.48526 0.65525 0.0
C558 C 0.4574 0.03349 0.55267 0.0
C559 C 0.49601 1.00164 0.55796 0.0
C560 C 0.5137 1.00308 0.45756 0.0
C561 C 0.48987 0.03852 0.4539 0.0
N562 N 0.4342 0.08697 0.50016 0.0
N563 N 0.57957 0.96362 0.51468 0.0
C564 C 0.46106 0.05376 0.50241 0.0
C565 C 0.52979 0.98871 0.51027 0.0
N566 N 0.41365 0.04343 0.59363 0.0
N567 N 0.51766 0.98184 0.41213 0.0
H568 H 0.59843 0.95453 0.55264 0.0
H569 H 0.6082 0.95558 0.48063 0.0
H570 H 0.49729 0.98836 0.37355 0.0
H571 H 0.53178 0.95536 0.41515 0.0
H572 H 0.37932 0.06425 0.58946 0.0
H573 H 0.40585 0.02878 0.6295 0.0
H574 H 0.422 0.10136 0.53548 0.0
H575 H 0.42529 0.10041 0.46301 0.0
loop_
_geom_bond_atom_site_label_1
_geom_bond_atom_site_label_2
_geom_bond_distance
_geom_bond_site_symmetry_2
_ccdc_geom_bond_type
Mn0 O5 2.095 . S
Mn0 O15 2.162 . S
Mn0 O16 2.297 . S
Mn0 O24 2.385 1_455 S
Mn0 O25 2.209 1_455 S
Mn0 O26 2.094 . S
Mn1 O6 2.119 1_655 S
Mn1 N8 2.258 . S
Mn1 N17 2.285 . S
Mn1 O25 2.216 . S
Mn1 O27 2.117 1_655 S
C2 O24 1.234 . S
C2 O25 1.283 . S
C3 O15 1.281 . S
C3 O16 1.236 . S
C4 O26 1.240 . S
C4 O27 1.264 . S
O5 Mn0 2.095 . S
O5 C14 1.250 . S
O6 Mn1 2.119 1_455 S
O6 C14 1.258 . S
C7 N8 1.326 1_455 S
C7 C11 1.460 1_455 S
C7 H13 0.929 . S
N8 Mn1 2.258 . S
N8 C7 1.326 1_655 S
N8 C12 1.362 . S
C9 C10 1.256 1_565 S
C9 C12 1.429 1_565 S
C9 C29 1.453 . S
C10 C9 1.256 1_545 S
C10 C11 1.477 . S
C10 H30 0.931 1_545 S
C11 C7 1.460 1_655 S
C11 C10 1.477 . S
C11 H31 0.930 1_655 S
C12 N8 1.362 . S
C12 C9 1.429 1_545 S
C12 C22 1.476 . S
H13 C7 0.929 . S
C14 O5 1.250 . S
C14 O6 1.258 . S
O15 Mn0 2.162 . S
O15 C3 1.281 . S
O16 Mn0 2.297 . S
O16 C3 1.236 . S
N17 Mn1 2.285 . S
N17 C18 1.328 . S
N17 C22 1.318 . S
C18 N17 1.328 . S
C18 C19 1.457 1_545 S
C18 H23 0.929 . S
C19 C18 1.457 1_565 S
C19 C20 1.291 . S
C19 H32 0.931 . S
C20 C19 1.291 . S
C20 C21 1.373 . S
C20 H33 0.929 . S
C21 C20 1.373 . S
C21 C22 1.396 1_565 S
C21 C28 1.403 . S
C22 C12 1.476 . S
C22 N17 1.318 . S
C22 C21 1.396 1_545 S
H23 C18 0.929 . S
O24 Mn0 2.385 1_655 S
O24 C2 1.234 . S
O25 Mn0 2.209 1_655 S
O25 Mn1 2.216 . S
O25 C2 1.283 . S
O26 Mn0 2.094 . S
O26 C4 1.240 . S
O27 Mn1 2.117 1_455 S
O27 C4 1.264 . S
C28 C21 1.403 . S
C28 C29 1.399 . S
C28 H34 0.929 . S
C29 C9 1.453 . S
C29 C28 1.399 . S
C29 H35 0.930 . S
H30 C10 0.931 1_565 S
H31 C11 0.930 1_455 S
H32 C19 0.931 . S
H33 C20 0.929 . S
H34 C28 0.929 . S
H35 C29 0.930 . S
Mn36 O41 2.095 1_455 S
Mn36 O51 2.162 . S
Mn36 O52 2.297 . S
Mn36 O60 2.385 . S
Mn36 O61 2.209 . S
Mn36 O62 2.094 . S
Mn37 O42 2.121 1_455 S
Mn37 N44 2.257 . S
Mn37 N53 2.282 . S
Mn37 O61 2.215 . S
Mn37 O63 2.117 . S
C38 O60 1.234 . S
C38 O61 1.283 . S
C39 O51 1.281 . S
C39 O52 1.236 . S
C40 O62 1.240 . S
C40 O63 1.264 . S
O41 Mn36 2.095 1_655 S
O41 C50 1.250 . S
O42 Mn37 2.121 1_655 S
O42 C50 1.258 . S
C43 N44 1.326 . S
C43 C47 1.460 . S
C43 H49 0.929 1_455 S
N44 Mn37 2.257 . S
N44 C43 1.326 . S
N44 C48 1.362 . S
C45 C46 1.258 . S
C45 C48 1.431 . S
C45 C65 1.449 . S
C46 C45 1.258 . S
C46 C47 1.477 . S
C46 H66 0.931 . S
C47 C43 1.460 . S
C47 C46 1.477 . S
C47 H67 0.930 1_455 S
C48 N44 1.362 . S
C48 C45 1.431 . S
C48 C58 1.476 . S
H49 C43 0.929 1_655 S
C50 O41 1.250 . S
C50 O42 1.258 . S
O51 Mn36 2.162 . S
O51 C39 1.281 . S
O52 Mn36 2.297 . S
O52 C39 1.236 . S
N53 Mn37 2.282 . S
N53 C54 1.328 . S
N53 C58 1.318 . S
C54 N53 1.328 . S
C54 C55 1.457 . S
C54 H59 0.929 . S
C55 C54 1.457 . S
C55 C56 1.291 . S
C55 H68 0.931 . S
C56 C55 1.291 . S
C56 C57 1.373 . S
C56 H69 0.929 . S
C57 C56 1.373 . S
C57 C58 1.396 . S
C57 C64 1.403 . S
C58 C48 1.476 . S
C58 N53 1.318 . S
C58 C57 1.396 . S
H59 C54 0.929 . S
O60 Mn36 2.385 . S
O60 C38 1.234 . S
O61 Mn36 2.209 . S
O61 Mn37 2.215 . S
O61 C38 1.283 . S
O62 Mn36 2.094 . S
O62 C40 1.240 . S
O63 Mn37 2.117 . S
O63 C40 1.264 . S
C64 C57 1.403 . S
C64 C65 1.399 . S
C64 H70 0.929 . S
C65 C45 1.449 . S
C65 C64 1.399 . S
C65 H71 0.930 . S
H66 C46 0.931 . S
H67 C47 0.930 1_655 S
H68 C55 0.931 . S
H69 C56 0.929 . S
H70 C64 0.929 . S
H71 C65 0.930 . S
Mn72 O77 2.095 . S
Mn72 O87 2.162 . S
Mn72 O88 2.297 . S
Mn72 O96 2.385 1_455 S
Mn72 O97 2.209 1_455 S
Mn72 O98 2.094 . S
Mn73 O78 2.119 1_655 S
Mn73 N80 2.258 . S
Mn73 N89 2.285 . S
Mn73 O97 2.216 . S
Mn73 O99 2.117 1_655 S
C74 O96 1.234 . S
C74 O97 1.283 . S
C75 O87 1.281 . S
C75 O88 1.236 . S
C76 O98 1.240 . S
C76 O99 1.264 . S
O77 Mn72 2.095 . S
O77 C86 1.250 . S
O78 Mn73 2.119 1_455 S
O78 C86 1.258 . S
C79 N80 1.326 1_455 S
C79 C83 1.460 1_455 S
C79 H85 0.929 . S
N80 Mn73 2.258 . S
N80 C79 1.326 1_655 S
N80 C84 1.362 . S
C81 C82 1.256 1_545 S
C81 C84 1.429 1_545 S
C81 C101 1.453 . S
C82 C81 1.256 1_565 S
C82 C83 1.477 . S
C82 H102 0.931 1_565 S
C83 C79 1.460 1_655 S
C83 C82 1.477 . S
C83 H103 0.930 1_655 S
C84 N80 1.362 . S
C84 C81 1.429 1_565 S
C84 C94 1.476 . S
H85 C79 0.929 . S
C86 O77 1.250 . S
C86 O78 1.258 . S
O87 Mn72 2.162 . S
O87 C75 1.281 . S
O88 Mn72 2.297 . S
O88 C75 1.236 . S
N89 Mn73 2.285 . S
N89 C90 1.328 . S
N89 C94 1.318 . S
C90 N89 1.328 . S
C90 C91 1.457 1_565 S
C90 H95 0.929 . S
C91 C90 1.457 1_545 S
C91 C92 1.291 . S
C91 H104 0.931 . S
C92 C91 1.291 . S
C92 C93 1.373 . S
C92 H105 0.929 . S
C93 C92 1.373 . S
C93 C94 1.396 1_545 S
C93 C100 1.403 . S
C94 C84 1.476 . S
C94 N89 1.318 . S
C94 C93 1.396 1_565 S
H95 C90 0.929 . S
O96 Mn72 2.385 1_655 S
O96 C74 1.234 . S
O97 Mn72 2.209 1_655 S
O97 Mn73 2.216 . S
O97 C74 1.283 . S
O98 Mn72 2.094 . S
O98 C76 1.240 . S
O99 Mn73 2.117 1_455 S
O99 C76 1.264 . S
C100 C93 1.403 . S
C100 C101 1.399 . S
C100 H106 0.929 . S
C101 C81 1.453 . S
C101 C100 1.399 . S
C101 H107 0.930 . S
H102 C82 0.931 1_545 S
H103 C83 0.930 1_455 S
H104 C91 0.931 . S
H105 C92 0.929 . S
H106 C100 0.929 . S
H107 C101 0.930 . S
Mn108 O113 2.095 1_455 S
Mn108 O123 2.162 . S
Mn108 O124 2.297 . S
Mn108 O132 2.385 . S
Mn108 O133 2.209 . S
Mn108 O134 2.094 . S
Mn109 O114 2.121 1_455 S
Mn109 N116 2.257 . S
Mn109 N125 2.282 . S
Mn109 O133 2.215 . S
Mn109 O135 2.117 . S
C110 O132 1.234 . S
C110 O133 1.283 . S
C111 O123 1.281 . S
C111 O124 1.236 . S
C112 O134 1.240 . S
C112 O135 1.264 . S
O113 Mn108 2.095 1_655 S
O113 C122 1.250 . S
O114 Mn109 2.121 1_655 S
O114 C122 1.258 . S
C115 N116 1.326 . S
C115 C119 1.460 . S
C115 H121 0.929 1_455 S
N116 Mn109 2.257 . S
N116 C115 1.326 . S
N116 C120 1.362 . S
C117 C118 1.258 . S
C117 C120 1.431 . S
C117 C137 1.449 . S
C118 C117 1.258 . S
C118 C119 1.477 . S
C118 H138 0.931 . S
C119 C115 1.460 . S
C119 C118 1.477 . S
C119 H139 0.930 1_455 S
C120 N116 1.362 . S
C120 C117 1.431 . S
C120 C130 1.476 . S
H121 C115 0.929 1_655 S
C122 O113 1.250 . S
C122 O114 1.258 . S
O123 Mn108 2.162 . S
O123 C111 1.281 . S
O124 Mn108 2.297 . S
O124 C111 1.236 . S
N125 Mn109 2.282 . S
N125 C126 1.328 . S
N125 C130 1.318 . S
C126 N125 1.328 . S
C126 C127 1.457 . S
C126 H131 0.929 . S
C127 C126 1.457 . S
C127 C128 1.291 . S
C127 H140 0.931 . S
C128 C127 1.291 . S
C128 C129 1.373 . S
C128 H141 0.929 . S
C129 C128 1.373 . S
C129 C130 1.396 . S
C129 C136 1.403 . S
C130 C120 1.476 . S
C130 N125 1.318 . S
C130 C129 1.396 . S
H131 C126 0.929 . S
O132 Mn108 2.385 . S
O132 C110 1.234 . S
O133 Mn108 2.209 . S
O133 Mn109 2.215 . S
O133 C110 1.283 . S
O134 Mn108 2.094 . S
O134 C112 1.240 . S
O135 Mn109 2.117 . S
O135 C112 1.264 . S
C136 C129 1.403 . S
C136 C137 1.399 . S
C136 H142 0.929 . S
C137 C117 1.449 . S
C137 C136 1.399 . S
C137 H143 0.930 . S
H138 C118 0.931 . S
H139 C119 0.930 1_655 S
H140 C127 0.931 . S
H141 C128 0.929 . S
H142 C136 0.929 . S
H143 C137 0.930 . S
Mn144 O149 2.095 . S
Mn144 O159 2.162 . S
Mn144 O160 2.297 . S
Mn144 O168 2.385 . S
Mn144 O169 2.209 . S
Mn144 O170 2.094 . S
Mn145 O150 2.121 . S
Mn145 N152 2.257 . S
Mn145 N161 2.282 . S
Mn145 O169 2.215 . S
Mn145 O171 2.117 . S
C146 O168 1.234 . S
C146 O169 1.283 . S
C147 O159 1.281 . S
C147 O160 1.236 . S
C148 O170 1.240 . S
C148 O171 1.264 . S
O149 Mn144 2.095 . S
O149 C158 1.250 . S
O150 Mn145 2.121 . S
O150 C158 1.258 . S
C151 N152 1.326 . S
C151 C155 1.460 . S
C151 H157 0.929 . S
N152 Mn145 2.257 . S
N152 C151 1.326 . S
N152 C156 1.362 . S
C153 C154 1.258 . S
C153 C156 1.431 . S
C153 C173 1.449 . S
C154 C153 1.258 . S
C154 C155 1.477 . S
C154 H174 0.931 . S
C155 C151 1.460 . S
C155 C154 1.477 . S
C155 H175 0.930 . S
C156 N152 1.362 . S
C156 C153 1.431 . S
C156 C166 1.476 . S
H157 C151 0.929 . S
C158 O149 1.250 . S
C158 O150 1.258 . S
O159 Mn144 2.162 . S
O159 C147 1.281 . S
O160 Mn144 2.297 . S
O160 C147 1.236 . S
N161 Mn145 2.282 . S
N161 C162 1.328 . S
N161 C166 1.318 . S
C162 N161 1.328 . S
C162 C163 1.457 . S
C162 H167 0.929 . S
C163 C162 1.457 . S
C163 C164 1.291 . S
C163 H176 0.931 . S
C164 C163 1.291 . S
C164 C165 1.373 . S
C164 H177 0.929 . S
C165 C164 1.373 . S
C165 C166 1.396 . S
C165 C172 1.403 . S
C166 C156 1.476 . S
C166 N161 1.318 . S
C166 C165 1.396 . S
H167 C162 0.929 . S
O168 Mn144 2.385 . S
O168 C146 1.234 . S
O169 Mn144 2.209 . S
O169 Mn145 2.215 . S
O169 C146 1.283 . S
O170 Mn144 2.094 . S
O170 C148 1.240 . S
O171 Mn145 2.117 . S
O171 C148 1.264 . S
C172 C165 1.403 . S
C172 C173 1.399 . S
C172 H178 0.929 . S
C173 C153 1.449 . S
C173 C172 1.399 . S
C173 H179 0.930 . S
H174 C154 0.931 . S
H175 C155 0.930 . S
H176 C163 0.931 . S
H177 C164 0.929 . S
H178 C172 0.929 . S
H179 C173 0.930 . S
Mn180 O185 2.095 . S
Mn180 O195 2.162 . S
Mn180 O196 2.297 . S
Mn180 O204 2.385 . S
Mn180 O205 2.209 . S
Mn180 O206 2.094 . S
Mn181 O186 2.121 . S
Mn181 N188 2.257 . S
Mn181 N197 2.282 . S
Mn181 O205 2.215 . S
Mn181 O207 2.117 . S
C182 O204 1.234 . S
C182 O205 1.283 . S
C183 O195 1.281 . S
C183 O196 1.236 . S
C184 O206 1.240 . S
C184 O207 1.264 . S
O185 Mn180 2.095 . S
O185 C194 1.250 . S
O186 Mn181 2.121 . S
O186 C194 1.258 . S
C187 N188 1.326 . S
C187 C191 1.460 . S
C187 H193 0.929 . S
N188 Mn181 2.257 . S
N188 C187 1.326 . S
N188 C192 1.362 . S
C189 C190 1.256 1_545 S
C189 C192 1.429 1_545 S
C189 C209 1.453 . S
C190 C189 1.256 1_565 S
C190 C191 1.477 . S
C190 H210 0.931 1_565 S
C191 C187 1.460 . S
C191 C190 1.477 . S
C191 H211 0.930 . S
C192 N188 1.362 . S
C192 C189 1.429 1_565 S
C192 C202 1.476 . S
H193 C187 0.929 . S
C194 O185 1.250 . S
C194 O186 1.258 . S
O195 Mn180 2.162 . S
O195 C183 1.281 . S
O196 Mn180 2.297 . S
O196 C183 1.236 . S
N197 Mn181 2.282 . S
N197 C198 1.328 . S
N197 C202 1.318 . S
C198 N197 1.328 . S
C198 C199 1.457 1_565 S
C198 H203 0.929 . S
C199 C198 1.457 1_545 S
C199 C200 1.291 . S
C199 H212 0.931 . S
C200 C199 1.291 . S
C200 C201 1.373 . S
C200 H213 0.929 . S
C201 C200 1.373 . S
C201 C202 1.396 1_545 S
C201 C208 1.403 . S
C202 C192 1.476 . S
C202 N197 1.318 . S
C202 C201 1.396 1_565 S
H203 C198 0.929 . S
O204 Mn180 2.385 . S
O204 C182 1.234 . S
O205 Mn180 2.209 . S
O205 Mn181 2.215 . S
O205 C182 1.283 . S
O206 Mn180 2.094 . S
O206 C184 1.240 . S
O207 Mn181 2.117 . S
O207 C184 1.264 . S
C208 C201 1.403 . S
C208 C209 1.399 . S
C208 H214 0.929 . S
C209 C189 1.453 . S
C209 C208 1.399 . S
C209 H215 0.930 . S
H210 C190 0.931 1_545 S
H211 C191 0.930 . S
H212 C199 0.931 . S
H213 C200 0.929 . S
H214 C208 0.929 . S
H215 C209 0.930 . S
Mn216 O221 2.095 . S
Mn216 O231 2.162 . S
Mn216 O232 2.297 . S
Mn216 O240 2.385 . S
Mn216 O241 2.209 . S
Mn216 O242 2.094 . S
Mn217 O222 2.121 . S
Mn217 N224 2.257 . S
Mn217 N233 2.282 . S
Mn217 O241 2.215 . S
Mn217 O243 2.117 . S
C218 O240 1.234 . S
C218 O241 1.283 . S
C219 O231 1.281 . S
C219 O232 1.236 . S
C220 O242 1.240 . S
C220 O243 1.264 . S
O221 Mn216 2.095 . S
O221 C230 1.250 . S
O222 Mn217 2.121 . S
O222 C230 1.258 . S
C223 N224 1.326 . S
C223 C227 1.460 . S
C223 H229 0.929 . S
N224 Mn217 2.257 . S
N224 C223 1.326 . S
N224 C228 1.362 . S
C225 C226 1.258 . S
C225 C228 1.431 . S
C225 C245 1.449 . S
C226 C225 1.258 . S
C226 C227 1.477 . S
C226 H246 0.931 . S
C227 C223 1.460 . S
C227 C226 1.477 . S
C227 H247 0.930 . S
C228 N224 1.362 . S
C228 C225 1.431 . S
C228 C238 1.476 . S
H229 C223 0.929 . S
C230 O221 1.250 . S
C230 O222 1.258 . S
O231 Mn216 2.162 . S
O231 C219 1.281 . S
O232 Mn216 2.297 . S
O232 C219 1.236 . S
N233 Mn217 2.282 . S
N233 C234 1.328 . S
N233 C238 1.318 . S
C234 N233 1.328 . S
C234 C235 1.457 . S
C234 H239 0.929 . S
C235 C234 1.457 . S
C235 C236 1.291 . S
C235 H248 0.931 . S
C236 C235 1.291 . S
C236 C237 1.373 . S
C236 H249 0.929 . S
C237 C236 1.373 . S
C237 C238 1.396 . S
C237 C244 1.403 . S
C238 C228 1.476 . S
C238 N233 1.318 . S
C238 C237 1.396 . S
H239 C234 0.929 . S
O240 Mn216 2.385 . S
O240 C218 1.234 . S
O241 Mn216 2.209 . S
O241 Mn217 2.215 . S
O241 C218 1.283 . S
O242 Mn216 2.094 . S
O242 C220 1.240 . S
O243 Mn217 2.117 . S
O243 C220 1.264 . S
C244 C237 1.403 . S
C244 C245 1.399 . S
C244 H250 0.929 . S
C245 C225 1.449 . S
C245 C244 1.399 . S
C245 H251 0.930 . S
H246 C226 0.931 . S
H247 C227 0.930 . S
H248 C235 0.931 . S
H249 C236 0.929 . S
H250 C244 0.929 . S
H251 C245 0.930 . S
Mn252 O257 2.095 . S
Mn252 O267 2.162 . S
Mn252 O268 2.297 . S
Mn252 O276 2.385 . S
Mn252 O277 2.209 . S
Mn252 O278 2.094 . S
Mn253 O258 2.121 . S
Mn253 N260 2.257 . S
Mn253 N269 2.282 . S
Mn253 O277 2.215 . S
Mn253 O279 2.117 . S
C254 O276 1.234 . S
C254 O277 1.283 . S
C255 O267 1.281 . S
C255 O268 1.236 . S
C256 O278 1.240 . S
C256 O279 1.264 . S
O257 Mn252 2.095 . S
O257 C266 1.250 . S
O258 Mn253 2.121 . S
O258 C266 1.258 . S
C259 N260 1.326 . S
C259 C263 1.460 . S
C259 H265 0.929 . S
N260 Mn253 2.257 . S
N260 C259 1.326 . S
N260 C264 1.362 . S
C261 C262 1.256 1_565 S
C261 C264 1.429 1_565 S
C261 C281 1.453 . S
C262 C261 1.256 1_545 S
C262 C263 1.477 . S
C262 H282 0.931 1_545 S
C263 C259 1.460 . S
C263 C262 1.477 . S
C263 H283 0.930 . S
C264 N260 1.362 . S
C264 C261 1.429 1_545 S
C264 C274 1.476 . S
H265 C259 0.929 . S
C266 O257 1.250 . S
C266 O258 1.258 . S
O267 Mn252 2.162 . S
O267 C255 1.281 . S
O268 Mn252 2.297 . S
O268 C255 1.236 . S
N269 Mn253 2.282 . S
N269 C270 1.328 . S
N269 C274 1.318 . S
C270 N269 1.328 . S
C270 C271 1.457 1_545 S
C270 H275 0.929 . S
C271 C270 1.457 1_565 S
C271 C272 1.291 . S
C271 H284 0.931 . S
C272 C271 1.291 . S
C272 C273 1.373 . S
C272 H285 0.929 . S
C273 C272 1.373 . S
C273 C274 1.396 1_565 S
C273 C280 1.403 . S
C274 C264 1.476 . S
C274 N269 1.318 . S
C274 C273 1.396 1_545 S
H275 C270 0.929 . S
O276 Mn252 2.385 . S
O276 C254 1.234 . S
O277 Mn252 2.209 . S
O277 Mn253 2.215 . S
O277 C254 1.283 . S
O278 Mn252 2.094 . S
O278 C256 1.240 . S
O279 Mn253 2.117 . S
O279 C256 1.264 . S
C280 C273 1.403 . S
C280 C281 1.399 . S
C280 H286 0.929 . S
C281 C261 1.453 . S
C281 C280 1.399 . S
C281 H287 0.930 . S
H282 C262 0.931 1_565 S
H283 C263 0.930 . S
H284 C271 0.931 . S
H285 C272 0.929 . S
H286 C280 0.929 . S
H287 C281 0.930 . S
C288 C289 1.363 1_655 S
C288 C294 1.379 . S
C288 N296 1.356 . S
C289 C288 1.363 1_455 S
C289 C295 1.363 . S
C290 C291 1.363 . S
C290 C295 1.379 . S
C290 N297 1.356 . S
C291 C290 1.363 . S
C291 C294 1.363 1_455 S
N292 C294 1.356 . S
N292 H304 0.984 . S
N292 H305 0.985 . S
N293 C295 1.356 . S
N293 H298 0.984 . S
N293 H299 0.985 . S
C294 C288 1.379 . S
C294 C291 1.363 1_655 S
C294 N292 1.356 . S
C295 C289 1.363 . S
C295 C290 1.379 . S
C295 N293 1.356 . S
N296 C288 1.356 . S
N296 H302 0.984 . S
N296 H303 0.984 . S
N297 C290 1.356 . S
N297 H300 0.984 . S
N297 H301 0.985 . S
H298 N293 0.984 . S
H299 N293 0.985 . S
H300 N297 0.984 . S
H301 N297 0.985 . S
H302 N296 0.984 . S
H303 N296 0.984 . S
H304 N292 0.984 . S
H305 N292 0.985 . S
C306 C307 1.363 1_655 S
C306 C312 1.379 . S
C306 N314 1.356 . S
C307 C306 1.363 1_455 S
C307 C313 1.363 . S
C308 C309 1.363 . S
C308 C313 1.379 . S
C308 N315 1.356 . S
C309 C308 1.363 . S
C309 C312 1.363 1_455 S
N310 C312 1.356 . S
N310 H322 0.984 . S
N310 H323 0.985 . S
N311 C313 1.356 . S
N311 H316 0.984 . S
N311 H317 0.985 . S
C312 C306 1.379 . S
C312 C309 1.363 1_655 S
C312 N310 1.356 . S
C313 C307 1.363 . S
C313 C308 1.379 . S
C313 N311 1.356 . S
N314 C306 1.356 . S
N314 H320 0.984 . S
N314 H321 0.984 . S
N315 C308 1.356 . S
N315 H318 0.984 . S
N315 H319 0.985 . S
H316 N311 0.984 . S
H317 N311 0.985 . S
H318 N315 0.984 . S
H319 N315 0.985 . S
H320 N314 0.984 . S
H321 N314 0.984 . S
H322 N310 0.984 . S
H323 N310 0.985 . S
C324 C325 1.363 . S
C324 C330 1.379 . S
C324 N332 1.356 . S
C325 C324 1.363 . S
C325 C331 1.363 . S
C326 C327 1.363 . S
C326 C331 1.379 . S
C326 N333 1.356 . S
C327 C326 1.363 . S
C327 C330 1.363 . S
N328 C330 1.356 . S
N328 H340 0.984 . S
N328 H341 0.985 . S
N329 C331 1.356 . S
N329 H334 0.984 . S
N329 H335 0.985 . S
C330 C324 1.379 . S
C330 C327 1.363 . S
C330 N328 1.356 . S
C331 C325 1.363 . S
C331 C326 1.379 . S
C331 N329 1.356 . S
N332 C324 1.356 . S
N332 H338 0.984 . S
N332 H339 0.984 . S
N333 C326 1.356 . S
N333 H336 0.984 . S
N333 H337 0.985 . S
H334 N329 0.984 . S
H335 N329 0.985 . S
H336 N333 0.984 . S
H337 N333 0.985 . S
H338 N332 0.984 . S
H339 N332 0.984 . S
H340 N328 0.984 . S
H341 N328 0.985 . S
C342 C343 1.363 . S
C342 C348 1.379 . S
C342 N350 1.356 . S
C343 C342 1.363 . S
C343 C349 1.363 . S
C344 C345 1.363 . S
C344 C349 1.379 . S
C344 N351 1.356 . S
C345 C344 1.363 . S
C345 C348 1.363 . S
N346 C348 1.356 . S
N346 H358 0.984 . S
N346 H359 0.985 . S
N347 C349 1.356 . S
N347 H352 0.984 . S
N347 H353 0.985 . S
C348 C342 1.379 . S
C348 C345 1.363 . S
C348 N346 1.356 . S
C349 C343 1.363 . S
C349 C344 1.379 . S
C349 N347 1.356 . S
N350 C342 1.356 . S
N350 H356 0.984 . S
N350 H357 0.984 . S
N351 C344 1.356 . S
N351 H354 0.984 . S
N351 H355 0.985 . S
H352 N347 0.984 . S
H353 N347 0.985 . S
H354 N351 0.984 . S
H355 N351 0.985 . S
H356 N350 0.984 . S
H357 N350 0.984 . S
H358 N346 0.984 . S
H359 N346 0.985 . S
C360 C361 1.363 . S
C360 C366 1.379 . S
C360 N368 1.356 . S
C361 C360 1.363 . S
C361 C367 1.363 . S
C362 C363 1.363 . S
C362 C367 1.379 . S
C362 N369 1.356 . S
C363 C362 1.363 . S
C363 C366 1.363 . S
N364 C366 1.356 . S
N364 H376 0.984 . S
N364 H377 0.985 . S
N365 C367 1.356 . S
N365 H370 0.984 . S
N365 H371 0.985 . S
C366 C360 1.379 . S
C366 C363 1.363 . S
C366 N364 1.356 . S
C367 C361 1.363 . S
C367 C362 1.379 . S
C367 N365 1.356 . S
N368 C360 1.356 . S
N368 H374 0.984 . S
N368 H375 0.984 . S
N369 C362 1.356 . S
N369 H372 0.984 . S
N369 H373 0.985 . S
H370 N365 0.984 . S
H371 N365 0.985 . S
H372 N369 0.984 . S
H373 N369 0.985 . S
H374 N368 0.984 . S
H375 N368 0.984 . S
H376 N364 0.984 . S
H377 N364 0.985 . S
C378 C379 1.363 . S
C378 C384 1.379 . S
C378 N386 1.356 . S
C379 C378 1.363 . S
C379 C385 1.363 . S
C380 C381 1.363 . S
C380 C385 1.379 . S
C380 N387 1.356 . S
C381 C380 1.363 . S
C381 C384 1.363 . S
N382 C384 1.356 . S
N382 H394 0.984 . S
N382 H395 0.985 . S
N383 C385 1.356 . S
N383 H388 0.984 . S
N383 H389 0.985 . S
C384 C378 1.379 . S
C384 C381 1.363 . S
C384 N382 1.356 . S
C385 C379 1.363 . S
C385 C380 1.379 . S
C385 N383 1.356 . S
N386 C378 1.356 . S
N386 H392 0.984 . S
N386 H393 0.984 . S
N387 C380 1.356 . S
N387 H390 0.984 . S
N387 H391 0.985 . S
H388 N383 0.984 . S
H389 N383 0.985 . S
H390 N387 0.984 . S
H391 N387 0.985 . S
H392 N386 0.984 . S
H393 N386 0.984 . S
H394 N382 0.984 . S
H395 N382 0.985 . S
C396 C397 1.363 . S
C396 C402 1.379 . S
C396 N404 1.356 . S
C397 C396 1.363 . S
C397 C403 1.363 . S
C398 C399 1.363 . S
C398 C403 1.379 . S
C398 N405 1.356 . S
C399 C398 1.363 . S
C399 C402 1.363 . S
N400 C402 1.356 . S
N400 H412 0.984 . S
N400 H413 0.985 . S
N401 C403 1.356 . S
N401 H406 0.984 . S
N401 H407 0.985 . S
C402 C396 1.379 . S
C402 C399 1.363 . S
C402 N400 1.356 . S
C403 C397 1.363 . S
C403 C398 1.379 . S
C403 N401 1.356 . S
N404 C396 1.356 . S
N404 H410 0.984 . S
N404 H411 0.984 . S
N405 C398 1.356 . S
N405 H408 0.984 . S
N405 H409 0.985 . S
H406 N401 0.984 . S
H407 N401 0.985 . S
H408 N405 0.984 . S
H409 N405 0.985 . S
H410 N404 0.984 . S
H411 N404 0.984 . S
H412 N400 0.984 . S
H413 N400 0.985 . S
C414 C415 1.363 . S
C414 C420 1.379 . S
C414 N422 1.356 . S
C415 C414 1.363 . S
C415 C421 1.363 . S
C416 C417 1.363 . S
C416 C421 1.379 . S
C416 N423 1.356 . S
C417 C416 1.363 . S
C417 C420 1.363 . S
N418 C420 1.356 . S
N418 H430 0.984 . S
N418 H431 0.985 . S
N419 C421 1.356 . S
N419 H424 0.984 . S
N419 H425 0.985 . S
C420 C414 1.379 . S
C420 C417 1.363 . S
C420 N418 1.356 . S
C421 C415 1.363 . S
C421 C416 1.379 . S
C421 N419 1.356 . S
N422 C414 1.356 . S
N422 H428 0.984 . S
N422 H429 0.984 . S
N423 C416 1.356 . S
N423 H426 0.984 . S
N423 H427 0.985 . S
H424 N419 0.984 . S
H425 N419 0.985 . S
H426 N423 0.984 . S
H427 N423 0.985 . S
H428 N422 0.984 . S
H429 N422 0.984 . S
H430 N418 0.984 . S
H431 N418 0.985 . S
C432 C433 1.363 . S
C432 C438 1.379 . S
C432 N440 1.356 . S
C433 C432 1.363 . S
C433 C439 1.363 . S
C434 C435 1.363 . S
C434 C439 1.379 . S
C434 N441 1.356 . S
C435 C434 1.363 . S
C435 C438 1.363 . S
N436 C438 1.356 . S
N436 H448 0.984 . S
N436 H449 0.985 . S
N437 C439 1.356 . S
N437 H442 0.984 . S
N437 H443 0.985 . S
C438 C432 1.379 . S
C438 C435 1.363 . S
C438 N436 1.356 . S
C439 C433 1.363 . S
C439 C434 1.379 . S
C439 N437 1.356 . S
N440 C432 1.356 . S
N440 H446 0.984 . S
N440 H447 0.984 . S
N441 C434 1.356 . S
N441 H444 0.984 . S
N441 H445 0.985 . S
H442 N437 0.984 . S
H443 N437 0.985 . S
H444 N441 0.984 . S
H445 N441 0.985 . S
H446 N440 0.984 . S
H447 N440 0.984 . S
H448 N436 0.984 . S
H449 N436 0.985 . S
C450 C451 1.363 . S
C450 C456 1.379 . S
C450 N458 1.356 . S
C451 C450 1.363 . S
C451 C457 1.363 . S
C452 C453 1.363 . S
C452 C457 1.379 . S
C452 N459 1.356 . S
C453 C452 1.363 . S
C453 C456 1.363 . S
N454 C456 1.356 . S
N454 H466 0.984 . S
N454 H467 0.985 . S
N455 C457 1.356 . S
N455 H460 0.984 . S
N455 H461 0.985 . S
C456 C450 1.379 . S
C456 C453 1.363 . S
C456 N454 1.356 . S
C457 C451 1.363 . S
C457 C452 1.379 . S
C457 N455 1.356 . S
N458 C450 1.356 . S
N458 H464 0.984 . S
N458 H465 0.984 . S
N459 C452 1.356 . S
N459 H462 0.984 . S
N459 H463 0.985 . S
H460 N455 0.984 . S
H461 N455 0.985 . S
H462 N459 0.984 . S
H463 N459 0.985 . S
H464 N458 0.984 . S
H465 N458 0.984 . S
H466 N454 0.984 . S
H467 N454 0.985 . S
C468 C469 1.363 . S
C468 C474 1.379 . S
C468 N476 1.356 . S
C469 C468 1.363 . S
C469 C475 1.363 . S
C470 C471 1.363 . S
C470 C475 1.379 . S
C470 N477 1.356 . S
C471 C470 1.363 . S
C471 C474 1.363 . S
N472 C474 1.356 . S
N472 H484 0.984 . S
N472 H485 0.985 . S
N473 C475 1.356 . S
N473 H478 0.984 . S
N473 H479 0.985 . S
C474 C468 1.379 . S
C474 C471 1.363 . S
C474 N472 1.356 . S
C475 C469 1.363 . S
C475 C470 1.379 . S
C475 N473 1.356 . S
N476 C468 1.356 . S
N476 H482 0.984 . S
N476 H483 0.984 . S
N477 C470 1.356 . S
N477 H480 0.984 . S
N477 H481 0.985 . S
H478 N473 0.984 . S
H479 N473 0.985 . S
H480 N477 0.984 . S
H481 N477 0.985 . S
H482 N476 0.984 . S
H483 N476 0.984 . S
H484 N472 0.984 . S
H485 N472 0.985 . S
C486 C487 1.363 . S
C486 C492 1.379 . S
C486 N494 1.356 . S
C487 C486 1.363 . S
C487 C493 1.363 . S
C488 C489 1.363 . S
C488 C493 1.379 . S
C488 N495 1.356 . S
C489 C488 1.363 . S
C489 C492 1.363 . S
N490 C492 1.356 . S
N490 H502 0.984 . S
N490 H503 0.985 . S
N491 C493 1.356 . S
N491 H496 0.984 . S
N491 H497 0.985 . S
C492 C486 1.379 . S
C492 C489 1.363 . S
C492 N490 1.356 . S
C493 C487 1.363 . S
C493 C488 1.379 . S
C493 N491 1.356 . S
N494 C486 1.356 . S
N494 H500 0.984 . S
N494 H501 0.984 . S
N495 C488 1.356 . S
N495 H498 0.984 . S
N495 H499 0.985 . S
H496 N491 0.984 . S
H497 N491 0.985 . S
H498 N495 0.984 . S
H499 N495 0.985 . S
H500 N494 0.984 . S
H501 N494 0.984 . S
H502 N490 0.984 . S
H503 N490 0.985 . S
C504 C505 1.363 . S
C504 C510 1.379 1_544 S
C504 N512 1.356 . S
C505 C504 1.363 . S
C505 C511 1.363 1_455 S
C506 C507 1.363 1_655 S
C506 C511 1.379 1_566 S
C506 N513 1.356 . S
C507 C506 1.363 1_455 S
C507 C510 1.363 . S
N508 C510 1.356 . S
N508 H520 0.984 . S
N508 H521 0.985 . S
N509 C511 1.356 . S
N509 H514 0.984 . S
N509 H515 0.985 . S
C510 C504 1.379 1_566 S
C510 C507 1.363 . S
C510 N508 1.356 . S
C511 C505 1.363 1_655 S
C511 C506 1.379 1_544 S
C511 N509 1.356 . S
N512 C504 1.356 . S
N512 H518 0.984 . S
N512 H519 0.984 . S
N513 C506 1.356 . S
N513 H516 0.984 . S
N513 H517 0.985 . S
H514 N509 0.984 . S
H515 N509 0.985 . S
H516 N513 0.984 . S
H517 N513 0.985 . S
H518 N512 0.984 . S
H519 N512 0.984 . S
H520 N508 0.984 . S
H521 N508 0.985 . S
C522 C523 1.363 1_655 S
C522 C528 1.379 . S
C522 N530 1.356 . S
C523 C522 1.363 1_455 S
C523 C529 1.363 1_556 S
C524 C525 1.363 . S
C524 C529 1.379 . S
C524 N531 1.356 . S
C525 C524 1.363 . S
C525 C528 1.363 1_454 S
N526 C528 1.356 1_554 S
N526 H538 0.984 1_554 S
N526 H539 0.985 . S
N527 C529 1.356 1_556 S
N527 H532 0.984 . S
N527 H533 0.985 1_556 S
C528 C522 1.379 . S
C528 C525 1.363 1_656 S
C528 N526 1.356 1_556 S
C529 C523 1.363 1_554 S
C529 C524 1.379 . S
C529 N527 1.356 1_554 S
N530 C522 1.356 . S
N530 H536 0.984 . S
N530 H537 0.984 . S
N531 C524 1.356 . S
N531 H534 0.984 . S
N531 H535 0.985 . S
H532 N527 0.984 . S
H533 N527 0.985 1_554 S
H534 N531 0.984 . S
H535 N531 0.985 . S
H536 N530 0.984 . S
H537 N530 0.984 . S
H538 N526 0.984 1_556 S
H539 N526 0.985 . S
C540 C541 1.363 . S
C540 C546 1.379 . S
C540 N548 1.356 . S
C541 C540 1.363 . S
C541 C547 1.363 . S
C542 C543 1.363 . S
C542 C547 1.379 . S
C542 N549 1.356 . S
C543 C542 1.363 . S
C543 C546 1.363 . S
N544 C546 1.356 . S
N544 H556 0.984 . S
N544 H557 0.985 . S
N545 C547 1.356 . S
N545 H550 0.984 . S
N545 H551 0.985 . S
C546 C540 1.379 . S
C546 C543 1.363 . S
C546 N544 1.356 . S
C547 C541 1.363 . S
C547 C542 1.379 . S
C547 N545 1.356 . S
N548 C540 1.356 . S
N548 H554 0.984 . S
N548 H555 0.984 . S
N549 C542 1.356 . S
N549 H552 0.984 . S
N549 H553 0.985 . S
H550 N545 0.984 . S
H551 N545 0.985 . S
H552 N549 0.984 . S
H553 N549 0.985 . S
H554 N548 0.984 . S
H555 N548 0.984 . S
H556 N544 0.984 . S
H557 N544 0.985 . S
C558 C559 1.363 1_545 S
C558 C564 1.379 . S
C558 N566 1.357 . S
C559 C558 1.363 1_565 S
C559 C565 1.363 . S
C560 C561 1.363 1_565 S
C560 C565 1.379 . S
C560 N567 1.357 . S
C561 C560 1.363 1_545 S
C561 C564 1.363 . S
N562 C564 1.356 . S
N562 H574 0.984 . S
N562 H575 0.985 . S
N563 C565 1.356 . S
N563 H568 0.984 . S
N563 H569 0.985 . S
C564 C558 1.379 . S
C564 C561 1.363 . S
C564 N562 1.356 . S
C565 C559 1.363 . S
C565 C560 1.379 . S
C565 N563 1.356 . S
N566 C558 1.357 . S
N566 H572 0.990 . S
N566 H573 0.978 1_545 S
N567 C560 1.357 . S
N567 H570 0.978 1_565 S
N567 H571 0.990 . S
H568 N563 0.984 . S
H569 N563 0.985 . S
H570 N567 0.978 1_545 S
H571 N567 0.990 . S
H572 N566 0.990 . S
H573 N566 0.978 1_565 S
H574 N562 0.984 . S
H575 N562 0.985 . S
C289 C39 1.460 . S
C291 C3 1.460 . S
C307 C75 1.460 . S
C309 C111 1.460 . S
C325 C147 1.461 . S
C327 C183 1.461 . S
C343 C219 1.460 . S
C345 C255 1.460 . S
C361 C266 1.371 . S
C363 C14 1.371 . S
C379 C230 1.371 . S
C381 C50 1.371 . S
C397 C86 1.371 . S
C399 C194 1.371 . S
C415 C158 1.371 . S
C417 C122 1.371 . S
C433 C182 1.473 . S
C435 C74 1.473 . S
C451 C146 1.473 . S
C453 C110 1.473 . S
C469 C254 1.473 . S
C471 C2 1.473 . S
C487 C38 1.473 . S
C489 C218 1.473 . S
C505 C4 1.372 . S
C507 C76 1.372 . S
C523 C112 1.372 . S
C525 C40 1.372 . S
C541 C220 1.371 . S
C543 C148 1.371 . S
C559 C184 1.371 . S
C561 C256 1.371 . S
