# Generated by pormake.
# Topology bcu-g, (3)-cn, num edge types: 1
# Building blocks:
#     Node 0, Type 0, BuildingBlock: OLANEW_clean_sbu_2, # of connection points: 3
#     Node 1, Type 0, BuildingBlock: OLANEW_clean_sbu_2, # of connection points: 3
#     Node 2, Type 0, BuildingBlock: OLANEW_clean_sbu_2, # of connection points: 3
#     Node 3, Type 0, BuildingBlock: OLANEW_clean_sbu_2, # of connection points: 3
#     Node 4, Type 0, BuildingBlock: OLANEW_clean_sbu_2, # of connection points: 3
#     Node 5, Type 0, BuildingBlock: OLANEW_clean_sbu_2, # of connection points: 3
#     Node 6, Type 0, BuildingBlock: OLANEW_clean_sbu_2, # of connection points: 3
#     Node 7, Type 0, BuildingBlock: OLANEW_clean_sbu_2, # of connection points: 3
#     Node 8, Type 0, BuildingBlock: OLANEW_clean_sbu_2, # of connection points: 3
#     Node 9, Type 0, BuildingBlock: OLANEW_clean_sbu_2, # of connection points: 3
#     Node 10, Type 0, BuildingBlock: OLANEW_clean_sbu_2, # of connection points: 3
#     Node 11, Type 0, BuildingBlock: OLANEW_clean_sbu_2, # of connection points: 3
#     Node 12, Type 0, BuildingBlock: OLANEW_clean_sbu_2, # of connection points: 3
#     Node 13, Type 0, BuildingBlock: OLANEW_clean_sbu_2, # of connection points: 3
#     Node 14, Type 0, BuildingBlock: OLANEW_clean_sbu_2, # of connection points: 3
#     Node 15, Type 0, BuildingBlock: OLANEW_clean_sbu_2, # of connection points: 3
#     Edge 16, Type (0, 0), BuildingBlock: AJUNOK_clean_linker_0, # of connection points: 2
#     Edge 17, Type (0, 0), BuildingBlock: AJUNOK_clean_linker_0, # of connection points: 2
#     Edge 18, Type (0, 0), BuildingBlock: AJUNOK_clean_linker_0, # of connection points: 2
#     Edge 19, Type (0, 0), BuildingBlock: AJUNOK_clean_linker_0, # of connection points: 2
#     Edge 20, Type (0, 0), BuildingBlock: AJUNOK_clean_linker_0, # of connection points: 2
#     Edge 21, Type (0, 0), BuildingBlock: AJUNOK_clean_linker_0, # of connection points: 2
#     Edge 22, Type (0, 0), BuildingBlock: AJUNOK_clean_linker_0, # of connection points: 2
#     Edge 23, Type (0, 0), BuildingBlock: AJUNOK_clean_linker_0, # of connection points: 2
#     Edge 24, Type (0, 0), BuildingBlock: AJUNOK_clean_linker_0, # of connection points: 2
#     Edge 25, Type (0, 0), BuildingBlock: AJUNOK_clean_linker_0, # of connection points: 2
#     Edge 26, Type (0, 0), BuildingBlock: AJUNOK_clean_linker_0, # of connection points: 2
#     Edge 27, Type (0, 0), BuildingBlock: AJUNOK_clean_linker_0, # of connection points: 2
#     Edge 28, Type (0, 0), BuildingBlock: AJUNOK_clean_linker_0, # of connection points: 2
#     Edge 29, Type (0, 0), BuildingBlock: AJUNOK_clean_linker_0, # of connection points: 2
#     Edge 30, Type (0, 0), BuildingBlock: AJUNOK_clean_linker_0, # of connection points: 2
#     Edge 31, Type (0, 0), BuildingBlock: AJUNOK_clean_linker_0, # of connection points: 2
#     Edge 32, Type (0, 0), BuildingBlock: AJUNOK_clean_linker_0, # of connection points: 2
#     Edge 33, Type (0, 0), BuildingBlock: AJUNOK_clean_linker_0, # of connection points: 2
#     Edge 34, Type (0, 0), BuildingBlock: AJUNOK_clean_linker_0, # of connection points: 2
#     Edge 35, Type (0, 0), BuildingBlock: AJUNOK_clean_linker_0, # of connection points: 2
#     Edge 36, Type (0, 0), BuildingBlock: AJUNOK_clean_linker_0, # of connection points: 2
#     Edge 37, Type (0, 0), BuildingBlock: AJUNOK_clean_linker_0, # of connection points: 2
#     Edge 38, Type (0, 0), BuildingBlock: AJUNOK_clean_linker_0, # of connection points: 2
#     Edge 39, Type (0, 0), BuildingBlock: AJUNOK_clean_linker_0, # of connection points: 2
# Relax obj value: 0.042
# Max RMSD: 0.023
# Mean RMSD: 0.023
data_MOF--net-bcu-g--node1-OLANEW_clean_sbu_2--edge1-AJUNOK_clean_linker_0
_symmetry_space_group_name_H-M    P1
_symmetry_Int_Tables_number       1
_symmetry_cell_setting            triclinic
loop_
_symmetry_equiv_pos_as_xyz
'x, y, z'
_cell_length_a     37.507766
_cell_length_b     37.543215
_cell_length_c     30.60971
_cell_angle_alpha  90.034955
_cell_angle_beta   90.007929
_cell_angle_gamma 89.985684
loop_
_atom_site_label
_atom_site_type_symbol
_atom_site_fract_x
_atom_site_fract_y
_atom_site_fract_z
_atom_type_partial_charge
O0 O 0.56667 0.06859 0.28484 0.0
Cd1 Cd 0.60555 0.12056 0.29026 0.0
O2 O 0.57637 0.06742 0.21417 0.0
Cd3 Cd 0.56391 0.04677 0.14916 0.0
O4 O 0.54702 0.0155 0.09281 0.0
C5 C 0.51542 0.00345 0.09028 0.0
O6 O 0.49272 0.01103 0.12162 0.0
C7 C 0.56102 0.05459 0.24769 0.0
C8 C 0.67551 0.10739 0.26384 0.0
O9 O 0.66635 0.10449 0.30402 0.0
O10 O 0.65138 0.11599 0.23612 0.0
O11 O 0.44584 0.57957 0.30846 0.0
Cd12 Cd 0.39689 0.62101 0.32199 0.0
O13 O 0.44929 0.59721 0.24017 0.0
Cd14 Cd 0.46947 0.58832 0.17417 0.0
O15 O 0.49782 0.57076 0.11589 0.0
C16 C 0.50675 0.53827 0.11173 0.0
O17 O 0.49785 0.51563 0.14256 0.0
C18 C 0.46012 0.57722 0.27093 0.0
C19 C 0.40561 0.6868 0.28126 0.0
O20 O 0.41488 0.68227 0.32119 0.0
O21 O 0.39248 0.66015 0.26062 0.0
O22 O 0.9301 0.45302 0.30355 0.0
Cd23 Cd 0.89086 0.40272 0.31943 0.0
O24 O 0.92824 0.43781 0.2343 0.0
Cd25 Cd 0.94419 0.44878 0.167 0.0
O26 O 0.96825 0.46928 0.10725 0.0
C27 C 0.97798 0.50168 0.10496 0.0
O28 O 0.97227 0.52269 0.13856 0.0
C29 C 0.94016 0.45788 0.26438 0.0
C30 C 0.82164 0.41016 0.28738 0.0
O31 O 0.82941 0.41918 0.32663 0.0
O32 O 0.84679 0.39828 0.26306 0.0
O33 O 0.05553 0.92518 0.29727 0.0
Cd34 Cd 0.10865 0.88826 0.30662 0.0
O35 O 0.06045 0.91888 0.22622 0.0
Cd36 Cd 0.04469 0.9355 0.16065 0.0
O37 O 0.01706 0.9553 0.10293 0.0
C38 C 0.0035 0.98634 0.10265 0.0
O39 O 0.00748 0.00674 0.13718 0.0
C40 C 0.04427 0.93191 0.25902 0.0
C41 C 0.10152 0.81866 0.27581 0.0
O42 O 0.09512 0.82634 0.31585 0.0
O43 O 0.11062 0.84408 0.2502 0.0
O44 O 0.57222 0.45897 0.19542 0.0
Cd45 Cd 0.6093 0.40676 0.1811 0.0
O46 O 0.56605 0.43963 0.26267 0.0
Cd47 Cd 0.54644 0.44805 0.32919 0.0
O48 O 0.5288 0.47231 0.3903 0.0
C49 C 0.49634 0.48086 0.39606 0.0
O50 O 0.47293 0.47296 0.3657 0.0
C51 C 0.55895 0.46254 0.23335 0.0
C52 C 0.67727 0.41197 0.21757 0.0
O53 O 0.6716 0.42082 0.17772 0.0
O54 O 0.65074 0.40084 0.24013 0.0
O55 O 0.05961 0.5671 0.1859 0.0
Cd56 Cd 0.11033 0.60608 0.17151 0.0
O57 O 0.06199 0.58118 0.25549 0.0
Cd58 Cd 0.04464 0.57078 0.32234 0.0
O59 O 0.01514 0.5541 0.3801 0.0
C60 C 0.00431 0.52216 0.38377 0.0
O61 O 0.0123 0.49912 0.35296 0.0
C62 C 0.04756 0.56388 0.22447 0.0
C63 C 0.10257 0.67388 0.20755 0.0
O64 O 0.09363 0.66765 0.16784 0.0
O65 O 0.11495 0.64797 0.23017 0.0
O66 O 0.92765 0.04532 0.18632 0.0
Cd67 Cd 0.89084 0.09702 0.16869 0.0
O68 O 0.92488 0.05914 0.25596 0.0
Cd69 Cd 0.9393 0.04688 0.32345 0.0
O70 O 0.96504 0.02214 0.37963 0.0
C71 C 0.99438 0.03437 0.39398 0.0
O72 O 0.00842 0.06248 0.37511 0.0
C73 C 0.93677 0.0393 0.22559 0.0
C74 C 0.82193 0.09463 0.20268 0.0
O75 O 0.82851 0.08365 0.16384 0.0
O76 O 0.84807 0.10625 0.22556 0.0
O77 O 0.44798 0.93627 0.18096 0.0
Cd78 Cd 0.39909 0.89514 0.16565 0.0
O79 O 0.44351 0.9248 0.25115 0.0
Cd80 Cd 0.46278 0.93357 0.31767 0.0
O81 O 0.48508 0.94736 0.38129 0.0
C82 C 0.5115 0.96839 0.38456 0.0
O83 O 0.52557 0.9818 0.3489 0.0
C84 C 0.45772 0.94211 0.22005 0.0
C85 C 0.40686 0.82769 0.20249 0.0
O86 O 0.41682 0.83386 0.16315 0.0
O87 O 0.39395 0.85364 0.22464 0.0
O88 O 0.41163 0.9781 0.82783 0.0
Cd89 Cd 0.3657 0.94584 0.86822 0.0
O90 O 0.4438 0.93108 0.81177 0.0
Cd91 Cd 0.41862 0.90359 0.86619 0.0
O92 O 0.43322 0.9174 0.93303 0.0
C93 C 0.46552 0.92739 0.93604 0.0
O94 O 0.4855 0.92606 0.90082 0.0
C95 C 0.43753 0.96416 0.80722 0.0
C96 C 0.30516 0.9402 0.81548 0.0
O97 O 0.3108 0.96789 0.83896 0.0
O98 O 0.32789 0.91476 0.81742 0.0
O99 O 0.52969 0.41776 0.81381 0.0
Cd100 Cd 0.56216 0.37344 0.85642 0.0
O101 O 0.56582 0.46285 0.82505 0.0
Cd102 Cd 0.59051 0.43676 0.88085 0.0
O103 O 0.58016 0.45183 0.94846 0.0
C104 C 0.57268 0.48472 0.95242 0.0
O105 O 0.57407 0.50487 0.91738 0.0
C106 C 0.53876 0.44975 0.80598 0.0
C107 C 0.56648 0.3112 0.80658 0.0
O108 O 0.53903 0.31803 0.83006 0.0
O109 O 0.59237 0.33346 0.8073 0.0
O110 O 0.0845 0.52335 0.82305 0.0
Cd111 Cd 0.12808 0.55889 0.86307 0.0
O112 O 0.04537 0.56606 0.81328 0.0
Cd113 Cd 0.06794 0.59392 0.86926 0.0
O114 O 0.05523 0.58269 0.9375 0.0
C115 C 0.03952 0.5529 0.94188 0.0
O116 O 0.03437 0.53333 0.90685 0.0
C117 C 0.056 0.53456 0.80532 0.0
C118 C 0.18973 0.56135 0.81196 0.0
O119 O 0.18384 0.53543 0.83819 0.0
O120 O 0.16691 0.58674 0.8107 0.0
O121 O 0.96934 0.07568 0.83283 0.0
Cd122 Cd 0.9402 0.1238 0.87288 0.0
O123 O 0.9207 0.04522 0.81911 0.0
Cd124 Cd 0.89629 0.07222 0.87449 0.0
O125 O 0.91318 0.06245 0.9416 0.0
C126 C 0.92878 0.03256 0.94555 0.0
O127 O 0.93096 0.01187 0.91099 0.0
C128 C 0.95387 0.05015 0.81317 0.0
C129 C 0.94089 0.18375 0.81893 0.0
O130 O 0.96735 0.1763 0.84375 0.0
O131 O 0.91343 0.16348 0.82061 0.0
O132 O 0.41743 0.51857 0.67918 0.0
Cd133 Cd 0.3694 0.54666 0.63776 0.0
O134 O 0.45056 0.56646 0.68554 0.0
Cd135 Cd 0.42204 0.5888 0.63005 0.0
O136 O 0.42867 0.57093 0.56275 0.0
C137 C 0.45708 0.55291 0.5577 0.0
O138 O 0.47823 0.54871 0.59155 0.0
C139 C 0.44447 0.53415 0.69541 0.0
C140 C 0.3103 0.55431 0.69251 0.0
O141 O 0.31618 0.5252 0.67184 0.0
O142 O 0.33209 0.58018 0.68677 0.0
O143 O 0.97801 0.40995 0.68807 0.0
Cd144 Cd 0.94578 0.36488 0.64648 0.0
O145 O 0.94314 0.45553 0.6742 0.0
Cd146 Cd 0.91931 0.42871 0.61828 0.0
O147 O 0.92977 0.44087 0.54983 0.0
C148 C 0.935 0.47389 0.54318 0.0
O149 O 0.93133 0.4959 0.57626 0.0
C150 C 0.9694 0.44223 0.6947 0.0
C151 C 0.94347 0.30401 0.69883 0.0
O152 O 0.97009 0.31034 0.6738 0.0
O153 O 0.91717 0.32581 0.69795 0.0
O154 O 0.0736 0.97013 0.69455 0.0
Cd155 Cd 0.1193 0.9411 0.65031 0.0
O156 O 0.02855 0.93548 0.67743 0.0
Cd157 Cd 0.05698 0.9151 0.62078 0.0
O158 O 0.05105 0.93298 0.55351 0.0
C159 C 0.05501 0.96624 0.54746 0.0
O160 O 0.0653 0.98606 0.58053 0.0
C161 C 0.0413 0.96086 0.69998 0.0
C162 C 0.18167 0.93765 0.70015 0.0
O163 O 0.17394 0.9654 0.67772 0.0
O164 O 0.16028 0.91108 0.69831 0.0
O165 O 0.5244 0.08137 0.68811 0.0
Cd166 Cd 0.55982 0.12334 0.64552 0.0
O167 O 0.56029 0.03534 0.68292 0.0
Cd168 Cd 0.58787 0.05851 0.62717 0.0
O169 O 0.57955 0.04406 0.5589 0.0
C170 C 0.56201 0.01523 0.55521 0.0
O171 O 0.55274 0.99843 0.59109 0.0
C172 C 0.53257 0.04975 0.69897 0.0
C173 C 0.5655 0.18601 0.6943 0.0
O174 O 0.5384 0.18003 0.6699 0.0
O175 O 0.59048 0.16272 0.69492 0.0
C176 C 0.5424 0.99669 0.21416 0.0
C177 C 0.53535 0.02498 0.2431 0.0
C178 C 0.51723 0.9697 0.20701 0.0
C179 C 0.48454 0.96972 0.22932 0.0
H180 H 0.56755 0.9954 0.19686 0.0
H181 H 0.52336 0.94869 0.18392 0.0
S182 S 0.45328 0.03731 0.3089 0.0
N183 N 0.49338 0.05112 0.29442 0.0
N184 N 0.44627 1.00009 0.28141 0.0
C185 C 0.47745 0.99733 0.25905 0.0
C186 C 0.50289 0.02497 0.26599 0.0
C187 C 0.47935 0.51405 0.27558 0.0
C188 C 0.48655 0.54905 0.26214 0.0
C189 C 0.50306 0.48626 0.26619 0.0
C190 C 0.53486 0.49256 0.24318 0.0
H191 H 0.45473 0.50799 0.29251 0.0
H192 H 0.49607 0.4595 0.27623 0.0
S193 S 0.56687 0.57982 0.20255 0.0
N194 N 0.52837 0.58892 0.22631 0.0
N195 N 0.57269 0.53641 0.2078 0.0
C196 C 0.54249 0.52747 0.2297 0.0
C197 C 0.51842 0.55584 0.2395 0.0
C198 C 0.99584 0.4775 0.22721 0.0
C199 C 0.96649 0.48577 0.25394 0.0
C200 C 0.02161 0.50323 0.21715 0.0
C201 C 0.01899 0.53801 0.23373 0.0
H202 H 0.99925 0.45077 0.21456 0.0
H203 H 0.04407 0.49566 0.19691 0.0
S204 S 0.94605 0.5737 0.30282 0.0
N205 N 0.93561 0.53134 0.29563 0.0
N206 N 0.9837 0.58007 0.27591 0.0
C207 C 0.98946 0.54681 0.25986 0.0
C208 C 0.96333 0.52054 0.27031 0.0
C209 C 0.99041 0.01681 0.2651 0.0
C210 C 0.96233 0.01051 0.23561 0.0
C211 C 0.01601 0.9906 0.27383 0.0
C212 C 0.0149 0.95747 0.25256 0.0
H213 H 0.99334 0.04261 0.28052 0.0
H214 H 0.03761 0.99681 0.29609 0.0
S215 S 0.94576 0.92688 0.17454 0.0
N216 N 0.93404 0.96816 0.18661 0.0
N217 N 0.98239 0.91882 0.20285 0.0
C218 C 0.98663 0.95051 0.22367 0.0
C219 C 0.96038 0.97713 0.21504 0.0
C220 C 0.51422 0.99213 0.7336 0.0
C221 C 0.50866 0.02895 0.72804 0.0
C222 C 0.49096 0.97142 0.75884 0.0
C223 C 0.46116 0.98663 0.7797 0.0
H224 H 0.5365 0.97897 0.7179 0.0
H225 H 0.49649 0.94322 0.76198 0.0
S226 S 0.4351 0.08216 0.77662 0.0
N227 N 0.47142 0.07994 0.74636 0.0
N228 N 0.42775 0.04113 0.79362 0.0
C229 C 0.45544 0.02352 0.77474 0.0
C230 C 0.47915 0.04462 0.74902 0.0
C231 C 0.46302 0.47737 0.73122 0.0
C232 C 0.46926 0.51385 0.7239 0.0
C233 C 0.48602 0.45694 0.75697 0.0
C234 C 0.51634 0.47202 0.77675 0.0
H235 H 0.44013 0.46422 0.7169 0.0
H236 H 0.47966 0.42906 0.76162 0.0
S237 S 0.54514 0.56645 0.76775 0.0
N238 N 0.50833 0.56428 0.73832 0.0
N239 N 0.55158 0.52588 0.78696 0.0
C240 C 0.52315 0.50848 0.76956 0.0
C241 C 0.49963 0.52936 0.74316 0.0
C242 C 0.00514 0.52388 0.75382 0.0
C243 C 0.03444 0.51046 0.77735 0.0
C244 C 0.98398 0.50157 0.72782 0.0
C245 C 0.99115 0.46485 0.72433 0.0
H246 H 0.9985 0.55194 0.75525 0.0
H247 H 0.96202 0.51339 0.70999 0.0
S248 S 0.06389 0.41594 0.78093 0.0
N249 N 0.06892 0.45771 0.79645 0.0
N250 N 0.02918 0.41588 0.74783 0.0
C251 C 0.02011 0.45095 0.74818 0.0
C252 C 0.04173 0.4737 0.77454 0.0
C253 C 0.01194 0.03205 0.78013 0.0
C254 C 0.97506 0.02615 0.78464 0.0
C255 C 0.03304 0.01024 0.75366 0.0
C256 C 0.0183 0.98149 0.73035 0.0
H257 H 0.02483 0.05389 0.79703 0.0
H258 H 0.06117 0.01641 0.75113 0.0
S259 S 0.92323 0.95364 0.73185 0.0
N260 N 0.92472 0.98871 0.76435 0.0
N261 N 0.96443 0.94767 0.71436 0.0
C262 C 0.98152 0.9748 0.73502 0.0
C263 C 0.95992 0.99712 0.76214 0.0
C264 C 0.45591 0.95329 0.01064 0.0
C265 C 0.47942 0.94386 0.97673 0.0
C266 C 0.46792 0.97197 0.04751 0.0
C267 C 0.50393 0.98198 0.052 0.0
H268 H 0.42778 0.94706 0.00828 0.0
H269 H 0.44858 0.97918 0.07226 0.0
S270 S 0.57706 0.96058 0.97441 0.0
N271 N 0.54099 0.9437 0.95153 0.0
N272 N 0.56348 0.97877 0.02058 0.0
C273 C 0.52798 0.97153 0.01907 0.0
C274 C 0.51576 0.95249 0.98155 0.0
C275 C 0.54935 0.47627 0.02847 0.0
C276 C 0.55895 0.49936 0.99423 0.0
C277 C 0.53314 0.48919 0.0666 0.0
C278 C 0.52587 0.52573 0.0721 0.0
H279 H 0.55351 0.44783 0.02543 0.0
H280 H 0.52567 0.47018 0.09158 0.0
S281 S 0.54893 0.59784 0.99397 0.0
N282 N 0.56229 0.56094 0.96968 0.0
N283 N 0.53185 0.58515 0.04113 0.0
C284 C 0.53658 0.54929 0.03881 0.0
C285 C 0.55308 0.53613 -2e-05 0.0
C286 C 0.99379 0.4948 0.02621 0.0
C287 C 0.99483 0.51546 0.06451 0.0
C288 C 0.00871 0.50711 0.98718 0.0
C289 C 0.02553 0.54057 0.98465 0.0
H290 H 0.98092 0.46898 0.02607 0.0
H291 H 0.0067 0.49015 0.95864 0.0
S292 S 0.03724 0.60438 0.0763 0.0
N293 N 0.01522 0.57067 0.09798 0.0
N294 N 0.04348 0.59375 0.02451 0.0
C295 C 0.02743 0.56133 0.02291 0.0
C296 C 0.01201 0.54881 0.06279 0.0
C297 C 0.96318 0.98813 0.98902 0.0
C298 C 0.94612 0.02148 0.98698 0.0
C299 C 0.98136 0.97711 0.02654 0.0
C300 C 0.98342 0.99896 0.06379 0.0
H301 H 0.96286 0.97025 0.96122 0.0
H302 H 0.99415 0.95125 0.02602 0.0
S303 S 0.94222 0.08843 0.07621 0.0
N304 N 0.93159 0.07603 0.02612 0.0
N305 N 0.96593 0.05539 0.09674 0.0
C306 C 0.96606 0.03225 0.06258 0.0
C307 C 0.94737 0.04348 0.02422 0.0
C308 C 0.49886 0.5175 0.51145 0.0
C309 C 0.4662 0.53572 0.51546 0.0
C310 C 0.50828 0.50002 0.47277 0.0
C311 C 0.48536 0.49975 0.43643 0.0
H312 H 0.51748 0.51653 0.53848 0.0
H313 H 0.53367 0.4863 0.4716 0.0
S314 S 0.39731 0.54464 0.42899 0.0
N315 N 0.41123 0.55327 0.47907 0.0
N316 N 0.42893 0.52027 0.40628 0.0
C317 C 0.45272 0.51813 0.43967 0.0
C318 C 0.44317 0.53617 0.47914 0.0
C319 C 0.96164 0.46251 0.46933 0.0
C320 C 0.94919 0.48688 0.5008 0.0
C321 C 0.97867 0.47419 0.43115 0.0
C322 C 0.98402 0.5107 0.42294 0.0
H323 H 0.95919 0.43411 0.47473 0.0
H324 H 0.98852 0.45432 0.40849 0.0
S325 S 0.95255 0.58556 0.49232 0.0
N326 N 0.94061 0.5494 0.51921 0.0
N327 N 0.97263 0.57126 0.44768 0.0
C328 C 0.97028 0.5354 0.45317 0.0
C329 C 0.95287 0.52352 0.492 0.0
C330 C 0.0194 0.96472 0.47839 0.0
C331 C 0.04294 0.9831 0.50622 0.0
C332 C 0.00416 0.98144 0.44199 0.0
C333 C 0.01224 0.01703 0.43155 0.0
H334 H 0.01168 0.93754 0.48551 0.0
H335 H 0.98566 0.96637 0.42205 0.0
S336 S 0.07419 0.07623 0.49219 0.0
N337 N 0.0749 0.03842 0.51969 0.0
N338 N 0.04659 0.06967 0.45094 0.0
C339 C 0.03676 0.03533 0.45813 0.0
C340 C 0.05199 0.01842 0.49554 0.0
C341 C 0.54637 0.00968 0.43257 0.0
C342 C 0.52543 0.97878 0.42806 0.0
C343 C 0.55853 0.02101 0.47363 0.0
C344 C 0.55044 0.00174 0.51181 0.0
H345 H 0.55285 0.02574 0.40426 0.0
H346 H 0.574 0.04532 0.47542 0.0
S347 S 0.49881 0.9173 0.51721 0.0
N348 N 0.4987 0.92805 0.46496 0.0
N349 N 0.52163 0.94901 0.54194 0.0
C350 C 0.53034 0.97019 0.50755 0.0
C351 C 0.5178 0.95882 0.46577 0.0
C352 C 0.75603 0.09432 0.19036 0.0
C353 C 0.78491 0.0955 0.21967 0.0
C354 C 0.72081 0.09772 0.20505 0.0
C355 C 0.71297 0.10194 0.24972 0.0
H356 H 0.76064 0.09168 0.15557 0.0
H357 H 0.69958 0.0973 0.18105 0.0
S358 S 0.77888 0.10449 0.34024 0.0
N359 N 0.80327 0.09977 0.29572 0.0
N360 N 0.73708 0.10571 0.32341 0.0
C361 C 0.74154 0.10206 0.27957 0.0
C362 C 0.77748 0.099 0.26453 0.0
C363 C 0.4081 0.78714 0.26723 0.0
C364 C 0.40905 0.79148 0.22158 0.0
C365 C 0.40814 0.75317 0.28623 0.0
C366 C 0.40843 0.72223 0.26032 0.0
H367 H 0.40709 0.81015 0.28854 0.0
H368 H 0.40689 0.75121 0.32152 0.0
S369 S 0.41237 0.71887 0.13924 0.0
N370 N 0.41169 0.76181 0.15094 0.0
N371 N 0.41109 0.69802 0.18669 0.0
C372 C 0.41001 0.72613 0.21466 0.0
C373 C 0.41054 0.76073 0.1953 0.0
C374 C 0.77827 0.41224 0.22535 0.0
C375 C 0.7846 0.41251 0.27067 0.0
C376 C 0.74351 0.41297 0.20854 0.0
C377 C 0.71366 0.41336 0.23638 0.0
H378 H 0.80035 0.41137 0.20257 0.0
H379 H 0.74006 0.41239 0.17341 0.0
S380 S 0.71561 0.41518 0.35761 0.0
N381 N 0.758 0.4142 0.34316 0.0
N382 N 0.69271 0.41498 0.31155 0.0
C383 C 0.71957 0.41404 0.28177 0.0
C384 C 0.755 0.41381 0.2989 0.0
C385 C 0.09885 0.77476 0.21436 0.0
C386 C 0.09955 0.78144 0.25961 0.0
C387 C 0.09883 0.7399 0.19792 0.0
C388 C 0.10007 0.7103 0.22604 0.0
H389 H 0.09856 0.79664 0.19131 0.0
H390 H 0.09877 0.73621 0.16282 0.0
S391 S 0.10068 0.71308 0.34727 0.0
N392 N 0.10014 0.75533 0.33238 0.0
N393 N 0.1006 0.68989 0.30144 0.0
C394 C 0.10013 0.71652 0.27138 0.0
C395 C 0.0997 0.75204 0.28816 0.0
C396 C 0.22821 0.96948 0.7435 0.0
C397 C 0.21357 0.93714 0.72876 0.0
C398 C 0.2575 0.97008 0.77189 0.0
C399 C 0.27381 0.93838 0.78605 0.0
H400 H 0.2166 0.99465 0.73361 0.0
H401 H 0.26766 0.9957 0.78243 0.0
S402 S 0.24624 0.84657 0.75632 0.0
N403 N 0.2177 0.87249 0.73031 0.0
N404 N 0.27332 0.87364 0.78293 0.0
C405 C 0.25976 0.90581 0.77117 0.0
C406 C 0.22949 0.90518 0.74278 0.0
C407 C 0.53499 0.23441 0.73587 0.0
C408 C 0.56693 0.21816 0.72235 0.0
C409 C 0.53521 0.26409 0.76363 0.0
C410 C 0.56739 0.2792 0.77824 0.0
H411 H 0.5095 0.22379 0.72551 0.0
H412 H 0.50988 0.27557 0.77323 0.0
S413 S 0.65844 0.24711 0.75171 0.0
N414 N 0.6317 0.21934 0.72565 0.0
N415 N 0.63214 0.27579 0.77694 0.0
C416 C 0.59958 0.26348 0.76461 0.0
C417 C 0.59935 0.23278 0.73695 0.0
C418 C 0.23674 0.52806 0.77117 0.0
C419 C 0.22105 0.56083 0.78245 0.0
C420 C 0.2653 0.5263 0.74175 0.0
C421 C 0.2798 0.5573 0.72306 0.0
H422 H 0.22648 0.50339 0.78454 0.0
H423 H 0.27629 0.50038 0.73393 0.0
S424 S 0.24899 0.6499 0.74262 0.0
N425 N 0.22228 0.62512 0.77286 0.0
N426 N 0.27657 0.62189 0.71832 0.0
C427 C 0.26474 0.59034 0.73453 0.0
C428 C 0.23519 0.59209 0.76396 0.0
C429 C 0.91043 0.23003 0.77327 0.0
C430 C 0.94222 0.21444 0.78851 0.0
C431 C 0.91105 0.25902 0.74436 0.0
C432 C 0.94346 0.27301 0.7288 0.0
H433 H 0.88484 0.22003 0.78415 0.0
H434 H 0.88592 0.27036 0.73384 0.0
S435 S 0.03416 0.2414 0.75813 0.0
N436 N 0.00703 0.21511 0.78572 0.0
N437 N 0.00818 0.26903 0.73082 0.0
C438 C 0.97543 0.25743 0.74343 0.0
C439 C 0.97481 0.22834 0.77345 0.0
loop_
_geom_bond_atom_site_label_1
_geom_bond_atom_site_label_2
_geom_bond_distance
_geom_bond_site_symmetry_2
_ccdc_geom_bond_type
O0 Cd1 2.300 . S
O0 C7 1.275 . S
Cd1 O0 2.300 . S
Cd1 O9 2.381 . S
Cd1 O10 2.378 . S
O2 Cd3 2.385 1_545 S
O2 C7 1.255 . S
Cd3 O2 2.385 1_565 S
Cd3 O4 2.317 1_565 S
O4 Cd3 2.317 1_545 S
O4 C5 1.232 . S
C5 O4 1.232 . S
C5 O6 1.218 . S
O6 C5 1.218 . S
C7 O0 1.275 . S
C7 O2 1.255 . S
C8 O9 1.258 . S
C8 O10 1.256 . S
O9 Cd1 2.381 . S
O9 C8 1.258 . S
O10 Cd1 2.378 . S
O10 C8 1.256 . S
O11 Cd12 2.300 . S
O11 C18 1.275 . S
Cd12 O11 2.300 . S
Cd12 O20 2.381 . S
Cd12 O21 2.378 . S
O13 Cd14 2.385 . S
O13 C18 1.255 . S
Cd14 O13 2.385 . S
Cd14 O15 2.317 . S
O15 Cd14 2.317 . S
O15 C16 1.232 . S
C16 O15 1.232 . S
C16 O17 1.218 . S
O17 C16 1.218 . S
C18 O11 1.275 . S
C18 O13 1.255 . S
C19 O20 1.258 . S
C19 O21 1.256 . S
O20 Cd12 2.381 . S
O20 C19 1.258 . S
O21 Cd12 2.378 . S
O21 C19 1.256 . S
O22 Cd23 2.300 . S
O22 C29 1.275 . S
Cd23 O22 2.300 . S
Cd23 O31 2.381 . S
Cd23 O32 2.378 . S
O24 Cd25 2.385 . S
O24 C29 1.255 . S
Cd25 O24 2.385 . S
Cd25 O26 2.317 . S
O26 Cd25 2.317 . S
O26 C27 1.232 . S
C27 O26 1.232 . S
C27 O28 1.218 . S
O28 C27 1.218 . S
C29 O22 1.275 . S
C29 O24 1.255 . S
C30 O31 1.258 . S
C30 O32 1.256 . S
O31 Cd23 2.381 . S
O31 C30 1.258 . S
O32 Cd23 2.378 . S
O32 C30 1.256 . S
O33 Cd34 2.300 . S
O33 C40 1.275 . S
Cd34 O33 2.300 . S
Cd34 O42 2.381 . S
Cd34 O43 2.378 . S
O35 Cd36 2.385 1_455 S
O35 C40 1.255 . S
Cd36 O35 2.385 1_655 S
Cd36 O37 2.317 1_655 S
O37 Cd36 2.317 1_455 S
O37 C38 1.232 . S
C38 O37 1.232 . S
C38 O39 1.218 . S
O39 C38 1.218 . S
C40 O33 1.275 . S
C40 O35 1.255 . S
C41 O42 1.258 . S
C41 O43 1.256 . S
O42 Cd34 2.381 . S
O42 C41 1.258 . S
O43 Cd34 2.378 . S
O43 C41 1.256 . S
O44 Cd45 2.300 . S
O44 C51 1.275 . S
Cd45 O44 2.300 . S
Cd45 O53 2.381 . S
Cd45 O54 2.378 . S
O46 Cd47 2.385 . S
O46 C51 1.255 . S
Cd47 O46 2.385 . S
Cd47 O48 2.317 . S
O48 Cd47 2.317 . S
O48 C49 1.232 . S
C49 O48 1.232 . S
C49 O50 1.218 . S
O50 C49 1.218 . S
C51 O44 1.275 . S
C51 O46 1.255 . S
C52 O53 1.258 . S
C52 O54 1.256 . S
O53 Cd45 2.381 . S
O53 C52 1.258 . S
O54 Cd45 2.378 . S
O54 C52 1.256 . S
O55 Cd56 2.300 . S
O55 C62 1.275 . S
Cd56 O55 2.300 . S
Cd56 O64 2.381 . S
Cd56 O65 2.378 . S
O57 Cd58 2.385 1_455 S
O57 C62 1.255 . S
Cd58 O57 2.385 1_655 S
Cd58 O59 2.317 1_655 S
O59 Cd58 2.317 1_455 S
O59 C60 1.232 . S
C60 O59 1.232 . S
C60 O61 1.218 . S
O61 C60 1.218 . S
C62 O55 1.275 . S
C62 O57 1.255 . S
C63 O64 1.258 . S
C63 O65 1.256 . S
O64 Cd56 2.381 . S
O64 C63 1.258 . S
O65 Cd56 2.378 . S
O65 C63 1.256 . S
O66 Cd67 2.300 . S
O66 C73 1.275 . S
Cd67 O66 2.300 . S
Cd67 O75 2.381 . S
Cd67 O76 2.378 . S
O68 Cd69 2.385 1_545 S
O68 C73 1.255 . S
Cd69 O68 2.385 1_565 S
Cd69 O70 2.317 1_565 S
O70 Cd69 2.317 1_545 S
O70 C71 1.232 . S
C71 O70 1.232 . S
C71 O72 1.218 . S
O72 C71 1.218 . S
C73 O66 1.275 . S
C73 O68 1.255 . S
C74 O75 1.258 . S
C74 O76 1.256 . S
O75 Cd67 2.381 . S
O75 C74 1.258 . S
O76 Cd67 2.378 . S
O76 C74 1.256 . S
O77 Cd78 2.300 . S
O77 C84 1.275 . S
Cd78 O77 2.300 . S
Cd78 O86 2.381 . S
Cd78 O87 2.378 . S
O79 Cd80 2.385 . S
O79 C84 1.255 . S
Cd80 O79 2.385 . S
Cd80 O81 2.317 . S
O81 Cd80 2.317 . S
O81 C82 1.232 . S
C82 O81 1.232 . S
C82 O83 1.218 . S
O83 C82 1.218 . S
C84 O77 1.275 . S
C84 O79 1.255 . S
C85 O86 1.258 . S
C85 O87 1.256 . S
O86 Cd78 2.381 . S
O86 C85 1.258 . S
O87 Cd78 2.378 . S
O87 C85 1.256 . S
O88 Cd89 2.300 . S
O88 C95 1.275 . S
Cd89 O88 2.300 . S
Cd89 O97 2.381 . S
Cd89 O98 2.378 . S
O90 Cd91 2.385 . S
O90 C95 1.255 . S
Cd91 O90 2.385 . S
Cd91 O92 2.317 . S
O92 Cd91 2.317 . S
O92 C93 1.232 . S
C93 O92 1.232 . S
C93 O94 1.218 . S
O94 C93 1.218 . S
C95 O88 1.275 . S
C95 O90 1.255 . S
C96 O97 1.258 . S
C96 O98 1.256 . S
O97 Cd89 2.381 . S
O97 C96 1.258 . S
O98 Cd89 2.378 . S
O98 C96 1.256 . S
O99 Cd100 2.300 . S
O99 C106 1.275 . S
Cd100 O99 2.300 . S
Cd100 O108 2.381 . S
Cd100 O109 2.378 . S
O101 Cd102 2.385 . S
O101 C106 1.255 . S
Cd102 O101 2.385 . S
Cd102 O103 2.317 . S
O103 Cd102 2.317 . S
O103 C104 1.232 . S
C104 O103 1.232 . S
C104 O105 1.218 . S
O105 C104 1.218 . S
C106 O99 1.275 . S
C106 O101 1.255 . S
C107 O108 1.258 . S
C107 O109 1.256 . S
O108 Cd100 2.381 . S
O108 C107 1.258 . S
O109 Cd100 2.378 . S
O109 C107 1.256 . S
O110 Cd111 2.300 . S
O110 C117 1.275 . S
Cd111 O110 2.300 . S
Cd111 O119 2.381 . S
Cd111 O120 2.378 . S
O112 Cd113 2.385 . S
O112 C117 1.255 . S
Cd113 O112 2.385 . S
Cd113 O114 2.317 . S
O114 Cd113 2.317 . S
O114 C115 1.232 . S
C115 O114 1.232 . S
C115 O116 1.218 1_455 S
O116 C115 1.218 1_655 S
C117 O110 1.275 . S
C117 O112 1.255 . S
C118 O119 1.258 . S
C118 O120 1.256 . S
O119 Cd111 2.381 . S
O119 C118 1.258 . S
O120 Cd111 2.378 . S
O120 C118 1.256 . S
O121 Cd122 2.300 . S
O121 C128 1.275 . S
Cd122 O121 2.300 . S
Cd122 O130 2.381 . S
Cd122 O131 2.378 . S
O123 Cd124 2.385 . S
O123 C128 1.255 . S
Cd124 O123 2.385 . S
Cd124 O125 2.317 . S
O125 Cd124 2.317 . S
O125 C126 1.232 . S
C126 O125 1.232 . S
C126 O127 1.218 1_545 S
O127 C126 1.218 1_565 S
C128 O121 1.275 . S
C128 O123 1.255 . S
C129 O130 1.258 . S
C129 O131 1.256 . S
O130 Cd122 2.381 . S
O130 C129 1.258 . S
O131 Cd122 2.378 . S
O131 C129 1.256 . S
O132 Cd133 2.300 . S
O132 C139 1.275 . S
Cd133 O132 2.300 . S
Cd133 O141 2.381 . S
Cd133 O142 2.378 . S
O134 Cd135 2.385 . S
O134 C139 1.255 . S
Cd135 O134 2.385 . S
Cd135 O136 2.317 . S
O136 Cd135 2.317 . S
O136 C137 1.232 . S
C137 O136 1.232 . S
C137 O138 1.218 . S
O138 C137 1.218 . S
C139 O132 1.275 . S
C139 O134 1.255 . S
C140 O141 1.258 . S
C140 O142 1.256 . S
O141 Cd133 2.381 . S
O141 C140 1.258 . S
O142 Cd133 2.378 . S
O142 C140 1.256 . S
O143 Cd144 2.300 . S
O143 C150 1.275 . S
Cd144 O143 2.300 . S
Cd144 O152 2.381 . S
Cd144 O153 2.378 . S
O145 Cd146 2.385 . S
O145 C150 1.255 . S
Cd146 O145 2.385 . S
Cd146 O147 2.317 . S
O147 Cd146 2.317 . S
O147 C148 1.232 . S
C148 O147 1.232 . S
C148 O149 1.218 . S
O149 C148 1.218 . S
C150 O143 1.275 . S
C150 O145 1.255 . S
C151 O152 1.258 . S
C151 O153 1.256 . S
O152 Cd144 2.381 . S
O152 C151 1.258 . S
O153 Cd144 2.378 . S
O153 C151 1.256 . S
O154 Cd155 2.300 . S
O154 C161 1.275 . S
Cd155 O154 2.300 . S
Cd155 O163 2.381 . S
Cd155 O164 2.378 . S
O156 Cd157 2.385 . S
O156 C161 1.255 . S
Cd157 O156 2.385 . S
Cd157 O158 2.317 . S
O158 Cd157 2.317 . S
O158 C159 1.232 . S
C159 O158 1.232 . S
C159 O160 1.218 1_455 S
O160 C159 1.218 1_655 S
C161 O154 1.275 . S
C161 O156 1.255 . S
C162 O163 1.258 . S
C162 O164 1.256 . S
O163 Cd155 2.381 . S
O163 C162 1.258 . S
O164 Cd155 2.378 . S
O164 C162 1.256 . S
O165 Cd166 2.300 . S
O165 C172 1.275 . S
Cd166 O165 2.300 . S
Cd166 O174 2.381 . S
Cd166 O175 2.378 . S
O167 Cd168 2.385 . S
O167 C172 1.255 . S
Cd168 O167 2.385 . S
Cd168 O169 2.317 . S
O169 Cd168 2.317 . S
O169 C170 1.232 . S
C170 O169 1.232 . S
C170 O171 1.218 1_545 S
O171 C170 1.218 1_565 S
C172 O165 1.275 . S
C172 O167 1.255 . S
C173 O174 1.258 . S
C173 O175 1.256 . S
O174 Cd166 2.381 . S
O174 C173 1.258 . S
O175 Cd166 2.378 . S
O175 C173 1.256 . S
C176 C177 1.369 . S
C176 C178 1.419 1_545 S
C176 H180 0.930 1_545 S
C177 C176 1.369 . S
C177 C186 1.429 . S
C178 C176 1.419 1_565 S
C178 C179 1.363 . S
C178 H181 0.929 . S
C179 C178 1.363 . S
C179 C185 1.428 1_565 S
H180 C176 0.930 1_565 S
H181 C178 0.929 . S
S182 N183 1.613 . S
S182 N184 1.610 . S
N183 S182 1.613 . S
N183 C186 1.350 . S
N184 S182 1.610 . S
N184 C185 1.351 . S
C185 C179 1.428 1_545 S
C185 N184 1.351 . S
C185 C186 1.434 . S
C186 C177 1.429 . S
C186 N183 1.350 . S
C186 C185 1.434 . S
C187 C188 1.369 . S
C187 C189 1.419 . S
C187 H191 0.930 . S
C188 C187 1.369 . S
C188 C197 1.429 . S
C189 C187 1.419 . S
C189 C190 1.363 . S
C189 H192 0.929 . S
C190 C189 1.363 . S
C190 C196 1.428 . S
H191 C187 0.930 . S
H192 C189 0.929 . S
S193 N194 1.613 . S
S193 N195 1.610 . S
N194 S193 1.613 . S
N194 C197 1.350 . S
N195 S193 1.610 . S
N195 C196 1.351 . S
C196 C190 1.428 . S
C196 N195 1.351 . S
C196 C197 1.434 . S
C197 C188 1.429 . S
C197 N194 1.350 . S
C197 C196 1.434 . S
C198 C199 1.369 1_455 S
C198 C200 1.419 . S
C198 H202 0.930 . S
C199 C198 1.369 1_655 S
C199 C208 1.429 . S
C200 C198 1.419 . S
C200 C201 1.363 . S
C200 H203 0.929 . S
C201 C200 1.363 . S
C201 C207 1.416 1_455 S
H202 C198 0.930 . S
H203 C200 0.929 . S
S204 N205 1.613 . S
S204 N206 1.610 . S
N205 S204 1.613 . S
N205 C208 1.350 . S
N206 S204 1.610 . S
N206 C207 1.357 . S
C207 C201 1.416 1_655 S
C207 N206 1.357 . S
C207 C208 1.442 . S
C208 C199 1.429 . S
C208 N205 1.350 . S
C208 C207 1.442 . S
C209 C210 1.369 1_455 S
C209 C211 1.419 . S
C209 H213 0.930 . S
C210 C209 1.369 1_655 S
C210 C219 1.429 . S
C211 C209 1.419 . S
C211 C212 1.363 1_545 S
C211 H214 0.929 . S
C212 C211 1.363 1_565 S
C212 C218 1.420 1_455 S
H213 C209 0.930 . S
H214 C211 0.929 . S
S215 N216 1.613 1_565 S
S215 N217 1.610 . S
N216 S215 1.613 1_545 S
N216 C219 1.350 . S
N217 S215 1.610 . S
N217 C218 1.355 . S
C218 C212 1.420 1_655 S
C218 N217 1.355 . S
C218 C219 1.440 1_565 S
C219 C210 1.429 . S
C219 N216 1.350 . S
C219 C218 1.440 1_545 S
C220 C221 1.369 1_565 S
C220 C222 1.419 . S
C220 H224 0.930 . S
C221 C220 1.369 1_545 S
C221 C230 1.429 . S
C222 C220 1.419 . S
C222 C223 1.363 . S
C222 H225 0.929 . S
C223 C222 1.363 . S
C223 C229 1.428 . S
H224 C220 0.930 . S
H225 C222 0.929 . S
S226 N227 1.613 . S
S226 N228 1.610 . S
N227 S226 1.613 . S
N227 C230 1.350 . S
N228 S226 1.610 . S
N228 C229 1.351 1_545 S
C229 C223 1.428 . S
C229 N228 1.351 1_565 S
C229 C230 1.434 1_565 S
C230 C221 1.429 . S
C230 N227 1.350 . S
C230 C229 1.434 1_545 S
C231 C232 1.369 . S
C231 C233 1.419 . S
C231 H235 0.930 . S
C232 C231 1.369 . S
C232 C241 1.429 . S
C233 C231 1.419 . S
C233 C234 1.363 . S
C233 H236 0.929 . S
C234 C233 1.363 . S
C234 C240 1.428 . S
H235 C231 0.930 . S
H236 C233 0.929 . S
S237 N238 1.613 . S
S237 N239 1.610 . S
N238 S237 1.613 . S
N238 C241 1.350 . S
N239 S237 1.610 . S
N239 C240 1.351 . S
C240 C234 1.428 . S
C240 N239 1.351 . S
C240 C241 1.434 . S
C241 C232 1.429 . S
C241 N238 1.350 . S
C241 C240 1.434 . S
C242 C243 1.369 . S
C242 C244 1.419 1_455 S
C242 H246 0.930 . S
C243 C242 1.369 . S
C243 C252 1.429 1_455 S
C244 C242 1.419 1_655 S
C244 C245 1.363 . S
C244 H247 0.929 . S
C245 C244 1.363 . S
C245 C251 1.428 . S
H246 C242 0.930 . S
H247 C244 0.929 . S
S248 N249 1.613 . S
S248 N250 1.610 . S
N249 S248 1.613 . S
N249 C252 1.350 . S
N250 S248 1.610 . S
N250 C251 1.351 . S
C251 C245 1.428 . S
C251 N250 1.351 . S
C251 C252 1.434 . S
C252 C243 1.429 1_655 S
C252 N249 1.350 . S
C252 C251 1.434 . S
C253 C254 1.369 1_565 S
C253 C255 1.419 1_655 S
C253 H257 0.930 1_565 S
C254 C253 1.369 1_545 S
C254 C263 1.438 . S
C255 C253 1.419 1_455 S
C255 C256 1.363 . S
C255 H258 0.929 . S
C256 C255 1.363 . S
C256 C262 1.428 1_455 S
H257 C253 0.930 1_545 S
H258 C255 0.929 . S
S259 N260 1.613 1_565 S
S259 N261 1.610 . S
N260 S259 1.613 1_545 S
N260 C263 1.357 . S
N261 S259 1.610 . S
N261 C262 1.351 . S
C262 C256 1.428 1_655 S
C262 N261 1.351 . S
C262 C263 1.416 1_565 S
C263 C254 1.438 . S
C263 N260 1.357 . S
C263 C262 1.416 1_545 S
C264 C265 1.369 1_554 S
C264 C266 1.419 1_565 S
C264 H268 0.930 . S
C265 C264 1.369 1_556 S
C265 C274 1.429 . S
C266 C264 1.419 1_545 S
C266 C267 1.363 . S
C266 H269 0.929 . S
C267 C266 1.363 . S
C267 C273 1.428 1_554 S
H268 C264 0.930 . S
H269 C266 0.929 . S
S270 N271 1.613 1_545 S
S270 N272 1.610 . S
N271 S270 1.613 1_565 S
N271 C274 1.350 . S
N272 S270 1.610 . S
N272 C273 1.351 . S
C273 C267 1.428 1_556 S
C273 N272 1.351 . S
C273 C274 1.434 1_545 S
C274 C265 1.429 . S
C274 N271 1.350 . S
C274 C273 1.434 1_565 S
C275 C276 1.369 1_554 S
C275 C277 1.419 . S
C275 H279 0.930 . S
C276 C275 1.369 1_556 S
C276 C285 1.429 . S
C277 C275 1.419 . S
C277 C278 1.363 . S
C277 H280 0.929 . S
C278 C277 1.363 . S
C278 C284 1.428 1_554 S
H279 C275 0.930 . S
H280 C277 0.929 . S
S281 N282 1.613 . S
S281 N283 1.610 . S
N282 S281 1.613 . S
N282 C285 1.350 . S
N283 S281 1.610 . S
N283 C284 1.351 . S
C284 C278 1.428 1_556 S
C284 N283 1.351 . S
C284 C285 1.434 . S
C285 C276 1.429 . S
C285 N282 1.350 . S
C285 C284 1.434 . S
C286 C287 1.369 1_556 S
C286 C288 1.419 . S
C286 H290 0.930 . S
C287 C286 1.369 1_554 S
C287 C296 1.429 1_655 S
C288 C286 1.419 . S
C288 C289 1.363 1_655 S
C288 H291 0.929 . S
C289 C288 1.363 1_455 S
C289 C295 1.428 1_556 S
H290 C286 0.930 . S
H291 C288 0.929 . S
S292 N293 1.613 . S
S292 N294 1.610 . S
N293 S292 1.613 . S
N293 C296 1.350 . S
N294 S292 1.610 . S
N294 C295 1.351 . S
C295 C289 1.428 1_554 S
C295 N294 1.351 . S
C295 C296 1.434 . S
C296 C287 1.429 1_455 S
C296 N293 1.350 . S
C296 C295 1.434 . S
C297 C298 1.369 1_565 S
C297 C299 1.419 1_556 S
C297 H301 0.930 . S
C298 C297 1.369 1_545 S
C298 C307 1.429 1_655 S
C299 C297 1.419 1_554 S
C299 C300 1.363 1_655 S
C299 H302 0.929 . S
C300 C299 1.363 1_455 S
C300 C306 1.429 1_565 S
H301 C297 0.930 . S
H302 C299 0.929 . S
S303 N304 1.613 . S
S303 N305 1.610 . S
N304 S303 1.613 . S
N304 C307 1.350 . S
N305 S303 1.610 . S
N305 C306 1.351 1_556 S
C306 C300 1.429 1_545 S
C306 N305 1.351 1_554 S
C306 C307 1.433 1_554 S
C307 C298 1.429 1_455 S
C307 N304 1.350 . S
C307 C306 1.433 1_556 S
C308 C309 1.369 . S
C308 C310 1.419 . S
C308 H312 0.930 . S
C309 C308 1.369 . S
C309 C318 1.429 . S
C310 C308 1.419 . S
C310 C311 1.363 . S
C310 H313 0.929 . S
C311 C310 1.363 . S
C311 C317 1.428 . S
H312 C308 0.930 . S
H313 C310 0.929 . S
S314 N315 1.613 . S
S314 N316 1.610 . S
N315 S314 1.613 . S
N315 C318 1.350 . S
N316 S314 1.610 . S
N316 C317 1.351 . S
C317 C311 1.428 . S
C317 N316 1.351 . S
C317 C318 1.434 . S
C318 C309 1.429 . S
C318 N315 1.350 . S
C318 C317 1.434 . S
C319 C320 1.363 1_455 S
C319 C321 1.424 . S
C319 H323 0.931 . S
C320 C319 1.363 1_655 S
C320 C329 1.429 . S
C321 C319 1.424 . S
C321 C322 1.363 . S
C321 H324 0.929 . S
C322 C321 1.363 . S
C322 C328 1.428 1_455 S
H323 C319 0.931 . S
H324 C321 0.929 . S
S325 N326 1.613 . S
S325 N327 1.610 . S
N326 S325 1.613 . S
N326 C329 1.350 . S
N327 S325 1.610 . S
N327 C328 1.351 . S
C328 C322 1.428 1_655 S
C328 N327 1.351 . S
C328 C329 1.434 . S
C329 C320 1.429 . S
C329 N326 1.350 . S
C329 C328 1.434 . S
C330 C331 1.369 . S
C330 C332 1.436 . S
C330 H334 0.930 . S
C331 C330 1.369 . S
C331 C340 1.429 1_465 S
C332 C330 1.436 . S
C332 C333 1.344 1_465 S
C332 H335 0.931 . S
C333 C332 1.344 1_645 S
C333 C339 1.428 . S
H334 C330 0.930 . S
H335 C332 0.931 . S
S336 N337 1.613 . S
S336 N338 1.610 . S
N337 S336 1.613 . S
N337 C340 1.350 . S
N338 S336 1.610 . S
N338 C339 1.351 . S
C339 C333 1.428 . S
C339 N338 1.351 . S
C339 C340 1.434 . S
C340 C331 1.429 1_645 S
C340 N337 1.350 . S
C340 C339 1.434 . S
C341 C342 1.369 1_545 S
C341 C343 1.419 . S
C341 H345 0.930 . S
C342 C341 1.369 1_565 S
C342 C351 1.429 . S
C343 C341 1.419 . S
C343 C344 1.363 . S
C343 H346 0.929 . S
C344 C343 1.363 . S
C344 C350 1.428 1_545 S
H345 C341 0.930 . S
H346 C343 0.929 . S
S347 N348 1.613 . S
S347 N349 1.610 . S
N348 S347 1.613 . S
N348 C351 1.350 . S
N349 S347 1.610 . S
N349 C350 1.351 . S
C350 C344 1.428 1_565 S
C350 N349 1.351 . S
C350 C351 1.434 . S
C351 C342 1.429 . S
C351 N348 1.350 . S
C351 C350 1.434 . S
C352 C353 1.369 . S
C352 C354 1.419 . S
C352 H356 0.930 . S
C353 C352 1.369 . S
C353 C362 1.429 . S
C354 C352 1.419 . S
C354 C355 1.363 . S
C354 H357 0.929 . S
C355 C354 1.363 . S
C355 C361 1.428 . S
H356 C352 0.930 . S
H357 C354 0.929 . S
S358 N359 1.613 . S
S358 N360 1.610 . S
N359 S358 1.613 . S
N359 C362 1.350 . S
N360 S358 1.610 . S
N360 C361 1.351 . S
C361 C355 1.428 . S
C361 N360 1.351 . S
C361 C362 1.434 . S
C362 C353 1.429 . S
C362 N359 1.350 . S
C362 C361 1.434 . S
C363 C364 1.369 . S
C363 C365 1.419 . S
C363 H367 0.930 . S
C364 C363 1.369 . S
C364 C373 1.429 . S
C365 C363 1.419 . S
C365 C366 1.363 . S
C365 H368 0.929 . S
C366 C365 1.363 . S
C366 C372 1.428 . S
H367 C363 0.930 . S
H368 C365 0.929 . S
S369 N370 1.613 . S
S369 N371 1.610 . S
N370 S369 1.613 . S
N370 C373 1.350 . S
N371 S369 1.610 . S
N371 C372 1.351 . S
C372 C366 1.428 . S
C372 N371 1.351 . S
C372 C373 1.434 . S
C373 C364 1.429 . S
C373 N370 1.350 . S
C373 C372 1.434 . S
C374 C375 1.369 . S
C374 C376 1.419 . S
C374 H378 0.930 . S
C375 C374 1.369 . S
C375 C384 1.429 . S
C376 C374 1.419 . S
C376 C377 1.363 . S
C376 H379 0.929 . S
C377 C376 1.363 . S
C377 C383 1.428 . S
H378 C374 0.930 . S
H379 C376 0.929 . S
S380 N381 1.613 . S
S380 N382 1.610 . S
N381 S380 1.613 . S
N381 C384 1.350 . S
N382 S380 1.610 . S
N382 C383 1.351 . S
C383 C377 1.428 . S
C383 N382 1.351 . S
C383 C384 1.434 . S
C384 C375 1.429 . S
C384 N381 1.350 . S
C384 C383 1.434 . S
C385 C386 1.369 . S
C385 C387 1.419 . S
C385 H389 0.930 . S
C386 C385 1.369 . S
C386 C395 1.429 . S
C387 C385 1.419 . S
C387 C388 1.363 . S
C387 H390 0.929 . S
C388 C387 1.363 . S
C388 C394 1.428 . S
H389 C385 0.930 . S
H390 C387 0.929 . S
S391 N392 1.613 . S
S391 N393 1.610 . S
N392 S391 1.613 . S
N392 C395 1.350 . S
N393 S391 1.610 . S
N393 C394 1.351 . S
C394 C388 1.428 . S
C394 N393 1.351 . S
C394 C395 1.434 . S
C395 C386 1.429 . S
C395 N392 1.350 . S
C395 C394 1.434 . S
C396 C397 1.369 . S
C396 C398 1.419 . S
C396 H400 0.930 . S
C397 C396 1.369 . S
C397 C406 1.429 . S
C398 C396 1.419 . S
C398 C399 1.363 . S
C398 H401 0.929 . S
C399 C398 1.363 . S
C399 C405 1.428 . S
H400 C396 0.930 . S
H401 C398 0.929 . S
S402 N403 1.613 . S
S402 N404 1.610 . S
N403 S402 1.613 . S
N403 C406 1.350 . S
N404 S402 1.610 . S
N404 C405 1.351 . S
C405 C399 1.428 . S
C405 N404 1.351 . S
C405 C406 1.434 . S
C406 C397 1.429 . S
C406 N403 1.350 . S
C406 C405 1.434 . S
C407 C408 1.369 . S
C407 C409 1.419 . S
C407 H411 0.930 . S
C408 C407 1.369 . S
C408 C417 1.429 . S
C409 C407 1.419 . S
C409 C410 1.363 . S
C409 H412 0.929 . S
C410 C409 1.363 . S
C410 C416 1.428 . S
H411 C407 0.930 . S
H412 C409 0.929 . S
S413 N414 1.613 . S
S413 N415 1.610 . S
N414 S413 1.613 . S
N414 C417 1.350 . S
N415 S413 1.610 . S
N415 C416 1.351 . S
C416 C410 1.428 . S
C416 N415 1.351 . S
C416 C417 1.434 . S
C417 C408 1.429 . S
C417 N414 1.350 . S
C417 C416 1.434 . S
C418 C419 1.369 . S
C418 C420 1.419 . S
C418 H422 0.930 . S
C419 C418 1.369 . S
C419 C428 1.429 . S
C420 C418 1.419 . S
C420 C421 1.363 . S
C420 H423 0.929 . S
C421 C420 1.363 . S
C421 C427 1.428 . S
H422 C418 0.930 . S
H423 C420 0.929 . S
S424 N425 1.613 . S
S424 N426 1.610 . S
N425 S424 1.613 . S
N425 C428 1.350 . S
N426 S424 1.610 . S
N426 C427 1.351 . S
C427 C421 1.428 . S
C427 N426 1.351 . S
C427 C428 1.434 . S
C428 C419 1.429 . S
C428 N425 1.350 . S
C428 C427 1.434 . S
C429 C430 1.369 . S
C429 C431 1.419 . S
C429 H433 0.930 . S
C430 C429 1.369 . S
C430 C439 1.429 . S
C431 C429 1.419 . S
C431 C432 1.363 . S
C431 H434 0.929 . S
C432 C431 1.363 . S
C432 C438 1.428 . S
H433 C429 0.930 . S
H434 C431 0.929 . S
S435 N436 1.613 . S
S435 N437 1.610 . S
N436 S435 1.613 . S
N436 C439 1.350 . S
N437 S435 1.610 . S
N437 C438 1.351 . S
C438 C432 1.428 . S
C438 N437 1.351 . S
C438 C439 1.434 . S
C439 C430 1.429 . S
C439 N436 1.350 . S
C439 C438 1.434 . S
C177 C7 1.291 . S
C179 C84 1.290 . S
C188 C18 1.282 . S
C190 C51 1.283 . S
C199 C29 1.279 . S
C201 C62 1.281 . S
C210 C73 1.279 . S
C212 C40 1.281 . S
C221 C172 1.381 . S
C223 C95 1.383 . S
C232 C139 1.382 . S
C234 C106 1.383 . S
C243 C117 1.382 . S
C245 C150 1.381 . S
C254 C128 1.382 . S
C256 C161 1.383 . S
C265 C93 1.969 . S
C267 C5 1.373 . S
C276 C104 1.969 . S
C278 C16 1.370 . S
C287 C27 1.364 . S
C289 C115 1.973 . S
C298 C126 1.974 . S
C300 C38 1.380 . S
C309 C137 1.976 . S
C311 C49 1.373 . S
C320 C148 1.970 . S
C322 C60 1.366 . S
C331 C159 1.970 . S
C333 C71 1.377 . S
C342 C82 1.367 . S
C344 C170 1.970 . S
C353 C74 1.737 . S
C355 C8 1.735 . S
C364 C85 1.734 . S
C366 C19 1.735 . S
C375 C30 1.737 . S
C377 C52 1.737 . S
C386 C41 1.733 . S
C388 C63 1.735 . S
C397 C162 1.778 . S
C399 C96 1.780 . S
C408 C173 1.780 . S
C410 C107 1.779 . S
C419 C118 1.779 . S
C421 C140 1.780 . S
C430 C129 1.781 . S
C432 C151 1.778 . S
