# Generated by pormake.
# Topology rkf, (6)-cn, num edge types: 1
# Building blocks:
#     Node 0, Type 0, BuildingBlock: BETFEN_clean_sbu_0, # of connection points: 6
#     Node 1, Type 0, BuildingBlock: BETFEN_clean_sbu_0, # of connection points: 6
#     Node 2, Type 0, BuildingBlock: BETFEN_clean_sbu_0, # of connection points: 6
#     Node 3, Type 0, BuildingBlock: BETFEN_clean_sbu_0, # of connection points: 6
#     Node 4, Type 0, BuildingBlock: BETFEN_clean_sbu_0, # of connection points: 6
#     Node 5, Type 0, BuildingBlock: BETFEN_clean_sbu_0, # of connection points: 6
#     Edge 6, Type (0, 0), BuildingBlock: MIFKUJ_clean_linker_0, # of connection points: 2
#     Edge 7, Type (0, 0), BuildingBlock: MIFKUJ_clean_linker_0, # of connection points: 2
#     Edge 8, Type (0, 0), BuildingBlock: MIFKUJ_clean_linker_0, # of connection points: 2
#     Edge 9, Type (0, 0), BuildingBlock: MIFKUJ_clean_linker_0, # of connection points: 2
#     Edge 10, Type (0, 0), BuildingBlock: MIFKUJ_clean_linker_0, # of connection points: 2
#     Edge 11, Type (0, 0), BuildingBlock: MIFKUJ_clean_linker_0, # of connection points: 2
#     Edge 12, Type (0, 0), BuildingBlock: MIFKUJ_clean_linker_0, # of connection points: 2
#     Edge 13, Type (0, 0), BuildingBlock: MIFKUJ_clean_linker_0, # of connection points: 2
#     Edge 14, Type (0, 0), BuildingBlock: MIFKUJ_clean_linker_0, # of connection points: 2
#     Edge 15, Type (0, 0), BuildingBlock: MIFKUJ_clean_linker_0, # of connection points: 2
#     Edge 16, Type (0, 0), BuildingBlock: MIFKUJ_clean_linker_0, # of connection points: 2
#     Edge 17, Type (0, 0), BuildingBlock: MIFKUJ_clean_linker_0, # of connection points: 2
#     Edge 18, Type (0, 0), BuildingBlock: MIFKUJ_clean_linker_0, # of connection points: 2
#     Edge 19, Type (0, 0), BuildingBlock: MIFKUJ_clean_linker_0, # of connection points: 2
#     Edge 20, Type (0, 0), BuildingBlock: MIFKUJ_clean_linker_0, # of connection points: 2
#     Edge 21, Type (0, 0), BuildingBlock: MIFKUJ_clean_linker_0, # of connection points: 2
#     Edge 22, Type (0, 0), BuildingBlock: MIFKUJ_clean_linker_0, # of connection points: 2
#     Edge 23, Type (0, 0), BuildingBlock: MIFKUJ_clean_linker_0, # of connection points: 2
# Relax obj value: 0.543
# Max RMSD: 0.248
# Mean RMSD: 0.248
data_MOF--net-rkf--node1-BETFEN_clean_sbu_0--edge1-MIFKUJ_clean_linker_0
_symmetry_space_group_name_H-M    P1
_symmetry_Int_Tables_number       1
_symmetry_cell_setting            triclinic
loop_
_symmetry_equiv_pos_as_xyz
'x, y, z'
_cell_length_a     31.992966
_cell_length_b     31.848676
_cell_length_c     60.404864
_cell_angle_alpha  89.807954
_cell_angle_beta   90.424391
_cell_angle_gamma 119.84843
loop_
_atom_site_label
_atom_site_type_symbol
_atom_site_fract_x
_atom_site_fract_y
_atom_site_fract_z
_atom_type_partial_charge
Pr0 Pr 0.2495 0.06393 0.09362 0.0
Pr1 Pr 0.31921 0.16359 0.0834 0.0
C2 C 0.20603 0.97114 0.10711 0.0
C3 C 0.21625 0.94494 0.12422 0.0
C4 C 0.25179 0.9706 0.14023 0.0
C5 C 0.26131 0.94582 0.15674 0.0
C6 C 0.23553 0.89488 0.15746 0.0
C7 C 0.20159 0.86934 0.14065 0.0
C8 C 0.19201 0.89429 0.12414 0.0
C9 C 0.20538 0.11651 1.07944 0.0
C10 C 0.28657 0.14209 0.13696 0.0
C11 C 0.37631 0.25595 1.07032 0.0
C12 C 0.38088 0.2899 1.05293 0.0
C13 C 0.40556 0.33958 1.05759 0.0
C14 C 0.40689 0.37252 1.04194 0.0
C15 C 0.38365 0.35606 1.0214 0.0
C16 C 0.35992 0.30622 1.0166 0.0
C17 C 0.35847 0.27331 1.03228 0.0
C18 C 0.36411 0.11337 0.09978 0.0
C19 C 0.26273 0.08479 1.0396 0.0
O20 O 0.2375 0.98814 0.09117 0.0
O21 O 0.19319 0.002 0.11399 0.0
O22 O 0.24099 0.13214 0.09231 0.0
O23 O 0.18912 0.07126 1.07472 0.0
O24 O 0.30606 0.17611 0.12146 0.0
O25 O 0.26713 0.09601 0.13083 0.0
O26 O 0.3399 0.24249 0.08364 0.0
O27 O 0.38378 0.22061 1.06478 0.0
O28 O 0.33058 0.09698 0.08544 0.0
O29 O 0.37348 0.15568 0.10649 0.0
O30 O 0.24587 0.05054 1.05485 0.0
O31 O 0.28949 0.13077 1.04618 0.0
H32 H 0.27143 0.00983 0.14024 0.0
H33 H 0.28707 0.96677 0.16957 0.0
H34 H 0.18144 0.83015 0.14066 0.0
H35 H 0.16517 0.87409 0.11154 0.0
H36 H 0.42285 0.35277 1.07354 0.0
H37 H 0.4254 0.41072 1.046 0.0
H38 H 0.34086 0.2925 1.00104 0.0
H39 H 0.33893 0.23496 1.02852 0.0
Pr40 Pr 0.28176 0.25612 0.42913 0.0
Pr41 Pr 0.24029 0.32051 0.41842 0.0
C42 C 0.33722 0.21871 0.442 0.0
C43 C 0.36317 0.21418 0.46107 0.0
C44 C 0.35347 0.22298 0.48261 0.0
C45 C 0.37635 0.21526 0.50066 0.0
C46 C 0.40931 0.19872 0.49741 0.0
C47 C 0.42009 0.19169 0.4757 0.0
C48 C 0.39716 0.19938 0.45767 0.0
C49 C 0.19019 0.20663 0.41017 0.0
C50 C 0.22962 0.28485 0.4715 0.0
C51 C 0.19635 0.36973 0.40499 0.0
C52 C 0.16358 0.36801 0.38762 0.0
C53 C 0.15377 0.33788 0.3692 0.0
C54 C 0.11919 0.33315 0.3537 0.0
C55 C 0.09498 0.35942 0.35623 0.0
C56 C 0.10604 0.39085 0.37428 0.0
C57 C 0.13991 0.39473 0.39006 0.0
C58 C 0.33532 0.37043 0.43439 0.0
C59 C 0.27384 0.27513 0.37483 0.0
O60 O 0.35475 0.26192 0.43339 0.0
O61 O 0.2901 0.19471 0.44289 0.0
O62 O 0.2037 0.23975 0.42448 0.0
O63 O 0.2224 0.19342 0.40808 0.0
O64 O 0.21377 0.30312 0.45593 0.0
O65 O 0.2591 0.26831 0.46584 0.0
O66 O 0.17768 0.33436 0.41933 0.0
O67 O 0.23981 0.38094 0.39887 0.0
O68 O 0.31926 0.33691 0.42024 0.0
O69 O 0.30177 0.37904 0.44075 0.0
O70 O 0.29555 0.26196 0.38995 0.0
O71 O 0.24779 0.29493 0.3815 0.0
H72 H 0.32736 0.2346 0.48547 0.0
H73 H 0.36671 0.22035 0.51718 0.0
H74 H 0.44564 0.17945 0.47266 0.0
H75 H 0.40522 0.19279 0.44108 0.0
H76 H 0.17234 0.31757 0.367 0.0
H77 H 0.11154 0.30924 0.33965 0.0
H78 H 0.08788 0.41161 0.37634 0.0
H79 H 0.14727 0.41816 0.40426 0.0
Pr80 Pr 0.08783 0.29685 0.76123 0.0
Pr81 Pr -0.00772 0.21712 0.74909 0.0
C82 C 0.15853 0.38264 0.77643 0.0
C83 C 0.17223 0.40803 0.79766 0.0
C84 C 0.14795 0.38416 0.81696 0.0
C85 C 0.16375 0.40654 0.83748 0.0
C86 C 0.20408 0.45335 0.83906 0.0
C87 C 0.2267 0.47815 0.8195 0.0
C88 C 0.21088 0.45553 0.79892 0.0
C89 C 0.09321 0.21573 0.75097 0.0
C90 C 0.01652 0.22313 0.80291 0.0
C91 C 0.90914 0.14119 0.73464 0.0
C92 C 0.86918 0.12885 0.71903 0.0
C93 C 0.82168 0.10219 0.72667 0.0
C94 C 0.78289 0.08744 0.71203 0.0
C95 C 0.79095 0.09888 0.68941 0.0
C96 C 0.83869 0.12719 0.68196 0.0
C97 C 0.87746 0.14215 0.69664 0.0
C98 C -0.00338 0.30689 0.75518 0.0
C99 C 0.07173 0.27195 0.70664 0.0
O100 O 0.11863 0.37688 0.76754 0.0
O101 O 0.16271 0.3439 0.77515 0.0
O102 O 0.05839 0.21394 0.76178 0.0
O103 O 0.12752 0.25963 0.74719 0.0
O104 O -0.00826 0.19318 0.78659 0.0
O105 O 0.05206 0.26724 0.79761 0.0
O106 O 0.95129 0.15242 0.72655 0.0
O107 O 0.91177 0.16757 0.75163 0.0
O108 O 0.02539 0.29938 0.7442 0.0
O109 O 0.96385 0.2671 0.76403 0.0
O110 O 0.10137 0.30273 0.72187 0.0
O111 O 0.02811 0.23732 0.71278 0.0
H112 H 0.11793 0.34752 0.81624 0.0
H113 H 0.14596 0.38594 0.85216 0.0
H114 H 0.25756 0.51436 0.82017 0.0
H115 H 0.22967 0.47453 0.78407 0.0
H116 H 0.81458 0.09191 0.74395 0.0
H117 H 0.74662 0.06615 0.71834 0.0
H118 H 0.84628 0.13601 0.66459 0.0
H119 H 0.91382 0.16304 0.69037 0.0
Pr120 Pr 0.88304 0.07366 0.09155 0.0
Pr121 Pr 0.80777 0.97904 1.07994 0.0
C122 C 0.93322 0.17014 0.0972 0.0
C123 C 0.9321 0.20265 0.11386 0.0
C124 C 0.89925 0.18342 0.1313 0.0
C125 C 0.89922 0.21366 0.14787 0.0
C126 C 0.93201 0.26371 0.14724 0.0
C127 C 0.96368 0.28306 0.12923 0.0
C128 C 0.96368 0.25262 0.1126 0.0
C129 C 0.91896 0.01285 1.07792 0.0
C130 C 0.84675 0.00142 0.13469 0.0
C131 C 0.74922 0.88288 1.07487 0.0
C132 C 0.74067 0.84309 1.05995 0.0
C133 C 0.74174 0.84874 1.0369 0.0
C134 C 0.73642 0.81133 1.0231 0.0
C135 C 0.73046 0.76792 1.03213 0.0
C136 C 0.72867 0.76211 1.0552 0.0
C137 C 0.73351 0.79939 1.069 0.0
C138 C 0.77041 0.0401 0.08799 0.0
C139 C 0.86222 0.05335 1.03631 0.0
O140 O 0.89449 0.1483 0.08483 0.0
O141 O 0.94879 0.1413 0.10409 0.0
O142 O 0.88492 0.01611 1.06955 0.0
O143 O 0.93775 0.04369 0.09414 0.0
O144 O 0.82286 0.96866 0.11891 0.0
O145 O 0.87079 0.04747 0.12891 0.0
O146 O 0.78938 0.90175 0.08627 0.0
O147 O 0.73839 0.91506 1.06761 0.0
O148 O 0.80138 0.03728 0.10023 0.0
O149 O 0.75888 0.01139 1.07114 0.0
O150 O 0.88044 0.0862 1.05232 0.0
O151 O 0.83533 0.00696 1.04231 0.0
H152 H 0.8745 0.1448 0.13239 0.0
H153 H 0.87519 0.1974 0.16176 0.0
H154 H -0.01069 0.32147 0.12834 0.0
H155 H -0.01107 0.26789 0.09907 0.0
H156 H 0.74775 0.88237 1.02955 0.0
H157 H 0.73887 0.81712 1.00536 0.0
H158 H 0.72412 0.72902 1.06255 0.0
H159 H 0.7327 0.79451 0.08679 0.0
Pr160 Pr 0.84493 0.88234 0.4284 0.0
Pr161 Pr 0.91031 0.84416 0.41855 0.0
C162 C 0.77277 0.89872 0.43925 0.0
C163 C 0.7416 0.89889 0.45677 0.0
C164 C 0.71599 0.92337 0.45304 0.0
C165 C 0.68933 0.92811 0.47002 0.0
C166 C 0.68781 0.90823 0.49097 0.0
C167 C 0.71214 0.88209 0.49441 0.0
C168 C 0.73905 0.87758 0.4774 0.0
C169 C 0.93247 0.95351 0.41252 0.0
C170 C 0.90587 0.86824 0.47219 0.0
C171 C 0.97617 0.81896 0.40711 0.0
C172 C 0.01396 0.8254 0.39138 0.0
C173 C 0.00213 0.79842 0.37171 0.0
C174 C 0.0384 0.80219 0.35775 0.0
C175 C 0.08721 0.8328 0.36325 0.0
C176 C 0.09903 0.85973 0.38293 0.0
C177 C 0.06275 0.85587 0.39692 0.0
C178 C 0.81752 0.77309 0.4312 0.0
C179 C 0.86413 0.87542 0.37414 0.0
O180 O 0.76552 0.8567 0.43231 0.0
O181 O 0.8183 0.93181 0.44048 0.0
O182 O 0.92863 0.92167 0.42622 0.0
O183 O 0.89181 0.9515 0.40832 0.0
O184 O 0.93109 0.86124 0.4568 0.0
O185 O 0.86846 0.87322 0.46586 0.0
O186 O -0.01447 0.85508 0.42029 0.0
O187 O 0.93109 0.79496 0.40065 0.0
O188 O 0.82711 0.8067 0.41762 0.0
O189 O 0.8565 0.77532 0.43883 0.0
O190 O 0.83505 0.87872 0.3888 0.0
O191 O 0.89717 0.86466 0.3814 0.0
H192 H 0.71773 0.94002 0.43713 0.0
H193 H 0.6709 0.94836 0.46695 0.0
H194 H 0.71229 0.86717 0.51053 0.0
H195 H 0.75894 0.85881 0.48053 0.0
H196 H 0.9649 0.77415 0.36711 0.0
H197 H 0.02818 0.78162 0.34248 0.0
H198 H 0.13632 0.88335 0.38764 0.0
H199 H 0.07296 0.87635 0.41222 0.0
Pr200 Pr 0.02691 0.85885 0.7643 0.0
Pr201 Pr 0.12846 0.88699 0.75357 0.0
C202 C 0.93605 0.81029 0.7794 0.0
C203 C 0.91261 0.78147 0.7991 0.0
C204 C 0.93964 0.78626 0.81825 0.0
C205 C 0.91746 0.75762 0.83675 0.0
C206 C 0.86794 0.72343 0.83632 0.0
C207 C 0.84119 0.71825 0.81692 0.0
C208 C 0.86344 0.74708 0.79843 0.0
C209 C 0.07724 0.95016 0.74547 0.0
C210 C 0.11059 0.90846 0.80611 0.0
C211 C 0.21919 0.91428 0.74098 0.0
C212 C 0.25338 0.93137 0.72269 0.0
C213 C 0.30163 0.94532 0.72706 0.0
C214 C 0.33498 0.96076 0.70988 0.0
C215 C 0.32036 0.96215 0.68805 0.0
C216 C 0.2717 0.94778 0.68375 0.0
C217 C 0.23842 0.93258 0.70097 0.0
C218 C 0.07406 0.79261 0.77031 0.0
C219 C 0.04976 0.8641 0.70988 0.0
O220 O 0.95407 0.7912 0.76607 0.0
O221 O 0.96435 0.85686 0.78242 0.0
O222 O 0.09416 0.93324 0.75962 0.0
O223 O 0.03073 0.92254 0.74374 0.0
O224 O 0.14341 0.91911 0.79048 0.0
O225 O 0.06406 0.88194 0.8007 0.0
O226 O 0.20684 0.94443 0.74919 0.0
O227 O 0.18347 0.86986 0.73964 0.0
O228 O 0.06006 0.8113 0.75566 0.0
O229 O 0.11611 0.82426 0.77782 0.0
O230 O 0.01536 0.84843 0.72509 0.0
O231 O 0.09561 0.88215 0.71643 0.0
H232 H 0.97783 0.81229 0.81894 0.0
H233 H 0.93888 0.76318 0.85157 0.0
H234 H 0.80308 0.692 0.81606 0.0
H235 H 0.84231 0.7425 0.78361 0.0
H236 H 0.31352 0.94425 0.7438 0.0
H237 H 0.37215 0.9716 0.71366 0.0
H238 H 0.25958 0.94937 0.66714 0.0
H239 H 0.2012 0.92194 0.69739 0.0
H240 H 0.88991 0.96524 1.03866 0.0
H241 H 0.9438 0.98045 1.00766 0.0
H242 H 0.06497 0.04052 1.05272 0.0
H243 H 0.01191 0.03083 0.08339 0.0
H244 H 0.00282 0.08188 1.00409 0.0
H245 H 0.14409 0.032 1.03634 0.0
H246 H 0.14665 0.95698 1.04331 0.0
H247 H 0.03775 0.88323 0.99354 0.0
H248 H 0.03368 0.95757 0.98674 0.0
H249 H 0.12093 0.11644 1.08011 0.0
H250 H 0.08561 0.13116 1.04758 0.0
H251 H 0.22241 0.19212 1.01423 0.0
H252 H 0.25966 0.18617 1.04874 0.0
H253 H 0.16195 0.09203 1.00595 0.0
H254 H 0.1336 0.20737 0.97689 0.0
H255 H 0.12933 0.28236 0.97373 0.0
H256 H 0.01484 0.22754 1.02116 0.0
H257 H 0.01906 0.15274 1.02491 0.0
C258 C 0.92801 0.98048 1.0421 0.0
C259 C 0.94724 -0.0004 1.06321 0.0
C260 C 0.9586 0.98843 1.0243 0.0
C261 C 0.00842 0.0129 1.02774 0.0
C262 C 0.02653 0.02237 1.04961 0.0
C263 C -0.00379 0.01677 1.06726 0.0
C264 C 0.04113 0.04304 1.00992 0.0
C265 C 0.03771 0.08398 1.00401 0.0
C266 C 0.08554 0.04462 1.00721 0.0
C267 C 0.08917 0.00052 1.0108 0.0
C268 C 0.12102 -9e-05 1.02676 0.0
C269 C 0.1224 0.95737 1.03083 0.0
C270 C 0.09267 0.91546 1.01874 0.0
C271 C 0.06095 0.91579 1.00281 0.0
C272 C 0.05884 0.958 0.99897 0.0
C273 C 0.14426 0.13654 1.06648 0.0
C274 C 0.19213 0.147 1.06621 0.0
C275 C 0.12419 0.14523 1.04769 0.0
C276 C 0.15059 0.15955 1.0278 0.0
C277 C 0.20077 0.17945 1.02906 0.0
C278 C 0.22171 0.1744 1.0486 0.0
C279 C 0.12421 0.13221 1.00772 0.0
C280 C 0.12721 0.08996 1.00474 0.0
C281 C 0.07974 0.12951 1.00286 0.0
C282 C 0.07668 0.17433 1.00108 0.0
C283 C 0.10785 0.21153 0.98678 0.0
C284 C 0.10532 0.25395 0.98484 0.0
C285 C 0.07173 0.25965 0.99718 0.0
C286 C 0.04073 0.22301 1.01154 0.0
C287 C 0.04307 0.18047 1.01351 0.0
H288 H 0.06978 0.2925 0.99565 0.0
H289 H 0.09406 0.88267 1.0218 0.0
H290 H -0.00939 0.04738 0.42231 0.0
H291 H 0.01957 0.10777 0.39305 0.0
H292 H -0.00887 -0.00325 0.34478 0.0
H293 H 0.97004 0.93835 0.37466 0.0
H294 H 0.04383 0.06881 0.32467 0.0
H295 H 0.90797 0.03894 0.35473 0.0
H296 H 0.83802 0.01913 0.37808 0.0
H297 H 0.91024 0.16306 0.40488 0.0
H298 H 0.98119 0.18379 0.3821 0.0
H299 H 0.12318 0.23647 0.407 0.0
H300 H 0.0754 0.23182 0.37456 0.0
H301 H 0.14679 0.16915 0.33754 0.0
H302 H 0.18974 0.17011 0.36994 0.0
H303 H 0.01429 0.20027 0.34689 0.0
H304 H 0.11234 0.09952 0.30508 0.0
H305 H 0.16084 0.12024 0.27135 0.0
H306 H 0.13329 0.23682 0.25828 0.0
H307 H 0.08454 0.21718 0.29199 0.0
C308 C -0.00634 0.03655 0.40568 0.0
C309 C 0.97563 0.98776 0.40057 0.0
C310 C 0.0082 0.0706 0.38875 0.0
C311 C 0.00304 0.05581 0.36645 0.0
C312 C -0.007 0.00869 0.36171 0.0
C313 C 0.98084 0.97521 0.37888 0.0
C314 C 0.00812 0.09031 0.34876 0.0
C315 C 0.03811 0.09761 0.33046 0.0
C316 C -0.00705 0.1248 0.35245 0.0
C317 C 0.95015 0.1132 0.36633 0.0
C318 C 0.90922 0.06654 0.3656 0.0
C319 C 0.86927 0.05507 0.3788 0.0
C320 C 0.8696 0.08987 0.39289 0.0
C321 C 0.90994 0.13622 0.39384 0.0
C322 C 0.95006 0.14793 0.38067 0.0
C323 C 0.12748 0.22084 0.39189 0.0
C324 C 0.15877 0.202 0.39125 0.0
C325 C 0.10073 0.21885 0.37304 0.0
C326 C 0.10499 0.19832 0.35299 0.0
C327 C 0.13994 0.18359 0.35233 0.0
C328 C 0.16475 0.18361 0.37125 0.0
C329 C 0.06663 0.18201 0.33505 0.0
C330 C 0.02144 0.17121 0.34326 0.0
C331 C 0.06356 0.14461 0.32136 0.0
C332 C 0.09379 0.15631 0.30116 0.0
C333 C 0.11574 0.12916 0.29499 0.0
C334 C 0.1438 0.14102 0.27588 0.0
C335 C 0.14992 0.1796 0.26261 0.0
C336 C 0.12858 0.20692 0.26857 0.0
C337 C 0.10095 0.19561 0.28778 0.0
H338 H 0.17123 0.18833 0.24771 0.0
H339 H 0.83864 0.0809 0.40313 0.0
H340 H 0.04173 0.95734 0.7059 0.0
H341 H 0.08434 -0.00157 0.67355 0.0
H342 H 0.22012 0.04888 0.70852 0.0
H343 H 0.17547 0.00463 0.74117 0.0
H344 H 0.25377 0.11513 0.6838 0.0
H345 H 0.18464 0.03565 0.6318 0.0
H346 H 0.14616 0.98428 0.59935 0.0
H347 H 0.0242 0.00474 0.60634 0.0
H348 H 0.06035 0.05456 0.63909 0.0
H349 H 0.0443 0.17288 0.71291 0.0
H350 H 0.08267 0.15362 0.68362 0.0
H351 H 0.17411 0.13863 0.73248 0.0
H352 H 0.14341 0.17042 0.76061 0.0
H353 H 0.10308 0.11043 0.6628 0.0
H354 H 0.27729 0.14728 0.71869 0.0
H355 H 0.33718 0.21552 0.74083 0.0
H356 H 0.28071 0.30469 0.71717 0.0
H357 H 0.22076 0.23742 0.69455 0.0
C358 C 0.08073 0.97748 0.70679 0.0
C359 C 0.10522 0.97921 0.72637 0.0
C360 C 0.10584 0.001 0.68787 0.0
C361 C 0.15657 0.03044 0.68824 0.0
C362 C 0.18118 0.02859 0.70748 0.0
C363 C 0.15571 0.00371 0.72639 0.0
C364 C 0.18133 0.07089 0.67156 0.0
C365 C 0.21955 0.11323 0.68063 0.0
C366 C 0.14992 0.08005 0.65848 0.0
C367 C 0.12629 0.05009 0.63827 0.0
C368 C 0.14954 0.02928 0.62662 0.0
C369 C 0.12792 0.00014 0.60805 0.0
C370 C 0.08289 -0.00852 0.6007 0.0
C371 C 0.0593 0.01176 0.61197 0.0
C372 C 0.0806 0.04075 0.63063 0.0
C373 C 0.0734 0.16671 0.71725 0.0
C374 C 0.0927 0.17596 0.73874 0.0
C375 C 0.0954 0.15504 0.70037 0.0
C376 C 0.13468 0.14824 0.70515 0.0
C377 C 0.14738 0.14827 0.72761 0.0
C378 C 0.12804 0.16399 0.74408 0.0
C379 C 0.16044 0.13778 0.68736 0.0
C380 C 0.13509 0.11052 0.66847 0.0
C381 C 0.20809 0.14603 0.6907 0.0
C382 C 0.24465 0.18702 0.7044 0.0
C383 C 0.27794 0.18154 0.71776 0.0
C384 C 0.31185 0.22012 0.73059 0.0
C385 C 0.31293 0.26449 0.73033 0.0
C386 C 0.27996 0.27034 0.71731 0.0
C387 C 0.24595 0.23191 0.70447 0.0
H388 H 0.3392 0.29428 0.74029 0.0
H389 H 0.06621 0.96893 0.58631 0.0
H390 H 0.36051 0.42578 1.03049 0.0
H391 H 0.33753 0.46857 1.00362 0.0
H392 H 0.37522 0.40449 0.95018 0.0
H393 H 0.39833 0.36169 0.97689 0.0
H394 H 0.37919 0.52862 0.96093 0.0
H395 H 0.27328 0.34179 0.92306 0.0
H396 H 0.24608 0.25753 0.93429 0.0
H397 H 0.22356 0.28984 1.00059 0.0
H398 H 0.25028 0.37423 0.98971 0.0
H399 H 0.2996 0.50061 0.85002 0.0
H400 H 0.33363 0.51103 0.88703 0.0
H401 H 0.19258 0.4575 0.91519 0.0
H402 H 0.15814 0.4481 0.87803 0.0
H403 H 0.23171 0.40015 0.92402 0.0
H404 H 0.28046 0.56702 0.93037 0.0
H405 H 0.31719 0.65219 0.91855 0.0
H406 H 0.45544 0.66145 0.91429 0.0
H407 H 0.41946 0.57611 0.92576 0.0
C408 C 0.36557 0.42227 1.01303 0.0
C409 C 0.38036 0.38986 1.00567 0.0
C410 C 0.35261 0.44685 0.99775 0.0
C411 C 0.35436 0.43916 0.97506 0.0
C412 C 0.37359 0.41059 0.96771 0.0
C413 C 0.38631 0.38589 0.98293 0.0
C414 C 0.32769 0.4525 0.95927 0.0
C415 C 0.34669 0.50092 0.95291 0.0
C416 C 0.28476 0.41607 0.94938 0.0
C417 C 0.26398 0.36433 0.95558 0.0
C418 C 0.26193 0.33074 0.93996 0.0
C419 C 0.24684 0.28304 0.94629 0.0
C420 C 0.23336 0.26843 0.96816 0.0
C421 C 0.23429 0.30131 0.98368 0.0
C422 C 0.24934 0.34905 0.97744 0.0
C423 C 0.27602 0.49321 0.86404 0.0
C424 C 0.22596 0.4726 0.86107 0.0
C425 C 0.29562 0.49921 0.88525 0.0
C426 C 0.26553 0.48471 0.90381 0.0
C427 C 0.21631 0.46874 0.90102 0.0
C428 C 0.19669 0.46307 0.8798 0.0
C429 C 0.28367 0.4766 0.925 0.0
C430 C 0.26322 0.42857 0.93238 0.0
C431 C 0.3252 0.51352 0.93571 0.0
C432 C 0.34715 0.565 0.92886 0.0
C433 C 0.31863 0.58708 0.92677 0.0
C434 C 0.33934 0.63544 0.92015 0.0
C435 C 0.38861 0.6622 0.91566 0.0
C436 C 0.41728 0.64068 0.9178 0.0
C437 C 0.39676 0.59233 0.9244 0.0
H438 H 0.40457 0.69963 0.91054 0.0
H439 H 0.22205 0.23159 0.97306 0.0
H440 H 0.09852 0.42999 0.3298 0.0
H441 H 0.0483 0.41882 0.29719 0.0
H442 H 0.96045 0.267 0.31301 0.0
H443 H 0.01225 0.27804 0.34506 0.0
H444 H -0.00753 0.27475 0.27449 0.0
H445 H 0.91331 0.34688 0.31023 0.0
H446 H 0.90419 0.40636 0.33262 0.0
H447 H -0.016 0.51682 0.28454 0.0
H448 H -0.00575 0.45823 0.26199 0.0
H449 H 0.86115 0.26353 0.17264 0.0
H450 H 0.8709 0.29039 0.21124 0.0
H451 H 0.02508 0.35684 0.20517 0.0
H452 H 0.01585 0.32956 0.16698 0.0
H453 H 0.93763 0.38147 0.24064 0.0
H454 H 0.04658 0.28295 0.23898 0.0
H455 H 0.05218 0.22086 0.21693 0.0
H456 H 0.90229 0.15601 0.19959 0.0
H457 H 0.89556 0.21696 0.22199 0.0
C458 C 0.06765 0.39463 0.32655 0.0
C459 C 0.05927 0.35469 0.33955 0.0
C460 C 0.03867 0.38828 0.30807 0.0
C461 C 0.0004 0.34206 0.30266 0.0
C462 C -0.01018 0.30294 0.31682 0.0
C463 C 0.01936 0.30913 0.33503 0.0
C464 C 0.97782 0.33304 0.28041 0.0
C465 C 0.97955 0.29756 0.26738 0.0
C466 C 0.96076 0.36258 0.27098 0.0
C467 C 0.95473 0.39811 0.28445 0.0
C468 C 0.92923 0.38393 0.30449 0.0
C469 C 0.9238 0.41749 0.31721 0.0
C470 C 0.94354 0.46534 0.31002 0.0
C471 C 0.9687 0.47972 0.29008 0.0
C472 C 0.97424 0.44631 0.2773 0.0
C473 C 0.89719 0.28543 0.17933 0.0
C474 C 0.93769 0.29343 0.16701 0.0
C475 C 0.90266 0.30115 0.20127 0.0
C476 C 0.94861 0.32481 0.21096 0.0
C477 C -0.01067 0.33849 0.19783 0.0
C478 C -0.01605 0.32287 0.17597 0.0
C479 C 0.95393 0.3245 0.23516 0.0
C480 C 0.94929 0.35811 0.24827 0.0
C481 C 0.96736 0.29258 0.24496 0.0
C482 C 0.97075 0.25494 0.23191 0.0
C483 C 0.01478 0.2553 0.23054 0.0
C484 C 0.01814 0.22028 0.218 0.0
C485 C 0.97766 0.18465 0.20678 0.0
C486 C 0.93366 0.18376 0.2082 0.0
C487 C 0.93007 0.21855 0.22082 0.0
H488 H 0.98034 0.15762 0.19704 0.0
H489 H 0.93931 0.49127 0.31989 0.0
H490 H 0.77665 0.14093 0.65255 0.0
H491 H 0.72286 0.09867 0.6215 0.0
H492 H 0.65954 0.9653 0.65859 0.0
H493 H 0.7143 0.00676 0.68933 0.0
H494 H 0.70451 0.96156 0.62234 0.0
H495 H 0.58388 0.00507 0.63702 0.0
H496 H 0.55366 0.06033 0.64681 0.0
H497 H 0.62428 0.14843 0.59018 0.0
H498 H 0.65414 0.09325 0.57978 0.0
H499 H 0.62767 0.84613 0.5225 0.0
H500 H 0.60851 0.86887 0.55811 0.0
H501 H 0.68144 0.01867 0.53793 0.0
H502 H 0.69978 -0.0039 0.50229 0.0
H503 H 0.61102 0.00071 0.56849 0.0
H504 H 0.74617 0.97417 0.55915 0.0
H505 H 0.7839 0.92625 0.54812 0.0
H506 H 0.69772 0.81668 0.59549 0.0
H507 H 0.6586 0.8635 0.60641 0.0
C508 C 0.75048 0.10284 0.65429 0.0
C509 C 0.75054 0.07701 0.67321 0.0
C510 C 0.71916 0.07886 0.63666 0.0
C511 C 0.6872 0.02878 0.63773 0.0
C512 C 0.6838 0.00401 0.65748 0.0
C513 C 0.7152 0.02787 0.67507 0.0
C514 C 0.66685 0.00118 0.61701 0.0
C515 C 0.68248 0.9688 0.61093 0.0
C516 C 0.6399 0.01218 0.60176 0.0
C517 C 0.62141 0.0451 0.60769 0.0
C518 C 0.59299 0.03626 0.62666 0.0
C519 C 0.57575 0.06745 0.63226 0.0
C520 C 0.58703 0.10785 0.6191 0.0
C521 C 0.61534 0.11697 0.60026 0.0
C522 C 0.63217 0.08558 0.59443 0.0
C523 C 0.6382 0.88366 0.52545 0.0
C524 C 0.66601 0.91949 0.50989 0.0
C525 C 0.62695 0.89656 0.54568 0.0
C526 C 0.64446 0.94556 0.55077 0.0
C527 C 0.66758 0.98068 0.53432 0.0
C528 C 0.67828 0.96773 0.51399 0.0
C529 C 0.6487 0.96126 0.57409 0.0
C530 C 0.63101 -0.0081 0.58041 0.0
C531 C 0.67488 0.94973 0.58957 0.0
C532 C 0.69895 0.92192 0.58335 0.0
C533 C 0.73499 0.93966 0.56708 0.0
C534 C 0.75656 0.91268 0.56082 0.0
C535 C 0.74303 0.86832 0.57102 0.0
C536 C 0.70799 0.85094 0.58754 0.0
C537 C 0.68603 0.87762 0.59374 0.0
H538 H 0.75993 0.84759 0.56621 0.0
H539 H 0.57373 0.13201 0.62348 0.0
H540 H 0.67905 0.7316 0.99398 0.0
H541 H 0.69301 0.68575 0.96564 0.0
H542 H 0.79604 0.67523 1.00845 0.0
H543 H 0.7827 0.722 1.03678 0.0
H544 H 0.83586 0.72033 0.97112 0.0
H545 H 0.69984 0.57132 0.98841 0.0
H546 H 0.6159 0.51391 0.99873 0.0
H547 H 0.5656 0.54293 0.93764 0.0
H548 H 0.64913 0.60109 0.92706 0.0
H549 H 0.90039 0.68071 0.86609 0.0
H550 H 0.86844 0.65127 0.90314 0.0
H551 H 0.74975 0.6758 0.8895 0.0
H552 H 0.78146 0.7055 0.85273 0.0
H553 H 0.72325 0.59774 0.91754 0.0
H554 H 0.8533 0.76586 0.90936 0.0
H555 H 0.93566 0.82863 0.89921 0.0
H556 H -0.00535 0.76665 0.94421 0.0
H557 H 0.9125 0.70299 0.95434 0.0
C558 C 0.70369 0.71836 0.99755 0.0
C559 C 0.73034 0.73091 1.01737 0.0
C560 C 0.71121 0.69158 0.98147 0.0
C561 C 0.74548 0.67688 0.98496 0.0
C562 C 0.76922 0.68597 1.0055 0.0
C563 C 0.76154 0.71264 1.02166 0.0
C564 C 0.76328 0.66194 0.96569 0.0
C565 C 0.8116 0.69216 0.95979 0.0
C566 C 0.73149 0.62577 0.95077 0.0
C567 C 0.68094 0.5907 0.95695 0.0
C568 C 0.6709 0.56572 0.97722 0.0
C569 C 0.62335 0.53298 0.98311 0.0
C570 C 0.58544 0.52477 0.96885 0.0
C571 C 0.59501 0.54926 0.94866 0.0
C572 C 0.6425 0.58204 0.94268 0.0
C573 C 0.86697 0.67891 0.87087 0.0
C574 C 0.84392 0.6963 0.85668 0.0
C575 C 0.84858 0.66168 0.89193 0.0
C576 C 0.80712 0.66199 0.8991 0.0
C577 C 0.78169 0.67508 0.88423 0.0
C578 C 0.79997 0.6922 0.8632 0.0
C579 C 0.79485 0.6576 0.92285 0.0
C580 C 0.7478 0.62408 0.92943 0.0
C581 C 0.82757 0.69113 0.93844 0.0
C582 C 0.87688 0.72927 0.93233 0.0
C583 C 0.88386 0.76539 0.91693 0.0
C584 C 0.93047 0.80114 0.9112 0.0
C585 C 0.97037 0.80152 0.921 0.0
C586 C 0.96371 0.7662 0.93658 0.0
C587 C 0.91715 0.73024 0.94229 0.0
H588 H 0.00644 0.82927 0.91656 0.0
H589 H 0.54865 0.49943 0.97345 0.0
H590 H 0.09299 0.76137 0.34096 0.0
H591 H 0.1466 0.77174 0.31032 0.0
H592 H 0.22164 0.9264 0.32036 0.0
H593 H 0.16718 0.91637 0.35061 0.0
H594 H 0.18393 0.90338 0.2806 0.0
H595 H 0.28325 0.86484 0.32375 0.0
H596 H 0.30471 0.82042 0.35077 0.0
H597 H 0.23888 0.6943 0.30923 0.0
H598 H 0.21631 0.73767 0.2821 0.0
H599 H 0.31583 0.91369 0.18203 0.0
H600 H 0.31463 0.89581 0.22153 0.0
H601 H 0.16074 0.80178 0.21803 0.0
H602 H 0.16113 0.82028 0.17906 0.0
H603 H 0.26202 0.81 0.25666 0.0
H604 H 0.12379 0.87316 0.24598 0.0
H605 H 0.10205 0.91848 0.21952 0.0
H606 H 0.24921 6e-05 0.19845 0.0
H607 H 0.27173 0.95529 0.22478 0.0
C608 C 0.1215 0.79751 0.33688 0.0
C609 C 0.12533 0.83814 0.34785 0.0
C610 C 0.15262 0.80333 0.3196 0.0
C611 C 0.18817 0.84985 0.3131 0.0
C612 C 0.19455 0.89018 0.32522 0.0
C613 C 0.1634 0.88438 0.34249 0.0
C614 C 0.21106 0.85663 0.29121 0.0
C615 C 0.20194 0.88374 0.27558 0.0
C616 C 0.23457 0.83103 0.28462 0.0
C617 C 0.24787 0.80453 0.3009 0.0
C618 C 0.27297 0.82751 0.32044 0.0
C619 C 0.28542 0.80253 0.33577 0.0
C620 C 0.27313 0.75456 0.33173 0.0
C621 C 0.2484 0.73148 0.31233 0.0
C622 C 0.23585 0.75629 0.29694 0.0
C623 C 0.28201 0.88767 0.1895 0.0
C624 C 0.23835 0.86981 0.17764 0.0
C625 C 0.28154 0.87701 0.21199 0.0
C626 C 0.23745 0.84845 0.22261 0.0
C627 C 0.19505 0.82417 0.21 0.0
C628 C 0.1954 0.83491 0.18764 0.0
C629 C 0.23308 0.85517 0.24639 0.0
C630 C 0.2453 0.83056 0.2621 0.0
C631 C 0.21262 0.8834 0.25326 0.0
C632 C 0.19943 0.91062 0.23729 0.0
C633 C 0.15153 0.90082 0.23572 0.0
C634 C 0.13903 0.92634 0.2207 0.0
C635 C 0.1742 0.96198 0.20723 0.0
C636 C 0.22192 0.97216 0.20875 0.0
C637 C 0.23452 0.94659 0.22368 0.0
H638 H 0.16452 0.98181 0.19567 0.0
H639 H 0.2828 0.73528 0.34362 0.0
H640 H 0.40903 0.04347 0.68907 0.0
H641 H 0.45738 0.08737 0.65705 0.0
H642 H 0.36049 0.97077 0.61428 0.0
H643 H 0.31203 0.92631 0.64623 0.0
H644 H 0.48475 0.05591 0.60444 0.0
H645 H 0.30549 0.02153 0.60238 0.0
H646 H 0.2369 -0.00288 0.62766 0.0
H647 H 0.32933 0.10711 0.67389 0.0
H648 H 0.3985 0.13183 0.64885 0.0
H649 H 0.4187 0.11841 0.50168 0.0
H650 H 0.43559 0.08742 0.5355 0.0
H651 H 0.4592 0.21509 0.57073 0.0
H652 H 0.44278 0.24668 0.53681 0.0
H653 H 0.38654 0.13346 0.58754 0.0
H654 H 0.54809 0.18788 0.56561 0.0
H655 H 0.61454 0.19859 0.54156 0.0
H656 H 0.55998 0.04518 0.54188 0.0
H657 H 0.49238 0.03329 0.56541 0.0
C658 C 0.3993 0.02609 0.673 0.0
C659 C 0.3561 0.98206 0.67 0.0
C660 C 0.42732 0.05105 0.65476 0.0
C661 C 0.41234 0.03223 0.63341 0.0
C662 C 0.37278 0.98554 0.63072 0.0
C663 C 0.34464 0.96065 0.64891 0.0
C664 C 0.42619 0.066 0.61462 0.0
C665 C 0.46397 0.07349 0.60065 0.0
C666 C 0.3989 0.08873 0.61005 0.0
C667 C 0.35679 0.07873 0.62374 0.0
C668 C 0.31084 0.04107 0.61775 0.0
C669 C 0.27201 0.02698 0.63208 0.0
C670 C 0.27875 0.05063 0.65234 0.0
C671 C 0.32415 0.08894 0.65816 0.0
C672 C 0.36316 0.10306 0.6439 0.0
C673 C 0.42921 0.14078 0.51641 0.0
C674 C 0.42873 0.18471 0.51667 0.0
C675 C 0.43902 0.12302 0.53574 0.0
C676 C 0.44867 0.14897 0.55561 0.0
C677 C 0.45181 0.19453 0.55553 0.0
C678 C 0.44202 0.21232 0.53621 0.0
C679 C 0.44608 0.12464 0.57688 0.0
C680 C 0.40919 0.11791 0.59139 0.0
C681 C 0.47443 0.10275 0.58165 0.0
C682 C 0.51471 0.10966 0.56714 0.0
C683 C 0.54975 0.1563 0.5603 0.0
C684 C 0.58771 0.1626 0.54676 0.0
C685 C 0.59135 0.12258 0.54011 0.0
C686 C 0.557 0.07614 0.54696 0.0
C687 C 0.51883 0.06961 0.5604 0.0
H688 H 0.62092 0.12756 0.52974 0.0
H689 H 0.24889 0.03888 0.66362 0.0
H690 H 0.36565 0.03581 1.08026 0.0
H691 H 0.43112 0.01653 0.08206 0.0
H692 H 0.51114 0.13789 0.12588 0.0
H693 H 0.44571 0.15589 0.12478 0.0
H694 H 0.51809 0.0625 1.06851 0.0
H695 H 0.58723 0.12502 0.15905 0.0
H696 H 0.55286 0.12286 0.19573 0.0
H697 H 0.41768 0.0019 0.1753 0.0
H698 H 0.45141 0.00282 0.13862 0.0
H699 H 0.7551 0.11 1.07089 0.0
H700 H 0.68461 0.11955 1.07675 0.0
H701 H 0.63233 0.00631 0.12595 0.0
H702 H 0.7045 -0.00101 0.12092 0.0
H703 H 0.60408 0.06457 0.13756 0.0
H704 H 0.59374 0.98574 1.06961 0.0
H705 H 0.62009 0.9739 1.03304 0.0
H706 H 0.6228 0.10211 1.00879 0.0
H707 H 0.59712 0.11511 1.04532 0.0
C708 C 0.39686 0.05771 0.09058 0.0
C709 C 0.4004 0.09739 0.10235 0.0
C710 C 0.43445 0.04689 0.09152 0.0
C711 C 0.47628 0.07545 0.10426 0.0
C712 C 0.47915 0.11447 0.1163 0.0
C713 C 0.44161 0.12497 0.11554 0.0
C714 C 0.51823 0.06672 0.10409 0.0
C715 C 0.53666 0.06277 0.08365 0.0
C716 C 0.5421 0.06558 0.1238 0.0
C717 C 0.52181 0.06429 0.14599 0.0
C718 C 0.55027 0.09778 0.16241 0.0
C719 C 0.53087 0.09681 0.1832 0.0
C720 C 0.48309 0.06236 0.18782 0.0
C721 C 0.45464 0.02867 0.17168 0.0
C722 C 0.47388 0.02944 0.15088 0.0
C723 C 0.72941 0.08853 0.08355 0.0
C724 C 0.73557 0.05441 0.09573 0.0
C725 C 0.68861 0.09333 0.08665 0.0
C726 C 0.65199 0.0626 0.10132 0.0
C727 C 0.65965 0.03038 0.11445 0.0
C728 C 0.70111 0.0264 0.1117 0.0
C729 C 0.60485 0.06213 0.10194 0.0
C730 C 0.5854 0.06419 0.12244 0.0
C731 C 0.57885 0.05947 0.08233 0.0
C732 C 0.59389 0.05161 1.06026 0.0
C733 C 0.60021 0.01156 1.05651 0.0
C734 C 0.61502 0.00463 1.03579 0.0
C735 C 0.62322 0.03729 1.01862 0.0
C736 C 0.61649 0.07688 1.02211 0.0
C737 C 0.60177 0.08402 1.04282 0.0
H738 H 0.6347 0.03189 1.00259 0.0
H739 H 0.46812 0.06173 0.20391 0.0
H740 H 0.4124 0.36966 0.41545 0.0
H741 H 0.49727 0.4333 0.4175 0.0
H742 H 0.45952 0.51536 0.46159 0.0
H743 H 0.37507 0.45171 0.45987 0.0
H744 H 0.53648 0.52398 0.40391 0.0
H745 H 0.55305 0.58499 0.49572 0.0
H746 H 0.52115 0.54867 0.53223 0.0
H747 H 0.49723 0.41113 0.50896 0.0
H748 H 0.52961 0.44675 0.47242 0.0
H749 H 0.73244 0.76076 0.41479 0.0
H750 H 0.65249 0.68899 0.4178 0.0
H751 H 0.71263 0.61778 0.45675 0.0
H752 H 0.7925 0.69009 0.45429 0.0
H753 H 0.62839 0.59758 0.47308 0.0
H754 H 0.68751 0.59307 0.40112 0.0
H755 H 0.7221 0.62493 0.36438 0.0
H756 H 0.59961 0.64007 0.34759 0.0
H757 H 0.56459 0.60891 0.38436 0.0
C758 C 0.42239 0.40095 0.42584 0.0
C759 C 0.38712 0.40582 0.43744 0.0
C760 C 0.47083 0.43737 0.42693 0.0
C761 C 0.4849 0.47912 0.43975 0.0
C762 C 0.44978 0.48328 0.45183 0.0
C763 C 0.40144 0.44691 0.45076 0.0
C764 C 0.53564 0.51965 0.43951 0.0
C765 C 0.5566 0.5399 0.41905 0.0
C766 C 0.5623 0.54011 0.45922 0.0
C767 C 0.54339 0.5185 0.48126 0.0
C768 C 0.5412 0.54706 0.49842 0.0
C769 C 0.52299 0.52657 0.51912 0.0
C770 C 0.50704 0.47759 0.52289 0.0
C771 C 0.50943 0.44902 0.50599 0.0
C772 C 0.52765 0.46933 0.48528 0.0
C773 C 0.72853 0.72995 0.42415 0.0
C774 C 0.76875 0.73088 0.43417 0.0
C775 C 0.68286 0.68883 0.42576 0.0
C776 C 0.67661 0.64754 0.43716 0.0
C777 C 0.71653 0.64905 0.44779 0.0
C778 C 0.76218 0.69034 0.44632 0.0
C779 C 0.62872 0.6025 0.4375 0.0
C780 C 0.6083 0.58148 0.45796 0.0
C781 C 0.60288 0.58066 0.41776 0.0
C782 C 0.62363 0.59902 0.39556 0.0
C783 C 0.6681 0.60348 0.38964 0.0
C784 C 0.68776 0.62138 0.36881 0.0
C785 C 0.66312 0.63462 0.35368 0.0
C786 C 0.61868 0.62985 0.35933 0.0
C787 C 0.59888 0.61202 0.38016 0.0
H788 H 0.67841 0.64848 0.33756 0.0
H789 H 0.49292 0.4618 0.53892 0.0
H790 H 0.95304 0.33579 0.78567 0.0
H791 H 0.96147 0.41619 0.78973 0.0
H792 H 0.05494 0.46614 0.73289 0.0
H793 H 0.04862 0.38673 0.72966 0.0
H794 H 0.09098 0.53246 0.76068 0.0
H795 H 0.9293 0.43756 0.73317 0.0
H796 H 0.84558 0.36967 0.73264 0.0
H797 H 0.82085 0.41269 0.79628 0.0
H798 H 0.90462 0.48052 0.7973 0.0
H799 H 0.00405 0.71905 0.74525 0.0
H800 H -0.01457 0.63447 0.74397 0.0
H801 H 0.08562 0.66227 0.79762 0.0
H802 H 0.10503 0.74683 0.79863 0.0
H803 H 0.95103 0.55739 0.77041 0.0
H804 H 0.14797 0.60403 0.78845 0.0
H805 H 0.23055 0.67254 0.78375 0.0
H806 H 0.18256 0.72627 0.72972 0.0
H807 H 0.09991 0.65772 0.73387 0.0
C808 C 0.97523 0.36396 0.77404 0.0
C809 C 2e-05 0.35491 0.7573 0.0
C810 C 0.97983 0.40996 0.77627 0.0
C811 C 0.00827 0.44754 0.76142 0.0
C812 C 0.03283 0.43815 0.74465 0.0
C813 C 0.02905 0.39259 0.74273 0.0
C814 C 0.01366 0.49694 0.76354 0.0
C815 C 0.06021 0.53761 0.76284 0.0
C816 C 0.97376 0.50445 0.76602 0.0
C817 C 0.92335 0.46382 0.7654 0.0
C818 C 0.90609 0.43235 0.74711 0.0
C819 C 0.85862 0.39391 0.74671 0.0
C820 C 0.82796 0.3868 0.76444 0.0
C821 C 0.84466 0.4182 0.78257 0.0
C822 C 0.89211 0.45667 0.78306 0.0
C823 C 0.02154 0.70691 0.75699 0.0
C824 C 0.05647 0.73982 0.77186 0.0
C825 C 0.01084 0.6585 0.75626 0.0
C826 C 0.03482 0.64203 0.77038 0.0
C827 C 0.06736 0.67418 0.78621 0.0
C828 C 0.07826 0.72254 0.78685 0.0
C829 C 0.02822 0.5924 0.76771 0.0
C830 C 0.98163 0.5519 0.76834 0.0
C831 C 0.06791 0.58498 0.76445 0.0
C832 C 0.11766 0.62604 0.76166 0.0
C833 C 0.15509 0.63038 0.77552 0.0
C834 C 0.20191 0.66922 0.77295 0.0
C835 C 0.21176 0.70383 0.7565 0.0
C836 C 0.17485 0.69955 0.74252 0.0
C837 C 0.12802 0.66073 0.74498 0.0
H838 H 0.248 0.7339 0.75456 0.0
H839 H 0.79122 0.35701 0.7641 0.0
H840 H 0.33025 0.23314 0.15729 0.0
H841 H 0.32867 0.25472 0.19607 0.0
H842 H 0.23681 0.10398 0.21186 0.0
H843 H 0.24024 0.08239 0.17331 0.0
H844 H 0.27786 0.25938 0.22442 0.0
H845 H 0.23333 0.07723 0.26737 0.0
H846 H 0.25426 0.01254 0.26503 0.0
H847 H 0.37968 0.10571 0.22694 0.0
H848 H 0.3601 0.17125 0.22945 0.0
H849 H 0.22257 0.28193 0.33836 0.0
H850 H 0.22241 0.25897 0.29963 0.0
H851 H 0.33078 0.22066 0.31529 0.0
H852 H 0.32874 0.24086 0.35417 0.0
H853 H 0.28376 0.16171 0.28698 0.0
H854 H 0.34404 0.33088 0.28412 0.0
H855 H 0.34539 0.40819 0.28969 0.0
H856 H 0.2198 0.35875 0.24835 0.0
H857 H 0.21761 0.28112 0.2426 0.0
C858 C 0.30992 0.20428 0.16896 0.0
C859 C 0.28572 0.15564 0.16149 0.0
C860 C 0.30874 0.21684 0.19152 0.0
C861 C 0.28315 0.18156 0.20803 0.0
C862 C 0.25833 0.13287 0.20042 0.0
C863 C 0.25995 0.12028 0.1779 0.0
C864 C 0.28207 0.19576 0.23265 0.0
C865 C 0.27901 0.23751 0.23793 0.0
C866 C 0.28476 0.16922 0.25124 0.0
C867 C 0.29491 0.12896 0.2484 0.0
C868 C 0.26527 0.08383 0.25843 0.0
C869 C 0.27702 0.0471 0.25715 0.0
C870 C 0.31835 0.05511 0.24589 0.0
C871 C 0.34768 0.0996 0.23565 0.0
C872 C 0.33625 0.13653 0.23698 0.0
C873 C 0.2467 0.26888 0.33366 0.0
C874 C 0.27591 0.26394 0.35007 0.0
C875 C 0.24686 0.2558 0.31108 0.0
C876 C 0.27736 0.23841 0.30341 0.0
C877 C 0.30652 0.2336 0.31989 0.0
C878 C 0.30566 0.24576 0.34251 0.0
C879 C 0.27886 0.22485 0.27874 0.0
C880 C 0.2821 0.18328 0.27346 0.0
C881 C 0.27839 0.25271 0.2602 0.0
C882 C 0.27995 0.29963 0.26337 0.0
C883 C 0.31643 0.3363 0.27639 0.0
C884 C 0.31744 0.38027 0.27952 0.0
C885 C 0.2825 0.38826 0.26951 0.0
C886 C 0.24668 0.35242 0.25621 0.0
C887 C 0.24553 0.3084 0.25302 0.0
H888 H 0.28333 0.42231 0.27197 0.0
H889 H 0.32783 0.02694 0.24518 0.0
H890 H 0.24723 0.24384 0.50917 0.0
H891 H 0.22043 0.24058 0.54748 0.0
H892 H 0.15028 0.3207 0.5282 0.0
H893 H 0.1755 0.32242 0.48994 0.0
H894 H 0.23283 0.29252 0.58026 0.0
H895 H 0.0627 0.30893 0.56342 0.0
H896 H -0.00135 0.28467 0.53517 0.0
H897 H 0.02171 0.16921 0.51404 0.0
H898 H 0.0855 0.19245 0.54232 0.0
H899 H 0.1593 0.33676 0.68642 0.0
H900 H 0.18555 0.33863 0.64822 0.0
H901 H 0.04939 0.21227 0.63294 0.0
H902 H 0.02268 0.21125 0.67096 0.0
H903 H 0.06842 0.25961 0.59817 0.0
H904 H 0.17801 0.21003 0.63071 0.0
H905 H 0.24028 0.21239 0.65575 0.0
H906 H 0.32808 0.36547 0.64536 0.0
H907 H 0.26741 0.36338 0.6191 0.0
C908 C 0.22584 0.26061 0.51294 0.0
C909 C 0.21369 0.28311 0.49576 0.0
C910 C 0.2104 0.2589 0.53522 0.0
C911 C 0.18192 0.27956 0.54162 0.0
C912 C 0.17062 0.30283 0.52445 0.0
C913 C 0.18571 0.30422 0.50219 0.0
C914 C 0.16496 0.27741 0.56592 0.0
C915 C 0.1968 0.2856 0.58385 0.0
C916 C 0.11753 0.26704 0.57183 0.0
C917 C 0.07925 0.25283 0.55481 0.0
C918 C 0.05402 0.27832 0.55277 0.0
C919 C 0.01778 0.26475 0.53675 0.0
C920 C 0.00625 0.22554 0.52276 0.0
C921 C 0.03082 0.19971 0.52482 0.0
C922 C 0.06706 0.2131 0.54082 0.0
C923 C 0.13463 0.30927 0.67502 0.0
C924 C 0.08826 0.27409 0.68243 0.0
C925 C 0.15016 0.3099 0.65284 0.0
C926 C 0.12044 0.27509 0.63679 0.0
C927 C 0.07399 0.24006 0.64425 0.0
C928 C 0.05843 0.23948 0.66638 0.0
C929 C 0.13671 0.27584 0.61246 0.0
C930 C 0.10464 0.2672 0.59451 0.0
C931 C 0.18335 0.2842 0.60649 0.0
C932 C 0.21793 0.28675 0.62342 0.0
C933 C 0.21037 0.24426 0.634 0.0
C934 C 0.24553 0.24546 0.64823 0.0
C935 C 0.28772 0.28917 0.65251 0.0
C936 C 0.29523 0.33169 0.64218 0.0
C937 C 0.26074 0.33045 0.62742 0.0
H938 H 0.31475 0.29 0.66367 0.0
H939 H 0.97819 0.21511 0.51037 0.0
H940 H 0.05501 0.27376 0.84294 0.0
H941 H 0.03157 0.24633 0.88127 0.0
H942 H 0.92458 0.10587 0.85736 0.0
H943 H 0.94708 0.13358 0.81923 0.0
H944 H 0.88445 0.11842 0.88941 0.0
H945 H 0.04336 0.14005 0.88742 0.0
H946 H 0.13146 0.18199 0.8824 0.0
H947 H 0.14943 0.28657 0.93171 0.0
H948 H 0.06134 0.24547 0.9369 0.0
H949 H 0.83431 -0.00089 0.99674 0.0
H950 H 0.86093 0.0262 0.95857 0.0
H951 H 0.953 0.17146 0.98206 0.0
H952 H 0.92654 0.14465 1.02001 0.0
H953 H 0.0013 0.15597 0.9508 0.0
H954 H 0.84073 0.13185 0.95243 0.0
H955 H 0.75287 0.08582 0.95827 0.0
H956 H 0.73916 0.98135 0.90977 0.0
H957 H 0.82707 0.02646 0.90385 0.0
C958 C 0.02658 0.23688 0.84571 0.0
C959 C 0.00346 0.20637 0.82727 0.0
C960 C 0.01316 0.22074 0.86802 0.0
C961 C 0.9761 0.173 0.87322 0.0
C962 C 0.95308 0.14276 0.8547 0.0
C963 C 0.96635 0.15887 0.83248 0.0
C964 C 0.96022 0.15476 0.89739 0.0
C965 C 0.91059 0.12637 0.90255 0.0
C966 C -0.00718 0.16482 0.9156 0.0
C967 C 0.04567 0.19016 0.91225 0.0
C968 C 0.06605 0.17229 0.89702 0.0
C969 C 0.11598 0.19584 0.89419 0.0
C970 C 0.14596 0.23712 0.90661 0.0
C971 C 0.12612 0.25472 0.92203 0.0
C972 C 0.07619 0.23131 0.92493 0.0
C973 C 0.85998 0.03695 0.99389 0.0
C974 C 0.87736 0.0693 1.01209 0.0
C975 C 0.8754 0.05274 0.97174 0.0
C976 C 0.90924 0.10168 0.96659 0.0
C977 C 0.92711 0.13365 0.98485 0.0
C978 C 0.91144 0.11804 1.00689 0.0
C979 C 0.92581 0.11972 0.94257 0.0
C980 C 0.97541 0.14808 0.93752 0.0
C981 C 0.89331 0.10929 0.92442 0.0
C982 C 0.84051 0.08225 0.92787 0.0
C983 C 0.819 0.09888 0.94313 0.0
C984 C 0.7692 0.07299 0.94643 0.0
C985 C 0.74047 0.03062 0.93444 0.0
C986 C 0.76147 0.01413 0.91907 0.0
C987 C 0.81128 0.03986 0.91572 0.0
H988 H 0.70191 0.01063 0.93702 0.0
H989 H 0.18458 0.25534 0.90432 0.0
H990 H 0.80219 0.90952 0.15486 0.0
H991 H 0.80414 0.88777 0.19378 0.0
H992 H 0.89592 0.03836 0.20989 0.0
H993 H 0.893 0.06008 0.17123 0.0
H994 H 0.8442 0.00573 0.24321 0.0
H995 H 0.8114 0.81111 0.23204 0.0
H996 H 0.82775 0.76332 0.20494 0.0
H997 H 0.94739 0.89355 0.17958 0.0
H998 H 0.93208 0.94202 0.20668 0.0
H999 H 0.80239 0.90127 0.35266 0.0
H1000 H 0.79898 0.92104 0.31375 0.0
H1001 H 0.91826 0.899 0.2994 0.0
H1002 H 0.92077 0.8778 0.33834 0.0
H1003 H 0.86728 0.8686 0.2651 0.0
H1004 H 0.92874 0.03458 0.29299 0.0
H1005 H 0.93155 0.09894 0.31658 0.0
H1006 H 0.77927 0.04037 0.30784 0.0
H1007 H 0.77615 0.97735 0.28297 0.0
C1008 C 0.82292 0.93824 0.16658 0.0
C1009 C 0.84748 0.98692 0.15916 0.0
C1010 C 0.82442 0.9256 0.18921 0.0
C1011 C 0.85091 0.96085 0.20572 0.0
C1012 C 0.87497 0.00952 0.19825 0.0
C1013 C 0.87341 0.02213 0.1757 0.0
C1014 C 0.85325 0.94774 0.23045 0.0
C1015 C 0.8489 0.97532 0.24767 0.0
C1016 C 0.86068 0.909 0.2375 0.0
C1017 C 0.8702 0.88017 0.22121 0.0
C1018 C 0.84124 0.8295 0.2207 0.0
C1019 C 0.85032 0.80231 0.20534 0.0
C1020 C 0.88847 0.8254 0.19049 0.0
C1021 C 0.91773 0.87572 0.19102 0.0
C1022 C 0.90882 0.90307 0.20636 0.0
C1023 C 0.82807 0.90044 0.34135 0.0
C1024 C 0.86169 0.88722 0.34937 0.0
C1025 C 0.82656 0.91269 0.3187 0.0
C1026 C 0.85892 0.91304 0.30265 0.0
C1027 C 0.89239 0.89951 0.31068 0.0
C1028 C 0.89386 0.88718 0.33335 0.0
C1029 C 0.85715 0.92598 0.27781 0.0
C1030 C 0.86187 0.89852 0.26057 0.0
C1031 C 0.8513 0.96556 0.27066 0.0
C1032 C 0.85204 0.00084 0.28661 0.0
C1033 C 0.89581 0.0352 0.29632 0.0
C1034 C 0.89753 0.07164 0.30975 0.0
C1035 C 0.85551 0.07322 0.31412 0.0
C1036 C 0.81175 0.03889 0.30461 0.0
C1037 C 0.81006 0.00316 0.29063 0.0
H1038 H 0.85696 0.10128 0.3247 0.0
H1039 H 0.89543 0.80428 0.17861 0.0
H1040 H 0.8539 0.85933 0.51109 0.0
H1041 H 0.87693 0.85885 0.54988 0.0
H1042 H 0.01577 0.88319 0.529 0.0
H1043 H -0.00852 0.88059 0.49035 0.0
H1044 H 0.00381 0.8348 0.56119 0.0
H1045 H 0.98187 0.97148 0.55887 0.0
H1046 H 0.94206 0.01995 0.55279 0.0
H1047 H 0.83187 0.93125 0.59917 0.0
H1048 H 0.87033 0.88149 0.6051 0.0
H1049 H 0.10847 0.89524 0.67201 0.0
H1050 H 0.08627 0.89845 0.6332 0.0
H1051 H 0.93813 0.8397 0.65217 0.0
H1052 H 0.96017 0.83666 0.69084 0.0
H1053 H 0.95648 0.90699 0.62161 0.0
H1054 H -0.01406 0.77169 0.62271 0.0
H1055 H 0.03528 0.73317 0.62969 0.0
H1056 H 0.14426 0.83461 0.58594 0.0
H1057 H 0.09574 0.87403 0.57889 0.0
C1058 C 0.88949 0.86478 0.51464 0.0
C1059 C 0.92044 0.87013 0.49687 0.0
C1060 C 0.90321 0.86502 0.53727 0.0
C1061 C 0.94926 0.87204 0.54354 0.0
C1062 C 0.98003 0.87748 0.52564 0.0
C1063 C 0.96598 0.87626 0.50308 0.0
C1064 C 0.9651 0.87259 0.56818 0.0
C1065 C -0.00634 0.85152 0.57408 0.0
C1066 C 0.95267 0.89346 0.58615 0.0
C1067 C 0.9286 0.92232 0.58217 0.0
C1068 C 0.94877 0.96191 0.56753 0.0
C1069 C 0.92648 -0.01036 0.56414 0.0
C1070 C 0.88429 0.9785 0.57548 0.0
C1071 C 0.86436 0.93964 0.59028 0.0
C1072 C 0.88635 0.91161 0.59364 0.0
C1073 C 0.07097 0.8824 0.66804 0.0
C1074 C 0.03639 0.86485 0.68522 0.0
C1075 C 0.05804 0.88421 0.64548 0.0
C1076 C 0.00979 0.8686 0.63883 0.0
C1077 C 0.97554 0.85195 0.65609 0.0
C1078 C -0.01163 0.84991 0.67856 0.0
C1079 C -0.00519 0.86934 0.61431 0.0
C1080 C 0.96636 0.89042 0.60853 0.0
C1081 C 0.00854 0.84989 0.59636 0.0
C1082 C 0.03738 0.82593 0.60038 0.0
C1083 C 0.02052 0.78586 0.61465 0.0
C1084 C 0.04832 0.76387 0.61861 0.0
C1085 C 0.09291 0.78147 0.60829 0.0
C1086 C 0.10973 0.82102 0.59393 0.0
C1087 C 0.08207 0.84315 0.58992 0.0
H1088 H 0.1144 0.76443 0.61139 0.0
H1089 H 0.86713 6e-05 0.57287 0.0
H1090 H 0.20273 0.95504 0.82518 0.0
H1091 H 0.22814 0.98557 0.86299 0.0
H1092 H 0.08067 0.9364 0.8803 0.0
H1093 H 0.05506 0.9055 0.84244 0.0
H1094 H 0.13422 0.02189 0.9 0.0
H1095 H 0.14677 0.87846 0.8985 0.0
H1096 H 0.17391 0.82326 0.88466 0.0
H1097 H 0.32139 0.93274 0.89547 0.0
H1098 H 0.29513 0.98884 0.90911 0.0
H1099 H 0.26883 0.14128 1.00222 0.0
H1100 H 0.24394 0.11543 0.96369 0.0
H1101 H 0.19914 0.96837 0.98195 0.0
H1102 H 0.22542 -0.00567 1.02003 0.0
H1103 H 0.24 0.98102 0.94424 0.0
H1104 H 0.20885 0.12959 0.92867 0.0
H1105 H 0.16714 0.17497 0.93777 0.0
H1106 H 0.04315 0.04344 0.95894 0.0
H1107 H 0.08497 -0.00222 0.95082 0.0
C1108 C 0.17534 0.95036 0.83692 0.0
C1109 C 0.12636 0.92711 0.83008 0.0
C1110 C 0.19012 0.96794 0.85894 0.0
C1111 C 0.15685 0.96364 0.87541 0.0
C1112 C 0.10792 0.94089 0.86851 0.0
C1113 C 0.09305 0.92277 0.84655 0.0
C1114 C 0.17281 0.98267 0.89944 0.0
C1115 C 0.15764 0.01289 0.90946 0.0
C1116 C 0.20311 0.97159 0.91275 0.0
C1117 C 0.219 0.938 0.9046 0.0
C1118 C 0.185 0.89088 0.89777 0.0
C1119 C 0.20022 0.85941 0.88999 0.0
C1120 C 0.24935 0.87453 0.88913 0.0
C1121 C 0.28335 0.92111 0.89611 0.0
C1122 C 0.26832 0.95274 0.90388 0.0
C1123 C 0.25381 0.10337 0.99813 0.0
C1124 C 0.24923 0.07028 1.01499 0.0
C1125 C 0.23844 0.08813 0.97579 0.0
C1126 C 0.21777 0.03899 0.96904 0.0
C1127 C 0.21423 0.00636 0.98589 0.0
C1128 C 0.22944 0.0215 1.0081 0.0
C1129 C 0.20243 0.0214 0.94473 0.0
C1130 C 0.21727 -0.00922 0.93469 0.0
C1131 C 0.17182 0.03212 0.93138 0.0
C1132 C 0.15056 0.06066 0.93986 0.0
C1133 C 0.1733 0.11072 0.93595 0.0
C1134 C 0.14959 0.13644 0.94083 0.0
C1135 C 0.10263 0.11217 0.94902 0.0
C1136 C 0.07969 0.06231 0.95279 0.0
C1137 C 0.10362 0.03662 0.94837 0.0
H1138 H 0.08386 0.13189 0.95225 0.0
H1139 H 0.26106 0.85012 0.88311 0.0
loop_
_geom_bond_atom_site_label_1
_geom_bond_atom_site_label_2
_geom_bond_distance
_geom_bond_site_symmetry_2
_ccdc_geom_bond_type
Pr0 C2 2.880 . S
Pr0 O20 2.562 . S
Pr0 O21 2.490 . S
Pr0 O22 2.695 1_554 S
Pr0 O23 2.512 . S
Pr0 O25 2.437 . S
Pr0 O28 2.436 . S
Pr0 O30 2.438 1_554 S
Pr1 C11 2.880 . S
Pr1 O22 2.436 . S
Pr1 O24 2.438 1_556 S
Pr1 O26 2.562 . S
Pr1 O27 2.490 . S
Pr1 O28 2.695 1_556 S
Pr1 O29 2.512 . S
Pr1 O31 2.437 . S
C2 Pr0 2.880 . S
C2 C3 1.491 . S
C2 O20 1.254 . S
C2 O21 1.225 . S
C3 C2 1.491 . S
C3 C4 1.392 . S
C3 C8 1.356 . S
C4 C3 1.392 . S
C4 C5 1.368 . S
C4 H32 0.929 . S
C5 C4 1.368 . S
C5 C6 1.386 . S
C5 H33 0.929 1_545 S
C6 C5 1.386 . S
C6 C7 1.373 . S
C7 C6 1.373 . S
C7 C8 1.409 . S
C7 H34 0.931 . S
C8 C3 1.356 . S
C8 C7 1.409 . S
C8 H35 0.930 . S
C9 O22 1.270 1_554 S
C9 O23 1.248 . S
C10 O24 1.267 . S
C10 O25 1.278 . S
C11 Pr1 2.880 . S
C11 C12 1.491 . S
C11 O26 1.254 . S
C11 O27 1.225 . S
C12 C11 1.491 . S
C12 C13 1.392 . S
C12 C17 1.356 . S
C13 C12 1.392 . S
C13 C14 1.368 . S
C13 H36 0.929 . S
C14 C13 1.368 . S
C14 C15 1.386 . S
C14 H37 0.929 . S
C15 C14 1.386 . S
C15 C16 1.373 . S
C16 C15 1.373 . S
C16 C17 1.409 . S
C16 H38 0.931 . S
C17 C12 1.356 . S
C17 C16 1.409 . S
C17 H39 0.930 . S
C18 O28 1.270 . S
C18 O29 1.248 1_554 S
C19 O30 1.267 . S
C19 O31 1.278 . S
O20 Pr0 2.562 . S
O20 C2 1.254 . S
O21 Pr0 2.490 . S
O21 C2 1.225 . S
O22 Pr0 2.695 1_556 S
O22 Pr1 2.436 . S
O22 C9 1.270 1_556 S
O23 Pr0 2.512 . S
O23 C9 1.248 . S
O24 Pr1 2.438 1_554 S
O24 C10 1.267 . S
O25 Pr0 2.437 . S
O25 C10 1.278 . S
O26 Pr1 2.562 . S
O26 C11 1.254 . S
O27 Pr1 2.490 . S
O27 C11 1.225 . S
O28 Pr0 2.436 . S
O28 Pr1 2.695 1_554 S
O28 C18 1.270 . S
O29 Pr1 2.512 . S
O29 C18 1.248 1_556 S
O30 Pr0 2.438 1_556 S
O30 C19 1.267 . S
O31 Pr1 2.437 . S
O31 C19 1.278 . S
H32 C4 0.929 . S
H33 C5 0.929 1_565 S
H34 C7 0.931 . S
H35 C8 0.930 . S
H36 C13 0.929 . S
H37 C14 0.929 . S
H38 C16 0.931 . S
H39 C17 0.930 . S
Pr40 C42 2.880 . S
Pr40 O60 2.562 . S
Pr40 O61 2.490 . S
Pr40 O62 2.695 . S
Pr40 O63 2.512 . S
Pr40 O65 2.437 . S
Pr40 O68 2.436 . S
Pr40 O70 2.438 . S
Pr41 C51 2.880 . S
Pr41 O62 2.436 . S
Pr41 O64 2.438 . S
Pr41 O66 2.562 . S
Pr41 O67 2.490 . S
Pr41 O68 2.695 . S
Pr41 O69 2.512 . S
Pr41 O71 2.437 . S
C42 Pr40 2.880 . S
C42 C43 1.491 . S
C42 O60 1.254 . S
C42 O61 1.225 . S
C43 C42 1.491 . S
C43 C44 1.392 . S
C43 C48 1.356 . S
C44 C43 1.392 . S
C44 C45 1.368 . S
C44 H72 0.929 . S
C45 C44 1.368 . S
C45 C46 1.386 . S
C45 H73 0.929 . S
C46 C45 1.386 . S
C46 C47 1.373 . S
C47 C46 1.373 . S
C47 C48 1.409 . S
C47 H74 0.931 . S
C48 C43 1.356 . S
C48 C47 1.409 . S
C48 H75 0.930 . S
C49 O62 1.270 . S
C49 O63 1.248 . S
C50 O64 1.267 . S
C50 O65 1.278 . S
C51 Pr41 2.880 . S
C51 C52 1.491 . S
C51 O66 1.254 . S
C51 O67 1.225 . S
C52 C51 1.491 . S
C52 C53 1.392 . S
C52 C57 1.356 . S
C53 C52 1.392 . S
C53 C54 1.368 . S
C53 H76 0.929 . S
C54 C53 1.368 . S
C54 C55 1.386 . S
C54 H77 0.929 . S
C55 C54 1.386 . S
C55 C56 1.373 . S
C56 C55 1.373 . S
C56 C57 1.409 . S
C56 H78 0.931 . S
C57 C52 1.356 . S
C57 C56 1.409 . S
C57 H79 0.930 . S
C58 O68 1.270 . S
C58 O69 1.248 . S
C59 O70 1.267 . S
C59 O71 1.278 . S
O60 Pr40 2.562 . S
O60 C42 1.254 . S
O61 Pr40 2.490 . S
O61 C42 1.225 . S
O62 Pr40 2.695 . S
O62 Pr41 2.436 . S
O62 C49 1.270 . S
O63 Pr40 2.512 . S
O63 C49 1.248 . S
O64 Pr41 2.438 . S
O64 C50 1.267 . S
O65 Pr40 2.437 . S
O65 C50 1.278 . S
O66 Pr41 2.562 . S
O66 C51 1.254 . S
O67 Pr41 2.490 . S
O67 C51 1.225 . S
O68 Pr40 2.436 . S
O68 Pr41 2.695 . S
O68 C58 1.270 . S
O69 Pr41 2.512 . S
O69 C58 1.248 . S
O70 Pr40 2.438 . S
O70 C59 1.267 . S
O71 Pr41 2.437 . S
O71 C59 1.278 . S
H72 C44 0.929 . S
H73 C45 0.929 . S
H74 C47 0.931 . S
H75 C48 0.930 . S
H76 C53 0.929 . S
H77 C54 0.929 . S
H78 C56 0.931 . S
H79 C57 0.930 . S
Pr80 C82 2.880 . S
Pr80 O100 2.562 . S
Pr80 O101 2.490 . S
Pr80 O102 2.695 . S
Pr80 O103 2.512 . S
Pr80 O105 2.437 1_455 S
Pr80 O108 2.455 . S
Pr80 O110 2.438 . S
Pr81 C91 2.880 . S
Pr81 O102 2.435 1_655 S
Pr81 O104 2.438 . S
Pr81 O106 2.562 . S
Pr81 O107 2.490 . S
Pr81 O108 2.689 1_655 S
Pr81 O109 2.512 . S
Pr81 O111 2.437 1_655 S
C82 Pr80 2.880 . S
C82 C83 1.491 . S
C82 O100 1.254 . S
C82 O101 1.225 . S
C83 C82 1.491 . S
C83 C84 1.392 . S
C83 C88 1.356 . S
C84 C83 1.392 . S
C84 C85 1.368 . S
C84 H112 0.929 . S
C85 C84 1.368 . S
C85 C86 1.386 . S
C85 H113 0.929 . S
C86 C85 1.386 . S
C86 C87 1.373 . S
C87 C86 1.373 . S
C87 C88 1.409 . S
C87 H114 0.931 . S
C88 C83 1.356 . S
C88 C87 1.409 . S
C88 H115 0.930 . S
C89 O102 1.271 . S
C89 O103 1.248 . S
C90 O104 1.267 . S
C90 O105 1.278 . S
C91 Pr81 2.880 . S
C91 C92 1.491 . S
C91 O106 1.254 . S
C91 O107 1.225 . S
C92 C91 1.491 . S
C92 C93 1.392 . S
C92 C97 1.356 . S
C93 C92 1.392 . S
C93 C94 1.368 . S
C93 H116 0.929 . S
C94 C93 1.368 . S
C94 C95 1.386 . S
C94 H117 0.929 . S
C95 C94 1.386 . S
C95 C96 1.373 . S
C96 C95 1.373 . S
C96 C97 1.409 . S
C96 H118 0.931 . S
C97 C92 1.356 . S
C97 C96 1.409 . S
C97 H119 0.930 . S
C98 O108 1.254 1_655 S
C98 O109 1.248 . S
C99 O110 1.267 . S
C99 O111 1.278 . S
O100 Pr80 2.562 . S
O100 C82 1.254 . S
O101 Pr80 2.490 . S
O101 C82 1.225 . S
O102 Pr80 2.695 . S
O102 Pr81 2.435 1_455 S
O102 C89 1.271 . S
O103 Pr80 2.512 . S
O103 C89 1.248 . S
O104 Pr81 2.438 . S
O104 C90 1.267 . S
O105 Pr80 2.437 1_655 S
O105 C90 1.278 . S
O106 Pr81 2.562 . S
O106 C91 1.254 . S
O107 Pr81 2.490 . S
O107 C91 1.225 . S
O108 Pr80 2.455 . S
O108 Pr81 2.689 1_455 S
O108 C98 1.254 1_455 S
O109 Pr81 2.512 . S
O109 C98 1.248 . S
O110 Pr80 2.438 . S
O110 C99 1.267 . S
O111 Pr81 2.437 1_455 S
O111 C99 1.278 . S
H112 C84 0.929 . S
H113 C85 0.929 . S
H114 C87 0.931 . S
H115 C88 0.930 . S
H116 C93 0.929 . S
H117 C94 0.929 . S
H118 C96 0.931 . S
H119 C97 0.930 . S
Pr120 C122 2.880 . S
Pr120 O140 2.562 . S
Pr120 O141 2.490 . S
Pr120 O142 2.692 1_544 S
Pr120 O143 2.512 . S
Pr120 O145 2.437 1_545 S
Pr120 O148 2.439 . S
Pr120 O150 2.438 1_554 S
Pr121 C131 2.880 . S
Pr121 O142 2.437 . S
Pr121 O144 2.438 1_556 S
Pr121 O146 2.562 . S
Pr121 O147 2.490 . S
Pr121 O148 2.686 1_566 S
Pr121 O149 2.512 . S
Pr121 O151 2.437 1_565 S
C122 Pr120 2.880 . S
C122 C123 1.491 . S
C122 O140 1.254 . S
C122 O141 1.225 . S
C123 C122 1.491 . S
C123 C124 1.392 . S
C123 C128 1.356 . S
C124 C123 1.392 . S
C124 C125 1.368 . S
C124 H152 0.929 . S
C125 C124 1.368 . S
C125 C126 1.386 . S
C125 H153 0.929 . S
C126 C125 1.386 . S
C126 C127 1.373 . S
C127 C126 1.373 . S
C127 C128 1.409 . S
C127 H154 0.931 . S
C128 C123 1.356 . S
C128 C127 1.409 . S
C128 H155 0.930 . S
C129 O142 1.271 1_544 S
C129 O143 1.248 . S
C130 O144 1.267 . S
C130 O145 1.278 . S
C131 Pr121 2.880 . S
C131 C132 1.491 . S
C131 O146 1.254 . S
C131 O147 1.225 . S
C132 C131 1.491 . S
C132 C133 1.392 . S
C132 C137 1.356 . S
C133 C132 1.392 . S
C133 C134 1.368 . S
C133 H156 0.929 . S
C134 C133 1.368 . S
C134 C135 1.386 . S
C134 H157 0.929 . S
C135 C134 1.386 . S
C135 C136 1.373 . S
C136 C135 1.373 . S
C136 C137 1.409 . S
C136 H158 0.931 . S
C137 C132 1.356 . S
C137 C136 1.409 . S
C137 H159 0.930 . S
C138 O148 1.271 1_565 S
C138 O149 1.248 1_554 S
C139 O150 1.267 . S
C139 O151 1.278 . S
O140 Pr120 2.562 . S
O140 C122 1.254 . S
O141 Pr120 2.490 . S
O141 C122 1.225 . S
O142 Pr120 2.692 1_566 S
O142 Pr121 2.437 . S
O142 C129 1.271 1_566 S
O143 Pr120 2.512 . S
O143 C129 1.248 . S
O144 Pr121 2.438 1_554 S
O144 C130 1.267 . S
O145 Pr120 2.437 1_565 S
O145 C130 1.278 . S
O146 Pr121 2.562 . S
O146 C131 1.254 . S
O147 Pr121 2.490 . S
O147 C131 1.225 . S
O148 Pr120 2.439 . S
O148 Pr121 2.686 1_544 S
O148 C138 1.271 1_545 S
O149 Pr121 2.512 . S
O149 C138 1.248 1_556 S
O150 Pr120 2.438 1_556 S
O150 C139 1.267 . S
O151 Pr121 2.437 1_545 S
O151 C139 1.278 . S
H152 C124 0.929 . S
H153 C125 0.929 . S
H154 C127 0.931 . S
H155 C128 0.930 . S
H156 C133 0.929 . S
H157 C134 0.929 . S
H158 C136 0.931 . S
H159 C137 0.930 . S
Pr160 C162 2.880 . S
Pr160 O180 2.562 . S
Pr160 O181 2.490 . S
Pr160 O182 2.695 . S
Pr160 O183 2.512 . S
Pr160 O185 2.437 . S
Pr160 O188 2.436 . S
Pr160 O190 2.438 . S
Pr161 C171 2.880 . S
Pr161 O182 2.436 . S
Pr161 O184 2.438 . S
Pr161 O186 2.562 . S
Pr161 O187 2.490 . S
Pr161 O188 2.695 . S
Pr161 O189 2.512 . S
Pr161 O191 2.437 . S
C162 Pr160 2.880 . S
C162 C163 1.491 . S
C162 O180 1.254 . S
C162 O181 1.225 . S
C163 C162 1.491 . S
C163 C164 1.392 . S
C163 C168 1.356 . S
C164 C163 1.392 . S
C164 C165 1.368 . S
C164 H192 0.929 . S
C165 C164 1.368 . S
C165 C166 1.386 . S
C165 H193 0.929 . S
C166 C165 1.386 . S
C166 C167 1.373 . S
C167 C166 1.373 . S
C167 C168 1.409 . S
C167 H194 0.931 . S
C168 C163 1.356 . S
C168 C167 1.409 . S
C168 H195 0.930 . S
C169 O182 1.270 . S
C169 O183 1.248 . S
C170 O184 1.267 . S
C170 O185 1.278 . S
C171 Pr161 2.880 . S
C171 C172 1.491 . S
C171 O186 1.254 . S
C171 O187 1.225 . S
C172 C171 1.491 . S
C172 C173 1.392 . S
C172 C177 1.356 1_655 S
C173 C172 1.392 . S
C173 C174 1.368 . S
C173 H196 0.929 . S
C174 C173 1.368 . S
C174 C175 1.386 . S
C174 H197 0.929 . S
C175 C174 1.386 . S
C175 C176 1.373 1_655 S
C176 C175 1.373 1_455 S
C176 C177 1.409 . S
C176 H198 0.931 . S
C177 C172 1.356 1_455 S
C177 C176 1.409 . S
C177 H199 0.930 . S
C178 O188 1.270 . S
C178 O189 1.248 . S
C179 O190 1.267 . S
C179 O191 1.278 . S
O180 Pr160 2.562 . S
O180 C162 1.254 . S
O181 Pr160 2.490 . S
O181 C162 1.225 . S
O182 Pr160 2.695 . S
O182 Pr161 2.436 . S
O182 C169 1.270 . S
O183 Pr160 2.512 . S
O183 C169 1.248 . S
O184 Pr161 2.438 . S
O184 C170 1.267 . S
O185 Pr160 2.437 . S
O185 C170 1.278 . S
O186 Pr161 2.562 . S
O186 C171 1.254 . S
O187 Pr161 2.490 . S
O187 C171 1.225 . S
O188 Pr160 2.436 . S
O188 Pr161 2.695 . S
O188 C178 1.270 . S
O189 Pr161 2.512 . S
O189 C178 1.248 . S
O190 Pr160 2.438 . S
O190 C179 1.267 . S
O191 Pr161 2.437 . S
O191 C179 1.278 . S
H192 C164 0.929 . S
H193 C165 0.929 . S
H194 C167 0.931 . S
H195 C168 0.930 . S
H196 C173 0.929 . S
H197 C174 0.929 . S
H198 C176 0.931 . S
H199 C177 0.930 . S
Pr200 C202 2.880 . S
Pr200 O220 2.562 . S
Pr200 O221 2.490 . S
Pr200 O222 2.695 . S
Pr200 O223 2.512 . S
Pr200 O225 2.437 . S
Pr200 O228 2.436 . S
Pr200 O230 2.438 . S
Pr201 C211 2.880 . S
Pr201 O222 2.436 . S
Pr201 O224 2.438 . S
Pr201 O226 2.562 . S
Pr201 O227 2.490 . S
Pr201 O228 2.695 . S
Pr201 O229 2.512 . S
Pr201 O231 2.437 . S
C202 Pr200 2.880 . S
C202 C203 1.491 . S
C202 O220 1.254 . S
C202 O221 1.225 . S
C203 C202 1.491 . S
C203 C204 1.392 . S
C203 C208 1.356 . S
C204 C203 1.392 . S
C204 C205 1.368 . S
C204 H232 0.929 . S
C205 C204 1.368 . S
C205 C206 1.386 . S
C205 H233 0.929 1_455 S
C206 C205 1.386 . S
C206 C207 1.373 . S
C207 C206 1.373 . S
C207 C208 1.409 . S
C207 H234 0.931 . S
C208 C203 1.356 . S
C208 C207 1.409 . S
C208 H235 0.930 . S
C209 O222 1.270 . S
C209 O223 1.248 . S
C210 O224 1.267 . S
C210 O225 1.278 . S
C211 Pr201 2.880 . S
C211 C212 1.491 . S
C211 O226 1.254 . S
C211 O227 1.225 . S
C212 C211 1.491 . S
C212 C213 1.392 . S
C212 C217 1.337 1_565 S
C213 C212 1.392 . S
C213 C214 1.368 . S
C213 H236 0.929 . S
C214 C213 1.368 . S
C214 C215 1.386 . S
C214 H237 0.929 . S
C215 C214 1.386 . S
C215 C216 1.373 1_565 S
C216 C215 1.373 1_545 S
C216 C217 1.411 . S
C216 H238 0.931 . S
C217 C212 1.337 1_545 S
C217 C216 1.411 . S
C217 H239 0.946 . S
C218 O228 1.270 . S
C218 O229 1.248 . S
C219 O230 1.267 . S
C219 O231 1.278 . S
O220 Pr200 2.562 . S
O220 C202 1.254 . S
O221 Pr200 2.490 . S
O221 C202 1.225 . S
O222 Pr200 2.695 . S
O222 Pr201 2.436 . S
O222 C209 1.270 . S
O223 Pr200 2.512 . S
O223 C209 1.248 . S
O224 Pr201 2.438 . S
O224 C210 1.267 . S
O225 Pr200 2.437 . S
O225 C210 1.278 . S
O226 Pr201 2.562 . S
O226 C211 1.254 . S
O227 Pr201 2.490 . S
O227 C211 1.225 . S
O228 Pr200 2.436 . S
O228 Pr201 2.695 . S
O228 C218 1.270 . S
O229 Pr201 2.512 . S
O229 C218 1.248 . S
O230 Pr200 2.438 . S
O230 C219 1.267 . S
O231 Pr201 2.437 . S
O231 C219 1.278 . S
H232 C204 0.929 . S
H233 C205 0.929 1_655 S
H234 C207 0.931 . S
H235 C208 0.930 . S
H236 C213 0.929 . S
H237 C214 0.929 . S
H238 C216 0.931 . S
H239 C217 0.946 . S
H240 C258 0.951 . S
H241 C260 0.951 . S
H242 C262 0.950 . S
H243 C263 0.950 . S
H244 C265 0.950 . S
H245 C268 0.950 1_655 S
H246 C269 0.950 . S
H247 C271 0.950 . S
H248 C272 0.950 . S
H249 C273 0.951 . S
H250 C275 0.951 . S
H251 C277 0.950 . S
H252 C278 0.950 . S
H253 C280 0.950 1_556 S
H254 C283 0.950 . S
H255 C284 0.950 . S
H256 C286 0.950 . S
H257 C287 0.950 . S
C258 H240 0.951 . S
C258 C259 1.351 1_556 S
C258 C260 1.388 . S
C259 C258 1.351 1_554 S
C259 C263 1.400 1_565 S
C260 H241 0.951 . S
C260 C258 1.388 . S
C260 C261 1.366 1_566 S
C261 C260 1.366 1_544 S
C261 C262 1.414 . S
C261 C264 1.499 1_655 S
C262 H242 0.950 . S
C262 C261 1.414 . S
C262 C263 1.374 . S
C263 H243 0.950 . S
C263 C259 1.400 1_545 S
C263 C262 1.374 . S
C264 C261 1.499 1_455 S
C264 C265 1.376 . S
C264 C266 1.389 . S
C265 H244 0.950 . S
C265 C264 1.376 . S
C265 C281 1.373 1_554 S
C266 C264 1.389 . S
C266 C267 1.524 1_545 S
C266 C280 1.377 . S
C267 C266 1.524 1_565 S
C267 C268 1.397 . S
C267 C272 1.363 1_554 S
C268 H245 0.950 1_455 S
C268 C267 1.397 . S
C268 C269 1.334 1_455 S
C269 H246 0.950 . S
C269 C268 1.334 1_655 S
C269 C270 1.287 . S
C270 C269 1.287 . S
C270 C271 1.524 1_654 S
C270 H289 0.913 . S
C271 H247 0.950 . S
C271 C270 1.524 1_456 S
C271 C272 1.415 . S
C272 H248 0.950 . S
C272 C267 1.363 1_556 S
C272 C271 1.415 . S
C273 H249 0.951 . S
C273 C274 1.382 . S
C273 C275 1.388 . S
C274 C273 1.382 . S
C274 C278 1.368 1_554 S
C275 H250 0.951 . S
C275 C273 1.388 . S
C275 C276 1.357 1_554 S
C276 C275 1.357 1_556 S
C276 C277 1.422 . S
C276 C279 1.498 . S
C277 H251 0.950 . S
C277 C276 1.422 . S
C277 C278 1.374 . S
C278 H252 0.950 . S
C278 C274 1.368 1_556 S
C278 C277 1.374 . S
C279 C276 1.498 . S
C279 C280 1.372 1_556 S
C279 C281 1.389 . S
C280 H253 0.950 1_554 S
C280 C266 1.377 . S
C280 C279 1.372 1_554 S
C281 C265 1.373 1_556 S
C281 C279 1.389 . S
C281 C282 1.529 . S
C282 C281 1.529 . S
C282 C283 1.397 . S
C282 C287 1.363 1_556 S
C283 H254 0.950 . S
C283 C282 1.397 . S
C283 C284 1.334 . S
C284 H255 0.950 . S
C284 C283 1.334 . S
C284 C285 1.287 . S
C285 C284 1.287 . S
C285 C286 1.524 1_556 S
C285 H288 0.999 . S
C286 H256 0.950 . S
C286 C285 1.524 1_554 S
C286 C287 1.415 . S
C287 H257 0.950 . S
C287 C282 1.363 1_554 S
C287 C286 1.415 . S
H288 C285 0.999 . S
H289 C270 0.913 . S
H290 C308 0.951 . S
H291 C310 0.951 . S
H292 C312 0.950 . S
H293 C313 0.950 . S
H294 C315 0.950 . S
H295 C318 0.938 1_655 S
H296 C319 0.950 1_655 S
H297 C321 0.950 . S
H298 C322 0.950 . S
H299 C323 0.951 . S
H300 C325 0.951 . S
H301 C327 0.950 . S
H302 C328 0.950 . S
H303 C330 0.950 . S
H304 C333 0.950 . S
H305 C334 0.950 . S
H306 C336 0.950 . S
H307 C337 0.950 . S
C308 H290 0.951 . S
C308 C309 1.366 1_455 S
C308 C310 1.388 . S
C309 C308 1.366 1_655 S
C309 C313 1.385 . S
C310 H291 0.951 . S
C310 C308 1.388 . S
C310 C311 1.366 . S
C311 C310 1.366 . S
C311 C312 1.414 1_455 S
C311 C314 1.499 1_565 S
C312 H292 0.950 . S
C312 C311 1.414 1_655 S
C312 C313 1.374 . S
C313 H293 0.950 . S
C313 C309 1.385 . S
C313 C312 1.374 . S
C314 C311 1.499 1_545 S
C314 C315 1.373 . S
C314 C316 1.389 . S
C315 H294 0.950 . S
C315 C314 1.373 . S
C315 C331 1.377 . S
C316 C314 1.389 . S
C316 C317 1.524 . S
C316 C330 1.377 . S
C317 C316 1.524 . S
C317 C318 1.397 . S
C317 C322 1.363 . S
C318 H295 0.938 1_455 S
C318 C317 1.397 . S
C318 C319 1.334 1_545 S
C319 H296 0.950 1_455 S
C319 C318 1.334 1_565 S
C319 C320 1.287 . S
C320 C319 1.287 . S
C320 C321 1.524 1_565 S
C320 H339 0.913 . S
C321 H297 0.950 . S
C321 C320 1.524 1_545 S
C321 C322 1.415 . S
C322 H298 0.950 . S
C322 C317 1.363 . S
C322 C321 1.415 . S
C323 H299 0.951 . S
C323 C324 1.366 . S
C323 C325 1.388 . S
C324 C323 1.366 . S
C324 C328 1.385 . S
C325 H300 0.951 . S
C325 C323 1.388 . S
C325 C326 1.366 . S
C326 C325 1.366 . S
C326 C327 1.414 . S
C326 C329 1.499 . S
C327 H301 0.950 . S
C327 C326 1.414 . S
C327 C328 1.374 . S
C328 H302 0.950 . S
C328 C324 1.385 . S
C328 C327 1.374 . S
C329 C326 1.499 . S
C329 C330 1.373 . S
C329 C331 1.389 . S
C330 H303 0.950 . S
C330 C316 1.377 . S
C330 C329 1.373 . S
C331 C315 1.377 . S
C331 C329 1.389 . S
C331 C332 1.524 . S
C332 C331 1.524 . S
C332 C333 1.397 . S
C332 C337 1.363 . S
C333 H304 0.950 . S
C333 C332 1.397 . S
C333 C334 1.334 . S
C334 H305 0.950 . S
C334 C333 1.334 . S
C334 C335 1.287 . S
C335 C334 1.287 . S
C335 C336 1.524 . S
C335 H338 0.999 . S
C336 H306 0.950 . S
C336 C335 1.524 . S
C336 C337 1.415 . S
C337 H307 0.950 . S
C337 C332 1.363 . S
C337 C336 1.415 . S
H338 C335 0.999 . S
H339 C320 0.913 . S
H340 C358 0.951 . S
H341 C360 0.951 . S
H342 C362 0.950 . S
H343 C363 0.950 . S
H344 C365 0.950 . S
H345 C368 0.950 . S
H346 C369 0.950 . S
H347 C371 0.950 . S
H348 C372 0.950 1_655 S
H349 C373 0.951 . S
H350 C375 0.951 . S
H351 C377 0.950 . S
H352 C378 0.950 . S
H353 C380 0.950 . S
H354 C383 0.950 . S
H355 C384 0.950 . S
H356 C386 0.950 . S
H357 C387 0.950 . S
C358 H340 0.951 . S
C358 C359 1.366 . S
C358 C360 1.388 . S
C359 C358 1.366 . S
C359 C363 1.385 1_565 S
C360 H341 0.951 . S
C360 C358 1.388 . S
C360 C361 1.366 1_565 S
C361 C360 1.366 1_545 S
C361 C362 1.414 . S
C361 C364 1.499 . S
C362 H342 0.950 . S
C362 C361 1.414 . S
C362 C363 1.374 . S
C363 H343 0.950 . S
C363 C359 1.385 1_545 S
C363 C362 1.374 . S
C364 C361 1.499 . S
C364 C365 1.373 . S
C364 C366 1.389 . S
C365 H344 0.950 . S
C365 C364 1.373 . S
C365 C381 1.377 . S
C366 C364 1.389 . S
C366 C367 1.524 . S
C366 C380 1.377 . S
C367 C366 1.524 . S
C367 C368 1.397 . S
C367 C372 1.363 1_545 S
C368 H345 0.950 . S
C368 C367 1.397 . S
C368 C369 1.334 1_545 S
C369 H346 0.950 . S
C369 C368 1.334 1_565 S
C369 C370 1.287 . S
C370 C369 1.287 . S
C370 C371 1.524 1_455 S
C370 H389 0.913 . S
C371 H347 0.950 . S
C371 C370 1.524 1_655 S
C371 C372 1.415 1_655 S
C372 H348 0.950 1_455 S
C372 C367 1.363 1_565 S
C372 C371 1.415 1_455 S
C373 H349 0.951 . S
C373 C374 1.366 1_455 S
C373 C375 1.388 . S
C374 C373 1.366 1_655 S
C374 C378 1.385 . S
C375 H350 0.951 . S
C375 C373 1.388 . S
C375 C376 1.366 . S
C376 C375 1.366 . S
C376 C377 1.414 1_455 S
C376 C379 1.499 . S
C377 H351 0.950 . S
C377 C376 1.414 1_655 S
C377 C378 1.374 . S
C378 H352 0.950 . S
C378 C374 1.385 . S
C378 C377 1.374 . S
C379 C376 1.499 . S
C379 C380 1.373 . S
C379 C381 1.389 . S
C380 H353 0.950 . S
C380 C366 1.377 . S
C380 C379 1.373 . S
C381 C365 1.377 . S
C381 C379 1.389 . S
C381 C382 1.524 . S
C382 C381 1.524 . S
C382 C383 1.397 . S
C382 C387 1.363 . S
C383 H354 0.950 . S
C383 C382 1.397 . S
C383 C384 1.334 . S
C384 H355 0.950 . S
C384 C383 1.334 . S
C384 C385 1.287 . S
C385 C384 1.287 . S
C385 C386 1.524 . S
C385 H388 0.999 . S
C386 H356 0.950 . S
C386 C385 1.524 . S
C386 C387 1.415 . S
C387 H357 0.950 . S
C387 C382 1.363 . S
C387 C386 1.415 . S
H388 C385 0.999 . S
H389 C370 0.913 . S
H390 C408 0.951 . S
H391 C410 0.951 . S
H392 C412 0.950 . S
H393 C413 0.950 . S
H394 C415 0.950 . S
H395 C418 0.950 . S
H396 C419 0.950 . S
H397 C421 0.950 . S
H398 C422 0.950 . S
H399 C423 0.951 . S
H400 C425 0.951 . S
H401 C427 0.950 . S
H402 C428 0.950 . S
H403 C430 0.950 . S
H404 C433 0.950 . S
H405 C434 0.950 . S
H406 C436 0.950 . S
H407 C437 0.950 . S
C408 H390 0.951 . S
C408 C409 1.366 . S
C408 C410 1.388 . S
C409 C408 1.366 . S
C409 C413 1.385 . S
C410 H391 0.951 . S
C410 C408 1.388 . S
C410 C411 1.366 . S
C411 C410 1.366 . S
C411 C412 1.414 . S
C411 C414 1.499 . S
C412 H392 0.950 . S
C412 C411 1.414 . S
C412 C413 1.374 . S
C413 H393 0.950 . S
C413 C409 1.385 . S
C413 C412 1.374 . S
C414 C411 1.499 . S
C414 C415 1.373 . S
C414 C416 1.389 . S
C415 H394 0.950 . S
C415 C414 1.373 . S
C415 C431 1.377 . S
C416 C414 1.389 . S
C416 C417 1.524 . S
C416 C430 1.377 . S
C417 C416 1.524 . S
C417 C418 1.397 . S
C417 C422 1.363 . S
C418 H395 0.950 . S
C418 C417 1.397 . S
C418 C419 1.334 . S
C419 H396 0.950 . S
C419 C418 1.334 . S
C419 C420 1.287 . S
C420 C419 1.287 . S
C420 C421 1.524 . S
C420 H439 0.913 . S
C421 H397 0.950 . S
C421 C420 1.524 . S
C421 C422 1.415 . S
C422 H398 0.950 . S
C422 C417 1.363 . S
C422 C421 1.415 . S
C423 H399 0.951 . S
C423 C424 1.366 . S
C423 C425 1.388 . S
C424 C423 1.366 . S
C424 C428 1.385 . S
C425 H400 0.951 . S
C425 C423 1.388 . S
C425 C426 1.366 . S
C426 C425 1.366 . S
C426 C427 1.414 . S
C426 C429 1.499 . S
C427 H401 0.950 . S
C427 C426 1.414 . S
C427 C428 1.374 . S
C428 H402 0.950 . S
C428 C424 1.385 . S
C428 C427 1.374 . S
C429 C426 1.499 . S
C429 C430 1.373 . S
C429 C431 1.389 . S
C430 H403 0.950 . S
C430 C416 1.377 . S
C430 C429 1.373 . S
C431 C415 1.377 . S
C431 C429 1.389 . S
C431 C432 1.524 . S
C432 C431 1.524 . S
C432 C433 1.397 . S
C432 C437 1.363 . S
C433 H404 0.950 . S
C433 C432 1.397 . S
C433 C434 1.334 . S
C434 H405 0.950 . S
C434 C433 1.334 . S
C434 C435 1.287 . S
C435 C434 1.287 . S
C435 C436 1.524 . S
C435 H438 0.999 . S
C436 H406 0.950 . S
C436 C435 1.524 . S
C436 C437 1.415 . S
C437 H407 0.950 . S
C437 C432 1.363 . S
C437 C436 1.415 . S
H438 C435 0.999 . S
H439 C420 0.913 . S
H440 C458 0.951 . S
H441 C460 0.951 . S
H442 C462 0.950 . S
H443 C463 0.950 . S
H444 C465 0.950 . S
H445 C468 0.950 1_455 S
H446 C469 0.950 . S
H447 C471 0.950 . S
H448 C472 0.950 . S
H449 C473 0.951 . S
H450 C475 0.951 . S
H451 C477 0.950 . S
H452 C478 0.950 . S
H453 C480 0.950 . S
H454 C483 0.950 . S
H455 C484 0.950 . S
H456 C486 0.950 . S
H457 C487 0.950 . S
C458 H440 0.951 . S
C458 C459 1.366 . S
C458 C460 1.388 . S
C459 C458 1.366 . S
C459 C463 1.385 . S
C460 H441 0.951 . S
C460 C458 1.388 . S
C460 C461 1.366 . S
C461 C460 1.366 . S
C461 C462 1.414 . S
C461 C464 1.499 . S
C462 H442 0.950 . S
C462 C461 1.414 . S
C462 C463 1.374 . S
C463 H443 0.950 . S
C463 C459 1.385 . S
C463 C462 1.374 . S
C464 C461 1.499 . S
C464 C465 1.373 . S
C464 C466 1.389 . S
C465 H444 0.950 . S
C465 C464 1.373 . S
C465 C481 1.377 . S
C466 C464 1.389 . S
C466 C467 1.524 1_455 S
C466 C480 1.377 1_455 S
C467 C466 1.524 1_655 S
C467 C468 1.397 . S
C467 C472 1.363 . S
C468 H445 0.950 1_655 S
C468 C467 1.397 . S
C468 C469 1.334 . S
C469 H446 0.950 . S
C469 C468 1.334 . S
C469 C470 1.287 . S
C470 C469 1.287 . S
C470 C471 1.524 . S
C470 H489 0.913 . S
C471 H447 0.950 . S
C471 C470 1.524 . S
C471 C472 1.415 . S
C472 H448 0.950 . S
C472 C467 1.363 . S
C472 C471 1.415 . S
C473 H449 0.951 . S
C473 C474 1.366 . S
C473 C475 1.388 . S
C474 C473 1.366 . S
C474 C478 1.385 . S
C475 H450 0.951 . S
C475 C473 1.388 . S
C475 C476 1.366 . S
C476 C475 1.366 . S
C476 C477 1.414 . S
C476 C479 1.499 . S
C477 H451 0.950 . S
C477 C476 1.414 . S
C477 C478 1.374 . S
C478 H452 0.950 . S
C478 C474 1.385 . S
C478 C477 1.374 . S
C479 C476 1.499 . S
C479 C480 1.373 . S
C479 C481 1.389 1_655 S
C480 H453 0.950 . S
C480 C466 1.377 1_655 S
C480 C479 1.373 . S
C481 C465 1.377 . S
C481 C479 1.389 1_455 S
C481 C482 1.524 . S
C482 C481 1.524 . S
C482 C483 1.397 . S
C482 C487 1.363 . S
C483 H454 0.950 . S
C483 C482 1.397 . S
C483 C484 1.334 . S
C484 H455 0.950 . S
C484 C483 1.334 . S
C484 C485 1.287 . S
C485 C484 1.287 . S
C485 C486 1.524 . S
C485 H488 0.999 . S
C486 H456 0.950 . S
C486 C485 1.524 . S
C486 C487 1.415 . S
C487 H457 0.950 . S
C487 C482 1.363 . S
C487 C486 1.415 . S
H488 C485 0.999 . S
H489 C470 0.913 . S
H490 C508 0.951 . S
H491 C510 0.951 . S
H492 C512 0.950 . S
H493 C513 0.950 . S
H494 C515 0.950 . S
H495 C518 0.950 . S
H496 C519 0.950 . S
H497 C521 0.950 . S
H498 C522 0.950 . S
H499 C523 0.951 . S
H500 C525 0.951 . S
H501 C527 0.950 . S
H502 C528 0.950 . S
H503 C530 0.950 . S
H504 C533 0.950 . S
H505 C534 0.950 . S
H506 C536 0.950 . S
H507 C537 0.950 . S
C508 H490 0.951 . S
C508 C509 1.366 . S
C508 C510 1.388 . S
C509 C508 1.366 . S
C509 C513 1.385 . S
C510 H491 0.951 . S
C510 C508 1.388 . S
C510 C511 1.366 . S
C511 C510 1.366 . S
C511 C512 1.414 . S
C511 C514 1.499 . S
C512 H492 0.950 . S
C512 C511 1.414 . S
C512 C513 1.374 . S
C513 H493 0.950 . S
C513 C509 1.385 . S
C513 C512 1.374 . S
C514 C511 1.499 . S
C514 C515 1.373 . S
C514 C516 1.389 . S
C515 H494 0.950 . S
C515 C514 1.373 . S
C515 C531 1.377 1_545 S
C516 C514 1.389 . S
C516 C517 1.524 . S
C516 C530 1.377 . S
C517 C516 1.524 . S
C517 C518 1.397 . S
C517 C522 1.363 . S
C518 H495 0.950 . S
C518 C517 1.397 . S
C518 C519 1.334 . S
C519 H496 0.950 . S
C519 C518 1.334 . S
C519 C520 1.287 . S
C520 C519 1.287 . S
C520 C521 1.524 . S
C520 H539 0.913 . S
C521 H497 0.950 . S
C521 C520 1.524 . S
C521 C522 1.415 . S
C522 H498 0.950 . S
C522 C517 1.363 . S
C522 C521 1.415 . S
C523 H499 0.951 . S
C523 C524 1.366 . S
C523 C525 1.388 . S
C524 C523 1.366 . S
C524 C528 1.385 . S
C525 H500 0.951 . S
C525 C523 1.388 . S
C525 C526 1.366 . S
C526 C525 1.366 . S
C526 C527 1.414 . S
C526 C529 1.499 . S
C527 H501 0.950 . S
C527 C526 1.414 . S
C527 C528 1.374 . S
C528 H502 0.950 . S
C528 C524 1.385 . S
C528 C527 1.374 . S
C529 C526 1.499 . S
C529 C530 1.373 1_565 S
C529 C531 1.389 . S
C530 H503 0.950 . S
C530 C516 1.377 . S
C530 C529 1.373 1_545 S
C531 C515 1.377 1_565 S
C531 C529 1.389 . S
C531 C532 1.524 . S
C532 C531 1.524 . S
C532 C533 1.397 . S
C532 C537 1.363 . S
C533 H504 0.950 . S
C533 C532 1.397 . S
C533 C534 1.334 . S
C534 H505 0.950 . S
C534 C533 1.334 . S
C534 C535 1.287 . S
C535 C534 1.287 . S
C535 C536 1.524 . S
C535 H538 0.999 . S
C536 H506 0.950 . S
C536 C535 1.524 . S
C536 C537 1.415 . S
C537 H507 0.950 . S
C537 C532 1.363 . S
C537 C536 1.415 . S
H538 C535 0.999 . S
H539 C520 0.913 . S
H540 C558 0.951 . S
H541 C560 0.951 . S
H542 C562 0.950 . S
H543 C563 0.950 . S
H544 C565 0.950 . S
H545 C568 0.950 . S
H546 C569 0.950 . S
H547 C571 0.950 . S
H548 C572 0.950 . S
H549 C573 0.951 . S
H550 C575 0.951 . S
H551 C577 0.950 . S
H552 C578 0.950 . S
H553 C580 0.950 . S
H554 C583 0.950 . S
H555 C584 0.950 . S
H556 C586 0.950 1_545 S
H557 C587 0.950 . S
C558 H540 0.951 . S
C558 C559 1.366 . S
C558 C560 1.388 . S
C559 C558 1.366 . S
C559 C563 1.385 . S
C560 H541 0.951 . S
C560 C558 1.388 . S
C560 C561 1.366 . S
C561 C560 1.366 . S
C561 C562 1.414 . S
C561 C564 1.499 . S
C562 H542 0.950 . S
C562 C561 1.414 . S
C562 C563 1.374 . S
C563 H543 0.950 . S
C563 C559 1.385 . S
C563 C562 1.374 . S
C564 C561 1.499 . S
C564 C565 1.373 . S
C564 C566 1.389 . S
C565 H544 0.950 . S
C565 C564 1.373 . S
C565 C581 1.377 . S
C566 C564 1.389 . S
C566 C567 1.524 . S
C566 C580 1.377 . S
C567 C566 1.524 . S
C567 C568 1.397 . S
C567 C572 1.363 . S
C568 H545 0.950 . S
C568 C567 1.397 . S
C568 C569 1.334 . S
C569 H546 0.950 . S
C569 C568 1.334 . S
C569 C570 1.287 . S
C570 C569 1.287 . S
C570 C571 1.524 . S
C570 H589 0.913 . S
C571 H547 0.950 . S
C571 C570 1.524 . S
C571 C572 1.415 . S
C572 H548 0.950 . S
C572 C567 1.363 . S
C572 C571 1.415 . S
C573 H549 0.951 . S
C573 C574 1.366 . S
C573 C575 1.388 . S
C574 C573 1.366 . S
C574 C578 1.385 1_455 S
C575 H550 0.951 . S
C575 C573 1.388 . S
C575 C576 1.366 1_455 S
C576 C575 1.366 1_655 S
C576 C577 1.414 . S
C576 C579 1.499 . S
C577 H551 0.950 . S
C577 C576 1.414 . S
C577 C578 1.374 . S
C578 H552 0.950 . S
C578 C574 1.385 1_655 S
C578 C577 1.374 . S
C579 C576 1.499 . S
C579 C580 1.373 . S
C579 C581 1.389 . S
C580 H553 0.950 . S
C580 C566 1.377 . S
C580 C579 1.373 . S
C581 C565 1.377 . S
C581 C579 1.389 . S
C581 C582 1.524 . S
C582 C581 1.524 . S
C582 C583 1.397 . S
C582 C587 1.363 . S
C583 H554 0.950 . S
C583 C582 1.397 . S
C583 C584 1.334 . S
C584 H555 0.950 . S
C584 C583 1.334 . S
C584 C585 1.287 1_655 S
C585 C584 1.287 1_455 S
C585 C586 1.524 . S
C585 H588 0.999 1_565 S
C586 H556 0.950 1_565 S
C586 C585 1.524 . S
C586 C587 1.415 1_455 S
C587 H557 0.950 . S
C587 C582 1.363 . S
C587 C586 1.415 1_655 S
H588 C585 0.999 1_545 S
H589 C570 0.913 . S
H590 C608 0.951 . S
H591 C610 0.951 . S
H592 C612 0.950 . S
H593 C613 0.950 1_655 S
H594 C615 0.950 . S
H595 C618 0.950 . S
H596 C619 0.950 . S
H597 C621 0.950 . S
H598 C622 0.950 . S
H599 C623 0.951 . S
H600 C625 0.951 1_545 S
H601 C627 0.950 . S
H602 C628 0.950 . S
H603 C630 0.950 . S
H604 C633 0.950 . S
H605 C634 0.950 . S
H606 C636 0.950 . S
H607 C637 0.950 . S
C608 H590 0.951 . S
C608 C609 1.366 1_455 S
C608 C610 1.388 . S
C609 C608 1.366 1_655 S
C609 C613 1.385 1_655 S
C610 H591 0.951 . S
C610 C608 1.388 . S
C610 C611 1.366 . S
C611 C610 1.366 . S
C611 C612 1.414 . S
C611 C614 1.499 . S
C612 H592 0.950 . S
C612 C611 1.414 . S
C612 C613 1.374 . S
C613 H593 0.950 1_455 S
C613 C609 1.385 1_455 S
C613 C612 1.374 . S
C614 C611 1.499 . S
C614 C615 1.373 . S
C614 C616 1.389 . S
C615 H594 0.950 . S
C615 C614 1.373 . S
C615 C631 1.377 . S
C616 C614 1.389 . S
C616 C617 1.524 . S
C616 C630 1.377 . S
C617 C616 1.524 . S
C617 C618 1.397 . S
C617 C622 1.363 . S
C618 H595 0.950 . S
C618 C617 1.397 . S
C618 C619 1.334 . S
C619 H596 0.950 . S
C619 C618 1.334 . S
C619 C620 1.287 . S
C620 C619 1.287 . S
C620 C621 1.524 . S
C620 H639 0.913 . S
C621 H597 0.950 . S
C621 C620 1.524 . S
C621 C622 1.415 . S
C622 H598 0.950 . S
C622 C617 1.363 . S
C622 C621 1.415 . S
C623 H599 0.951 . S
C623 C624 1.366 . S
C623 C625 1.388 1_545 S
C624 C623 1.366 . S
C624 C628 1.385 1_545 S
C625 H600 0.951 1_565 S
C625 C623 1.388 1_565 S
C625 C626 1.366 . S
C626 C625 1.366 . S
C626 C627 1.414 . S
C626 C629 1.499 . S
C627 H601 0.950 . S
C627 C626 1.414 . S
C627 C628 1.374 . S
C628 H602 0.950 . S
C628 C624 1.385 1_565 S
C628 C627 1.374 . S
C629 C626 1.499 . S
C629 C630 1.373 . S
C629 C631 1.389 . S
C630 H603 0.950 . S
C630 C616 1.377 . S
C630 C629 1.373 . S
C631 C615 1.377 . S
C631 C629 1.389 . S
C631 C632 1.524 . S
C632 C631 1.524 . S
C632 C633 1.397 . S
C632 C637 1.363 . S
C633 H604 0.950 . S
C633 C632 1.397 . S
C633 C634 1.334 . S
C634 H605 0.950 . S
C634 C633 1.334 . S
C634 C635 1.287 . S
C635 C634 1.287 . S
C635 C636 1.524 . S
C635 H638 0.999 . S
C636 H606 0.950 . S
C636 C635 1.524 . S
C636 C637 1.415 . S
C637 H607 0.950 . S
C637 C632 1.363 . S
C637 C636 1.415 . S
H638 C635 0.999 . S
H639 C620 0.913 . S
H640 C658 0.951 . S
H641 C660 0.951 . S
H642 C662 0.950 . S
H643 C663 0.942 1_565 S
H644 C665 0.950 . S
H645 C668 0.950 . S
H646 C669 0.950 1_565 S
H647 C671 0.950 . S
H648 C672 0.950 . S
H649 C673 0.951 . S
H650 C675 0.951 . S
H651 C677 0.950 . S
H652 C678 0.950 . S
H653 C680 0.950 . S
H654 C683 0.950 . S
H655 C684 0.950 . S
H656 C686 0.950 . S
H657 C687 0.950 . S
C658 H640 0.951 . S
C658 C659 1.366 1_545 S
C658 C660 1.388 . S
C659 C658 1.366 1_565 S
C659 C663 1.386 1_565 S
C660 H641 0.951 . S
C660 C658 1.388 . S
C660 C661 1.366 . S
C661 C660 1.366 . S
C661 C662 1.414 . S
C661 C664 1.499 . S
C662 H642 0.950 . S
C662 C661 1.414 . S
C662 C663 1.381 . S
C663 H643 0.942 1_545 S
C663 C659 1.386 1_545 S
C663 C662 1.381 . S
C664 C661 1.499 . S
C664 C665 1.373 . S
C664 C666 1.389 . S
C665 H644 0.950 . S
C665 C664 1.373 . S
C665 C681 1.377 . S
C666 C664 1.389 . S
C666 C667 1.524 . S
C666 C680 1.377 . S
C667 C666 1.524 . S
C667 C668 1.397 . S
C667 C672 1.363 . S
C668 H645 0.950 . S
C668 C667 1.397 . S
C668 C669 1.334 . S
C669 H646 0.950 1_545 S
C669 C668 1.334 . S
C669 C670 1.287 . S
C670 C669 1.287 . S
C670 C671 1.524 . S
C670 H689 0.913 1_545 S
C671 H647 0.950 . S
C671 C670 1.524 . S
C671 C672 1.415 . S
C672 H648 0.950 . S
C672 C667 1.363 . S
C672 C671 1.415 . S
C673 H649 0.951 . S
C673 C674 1.366 . S
C673 C675 1.388 . S
C674 C673 1.366 . S
C674 C678 1.385 . S
C675 H650 0.951 . S
C675 C673 1.388 . S
C675 C676 1.366 . S
C676 C675 1.366 . S
C676 C677 1.414 . S
C676 C679 1.499 . S
C677 H651 0.950 . S
C677 C676 1.414 . S
C677 C678 1.374 . S
C678 H652 0.950 . S
C678 C674 1.385 . S
C678 C677 1.374 . S
C679 C676 1.499 . S
C679 C680 1.373 . S
C679 C681 1.389 . S
C680 H653 0.950 . S
C680 C666 1.377 . S
C680 C679 1.373 . S
C681 C665 1.377 . S
C681 C679 1.389 . S
C681 C682 1.524 . S
C682 C681 1.524 . S
C682 C683 1.397 . S
C682 C687 1.363 . S
C683 H654 0.950 . S
C683 C682 1.397 . S
C683 C684 1.334 . S
C684 H655 0.950 . S
C684 C683 1.334 . S
C684 C685 1.287 . S
C685 C684 1.287 . S
C685 C686 1.524 . S
C685 H688 0.999 . S
C686 H656 0.950 . S
C686 C685 1.524 . S
C686 C687 1.415 . S
C687 H657 0.950 . S
C687 C682 1.363 . S
C687 C686 1.415 . S
H688 C685 0.999 . S
H689 C670 0.913 1_565 S
H690 C708 0.951 . S
H691 C710 0.951 . S
H692 C712 0.950 . S
H693 C713 0.950 . S
H694 C715 0.950 . S
H695 C718 0.950 . S
H696 C719 0.950 . S
H697 C721 0.950 . S
H698 C722 0.950 . S
H699 C723 0.951 . S
H700 C725 0.951 . S
H701 C727 0.950 . S
H702 C728 0.950 . S
H703 C730 0.950 . S
H704 C733 0.950 . S
H705 C734 0.950 1_565 S
H706 C736 0.950 . S
H707 C737 0.950 . S
C708 H690 0.951 . S
C708 C709 1.366 . S
C708 C710 1.388 . S
C709 C708 1.366 . S
C709 C713 1.385 1_554 S
C710 H691 0.951 . S
C710 C708 1.388 . S
C710 C711 1.366 . S
C711 C710 1.366 . S
C711 C712 1.414 1_554 S
C711 C714 1.499 . S
C712 H692 0.950 . S
C712 C711 1.414 1_556 S
C712 C713 1.374 . S
C713 H693 0.950 . S
C713 C709 1.385 1_556 S
C713 C712 1.374 . S
C714 C711 1.499 . S
C714 C715 1.373 1_554 S
C714 C716 1.389 . S
C715 H694 0.950 . S
C715 C714 1.373 1_556 S
C715 C731 1.377 . S
C716 C714 1.389 . S
C716 C717 1.524 . S
C716 C730 1.377 . S
C717 C716 1.524 . S
C717 C718 1.397 . S
C717 C722 1.363 . S
C718 H695 0.950 . S
C718 C717 1.397 . S
C718 C719 1.334 . S
C719 H696 0.950 . S
C719 C718 1.334 . S
C719 C720 1.287 . S
C720 C719 1.287 . S
C720 C721 1.524 . S
C720 H739 0.913 . S
C721 H697 0.950 . S
C721 C720 1.524 . S
C721 C722 1.415 . S
C722 H698 0.950 . S
C722 C717 1.363 . S
C722 C721 1.415 . S
C723 H699 0.951 . S
C723 C724 1.366 1_546 S
C723 C725 1.388 . S
C724 C723 1.366 1_564 S
C724 C728 1.385 . S
C725 H700 0.951 . S
C725 C723 1.388 . S
C725 C726 1.366 1_556 S
C726 C725 1.366 1_554 S
C726 C727 1.414 1_545 S
C726 C729 1.499 . S
C727 H701 0.950 . S
C727 C726 1.414 1_565 S
C727 C728 1.374 . S
C728 H702 0.950 . S
C728 C724 1.385 . S
C728 C727 1.374 . S
C729 C726 1.499 . S
C729 C730 1.373 . S
C729 C731 1.389 1_554 S
C730 H703 0.950 . S
C730 C716 1.377 . S
C730 C729 1.373 . S
C731 C715 1.377 . S
C731 C729 1.389 1_556 S
C731 C732 1.524 . S
C732 C731 1.524 . S
C732 C733 1.397 . S
C732 C737 1.363 . S
C733 H704 0.950 . S
C733 C732 1.397 . S
C733 C734 1.334 . S
C734 H705 0.950 1_545 S
C734 C733 1.334 . S
C734 C735 1.287 . S
C735 C734 1.287 . S
C735 C736 1.524 . S
C735 H738 0.999 . S
C736 H706 0.950 . S
C736 C735 1.524 . S
C736 C737 1.415 . S
C737 H707 0.950 . S
C737 C732 1.363 . S
C737 C736 1.415 . S
H738 C735 0.999 . S
H739 C720 0.913 . S
H740 C758 0.951 . S
H741 C760 0.951 . S
H742 C762 0.950 . S
H743 C763 0.950 . S
H744 C765 0.950 . S
H745 C768 0.950 . S
H746 C769 0.950 . S
H747 C771 0.950 . S
H748 C772 0.950 . S
H749 C773 0.951 . S
H750 C775 0.951 . S
H751 C777 0.950 . S
H752 C778 0.950 . S
H753 C780 0.950 . S
H754 C783 0.950 . S
H755 C784 0.950 . S
H756 C786 0.950 . S
H757 C787 0.950 . S
C758 H740 0.951 . S
C758 C759 1.366 . S
C758 C760 1.388 . S
C759 C758 1.366 . S
C759 C763 1.385 . S
C760 H741 0.951 . S
C760 C758 1.388 . S
C760 C761 1.366 . S
C761 C760 1.366 . S
C761 C762 1.414 . S
C761 C764 1.499 . S
C762 H742 0.950 . S
C762 C761 1.414 . S
C762 C763 1.374 . S
C763 H743 0.950 . S
C763 C759 1.385 . S
C763 C762 1.374 . S
C764 C761 1.499 . S
C764 C765 1.373 . S
C764 C766 1.389 . S
C765 H744 0.950 . S
C765 C764 1.373 . S
C765 C781 1.377 . S
C766 C764 1.389 . S
C766 C767 1.524 . S
C766 C780 1.377 . S
C767 C766 1.524 . S
C767 C768 1.397 . S
C767 C772 1.363 . S
C768 H745 0.950 . S
C768 C767 1.397 . S
C768 C769 1.334 . S
C769 H746 0.950 . S
C769 C768 1.334 . S
C769 C770 1.287 . S
C770 C769 1.287 . S
C770 C771 1.524 . S
C770 H789 0.913 . S
C771 H747 0.950 . S
C771 C770 1.524 . S
C771 C772 1.415 . S
C772 H748 0.950 . S
C772 C767 1.363 . S
C772 C771 1.415 . S
C773 H749 0.951 . S
C773 C774 1.366 . S
C773 C775 1.388 . S
C774 C773 1.366 . S
C774 C778 1.385 . S
C775 H750 0.951 . S
C775 C773 1.388 . S
C775 C776 1.366 . S
C776 C775 1.366 . S
C776 C777 1.414 . S
C776 C779 1.499 . S
C777 H751 0.950 . S
C777 C776 1.414 . S
C777 C778 1.374 . S
C778 H752 0.950 . S
C778 C774 1.385 . S
C778 C777 1.374 . S
C779 C776 1.499 . S
C779 C780 1.373 . S
C779 C781 1.389 . S
C780 H753 0.950 . S
C780 C766 1.377 . S
C780 C779 1.373 . S
C781 C765 1.377 . S
C781 C779 1.389 . S
C781 C782 1.524 . S
C782 C781 1.524 . S
C782 C783 1.397 . S
C782 C787 1.363 . S
C783 H754 0.950 . S
C783 C782 1.397 . S
C783 C784 1.334 . S
C784 H755 0.950 . S
C784 C783 1.334 . S
C784 C785 1.287 . S
C785 C784 1.287 . S
C785 C786 1.524 . S
C785 H788 0.999 . S
C786 H756 0.950 . S
C786 C785 1.524 . S
C786 C787 1.415 . S
C787 H757 0.950 . S
C787 C782 1.363 . S
C787 C786 1.415 . S
H788 C785 0.999 . S
H789 C770 0.913 . S
H790 C808 0.951 . S
H791 C810 0.951 . S
H792 C812 0.950 . S
H793 C813 0.950 . S
H794 C815 0.950 . S
H795 C818 0.950 . S
H796 C819 0.950 . S
H797 C821 0.950 . S
H798 C822 0.950 . S
H799 C823 0.951 . S
H800 C825 0.951 . S
H801 C827 0.950 . S
H802 C828 0.950 . S
H803 C830 0.950 . S
H804 C833 0.950 . S
H805 C834 0.950 . S
H806 C836 0.950 . S
H807 C837 0.950 . S
C808 H790 0.951 . S
C808 C809 1.366 1_455 S
C808 C810 1.388 . S
C809 C808 1.366 1_655 S
C809 C813 1.385 . S
C810 H791 0.951 . S
C810 C808 1.388 . S
C810 C811 1.366 . S
C811 C810 1.366 . S
C811 C812 1.414 1_455 S
C811 C814 1.499 . S
C812 H792 0.950 . S
C812 C811 1.414 1_655 S
C812 C813 1.374 . S
C813 H793 0.950 . S
C813 C809 1.385 . S
C813 C812 1.374 . S
C814 C811 1.499 . S
C814 C815 1.373 . S
C814 C816 1.389 . S
C815 H794 0.950 . S
C815 C814 1.373 . S
C815 C831 1.377 . S
C816 C814 1.389 . S
C816 C817 1.524 . S
C816 C830 1.377 . S
C817 C816 1.524 . S
C817 C818 1.397 1_455 S
C817 C822 1.363 . S
C818 H795 0.950 . S
C818 C817 1.397 1_655 S
C818 C819 1.334 . S
C819 H796 0.950 . S
C819 C818 1.334 . S
C819 C820 1.287 1_655 S
C820 C819 1.287 1_455 S
C820 C821 1.524 . S
C820 H839 0.913 1_455 S
C821 H797 0.950 . S
C821 C820 1.524 . S
C821 C822 1.415 . S
C822 H798 0.950 . S
C822 C817 1.363 . S
C822 C821 1.415 . S
C823 H799 0.951 . S
C823 C824 1.366 . S
C823 C825 1.388 . S
C824 C823 1.366 . S
C824 C828 1.385 . S
C825 H800 0.951 . S
C825 C823 1.388 . S
C825 C826 1.366 . S
C826 C825 1.366 . S
C826 C827 1.414 . S
C826 C829 1.499 . S
C827 H801 0.950 . S
C827 C826 1.414 . S
C827 C828 1.374 . S
C828 H802 0.950 . S
C828 C824 1.385 . S
C828 C827 1.374 . S
C829 C826 1.499 . S
C829 C830 1.373 . S
C829 C831 1.389 . S
C830 H803 0.950 . S
C830 C816 1.377 . S
C830 C829 1.373 . S
C831 C815 1.377 . S
C831 C829 1.389 . S
C831 C832 1.524 . S
C832 C831 1.524 . S
C832 C833 1.397 . S
C832 C837 1.363 . S
C833 H804 0.950 . S
C833 C832 1.397 . S
C833 C834 1.334 . S
C834 H805 0.950 . S
C834 C833 1.334 . S
C834 C835 1.287 . S
C835 C834 1.287 . S
C835 C836 1.524 . S
C835 H838 0.999 . S
C836 H806 0.950 . S
C836 C835 1.524 . S
C836 C837 1.415 . S
C837 H807 0.950 . S
C837 C832 1.363 . S
C837 C836 1.415 . S
H838 C835 0.999 . S
H839 C820 0.913 1_655 S
H840 C858 0.951 . S
H841 C860 0.951 . S
H842 C862 0.950 . S
H843 C863 0.950 . S
H844 C865 0.950 . S
H845 C868 0.950 . S
H846 C869 0.950 . S
H847 C871 0.950 . S
H848 C872 0.950 . S
H849 C873 0.951 . S
H850 C875 0.951 . S
H851 C877 0.950 . S
H852 C878 0.950 . S
H853 C880 0.950 . S
H854 C883 0.950 . S
H855 C884 0.950 . S
H856 C886 0.950 . S
H857 C887 0.950 . S
C858 H840 0.951 . S
C858 C859 1.366 . S
C858 C860 1.388 . S
C859 C858 1.366 . S
C859 C863 1.385 . S
C860 H841 0.951 . S
C860 C858 1.388 . S
C860 C861 1.366 . S
C861 C860 1.366 . S
C861 C862 1.414 . S
C861 C864 1.499 . S
C862 H842 0.950 . S
C862 C861 1.414 . S
C862 C863 1.374 . S
C863 H843 0.950 . S
C863 C859 1.385 . S
C863 C862 1.374 . S
C864 C861 1.499 . S
C864 C865 1.373 . S
C864 C866 1.389 . S
C865 H844 0.950 . S
C865 C864 1.373 . S
C865 C881 1.377 . S
C866 C864 1.389 . S
C866 C867 1.524 . S
C866 C880 1.377 . S
C867 C866 1.524 . S
C867 C868 1.397 . S
C867 C872 1.363 . S
C868 H845 0.950 . S
C868 C867 1.397 . S
C868 C869 1.334 . S
C869 H846 0.950 . S
C869 C868 1.334 . S
C869 C870 1.287 . S
C870 C869 1.287 . S
C870 C871 1.524 . S
C870 H889 0.913 . S
C871 H847 0.950 . S
C871 C870 1.524 . S
C871 C872 1.415 . S
C872 H848 0.950 . S
C872 C867 1.363 . S
C872 C871 1.415 . S
C873 H849 0.951 . S
C873 C874 1.366 . S
C873 C875 1.388 . S
C874 C873 1.366 . S
C874 C878 1.385 . S
C875 H850 0.951 . S
C875 C873 1.388 . S
C875 C876 1.366 . S
C876 C875 1.366 . S
C876 C877 1.414 . S
C876 C879 1.499 . S
C877 H851 0.950 . S
C877 C876 1.414 . S
C877 C878 1.374 . S
C878 H852 0.950 . S
C878 C874 1.385 . S
C878 C877 1.374 . S
C879 C876 1.499 . S
C879 C880 1.373 . S
C879 C881 1.389 . S
C880 H853 0.950 . S
C880 C866 1.377 . S
C880 C879 1.373 . S
C881 C865 1.377 . S
C881 C879 1.389 . S
C881 C882 1.524 . S
C882 C881 1.524 . S
C882 C883 1.397 . S
C882 C887 1.363 . S
C883 H854 0.950 . S
C883 C882 1.397 . S
C883 C884 1.334 . S
C884 H855 0.950 . S
C884 C883 1.334 . S
C884 C885 1.287 . S
C885 C884 1.287 . S
C885 C886 1.524 . S
C885 H888 0.999 . S
C886 H856 0.950 . S
C886 C885 1.524 . S
C886 C887 1.415 . S
C887 H857 0.950 . S
C887 C882 1.363 . S
C887 C886 1.415 . S
H888 C885 0.999 . S
H889 C870 0.913 . S
H890 C908 0.951 . S
H891 C910 0.951 . S
H892 C912 0.950 . S
H893 C913 0.950 . S
H894 C915 0.950 . S
H895 C918 0.950 . S
H896 C919 0.950 . S
H897 C921 0.950 1_655 S
H898 C922 0.950 . S
H899 C923 0.951 . S
H900 C925 0.951 . S
H901 C927 0.950 . S
H902 C928 0.950 . S
H903 C930 0.950 . S
H904 C933 0.950 . S
H905 C934 0.950 . S
H906 C936 0.950 . S
H907 C937 0.950 . S
C908 H890 0.951 . S
C908 C909 1.366 . S
C908 C910 1.388 . S
C909 C908 1.366 . S
C909 C913 1.385 . S
C910 H891 0.951 . S
C910 C908 1.388 . S
C910 C911 1.366 . S
C911 C910 1.366 . S
C911 C912 1.414 . S
C911 C914 1.499 . S
C912 H892 0.950 . S
C912 C911 1.414 . S
C912 C913 1.374 . S
C913 H893 0.950 . S
C913 C909 1.385 . S
C913 C912 1.374 . S
C914 C911 1.499 . S
C914 C915 1.373 . S
C914 C916 1.389 . S
C915 H894 0.950 . S
C915 C914 1.373 . S
C915 C931 1.377 . S
C916 C914 1.389 . S
C916 C917 1.524 . S
C916 C930 1.377 . S
C917 C916 1.524 . S
C917 C918 1.397 . S
C917 C922 1.363 . S
C918 H895 0.950 . S
C918 C917 1.397 . S
C918 C919 1.334 . S
C919 H896 0.950 . S
C919 C918 1.334 . S
C919 C920 1.287 1_455 S
C920 C919 1.287 1_655 S
C920 C921 1.524 1_655 S
C920 H939 0.913 . S
C921 H897 0.950 1_455 S
C921 C920 1.524 1_455 S
C921 C922 1.415 . S
C922 H898 0.950 . S
C922 C917 1.363 . S
C922 C921 1.415 . S
C923 H899 0.951 . S
C923 C924 1.366 . S
C923 C925 1.388 . S
C924 C923 1.366 . S
C924 C928 1.385 . S
C925 H900 0.951 . S
C925 C923 1.388 . S
C925 C926 1.366 . S
C926 C925 1.366 . S
C926 C927 1.414 . S
C926 C929 1.499 . S
C927 H901 0.950 . S
C927 C926 1.414 . S
C927 C928 1.374 . S
C928 H902 0.950 . S
C928 C924 1.385 . S
C928 C927 1.374 . S
C929 C926 1.499 . S
C929 C930 1.373 . S
C929 C931 1.389 . S
C930 H903 0.950 . S
C930 C916 1.377 . S
C930 C929 1.373 . S
C931 C915 1.377 . S
C931 C929 1.389 . S
C931 C932 1.524 . S
C932 C931 1.524 . S
C932 C933 1.397 . S
C932 C937 1.363 . S
C933 H904 0.950 . S
C933 C932 1.397 . S
C933 C934 1.334 . S
C934 H905 0.950 . S
C934 C933 1.334 . S
C934 C935 1.287 . S
C935 C934 1.287 . S
C935 C936 1.524 . S
C935 H938 0.999 . S
C936 H906 0.950 . S
C936 C935 1.524 . S
C936 C937 1.415 . S
C937 H907 0.950 . S
C937 C932 1.363 . S
C937 C936 1.415 . S
H938 C935 0.999 . S
H939 C920 0.913 . S
H940 C958 0.951 . S
H941 C960 0.951 . S
H942 C962 0.950 . S
H943 C963 0.950 . S
H944 C965 0.950 . S
H945 C968 0.950 . S
H946 C969 0.950 . S
H947 C971 0.950 . S
H948 C972 0.950 . S
H949 C973 0.951 . S
H950 C975 0.951 . S
H951 C977 0.950 . S
H952 C978 0.950 . S
H953 C980 0.950 . S
H954 C983 0.950 . S
H955 C984 0.950 . S
H956 C986 0.950 . S
H957 C987 0.950 . S
C958 H940 0.951 . S
C958 C959 1.366 . S
C958 C960 1.388 . S
C959 C958 1.366 . S
C959 C963 1.385 . S
C960 H941 0.951 . S
C960 C958 1.388 . S
C960 C961 1.366 . S
C961 C960 1.366 . S
C961 C962 1.414 . S
C961 C964 1.499 . S
C962 H942 0.950 . S
C962 C961 1.414 . S
C962 C963 1.374 . S
C963 H943 0.950 . S
C963 C959 1.385 . S
C963 C962 1.374 . S
C964 C961 1.499 . S
C964 C965 1.373 . S
C964 C966 1.389 . S
C965 H944 0.950 . S
C965 C964 1.373 . S
C965 C981 1.377 . S
C966 C964 1.389 . S
C966 C967 1.524 . S
C966 C980 1.377 . S
C967 C966 1.524 . S
C967 C968 1.397 . S
C967 C972 1.363 1_655 S
C968 H945 0.950 . S
C968 C967 1.397 . S
C968 C969 1.334 1_655 S
C969 H946 0.950 . S
C969 C968 1.334 1_455 S
C969 C970 1.287 . S
C970 C969 1.287 . S
C970 C971 1.524 . S
C970 H989 0.913 . S
C971 H947 0.950 . S
C971 C970 1.524 . S
C971 C972 1.415 . S
C972 H948 0.950 . S
C972 C967 1.363 1_455 S
C972 C971 1.415 . S
C973 H949 0.951 . S
C973 C974 1.366 . S
C973 C975 1.388 . S
C974 C973 1.366 . S
C974 C978 1.385 . S
C975 H950 0.951 . S
C975 C973 1.388 . S
C975 C976 1.366 . S
C976 C975 1.366 . S
C976 C977 1.414 . S
C976 C979 1.499 . S
C977 H951 0.950 . S
C977 C976 1.414 . S
C977 C978 1.374 . S
C978 H952 0.950 . S
C978 C974 1.385 . S
C978 C977 1.374 . S
C979 C976 1.499 . S
C979 C980 1.373 . S
C979 C981 1.389 . S
C980 H953 0.950 . S
C980 C966 1.377 . S
C980 C979 1.373 . S
C981 C965 1.377 . S
C981 C979 1.389 . S
C981 C982 1.524 . S
C982 C981 1.524 . S
C982 C983 1.397 . S
C982 C987 1.363 . S
C983 H954 0.950 . S
C983 C982 1.397 . S
C983 C984 1.334 . S
C984 H955 0.950 . S
C984 C983 1.334 . S
C984 C985 1.287 . S
C985 C984 1.287 . S
C985 C986 1.524 . S
C985 H988 0.999 . S
C986 H956 0.950 . S
C986 C985 1.524 . S
C986 C987 1.415 . S
C987 H957 0.950 . S
C987 C982 1.363 . S
C987 C986 1.415 . S
H988 C985 0.999 . S
H989 C970 0.913 . S
H990 C1008 0.951 . S
H991 C1010 0.951 . S
H992 C1012 0.950 . S
H993 C1013 0.950 . S
H994 C1015 0.950 . S
H995 C1018 0.950 . S
H996 C1019 0.950 . S
H997 C1021 0.950 . S
H998 C1022 0.950 . S
H999 C1023 0.951 . S
H1000 C1025 0.951 . S
H1001 C1027 0.950 . S
H1002 C1028 0.950 . S
H1003 C1030 0.950 . S
H1004 C1033 0.950 . S
H1005 C1034 0.950 . S
H1006 C1036 0.950 . S
H1007 C1037 0.950 . S
C1008 H990 0.951 . S
C1008 C1009 1.366 . S
C1008 C1010 1.388 . S
C1009 C1008 1.366 . S
C1009 C1013 1.385 . S
C1010 H991 0.951 . S
C1010 C1008 1.388 . S
C1010 C1011 1.366 . S
C1011 C1010 1.366 . S
C1011 C1012 1.414 . S
C1011 C1014 1.499 . S
C1012 H992 0.950 . S
C1012 C1011 1.414 . S
C1012 C1013 1.374 . S
C1013 H993 0.950 . S
C1013 C1009 1.385 . S
C1013 C1012 1.374 . S
C1014 C1011 1.499 . S
C1014 C1015 1.373 . S
C1014 C1016 1.389 . S
C1015 H994 0.950 . S
C1015 C1014 1.373 . S
C1015 C1031 1.377 . S
C1016 C1014 1.389 . S
C1016 C1017 1.524 . S
C1016 C1030 1.377 . S
C1017 C1016 1.524 . S
C1017 C1018 1.397 . S
C1017 C1022 1.363 . S
C1018 H995 0.950 . S
C1018 C1017 1.397 . S
C1018 C1019 1.334 . S
C1019 H996 0.950 . S
C1019 C1018 1.334 . S
C1019 C1020 1.287 . S
C1020 C1019 1.287 . S
C1020 C1021 1.524 . S
C1020 H1039 0.913 . S
C1021 H997 0.950 . S
C1021 C1020 1.524 . S
C1021 C1022 1.415 . S
C1022 H998 0.950 . S
C1022 C1017 1.363 . S
C1022 C1021 1.415 . S
C1023 H999 0.951 . S
C1023 C1024 1.366 . S
C1023 C1025 1.388 . S
C1024 C1023 1.366 . S
C1024 C1028 1.385 . S
C1025 H1000 0.951 . S
C1025 C1023 1.388 . S
C1025 C1026 1.366 . S
C1026 C1025 1.366 . S
C1026 C1027 1.414 . S
C1026 C1029 1.499 . S
C1027 H1001 0.950 . S
C1027 C1026 1.414 . S
C1027 C1028 1.374 . S
C1028 H1002 0.950 . S
C1028 C1024 1.385 . S
C1028 C1027 1.374 . S
C1029 C1026 1.499 . S
C1029 C1030 1.373 . S
C1029 C1031 1.389 . S
C1030 H1003 0.950 . S
C1030 C1016 1.377 . S
C1030 C1029 1.373 . S
C1031 C1015 1.377 . S
C1031 C1029 1.389 . S
C1031 C1032 1.524 . S
C1032 C1031 1.524 . S
C1032 C1033 1.397 . S
C1032 C1037 1.363 1_565 S
C1033 H1004 0.950 . S
C1033 C1032 1.397 . S
C1033 C1034 1.334 1_565 S
C1034 H1005 0.950 . S
C1034 C1033 1.334 1_545 S
C1034 C1035 1.287 . S
C1035 C1034 1.287 . S
C1035 C1036 1.524 . S
C1035 H1038 0.999 . S
C1036 H1006 0.950 . S
C1036 C1035 1.524 . S
C1036 C1037 1.415 . S
C1037 H1007 0.950 . S
C1037 C1032 1.363 1_545 S
C1037 C1036 1.415 . S
H1038 C1035 0.999 . S
H1039 C1020 0.913 . S
H1040 C1058 0.951 . S
H1041 C1060 0.951 . S
H1042 C1062 0.950 . S
H1043 C1063 0.950 . S
H1044 C1065 0.950 . S
H1045 C1068 0.950 . S
H1046 C1069 0.950 . S
H1047 C1071 0.950 . S
H1048 C1072 0.950 . S
H1049 C1073 0.951 . S
H1050 C1075 0.951 . S
H1051 C1077 0.950 1_655 S
H1052 C1078 0.950 . S
H1053 C1080 0.950 . S
H1054 C1083 0.950 1_655 S
H1055 C1084 0.950 1_655 S
H1056 C1086 0.950 . S
H1057 C1087 0.950 . S
C1058 H1040 0.951 . S
C1058 C1059 1.366 . S
C1058 C1060 1.388 . S
C1059 C1058 1.366 . S
C1059 C1063 1.385 1_655 S
C1060 H1041 0.951 . S
C1060 C1058 1.388 . S
C1060 C1061 1.366 . S
C1061 C1060 1.366 . S
C1061 C1062 1.414 1_655 S
C1061 C1064 1.499 1_655 S
C1062 H1042 0.950 . S
C1062 C1061 1.414 1_455 S
C1062 C1063 1.374 . S
C1063 H1043 0.950 . S
C1063 C1059 1.385 1_455 S
C1063 C1062 1.374 . S
C1064 C1061 1.499 1_455 S
C1064 C1065 1.373 . S
C1064 C1066 1.389 . S
C1065 H1044 0.950 . S
C1065 C1064 1.373 . S
C1065 C1081 1.377 . S
C1066 C1064 1.389 . S
C1066 C1067 1.524 . S
C1066 C1080 1.377 . S
C1067 C1066 1.524 . S
C1067 C1068 1.397 . S
C1067 C1072 1.363 1_455 S
C1068 H1045 0.950 . S
C1068 C1067 1.397 . S
C1068 C1069 1.334 . S
C1069 H1046 0.950 . S
C1069 C1068 1.334 . S
C1069 C1070 1.287 . S
C1070 C1069 1.287 . S
C1070 C1071 1.524 1_455 S
C1070 H1089 0.913 1_565 S
C1071 H1047 0.950 . S
C1071 C1070 1.524 1_655 S
C1071 C1072 1.415 . S
C1072 H1048 0.950 . S
C1072 C1067 1.363 1_655 S
C1072 C1071 1.415 . S
C1073 H1049 0.951 . S
C1073 C1074 1.366 . S
C1073 C1075 1.388 . S
C1074 C1073 1.366 . S
C1074 C1078 1.385 . S
C1075 H1050 0.951 . S
C1075 C1073 1.388 . S
C1075 C1076 1.366 . S
C1076 C1075 1.366 . S
C1076 C1077 1.414 . S
C1076 C1079 1.499 . S
C1077 H1051 0.950 1_455 S
C1077 C1076 1.414 . S
C1077 C1078 1.374 . S
C1078 H1052 0.950 . S
C1078 C1074 1.385 . S
C1078 C1077 1.374 . S
C1079 C1076 1.499 . S
C1079 C1080 1.373 . S
C1079 C1081 1.389 . S
C1080 H1053 0.950 . S
C1080 C1066 1.377 . S
C1080 C1079 1.373 . S
C1081 C1065 1.377 . S
C1081 C1079 1.389 . S
C1081 C1082 1.524 . S
C1082 C1081 1.524 . S
C1082 C1083 1.397 . S
C1082 C1087 1.363 . S
C1083 H1054 0.950 1_455 S
C1083 C1082 1.397 . S
C1083 C1084 1.334 . S
C1084 H1055 0.950 1_455 S
C1084 C1083 1.334 . S
C1084 C1085 1.287 . S
C1085 C1084 1.287 . S
C1085 C1086 1.524 . S
C1085 H1088 0.999 . S
C1086 H1056 0.950 . S
C1086 C1085 1.524 . S
C1086 C1087 1.415 . S
C1087 H1057 0.950 . S
C1087 C1082 1.363 . S
C1087 C1086 1.415 . S
H1088 C1085 0.999 . S
H1089 C1070 0.913 1_545 S
H1090 C1108 0.951 . S
H1091 C1110 0.951 1_545 S
H1092 C1112 0.950 . S
H1093 C1113 0.950 . S
H1094 C1115 0.950 . S
H1095 C1118 0.950 . S
H1096 C1119 0.950 . S
H1097 C1121 0.950 . S
H1098 C1122 0.950 . S
H1099 C1123 0.951 . S
H1100 C1125 0.951 . S
H1101 C1127 0.950 . S
H1102 C1128 0.950 . S
H1103 C1130 0.950 1_565 S
H1104 C1133 0.950 . S
H1105 C1134 0.950 . S
H1106 C1136 0.950 . S
H1107 C1137 0.950 . S
C1108 H1090 0.951 . S
C1108 C1109 1.366 . S
C1108 C1110 1.388 . S
C1109 C1108 1.366 . S
C1109 C1113 1.385 . S
C1110 H1091 0.951 1_565 S
C1110 C1108 1.388 . S
C1110 C1111 1.366 . S
C1111 C1110 1.366 . S
C1111 C1112 1.414 . S
C1111 C1114 1.499 1_565 S
C1112 H1092 0.950 . S
C1112 C1111 1.414 . S
C1112 C1113 1.374 . S
C1113 H1093 0.950 . S
C1113 C1109 1.385 . S
C1113 C1112 1.374 . S
C1114 C1111 1.499 1_545 S
C1114 C1115 1.373 . S
C1114 C1116 1.389 1_545 S
C1115 H1094 0.950 . S
C1115 C1114 1.373 . S
C1115 C1131 1.377 . S
C1116 C1114 1.389 1_565 S
C1116 C1117 1.524 . S
C1116 C1130 1.377 1_565 S
C1117 C1116 1.524 . S
C1117 C1118 1.397 . S
C1117 C1122 1.363 . S
C1118 H1095 0.950 . S
C1118 C1117 1.397 . S
C1118 C1119 1.334 . S
C1119 H1096 0.950 . S
C1119 C1118 1.334 . S
C1119 C1120 1.287 . S
C1120 C1119 1.287 . S
C1120 C1121 1.524 . S
C1120 H1139 0.913 . S
C1121 H1097 0.950 . S
C1121 C1120 1.524 . S
C1121 C1122 1.415 . S
C1122 H1098 0.950 . S
C1122 C1117 1.363 . S
C1122 C1121 1.415 . S
C1123 H1099 0.951 . S
C1123 C1124 1.366 . S
C1123 C1125 1.388 . S
C1124 C1123 1.366 . S
C1124 C1128 1.385 . S
C1125 H1100 0.951 . S
C1125 C1123 1.388 . S
C1125 C1126 1.366 . S
C1126 C1125 1.366 . S
C1126 C1127 1.414 . S
C1126 C1129 1.499 . S
C1127 H1101 0.950 . S
C1127 C1126 1.414 . S
C1127 C1128 1.374 . S
C1128 H1102 0.950 . S
C1128 C1124 1.385 . S
C1128 C1127 1.374 . S
C1129 C1126 1.499 . S
C1129 C1130 1.373 . S
C1129 C1131 1.389 . S
C1130 H1103 0.950 1_545 S
C1130 C1116 1.377 1_545 S
C1130 C1129 1.373 . S
C1131 C1115 1.377 . S
C1131 C1129 1.389 . S
C1131 C1132 1.524 . S
C1132 C1131 1.524 . S
C1132 C1133 1.397 . S
C1132 C1137 1.363 . S
C1133 H1104 0.950 . S
C1133 C1132 1.397 . S
C1133 C1134 1.334 . S
C1134 H1105 0.950 . S
C1134 C1133 1.334 . S
C1134 C1135 1.287 . S
C1135 C1134 1.287 . S
C1135 C1136 1.524 . S
C1135 H1138 0.999 . S
C1136 H1106 0.950 . S
C1136 C1135 1.524 . S
C1136 C1137 1.415 . S
C1137 H1107 0.950 . S
C1137 C1132 1.363 . S
C1137 C1136 1.415 . S
H1138 C1135 0.999 . S
H1139 C1120 0.913 . S
C259 C129 1.156 1_565 S
C274 C9 1.158 . S
C309 C169 1.152 . S
C324 C49 1.151 . S
C359 C209 1.151 . S
C374 C89 1.152 1_655 S
C409 C15 0.578 . S
C424 C86 0.541 . S
C459 C55 0.577 . S
C474 C126 0.543 . S
C509 C95 0.574 . S
C524 C166 0.541 . S
C559 C135 0.576 . S
C574 C206 0.542 . S
C609 C175 0.577 . S
C624 C6 0.544 . S
C659 C215 0.577 . S
C674 C46 0.541 . S
C709 C18 0.992 . S
C724 C138 0.990 . S
C759 C58 0.994 . S
C774 C178 0.994 . S
C809 C98 0.994 . S
C824 C218 0.995 . S
C859 C10 3.889 . S
C874 C59 3.941 . S
C909 C50 3.889 . S
C924 C99 3.941 . S
C959 C90 3.889 . S
C974 C139 3.941 . S
C1009 C130 3.889 . S
C1024 C179 3.942 . S
C1059 C170 3.890 . S
C1074 C219 3.942 . S
C1109 C210 3.889 . S
C1124 C19 3.941 . S
