# Generated by pormake.
# Topology ato, (4)-cn, num edge types: 1
# Building blocks:
#     Node 0, Type 0, BuildingBlock: QUQFOY_clean_sbu_1, # of connection points: 4
#     Node 1, Type 0, BuildingBlock: QUQFOY_clean_sbu_1, # of connection points: 4
#     Node 2, Type 0, BuildingBlock: QUQFOY_clean_sbu_1, # of connection points: 4
#     Node 3, Type 0, BuildingBlock: QUQFOY_clean_sbu_1, # of connection points: 4
#     Node 4, Type 0, BuildingBlock: QUQFOY_clean_sbu_1, # of connection points: 4
#     Node 5, Type 0, BuildingBlock: QUQFOY_clean_sbu_1, # of connection points: 4
#     Node 6, Type 0, BuildingBlock: QUQFOY_clean_sbu_1, # of connection points: 4
#     Node 7, Type 0, BuildingBlock: QUQFOY_clean_sbu_1, # of connection points: 4
#     Node 8, Type 0, BuildingBlock: QUQFOY_clean_sbu_1, # of connection points: 4
#     Node 9, Type 0, BuildingBlock: QUQFOY_clean_sbu_1, # of connection points: 4
#     Node 10, Type 0, BuildingBlock: QUQFOY_clean_sbu_1, # of connection points: 4
#     Node 11, Type 0, BuildingBlock: QUQFOY_clean_sbu_1, # of connection points: 4
#     Node 12, Type 0, BuildingBlock: QUQFOY_clean_sbu_1, # of connection points: 4
#     Node 13, Type 0, BuildingBlock: QUQFOY_clean_sbu_1, # of connection points: 4
#     Node 14, Type 0, BuildingBlock: QUQFOY_clean_sbu_1, # of connection points: 4
#     Node 15, Type 0, BuildingBlock: QUQFOY_clean_sbu_1, # of connection points: 4
#     Node 16, Type 0, BuildingBlock: QUQFOY_clean_sbu_1, # of connection points: 4
#     Node 17, Type 0, BuildingBlock: QUQFOY_clean_sbu_1, # of connection points: 4
#     Node 18, Type 0, BuildingBlock: QUQFOY_clean_sbu_1, # of connection points: 4
#     Node 19, Type 0, BuildingBlock: QUQFOY_clean_sbu_1, # of connection points: 4
#     Node 20, Type 0, BuildingBlock: QUQFOY_clean_sbu_1, # of connection points: 4
#     Node 21, Type 0, BuildingBlock: QUQFOY_clean_sbu_1, # of connection points: 4
#     Node 22, Type 0, BuildingBlock: QUQFOY_clean_sbu_1, # of connection points: 4
#     Node 23, Type 0, BuildingBlock: QUQFOY_clean_sbu_1, # of connection points: 4
#     Node 24, Type 0, BuildingBlock: QUQFOY_clean_sbu_1, # of connection points: 4
#     Node 25, Type 0, BuildingBlock: QUQFOY_clean_sbu_1, # of connection points: 4
#     Node 26, Type 0, BuildingBlock: QUQFOY_clean_sbu_1, # of connection points: 4
#     Node 27, Type 0, BuildingBlock: QUQFOY_clean_sbu_1, # of connection points: 4
#     Node 28, Type 0, BuildingBlock: QUQFOY_clean_sbu_1, # of connection points: 4
#     Node 29, Type 0, BuildingBlock: QUQFOY_clean_sbu_1, # of connection points: 4
#     Node 30, Type 0, BuildingBlock: QUQFOY_clean_sbu_1, # of connection points: 4
#     Node 31, Type 0, BuildingBlock: QUQFOY_clean_sbu_1, # of connection points: 4
#     Node 32, Type 0, BuildingBlock: QUQFOY_clean_sbu_1, # of connection points: 4
#     Node 33, Type 0, BuildingBlock: QUQFOY_clean_sbu_1, # of connection points: 4
#     Node 34, Type 0, BuildingBlock: QUQFOY_clean_sbu_1, # of connection points: 4
#     Node 35, Type 0, BuildingBlock: QUQFOY_clean_sbu_1, # of connection points: 4
#     Edge 36, Type (0, 0), BuildingBlock: XIVTED_clean_linker_0, # of connection points: 2
#     Edge 37, Type (0, 0), BuildingBlock: XIVTED_clean_linker_0, # of connection points: 2
#     Edge 38, Type (0, 0), BuildingBlock: XIVTED_clean_linker_0, # of connection points: 2
#     Edge 39, Type (0, 0), BuildingBlock: XIVTED_clean_linker_0, # of connection points: 2
#     Edge 40, Type (0, 0), BuildingBlock: XIVTED_clean_linker_0, # of connection points: 2
#     Edge 41, Type (0, 0), BuildingBlock: XIVTED_clean_linker_0, # of connection points: 2
#     Edge 42, Type (0, 0), BuildingBlock: XIVTED_clean_linker_0, # of connection points: 2
#     Edge 43, Type (0, 0), BuildingBlock: XIVTED_clean_linker_0, # of connection points: 2
#     Edge 44, Type (0, 0), BuildingBlock: XIVTED_clean_linker_0, # of connection points: 2
#     Edge 45, Type (0, 0), BuildingBlock: XIVTED_clean_linker_0, # of connection points: 2
#     Edge 46, Type (0, 0), BuildingBlock: XIVTED_clean_linker_0, # of connection points: 2
#     Edge 47, Type (0, 0), BuildingBlock: XIVTED_clean_linker_0, # of connection points: 2
#     Edge 48, Type (0, 0), BuildingBlock: XIVTED_clean_linker_0, # of connection points: 2
#     Edge 49, Type (0, 0), BuildingBlock: XIVTED_clean_linker_0, # of connection points: 2
#     Edge 50, Type (0, 0), BuildingBlock: XIVTED_clean_linker_0, # of connection points: 2
#     Edge 51, Type (0, 0), BuildingBlock: XIVTED_clean_linker_0, # of connection points: 2
#     Edge 52, Type (0, 0), BuildingBlock: XIVTED_clean_linker_0, # of connection points: 2
#     Edge 53, Type (0, 0), BuildingBlock: XIVTED_clean_linker_0, # of connection points: 2
#     Edge 54, Type (0, 0), BuildingBlock: XIVTED_clean_linker_0, # of connection points: 2
#     Edge 55, Type (0, 0), BuildingBlock: XIVTED_clean_linker_0, # of connection points: 2
#     Edge 56, Type (0, 0), BuildingBlock: XIVTED_clean_linker_0, # of connection points: 2
#     Edge 57, Type (0, 0), BuildingBlock: XIVTED_clean_linker_0, # of connection points: 2
#     Edge 58, Type (0, 0), BuildingBlock: XIVTED_clean_linker_0, # of connection points: 2
#     Edge 59, Type (0, 0), BuildingBlock: XIVTED_clean_linker_0, # of connection points: 2
#     Edge 60, Type (0, 0), BuildingBlock: XIVTED_clean_linker_0, # of connection points: 2
#     Edge 61, Type (0, 0), BuildingBlock: XIVTED_clean_linker_0, # of connection points: 2
#     Edge 62, Type (0, 0), BuildingBlock: XIVTED_clean_linker_0, # of connection points: 2
#     Edge 63, Type (0, 0), BuildingBlock: XIVTED_clean_linker_0, # of connection points: 2
#     Edge 64, Type (0, 0), BuildingBlock: XIVTED_clean_linker_0, # of connection points: 2
#     Edge 65, Type (0, 0), BuildingBlock: XIVTED_clean_linker_0, # of connection points: 2
#     Edge 66, Type (0, 0), BuildingBlock: XIVTED_clean_linker_0, # of connection points: 2
#     Edge 67, Type (0, 0), BuildingBlock: XIVTED_clean_linker_0, # of connection points: 2
#     Edge 68, Type (0, 0), BuildingBlock: XIVTED_clean_linker_0, # of connection points: 2
#     Edge 69, Type (0, 0), BuildingBlock: XIVTED_clean_linker_0, # of connection points: 2
#     Edge 70, Type (0, 0), BuildingBlock: XIVTED_clean_linker_0, # of connection points: 2
#     Edge 71, Type (0, 0), BuildingBlock: XIVTED_clean_linker_0, # of connection points: 2
#     Edge 72, Type (0, 0), BuildingBlock: XIVTED_clean_linker_0, # of connection points: 2
#     Edge 73, Type (0, 0), BuildingBlock: XIVTED_clean_linker_0, # of connection points: 2
#     Edge 74, Type (0, 0), BuildingBlock: XIVTED_clean_linker_0, # of connection points: 2
#     Edge 75, Type (0, 0), BuildingBlock: XIVTED_clean_linker_0, # of connection points: 2
#     Edge 76, Type (0, 0), BuildingBlock: XIVTED_clean_linker_0, # of connection points: 2
#     Edge 77, Type (0, 0), BuildingBlock: XIVTED_clean_linker_0, # of connection points: 2
#     Edge 78, Type (0, 0), BuildingBlock: XIVTED_clean_linker_0, # of connection points: 2
#     Edge 79, Type (0, 0), BuildingBlock: XIVTED_clean_linker_0, # of connection points: 2
#     Edge 80, Type (0, 0), BuildingBlock: XIVTED_clean_linker_0, # of connection points: 2
#     Edge 81, Type (0, 0), BuildingBlock: XIVTED_clean_linker_0, # of connection points: 2
#     Edge 82, Type (0, 0), BuildingBlock: XIVTED_clean_linker_0, # of connection points: 2
#     Edge 83, Type (0, 0), BuildingBlock: XIVTED_clean_linker_0, # of connection points: 2
#     Edge 84, Type (0, 0), BuildingBlock: XIVTED_clean_linker_0, # of connection points: 2
#     Edge 85, Type (0, 0), BuildingBlock: XIVTED_clean_linker_0, # of connection points: 2
#     Edge 86, Type (0, 0), BuildingBlock: XIVTED_clean_linker_0, # of connection points: 2
#     Edge 87, Type (0, 0), BuildingBlock: XIVTED_clean_linker_0, # of connection points: 2
#     Edge 88, Type (0, 0), BuildingBlock: XIVTED_clean_linker_0, # of connection points: 2
#     Edge 89, Type (0, 0), BuildingBlock: XIVTED_clean_linker_0, # of connection points: 2
#     Edge 90, Type (0, 0), BuildingBlock: XIVTED_clean_linker_0, # of connection points: 2
#     Edge 91, Type (0, 0), BuildingBlock: XIVTED_clean_linker_0, # of connection points: 2
#     Edge 92, Type (0, 0), BuildingBlock: XIVTED_clean_linker_0, # of connection points: 2
#     Edge 93, Type (0, 0), BuildingBlock: XIVTED_clean_linker_0, # of connection points: 2
#     Edge 94, Type (0, 0), BuildingBlock: XIVTED_clean_linker_0, # of connection points: 2
#     Edge 95, Type (0, 0), BuildingBlock: XIVTED_clean_linker_0, # of connection points: 2
#     Edge 96, Type (0, 0), BuildingBlock: XIVTED_clean_linker_0, # of connection points: 2
#     Edge 97, Type (0, 0), BuildingBlock: XIVTED_clean_linker_0, # of connection points: 2
#     Edge 98, Type (0, 0), BuildingBlock: XIVTED_clean_linker_0, # of connection points: 2
#     Edge 99, Type (0, 0), BuildingBlock: XIVTED_clean_linker_0, # of connection points: 2
#     Edge 100, Type (0, 0), BuildingBlock: XIVTED_clean_linker_0, # of connection points: 2
#     Edge 101, Type (0, 0), BuildingBlock: XIVTED_clean_linker_0, # of connection points: 2
#     Edge 102, Type (0, 0), BuildingBlock: XIVTED_clean_linker_0, # of connection points: 2
#     Edge 103, Type (0, 0), BuildingBlock: XIVTED_clean_linker_0, # of connection points: 2
#     Edge 104, Type (0, 0), BuildingBlock: XIVTED_clean_linker_0, # of connection points: 2
#     Edge 105, Type (0, 0), BuildingBlock: XIVTED_clean_linker_0, # of connection points: 2
#     Edge 106, Type (0, 0), BuildingBlock: XIVTED_clean_linker_0, # of connection points: 2
#     Edge 107, Type (0, 0), BuildingBlock: XIVTED_clean_linker_0, # of connection points: 2
# Relax obj value: 0.079
# Max RMSD: 0.154
# Mean RMSD: 0.154
data_MOF--net-ato--node1-QUQFOY_clean_sbu_1--edge1-XIVTED_clean_linker_0
_symmetry_space_group_name_H-M    P1
_symmetry_Int_Tables_number       1
_symmetry_cell_setting            triclinic
loop_
_symmetry_equiv_pos_as_xyz
'x, y, z'
_cell_length_a     111.28391
_cell_length_b     111.28095
_cell_length_c     24.420282
_cell_angle_alpha  89.979649
_cell_angle_beta   90.012819
_cell_angle_gamma 120.04284
loop_
_atom_site_label
_atom_site_type_symbol
_atom_site_fract_x
_atom_site_fract_y
_atom_site_fract_z
_atom_type_partial_charge
O0 O 0.23671 0.0305 0.18652 0.0
Cd1 Cd 0.25077 0.04153 0.2468 0.0
Cd2 Cd 0.24886 0.06371 0.19416 0.0
O3 O 0.23593 0.04752 0.1435 0.0
O4 O 0.25033 0.02608 0.28927 0.0
O5 O 0.24432 0.04061 0.32465 0.0
C6 C 0.24567 0.0298 0.33021 0.0
C7 C 0.24225 0.08042 0.20685 0.0
C8 C 0.23216 0.03475 0.14794 0.0
C9 C 0.27708 0.06586 0.20247 0.0
O10 O 0.26997 0.07143 0.18861 0.0
O11 O 0.27136 0.054 0.22535 0.0
O12 O 0.24676 0.07877 0.16062 0.0
O13 O 0.24151 0.07256 0.24713 0.0
O14 O 0.96902 0.20855 0.18441 0.0
Cd15 Cd 0.95736 0.21028 0.24629 0.0
Cd16 Cd 0.93622 0.18754 0.18235 0.0
O17 O 0.95321 0.19024 0.13946 0.0
O18 O 0.97262 0.22504 0.29053 0.0
O19 O 0.95858 0.20396 0.32262 0.0
C20 C 0.9692 0.21619 0.3297 0.0
C21 C 0.91819 0.16458 0.19148 0.0
C22 C 0.96571 0.19975 0.14607 0.0
C23 C 0.93441 0.21364 0.19571 0.0
O24 O 0.93015 0.20209 0.17162 0.0
O25 O 0.9445 0.21829 0.22926 0.0
O26 O 0.9212 0.17096 0.1452 0.0
O27 O 0.92547 0.17127 0.23365 0.0
O28 O 0.79161 0.76247 0.18784 0.0
Cd29 Cd 0.78804 0.74807 0.24733 0.0
Cd30 Cd 0.8123 0.74982 0.19392 0.0
O31 O 0.8097 0.7636 0.14593 0.0
O32 O 0.77323 0.74883 0.28993 0.0
O33 O 0.7936 0.75419 0.32544 0.0
C34 C 0.78159 0.75318 0.33104 0.0
C35 C 0.83534 0.7549 0.20302 0.0
C36 C 0.80071 0.76737 0.15037 0.0
C37 C 0.78545 0.72185 0.20043 0.0
O38 O 0.79814 0.72894 0.18658 0.0
O39 O 0.77945 0.72751 0.22471 0.0
O40 O 0.82876 0.75096 0.15734 0.0
O41 O 0.82885 0.75605 0.24468 0.0
O42 O 0.02987 0.23831 0.80928 0.0
Cd43 Cd 0.04074 0.25207 0.74784 0.0
Cd44 Cd 0.06276 0.25032 0.79931 0.0
O45 O 0.04702 0.23784 0.85248 0.0
O46 O 0.02518 0.25121 0.70469 0.0
O47 O 0.03975 0.24505 0.67091 0.0
C48 C 0.02886 0.24622 0.66472 0.0
C49 C 0.07874 0.24303 0.78191 0.0
C50 C 0.03424 0.23402 0.84835 0.0
C51 C 0.06524 0.27858 0.78976 0.0
O52 O 0.0708 0.27147 0.80377 0.0
O53 O 0.0533 0.27282 0.76756 0.0
O54 O 0.07797 0.24787 0.82876 0.0
O55 O 0.07042 0.24238 0.74367 0.0
O56 O 0.75851 0.78815 0.81642 0.0
Cd57 Cd 0.74437 0.78467 0.75583 0.0
Cd58 Cd 0.74581 0.80862 0.80505 0.0
O59 O 0.75909 0.80617 0.85658 0.0
O60 O 0.74562 0.7704 0.7114 0.0
O61 O 0.75111 0.79113 0.6791 0.0
C62 C 0.75029 0.77923 0.67183 0.0
C63 C 0.75241 0.83182 0.78894 0.0
C64 C 0.76308 0.79732 0.85363 0.0
C65 C 0.71776 0.78216 0.79797 0.0
O66 O 0.72474 0.79492 0.81099 0.0
O67 O 0.72364 0.77607 0.77611 0.0
O68 O 0.74775 0.82599 0.83564 0.0
O69 O 0.75313 0.82438 0.74994 0.0
O70 O 0.21079 0.97123 0.81391 0.0
Cd71 Cd 0.2141 0.96041 0.75354 0.0
Cd72 Cd 0.18981 0.93801 0.80376 0.0
O73 O 0.19237 0.95409 0.85353 0.0
O74 O 0.2285 0.97586 0.70907 0.0
O75 O 0.20773 0.96077 0.67667 0.0
C76 C 0.21969 0.97178 0.66947 0.0
C77 C 0.16665 0.92086 0.79027 0.0
C78 C 0.20149 0.96686 0.85059 0.0
C79 C 0.21625 0.93628 0.79747 0.0
O80 O 0.20354 0.93074 0.81088 0.0
O81 O 0.22246 0.94812 0.77447 0.0
O82 O 0.17272 0.9227 0.83682 0.0
O83 O 0.17377 0.92876 0.7501 0.0
O84 O 0.74765 0.96518 0.80007 0.0
Cd85 Cd 0.73921 0.95355 0.73097 0.0
Cd86 Cd 0.74512 0.93554 0.78839 0.0
O87 O 0.7563 0.953 0.83649 0.0
O88 O 0.73698 0.96675 0.68326 0.0
O89 O 0.75078 0.95851 0.66195 0.0
C90 C 0.74584 0.96651 0.65011 0.0
C91 C 0.75435 0.92092 0.77672 0.0
C92 C 0.75481 0.96359 0.83671 0.0
C93 C 0.71502 0.92712 0.76993 0.0
O94 O 0.72368 0.9249 0.79534 0.0
O95 O 0.71918 0.93753 0.73836 0.0
O96 O 0.75 0.92249 0.82345 0.0
O97 O 0.75382 0.92797 0.73577 0.0
O98 O 0.03443 0.78135 0.80628 0.0
Cd99 Cd 0.0464 0.78499 0.73744 0.0
Cd100 Cd 0.06321 0.80776 0.79746 0.0
O101 O 0.04528 0.8025 0.84006 0.0
O102 O 0.03241 0.77094 0.68721 0.0
O103 O 0.04308 0.79354 0.67047 0.0
C104 C 0.03388 0.78104 0.65675 0.0
C105 C 0.07878 0.8314 0.78492 0.0
C106 C 0.03509 0.79019 0.84068 0.0
C107 C 0.07138 0.78586 0.78092 0.0
O108 O 0.07245 0.79579 0.81027 0.0
O109 O 0.06238 0.7808 0.74301 0.0
O110 O 0.0765 0.82562 0.83234 0.0
O111 O 0.072 0.82374 0.74365 0.0
O112 O 0.2181 0.25245 0.79942 0.0
Cd113 Cd 0.21415 0.26132 0.73367 0.0
Cd114 Cd 0.19039 0.25396 0.7921 0.0
O115 O 0.19733 0.24285 0.83702 0.0
O116 O 0.22922 0.26435 0.68243 0.0
O117 O 0.20704 0.25012 0.66412 0.0
C118 C 0.2199 0.25546 0.65001 0.0
C119 C 0.16655 0.24352 0.77712 0.0
C120 C 0.20954 0.24468 0.83556 0.0
C121 C 0.211 0.28448 0.77842 0.0
O122 O 0.20023 0.27529 0.80302 0.0
O123 O 0.21754 0.28101 0.74543 0.0
O124 O 0.17189 0.24743 0.82508 0.0
O125 O 0.17477 0.24527 0.73678 0.0
O126 O 0.96935 0.74947 0.18708 0.0
Cd127 Cd 0.95767 0.7405 0.25605 0.0
Cd128 Cd 0.93946 0.74466 0.19413 0.0
O129 O 0.95697 0.7578 0.15024 0.0
O130 O 0.97231 0.74125 0.30478 0.0
O131 O 0.96052 0.75189 0.32422 0.0
C132 C 0.97027 0.74928 0.33656 0.0
C133 C 0.92279 0.75143 0.20418 0.0
C134 C 0.96785 0.75683 0.15106 0.0
C135 C 0.93351 0.71524 0.21332 0.0
O136 O 0.9315 0.72351 0.18397 0.0
O137 O 0.94272 0.71987 0.25054 0.0
O138 O 0.92525 0.74766 0.1577 0.0
O139 O 0.92996 0.75152 0.24592 0.0
O140 O 0.25134 0.22068 0.18073 0.0
Cd141 Cd 0.26015 0.21791 0.24955 0.0
Cd142 Cd 0.25471 0.19403 0.19377 0.0
O143 O 0.24323 0.19983 0.14518 0.0
O144 O 0.2617 0.23294 0.29788 0.0
O145 O 0.24853 0.21069 0.3181 0.0
C146 C 0.25297 0.22352 0.33049 0.0
C147 C 0.24546 0.17022 0.20722 0.0
C148 C 0.24427 0.21172 0.14459 0.0
C149 C 0.28469 0.21624 0.21171 0.0
O150 O 0.27617 0.20511 0.18718 0.0
O151 O 0.28035 0.22249 0.24223 0.0
O152 O 0.24998 0.17597 0.1603 0.0
O153 O 0.24597 0.17799 0.24744 0.0
O154 O 0.77803 0.03114 0.17967 0.0
Cd155 Cd 0.78237 0.04371 0.24743 0.0
Cd156 Cd 0.80425 0.06043 0.18171 0.0
O157 O 0.79886 0.04204 0.14272 0.0
O158 O 0.76777 0.03108 0.29935 0.0
O159 O 0.79011 0.03929 0.31449 0.0
C160 C 0.77739 0.0315 0.32986 0.0
C161 C 0.82782 0.0765 0.19217 0.0
C162 C 0.78667 0.03166 0.14445 0.0
C163 C 0.78266 0.06845 0.20201 0.0
O164 O 0.79179 0.06911 0.16901 0.0
O165 O 0.77872 0.06008 0.24213 0.0
O166 O 0.82185 0.07375 0.14503 0.0
O167 O 0.82042 0.06986 0.23419 0.0
O168 O 0.91626 0.36732 0.52852 0.0
Cd169 Cd 0.92662 0.37968 0.59495 0.0
Cd170 Cd 0.92092 0.39802 0.53718 0.0
O171 O 0.90958 0.38087 0.48924 0.0
O172 O 0.92904 0.36667 0.64332 0.0
O173 O 0.91598 0.37568 0.666 0.0
C174 C 0.92071 0.36749 0.67766 0.0
C175 C 0.91162 0.41245 0.55211 0.0
C176 C 0.90966 0.36953 0.49112 0.0
C177 C 0.95082 0.40609 0.55178 0.0
O178 O 0.94207 0.40826 0.52687 0.0
O179 O 0.9468 0.39585 0.58424 0.0
O180 O 0.9157 0.41106 0.5045 0.0
O181 O 0.91262 0.40546 0.59225 0.0
O182 O 0.63308 0.54736 0.51755 0.0
Cd183 Cd 0.62049 0.54604 0.58212 0.0
Cd184 Cd 0.60141 0.52309 0.51923 0.0
O185 O 0.61883 0.52789 0.4747 0.0
O186 O 0.63377 0.56136 0.63017 0.0
O187 O 0.62362 0.53931 0.65477 0.0
C188 C 0.63221 0.55218 0.66584 0.0
C189 C 0.58559 0.49954 0.53237 0.0
C190 C 0.63066 0.53871 0.47931 0.0
C191 C 0.5956 0.54643 0.53501 0.0
O192 O 0.59288 0.53559 0.50815 0.0
O193 O 0.60544 0.55152 0.5697 0.0
O194 O 0.58756 0.50534 0.4851 0.0
O195 O 0.59273 0.50713 0.57317 0.0
O196 O 0.44593 0.07841 0.53282 0.0
Cd197 Cd 0.45175 0.07091 0.59879 0.0
Cd198 Cd 0.47419 0.07963 0.53552 0.0
O199 O 0.46696 0.09154 0.49994 0.0
O200 O 0.43693 0.06695 0.65293 0.0
O201 O 0.45887 0.08301 0.66612 0.0
C202 C 0.44616 0.07673 0.68294 0.0
C203 C 0.49798 0.08951 0.54998 0.0
C204 C 0.45417 0.08783 0.5002 0.0
C205 C 0.45554 0.04908 0.54799 0.0
O206 O 0.46403 0.05868 0.51653 0.0
O207 O 0.45072 0.05202 0.58977 0.0
O208 O 0.49271 0.0869 0.50153 0.0
O209 O 0.48972 0.08682 0.5911 0.0
O210 O 0.69572 0.58158 0.14178 0.0
Cd211 Cd 0.7066 0.59368 0.07627 0.0
Cd212 Cd 0.72874 0.5918 0.13096 0.0
O213 O 0.7125 0.57997 0.18325 0.0
O214 O 0.69182 0.59374 0.0309 0.0
O215 O 0.70405 0.58419 0.00325 0.0
C216 C 0.69423 0.58692 0.9942 0.0
C217 C 0.74541 0.58492 0.12445 0.0
C218 C 0.69994 0.57709 0.18073 0.0
C219 C 0.7319 0.62025 0.11277 0.0
O220 O 0.73689 0.61297 0.13095 0.0
O221 O 0.72011 0.61459 0.08939 0.0
O222 O 0.74367 0.5902 0.16845 0.0
O223 O 0.73758 0.58343 0.08302 0.0
O224 O 0.41191 0.11015 0.15268 0.0
Cd225 Cd 0.4036 0.11267 0.0818 0.0
Cd226 Cd 0.40835 0.13678 0.13565 0.0
O227 O 0.41919 0.13094 0.18768 0.0
O228 O 0.40276 0.09776 0.03455 0.0
O229 O 0.41569 0.12003 0.01444 0.0
C230 C 0.41158 0.10725 0.00241 0.0
C231 C 0.41783 0.16071 0.12385 0.0
C232 C 0.41838 0.11915 0.18949 0.0
C233 C 0.37859 0.11423 0.11422 0.0
O234 O 0.38684 0.12556 0.13821 0.0
O235 O 0.38327 0.10786 0.08615 0.0
O236 O 0.41259 0.15466 0.16969 0.0
O237 O 0.41782 0.15317 0.08367 0.0
O238 O 0.88473 0.30306 0.15096 0.0
Cd239 Cd 0.88377 0.29124 0.08404 0.0
Cd240 Cd 0.86079 0.27107 0.146 0.0
O241 O 0.86561 0.28796 0.19399 0.0
O242 O 0.89876 0.30528 0.03658 0.0
O243 O 0.87666 0.29462 0.01273 0.0
C244 C 0.8894 0.30367 0.00174 0.0
C245 C 0.83717 0.25489 0.13622 0.0
C246 C 0.87619 0.29999 0.19024 0.0
C247 C 0.8847 0.26619 0.12609 0.0
O248 O 0.87365 0.26286 0.15256 0.0
O249 O 0.8898 0.27648 0.09347 0.0
O250 O 0.84355 0.25676 0.18207 0.0
O251 O 0.8442 0.26231 0.09487 0.0
O252 O 0.42406 0.29953 0.1377 0.0
Cd253 Cd 0.41169 0.28753 0.07478 0.0
Cd254 Cd 0.41457 0.26684 0.13368 0.0
O255 O 0.42652 0.28375 0.18314 0.0
O256 O 0.41023 0.3015 0.02899 0.0
O257 O 0.42047 0.29003 0.00012 0.0
C258 C 0.41696 0.2993 0.99126 0.0
C259 C 0.42231 0.25099 0.12171 0.0
C260 C 0.42901 0.29614 0.17771 0.0
C261 C 0.38574 0.26243 0.11837 0.0
O262 O 0.3933 0.25793 0.13809 0.0
O263 O 0.39108 0.27375 0.09163 0.0
O264 O 0.41776 0.25253 0.16804 0.0
O265 O 0.42269 0.25865 0.08128 0.0
O266 O 0.69607 0.1228 0.14294 0.0
Cd267 Cd 0.70775 0.12169 0.07969 0.0
Cd268 Cd 0.72856 0.14491 0.1424 0.0
O269 O 0.71152 0.1415 0.18702 0.0
O270 O 0.69261 0.10665 0.03611 0.0
O271 O 0.70581 0.12793 0.00419 0.0
C272 C 0.69547 0.11552 0.99739 0.0
C273 C 0.74605 0.16806 0.13246 0.0
C274 C 0.69917 0.13158 0.18124 0.0
C275 C 0.73175 0.11963 0.12682 0.0
O276 O 0.73558 0.13106 0.15125 0.0
O277 O 0.72143 0.11455 0.09434 0.0
O278 O 0.74339 0.16174 0.17881 0.0
O279 O 0.73863 0.16124 0.09078 0.0
O280 O 0.87624 0.57366 0.14463 0.0
Cd281 Cd 0.87856 0.5873 0.08284 0.0
Cd282 Cd 0.85525 0.58537 0.14263 0.0
O283 O 0.85745 0.57089 0.18637 0.0
O284 O 0.89354 0.58688 0.04011 0.0
O285 O 0.87271 0.58008 0.00589 0.0
C286 C 0.88495 0.58166 -1e-05 0.0
C287 C 0.83246 0.58072 0.13077 0.0
C288 C 0.86705 0.56797 0.18152 0.0
C289 C 0.88149 0.61338 0.13338 0.0
O290 O 0.86968 0.60594 0.15544 0.0
O291 O 0.88651 0.60812 0.10077 0.0
O292 O 0.8385 0.58387 0.17773 0.0
O293 O 0.83937 0.58011 0.08946 0.0
O294 O 0.63427 0.09311 0.5182 0.0
Cd295 Cd 0.62342 0.07967 0.58056 0.0
Cd296 Cd 0.60143 0.08144 0.52748 0.0
O297 O 0.61725 0.09359 0.47392 0.0
O298 O 0.63908 0.08042 0.62257 0.0
O299 O 0.62495 0.08704 0.65728 0.0
C300 C 0.63575 0.08568 0.66267 0.0
C301 C 0.58553 0.08888 0.54393 0.0
C302 C 0.63 0.0973 0.47848 0.0
C303 C 0.59867 0.0531 0.54032 0.0
O304 O 0.59324 0.06024 0.52508 0.0
O305 O 0.61062 0.05888 0.56246 0.0
O306 O 0.58625 0.08386 0.49741 0.0
O307 O 0.59389 0.08968 0.58225 0.0
O308 O 0.90717 0.54466 0.51559 0.0
Cd309 Cd 0.92109 0.54811 0.57709 0.0
Cd310 Cd 0.91925 0.52384 0.52961 0.0
O311 O 0.90642 0.52648 0.47625 0.0
O312 O 0.92005 0.56277 0.61964 0.0
O313 O 0.91417 0.54215 0.6541 0.0
C314 C 0.91519 0.55417 0.6599 0.0
C315 C 0.91237 0.50064 0.54741 0.0
C316 C 0.90265 0.53549 0.47836 0.0
C317 C 0.94752 0.54996 0.5361 0.0
O318 O 0.94035 0.53717 0.5238 0.0
O319 O 0.94182 0.55632 0.55723 0.0
O320 O 0.91711 0.50627 0.50048 0.0
O321 O 0.91164 0.50826 0.58562 0.0
O322 O 0.45106 0.36144 0.51644 0.0
Cd323 Cd 0.45051 0.37319 0.57998 0.0
Cd324 Cd 0.47423 0.39433 0.52297 0.0
O325 O 0.46959 0.37754 0.47334 0.0
O326 O 0.43556 0.35907 0.62712 0.0
O327 O 0.45751 0.37096 0.65335 0.0
C328 C 0.44486 0.36148 0.66352 0.0
C329 C 0.49784 0.41031 0.53372 0.0
C330 C 0.45973 0.36509 0.47746 0.0
C331 C 0.4496 0.39843 0.53921 0.0
O332 O 0.4617 0.40306 0.5197 0.0
O333 O 0.44356 0.38695 0.5648 0.0
O334 O 0.49154 0.40873 0.48784 0.0
O335 O 0.49073 0.40269 0.57453 0.0
O336 O 0.57546 0.6954 0.84971 0.0
Cd337 Cd 0.5887 0.70604 0.91287 0.0
Cd338 Cd 0.58704 0.72823 0.86077 0.0
O339 O 0.57488 0.71254 0.80685 0.0
O340 O 0.58749 0.6903 0.95571 0.0
O341 O 0.58091 0.70464 0.98864 0.0
C342 C 0.58206 0.69372 0.99487 0.0
C343 C 0.57961 0.74421 0.87591 0.0
C344 C 0.57122 0.6998 0.81055 0.0
C345 C 0.61539 0.73084 0.87466 0.0
O346 O 0.60822 0.73624 0.85927 0.0
O347 O 0.6096 0.71885 0.89643 0.0
O348 O 0.5849 0.74353 0.83002 0.0
O349 O 0.57861 0.73583 0.91451 0.0
O350 O 0.30518 0.88468 0.84533 0.0
Cd351 Cd 0.29419 0.88538 0.91156 0.0
Cd352 Cd 0.27235 0.86188 0.856 0.0
O353 O 0.2884 0.86665 0.80212 0.0
O354 O 0.30891 0.90003 0.95797 0.0
O355 O 0.29673 0.87808 0.9838 0.0
C356 C 0.30651 0.89061 0.99383 0.0
C357 C 0.25648 0.8382 0.8671 0.0
C358 C 0.30096 0.87631 0.80521 0.0
C359 C 0.26881 0.88675 0.87641 0.0
O360 O 0.26382 0.87457 0.85714 0.0
O361 O 0.2806 0.89274 0.89983 0.0
O362 O 0.25738 0.84465 0.82221 0.0
O363 O 0.2647 0.8452 0.90671 0.0
O364 O 0.11106 0.41396 0.84337 0.0
Cd365 Cd 0.11312 0.40518 0.91382 0.0
Cd366 Cd 0.13733 0.40979 0.86117 0.0
O367 O 0.13195 0.42111 0.80968 0.0
O368 O 0.09839 0.40461 0.96152 0.0
O369 O 0.12072 0.41706 0.98157 0.0
C370 C 0.108 0.41323 0.99378 0.0
C371 C 0.16117 0.41894 0.87433 0.0
C372 C 0.12027 0.42052 0.80736 0.0
C373 C 0.11431 0.38006 0.88011 0.0
O374 O 0.12581 0.38829 0.85709 0.0
O375 O 0.10797 0.38476 0.90815 0.0
O376 O 0.15527 0.41393 0.82803 0.0
O377 O 0.15352 0.41885 0.91421 0.0
O378 O 0.36867 0.91356 0.4684 0.0
Cd379 Cd 0.38138 0.92423 0.4032 0.0
Cd380 Cd 0.39968 0.91878 0.46511 0.0
O381 O 0.38201 0.90692 0.50986 0.0
O382 O 0.36857 0.92707 0.35525 0.0
O383 O 0.37749 0.91403 0.33103 0.0
C384 C 0.36943 0.91895 0.31996 0.0
C385 C 0.41479 0.91014 0.45302 0.0
C386 C 0.37059 0.90684 0.50613 0.0
C387 C 0.40731 0.94857 0.4493 0.0
O388 O 0.40937 0.93994 0.47576 0.0
O389 O 0.3974 0.9444 0.41514 0.0
O390 O 0.41279 0.91397 0.50021 0.0
O391 O 0.40798 0.91097 0.4118 0.0
O392 O 0.08166 0.44995 0.46341 0.0
Cd393 Cd 0.07369 0.45537 0.3978 0.0
Cd394 Cd 0.08162 0.47748 0.46437 0.0
O395 O 0.09411 0.47081 0.49887 0.0
O396 O 0.06964 0.4402 0.34516 0.0
O397 O 0.08531 0.46209 0.32892 0.0
C398 C 0.07911 0.44926 0.31366 0.0
C399 C 0.09016 0.50121 0.45256 0.0
C400 C 0.09081 0.45813 0.49705 0.0
C401 C 0.05127 0.45779 0.45077 0.0
O402 O 0.06068 0.46625 0.48294 0.0
O403 O 0.0545 0.45363 0.40782 0.0
O404 O 0.08776 0.49561 0.5004 0.0
O405 O 0.08816 0.49336 0.41059 0.0
O406 O 0.54247 0.63374 0.4743 0.0
Cd407 Cd 0.54314 0.62171 0.41151 0.0
Cd408 Cd 0.51987 0.60152 0.47442 0.0
O409 O 0.52367 0.61868 0.51893 0.0
O410 O 0.55845 0.63659 0.36801 0.0
O411 O 0.53716 0.6238 0.33567 0.0
C412 C 0.54969 0.63393 0.32906 0.0
C413 C 0.49652 0.58472 0.46273 0.0
C414 C 0.53379 0.6309 0.51279 0.0
C415 C 0.54468 0.59758 0.46031 0.0
O416 O 0.53329 0.59402 0.48462 0.0
O417 O 0.5499 0.60776 0.42714 0.0
O418 O 0.50259 0.58701 0.50953 0.0
O419 O 0.50373 0.59205 0.42151 0.0
O420 O 0.08805 0.63615 0.48156 0.0
Cd421 Cd 0.07612 0.62507 0.41588 0.0
Cd422 Cd 0.07797 0.60327 0.47105 0.0
O423 O 0.08942 0.61939 0.52438 0.0
O424 O 0.07602 0.63972 0.36952 0.0
O425 O 0.08573 0.62755 0.34312 0.0
C426 C 0.08293 0.63729 0.33329 0.0
C427 C 0.08585 0.58749 0.45956 0.0
C428 C 0.09232 0.63195 0.52137 0.0
C429 C 0.04948 0.59971 0.4526 0.0
O430 O 0.05673 0.59472 0.47124 0.0
O431 O 0.05521 0.61147 0.42893 0.0
O432 O 0.08046 0.58843 0.50477 0.0
O433 O 0.08682 0.59557 0.41978 0.0
O434 O 0.36126 0.44657 0.4865 0.0
Cd435 Cd 0.3731 0.44897 0.41886 0.0
Cd436 Cd 0.39209 0.47245 0.47683 0.0
O437 O 0.37457 0.46717 0.52338 0.0
O438 O 0.35953 0.4344 0.36914 0.0
O439 O 0.36957 0.45678 0.34993 0.0
C440 C 0.36086 0.44409 0.33665 0.0
C441 C 0.40765 0.49616 0.46562 0.0
C442 C 0.36335 0.45557 0.52276 0.0
C443 C 0.39858 0.44933 0.45876 0.0
O444 O 0.40158 0.46053 0.4836 0.0
O445 O 0.38806 0.44351 0.42759 0.0
O446 O 0.40579 0.4901 0.51223 0.0
O447 O 0.40045 0.48879 0.42448 0.0
O448 O 0.554 0.91714 0.48193 0.0
Cd449 Cd 0.55176 0.92655 0.41387 0.0
Cd450 Cd 0.528 0.92175 0.46982 0.0
O451 O 0.53326 0.90972 0.51765 0.0
O452 O 0.56663 0.92782 0.36533 0.0
O453 O 0.54435 0.91526 0.34464 0.0
C454 C 0.55712 0.9194 0.3323 0.0
C455 C 0.50428 0.91299 0.45567 0.0
C456 C 0.5449 0.91021 0.51786 0.0
C457 C 0.55096 0.95151 0.45306 0.0
O458 O 0.53966 0.9432 0.47707 0.0
O459 O 0.55699 0.94692 0.42252 0.0
O460 O 0.50998 0.91738 0.50278 0.0
O461 O 0.51207 0.91343 0.41564 0.0
O462 O 0.29611 0.41756 0.86696 0.0
Cd463 Cd 0.28372 0.40865 0.93387 0.0
Cd464 Cd 0.26604 0.41398 0.86998 0.0
O465 O 0.28399 0.42552 0.82481 0.0
O466 O 0.29655 0.40595 0.982 0.0
O467 O 0.28836 0.4197 0.00432 0.0
C468 C 0.29621 0.41458 0.01597 0.0
C469 C 0.25111 0.42285 0.88122 0.0
C470 C 0.29482 0.42449 0.82851 0.0
C471 C 0.25807 0.38411 0.89023 0.0
O472 O 0.25592 0.39255 0.86272 0.0
O473 O 0.26802 0.38854 0.92425 0.0
O474 O 0.25295 0.41874 0.83435 0.0
O475 O 0.25809 0.42229 0.92243 0.0
O476 O 0.58279 0.88118 0.86315 0.0
Cd477 Cd 0.5917 0.87735 0.92909 0.0
Cd478 Cd 0.58527 0.85411 0.86714 0.0
O479 O 0.5738 0.86075 0.82295 0.0
O480 O 0.5946 0.89262 0.97907 0.0
O481 O 0.58065 0.87052 -0.00072 0.0
C482 C 0.58586 0.88343 0.01229 0.0
C483 C 0.57585 0.83027 0.87971 0.0
C484 C 0.57535 0.87284 0.82585 0.0
C485 C 0.6155 0.87545 0.88326 0.0
O486 O 0.60663 0.86483 0.85698 0.0
O487 O 0.61161 0.88135 0.91773 0.0
O488 O 0.57966 0.83598 0.83227 0.0
O489 O 0.57704 0.83809 0.92083 0.0
O490 O 0.12187 0.69927 0.8578 0.0
Cd491 Cd 0.12324 0.71183 0.92258 0.0
Cd492 Cd 0.14671 0.73082 0.85923 0.0
O493 O 0.14168 0.71312 0.81609 0.0
O494 O 0.10764 0.69863 0.96998 0.0
O495 O 0.12959 0.70833 0.99546 0.0
C496 C 0.11665 0.69989 0.00594 0.0
C497 C 0.17031 0.74713 0.86883 0.0
C498 C 0.13063 0.70146 0.82024 0.0
C499 C 0.12345 0.73691 0.87444 0.0
O500 O 0.13421 0.73934 0.84766 0.0
O501 O 0.11823 0.72721 0.90969 0.0
O502 O 0.16413 0.74447 0.82218 0.0
O503 O 0.16312 0.74029 0.91094 0.0
H504 H 0.20889 0.96299 0.56669 0.0
H505 H 0.24448 0.03825 0.43455 0.0
H506 H 0.23806 0.9993 0.65722 0.0
H507 H 0.23734 0.00242 0.34063 0.0
H508 H 0.23774 0.02393 0.51795 0.0
H509 H 0.21489 0.97726 0.48327 0.0
C510 C 0.21651 0.97395 0.56896 0.0
C511 C 0.22308 0.97998 0.61862 0.0
C512 C 0.23766 0.01926 0.47893 0.0
C513 C 0.22969 0.99628 0.52441 0.0
C514 C 0.24145 0.02738 0.43152 0.0
C515 C 0.24155 0.0215 0.38091 0.0
C516 C 0.23361 0.00514 0.47518 0.0
C517 C 0.23753 0.00737 0.37904 0.0
C518 C 0.21994 0.98204 0.52155 0.0
C519 C 0.23287 0.99423 0.61955 0.0
N520 N 0.23362 -0.00038 0.42548 0.0
N521 N 0.23581 0.00194 0.57319 0.0
H522 H 0.03704 0.24435 0.56064 0.0
H523 H 0.96122 0.20555 0.43325 0.0
H524 H 0.00127 0.23704 0.6554 0.0
H525 H 0.99659 0.23522 0.33952 0.0
H526 H 0.97592 0.21246 0.5157 0.0
H527 H 0.02234 0.23643 0.47825 0.0
C528 C 0.02611 0.24104 0.56406 0.0
C529 C 0.02035 0.24145 0.61459 0.0
C530 C 0.9804 0.2174 0.47692 0.0
C531 C 0.00357 0.23214 0.52155 0.0
C532 C 0.97206 0.21346 0.43006 0.0
C533 C 0.9777 0.21992 0.37983 0.0
C534 C 0.9945 0.22756 0.47288 0.0
C535 C 0.99182 0.2301 0.37769 0.0
C536 C 0.01777 0.23657 0.51724 0.0
C537 C 0.00613 0.23702 0.617 0.0
N538 N -0.00022 0.23354 0.42351 0.0
N539 N 0.99818 0.23244 0.57118 0.0
H540 H 0.79119 0.75401 0.43519 0.0
H541 H 0.7523 0.79016 0.56933 0.0
H542 H 0.76291 0.76195 0.34222 0.0
H543 H 0.75941 0.76087 0.65901 0.0
H544 H 0.76044 0.78419 0.48557 0.0
H545 H 0.78387 0.76083 0.519 0.0
C546 C 0.7835 0.75723 0.43246 0.0
C547 C 0.77755 0.75733 0.38199 0.0
C548 C 0.7602 0.77911 0.52374 0.0
C549 C 0.76942 0.76536 0.47675 0.0
C550 C 0.7556 0.78252 0.57135 0.0
C551 C 0.7551 0.77591 0.62086 0.0
C552 C 0.76463 0.76931 0.52624 0.0
C553 C 0.7595 0.76609 0.62146 0.0
C554 C 0.77932 0.76107 0.4801 0.0
C555 C 0.76763 0.7616 0.38051 0.0
N556 N 0.76419 0.76316 0.5749 0.0
N557 N 0.76394 0.76555 0.42718 0.0
H558 H 0.73336 0.97976 0.60483 0.0
H559 H 0.7936 0.02397 0.38938 0.0
H560 H 0.76884 0.97422 0.58545 0.0
H561 H 0.75255 0.01888 0.3824 0.0
H562 H 0.78613 0.00781 0.46734 0.0
H563 H 0.74155 0.996 0.52855 0.0
C564 C 0.74287 0.98192 0.58431 0.0
C565 C 0.75042 0.9756 0.60143 0.0
C566 C 0.77881 0.01028 0.44866 0.0
C567 C 0.75996 0.99437 0.51413 0.0
C568 C 0.78308 0.01957 0.40456 0.0
C569 C 0.77367 0.02275 0.37943 0.0
C570 C 0.76511 0.00434 0.46794 0.0
C571 C 0.76014 0.01669 0.40038 0.0
C572 C 0.74754 0.9912 0.54069 0.0
C573 C 0.76267 0.97881 0.57326 0.0
N574 N 0.75629 0.00781 0.44337 0.0
N575 N 0.76713 0.98806 0.53107 0.0
H576 H 0.04013 0.79401 0.55677 0.0
H577 H 0.96338 0.75407 0.43881 0.0
H578 H 0.00663 0.7617 0.65014 0.0
H579 H 0.99795 0.75921 0.34129 0.0
H580 H 0.97905 0.76354 0.51841 0.0
H581 H 0.02437 0.78785 0.47749 0.0
C582 C 0.02945 0.78575 0.56064 0.0
C583 C 0.02465 0.77821 0.60947 0.0
C584 C 0.98315 0.7627 0.47926 0.0
C585 C 0.00669 0.77152 0.52065 0.0
C586 C 0.97428 0.75735 0.43412 0.0
C587 C 0.97942 0.75575 0.38398 0.0
C588 C 0.99725 0.76686 0.47327 0.0
C589 C 0.9936 0.76014 0.37965 0.0
C590 C 0.02052 0.78226 0.51568 0.0
C591 C 0.01073 0.76761 0.61277 0.0
N592 N 0.00207 0.76557 0.42373 0.0
N593 N 0.00218 0.7646 0.56897 0.0
H594 H 0.23016 0.2072 0.39451 0.0
H595 H 0.24481 0.2691 0.59836 0.0
H596 H 0.2642 0.24915 0.37632 0.0
H597 H 0.20476 0.2318 0.58885 0.0
H598 H 0.25269 0.26102 0.52116 0.0
H599 H 0.22138 0.21495 0.47116 0.0
C600 C 0.23583 0.21799 0.40691 0.0
C601 C 0.24792 0.22755 0.3791 0.0
C602 C 0.24214 0.25461 0.53561 0.0
C603 C 0.23797 0.23643 0.46609 0.0
C604 C 0.23763 0.25923 0.5797 0.0
C605 C 0.22411 0.25111 0.59995 0.0
C606 C 0.23314 0.24167 0.51186 0.0
C607 C 0.21525 0.23841 0.57418 0.0
C608 C 0.23077 0.22241 0.45027 0.0
C609 C 0.25482 0.24142 0.39649 0.0
N610 N 0.21996 0.234 0.53161 0.0
N611 N 0.24977 0.24543 0.43888 0.0
H612 H 0.93377 0.35512 0.72576 0.0
H613 H 0.87283 0.30923 0.93519 0.0
H614 H 0.89764 0.35969 0.74169 0.0
H615 H 0.91504 0.3182 0.95593 0.0
H616 H 0.88038 0.32525 0.85672 0.0
H617 H 0.92579 0.33927 0.80366 0.0
C618 C 0.92418 0.35283 0.74589 0.0
C619 C 0.91637 0.35876 0.72739 0.0
C620 C 0.88794 0.32366 0.87855 0.0
C621 C 0.90707 0.34043 0.81614 0.0
C622 C 0.88364 0.31446 0.92294 0.0
C623 C 0.89334 0.3124 0.95204 0.0
C624 C 0.90197 0.33062 0.86285 0.0
C625 C 0.90723 0.31951 0.93477 0.0
C626 C 0.91964 0.34379 0.79036 0.0
C627 C 0.90402 0.35542 0.75499 0.0
N628 N 0.91111 0.32824 0.89124 0.0
N629 N 0.89966 0.34636 0.79783 0.0
H630 H 0.63923 0.53673 0.73236 0.0
H631 H 0.6788 0.59721 0.95019 0.0
H632 H 0.64426 0.57757 0.71401 0.0
H633 H 0.68961 0.56536 0.92618 0.0
H634 H 0.66322 0.58828 0.87154 0.0
H635 H 0.65472 0.5451 0.81249 0.0
C636 C 0.64347 0.54739 0.74555 0.0
C637 C 0.64049 0.55649 0.71664 0.0
C638 C 0.66904 0.58328 0.88332 0.0
C639 C 0.65805 0.56604 0.80762 0.0
C640 C 0.67793 0.58836 0.92817 0.0
C641 C 0.68554 0.58204 0.94449 0.0
C642 C 0.66754 0.57163 0.85507 0.0
C643 C 0.684 0.57059 0.91455 0.0
C644 C 0.65237 0.55217 0.79082 0.0
C645 C 0.64633 0.57023 0.73503 0.0
N646 N 0.67506 0.56565 0.87139 0.0
N647 N 0.65477 0.57457 0.77947 0.0
H648 H 0.42206 0.06193 0.73931 0.0
H649 H 0.43396 0.12408 0.93707 0.0
H650 H 0.46039 0.10119 0.74028 0.0
H651 H 0.40168 0.08146 0.9594 0.0
H652 H 0.44322 0.11672 0.86085 0.0
H653 H 0.41395 0.06962 0.817 0.0
C654 C 0.42883 0.07216 0.75619 0.0
C655 C 0.44192 0.08094 0.73334 0.0
C656 C 0.43412 0.10902 0.88259 0.0
C657 C 0.4326 0.08991 0.8221 0.0
C658 C 0.42878 0.11321 0.92576 0.0
C659 C 0.41703 0.10337 0.95454 0.0
C660 C 0.42754 0.09492 0.86796 0.0
C661 C 0.41078 0.08941 0.93845 0.0
C662 C 0.42418 0.07655 0.80059 0.0
C663 C 0.45025 0.09408 0.75694 0.0
N664 N 0.41608 0.08563 0.89625 0.0
N665 N 0.4454 0.09823 0.79987 0.0
H666 H 0.41941 0.34758 0.7111 0.0
H667 H 0.43838 0.30498 0.9208 0.0
H668 H 0.46146 0.3559 0.72933 0.0
H669 H 0.40466 0.31293 0.94773 0.0
H670 H 0.44569 0.32068 0.84136 0.0
H671 H 0.41256 0.33206 0.79009 0.0
C672 C 0.42722 0.34619 0.73199 0.0
C673 C 0.44103 0.35306 0.71391 0.0
C674 C 0.43668 0.31893 0.86475 0.0
C675 C 0.4332 0.33511 0.8035 0.0
C676 C 0.43245 0.3099 0.90962 0.0
C677 C 0.42092 0.30768 0.94074 0.0
C678 C 0.42915 0.3255 0.85056 0.0
C679 C 0.41364 0.3144 0.92492 0.0
C680 C 0.4233 0.33734 0.777 0.0
C681 C 0.45073 0.35088 0.74237 0.0
N682 N 0.41784 0.32295 0.88078 0.0
N683 N 0.4466 0.34196 0.78559 0.0
H684 H 0.66821 0.09593 0.98989 0.0
H685 H 0.66336 0.09481 0.66919 0.0
H686 H 0.70259 0.12618 0.8935 0.0
H687 H 0.62822 0.08771 0.76774 0.0
H688 H 0.6781 0.10296 0.75082 0.0
H689 H 0.65342 0.08931 0.90839 0.0
C690 C 0.67265 0.10113 0.95146 0.0
C691 C 0.68664 0.11158 0.94817 0.0
C692 C 0.66718 0.09966 0.75441 0.0
C693 C 0.66986 0.10394 0.85517 0.0
C694 C 0.65874 0.09492 0.70811 0.0
C695 C 0.64456 0.09055 0.71197 0.0
C696 C 0.6613 0.09967 0.80509 0.0
C697 C 0.63912 0.09101 0.76318 0.0
C698 C 0.66419 0.09742 0.90525 0.0
C699 C 0.69185 0.11809 0.89761 0.0
N700 N 0.64748 0.09534 0.80809 0.0
N701 N 0.68348 0.11403 0.85272 0.0
H702 H 0.90611 0.57265 0.66919 0.0
H703 H 0.90419 0.57355 0.99108 0.0
H704 H 0.91328 0.54411 0.76405 0.0
H705 H 0.87493 0.57949 0.8956 0.0
H706 H 0.91102 0.5661 0.9082 0.0
H707 H 0.89797 0.57875 0.75205 0.0
C708 C 0.90603 0.56772 0.70755 0.0
C709 C 0.91041 0.55789 0.70998 0.0
C710 C 0.90308 0.569 0.90555 0.0
C711 C 0.90127 0.56494 0.80455 0.0
C712 C 0.89924 0.57333 0.95258 0.0
C713 C 0.88901 0.57717 0.94997 0.0
C714 C 0.89691 0.56885 0.85537 0.0
C715 C 0.88285 0.57659 0.89923 0.0
C716 C 0.90129 0.57113 0.75457 0.0
C717 C 0.90997 0.55172 0.76055 0.0
N718 N 0.88702 0.57266 0.85362 0.0
N719 N 0.90563 0.55547 0.80616 0.0
H720 H 0.56961 0.66107 0.32211 0.0
H721 H 0.57237 0.66602 0.00168 0.0
H722 H 0.53932 0.62697 0.22468 0.0
H723 H 0.57955 0.70133 0.0992 0.0
H724 H 0.56348 0.65125 0.08309 0.0
H725 H 0.57676 0.67589 0.24063 0.0
C726 C 0.5645 0.65669 0.28346 0.0
C727 C 0.5539 0.64277 0.27986 0.0
C728 C 0.56697 0.66222 0.08649 0.0
C729 C 0.56215 0.65959 0.18689 0.0
C730 C 0.57212 0.67066 0.04034 0.0
C731 C 0.57674 0.68491 0.04399 0.0
C732 C 0.56678 0.66815 0.13684 0.0
C733 C 0.57607 0.69039 0.09482 0.0
C734 C 0.56852 0.66517 0.23726 0.0
C735 C 0.54753 0.63765 0.22902 0.0
N736 N 0.57135 0.68201 0.13963 0.0
N737 N 0.55189 0.64603 0.18415 0.0
H738 H 0.35809 0.93299 0.27198 0.0
H739 H 0.31058 0.87325 0.06166 0.0
H740 H 0.36106 0.89597 0.25487 0.0
H741 H 0.32231 0.91621 0.03861 0.0
H742 H 0.32643 0.88009 0.1405 0.0
H743 H 0.34249 0.92579 0.19329 0.0
C744 C 0.35551 0.92337 0.25142 0.0
C745 C 0.3609 0.91508 0.26979 0.0
C746 C 0.32548 0.88797 0.11806 0.0
C747 C 0.34286 0.90666 0.18027 0.0
C748 C 0.31638 0.88407 0.07349 0.0
C749 C 0.31515 0.89419 0.04366 0.0
C750 C 0.33316 0.90201 0.13325 0.0
C751 C 0.32298 0.90808 0.06037 0.0
C752 C 0.34661 0.91927 0.20652 0.0
C753 C 0.3572 0.90271 0.24166 0.0
N754 N 0.33159 0.91157 0.10415 0.0
N755 N 0.34828 0.89878 0.19846 0.0
H756 H 0.06413 0.42475 0.2601 0.0
H757 H 0.12519 0.43563 0.05824 0.0
H758 H 0.1032 0.46323 0.2538 0.0
H759 H 0.08239 0.40358 0.03829 0.0
H760 H 0.11822 0.44518 0.1347 0.0
H761 H 0.07142 0.41621 0.18249 0.0
C762 C 0.07422 0.43145 0.24207 0.0
C763 C 0.08307 0.44473 0.26337 0.0
C764 C 0.1104 0.43607 0.11344 0.0
C765 C 0.09159 0.43492 0.17475 0.0
C766 C 0.11437 0.43056 0.07016 0.0
C767 C 0.10435 0.41879 0.04194 0.0
C768 C 0.09635 0.42964 0.12881 0.0
C769 C 0.09047 0.41268 0.05878 0.0
C770 C 0.07839 0.42657 0.19773 0.0
C771 C 0.09604 0.45296 0.23835 0.0
N772 N 0.0869 0.41815 0.10113 0.0
N773 N 0.09998 0.44787 0.19552 0.0
H774 H 0.10436 0.64155 0.26515 0.0
H775 H 0.09114 0.68803 0.05325 0.0
H776 H 0.0728 0.6528 0.28841 0.0
H777 H 0.13159 0.69214 0.07203 0.0
H778 H 0.08295 0.67252 0.13231 0.0
H779 H 0.11314 0.65734 0.18603 0.0
C780 C 0.09921 0.64723 0.2533 0.0
C781 C 0.08784 0.64588 0.28327 0.0
C782 C 0.09364 0.67687 0.11935 0.0
C783 C 0.09777 0.66382 0.19334 0.0
C784 C 0.09832 0.68572 0.07425 0.0
C785 C 0.11208 0.69141 0.05626 0.0
C786 C 0.10268 0.67346 0.14614 0.0
C787 C 0.12093 0.68805 0.08495 0.0
C788 C 0.10429 0.6563 0.20857 0.0
C789 C 0.08162 0.65356 0.26654 0.0
N790 N 0.11605 0.67916 0.1283 0.0
N791 N 0.08662 0.66214 0.22257 0.0
H792 H 0.35495 0.46108 0.27429 0.0
H793 H 0.30822 0.40105 0.06252 0.0
H794 H 0.34663 0.41891 0.28725 0.0
H795 H 0.30466 0.43773 0.08044 0.0
H796 H 0.32434 0.40868 0.13923 0.0
H797 H 0.33876 0.45406 0.19654 0.0
C798 C 0.34983 0.4504 0.26046 0.0
C799 C 0.35212 0.44055 0.28718 0.0
C800 C 0.32 0.41504 0.12669 0.0
C801 C 0.33368 0.4325 0.19895 0.0
C802 C 0.31078 0.4107 0.08286 0.0
C803 C 0.30508 0.41876 0.06521 0.0
C804 C 0.32371 0.42766 0.15281 0.0
C805 C 0.30877 0.43117 0.0931 0.0
C806 C 0.34053 0.44639 0.2165 0.0
C807 C 0.34515 0.42684 0.26798 0.0
N808 N 0.31797 0.43532 0.13542 0.0
N809 N 0.33629 0.42324 0.22502 0.0
H810 H 0.58251 0.93074 0.28442 0.0
H811 H 0.56269 0.8683 0.0761 0.0
H812 H 0.54064 0.89636 0.26973 0.0
H813 H 0.59927 0.90876 0.06088 0.0
H814 H 0.55515 0.87695 0.15388 0.0
H815 H 0.58946 0.92151 0.20812 0.0
C816 C 0.57475 0.92127 0.26489 0.0
C817 C 0.56097 0.91432 0.28333 0.0
C818 C 0.56483 0.88388 0.13345 0.0
C819 C 0.56892 0.90357 0.19622 0.0
C820 C 0.56919 0.87893 0.08949 0.0
C821 C 0.58161 0.88784 0.06209 0.0
C822 C 0.57307 0.89774 0.15032 0.0
C823 C 0.58959 0.90155 0.08071 0.0
C824 C 0.57873 0.916 0.22131 0.0
C825 C 0.55135 0.90208 0.25646 0.0
N826 N 0.5852 0.90606 0.12365 0.0
N827 N 0.55553 0.89701 0.21436 0.0
H828 H 0.18955 0.96086 0.95233 0.0
H829 H 0.22769 0.04049 0.04337 0.0
H830 H 0.21457 0.99512 0.84409 0.0
H831 H 0.21699 0.00648 0.15492 0.0
H832 H 0.21654 0.02374 0.96903 0.0
H833 H 0.19336 0.97748 0.0254 0.0
C834 C 0.19564 0.97187 0.94365 0.0
C835 C 0.20196 0.97664 0.89241 0.0
C836 C 0.21645 0.01997 0.01002 0.0
C837 C 0.20624 0.9956 0.9754 0.0
C838 C 0.22275 0.0295 0.05247 0.0
C839 C 0.22345 0.02485 0.10514 0.0
C840 C 0.21071 0.00574 0.02061 0.0
C841 C 0.21687 0.0105 0.11467 0.0
C842 C 0.19783 0.98132 0.98536 0.0
C843 C 0.2097 0.99101 0.88332 0.0
N844 N 0.21087 0.00144 0.07266 0.0
N845 N 0.21172 -0.0 0.92458 0.0
H846 H 0.99396 0.21526 0.15622 0.0
H847 H 0.00618 0.21749 0.83967 0.0
H848 H 0.96167 0.18811 0.04428 0.0
H849 H 0.03995 0.23103 0.95485 0.0
H850 H 0.98973 0.20592 0.91413 0.0
H851 H 0.01114 0.22051 0.08421 0.0
C852 C 0.9905 0.21027 0.11673 0.0
C853 C 0.97635 0.20139 0.10596 0.0
C854 C 0.00074 0.21122 0.92301 0.0
C855 C 0.99591 0.20746 0.02341 0.0
C856 C 0.01013 0.21787 0.88059 0.0
C857 C 0.02442 0.22535 0.89133 0.0
C858 C 0.00567 0.21231 0.97674 0.0
C859 C 0.02899 0.22541 0.94493 0.0
C860 C 0.00032 0.21322 0.07574 0.0
C861 C 0.97246 0.19509 0.05425 0.0
N862 N 0.01962 0.2192 0.98594 0.0
N863 N 0.98217 0.19845 0.01455 0.0
H864 H 0.76862 0.80917 0.95553 0.0
H865 H 0.8115 0.77255 0.0467 0.0
H866 H 0.77889 0.78493 0.84743 0.0
H867 H 0.78758 0.78247 0.15802 0.0
H868 H 0.8059 0.78377 0.97263 0.0
H869 H 0.78176 0.80588 0.0287 0.0
C870 C 0.77383 0.80336 0.94692 0.0
C871 C 0.77247 0.79709 0.89569 0.0
C872 C 0.8021 0.78369 0.01354 0.0
C873 C 0.78754 0.79342 0.97877 0.0
C874 C 0.80533 0.77736 0.05585 0.0
C875 C 0.79977 0.77637 0.1083 0.0
C876 C 0.79338 0.78916 0.02405 0.0
C877 C 0.79187 0.7828 0.1179 0.0
C878 C 0.78129 0.80147 0.98866 0.0
C879 C 0.77948 0.78973 0.88666 0.0
N880 N 0.78879 0.78881 0.076 0.0
N881 N 0.78664 0.788 0.92796 0.0
H882 H 0.77709 0.96969 0.90331 0.0
H883 H 0.76022 0.0136 0.1121 0.0
H884 H 0.7451 0.98009 0.87402 0.0
H885 H 0.80279 0.02474 0.0818 0.0
H886 H 0.75287 0.99666 0.03784 0.0
H887 H 0.78535 0.98595 0.98122 0.0
C888 C 0.77184 0.9754 0.91322 0.0
C889 C 0.76045 0.97362 0.88217 0.0
C890 C 0.76381 0.00278 0.04776 0.0
C891 C 0.76955 0.99176 0.97116 0.0
C892 C 0.76801 0.01237 0.09025 0.0
C893 C 0.78214 0.02064 0.10282 0.0
C894 C 0.77377 0.00125 0.01834 0.0
C895 C 0.79179 0.01863 0.07301 0.0
C896 C 0.77656 0.98464 0.95738 0.0
C897 C 0.75399 0.98124 0.89659 0.0
N898 N 0.78743 0.00907 0.03206 0.0
N899 N 0.75854 0.98986 0.9404 0.0
H900 H 0.01824 0.76392 0.87714 0.0
H901 H 0.97292 0.77872 0.08385 0.0
H902 H 0.02806 0.80625 0.90348 0.0
H903 H 0.98626 0.74911 0.11781 0.0
H904 H 0.9894 0.78769 0.00674 0.0
H905 H 0.00198 0.75659 0.95361 0.0
C906 C 0.01686 0.77166 0.89864 0.0
C907 C 0.02454 0.78572 0.88419 0.0
C908 C 0.98871 0.7793 0.03156 0.0
C909 C 0.00592 0.77737 0.9713 0.0
C910 C 0.97934 0.77418 0.07527 0.0
C911 C 0.97825 0.76317 0.10715 0.0
C912 C 0.99665 0.77308 0.01914 0.0
C913 C 0.98681 0.75764 0.09447 0.0
C914 C 0.00767 0.76748 0.94242 0.0
C915 C 0.02238 0.79532 0.91368 0.0
N916 N 0.99552 0.76254 0.051 0.0
N917 N 0.01317 0.79095 0.95593 0.0
H918 H 0.22185 0.19471 0.08008 0.0
H919 H 0.23612 0.25365 0.86689 0.0
H920 H 0.25283 0.23765 0.10637 0.0
H921 H 0.19381 0.2222 0.90196 0.0
H922 H 0.24398 0.24486 0.94207 0.0
H923 H 0.21264 0.20192 0.00279 0.0
C924 C 0.22668 0.20562 0.06964 0.0
C925 C 0.23809 0.21562 0.09957 0.0
C926 C 0.23299 0.23985 0.93305 0.0
C927 C 0.22789 0.22376 0.01141 0.0
C928 C 0.22849 0.24479 0.89002 0.0
C929 C 0.21428 0.23867 0.87841 0.0
C930 C 0.22326 0.22856 0.96404 0.0
C931 C 0.20485 0.22725 0.90995 0.0
C932 C 0.22141 0.20969 0.02589 0.0
C933 C 0.24397 0.22962 0.0846 0.0
N934 N 0.20952 0.22249 0.95143 0.0
N935 N 0.2389 0.23326 0.04116 0.0
H936 H 0.9039 0.37399 0.38699 0.0
H937 H 0.86708 0.29482 0.29593 0.0
H938 H 0.89983 0.34158 0.49585 0.0
H939 H 0.892 0.32829 0.18437 0.0
H940 H 0.87365 0.31173 0.37031 0.0
H941 H 0.89411 0.35695 0.3127 0.0
C942 C 0.90078 0.36326 0.39542 0.0
C943 C 0.90273 0.35916 0.44748 0.0
C944 C 0.87757 0.31533 0.3294 0.0
C945 C 0.89145 0.33974 0.36319 0.0
C946 C 0.87378 0.30574 0.28695 0.0
C947 C 0.87909 0.31019 0.23405 0.0
C948 C 0.88647 0.32946 0.31855 0.0
C949 C 0.88778 0.32444 0.2247 0.0
C950 C 0.89528 0.3536 0.35302 0.0
C951 C 0.89859 0.34516 0.45615 0.0
N952 N 0.8912 0.33361 0.26662 0.0
N953 N 0.89309 0.33591 0.41437 0.0
H954 H 0.70613 0.5744 0.28678 0.0
H955 H 0.62698 0.5276 0.37681 0.0
H956 H 0.67172 0.56151 0.17528 0.0
H957 H 0.65863 0.55687 0.48612 0.0
H958 H 0.64435 0.53482 0.3041 0.0
H959 H 0.68959 0.56283 0.3617 0.0
C960 C 0.69511 0.56896 0.27795 0.0
C961 C 0.69025 0.56901 0.22497 0.0
C962 C 0.64748 0.53953 0.34423 0.0
C963 C 0.67143 0.55572 0.30989 0.0
C964 C 0.63762 0.53539 0.38578 0.0
C965 C 0.64135 0.54178 0.43737 0.0
C966 C 0.66119 0.54995 0.35463 0.0
C967 C 0.65529 0.55181 0.4467 0.0
C968 C 0.68572 0.56244 0.32065 0.0
C969 C 0.67588 0.56185 0.2157 0.0
N970 N 0.66473 0.55563 0.40557 0.0
N971 N 0.66696 0.55549 0.25782 0.0
H972 H 0.43966 0.13658 0.25766 0.0
H973 H 0.42739 0.07672 0.46598 0.0
H974 H 0.41012 0.09332 0.2286 0.0
H975 H 0.46842 0.11191 0.44104 0.0
H976 H 0.41874 0.0851 0.39185 0.0
H977 H 0.44851 0.12979 0.33725 0.0
C978 C 0.43505 0.12569 0.26804 0.0
C979 C 0.4242 0.11547 0.23648 0.0
C980 C 0.42962 0.09101 0.40294 0.0
C981 C 0.43398 0.10778 0.32738 0.0
C982 C 0.43455 0.08631 0.4454 0.0
C983 C 0.44866 0.09359 0.45936 0.0
C984 C 0.43881 0.1032 0.37492 0.0
C985 C 0.45748 0.10593 0.43116 0.0
C986 C 0.4401 0.12185 0.3132 0.0
C987 C 0.41858 0.10151 0.25155 0.0
N988 N 0.4524 0.11039 0.39015 0.0
N989 N 0.42346 0.09808 0.29623 0.0
H990 H 0.44249 0.32436 0.16823 0.0
H991 H 0.44508 0.33682 0.48571 0.0
H992 H 0.43303 0.29157 0.28449 0.0
H993 H 0.47007 0.36999 0.37309 0.0
H994 H 0.44031 0.32 0.4127 0.0
H995 H 0.45261 0.34134 0.24221 0.0
C996 C 0.4427 0.32076 0.20924 0.0
C997 C 0.43681 0.30654 0.22041 0.0
C998 C 0.44698 0.33095 0.40419 0.0
C999 C 0.44817 0.32586 0.30517 0.0
C1000 C 0.44965 0.34055 0.44571 0.0
C1001 C 0.45787 0.35482 0.43524 0.0
C1002 C 0.45236 0.33566 0.35158 0.0
C1003 C 0.46364 0.35908 0.38284 0.0
C1004 C 0.44851 0.33045 0.25137 0.0
C1005 C 0.43744 0.30244 0.27417 0.0
N1006 N 0.46059 0.34954 0.34265 0.0
N1007 N 0.4428 0.31204 0.31481 0.0
H1008 H 0.67098 0.11553 0.17125 0.0
H1009 H 0.65806 0.1137 0.48773 0.0
H1010 H 0.70301 0.14294 0.28356 0.0
H1011 H 0.62456 0.09992 0.37116 0.0
H1012 H 0.6747 0.12498 0.41353 0.0
H1013 H 0.65368 0.11005 0.24299 0.0
C1014 C 0.67435 0.12051 0.21082 0.0
C1015 C 0.68847 0.12957 0.2217 0.0
C1016 C 0.6637 0.11968 0.40427 0.0
C1017 C 0.66877 0.12324 0.30394 0.0
C1018 C 0.65421 0.1132 0.44655 0.0
C1019 C 0.63993 0.10576 0.43539 0.0
C1020 C 0.6589 0.11845 0.35028 0.0
C1021 C 0.63549 0.10553 0.38143 0.0
C1022 C 0.66447 0.11743 0.25163 0.0
C1023 C 0.69224 0.13584 0.27349 0.0
N1024 N 0.64497 0.11157 0.34061 0.0
N1025 N 0.68247 0.13237 0.31302 0.0
H1026 H 0.89895 0.52525 0.37407 0.0
H1027 H 0.85477 0.5604 0.28228 0.0
H1028 H 0.88616 0.54711 0.48409 0.0
H1029 H 0.8824 0.55504 0.17396 0.0
H1030 H 0.86012 0.54864 0.3548 0.0
H1031 H 0.8868 0.52943 0.29925 0.0
C1032 C 0.89337 0.53069 0.38269 0.0
C1033 C 0.89372 0.53604 0.43505 0.0
C1034 C 0.86482 0.54987 0.31484 0.0
C1035 C 0.87979 0.54071 0.35019 0.0
C1036 C 0.86175 0.55652 0.27339 0.0
C1037 C 0.86835 0.55891 0.22233 0.0
C1038 C 0.87442 0.54545 0.30487 0.0
C1039 C 0.87727 0.55361 0.21305 0.0
C1040 C 0.88649 0.5331 0.34002 0.0
C1041 C 0.88632 0.543 0.44407 0.0
N1042 N 0.88014 0.54722 0.25415 0.0
N1043 N 0.87971 0.54522 0.40193 0.0
H1044 H 0.55042 0.65902 0.5025 0.0
H1045 H 0.55467 0.67175 0.81927 0.0
H1046 H 0.52286 0.62736 0.61574 0.0
H1047 H 0.56823 0.70551 0.70402 0.0
H1048 H 0.54263 0.65531 0.74522 0.0
H1049 H 0.55681 0.67638 0.57474 0.0
C1050 C 0.54558 0.65575 0.54236 0.0
C1051 C 0.53623 0.64171 0.55338 0.0
C1052 C 0.54806 0.66632 0.73625 0.0
C1053 C 0.54361 0.66145 0.63615 0.0
C1054 C 0.55499 0.6757 0.77841 0.0
C1055 C 0.56256 0.68999 0.76754 0.0
C1056 C 0.54898 0.67125 0.68263 0.0
C1057 C 0.56253 0.69457 0.71403 0.0
C1058 C 0.5492 0.66567 0.58347 0.0
C1059 C 0.53017 0.63806 0.60557 0.0
N1060 N 0.55604 0.6852 0.67325 0.0
N1061 N 0.53416 0.64785 0.64535 0.0
H1062 H 0.29488 0.86834 0.69814 0.0
H1063 H 0.37385 0.89917 0.60882 0.0
H1064 H 0.32918 0.88884 0.81084 0.0
H1065 H 0.3429 0.89836 0.49977 0.0
H1066 H 0.35641 0.88953 0.68154 0.0
H1067 H 0.31148 0.87363 0.62319 0.0
C1068 C 0.30588 0.87378 0.70719 0.0
C1069 C 0.3107 0.87827 0.76059 0.0
C1070 C 0.35344 0.89135 0.64149 0.0
C1071 C 0.3296 0.88417 0.67561 0.0
C1072 C 0.36334 0.89678 0.59993 0.0
C1073 C 0.35983 0.89968 0.54835 0.0
C1074 C 0.3399 0.88859 0.63108 0.0
C1075 C 0.34607 0.89641 0.53915 0.0
C1076 C 0.31531 0.87684 0.66448 0.0
C1077 C 0.32506 0.88533 0.77012 0.0
N1078 N 0.33658 0.89104 0.58022 0.0
N1079 N 0.33402 0.88806 0.72799 0.0
H1080 H 0.13821 0.44234 0.7424 0.0
H1081 H 0.08023 0.43112 0.52695 0.0
H1082 H 0.09476 0.41257 0.76557 0.0
H1083 H 0.11425 0.47236 0.56015 0.0
H1084 H 0.08825 0.42215 0.60104 0.0
H1085 H 0.13204 0.4518 0.66294 0.0
C1086 C 0.12741 0.43782 0.73076 0.0
C1087 C 0.11695 0.42672 0.7606 0.0
C1088 C 0.094 0.43315 0.59174 0.0
C1089 C 0.10997 0.43718 0.66985 0.0
C1090 C 0.0895 0.43827 0.54931 0.0
C1091 C 0.09654 0.45253 0.53769 0.0
C1092 C 0.10575 0.44229 0.62215 0.0
C1093 C 0.10847 0.46131 0.56816 0.0
C1094 C 0.12392 0.44321 0.6857 0.0
C1095 C 0.10312 0.42121 0.74396 0.0
N1096 N 0.11274 0.45604 0.60916 0.0
N1097 N 0.10004 0.42641 0.69937 0.0
H1098 H 0.1418 0.70492 0.71794 0.0
H1099 H 0.09446 0.62583 0.62813 0.0
H1100 H 0.11199 0.6736 0.82685 0.0
H1101 H 0.10791 0.66018 0.51588 0.0
H1102 H 0.10578 0.64241 0.70314 0.0
H1103 H 0.13437 0.68751 0.64527 0.0
C1104 C 0.13385 0.69434 0.72684 0.0
C1105 C 0.12739 0.69071 0.77833 0.0
C1106 C 0.10634 0.64626 0.66193 0.0
C1107 C 0.11897 0.67082 0.69562 0.0
C1108 C 0.09996 0.63685 0.61917 0.0
C1109 C 0.10017 0.64168 0.5659 0.0
C1110 C 0.11319 0.66055 0.65097 0.0
C1111 C 0.10739 0.65605 0.5565 0.0
C1112 C 0.12958 0.68445 0.6853 0.0
C1113 C 0.11712 0.67685 0.78753 0.0
N1114 N 0.11362 0.66499 0.59868 0.0
N1115 N 0.11319 0.66739 0.74645 0.0
H1116 H 0.31284 0.41582 0.80088 0.0
H1117 H 0.35831 0.47312 0.58534 0.0
H1118 H 0.30109 0.44619 0.75797 0.0
H1119 H 0.34503 0.42983 0.56021 0.0
H1120 H 0.34146 0.46641 0.66103 0.0
H1121 H 0.32953 0.42417 0.72581 0.0
C1122 C 0.31389 0.42436 0.77605 0.0
C1123 C 0.30554 0.4303 0.78547 0.0
C1124 C 0.34226 0.45846 0.63847 0.0
C1125 C 0.3247 0.43992 0.7 0.0
C1126 C 0.35184 0.46225 0.59567 0.0
C1127 C 0.35301 0.45199 0.5666 0.0
C1128 C 0.33421 0.44442 0.65293 0.0
C1129 C 0.34441 0.43805 0.58136 0.0
C1130 C 0.32334 0.42904 0.7331 0.0
C1131 C 0.30729 0.44129 0.75172 0.0
N1132 N 0.3355 0.43469 0.62399 0.0
N1133 N 0.31678 0.44584 0.71039 0.0
H1134 H 0.58445 0.89958 0.79712 0.0
H1135 H 0.5272 0.88773 0.58076 0.0
H1136 H 0.55331 0.85752 0.75671 0.0
H1137 H 0.57056 0.91765 0.55625 0.0
H1138 H 0.53372 0.87771 0.6574 0.0
H1139 H 0.57625 0.90796 0.72173 0.0
C1140 C 0.57577 0.89211 0.7728 0.0
C1141 C 0.56957 0.87782 0.78298 0.0
C1142 C 0.54173 0.88641 0.63479 0.0
C1143 C 0.56013 0.8874 0.6971 0.0
C1144 C 0.53805 0.89215 0.59143 0.0
C1145 C 0.54838 0.90351 0.56226 0.0
C1146 C 0.55574 0.8924 0.64967 0.0
C1147 C 0.56229 0.90885 0.57748 0.0
C1148 C 0.57118 0.89691 0.72966 0.0
C1149 C 0.5584 0.86861 0.74988 0.0
N1150 N 0.56555 0.90336 0.6206 0.0
N1151 N 0.55395 0.87357 0.7083 0.0
H1152 H 0.364 0.1264 0.15221 0.0
H1153 H 0.29407 0.05473 0.19591 0.0
H1154 H 0.35875 0.08718 0.0972 0.0
H1155 H 0.29425 0.09347 0.18044 0.0
H1156 H 0.31872 0.06677 0.17177 0.0
H1157 H 0.33912 0.11479 0.17326 0.0
C1158 C 0.35761 0.11539 0.14423 0.0
C1159 C 0.36345 0.10775 0.12287 0.0
C1160 C 0.31334 0.07262 0.17364 0.0
C1161 C 0.33515 0.09443 0.1478 0.0
C1162 C 0.29931 0.06578 0.18777 0.0
C1163 C 0.2921 0.07311 0.19011 0.0
C1164 C 0.32026 0.08692 0.1627 0.0
C1165 C 0.2994 0.08742 0.17885 0.0
C1166 C 0.34344 0.10879 0.15621 0.0
C1167 C 0.35469 0.0935 0.11335 0.0
N1168 N 0.31312 0.09388 0.16592 0.0
N1169 N 0.34101 0.08727 0.12641 0.0
H1170 H 0.88521 0.25331 0.22003 0.0
H1171 H 0.92226 0.21469 0.10022 0.0
H1172 H 0.90094 0.26156 0.05461 0.0
H1173 H 0.93085 0.23094 0.26482 0.0
H1174 H 0.91048 0.22794 0.08199 0.0
H1175 H 0.89791 0.24095 0.23694 0.0
C1176 C 0.89126 0.25243 0.18717 0.0
C1177 C 0.89204 0.25843 0.13581 0.0
C1178 C 0.915 0.22861 0.12195 0.0
C1179 C 0.90637 0.24421 0.15475 0.0
C1180 C 0.92164 0.22103 0.1325 0.0
C1181 C 0.92752 0.22175 0.18411 0.0
C1182 C 0.9139 0.23662 0.1638 0.0
C1183 C 0.9265 0.23017 0.22444 0.0
C1184 C 0.89856 0.24548 0.197 0.0
C1185 C 0.90013 0.2571 0.0948 0.0
N1186 N 0.91965 0.23716 0.21367 0.0
N1187 N 0.90688 0.24998 0.10495 0.0
H1188 H 0.72221 0.63857 0.10777 0.0
H1189 H 0.79587 0.70519 0.17078 0.0
H1190 H 0.75936 0.63651 0.13804 0.0
H1191 H 0.75719 0.70446 0.19876 0.0
H1192 H 0.78285 0.68062 0.14659 0.0
H1193 H 0.73518 0.66348 0.12828 0.0
C1194 C 0.73311 0.64337 0.11825 0.0
C1195 C 0.73971 0.63544 0.12135 0.0
C1196 C 0.77722 0.68584 0.15812 0.0
C1197 C 0.75455 0.66385 0.14469 0.0
C1198 C 0.78463 0.69987 0.17185 0.0
C1199 C 0.77761 0.70689 0.18699 0.0
C1200 C 0.76265 0.67878 0.15879 0.0
C1201 C 0.76303 0.69943 0.18767 0.0
C1202 C 0.74046 0.65754 0.13028 0.0
C1203 C 0.75384 0.64219 0.13543 0.0
N1204 N 0.75602 0.68578 0.17349 0.0
N1205 N 0.76078 0.656 0.14644 0.0
H1206 H 0.05429 0.29576 0.79566 0.0
H1207 H 0.12631 0.36531 0.84194 0.0
H1208 H 0.0929 0.29568 0.81111 0.0
H1209 H 0.08709 0.36041 0.89498 0.0
H1210 H 0.11452 0.3405 0.81964 0.0
H1211 H 0.06647 0.32042 0.8197 0.0
C1212 C 0.06534 0.30094 0.80372 0.0
C1213 C 0.07259 0.29365 0.80148 0.0
C1214 C 0.10855 0.34488 0.83649 0.0
C1215 C 0.08656 0.32183 0.82881 0.0
C1216 C 0.11525 0.35902 0.8492 0.0
C1217 C 0.10768 0.36494 0.87044 0.0
C1218 C 0.09414 0.3367 0.84407 0.0
C1219 C 0.09336 0.35628 0.87899 0.0
C1220 C 0.07226 0.31498 0.81779 0.0
C1221 C 0.0869 0.30089 0.81263 0.0
N1222 N 0.08704 0.34263 0.86528 0.0
N1223 N 0.09344 0.31461 0.82556 0.0
H1224 H 0.70026 0.75393 0.79754 0.0
H1225 H 0.63189 0.75839 0.85067 0.0
H1226 H 0.70083 0.79257 0.82418 0.0
H1227 H 0.6335 0.72087 0.87751 0.0
H1228 H 0.6568 0.77082 0.83243 0.0
H1229 H 0.67536 0.74132 0.81788 0.0
C1230 C 0.69516 0.75976 0.80748 0.0
C1231 C 0.70266 0.77433 0.80916 0.0
C1232 C 0.65172 0.75988 0.84252 0.0
C1233 C 0.6742 0.75997 0.83225 0.0
C1234 C 0.63748 0.75276 0.85283 0.0
C1235 C 0.63058 0.73855 0.86567 0.0
C1236 C 0.65912 0.75273 0.8443 0.0
C1237 C 0.6384 0.73182 0.868 0.0
C1238 C 0.68097 0.75256 0.81934 0.0
C1239 C 0.69549 0.78134 0.82254 0.0
N1240 N 0.65225 0.73895 0.85704 0.0
N1241 N 0.68167 0.7741 0.8333 0.0
H1242 H 0.20543 0.90888 0.82341 0.0
H1243 H 0.27856 0.9147 0.8855 0.0
H1244 H 0.24444 0.94682 0.80007 0.0
H1245 H 0.24142 0.87585 0.84976 0.0
H1246 H 0.26579 0.92691 0.8672 0.0
H1247 H 0.21814 0.89686 0.84531 0.0
C1248 C 0.21667 0.91469 0.82291 0.0
C1249 C 0.22388 0.92888 0.80974 0.0
C1250 C 0.26046 0.91571 0.86351 0.0
C1251 C 0.23847 0.91519 0.83532 0.0
C1252 C 0.2677 0.90872 0.87427 0.0
C1253 C 0.26105 0.89423 0.86901 0.0
C1254 C 0.24643 0.90813 0.84816 0.0
C1255 C 0.24698 0.88703 0.85405 0.0
C1256 C 0.22391 0.90781 0.8353 0.0
C1257 C 0.23846 0.93586 0.80967 0.0
N1258 N 0.24013 0.89406 0.84429 0.0
N1259 N 0.24528 0.92896 0.82255 0.0
H1260 H 0.69514 0.93433 0.75843 0.0
H1261 H 0.62951 0.86321 0.8393 0.0
H1262 H 0.70089 0.90036 0.80897 0.0
H1263 H 0.63522 0.90259 0.89439 0.0
H1264 H 0.65397 0.87508 0.80969 0.0
H1265 H 0.67088 0.92099 0.78702 0.0
C1266 C 0.69125 0.92398 0.77477 0.0
C1267 C 0.70004 0.91845 0.78154 0.0
C1268 C 0.6498 0.88101 0.82866 0.0
C1269 C 0.67232 0.90318 0.81394 0.0
C1270 C 0.63592 0.8743 0.84547 0.0
C1271 C 0.63037 0.88194 0.86946 0.0
C1272 C 0.65795 0.89546 0.83444 0.0
C1273 C 0.63909 0.89629 0.87647 0.0
C1274 C 0.67745 0.91645 0.79144 0.0
C1275 C 0.69445 0.90501 0.80336 0.0
N1276 N 0.65239 0.90261 0.85833 0.0
N1277 N 0.68087 0.89776 0.81867 0.0
H1278 H 0.07927 0.77177 0.7114 0.0
H1279 H 0.10691 0.74208 0.94202 0.0
H1280 H 0.08306 0.78561 0.87885 0.0
H1281 H 0.12424 0.75005 0.77907 0.0
H1282 H 0.09497 0.75495 0.91918 0.0
H1283 H 0.09281 0.76057 0.73461 0.0
C1284 C 0.08298 0.77248 0.75294 0.0
C1285 C 0.08009 0.77964 0.79326 0.0
C1286 C 0.10146 0.75391 0.88867 0.0
C1287 C 0.09525 0.76668 0.82012 0.0
C1288 C 0.10822 0.74655 0.90154 0.0
C1289 C 0.11659 0.74504 0.8624 0.0
C1290 C 0.10282 0.75946 0.8359 0.0
C1291 C 0.11795 0.75106 0.81055 0.0
C1292 C 0.09073 0.76614 0.76606 0.0
C1293 C 0.08515 0.78027 0.84648 0.0
N1294 N 0.111 0.75787 0.79855 0.0
N1295 N 0.09235 0.77372 0.85858 0.0
H1296 H 0.19735 0.29761 0.81734 0.0
H1297 H 0.26589 0.36487 0.90786 0.0
H1298 H 0.23798 0.30492 0.77231 0.0
H1299 H 0.23198 0.3692 0.845 0.0
H1300 H 0.25365 0.34055 0.87978 0.0
H1301 H 0.208 0.32207 0.84632 0.0
C1302 C 0.20846 0.30436 0.81329 0.0
C1303 C 0.21681 0.29928 0.79226 0.0
C1304 C 0.24887 0.34682 0.87256 0.0
C1305 C 0.22893 0.32685 0.82656 0.0
C1306 C 0.25577 0.36066 0.8889 0.0
C1307 C 0.24996 0.36908 0.87854 0.0
C1308 C 0.23592 0.34126 0.84676 0.0
C1309 C 0.23684 0.36306 0.85342 0.0
C1310 C 0.21448 0.31824 0.8297 0.0
C1311 C 0.23115 0.30843 0.7879 0.0
N1312 N 0.23019 0.34944 0.8385 0.0
N1313 N 0.23678 0.32172 0.80562 0.0
H1314 H 0.92256 0.70263 0.11573 0.0
H1315 H 0.88103 0.62604 0.22825 0.0
H1316 H 0.92667 0.69374 0.2845 0.0
H1317 H 0.89988 0.63466 0.06801 0.0
H1318 H 0.89395 0.65096 0.24877 0.0
H1319 H 0.91024 0.67766 0.0962 0.0
C1320 C 0.92077 0.69541 0.14874 0.0
C1321 C 0.92561 0.70021 0.20184 0.0
C1322 C 0.89526 0.64735 0.20924 0.0
C1323 C 0.91145 0.67178 0.17983 0.0
C1324 C 0.88787 0.63319 0.19738 0.0
C1325 C 0.88942 0.62833 0.14635 0.0
C1326 C 0.90393 0.65671 0.16923 0.0
C1327 C 0.89846 0.638 0.10791 0.0
C1328 C 0.91385 0.68122 0.13745 0.0
C1329 C 0.92312 0.69044 0.24301 0.0
N1330 N 0.90527 0.65179 0.11989 0.0
N1331 N 0.91607 0.67664 0.23127 0.0
H1332 H 0.36915 0.235 0.14561 0.0
H1333 H 0.3047 0.24323 0.22727 0.0
H1334 H 0.36811 0.27279 0.11781 0.0
H1335 H 0.29892 0.20385 0.17164 0.0
H1336 H 0.32927 0.25413 0.20342 0.0
H1337 H 0.34438 0.22321 0.1694 0.0
C1338 C 0.3637 0.24079 0.14433 0.0
C1339 C 0.37067 0.25489 0.12963 0.0
C1340 C 0.32262 0.2431 0.1966 0.0
C1341 C 0.34258 0.24158 0.15778 0.0
C1342 C 0.30863 0.23684 0.21058 0.0
C1343 C 0.29975 0.22261 0.20131 0.0
C1344 C 0.32785 0.23505 0.17412 0.0
C1345 C 0.3054 0.21487 0.17921 0.0
C1346 C 0.34961 0.23406 0.15778 0.0
C1347 C 0.36313 0.2619 0.12857 0.0
N1348 N 0.31915 0.22118 0.16655 0.0
N1349 N 0.34952 0.25521 0.14304 0.0
H1350 H 0.73433 0.10145 0.05896 0.0
H1351 H 0.77047 0.07727 0.27677 0.0
H1352 H 0.74655 0.12087 0.2178 0.0
H1353 H 0.77938 0.0784 0.10425 0.0
H1354 H 0.7583 0.0901 0.25819 0.0
H1355 H 0.74742 0.08947 0.07698 0.0
C1356 C 0.73972 0.10314 0.09763 0.0
C1357 C 0.7394 0.11217 0.13692 0.0
C1358 C 0.76299 0.08758 0.22455 0.0
C1359 C 0.75413 0.09843 0.15789 0.0
C1360 C 0.7699 0.08026 0.23505 0.0
C1361 C 0.77597 0.07683 0.19198 0.0
C1362 C 0.76186 0.09117 0.17048 0.0
C1363 C 0.77493 0.08095 0.13866 0.0
C1364 C 0.74722 0.09639 0.1077 0.0
C1365 C 0.7466 0.11406 0.18629 0.0
N1366 N 0.76785 0.08777 0.12928 0.0
N1367 N 0.75358 0.10714 0.19562 0.0
H1368 H 0.02882 0.44679 0.38228 0.0
H1369 H 0.97299 0.4104 0.61514 0.0
H1370 H 0.04016 0.45514 0.55282 0.0
H1371 H 0.96264 0.42216 0.46142 0.0
H1372 H 0.9977 0.42448 0.59166 0.0
H1373 H 0.00428 0.43539 0.40857 0.0
C1374 C 0.02614 0.4463 0.42519 0.0
C1375 C 0.03651 0.45192 0.46546 0.0
C1376 C 0.98998 0.42404 0.56342 0.0
C1377 C 0.00856 0.43868 0.49572 0.0
C1378 C 0.97592 0.41598 0.57664 0.0
C1379 C 0.96577 0.41512 0.54016 0.0
C1380 C 0.99386 0.43096 0.51286 0.0
C1381 C 0.97013 0.42259 0.49084 0.0
C1382 C 0.01217 0.43984 0.44011 0.0
C1383 C 0.03247 0.45101 0.52049 0.0
N1384 N 0.98384 0.43006 0.47829 0.0
N1385 N 0.01879 0.44433 0.53413 0.0
H1386 H 0.5833 0.54698 0.43921 0.0
H1387 H 0.54448 0.58454 0.5551 0.0
H1388 H 0.58998 0.56208 0.60551 0.0
H1389 H 0.56156 0.59317 0.39176 0.0
H1390 H 0.55688 0.57195 0.574 0.0
H1391 H 0.57089 0.55959 0.42047 0.0
C1392 C 0.58205 0.55286 0.47186 0.0
C1393 C 0.58766 0.55352 0.524 0.0
C1394 C 0.55788 0.57661 0.5341 0.0
C1395 C 0.57339 0.56771 0.50299 0.0
C1396 C 0.55078 0.58372 0.52317 0.0
C1397 C 0.55204 0.58991 0.47181 0.0
C1398 C 0.56596 0.57537 0.49289 0.0
C1399 C 0.5604 0.58861 0.43196 0.0
C1400 C 0.57507 0.56009 0.46101 0.0
C1401 C 0.58585 0.56136 0.56474 0.0
N1402 N 0.56694 0.58134 0.44313 0.0
N1403 N 0.57874 0.56807 0.55353 0.0
H1404 H 0.44481 0.02673 0.61693 0.0
H1405 H 0.41185 0.97048 0.38389 0.0
H1406 H 0.45428 0.03802 0.4468 0.0
H1407 H 0.4225 0.96076 0.54132 0.0
H1408 H 0.42528 0.99524 0.40695 0.0
H1409 H 0.43447 0.00224 0.59142 0.0
C1410 C 0.4448 0.02405 0.57428 0.0
C1411 C 0.4504 0.03439 0.53389 0.0
C1412 C 0.42476 0.98766 0.43612 0.0
C1413 C 0.43838 0.00647 0.50445 0.0
C1414 C 0.41707 0.97356 0.42314 0.0
C1415 C 0.41605 0.96356 0.46079 0.0
C1416 C 0.43118 0.99174 0.48758 0.0
C1417 C 0.42305 0.96812 0.51102 0.0
C1418 C 0.43895 0.0101 0.55981 0.0
C1419 C 0.45013 0.03036 0.47922 0.0
N1420 N 0.43017 0.98187 0.52327 0.0
N1421 N 0.44403 0.01668 0.46595 0.0
H1422 H 0.57086 0.03602 0.52208 0.0
H1423 H 0.57804 0.97113 0.43528 0.0
H1424 H 0.60944 0.03579 0.5343 0.0
H1425 H 0.53937 0.96624 0.49563 0.0
H1426 H 0.58949 0.99579 0.458 0.0
H1427 H 0.55888 0.01118 0.50047 0.0
C1428 C 0.57681 0.03074 0.52035 0.0
C1429 C 0.59118 0.03798 0.53002 0.0
C1430 C 0.5785 0.98932 0.4662 0.0
C1431 C 0.57758 0.0097 0.50452 0.0
C1432 C 0.57192 0.97526 0.45288 0.0
C1433 C 0.55772 0.9666 0.46361 0.0
C1434 C 0.5708 0.99484 0.48959 0.0
C1435 C 0.55035 0.97254 0.48684 0.0
C1436 C 0.56996 0.01659 0.50817 0.0
C1437 C 0.59835 0.03061 0.5274 0.0
N1438 N 0.55697 0.98633 0.49884 0.0
N1439 N 0.5915 0.0169 0.51439 0.0
H1440 H 0.96529 0.57812 0.53246 0.0
H1441 H 0.033 0.57241 0.48073 0.0
H1442 H 0.96407 0.53898 0.51235 0.0
H1443 H 0.03136 0.60958 0.44531 0.0
H1444 H 0.00814 0.56029 0.50069 0.0
H1445 H 0.99006 0.59024 0.50975 0.0
C1446 C 0.97023 0.57208 0.52354 0.0
C1447 C 0.96259 0.55751 0.52429 0.0
C1448 C 0.01321 0.57108 0.48826 0.0
C1449 C 0.99088 0.5713 0.49843 0.0
C1450 C 0.0274 0.57801 0.47692 0.0
C1451 C 0.03427 0.59203 0.4613 0.0
C1452 C 0.00586 0.57826 0.48479 0.0
C1453 C 0.02647 0.59875 0.45697 0.0
C1454 C 0.98434 0.579 0.51027 0.0
C1455 C 0.96953 0.55021 0.5121 0.0
N1456 N 0.0127 0.59183 0.46908 0.0
N1457 N 0.98329 0.55718 0.49992 0.0
H1458 H 0.42523 0.46089 0.49789 0.0
H1459 H 0.42164 0.38845 0.54203 0.0
H1460 H 0.39052 0.42204 0.44379 0.0
H1461 H 0.46072 0.42604 0.51484 0.0
H1462 H 0.4095 0.40117 0.52182 0.0
H1463 H 0.43804 0.44875 0.5186 0.0
C1464 C 0.42033 0.44984 0.49024 0.0
C1465 C 0.40681 0.44246 0.46895 0.0
C1466 C 0.42073 0.40661 0.52038 0.0
C1467 C 0.42123 0.42856 0.49349 0.0
C1468 C 0.42767 0.39941 0.53224 0.0
C1469 C 0.44221 0.4062 0.52994 0.0
C1470 C 0.42838 0.42078 0.50715 0.0
C1471 C 0.4495 0.4204 0.51675 0.0
C1472 C 0.42764 0.44295 0.50195 0.0
C1473 C 0.40095 0.42815 0.45979 0.0
N1474 N 0.4425 0.42726 0.50611 0.0
N1475 N 0.40814 0.42165 0.47261 0.0
H1476 H 0.23345 0.09089 0.12658 0.0
H1477 H 0.24428 0.15604 0.30146 0.0
H1478 H 0.24258 0.09473 0.29946 0.0
H1479 H 0.23586 0.15056 0.12805 0.0
H1480 H 0.2399 0.13209 0.30676 0.0
H1481 H 0.23031 0.11094 0.13158 0.0
C1482 C 0.23468 0.09593 0.16582 0.0
C1483 C 0.23848 0.0913 0.2125 0.0
C1484 C 0.2388 0.13609 0.2678 0.0
C1485 C 0.23514 0.11452 0.21852 0.0
C1486 C 0.24124 0.14971 0.26481 0.0
C1487 C 0.24063 0.15531 0.21408 0.0
C1488 C 0.23567 0.12811 0.21974 0.0
C1489 C 0.23667 0.14672 0.16784 0.0
C1490 C 0.23288 0.10739 0.16872 0.0
C1491 C 0.23972 0.09806 0.26247 0.0
N1492 N 0.23446 0.13363 0.17173 0.0
N1493 N 0.2383 0.10953 0.26405 0.0
H1494 H 0.84237 0.09006 0.2851 0.0
H1495 H 0.90596 0.1465 0.10773 0.0
H1496 H 0.84666 0.08817 0.11016 0.0
H1497 H 0.90382 0.14991 0.28304 0.0
H1498 H 0.8854 0.12363 0.11112 0.0
H1499 H 0.86587 0.11041 0.2886 0.0
C1500 C 0.84832 0.09379 0.24763 0.0
C1501 C 0.84251 0.08753 0.19716 0.0
C1502 C 0.88941 0.12928 0.14907 0.0
C1503 C 0.86924 0.11071 0.20082 0.0
C1504 C 0.90118 0.14238 0.14712 0.0
C1505 C 0.90651 0.15018 0.19511 0.0
C1506 C 0.88273 0.12391 0.19934 0.0
C1507 C 0.89998 0.14423 0.24505 0.0
C1508 C 0.8617 0.10541 0.24963 0.0
C1509 C 0.85065 0.09276 0.14989 0.0
N1510 N 0.88829 0.13148 0.24585 0.0
N1511 N 0.86352 0.10407 0.15287 0.0
H1512 H 0.90988 0.7536 0.29707 0.0
H1513 H 0.85314 0.7601 0.11893 0.0
H1514 H 0.91038 0.75728 0.12104 0.0
H1515 H 0.8502 0.75565 0.29472 0.0
H1516 H 0.8758 0.76198 0.12208 0.0
H1517 H 0.88971 0.75705 0.30025 0.0
C1518 C 0.90587 0.75531 0.25925 0.0
C1519 C 0.9117 0.75499 0.20865 0.0
C1520 C 0.87031 0.76068 0.16019 0.0
C1521 C 0.88876 0.75892 0.21196 0.0
C1522 C 0.85733 0.7596 0.15837 0.0
C1523 C 0.84971 0.75755 0.20657 0.0
C1524 C 0.87574 0.75953 0.21056 0.0
C1525 C 0.85574 0.75717 0.25658 0.0
C1526 C 0.89436 0.75724 0.26108 0.0
C1527 C 0.90612 0.75726 0.16091 0.0
N1528 N 0.86837 0.75797 0.25727 0.0
N1529 N 0.89496 0.75904 0.16377 0.0
H1530 H 0.09135 0.24234 0.68579 0.0
H1531 H 0.14613 0.23021 0.85194 0.0
H1532 H 0.08979 0.23396 0.85889 0.0
H1533 H 0.15307 0.24509 0.68537 0.0
H1534 H 0.12244 0.22582 0.84649 0.0
H1535 H 0.11107 0.23824 0.67723 0.0
C1536 C 0.09499 0.23939 0.72168 0.0
C1537 C 0.08913 0.2387 0.77327 0.0
C1538 C 0.12904 0.22988 0.81074 0.0
C1539 C 0.11143 0.23394 0.76384 0.0
C1540 C 0.14256 0.23235 0.81384 0.0
C1541 C 0.1516 0.23823 0.76935 0.0
C1542 C 0.12456 0.23356 0.76314 0.0
C1543 C 0.14641 0.24062 0.72069 0.0
C1544 C 0.10623 0.23709 0.71683 0.0
C1545 C 0.09418 0.23484 0.81852 0.0
N1546 N 0.13326 0.23854 0.71917 0.0
N1547 N 0.10507 0.2327 0.81279 0.0
H1548 H 0.76155 0.85155 0.86743 0.0
H1549 H 0.75415 0.90665 0.6843 0.0
H1550 H 0.75293 0.84561 0.69427 0.0
H1551 H 0.76429 0.91132 0.85634 0.0
H1552 H 0.75717 0.88621 0.6818 0.0
H1553 H 0.76608 0.87519 0.85919 0.0
C1554 C 0.76069 0.85529 0.82747 0.0
C1555 C 0.75666 0.84657 0.78162 0.0
C1556 C 0.75898 0.89188 0.71978 0.0
C1557 C 0.76164 0.8737 0.77181 0.0
C1558 C 0.75733 0.90357 0.72115 0.0
C1559 C 0.75877 0.91051 0.77082 0.0
C1560 C 0.76213 0.88725 0.76839 0.0
C1561 C 0.76285 0.90611 0.81739 0.0
C1562 C 0.76332 0.86883 0.82269 0.0
C1563 C 0.75594 0.85202 0.73066 0.0
N1564 N 0.76424 0.89471 0.81513 0.0
N1565 N 0.75818 0.86521 0.72721 0.0
H1566 H 0.14734 0.9098 0.87034 0.0
H1567 H 0.09285 0.84545 0.69193 0.0
H1568 H 0.15281 0.90671 0.69705 0.0
H1569 H 0.08902 0.85092 0.86471 0.0
H1570 H 0.11295 0.86913 0.68813 0.0
H1571 H 0.12418 0.88974 0.86435 0.0
C1572 C 0.14359 0.90491 0.83081 0.0
C1573 C 0.15205 0.90978 0.78427 0.0
C1574 C 0.10756 0.86519 0.72662 0.0
C1575 C 0.12549 0.88655 0.77708 0.0
C1576 C 0.09608 0.85172 0.72876 0.0
C1577 C 0.08942 0.84618 0.7789 0.0
C1578 C 0.11228 0.87308 0.77492 0.0
C1579 C 0.09399 0.85469 0.82537 0.0
C1580 C 0.13033 0.89344 0.82734 0.0
C1581 C 0.14659 0.9032 0.73395 0.0
N1582 N 0.10517 0.86763 0.82231 0.0
N1583 N 0.13369 0.89173 0.73177 0.0
H1584 H 0.89902 0.42021 0.47675 0.0
H1585 H 0.9118 0.48731 0.64343 0.0
H1586 H 0.91349 0.42764 0.64385 0.0
H1587 H 0.90338 0.48058 0.47032 0.0
H1588 H 0.90763 0.46345 0.65178 0.0
H1589 H 0.89516 0.43984 0.48205 0.0
C1590 C 0.90121 0.4259 0.5149 0.0
C1591 C 0.90679 0.42248 0.55963 0.0
C1592 C 0.90651 0.46717 0.61222 0.0
C1593 C 0.90274 0.44524 0.56571 0.0
C1594 C 0.90884 0.48074 0.60749 0.0
C1595 C 0.90814 0.48594 0.55596 0.0
C1596 C 0.9033 0.45884 0.56515 0.0
C1597 C 0.90427 0.47706 0.51066 0.0
C1598 C 0.89904 0.43714 0.51793 0.0
C1599 C 0.90924 0.43004 0.60837 0.0
N1600 N 0.90209 0.46401 0.51628 0.0
N1601 N 0.90746 0.44129 0.60985 0.0
H1602 H 0.51688 0.42061 0.4524 0.0
H1603 H 0.57239 0.48539 0.62647 0.0
H1604 H 0.51226 0.42447 0.62581 0.0
H1605 H 0.57457 0.4801 0.45242 0.0
H1606 H 0.55249 0.46162 0.63178 0.0
H1607 H 0.54016 0.4406 0.45647 0.0
C1608 C 0.52085 0.42562 0.49156 0.0
C1609 C 0.51259 0.42103 0.53869 0.0
C1610 C 0.55748 0.46563 0.59264 0.0
C1611 C 0.53924 0.44419 0.54363 0.0
C1612 C 0.56883 0.47916 0.58962 0.0
C1613 C 0.57497 0.48476 0.53879 0.0
C1614 C 0.55237 0.45773 0.54449 0.0
C1615 C 0.57 0.47627 0.49232 0.0
C1616 C 0.53417 0.43706 0.49392 0.0
C1617 C 0.51832 0.42776 0.5885 0.0
N1618 N 0.55896 0.46326 0.49626 0.0
N1619 N 0.53126 0.4392 0.58956 0.0
H1620 H 0.57316 0.09002 0.64001 0.0
H1621 H 0.51846 0.10261 0.47488 0.0
H1622 H 0.57412 0.09741 0.46623 0.0
H1623 H 0.51133 0.08716 0.64068 0.0
H1624 H 0.54197 0.10647 0.47961 0.0
H1625 H 0.55345 0.09413 0.64847 0.0
C1626 C 0.56939 0.09275 0.60391 0.0
C1627 C 0.5751 0.09318 0.55222 0.0
C1628 C 0.53535 0.10238 0.5153 0.0
C1629 C 0.5528 0.09795 0.56155 0.0
C1630 C 0.52193 0.10021 0.51264 0.0
C1631 C 0.51288 0.09433 0.55712 0.0
C1632 C 0.53975 0.09846 0.56251 0.0
C1633 C 0.51798 0.09162 0.60533 0.0
C1634 C 0.55815 0.09504 0.60871 0.0
C1635 C 0.56987 0.09675 0.50672 0.0
N1636 N 0.53104 0.09347 0.60647 0.0
N1637 N 0.55899 0.09891 0.51241 0.0
H1638 H 0.75736 0.57966 0.21065 0.0
H1639 H 0.81814 0.57965 0.03687 0.0
H1640 H 0.75843 0.5817 0.03415 0.0
H1641 H 0.81436 0.57646 0.21289 0.0
H1642 H 0.7953 0.57808 0.03216 0.0
H1643 H 0.77707 0.57599 0.2096 0.0
C1644 C 0.76172 0.57925 0.17151 0.0
C1645 C 0.75636 0.58114 0.12244 0.0
C1646 C 0.79945 0.57758 0.07167 0.0
C1647 C 0.77919 0.57709 0.12081 0.0
C1648 C 0.81245 0.57845 0.07437 0.0
C1649 C 0.81822 0.57835 0.12539 0.0
C1650 C 0.79225 0.57656 0.12035 0.0
C1651 C 0.81042 0.57677 0.17269 0.0
C1652 C 0.77301 0.57713 0.17088 0.0
C1653 C 0.76231 0.58032 0.0729 0.0
N1654 N 0.79793 0.57602 0.16899 0.0
N1655 N 0.77357 0.57854 0.07332 0.0
H1656 H 0.42794 0.17997 0.20439 0.0
H1657 H 0.42318 0.23771 0.02783 0.0
H1658 H 0.41942 0.1755 0.03101 0.0
H1659 H 0.43001 0.23949 0.20226 0.0
H1660 H 0.42588 0.2171 0.02325 0.0
H1661 H 0.4331 0.20389 0.19931 0.0
C1662 C 0.4273 0.18411 0.16502 0.0
C1663 C 0.42306 0.17572 0.11821 0.0
C1664 C 0.427 0.22216 0.06231 0.0
C1665 C 0.42867 0.20311 0.11212 0.0
C1666 C 0.42552 0.23393 0.0649 0.0
C1667 C 0.42616 0.24015 0.11564 0.0
C1668 C 0.42923 0.21672 0.11078 0.0
C1669 C 0.4292 0.23487 0.16242 0.0
C1670 C 0.43024 0.19779 0.16208 0.0
C1671 C 0.4226 0.18165 0.0681 0.0
N1672 N 0.4305 0.22343 0.1589 0.0
N1673 N 0.42512 0.19497 0.06649 0.0
H1674 H 0.75976 0.18267 0.03978 0.0
H1675 H 0.81869 0.24374 0.21933 0.0
H1676 H 0.75886 0.18622 0.21551 0.0
H1677 H 0.822 0.24166 0.04397 0.0
H1678 H 0.79513 0.22428 0.21523 0.0
H1679 H 0.7809 0.20565 0.03697 0.0
C1680 C 0.76389 0.18836 0.07758 0.0
C1681 C 0.75767 0.18247 0.12803 0.0
C1682 C 0.80091 0.22808 0.17741 0.0
C1683 C 0.7817 0.2086 0.12515 0.0
C1684 C 0.8144 0.23922 0.17978 0.0
C1685 C 0.82236 0.2442 0.132 0.0
C1686 C 0.79531 0.22166 0.12694 0.0
C1687 C 0.81619 0.23806 0.08179 0.0
C1688 C 0.77595 0.20143 0.07597 0.0
C1689 C 0.76341 0.19026 0.17577 0.0
N1690 N 0.80305 0.22695 0.0806 0.0
N1691 N 0.77511 0.20284 0.17314 0.0
H1692 H 0.57707 0.75602 0.9713 0.0
H1693 H 0.56461 0.81027 0.80196 0.0
H1694 H 0.57186 0.75581 0.79618 0.0
H1695 H 0.57724 0.81665 0.97142 0.0
H1696 H 0.56162 0.7871 0.80631 0.0
H1697 H 0.57218 0.77525 0.97832 0.0
C1698 C 0.57468 0.75987 0.93456 0.0
C1699 C 0.57507 0.7545 0.883 0.0
C1700 C 0.5649 0.79346 0.84287 0.0
C1701 C 0.56939 0.77623 0.89069 0.0
C1702 C 0.56656 0.80669 0.84041 0.0
C1703 C 0.57139 0.81545 0.88614 0.0
C1704 C 0.56831 0.78898 0.89117 0.0
C1705 C 0.57357 0.81021 0.93515 0.0
C1706 C 0.57193 0.77083 0.93855 0.0
C1707 C 0.5719 0.75981 0.83665 0.0
N1708 N 0.57226 0.79737 0.93617 0.0
N1709 N 0.56927 0.7704 0.84159 0.0
H1710 H 0.18919 0.75791 0.78677 0.0
H1711 H 0.24501 0.82286 0.96088 0.0
H1712 H 0.18465 0.76185 0.96023 0.0
H1713 H 0.24403 0.81978 0.78465 0.0
H1714 H 0.22551 0.79882 0.96557 0.0
H1715 H 0.21205 0.77856 0.7899 0.0
C1716 C 0.19309 0.76307 0.82574 0.0
C1717 C 0.18494 0.75829 0.87316 0.0
C1718 C 0.22971 0.80339 0.92601 0.0
C1719 C 0.21111 0.78218 0.87696 0.0
C1720 C 0.24084 0.81706 0.92333 0.0
C1721 C 0.246 0.82334 0.87227 0.0
C1722 C 0.2239 0.79601 0.87728 0.0
C1723 C 0.24025 0.81542 0.82485 0.0
C1724 C 0.20615 0.77489 0.82752 0.0
C1725 C 0.1906 0.76526 0.92267 0.0
N1726 N 0.22949 0.80223 0.82854 0.0
N1727 N 0.20329 0.77702 0.92319 0.0
H1728 H 0.18072 0.42903 0.79479 0.0
H1729 H 0.23731 0.42316 0.9743 0.0
H1730 H 0.1756 0.42027 0.96796 0.0
H1731 H 0.24058 0.43176 0.80098 0.0
H1732 H 0.21679 0.42601 0.97788 0.0
H1733 H 0.20461 0.43414 0.80131 0.0
C1734 C 0.18471 0.42832 0.83441 0.0
C1735 C 0.17614 0.42403 0.88075 0.0
C1736 C 0.22217 0.4275 0.93932 0.0
C1737 C 0.20351 0.42962 0.88851 0.0
C1738 C 0.2339 0.42594 0.93731 0.0
C1739 C 0.2405 0.42702 0.88709 0.0
C1740 C 0.21713 0.43021 0.89078 0.0
C1741 C 0.23567 0.43061 0.8404 0.0
C1742 C 0.19838 0.43125 0.83818 0.0
C1743 C 0.18188 0.42348 0.93121 0.0
N1744 N 0.22423 0.43193 0.84331 0.0
N1745 N 0.19518 0.426 0.93364 0.0
H1746 H 0.424 0.89959 0.53183 0.0
H1747 H 0.49026 0.9117 0.36085 0.0
H1748 H 0.42961 0.91116 0.36119 0.0
H1749 H 0.48451 0.90373 0.53451 0.0
H1750 H 0.46627 0.90716 0.35436 0.0
H1751 H 0.44401 0.89633 0.52727 0.0
C1752 C 0.42938 0.90128 0.49312 0.0
C1753 C 0.4253 0.90585 0.44704 0.0
C1754 C 0.47023 0.90621 0.39366 0.0
C1755 C 0.44847 0.90242 0.44167 0.0
C1756 C 0.48387 0.90875 0.39733 0.0
C1757 C 0.48941 0.90828 0.44844 0.0
C1758 C 0.46213 0.9031 0.44139 0.0
C1759 C 0.48073 0.90442 0.49444 0.0
C1760 C 0.44083 0.89944 0.49051 0.0
C1761 C 0.4325 0.9077 0.39773 0.0
N1762 N 0.4676 0.90209 0.48987 0.0
N1763 N 0.44393 0.90621 0.39653 0.0
H1764 H 0.09357 0.57638 0.54143 0.0
H1765 H 0.08907 0.51493 0.36046 0.0
H1766 H 0.08827 0.57498 0.36614 0.0
H1767 H 0.0995 0.52086 0.53228 0.0
H1768 H 0.09134 0.53805 0.3577 0.0
H1769 H 0.09831 0.55735 0.53549 0.0
C1770 C 0.09352 0.57211 0.50151 0.0
C1771 C 0.09037 0.57714 0.45428 0.0
C1772 C 0.09336 0.53436 0.39572 0.0
C1773 C 0.0956 0.5551 0.44707 0.0
C1774 C 0.09211 0.5212 0.39727 0.0
C1775 C 0.09389 0.5159 0.44688 0.0
C1776 C 0.09639 0.54219 0.44414 0.0
C1777 C 0.09781 0.52444 0.49333 0.0
C1778 C 0.09626 0.56124 0.49807 0.0
C1779 C 0.09061 0.57134 0.40355 0.0
N1780 N 0.09877 0.53706 0.49093 0.0
N1781 N 0.09295 0.56044 0.40131 0.0
H1782 H 0.48205 0.57135 0.36938 0.0
H1783 H 0.41791 0.51546 0.5462 0.0
H1784 H 0.47766 0.57295 0.54437 0.0
H1785 H 0.4218 0.5104 0.37316 0.0
H1786 H 0.4379 0.53873 0.54139 0.0
H1787 H 0.45843 0.55114 0.36534 0.0
C1788 C 0.47605 0.56758 0.40674 0.0
C1789 C 0.48187 0.57369 0.45739 0.0
C1790 C 0.43437 0.53264 0.5042 0.0
C1791 C 0.455 0.55075 0.4531 0.0
C1792 C 0.42292 0.51933 0.50696 0.0
C1793 C 0.41833 0.51094 0.46016 0.0
C1794 C 0.44148 0.53759 0.4544 0.0
C1795 C 0.42508 0.51655 0.41024 0.0
C1796 C 0.46261 0.55605 0.40443 0.0
C1797 C 0.47368 0.56844 0.50454 0.0
N1798 N 0.4365 0.52949 0.40877 0.0
N1799 N 0.46074 0.55726 0.50125 0.0
loop_
_geom_bond_atom_site_label_1
_geom_bond_atom_site_label_2
_geom_bond_distance
_geom_bond_site_symmetry_2
_ccdc_geom_bond_type
O0 Cd1 2.223 . S
O0 C8 1.315 . S
Cd1 O0 2.223 . S
Cd1 O4 2.297 . S
Cd1 O5 2.439 . S
Cd1 O11 2.240 . S
Cd2 O3 2.240 . S
Cd2 O10 2.223 . S
Cd2 O12 2.297 . S
Cd2 O13 2.439 . S
O3 Cd2 2.240 . S
O3 C8 1.279 . S
O4 Cd1 2.297 . S
O4 C6 1.247 . S
O5 Cd1 2.439 . S
O5 C6 1.208 . S
C6 O4 1.247 . S
C6 O5 1.208 . S
C7 O12 1.247 . S
C7 O13 1.208 . S
C8 O0 1.315 . S
C8 O3 1.279 . S
C9 O10 1.315 . S
C9 O11 1.279 . S
O10 Cd2 2.223 . S
O10 C9 1.315 . S
O11 Cd1 2.240 . S
O11 C9 1.279 . S
O12 Cd2 2.297 . S
O12 C7 1.247 . S
O13 Cd2 2.439 . S
O13 C7 1.208 . S
O14 Cd15 2.223 . S
O14 C22 1.315 . S
Cd15 O14 2.223 . S
Cd15 O18 2.297 . S
Cd15 O19 2.439 . S
Cd15 O25 2.240 . S
Cd16 O17 2.240 . S
Cd16 O24 2.223 . S
Cd16 O26 2.297 . S
Cd16 O27 2.439 . S
O17 Cd16 2.240 . S
O17 C22 1.279 . S
O18 Cd15 2.297 . S
O18 C20 1.247 . S
O19 Cd15 2.439 . S
O19 C20 1.208 . S
C20 O18 1.247 . S
C20 O19 1.208 . S
C21 O26 1.247 . S
C21 O27 1.208 . S
C22 O14 1.315 . S
C22 O17 1.279 . S
C23 O24 1.315 . S
C23 O25 1.279 . S
O24 Cd16 2.223 . S
O24 C23 1.315 . S
O25 Cd15 2.240 . S
O25 C23 1.279 . S
O26 Cd16 2.297 . S
O26 C21 1.247 . S
O27 Cd16 2.439 . S
O27 C21 1.208 . S
O28 Cd29 2.223 . S
O28 C36 1.315 . S
Cd29 O28 2.223 . S
Cd29 O32 2.297 . S
Cd29 O33 2.439 . S
Cd29 O39 2.240 . S
Cd30 O31 2.240 . S
Cd30 O38 2.223 . S
Cd30 O40 2.297 . S
Cd30 O41 2.439 . S
O31 Cd30 2.240 . S
O31 C36 1.279 . S
O32 Cd29 2.297 . S
O32 C34 1.247 . S
O33 Cd29 2.439 . S
O33 C34 1.208 . S
C34 O32 1.247 . S
C34 O33 1.208 . S
C35 O40 1.247 . S
C35 O41 1.208 . S
C36 O28 1.315 . S
C36 O31 1.279 . S
C37 O38 1.315 . S
C37 O39 1.279 . S
O38 Cd30 2.223 . S
O38 C37 1.315 . S
O39 Cd29 2.240 . S
O39 C37 1.279 . S
O40 Cd30 2.297 . S
O40 C35 1.247 . S
O41 Cd30 2.439 . S
O41 C35 1.208 . S
O42 Cd43 2.223 . S
O42 C50 1.315 . S
Cd43 O42 2.223 . S
Cd43 O46 2.297 . S
Cd43 O47 2.439 . S
Cd43 O53 2.240 . S
Cd44 O45 2.240 . S
Cd44 O52 2.223 . S
Cd44 O54 2.297 . S
Cd44 O55 2.439 . S
O45 Cd44 2.240 . S
O45 C50 1.279 . S
O46 Cd43 2.297 . S
O46 C48 1.247 . S
O47 Cd43 2.439 . S
O47 C48 1.208 . S
C48 O46 1.247 . S
C48 O47 1.208 . S
C49 O54 1.247 . S
C49 O55 1.208 . S
C50 O42 1.315 . S
C50 O45 1.279 . S
C51 O52 1.315 . S
C51 O53 1.279 . S
O52 Cd44 2.223 . S
O52 C51 1.315 . S
O53 Cd43 2.240 . S
O53 C51 1.279 . S
O54 Cd44 2.297 . S
O54 C49 1.247 . S
O55 Cd44 2.439 . S
O55 C49 1.208 . S
O56 Cd57 2.223 . S
O56 C64 1.315 . S
Cd57 O56 2.223 . S
Cd57 O60 2.297 . S
Cd57 O61 2.439 . S
Cd57 O67 2.240 . S
Cd58 O59 2.240 . S
Cd58 O66 2.223 . S
Cd58 O68 2.297 . S
Cd58 O69 2.439 . S
O59 Cd58 2.240 . S
O59 C64 1.279 . S
O60 Cd57 2.297 . S
O60 C62 1.247 . S
O61 Cd57 2.439 . S
O61 C62 1.208 . S
C62 O60 1.247 . S
C62 O61 1.208 . S
C63 O68 1.247 . S
C63 O69 1.208 . S
C64 O56 1.315 . S
C64 O59 1.279 . S
C65 O66 1.315 . S
C65 O67 1.279 . S
O66 Cd58 2.223 . S
O66 C65 1.315 . S
O67 Cd57 2.240 . S
O67 C65 1.279 . S
O68 Cd58 2.297 . S
O68 C63 1.247 . S
O69 Cd58 2.439 . S
O69 C63 1.208 . S
O70 Cd71 2.223 . S
O70 C78 1.315 . S
Cd71 O70 2.223 . S
Cd71 O74 2.297 . S
Cd71 O75 2.439 . S
Cd71 O81 2.240 . S
Cd72 O73 2.240 . S
Cd72 O80 2.223 . S
Cd72 O82 2.297 . S
Cd72 O83 2.439 . S
O73 Cd72 2.240 . S
O73 C78 1.279 . S
O74 Cd71 2.297 . S
O74 C76 1.247 . S
O75 Cd71 2.439 . S
O75 C76 1.208 . S
C76 O74 1.247 . S
C76 O75 1.208 . S
C77 O82 1.247 . S
C77 O83 1.208 . S
C78 O70 1.315 . S
C78 O73 1.279 . S
C79 O80 1.315 . S
C79 O81 1.279 . S
O80 Cd72 2.223 . S
O80 C79 1.315 . S
O81 Cd71 2.240 . S
O81 C79 1.279 . S
O82 Cd72 2.297 . S
O82 C77 1.247 . S
O83 Cd72 2.439 . S
O83 C77 1.208 . S
O84 Cd85 2.223 . S
O84 C92 1.315 . S
Cd85 O84 2.223 . S
Cd85 O88 2.297 . S
Cd85 O89 2.439 . S
Cd85 O95 2.240 . S
Cd86 O87 2.240 . S
Cd86 O94 2.223 . S
Cd86 O96 2.297 . S
Cd86 O97 2.439 . S
O87 Cd86 2.240 . S
O87 C92 1.279 . S
O88 Cd85 2.297 . S
O88 C90 1.247 . S
O89 Cd85 2.439 . S
O89 C90 1.208 . S
C90 O88 1.247 . S
C90 O89 1.208 . S
C91 O96 1.247 . S
C91 O97 1.208 . S
C92 O84 1.315 . S
C92 O87 1.279 . S
C93 O94 1.315 . S
C93 O95 1.279 . S
O94 Cd86 2.223 . S
O94 C93 1.315 . S
O95 Cd85 2.240 . S
O95 C93 1.279 . S
O96 Cd86 2.297 . S
O96 C91 1.247 . S
O97 Cd86 2.439 . S
O97 C91 1.208 . S
O98 Cd99 2.223 . S
O98 C106 1.315 . S
Cd99 O98 2.223 . S
Cd99 O102 2.297 . S
Cd99 O103 2.439 . S
Cd99 O109 2.240 . S
Cd100 O101 2.240 . S
Cd100 O108 2.223 . S
Cd100 O110 2.297 . S
Cd100 O111 2.439 . S
O101 Cd100 2.240 . S
O101 C106 1.279 . S
O102 Cd99 2.297 . S
O102 C104 1.247 . S
O103 Cd99 2.439 . S
O103 C104 1.208 . S
C104 O102 1.247 . S
C104 O103 1.208 . S
C105 O110 1.247 . S
C105 O111 1.208 . S
C106 O98 1.315 . S
C106 O101 1.279 . S
C107 O108 1.315 . S
C107 O109 1.279 . S
O108 Cd100 2.223 . S
O108 C107 1.315 . S
O109 Cd99 2.240 . S
O109 C107 1.279 . S
O110 Cd100 2.297 . S
O110 C105 1.247 . S
O111 Cd100 2.439 . S
O111 C105 1.208 . S
O112 Cd113 2.223 . S
O112 C120 1.315 . S
Cd113 O112 2.223 . S
Cd113 O116 2.297 . S
Cd113 O117 2.439 . S
Cd113 O123 2.240 . S
Cd114 O115 2.240 . S
Cd114 O122 2.223 . S
Cd114 O124 2.297 . S
Cd114 O125 2.439 . S
O115 Cd114 2.240 . S
O115 C120 1.279 . S
O116 Cd113 2.297 . S
O116 C118 1.247 . S
O117 Cd113 2.439 . S
O117 C118 1.208 . S
C118 O116 1.247 . S
C118 O117 1.208 . S
C119 O124 1.247 . S
C119 O125 1.208 . S
C120 O112 1.315 . S
C120 O115 1.279 . S
C121 O122 1.315 . S
C121 O123 1.279 . S
O122 Cd114 2.223 . S
O122 C121 1.315 . S
O123 Cd113 2.240 . S
O123 C121 1.279 . S
O124 Cd114 2.297 . S
O124 C119 1.247 . S
O125 Cd114 2.439 . S
O125 C119 1.208 . S
O126 Cd127 2.223 . S
O126 C134 1.315 . S
Cd127 O126 2.223 . S
Cd127 O130 2.297 . S
Cd127 O131 2.439 . S
Cd127 O137 2.240 . S
Cd128 O129 2.240 . S
Cd128 O136 2.223 . S
Cd128 O138 2.297 . S
Cd128 O139 2.439 . S
O129 Cd128 2.240 . S
O129 C134 1.279 . S
O130 Cd127 2.297 . S
O130 C132 1.247 . S
O131 Cd127 2.439 . S
O131 C132 1.208 . S
C132 O130 1.247 . S
C132 O131 1.208 . S
C133 O138 1.247 . S
C133 O139 1.208 . S
C134 O126 1.315 . S
C134 O129 1.279 . S
C135 O136 1.315 . S
C135 O137 1.279 . S
O136 Cd128 2.223 . S
O136 C135 1.315 . S
O137 Cd127 2.240 . S
O137 C135 1.279 . S
O138 Cd128 2.297 . S
O138 C133 1.247 . S
O139 Cd128 2.439 . S
O139 C133 1.208 . S
O140 Cd141 2.223 . S
O140 C148 1.315 . S
Cd141 O140 2.223 . S
Cd141 O144 2.297 . S
Cd141 O145 2.439 . S
Cd141 O151 2.240 . S
Cd142 O143 2.240 . S
Cd142 O150 2.223 . S
Cd142 O152 2.297 . S
Cd142 O153 2.439 . S
O143 Cd142 2.240 . S
O143 C148 1.279 . S
O144 Cd141 2.297 . S
O144 C146 1.247 . S
O145 Cd141 2.439 . S
O145 C146 1.208 . S
C146 O144 1.247 . S
C146 O145 1.208 . S
C147 O152 1.247 . S
C147 O153 1.208 . S
C148 O140 1.315 . S
C148 O143 1.279 . S
C149 O150 1.315 . S
C149 O151 1.279 . S
O150 Cd142 2.223 . S
O150 C149 1.315 . S
O151 Cd141 2.240 . S
O151 C149 1.279 . S
O152 Cd142 2.297 . S
O152 C147 1.247 . S
O153 Cd142 2.439 . S
O153 C147 1.208 . S
O154 Cd155 2.223 . S
O154 C162 1.315 . S
Cd155 O154 2.223 . S
Cd155 O158 2.297 . S
Cd155 O159 2.439 . S
Cd155 O165 2.240 . S
Cd156 O157 2.240 . S
Cd156 O164 2.223 . S
Cd156 O166 2.297 . S
Cd156 O167 2.439 . S
O157 Cd156 2.240 . S
O157 C162 1.279 . S
O158 Cd155 2.297 . S
O158 C160 1.247 . S
O159 Cd155 2.439 . S
O159 C160 1.208 . S
C160 O158 1.247 . S
C160 O159 1.208 . S
C161 O166 1.247 . S
C161 O167 1.208 . S
C162 O154 1.315 . S
C162 O157 1.279 . S
C163 O164 1.315 . S
C163 O165 1.279 . S
O164 Cd156 2.223 . S
O164 C163 1.315 . S
O165 Cd155 2.240 . S
O165 C163 1.279 . S
O166 Cd156 2.297 . S
O166 C161 1.247 . S
O167 Cd156 2.439 . S
O167 C161 1.208 . S
O168 Cd169 2.223 . S
O168 C176 1.315 . S
Cd169 O168 2.223 . S
Cd169 O172 2.297 . S
Cd169 O173 2.439 . S
Cd169 O179 2.240 . S
Cd170 O171 2.240 . S
Cd170 O178 2.223 . S
Cd170 O180 2.297 . S
Cd170 O181 2.439 . S
O171 Cd170 2.240 . S
O171 C176 1.279 . S
O172 Cd169 2.297 . S
O172 C174 1.247 . S
O173 Cd169 2.439 . S
O173 C174 1.208 . S
C174 O172 1.247 . S
C174 O173 1.208 . S
C175 O180 1.247 . S
C175 O181 1.208 . S
C176 O168 1.315 . S
C176 O171 1.279 . S
C177 O178 1.315 . S
C177 O179 1.279 . S
O178 Cd170 2.223 . S
O178 C177 1.315 . S
O179 Cd169 2.240 . S
O179 C177 1.279 . S
O180 Cd170 2.297 . S
O180 C175 1.247 . S
O181 Cd170 2.439 . S
O181 C175 1.208 . S
O182 Cd183 2.223 . S
O182 C190 1.315 . S
Cd183 O182 2.223 . S
Cd183 O186 2.297 . S
Cd183 O187 2.439 . S
Cd183 O193 2.240 . S
Cd184 O185 2.240 . S
Cd184 O192 2.223 . S
Cd184 O194 2.297 . S
Cd184 O195 2.439 . S
O185 Cd184 2.240 . S
O185 C190 1.279 . S
O186 Cd183 2.297 . S
O186 C188 1.247 . S
O187 Cd183 2.439 . S
O187 C188 1.208 . S
C188 O186 1.247 . S
C188 O187 1.208 . S
C189 O194 1.247 . S
C189 O195 1.208 . S
C190 O182 1.315 . S
C190 O185 1.279 . S
C191 O192 1.315 . S
C191 O193 1.279 . S
O192 Cd184 2.223 . S
O192 C191 1.315 . S
O193 Cd183 2.240 . S
O193 C191 1.279 . S
O194 Cd184 2.297 . S
O194 C189 1.247 . S
O195 Cd184 2.439 . S
O195 C189 1.208 . S
O196 Cd197 2.223 . S
O196 C204 1.315 . S
Cd197 O196 2.223 . S
Cd197 O200 2.297 . S
Cd197 O201 2.439 . S
Cd197 O207 2.240 . S
Cd198 O199 2.240 . S
Cd198 O206 2.223 . S
Cd198 O208 2.297 . S
Cd198 O209 2.439 . S
O199 Cd198 2.240 . S
O199 C204 1.279 . S
O200 Cd197 2.297 . S
O200 C202 1.247 . S
O201 Cd197 2.439 . S
O201 C202 1.208 . S
C202 O200 1.247 . S
C202 O201 1.208 . S
C203 O208 1.247 . S
C203 O209 1.208 . S
C204 O196 1.315 . S
C204 O199 1.279 . S
C205 O206 1.315 . S
C205 O207 1.279 . S
O206 Cd198 2.223 . S
O206 C205 1.315 . S
O207 Cd197 2.240 . S
O207 C205 1.279 . S
O208 Cd198 2.297 . S
O208 C203 1.247 . S
O209 Cd198 2.439 . S
O209 C203 1.208 . S
O210 Cd211 2.223 . S
O210 C218 1.315 . S
Cd211 O210 2.223 . S
Cd211 O214 2.297 . S
Cd211 O215 2.435 1_554 S
Cd211 O221 2.240 . S
Cd212 O213 2.240 . S
Cd212 O220 2.223 . S
Cd212 O222 2.297 . S
Cd212 O223 2.439 . S
O213 Cd212 2.240 . S
O213 C218 1.279 . S
O214 Cd211 2.297 . S
O214 C216 1.247 1_554 S
O215 Cd211 2.435 1_556 S
O215 C216 1.211 . S
C216 O214 1.247 1_556 S
C216 O215 1.211 . S
C217 O222 1.247 . S
C217 O223 1.208 . S
C218 O210 1.315 . S
C218 O213 1.279 . S
C219 O220 1.315 . S
C219 O221 1.279 . S
O220 Cd212 2.223 . S
O220 C219 1.315 . S
O221 Cd211 2.240 . S
O221 C219 1.279 . S
O222 Cd212 2.297 . S
O222 C217 1.247 . S
O223 Cd212 2.439 . S
O223 C217 1.208 . S
O224 Cd225 2.223 . S
O224 C232 1.315 . S
Cd225 O224 2.223 . S
Cd225 O228 2.297 . S
Cd225 O229 2.435 1_554 S
Cd225 O235 2.240 . S
Cd226 O227 2.240 . S
Cd226 O234 2.223 . S
Cd226 O236 2.297 . S
Cd226 O237 2.439 . S
O227 Cd226 2.240 . S
O227 C232 1.279 . S
O228 Cd225 2.297 . S
O228 C230 1.247 1_554 S
O229 Cd225 2.435 1_556 S
O229 C230 1.211 . S
C230 O228 1.247 1_556 S
C230 O229 1.211 . S
C231 O236 1.247 . S
C231 O237 1.208 . S
C232 O224 1.315 . S
C232 O227 1.279 . S
C233 O234 1.315 . S
C233 O235 1.279 . S
O234 Cd226 2.223 . S
O234 C233 1.315 . S
O235 Cd225 2.240 . S
O235 C233 1.279 . S
O236 Cd226 2.297 . S
O236 C231 1.247 . S
O237 Cd226 2.439 . S
O237 C231 1.208 . S
O238 Cd239 2.223 . S
O238 C246 1.315 . S
Cd239 O238 2.223 . S
Cd239 O242 2.297 . S
Cd239 O243 2.435 1_554 S
Cd239 O249 2.240 . S
Cd240 O241 2.240 . S
Cd240 O248 2.223 . S
Cd240 O250 2.297 . S
Cd240 O251 2.439 . S
O241 Cd240 2.240 . S
O241 C246 1.279 . S
O242 Cd239 2.297 . S
O242 C244 1.247 1_554 S
O243 Cd239 2.435 1_556 S
O243 C244 1.211 . S
C244 O242 1.247 1_556 S
C244 O243 1.211 . S
C245 O250 1.247 . S
C245 O251 1.208 . S
C246 O238 1.315 . S
C246 O241 1.279 . S
C247 O248 1.315 . S
C247 O249 1.279 . S
O248 Cd240 2.223 . S
O248 C247 1.315 . S
O249 Cd239 2.240 . S
O249 C247 1.279 . S
O250 Cd240 2.297 . S
O250 C245 1.247 . S
O251 Cd240 2.439 . S
O251 C245 1.208 . S
O252 Cd253 2.223 . S
O252 C260 1.315 . S
Cd253 O252 2.223 . S
Cd253 O256 2.297 . S
Cd253 O257 2.435 1_554 S
Cd253 O263 2.240 . S
Cd254 O255 2.240 . S
Cd254 O262 2.223 . S
Cd254 O264 2.297 . S
Cd254 O265 2.439 . S
O255 Cd254 2.240 . S
O255 C260 1.279 . S
O256 Cd253 2.297 . S
O256 C258 1.247 1_554 S
O257 Cd253 2.435 1_556 S
O257 C258 1.211 . S
C258 O256 1.247 1_556 S
C258 O257 1.211 . S
C259 O264 1.247 . S
C259 O265 1.208 . S
C260 O252 1.315 . S
C260 O255 1.279 . S
C261 O262 1.315 . S
C261 O263 1.279 . S
O262 Cd254 2.223 . S
O262 C261 1.315 . S
O263 Cd253 2.240 . S
O263 C261 1.279 . S
O264 Cd254 2.297 . S
O264 C259 1.247 . S
O265 Cd254 2.439 . S
O265 C259 1.208 . S
O266 Cd267 2.223 . S
O266 C274 1.315 . S
Cd267 O266 2.223 . S
Cd267 O270 2.297 . S
Cd267 O271 2.435 1_554 S
Cd267 O277 2.240 . S
Cd268 O269 2.240 . S
Cd268 O276 2.223 . S
Cd268 O278 2.297 . S
Cd268 O279 2.439 . S
O269 Cd268 2.240 . S
O269 C274 1.279 . S
O270 Cd267 2.297 . S
O270 C272 1.247 1_554 S
O271 Cd267 2.435 1_556 S
O271 C272 1.211 . S
C272 O270 1.247 1_556 S
C272 O271 1.211 . S
C273 O278 1.247 . S
C273 O279 1.208 . S
C274 O266 1.315 . S
C274 O269 1.279 . S
C275 O276 1.315 . S
C275 O277 1.279 . S
O276 Cd268 2.223 . S
O276 C275 1.315 . S
O277 Cd267 2.240 . S
O277 C275 1.279 . S
O278 Cd268 2.297 . S
O278 C273 1.247 . S
O279 Cd268 2.439 . S
O279 C273 1.208 . S
O280 Cd281 2.223 . S
O280 C288 1.315 . S
Cd281 O280 2.223 . S
Cd281 O284 2.297 . S
Cd281 O285 2.435 1_554 S
Cd281 O291 2.240 . S
Cd282 O283 2.240 . S
Cd282 O290 2.223 . S
Cd282 O292 2.297 . S
Cd282 O293 2.439 . S
O283 Cd282 2.240 . S
O283 C288 1.279 . S
O284 Cd281 2.297 . S
O284 C286 1.247 1_554 S
O285 Cd281 2.435 1_556 S
O285 C286 1.211 . S
C286 O284 1.247 1_556 S
C286 O285 1.211 . S
C287 O292 1.247 . S
C287 O293 1.208 . S
C288 O280 1.315 . S
C288 O283 1.279 . S
C289 O290 1.315 . S
C289 O291 1.279 . S
O290 Cd282 2.223 . S
O290 C289 1.315 . S
O291 Cd281 2.240 . S
O291 C289 1.279 . S
O292 Cd282 2.297 . S
O292 C287 1.247 . S
O293 Cd282 2.439 . S
O293 C287 1.208 . S
O294 Cd295 2.223 . S
O294 C302 1.315 . S
Cd295 O294 2.223 . S
Cd295 O298 2.297 . S
Cd295 O299 2.439 . S
Cd295 O305 2.240 . S
Cd296 O297 2.240 . S
Cd296 O304 2.223 . S
Cd296 O306 2.297 . S
Cd296 O307 2.439 . S
O297 Cd296 2.240 . S
O297 C302 1.279 . S
O298 Cd295 2.297 . S
O298 C300 1.247 . S
O299 Cd295 2.439 . S
O299 C300 1.208 . S
C300 O298 1.247 . S
C300 O299 1.208 . S
C301 O306 1.247 . S
C301 O307 1.208 . S
C302 O294 1.315 . S
C302 O297 1.279 . S
C303 O304 1.315 . S
C303 O305 1.279 . S
O304 Cd296 2.223 . S
O304 C303 1.315 . S
O305 Cd295 2.240 . S
O305 C303 1.279 . S
O306 Cd296 2.297 . S
O306 C301 1.247 . S
O307 Cd296 2.439 . S
O307 C301 1.208 . S
O308 Cd309 2.223 . S
O308 C316 1.315 . S
Cd309 O308 2.223 . S
Cd309 O312 2.297 . S
Cd309 O313 2.439 . S
Cd309 O319 2.240 . S
Cd310 O311 2.240 . S
Cd310 O318 2.223 . S
Cd310 O320 2.297 . S
Cd310 O321 2.439 . S
O311 Cd310 2.240 . S
O311 C316 1.279 . S
O312 Cd309 2.297 . S
O312 C314 1.247 . S
O313 Cd309 2.439 . S
O313 C314 1.208 . S
C314 O312 1.247 . S
C314 O313 1.208 . S
C315 O320 1.247 . S
C315 O321 1.208 . S
C316 O308 1.315 . S
C316 O311 1.279 . S
C317 O318 1.315 . S
C317 O319 1.279 . S
O318 Cd310 2.223 . S
O318 C317 1.315 . S
O319 Cd309 2.240 . S
O319 C317 1.279 . S
O320 Cd310 2.297 . S
O320 C315 1.247 . S
O321 Cd310 2.439 . S
O321 C315 1.208 . S
O322 Cd323 2.223 . S
O322 C330 1.315 . S
Cd323 O322 2.223 . S
Cd323 O326 2.297 . S
Cd323 O327 2.439 . S
Cd323 O333 2.240 . S
Cd324 O325 2.240 . S
Cd324 O332 2.223 . S
Cd324 O334 2.297 . S
Cd324 O335 2.439 . S
O325 Cd324 2.240 . S
O325 C330 1.279 . S
O326 Cd323 2.297 . S
O326 C328 1.247 . S
O327 Cd323 2.439 . S
O327 C328 1.208 . S
C328 O326 1.247 . S
C328 O327 1.208 . S
C329 O334 1.247 . S
C329 O335 1.208 . S
C330 O322 1.315 . S
C330 O325 1.279 . S
C331 O332 1.315 . S
C331 O333 1.279 . S
O332 Cd324 2.223 . S
O332 C331 1.315 . S
O333 Cd323 2.240 . S
O333 C331 1.279 . S
O334 Cd324 2.297 . S
O334 C329 1.247 . S
O335 Cd324 2.439 . S
O335 C329 1.208 . S
O336 Cd337 2.223 . S
O336 C344 1.315 . S
Cd337 O336 2.223 . S
Cd337 O340 2.297 . S
Cd337 O341 2.435 1_556 S
Cd337 O347 2.240 . S
Cd338 O339 2.240 . S
Cd338 O346 2.223 . S
Cd338 O348 2.297 . S
Cd338 O349 2.439 . S
O339 Cd338 2.240 . S
O339 C344 1.279 . S
O340 Cd337 2.297 . S
O340 C342 1.247 1_556 S
O341 Cd337 2.435 1_554 S
O341 C342 1.211 . S
C342 O340 1.247 1_554 S
C342 O341 1.211 . S
C343 O348 1.247 . S
C343 O349 1.208 . S
C344 O336 1.315 . S
C344 O339 1.279 . S
C345 O346 1.315 . S
C345 O347 1.279 . S
O346 Cd338 2.223 . S
O346 C345 1.315 . S
O347 Cd337 2.240 . S
O347 C345 1.279 . S
O348 Cd338 2.297 . S
O348 C343 1.247 . S
O349 Cd338 2.439 . S
O349 C343 1.208 . S
O350 Cd351 2.223 . S
O350 C358 1.315 . S
Cd351 O350 2.223 . S
Cd351 O354 2.297 . S
Cd351 O355 2.435 1_556 S
Cd351 O361 2.240 . S
Cd352 O353 2.240 . S
Cd352 O360 2.223 . S
Cd352 O362 2.297 . S
Cd352 O363 2.439 . S
O353 Cd352 2.240 . S
O353 C358 1.279 . S
O354 Cd351 2.297 . S
O354 C356 1.247 1_556 S
O355 Cd351 2.435 1_554 S
O355 C356 1.211 . S
C356 O354 1.247 1_554 S
C356 O355 1.211 . S
C357 O362 1.247 . S
C357 O363 1.208 . S
C358 O350 1.315 . S
C358 O353 1.279 . S
C359 O360 1.315 . S
C359 O361 1.279 . S
O360 Cd352 2.223 . S
O360 C359 1.315 . S
O361 Cd351 2.240 . S
O361 C359 1.279 . S
O362 Cd352 2.297 . S
O362 C357 1.247 . S
O363 Cd352 2.439 . S
O363 C357 1.208 . S
O364 Cd365 2.223 . S
O364 C372 1.315 . S
Cd365 O364 2.223 . S
Cd365 O368 2.297 . S
Cd365 O369 2.435 1_556 S
Cd365 O375 2.240 . S
Cd366 O367 2.240 . S
Cd366 O374 2.223 . S
Cd366 O376 2.297 . S
Cd366 O377 2.439 . S
O367 Cd366 2.240 . S
O367 C372 1.279 . S
O368 Cd365 2.297 . S
O368 C370 1.247 1_556 S
O369 Cd365 2.435 1_554 S
O369 C370 1.211 . S
C370 O368 1.247 1_554 S
C370 O369 1.211 . S
C371 O376 1.247 . S
C371 O377 1.208 . S
C372 O364 1.315 . S
C372 O367 1.279 . S
C373 O374 1.315 . S
C373 O375 1.279 . S
O374 Cd366 2.223 . S
O374 C373 1.315 . S
O375 Cd365 2.240 . S
O375 C373 1.279 . S
O376 Cd366 2.297 . S
O376 C371 1.247 . S
O377 Cd366 2.439 . S
O377 C371 1.208 . S
O378 Cd379 2.223 . S
O378 C386 1.315 . S
Cd379 O378 2.223 . S
Cd379 O382 2.297 . S
Cd379 O383 2.439 . S
Cd379 O389 2.240 . S
Cd380 O381 2.240 . S
Cd380 O388 2.223 . S
Cd380 O390 2.297 . S
Cd380 O391 2.439 . S
O381 Cd380 2.240 . S
O381 C386 1.279 . S
O382 Cd379 2.297 . S
O382 C384 1.247 . S
O383 Cd379 2.439 . S
O383 C384 1.208 . S
C384 O382 1.247 . S
C384 O383 1.208 . S
C385 O390 1.247 . S
C385 O391 1.208 . S
C386 O378 1.315 . S
C386 O381 1.279 . S
C387 O388 1.315 . S
C387 O389 1.279 . S
O388 Cd380 2.223 . S
O388 C387 1.315 . S
O389 Cd379 2.240 . S
O389 C387 1.279 . S
O390 Cd380 2.297 . S
O390 C385 1.247 . S
O391 Cd380 2.439 . S
O391 C385 1.208 . S
O392 Cd393 2.223 . S
O392 C400 1.315 . S
Cd393 O392 2.223 . S
Cd393 O396 2.297 . S
Cd393 O397 2.439 . S
Cd393 O403 2.240 . S
Cd394 O395 2.240 . S
Cd394 O402 2.223 . S
Cd394 O404 2.297 . S
Cd394 O405 2.439 . S
O395 Cd394 2.240 . S
O395 C400 1.279 . S
O396 Cd393 2.297 . S
O396 C398 1.247 . S
O397 Cd393 2.439 . S
O397 C398 1.208 . S
C398 O396 1.247 . S
C398 O397 1.208 . S
C399 O404 1.247 . S
C399 O405 1.208 . S
C400 O392 1.315 . S
C400 O395 1.279 . S
C401 O402 1.315 . S
C401 O403 1.279 . S
O402 Cd394 2.223 . S
O402 C401 1.315 . S
O403 Cd393 2.240 . S
O403 C401 1.279 . S
O404 Cd394 2.297 . S
O404 C399 1.247 . S
O405 Cd394 2.439 . S
O405 C399 1.208 . S
O406 Cd407 2.223 . S
O406 C414 1.315 . S
Cd407 O406 2.223 . S
Cd407 O410 2.297 . S
Cd407 O411 2.439 . S
Cd407 O417 2.240 . S
Cd408 O409 2.240 . S
Cd408 O416 2.223 . S
Cd408 O418 2.297 . S
Cd408 O419 2.439 . S
O409 Cd408 2.240 . S
O409 C414 1.279 . S
O410 Cd407 2.297 . S
O410 C412 1.247 . S
O411 Cd407 2.439 . S
O411 C412 1.208 . S
C412 O410 1.247 . S
C412 O411 1.208 . S
C413 O418 1.247 . S
C413 O419 1.208 . S
C414 O406 1.315 . S
C414 O409 1.279 . S
C415 O416 1.315 . S
C415 O417 1.279 . S
O416 Cd408 2.223 . S
O416 C415 1.315 . S
O417 Cd407 2.240 . S
O417 C415 1.279 . S
O418 Cd408 2.297 . S
O418 C413 1.247 . S
O419 Cd408 2.439 . S
O419 C413 1.208 . S
O420 Cd421 2.223 . S
O420 C428 1.315 . S
Cd421 O420 2.223 . S
Cd421 O424 2.297 . S
Cd421 O425 2.439 . S
Cd421 O431 2.240 . S
Cd422 O423 2.240 . S
Cd422 O430 2.223 . S
Cd422 O432 2.297 . S
Cd422 O433 2.439 . S
O423 Cd422 2.240 . S
O423 C428 1.279 . S
O424 Cd421 2.297 . S
O424 C426 1.247 . S
O425 Cd421 2.439 . S
O425 C426 1.208 . S
C426 O424 1.247 . S
C426 O425 1.208 . S
C427 O432 1.247 . S
C427 O433 1.208 . S
C428 O420 1.315 . S
C428 O423 1.279 . S
C429 O430 1.315 . S
C429 O431 1.279 . S
O430 Cd422 2.223 . S
O430 C429 1.315 . S
O431 Cd421 2.240 . S
O431 C429 1.279 . S
O432 Cd422 2.297 . S
O432 C427 1.247 . S
O433 Cd422 2.439 . S
O433 C427 1.208 . S
O434 Cd435 2.223 . S
O434 C442 1.315 . S
Cd435 O434 2.223 . S
Cd435 O438 2.297 . S
Cd435 O439 2.439 . S
Cd435 O445 2.240 . S
Cd436 O437 2.240 . S
Cd436 O444 2.223 . S
Cd436 O446 2.297 . S
Cd436 O447 2.439 . S
O437 Cd436 2.240 . S
O437 C442 1.279 . S
O438 Cd435 2.297 . S
O438 C440 1.247 . S
O439 Cd435 2.439 . S
O439 C440 1.208 . S
C440 O438 1.247 . S
C440 O439 1.208 . S
C441 O446 1.247 . S
C441 O447 1.208 . S
C442 O434 1.315 . S
C442 O437 1.279 . S
C443 O444 1.315 . S
C443 O445 1.279 . S
O444 Cd436 2.223 . S
O444 C443 1.315 . S
O445 Cd435 2.240 . S
O445 C443 1.279 . S
O446 Cd436 2.297 . S
O446 C441 1.247 . S
O447 Cd436 2.439 . S
O447 C441 1.208 . S
O448 Cd449 2.223 . S
O448 C456 1.315 . S
Cd449 O448 2.223 . S
Cd449 O452 2.297 . S
Cd449 O453 2.439 . S
Cd449 O459 2.240 . S
Cd450 O451 2.240 . S
Cd450 O458 2.223 . S
Cd450 O460 2.297 . S
Cd450 O461 2.439 . S
O451 Cd450 2.240 . S
O451 C456 1.279 . S
O452 Cd449 2.297 . S
O452 C454 1.247 . S
O453 Cd449 2.439 . S
O453 C454 1.208 . S
C454 O452 1.247 . S
C454 O453 1.208 . S
C455 O460 1.247 . S
C455 O461 1.208 . S
C456 O448 1.315 . S
C456 O451 1.279 . S
C457 O458 1.315 . S
C457 O459 1.279 . S
O458 Cd450 2.223 . S
O458 C457 1.315 . S
O459 Cd449 2.240 . S
O459 C457 1.279 . S
O460 Cd450 2.297 . S
O460 C455 1.247 . S
O461 Cd450 2.439 . S
O461 C455 1.208 . S
O462 Cd463 2.223 . S
O462 C470 1.315 . S
Cd463 O462 2.223 . S
Cd463 O466 2.297 . S
Cd463 O467 2.435 1_556 S
Cd463 O473 2.240 . S
Cd464 O465 2.240 . S
Cd464 O472 2.223 . S
Cd464 O474 2.297 . S
Cd464 O475 2.439 . S
O465 Cd464 2.240 . S
O465 C470 1.279 . S
O466 Cd463 2.297 . S
O466 C468 1.247 1_556 S
O467 Cd463 2.435 1_554 S
O467 C468 1.211 . S
C468 O466 1.247 1_554 S
C468 O467 1.211 . S
C469 O474 1.247 . S
C469 O475 1.208 . S
C470 O462 1.315 . S
C470 O465 1.279 . S
C471 O472 1.315 . S
C471 O473 1.279 . S
O472 Cd464 2.223 . S
O472 C471 1.315 . S
O473 Cd463 2.240 . S
O473 C471 1.279 . S
O474 Cd464 2.297 . S
O474 C469 1.247 . S
O475 Cd464 2.439 . S
O475 C469 1.208 . S
O476 Cd477 2.223 . S
O476 C484 1.315 . S
Cd477 O476 2.223 . S
Cd477 O480 2.297 . S
Cd477 O481 2.435 1_556 S
Cd477 O487 2.240 . S
Cd478 O479 2.240 . S
Cd478 O486 2.223 . S
Cd478 O488 2.297 . S
Cd478 O489 2.439 . S
O479 Cd478 2.240 . S
O479 C484 1.279 . S
O480 Cd477 2.297 . S
O480 C482 1.247 1_556 S
O481 Cd477 2.435 1_554 S
O481 C482 1.211 . S
C482 O480 1.247 1_554 S
C482 O481 1.211 . S
C483 O488 1.247 . S
C483 O489 1.208 . S
C484 O476 1.315 . S
C484 O479 1.279 . S
C485 O486 1.315 . S
C485 O487 1.279 . S
O486 Cd478 2.223 . S
O486 C485 1.315 . S
O487 Cd477 2.240 . S
O487 C485 1.279 . S
O488 Cd478 2.297 . S
O488 C483 1.247 . S
O489 Cd478 2.439 . S
O489 C483 1.208 . S
O490 Cd491 2.223 . S
O490 C498 1.315 . S
Cd491 O490 2.223 . S
Cd491 O494 2.297 . S
Cd491 O495 2.435 1_556 S
Cd491 O501 2.240 . S
Cd492 O493 2.240 . S
Cd492 O500 2.223 . S
Cd492 O502 2.297 . S
Cd492 O503 2.439 . S
O493 Cd492 2.240 . S
O493 C498 1.279 . S
O494 Cd491 2.297 . S
O494 C496 1.247 1_556 S
O495 Cd491 2.435 1_554 S
O495 C496 1.211 . S
C496 O494 1.247 1_554 S
C496 O495 1.211 . S
C497 O502 1.247 . S
C497 O503 1.208 . S
C498 O490 1.315 . S
C498 O493 1.279 . S
C499 O500 1.315 . S
C499 O501 1.279 . S
O500 Cd492 2.223 . S
O500 C499 1.315 . S
O501 Cd491 2.240 . S
O501 C499 1.279 . S
O502 Cd492 2.297 . S
O502 C497 1.247 . S
O503 Cd492 2.439 . S
O503 C497 1.208 . S
H504 C510 0.930 . S
H505 C514 0.930 . S
H506 C519 0.929 . S
H507 C517 0.929 . S
H508 C512 0.929 . S
H509 C518 0.929 . S
C510 H504 0.930 . S
C510 C511 1.367 . S
C510 C518 1.378 . S
C511 C510 1.367 . S
C511 C519 1.433 . S
C512 H508 0.929 . S
C512 C514 1.378 . S
C512 C516 1.350 . S
C513 C516 1.463 1_565 S
C513 C518 1.350 . S
C513 N521 1.427 1_565 S
C514 H505 0.930 . S
C514 C512 1.378 . S
C514 C515 1.367 . S
C515 C514 1.367 . S
C515 C517 1.433 . S
C516 C512 1.350 . S
C516 C513 1.463 1_545 S
C516 N520 1.427 1_545 S
C517 H507 0.929 . S
C517 C515 1.433 . S
C517 N520 1.384 1_545 S
C518 H509 0.929 . S
C518 C510 1.378 . S
C518 C513 1.350 . S
C519 H506 0.929 . S
C519 C511 1.433 . S
C519 N521 1.384 1_565 S
N520 C516 1.427 1_565 S
N520 C517 1.384 1_565 S
N521 C513 1.427 1_545 S
N521 C519 1.384 1_545 S
H522 C528 0.930 . S
H523 C532 0.930 . S
H524 C537 0.929 . S
H525 C535 0.929 . S
H526 C530 0.929 . S
H527 C536 0.929 . S
C528 H522 0.930 . S
C528 C529 1.367 . S
C528 C536 1.378 . S
C529 C528 1.367 . S
C529 C537 1.433 . S
C530 H526 0.929 . S
C530 C532 1.378 . S
C530 C534 1.350 . S
C531 C534 1.463 1_455 S
C531 C536 1.350 . S
C531 N539 1.428 . S
C532 H523 0.930 . S
C532 C530 1.378 . S
C532 C533 1.367 . S
C533 C532 1.367 . S
C533 C535 1.433 . S
C534 C530 1.350 . S
C534 C531 1.463 1_655 S
C534 N538 1.428 . S
C535 H525 0.929 . S
C535 C533 1.433 . S
C535 N538 1.392 . S
C536 H527 0.929 . S
C536 C528 1.378 . S
C536 C531 1.350 . S
C537 H524 0.929 . S
C537 C529 1.433 . S
C537 N539 1.391 . S
N538 C534 1.428 . S
N538 C535 1.392 . S
N539 C531 1.428 . S
N539 C537 1.391 . S
H540 C546 0.930 . S
H541 C550 0.930 . S
H542 C555 0.929 . S
H543 C553 0.929 . S
H544 C548 0.929 . S
H545 C554 0.929 . S
C546 H540 0.930 . S
C546 C547 1.367 . S
C546 C554 1.378 . S
C547 C546 1.367 . S
C547 C555 1.433 . S
C548 H544 0.929 . S
C548 C550 1.378 . S
C548 C552 1.350 . S
C549 C552 1.463 . S
C549 C554 1.350 . S
C549 N557 1.427 . S
C550 H541 0.930 . S
C550 C548 1.378 . S
C550 C551 1.367 . S
C551 C550 1.367 . S
C551 C553 1.433 . S
C552 C548 1.350 . S
C552 C549 1.463 . S
C552 N556 1.427 . S
C553 H543 0.929 . S
C553 C551 1.433 . S
C553 N556 1.384 . S
C554 H545 0.929 . S
C554 C546 1.378 . S
C554 C549 1.350 . S
C555 H542 0.929 . S
C555 C547 1.433 . S
C555 N557 1.384 . S
N556 C552 1.427 . S
N556 C553 1.384 . S
N557 C549 1.427 . S
N557 C555 1.384 . S
H558 C564 0.930 . S
H559 C568 0.930 . S
H560 C573 0.929 . S
H561 C571 0.929 . S
H562 C566 0.929 . S
H563 C572 0.929 . S
C564 H558 0.930 . S
C564 C565 1.367 . S
C564 C572 1.378 . S
C565 C564 1.367 . S
C565 C573 1.433 . S
C566 H562 0.929 . S
C566 C568 1.378 . S
C566 C570 1.350 . S
C567 C570 1.463 1_565 S
C567 C572 1.350 . S
C567 N575 1.427 . S
C568 H559 0.930 . S
C568 C566 1.378 . S
C568 C569 1.367 . S
C569 C568 1.367 . S
C569 C571 1.433 . S
C570 C566 1.350 . S
C570 C567 1.463 1_545 S
C570 N574 1.427 . S
C571 H561 0.929 . S
C571 C569 1.433 . S
C571 N574 1.384 . S
C572 H563 0.929 . S
C572 C564 1.378 . S
C572 C567 1.350 . S
C573 H560 0.929 . S
C573 C565 1.433 . S
C573 N575 1.384 . S
N574 C570 1.427 . S
N574 C571 1.384 . S
N575 C567 1.427 . S
N575 C573 1.384 . S
H576 C582 0.930 . S
H577 C586 0.930 . S
H578 C591 0.929 . S
H579 C589 0.929 . S
H580 C584 0.929 . S
H581 C590 0.929 . S
C582 H576 0.930 . S
C582 C583 1.367 . S
C582 C590 1.378 . S
C583 C582 1.367 . S
C583 C591 1.433 . S
C584 H580 0.929 . S
C584 C586 1.378 . S
C584 C588 1.350 . S
C585 C588 1.463 1_455 S
C585 C590 1.350 . S
C585 N593 1.427 1_455 S
C586 H577 0.930 . S
C586 C584 1.378 . S
C586 C587 1.367 . S
C587 C586 1.367 . S
C587 C589 1.433 . S
C588 C584 1.350 . S
C588 C585 1.463 1_655 S
C588 N592 1.427 1_655 S
C589 H579 0.929 . S
C589 C587 1.433 . S
C589 N592 1.381 1_655 S
C590 H581 0.929 . S
C590 C582 1.378 . S
C590 C585 1.350 . S
C591 H578 0.929 . S
C591 C583 1.433 . S
C591 N593 1.381 1_455 S
N592 C588 1.427 1_455 S
N592 C589 1.381 1_455 S
N593 C585 1.427 1_655 S
N593 C591 1.381 1_655 S
H594 C600 0.930 . S
H595 C604 0.930 . S
H596 C609 0.929 . S
H597 C607 0.929 . S
H598 C602 0.929 . S
H599 C608 0.929 . S
C600 H594 0.930 . S
C600 C601 1.367 . S
C600 C608 1.378 . S
C601 C600 1.367 . S
C601 C609 1.433 . S
C602 H598 0.929 . S
C602 C604 1.378 . S
C602 C606 1.350 . S
C603 C606 1.463 . S
C603 C608 1.350 . S
C603 N611 1.427 . S
C604 H595 0.930 . S
C604 C602 1.378 . S
C604 C605 1.367 . S
C605 C604 1.367 . S
C605 C607 1.433 . S
C606 C602 1.350 . S
C606 C603 1.463 . S
C606 N610 1.427 . S
C607 H597 0.929 . S
C607 C605 1.433 . S
C607 N610 1.384 . S
C608 H599 0.929 . S
C608 C600 1.378 . S
C608 C603 1.350 . S
C609 H596 0.929 . S
C609 C601 1.433 . S
C609 N611 1.384 . S
N610 C606 1.427 . S
N610 C607 1.384 . S
N611 C603 1.427 . S
N611 C609 1.384 . S
H612 C618 0.930 . S
H613 C622 0.930 . S
H614 C627 0.929 . S
H615 C625 0.929 . S
H616 C620 0.929 . S
H617 C626 0.929 . S
C618 H612 0.930 . S
C618 C619 1.367 . S
C618 C626 1.378 . S
C619 C618 1.367 . S
C619 C627 1.433 . S
C620 H616 0.929 . S
C620 C622 1.378 . S
C620 C624 1.350 . S
C621 C624 1.463 . S
C621 C626 1.350 . S
C621 N629 1.427 . S
C622 H613 0.930 . S
C622 C620 1.378 . S
C622 C623 1.367 . S
C623 C622 1.367 . S
C623 C625 1.433 . S
C624 C620 1.350 . S
C624 C621 1.463 . S
C624 N628 1.427 . S
C625 H615 0.929 . S
C625 C623 1.433 . S
C625 N628 1.384 . S
C626 H617 0.929 . S
C626 C618 1.378 . S
C626 C621 1.350 . S
C627 H614 0.929 . S
C627 C619 1.433 . S
C627 N629 1.384 . S
N628 C624 1.427 . S
N628 C625 1.384 . S
N629 C621 1.427 . S
N629 C627 1.384 . S
H630 C636 0.930 . S
H631 C640 0.930 . S
H632 C645 0.929 . S
H633 C643 0.929 . S
H634 C638 0.929 . S
H635 C644 0.929 . S
C636 H630 0.930 . S
C636 C637 1.367 . S
C636 C644 1.378 . S
C637 C636 1.367 . S
C637 C645 1.433 . S
C638 H634 0.929 . S
C638 C640 1.378 . S
C638 C642 1.350 . S
C639 C642 1.463 . S
C639 C644 1.350 . S
C639 N647 1.427 . S
C640 H631 0.930 . S
C640 C638 1.378 . S
C640 C641 1.367 . S
C641 C640 1.367 . S
C641 C643 1.433 . S
C642 C638 1.350 . S
C642 C639 1.463 . S
C642 N646 1.427 . S
C643 H633 0.929 . S
C643 C641 1.433 . S
C643 N646 1.384 . S
C644 H635 0.929 . S
C644 C636 1.378 . S
C644 C639 1.350 . S
C645 H632 0.929 . S
C645 C637 1.433 . S
C645 N647 1.384 . S
N646 C642 1.427 . S
N646 C643 1.384 . S
N647 C639 1.427 . S
N647 C645 1.384 . S
H648 C654 0.930 . S
H649 C658 0.930 . S
H650 C663 0.929 . S
H651 C661 0.929 . S
H652 C656 0.929 . S
H653 C662 0.929 . S
C654 H648 0.930 . S
C654 C655 1.367 . S
C654 C662 1.378 . S
C655 C654 1.367 . S
C655 C663 1.433 . S
C656 H652 0.929 . S
C656 C658 1.378 . S
C656 C660 1.350 . S
C657 C660 1.463 . S
C657 C662 1.350 . S
C657 N665 1.427 . S
C658 H649 0.930 . S
C658 C656 1.378 . S
C658 C659 1.367 . S
C659 C658 1.367 . S
C659 C661 1.433 . S
C660 C656 1.350 . S
C660 C657 1.463 . S
C660 N664 1.427 . S
C661 H651 0.929 . S
C661 C659 1.433 . S
C661 N664 1.384 . S
C662 H653 0.929 . S
C662 C654 1.378 . S
C662 C657 1.350 . S
C663 H650 0.929 . S
C663 C655 1.433 . S
C663 N665 1.384 . S
N664 C660 1.427 . S
N664 C661 1.384 . S
N665 C657 1.427 . S
N665 C663 1.384 . S
H666 C672 0.930 . S
H667 C676 0.930 . S
H668 C681 0.929 . S
H669 C679 0.929 . S
H670 C674 0.929 . S
H671 C680 0.929 . S
C672 H666 0.930 . S
C672 C673 1.367 . S
C672 C680 1.378 . S
C673 C672 1.367 . S
C673 C681 1.433 . S
C674 H670 0.929 . S
C674 C676 1.378 . S
C674 C678 1.350 . S
C675 C678 1.463 . S
C675 C680 1.350 . S
C675 N683 1.427 . S
C676 H667 0.930 . S
C676 C674 1.378 . S
C676 C677 1.367 . S
C677 C676 1.367 . S
C677 C679 1.433 . S
C678 C674 1.350 . S
C678 C675 1.463 . S
C678 N682 1.427 . S
C679 H669 0.929 . S
C679 C677 1.433 . S
C679 N682 1.384 . S
C680 H671 0.929 . S
C680 C672 1.378 . S
C680 C675 1.350 . S
C681 H668 0.929 . S
C681 C673 1.433 . S
C681 N683 1.384 . S
N682 C678 1.427 . S
N682 C679 1.384 . S
N683 C675 1.427 . S
N683 C681 1.384 . S
H684 C690 0.930 . S
H685 C694 0.930 . S
H686 C699 0.929 . S
H687 C697 0.929 . S
H688 C692 0.929 . S
H689 C698 0.929 . S
C690 H684 0.930 . S
C690 C691 1.367 . S
C690 C698 1.378 . S
C691 C690 1.367 . S
C691 C699 1.433 . S
C692 H688 0.929 . S
C692 C694 1.378 . S
C692 C696 1.350 . S
C693 C696 1.463 . S
C693 C698 1.350 . S
C693 N701 1.427 . S
C694 H685 0.930 . S
C694 C692 1.378 . S
C694 C695 1.367 . S
C695 C694 1.367 . S
C695 C697 1.433 . S
C696 C692 1.350 . S
C696 C693 1.463 . S
C696 N700 1.427 . S
C697 H687 0.929 . S
C697 C695 1.433 . S
C697 N700 1.384 . S
C698 H689 0.929 . S
C698 C690 1.378 . S
C698 C693 1.350 . S
C699 H686 0.929 . S
C699 C691 1.433 . S
C699 N701 1.384 . S
N700 C696 1.427 . S
N700 C697 1.384 . S
N701 C693 1.427 . S
N701 C699 1.384 . S
H702 C708 0.930 . S
H703 C712 0.930 . S
H704 C717 0.929 . S
H705 C715 0.929 . S
H706 C710 0.929 . S
H707 C716 0.929 . S
C708 H702 0.930 . S
C708 C709 1.367 . S
C708 C716 1.378 . S
C709 C708 1.367 . S
C709 C717 1.433 . S
C710 H706 0.929 . S
C710 C712 1.378 . S
C710 C714 1.350 . S
C711 C714 1.463 . S
C711 C716 1.350 . S
C711 N719 1.427 . S
C712 H703 0.930 . S
C712 C710 1.378 . S
C712 C713 1.367 . S
C713 C712 1.367 . S
C713 C715 1.433 . S
C714 C710 1.350 . S
C714 C711 1.463 . S
C714 N718 1.427 . S
C715 H705 0.929 . S
C715 C713 1.433 . S
C715 N718 1.384 . S
C716 H707 0.929 . S
C716 C708 1.378 . S
C716 C711 1.350 . S
C717 H704 0.929 . S
C717 C709 1.433 . S
C717 N719 1.384 . S
N718 C714 1.427 . S
N718 C715 1.384 . S
N719 C711 1.427 . S
N719 C717 1.384 . S
H720 C726 0.930 . S
H721 C730 0.930 . S
H722 C735 0.929 . S
H723 C733 0.929 . S
H724 C728 0.929 . S
H725 C734 0.929 . S
C726 H720 0.930 . S
C726 C727 1.367 . S
C726 C734 1.378 . S
C727 C726 1.367 . S
C727 C735 1.433 . S
C728 H724 0.929 . S
C728 C730 1.378 . S
C728 C732 1.350 . S
C729 C732 1.463 . S
C729 C734 1.350 . S
C729 N737 1.427 . S
C730 H721 0.930 . S
C730 C728 1.378 . S
C730 C731 1.367 . S
C731 C730 1.367 . S
C731 C733 1.433 . S
C732 C728 1.350 . S
C732 C729 1.463 . S
C732 N736 1.427 . S
C733 H723 0.929 . S
C733 C731 1.433 . S
C733 N736 1.384 . S
C734 H725 0.929 . S
C734 C726 1.378 . S
C734 C729 1.350 . S
C735 H722 0.929 . S
C735 C727 1.433 . S
C735 N737 1.384 . S
N736 C732 1.427 . S
N736 C733 1.384 . S
N737 C729 1.427 . S
N737 C735 1.384 . S
H738 C744 0.930 . S
H739 C748 0.930 . S
H740 C753 0.929 . S
H741 C751 0.929 . S
H742 C746 0.929 . S
H743 C752 0.929 . S
C744 H738 0.930 . S
C744 C745 1.367 . S
C744 C752 1.378 . S
C745 C744 1.367 . S
C745 C753 1.433 . S
C746 H742 0.929 . S
C746 C748 1.378 . S
C746 C750 1.350 . S
C747 C750 1.463 . S
C747 C752 1.350 . S
C747 N755 1.427 . S
C748 H739 0.930 . S
C748 C746 1.378 . S
C748 C749 1.367 . S
C749 C748 1.367 . S
C749 C751 1.433 . S
C750 C746 1.350 . S
C750 C747 1.463 . S
C750 N754 1.427 . S
C751 H741 0.929 . S
C751 C749 1.433 . S
C751 N754 1.384 . S
C752 H743 0.929 . S
C752 C744 1.378 . S
C752 C747 1.350 . S
C753 H740 0.929 . S
C753 C745 1.433 . S
C753 N755 1.384 . S
N754 C750 1.427 . S
N754 C751 1.384 . S
N755 C747 1.427 . S
N755 C753 1.384 . S
H756 C762 0.930 . S
H757 C766 0.930 . S
H758 C771 0.929 . S
H759 C769 0.929 . S
H760 C764 0.929 . S
H761 C770 0.929 . S
C762 H756 0.930 . S
C762 C763 1.367 . S
C762 C770 1.378 . S
C763 C762 1.367 . S
C763 C771 1.433 . S
C764 H760 0.929 . S
C764 C766 1.378 . S
C764 C768 1.350 . S
C765 C768 1.463 . S
C765 C770 1.350 . S
C765 N773 1.427 . S
C766 H757 0.930 . S
C766 C764 1.378 . S
C766 C767 1.367 . S
C767 C766 1.367 . S
C767 C769 1.433 . S
C768 C764 1.350 . S
C768 C765 1.463 . S
C768 N772 1.427 . S
C769 H759 0.929 . S
C769 C767 1.433 . S
C769 N772 1.384 . S
C770 H761 0.929 . S
C770 C762 1.378 . S
C770 C765 1.350 . S
C771 H758 0.929 . S
C771 C763 1.433 . S
C771 N773 1.384 . S
N772 C768 1.427 . S
N772 C769 1.384 . S
N773 C765 1.427 . S
N773 C771 1.384 . S
H774 C780 0.930 . S
H775 C784 0.930 . S
H776 C789 0.929 . S
H777 C787 0.929 . S
H778 C782 0.929 . S
H779 C788 0.929 . S
C780 H774 0.930 . S
C780 C781 1.367 . S
C780 C788 1.378 . S
C781 C780 1.367 . S
C781 C789 1.433 . S
C782 H778 0.929 . S
C782 C784 1.378 . S
C782 C786 1.350 . S
C783 C786 1.463 . S
C783 C788 1.350 . S
C783 N791 1.427 . S
C784 H775 0.930 . S
C784 C782 1.378 . S
C784 C785 1.367 . S
C785 C784 1.367 . S
C785 C787 1.433 . S
C786 C782 1.350 . S
C786 C783 1.463 . S
C786 N790 1.427 . S
C787 H777 0.929 . S
C787 C785 1.433 . S
C787 N790 1.384 . S
C788 H779 0.929 . S
C788 C780 1.378 . S
C788 C783 1.350 . S
C789 H776 0.929 . S
C789 C781 1.433 . S
C789 N791 1.384 . S
N790 C786 1.427 . S
N790 C787 1.384 . S
N791 C783 1.427 . S
N791 C789 1.384 . S
H792 C798 0.930 . S
H793 C802 0.930 . S
H794 C807 0.929 . S
H795 C805 0.929 . S
H796 C800 0.929 . S
H797 C806 0.929 . S
C798 H792 0.930 . S
C798 C799 1.367 . S
C798 C806 1.378 . S
C799 C798 1.367 . S
C799 C807 1.433 . S
C800 H796 0.929 . S
C800 C802 1.378 . S
C800 C804 1.350 . S
C801 C804 1.463 . S
C801 C806 1.350 . S
C801 N809 1.427 . S
C802 H793 0.930 . S
C802 C800 1.378 . S
C802 C803 1.367 . S
C803 C802 1.367 . S
C803 C805 1.433 . S
C804 C800 1.350 . S
C804 C801 1.463 . S
C804 N808 1.427 . S
C805 H795 0.929 . S
C805 C803 1.433 . S
C805 N808 1.384 . S
C806 H797 0.929 . S
C806 C798 1.378 . S
C806 C801 1.350 . S
C807 H794 0.929 . S
C807 C799 1.433 . S
C807 N809 1.384 . S
N808 C804 1.427 . S
N808 C805 1.384 . S
N809 C801 1.427 . S
N809 C807 1.384 . S
H810 C816 0.930 . S
H811 C820 0.930 . S
H812 C825 0.929 . S
H813 C823 0.929 . S
H814 C818 0.929 . S
H815 C824 0.929 . S
C816 H810 0.930 . S
C816 C817 1.367 . S
C816 C824 1.378 . S
C817 C816 1.367 . S
C817 C825 1.433 . S
C818 H814 0.929 . S
C818 C820 1.378 . S
C818 C822 1.350 . S
C819 C822 1.463 . S
C819 C824 1.350 . S
C819 N827 1.427 . S
C820 H811 0.930 . S
C820 C818 1.378 . S
C820 C821 1.367 . S
C821 C820 1.367 . S
C821 C823 1.433 . S
C822 C818 1.350 . S
C822 C819 1.463 . S
C822 N826 1.427 . S
C823 H813 0.929 . S
C823 C821 1.433 . S
C823 N826 1.384 . S
C824 H815 0.929 . S
C824 C816 1.378 . S
C824 C819 1.350 . S
C825 H812 0.929 . S
C825 C817 1.433 . S
C825 N827 1.384 . S
N826 C822 1.427 . S
N826 C823 1.384 . S
N827 C819 1.427 . S
N827 C825 1.384 . S
H828 C834 0.930 . S
H829 C838 0.930 . S
H830 C843 0.929 . S
H831 C841 0.929 . S
H832 C836 0.929 1_556 S
H833 C842 0.929 1_554 S
C834 H828 0.930 . S
C834 C835 1.367 . S
C834 C842 1.378 . S
C835 C834 1.367 . S
C835 C843 1.433 . S
C836 H832 0.929 1_554 S
C836 C838 1.378 . S
C836 C840 1.350 . S
C837 C840 1.463 1_566 S
C837 C842 1.350 . S
C837 N845 1.411 1_565 S
C838 H829 0.930 . S
C838 C836 1.378 . S
C838 C839 1.367 . S
C839 C838 1.367 . S
C839 C841 1.433 . S
C840 C836 1.350 . S
C840 C837 1.463 1_544 S
C840 N844 1.411 1_545 S
C841 H831 0.929 . S
C841 C839 1.433 . S
C841 N844 1.354 1_545 S
C842 H833 0.929 1_556 S
C842 C834 1.378 . S
C842 C837 1.350 . S
C843 H830 0.929 . S
C843 C835 1.433 . S
C843 N845 1.354 1_565 S
N844 C840 1.411 1_565 S
N844 C841 1.354 1_565 S
N845 C837 1.411 1_545 S
N845 C843 1.354 1_545 S
H846 C852 0.930 . S
H847 C856 0.930 . S
H848 C861 0.929 . S
H849 C859 0.929 . S
H850 C854 0.883 1_655 S
H851 C860 0.883 1_455 S
C852 H846 0.930 . S
C852 C853 1.367 . S
C852 C860 1.431 . S
C853 C852 1.367 . S
C853 C861 1.433 . S
C854 H850 0.883 1_455 S
C854 C856 1.431 . S
C854 C858 1.352 . S
C855 C858 1.463 1_654 S
C855 C860 1.352 . S
C855 N863 1.427 . S
C856 H847 0.930 . S
C856 C854 1.431 . S
C856 C857 1.367 . S
C857 C856 1.367 . S
C857 C859 1.433 . S
C858 C854 1.352 . S
C858 C855 1.463 1_456 S
C858 N862 1.427 . S
C859 H849 0.929 . S
C859 C857 1.433 . S
C859 N862 1.384 . S
C860 H851 0.883 1_655 S
C860 C852 1.431 . S
C860 C855 1.352 . S
C861 H848 0.929 . S
C861 C853 1.433 . S
C861 N863 1.384 . S
N862 C858 1.427 . S
N862 C859 1.384 . S
N863 C855 1.427 . S
N863 C861 1.384 . S
H864 C870 0.930 . S
H865 C874 0.930 . S
H866 C879 0.929 . S
H867 C877 0.929 . S
H868 C872 0.929 1_556 S
H869 C878 0.929 1_554 S
C870 H864 0.930 . S
C870 C871 1.367 . S
C870 C878 1.378 . S
C871 C870 1.367 . S
C871 C879 1.433 . S
C872 H868 0.929 1_554 S
C872 C874 1.378 . S
C872 C876 1.350 . S
C873 C876 1.463 1_556 S
C873 C878 1.350 . S
C873 N881 1.427 . S
C874 H865 0.930 . S
C874 C872 1.378 . S
C874 C875 1.367 . S
C875 C874 1.367 . S
C875 C877 1.433 . S
C876 C872 1.350 . S
C876 C873 1.463 1_554 S
C876 N880 1.427 . S
C877 H867 0.929 . S
C877 C875 1.433 . S
C877 N880 1.384 . S
C878 H869 0.929 1_556 S
C878 C870 1.378 . S
C878 C873 1.350 . S
C879 H866 0.929 . S
C879 C871 1.433 . S
C879 N881 1.384 . S
N880 C876 1.427 . S
N880 C877 1.384 . S
N881 C873 1.427 . S
N881 C879 1.384 . S
H882 C888 0.930 . S
H883 C892 0.930 . S
H884 C897 0.929 . S
H885 C895 0.929 . S
H886 C890 0.929 1_556 S
H887 C896 0.929 1_554 S
C888 H882 0.930 . S
C888 C889 1.367 . S
C888 C896 1.378 . S
C889 C888 1.367 . S
C889 C897 1.433 . S
C890 H886 0.929 1_554 S
C890 C892 1.378 . S
C890 C894 1.350 . S
C891 C894 1.463 1_566 S
C891 C896 1.350 . S
C891 N899 1.427 . S
C892 H883 0.930 . S
C892 C890 1.378 . S
C892 C893 1.367 . S
C893 C892 1.367 . S
C893 C895 1.433 . S
C894 C890 1.350 . S
C894 C891 1.463 1_544 S
C894 N898 1.427 . S
C895 H885 0.929 . S
C895 C893 1.433 . S
C895 N898 1.384 . S
C896 H887 0.929 1_556 S
C896 C888 1.378 . S
C896 C891 1.350 . S
C897 H884 0.929 . S
C897 C889 1.433 . S
C897 N899 1.384 . S
N898 C894 1.427 . S
N898 C895 1.384 . S
N899 C891 1.427 . S
N899 C897 1.384 . S
H900 C906 0.930 . S
H901 C910 0.930 . S
H902 C915 0.929 . S
H903 C913 0.929 . S
H904 C908 0.929 . S
H905 C914 0.929 . S
C906 H900 0.930 . S
C906 C907 1.367 . S
C906 C914 1.378 . S
C907 C906 1.367 . S
C907 C915 1.433 . S
C908 H904 0.929 . S
C908 C910 1.378 . S
C908 C912 1.350 . S
C909 C912 1.463 1_456 S
C909 C914 1.350 . S
C909 N917 1.427 . S
C910 H901 0.930 . S
C910 C908 1.378 . S
C910 C911 1.367 . S
C911 C910 1.367 . S
C911 C913 1.433 . S
C912 C908 1.350 . S
C912 C909 1.463 1_654 S
C912 N916 1.427 . S
C913 H903 0.929 . S
C913 C911 1.433 . S
C913 N916 1.384 . S
C914 H905 0.929 . S
C914 C906 1.378 . S
C914 C909 1.350 . S
C915 H902 0.929 . S
C915 C907 1.433 . S
C915 N917 1.384 . S
N916 C912 1.427 . S
N916 C913 1.384 . S
N917 C909 1.427 . S
N917 C915 1.384 . S
H918 C924 0.930 . S
H919 C928 0.930 . S
H920 C933 0.929 . S
H921 C931 0.929 . S
H922 C926 0.929 . S
H923 C932 0.929 . S
C924 H918 0.930 . S
C924 C925 1.367 . S
C924 C932 1.378 . S
C925 C924 1.367 . S
C925 C933 1.433 . S
C926 H922 0.929 . S
C926 C928 1.378 . S
C926 C930 1.350 . S
C927 C930 1.463 1_554 S
C927 C932 1.350 . S
C927 N935 1.427 . S
C928 H919 0.930 . S
C928 C926 1.378 . S
C928 C929 1.367 . S
C929 C928 1.367 . S
C929 C931 1.433 . S
C930 C926 1.350 . S
C930 C927 1.463 1_556 S
C930 N934 1.427 . S
C931 H921 0.929 . S
C931 C929 1.433 . S
C931 N934 1.384 . S
C932 H923 0.929 . S
C932 C924 1.378 . S
C932 C927 1.350 . S
C933 H920 0.929 . S
C933 C925 1.433 . S
C933 N935 1.384 . S
N934 C930 1.427 . S
N934 C931 1.384 . S
N935 C927 1.427 . S
N935 C933 1.384 . S
H936 C942 0.930 . S
H937 C946 0.930 . S
H938 C951 0.929 . S
H939 C949 0.929 . S
H940 C944 0.929 . S
H941 C950 0.929 . S
C942 H936 0.930 . S
C942 C943 1.367 . S
C942 C950 1.378 . S
C943 C942 1.367 . S
C943 C951 1.433 . S
C944 H940 0.929 . S
C944 C946 1.378 . S
C944 C948 1.350 . S
C945 C948 1.463 . S
C945 C950 1.350 . S
C945 N953 1.427 . S
C946 H937 0.930 . S
C946 C944 1.378 . S
C946 C947 1.367 . S
C947 C946 1.367 . S
C947 C949 1.433 . S
C948 C944 1.350 . S
C948 C945 1.463 . S
C948 N952 1.427 . S
C949 H939 0.929 . S
C949 C947 1.433 . S
C949 N952 1.384 . S
C950 H941 0.929 . S
C950 C942 1.378 . S
C950 C945 1.350 . S
C951 H938 0.929 . S
C951 C943 1.433 . S
C951 N953 1.384 . S
N952 C948 1.427 . S
N952 C949 1.384 . S
N953 C945 1.427 . S
N953 C951 1.384 . S
H954 C960 0.930 . S
H955 C964 0.930 . S
H956 C969 0.929 . S
H957 C967 0.929 . S
H958 C962 0.929 . S
H959 C968 0.929 . S
C960 H954 0.930 . S
C960 C961 1.367 . S
C960 C968 1.378 . S
C961 C960 1.367 . S
C961 C969 1.433 . S
C962 H958 0.929 . S
C962 C964 1.378 . S
C962 C966 1.350 . S
C963 C966 1.463 . S
C963 C968 1.350 . S
C963 N971 1.427 . S
C964 H955 0.930 . S
C964 C962 1.378 . S
C964 C965 1.367 . S
C965 C964 1.367 . S
C965 C967 1.433 . S
C966 C962 1.350 . S
C966 C963 1.463 . S
C966 N970 1.427 . S
C967 H957 0.929 . S
C967 C965 1.433 . S
C967 N970 1.384 . S
C968 H959 0.929 . S
C968 C960 1.378 . S
C968 C963 1.350 . S
C969 H956 0.929 . S
C969 C961 1.433 . S
C969 N971 1.384 . S
N970 C966 1.427 . S
N970 C967 1.384 . S
N971 C963 1.427 . S
N971 C969 1.384 . S
H972 C978 0.930 . S
H973 C982 0.930 . S
H974 C987 0.929 . S
H975 C985 0.929 . S
H976 C980 0.929 . S
H977 C986 0.929 . S
C978 H972 0.930 . S
C978 C979 1.367 . S
C978 C986 1.378 . S
C979 C978 1.367 . S
C979 C987 1.433 . S
C980 H976 0.929 . S
C980 C982 1.378 . S
C980 C984 1.350 . S
C981 C984 1.463 . S
C981 C986 1.350 . S
C981 N989 1.427 . S
C982 H973 0.930 . S
C982 C980 1.378 . S
C982 C983 1.367 . S
C983 C982 1.367 . S
C983 C985 1.433 . S
C984 C980 1.350 . S
C984 C981 1.463 . S
C984 N988 1.427 . S
C985 H975 0.929 . S
C985 C983 1.433 . S
C985 N988 1.384 . S
C986 H977 0.929 . S
C986 C978 1.378 . S
C986 C981 1.350 . S
C987 H974 0.929 . S
C987 C979 1.433 . S
C987 N989 1.384 . S
N988 C984 1.427 . S
N988 C985 1.384 . S
N989 C981 1.427 . S
N989 C987 1.384 . S
H990 C996 0.930 . S
H991 C1000 0.930 . S
H992 C1005 0.929 . S
H993 C1003 0.929 . S
H994 C998 0.929 . S
H995 C1004 0.929 . S
C996 H990 0.930 . S
C996 C997 1.367 . S
C996 C1004 1.378 . S
C997 C996 1.367 . S
C997 C1005 1.433 . S
C998 H994 0.929 . S
C998 C1000 1.378 . S
C998 C1002 1.350 . S
C999 C1002 1.463 . S
C999 C1004 1.350 . S
C999 N1007 1.427 . S
C1000 H991 0.930 . S
C1000 C998 1.378 . S
C1000 C1001 1.367 . S
C1001 C1000 1.367 . S
C1001 C1003 1.433 . S
C1002 C998 1.350 . S
C1002 C999 1.463 . S
C1002 N1006 1.427 . S
C1003 H993 0.929 . S
C1003 C1001 1.433 . S
C1003 N1006 1.384 . S
C1004 H995 0.929 . S
C1004 C996 1.378 . S
C1004 C999 1.350 . S
C1005 H992 0.929 . S
C1005 C997 1.433 . S
C1005 N1007 1.384 . S
N1006 C1002 1.427 . S
N1006 C1003 1.384 . S
N1007 C999 1.427 . S
N1007 C1005 1.384 . S
H1008 C1014 0.930 . S
H1009 C1018 0.930 . S
H1010 C1023 0.929 . S
H1011 C1021 0.929 . S
H1012 C1016 0.929 . S
H1013 C1022 0.929 . S
C1014 H1008 0.930 . S
C1014 C1015 1.367 . S
C1014 C1022 1.378 . S
C1015 C1014 1.367 . S
C1015 C1023 1.433 . S
C1016 H1012 0.929 . S
C1016 C1018 1.378 . S
C1016 C1020 1.350 . S
C1017 C1020 1.463 . S
C1017 C1022 1.350 . S
C1017 N1025 1.427 . S
C1018 H1009 0.930 . S
C1018 C1016 1.378 . S
C1018 C1019 1.367 . S
C1019 C1018 1.367 . S
C1019 C1021 1.433 . S
C1020 C1016 1.350 . S
C1020 C1017 1.463 . S
C1020 N1024 1.427 . S
C1021 H1011 0.929 . S
C1021 C1019 1.433 . S
C1021 N1024 1.384 . S
C1022 H1013 0.929 . S
C1022 C1014 1.378 . S
C1022 C1017 1.350 . S
C1023 H1010 0.929 . S
C1023 C1015 1.433 . S
C1023 N1025 1.384 . S
N1024 C1020 1.427 . S
N1024 C1021 1.384 . S
N1025 C1017 1.427 . S
N1025 C1023 1.384 . S
H1026 C1032 0.930 . S
H1027 C1036 0.930 . S
H1028 C1041 0.929 . S
H1029 C1039 0.929 . S
H1030 C1034 0.929 . S
H1031 C1040 0.929 . S
C1032 H1026 0.930 . S
C1032 C1033 1.367 . S
C1032 C1040 1.378 . S
C1033 C1032 1.367 . S
C1033 C1041 1.433 . S
C1034 H1030 0.929 . S
C1034 C1036 1.378 . S
C1034 C1038 1.350 . S
C1035 C1038 1.463 . S
C1035 C1040 1.350 . S
C1035 N1043 1.427 . S
C1036 H1027 0.930 . S
C1036 C1034 1.378 . S
C1036 C1037 1.367 . S
C1037 C1036 1.367 . S
C1037 C1039 1.433 . S
C1038 C1034 1.350 . S
C1038 C1035 1.463 . S
C1038 N1042 1.427 . S
C1039 H1029 0.929 . S
C1039 C1037 1.433 . S
C1039 N1042 1.384 . S
C1040 H1031 0.929 . S
C1040 C1032 1.378 . S
C1040 C1035 1.350 . S
C1041 H1028 0.929 . S
C1041 C1033 1.433 . S
C1041 N1043 1.384 . S
N1042 C1038 1.427 . S
N1042 C1039 1.384 . S
N1043 C1035 1.427 . S
N1043 C1041 1.384 . S
H1044 C1050 0.930 . S
H1045 C1054 0.930 . S
H1046 C1059 0.929 . S
H1047 C1057 0.929 . S
H1048 C1052 0.929 . S
H1049 C1058 0.929 . S
C1050 H1044 0.930 . S
C1050 C1051 1.367 . S
C1050 C1058 1.378 . S
C1051 C1050 1.367 . S
C1051 C1059 1.433 . S
C1052 H1048 0.929 . S
C1052 C1054 1.378 . S
C1052 C1056 1.350 . S
C1053 C1056 1.463 . S
C1053 C1058 1.350 . S
C1053 N1061 1.427 . S
C1054 H1045 0.930 . S
C1054 C1052 1.378 . S
C1054 C1055 1.367 . S
C1055 C1054 1.367 . S
C1055 C1057 1.433 . S
C1056 C1052 1.350 . S
C1056 C1053 1.463 . S
C1056 N1060 1.427 . S
C1057 H1047 0.929 . S
C1057 C1055 1.433 . S
C1057 N1060 1.384 . S
C1058 H1049 0.929 . S
C1058 C1050 1.378 . S
C1058 C1053 1.350 . S
C1059 H1046 0.929 . S
C1059 C1051 1.433 . S
C1059 N1061 1.384 . S
N1060 C1056 1.427 . S
N1060 C1057 1.384 . S
N1061 C1053 1.427 . S
N1061 C1059 1.384 . S
H1062 C1068 0.930 . S
H1063 C1072 0.930 . S
H1064 C1077 0.929 . S
H1065 C1075 0.929 . S
H1066 C1070 0.929 . S
H1067 C1076 0.929 . S
C1068 H1062 0.930 . S
C1068 C1069 1.367 . S
C1068 C1076 1.378 . S
C1069 C1068 1.367 . S
C1069 C1077 1.433 . S
C1070 H1066 0.929 . S
C1070 C1072 1.378 . S
C1070 C1074 1.350 . S
C1071 C1074 1.463 . S
C1071 C1076 1.350 . S
C1071 N1079 1.427 . S
C1072 H1063 0.930 . S
C1072 C1070 1.378 . S
C1072 C1073 1.367 . S
C1073 C1072 1.367 . S
C1073 C1075 1.433 . S
C1074 C1070 1.350 . S
C1074 C1071 1.463 . S
C1074 N1078 1.427 . S
C1075 H1065 0.929 . S
C1075 C1073 1.433 . S
C1075 N1078 1.384 . S
C1076 H1067 0.929 . S
C1076 C1068 1.378 . S
C1076 C1071 1.350 . S
C1077 H1064 0.929 . S
C1077 C1069 1.433 . S
C1077 N1079 1.384 . S
N1078 C1074 1.427 . S
N1078 C1075 1.384 . S
N1079 C1071 1.427 . S
N1079 C1077 1.384 . S
H1080 C1086 0.930 . S
H1081 C1090 0.930 . S
H1082 C1095 0.929 . S
H1083 C1093 0.929 . S
H1084 C1088 0.929 . S
H1085 C1094 0.929 . S
C1086 H1080 0.930 . S
C1086 C1087 1.367 . S
C1086 C1094 1.378 . S
C1087 C1086 1.367 . S
C1087 C1095 1.433 . S
C1088 H1084 0.929 . S
C1088 C1090 1.378 . S
C1088 C1092 1.350 . S
C1089 C1092 1.463 . S
C1089 C1094 1.350 . S
C1089 N1097 1.427 . S
C1090 H1081 0.930 . S
C1090 C1088 1.378 . S
C1090 C1091 1.367 . S
C1091 C1090 1.367 . S
C1091 C1093 1.433 . S
C1092 C1088 1.350 . S
C1092 C1089 1.463 . S
C1092 N1096 1.427 . S
C1093 H1083 0.929 . S
C1093 C1091 1.433 . S
C1093 N1096 1.384 . S
C1094 H1085 0.929 . S
C1094 C1086 1.378 . S
C1094 C1089 1.350 . S
C1095 H1082 0.929 . S
C1095 C1087 1.433 . S
C1095 N1097 1.384 . S
N1096 C1092 1.427 . S
N1096 C1093 1.384 . S
N1097 C1089 1.427 . S
N1097 C1095 1.384 . S
H1098 C1104 0.930 . S
H1099 C1108 0.930 . S
H1100 C1113 0.929 . S
H1101 C1111 0.929 . S
H1102 C1106 0.929 . S
H1103 C1112 0.929 . S
C1104 H1098 0.930 . S
C1104 C1105 1.367 . S
C1104 C1112 1.378 . S
C1105 C1104 1.367 . S
C1105 C1113 1.433 . S
C1106 H1102 0.929 . S
C1106 C1108 1.378 . S
C1106 C1110 1.350 . S
C1107 C1110 1.463 . S
C1107 C1112 1.350 . S
C1107 N1115 1.427 . S
C1108 H1099 0.930 . S
C1108 C1106 1.378 . S
C1108 C1109 1.367 . S
C1109 C1108 1.367 . S
C1109 C1111 1.433 . S
C1110 C1106 1.350 . S
C1110 C1107 1.463 . S
C1110 N1114 1.427 . S
C1111 H1101 0.929 . S
C1111 C1109 1.433 . S
C1111 N1114 1.384 . S
C1112 H1103 0.929 . S
C1112 C1104 1.378 . S
C1112 C1107 1.350 . S
C1113 H1100 0.929 . S
C1113 C1105 1.433 . S
C1113 N1115 1.384 . S
N1114 C1110 1.427 . S
N1114 C1111 1.384 . S
N1115 C1107 1.427 . S
N1115 C1113 1.384 . S
H1116 C1122 0.930 . S
H1117 C1126 0.930 . S
H1118 C1131 0.929 . S
H1119 C1129 0.929 . S
H1120 C1124 0.929 . S
H1121 C1130 0.929 . S
C1122 H1116 0.930 . S
C1122 C1123 1.367 . S
C1122 C1130 1.378 . S
C1123 C1122 1.367 . S
C1123 C1131 1.433 . S
C1124 H1120 0.929 . S
C1124 C1126 1.378 . S
C1124 C1128 1.350 . S
C1125 C1128 1.463 . S
C1125 C1130 1.350 . S
C1125 N1133 1.427 . S
C1126 H1117 0.930 . S
C1126 C1124 1.378 . S
C1126 C1127 1.367 . S
C1127 C1126 1.367 . S
C1127 C1129 1.433 . S
C1128 C1124 1.350 . S
C1128 C1125 1.463 . S
C1128 N1132 1.427 . S
C1129 H1119 0.929 . S
C1129 C1127 1.433 . S
C1129 N1132 1.384 . S
C1130 H1121 0.929 . S
C1130 C1122 1.378 . S
C1130 C1125 1.350 . S
C1131 H1118 0.929 . S
C1131 C1123 1.433 . S
C1131 N1133 1.384 . S
N1132 C1128 1.427 . S
N1132 C1129 1.384 . S
N1133 C1125 1.427 . S
N1133 C1131 1.384 . S
H1134 C1140 0.930 . S
H1135 C1144 0.930 . S
H1136 C1149 0.929 . S
H1137 C1147 0.929 . S
H1138 C1142 0.929 . S
H1139 C1148 0.929 . S
C1140 H1134 0.930 . S
C1140 C1141 1.367 . S
C1140 C1148 1.378 . S
C1141 C1140 1.367 . S
C1141 C1149 1.433 . S
C1142 H1138 0.929 . S
C1142 C1144 1.378 . S
C1142 C1146 1.350 . S
C1143 C1146 1.463 . S
C1143 C1148 1.350 . S
C1143 N1151 1.427 . S
C1144 H1135 0.930 . S
C1144 C1142 1.378 . S
C1144 C1145 1.367 . S
C1145 C1144 1.367 . S
C1145 C1147 1.433 . S
C1146 C1142 1.350 . S
C1146 C1143 1.463 . S
C1146 N1150 1.427 . S
C1147 H1137 0.929 . S
C1147 C1145 1.433 . S
C1147 N1150 1.384 . S
C1148 H1139 0.929 . S
C1148 C1140 1.378 . S
C1148 C1143 1.350 . S
C1149 H1136 0.929 . S
C1149 C1141 1.433 . S
C1149 N1151 1.384 . S
N1150 C1146 1.427 . S
N1150 C1147 1.384 . S
N1151 C1143 1.427 . S
N1151 C1149 1.384 . S
H1152 C1158 0.930 . S
H1153 C1162 0.930 . S
H1154 C1167 0.929 . S
H1155 C1165 0.929 . S
H1156 C1160 0.929 . S
H1157 C1166 0.929 . S
C1158 H1152 0.930 . S
C1158 C1159 1.367 . S
C1158 C1166 1.378 . S
C1159 C1158 1.367 . S
C1159 C1167 1.433 . S
C1160 H1156 0.929 . S
C1160 C1162 1.378 . S
C1160 C1164 1.350 . S
C1161 C1164 1.463 . S
C1161 C1166 1.350 . S
C1161 N1169 1.427 . S
C1162 H1153 0.930 . S
C1162 C1160 1.378 . S
C1162 C1163 1.367 . S
C1163 C1162 1.367 . S
C1163 C1165 1.433 . S
C1164 C1160 1.350 . S
C1164 C1161 1.463 . S
C1164 N1168 1.427 . S
C1165 H1155 0.929 . S
C1165 C1163 1.433 . S
C1165 N1168 1.384 . S
C1166 H1157 0.929 . S
C1166 C1158 1.378 . S
C1166 C1161 1.350 . S
C1167 H1154 0.929 . S
C1167 C1159 1.433 . S
C1167 N1169 1.384 . S
N1168 C1164 1.427 . S
N1168 C1165 1.384 . S
N1169 C1161 1.427 . S
N1169 C1167 1.384 . S
H1170 C1176 0.930 . S
H1171 C1180 0.930 . S
H1172 C1185 0.929 . S
H1173 C1183 0.929 . S
H1174 C1178 0.929 . S
H1175 C1184 0.929 . S
C1176 H1170 0.930 . S
C1176 C1177 1.367 . S
C1176 C1184 1.378 . S
C1177 C1176 1.367 . S
C1177 C1185 1.433 . S
C1178 H1174 0.929 . S
C1178 C1180 1.378 . S
C1178 C1182 1.350 . S
C1179 C1182 1.463 . S
C1179 C1184 1.350 . S
C1179 N1187 1.427 . S
C1180 H1171 0.930 . S
C1180 C1178 1.378 . S
C1180 C1181 1.367 . S
C1181 C1180 1.367 . S
C1181 C1183 1.433 . S
C1182 C1178 1.350 . S
C1182 C1179 1.463 . S
C1182 N1186 1.427 . S
C1183 H1173 0.929 . S
C1183 C1181 1.433 . S
C1183 N1186 1.384 . S
C1184 H1175 0.929 . S
C1184 C1176 1.378 . S
C1184 C1179 1.350 . S
C1185 H1172 0.929 . S
C1185 C1177 1.433 . S
C1185 N1187 1.384 . S
N1186 C1182 1.427 . S
N1186 C1183 1.384 . S
N1187 C1179 1.427 . S
N1187 C1185 1.384 . S
H1188 C1194 0.930 . S
H1189 C1198 0.930 . S
H1190 C1203 0.929 . S
H1191 C1201 0.929 . S
H1192 C1196 0.929 . S
H1193 C1202 0.929 . S
C1194 H1188 0.930 . S
C1194 C1195 1.367 . S
C1194 C1202 1.378 . S
C1195 C1194 1.367 . S
C1195 C1203 1.433 . S
C1196 H1192 0.929 . S
C1196 C1198 1.378 . S
C1196 C1200 1.350 . S
C1197 C1200 1.463 . S
C1197 C1202 1.350 . S
C1197 N1205 1.427 . S
C1198 H1189 0.930 . S
C1198 C1196 1.378 . S
C1198 C1199 1.367 . S
C1199 C1198 1.367 . S
C1199 C1201 1.433 . S
C1200 C1196 1.350 . S
C1200 C1197 1.463 . S
C1200 N1204 1.427 . S
C1201 H1191 0.929 . S
C1201 C1199 1.433 . S
C1201 N1204 1.384 . S
C1202 H1193 0.929 . S
C1202 C1194 1.378 . S
C1202 C1197 1.350 . S
C1203 H1190 0.929 . S
C1203 C1195 1.433 . S
C1203 N1205 1.384 . S
N1204 C1200 1.427 . S
N1204 C1201 1.384 . S
N1205 C1197 1.427 . S
N1205 C1203 1.384 . S
H1206 C1212 0.930 . S
H1207 C1216 0.930 . S
H1208 C1221 0.929 . S
H1209 C1219 0.929 . S
H1210 C1214 0.929 . S
H1211 C1220 0.929 . S
C1212 H1206 0.930 . S
C1212 C1213 1.367 . S
C1212 C1220 1.378 . S
C1213 C1212 1.367 . S
C1213 C1221 1.433 . S
C1214 H1210 0.929 . S
C1214 C1216 1.378 . S
C1214 C1218 1.350 . S
C1215 C1218 1.463 . S
C1215 C1220 1.350 . S
C1215 N1223 1.427 . S
C1216 H1207 0.930 . S
C1216 C1214 1.378 . S
C1216 C1217 1.367 . S
C1217 C1216 1.367 . S
C1217 C1219 1.433 . S
C1218 C1214 1.350 . S
C1218 C1215 1.463 . S
C1218 N1222 1.427 . S
C1219 H1209 0.929 . S
C1219 C1217 1.433 . S
C1219 N1222 1.384 . S
C1220 H1211 0.929 . S
C1220 C1212 1.378 . S
C1220 C1215 1.350 . S
C1221 H1208 0.929 . S
C1221 C1213 1.433 . S
C1221 N1223 1.384 . S
N1222 C1218 1.427 . S
N1222 C1219 1.384 . S
N1223 C1215 1.427 . S
N1223 C1221 1.384 . S
H1224 C1230 0.930 . S
H1225 C1234 0.930 . S
H1226 C1239 0.929 . S
H1227 C1237 0.929 . S
H1228 C1232 0.929 . S
H1229 C1238 0.929 . S
C1230 H1224 0.930 . S
C1230 C1231 1.367 . S
C1230 C1238 1.378 . S
C1231 C1230 1.367 . S
C1231 C1239 1.433 . S
C1232 H1228 0.929 . S
C1232 C1234 1.378 . S
C1232 C1236 1.350 . S
C1233 C1236 1.463 . S
C1233 C1238 1.350 . S
C1233 N1241 1.427 . S
C1234 H1225 0.930 . S
C1234 C1232 1.378 . S
C1234 C1235 1.367 . S
C1235 C1234 1.367 . S
C1235 C1237 1.433 . S
C1236 C1232 1.350 . S
C1236 C1233 1.463 . S
C1236 N1240 1.427 . S
C1237 H1227 0.929 . S
C1237 C1235 1.433 . S
C1237 N1240 1.384 . S
C1238 H1229 0.929 . S
C1238 C1230 1.378 . S
C1238 C1233 1.350 . S
C1239 H1226 0.929 . S
C1239 C1231 1.433 . S
C1239 N1241 1.384 . S
N1240 C1236 1.427 . S
N1240 C1237 1.384 . S
N1241 C1233 1.427 . S
N1241 C1239 1.384 . S
H1242 C1248 0.930 . S
H1243 C1252 0.930 . S
H1244 C1257 0.929 . S
H1245 C1255 0.929 . S
H1246 C1250 0.929 . S
H1247 C1256 0.929 . S
C1248 H1242 0.930 . S
C1248 C1249 1.367 . S
C1248 C1256 1.378 . S
C1249 C1248 1.367 . S
C1249 C1257 1.433 . S
C1250 H1246 0.929 . S
C1250 C1252 1.378 . S
C1250 C1254 1.350 . S
C1251 C1254 1.463 . S
C1251 C1256 1.350 . S
C1251 N1259 1.427 . S
C1252 H1243 0.930 . S
C1252 C1250 1.378 . S
C1252 C1253 1.367 . S
C1253 C1252 1.367 . S
C1253 C1255 1.433 . S
C1254 C1250 1.350 . S
C1254 C1251 1.463 . S
C1254 N1258 1.427 . S
C1255 H1245 0.929 . S
C1255 C1253 1.433 . S
C1255 N1258 1.384 . S
C1256 H1247 0.929 . S
C1256 C1248 1.378 . S
C1256 C1251 1.350 . S
C1257 H1244 0.929 . S
C1257 C1249 1.433 . S
C1257 N1259 1.384 . S
N1258 C1254 1.427 . S
N1258 C1255 1.384 . S
N1259 C1251 1.427 . S
N1259 C1257 1.384 . S
H1260 C1266 0.930 . S
H1261 C1270 0.930 . S
H1262 C1275 0.929 . S
H1263 C1273 0.929 . S
H1264 C1268 0.929 . S
H1265 C1274 0.929 . S
C1266 H1260 0.930 . S
C1266 C1267 1.367 . S
C1266 C1274 1.378 . S
C1267 C1266 1.367 . S
C1267 C1275 1.433 . S
C1268 H1264 0.929 . S
C1268 C1270 1.378 . S
C1268 C1272 1.350 . S
C1269 C1272 1.463 . S
C1269 C1274 1.350 . S
C1269 N1277 1.427 . S
C1270 H1261 0.930 . S
C1270 C1268 1.378 . S
C1270 C1271 1.367 . S
C1271 C1270 1.367 . S
C1271 C1273 1.433 . S
C1272 C1268 1.350 . S
C1272 C1269 1.463 . S
C1272 N1276 1.427 . S
C1273 H1263 0.929 . S
C1273 C1271 1.433 . S
C1273 N1276 1.384 . S
C1274 H1265 0.929 . S
C1274 C1266 1.378 . S
C1274 C1269 1.350 . S
C1275 H1262 0.929 . S
C1275 C1267 1.433 . S
C1275 N1277 1.384 . S
N1276 C1272 1.427 . S
N1276 C1273 1.384 . S
N1277 C1269 1.427 . S
N1277 C1275 1.384 . S
H1278 C1284 0.930 . S
H1279 C1288 0.930 . S
H1280 C1293 0.929 . S
H1281 C1291 0.929 . S
H1282 C1286 0.929 . S
H1283 C1292 0.929 . S
C1284 H1278 0.930 . S
C1284 C1285 1.367 . S
C1284 C1292 1.378 . S
C1285 C1284 1.367 . S
C1285 C1293 1.433 . S
C1286 H1282 0.929 . S
C1286 C1288 1.378 . S
C1286 C1290 1.350 . S
C1287 C1290 1.463 . S
C1287 C1292 1.350 . S
C1287 N1295 1.427 . S
C1288 H1279 0.930 . S
C1288 C1286 1.378 . S
C1288 C1289 1.367 . S
C1289 C1288 1.367 . S
C1289 C1291 1.433 . S
C1290 C1286 1.350 . S
C1290 C1287 1.463 . S
C1290 N1294 1.427 . S
C1291 H1281 0.929 . S
C1291 C1289 1.433 . S
C1291 N1294 1.384 . S
C1292 H1283 0.929 . S
C1292 C1284 1.378 . S
C1292 C1287 1.350 . S
C1293 H1280 0.929 . S
C1293 C1285 1.433 . S
C1293 N1295 1.384 . S
N1294 C1290 1.427 . S
N1294 C1291 1.384 . S
N1295 C1287 1.427 . S
N1295 C1293 1.384 . S
H1296 C1302 0.930 . S
H1297 C1306 0.930 . S
H1298 C1311 0.929 . S
H1299 C1309 0.929 . S
H1300 C1304 0.929 . S
H1301 C1310 0.929 . S
C1302 H1296 0.930 . S
C1302 C1303 1.367 . S
C1302 C1310 1.378 . S
C1303 C1302 1.367 . S
C1303 C1311 1.433 . S
C1304 H1300 0.929 . S
C1304 C1306 1.378 . S
C1304 C1308 1.350 . S
C1305 C1308 1.463 . S
C1305 C1310 1.350 . S
C1305 N1313 1.427 . S
C1306 H1297 0.930 . S
C1306 C1304 1.378 . S
C1306 C1307 1.367 . S
C1307 C1306 1.367 . S
C1307 C1309 1.433 . S
C1308 C1304 1.350 . S
C1308 C1305 1.463 . S
C1308 N1312 1.427 . S
C1309 H1299 0.929 . S
C1309 C1307 1.433 . S
C1309 N1312 1.384 . S
C1310 H1301 0.929 . S
C1310 C1302 1.378 . S
C1310 C1305 1.350 . S
C1311 H1298 0.929 . S
C1311 C1303 1.433 . S
C1311 N1313 1.384 . S
N1312 C1308 1.427 . S
N1312 C1309 1.384 . S
N1313 C1305 1.427 . S
N1313 C1311 1.384 . S
H1314 C1320 0.930 . S
H1315 C1324 0.930 . S
H1316 C1329 0.929 . S
H1317 C1327 0.929 . S
H1318 C1322 0.929 . S
H1319 C1328 0.929 . S
C1320 H1314 0.930 . S
C1320 C1321 1.367 . S
C1320 C1328 1.378 . S
C1321 C1320 1.367 . S
C1321 C1329 1.433 . S
C1322 H1318 0.929 . S
C1322 C1324 1.378 . S
C1322 C1326 1.350 . S
C1323 C1326 1.463 . S
C1323 C1328 1.350 . S
C1323 N1331 1.427 . S
C1324 H1315 0.930 . S
C1324 C1322 1.378 . S
C1324 C1325 1.367 . S
C1325 C1324 1.367 . S
C1325 C1327 1.433 . S
C1326 C1322 1.350 . S
C1326 C1323 1.463 . S
C1326 N1330 1.427 . S
C1327 H1317 0.929 . S
C1327 C1325 1.433 . S
C1327 N1330 1.384 . S
C1328 H1319 0.929 . S
C1328 C1320 1.378 . S
C1328 C1323 1.350 . S
C1329 H1316 0.929 . S
C1329 C1321 1.433 . S
C1329 N1331 1.384 . S
N1330 C1326 1.427 . S
N1330 C1327 1.384 . S
N1331 C1323 1.427 . S
N1331 C1329 1.384 . S
H1332 C1338 0.930 . S
H1333 C1342 0.930 . S
H1334 C1347 0.929 . S
H1335 C1345 0.929 . S
H1336 C1340 0.929 . S
H1337 C1346 0.929 . S
C1338 H1332 0.930 . S
C1338 C1339 1.367 . S
C1338 C1346 1.378 . S
C1339 C1338 1.367 . S
C1339 C1347 1.433 . S
C1340 H1336 0.929 . S
C1340 C1342 1.378 . S
C1340 C1344 1.350 . S
C1341 C1344 1.463 . S
C1341 C1346 1.350 . S
C1341 N1349 1.427 . S
C1342 H1333 0.930 . S
C1342 C1340 1.378 . S
C1342 C1343 1.367 . S
C1343 C1342 1.367 . S
C1343 C1345 1.433 . S
C1344 C1340 1.350 . S
C1344 C1341 1.463 . S
C1344 N1348 1.427 . S
C1345 H1335 0.929 . S
C1345 C1343 1.433 . S
C1345 N1348 1.384 . S
C1346 H1337 0.929 . S
C1346 C1338 1.378 . S
C1346 C1341 1.350 . S
C1347 H1334 0.929 . S
C1347 C1339 1.433 . S
C1347 N1349 1.384 . S
N1348 C1344 1.427 . S
N1348 C1345 1.384 . S
N1349 C1341 1.427 . S
N1349 C1347 1.384 . S
H1350 C1356 0.930 . S
H1351 C1360 0.930 . S
H1352 C1365 0.929 . S
H1353 C1363 0.929 . S
H1354 C1358 0.929 . S
H1355 C1364 0.929 . S
C1356 H1350 0.930 . S
C1356 C1357 1.367 . S
C1356 C1364 1.378 . S
C1357 C1356 1.367 . S
C1357 C1365 1.433 . S
C1358 H1354 0.929 . S
C1358 C1360 1.378 . S
C1358 C1362 1.350 . S
C1359 C1362 1.463 . S
C1359 C1364 1.350 . S
C1359 N1367 1.427 . S
C1360 H1351 0.930 . S
C1360 C1358 1.378 . S
C1360 C1361 1.367 . S
C1361 C1360 1.367 . S
C1361 C1363 1.433 . S
C1362 C1358 1.350 . S
C1362 C1359 1.463 . S
C1362 N1366 1.427 . S
C1363 H1353 0.929 . S
C1363 C1361 1.433 . S
C1363 N1366 1.384 . S
C1364 H1355 0.929 . S
C1364 C1356 1.378 . S
C1364 C1359 1.350 . S
C1365 H1352 0.929 . S
C1365 C1357 1.433 . S
C1365 N1367 1.384 . S
N1366 C1362 1.427 . S
N1366 C1363 1.384 . S
N1367 C1359 1.427 . S
N1367 C1365 1.384 . S
H1368 C1374 0.930 . S
H1369 C1378 0.930 . S
H1370 C1383 0.929 . S
H1371 C1381 0.929 . S
H1372 C1376 0.929 . S
H1373 C1382 0.929 . S
C1374 H1368 0.930 . S
C1374 C1375 1.367 . S
C1374 C1382 1.378 . S
C1375 C1374 1.367 . S
C1375 C1383 1.433 . S
C1376 H1372 0.929 . S
C1376 C1378 1.378 . S
C1376 C1380 1.350 . S
C1377 C1380 1.463 1_455 S
C1377 C1382 1.350 . S
C1377 N1385 1.427 . S
C1378 H1369 0.930 . S
C1378 C1376 1.378 . S
C1378 C1379 1.367 . S
C1379 C1378 1.367 . S
C1379 C1381 1.433 . S
C1380 C1376 1.350 . S
C1380 C1377 1.463 1_655 S
C1380 N1384 1.427 . S
C1381 H1371 0.929 . S
C1381 C1379 1.433 . S
C1381 N1384 1.384 . S
C1382 H1373 0.929 . S
C1382 C1374 1.378 . S
C1382 C1377 1.350 . S
C1383 H1370 0.929 . S
C1383 C1375 1.433 . S
C1383 N1385 1.384 . S
N1384 C1380 1.427 . S
N1384 C1381 1.384 . S
N1385 C1377 1.427 . S
N1385 C1383 1.384 . S
H1386 C1392 0.930 . S
H1387 C1396 0.930 . S
H1388 C1401 0.929 . S
H1389 C1399 0.929 . S
H1390 C1394 0.929 . S
H1391 C1400 0.929 . S
C1392 H1386 0.930 . S
C1392 C1393 1.367 . S
C1392 C1400 1.378 . S
C1393 C1392 1.367 . S
C1393 C1401 1.433 . S
C1394 H1390 0.929 . S
C1394 C1396 1.378 . S
C1394 C1398 1.350 . S
C1395 C1398 1.463 . S
C1395 C1400 1.350 . S
C1395 N1403 1.427 . S
C1396 H1387 0.930 . S
C1396 C1394 1.378 . S
C1396 C1397 1.367 . S
C1397 C1396 1.367 . S
C1397 C1399 1.433 . S
C1398 C1394 1.350 . S
C1398 C1395 1.463 . S
C1398 N1402 1.427 . S
C1399 H1389 0.929 . S
C1399 C1397 1.433 . S
C1399 N1402 1.384 . S
C1400 H1391 0.929 . S
C1400 C1392 1.378 . S
C1400 C1395 1.350 . S
C1401 H1388 0.929 . S
C1401 C1393 1.433 . S
C1401 N1403 1.384 . S
N1402 C1398 1.427 . S
N1402 C1399 1.384 . S
N1403 C1395 1.427 . S
N1403 C1401 1.384 . S
H1404 C1410 0.930 . S
H1405 C1414 0.930 . S
H1406 C1419 0.929 . S
H1407 C1417 0.929 . S
H1408 C1412 0.929 . S
H1409 C1418 0.929 . S
C1410 H1404 0.930 . S
C1410 C1411 1.367 . S
C1410 C1418 1.378 . S
C1411 C1410 1.367 . S
C1411 C1419 1.433 . S
C1412 H1408 0.929 . S
C1412 C1414 1.378 . S
C1412 C1416 1.350 . S
C1413 C1416 1.463 1_545 S
C1413 C1418 1.350 . S
C1413 N1421 1.427 . S
C1414 H1405 0.930 . S
C1414 C1412 1.378 . S
C1414 C1415 1.367 . S
C1415 C1414 1.367 . S
C1415 C1417 1.433 . S
C1416 C1412 1.350 . S
C1416 C1413 1.463 1_565 S
C1416 N1420 1.427 . S
C1417 H1407 0.929 . S
C1417 C1415 1.433 . S
C1417 N1420 1.384 . S
C1418 H1409 0.929 . S
C1418 C1410 1.378 . S
C1418 C1413 1.350 . S
C1419 H1406 0.929 . S
C1419 C1411 1.433 . S
C1419 N1421 1.384 . S
N1420 C1416 1.427 . S
N1420 C1417 1.384 . S
N1421 C1413 1.427 . S
N1421 C1419 1.384 . S
H1422 C1428 0.930 . S
H1423 C1432 0.930 . S
H1424 C1437 0.929 . S
H1425 C1435 0.929 . S
H1426 C1430 0.929 . S
H1427 C1436 0.929 . S
C1428 H1422 0.930 . S
C1428 C1429 1.367 . S
C1428 C1436 1.378 . S
C1429 C1428 1.367 . S
C1429 C1437 1.433 . S
C1430 H1426 0.929 . S
C1430 C1432 1.378 . S
C1430 C1434 1.350 . S
C1431 C1434 1.463 1_545 S
C1431 C1436 1.350 . S
C1431 N1439 1.427 . S
C1432 H1423 0.930 . S
C1432 C1430 1.378 . S
C1432 C1433 1.367 . S
C1433 C1432 1.367 . S
C1433 C1435 1.433 . S
C1434 C1430 1.350 . S
C1434 C1431 1.463 1_565 S
C1434 N1438 1.427 . S
C1435 H1425 0.929 . S
C1435 C1433 1.433 . S
C1435 N1438 1.384 . S
C1436 H1427 0.929 . S
C1436 C1428 1.378 . S
C1436 C1431 1.350 . S
C1437 H1424 0.929 . S
C1437 C1429 1.433 . S
C1437 N1439 1.384 . S
N1438 C1434 1.427 . S
N1438 C1435 1.384 . S
N1439 C1431 1.427 . S
N1439 C1437 1.384 . S
H1440 C1446 0.930 . S
H1441 C1450 0.930 . S
H1442 C1455 0.929 . S
H1443 C1453 0.929 . S
H1444 C1448 0.929 . S
H1445 C1454 0.929 . S
C1446 H1440 0.930 . S
C1446 C1447 1.367 . S
C1446 C1454 1.378 . S
C1447 C1446 1.367 . S
C1447 C1455 1.433 . S
C1448 H1444 0.929 . S
C1448 C1450 1.378 . S
C1448 C1452 1.350 . S
C1449 C1452 1.463 1_655 S
C1449 C1454 1.350 . S
C1449 N1457 1.427 . S
C1450 H1441 0.930 . S
C1450 C1448 1.378 . S
C1450 C1451 1.367 . S
C1451 C1450 1.367 . S
C1451 C1453 1.433 . S
C1452 C1448 1.350 . S
C1452 C1449 1.463 1_455 S
C1452 N1456 1.427 . S
C1453 H1443 0.929 . S
C1453 C1451 1.433 . S
C1453 N1456 1.384 . S
C1454 H1445 0.929 . S
C1454 C1446 1.378 . S
C1454 C1449 1.350 . S
C1455 H1442 0.929 . S
C1455 C1447 1.433 . S
C1455 N1457 1.384 . S
N1456 C1452 1.427 . S
N1456 C1453 1.384 . S
N1457 C1449 1.427 . S
N1457 C1455 1.384 . S
H1458 C1464 0.930 . S
H1459 C1468 0.930 . S
H1460 C1473 0.929 . S
H1461 C1471 0.929 . S
H1462 C1466 0.929 . S
H1463 C1472 0.929 . S
C1464 H1458 0.930 . S
C1464 C1465 1.367 . S
C1464 C1472 1.378 . S
C1465 C1464 1.367 . S
C1465 C1473 1.433 . S
C1466 H1462 0.929 . S
C1466 C1468 1.378 . S
C1466 C1470 1.350 . S
C1467 C1470 1.463 . S
C1467 C1472 1.350 . S
C1467 N1475 1.427 . S
C1468 H1459 0.930 . S
C1468 C1466 1.378 . S
C1468 C1469 1.367 . S
C1469 C1468 1.367 . S
C1469 C1471 1.433 . S
C1470 C1466 1.350 . S
C1470 C1467 1.463 . S
C1470 N1474 1.427 . S
C1471 H1461 0.929 . S
C1471 C1469 1.433 . S
C1471 N1474 1.384 . S
C1472 H1463 0.929 . S
C1472 C1464 1.378 . S
C1472 C1467 1.350 . S
C1473 H1460 0.929 . S
C1473 C1465 1.433 . S
C1473 N1475 1.384 . S
N1474 C1470 1.427 . S
N1474 C1471 1.384 . S
N1475 C1467 1.427 . S
N1475 C1473 1.384 . S
H1476 C1482 0.930 . S
H1477 C1486 0.930 . S
H1478 C1491 0.929 . S
H1479 C1489 0.929 . S
H1480 C1484 0.929 . S
H1481 C1490 0.929 . S
C1482 H1476 0.930 . S
C1482 C1483 1.367 . S
C1482 C1490 1.378 . S
C1483 C1482 1.367 . S
C1483 C1491 1.433 . S
C1484 H1480 0.929 . S
C1484 C1486 1.378 . S
C1484 C1488 1.350 . S
C1485 C1488 1.463 . S
C1485 C1490 1.350 . S
C1485 N1493 1.427 . S
C1486 H1477 0.930 . S
C1486 C1484 1.378 . S
C1486 C1487 1.367 . S
C1487 C1486 1.367 . S
C1487 C1489 1.433 . S
C1488 C1484 1.350 . S
C1488 C1485 1.463 . S
C1488 N1492 1.427 . S
C1489 H1479 0.929 . S
C1489 C1487 1.433 . S
C1489 N1492 1.384 . S
C1490 H1481 0.929 . S
C1490 C1482 1.378 . S
C1490 C1485 1.350 . S
C1491 H1478 0.929 . S
C1491 C1483 1.433 . S
C1491 N1493 1.384 . S
N1492 C1488 1.427 . S
N1492 C1489 1.384 . S
N1493 C1485 1.427 . S
N1493 C1491 1.384 . S
H1494 C1500 0.930 . S
H1495 C1504 0.930 . S
H1496 C1509 0.929 . S
H1497 C1507 0.929 . S
H1498 C1502 0.929 . S
H1499 C1508 0.929 . S
C1500 H1494 0.930 . S
C1500 C1501 1.367 . S
C1500 C1508 1.378 . S
C1501 C1500 1.367 . S
C1501 C1509 1.433 . S
C1502 H1498 0.929 . S
C1502 C1504 1.378 . S
C1502 C1506 1.350 . S
C1503 C1506 1.463 . S
C1503 C1508 1.350 . S
C1503 N1511 1.427 . S
C1504 H1495 0.930 . S
C1504 C1502 1.378 . S
C1504 C1505 1.367 . S
C1505 C1504 1.367 . S
C1505 C1507 1.433 . S
C1506 C1502 1.350 . S
C1506 C1503 1.463 . S
C1506 N1510 1.427 . S
C1507 H1497 0.929 . S
C1507 C1505 1.433 . S
C1507 N1510 1.384 . S
C1508 H1499 0.929 . S
C1508 C1500 1.378 . S
C1508 C1503 1.350 . S
C1509 H1496 0.929 . S
C1509 C1501 1.433 . S
C1509 N1511 1.384 . S
N1510 C1506 1.427 . S
N1510 C1507 1.384 . S
N1511 C1503 1.427 . S
N1511 C1509 1.384 . S
H1512 C1518 0.930 . S
H1513 C1522 0.930 . S
H1514 C1527 0.929 . S
H1515 C1525 0.929 . S
H1516 C1520 0.929 . S
H1517 C1526 0.929 . S
C1518 H1512 0.930 . S
C1518 C1519 1.367 . S
C1518 C1526 1.378 . S
C1519 C1518 1.367 . S
C1519 C1527 1.433 . S
C1520 H1516 0.929 . S
C1520 C1522 1.378 . S
C1520 C1524 1.350 . S
C1521 C1524 1.463 . S
C1521 C1526 1.350 . S
C1521 N1529 1.427 . S
C1522 H1513 0.930 . S
C1522 C1520 1.378 . S
C1522 C1523 1.367 . S
C1523 C1522 1.367 . S
C1523 C1525 1.433 . S
C1524 C1520 1.350 . S
C1524 C1521 1.463 . S
C1524 N1528 1.427 . S
C1525 H1515 0.929 . S
C1525 C1523 1.433 . S
C1525 N1528 1.384 . S
C1526 H1517 0.929 . S
C1526 C1518 1.378 . S
C1526 C1521 1.350 . S
C1527 H1514 0.929 . S
C1527 C1519 1.433 . S
C1527 N1529 1.384 . S
N1528 C1524 1.427 . S
N1528 C1525 1.384 . S
N1529 C1521 1.427 . S
N1529 C1527 1.384 . S
H1530 C1536 0.930 . S
H1531 C1540 0.930 . S
H1532 C1545 0.929 . S
H1533 C1543 0.929 . S
H1534 C1538 0.929 . S
H1535 C1544 0.929 . S
C1536 H1530 0.930 . S
C1536 C1537 1.367 . S
C1536 C1544 1.378 . S
C1537 C1536 1.367 . S
C1537 C1545 1.433 . S
C1538 H1534 0.929 . S
C1538 C1540 1.378 . S
C1538 C1542 1.350 . S
C1539 C1542 1.463 . S
C1539 C1544 1.350 . S
C1539 N1547 1.427 . S
C1540 H1531 0.930 . S
C1540 C1538 1.378 . S
C1540 C1541 1.367 . S
C1541 C1540 1.367 . S
C1541 C1543 1.433 . S
C1542 C1538 1.350 . S
C1542 C1539 1.463 . S
C1542 N1546 1.427 . S
C1543 H1533 0.929 . S
C1543 C1541 1.433 . S
C1543 N1546 1.384 . S
C1544 H1535 0.929 . S
C1544 C1536 1.378 . S
C1544 C1539 1.350 . S
C1545 H1532 0.929 . S
C1545 C1537 1.433 . S
C1545 N1547 1.384 . S
N1546 C1542 1.427 . S
N1546 C1543 1.384 . S
N1547 C1539 1.427 . S
N1547 C1545 1.384 . S
H1548 C1554 0.930 . S
H1549 C1558 0.930 . S
H1550 C1563 0.929 . S
H1551 C1561 0.929 . S
H1552 C1556 0.929 . S
H1553 C1562 0.929 . S
C1554 H1548 0.930 . S
C1554 C1555 1.367 . S
C1554 C1562 1.378 . S
C1555 C1554 1.367 . S
C1555 C1563 1.433 . S
C1556 H1552 0.929 . S
C1556 C1558 1.378 . S
C1556 C1560 1.350 . S
C1557 C1560 1.463 . S
C1557 C1562 1.350 . S
C1557 N1565 1.427 . S
C1558 H1549 0.930 . S
C1558 C1556 1.378 . S
C1558 C1559 1.367 . S
C1559 C1558 1.367 . S
C1559 C1561 1.433 . S
C1560 C1556 1.350 . S
C1560 C1557 1.463 . S
C1560 N1564 1.427 . S
C1561 H1551 0.929 . S
C1561 C1559 1.433 . S
C1561 N1564 1.384 . S
C1562 H1553 0.929 . S
C1562 C1554 1.378 . S
C1562 C1557 1.350 . S
C1563 H1550 0.929 . S
C1563 C1555 1.433 . S
C1563 N1565 1.384 . S
N1564 C1560 1.427 . S
N1564 C1561 1.384 . S
N1565 C1557 1.427 . S
N1565 C1563 1.384 . S
H1566 C1572 0.930 . S
H1567 C1576 0.930 . S
H1568 C1581 0.929 . S
H1569 C1579 0.929 . S
H1570 C1574 0.929 . S
H1571 C1580 0.929 . S
C1572 H1566 0.930 . S
C1572 C1573 1.367 . S
C1572 C1580 1.378 . S
C1573 C1572 1.367 . S
C1573 C1581 1.433 . S
C1574 H1570 0.929 . S
C1574 C1576 1.378 . S
C1574 C1578 1.350 . S
C1575 C1578 1.463 . S
C1575 C1580 1.350 . S
C1575 N1583 1.427 . S
C1576 H1567 0.930 . S
C1576 C1574 1.378 . S
C1576 C1577 1.367 . S
C1577 C1576 1.367 . S
C1577 C1579 1.433 . S
C1578 C1574 1.350 . S
C1578 C1575 1.463 . S
C1578 N1582 1.427 . S
C1579 H1569 0.929 . S
C1579 C1577 1.433 . S
C1579 N1582 1.384 . S
C1580 H1571 0.929 . S
C1580 C1572 1.378 . S
C1580 C1575 1.350 . S
C1581 H1568 0.929 . S
C1581 C1573 1.433 . S
C1581 N1583 1.384 . S
N1582 C1578 1.427 . S
N1582 C1579 1.384 . S
N1583 C1575 1.427 . S
N1583 C1581 1.384 . S
H1584 C1590 0.930 . S
H1585 C1594 0.930 . S
H1586 C1599 0.929 . S
H1587 C1597 0.929 . S
H1588 C1592 0.929 . S
H1589 C1598 0.929 . S
C1590 H1584 0.930 . S
C1590 C1591 1.367 . S
C1590 C1598 1.378 . S
C1591 C1590 1.367 . S
C1591 C1599 1.433 . S
C1592 H1588 0.929 . S
C1592 C1594 1.378 . S
C1592 C1596 1.350 . S
C1593 C1596 1.463 . S
C1593 C1598 1.350 . S
C1593 N1601 1.427 . S
C1594 H1585 0.930 . S
C1594 C1592 1.378 . S
C1594 C1595 1.367 . S
C1595 C1594 1.367 . S
C1595 C1597 1.433 . S
C1596 C1592 1.350 . S
C1596 C1593 1.463 . S
C1596 N1600 1.427 . S
C1597 H1587 0.929 . S
C1597 C1595 1.433 . S
C1597 N1600 1.384 . S
C1598 H1589 0.929 . S
C1598 C1590 1.378 . S
C1598 C1593 1.350 . S
C1599 H1586 0.929 . S
C1599 C1591 1.433 . S
C1599 N1601 1.384 . S
N1600 C1596 1.427 . S
N1600 C1597 1.384 . S
N1601 C1593 1.427 . S
N1601 C1599 1.384 . S
H1602 C1608 0.930 . S
H1603 C1612 0.930 . S
H1604 C1617 0.929 . S
H1605 C1615 0.929 . S
H1606 C1610 0.929 . S
H1607 C1616 0.929 . S
C1608 H1602 0.930 . S
C1608 C1609 1.367 . S
C1608 C1616 1.378 . S
C1609 C1608 1.367 . S
C1609 C1617 1.433 . S
C1610 H1606 0.929 . S
C1610 C1612 1.378 . S
C1610 C1614 1.350 . S
C1611 C1614 1.463 . S
C1611 C1616 1.350 . S
C1611 N1619 1.427 . S
C1612 H1603 0.930 . S
C1612 C1610 1.378 . S
C1612 C1613 1.367 . S
C1613 C1612 1.367 . S
C1613 C1615 1.433 . S
C1614 C1610 1.350 . S
C1614 C1611 1.463 . S
C1614 N1618 1.427 . S
C1615 H1605 0.929 . S
C1615 C1613 1.433 . S
C1615 N1618 1.384 . S
C1616 H1607 0.929 . S
C1616 C1608 1.378 . S
C1616 C1611 1.350 . S
C1617 H1604 0.929 . S
C1617 C1609 1.433 . S
C1617 N1619 1.384 . S
N1618 C1614 1.427 . S
N1618 C1615 1.384 . S
N1619 C1611 1.427 . S
N1619 C1617 1.384 . S
H1620 C1626 0.930 . S
H1621 C1630 0.930 . S
H1622 C1635 0.929 . S
H1623 C1633 0.929 . S
H1624 C1628 0.929 . S
H1625 C1634 0.929 . S
C1626 H1620 0.930 . S
C1626 C1627 1.367 . S
C1626 C1634 1.378 . S
C1627 C1626 1.367 . S
C1627 C1635 1.433 . S
C1628 H1624 0.929 . S
C1628 C1630 1.378 . S
C1628 C1632 1.350 . S
C1629 C1632 1.463 . S
C1629 C1634 1.350 . S
C1629 N1637 1.427 . S
C1630 H1621 0.930 . S
C1630 C1628 1.378 . S
C1630 C1631 1.367 . S
C1631 C1630 1.367 . S
C1631 C1633 1.433 . S
C1632 C1628 1.350 . S
C1632 C1629 1.463 . S
C1632 N1636 1.427 . S
C1633 H1623 0.929 . S
C1633 C1631 1.433 . S
C1633 N1636 1.384 . S
C1634 H1625 0.929 . S
C1634 C1626 1.378 . S
C1634 C1629 1.350 . S
C1635 H1622 0.929 . S
C1635 C1627 1.433 . S
C1635 N1637 1.384 . S
N1636 C1632 1.427 . S
N1636 C1633 1.384 . S
N1637 C1629 1.427 . S
N1637 C1635 1.384 . S
H1638 C1644 0.930 . S
H1639 C1648 0.930 . S
H1640 C1653 0.929 . S
H1641 C1651 0.929 . S
H1642 C1646 0.929 . S
H1643 C1652 0.929 . S
C1644 H1638 0.930 . S
C1644 C1645 1.367 . S
C1644 C1652 1.378 . S
C1645 C1644 1.367 . S
C1645 C1653 1.433 . S
C1646 H1642 0.929 . S
C1646 C1648 1.378 . S
C1646 C1650 1.350 . S
C1647 C1650 1.463 . S
C1647 C1652 1.350 . S
C1647 N1655 1.427 . S
C1648 H1639 0.930 . S
C1648 C1646 1.378 . S
C1648 C1649 1.367 . S
C1649 C1648 1.367 . S
C1649 C1651 1.433 . S
C1650 C1646 1.350 . S
C1650 C1647 1.463 . S
C1650 N1654 1.427 . S
C1651 H1641 0.929 . S
C1651 C1649 1.433 . S
C1651 N1654 1.384 . S
C1652 H1643 0.929 . S
C1652 C1644 1.378 . S
C1652 C1647 1.350 . S
C1653 H1640 0.929 . S
C1653 C1645 1.433 . S
C1653 N1655 1.384 . S
N1654 C1650 1.427 . S
N1654 C1651 1.384 . S
N1655 C1647 1.427 . S
N1655 C1653 1.384 . S
H1656 C1662 0.930 . S
H1657 C1666 0.930 1_556 S
H1658 C1671 0.929 1_556 S
H1659 C1669 0.929 . S
H1660 C1664 0.929 1_556 S
H1661 C1670 0.929 . S
C1662 H1656 0.930 . S
C1662 C1663 1.367 . S
C1662 C1670 1.378 . S
C1663 C1662 1.367 . S
C1663 C1671 1.433 . S
C1664 H1660 0.929 1_554 S
C1664 C1666 1.378 . S
C1664 C1668 1.350 . S
C1665 C1668 1.463 . S
C1665 C1670 1.350 . S
C1665 N1673 1.427 . S
C1666 H1657 0.930 1_554 S
C1666 C1664 1.378 . S
C1666 C1667 1.367 . S
C1667 C1666 1.367 . S
C1667 C1669 1.433 . S
C1668 C1664 1.350 . S
C1668 C1665 1.463 . S
C1668 N1672 1.427 . S
C1669 H1659 0.929 . S
C1669 C1667 1.433 . S
C1669 N1672 1.384 . S
C1670 H1661 0.929 . S
C1670 C1662 1.378 . S
C1670 C1665 1.350 . S
C1671 H1658 0.929 1_554 S
C1671 C1663 1.433 . S
C1671 N1673 1.384 . S
N1672 C1668 1.427 . S
N1672 C1669 1.384 . S
N1673 C1665 1.427 . S
N1673 C1671 1.384 . S
H1674 C1680 0.930 . S
H1675 C1684 0.930 . S
H1676 C1689 0.929 . S
H1677 C1687 0.929 . S
H1678 C1682 0.929 . S
H1679 C1688 0.929 . S
C1680 H1674 0.930 . S
C1680 C1681 1.367 . S
C1680 C1688 1.378 . S
C1681 C1680 1.367 . S
C1681 C1689 1.433 . S
C1682 H1678 0.929 . S
C1682 C1684 1.378 . S
C1682 C1686 1.350 . S
C1683 C1686 1.463 . S
C1683 C1688 1.350 . S
C1683 N1691 1.427 . S
C1684 H1675 0.930 . S
C1684 C1682 1.378 . S
C1684 C1685 1.367 . S
C1685 C1684 1.367 . S
C1685 C1687 1.433 . S
C1686 C1682 1.350 . S
C1686 C1683 1.463 . S
C1686 N1690 1.427 . S
C1687 H1677 0.929 . S
C1687 C1685 1.433 . S
C1687 N1690 1.384 . S
C1688 H1679 0.929 . S
C1688 C1680 1.378 . S
C1688 C1683 1.350 . S
C1689 H1676 0.929 . S
C1689 C1681 1.433 . S
C1689 N1691 1.384 . S
N1690 C1686 1.427 . S
N1690 C1687 1.384 . S
N1691 C1683 1.427 . S
N1691 C1689 1.384 . S
H1692 C1698 0.930 . S
H1693 C1702 0.930 . S
H1694 C1707 0.929 . S
H1695 C1705 0.929 . S
H1696 C1700 0.929 . S
H1697 C1706 0.929 . S
C1698 H1692 0.930 . S
C1698 C1699 1.367 . S
C1698 C1706 1.378 . S
C1699 C1698 1.367 . S
C1699 C1707 1.433 . S
C1700 H1696 0.929 . S
C1700 C1702 1.378 . S
C1700 C1704 1.350 . S
C1701 C1704 1.463 . S
C1701 C1706 1.350 . S
C1701 N1709 1.427 . S
C1702 H1693 0.930 . S
C1702 C1700 1.378 . S
C1702 C1703 1.367 . S
C1703 C1702 1.367 . S
C1703 C1705 1.433 . S
C1704 C1700 1.350 . S
C1704 C1701 1.463 . S
C1704 N1708 1.427 . S
C1705 H1695 0.929 . S
C1705 C1703 1.433 . S
C1705 N1708 1.384 . S
C1706 H1697 0.929 . S
C1706 C1698 1.378 . S
C1706 C1701 1.350 . S
C1707 H1694 0.929 . S
C1707 C1699 1.433 . S
C1707 N1709 1.384 . S
N1708 C1704 1.427 . S
N1708 C1705 1.384 . S
N1709 C1701 1.427 . S
N1709 C1707 1.384 . S
H1710 C1716 0.930 . S
H1711 C1720 0.930 1_554 S
H1712 C1725 0.929 1_554 S
H1713 C1723 0.929 . S
H1714 C1718 0.929 1_554 S
H1715 C1724 0.929 . S
C1716 H1710 0.930 . S
C1716 C1717 1.367 . S
C1716 C1724 1.378 . S
C1717 C1716 1.367 . S
C1717 C1725 1.433 . S
C1718 H1714 0.929 1_556 S
C1718 C1720 1.378 . S
C1718 C1722 1.350 . S
C1719 C1722 1.463 . S
C1719 C1724 1.350 . S
C1719 N1727 1.427 . S
C1720 H1711 0.930 1_556 S
C1720 C1718 1.378 . S
C1720 C1721 1.367 . S
C1721 C1720 1.367 . S
C1721 C1723 1.433 . S
C1722 C1718 1.350 . S
C1722 C1719 1.463 . S
C1722 N1726 1.427 . S
C1723 H1713 0.929 . S
C1723 C1721 1.433 . S
C1723 N1726 1.384 . S
C1724 H1715 0.929 . S
C1724 C1716 1.378 . S
C1724 C1719 1.350 . S
C1725 H1712 0.929 1_556 S
C1725 C1717 1.433 . S
C1725 N1727 1.384 . S
N1726 C1722 1.427 . S
N1726 C1723 1.384 . S
N1727 C1719 1.427 . S
N1727 C1725 1.384 . S
H1728 C1734 0.930 . S
H1729 C1738 0.930 . S
H1730 C1743 0.929 . S
H1731 C1741 0.929 . S
H1732 C1736 0.929 . S
H1733 C1742 0.929 . S
C1734 H1728 0.930 . S
C1734 C1735 1.367 . S
C1734 C1742 1.378 . S
C1735 C1734 1.367 . S
C1735 C1743 1.433 . S
C1736 H1732 0.929 . S
C1736 C1738 1.378 . S
C1736 C1740 1.350 . S
C1737 C1740 1.463 . S
C1737 C1742 1.350 . S
C1737 N1745 1.427 . S
C1738 H1729 0.930 . S
C1738 C1736 1.378 . S
C1738 C1739 1.367 . S
C1739 C1738 1.367 . S
C1739 C1741 1.433 . S
C1740 C1736 1.350 . S
C1740 C1737 1.463 . S
C1740 N1744 1.427 . S
C1741 H1731 0.929 . S
C1741 C1739 1.433 . S
C1741 N1744 1.384 . S
C1742 H1733 0.929 . S
C1742 C1734 1.378 . S
C1742 C1737 1.350 . S
C1743 H1730 0.929 . S
C1743 C1735 1.433 . S
C1743 N1745 1.384 . S
N1744 C1740 1.427 . S
N1744 C1741 1.384 . S
N1745 C1737 1.427 . S
N1745 C1743 1.384 . S
H1746 C1752 0.930 . S
H1747 C1756 0.930 . S
H1748 C1761 0.929 . S
H1749 C1759 0.929 . S
H1750 C1754 0.929 . S
H1751 C1760 0.929 . S
C1752 H1746 0.930 . S
C1752 C1753 1.367 . S
C1752 C1760 1.378 . S
C1753 C1752 1.367 . S
C1753 C1761 1.433 . S
C1754 H1750 0.929 . S
C1754 C1756 1.378 . S
C1754 C1758 1.350 . S
C1755 C1758 1.463 . S
C1755 C1760 1.350 . S
C1755 N1763 1.427 . S
C1756 H1747 0.930 . S
C1756 C1754 1.378 . S
C1756 C1757 1.367 . S
C1757 C1756 1.367 . S
C1757 C1759 1.433 . S
C1758 C1754 1.350 . S
C1758 C1755 1.463 . S
C1758 N1762 1.427 . S
C1759 H1749 0.929 . S
C1759 C1757 1.433 . S
C1759 N1762 1.384 . S
C1760 H1751 0.929 . S
C1760 C1752 1.378 . S
C1760 C1755 1.350 . S
C1761 H1748 0.929 . S
C1761 C1753 1.433 . S
C1761 N1763 1.384 . S
N1762 C1758 1.427 . S
N1762 C1759 1.384 . S
N1763 C1755 1.427 . S
N1763 C1761 1.384 . S
H1764 C1770 0.930 . S
H1765 C1774 0.930 . S
H1766 C1779 0.929 . S
H1767 C1777 0.929 . S
H1768 C1772 0.929 . S
H1769 C1778 0.929 . S
C1770 H1764 0.930 . S
C1770 C1771 1.367 . S
C1770 C1778 1.378 . S
C1771 C1770 1.367 . S
C1771 C1779 1.433 . S
C1772 H1768 0.929 . S
C1772 C1774 1.378 . S
C1772 C1776 1.350 . S
C1773 C1776 1.463 . S
C1773 C1778 1.350 . S
C1773 N1781 1.427 . S
C1774 H1765 0.930 . S
C1774 C1772 1.378 . S
C1774 C1775 1.367 . S
C1775 C1774 1.367 . S
C1775 C1777 1.433 . S
C1776 C1772 1.350 . S
C1776 C1773 1.463 . S
C1776 N1780 1.427 . S
C1777 H1767 0.929 . S
C1777 C1775 1.433 . S
C1777 N1780 1.384 . S
C1778 H1769 0.929 . S
C1778 C1770 1.378 . S
C1778 C1773 1.350 . S
C1779 H1766 0.929 . S
C1779 C1771 1.433 . S
C1779 N1781 1.384 . S
N1780 C1776 1.427 . S
N1780 C1777 1.384 . S
N1781 C1773 1.427 . S
N1781 C1779 1.384 . S
H1782 C1788 0.930 . S
H1783 C1792 0.930 . S
H1784 C1797 0.929 . S
H1785 C1795 0.929 . S
H1786 C1790 0.929 . S
H1787 C1796 0.929 . S
C1788 H1782 0.930 . S
C1788 C1789 1.367 . S
C1788 C1796 1.378 . S
C1789 C1788 1.367 . S
C1789 C1797 1.433 . S
C1790 H1786 0.929 . S
C1790 C1792 1.378 . S
C1790 C1794 1.350 . S
C1791 C1794 1.463 . S
C1791 C1796 1.350 . S
C1791 N1799 1.427 . S
C1792 H1783 0.930 . S
C1792 C1790 1.378 . S
C1792 C1793 1.367 . S
C1793 C1792 1.367 . S
C1793 C1795 1.433 . S
C1794 C1790 1.350 . S
C1794 C1791 1.463 . S
C1794 N1798 1.427 . S
C1795 H1785 0.929 . S
C1795 C1793 1.433 . S
C1795 N1798 1.384 . S
C1796 H1787 0.929 . S
C1796 C1788 1.378 . S
C1796 C1791 1.350 . S
C1797 H1784 0.929 . S
C1797 C1789 1.433 . S
C1797 N1799 1.384 . S
N1798 C1794 1.427 . S
N1798 C1795 1.384 . S
N1799 C1791 1.427 . S
N1799 C1797 1.384 . S
C511 C76 1.266 . S
C515 C6 1.265 . S
C529 C48 1.261 . S
C533 C20 1.270 . S
C547 C34 1.265 . S
C551 C62 1.268 . S
C565 C90 1.257 . S
C569 C160 1.273 . S
C583 C104 1.269 . S
C587 C132 1.262 . S
C601 C146 1.274 . S
C605 C118 1.258 . S
C619 C174 1.259 . S
C623 C244 1.271 . S
C637 C188 1.274 . S
C641 C216 1.257 . S
C655 C202 1.261 . S
C659 C230 1.272 . S
C673 C328 1.258 . S
C677 C258 1.272 . S
C691 C272 1.263 . S
C695 C300 1.266 . S
C709 C314 1.263 . S
C713 C286 1.270 . S
C727 C412 1.263 . S
C731 C342 1.266 . S
C745 C384 1.257 . S
C749 C356 1.273 . S
C763 C398 1.260 . S
C767 C370 1.273 . S
C781 C426 1.273 . S
C785 C496 1.257 . S
C799 C440 1.271 . S
C803 C468 1.260 . S
C817 C454 1.258 . S
C821 C482 1.274 . S
C835 C78 2.033 . S
C839 C8 2.033 . S
C853 C22 2.028 . S
C857 C50 2.029 . S
C871 C64 2.034 . S
C875 C36 2.033 . S
C889 C92 2.033 . S
C893 C162 2.031 . S
C907 C106 2.031 . S
C911 C134 2.033 . S
C925 C148 2.031 . S
C929 C120 2.029 . S
C943 C176 2.033 . S
C947 C246 2.033 . S
C961 C218 2.033 . S
C965 C190 2.032 . S
C979 C232 2.033 . S
C983 C204 2.031 . S
C997 C260 2.028 . S
C1001 C330 2.030 . S
C1015 C274 2.029 . S
C1019 C302 2.028 . S
C1033 C316 2.034 . S
C1037 C288 2.033 . S
C1051 C414 2.028 . S
C1055 C344 2.029 . S
C1069 C358 2.033 . S
C1073 C386 2.032 . S
C1087 C372 2.032 . S
C1091 C400 2.030 . S
C1105 C498 2.033 . S
C1109 C428 2.032 . S
C1123 C470 2.031 . S
C1127 C442 2.033 . S
C1141 C484 2.029 . S
C1145 C456 2.031 . S
C1159 C233 1.603 . S
C1163 C9 1.609 . S
C1177 C247 1.606 . S
C1181 C23 1.605 . S
C1195 C219 1.608 . S
C1199 C37 1.601 . S
C1213 C51 1.608 . S
C1217 C373 1.601 . S
C1231 C65 1.609 . S
C1235 C345 1.602 . S
C1249 C79 1.601 . S
C1253 C359 1.608 . S
C1267 C93 1.609 . S
C1271 C485 1.602 . S
C1285 C107 1.602 . S
C1289 C499 1.607 . S
C1303 C121 1.602 . S
C1307 C471 1.608 . S
C1321 C135 1.604 . S
C1325 C289 1.607 . S
C1339 C261 1.602 . S
C1343 C149 1.609 . S
C1357 C275 1.603 . S
C1361 C163 1.606 . S
C1375 C401 1.604 . S
C1379 C177 1.606 . S
C1393 C191 1.604 . S
C1397 C415 1.607 . S
C1411 C205 1.608 . S
C1415 C387 1.602 . S
C1429 C303 1.602 . S
C1433 C457 1.607 . S
C1447 C317 1.609 . S
C1451 C429 1.602 . S
C1465 C443 1.601 . S
C1469 C331 1.609 . S
C1483 C7 1.428 . S
C1487 C147 1.439 . S
C1501 C161 1.432 . S
C1505 C21 1.432 . S
C1519 C133 1.438 . S
C1523 C35 1.428 . S
C1537 C49 1.440 . S
C1541 C119 1.427 . S
C1555 C63 1.427 . S
C1559 C91 1.439 . S
C1573 C77 1.425 . S
C1577 C105 1.439 . S
C1591 C175 1.425 . S
C1595 C315 1.439 . S
C1609 C329 1.427 . S
C1613 C189 1.437 . S
C1627 C301 1.437 . S
C1631 C203 1.429 . S
C1645 C217 1.433 . S
C1649 C287 1.432 . S
C1663 C231 1.426 . S
C1667 C259 1.440 . S
C1681 C273 1.437 . S
C1685 C245 1.427 . S
C1699 C343 1.438 . S
C1703 C483 1.428 . S
C1717 C497 1.425 . S
C1721 C357 1.439 . S
C1735 C371 1.429 . S
C1739 C469 1.436 . S
C1753 C385 1.432 . S
C1757 C455 1.434 . S
C1771 C427 1.428 . S
C1775 C399 1.438 . S
C1789 C413 1.437 . S
C1793 C441 1.427 . S
