# Generated by pormake.
# Topology gsi, (4)-cn, num edge types: 1
# Building blocks:
#     Node 0, Type 0, BuildingBlock: UXUYUI_clean_sbu_0, # of connection points: 4
#     Node 1, Type 0, BuildingBlock: UXUYUI_clean_sbu_0, # of connection points: 4
#     Node 2, Type 0, BuildingBlock: UXUYUI_clean_sbu_0, # of connection points: 4
#     Node 3, Type 0, BuildingBlock: UXUYUI_clean_sbu_0, # of connection points: 4
#     Node 4, Type 0, BuildingBlock: UXUYUI_clean_sbu_0, # of connection points: 4
#     Node 5, Type 0, BuildingBlock: UXUYUI_clean_sbu_0, # of connection points: 4
#     Node 6, Type 0, BuildingBlock: UXUYUI_clean_sbu_0, # of connection points: 4
#     Node 7, Type 0, BuildingBlock: UXUYUI_clean_sbu_0, # of connection points: 4
#     Node 8, Type 0, BuildingBlock: UXUYUI_clean_sbu_0, # of connection points: 4
#     Node 9, Type 0, BuildingBlock: UXUYUI_clean_sbu_0, # of connection points: 4
#     Node 10, Type 0, BuildingBlock: UXUYUI_clean_sbu_0, # of connection points: 4
#     Node 11, Type 0, BuildingBlock: UXUYUI_clean_sbu_0, # of connection points: 4
#     Node 12, Type 0, BuildingBlock: UXUYUI_clean_sbu_0, # of connection points: 4
#     Node 13, Type 0, BuildingBlock: UXUYUI_clean_sbu_0, # of connection points: 4
#     Node 14, Type 0, BuildingBlock: UXUYUI_clean_sbu_0, # of connection points: 4
#     Node 15, Type 0, BuildingBlock: UXUYUI_clean_sbu_0, # of connection points: 4
#     Edge 16, Type (0, 0), BuildingBlock: TEMPAE_clean_linker_10, # of connection points: 2
#     Edge 17, Type (0, 0), BuildingBlock: TEMPAE_clean_linker_10, # of connection points: 2
#     Edge 18, Type (0, 0), BuildingBlock: TEMPAE_clean_linker_10, # of connection points: 2
#     Edge 19, Type (0, 0), BuildingBlock: TEMPAE_clean_linker_10, # of connection points: 2
#     Edge 20, Type (0, 0), BuildingBlock: TEMPAE_clean_linker_10, # of connection points: 2
#     Edge 21, Type (0, 0), BuildingBlock: TEMPAE_clean_linker_10, # of connection points: 2
#     Edge 22, Type (0, 0), BuildingBlock: TEMPAE_clean_linker_10, # of connection points: 2
#     Edge 23, Type (0, 0), BuildingBlock: TEMPAE_clean_linker_10, # of connection points: 2
#     Edge 24, Type (0, 0), BuildingBlock: TEMPAE_clean_linker_10, # of connection points: 2
#     Edge 25, Type (0, 0), BuildingBlock: TEMPAE_clean_linker_10, # of connection points: 2
#     Edge 26, Type (0, 0), BuildingBlock: TEMPAE_clean_linker_10, # of connection points: 2
#     Edge 27, Type (0, 0), BuildingBlock: TEMPAE_clean_linker_10, # of connection points: 2
#     Edge 28, Type (0, 0), BuildingBlock: TEMPAE_clean_linker_10, # of connection points: 2
#     Edge 29, Type (0, 0), BuildingBlock: TEMPAE_clean_linker_10, # of connection points: 2
#     Edge 30, Type (0, 0), BuildingBlock: TEMPAE_clean_linker_10, # of connection points: 2
#     Edge 31, Type (0, 0), BuildingBlock: TEMPAE_clean_linker_10, # of connection points: 2
#     Edge 32, Type (0, 0), BuildingBlock: TEMPAE_clean_linker_10, # of connection points: 2
#     Edge 33, Type (0, 0), BuildingBlock: TEMPAE_clean_linker_10, # of connection points: 2
#     Edge 34, Type (0, 0), BuildingBlock: TEMPAE_clean_linker_10, # of connection points: 2
#     Edge 35, Type (0, 0), BuildingBlock: TEMPAE_clean_linker_10, # of connection points: 2
#     Edge 36, Type (0, 0), BuildingBlock: TEMPAE_clean_linker_10, # of connection points: 2
#     Edge 37, Type (0, 0), BuildingBlock: TEMPAE_clean_linker_10, # of connection points: 2
#     Edge 38, Type (0, 0), BuildingBlock: TEMPAE_clean_linker_10, # of connection points: 2
#     Edge 39, Type (0, 0), BuildingBlock: TEMPAE_clean_linker_10, # of connection points: 2
#     Edge 40, Type (0, 0), BuildingBlock: TEMPAE_clean_linker_10, # of connection points: 2
#     Edge 41, Type (0, 0), BuildingBlock: TEMPAE_clean_linker_10, # of connection points: 2
#     Edge 42, Type (0, 0), BuildingBlock: TEMPAE_clean_linker_10, # of connection points: 2
#     Edge 43, Type (0, 0), BuildingBlock: TEMPAE_clean_linker_10, # of connection points: 2
#     Edge 44, Type (0, 0), BuildingBlock: TEMPAE_clean_linker_10, # of connection points: 2
#     Edge 45, Type (0, 0), BuildingBlock: TEMPAE_clean_linker_10, # of connection points: 2
#     Edge 46, Type (0, 0), BuildingBlock: TEMPAE_clean_linker_10, # of connection points: 2
#     Edge 47, Type (0, 0), BuildingBlock: TEMPAE_clean_linker_10, # of connection points: 2
# Relax obj value: 0.073
# Max RMSD: 0.058
# Mean RMSD: 0.058
data_MOF--net-gsi--node1-UXUYUI_clean_sbu_0--edge1-TEMPAE_clean_linker_10
_symmetry_space_group_name_H-M    P1
_symmetry_Int_Tables_number       1
_symmetry_cell_setting            triclinic
loop_
_symmetry_equiv_pos_as_xyz
'x, y, z'
_cell_length_a     62.545089
_cell_length_b     62.504358
_cell_length_c     62.466804
_cell_angle_alpha  89.973502
_cell_angle_beta   90.005361
_cell_angle_gamma 90.161854
loop_
_atom_site_label
_atom_site_type_symbol
_atom_site_fract_x
_atom_site_fract_y
_atom_site_fract_z
_atom_type_partial_charge
Li0 Li 0.13303 0.16462 0.14862 0.0
Li1 Li 0.1658 0.16728 0.16873 0.0
Li2 Li 0.16692 0.15136 0.13337 0.0
Li3 Li 0.15008 0.13191 0.16484 0.0
C4 C 0.15592 0.20247 0.14141 0.0
N5 N 0.14873 0.24605 0.14223 0.0
C6 C 0.14687 0.21199 0.15947 0.0
C7 C 0.16139 0.21511 0.12377 0.0
C8 C 0.14334 0.23404 0.15958 0.0
C9 C 0.1576 0.23712 0.12448 0.0
C10 C 0.13218 0.16038 0.19991 0.0
C11 C 0.13265 0.14925 0.23691 0.0
N12 N 0.1206 0.16654 0.24218 0.0
C13 C 0.11961 0.17792 0.20568 0.0
C14 C 0.1386 0.14581 0.21564 0.0
C15 C 0.11401 0.18081 0.22713 0.0
C16 C 0.08958 0.17485 0.15617 0.0
N17 N 0.1064 0.17881 0.14295 0.0
C18 C 0.08681 0.20654 0.12527 0.0
C19 C 0.10512 0.19392 0.12732 0.0
C20 C 0.06947 0.20347 0.13929 0.0
C21 C 0.07089 0.18699 0.15459 0.0
H22 H 0.09093 0.16267 0.1684 0.0
H23 H 0.11859 0.19674 0.11687 0.0
C24 C 0.19668 0.1988 0.17704 0.0
N25 N 0.18264 0.18548 0.18705 0.0
C26 C 0.20999 0.21225 0.18892 0.0
C27 C 0.19453 0.1978 0.22129 0.0
C28 C 0.18147 0.18469 0.20877 0.0
C29 C 0.20902 0.21187 0.21138 0.0
H30 H 0.19766 0.19885 0.15976 0.0
H31 H 0.17081 0.17361 0.21651 0.0
C32 C 0.12858 0.13555 0.11514 0.0
N33 N 0.10874 0.13484 0.07563 0.0
C34 C 0.11528 0.11845 0.10955 0.0
C35 C 0.13179 0.1523 0.10064 0.0
C36 C 0.10539 0.11838 0.08949 0.0
C37 C 0.12162 0.15165 0.08075 0.0
C38 C 0.19907 0.14251 0.17096 0.0
C39 C 0.21714 0.15088 0.16078 0.0
C40 C 0.20005 0.13721 0.19269 0.0
C41 C 0.23588 0.154 0.17257 0.0
C42 C 0.21908 0.14057 0.20392 0.0
N43 N 0.23644 0.14885 0.19372 0.0
C44 C 0.19771 0.16513 0.10394 0.0
C45 C 0.18313 0.1312 0.09525 0.0
C46 C 0.21146 0.16423 0.08635 0.0
N47 N 0.18405 0.14871 0.10814 0.0
C48 C 0.19648 0.12972 0.0773 0.0
C49 C 0.21104 0.14631 0.07278 0.0
H50 H 0.19812 0.17886 0.11448 0.0
H51 H 0.17216 0.11832 0.099 0.0
C52 C 0.12609 0.09921 0.18624 0.0
N53 N 0.14575 0.10498 0.17886 0.0
C54 C 0.12374 0.08111 0.19928 0.0
C55 C 0.16177 0.07504 0.19642 0.0
C56 C 0.16334 0.09303 0.18325 0.0
C57 C 0.14184 0.0691 0.20494 0.0
H58 H 0.1124 0.10915 0.18271 0.0
H59 H 0.17877 0.09789 0.17712 0.0
O60 O 0.15934 0.18087 0.14083 0.0
O61 O 0.13746 0.15705 0.1789 0.0
O62 O 0.13829 0.13586 0.13475 0.0
O63 O 0.18037 0.14 0.15985 0.0
H64 H 0.14273 0.20246 0.17327 0.0
H65 H 0.16835 0.20796 0.10962 0.0
H66 H 0.13634 0.24161 0.17347 0.0
H67 H 0.1617 0.24709 0.11093 0.0
H68 H 0.13766 0.13819 0.24925 0.0
H69 H 0.1141 0.18916 0.19374 0.0
H70 H 0.14834 0.13217 0.21159 0.0
H71 H 0.10435 0.19435 0.23181 0.0
H72 H 0.08664 0.2191 0.11335 0.0
H73 H 0.05781 0.18369 0.16547 0.0
H74 H 0.22083 0.22292 0.18058 0.0
H75 H 0.19357 0.19662 0.23856 0.0
H76 H 0.11262 0.10538 0.12063 0.0
H77 H 0.14203 0.16567 0.10467 0.0
H78 H 0.09505 0.10524 0.08495 0.0
H79 H 0.12396 0.1645 0.06938 0.0
H80 H 0.21668 0.15509 0.14401 0.0
H81 H 0.18617 0.1309 0.20088 0.0
H82 H 0.24995 0.16059 0.16492 0.0
H83 H 0.22001 0.1367 0.22077 0.0
H84 H 0.22222 0.17749 0.08332 0.0
H85 H 0.19573 0.11557 0.06732 0.0
H86 H 0.10811 0.07708 0.20561 0.0
H87 H 0.17606 0.06604 0.20019 0.0
Li88 Li 0.84918 0.34683 0.16747 0.0
Li89 Li 0.88261 0.34768 0.14758 0.0
Li90 Li 0.86593 0.3819 0.16323 0.0
Li91 Li 0.84982 0.3622 0.13271 0.0
C92 C 0.8822 0.35512 0.19938 0.0
N93 N 0.89232 0.35356 0.24245 0.0
C94 C 0.89615 0.33947 0.20712 0.0
C95 C 0.87351 0.37005 0.21358 0.0
C96 C 0.90101 0.33891 0.22894 0.0
C97 C 0.87879 0.36898 0.23528 0.0
C98 C 0.85899 0.31068 0.14335 0.0
C99 C 0.85524 0.27396 0.13202 0.0
N100 N 0.86552 0.26746 0.15006 0.0
C101 C 0.86943 0.3036 0.16182 0.0
C102 C 0.85176 0.29573 0.12836 0.0
C103 C 0.87261 0.28171 0.16491 0.0
C104 C 0.81699 0.31661 0.17586 0.0
N105 N 0.83145 0.32947 0.18588 0.0
C106 C 0.81923 0.31735 0.22009 0.0
C107 C 0.83267 0.33011 0.20761 0.0
C108 C 0.80428 0.30383 0.21016 0.0
C109 C 0.80321 0.3036 0.18772 0.0
H110 H 0.81607 0.31655 0.15858 0.0
H111 H 0.84382 0.3406 0.2154 0.0
C112 C 0.92571 0.33568 0.15553 0.0
N113 N 0.90872 0.33258 0.14229 0.0
C114 C 0.94387 0.32277 0.15376 0.0
C115 C 0.927 0.30421 0.12431 0.0
C116 C 0.90927 0.31759 0.12652 0.0
C117 C 0.94448 0.30646 0.13828 0.0
H118 H 0.92488 0.34774 0.1679 0.0
H119 H 0.89564 0.31557 0.11605 0.0
C120 C 0.81601 0.37211 0.16703 0.0
N121 N 0.77635 0.36631 0.18564 0.0
C122 C 0.79944 0.36258 0.15541 0.0
C123 C 0.81239 0.37885 0.18805 0.0
C124 C 0.7795 0.35976 0.16512 0.0
C125 C 0.79223 0.37572 0.19719 0.0
C126 C 0.87866 0.38561 0.1144 0.0
C127 C 0.87198 0.40677 0.11189 0.0
C128 C 0.88426 0.37354 0.09645 0.0
C129 C 0.87088 0.41551 0.09132 0.0
C130 C 0.88292 0.38285 0.07615 0.0
N131 N 0.8763 0.40345 0.07404 0.0
C132 C 0.88976 0.41341 0.18635 0.0
C133 C 0.85378 0.42236 0.17865 0.0
C134 C 0.89197 0.43165 0.19918 0.0
N135 N 0.87073 0.40893 0.17678 0.0
C136 C 0.85529 0.44074 0.19128 0.0
C137 C 0.87443 0.44537 0.20217 0.0
H138 H 0.9029 0.4023 0.18483 0.0
H139 H 0.83882 0.41838 0.1709 0.0
C140 C 0.83252 0.34933 0.09281 0.0
N141 N 0.83355 0.36581 0.10696 0.0
C142 C 0.81932 0.35066 0.07481 0.0
C143 C 0.80905 0.38623 0.08582 0.0
C144 C 0.82227 0.38411 0.10377 0.0
C145 C 0.8072 0.36922 0.07123 0.0
H146 H 0.84173 0.33502 0.09569 0.0
H147 H 0.82324 0.3969 0.11539 0.0
O148 O 0.87772 0.35625 0.17793 0.0
O149 O 0.85574 0.33208 0.13989 0.0
O150 O 0.8358 0.37443 0.15802 0.0
O151 O 0.87919 0.37657 0.13429 0.0
H152 H 0.90322 0.32787 0.19642 0.0
H153 H 0.86246 0.38207 0.20805 0.0
H154 H 0.91175 0.32686 0.23513 0.0
H155 H 0.87207 0.38036 0.24643 0.0
H156 H 0.84975 0.26224 0.12052 0.0
H157 H 0.87496 0.31485 0.17367 0.0
H158 H 0.84353 0.30087 0.11402 0.0
H159 H 0.88071 0.27606 0.17912 0.0
H160 H 0.82034 0.31831 0.23737 0.0
H161 H 0.792 0.29332 0.17938 0.0
H162 H 0.95693 0.32499 0.16492 0.0
H163 H 0.92694 0.29206 0.11195 0.0
H164 H 0.80202 0.35713 0.13918 0.0
H165 H 0.82505 0.38622 0.19727 0.0
H166 H 0.76657 0.35227 0.15637 0.0
H167 H 0.78923 0.38072 0.21349 0.0
H168 H 0.86748 0.41626 0.12567 0.0
H169 H 0.88934 0.35708 0.09818 0.0
H170 H 0.86563 0.43183 0.0891 0.0
H171 H 0.88707 0.37367 0.06209 0.0
H172 H 0.90697 0.43446 0.20739 0.0
H173 H 0.84147 0.45103 0.19279 0.0
H174 H 0.81855 0.33728 0.06382 0.0
H175 H 0.79987 0.40075 0.08373 0.0
Li176 Li 0.15038 0.88284 0.34993 0.0
Li177 Li 0.16694 0.86385 0.38147 0.0
Li178 Li 0.16595 0.8475 0.34633 0.0
Li179 Li 0.13318 0.85053 0.36654 0.0
C180 C 0.20056 0.87251 0.34648 0.0
N181 N 0.24082 0.86702 0.3291 0.0
C182 C 0.21785 0.86732 0.35966 0.0
C183 C 0.20381 0.87517 0.32449 0.0
C184 C 0.23807 0.86457 0.35056 0.0
C185 C 0.22426 0.87223 0.316 0.0
C186 C 0.12906 0.87995 0.39967 0.0
C187 C 0.12218 0.86413 0.43422 0.0
N188 N 0.10968 0.88114 0.43939 0.0
C189 C 0.11616 0.89727 0.40531 0.0
C190 C 0.13212 0.86324 0.41422 0.0
C191 C 0.1065 0.89757 0.42548 0.0
C192 C 0.12646 0.91617 0.32955 0.0
N193 N 0.14631 0.90956 0.33548 0.0
C194 C 0.16247 0.93821 0.31585 0.0
C195 C 0.16413 0.92042 0.32928 0.0
C196 C 0.14227 0.94507 0.30893 0.0
C197 C 0.12404 0.93412 0.31633 0.0
H198 H 0.11257 0.90705 0.33446 0.0
H199 H 0.17972 0.91484 0.33416 0.0
C200 C 0.19243 0.84956 0.41574 0.0
N201 N 0.18375 0.86739 0.40687 0.0
C202 C 0.20554 0.85113 0.43378 0.0
C203 C 0.20077 0.88947 0.43318 0.0
C204 C 0.18758 0.88713 0.4152 0.0
C205 C 0.20996 0.87128 0.44271 0.0
H206 H 0.18946 0.83413 0.40857 0.0
H207 H 0.18055 0.90107 0.40774 0.0
C208 C 0.13256 0.85633 0.31482 0.0
N209 N 0.12198 0.85399 0.2719 0.0
C210 C 0.11734 0.8415 0.30775 0.0
C211 C 0.14238 0.86997 0.30001 0.0
C212 C 0.11223 0.84055 0.286 0.0
C213 C 0.13681 0.86855 0.2784 0.0
C214 C 0.15513 0.8125 0.3715 0.0
C215 C 0.1448 0.80531 0.35299 0.0
C216 C 0.16093 0.79775 0.38729 0.0
C217 C 0.14049 0.78352 0.35055 0.0
C218 C 0.15633 0.77607 0.38426 0.0
N219 N 0.1463 0.76946 0.3661 0.0
C220 C 0.20039 0.82058 0.3374 0.0
C221 C 0.17739 0.82452 0.30753 0.0
C222 C 0.21422 0.80776 0.32551 0.0
N223 N 0.18262 0.82907 0.32819 0.0
C224 C 0.19056 0.81144 0.29517 0.0
C225 C 0.20935 0.80314 0.30409 0.0
H226 H 0.20392 0.82398 0.354 0.0
H227 H 0.1631 0.83094 0.3005 0.0
C228 C 0.08944 0.84062 0.35959 0.0
N229 N 0.10643 0.83655 0.37253 0.0
C230 C 0.07073 0.82843 0.36132 0.0
C231 C 0.08691 0.80877 0.39037 0.0
C232 C 0.10529 0.82135 0.3881 0.0
C233 C 0.06944 0.81189 0.37656 0.0
H234 H 0.09069 0.8529 0.34745 0.0
H235 H 0.11894 0.81841 0.39827 0.0
O236 O 0.18056 0.87485 0.35505 0.0
O237 O 0.13856 0.87943 0.37996 0.0
O238 O 0.1376 0.85756 0.33612 0.0
O239 O 0.15936 0.83383 0.37438 0.0
H240 H 0.21569 0.86526 0.3767 0.0
H241 H 0.19066 0.8792 0.31404 0.0
H242 H 0.25156 0.86043 0.36056 0.0
H243 H 0.22695 0.87405 0.29899 0.0
H244 H 0.1244 0.8513 0.44563 0.0
H245 H 0.11363 0.91032 0.3942 0.0
H246 H 0.14203 0.8497 0.41014 0.0
H247 H 0.09646 0.91087 0.43007 0.0
H248 H 0.17689 0.94636 0.31068 0.0
H249 H 0.1082 0.93887 0.31124 0.0
H250 H 0.21255 0.83673 0.44036 0.0
H251 H 0.20365 0.90529 0.43963 0.0
H252 H 0.10962 0.83072 0.31891 0.0
H253 H 0.15429 0.88141 0.30505 0.0
H254 H 0.10051 0.82912 0.28033 0.0
H255 H 0.14431 0.87899 0.2668 0.0
H256 H 0.14013 0.8164 0.34063 0.0
H257 H 0.16875 0.80297 0.40182 0.0
H258 H 0.13251 0.77778 0.33629 0.0
H259 H 0.1607 0.7645 0.39637 0.0
H260 H 0.22847 0.80138 0.333 0.0
H261 H 0.1863 0.80818 0.27868 0.0
H262 H 0.05753 0.83171 0.35059 0.0
H263 H 0.08677 0.79615 0.40224 0.0
Li264 Li 0.85081 0.6468 0.37927 0.0
Li265 Li 0.86761 0.63241 0.34722 0.0
Li266 Li 0.88407 0.66541 0.36494 0.0
Li267 Li 0.85007 0.66602 0.34562 0.0
C268 C 0.88428 0.6265 0.39604 0.0
N269 N 0.89051 0.60932 0.4363 0.0
C270 C 0.87357 0.60779 0.40205 0.0
C271 C 0.89827 0.63641 0.41042 0.0
C272 C 0.87689 0.59939 0.42251 0.0
C273 C 0.90119 0.62748 0.43072 0.0
C274 C 0.82796 0.6205 0.34313 0.0
C275 C 0.81569 0.60155 0.31178 0.0
N276 N 0.81121 0.58419 0.32414 0.0
C277 C 0.8232 0.60246 0.35552 0.0
C278 C 0.82411 0.62006 0.32109 0.0
C279 C 0.81472 0.58428 0.34563 0.0
C280 C 0.81357 0.63563 0.40236 0.0
N281 N 0.83424 0.64198 0.40485 0.0
C282 C 0.82905 0.64555 0.44269 0.0
C283 C 0.8421 0.64706 0.42453 0.0
C284 C 0.80758 0.63913 0.44055 0.0
C285 C 0.79999 0.63394 0.42003 0.0
H286 H 0.80735 0.63259 0.38652 0.0
H287 H 0.85829 0.65292 0.42607 0.0
C288 C 0.88126 0.6096 0.31058 0.0
N289 N 0.87419 0.60691 0.33098 0.0
C290 C 0.88345 0.59207 0.29691 0.0
C291 C 0.87226 0.56896 0.32581 0.0
C292 C 0.87037 0.587 0.33897 0.0
C293 C 0.87841 0.57142 0.30428 0.0
H294 H 0.88483 0.62543 0.3047 0.0
H295 H 0.86506 0.58514 0.35532 0.0
C296 C 0.84439 0.69545 0.37575 0.0
N297 N 0.81874 0.73135 0.37654 0.0
C298 C 0.85325 0.71568 0.37207 0.0
C299 C 0.82252 0.69348 0.3799 0.0
C300 C 0.84 0.73364 0.37253 0.0
C301 C 0.80981 0.71183 0.3802 0.0
C302 C 0.8798 0.67164 0.31589 0.0
C303 C 0.89261 0.69001 0.31532 0.0
C304 C 0.86785 0.66598 0.29782 0.0
C305 C 0.89319 0.70243 0.29672 0.0
C306 C 0.86883 0.67884 0.27955 0.0
N307 N 0.88138 0.69664 0.27938 0.0
C308 C 0.92771 0.6771 0.36033 0.0
C309 C 0.90865 0.69718 0.38617 0.0
C310 C 0.94567 0.69027 0.36282 0.0
N311 N 0.90954 0.68109 0.37157 0.0
C312 C 0.92621 0.71075 0.38916 0.0
C313 C 0.94493 0.70767 0.37708 0.0
H314 H 0.92793 0.66425 0.34874 0.0
H315 H 0.89408 0.69985 0.39508 0.0
C316 C 0.81176 0.67751 0.32468 0.0
N317 N 0.83196 0.68437 0.32894 0.0
C318 C 0.79783 0.69023 0.31277 0.0
C319 C 0.82551 0.71716 0.31032 0.0
C320 C 0.83886 0.70394 0.32232 0.0
C321 C 0.8047 0.71031 0.3053 0.0
H322 H 0.80636 0.66223 0.33072 0.0
H323 H 0.85473 0.70938 0.32643 0.0
O324 O 0.88111 0.6351 0.37617 0.0
O325 O 0.83661 0.63837 0.35245 0.0
O326 O 0.85697 0.67761 0.37486 0.0
O327 O 0.87903 0.65926 0.33399 0.0
H328 H 0.86262 0.6 0.39115 0.0
H329 H 0.90671 0.65089 0.40599 0.0
H330 H 0.8686 0.585 0.42744 0.0
H331 H 0.91192 0.635 0.44205 0.0
H332 H 0.81274 0.60097 0.29473 0.0
H333 H 0.82641 0.60231 0.37253 0.0
H334 H 0.82765 0.63383 0.31124 0.0
H335 H 0.8111 0.57018 0.35501 0.0
H336 H 0.83549 0.65014 0.45812 0.0
H337 H 0.7836 0.62887 0.41757 0.0
H338 H 0.88881 0.59471 0.28064 0.0
H339 H 0.86817 0.55339 0.33222 0.0
H340 H 0.87008 0.71747 0.3685 0.0
H341 H 0.81537 0.67793 0.38255 0.0
H342 H 0.84661 0.74938 0.36958 0.0
H343 H 0.79284 0.71053 0.38327 0.0
H344 H 0.90177 0.69485 0.32915 0.0
H345 H 0.85778 0.65192 0.29794 0.0
H346 H 0.90296 0.71672 0.29612 0.0
H347 H 0.85958 0.67468 0.26551 0.0
H348 H 0.95965 0.68736 0.35303 0.0
H349 H 0.92505 0.7237 0.4006 0.0
H350 H 0.78176 0.68452 0.3097 0.0
H351 H 0.83153 0.73247 0.30484 0.0
Li352 Li 0.34834 0.84852 0.66552 0.0
Li353 Li 0.38412 0.84951 0.64707 0.0
Li354 Li 0.36718 0.88213 0.66475 0.0
Li355 Li 0.35263 0.86782 0.63222 0.0
C356 C 0.37679 0.84175 0.69553 0.0
N357 N 0.37502 0.81436 0.73025 0.0
C358 C 0.3888 0.82292 0.69561 0.0
C359 C 0.36395 0.84668 0.71318 0.0
C360 C 0.38769 0.80928 0.71331 0.0
C361 C 0.36324 0.83261 0.73054 0.0
C362 C 0.34616 0.82753 0.62103 0.0
C363 C 0.34463 0.81555 0.58437 0.0
N364 N 0.32347 0.8111 0.58682 0.0
C365 C 0.32443 0.82277 0.62322 0.0
C366 C 0.35639 0.82386 0.60148 0.0
C367 C 0.31322 0.81449 0.60572 0.0
C368 C 0.31204 0.83772 0.69066 0.0
N369 N 0.33007 0.82997 0.68138 0.0
C370 C 0.32323 0.79512 0.69558 0.0
C371 C 0.33566 0.80906 0.68329 0.0
C372 C 0.30474 0.80276 0.70578 0.0
C373 C 0.2991 0.82434 0.70304 0.0
H374 H 0.30778 0.85431 0.68858 0.0
H375 H 0.34994 0.80328 0.67544 0.0
C376 C 0.42845 0.84093 0.65088 0.0
N377 N 0.40974 0.83351 0.64261 0.0
C378 C 0.44694 0.82841 0.64992 0.0
C379 C 0.42669 0.80111 0.63142 0.0
C380 C 0.40856 0.81405 0.63295 0.0
C381 C 0.44616 0.80812 0.64024 0.0
H382 H 0.42886 0.85635 0.65874 0.0
H383 H 0.39338 0.80826 0.62702 0.0
C384 C 0.32817 0.89549 0.66504 0.0
N385 N 0.31247 0.93411 0.67967 0.0
C386 C 0.3242 0.91217 0.65067 0.0
C387 C 0.32413 0.89847 0.68685 0.0
C388 C 0.31623 0.93156 0.65838 0.0
C389 C 0.31623 0.91812 0.69393 0.0
C390 C 0.38754 0.88855 0.61726 0.0
C391 C 0.37822 0.90779 0.61076 0.0
C392 C 0.40253 0.87854 0.60408 0.0
C393 C 0.38396 0.91663 0.59103 0.0
C394 C 0.40788 0.88792 0.58448 0.0
N395 N 0.39855 0.9066 0.57841 0.0
C396 C 0.37858 0.90484 0.70245 0.0
C397 C 0.37155 0.92728 0.67276 0.0
C398 C 0.38105 0.9226 0.71581 0.0
N399 N 0.37348 0.90741 0.68144 0.0
C400 C 0.37386 0.94551 0.68556 0.0
C401 C 0.37838 0.94332 0.70751 0.0
H402 H 0.38031 0.88897 0.70899 0.0
H403 H 0.36763 0.92901 0.65603 0.0
C404 C 0.31528 0.87462 0.60843 0.0
N405 N 0.33683 0.87307 0.60596 0.0
C406 C 0.30185 0.87622 0.59064 0.0
C407 C 0.33291 0.87458 0.56781 0.0
C408 C 0.34576 0.87286 0.58608 0.0
C409 C 0.31057 0.87613 0.56991 0.0
H410 H 0.3084 0.87393 0.62429 0.0
H411 H 0.36275 0.87063 0.58426 0.0
O412 O 0.3773 0.85507 0.67813 0.0
O413 O 0.35722 0.8363 0.63776 0.0
O414 O 0.33638 0.87652 0.65787 0.0
O415 O 0.38233 0.87973 0.6366 0.0
H416 H 0.39875 0.81874 0.68211 0.0
H417 H 0.35431 0.86101 0.71329 0.0
H418 H 0.39684 0.79463 0.71355 0.0
H419 H 0.35322 0.83614 0.7442 0.0
H420 H 0.35228 0.81279 0.5691 0.0
H421 H 0.31623 0.8257 0.63818 0.0
H422 H 0.37313 0.82778 0.59942 0.0
H423 H 0.29637 0.81085 0.60713 0.0
H424 H 0.32798 0.77853 0.697 0.0
H425 H 0.28506 0.83092 0.71071 0.0
H426 H 0.46165 0.83445 0.65682 0.0
H427 H 0.42531 0.78546 0.62411 0.0
H428 H 0.32752 0.91032 0.63379 0.0
H429 H 0.32742 0.88589 0.69826 0.0
H430 H 0.31317 0.94462 0.64745 0.0
H431 H 0.3132 0.92068 0.71078 0.0
H432 H 0.36648 0.91565 0.62069 0.0
H433 H 0.40993 0.86367 0.6089 0.0
H434 H 0.37678 0.93144 0.58572 0.0
H435 H 0.41943 0.88033 0.57408 0.0
H436 H 0.38437 0.92005 0.73264 0.0
H437 H 0.37198 0.96115 0.67836 0.0
H438 H 0.28474 0.8768 0.59315 0.0
H439 H 0.34043 0.87446 0.5522 0.0
Li440 Li 0.85116 0.86672 0.88319 0.0
Li441 Li 0.86555 0.88176 0.84825 0.0
Li442 Li 0.84845 0.84694 0.84983 0.0
Li443 Li 0.88352 0.851 0.86521 0.0
C444 C 0.8162 0.87295 0.84725 0.0
N445 N 0.77742 0.86644 0.82706 0.0
C446 C 0.81318 0.87994 0.82621 0.0
C447 C 0.79946 0.86278 0.85807 0.0
C448 C 0.79346 0.87646 0.81627 0.0
C449 C 0.77998 0.85961 0.84758 0.0
C450 C 0.89928 0.89091 0.87737 0.0
C451 C 0.93122 0.90246 0.85904 0.0
N452 N 0.93848 0.91139 0.87752 0.0
C453 C 0.90704 0.90019 0.89619 0.0
C454 C 0.91145 0.89203 0.85864 0.0
C455 C 0.9269 0.91048 0.89593 0.0
C456 C 0.84455 0.86395 0.92815 0.0
N457 N 0.83722 0.87285 0.9097 0.0
C458 C 0.80638 0.88636 0.92778 0.0
C459 C 0.81878 0.8843 0.9093 0.0
C460 C 0.81306 0.87668 0.94697 0.0
C461 C 0.83271 0.86574 0.94707 0.0
H462 H 0.85922 0.85481 0.92798 0.0
H463 H 0.81329 0.89117 0.8944 0.0
C464 C 0.86865 0.90423 0.80951 0.0
N465 N 0.86907 0.90686 0.83109 0.0
C466 C 0.87047 0.92187 0.79589 0.0
C467 C 0.87339 0.94469 0.82697 0.0
C468 C 0.87144 0.92657 0.84001 0.0
C469 C 0.87282 0.94251 0.80454 0.0
H470 H 0.86653 0.88838 0.80286 0.0
H471 H 0.87174 0.9282 0.85725 0.0
C472 C 0.84966 0.81817 0.88598 0.0
N473 N 0.83212 0.78115 0.90283 0.0
C474 C 0.85987 0.79852 0.88305 0.0
C475 C 0.83065 0.819 0.89776 0.0
C476 C 0.85071 0.77998 0.8916 0.0
C477 C 0.82201 0.80011 0.90607 0.0
C478 C 0.88429 0.83985 0.82204 0.0
C479 C 0.88173 0.81817 0.82682 0.0
C480 C 0.8965 0.84596 0.80432 0.0
C481 C 0.89151 0.80289 0.81381 0.0
C482 C 0.90604 0.8302 0.79169 0.0
N483 N 0.90337 0.80917 0.79666 0.0
C484 C 0.8317 0.83054 0.81133 0.0
C485 C 0.81602 0.8148 0.84204 0.0
C486 C 0.81889 0.81805 0.79794 0.0
N487 N 0.83027 0.82854 0.83297 0.0
C488 C 0.80285 0.80205 0.82927 0.0
C489 C 0.80426 0.8035 0.80688 0.0
H490 H 0.84272 0.84197 0.80444 0.0
H491 H 0.81441 0.81399 0.85915 0.0
C492 C 0.91233 0.82346 0.88696 0.0
N493 N 0.91028 0.8367 0.8698 0.0
C494 C 0.93046 0.81055 0.88917 0.0
C495 C 0.9444 0.82576 0.85645 0.0
C496 C 0.9261 0.83843 0.85495 0.0
C497 C 0.94657 0.81126 0.8735 0.0
H498 H 0.89955 0.82239 0.89858 0.0
H499 H 0.92428 0.8492 0.84156 0.0
O500 O 0.83561 0.87559 0.857 0.0
O501 O 0.87991 0.88071 0.87741 0.0
O502 O 0.85865 0.83658 0.87814 0.0
O503 O 0.87514 0.85513 0.83474 0.0
H504 H 0.82599 0.88775 0.81758 0.0
H505 H 0.80159 0.85706 0.87428 0.0
H506 H 0.79094 0.88166 0.79995 0.0
H507 H 0.76694 0.85162 0.8557 0.0
H508 H 0.94081 0.90343 0.84465 0.0
H509 H 0.8978 0.89942 0.91083 0.0
H510 H 0.90572 0.8849 0.84393 0.0
H511 H 0.93311 0.91774 0.91038 0.0
H512 H 0.79128 0.89474 0.92677 0.0
H513 H 0.83872 0.85831 0.96152 0.0
H514 H 0.86955 0.91938 0.77876 0.0
H515 H 0.87542 0.96023 0.83437 0.0
H516 H 0.87481 0.79754 0.87439 0.0
H517 H 0.82241 0.83396 0.90014 0.0
H518 H 0.85842 0.76468 0.88939 0.0
H519 H 0.80723 0.80052 0.91505 0.0
H520 H 0.87222 0.81321 0.84036 0.0
H521 H 0.89874 0.86271 0.80048 0.0
H522 H 0.88965 0.78604 0.81733 0.0
H523 H 0.9156 0.83469 0.77797 0.0
H524 H 0.82059 0.81966 0.78076 0.0
H525 H 0.79143 0.79145 0.83687 0.0
H526 H 0.93145 0.79955 0.90253 0.0
H527 H 0.9566 0.82709 0.84422 0.0
Li528 Li 0.13471 0.6687 0.86285 0.0
Li529 Li 0.16952 0.66886 0.8471 0.0
Li530 Li 0.15047 0.6359 0.84809 0.0
Li531 Li 0.16659 0.65189 0.88147 0.0
C532 C 0.12346 0.65838 0.82193 0.0
N533 N 0.08571 0.65036 0.8003 0.0
C534 C 0.12019 0.66684 0.80147 0.0
C535 C 0.10746 0.64587 0.8314 0.0
C536 C 0.10101 0.6626 0.7908 0.0
C537 C 0.08852 0.64199 0.8202 0.0
C538 C 0.16934 0.70211 0.87548 0.0
C539 C 0.19408 0.72755 0.89073 0.0
N540 N 0.18686 0.74271 0.8769 0.0
C541 C 0.16209 0.71797 0.8615 0.0
C542 C 0.18542 0.70692 0.89028 0.0
C543 C 0.17119 0.73838 0.86242 0.0
C544 C 0.09618 0.6825 0.88383 0.0
N545 N 0.10928 0.68524 0.86666 0.0
C546 C 0.08744 0.71375 0.85357 0.0
C547 C 0.10512 0.70035 0.85156 0.0
C548 C 0.07373 0.71156 0.87125 0.0
C549 C 0.07814 0.69551 0.8864 0.0
H550 H 0.09987 0.67039 0.89563 0.0
H551 H 0.11565 0.70207 0.83794 0.0
C552 C 0.18404 0.68597 0.80808 0.0
N553 N 0.18837 0.68555 0.8294 0.0
C554 C 0.19681 0.69794 0.79417 0.0
C555 C 0.21857 0.70856 0.82433 0.0
C556 C 0.2054 0.69636 0.83763 0.0
C557 C 0.21427 0.70957 0.80228 0.0
H558 H 0.17062 0.67699 0.80188 0.0
H559 H 0.2089 0.69546 0.85451 0.0
C560 C 0.13427 0.6212 0.8883 0.0
N561 N 0.12977 0.58364 0.91121 0.0
C562 C 0.1513 0.60683 0.88972 0.0
C563 C 0.11496 0.61649 0.89854 0.0
C564 C 0.14871 0.58793 0.90138 0.0
C565 C 0.11299 0.5974 0.91003 0.0
C566 C 0.20146 0.64181 0.84828 0.0
C567 C 0.20664 0.63389 0.82802 0.0
C568 C 0.21733 0.65148 0.86076 0.0
C569 C 0.22759 0.63592 0.82051 0.0
C570 C 0.2381 0.65315 0.8527 0.0
N571 N 0.24275 0.64543 0.8329 0.0
C572 C 0.15139 0.61185 0.81072 0.0
C573 C 0.13485 0.59257 0.83886 0.0
C574 C 0.14881 0.59456 0.7968 0.0
N575 N 0.1448 0.6105 0.83143 0.0
C576 C 0.13204 0.57481 0.82549 0.0
C577 C 0.13922 0.57559 0.80417 0.0
H578 H 0.15877 0.62645 0.80502 0.0
H579 H 0.12899 0.59194 0.85508 0.0
C580 C 0.1746 0.65907 0.92561 0.0
N581 N 0.18045 0.64709 0.90844 0.0
C582 C 0.1861 0.6578 0.94478 0.0
C583 C 0.20899 0.63136 0.92848 0.0
C584 C 0.19698 0.63306 0.90969 0.0
C585 C 0.20387 0.64411 0.9463 0.0
H586 H 0.16138 0.67011 0.92419 0.0
H587 H 0.20135 0.62369 0.89582 0.0
O588 O 0.14222 0.66249 0.83251 0.0
O589 O 0.16073 0.68199 0.87478 0.0
O590 O 0.13648 0.63998 0.87727 0.0
O591 O 0.18096 0.64024 0.85581 0.0
H592 H 0.13232 0.67665 0.79392 0.0
H593 H 0.10955 0.63919 0.84719 0.0
H594 H 0.09829 0.66906 0.77497 0.0
H595 H 0.07604 0.63233 0.82734 0.0
H596 H 0.20659 0.73148 0.90203 0.0
H597 H 0.14985 0.71445 0.8498 0.0
H598 H 0.19129 0.69482 0.90115 0.0
H599 H 0.16584 0.75077 0.85159 0.0
H600 H 0.08445 0.72564 0.84133 0.0
H601 H 0.06801 0.69334 0.9003 0.0
H602 H 0.19285 0.69836 0.77729 0.0
H603 H 0.23209 0.71694 0.83121 0.0
H604 H 0.16626 0.61008 0.88169 0.0
H605 H 0.10165 0.62748 0.89761 0.0
H606 H 0.16173 0.57664 0.90256 0.0
H607 H 0.09814 0.59353 0.91802 0.0
H608 H 0.19464 0.62629 0.81817 0.0
H609 H 0.21356 0.6581 0.87629 0.0
H610 H 0.23178 0.62992 0.80483 0.0
H611 H 0.25048 0.66075 0.86213 0.0
H612 H 0.15469 0.5959 0.78055 0.0
H613 H 0.12418 0.56066 0.83173 0.0
H614 H 0.18127 0.66767 0.95817 0.0
H615 H 0.22264 0.62076 0.92871 0.0
Li616 Li 0.84643 0.17013 0.66867 0.0
Li617 Li 0.86341 0.13349 0.66497 0.0
Li618 Li 0.88103 0.16803 0.65083 0.0
Li619 Li 0.84993 0.15307 0.63395 0.0
C620 C 0.87469 0.16573 0.70173 0.0
N621 N 0.87535 0.17851 0.74407 0.0
C622 C 0.87186 0.1507 0.71807 0.0
C623 C 0.8781 0.18722 0.70694 0.0
C624 C 0.87219 0.15749 0.73938 0.0
C625 C 0.8783 0.19337 0.72843 0.0
C626 C 0.81498 0.13619 0.65067 0.0
C627 C 0.79317 0.10912 0.63389 0.0
N628 N 0.77747 0.12383 0.63084 0.0
C629 C 0.7986 0.15102 0.6475 0.0
C630 C 0.81226 0.11505 0.64391 0.0
C631 C 0.77977 0.14446 0.63739 0.0
C632 C 0.81991 0.20514 0.67847 0.0
N633 N 0.82835 0.18683 0.68653 0.0
C634 C 0.81077 0.19254 0.72 0.0
C635 C 0.82363 0.1801 0.70668 0.0
C636 C 0.80212 0.21182 0.71229 0.0
C637 C 0.80667 0.21791 0.69109 0.0
H638 H 0.8233 0.20976 0.66214 0.0
H639 H 0.82991 0.1651 0.71247 0.0
C640 C 0.88637 0.09777 0.68222 0.0
N641 N 0.86684 0.10693 0.67966 0.0
C642 C 0.88857 0.07923 0.69464 0.0
C643 C 0.85051 0.07982 0.70124 0.0
C644 C 0.84907 0.09834 0.68883 0.0
C645 C 0.87047 0.07007 0.70444 0.0
H646 H 0.90028 0.10508 0.67492 0.0
H647 H 0.83381 0.10621 0.68695 0.0
C648 C 0.86212 0.20252 0.63404 0.0
N649 N 0.87755 0.2413 0.61929 0.0
C650 C 0.86487 0.20594 0.61209 0.0
C651 C 0.86707 0.21889 0.64846 0.0
C652 C 0.87271 0.22565 0.60495 0.0
C653 C 0.87491 0.23835 0.6407 0.0
C654 C 0.88159 0.1289 0.61821 0.0
C655 C 0.88515 0.14083 0.59963 0.0
C656 C 0.88117 0.10657 0.61719 0.0
C657 C 0.888 0.13018 0.58018 0.0
C658 C 0.88415 0.09651 0.59744 0.0
N659 N 0.88745 0.10843 0.57951 0.0
C660 C 0.9196 0.18649 0.6659 0.0
C661 C 0.91396 0.19162 0.62881 0.0
C662 C 0.93774 0.19958 0.66534 0.0
N663 N 0.90779 0.18319 0.64792 0.0
C664 C 0.9318 0.20512 0.62757 0.0
C665 C 0.94382 0.20961 0.6461 0.0
H666 H 0.91477 0.17921 0.68082 0.0
H667 H 0.9047 0.18843 0.61459 0.0
C668 C 0.82318 0.1673 0.6008 0.0
N669 N 0.83399 0.14971 0.60757 0.0
C670 C 0.81 0.16631 0.58279 0.0
C671 C 0.81875 0.12889 0.57917 0.0
C672 C 0.83184 0.13063 0.59726 0.0
C673 C 0.80761 0.14692 0.5717 0.0
H674 H 0.82431 0.18204 0.60976 0.0
H675 H 0.83981 0.1166 0.60336 0.0
O676 O 0.87426 0.15939 0.68076 0.0
O677 O 0.83379 0.14248 0.65989 0.0
O678 O 0.85463 0.18326 0.64136 0.0
O679 O 0.8788 0.13898 0.6374 0.0
H680 H 0.8693 0.13399 0.71438 0.0
H681 H 0.88054 0.19902 0.69453 0.0
H682 H 0.86991 0.14605 0.75218 0.0
H683 H 0.88081 0.20997 0.73268 0.0
H684 H 0.79088 0.09285 0.62843 0.0
H685 H 0.80054 0.16748 0.65253 0.0
H686 H 0.82489 0.10344 0.64606 0.0
H687 H 0.767 0.15579 0.63469 0.0
H688 H 0.80788 0.18718 0.73622 0.0
H689 H 0.79991 0.23226 0.68419 0.0
H690 H 0.90424 0.07217 0.69658 0.0
H691 H 0.8362 0.07357 0.70878 0.0
H692 H 0.86136 0.1934 0.60068 0.0
H693 H 0.86489 0.21659 0.66546 0.0
H694 H 0.87505 0.22845 0.58803 0.0
H695 H 0.87889 0.25111 0.6517 0.0
H696 H 0.88543 0.15812 0.60017 0.0
H697 H 0.87848 0.09713 0.63148 0.0
H698 H 0.89062 0.1392 0.56563 0.0
H699 H 0.88379 0.07924 0.59637 0.0
H700 H 0.94679 0.20191 0.67993 0.0
H701 H 0.93568 0.21245 0.61235 0.0
H702 H 0.80131 0.18047 0.57796 0.0
H703 H 0.81732 0.11359 0.57117 0.0
Li704 Li 0.15136 0.38387 0.66574 0.0
Li705 Li 0.16858 0.35024 0.66846 0.0
Li706 Li 0.16623 0.36761 0.63396 0.0
Li707 Li 0.13314 0.35233 0.65138 0.0
C708 C 0.19264 0.39579 0.65491 0.0
N709 N 0.21465 0.43284 0.64486 0.0
C710 C 0.21343 0.39894 0.66249 0.0
C711 C 0.18304 0.41148 0.64219 0.0
C712 C 0.22429 0.41778 0.65724 0.0
C713 C 0.19444 0.4301 0.6373 0.0
C714 C 0.13686 0.36608 0.70125 0.0
C715 C 0.11209 0.38067 0.72694 0.0
N716 N 0.12849 0.38374 0.74092 0.0
C717 C 0.15346 0.36937 0.71588 0.0
C718 C 0.11599 0.37176 0.70681 0.0
C719 C 0.14891 0.37831 0.73584 0.0
C720 C 0.12922 0.42194 0.67939 0.0
N721 N 0.14739 0.41017 0.68121 0.0
C722 C 0.1614 0.43453 0.70722 0.0
C723 C 0.16332 0.41612 0.69479 0.0
C724 C 0.14287 0.44709 0.70577 0.0
C725 C 0.12659 0.44056 0.69162 0.0
H726 H 0.11671 0.41678 0.66858 0.0
H727 H 0.17744 0.4063 0.69629 0.0
C728 C 0.20732 0.33076 0.68093 0.0
N729 N 0.18618 0.33239 0.6856 0.0
C730 C 0.22038 0.31717 0.69288 0.0
C731 C 0.18966 0.30744 0.71432 0.0
C732 C 0.17718 0.32106 0.70185 0.0
C733 C 0.21158 0.30528 0.70988 0.0
H734 H 0.21394 0.33983 0.66773 0.0
H735 H 0.16026 0.32254 0.70505 0.0
C736 C 0.12608 0.38213 0.61847 0.0
N737 N 0.10364 0.38385 0.58041 0.0
C738 C 0.12339 0.36366 0.60613 0.0
C739 C 0.11733 0.40146 0.61148 0.0
C740 C 0.11197 0.36486 0.58694 0.0
C741 C 0.10607 0.40201 0.59217 0.0
C742 C 0.16854 0.31783 0.64217 0.0
C743 C 0.1873 0.3133 0.63093 0.0
C744 C 0.15967 0.30232 0.65567 0.0
C745 C 0.197 0.29336 0.63354 0.0
C746 C 0.16986 0.28259 0.65787 0.0
N747 N 0.18818 0.27856 0.64687 0.0
C748 C 0.20405 0.36782 0.61052 0.0
C749 C 0.1747 0.37763 0.58878 0.0
C750 C 0.21799 0.36945 0.59313 0.0
N751 N 0.1828 0.37169 0.60811 0.0
C752 C 0.18804 0.37912 0.57083 0.0
C753 C 0.21004 0.37484 0.57277 0.0
H754 H 0.2102 0.36324 0.62604 0.0
H755 H 0.15793 0.38105 0.58707 0.0
C756 C 0.08791 0.3445 0.65462 0.0
N757 N 0.10684 0.33684 0.64718 0.0
C758 C 0.06934 0.33196 0.65335 0.0
C759 C 0.08997 0.30425 0.63615 0.0
C760 C 0.10801 0.31736 0.63756 0.0
C761 C 0.07038 0.31133 0.64445 0.0
H762 H 0.0873 0.36016 0.66192 0.0
H763 H 0.12307 0.31181 0.63124 0.0
O764 O 0.18191 0.37734 0.65996 0.0
O765 O 0.14107 0.3577 0.68146 0.0
O766 O 0.13675 0.38139 0.63756 0.0
O767 O 0.15911 0.33749 0.6403 0.0
H768 H 0.22107 0.38692 0.67233 0.0
H769 H 0.16699 0.40937 0.63613 0.0
H770 H 0.24039 0.42043 0.66301 0.0
H771 H 0.18721 0.44237 0.62748 0.0
H772 H 0.09602 0.38518 0.73144 0.0
H773 H 0.16978 0.36545 0.71172 0.0
H774 H 0.10297 0.36942 0.69568 0.0
H775 H 0.16163 0.38106 0.74726 0.0
H776 H 0.17417 0.43864 0.7182 0.0
H777 H 0.11208 0.44981 0.6899 0.0
H778 H 0.23711 0.31577 0.68865 0.0
H779 H 0.18222 0.29884 0.72741 0.0
H780 H 0.13029 0.34864 0.6111 0.0
H781 H 0.11922 0.41587 0.62091 0.0
H782 H 0.10982 0.35071 0.5772 0.0
H783 H 0.09924 0.41687 0.58655 0.0
H784 H 0.19433 0.32503 0.62034 0.0
H785 H 0.14529 0.30565 0.6647 0.0
H786 H 0.21158 0.28967 0.625 0.0
H787 H 0.16328 0.27052 0.66842 0.0
H788 H 0.23484 0.36649 0.59569 0.0
H789 H 0.18102 0.38317 0.55551 0.0
H790 H 0.05452 0.33802 0.6599 0.0
H791 H 0.09137 0.28864 0.62876 0.0
Li792 Li 0.63161 0.1638 0.36455 0.0
Li793 Li 0.66787 0.16735 0.34698 0.0
Li794 Li 0.65081 0.13255 0.3509 0.0
Li795 Li 0.66616 0.14977 0.38176 0.0
C796 C 0.63454 0.14897 0.3157 0.0
N797 N 0.62397 0.12866 0.27787 0.0
C798 C 0.64906 0.14863 0.2987 0.0
C799 C 0.6146 0.13907 0.31343 0.0
C800 C 0.64342 0.13827 0.27971 0.0
C801 C 0.60957 0.12886 0.29418 0.0
C802 C 0.66392 0.20067 0.37426 0.0
C803 C 0.69113 0.22784 0.37804 0.0
N804 N 0.67654 0.24306 0.37279 0.0
C805 C 0.64917 0.2166 0.36902 0.0
C806 C 0.68505 0.20634 0.37892 0.0
C807 C 0.65587 0.23793 0.36832 0.0
C808 C 0.60017 0.18675 0.38826 0.0
N809 N 0.6053 0.17865 0.36873 0.0
C810 C 0.57512 0.19586 0.35283 0.0
C811 C 0.59313 0.18282 0.35121 0.0
C812 C 0.56971 0.2051 0.37263 0.0
C813 C 0.58235 0.20009 0.39059 0.0
H814 H 0.61038 0.18351 0.40185 0.0
H815 H 0.59777 0.17657 0.33579 0.0
C816 C 0.70392 0.17818 0.32197 0.0
N817 N 0.68445 0.18515 0.32859 0.0
C818 C 0.71644 0.19081 0.30844 0.0
C819 C 0.68845 0.21739 0.30838 0.0
C820 C 0.67638 0.20414 0.32175 0.0
C821 C 0.70879 0.21077 0.30161 0.0
H822 H 0.70969 0.16272 0.32705 0.0
H823 H 0.66052 0.20893 0.32657 0.0
C824 C 0.62775 0.11716 0.38455 0.0
N825 N 0.60864 0.07849 0.39429 0.0
C826 C 0.64029 0.09903 0.38802 0.0
C827 C 0.6055 0.11569 0.38612 0.0
C828 C 0.63032 0.0796 0.39288 0.0
C829 C 0.59614 0.09597 0.39106 0.0
C830 C 0.70028 0.13276 0.36248 0.0
C831 C 0.70422 0.11077 0.36346 0.0
C832 C 0.71611 0.14717 0.36902 0.0
C833 C 0.72393 0.10358 0.37112 0.0
C834 C 0.73558 0.13934 0.37663 0.0
N835 N 0.73905 0.11789 0.37751 0.0
C836 C 0.66389 0.10147 0.32171 0.0
C837 C 0.62959 0.09362 0.33569 0.0
C838 C 0.66282 0.08377 0.30813 0.0
N839 N 0.64748 0.10606 0.3352 0.0
C840 C 0.62797 0.07553 0.32259 0.0
C841 C 0.64469 0.07041 0.30843 0.0
H842 H 0.67765 0.11197 0.32105 0.0
H843 H 0.61632 0.09795 0.34582 0.0
C844 C 0.68376 0.1644 0.42094 0.0
N845 N 0.68122 0.14671 0.40852 0.0
C846 C 0.69627 0.16359 0.43948 0.0
C847 C 0.70287 0.12618 0.43253 0.0
C848 C 0.69003 0.12767 0.41427 0.0
C849 C 0.70634 0.14437 0.44527 0.0
H850 H 0.67639 0.1793 0.41626 0.0
H851 H 0.68755 0.11369 0.40445 0.0
O852 O 0.64005 0.15843 0.33465 0.0
O853 O 0.65768 0.17967 0.37493 0.0
O854 O 0.63715 0.13634 0.37986 0.0
O855 O 0.68103 0.14012 0.35518 0.0
H856 H 0.66462 0.15608 0.30025 0.0
H857 H 0.6033 0.13888 0.32656 0.0
H858 H 0.65454 0.13778 0.26646 0.0
H859 H 0.59427 0.12096 0.29226 0.0
H860 H 0.70744 0.23244 0.38155 0.0
H861 H 0.63278 0.21256 0.36527 0.0
H862 H 0.69664 0.19428 0.3832 0.0
H863 H 0.64464 0.2504 0.36417 0.0
H864 H 0.56572 0.1989 0.33861 0.0
H865 H 0.57902 0.20701 0.40611 0.0
H866 H 0.73205 0.18512 0.30359 0.0
H867 H 0.68181 0.2325 0.30312 0.0
H868 H 0.65749 0.09986 0.38659 0.0
H869 H 0.5956 0.12964 0.38351 0.0
H870 H 0.63981 0.06538 0.39546 0.0
H871 H 0.57894 0.09457 0.39229 0.0
H872 H 0.69211 0.09937 0.35861 0.0
H873 H 0.71336 0.16421 0.36829 0.0
H874 H 0.72716 0.08662 0.37206 0.0
H875 H 0.74792 0.15033 0.38183 0.0
H876 H 0.67589 0.08095 0.29714 0.0
H877 H 0.61369 0.06575 0.32354 0.0
H878 H 0.69856 0.17801 0.44882 0.0
H879 H 0.71008 0.11098 0.43659 0.0
Li880 Li 0.63607 0.66716 0.64901 0.0
Li881 Li 0.67108 0.6681 0.66557 0.0
Li882 Li 0.66616 0.6519 0.63049 0.0
Li883 Li 0.65364 0.63305 0.66261 0.0
C884 C 0.65503 0.70001 0.62845 0.0
N885 N 0.63961 0.73613 0.60816 0.0
C886 C 0.66206 0.7203 0.63472 0.0
C887 C 0.64043 0.6981 0.61161 0.0
C888 C 0.65402 0.73837 0.62432 0.0
C889 C 0.63273 0.71653 0.60163 0.0
C890 C 0.64675 0.66269 0.69987 0.0
C891 C 0.66426 0.65487 0.73336 0.0
N892 N 0.65398 0.67166 0.74256 0.0
C893 C 0.63631 0.67983 0.70966 0.0
C894 C 0.66081 0.65006 0.7118 0.0
C895 C 0.64019 0.68412 0.73127 0.0
C896 C 0.59254 0.67599 0.63668 0.0
N897 N 0.61009 0.68328 0.64729 0.0
C898 C 0.59255 0.7163 0.65521 0.0
C899 C 0.61032 0.70291 0.65665 0.0
C900 C 0.57422 0.70936 0.64422 0.0
C901 C 0.57426 0.68881 0.63503 0.0
H902 H 0.59281 0.66034 0.62929 0.0
H903 H 0.62451 0.70832 0.66496 0.0
C904 C 0.70681 0.67695 0.69282 0.0
N905 N 0.68849 0.68492 0.68426 0.0
C906 C 0.71931 0.68952 0.70641 0.0
C907 C 0.69333 0.71788 0.70305 0.0
C908 C 0.68142 0.70481 0.68938 0.0
C909 C 0.71267 0.71033 0.71156 0.0
H910 H 0.71167 0.66077 0.68928 0.0
H911 H 0.6664 0.71045 0.68296 0.0
C912 C 0.63633 0.62542 0.61747 0.0
N913 N 0.63524 0.59998 0.58133 0.0
C914 C 0.64453 0.60466 0.61813 0.0
C915 C 0.62735 0.63317 0.59851 0.0
C916 C 0.64388 0.59206 0.59967 0.0
C917 C 0.62701 0.62008 0.58039 0.0
C918 C 0.70472 0.64256 0.65019 0.0
C919 C 0.71264 0.66168 0.64158 0.0
C920 C 0.71862 0.62538 0.65341 0.0
C921 C 0.7343 0.66327 0.63637 0.0
C922 C 0.74018 0.62761 0.648 0.0
N923 N 0.74751 0.64634 0.63966 0.0
C924 C 0.68296 0.66466 0.58992 0.0
C925 C 0.69043 0.6288 0.59949 0.0
C926 C 0.6959 0.66297 0.57178 0.0
N927 N 0.68056 0.64777 0.60345 0.0
C928 C 0.70353 0.62639 0.58148 0.0
C929 C 0.7067 0.64376 0.56752 0.0
H930 H 0.67551 0.67974 0.59354 0.0
H931 H 0.68884 0.61578 0.61079 0.0
C932 C 0.6316 0.60427 0.69 0.0
N933 N 0.64944 0.60677 0.6778 0.0
C934 C 0.62933 0.58636 0.70327 0.0
C935 C 0.66368 0.5738 0.69093 0.0
C936 C 0.66523 0.59188 0.67784 0.0
C937 C 0.64568 0.57098 0.70412 0.0
H938 H 0.61943 0.61653 0.68991 0.0
H939 H 0.67925 0.59429 0.66802 0.0
O940 O 0.66234 0.68213 0.63879 0.0
O941 O 0.64369 0.65862 0.67859 0.0
O942 O 0.63722 0.6381 0.63529 0.0
O943 O 0.68345 0.6404 0.65499 0.0
H944 H 0.67371 0.72212 0.64736 0.0
H945 H 0.63495 0.68253 0.60647 0.0
H946 H 0.65927 0.75417 0.62907 0.0
H947 H 0.62127 0.71526 0.58872 0.0
H948 H 0.67519 0.64531 0.74275 0.0
H949 H 0.62542 0.68978 0.70065 0.0
H950 H 0.66923 0.6369 0.70439 0.0
H951 H 0.63228 0.69737 0.73904 0.0
H952 H 0.59312 0.7319 0.66275 0.0
H953 H 0.5605 0.68291 0.62631 0.0
H954 H 0.73388 0.68294 0.71305 0.0
H955 H 0.68761 0.73381 0.70669 0.0
H956 H 0.65156 0.59843 0.63266 0.0
H957 H 0.62066 0.64908 0.59779 0.0
H958 H 0.65032 0.57601 0.5999 0.0
H959 H 0.62019 0.62589 0.56559 0.0
H960 H 0.70224 0.67518 0.63891 0.0
H961 H 0.71283 0.61044 0.65997 0.0
H962 H 0.7406 0.67795 0.62969 0.0
H963 H 0.75109 0.61442 0.65041 0.0
H964 H 0.69768 0.67671 0.56136 0.0
H965 H 0.71176 0.61137 0.57902 0.0
H966 H 0.61529 0.58496 0.71332 0.0
H967 H 0.67653 0.56222 0.69086 0.0
Li968 Li 0.64909 0.38413 0.8501 0.0
Li969 Li 0.66399 0.36871 0.88182 0.0
Li970 Li 0.66713 0.34998 0.84799 0.0
Li971 Li 0.63179 0.35124 0.86763 0.0
C972 C 0.68933 0.39521 0.8471 0.0
N973 N 0.7079 0.43106 0.82891 0.0
C974 C 0.69495 0.41271 0.85988 0.0
C975 C 0.69325 0.39594 0.82508 0.0
C976 C 0.70434 0.43067 0.85039 0.0
C977 C 0.70259 0.41422 0.81618 0.0
C978 C 0.63124 0.3903 0.8982 0.0
C979 C 0.61353 0.39057 0.93248 0.0
N980 N 0.62463 0.40851 0.93792 0.0
C981 C 0.64237 0.40882 0.90405 0.0
C982 C 0.61663 0.38113 0.91245 0.0
C983 C 0.63885 0.41774 0.92424 0.0
C984 C 0.63564 0.40716 0.81343 0.0
N985 N 0.64334 0.40968 0.83363 0.0
C986 C 0.64698 0.44744 0.828 0.0
C987 C 0.64833 0.42945 0.84128 0.0
C988 C 0.64004 0.44516 0.80668 0.0
C989 C 0.63382 0.42469 0.79968 0.0
H990 H 0.63125 0.39144 0.80779 0.0
H991 H 0.65414 0.4312 0.85747 0.0
C992 C 0.70145 0.37734 0.90537 0.0
N993 N 0.68025 0.37314 0.90793 0.0
C994 C 0.71505 0.37847 0.92306 0.0
C995 C 0.68496 0.37057 0.94593 0.0
C996 C 0.67187 0.36976 0.92776 0.0
C997 C 0.70697 0.37477 0.94373 0.0
H998 H 0.708 0.37914 0.88947 0.0
H999 H 0.65522 0.36553 0.92948 0.0
C1000 C 0.6364 0.34543 0.81832 0.0
N1001 N 0.63353 0.32089 0.78162 0.0
C1002 C 0.62257 0.32783 0.81759 0.0
C1003 C 0.64861 0.35065 0.8003 0.0
C1004 C 0.62138 0.3156 0.7989 0.0
C1005 C 0.64699 0.33801 0.78193 0.0
C1006 C 0.67041 0.32786 0.89158 0.0
C1007 C 0.69241 0.32496 0.88898 0.0
C1008 C 0.66055 0.32146 0.91062 0.0
C1009 C 0.70423 0.31582 0.90559 0.0
C1010 C 0.67293 0.31234 0.92683 0.0
N1011 N 0.69433 0.30975 0.92401 0.0
C1012 C 0.70491 0.33796 0.82626 0.0
C1013 C 0.67701 0.31223 0.82509 0.0
C1014 C 0.71802 0.32483 0.81388 0.0
N1015 N 0.68472 0.33162 0.8313 0.0
C1016 C 0.6894 0.29878 0.81233 0.0
C1017 C 0.71015 0.30511 0.80656 0.0
H1018 H 0.71087 0.35318 0.83193 0.0
H1019 H 0.66118 0.30725 0.82996 0.0
C1020 C 0.58679 0.34363 0.86774 0.0
N1021 N 0.6062 0.33518 0.8726 0.0
C1022 C 0.5683 0.33101 0.86918 0.0
C1023 C 0.5901 0.30145 0.88108 0.0
C1024 C 0.60815 0.31455 0.87921 0.0
C1025 C 0.56985 0.30955 0.87577 0.0
H1026 H 0.58574 0.36 0.86223 0.0
H1027 H 0.62382 0.30803 0.8824 0.0
O1028 O 0.67984 0.37758 0.85604 0.0
O1029 O 0.63441 0.38132 0.87853 0.0
O1030 O 0.63796 0.35746 0.83658 0.0
O1031 O 0.65871 0.33742 0.87577 0.0
H1032 H 0.69177 0.41261 0.8769 0.0
H1033 H 0.68902 0.38259 0.81493 0.0
H1034 H 0.70865 0.44436 0.86007 0.0
H1035 H 0.7056 0.41502 0.79915 0.0
H1036 H 0.60233 0.38361 0.94371 0.0
H1037 H 0.65377 0.41606 0.89322 0.0
H1038 H 0.60786 0.36681 0.90812 0.0
H1039 H 0.64746 0.43198 0.92906 0.0
H1040 H 0.65206 0.46282 0.83417 0.0
H1041 H 0.6278 0.42216 0.78363 0.0
H1042 H 0.73182 0.38195 0.92048 0.0
H1043 H 0.67802 0.36713 0.96144 0.0
H1044 H 0.61295 0.32353 0.8313 0.0
H1045 H 0.65936 0.36421 0.80054 0.0
H1046 H 0.61082 0.30189 0.79815 0.0
H1047 H 0.65646 0.3418 0.76794 0.0
H1048 H 0.70032 0.33002 0.87442 0.0
H1049 H 0.64359 0.32388 0.91301 0.0
H1050 H 0.72129 0.31362 0.90386 0.0
H1051 H 0.66554 0.30745 0.94171 0.0
H1052 H 0.734 0.33016 0.80979 0.0
H1053 H 0.68297 0.2835 0.80724 0.0
H1054 H 0.55299 0.33791 0.86502 0.0
H1055 H 0.59208 0.28492 0.88588 0.0
Li1056 Li 0.35001 0.15009 0.88044 0.0
Li1057 Li 0.36539 0.13324 0.84819 0.0
Li1058 Li 0.38189 0.16552 0.86327 0.0
Li1059 Li 0.3468 0.16652 0.84525 0.0
C1060 C 0.38037 0.11758 0.88744 0.0
N1061 N 0.38239 0.07861 0.90824 0.0
C1062 C 0.36335 0.10308 0.88594 0.0
C1063 C 0.3984 0.11223 0.89949 0.0
C1064 C 0.36469 0.08347 0.89658 0.0
C1065 C 0.39911 0.09246 0.9099 0.0
C1066 C 0.31584 0.1372 0.84451 0.0
C1067 C 0.29564 0.13557 0.81163 0.0
N1068 N 0.27719 0.13508 0.82312 0.0
C1069 C 0.29668 0.1364 0.85599 0.0
C1070 C 0.31533 0.13651 0.82215 0.0
C1071 C 0.2773 0.13543 0.84489 0.0
C1072 C 0.31577 0.1583 0.90726 0.0
N1073 N 0.33458 0.14748 0.90693 0.0
C1074 C 0.32905 0.13587 0.94307 0.0
C1075 C 0.34155 0.13659 0.92446 0.0
C1076 C 0.30928 0.14656 0.94371 0.0
C1077 C 0.30276 0.15791 0.92541 0.0
H1078 H 0.31084 0.16723 0.89328 0.0
H1079 H 0.35685 0.12864 0.92416 0.0
C1080 C 0.39036 0.10026 0.82775 0.0
N1081 N 0.37034 0.10647 0.83354 0.0
C1082 C 0.39331 0.08194 0.81519 0.0
C1083 C 0.35518 0.0759 0.81609 0.0
C1084 C 0.35297 0.09439 0.82841 0.0
C1085 C 0.37551 0.06963 0.80897 0.0
H1086 H 0.40403 0.10971 0.83254 0.0
H1087 H 0.33727 0.09922 0.83363 0.0
C1088 C 0.35889 0.19207 0.89057 0.0
N1089 N 0.36633 0.21589 0.92707 0.0
C1090 C 0.34917 0.21201 0.89312 0.0
C1091 C 0.37236 0.18421 0.9066 0.0
C1092 C 0.35315 0.22382 0.91169 0.0
C1093 C 0.37593 0.19651 0.92492 0.0
C1094 C 0.38736 0.15255 0.81642 0.0
C1095 C 0.40958 0.15189 0.81868 0.0
C1096 C 0.378 0.14587 0.79722 0.0
C1097 C 0.42205 0.14425 0.80179 0.0
C1098 C 0.39101 0.13828 0.78073 0.0
N1099 N 0.41258 0.13762 0.78334 0.0
C1100 C 0.42569 0.17418 0.87524 0.0
C1101 C 0.4054 0.20346 0.86236 0.0
C1102 C 0.44372 0.18734 0.87758 0.0
N1103 N 0.40708 0.18242 0.86762 0.0
C1104 C 0.42289 0.21719 0.86467 0.0
C1105 C 0.44243 0.20919 0.87228 0.0
H1106 H 0.42658 0.15738 0.87928 0.0
H1107 H 0.39042 0.20954 0.85624 0.0
C1108 C 0.30923 0.18941 0.83501 0.0
N1109 N 0.32903 0.18397 0.82796 0.0
C1110 C 0.29589 0.20201 0.8223 0.0
C1111 C 0.32389 0.20375 0.79567 0.0
C1112 C 0.33658 0.19093 0.80878 0.0
C1113 C 0.30318 0.2094 0.80231 0.0
H1114 H 0.30374 0.1838 0.85045 0.0
H1115 H 0.35253 0.18663 0.80374 0.0
O1116 O 0.37959 0.13686 0.87711 0.0
O1117 O 0.33499 0.13844 0.85508 0.0
O1118 O 0.35504 0.18032 0.8725 0.0
O1119 O 0.37486 0.15986 0.83284 0.0
H1120 H 0.34923 0.1069 0.87678 0.0
H1121 H 0.41171 0.12328 0.90079 0.0
H1122 H 0.35164 0.07212 0.89558 0.0
H1123 H 0.41297 0.08813 0.9193 0.0
H1124 H 0.29504 0.13523 0.79432 0.0
H1125 H 0.29672 0.13636 0.87329 0.0
H1126 H 0.32999 0.13686 0.81303 0.0
H1127 H 0.26235 0.13489 0.85359 0.0
H1128 H 0.33499 0.12729 0.9569 0.0
H1129 H 0.28761 0.16624 0.92496 0.0
H1130 H 0.40932 0.07747 0.81039 0.0
H1131 H 0.341 0.06695 0.81168 0.0
H1132 H 0.33866 0.21826 0.88086 0.0
H1133 H 0.37998 0.16879 0.90494 0.0
H1134 H 0.34574 0.23928 0.91387 0.0
H1135 H 0.38632 0.19064 0.93745 0.0
H1136 H 0.41714 0.15698 0.83337 0.0
H1137 H 0.36088 0.14652 0.79504 0.0
H1138 H 0.43926 0.14352 0.80338 0.0
H1139 H 0.38396 0.13293 0.76584 0.0
H1140 H 0.45845 0.18056 0.88363 0.0
H1141 H 0.42125 0.23383 0.86014 0.0
H1142 H 0.27998 0.20572 0.82801 0.0
H1143 H 0.33038 0.20942 0.78063 0.0
Li1144 Li 0.36651 0.38329 0.35022 0.0
Li1145 Li 0.34947 0.36557 0.38103 0.0
Li1146 Li 0.38252 0.34934 0.36369 0.0
Li1147 Li 0.34704 0.34838 0.34646 0.0
C1148 C 0.39369 0.39286 0.38495 0.0
N1149 N 0.42272 0.424 0.39706 0.0
C1150 C 0.3872 0.4099 0.39786 0.0
C1151 C 0.41506 0.39143 0.37859 0.0
C1152 C 0.40208 0.42556 0.4037 0.0
C1153 C 0.42946 0.40739 0.38476 0.0
C1154 C 0.31853 0.38788 0.36234 0.0
C1155 C 0.28308 0.38858 0.37754 0.0
N1156 N 0.2843 0.41027 0.37897 0.0
C1157 C 0.31938 0.41017 0.36385 0.0
C1158 C 0.30017 0.37699 0.3691 0.0
C1159 C 0.30192 0.4212 0.37232 0.0
C1160 C 0.37105 0.40752 0.313 0.0
N1161 N 0.37191 0.40944 0.33468 0.0
C1162 C 0.37756 0.44725 0.33148 0.0
C1163 C 0.37506 0.42885 0.34407 0.0
C1164 C 0.37704 0.44557 0.30905 0.0
C1165 C 0.37388 0.42535 0.29985 0.0
H1166 H 0.36781 0.39211 0.30586 0.0
H1167 H 0.37505 0.43022 0.36128 0.0
C1168 C 0.32737 0.3513 0.41776 0.0
N1169 N 0.33408 0.36933 0.40755 0.0
C1170 C 0.31424 0.35264 0.43578 0.0
C1171 C 0.31591 0.39116 0.43328 0.0
C1172 C 0.32886 0.38907 0.41512 0.0
C1173 C 0.30813 0.37275 0.44362 0.0
H1174 H 0.33194 0.3358 0.41175 0.0
H1175 H 0.33422 0.40321 0.40674 0.0
C1176 C 0.39103 0.35631 0.31946 0.0
N1177 N 0.42398 0.35477 0.29004 0.0
C1178 C 0.39017 0.34188 0.30239 0.0
C1179 C 0.4085 0.37016 0.32138 0.0
C1180 C 0.40704 0.34128 0.28774 0.0
C1181 C 0.42503 0.3691 0.30639 0.0
C1182 C 0.34688 0.31513 0.37264 0.0
C1183 C 0.35982 0.29714 0.36994 0.0
C1184 C 0.32468 0.31263 0.37365 0.0
C1185 C 0.35031 0.27699 0.36791 0.0
C1186 C 0.31578 0.29223 0.37152 0.0
N1187 N 0.32867 0.27497 0.36869 0.0
C1188 C 0.42013 0.33406 0.38537 0.0
C1189 C 0.41279 0.31849 0.35161 0.0
C1190 C 0.43794 0.32076 0.38802 0.0
N1191 N 0.408 0.3327 0.36734 0.0
C1192 C 0.43042 0.30502 0.35352 0.0
C1193 C 0.44321 0.30584 0.372 0.0
H1194 H 0.41579 0.34524 0.39784 0.0
H1195 H 0.40256 0.31717 0.33775 0.0
C1196 C 0.30997 0.33854 0.3223 0.0
N1197 N 0.32983 0.33167 0.32773 0.0
C1198 C 0.29693 0.32602 0.30915 0.0
C1199 C 0.32516 0.29974 0.30723 0.0
C1200 C 0.3377 0.31283 0.32029 0.0
C1201 C 0.30445 0.30626 0.30159 0.0
H1202 H 0.30421 0.35369 0.32827 0.0
H1203 H 0.35366 0.30789 0.3247 0.0
O1204 O 0.37936 0.37728 0.37926 0.0
O1205 O 0.33558 0.37679 0.35433 0.0
O1206 O 0.37464 0.35707 0.33397 0.0
O1207 O 0.3559 0.33507 0.37426 0.0
H1208 H 0.37081 0.41116 0.40314 0.0
H1209 H 0.42055 0.37805 0.36914 0.0
H1210 H 0.39721 0.43894 0.41352 0.0
H1211 H 0.44603 0.40652 0.37986 0.0
H1212 H 0.26885 0.38034 0.38298 0.0
H1213 H 0.3334 0.41887 0.35867 0.0
H1214 H 0.29919 0.35976 0.36801 0.0
H1215 H 0.30241 0.43845 0.37367 0.0
H1216 H 0.37983 0.46262 0.33917 0.0
H1217 H 0.37293 0.42345 0.28264 0.0
H1218 H 0.30888 0.33806 0.4435 0.0
H1219 H 0.31148 0.40697 0.43877 0.0
H1220 H 0.37667 0.3312 0.30051 0.0
H1221 H 0.40912 0.38183 0.33409 0.0
H1222 H 0.40665 0.3301 0.27453 0.0
H1223 H 0.43864 0.37973 0.30771 0.0
H1224 H 0.37702 0.29868 0.36941 0.0
H1225 H 0.31442 0.32634 0.37583 0.0
H1226 H 0.36014 0.26295 0.3657 0.0
H1227 H 0.29861 0.29011 0.37207 0.0
H1228 H 0.44715 0.3218 0.40266 0.0
H1229 H 0.43393 0.29402 0.34061 0.0
H1230 H 0.281 0.33156 0.30527 0.0
H1231 H 0.33166 0.28476 0.3015 0.0
Li1232 Li 0.34939 0.66903 0.16994 0.0
Li1233 Li 0.3646 0.6336 0.1659 0.0
Li1234 Li 0.38316 0.66571 0.15062 0.0
Li1235 Li 0.3486 0.65192 0.13446 0.0
C1236 C 0.37908 0.6569 0.2027 0.0
N1237 N 0.38254 0.65315 0.24664 0.0
C1238 C 0.36387 0.64524 0.21424 0.0
C1239 C 0.39607 0.66665 0.2135 0.0
C1240 C 0.3659 0.64351 0.23644 0.0
C1241 C 0.39753 0.66458 0.23573 0.0
C1242 C 0.31565 0.63416 0.16688 0.0
C1243 C 0.28458 0.61272 0.15858 0.0
N1244 N 0.27682 0.61642 0.17856 0.0
C1245 C 0.30732 0.63776 0.18733 0.0
C1246 C 0.30416 0.62155 0.15236 0.0
C1247 C 0.28768 0.62865 0.19293 0.0
C1248 C 0.31241 0.69141 0.18131 0.0
N1249 N 0.33277 0.68738 0.18776 0.0
C1250 C 0.32809 0.70922 0.21878 0.0
C1251 C 0.34089 0.69627 0.2059 0.0
C1252 C 0.30695 0.71342 0.21262 0.0
C1253 C 0.29917 0.70456 0.19351 0.0
H1254 H 0.30646 0.68429 0.16668 0.0
H1255 H 0.35729 0.69344 0.21039 0.0
C1256 C 0.38844 0.60177 0.1879 0.0
N1257 N 0.36863 0.60676 0.18049 0.0
C1258 C 0.39147 0.58368 0.20078 0.0
C1259 C 0.35372 0.57602 0.19787 0.0
C1260 C 0.35148 0.5941 0.18493 0.0
C1261 C 0.37389 0.57066 0.20624 0.0
H1262 H 0.40181 0.61217 0.18426 0.0
H1263 H 0.33587 0.59829 0.17898 0.0
C1264 C 0.35238 0.70267 0.14462 0.0
N1265 N 0.34145 0.74476 0.15224 0.0
C1266 C 0.33427 0.71143 0.13493 0.0
C1267 C 0.36499 0.71531 0.15811 0.0
C1268 C 0.329 0.73275 0.139 0.0
C1269 C 0.35918 0.73656 0.16178 0.0
C1270 C 0.37747 0.61819 0.12541 0.0
C1271 C 0.39441 0.61316 0.11175 0.0
C1272 C 0.36045 0.60385 0.12772 0.0
C1273 C 0.39397 0.59385 0.1005 0.0
C1274 C 0.3606 0.5847 0.11621 0.0
N1275 N 0.37721 0.58014 0.10294 0.0
C1276 C 0.42673 0.67692 0.15783 0.0
C1277 C 0.40963 0.69567 0.12967 0.0
C1278 C 0.44497 0.68977 0.15576 0.0
N1279 N 0.40944 0.6803 0.14508 0.0
C1280 C 0.42748 0.70892 0.1271 0.0
C1281 C 0.44535 0.70634 0.1405 0.0
H1282 H 0.42607 0.6647 0.17008 0.0
H1283 H 0.39561 0.6981 0.11984 0.0
C1284 C 0.31128 0.65755 0.11079 0.0
N1285 N 0.33131 0.64931 0.10927 0.0
C1286 C 0.29721 0.65643 0.09347 0.0
C1287 C 0.32461 0.63838 0.07315 0.0
C1288 C 0.33824 0.63998 0.09087 0.0
C1289 C 0.30373 0.64665 0.07428 0.0
H1290 H 0.30623 0.66499 0.12557 0.0
H1291 H 0.3543 0.63373 0.0899 0.0
O1292 O 0.37746 0.6588 0.18094 0.0
O1293 O 0.33487 0.64296 0.161 0.0
O1294 O 0.35744 0.68165 0.14142 0.0
O1295 O 0.37765 0.63707 0.13647 0.0
H1296 H 0.35072 0.6375 0.20614 0.0
H1297 H 0.40794 0.67581 0.20482 0.0
H1298 H 0.35425 0.63448 0.24555 0.0
H1299 H 0.41058 0.67208 0.2443 0.0
H1300 H 0.27556 0.60292 0.1475 0.0
H1301 H 0.31579 0.64757 0.19879 0.0
H1302 H 0.3103 0.61853 0.13647 0.0
H1303 H 0.28106 0.63134 0.2087 0.0
H1304 H 0.3347 0.71608 0.23327 0.0
H1305 H 0.28291 0.70744 0.1883 0.0
H1306 H 0.40738 0.58008 0.20653 0.0
H1307 H 0.33959 0.56679 0.20182 0.0
H1308 H 0.32432 0.70183 0.12449 0.0
H1309 H 0.37892 0.70868 0.16594 0.0
H1310 H 0.31498 0.73973 0.13168 0.0
H1311 H 0.36871 0.7465 0.17228 0.0
H1312 H 0.40772 0.62411 0.10982 0.0
H1313 H 0.34729 0.60745 0.13828 0.0
H1314 H 0.40695 0.58976 0.08983 0.0
H1315 H 0.34751 0.57347 0.11783 0.0
H1316 H 0.45829 0.68732 0.16656 0.0
H1317 H 0.42717 0.72129 0.11495 0.0
H1318 H 0.28146 0.66341 0.09504 0.0
H1319 H 0.33033 0.63054 0.05881 0.0
Li1320 Li 0.65153 0.88124 0.1661 0.0
Li1321 Li 0.66686 0.84728 0.17035 0.0
Li1322 Li 0.66889 0.86508 0.13508 0.0
Li1323 Li 0.63328 0.84952 0.15078 0.0
C1324 C 0.6943 0.89022 0.16903 0.0
N1325 N 0.71918 0.92408 0.18289 0.0
C1326 C 0.69806 0.8932 0.19088 0.0
C1327 C 0.70342 0.9043 0.1542 0.0
C1328 C 0.7106 0.91048 0.19758 0.0
C1329 C 0.71591 0.92136 0.16154 0.0
C1330 C 0.63664 0.84802 0.20085 0.0
C1331 C 0.62185 0.82162 0.22486 0.0
N1332 N 0.63313 0.83041 0.24128 0.0
C1333 C 0.64793 0.85691 0.218 0.0
C1334 C 0.62337 0.83032 0.20431 0.0
C1335 C 0.64601 0.84773 0.2383 0.0
C1336 C 0.63176 0.90758 0.19716 0.0
N1337 N 0.64606 0.90799 0.18077 0.0
C1338 C 0.65464 0.94455 0.18851 0.0
C1339 C 0.65682 0.92628 0.17581 0.0
C1340 C 0.64079 0.94428 0.20627 0.0
C1341 C 0.6288 0.92558 0.21008 0.0
H1342 H 0.62287 0.89311 0.20049 0.0
H1343 H 0.66752 0.92662 0.16229 0.0
C1344 C 0.70434 0.83465 0.1917 0.0
N1345 N 0.68348 0.82922 0.18879 0.0
C1346 C 0.71755 0.8221 0.20456 0.0
C1347 C 0.68771 0.79833 0.21096 0.0
C1348 C 0.67508 0.81136 0.198 0.0
C1349 C 0.70927 0.80365 0.2144 0.0
H1350 H 0.71082 0.84865 0.18388 0.0
H1351 H 0.65866 0.80696 0.19502 0.0
C1352 C 0.63078 0.89776 0.13417 0.0
N1353 N 0.61372 0.93837 0.13158 0.0
C1354 C 0.61048 0.90188 0.14252 0.0
C1355 C 0.64238 0.91423 0.12442 0.0
C1356 C 0.60215 0.92254 0.14109 0.0
C1357 C 0.63347 0.93467 0.12327 0.0
C1358 C 0.66819 0.81457 0.14369 0.0
C1359 C 0.68973 0.8108 0.13917 0.0
C1360 C 0.65525 0.79775 0.15083 0.0
C1361 C 0.69802 0.79025 0.14198 0.0
C1362 C 0.66412 0.77742 0.15338 0.0
N1363 N 0.68514 0.77413 0.14896 0.0
C1364 C 0.70739 0.86445 0.11229 0.0
C1365 C 0.67788 0.87508 0.09107 0.0
C1366 C 0.72116 0.86639 0.09481 0.0
N1367 N 0.6862 0.8687 0.11013 0.0
C1368 C 0.69114 0.87738 0.07313 0.0
C1369 C 0.71315 0.87295 0.07483 0.0
H1370 H 0.7136 0.85953 0.12768 0.0
H1371 H 0.66096 0.87841 0.0898 0.0
C1372 C 0.58962 0.83946 0.15708 0.0
N1373 N 0.60696 0.83514 0.14473 0.0
C1374 C 0.57107 0.82705 0.15526 0.0
C1375 C 0.58826 0.80654 0.1274 0.0
C1376 C 0.60644 0.81941 0.12971 0.0
C1377 C 0.57037 0.80996 0.14061 0.0
H1378 H 0.59048 0.85206 0.16893 0.0
H1379 H 0.6205 0.81626 0.12014 0.0
O1380 O 0.68214 0.87334 0.16215 0.0
O1381 O 0.63832 0.85679 0.18085 0.0
O1382 O 0.63944 0.87781 0.13594 0.0
O1383 O 0.6599 0.83468 0.14147 0.0
H1384 H 0.6914 0.88228 0.20255 0.0
H1385 H 0.70062 0.90232 0.13724 0.0
H1386 H 0.71355 0.91304 0.21445 0.0
H1387 H 0.72293 0.93247 0.15026 0.0
H1388 H 0.61177 0.80782 0.22774 0.0
H1389 H 0.65804 0.87076 0.21565 0.0
H1390 H 0.6146 0.82315 0.19122 0.0
H1391 H 0.65473 0.8544 0.25169 0.0
H1392 H 0.66432 0.95844 0.18481 0.0
H1393 H 0.61739 0.92471 0.22309 0.0
H1394 H 0.73405 0.82689 0.20687 0.0
H1395 H 0.68077 0.78401 0.21788 0.0
H1396 H 0.60138 0.88929 0.15023 0.0
H1397 H 0.6582 0.9113 0.11805 0.0
H1398 H 0.58651 0.92602 0.14759 0.0
H1399 H 0.6423 0.94761 0.11587 0.0
H1400 H 0.7 0.82363 0.13374 0.0
H1401 H 0.63865 0.80043 0.15481 0.0
H1402 H 0.71469 0.78714 0.13864 0.0
H1403 H 0.65432 0.76429 0.15903 0.0
H1404 H 0.73788 0.86246 0.09691 0.0
H1405 H 0.68425 0.88275 0.05817 0.0
H1406 H 0.55757 0.83057 0.16551 0.0
H1407 H 0.58858 0.79348 0.11603 0.0
C1408 C 0.2446 0.22902 0.21861 0.0
C1409 C 0.22315 0.22589 0.22441 0.0
C1410 C 0.25812 0.24217 0.23082 0.0
C1411 C 0.25002 0.25234 0.24936 0.0
C1412 C 0.2284 0.24924 0.25532 0.0
C1413 C 0.21521 0.23611 0.24275 0.0
C1414 C 0.28109 0.2451 0.22396 0.0
C1415 C 0.2192 0.25981 0.275 0.0
C1416 C 0.28927 0.27041 0.29209 0.0
C1417 C 0.29068 0.29243 0.28804 0.0
C1418 C 0.27612 0.25715 0.2796 0.0
C1419 C 0.26419 0.26615 0.26259 0.0
C1420 C 0.26565 0.28835 0.25833 0.0
C1421 C 0.27884 0.30125 0.27116 0.0
C1422 C 0.27485 0.23357 0.28472 0.0
C1423 C 0.25328 0.29848 0.24022 0.0
H1424 H 0.25094 0.22093 0.20465 0.0
H1425 H 0.19858 0.23402 0.24717 0.0
H1426 H 0.28458 0.26234 0.22149 0.0
H1427 H 0.29197 0.23933 0.23674 0.0
H1428 H 0.2848 0.23636 0.20893 0.0
H1429 H 0.20211 0.25563 0.27753 0.0
H1430 H 0.22839 0.25494 0.28938 0.0
H1431 H 0.22062 0.27745 0.27359 0.0
H1432 H 0.29819 0.26358 0.3053 0.0
H1433 H 0.28008 0.31823 0.26782 0.0
H1434 H 0.27958 0.22403 0.27053 0.0
H1435 H 0.25813 0.22911 0.28869 0.0
H1436 H 0.2853 0.22907 0.29838 0.0
H1437 H 0.25766 0.29081 0.22483 0.0
H1438 H 0.25633 0.31595 0.23892 0.0
H1439 H 0.23589 0.29588 0.24261 0.0
C1440 C 0.79783 0.27907 0.24104 0.0
C1441 C 0.78988 0.29008 0.22318 0.0
C1442 C 0.78442 0.26616 0.25361 0.0
C1443 C 0.76253 0.26419 0.24818 0.0
C1444 C 0.75441 0.2752 0.23013 0.0
C1445 C 0.76819 0.28802 0.21784 0.0
C1446 C 0.79368 0.25461 0.27271 0.0
C1447 C 0.73115 0.2735 0.22386 0.0
C1448 C 0.73271 0.21584 0.26987 0.0
C1449 C 0.72201 0.22459 0.28753 0.0
C1450 C 0.7457 0.22862 0.25672 0.0
C1451 C 0.74816 0.25063 0.26146 0.0
C1452 C 0.73725 0.2596 0.27916 0.0
C1453 C 0.72424 0.24647 0.29194 0.0
C1454 C 0.75693 0.21853 0.23787 0.0
C1455 C 0.7396 0.28298 0.28479 0.0
H1456 H 0.81464 0.28036 0.24506 0.0
H1457 H 0.7619 0.29671 0.20421 0.0
H1458 H 0.78516 0.25949 0.28749 0.0
H1459 H 0.79139 0.2371 0.27087 0.0
H1460 H 0.81102 0.25791 0.27482 0.0
H1461 H 0.72742 0.28286 0.20921 0.0
H1462 H 0.72682 0.25652 0.221 0.0
H1463 H 0.72091 0.27935 0.23712 0.0
H1464 H 0.7308 0.19898 0.26625 0.0
H1465 H 0.71617 0.25323 0.30572 0.0
H1466 H 0.7745 0.22014 0.23979 0.0
H1467 H 0.7525 0.22697 0.22289 0.0
H1468 H 0.75294 0.2013 0.23608 0.0
H1469 H 0.75657 0.28663 0.28851 0.0
H1470 H 0.72964 0.28756 0.29877 0.0
H1471 H 0.73499 0.29307 0.27093 0.0
C1472 C 0.29077 0.72225 0.24804 0.0
C1473 C 0.29299 0.72681 0.2262 0.0
C1474 C 0.2772 0.73448 0.26105 0.0
C1475 C 0.26594 0.75191 0.25202 0.0
C1476 C 0.26838 0.75676 0.23 0.0
C1477 C 0.28174 0.744 0.21729 0.0
C1478 C 0.27472 0.72859 0.28436 0.0
C1479 C 0.25693 0.77545 0.21989 0.0
C1480 C 0.2159 0.77228 0.27961 0.0
C1481 C 0.22388 0.78985 0.29104 0.0
C1482 C 0.22948 0.75962 0.26704 0.0
C1483 C 0.25145 0.76496 0.26557 0.0
C1484 C 0.25955 0.78279 0.277 0.0
C1485 C 0.24567 0.79492 0.28978 0.0
C1486 C 0.22034 0.7405 0.2554 0.0
C1487 C 0.28279 0.7892 0.27552 0.0
H1488 H 0.29934 0.70882 0.25486 0.0
H1489 H 0.28362 0.7476 0.20041 0.0
H1490 H 0.27952 0.74226 0.29462 0.0
H1491 H 0.25769 0.72504 0.2879 0.0
H1492 H 0.28447 0.71445 0.28884 0.0
H1493 H 0.26103 0.77742 0.2027 0.0
H1494 H 0.23938 0.77322 0.22131 0.0
H1495 H 0.26108 0.79044 0.22847 0.0
H1496 H 0.19905 0.7683 0.28075 0.0
H1497 H 0.25176 0.80865 0.29847 0.0
H1498 H 0.22895 0.72579 0.26027 0.0
H1499 H 0.22261 0.74242 0.2379 0.0
H1500 H 0.20301 0.73823 0.25865 0.0
H1501 H 0.29308 0.77589 0.28111 0.0
H1502 H 0.28648 0.80365 0.2852 0.0
H1503 H 0.2871 0.79246 0.2586 0.0
C1504 C 0.77729 0.71493 0.27639 0.0
C1505 C 0.79026 0.724 0.29233 0.0
C1506 C 0.76378 0.72769 0.26384 0.0
C1507 C 0.7633 0.75007 0.26723 0.0
C1508 C 0.77628 0.75933 0.28333 0.0
C1509 C 0.78956 0.74618 0.29573 0.0
C1510 C 0.75015 0.71724 0.24682 0.0
C1511 C 0.7762 0.78315 0.2874 0.0
C1512 C 0.74415 0.7854 0.2217 0.0
C1513 C 0.7231 0.78992 0.22797 0.0
C1514 C 0.75742 0.7725 0.23436 0.0
C1515 C 0.74943 0.76384 0.25372 0.0
C1516 C 0.72819 0.76828 0.26013 0.0
C1517 C 0.71529 0.7813 0.24719 0.0
C1518 C 0.77998 0.76809 0.22699 0.0
C1519 C 0.71912 0.75932 0.28067 0.0
H1520 H 0.77795 0.69786 0.27348 0.0
H1521 H 0.79929 0.75326 0.30823 0.0
H1522 H 0.73304 0.72103 0.24957 0.0
H1523 H 0.75448 0.72368 0.23084 0.0
H1524 H 0.75203 0.69957 0.24653 0.0
H1525 H 0.78715 0.78781 0.30061 0.0
H1526 H 0.78106 0.79182 0.27268 0.0
H1527 H 0.7598 0.78849 0.2915 0.0
H1528 H 0.75019 0.79174 0.20672 0.0
H1529 H 0.69914 0.78495 0.25226 0.0
H1530 H 0.78231 0.75063 0.22492 0.0
H1531 H 0.79155 0.77355 0.23931 0.0
H1532 H 0.78381 0.7762 0.21163 0.0
H1533 H 0.71988 0.74159 0.28042 0.0
H1534 H 0.70226 0.76419 0.2833 0.0
H1535 H 0.72884 0.76482 0.29448 0.0
C1536 C 0.30133 0.7742 0.73376 0.0
C1537 C 0.29154 0.7884 0.7194 0.0
C1538 C 0.28906 0.76091 0.7471 0.0
C1539 C 0.26647 0.76184 0.74606 0.0
C1540 C 0.2565 0.77598 0.73147 0.0
C1541 C 0.26916 0.7891 0.71832 0.0
C1542 C 0.30027 0.74608 0.76252 0.0
C1543 C 0.23245 0.77736 0.72984 0.0
C1544 C 0.23403 0.71513 0.76777 0.0
C1545 C 0.22781 0.72284 0.78791 0.0
C1546 C 0.24668 0.72762 0.754 0.0
C1547 C 0.25325 0.7483 0.76053 0.0
C1548 C 0.24708 0.75615 0.78086 0.0
C1549 C 0.23443 0.74333 0.79429 0.0
C1550 C 0.25302 0.71868 0.73247 0.0
C1551 C 0.25371 0.77815 0.78836 0.0
H1552 H 0.31862 0.77379 0.73487 0.0
H1553 H 0.26151 0.79983 0.70706 0.0
H1554 H 0.29587 0.75025 0.7792 0.0
H1555 H 0.29503 0.72933 0.75974 0.0
H1556 H 0.31795 0.74688 0.76096 0.0
H1557 H 0.2272 0.78898 0.71746 0.0
H1558 H 0.22567 0.76142 0.7259 0.0
H1559 H 0.22564 0.78224 0.74549 0.0
H1560 H 0.2292 0.69921 0.76285 0.0
H1561 H 0.22943 0.7495 0.80971 0.0
H1562 H 0.2707 0.71817 0.73112 0.0
H1563 H 0.2471 0.72927 0.71951 0.0
H1564 H 0.2466 0.70231 0.7298 0.0
H1565 H 0.2714 0.77954 0.7883 0.0
H1566 H 0.2478 0.78176 0.80473 0.0
H1567 H 0.24747 0.79046 0.7772 0.0
C1568 C 0.71644 0.73588 0.74223 0.0
C1569 C 0.72591 0.72409 0.72568 0.0
C1570 C 0.72883 0.74893 0.75568 0.0
C1571 C 0.75119 0.75033 0.75238 0.0
C1572 C 0.76082 0.73853 0.73564 0.0
C1573 C 0.74806 0.72549 0.72253 0.0
C1574 C 0.71803 0.76113 0.7735 0.0
C1575 C 0.78458 0.73975 0.73151 0.0
C1576 C 0.7811 0.79846 0.77446 0.0
C1577 C 0.79049 0.78994 0.79299 0.0
C1578 C 0.76822 0.78577 0.76113 0.0
C1579 C 0.76455 0.76406 0.7665 0.0
C1580 C 0.77386 0.75539 0.78523 0.0
C1581 C 0.78676 0.76842 0.79821 0.0
C1582 C 0.75857 0.79556 0.74126 0.0
C1583 C 0.7703 0.73231 0.79149 0.0
H1584 H 0.69934 0.73464 0.74485 0.0
H1585 H 0.75539 0.71661 0.70958 0.0
H1586 H 0.72487 0.75633 0.78916 0.0
H1587 H 0.72101 0.77853 0.77158 0.0
H1588 H 0.70048 0.75834 0.77389 0.0
H1589 H 0.78955 0.72964 0.71777 0.0
H1590 H 0.78933 0.75655 0.7282 0.0
H1591 H 0.79349 0.73453 0.74595 0.0
H1592 H 0.78363 0.81516 0.77049 0.0
H1593 H 0.79419 0.76164 0.81234 0.0
H1594 H 0.74089 0.79429 0.74189 0.0
H1595 H 0.76395 0.78667 0.72687 0.0
H1596 H 0.76301 0.81268 0.73933 0.0
H1597 H 0.75294 0.72902 0.79309 0.0
H1598 H 0.77828 0.72817 0.80683 0.0
H1599 H 0.77651 0.72162 0.77878 0.0
C1600 C 0.71555 0.28353 0.77341 0.0
C1601 C 0.72352 0.2912 0.79291 0.0
C1602 C 0.72817 0.27065 0.76009 0.0
C1603 C 0.74907 0.26501 0.76668 0.0
C1604 C 0.75707 0.27251 0.78652 0.0
C1605 C 0.74425 0.28573 0.79932 0.0
C1606 C 0.71924 0.2633 0.73886 0.0
C1607 C 0.77912 0.26649 0.79427 0.0
C1608 C 0.77426 0.21613 0.74099 0.0
C1609 C 0.78843 0.22545 0.72622 0.0
C1610 C 0.76152 0.22881 0.75441 0.0
C1611 C 0.76263 0.25136 0.75274 0.0
C1612 C 0.77669 0.2609 0.73775 0.0
C1613 C 0.78957 0.24785 0.72485 0.0
C1614 C 0.74689 0.21807 0.77039 0.0
C1615 C 0.77812 0.28491 0.73533 0.0
H1616 H 0.69955 0.28795 0.76842 0.0
H1617 H 0.75031 0.29155 0.81451 0.0
H1618 H 0.72969 0.26896 0.72565 0.0
H1619 H 0.71898 0.24557 0.73817 0.0
H1620 H 0.70277 0.26928 0.73602 0.0
H1621 H 0.78274 0.27325 0.81032 0.0
H1622 H 0.78058 0.24882 0.79508 0.0
H1623 H 0.79136 0.2723 0.7828 0.0
H1624 H 0.77292 0.19887 0.74197 0.0
H1625 H 0.80071 0.25527 0.71381 0.0
H1626 H 0.73003 0.22233 0.76697 0.0
H1627 H 0.75057 0.22383 0.78679 0.0
H1628 H 0.74838 0.20036 0.77012 0.0
H1629 H 0.7621 0.29155 0.73165 0.0
H1630 H 0.78938 0.28978 0.72245 0.0
H1631 H 0.7835 0.29222 0.75059 0.0
C1632 C 0.21716 0.27097 0.72999 0.0
C1633 C 0.22514 0.29078 0.72297 0.0
C1634 C 0.22955 0.25739 0.74284 0.0
C1635 C 0.25053 0.26363 0.7486 0.0
C1636 C 0.25882 0.28345 0.74135 0.0
C1637 C 0.24599 0.29683 0.72872 0.0
C1638 C 0.22013 0.23642 0.75036 0.0
C1639 C 0.2812 0.29057 0.74705 0.0
C1640 C 0.27628 0.23881 0.7977 0.0
C1641 C 0.28939 0.22308 0.78856 0.0
C1642 C 0.26337 0.25194 0.7849 0.0
C1643 C 0.26379 0.24951 0.76238 0.0
C1644 C 0.27696 0.23371 0.75302 0.0
C1645 C 0.28949 0.22059 0.76622 0.0
C1646 C 0.24937 0.26851 0.79547 0.0
C1647 C 0.27792 0.23074 0.72904 0.0
H1648 H 0.20121 0.26598 0.72533 0.0
H1649 H 0.2522 0.31222 0.72364 0.0
H1650 H 0.23009 0.22292 0.74468 0.0
H1651 H 0.22009 0.23583 0.76812 0.0
H1652 H 0.2035 0.23398 0.74457 0.0
H1653 H 0.28545 0.30617 0.73963 0.0
H1654 H 0.28275 0.29208 0.76467 0.0
H1655 H 0.29294 0.2784 0.74175 0.0
H1656 H 0.27632 0.2411 0.81489 0.0
H1657 H 0.29926 0.20826 0.759 0.0
H1658 H 0.23245 0.26603 0.79072 0.0
H1659 H 0.25408 0.28475 0.79001 0.0
H1660 H 0.25043 0.26796 0.81321 0.0
H1661 H 0.2618 0.22678 0.72277 0.0
H1662 H 0.28914 0.21784 0.72428 0.0
H1663 H 0.28305 0.24587 0.72127 0.0
C1664 C 0.15303 0.96308 0.27482 0.0
C1665 C 0.14044 0.96299 0.29339 0.0
C1666 C 0.15203 0.98006 0.26013 0.0
C1667 C 0.13836 0.9976 0.26426 0.0
C1668 C 0.12541 0.99749 0.28289 0.0
C1669 C 0.12646 0.98007 0.29714 0.0
C1670 C 0.16583 0.97933 0.2403 0.0
C1671 C 0.11089 0.01603 0.28805 0.0
C1672 C 0.15443 0.05005 0.23781 0.0
C1673 C 0.14029 0.05108 0.22041 0.0
C1674 C 0.15356 0.03304 0.25248 0.0
C1675 C 0.1384 0.01643 0.24953 0.0
C1676 C 0.12395 0.01747 0.23208 0.0
C1677 C 0.12493 0.0349 0.21783 0.0
C1678 C 0.16903 0.03277 0.27104 0.0
C1679 C 0.10779 0.99992 0.22817 0.0
H1680 H 0.16364 0.94974 0.27172 0.0
H1681 H 0.11678 0.98008 0.31154 0.0
H1682 H 0.15583 0.98154 0.2258 0.0
H1683 H 0.17761 0.99262 0.24067 0.0
H1684 H 0.17464 0.964 0.23882 0.0
H1685 H 0.10137 0.01321 0.30281 0.0
H1686 H 0.12056 0.03078 0.29025 0.0
H1687 H 0.09977 0.019 0.27456 0.0
H1688 H 0.16612 0.0627 0.24002 0.0
H1689 H 0.11404 0.03562 0.20435 0.0
H1690 H 0.17973 0.01871 0.26972 0.0
H1691 H 0.16017 0.03121 0.28636 0.0
H1692 H 0.17905 0.04746 0.27171 0.0
H1693 H 0.11619 0.98458 0.22526 0.0
H1694 H 0.09732 1.00337 0.21423 0.0
H1695 H 0.09761 0.99765 0.24254 0.0
C1696 C 0.89401 0.47683 0.21815 0.0
C1697 C 0.87569 0.46383 0.21725 0.0
C1698 C 0.89529 0.49421 0.2324 0.0
C1699 C 0.87785 0.4987 0.24615 0.0
C1700 C 0.8594 0.48555 0.24544 0.0
C1701 C 0.85855 0.46831 0.23105 0.0
C1702 C 0.9152 0.5079 0.2326 0.0
C1703 C 0.84049 0.48971 0.25987 0.0
C1704 C 0.88651 0.5328 0.29602 0.0
C1705 C 0.8788 0.5528 0.28934 0.0
C1706 C 0.88653 0.51512 0.28209 0.0
C1707 C 0.87864 0.51744 0.26095 0.0
C1708 C 0.87095 0.5376 0.25408 0.0
C1709 C 0.87109 0.55496 0.26834 0.0
C1710 C 0.89487 0.49391 0.29002 0.0
C1711 C 0.8623 0.54075 0.23173 0.0
H1712 H 0.90726 0.47361 0.20745 0.0
H1713 H 0.8445 0.45813 0.23079 0.0
H1714 H 0.9111 0.52461 0.22825 0.0
H1715 H 0.92214 0.50829 0.24894 0.0
H1716 H 0.92755 0.502 0.22129 0.0
H1717 H 0.82744 0.47785 0.25753 0.0
H1718 H 0.84559 0.48925 0.27687 0.0
H1719 H 0.83404 0.50594 0.25676 0.0
H1720 H 0.89271 0.53101 0.31212 0.0
H1721 H 0.86473 0.57021 0.26312 0.0
H1722 H 0.90811 0.48837 0.27961 0.0
H1723 H 0.88203 0.48165 0.28918 0.0
H1724 H 0.90076 0.4948 0.30677 0.0
H1725 H 0.87451 0.5361 0.21974 0.0
H1726 H 0.85752 0.55758 0.22866 0.0
H1727 H 0.84818 0.53027 0.22922 0.0
C1728 C 0.28396 0.16421 0.96951 0.0
C1729 C 0.29548 0.146 0.96323 0.0
C1730 C 0.27031 0.16378 0.98737 0.0
C1731 C 0.26824 0.14474 0.99949 0.0
C1732 C 0.28003 0.12638 0.99348 0.0
C1733 C 0.29342 0.1272 0.9754 0.0
C1734 C 0.25804 0.18371 0.99321 0.0
C1735 C 0.27838 0.10582 1.00607 0.0
C1736 C 0.24743 0.15073 0.05643 0.0
C1737 C 0.22583 0.14502 0.05415 0.0
C1738 C 0.26149 0.15028 0.0389 0.0
C1739 C 0.25376 0.14415 0.01849 0.0
C1740 C 0.23203 0.13812 0.01613 0.0
C1741 C 0.21836 0.13852 0.034 0.0
C1742 C 0.28459 0.15657 0.04218 0.0
C1743 C 0.2231 0.13169 0.99461 0.0
H1744 H 0.2857 0.17894 0.96052 0.0
H1745 H 0.30201 0.11296 0.97058 0.0
H1746 H 0.24063 0.18026 0.99322 0.0
H1747 H 0.26239 0.18892 0.00962 0.0
H1748 H 0.26119 0.19714 0.98197 0.0
H1749 H 0.28896 0.09312 0.99962 0.0
H1750 H 0.28268 0.10875 0.02305 0.0
H1751 H 0.26165 0.09989 1.00583 0.0
H1752 H 0.25338 0.15548 0.07203 0.0
H1753 H 0.20165 0.13427 0.03209 0.0
H1754 H 0.28839 0.17093 0.03244 0.0
H1755 H 0.29525 0.14353 0.03667 0.0
H1756 H 0.28827 0.16014 0.05921 0.0
H1757 H 0.22458 0.14524 0.98322 0.0
H1758 H 0.20601 0.12687 0.99555 0.0
H1759 H 0.23241 0.11818 0.98792 0.0
C1760 C 0.77843 0.35344 0.04812 0.0
C1761 C 0.79228 0.37052 0.05272 0.0
C1762 C 0.76416 0.35438 0.03078 0.0
C1763 C 0.76389 0.37275 0.01749 0.0
C1764 C 0.77784 0.39006 0.02206 0.0
C1765 C 0.79175 0.3888 0.0397 0.0
C1766 C 0.74936 0.33569 0.02666 0.0
C1767 C 0.77827 0.4098 0.00812 0.0
C1768 C 0.7422 0.36583 0.96098 0.0
C1769 C 0.72157 0.37451 0.96268 0.0
C1770 C 0.75617 0.36542 0.97858 0.0
C1771 C 0.74934 0.37361 0.99856 0.0
C1772 C 0.72852 0.38229 1.00047 0.0
C1773 C 0.71494 0.38272 0.98252 0.0
C1774 C 0.77824 0.35608 0.97581 0.0
C1775 C 0.72056 0.39103 0.02153 0.0
H1776 H 0.77856 0.33939 0.05831 0.0
H1777 H 0.80254 0.40198 0.04309 0.0
H1778 H 0.73251 0.34118 0.02669 0.0
H1779 H 0.75262 0.32883 0.01062 0.0
H1780 H 0.75115 0.32284 0.03882 0.0
H1781 H 0.78989 0.42195 0.01394 0.0
H1782 H 0.78258 0.40534 0.99148 0.0
H1783 H 0.76216 0.41715 1.00756 0.0
H1784 H 0.74738 0.35901 0.94591 0.0
H1785 H 0.69917 0.3897 0.984 0.0
H1786 H 0.78018 0.34199 0.98645 0.0
H1787 H 0.79054 0.36801 0.98054 0.0
H1788 H 0.78138 0.35102 0.95906 0.0
H1789 H 0.72116 0.37836 0.03397 0.0
H1790 H 0.70392 0.39709 0.02043 0.0
H1791 H 0.7311 0.40426 0.02697 0.0
C1792 C 0.30085 0.86435 0.53258 0.0
C1793 C 0.29633 0.87683 0.55071 0.0
C1794 C 0.2871 0.86416 0.51477 0.0
C1795 C 0.26819 0.87658 0.5151 0.0
C1796 C 0.26363 0.88939 0.53321 0.0
C1797 C 0.27777 0.88945 0.55071 0.0
C1798 C 0.29262 0.85035 0.49574 0.0
C1799 C 0.24361 0.9028 0.53425 0.0
C1800 C 0.24045 0.88894 0.46219 0.0
C1801 C 0.2244 0.87321 0.46159 0.0
C1802 C 0.25476 0.89029 0.47952 0.0
C1803 C 0.2529 0.87567 0.49676 0.0
C1804 C 0.23652 0.85998 0.49639 0.0
C1805 C 0.22254 0.85889 0.47881 0.0
C1806 C 0.27211 0.90713 0.4792 0.0
C1807 C 0.23381 0.84424 0.51455 0.0
H1808 H 0.31492 0.85427 0.53248 0.0
H1809 H 0.27425 0.89942 0.56444 0.0
H1810 H 0.28022 0.83781 0.49361 0.0
H1811 H 0.29283 0.86016 0.48093 0.0
H1812 H 0.30841 0.84246 0.49753 0.0
H1813 H 0.24253 0.91213 0.54934 0.0
H1814 H 0.24313 0.91407 0.52054 0.0
H1815 H 0.2293 0.89235 0.533 0.0
H1816 H 0.24214 0.8999 0.44884 0.0
H1817 H 0.21003 0.84686 0.47858 0.0
H1818 H 0.28803 0.89935 0.47956 0.0
H1819 H 0.27095 0.91735 0.49367 0.0
H1820 H 0.27119 0.91752 0.46479 0.0
H1821 H 0.24849 0.83448 0.5163 0.0
H1822 H 0.22 0.8333 0.51203 0.0
H1823 H 0.23145 0.85295 0.52983 0.0
C1824 C 0.7225 0.62388 0.53624 0.0
C1825 C 0.72185 0.64224 0.54914 0.0
C1826 C 0.73661 0.62248 0.51876 0.0
C1827 C 0.75047 0.63984 0.51407 0.0
C1828 C 0.75007 0.6583 0.5272 0.0
C1829 C 0.73581 0.65927 0.54453 0.0
C1830 C 0.73649 0.60256 0.50511 0.0
C1831 C 0.76464 0.67711 0.52285 0.0
C1832 C 0.79977 0.63104 0.4793 0.0
C1833 C 0.79289 0.63882 0.45937 0.0
C1834 C 0.78608 0.63102 0.49717 0.0
C1835 C 0.765 0.639 0.49512 0.0
C1836 C 0.75793 0.64676 0.47504 0.0
C1837 C 0.77193 0.6466 0.45747 0.0
C1838 C 0.79421 0.62256 0.51829 0.0
C1839 C 0.73564 0.65554 0.47218 0.0
H1840 H 0.71168 0.61072 0.53958 0.0
H1841 H 0.73573 0.67335 0.55464 0.0
H1842 H 0.73188 0.60668 0.48847 0.0
H1843 H 0.75276 0.59557 0.50447 0.0
H1844 H 0.72522 0.59022 0.51124 0.0
H1845 H 0.76264 0.69012 0.53479 0.0
H1846 H 0.78157 0.67186 0.52303 0.0
H1847 H 0.76135 0.68369 0.50668 0.0
H1848 H 0.81584 0.6248 0.48088 0.0
H1849 H 0.76656 0.65299 0.44226 0.0
H1850 H 0.78376 0.60937 0.52399 0.0
H1851 H 0.79367 0.63539 0.53055 0.0
H1852 H 0.81087 0.61655 0.51716 0.0
H1853 H 0.72363 0.64337 0.477 0.0
H1854 H 0.73239 0.6604 0.45539 0.0
H1855 H 0.73338 0.66965 0.4827 0.0
C1856 C 0.98391 0.29877 0.13878 0.0
C1857 C 0.96279 0.29131 0.13732 0.0
C1858 C 1.00126 0.2845 0.13849 0.0
C1859 C 0.9974 0.2622 0.13696 0.0
C1860 C 0.9761 0.25459 0.13539 0.0
C1861 C 0.95909 0.26923 0.1355 0.0
C1862 C 0.02372 0.29328 0.13994 0.0
C1863 C 0.97127 0.23095 0.134 0.0
C1864 C 0.04266 0.22568 0.11896 0.0
C1865 C 0.05051 0.21796 0.13856 0.0
C1866 C 0.02544 0.24008 0.11819 0.0
C1867 C 0.0156 0.2468 0.13746 0.0
C1868 C 0.02322 0.23886 0.15726 0.0
C1869 C 0.0406 0.22467 0.15759 0.0
C1870 C 0.01784 0.24822 0.09674 0.0
C1871 C 0.01312 0.24552 0.17818 0.0
H1872 H 0.98688 0.31582 0.13999 0.0
H1873 H 0.94279 0.26333 0.13467 0.0
H1874 H 0.03167 0.28708 0.15455 0.0
H1875 H 0.03326 0.28783 0.12601 0.0
H1876 H 0.02405 0.31105 0.14044 0.0
H1877 H 0.95387 0.22765 0.13248 0.0
H1878 H 0.9796 0.22386 0.12003 0.0
H1879 H 0.97732 0.22273 0.14852 0.0
H1880 H 0.04994 0.22042 0.10414 0.0
H1881 H 0.04671 0.21918 0.17285 0.0
H1882 H 0.019 0.26593 0.09626 0.0
H1883 H 1.00078 0.24395 0.09435 0.0
H1884 H 0.02727 0.24158 0.08323 0.0
H1885 H 0.01474 0.26307 0.18031 0.0
H1886 H 0.0205 0.23742 0.19217 0.0
H1887 H 0.99577 0.24177 0.17799 0.0
C1888 C 0.98435 0.71585 0.37829 0.0
C1889 C 0.96313 0.72308 0.37853 0.0
C1890 C 1.0016 0.73033 0.37866 0.0
C1891 C 0.99758 0.75262 0.37923 0.0
C1892 C 0.97621 0.76002 0.37976 0.0
C1893 C 0.95928 0.74519 0.3794 0.0
C1894 C 0.02415 0.72177 0.3782 0.0
C1895 C 0.97121 0.78363 0.38025 0.0
C1896 C 0.04237 0.79007 0.39704 0.0
C1897 C 0.0505 0.79733 0.37737 0.0
C1898 C 0.02512 0.7756 0.39791 0.0
C1899 C 0.01571 0.76821 0.37865 0.0
C1900 C 0.02368 0.77563 0.35876 0.0
C1901 C 0.04097 0.79003 0.35837 0.0
C1902 C 0.01705 0.76813 0.41943 0.0
C1903 C 0.01412 0.76814 0.33786 0.0
H1904 H 0.98749 0.69881 0.37786 0.0
H1905 H 0.94296 0.75097 0.37925 0.0
H1906 H 0.03248 0.72755 0.36361 0.0
H1907 H 0.03324 0.72783 0.3922 0.0
H1908 H 0.02459 0.70401 0.37835 0.0
H1909 H 0.95377 0.78677 0.3814 0.0
H1910 H 0.9793 0.79131 0.39407 0.0
H1911 H 0.97742 0.79141 0.36553 0.0
H1912 H 0.04944 0.79578 0.41182 0.0
H1913 H 0.04733 0.79522 0.34308 0.0
H1914 H 0.01839 0.75048 0.42061 0.0
H1915 H 0.99988 0.77218 0.42119 0.0
H1916 H 0.02604 0.77545 0.43292 0.0
H1917 H 0.01578 0.75053 0.33643 0.0
H1918 H 0.02187 0.77575 0.32377 0.0
H1919 H 0.99678 0.7718 0.33745 0.0
C1920 C 0.5579 0.74531 0.63719 0.0
C1921 C 0.55527 0.72361 0.64239 0.0
C1922 C 0.5403 0.75918 0.6361 0.0
C1923 C 0.51953 0.75125 0.64051 0.0
C1924 C 0.51674 0.72931 0.64556 0.0
C1925 C 0.53462 0.71573 0.64632 0.0
C1926 C 0.54396 0.78238 0.63039 0.0
C1927 C 0.4949 0.72026 0.65056 0.0
C1928 C 0.47739 0.79113 0.65875 0.0
C1929 C 0.46525 0.79395 0.64009 0.0
C1930 C 0.49501 0.77723 0.65913 0.0
C1931 C 0.50081 0.76602 0.64031 0.0
C1932 C 0.48874 0.76896 0.62134 0.0
C1933 C 0.47104 0.78278 0.6215 0.0
C1934 C 0.50729 0.77437 0.67974 0.0
C1935 C 0.49456 0.75754 0.60087 0.0
H1936 H 0.57379 0.75143 0.63385 0.0
H1937 H 0.53251 0.69904 0.65053 0.0
H1938 H 0.53409 0.78679 0.61631 0.0
H1939 H 0.5389 0.79275 0.64386 0.0
H1940 H 0.56099 0.78587 0.62669 0.0
H1941 H 0.49536 0.7028 0.65384 0.0
H1942 H 0.48812 0.72849 0.66475 0.0
H1943 H 0.48385 0.72317 0.63698 0.0
H1944 H 0.47282 0.79948 0.67325 0.0
H1945 H 0.46181 0.78503 0.60698 0.0
H1946 H 0.52428 0.77893 0.67734 0.0
H1947 H 0.507 0.7573 0.6846 0.0
H1948 H 0.50065 0.78414 0.69301 0.0
H1949 H 0.51121 0.7616 0.59624 0.0
H1950 H 0.48375 0.76178 0.58743 0.0
H1951 H 0.49387 0.73998 0.60336 0.0
C1952 C 0.857 0.03442 0.71731 0.0
C1953 C 0.87231 0.05085 0.71845 0.0
C1954 C 0.85782 0.01674 0.73118 0.0
C1955 C 0.87433 0.01542 0.74664 0.0
C1956 C 0.89003 0.03177 0.74767 0.0
C1957 C 0.88886 0.04925 0.73354 0.0
C1958 C 0.84087 0.99958 0.72942 0.0
C1959 C 0.90782 0.031 0.76398 0.0
C1960 C 0.86333 0.98055 0.79545 0.0
C1961 C 0.87411 0.96159 0.7902 0.0
C1962 C 0.86361 0.9983 0.78162 0.0
C1963 C 0.87486 0.9971 0.76198 0.0
C1964 C 0.88605 0.97815 0.75672 0.0
C1965 C 0.88558 0.96068 0.77089 0.0
C1966 C 0.8515 0.01821 0.78785 0.0
C1967 C 0.89826 0.97622 0.73596 0.0
H1968 H 0.84433 0.03539 0.70552 0.0
H1969 H 0.90059 0.06199 0.7347 0.0
H1970 H 0.84845 0.98379 0.72665 0.0
H1971 H 0.83182 0.99845 0.74465 0.0
H1972 H 0.82941 1.00274 0.71621 0.0
H1973 H 0.91915 0.04461 0.76227 0.0
H1974 H 0.90098 0.03134 0.78037 0.0
H1975 H 0.91685 0.01584 0.7624 0.0
H1976 H 0.85419 0.98137 0.81016 0.0
H1977 H 0.89425 0.94626 0.76682 0.0
H1978 H 0.83851 0.0212 0.77614 0.0
H1979 H 0.8623 0.03232 0.78746 0.0
H1980 H 0.84434 0.01695 0.80408 0.0
H1981 H 0.88714 0.97802 0.72224 0.0
H1982 H 0.90656 0.9606 0.73448 0.0
H1983 H 0.91029 0.98923 0.73473 0.0
C1984 C 0.13129 0.5592 0.76826 0.0
C1985 C 0.13725 0.55666 0.78978 0.0
C1986 C 0.1307 0.54167 0.75418 0.0
C1987 C 0.13629 0.52107 0.76175 0.0
C1988 C 0.1418 0.5183 0.78357 0.0
C1989 C 0.14218 0.5361 0.79731 0.0
C1990 C 0.12458 0.54529 0.73108 0.0
C1991 C 0.14795 0.49663 0.79227 0.0
C1992 C 0.12132 0.47138 0.72958 0.0
C1993 C 0.14066 0.46668 0.7192 0.0
C1994 C 0.11954 0.48919 0.74324 0.0
C1995 C 0.13751 0.50262 0.74663 0.0
C1996 C 0.15692 0.49819 0.73587 0.0
C1997 C 0.15824 0.48035 0.72229 0.0
C1998 C 0.09855 0.49339 0.75438 0.0
C1999 C 0.17644 0.51214 0.73893 0.0
H2000 H 0.12714 0.57497 0.76238 0.0
H2001 H 0.14702 0.53402 0.81384 0.0
H2002 H 0.13836 0.54155 0.72056 0.0
H2003 H 0.11133 0.53437 0.72649 0.0
H2004 H 0.11953 0.56203 0.72799 0.0
H2005 H 0.15072 0.49694 0.80983 0.0
H2006 H 0.13524 0.48474 0.78872 0.0
H2007 H 0.16277 0.49104 0.7843 0.0
H2008 H 0.10772 0.46081 0.72747 0.0
H2009 H 0.17313 0.47707 0.71407 0.0
H2010 H 0.0931 0.50992 0.75099 0.0
H2011 H 0.1007 0.49205 0.77196 0.0
H2012 H 0.08583 0.48201 0.74934 0.0
H2013 H 0.1727 0.52893 0.73458 0.0
H2014 H 0.19022 0.50673 0.72912 0.0
H2015 H 0.18127 0.51207 0.75602 0.0
C2016 C 0.72085 0.8685 0.0355 0.0
C2017 C 0.72769 0.87487 0.05594 0.0
C2018 C 0.73466 0.8695 0.01776 0.0
C2019 C 0.75593 0.87685 0.0205 0.0
C2020 C 0.76288 0.88353 0.04101 0.0
C2021 C 0.74867 0.88258 0.05842 0.0
C2022 C 0.72658 0.86236 0.99613 0.0
C2023 C 0.78544 0.8914 0.04464 0.0
C2024 C 0.79722 0.85898 0.97953 0.0
C2025 C 0.79911 0.87714 0.96639 0.0
C2026 C 0.78346 0.85879 0.9973 0.0
C2027 C 0.77104 0.8771 1.00201 0.0
C2028 C 0.77295 0.89553 0.98895 0.0
C2029 C 0.78701 0.89537 0.97139 0.0
C2030 C 0.782 0.83885 0.0109 0.0
C2031 C 0.75995 0.91536 0.99339 0.0
H2032 H 0.70481 0.86226 0.0334 0.0
H2033 H 0.75405 0.88793 0.07402 0.0
H2034 H 0.72889 0.87532 0.98419 0.0
H2035 H 0.7359 0.84836 0.99054 0.0
H2036 H 0.70938 0.8579 0.99647 0.0
H2037 H 0.78828 0.89625 0.06152 0.0
H2038 H 0.79698 0.87864 0.0404 0.0
H2039 H 0.78884 0.90528 0.0341 0.0
H2040 H 0.80615 0.84467 0.97565 0.0
H2041 H 0.78854 0.90959 0.96158 0.0
H2042 H 0.76549 0.83234 0.01036 0.0
H2043 H 0.78557 0.84278 0.02785 0.0
H2044 H 0.79322 0.8262 1.00552 0.0
H2045 H 0.74265 0.91145 0.99271 0.0
H2046 H 0.76333 0.9284 0.98177 0.0
H2047 H 0.76336 0.92133 0.00976 0.0
C2048 C 0.22676 0.62468 0.9732 0.0
C2049 C 0.21758 0.64382 0.96589 0.0
C2050 C 0.24062 0.62443 0.99092 0.0
C2051 C 0.24531 0.64376 1.00179 0.0
C2052 C 0.23582 0.66307 0.99477 0.0
C2053 C 0.22219 0.66289 0.97688 0.0
C2054 C 0.25046 0.60352 0.99786 0.0
C2055 C 0.24029 0.68401 1.00598 0.0
C2056 C 0.26694 0.64138 0.05872 0.0
C2057 C 0.28885 0.64531 0.05561 0.0
C2058 C 0.25263 0.64075 0.04139 0.0
C2059 C 0.26038 0.64389 0.02032 0.0
C2060 C 0.2825 0.64751 0.017 0.0
C2061 C 0.29643 0.64827 0.03465 0.0
C2062 C 0.22916 0.63691 0.04564 0.0
C2063 C 0.29143 0.65083 0.99478 0.0
H2064 H 0.2231 0.6098 0.96507 0.0
H2065 H 0.21553 0.67784 0.97122 0.0
H2066 H 0.26814 0.60464 0.99695 0.0
H2067 H 0.24627 0.60012 0.01479 0.0
H2068 H 0.24507 0.58986 0.98783 0.0
H2069 H 0.23107 0.69749 0.99901 0.0
H2070 H 0.23626 0.68266 0.02322 0.0
H2071 H 0.25758 0.68788 1.0049 0.0
H2072 H 0.26093 0.63869 0.07477 0.0
H2073 H 0.31323 0.6516 0.03202 0.0
H2074 H 0.22363 0.62252 0.03682 0.0
H2075 H 0.21968 0.65067 0.0397 0.0
H2076 H 0.2257 0.63464 0.06293 0.0
H2077 H 0.28721 0.63704 0.98442 0.0
H2078 H 0.30909 0.65275 0.99482 0.0
H2079 H 0.28423 0.66529 0.98747 0.0
C2080 C 0.71503 0.15302 0.48355 0.0
C2081 C 0.72088 0.1435 0.4641 0.0
C2082 C 0.72893 0.15286 0.50123 0.0
C2083 C 0.74929 0.14315 0.49935 0.0
C2084 C 0.75522 0.13337 0.47979 0.0
C2085 C 0.74091 0.13358 0.46244 0.0
C2086 C 0.72192 0.16327 0.52186 0.0
C2087 C 0.77684 0.12304 0.47706 0.0
C2088 C 0.7929 0.16195 0.53748 0.0
C2089 C 0.79314 0.14552 0.5528 0.0
C2090 C 0.77884 0.16128 0.51995 0.0
C2091 C 0.76461 0.14377 0.51766 0.0
C2092 C 0.76489 0.12703 0.53295 0.0
C2093 C 0.77918 0.12808 0.5503 0.0
C2094 C 0.77917 0.17938 0.50393 0.0
C2095 C 0.7499 0.10815 0.53113 0.0
H2096 H 0.69949 0.16052 0.48497 0.0
H2097 H 0.74563 0.12642 0.44737 0.0
H2098 H 0.72288 0.1516 0.53522 0.0
H2099 H 0.7328 0.17674 0.52582 0.0
H2100 H 0.70531 0.16946 0.52095 0.0
H2101 H 0.7788 0.11568 0.46099 0.0
H2102 H 0.78963 0.13517 0.47934 0.0
H2103 H 0.77918 0.1105 0.4894 0.0
H2104 H 0.80382 0.17534 0.53914 0.0
H2105 H 0.77907 0.11546 0.56221 0.0
H2106 H 0.76329 0.18723 0.50343 0.0
H2107 H 0.78241 0.17305 0.48766 0.0
H2108 H 0.79145 0.19165 0.50781 0.0
H2109 H 0.73309 0.11373 0.53167 0.0
H2110 H 0.75234 0.09629 0.54415 0.0
H2111 H 0.75221 0.10002 0.51552 0.0
C2112 C 0.22139 0.39053 0.53725 0.0
C2113 C 0.22455 0.37555 0.55373 0.0
C2114 C 0.23469 0.39096 0.5191 0.0
C2115 C 0.25185 0.37632 0.51747 0.0
C2116 C 0.25535 0.36139 0.53414 0.0
C2117 C 0.24158 0.36104 0.55189 0.0
C2118 C 0.23026 0.40697 0.50155 0.0
C2119 C 0.27357 0.3456 0.53313 0.0
C2120 C 0.27482 0.36175 0.46302 0.0
C2121 C 0.29339 0.37436 0.46224 0.0
C2122 C 0.26094 0.36261 0.48067 0.0
C2123 C 0.26587 0.3762 0.49813 0.0
C2124 C 0.28451 0.38912 0.49735 0.0
C2125 C 0.29797 0.38817 0.47933 0.0
C2126 C 0.24107 0.34883 0.48069 0.0
C2127 C 0.2905 0.40358 0.51575 0.0
H2128 H 0.20856 0.40207 0.53855 0.0
H2129 H 0.24402 0.34908 0.5642 0.0
H2130 H 0.24442 0.41741 0.4991 0.0
H2131 H 0.22728 0.39847 0.48624 0.0
H2132 H 0.21623 0.4172 0.50517 0.0
H2133 H 0.27476 0.33572 0.54787 0.0
H2134 H 0.27138 0.33478 0.51923 0.0
H2135 H 0.28893 0.35421 0.53078 0.0
H2136 H 0.27107 0.35127 0.4497 0.0
H2137 H 0.31238 0.39783 0.47884 0.0
H2138 H 0.22671 0.35889 0.48327 0.0
H2139 H 0.24179 0.33718 0.49407 0.0
H2140 H 0.23905 0.33984 0.46548 0.0
H2141 H 0.27727 0.41484 0.51921 0.0
H2142 H 0.30524 0.41298 0.51246 0.0
H2143 H 0.29308 0.39388 0.53041 0.0
C2144 C 0.05744 0.74813 0.86998 0.0
C2145 C 0.05509 0.72611 0.87372 0.0
C2146 C 0.03987 0.76202 0.87113 0.0
C2147 C 0.01935 0.7537 0.87598 0.0
C2148 C 0.01693 0.73154 0.8802 0.0
C2149 C 0.03485 0.71802 0.87912 0.0
C2150 C 0.04321 0.78555 0.86674 0.0
C2151 C 0.99531 0.72202 0.88527 0.0
C2152 C 0.97602 0.79268 0.89364 0.0
C2153 C 0.96511 0.79638 0.87437 0.0
C2154 C 0.99362 0.77872 0.89448 0.0
C2155 C 1.00034 0.76806 0.87563 0.0
C2156 C 0.98919 0.77154 0.85621 0.0
C2157 C 0.97179 0.78568 0.85581 0.0
C2158 C 1.00519 0.77559 0.91544 0.0
C2159 C 0.99569 0.76037 0.8358 0.0
H2160 H 0.0731 0.75453 0.86612 0.0
H2161 H 0.03291 0.701 0.88187 0.0
H2162 H 0.03416 0.79027 0.85221 0.0
H2163 H 0.03696 0.7952 0.88025 0.0
H2164 H 0.06033 0.78965 0.86429 0.0
H2165 H 0.99626 0.70469 0.88911 0.0
H2166 H 0.988 0.73047 0.89904 0.0
H2167 H 0.98446 0.72414 0.87138 0.0
H2168 H 0.97103 0.801 0.90801 0.0
H2169 H 0.96321 0.78818 0.84094 0.0
H2170 H 0.02209 0.7808 0.9138 0.0
H2171 H 1.00536 0.75838 0.91978 0.0
H2172 H 0.99773 0.78472 0.92873 0.0
H2173 H 0.01229 0.76493 0.83147 0.0
H2174 H 0.98501 0.76436 0.82217 0.0
H2175 H 0.99546 0.74278 0.8382 0.0
C2176 C 0.03138 0.30414 0.63771 0.0
C2177 C 0.05146 0.29686 0.64446 0.0
C2178 C 0.01355 0.29037 0.63745 0.0
C2179 C 0.01579 0.26891 0.64444 0.0
C2180 C 0.036 0.26158 0.65149 0.0
C2181 C 0.05359 0.27558 0.65129 0.0
C2182 C 0.99234 0.29871 0.62954 0.0
C2183 C 0.03903 0.23896 0.65942 0.0
C2184 C 0.96637 0.23848 0.663 0.0
C2185 C 0.96222 0.22493 0.64551 0.0
C2186 C 0.98367 0.25285 0.66284 0.0
C2187 C 0.99702 0.25411 0.64459 0.0
C2188 C 0.99278 0.24081 0.62673 0.0
C2189 C 0.97559 0.22628 0.62747 0.0
C2190 C 0.98778 0.26658 0.68231 0.0
C2191 C 1.00651 0.24181 0.60688 0.0
H2192 H 0.02971 0.32053 0.63227 0.0
H2193 H 0.06902 0.26996 0.65681 0.0
H2194 H 0.9867 0.2889 0.61585 0.0
H2195 H 0.98014 0.29733 0.64236 0.0
H2196 H 0.99331 0.3157 0.62437 0.0
H2197 H 0.05574 0.23581 0.66454 0.0
H2198 H 0.02822 0.23584 0.67316 0.0
H2199 H 0.03473 0.22741 0.64663 0.0
H2200 H 0.95595 0.23802 0.67685 0.0
H2201 H 0.97282 0.21576 0.61397 0.0
H2202 H 0.98715 0.28375 0.67787 0.0
H2203 H 1.00405 0.26341 0.68863 0.0
H2204 H 0.97599 0.26359 0.69529 0.0
H2205 H 1.00716 0.25845 0.60071 0.0
H2206 H 1.00048 0.23118 0.59396 0.0
H2207 H 0.02312 0.23706 0.61083 0.0
C2208 C 0.54751 0.23498 0.35758 0.0
C2209 C 0.55148 0.2204 0.37422 0.0
C2210 C 0.53012 0.24911 0.35839 0.0
C2211 C 0.51642 0.24894 0.37643 0.0
C2212 C 0.52059 0.23467 0.39354 0.0
C2213 C 0.53799 0.22051 0.3922 0.0
C2214 C 0.52622 0.264 0.33975 0.0
C2215 C 0.50645 0.23412 0.41312 0.0
C2216 C 0.48104 0.29796 0.38349 0.0
C2217 C 0.46168 0.29095 0.37448 0.0
C2218 C 0.49881 0.28428 0.38485 0.0
C2219 C 0.49728 0.26312 0.37685 0.0
C2220 C 0.47766 0.2558 0.36821 0.0
C2221 C 0.46012 0.26973 0.36725 0.0
C2222 C 0.5194 0.29263 0.39434 0.0
C2223 C 0.47533 0.2334 0.35945 0.0
H2224 H 0.55808 0.23545 0.34384 0.0
H2225 H 0.54078 0.20924 0.40508 0.0
H2226 H 0.51032 0.26061 0.3326 0.0
H2227 H 0.52605 0.28084 0.34535 0.0
H2228 H 0.53856 0.26241 0.32707 0.0
H2229 H 0.51255 0.22299 0.42557 0.0
H2230 H 0.50519 0.25036 0.42015 0.0
H2231 H 0.49008 0.22903 0.40855 0.0
H2232 H 0.4825 0.31435 0.38898 0.0
H2233 H 0.44512 0.26396 0.36072 0.0
H2234 H 0.53194 0.29327 0.38179 0.0
H2235 H 0.52516 0.28166 0.40705 0.0
H2236 H 0.51755 0.30889 0.40127 0.0
H2237 H 0.48644 0.23115 0.34579 0.0
H2238 H 0.4588 0.22994 0.35391 0.0
H2239 H 0.47972 0.2215 0.37187 0.0
C2240 C 0.62518 0.54104 0.72169 0.0
C2241 C 0.64433 0.55252 0.71919 0.0
C2242 C 0.62378 0.52365 0.73594 0.0
C2243 C 0.64192 0.51768 0.74813 0.0
C2244 C 0.66124 0.52932 0.74579 0.0
C2245 C 0.66223 0.54653 0.73134 0.0
C2246 C 0.60295 0.51153 0.73779 0.0
C2247 C 0.68089 0.52363 0.75861 0.0
C2248 C 0.63425 0.48431 0.79867 0.0
C2249 C 0.63996 0.46376 0.79163 0.0
C2250 C 0.6347 0.50196 0.7847 0.0
C2251 C 0.64084 0.49905 0.76307 0.0
C2252 C 0.64641 0.47836 0.75579 0.0
C2253 C 0.64603 0.46104 0.77014 0.0
C2254 C 0.62874 0.52378 0.79312 0.0
C2255 C 0.65302 0.47452 0.73286 0.0
H2256 H 0.61134 0.54545 0.71224 0.0
H2257 H 0.67698 0.55553 0.72977 0.0
H2258 H 0.60542 0.49453 0.73333 0.0
H2259 H 0.59727 0.51176 0.75461 0.0
H2260 H 0.59026 0.51832 0.72738 0.0
H2261 H 0.69458 0.53445 0.75517 0.0
H2262 H 0.67726 0.52441 0.77598 0.0
H2263 H 0.68578 0.50696 0.75502 0.0
H2264 H 0.62927 0.4866 0.81513 0.0
H2265 H 0.65089 0.44539 0.76456 0.0
H2266 H 0.61513 0.53032 0.78382 0.0
H2267 H 0.64237 0.535 0.79107 0.0
H2268 H 0.62425 0.52338 0.81032 0.0
H2269 H 0.64036 0.48023 0.72182 0.0
H2270 H 0.65611 0.45735 0.72952 0.0
H2271 H 0.66774 0.48377 0.72921 0.0
C2272 C 0.36624 0.03189 0.79865 0.0
C2273 C 0.37788 0.05071 0.79467 0.0
C2274 C 0.36723 0.0144 0.78457 0.0
C2275 C 0.3801 0.01573 0.76596 0.0
C2276 C 0.39221 0.03452 0.76205 0.0
C2277 C 0.391 0.05175 0.77648 0.0
C2278 C 0.35422 0.9946 0.78945 0.0
C2279 C 0.40605 0.03662 0.74236 0.0
C2280 C 0.39488 0.96353 0.73826 0.0
C2281 C 0.37958 0.9624 0.72184 0.0
C2282 C 0.39545 0.98091 0.75253 0.0
C2283 C 0.3804 0.99765 0.75034 0.0
C2284 C 0.36517 0.99681 0.73358 0.0
C2285 C 0.36491 0.97921 0.71958 0.0
C2286 C 0.41196 0.9812 0.77016 0.0
C2287 C 0.34883 0.01432 0.73067 0.0
H2288 H 0.35628 0.03086 0.81281 0.0
H2289 H 0.39985 0.06632 0.77316 0.0
H2290 H 0.34236 0.99184 0.77652 0.0
H2291 H 0.36477 0.98037 0.79002 0.0
H2292 H 0.34555 0.99584 0.80492 0.0
H2293 H 0.41511 0.05193 0.74206 0.0
H2294 H 0.41756 0.02318 0.74155 0.0
H2295 H 0.39593 0.03574 0.72779 0.0
H2296 H 0.40647 0.95079 0.73997 0.0
H2297 H 0.35282 0.97837 0.70718 0.0
H2298 H 0.4039 0.98118 0.78598 0.0
H2299 H 0.42165 0.99607 0.7692 0.0
H2300 H 0.42288 0.96724 0.76938 0.0
H2301 H 0.33836 0.01515 0.74498 0.0
H2302 H 0.33865 0.01174 0.71633 0.0
H2303 H 0.35695 0.03005 0.72914 0.0
C2304 C 0.48141 0.21717 0.86658 0.0
C2305 C 0.46135 0.22359 0.87424 0.0
C2306 C 0.49911 0.23108 0.86728 0.0
C2307 C 0.49677 0.25185 0.87605 0.0
C2308 C 0.47666 0.25825 0.88421 0.0
C2309 C 0.45919 0.24409 0.88312 0.0
C2310 C 0.52022 0.2237 0.85822 0.0
C2311 C 0.47353 0.28013 0.89393 0.0
C2312 C 0.54722 0.28139 0.89353 0.0
C2313 C 0.55068 0.29536 0.87627 0.0
C2314 C 0.52963 0.26733 0.89379 0.0
C2315 C 0.51525 0.26704 0.87627 0.0
C2316 C 0.51861 0.28118 0.85886 0.0
C2317 C 0.5362 0.29523 0.85912 0.0
C2318 C 0.52648 0.25271 0.91279 0.0
C2319 C 0.50379 0.28126 0.83977 0.0
H2320 H 0.48313 0.20144 0.8595 0.0
H2321 H 0.44379 0.24906 0.88929 0.0
H2322 H 0.52505 0.23428 0.84478 0.0
H2323 H 0.53288 0.22484 0.87062 0.0
H2324 H 0.51951 0.20695 0.85231 0.0
H2325 H 0.45708 0.28239 0.90022 0.0
H2326 H 0.48508 0.28263 0.90718 0.0
H2327 H 0.47673 0.29265 0.88174 0.0
H2328 H 0.55823 0.28155 0.90693 0.0
H2329 H 0.53894 0.30577 0.8456 0.0
H2330 H 0.52707 0.23577 0.90754 0.0
H2331 H 0.51047 0.25539 0.91994 0.0
H2332 H 0.5388 0.25523 0.92535 0.0
H2333 H 0.50365 0.26522 0.83217 0.0
H2334 H 0.50855 0.2933 0.82757 0.0
H2335 H 0.48721 0.28471 0.845 0.0
C2336 C 0.36392 0.53347 0.21827 0.0
C2337 C 0.37626 0.55207 0.22112 0.0
C2338 C 0.36489 0.51643 0.23291 0.0
C2339 C 0.37886 0.51774 0.2507 0.0
C2340 C 0.39181 0.53616 0.25341 0.0
C2341 C 0.39023 0.55315 0.23872 0.0
C2342 C 0.35071 0.49714 0.22948 0.0
C2343 C 0.40711 0.53806 0.272 0.0
C2344 C 0.36577 0.48264 0.29882 0.0
C2345 C 0.3788 0.4648 0.29515 0.0
C2346 C 0.36587 0.50013 0.28466 0.0
C2347 C 0.3796 0.49993 0.26661 0.0
C2348 C 0.39333 0.48226 0.26328 0.0
C2349 C 0.39262 0.46483 0.27747 0.0
C2350 C 0.35074 0.51849 0.28862 0.0
C2351 C 0.4085 0.4816 0.24449 0.0
H2352 H 0.35338 0.5322 0.20456 0.0
H2353 H 0.39963 0.56749 0.24134 0.0
H2354 H 0.3606 0.48251 0.22798 0.0
H2355 H 0.3401 0.49487 0.24354 0.0
H2356 H 0.34062 0.49865 0.21493 0.0
H2357 H 0.4169 0.55289 0.27121 0.0
H2358 H 0.39807 0.53804 0.28728 0.0
H2359 H 0.418 0.52407 0.27235 0.0
H2360 H 0.35491 0.48255 0.31234 0.0
H2361 H 0.40283 0.45111 0.27471 0.0
H2362 H 0.33923 0.51971 0.27515 0.0
H2363 H 0.35972 0.5338 0.2893 0.0
H2364 H 0.34161 0.51654 0.30375 0.0
H2365 H 0.39929 0.48123 0.22932 0.0
H2366 H 0.41913 0.46739 0.24497 0.0
H2367 H 0.41856 0.49625 0.24421 0.0
C2368 C 0.62355 0.04571 0.28443 0.0
C2369 C 0.64317 0.05158 0.29373 0.0
C2370 C 0.62205 0.02824 0.27032 0.0
C2371 C 0.64067 0.01655 0.26501 0.0
C2372 C 0.66051 0.02239 0.27426 0.0
C2373 C 0.66147 0.03963 0.28863 0.0
C2374 C 0.60054 0.02233 0.26104 0.0
C2375 C 0.68078 0.01047 0.26888 0.0
C2376 C 0.6368 0.95982 0.24327 0.0
C2377 C 0.63952 0.96299 0.22115 0.0
C2378 C 0.63651 0.97713 0.25761 0.0
C2379 C 0.63948 0.99818 0.2498 0.0
C2380 C 0.64206 1.00159 0.22753 0.0
C2381 C 0.64183 0.98402 0.21349 0.0
C2382 C 0.63341 0.97282 0.2812 0.0
C2383 C 0.64552 0.02377 0.21858 0.0
H2384 H 0.60935 0.05496 0.28789 0.0
H2385 H 0.67665 0.04367 0.29598 0.0
H2386 H 0.60096 0.02386 0.24335 0.0
H2387 H 0.59674 1.00539 0.26477 0.0
H2388 H 0.58748 0.03258 0.2673 0.0
H2389 H 0.69502 0.01733 0.27702 0.0
H2390 H 0.6792 0.99343 0.2736 0.0
H2391 H 0.68355 0.01086 0.25133 0.0
H2392 H 0.6354 0.94372 0.24955 0.0
H2393 H 0.64353 0.98682 0.19646 0.0
H2394 H 0.62012 0.9827 0.28752 0.0
H2395 H 0.64806 0.97739 0.29011 0.0
H2396 H 0.62984 0.95572 0.28453 0.0
H2397 H 0.63203 0.03432 0.22311 0.0
H2398 H 0.64703 0.02377 0.20086 0.0
H2399 H 0.66026 0.03084 0.22553 0.0
C2400 C 0.54413 0.78694 0.12033 0.0
C2401 C 0.55159 0.79518 0.13988 0.0
C2402 C 0.52693 0.77241 0.11961 0.0
C2403 C 0.51684 0.76599 0.13888 0.0
C2404 C 0.52417 0.77434 0.15863 0.0
C2405 C 0.54145 0.78874 0.1589 0.0
C2406 C 0.51958 0.76388 0.09822 0.0
C2407 C 0.51385 0.76794 0.17954 0.0
C2408 C 0.46023 0.74354 0.13712 0.0
C2409 C 0.46378 0.72147 0.13926 0.0
C2410 C 0.47733 0.75815 0.13672 0.0
C2411 C 0.49857 0.75056 0.13844 0.0
C2412 C 0.5023 0.72829 0.14034 0.0
C2413 C 0.48487 0.71403 0.14079 0.0
C2414 C 0.47264 0.78176 0.13485 0.0
C2415 C 0.52471 0.71954 0.14209 0.0
H2416 H 0.55166 0.79196 0.10553 0.0
H2417 H 0.5473 0.79465 0.17412 0.0
H2418 H 0.52069 0.74617 0.09807 0.0
H2419 H 0.50256 0.76806 0.09556 0.0
H2420 H 0.52919 0.77033 0.08471 0.0
H2421 H 0.52121 0.77615 0.1935 0.0
H2422 H 0.49655 0.77177 0.17918 0.0
H2423 H 0.51527 0.75041 0.18188 0.0
H2424 H 0.44398 0.74947 0.13627 0.0
H2425 H 0.48777 0.697 0.14223 0.0
H2426 H 0.48123 0.78864 0.1209 0.0
H2427 H 0.47851 0.79022 0.14932 0.0
H2428 H 0.45529 0.78503 0.133 0.0
H2429 H 0.53437 0.72477 0.12813 0.0
H2430 H 0.52494 0.70179 0.14288 0.0
H2431 H 0.53259 0.72598 0.15664 0.0
loop_
_geom_bond_atom_site_label_1
_geom_bond_atom_site_label_2
_geom_bond_distance
_geom_bond_site_symmetry_2
_ccdc_geom_bond_type
Li0 N17 1.990 . S
Li0 O60 1.956 . S
Li0 O61 1.970 . S
Li0 O62 1.961 . S
Li1 N25 1.990 . S
Li1 O60 1.970 . S
Li1 O61 1.956 . S
Li1 O63 1.961 . S
Li2 N47 1.990 . S
Li2 O60 1.961 . S
Li2 O62 1.956 . S
Li2 O63 1.970 . S
Li3 N53 1.990 . S
Li3 O61 1.961 . S
Li3 O62 1.970 . S
Li3 O63 1.956 . S
C4 C6 1.348 . S
C4 C7 1.356 . S
C4 O60 1.325 . S
N5 C8 1.314 . S
N5 C9 1.279 . S
C6 C4 1.348 . S
C6 C8 1.353 . S
C6 H64 0.929 . S
C7 C4 1.356 . S
C7 C9 1.358 . S
C7 H65 0.930 . S
C8 N5 1.314 . S
C8 C6 1.353 . S
C8 H66 0.930 . S
C9 N5 1.279 . S
C9 C7 1.358 . S
C9 H67 0.930 . S
C10 C13 1.348 . S
C10 C14 1.356 . S
C10 O61 1.325 . S
C11 N12 1.279 . S
C11 C14 1.358 . S
C11 H68 0.930 . S
N12 C11 1.279 . S
N12 C15 1.314 . S
C13 C10 1.348 . S
C13 C15 1.353 . S
C13 H69 0.929 . S
C14 C10 1.356 . S
C14 C11 1.358 . S
C14 H70 0.930 . S
C15 N12 1.314 . S
C15 C13 1.353 . S
C15 H71 0.930 . S
C16 N17 1.314 . S
C16 C21 1.353 . S
C16 H22 0.930 . S
N17 Li0 1.990 . S
N17 C16 1.314 . S
N17 C19 1.279 . S
C18 C19 1.358 . S
C18 C20 1.356 . S
C18 H72 0.930 . S
C19 N17 1.279 . S
C19 C18 1.358 . S
C19 H23 0.930 . S
C20 C18 1.356 . S
C20 C21 1.348 . S
C21 C16 1.353 . S
C21 C20 1.348 . S
C21 H73 0.929 . S
H22 C16 0.930 . S
H23 C19 0.930 . S
C24 N25 1.314 . S
C24 C26 1.353 . S
C24 H30 0.930 . S
N25 Li1 1.990 . S
N25 C24 1.314 . S
N25 C28 1.279 . S
C26 C24 1.353 . S
C26 C29 1.348 . S
C26 H74 0.929 . S
C27 C28 1.358 . S
C27 C29 1.356 . S
C27 H75 0.930 . S
C28 N25 1.279 . S
C28 C27 1.358 . S
C28 H31 0.930 . S
C29 C26 1.348 . S
C29 C27 1.356 . S
H30 C24 0.930 . S
H31 C28 0.930 . S
C32 C34 1.348 . S
C32 C35 1.356 . S
C32 O62 1.325 . S
N33 C36 1.314 . S
N33 C37 1.279 . S
C34 C32 1.348 . S
C34 C36 1.353 . S
C34 H76 0.929 . S
C35 C32 1.356 . S
C35 C37 1.358 . S
C35 H77 0.930 . S
C36 N33 1.314 . S
C36 C34 1.353 . S
C36 H78 0.930 . S
C37 N33 1.279 . S
C37 C35 1.358 . S
C37 H79 0.930 . S
C38 C39 1.348 . S
C38 C40 1.356 . S
C38 O63 1.325 . S
C39 C38 1.348 . S
C39 C41 1.353 . S
C39 H80 0.929 . S
C40 C38 1.356 . S
C40 C42 1.358 . S
C40 H81 0.930 . S
C41 C39 1.353 . S
C41 N43 1.314 . S
C41 H82 0.930 . S
C42 C40 1.358 . S
C42 N43 1.279 . S
C42 H83 0.930 . S
N43 C41 1.314 . S
N43 C42 1.279 . S
C44 C46 1.353 . S
C44 N47 1.314 . S
C44 H50 0.930 . S
C45 N47 1.279 . S
C45 C48 1.358 . S
C45 H51 0.930 . S
C46 C44 1.353 . S
C46 C49 1.348 . S
C46 H84 0.929 . S
N47 Li2 1.990 . S
N47 C44 1.314 . S
N47 C45 1.279 . S
C48 C45 1.358 . S
C48 C49 1.356 . S
C48 H85 0.930 . S
C49 C46 1.348 . S
C49 C48 1.356 . S
H50 C44 0.930 . S
H51 C45 0.930 . S
C52 N53 1.314 . S
C52 C54 1.353 . S
C52 H58 0.930 . S
N53 Li3 1.990 . S
N53 C52 1.314 . S
N53 C56 1.279 . S
C54 C52 1.353 . S
C54 C57 1.348 . S
C54 H86 0.929 . S
C55 C56 1.358 . S
C55 C57 1.356 . S
C55 H87 0.930 . S
C56 N53 1.279 . S
C56 C55 1.358 . S
C56 H59 0.930 . S
C57 C54 1.348 . S
C57 C55 1.356 . S
H58 C52 0.930 . S
H59 C56 0.930 . S
O60 Li0 1.956 . S
O60 Li1 1.970 . S
O60 Li2 1.961 . S
O60 C4 1.325 . S
O61 Li0 1.970 . S
O61 Li1 1.956 . S
O61 Li3 1.961 . S
O61 C10 1.325 . S
O62 Li0 1.961 . S
O62 Li2 1.956 . S
O62 Li3 1.970 . S
O62 C32 1.325 . S
O63 Li1 1.961 . S
O63 Li2 1.970 . S
O63 Li3 1.956 . S
O63 C38 1.325 . S
H64 C6 0.929 . S
H65 C7 0.930 . S
H66 C8 0.930 . S
H67 C9 0.930 . S
H68 C11 0.930 . S
H69 C13 0.929 . S
H70 C14 0.930 . S
H71 C15 0.930 . S
H72 C18 0.930 . S
H73 C21 0.929 . S
H74 C26 0.929 . S
H75 C27 0.930 . S
H76 C34 0.929 . S
H77 C35 0.930 . S
H78 C36 0.930 . S
H79 C37 0.930 . S
H80 C39 0.929 . S
H81 C40 0.930 . S
H82 C41 0.930 . S
H83 C42 0.930 . S
H84 C46 0.929 . S
H85 C48 0.930 . S
H86 C54 0.929 . S
H87 C55 0.930 . S
Li88 N105 1.990 . S
Li88 O148 1.956 . S
Li88 O149 1.970 . S
Li88 O150 1.961 . S
Li89 N113 1.990 . S
Li89 O148 1.970 . S
Li89 O149 1.956 . S
Li89 O151 1.961 . S
Li90 N135 1.990 . S
Li90 O148 1.961 . S
Li90 O150 1.956 . S
Li90 O151 1.970 . S
Li91 N141 1.990 . S
Li91 O149 1.961 . S
Li91 O150 1.970 . S
Li91 O151 1.956 . S
C92 C94 1.348 . S
C92 C95 1.356 . S
C92 O148 1.325 . S
N93 C96 1.314 . S
N93 C97 1.279 . S
C94 C92 1.348 . S
C94 C96 1.353 . S
C94 H152 0.929 . S
C95 C92 1.356 . S
C95 C97 1.358 . S
C95 H153 0.930 . S
C96 N93 1.314 . S
C96 C94 1.353 . S
C96 H154 0.930 . S
C97 N93 1.279 . S
C97 C95 1.358 . S
C97 H155 0.930 . S
C98 C101 1.348 . S
C98 C102 1.356 . S
C98 O149 1.325 . S
C99 N100 1.279 . S
C99 C102 1.358 . S
C99 H156 0.930 . S
N100 C99 1.279 . S
N100 C103 1.314 . S
C101 C98 1.348 . S
C101 C103 1.353 . S
C101 H157 0.929 . S
C102 C98 1.356 . S
C102 C99 1.358 . S
C102 H158 0.930 . S
C103 N100 1.314 . S
C103 C101 1.353 . S
C103 H159 0.930 . S
C104 N105 1.314 . S
C104 C109 1.353 . S
C104 H110 0.930 . S
N105 Li88 1.990 . S
N105 C104 1.314 . S
N105 C107 1.279 . S
C106 C107 1.358 . S
C106 C108 1.356 . S
C106 H160 0.930 . S
C107 N105 1.279 . S
C107 C106 1.358 . S
C107 H111 0.930 . S
C108 C106 1.356 . S
C108 C109 1.348 . S
C109 C104 1.353 . S
C109 C108 1.348 . S
C109 H161 0.929 . S
H110 C104 0.930 . S
H111 C107 0.930 . S
C112 N113 1.314 . S
C112 C114 1.353 . S
C112 H118 0.930 . S
N113 Li89 1.990 . S
N113 C112 1.314 . S
N113 C116 1.279 . S
C114 C112 1.353 . S
C114 C117 1.348 . S
C114 H162 0.929 . S
C115 C116 1.358 . S
C115 C117 1.356 . S
C115 H163 0.930 . S
C116 N113 1.279 . S
C116 C115 1.358 . S
C116 H119 0.930 . S
C117 C114 1.348 . S
C117 C115 1.356 . S
H118 C112 0.930 . S
H119 C116 0.930 . S
C120 C122 1.348 . S
C120 C123 1.356 . S
C120 O150 1.325 . S
N121 C124 1.314 . S
N121 C125 1.279 . S
C122 C120 1.348 . S
C122 C124 1.353 . S
C122 H164 0.929 . S
C123 C120 1.356 . S
C123 C125 1.358 . S
C123 H165 0.930 . S
C124 N121 1.314 . S
C124 C122 1.353 . S
C124 H166 0.930 . S
C125 N121 1.279 . S
C125 C123 1.358 . S
C125 H167 0.930 . S
C126 C127 1.348 . S
C126 C128 1.356 . S
C126 O151 1.325 . S
C127 C126 1.348 . S
C127 C129 1.353 . S
C127 H168 0.929 . S
C128 C126 1.356 . S
C128 C130 1.358 . S
C128 H169 0.930 . S
C129 C127 1.353 . S
C129 N131 1.314 . S
C129 H170 0.930 . S
C130 C128 1.358 . S
C130 N131 1.279 . S
C130 H171 0.930 . S
N131 C129 1.314 . S
N131 C130 1.279 . S
C132 C134 1.353 . S
C132 N135 1.314 . S
C132 H138 0.930 . S
C133 N135 1.279 . S
C133 C136 1.358 . S
C133 H139 0.930 . S
C134 C132 1.353 . S
C134 C137 1.348 . S
C134 H172 0.929 . S
N135 Li90 1.990 . S
N135 C132 1.314 . S
N135 C133 1.279 . S
C136 C133 1.358 . S
C136 C137 1.356 . S
C136 H173 0.930 . S
C137 C134 1.348 . S
C137 C136 1.356 . S
H138 C132 0.930 . S
H139 C133 0.930 . S
C140 N141 1.314 . S
C140 C142 1.353 . S
C140 H146 0.930 . S
N141 Li91 1.990 . S
N141 C140 1.314 . S
N141 C144 1.279 . S
C142 C140 1.353 . S
C142 C145 1.348 . S
C142 H174 0.929 . S
C143 C144 1.358 . S
C143 C145 1.356 . S
C143 H175 0.930 . S
C144 N141 1.279 . S
C144 C143 1.358 . S
C144 H147 0.930 . S
C145 C142 1.348 . S
C145 C143 1.356 . S
H146 C140 0.930 . S
H147 C144 0.930 . S
O148 Li88 1.956 . S
O148 Li89 1.970 . S
O148 Li90 1.961 . S
O148 C92 1.325 . S
O149 Li88 1.970 . S
O149 Li89 1.956 . S
O149 Li91 1.961 . S
O149 C98 1.325 . S
O150 Li88 1.961 . S
O150 Li90 1.956 . S
O150 Li91 1.970 . S
O150 C120 1.325 . S
O151 Li89 1.961 . S
O151 Li90 1.970 . S
O151 Li91 1.956 . S
O151 C126 1.325 . S
H152 C94 0.929 . S
H153 C95 0.930 . S
H154 C96 0.930 . S
H155 C97 0.930 . S
H156 C99 0.930 . S
H157 C101 0.929 . S
H158 C102 0.930 . S
H159 C103 0.930 . S
H160 C106 0.930 . S
H161 C109 0.929 . S
H162 C114 0.929 . S
H163 C115 0.930 . S
H164 C122 0.929 . S
H165 C123 0.930 . S
H166 C124 0.930 . S
H167 C125 0.930 . S
H168 C127 0.929 . S
H169 C128 0.930 . S
H170 C129 0.930 . S
H171 C130 0.930 . S
H172 C134 0.929 . S
H173 C136 0.930 . S
H174 C142 0.929 . S
H175 C143 0.930 . S
Li176 N193 1.990 . S
Li176 O236 1.956 . S
Li176 O237 1.970 . S
Li176 O238 1.961 . S
Li177 N201 1.990 . S
Li177 O236 1.970 . S
Li177 O237 1.956 . S
Li177 O239 1.961 . S
Li178 N223 1.990 . S
Li178 O236 1.961 . S
Li178 O238 1.956 . S
Li178 O239 1.970 . S
Li179 N229 1.990 . S
Li179 O237 1.961 . S
Li179 O238 1.970 . S
Li179 O239 1.956 . S
C180 C182 1.348 . S
C180 C183 1.356 . S
C180 O236 1.325 . S
N181 C184 1.314 . S
N181 C185 1.279 . S
C182 C180 1.348 . S
C182 C184 1.353 . S
C182 H240 0.929 . S
C183 C180 1.356 . S
C183 C185 1.358 . S
C183 H241 0.930 . S
C184 N181 1.314 . S
C184 C182 1.353 . S
C184 H242 0.930 . S
C185 N181 1.279 . S
C185 C183 1.358 . S
C185 H243 0.930 . S
C186 C189 1.348 . S
C186 C190 1.356 . S
C186 O237 1.325 . S
C187 N188 1.279 . S
C187 C190 1.358 . S
C187 H244 0.930 . S
N188 C187 1.279 . S
N188 C191 1.314 . S
C189 C186 1.348 . S
C189 C191 1.353 . S
C189 H245 0.929 . S
C190 C186 1.356 . S
C190 C187 1.358 . S
C190 H246 0.930 . S
C191 N188 1.314 . S
C191 C189 1.353 . S
C191 H247 0.930 . S
C192 N193 1.314 . S
C192 C197 1.353 . S
C192 H198 0.930 . S
N193 Li176 1.990 . S
N193 C192 1.314 . S
N193 C195 1.279 . S
C194 C195 1.358 . S
C194 C196 1.356 . S
C194 H248 0.930 . S
C195 N193 1.279 . S
C195 C194 1.358 . S
C195 H199 0.930 . S
C196 C194 1.356 . S
C196 C197 1.348 . S
C197 C192 1.353 . S
C197 C196 1.348 . S
C197 H249 0.929 . S
H198 C192 0.930 . S
H199 C195 0.930 . S
C200 N201 1.314 . S
C200 C202 1.353 . S
C200 H206 0.930 . S
N201 Li177 1.990 . S
N201 C200 1.314 . S
N201 C204 1.279 . S
C202 C200 1.353 . S
C202 C205 1.348 . S
C202 H250 0.929 . S
C203 C204 1.358 . S
C203 C205 1.356 . S
C203 H251 0.930 . S
C204 N201 1.279 . S
C204 C203 1.358 . S
C204 H207 0.930 . S
C205 C202 1.348 . S
C205 C203 1.356 . S
H206 C200 0.930 . S
H207 C204 0.930 . S
C208 C210 1.348 . S
C208 C211 1.356 . S
C208 O238 1.325 . S
N209 C212 1.314 . S
N209 C213 1.279 . S
C210 C208 1.348 . S
C210 C212 1.353 . S
C210 H252 0.929 . S
C211 C208 1.356 . S
C211 C213 1.358 . S
C211 H253 0.930 . S
C212 N209 1.314 . S
C212 C210 1.353 . S
C212 H254 0.930 . S
C213 N209 1.279 . S
C213 C211 1.358 . S
C213 H255 0.930 . S
C214 C215 1.348 . S
C214 C216 1.356 . S
C214 O239 1.325 . S
C215 C214 1.348 . S
C215 C217 1.353 . S
C215 H256 0.929 . S
C216 C214 1.356 . S
C216 C218 1.358 . S
C216 H257 0.930 . S
C217 C215 1.353 . S
C217 N219 1.314 . S
C217 H258 0.930 . S
C218 C216 1.358 . S
C218 N219 1.279 . S
C218 H259 0.930 . S
N219 C217 1.314 . S
N219 C218 1.279 . S
C220 C222 1.353 . S
C220 N223 1.314 . S
C220 H226 0.930 . S
C221 N223 1.279 . S
C221 C224 1.358 . S
C221 H227 0.930 . S
C222 C220 1.353 . S
C222 C225 1.348 . S
C222 H260 0.929 . S
N223 Li178 1.990 . S
N223 C220 1.314 . S
N223 C221 1.279 . S
C224 C221 1.358 . S
C224 C225 1.356 . S
C224 H261 0.930 . S
C225 C222 1.348 . S
C225 C224 1.356 . S
H226 C220 0.930 . S
H227 C221 0.930 . S
C228 N229 1.314 . S
C228 C230 1.353 . S
C228 H234 0.930 . S
N229 Li179 1.990 . S
N229 C228 1.314 . S
N229 C232 1.279 . S
C230 C228 1.353 . S
C230 C233 1.348 . S
C230 H262 0.929 . S
C231 C232 1.358 . S
C231 C233 1.356 . S
C231 H263 0.930 . S
C232 N229 1.279 . S
C232 C231 1.358 . S
C232 H235 0.930 . S
C233 C230 1.348 . S
C233 C231 1.356 . S
H234 C228 0.930 . S
H235 C232 0.930 . S
O236 Li176 1.956 . S
O236 Li177 1.970 . S
O236 Li178 1.961 . S
O236 C180 1.325 . S
O237 Li176 1.970 . S
O237 Li177 1.956 . S
O237 Li179 1.961 . S
O237 C186 1.325 . S
O238 Li176 1.961 . S
O238 Li178 1.956 . S
O238 Li179 1.970 . S
O238 C208 1.325 . S
O239 Li177 1.961 . S
O239 Li178 1.970 . S
O239 Li179 1.956 . S
O239 C214 1.325 . S
H240 C182 0.929 . S
H241 C183 0.930 . S
H242 C184 0.930 . S
H243 C185 0.930 . S
H244 C187 0.930 . S
H245 C189 0.929 . S
H246 C190 0.930 . S
H247 C191 0.930 . S
H248 C194 0.930 . S
H249 C197 0.929 . S
H250 C202 0.929 . S
H251 C203 0.930 . S
H252 C210 0.929 . S
H253 C211 0.930 . S
H254 C212 0.930 . S
H255 C213 0.930 . S
H256 C215 0.929 . S
H257 C216 0.930 . S
H258 C217 0.930 . S
H259 C218 0.930 . S
H260 C222 0.929 . S
H261 C224 0.930 . S
H262 C230 0.929 . S
H263 C231 0.930 . S
Li264 N281 1.990 . S
Li264 O324 1.956 . S
Li264 O325 1.970 . S
Li264 O326 1.961 . S
Li265 N289 1.990 . S
Li265 O324 1.970 . S
Li265 O325 1.956 . S
Li265 O327 1.961 . S
Li266 N311 1.990 . S
Li266 O324 1.961 . S
Li266 O326 1.956 . S
Li266 O327 1.970 . S
Li267 N317 1.990 . S
Li267 O325 1.961 . S
Li267 O326 1.970 . S
Li267 O327 1.956 . S
C268 C270 1.348 . S
C268 C271 1.356 . S
C268 O324 1.325 . S
N269 C272 1.314 . S
N269 C273 1.279 . S
C270 C268 1.348 . S
C270 C272 1.353 . S
C270 H328 0.929 . S
C271 C268 1.356 . S
C271 C273 1.358 . S
C271 H329 0.930 . S
C272 N269 1.314 . S
C272 C270 1.353 . S
C272 H330 0.930 . S
C273 N269 1.279 . S
C273 C271 1.358 . S
C273 H331 0.930 . S
C274 C277 1.348 . S
C274 C278 1.356 . S
C274 O325 1.325 . S
C275 N276 1.279 . S
C275 C278 1.358 . S
C275 H332 0.930 . S
N276 C275 1.279 . S
N276 C279 1.314 . S
C277 C274 1.348 . S
C277 C279 1.353 . S
C277 H333 0.929 . S
C278 C274 1.356 . S
C278 C275 1.358 . S
C278 H334 0.930 . S
C279 N276 1.314 . S
C279 C277 1.353 . S
C279 H335 0.930 . S
C280 N281 1.314 . S
C280 C285 1.353 . S
C280 H286 0.930 . S
N281 Li264 1.990 . S
N281 C280 1.314 . S
N281 C283 1.279 . S
C282 C283 1.358 . S
C282 C284 1.356 . S
C282 H336 0.930 . S
C283 N281 1.279 . S
C283 C282 1.358 . S
C283 H287 0.930 . S
C284 C282 1.356 . S
C284 C285 1.348 . S
C285 C280 1.353 . S
C285 C284 1.348 . S
C285 H337 0.929 . S
H286 C280 0.930 . S
H287 C283 0.930 . S
C288 N289 1.314 . S
C288 C290 1.353 . S
C288 H294 0.930 . S
N289 Li265 1.990 . S
N289 C288 1.314 . S
N289 C292 1.279 . S
C290 C288 1.353 . S
C290 C293 1.348 . S
C290 H338 0.929 . S
C291 C292 1.358 . S
C291 C293 1.356 . S
C291 H339 0.930 . S
C292 N289 1.279 . S
C292 C291 1.358 . S
C292 H295 0.930 . S
C293 C290 1.348 . S
C293 C291 1.356 . S
H294 C288 0.930 . S
H295 C292 0.930 . S
C296 C298 1.348 . S
C296 C299 1.356 . S
C296 O326 1.325 . S
N297 C300 1.314 . S
N297 C301 1.279 . S
C298 C296 1.348 . S
C298 C300 1.353 . S
C298 H340 0.929 . S
C299 C296 1.356 . S
C299 C301 1.358 . S
C299 H341 0.930 . S
C300 N297 1.314 . S
C300 C298 1.353 . S
C300 H342 0.930 . S
C301 N297 1.279 . S
C301 C299 1.358 . S
C301 H343 0.930 . S
C302 C303 1.348 . S
C302 C304 1.356 . S
C302 O327 1.325 . S
C303 C302 1.348 . S
C303 C305 1.353 . S
C303 H344 0.929 . S
C304 C302 1.356 . S
C304 C306 1.358 . S
C304 H345 0.930 . S
C305 C303 1.353 . S
C305 N307 1.314 . S
C305 H346 0.930 . S
C306 C304 1.358 . S
C306 N307 1.279 . S
C306 H347 0.930 . S
N307 C305 1.314 . S
N307 C306 1.279 . S
C308 C310 1.353 . S
C308 N311 1.314 . S
C308 H314 0.930 . S
C309 N311 1.279 . S
C309 C312 1.358 . S
C309 H315 0.930 . S
C310 C308 1.353 . S
C310 C313 1.348 . S
C310 H348 0.929 . S
N311 Li266 1.990 . S
N311 C308 1.314 . S
N311 C309 1.279 . S
C312 C309 1.358 . S
C312 C313 1.356 . S
C312 H349 0.930 . S
C313 C310 1.348 . S
C313 C312 1.356 . S
H314 C308 0.930 . S
H315 C309 0.930 . S
C316 N317 1.314 . S
C316 C318 1.353 . S
C316 H322 0.930 . S
N317 Li267 1.990 . S
N317 C316 1.314 . S
N317 C320 1.279 . S
C318 C316 1.353 . S
C318 C321 1.348 . S
C318 H350 0.929 . S
C319 C320 1.358 . S
C319 C321 1.356 . S
C319 H351 0.930 . S
C320 N317 1.279 . S
C320 C319 1.358 . S
C320 H323 0.930 . S
C321 C318 1.348 . S
C321 C319 1.356 . S
H322 C316 0.930 . S
H323 C320 0.930 . S
O324 Li264 1.956 . S
O324 Li265 1.970 . S
O324 Li266 1.961 . S
O324 C268 1.325 . S
O325 Li264 1.970 . S
O325 Li265 1.956 . S
O325 Li267 1.961 . S
O325 C274 1.325 . S
O326 Li264 1.961 . S
O326 Li266 1.956 . S
O326 Li267 1.970 . S
O326 C296 1.325 . S
O327 Li265 1.961 . S
O327 Li266 1.970 . S
O327 Li267 1.956 . S
O327 C302 1.325 . S
H328 C270 0.929 . S
H329 C271 0.930 . S
H330 C272 0.930 . S
H331 C273 0.930 . S
H332 C275 0.930 . S
H333 C277 0.929 . S
H334 C278 0.930 . S
H335 C279 0.930 . S
H336 C282 0.930 . S
H337 C285 0.929 . S
H338 C290 0.929 . S
H339 C291 0.930 . S
H340 C298 0.929 . S
H341 C299 0.930 . S
H342 C300 0.930 . S
H343 C301 0.930 . S
H344 C303 0.929 . S
H345 C304 0.930 . S
H346 C305 0.930 . S
H347 C306 0.930 . S
H348 C310 0.929 . S
H349 C312 0.930 . S
H350 C318 0.929 . S
H351 C319 0.930 . S
Li352 N369 1.990 . S
Li352 O412 1.956 . S
Li352 O413 1.970 . S
Li352 O414 1.961 . S
Li353 N377 1.990 . S
Li353 O412 1.970 . S
Li353 O413 1.956 . S
Li353 O415 1.961 . S
Li354 N399 1.990 . S
Li354 O412 1.961 . S
Li354 O414 1.956 . S
Li354 O415 1.970 . S
Li355 N405 1.990 . S
Li355 O413 1.961 . S
Li355 O414 1.970 . S
Li355 O415 1.956 . S
C356 C358 1.348 . S
C356 C359 1.356 . S
C356 O412 1.325 . S
N357 C360 1.314 . S
N357 C361 1.279 . S
C358 C356 1.348 . S
C358 C360 1.353 . S
C358 H416 0.929 . S
C359 C356 1.356 . S
C359 C361 1.358 . S
C359 H417 0.930 . S
C360 N357 1.314 . S
C360 C358 1.353 . S
C360 H418 0.930 . S
C361 N357 1.279 . S
C361 C359 1.358 . S
C361 H419 0.930 . S
C362 C365 1.348 . S
C362 C366 1.356 . S
C362 O413 1.325 . S
C363 N364 1.279 . S
C363 C366 1.358 . S
C363 H420 0.930 . S
N364 C363 1.279 . S
N364 C367 1.314 . S
C365 C362 1.348 . S
C365 C367 1.353 . S
C365 H421 0.929 . S
C366 C362 1.356 . S
C366 C363 1.358 . S
C366 H422 0.930 . S
C367 N364 1.314 . S
C367 C365 1.353 . S
C367 H423 0.930 . S
C368 N369 1.314 . S
C368 C373 1.353 . S
C368 H374 0.930 . S
N369 Li352 1.990 . S
N369 C368 1.314 . S
N369 C371 1.279 . S
C370 C371 1.358 . S
C370 C372 1.356 . S
C370 H424 0.930 . S
C371 N369 1.279 . S
C371 C370 1.358 . S
C371 H375 0.930 . S
C372 C370 1.356 . S
C372 C373 1.348 . S
C373 C368 1.353 . S
C373 C372 1.348 . S
C373 H425 0.929 . S
H374 C368 0.930 . S
H375 C371 0.930 . S
C376 N377 1.314 . S
C376 C378 1.353 . S
C376 H382 0.930 . S
N377 Li353 1.990 . S
N377 C376 1.314 . S
N377 C380 1.279 . S
C378 C376 1.353 . S
C378 C381 1.348 . S
C378 H426 0.929 . S
C379 C380 1.358 . S
C379 C381 1.356 . S
C379 H427 0.930 . S
C380 N377 1.279 . S
C380 C379 1.358 . S
C380 H383 0.930 . S
C381 C378 1.348 . S
C381 C379 1.356 . S
H382 C376 0.930 . S
H383 C380 0.930 . S
C384 C386 1.348 . S
C384 C387 1.356 . S
C384 O414 1.325 . S
N385 C388 1.314 . S
N385 C389 1.279 . S
C386 C384 1.348 . S
C386 C388 1.353 . S
C386 H428 0.929 . S
C387 C384 1.356 . S
C387 C389 1.358 . S
C387 H429 0.930 . S
C388 N385 1.314 . S
C388 C386 1.353 . S
C388 H430 0.930 . S
C389 N385 1.279 . S
C389 C387 1.358 . S
C389 H431 0.930 . S
C390 C391 1.348 . S
C390 C392 1.356 . S
C390 O415 1.325 . S
C391 C390 1.348 . S
C391 C393 1.353 . S
C391 H432 0.929 . S
C392 C390 1.356 . S
C392 C394 1.358 . S
C392 H433 0.930 . S
C393 C391 1.353 . S
C393 N395 1.314 . S
C393 H434 0.930 . S
C394 C392 1.358 . S
C394 N395 1.279 . S
C394 H435 0.930 . S
N395 C393 1.314 . S
N395 C394 1.279 . S
C396 C398 1.353 . S
C396 N399 1.314 . S
C396 H402 0.930 . S
C397 N399 1.279 . S
C397 C400 1.358 . S
C397 H403 0.930 . S
C398 C396 1.353 . S
C398 C401 1.348 . S
C398 H436 0.929 . S
N399 Li354 1.990 . S
N399 C396 1.314 . S
N399 C397 1.279 . S
C400 C397 1.358 . S
C400 C401 1.356 . S
C400 H437 0.930 . S
C401 C398 1.348 . S
C401 C400 1.356 . S
H402 C396 0.930 . S
H403 C397 0.930 . S
C404 N405 1.314 . S
C404 C406 1.353 . S
C404 H410 0.930 . S
N405 Li355 1.990 . S
N405 C404 1.314 . S
N405 C408 1.279 . S
C406 C404 1.353 . S
C406 C409 1.348 . S
C406 H438 0.929 . S
C407 C408 1.358 . S
C407 C409 1.356 . S
C407 H439 0.930 . S
C408 N405 1.279 . S
C408 C407 1.358 . S
C408 H411 0.930 . S
C409 C406 1.348 . S
C409 C407 1.356 . S
H410 C404 0.930 . S
H411 C408 0.930 . S
O412 Li352 1.956 . S
O412 Li353 1.970 . S
O412 Li354 1.961 . S
O412 C356 1.325 . S
O413 Li352 1.970 . S
O413 Li353 1.956 . S
O413 Li355 1.961 . S
O413 C362 1.325 . S
O414 Li352 1.961 . S
O414 Li354 1.956 . S
O414 Li355 1.970 . S
O414 C384 1.325 . S
O415 Li353 1.961 . S
O415 Li354 1.970 . S
O415 Li355 1.956 . S
O415 C390 1.325 . S
H416 C358 0.929 . S
H417 C359 0.930 . S
H418 C360 0.930 . S
H419 C361 0.930 . S
H420 C363 0.930 . S
H421 C365 0.929 . S
H422 C366 0.930 . S
H423 C367 0.930 . S
H424 C370 0.930 . S
H425 C373 0.929 . S
H426 C378 0.929 . S
H427 C379 0.930 . S
H428 C386 0.929 . S
H429 C387 0.930 . S
H430 C388 0.930 . S
H431 C389 0.930 . S
H432 C391 0.929 . S
H433 C392 0.930 . S
H434 C393 0.930 . S
H435 C394 0.930 . S
H436 C398 0.929 . S
H437 C400 0.930 . S
H438 C406 0.929 . S
H439 C407 0.930 . S
Li440 N457 1.990 . S
Li440 O500 1.956 . S
Li440 O501 1.970 . S
Li440 O502 1.961 . S
Li441 N465 1.990 . S
Li441 O500 1.970 . S
Li441 O501 1.956 . S
Li441 O503 1.961 . S
Li442 N487 1.990 . S
Li442 O500 1.961 . S
Li442 O502 1.956 . S
Li442 O503 1.970 . S
Li443 N493 1.990 . S
Li443 O501 1.961 . S
Li443 O502 1.970 . S
Li443 O503 1.956 . S
C444 C446 1.348 . S
C444 C447 1.356 . S
C444 O500 1.325 . S
N445 C448 1.314 . S
N445 C449 1.279 . S
C446 C444 1.348 . S
C446 C448 1.353 . S
C446 H504 0.929 . S
C447 C444 1.356 . S
C447 C449 1.358 . S
C447 H505 0.930 . S
C448 N445 1.314 . S
C448 C446 1.353 . S
C448 H506 0.930 . S
C449 N445 1.279 . S
C449 C447 1.358 . S
C449 H507 0.930 . S
C450 C453 1.348 . S
C450 C454 1.356 . S
C450 O501 1.325 . S
C451 N452 1.279 . S
C451 C454 1.358 . S
C451 H508 0.930 . S
N452 C451 1.279 . S
N452 C455 1.314 . S
C453 C450 1.348 . S
C453 C455 1.353 . S
C453 H509 0.929 . S
C454 C450 1.356 . S
C454 C451 1.358 . S
C454 H510 0.930 . S
C455 N452 1.314 . S
C455 C453 1.353 . S
C455 H511 0.930 . S
C456 N457 1.314 . S
C456 C461 1.353 . S
C456 H462 0.930 . S
N457 Li440 1.990 . S
N457 C456 1.314 . S
N457 C459 1.279 . S
C458 C459 1.358 . S
C458 C460 1.356 . S
C458 H512 0.930 . S
C459 N457 1.279 . S
C459 C458 1.358 . S
C459 H463 0.930 . S
C460 C458 1.356 . S
C460 C461 1.348 . S
C461 C456 1.353 . S
C461 C460 1.348 . S
C461 H513 0.929 . S
H462 C456 0.930 . S
H463 C459 0.930 . S
C464 N465 1.314 . S
C464 C466 1.353 . S
C464 H470 0.930 . S
N465 Li441 1.990 . S
N465 C464 1.314 . S
N465 C468 1.279 . S
C466 C464 1.353 . S
C466 C469 1.348 . S
C466 H514 0.929 . S
C467 C468 1.358 . S
C467 C469 1.356 . S
C467 H515 0.930 . S
C468 N465 1.279 . S
C468 C467 1.358 . S
C468 H471 0.930 . S
C469 C466 1.348 . S
C469 C467 1.356 . S
H470 C464 0.930 . S
H471 C468 0.930 . S
C472 C474 1.348 . S
C472 C475 1.356 . S
C472 O502 1.325 . S
N473 C476 1.314 . S
N473 C477 1.279 . S
C474 C472 1.348 . S
C474 C476 1.353 . S
C474 H516 0.929 . S
C475 C472 1.356 . S
C475 C477 1.358 . S
C475 H517 0.930 . S
C476 N473 1.314 . S
C476 C474 1.353 . S
C476 H518 0.930 . S
C477 N473 1.279 . S
C477 C475 1.358 . S
C477 H519 0.930 . S
C478 C479 1.348 . S
C478 C480 1.356 . S
C478 O503 1.325 . S
C479 C478 1.348 . S
C479 C481 1.353 . S
C479 H520 0.929 . S
C480 C478 1.356 . S
C480 C482 1.358 . S
C480 H521 0.930 . S
C481 C479 1.353 . S
C481 N483 1.314 . S
C481 H522 0.930 . S
C482 C480 1.358 . S
C482 N483 1.279 . S
C482 H523 0.930 . S
N483 C481 1.314 . S
N483 C482 1.279 . S
C484 C486 1.353 . S
C484 N487 1.314 . S
C484 H490 0.930 . S
C485 N487 1.279 . S
C485 C488 1.358 . S
C485 H491 0.930 . S
C486 C484 1.353 . S
C486 C489 1.348 . S
C486 H524 0.929 . S
N487 Li442 1.990 . S
N487 C484 1.314 . S
N487 C485 1.279 . S
C488 C485 1.358 . S
C488 C489 1.356 . S
C488 H525 0.930 . S
C489 C486 1.348 . S
C489 C488 1.356 . S
H490 C484 0.930 . S
H491 C485 0.930 . S
C492 N493 1.314 . S
C492 C494 1.353 . S
C492 H498 0.930 . S
N493 Li443 1.990 . S
N493 C492 1.314 . S
N493 C496 1.279 . S
C494 C492 1.353 . S
C494 C497 1.348 . S
C494 H526 0.929 . S
C495 C496 1.358 . S
C495 C497 1.356 . S
C495 H527 0.930 . S
C496 N493 1.279 . S
C496 C495 1.358 . S
C496 H499 0.930 . S
C497 C494 1.348 . S
C497 C495 1.356 . S
H498 C492 0.930 . S
H499 C496 0.930 . S
O500 Li440 1.956 . S
O500 Li441 1.970 . S
O500 Li442 1.961 . S
O500 C444 1.325 . S
O501 Li440 1.970 . S
O501 Li441 1.956 . S
O501 Li443 1.961 . S
O501 C450 1.325 . S
O502 Li440 1.961 . S
O502 Li442 1.956 . S
O502 Li443 1.970 . S
O502 C472 1.325 . S
O503 Li441 1.961 . S
O503 Li442 1.970 . S
O503 Li443 1.956 . S
O503 C478 1.325 . S
H504 C446 0.929 . S
H505 C447 0.930 . S
H506 C448 0.930 . S
H507 C449 0.930 . S
H508 C451 0.930 . S
H509 C453 0.929 . S
H510 C454 0.930 . S
H511 C455 0.930 . S
H512 C458 0.930 . S
H513 C461 0.929 . S
H514 C466 0.929 . S
H515 C467 0.930 . S
H516 C474 0.929 . S
H517 C475 0.930 . S
H518 C476 0.930 . S
H519 C477 0.930 . S
H520 C479 0.929 . S
H521 C480 0.930 . S
H522 C481 0.930 . S
H523 C482 0.930 . S
H524 C486 0.929 . S
H525 C488 0.930 . S
H526 C494 0.929 . S
H527 C495 0.930 . S
Li528 N545 1.990 . S
Li528 O588 1.956 . S
Li528 O589 1.970 . S
Li528 O590 1.961 . S
Li529 N553 1.990 . S
Li529 O588 1.970 . S
Li529 O589 1.956 . S
Li529 O591 1.961 . S
Li530 N575 1.990 . S
Li530 O588 1.961 . S
Li530 O590 1.956 . S
Li530 O591 1.970 . S
Li531 N581 1.990 . S
Li531 O589 1.961 . S
Li531 O590 1.970 . S
Li531 O591 1.956 . S
C532 C534 1.348 . S
C532 C535 1.356 . S
C532 O588 1.325 . S
N533 C536 1.314 . S
N533 C537 1.279 . S
C534 C532 1.348 . S
C534 C536 1.353 . S
C534 H592 0.929 . S
C535 C532 1.356 . S
C535 C537 1.358 . S
C535 H593 0.930 . S
C536 N533 1.314 . S
C536 C534 1.353 . S
C536 H594 0.930 . S
C537 N533 1.279 . S
C537 C535 1.358 . S
C537 H595 0.930 . S
C538 C541 1.348 . S
C538 C542 1.356 . S
C538 O589 1.325 . S
C539 N540 1.279 . S
C539 C542 1.358 . S
C539 H596 0.930 . S
N540 C539 1.279 . S
N540 C543 1.314 . S
C541 C538 1.348 . S
C541 C543 1.353 . S
C541 H597 0.929 . S
C542 C538 1.356 . S
C542 C539 1.358 . S
C542 H598 0.930 . S
C543 N540 1.314 . S
C543 C541 1.353 . S
C543 H599 0.930 . S
C544 N545 1.314 . S
C544 C549 1.353 . S
C544 H550 0.930 . S
N545 Li528 1.990 . S
N545 C544 1.314 . S
N545 C547 1.279 . S
C546 C547 1.358 . S
C546 C548 1.356 . S
C546 H600 0.930 . S
C547 N545 1.279 . S
C547 C546 1.358 . S
C547 H551 0.930 . S
C548 C546 1.356 . S
C548 C549 1.348 . S
C549 C544 1.353 . S
C549 C548 1.348 . S
C549 H601 0.929 . S
H550 C544 0.930 . S
H551 C547 0.930 . S
C552 N553 1.314 . S
C552 C554 1.353 . S
C552 H558 0.930 . S
N553 Li529 1.990 . S
N553 C552 1.314 . S
N553 C556 1.279 . S
C554 C552 1.353 . S
C554 C557 1.348 . S
C554 H602 0.929 . S
C555 C556 1.358 . S
C555 C557 1.356 . S
C555 H603 0.930 . S
C556 N553 1.279 . S
C556 C555 1.358 . S
C556 H559 0.930 . S
C557 C554 1.348 . S
C557 C555 1.356 . S
H558 C552 0.930 . S
H559 C556 0.930 . S
C560 C562 1.348 . S
C560 C563 1.356 . S
C560 O590 1.325 . S
N561 C564 1.314 . S
N561 C565 1.279 . S
C562 C560 1.348 . S
C562 C564 1.353 . S
C562 H604 0.929 . S
C563 C560 1.356 . S
C563 C565 1.358 . S
C563 H605 0.930 . S
C564 N561 1.314 . S
C564 C562 1.353 . S
C564 H606 0.930 . S
C565 N561 1.279 . S
C565 C563 1.358 . S
C565 H607 0.930 . S
C566 C567 1.348 . S
C566 C568 1.356 . S
C566 O591 1.325 . S
C567 C566 1.348 . S
C567 C569 1.353 . S
C567 H608 0.929 . S
C568 C566 1.356 . S
C568 C570 1.358 . S
C568 H609 0.930 . S
C569 C567 1.353 . S
C569 N571 1.314 . S
C569 H610 0.930 . S
C570 C568 1.358 . S
C570 N571 1.279 . S
C570 H611 0.930 . S
N571 C569 1.314 . S
N571 C570 1.279 . S
C572 C574 1.353 . S
C572 N575 1.314 . S
C572 H578 0.930 . S
C573 N575 1.279 . S
C573 C576 1.358 . S
C573 H579 0.930 . S
C574 C572 1.353 . S
C574 C577 1.348 . S
C574 H612 0.929 . S
N575 Li530 1.990 . S
N575 C572 1.314 . S
N575 C573 1.279 . S
C576 C573 1.358 . S
C576 C577 1.356 . S
C576 H613 0.930 . S
C577 C574 1.348 . S
C577 C576 1.356 . S
H578 C572 0.930 . S
H579 C573 0.930 . S
C580 N581 1.314 . S
C580 C582 1.353 . S
C580 H586 0.930 . S
N581 Li531 1.990 . S
N581 C580 1.314 . S
N581 C584 1.279 . S
C582 C580 1.353 . S
C582 C585 1.348 . S
C582 H614 0.929 . S
C583 C584 1.358 . S
C583 C585 1.356 . S
C583 H615 0.930 . S
C584 N581 1.279 . S
C584 C583 1.358 . S
C584 H587 0.930 . S
C585 C582 1.348 . S
C585 C583 1.356 . S
H586 C580 0.930 . S
H587 C584 0.930 . S
O588 Li528 1.956 . S
O588 Li529 1.970 . S
O588 Li530 1.961 . S
O588 C532 1.325 . S
O589 Li528 1.970 . S
O589 Li529 1.956 . S
O589 Li531 1.961 . S
O589 C538 1.325 . S
O590 Li528 1.961 . S
O590 Li530 1.956 . S
O590 Li531 1.970 . S
O590 C560 1.325 . S
O591 Li529 1.961 . S
O591 Li530 1.970 . S
O591 Li531 1.956 . S
O591 C566 1.325 . S
H592 C534 0.929 . S
H593 C535 0.930 . S
H594 C536 0.930 . S
H595 C537 0.930 . S
H596 C539 0.930 . S
H597 C541 0.929 . S
H598 C542 0.930 . S
H599 C543 0.930 . S
H600 C546 0.930 . S
H601 C549 0.929 . S
H602 C554 0.929 . S
H603 C555 0.930 . S
H604 C562 0.929 . S
H605 C563 0.930 . S
H606 C564 0.930 . S
H607 C565 0.930 . S
H608 C567 0.929 . S
H609 C568 0.930 . S
H610 C569 0.930 . S
H611 C570 0.930 . S
H612 C574 0.929 . S
H613 C576 0.930 . S
H614 C582 0.929 . S
H615 C583 0.930 . S
Li616 N633 1.990 . S
Li616 O676 1.956 . S
Li616 O677 1.970 . S
Li616 O678 1.961 . S
Li617 N641 1.990 . S
Li617 O676 1.970 . S
Li617 O677 1.956 . S
Li617 O679 1.961 . S
Li618 N663 1.990 . S
Li618 O676 1.961 . S
Li618 O678 1.956 . S
Li618 O679 1.970 . S
Li619 N669 1.990 . S
Li619 O677 1.961 . S
Li619 O678 1.970 . S
Li619 O679 1.956 . S
C620 C622 1.348 . S
C620 C623 1.356 . S
C620 O676 1.325 . S
N621 C624 1.314 . S
N621 C625 1.279 . S
C622 C620 1.348 . S
C622 C624 1.353 . S
C622 H680 0.929 . S
C623 C620 1.356 . S
C623 C625 1.358 . S
C623 H681 0.930 . S
C624 N621 1.314 . S
C624 C622 1.353 . S
C624 H682 0.930 . S
C625 N621 1.279 . S
C625 C623 1.358 . S
C625 H683 0.930 . S
C626 C629 1.348 . S
C626 C630 1.356 . S
C626 O677 1.325 . S
C627 N628 1.279 . S
C627 C630 1.358 . S
C627 H684 0.930 . S
N628 C627 1.279 . S
N628 C631 1.314 . S
C629 C626 1.348 . S
C629 C631 1.353 . S
C629 H685 0.929 . S
C630 C626 1.356 . S
C630 C627 1.358 . S
C630 H686 0.930 . S
C631 N628 1.314 . S
C631 C629 1.353 . S
C631 H687 0.930 . S
C632 N633 1.314 . S
C632 C637 1.353 . S
C632 H638 0.930 . S
N633 Li616 1.990 . S
N633 C632 1.314 . S
N633 C635 1.279 . S
C634 C635 1.358 . S
C634 C636 1.356 . S
C634 H688 0.930 . S
C635 N633 1.279 . S
C635 C634 1.358 . S
C635 H639 0.930 . S
C636 C634 1.356 . S
C636 C637 1.348 . S
C637 C632 1.353 . S
C637 C636 1.348 . S
C637 H689 0.929 . S
H638 C632 0.930 . S
H639 C635 0.930 . S
C640 N641 1.314 . S
C640 C642 1.353 . S
C640 H646 0.930 . S
N641 Li617 1.990 . S
N641 C640 1.314 . S
N641 C644 1.279 . S
C642 C640 1.353 . S
C642 C645 1.348 . S
C642 H690 0.929 . S
C643 C644 1.358 . S
C643 C645 1.356 . S
C643 H691 0.930 . S
C644 N641 1.279 . S
C644 C643 1.358 . S
C644 H647 0.930 . S
C645 C642 1.348 . S
C645 C643 1.356 . S
H646 C640 0.930 . S
H647 C644 0.930 . S
C648 C650 1.348 . S
C648 C651 1.356 . S
C648 O678 1.325 . S
N649 C652 1.314 . S
N649 C653 1.279 . S
C650 C648 1.348 . S
C650 C652 1.353 . S
C650 H692 0.929 . S
C651 C648 1.356 . S
C651 C653 1.358 . S
C651 H693 0.930 . S
C652 N649 1.314 . S
C652 C650 1.353 . S
C652 H694 0.930 . S
C653 N649 1.279 . S
C653 C651 1.358 . S
C653 H695 0.930 . S
C654 C655 1.348 . S
C654 C656 1.356 . S
C654 O679 1.325 . S
C655 C654 1.348 . S
C655 C657 1.353 . S
C655 H696 0.929 . S
C656 C654 1.356 . S
C656 C658 1.358 . S
C656 H697 0.930 . S
C657 C655 1.353 . S
C657 N659 1.314 . S
C657 H698 0.930 . S
C658 C656 1.358 . S
C658 N659 1.279 . S
C658 H699 0.930 . S
N659 C657 1.314 . S
N659 C658 1.279 . S
C660 C662 1.353 . S
C660 N663 1.314 . S
C660 H666 0.930 . S
C661 N663 1.279 . S
C661 C664 1.358 . S
C661 H667 0.930 . S
C662 C660 1.353 . S
C662 C665 1.348 . S
C662 H700 0.929 . S
N663 Li618 1.990 . S
N663 C660 1.314 . S
N663 C661 1.279 . S
C664 C661 1.358 . S
C664 C665 1.356 . S
C664 H701 0.930 . S
C665 C662 1.348 . S
C665 C664 1.356 . S
H666 C660 0.930 . S
H667 C661 0.930 . S
C668 N669 1.314 . S
C668 C670 1.353 . S
C668 H674 0.930 . S
N669 Li619 1.990 . S
N669 C668 1.314 . S
N669 C672 1.279 . S
C670 C668 1.353 . S
C670 C673 1.348 . S
C670 H702 0.929 . S
C671 C672 1.358 . S
C671 C673 1.356 . S
C671 H703 0.930 . S
C672 N669 1.279 . S
C672 C671 1.358 . S
C672 H675 0.930 . S
C673 C670 1.348 . S
C673 C671 1.356 . S
H674 C668 0.930 . S
H675 C672 0.930 . S
O676 Li616 1.956 . S
O676 Li617 1.970 . S
O676 Li618 1.961 . S
O676 C620 1.325 . S
O677 Li616 1.970 . S
O677 Li617 1.956 . S
O677 Li619 1.961 . S
O677 C626 1.325 . S
O678 Li616 1.961 . S
O678 Li618 1.956 . S
O678 Li619 1.970 . S
O678 C648 1.325 . S
O679 Li617 1.961 . S
O679 Li618 1.970 . S
O679 Li619 1.956 . S
O679 C654 1.325 . S
H680 C622 0.929 . S
H681 C623 0.930 . S
H682 C624 0.930 . S
H683 C625 0.930 . S
H684 C627 0.930 . S
H685 C629 0.929 . S
H686 C630 0.930 . S
H687 C631 0.930 . S
H688 C634 0.930 . S
H689 C637 0.929 . S
H690 C642 0.929 . S
H691 C643 0.930 . S
H692 C650 0.929 . S
H693 C651 0.930 . S
H694 C652 0.930 . S
H695 C653 0.930 . S
H696 C655 0.929 . S
H697 C656 0.930 . S
H698 C657 0.930 . S
H699 C658 0.930 . S
H700 C662 0.929 . S
H701 C664 0.930 . S
H702 C670 0.929 . S
H703 C671 0.930 . S
Li704 N721 1.990 . S
Li704 O764 1.956 . S
Li704 O765 1.970 . S
Li704 O766 1.961 . S
Li705 N729 1.990 . S
Li705 O764 1.970 . S
Li705 O765 1.956 . S
Li705 O767 1.961 . S
Li706 N751 1.990 . S
Li706 O764 1.961 . S
Li706 O766 1.956 . S
Li706 O767 1.970 . S
Li707 N757 1.990 . S
Li707 O765 1.961 . S
Li707 O766 1.970 . S
Li707 O767 1.956 . S
C708 C710 1.348 . S
C708 C711 1.356 . S
C708 O764 1.325 . S
N709 C712 1.314 . S
N709 C713 1.279 . S
C710 C708 1.348 . S
C710 C712 1.353 . S
C710 H768 0.929 . S
C711 C708 1.356 . S
C711 C713 1.358 . S
C711 H769 0.930 . S
C712 N709 1.314 . S
C712 C710 1.353 . S
C712 H770 0.930 . S
C713 N709 1.279 . S
C713 C711 1.358 . S
C713 H771 0.930 . S
C714 C717 1.348 . S
C714 C718 1.356 . S
C714 O765 1.325 . S
C715 N716 1.279 . S
C715 C718 1.358 . S
C715 H772 0.930 . S
N716 C715 1.279 . S
N716 C719 1.314 . S
C717 C714 1.348 . S
C717 C719 1.353 . S
C717 H773 0.929 . S
C718 C714 1.356 . S
C718 C715 1.358 . S
C718 H774 0.930 . S
C719 N716 1.314 . S
C719 C717 1.353 . S
C719 H775 0.930 . S
C720 N721 1.314 . S
C720 C725 1.353 . S
C720 H726 0.930 . S
N721 Li704 1.990 . S
N721 C720 1.314 . S
N721 C723 1.279 . S
C722 C723 1.358 . S
C722 C724 1.356 . S
C722 H776 0.930 . S
C723 N721 1.279 . S
C723 C722 1.358 . S
C723 H727 0.930 . S
C724 C722 1.356 . S
C724 C725 1.348 . S
C725 C720 1.353 . S
C725 C724 1.348 . S
C725 H777 0.929 . S
H726 C720 0.930 . S
H727 C723 0.930 . S
C728 N729 1.314 . S
C728 C730 1.353 . S
C728 H734 0.930 . S
N729 Li705 1.990 . S
N729 C728 1.314 . S
N729 C732 1.279 . S
C730 C728 1.353 . S
C730 C733 1.348 . S
C730 H778 0.929 . S
C731 C732 1.358 . S
C731 C733 1.356 . S
C731 H779 0.930 . S
C732 N729 1.279 . S
C732 C731 1.358 . S
C732 H735 0.930 . S
C733 C730 1.348 . S
C733 C731 1.356 . S
H734 C728 0.930 . S
H735 C732 0.930 . S
C736 C738 1.348 . S
C736 C739 1.356 . S
C736 O766 1.325 . S
N737 C740 1.314 . S
N737 C741 1.279 . S
C738 C736 1.348 . S
C738 C740 1.353 . S
C738 H780 0.929 . S
C739 C736 1.356 . S
C739 C741 1.358 . S
C739 H781 0.930 . S
C740 N737 1.314 . S
C740 C738 1.353 . S
C740 H782 0.930 . S
C741 N737 1.279 . S
C741 C739 1.358 . S
C741 H783 0.930 . S
C742 C743 1.348 . S
C742 C744 1.356 . S
C742 O767 1.325 . S
C743 C742 1.348 . S
C743 C745 1.353 . S
C743 H784 0.929 . S
C744 C742 1.356 . S
C744 C746 1.358 . S
C744 H785 0.930 . S
C745 C743 1.353 . S
C745 N747 1.314 . S
C745 H786 0.930 . S
C746 C744 1.358 . S
C746 N747 1.279 . S
C746 H787 0.930 . S
N747 C745 1.314 . S
N747 C746 1.279 . S
C748 C750 1.353 . S
C748 N751 1.314 . S
C748 H754 0.930 . S
C749 N751 1.279 . S
C749 C752 1.358 . S
C749 H755 0.930 . S
C750 C748 1.353 . S
C750 C753 1.348 . S
C750 H788 0.929 . S
N751 Li706 1.990 . S
N751 C748 1.314 . S
N751 C749 1.279 . S
C752 C749 1.358 . S
C752 C753 1.356 . S
C752 H789 0.930 . S
C753 C750 1.348 . S
C753 C752 1.356 . S
H754 C748 0.930 . S
H755 C749 0.930 . S
C756 N757 1.314 . S
C756 C758 1.353 . S
C756 H762 0.930 . S
N757 Li707 1.990 . S
N757 C756 1.314 . S
N757 C760 1.279 . S
C758 C756 1.353 . S
C758 C761 1.348 . S
C758 H790 0.929 . S
C759 C760 1.358 . S
C759 C761 1.356 . S
C759 H791 0.930 . S
C760 N757 1.279 . S
C760 C759 1.358 . S
C760 H763 0.930 . S
C761 C758 1.348 . S
C761 C759 1.356 . S
H762 C756 0.930 . S
H763 C760 0.930 . S
O764 Li704 1.956 . S
O764 Li705 1.970 . S
O764 Li706 1.961 . S
O764 C708 1.325 . S
O765 Li704 1.970 . S
O765 Li705 1.956 . S
O765 Li707 1.961 . S
O765 C714 1.325 . S
O766 Li704 1.961 . S
O766 Li706 1.956 . S
O766 Li707 1.970 . S
O766 C736 1.325 . S
O767 Li705 1.961 . S
O767 Li706 1.970 . S
O767 Li707 1.956 . S
O767 C742 1.325 . S
H768 C710 0.929 . S
H769 C711 0.930 . S
H770 C712 0.930 . S
H771 C713 0.930 . S
H772 C715 0.930 . S
H773 C717 0.929 . S
H774 C718 0.930 . S
H775 C719 0.930 . S
H776 C722 0.930 . S
H777 C725 0.929 . S
H778 C730 0.929 . S
H779 C731 0.930 . S
H780 C738 0.929 . S
H781 C739 0.930 . S
H782 C740 0.930 . S
H783 C741 0.930 . S
H784 C743 0.929 . S
H785 C744 0.930 . S
H786 C745 0.930 . S
H787 C746 0.930 . S
H788 C750 0.929 . S
H789 C752 0.930 . S
H790 C758 0.929 . S
H791 C759 0.930 . S
Li792 N809 1.990 . S
Li792 O852 1.956 . S
Li792 O853 1.970 . S
Li792 O854 1.961 . S
Li793 N817 1.990 . S
Li793 O852 1.970 . S
Li793 O853 1.956 . S
Li793 O855 1.961 . S
Li794 N839 1.990 . S
Li794 O852 1.961 . S
Li794 O854 1.956 . S
Li794 O855 1.970 . S
Li795 N845 1.990 . S
Li795 O853 1.961 . S
Li795 O854 1.970 . S
Li795 O855 1.956 . S
C796 C798 1.348 . S
C796 C799 1.356 . S
C796 O852 1.325 . S
N797 C800 1.314 . S
N797 C801 1.279 . S
C798 C796 1.348 . S
C798 C800 1.353 . S
C798 H856 0.929 . S
C799 C796 1.356 . S
C799 C801 1.358 . S
C799 H857 0.930 . S
C800 N797 1.314 . S
C800 C798 1.353 . S
C800 H858 0.930 . S
C801 N797 1.279 . S
C801 C799 1.358 . S
C801 H859 0.930 . S
C802 C805 1.348 . S
C802 C806 1.356 . S
C802 O853 1.325 . S
C803 N804 1.279 . S
C803 C806 1.358 . S
C803 H860 0.930 . S
N804 C803 1.279 . S
N804 C807 1.314 . S
C805 C802 1.348 . S
C805 C807 1.353 . S
C805 H861 0.929 . S
C806 C802 1.356 . S
C806 C803 1.358 . S
C806 H862 0.930 . S
C807 N804 1.314 . S
C807 C805 1.353 . S
C807 H863 0.930 . S
C808 N809 1.314 . S
C808 C813 1.353 . S
C808 H814 0.930 . S
N809 Li792 1.990 . S
N809 C808 1.314 . S
N809 C811 1.279 . S
C810 C811 1.358 . S
C810 C812 1.356 . S
C810 H864 0.930 . S
C811 N809 1.279 . S
C811 C810 1.358 . S
C811 H815 0.930 . S
C812 C810 1.356 . S
C812 C813 1.348 . S
C813 C808 1.353 . S
C813 C812 1.348 . S
C813 H865 0.929 . S
H814 C808 0.930 . S
H815 C811 0.930 . S
C816 N817 1.314 . S
C816 C818 1.353 . S
C816 H822 0.930 . S
N817 Li793 1.990 . S
N817 C816 1.314 . S
N817 C820 1.279 . S
C818 C816 1.353 . S
C818 C821 1.348 . S
C818 H866 0.929 . S
C819 C820 1.358 . S
C819 C821 1.356 . S
C819 H867 0.930 . S
C820 N817 1.279 . S
C820 C819 1.358 . S
C820 H823 0.930 . S
C821 C818 1.348 . S
C821 C819 1.356 . S
H822 C816 0.930 . S
H823 C820 0.930 . S
C824 C826 1.348 . S
C824 C827 1.356 . S
C824 O854 1.325 . S
N825 C828 1.314 . S
N825 C829 1.279 . S
C826 C824 1.348 . S
C826 C828 1.353 . S
C826 H868 0.929 . S
C827 C824 1.356 . S
C827 C829 1.358 . S
C827 H869 0.930 . S
C828 N825 1.314 . S
C828 C826 1.353 . S
C828 H870 0.930 . S
C829 N825 1.279 . S
C829 C827 1.358 . S
C829 H871 0.930 . S
C830 C831 1.348 . S
C830 C832 1.356 . S
C830 O855 1.325 . S
C831 C830 1.348 . S
C831 C833 1.353 . S
C831 H872 0.929 . S
C832 C830 1.356 . S
C832 C834 1.358 . S
C832 H873 0.930 . S
C833 C831 1.353 . S
C833 N835 1.314 . S
C833 H874 0.930 . S
C834 C832 1.358 . S
C834 N835 1.279 . S
C834 H875 0.930 . S
N835 C833 1.314 . S
N835 C834 1.279 . S
C836 C838 1.353 . S
C836 N839 1.314 . S
C836 H842 0.930 . S
C837 N839 1.279 . S
C837 C840 1.358 . S
C837 H843 0.930 . S
C838 C836 1.353 . S
C838 C841 1.348 . S
C838 H876 0.929 . S
N839 Li794 1.990 . S
N839 C836 1.314 . S
N839 C837 1.279 . S
C840 C837 1.358 . S
C840 C841 1.356 . S
C840 H877 0.930 . S
C841 C838 1.348 . S
C841 C840 1.356 . S
H842 C836 0.930 . S
H843 C837 0.930 . S
C844 N845 1.314 . S
C844 C846 1.353 . S
C844 H850 0.930 . S
N845 Li795 1.990 . S
N845 C844 1.314 . S
N845 C848 1.279 . S
C846 C844 1.353 . S
C846 C849 1.348 . S
C846 H878 0.929 . S
C847 C848 1.358 . S
C847 C849 1.356 . S
C847 H879 0.930 . S
C848 N845 1.279 . S
C848 C847 1.358 . S
C848 H851 0.930 . S
C849 C846 1.348 . S
C849 C847 1.356 . S
H850 C844 0.930 . S
H851 C848 0.930 . S
O852 Li792 1.956 . S
O852 Li793 1.970 . S
O852 Li794 1.961 . S
O852 C796 1.325 . S
O853 Li792 1.970 . S
O853 Li793 1.956 . S
O853 Li795 1.961 . S
O853 C802 1.325 . S
O854 Li792 1.961 . S
O854 Li794 1.956 . S
O854 Li795 1.970 . S
O854 C824 1.325 . S
O855 Li793 1.961 . S
O855 Li794 1.970 . S
O855 Li795 1.956 . S
O855 C830 1.325 . S
H856 C798 0.929 . S
H857 C799 0.930 . S
H858 C800 0.930 . S
H859 C801 0.930 . S
H860 C803 0.930 . S
H861 C805 0.929 . S
H862 C806 0.930 . S
H863 C807 0.930 . S
H864 C810 0.930 . S
H865 C813 0.929 . S
H866 C818 0.929 . S
H867 C819 0.930 . S
H868 C826 0.929 . S
H869 C827 0.930 . S
H870 C828 0.930 . S
H871 C829 0.930 . S
H872 C831 0.929 . S
H873 C832 0.930 . S
H874 C833 0.930 . S
H875 C834 0.930 . S
H876 C838 0.929 . S
H877 C840 0.930 . S
H878 C846 0.929 . S
H879 C847 0.930 . S
Li880 N897 1.990 . S
Li880 O940 1.956 . S
Li880 O941 1.970 . S
Li880 O942 1.961 . S
Li881 N905 1.990 . S
Li881 O940 1.970 . S
Li881 O941 1.956 . S
Li881 O943 1.961 . S
Li882 N927 1.990 . S
Li882 O940 1.961 . S
Li882 O942 1.956 . S
Li882 O943 1.970 . S
Li883 N933 1.990 . S
Li883 O941 1.961 . S
Li883 O942 1.970 . S
Li883 O943 1.956 . S
C884 C886 1.348 . S
C884 C887 1.356 . S
C884 O940 1.325 . S
N885 C888 1.314 . S
N885 C889 1.279 . S
C886 C884 1.348 . S
C886 C888 1.353 . S
C886 H944 0.929 . S
C887 C884 1.356 . S
C887 C889 1.358 . S
C887 H945 0.930 . S
C888 N885 1.314 . S
C888 C886 1.353 . S
C888 H946 0.930 . S
C889 N885 1.279 . S
C889 C887 1.358 . S
C889 H947 0.930 . S
C890 C893 1.348 . S
C890 C894 1.356 . S
C890 O941 1.325 . S
C891 N892 1.279 . S
C891 C894 1.358 . S
C891 H948 0.930 . S
N892 C891 1.279 . S
N892 C895 1.314 . S
C893 C890 1.348 . S
C893 C895 1.353 . S
C893 H949 0.929 . S
C894 C890 1.356 . S
C894 C891 1.358 . S
C894 H950 0.930 . S
C895 N892 1.314 . S
C895 C893 1.353 . S
C895 H951 0.930 . S
C896 N897 1.314 . S
C896 C901 1.353 . S
C896 H902 0.930 . S
N897 Li880 1.990 . S
N897 C896 1.314 . S
N897 C899 1.279 . S
C898 C899 1.358 . S
C898 C900 1.356 . S
C898 H952 0.930 . S
C899 N897 1.279 . S
C899 C898 1.358 . S
C899 H903 0.930 . S
C900 C898 1.356 . S
C900 C901 1.348 . S
C901 C896 1.353 . S
C901 C900 1.348 . S
C901 H953 0.929 . S
H902 C896 0.930 . S
H903 C899 0.930 . S
C904 N905 1.314 . S
C904 C906 1.353 . S
C904 H910 0.930 . S
N905 Li881 1.990 . S
N905 C904 1.314 . S
N905 C908 1.279 . S
C906 C904 1.353 . S
C906 C909 1.348 . S
C906 H954 0.929 . S
C907 C908 1.358 . S
C907 C909 1.356 . S
C907 H955 0.930 . S
C908 N905 1.279 . S
C908 C907 1.358 . S
C908 H911 0.930 . S
C909 C906 1.348 . S
C909 C907 1.356 . S
H910 C904 0.930 . S
H911 C908 0.930 . S
C912 C914 1.348 . S
C912 C915 1.356 . S
C912 O942 1.325 . S
N913 C916 1.314 . S
N913 C917 1.279 . S
C914 C912 1.348 . S
C914 C916 1.353 . S
C914 H956 0.929 . S
C915 C912 1.356 . S
C915 C917 1.358 . S
C915 H957 0.930 . S
C916 N913 1.314 . S
C916 C914 1.353 . S
C916 H958 0.930 . S
C917 N913 1.279 . S
C917 C915 1.358 . S
C917 H959 0.930 . S
C918 C919 1.348 . S
C918 C920 1.356 . S
C918 O943 1.325 . S
C919 C918 1.348 . S
C919 C921 1.353 . S
C919 H960 0.929 . S
C920 C918 1.356 . S
C920 C922 1.358 . S
C920 H961 0.930 . S
C921 C919 1.353 . S
C921 N923 1.314 . S
C921 H962 0.930 . S
C922 C920 1.358 . S
C922 N923 1.279 . S
C922 H963 0.930 . S
N923 C921 1.314 . S
N923 C922 1.279 . S
C924 C926 1.353 . S
C924 N927 1.314 . S
C924 H930 0.930 . S
C925 N927 1.279 . S
C925 C928 1.358 . S
C925 H931 0.930 . S
C926 C924 1.353 . S
C926 C929 1.348 . S
C926 H964 0.929 . S
N927 Li882 1.990 . S
N927 C924 1.314 . S
N927 C925 1.279 . S
C928 C925 1.358 . S
C928 C929 1.356 . S
C928 H965 0.930 . S
C929 C926 1.348 . S
C929 C928 1.356 . S
H930 C924 0.930 . S
H931 C925 0.930 . S
C932 N933 1.314 . S
C932 C934 1.353 . S
C932 H938 0.930 . S
N933 Li883 1.990 . S
N933 C932 1.314 . S
N933 C936 1.279 . S
C934 C932 1.353 . S
C934 C937 1.348 . S
C934 H966 0.929 . S
C935 C936 1.358 . S
C935 C937 1.356 . S
C935 H967 0.930 . S
C936 N933 1.279 . S
C936 C935 1.358 . S
C936 H939 0.930 . S
C937 C934 1.348 . S
C937 C935 1.356 . S
H938 C932 0.930 . S
H939 C936 0.930 . S
O940 Li880 1.956 . S
O940 Li881 1.970 . S
O940 Li882 1.961 . S
O940 C884 1.325 . S
O941 Li880 1.970 . S
O941 Li881 1.956 . S
O941 Li883 1.961 . S
O941 C890 1.325 . S
O942 Li880 1.961 . S
O942 Li882 1.956 . S
O942 Li883 1.970 . S
O942 C912 1.325 . S
O943 Li881 1.961 . S
O943 Li882 1.970 . S
O943 Li883 1.956 . S
O943 C918 1.325 . S
H944 C886 0.929 . S
H945 C887 0.930 . S
H946 C888 0.930 . S
H947 C889 0.930 . S
H948 C891 0.930 . S
H949 C893 0.929 . S
H950 C894 0.930 . S
H951 C895 0.930 . S
H952 C898 0.930 . S
H953 C901 0.929 . S
H954 C906 0.929 . S
H955 C907 0.930 . S
H956 C914 0.929 . S
H957 C915 0.930 . S
H958 C916 0.930 . S
H959 C917 0.930 . S
H960 C919 0.929 . S
H961 C920 0.930 . S
H962 C921 0.930 . S
H963 C922 0.930 . S
H964 C926 0.929 . S
H965 C928 0.930 . S
H966 C934 0.929 . S
H967 C935 0.930 . S
Li968 N985 1.990 . S
Li968 O1028 1.956 . S
Li968 O1029 1.970 . S
Li968 O1030 1.961 . S
Li969 N993 1.990 . S
Li969 O1028 1.970 . S
Li969 O1029 1.956 . S
Li969 O1031 1.961 . S
Li970 N1015 1.990 . S
Li970 O1028 1.961 . S
Li970 O1030 1.956 . S
Li970 O1031 1.970 . S
Li971 N1021 1.990 . S
Li971 O1029 1.961 . S
Li971 O1030 1.970 . S
Li971 O1031 1.956 . S
C972 C974 1.348 . S
C972 C975 1.356 . S
C972 O1028 1.325 . S
N973 C976 1.314 . S
N973 C977 1.279 . S
C974 C972 1.348 . S
C974 C976 1.353 . S
C974 H1032 0.929 . S
C975 C972 1.356 . S
C975 C977 1.358 . S
C975 H1033 0.930 . S
C976 N973 1.314 . S
C976 C974 1.353 . S
C976 H1034 0.930 . S
C977 N973 1.279 . S
C977 C975 1.358 . S
C977 H1035 0.930 . S
C978 C981 1.348 . S
C978 C982 1.356 . S
C978 O1029 1.325 . S
C979 N980 1.279 . S
C979 C982 1.358 . S
C979 H1036 0.930 . S
N980 C979 1.279 . S
N980 C983 1.314 . S
C981 C978 1.348 . S
C981 C983 1.353 . S
C981 H1037 0.929 . S
C982 C978 1.356 . S
C982 C979 1.358 . S
C982 H1038 0.930 . S
C983 N980 1.314 . S
C983 C981 1.353 . S
C983 H1039 0.930 . S
C984 N985 1.314 . S
C984 C989 1.353 . S
C984 H990 0.930 . S
N985 Li968 1.990 . S
N985 C984 1.314 . S
N985 C987 1.279 . S
C986 C987 1.358 . S
C986 C988 1.356 . S
C986 H1040 0.930 . S
C987 N985 1.279 . S
C987 C986 1.358 . S
C987 H991 0.930 . S
C988 C986 1.356 . S
C988 C989 1.348 . S
C989 C984 1.353 . S
C989 C988 1.348 . S
C989 H1041 0.929 . S
H990 C984 0.930 . S
H991 C987 0.930 . S
C992 N993 1.314 . S
C992 C994 1.353 . S
C992 H998 0.930 . S
N993 Li969 1.990 . S
N993 C992 1.314 . S
N993 C996 1.279 . S
C994 C992 1.353 . S
C994 C997 1.348 . S
C994 H1042 0.929 . S
C995 C996 1.358 . S
C995 C997 1.356 . S
C995 H1043 0.930 . S
C996 N993 1.279 . S
C996 C995 1.358 . S
C996 H999 0.930 . S
C997 C994 1.348 . S
C997 C995 1.356 . S
H998 C992 0.930 . S
H999 C996 0.930 . S
C1000 C1002 1.348 . S
C1000 C1003 1.356 . S
C1000 O1030 1.325 . S
N1001 C1004 1.314 . S
N1001 C1005 1.279 . S
C1002 C1000 1.348 . S
C1002 C1004 1.353 . S
C1002 H1044 0.929 . S
C1003 C1000 1.356 . S
C1003 C1005 1.358 . S
C1003 H1045 0.930 . S
C1004 N1001 1.314 . S
C1004 C1002 1.353 . S
C1004 H1046 0.930 . S
C1005 N1001 1.279 . S
C1005 C1003 1.358 . S
C1005 H1047 0.930 . S
C1006 C1007 1.348 . S
C1006 C1008 1.356 . S
C1006 O1031 1.325 . S
C1007 C1006 1.348 . S
C1007 C1009 1.353 . S
C1007 H1048 0.929 . S
C1008 C1006 1.356 . S
C1008 C1010 1.358 . S
C1008 H1049 0.930 . S
C1009 C1007 1.353 . S
C1009 N1011 1.314 . S
C1009 H1050 0.930 . S
C1010 C1008 1.358 . S
C1010 N1011 1.279 . S
C1010 H1051 0.930 . S
N1011 C1009 1.314 . S
N1011 C1010 1.279 . S
C1012 C1014 1.353 . S
C1012 N1015 1.314 . S
C1012 H1018 0.930 . S
C1013 N1015 1.279 . S
C1013 C1016 1.358 . S
C1013 H1019 0.930 . S
C1014 C1012 1.353 . S
C1014 C1017 1.348 . S
C1014 H1052 0.929 . S
N1015 Li970 1.990 . S
N1015 C1012 1.314 . S
N1015 C1013 1.279 . S
C1016 C1013 1.358 . S
C1016 C1017 1.356 . S
C1016 H1053 0.930 . S
C1017 C1014 1.348 . S
C1017 C1016 1.356 . S
H1018 C1012 0.930 . S
H1019 C1013 0.930 . S
C1020 N1021 1.314 . S
C1020 C1022 1.353 . S
C1020 H1026 0.930 . S
N1021 Li971 1.990 . S
N1021 C1020 1.314 . S
N1021 C1024 1.279 . S
C1022 C1020 1.353 . S
C1022 C1025 1.348 . S
C1022 H1054 0.929 . S
C1023 C1024 1.358 . S
C1023 C1025 1.356 . S
C1023 H1055 0.930 . S
C1024 N1021 1.279 . S
C1024 C1023 1.358 . S
C1024 H1027 0.930 . S
C1025 C1022 1.348 . S
C1025 C1023 1.356 . S
H1026 C1020 0.930 . S
H1027 C1024 0.930 . S
O1028 Li968 1.956 . S
O1028 Li969 1.970 . S
O1028 Li970 1.961 . S
O1028 C972 1.325 . S
O1029 Li968 1.970 . S
O1029 Li969 1.956 . S
O1029 Li971 1.961 . S
O1029 C978 1.325 . S
O1030 Li968 1.961 . S
O1030 Li970 1.956 . S
O1030 Li971 1.970 . S
O1030 C1000 1.325 . S
O1031 Li969 1.961 . S
O1031 Li970 1.970 . S
O1031 Li971 1.956 . S
O1031 C1006 1.325 . S
H1032 C974 0.929 . S
H1033 C975 0.930 . S
H1034 C976 0.930 . S
H1035 C977 0.930 . S
H1036 C979 0.930 . S
H1037 C981 0.929 . S
H1038 C982 0.930 . S
H1039 C983 0.930 . S
H1040 C986 0.930 . S
H1041 C989 0.929 . S
H1042 C994 0.929 . S
H1043 C995 0.930 . S
H1044 C1002 0.929 . S
H1045 C1003 0.930 . S
H1046 C1004 0.930 . S
H1047 C1005 0.930 . S
H1048 C1007 0.929 . S
H1049 C1008 0.930 . S
H1050 C1009 0.930 . S
H1051 C1010 0.930 . S
H1052 C1014 0.929 . S
H1053 C1016 0.930 . S
H1054 C1022 0.929 . S
H1055 C1023 0.930 . S
Li1056 N1073 1.990 . S
Li1056 O1116 1.956 . S
Li1056 O1117 1.970 . S
Li1056 O1118 1.961 . S
Li1057 N1081 1.990 . S
Li1057 O1116 1.970 . S
Li1057 O1117 1.956 . S
Li1057 O1119 1.961 . S
Li1058 N1103 1.990 . S
Li1058 O1116 1.961 . S
Li1058 O1118 1.956 . S
Li1058 O1119 1.970 . S
Li1059 N1109 1.990 . S
Li1059 O1117 1.961 . S
Li1059 O1118 1.970 . S
Li1059 O1119 1.956 . S
C1060 C1062 1.348 . S
C1060 C1063 1.356 . S
C1060 O1116 1.325 . S
N1061 C1064 1.314 . S
N1061 C1065 1.279 . S
C1062 C1060 1.348 . S
C1062 C1064 1.353 . S
C1062 H1120 0.929 . S
C1063 C1060 1.356 . S
C1063 C1065 1.358 . S
C1063 H1121 0.930 . S
C1064 N1061 1.314 . S
C1064 C1062 1.353 . S
C1064 H1122 0.930 . S
C1065 N1061 1.279 . S
C1065 C1063 1.358 . S
C1065 H1123 0.930 . S
C1066 C1069 1.348 . S
C1066 C1070 1.356 . S
C1066 O1117 1.325 . S
C1067 N1068 1.279 . S
C1067 C1070 1.358 . S
C1067 H1124 0.930 . S
N1068 C1067 1.279 . S
N1068 C1071 1.314 . S
C1069 C1066 1.348 . S
C1069 C1071 1.353 . S
C1069 H1125 0.929 . S
C1070 C1066 1.356 . S
C1070 C1067 1.358 . S
C1070 H1126 0.930 . S
C1071 N1068 1.314 . S
C1071 C1069 1.353 . S
C1071 H1127 0.930 . S
C1072 N1073 1.314 . S
C1072 C1077 1.353 . S
C1072 H1078 0.930 . S
N1073 Li1056 1.990 . S
N1073 C1072 1.314 . S
N1073 C1075 1.279 . S
C1074 C1075 1.358 . S
C1074 C1076 1.356 . S
C1074 H1128 0.930 . S
C1075 N1073 1.279 . S
C1075 C1074 1.358 . S
C1075 H1079 0.930 . S
C1076 C1074 1.356 . S
C1076 C1077 1.348 . S
C1077 C1072 1.353 . S
C1077 C1076 1.348 . S
C1077 H1129 0.929 . S
H1078 C1072 0.930 . S
H1079 C1075 0.930 . S
C1080 N1081 1.314 . S
C1080 C1082 1.353 . S
C1080 H1086 0.930 . S
N1081 Li1057 1.990 . S
N1081 C1080 1.314 . S
N1081 C1084 1.279 . S
C1082 C1080 1.353 . S
C1082 C1085 1.348 . S
C1082 H1130 0.929 . S
C1083 C1084 1.358 . S
C1083 C1085 1.356 . S
C1083 H1131 0.930 . S
C1084 N1081 1.279 . S
C1084 C1083 1.358 . S
C1084 H1087 0.930 . S
C1085 C1082 1.348 . S
C1085 C1083 1.356 . S
H1086 C1080 0.930 . S
H1087 C1084 0.930 . S
C1088 C1090 1.348 . S
C1088 C1091 1.356 . S
C1088 O1118 1.325 . S
N1089 C1092 1.314 . S
N1089 C1093 1.279 . S
C1090 C1088 1.348 . S
C1090 C1092 1.353 . S
C1090 H1132 0.929 . S
C1091 C1088 1.356 . S
C1091 C1093 1.358 . S
C1091 H1133 0.930 . S
C1092 N1089 1.314 . S
C1092 C1090 1.353 . S
C1092 H1134 0.930 . S
C1093 N1089 1.279 . S
C1093 C1091 1.358 . S
C1093 H1135 0.930 . S
C1094 C1095 1.348 . S
C1094 C1096 1.356 . S
C1094 O1119 1.325 . S
C1095 C1094 1.348 . S
C1095 C1097 1.353 . S
C1095 H1136 0.929 . S
C1096 C1094 1.356 . S
C1096 C1098 1.358 . S
C1096 H1137 0.930 . S
C1097 C1095 1.353 . S
C1097 N1099 1.314 . S
C1097 H1138 0.930 . S
C1098 C1096 1.358 . S
C1098 N1099 1.279 . S
C1098 H1139 0.930 . S
N1099 C1097 1.314 . S
N1099 C1098 1.279 . S
C1100 C1102 1.353 . S
C1100 N1103 1.314 . S
C1100 H1106 0.930 . S
C1101 N1103 1.279 . S
C1101 C1104 1.358 . S
C1101 H1107 0.930 . S
C1102 C1100 1.353 . S
C1102 C1105 1.348 . S
C1102 H1140 0.929 . S
N1103 Li1058 1.990 . S
N1103 C1100 1.314 . S
N1103 C1101 1.279 . S
C1104 C1101 1.358 . S
C1104 C1105 1.356 . S
C1104 H1141 0.930 . S
C1105 C1102 1.348 . S
C1105 C1104 1.356 . S
H1106 C1100 0.930 . S
H1107 C1101 0.930 . S
C1108 N1109 1.314 . S
C1108 C1110 1.353 . S
C1108 H1114 0.930 . S
N1109 Li1059 1.990 . S
N1109 C1108 1.314 . S
N1109 C1112 1.279 . S
C1110 C1108 1.353 . S
C1110 C1113 1.348 . S
C1110 H1142 0.929 . S
C1111 C1112 1.358 . S
C1111 C1113 1.356 . S
C1111 H1143 0.930 . S
C1112 N1109 1.279 . S
C1112 C1111 1.358 . S
C1112 H1115 0.930 . S
C1113 C1110 1.348 . S
C1113 C1111 1.356 . S
H1114 C1108 0.930 . S
H1115 C1112 0.930 . S
O1116 Li1056 1.956 . S
O1116 Li1057 1.970 . S
O1116 Li1058 1.961 . S
O1116 C1060 1.325 . S
O1117 Li1056 1.970 . S
O1117 Li1057 1.956 . S
O1117 Li1059 1.961 . S
O1117 C1066 1.325 . S
O1118 Li1056 1.961 . S
O1118 Li1058 1.956 . S
O1118 Li1059 1.970 . S
O1118 C1088 1.325 . S
O1119 Li1057 1.961 . S
O1119 Li1058 1.970 . S
O1119 Li1059 1.956 . S
O1119 C1094 1.325 . S
H1120 C1062 0.929 . S
H1121 C1063 0.930 . S
H1122 C1064 0.930 . S
H1123 C1065 0.930 . S
H1124 C1067 0.930 . S
H1125 C1069 0.929 . S
H1126 C1070 0.930 . S
H1127 C1071 0.930 . S
H1128 C1074 0.930 . S
H1129 C1077 0.929 . S
H1130 C1082 0.929 . S
H1131 C1083 0.930 . S
H1132 C1090 0.929 . S
H1133 C1091 0.930 . S
H1134 C1092 0.930 . S
H1135 C1093 0.930 . S
H1136 C1095 0.929 . S
H1137 C1096 0.930 . S
H1138 C1097 0.930 . S
H1139 C1098 0.930 . S
H1140 C1102 0.929 . S
H1141 C1104 0.930 . S
H1142 C1110 0.929 . S
H1143 C1111 0.930 . S
Li1144 N1161 1.990 . S
Li1144 O1204 1.956 . S
Li1144 O1205 1.970 . S
Li1144 O1206 1.961 . S
Li1145 N1169 1.990 . S
Li1145 O1204 1.970 . S
Li1145 O1205 1.956 . S
Li1145 O1207 1.961 . S
Li1146 N1191 1.990 . S
Li1146 O1204 1.961 . S
Li1146 O1206 1.956 . S
Li1146 O1207 1.970 . S
Li1147 N1197 1.990 . S
Li1147 O1205 1.961 . S
Li1147 O1206 1.970 . S
Li1147 O1207 1.956 . S
C1148 C1150 1.348 . S
C1148 C1151 1.356 . S
C1148 O1204 1.325 . S
N1149 C1152 1.314 . S
N1149 C1153 1.279 . S
C1150 C1148 1.348 . S
C1150 C1152 1.353 . S
C1150 H1208 0.929 . S
C1151 C1148 1.356 . S
C1151 C1153 1.358 . S
C1151 H1209 0.930 . S
C1152 N1149 1.314 . S
C1152 C1150 1.353 . S
C1152 H1210 0.930 . S
C1153 N1149 1.279 . S
C1153 C1151 1.358 . S
C1153 H1211 0.930 . S
C1154 C1157 1.348 . S
C1154 C1158 1.356 . S
C1154 O1205 1.325 . S
C1155 N1156 1.279 . S
C1155 C1158 1.358 . S
C1155 H1212 0.930 . S
N1156 C1155 1.279 . S
N1156 C1159 1.314 . S
C1157 C1154 1.348 . S
C1157 C1159 1.353 . S
C1157 H1213 0.929 . S
C1158 C1154 1.356 . S
C1158 C1155 1.358 . S
C1158 H1214 0.930 . S
C1159 N1156 1.314 . S
C1159 C1157 1.353 . S
C1159 H1215 0.930 . S
C1160 N1161 1.314 . S
C1160 C1165 1.353 . S
C1160 H1166 0.930 . S
N1161 Li1144 1.990 . S
N1161 C1160 1.314 . S
N1161 C1163 1.279 . S
C1162 C1163 1.358 . S
C1162 C1164 1.356 . S
C1162 H1216 0.930 . S
C1163 N1161 1.279 . S
C1163 C1162 1.358 . S
C1163 H1167 0.930 . S
C1164 C1162 1.356 . S
C1164 C1165 1.348 . S
C1165 C1160 1.353 . S
C1165 C1164 1.348 . S
C1165 H1217 0.929 . S
H1166 C1160 0.930 . S
H1167 C1163 0.930 . S
C1168 N1169 1.314 . S
C1168 C1170 1.353 . S
C1168 H1174 0.930 . S
N1169 Li1145 1.990 . S
N1169 C1168 1.314 . S
N1169 C1172 1.279 . S
C1170 C1168 1.353 . S
C1170 C1173 1.348 . S
C1170 H1218 0.929 . S
C1171 C1172 1.358 . S
C1171 C1173 1.356 . S
C1171 H1219 0.930 . S
C1172 N1169 1.279 . S
C1172 C1171 1.358 . S
C1172 H1175 0.930 . S
C1173 C1170 1.348 . S
C1173 C1171 1.356 . S
H1174 C1168 0.930 . S
H1175 C1172 0.930 . S
C1176 C1178 1.348 . S
C1176 C1179 1.356 . S
C1176 O1206 1.325 . S
N1177 C1180 1.314 . S
N1177 C1181 1.279 . S
C1178 C1176 1.348 . S
C1178 C1180 1.353 . S
C1178 H1220 0.929 . S
C1179 C1176 1.356 . S
C1179 C1181 1.358 . S
C1179 H1221 0.930 . S
C1180 N1177 1.314 . S
C1180 C1178 1.353 . S
C1180 H1222 0.930 . S
C1181 N1177 1.279 . S
C1181 C1179 1.358 . S
C1181 H1223 0.930 . S
C1182 C1183 1.348 . S
C1182 C1184 1.356 . S
C1182 O1207 1.325 . S
C1183 C1182 1.348 . S
C1183 C1185 1.353 . S
C1183 H1224 0.929 . S
C1184 C1182 1.356 . S
C1184 C1186 1.358 . S
C1184 H1225 0.930 . S
C1185 C1183 1.353 . S
C1185 N1187 1.314 . S
C1185 H1226 0.930 . S
C1186 C1184 1.358 . S
C1186 N1187 1.279 . S
C1186 H1227 0.930 . S
N1187 C1185 1.314 . S
N1187 C1186 1.279 . S
C1188 C1190 1.353 . S
C1188 N1191 1.314 . S
C1188 H1194 0.930 . S
C1189 N1191 1.279 . S
C1189 C1192 1.358 . S
C1189 H1195 0.930 . S
C1190 C1188 1.353 . S
C1190 C1193 1.348 . S
C1190 H1228 0.929 . S
N1191 Li1146 1.990 . S
N1191 C1188 1.314 . S
N1191 C1189 1.279 . S
C1192 C1189 1.358 . S
C1192 C1193 1.356 . S
C1192 H1229 0.930 . S
C1193 C1190 1.348 . S
C1193 C1192 1.356 . S
H1194 C1188 0.930 . S
H1195 C1189 0.930 . S
C1196 N1197 1.314 . S
C1196 C1198 1.353 . S
C1196 H1202 0.930 . S
N1197 Li1147 1.990 . S
N1197 C1196 1.314 . S
N1197 C1200 1.279 . S
C1198 C1196 1.353 . S
C1198 C1201 1.348 . S
C1198 H1230 0.929 . S
C1199 C1200 1.358 . S
C1199 C1201 1.356 . S
C1199 H1231 0.930 . S
C1200 N1197 1.279 . S
C1200 C1199 1.358 . S
C1200 H1203 0.930 . S
C1201 C1198 1.348 . S
C1201 C1199 1.356 . S
H1202 C1196 0.930 . S
H1203 C1200 0.930 . S
O1204 Li1144 1.956 . S
O1204 Li1145 1.970 . S
O1204 Li1146 1.961 . S
O1204 C1148 1.325 . S
O1205 Li1144 1.970 . S
O1205 Li1145 1.956 . S
O1205 Li1147 1.961 . S
O1205 C1154 1.325 . S
O1206 Li1144 1.961 . S
O1206 Li1146 1.956 . S
O1206 Li1147 1.970 . S
O1206 C1176 1.325 . S
O1207 Li1145 1.961 . S
O1207 Li1146 1.970 . S
O1207 Li1147 1.956 . S
O1207 C1182 1.325 . S
H1208 C1150 0.929 . S
H1209 C1151 0.930 . S
H1210 C1152 0.930 . S
H1211 C1153 0.930 . S
H1212 C1155 0.930 . S
H1213 C1157 0.929 . S
H1214 C1158 0.930 . S
H1215 C1159 0.930 . S
H1216 C1162 0.930 . S
H1217 C1165 0.929 . S
H1218 C1170 0.929 . S
H1219 C1171 0.930 . S
H1220 C1178 0.929 . S
H1221 C1179 0.930 . S
H1222 C1180 0.930 . S
H1223 C1181 0.930 . S
H1224 C1183 0.929 . S
H1225 C1184 0.930 . S
H1226 C1185 0.930 . S
H1227 C1186 0.930 . S
H1228 C1190 0.929 . S
H1229 C1192 0.930 . S
H1230 C1198 0.929 . S
H1231 C1199 0.930 . S
Li1232 N1249 1.990 . S
Li1232 O1292 1.956 . S
Li1232 O1293 1.970 . S
Li1232 O1294 1.961 . S
Li1233 N1257 1.990 . S
Li1233 O1292 1.970 . S
Li1233 O1293 1.956 . S
Li1233 O1295 1.961 . S
Li1234 N1279 1.990 . S
Li1234 O1292 1.961 . S
Li1234 O1294 1.956 . S
Li1234 O1295 1.970 . S
Li1235 N1285 1.990 . S
Li1235 O1293 1.961 . S
Li1235 O1294 1.970 . S
Li1235 O1295 1.956 . S
C1236 C1238 1.348 . S
C1236 C1239 1.356 . S
C1236 O1292 1.325 . S
N1237 C1240 1.314 . S
N1237 C1241 1.279 . S
C1238 C1236 1.348 . S
C1238 C1240 1.353 . S
C1238 H1296 0.929 . S
C1239 C1236 1.356 . S
C1239 C1241 1.358 . S
C1239 H1297 0.930 . S
C1240 N1237 1.314 . S
C1240 C1238 1.353 . S
C1240 H1298 0.930 . S
C1241 N1237 1.279 . S
C1241 C1239 1.358 . S
C1241 H1299 0.930 . S
C1242 C1245 1.348 . S
C1242 C1246 1.356 . S
C1242 O1293 1.325 . S
C1243 N1244 1.279 . S
C1243 C1246 1.358 . S
C1243 H1300 0.930 . S
N1244 C1243 1.279 . S
N1244 C1247 1.314 . S
C1245 C1242 1.348 . S
C1245 C1247 1.353 . S
C1245 H1301 0.929 . S
C1246 C1242 1.356 . S
C1246 C1243 1.358 . S
C1246 H1302 0.930 . S
C1247 N1244 1.314 . S
C1247 C1245 1.353 . S
C1247 H1303 0.930 . S
C1248 N1249 1.314 . S
C1248 C1253 1.353 . S
C1248 H1254 0.930 . S
N1249 Li1232 1.990 . S
N1249 C1248 1.314 . S
N1249 C1251 1.279 . S
C1250 C1251 1.358 . S
C1250 C1252 1.356 . S
C1250 H1304 0.930 . S
C1251 N1249 1.279 . S
C1251 C1250 1.358 . S
C1251 H1255 0.930 . S
C1252 C1250 1.356 . S
C1252 C1253 1.348 . S
C1253 C1248 1.353 . S
C1253 C1252 1.348 . S
C1253 H1305 0.929 . S
H1254 C1248 0.930 . S
H1255 C1251 0.930 . S
C1256 N1257 1.314 . S
C1256 C1258 1.353 . S
C1256 H1262 0.930 . S
N1257 Li1233 1.990 . S
N1257 C1256 1.314 . S
N1257 C1260 1.279 . S
C1258 C1256 1.353 . S
C1258 C1261 1.348 . S
C1258 H1306 0.929 . S
C1259 C1260 1.358 . S
C1259 C1261 1.356 . S
C1259 H1307 0.930 . S
C1260 N1257 1.279 . S
C1260 C1259 1.358 . S
C1260 H1263 0.930 . S
C1261 C1258 1.348 . S
C1261 C1259 1.356 . S
H1262 C1256 0.930 . S
H1263 C1260 0.930 . S
C1264 C1266 1.348 . S
C1264 C1267 1.356 . S
C1264 O1294 1.325 . S
N1265 C1268 1.314 . S
N1265 C1269 1.279 . S
C1266 C1264 1.348 . S
C1266 C1268 1.353 . S
C1266 H1308 0.929 . S
C1267 C1264 1.356 . S
C1267 C1269 1.358 . S
C1267 H1309 0.930 . S
C1268 N1265 1.314 . S
C1268 C1266 1.353 . S
C1268 H1310 0.930 . S
C1269 N1265 1.279 . S
C1269 C1267 1.358 . S
C1269 H1311 0.930 . S
C1270 C1271 1.348 . S
C1270 C1272 1.356 . S
C1270 O1295 1.325 . S
C1271 C1270 1.348 . S
C1271 C1273 1.353 . S
C1271 H1312 0.929 . S
C1272 C1270 1.356 . S
C1272 C1274 1.358 . S
C1272 H1313 0.930 . S
C1273 C1271 1.353 . S
C1273 N1275 1.314 . S
C1273 H1314 0.930 . S
C1274 C1272 1.358 . S
C1274 N1275 1.279 . S
C1274 H1315 0.930 . S
N1275 C1273 1.314 . S
N1275 C1274 1.279 . S
C1276 C1278 1.353 . S
C1276 N1279 1.314 . S
C1276 H1282 0.930 . S
C1277 N1279 1.279 . S
C1277 C1280 1.358 . S
C1277 H1283 0.930 . S
C1278 C1276 1.353 . S
C1278 C1281 1.348 . S
C1278 H1316 0.929 . S
N1279 Li1234 1.990 . S
N1279 C1276 1.314 . S
N1279 C1277 1.279 . S
C1280 C1277 1.358 . S
C1280 C1281 1.356 . S
C1280 H1317 0.930 . S
C1281 C1278 1.348 . S
C1281 C1280 1.356 . S
H1282 C1276 0.930 . S
H1283 C1277 0.930 . S
C1284 N1285 1.314 . S
C1284 C1286 1.353 . S
C1284 H1290 0.930 . S
N1285 Li1235 1.990 . S
N1285 C1284 1.314 . S
N1285 C1288 1.279 . S
C1286 C1284 1.353 . S
C1286 C1289 1.348 . S
C1286 H1318 0.929 . S
C1287 C1288 1.358 . S
C1287 C1289 1.356 . S
C1287 H1319 0.930 . S
C1288 N1285 1.279 . S
C1288 C1287 1.358 . S
C1288 H1291 0.930 . S
C1289 C1286 1.348 . S
C1289 C1287 1.356 . S
H1290 C1284 0.930 . S
H1291 C1288 0.930 . S
O1292 Li1232 1.956 . S
O1292 Li1233 1.970 . S
O1292 Li1234 1.961 . S
O1292 C1236 1.325 . S
O1293 Li1232 1.970 . S
O1293 Li1233 1.956 . S
O1293 Li1235 1.961 . S
O1293 C1242 1.325 . S
O1294 Li1232 1.961 . S
O1294 Li1234 1.956 . S
O1294 Li1235 1.970 . S
O1294 C1264 1.325 . S
O1295 Li1233 1.961 . S
O1295 Li1234 1.970 . S
O1295 Li1235 1.956 . S
O1295 C1270 1.325 . S
H1296 C1238 0.929 . S
H1297 C1239 0.930 . S
H1298 C1240 0.930 . S
H1299 C1241 0.930 . S
H1300 C1243 0.930 . S
H1301 C1245 0.929 . S
H1302 C1246 0.930 . S
H1303 C1247 0.930 . S
H1304 C1250 0.930 . S
H1305 C1253 0.929 . S
H1306 C1258 0.929 . S
H1307 C1259 0.930 . S
H1308 C1266 0.929 . S
H1309 C1267 0.930 . S
H1310 C1268 0.930 . S
H1311 C1269 0.930 . S
H1312 C1271 0.929 . S
H1313 C1272 0.930 . S
H1314 C1273 0.930 . S
H1315 C1274 0.930 . S
H1316 C1278 0.929 . S
H1317 C1280 0.930 . S
H1318 C1286 0.929 . S
H1319 C1287 0.930 . S
Li1320 N1337 1.990 . S
Li1320 O1380 1.956 . S
Li1320 O1381 1.970 . S
Li1320 O1382 1.961 . S
Li1321 N1345 1.990 . S
Li1321 O1380 1.970 . S
Li1321 O1381 1.956 . S
Li1321 O1383 1.961 . S
Li1322 N1367 1.990 . S
Li1322 O1380 1.961 . S
Li1322 O1382 1.956 . S
Li1322 O1383 1.970 . S
Li1323 N1373 1.990 . S
Li1323 O1381 1.961 . S
Li1323 O1382 1.970 . S
Li1323 O1383 1.956 . S
C1324 C1326 1.348 . S
C1324 C1327 1.356 . S
C1324 O1380 1.325 . S
N1325 C1328 1.314 . S
N1325 C1329 1.279 . S
C1326 C1324 1.348 . S
C1326 C1328 1.353 . S
C1326 H1384 0.929 . S
C1327 C1324 1.356 . S
C1327 C1329 1.358 . S
C1327 H1385 0.930 . S
C1328 N1325 1.314 . S
C1328 C1326 1.353 . S
C1328 H1386 0.930 . S
C1329 N1325 1.279 . S
C1329 C1327 1.358 . S
C1329 H1387 0.930 . S
C1330 C1333 1.348 . S
C1330 C1334 1.356 . S
C1330 O1381 1.325 . S
C1331 N1332 1.279 . S
C1331 C1334 1.358 . S
C1331 H1388 0.930 . S
N1332 C1331 1.279 . S
N1332 C1335 1.314 . S
C1333 C1330 1.348 . S
C1333 C1335 1.353 . S
C1333 H1389 0.929 . S
C1334 C1330 1.356 . S
C1334 C1331 1.358 . S
C1334 H1390 0.930 . S
C1335 N1332 1.314 . S
C1335 C1333 1.353 . S
C1335 H1391 0.930 . S
C1336 N1337 1.314 . S
C1336 C1341 1.353 . S
C1336 H1342 0.930 . S
N1337 Li1320 1.990 . S
N1337 C1336 1.314 . S
N1337 C1339 1.279 . S
C1338 C1339 1.358 . S
C1338 C1340 1.356 . S
C1338 H1392 0.930 . S
C1339 N1337 1.279 . S
C1339 C1338 1.358 . S
C1339 H1343 0.930 . S
C1340 C1338 1.356 . S
C1340 C1341 1.348 . S
C1341 C1336 1.353 . S
C1341 C1340 1.348 . S
C1341 H1393 0.929 . S
H1342 C1336 0.930 . S
H1343 C1339 0.930 . S
C1344 N1345 1.314 . S
C1344 C1346 1.353 . S
C1344 H1350 0.930 . S
N1345 Li1321 1.990 . S
N1345 C1344 1.314 . S
N1345 C1348 1.279 . S
C1346 C1344 1.353 . S
C1346 C1349 1.348 . S
C1346 H1394 0.929 . S
C1347 C1348 1.358 . S
C1347 C1349 1.356 . S
C1347 H1395 0.930 . S
C1348 N1345 1.279 . S
C1348 C1347 1.358 . S
C1348 H1351 0.930 . S
C1349 C1346 1.348 . S
C1349 C1347 1.356 . S
H1350 C1344 0.930 . S
H1351 C1348 0.930 . S
C1352 C1354 1.348 . S
C1352 C1355 1.356 . S
C1352 O1382 1.325 . S
N1353 C1356 1.314 . S
N1353 C1357 1.279 . S
C1354 C1352 1.348 . S
C1354 C1356 1.353 . S
C1354 H1396 0.929 . S
C1355 C1352 1.356 . S
C1355 C1357 1.358 . S
C1355 H1397 0.930 . S
C1356 N1353 1.314 . S
C1356 C1354 1.353 . S
C1356 H1398 0.930 . S
C1357 N1353 1.279 . S
C1357 C1355 1.358 . S
C1357 H1399 0.930 . S
C1358 C1359 1.348 . S
C1358 C1360 1.356 . S
C1358 O1383 1.325 . S
C1359 C1358 1.348 . S
C1359 C1361 1.353 . S
C1359 H1400 0.929 . S
C1360 C1358 1.356 . S
C1360 C1362 1.358 . S
C1360 H1401 0.930 . S
C1361 C1359 1.353 . S
C1361 N1363 1.314 . S
C1361 H1402 0.930 . S
C1362 C1360 1.358 . S
C1362 N1363 1.279 . S
C1362 H1403 0.930 . S
N1363 C1361 1.314 . S
N1363 C1362 1.279 . S
C1364 C1366 1.353 . S
C1364 N1367 1.314 . S
C1364 H1370 0.930 . S
C1365 N1367 1.279 . S
C1365 C1368 1.358 . S
C1365 H1371 0.930 . S
C1366 C1364 1.353 . S
C1366 C1369 1.348 . S
C1366 H1404 0.929 . S
N1367 Li1322 1.990 . S
N1367 C1364 1.314 . S
N1367 C1365 1.279 . S
C1368 C1365 1.358 . S
C1368 C1369 1.356 . S
C1368 H1405 0.930 . S
C1369 C1366 1.348 . S
C1369 C1368 1.356 . S
H1370 C1364 0.930 . S
H1371 C1365 0.930 . S
C1372 N1373 1.314 . S
C1372 C1374 1.353 . S
C1372 H1378 0.930 . S
N1373 Li1323 1.990 . S
N1373 C1372 1.314 . S
N1373 C1376 1.279 . S
C1374 C1372 1.353 . S
C1374 C1377 1.348 . S
C1374 H1406 0.929 . S
C1375 C1376 1.358 . S
C1375 C1377 1.356 . S
C1375 H1407 0.930 . S
C1376 N1373 1.279 . S
C1376 C1375 1.358 . S
C1376 H1379 0.930 . S
C1377 C1374 1.348 . S
C1377 C1375 1.356 . S
H1378 C1372 0.930 . S
H1379 C1376 0.930 . S
O1380 Li1320 1.956 . S
O1380 Li1321 1.970 . S
O1380 Li1322 1.961 . S
O1380 C1324 1.325 . S
O1381 Li1320 1.970 . S
O1381 Li1321 1.956 . S
O1381 Li1323 1.961 . S
O1381 C1330 1.325 . S
O1382 Li1320 1.961 . S
O1382 Li1322 1.956 . S
O1382 Li1323 1.970 . S
O1382 C1352 1.325 . S
O1383 Li1321 1.961 . S
O1383 Li1322 1.970 . S
O1383 Li1323 1.956 . S
O1383 C1358 1.325 . S
H1384 C1326 0.929 . S
H1385 C1327 0.930 . S
H1386 C1328 0.930 . S
H1387 C1329 0.930 . S
H1388 C1331 0.930 . S
H1389 C1333 0.929 . S
H1390 C1334 0.930 . S
H1391 C1335 0.930 . S
H1392 C1338 0.930 . S
H1393 C1341 0.929 . S
H1394 C1346 0.929 . S
H1395 C1347 0.930 . S
H1396 C1354 0.929 . S
H1397 C1355 0.930 . S
H1398 C1356 0.930 . S
H1399 C1357 0.930 . S
H1400 C1359 0.929 . S
H1401 C1360 0.930 . S
H1402 C1361 0.930 . S
H1403 C1362 0.930 . S
H1404 C1366 0.929 . S
H1405 C1368 0.930 . S
H1406 C1374 0.929 . S
H1407 C1375 0.930 . S
C1408 C1409 1.391 . S
C1408 C1410 1.394 . S
C1408 H1424 0.931 . S
C1409 C1408 1.391 . S
C1409 C1413 1.376 . S
C1410 C1408 1.394 . S
C1410 C1411 1.369 . S
C1410 C1414 1.531 . S
C1411 C1410 1.369 . S
C1411 C1412 1.410 . S
C1411 C1419 1.503 . S
C1412 C1411 1.410 . S
C1412 C1413 1.392 . S
C1412 C1415 1.511 . S
C1413 C1409 1.376 . S
C1413 C1412 1.392 . S
C1413 H1425 0.929 . S
C1414 C1410 1.531 . S
C1414 H1426 0.960 . S
C1414 H1427 0.962 . S
C1414 H1428 0.960 . S
C1415 C1412 1.511 . S
C1415 H1429 0.961 . S
C1415 H1430 0.961 . S
C1415 H1431 0.961 . S
C1416 C1417 1.370 . S
C1416 C1418 1.363 . S
C1416 H1432 0.931 . S
C1417 C1416 1.370 . S
C1417 C1421 1.408 . S
C1418 C1416 1.363 . S
C1418 C1419 1.370 . S
C1418 C1422 1.524 . S
C1419 C1411 1.503 . S
C1419 C1418 1.370 . S
C1419 C1420 1.403 . S
C1420 C1419 1.403 . S
C1420 C1421 1.404 . S
C1420 C1423 1.539 . S
C1421 C1417 1.408 . S
C1421 C1420 1.404 . S
C1421 H1433 0.930 . S
C1422 C1418 1.524 . S
C1422 H1434 0.956 . S
C1422 H1435 0.961 . S
C1422 H1436 0.961 . S
C1423 C1420 1.539 . S
C1423 H1437 0.958 . S
C1423 H1438 0.961 . S
C1423 H1439 0.960 . S
H1424 C1408 0.931 . S
H1425 C1413 0.929 . S
H1426 C1414 0.960 . S
H1427 C1414 0.962 . S
H1428 C1414 0.960 . S
H1429 C1415 0.961 . S
H1430 C1415 0.961 . S
H1431 C1415 0.961 . S
H1432 C1416 0.931 . S
H1433 C1421 0.930 . S
H1434 C1422 0.956 . S
H1435 C1422 0.961 . S
H1436 C1422 0.961 . S
H1437 C1423 0.958 . S
H1438 C1423 0.961 . S
H1439 C1423 0.960 . S
C1440 C1441 1.391 . S
C1440 C1442 1.394 . S
C1440 H1456 0.931 . S
C1441 C1440 1.391 . S
C1441 C1445 1.376 . S
C1442 C1440 1.394 . S
C1442 C1443 1.369 . S
C1442 C1446 1.531 . S
C1443 C1442 1.369 . S
C1443 C1444 1.410 . S
C1443 C1451 1.503 . S
C1444 C1443 1.410 . S
C1444 C1445 1.392 . S
C1444 C1447 1.511 . S
C1445 C1441 1.376 . S
C1445 C1444 1.392 . S
C1445 H1457 0.929 . S
C1446 C1442 1.531 . S
C1446 H1458 0.960 . S
C1446 H1459 0.962 . S
C1446 H1460 0.960 . S
C1447 C1444 1.511 . S
C1447 H1461 0.961 . S
C1447 H1462 0.961 . S
C1447 H1463 0.961 . S
C1448 C1449 1.370 . S
C1448 C1450 1.363 . S
C1448 H1464 0.931 . S
C1449 C1448 1.370 . S
C1449 C1453 1.408 . S
C1450 C1448 1.363 . S
C1450 C1451 1.370 . S
C1450 C1454 1.524 . S
C1451 C1443 1.503 . S
C1451 C1450 1.370 . S
C1451 C1452 1.403 . S
C1452 C1451 1.403 . S
C1452 C1453 1.404 . S
C1452 C1455 1.539 . S
C1453 C1449 1.408 . S
C1453 C1452 1.404 . S
C1453 H1465 0.930 . S
C1454 C1450 1.524 . S
C1454 H1466 0.956 . S
C1454 H1467 0.961 . S
C1454 H1468 0.961 . S
C1455 C1452 1.539 . S
C1455 H1469 0.958 . S
C1455 H1470 0.961 . S
C1455 H1471 0.960 . S
H1456 C1440 0.931 . S
H1457 C1445 0.929 . S
H1458 C1446 0.960 . S
H1459 C1446 0.962 . S
H1460 C1446 0.960 . S
H1461 C1447 0.961 . S
H1462 C1447 0.961 . S
H1463 C1447 0.961 . S
H1464 C1448 0.931 . S
H1465 C1453 0.930 . S
H1466 C1454 0.956 . S
H1467 C1454 0.961 . S
H1468 C1454 0.961 . S
H1469 C1455 0.958 . S
H1470 C1455 0.961 . S
H1471 C1455 0.960 . S
C1472 C1473 1.391 . S
C1472 C1474 1.394 . S
C1472 H1488 0.931 . S
C1473 C1472 1.391 . S
C1473 C1477 1.376 . S
C1474 C1472 1.394 . S
C1474 C1475 1.369 . S
C1474 C1478 1.531 . S
C1475 C1474 1.369 . S
C1475 C1476 1.410 . S
C1475 C1483 1.503 . S
C1476 C1475 1.410 . S
C1476 C1477 1.392 . S
C1476 C1479 1.511 . S
C1477 C1473 1.376 . S
C1477 C1476 1.392 . S
C1477 H1489 0.929 . S
C1478 C1474 1.531 . S
C1478 H1490 0.960 . S
C1478 H1491 0.962 . S
C1478 H1492 0.960 . S
C1479 C1476 1.511 . S
C1479 H1493 0.961 . S
C1479 H1494 0.961 . S
C1479 H1495 0.961 . S
C1480 C1481 1.370 . S
C1480 C1482 1.363 . S
C1480 H1496 0.931 . S
C1481 C1480 1.370 . S
C1481 C1485 1.408 . S
C1482 C1480 1.363 . S
C1482 C1483 1.370 . S
C1482 C1486 1.524 . S
C1483 C1475 1.503 . S
C1483 C1482 1.370 . S
C1483 C1484 1.403 . S
C1484 C1483 1.403 . S
C1484 C1485 1.404 . S
C1484 C1487 1.539 . S
C1485 C1481 1.408 . S
C1485 C1484 1.404 . S
C1485 H1497 0.930 . S
C1486 C1482 1.524 . S
C1486 H1498 0.956 . S
C1486 H1499 0.961 . S
C1486 H1500 0.961 . S
C1487 C1484 1.539 . S
C1487 H1501 0.958 . S
C1487 H1502 0.961 . S
C1487 H1503 0.960 . S
H1488 C1472 0.931 . S
H1489 C1477 0.929 . S
H1490 C1478 0.960 . S
H1491 C1478 0.962 . S
H1492 C1478 0.960 . S
H1493 C1479 0.961 . S
H1494 C1479 0.961 . S
H1495 C1479 0.961 . S
H1496 C1480 0.931 . S
H1497 C1485 0.930 . S
H1498 C1486 0.956 . S
H1499 C1486 0.961 . S
H1500 C1486 0.961 . S
H1501 C1487 0.958 . S
H1502 C1487 0.961 . S
H1503 C1487 0.960 . S
C1504 C1505 1.391 . S
C1504 C1506 1.394 . S
C1504 H1520 0.931 . S
C1505 C1504 1.391 . S
C1505 C1509 1.376 . S
C1506 C1504 1.394 . S
C1506 C1507 1.369 . S
C1506 C1510 1.531 . S
C1507 C1506 1.369 . S
C1507 C1508 1.410 . S
C1507 C1515 1.503 . S
C1508 C1507 1.410 . S
C1508 C1509 1.392 . S
C1508 C1511 1.511 . S
C1509 C1505 1.376 . S
C1509 C1508 1.392 . S
C1509 H1521 0.929 . S
C1510 C1506 1.531 . S
C1510 H1522 0.960 . S
C1510 H1523 0.962 . S
C1510 H1524 0.960 . S
C1511 C1508 1.511 . S
C1511 H1525 0.961 . S
C1511 H1526 0.961 . S
C1511 H1527 0.961 . S
C1512 C1513 1.370 . S
C1512 C1514 1.363 . S
C1512 H1528 0.931 . S
C1513 C1512 1.370 . S
C1513 C1517 1.408 . S
C1514 C1512 1.363 . S
C1514 C1515 1.370 . S
C1514 C1518 1.524 . S
C1515 C1507 1.503 . S
C1515 C1514 1.370 . S
C1515 C1516 1.403 . S
C1516 C1515 1.403 . S
C1516 C1517 1.404 . S
C1516 C1519 1.539 . S
C1517 C1513 1.408 . S
C1517 C1516 1.404 . S
C1517 H1529 0.930 . S
C1518 C1514 1.524 . S
C1518 H1530 0.956 . S
C1518 H1531 0.961 . S
C1518 H1532 0.961 . S
C1519 C1516 1.539 . S
C1519 H1533 0.958 . S
C1519 H1534 0.961 . S
C1519 H1535 0.960 . S
H1520 C1504 0.931 . S
H1521 C1509 0.929 . S
H1522 C1510 0.960 . S
H1523 C1510 0.962 . S
H1524 C1510 0.960 . S
H1525 C1511 0.961 . S
H1526 C1511 0.961 . S
H1527 C1511 0.961 . S
H1528 C1512 0.931 . S
H1529 C1517 0.930 . S
H1530 C1518 0.956 . S
H1531 C1518 0.961 . S
H1532 C1518 0.961 . S
H1533 C1519 0.958 . S
H1534 C1519 0.961 . S
H1535 C1519 0.960 . S
C1536 C1537 1.391 . S
C1536 C1538 1.394 . S
C1536 H1552 0.931 . S
C1537 C1536 1.391 . S
C1537 C1541 1.376 . S
C1538 C1536 1.394 . S
C1538 C1539 1.369 . S
C1538 C1542 1.531 . S
C1539 C1538 1.369 . S
C1539 C1540 1.410 . S
C1539 C1547 1.503 . S
C1540 C1539 1.410 . S
C1540 C1541 1.392 . S
C1540 C1543 1.511 . S
C1541 C1537 1.376 . S
C1541 C1540 1.392 . S
C1541 H1553 0.929 . S
C1542 C1538 1.531 . S
C1542 H1554 0.960 . S
C1542 H1555 0.962 . S
C1542 H1556 0.960 . S
C1543 C1540 1.511 . S
C1543 H1557 0.961 . S
C1543 H1558 0.961 . S
C1543 H1559 0.961 . S
C1544 C1545 1.370 . S
C1544 C1546 1.363 . S
C1544 H1560 0.931 . S
C1545 C1544 1.370 . S
C1545 C1549 1.408 . S
C1546 C1544 1.363 . S
C1546 C1547 1.370 . S
C1546 C1550 1.524 . S
C1547 C1539 1.503 . S
C1547 C1546 1.370 . S
C1547 C1548 1.403 . S
C1548 C1547 1.403 . S
C1548 C1549 1.404 . S
C1548 C1551 1.539 . S
C1549 C1545 1.408 . S
C1549 C1548 1.404 . S
C1549 H1561 0.930 . S
C1550 C1546 1.524 . S
C1550 H1562 0.956 . S
C1550 H1563 0.961 . S
C1550 H1564 0.961 . S
C1551 C1548 1.539 . S
C1551 H1565 0.958 . S
C1551 H1566 0.961 . S
C1551 H1567 0.960 . S
H1552 C1536 0.931 . S
H1553 C1541 0.929 . S
H1554 C1542 0.960 . S
H1555 C1542 0.962 . S
H1556 C1542 0.960 . S
H1557 C1543 0.961 . S
H1558 C1543 0.961 . S
H1559 C1543 0.961 . S
H1560 C1544 0.931 . S
H1561 C1549 0.930 . S
H1562 C1550 0.956 . S
H1563 C1550 0.961 . S
H1564 C1550 0.961 . S
H1565 C1551 0.958 . S
H1566 C1551 0.961 . S
H1567 C1551 0.960 . S
C1568 C1569 1.391 . S
C1568 C1570 1.394 . S
C1568 H1584 0.931 . S
C1569 C1568 1.391 . S
C1569 C1573 1.376 . S
C1570 C1568 1.394 . S
C1570 C1571 1.369 . S
C1570 C1574 1.531 . S
C1571 C1570 1.369 . S
C1571 C1572 1.410 . S
C1571 C1579 1.503 . S
C1572 C1571 1.410 . S
C1572 C1573 1.392 . S
C1572 C1575 1.511 . S
C1573 C1569 1.376 . S
C1573 C1572 1.392 . S
C1573 H1585 0.929 . S
C1574 C1570 1.531 . S
C1574 H1586 0.960 . S
C1574 H1587 0.962 . S
C1574 H1588 0.960 . S
C1575 C1572 1.511 . S
C1575 H1589 0.961 . S
C1575 H1590 0.961 . S
C1575 H1591 0.961 . S
C1576 C1577 1.370 . S
C1576 C1578 1.363 . S
C1576 H1592 0.931 . S
C1577 C1576 1.370 . S
C1577 C1581 1.408 . S
C1578 C1576 1.363 . S
C1578 C1579 1.370 . S
C1578 C1582 1.524 . S
C1579 C1571 1.503 . S
C1579 C1578 1.370 . S
C1579 C1580 1.403 . S
C1580 C1579 1.403 . S
C1580 C1581 1.404 . S
C1580 C1583 1.539 . S
C1581 C1577 1.408 . S
C1581 C1580 1.404 . S
C1581 H1593 0.930 . S
C1582 C1578 1.524 . S
C1582 H1594 0.956 . S
C1582 H1595 0.961 . S
C1582 H1596 0.961 . S
C1583 C1580 1.539 . S
C1583 H1597 0.958 . S
C1583 H1598 0.961 . S
C1583 H1599 0.960 . S
H1584 C1568 0.931 . S
H1585 C1573 0.929 . S
H1586 C1574 0.960 . S
H1587 C1574 0.962 . S
H1588 C1574 0.960 . S
H1589 C1575 0.961 . S
H1590 C1575 0.961 . S
H1591 C1575 0.961 . S
H1592 C1576 0.931 . S
H1593 C1581 0.930 . S
H1594 C1582 0.956 . S
H1595 C1582 0.961 . S
H1596 C1582 0.961 . S
H1597 C1583 0.958 . S
H1598 C1583 0.961 . S
H1599 C1583 0.960 . S
C1600 C1601 1.391 . S
C1600 C1602 1.394 . S
C1600 H1616 0.931 . S
C1601 C1600 1.391 . S
C1601 C1605 1.376 . S
C1602 C1600 1.394 . S
C1602 C1603 1.369 . S
C1602 C1606 1.531 . S
C1603 C1602 1.369 . S
C1603 C1604 1.410 . S
C1603 C1611 1.503 . S
C1604 C1603 1.410 . S
C1604 C1605 1.392 . S
C1604 C1607 1.511 . S
C1605 C1601 1.376 . S
C1605 C1604 1.392 . S
C1605 H1617 0.929 . S
C1606 C1602 1.531 . S
C1606 H1618 0.960 . S
C1606 H1619 0.962 . S
C1606 H1620 0.960 . S
C1607 C1604 1.511 . S
C1607 H1621 0.961 . S
C1607 H1622 0.961 . S
C1607 H1623 0.961 . S
C1608 C1609 1.370 . S
C1608 C1610 1.363 . S
C1608 H1624 0.931 . S
C1609 C1608 1.370 . S
C1609 C1613 1.408 . S
C1610 C1608 1.363 . S
C1610 C1611 1.370 . S
C1610 C1614 1.524 . S
C1611 C1603 1.503 . S
C1611 C1610 1.370 . S
C1611 C1612 1.403 . S
C1612 C1611 1.403 . S
C1612 C1613 1.404 . S
C1612 C1615 1.539 . S
C1613 C1609 1.408 . S
C1613 C1612 1.404 . S
C1613 H1625 0.930 . S
C1614 C1610 1.524 . S
C1614 H1626 0.956 . S
C1614 H1627 0.961 . S
C1614 H1628 0.961 . S
C1615 C1612 1.539 . S
C1615 H1629 0.958 . S
C1615 H1630 0.961 . S
C1615 H1631 0.960 . S
H1616 C1600 0.931 . S
H1617 C1605 0.929 . S
H1618 C1606 0.960 . S
H1619 C1606 0.962 . S
H1620 C1606 0.960 . S
H1621 C1607 0.961 . S
H1622 C1607 0.961 . S
H1623 C1607 0.961 . S
H1624 C1608 0.931 . S
H1625 C1613 0.930 . S
H1626 C1614 0.956 . S
H1627 C1614 0.961 . S
H1628 C1614 0.961 . S
H1629 C1615 0.958 . S
H1630 C1615 0.961 . S
H1631 C1615 0.960 . S
C1632 C1633 1.391 . S
C1632 C1634 1.394 . S
C1632 H1648 0.931 . S
C1633 C1632 1.391 . S
C1633 C1637 1.376 . S
C1634 C1632 1.394 . S
C1634 C1635 1.369 . S
C1634 C1638 1.531 . S
C1635 C1634 1.369 . S
C1635 C1636 1.410 . S
C1635 C1643 1.503 . S
C1636 C1635 1.410 . S
C1636 C1637 1.392 . S
C1636 C1639 1.511 . S
C1637 C1633 1.376 . S
C1637 C1636 1.392 . S
C1637 H1649 0.929 . S
C1638 C1634 1.531 . S
C1638 H1650 0.960 . S
C1638 H1651 0.962 . S
C1638 H1652 0.960 . S
C1639 C1636 1.511 . S
C1639 H1653 0.961 . S
C1639 H1654 0.961 . S
C1639 H1655 0.961 . S
C1640 C1641 1.370 . S
C1640 C1642 1.363 . S
C1640 H1656 0.931 . S
C1641 C1640 1.370 . S
C1641 C1645 1.408 . S
C1642 C1640 1.363 . S
C1642 C1643 1.370 . S
C1642 C1646 1.524 . S
C1643 C1635 1.503 . S
C1643 C1642 1.370 . S
C1643 C1644 1.403 . S
C1644 C1643 1.403 . S
C1644 C1645 1.404 . S
C1644 C1647 1.539 . S
C1645 C1641 1.408 . S
C1645 C1644 1.404 . S
C1645 H1657 0.930 . S
C1646 C1642 1.524 . S
C1646 H1658 0.956 . S
C1646 H1659 0.961 . S
C1646 H1660 0.961 . S
C1647 C1644 1.539 . S
C1647 H1661 0.958 . S
C1647 H1662 0.961 . S
C1647 H1663 0.960 . S
H1648 C1632 0.931 . S
H1649 C1637 0.929 . S
H1650 C1638 0.960 . S
H1651 C1638 0.962 . S
H1652 C1638 0.960 . S
H1653 C1639 0.961 . S
H1654 C1639 0.961 . S
H1655 C1639 0.961 . S
H1656 C1640 0.931 . S
H1657 C1645 0.930 . S
H1658 C1646 0.956 . S
H1659 C1646 0.961 . S
H1660 C1646 0.961 . S
H1661 C1647 0.958 . S
H1662 C1647 0.961 . S
H1663 C1647 0.960 . S
C1664 C1665 1.391 . S
C1664 C1666 1.394 . S
C1664 H1680 0.931 . S
C1665 C1664 1.391 . S
C1665 C1669 1.376 . S
C1666 C1664 1.394 . S
C1666 C1667 1.369 . S
C1666 C1670 1.531 . S
C1667 C1666 1.369 . S
C1667 C1668 1.410 . S
C1667 C1675 1.503 1_565 S
C1668 C1667 1.410 . S
C1668 C1669 1.392 . S
C1668 C1671 1.511 1_565 S
C1669 C1665 1.376 . S
C1669 C1668 1.392 . S
C1669 H1681 0.929 . S
C1670 C1666 1.531 . S
C1670 H1682 0.960 . S
C1670 H1683 0.962 . S
C1670 H1684 0.960 . S
C1671 C1668 1.511 1_545 S
C1671 H1685 0.961 . S
C1671 H1686 0.961 . S
C1671 H1687 0.961 . S
C1672 C1673 1.370 . S
C1672 C1674 1.363 . S
C1672 H1688 0.931 . S
C1673 C1672 1.370 . S
C1673 C1677 1.408 . S
C1674 C1672 1.363 . S
C1674 C1675 1.370 . S
C1674 C1678 1.524 . S
C1675 C1667 1.503 1_545 S
C1675 C1674 1.370 . S
C1675 C1676 1.403 . S
C1676 C1675 1.403 . S
C1676 C1677 1.404 . S
C1676 C1679 1.539 1_545 S
C1677 C1673 1.408 . S
C1677 C1676 1.404 . S
C1677 H1689 0.930 . S
C1678 C1674 1.524 . S
C1678 H1690 0.956 . S
C1678 H1691 0.961 . S
C1678 H1692 0.961 . S
C1679 C1676 1.539 1_565 S
C1679 H1693 0.958 . S
C1679 H1694 0.960 . S
C1679 H1695 0.960 . S
H1680 C1664 0.931 . S
H1681 C1669 0.929 . S
H1682 C1670 0.960 . S
H1683 C1670 0.962 . S
H1684 C1670 0.960 . S
H1685 C1671 0.961 . S
H1686 C1671 0.961 . S
H1687 C1671 0.961 . S
H1688 C1672 0.931 . S
H1689 C1677 0.930 . S
H1690 C1678 0.956 . S
H1691 C1678 0.961 . S
H1692 C1678 0.961 . S
H1693 C1679 0.958 . S
H1694 C1679 0.960 . S
H1695 C1679 0.960 . S
C1696 C1697 1.391 . S
C1696 C1698 1.394 . S
C1696 H1712 0.931 . S
C1697 C1696 1.391 . S
C1697 C1701 1.376 . S
C1698 C1696 1.394 . S
C1698 C1699 1.369 . S
C1698 C1702 1.531 . S
C1699 C1698 1.369 . S
C1699 C1700 1.410 . S
C1699 C1707 1.503 . S
C1700 C1699 1.410 . S
C1700 C1701 1.392 . S
C1700 C1703 1.511 . S
C1701 C1697 1.376 . S
C1701 C1700 1.392 . S
C1701 H1713 0.929 . S
C1702 C1698 1.531 . S
C1702 H1714 0.960 . S
C1702 H1715 0.962 . S
C1702 H1716 0.960 . S
C1703 C1700 1.511 . S
C1703 H1717 0.961 . S
C1703 H1718 0.961 . S
C1703 H1719 0.961 . S
C1704 C1705 1.370 . S
C1704 C1706 1.363 . S
C1704 H1720 0.931 . S
C1705 C1704 1.370 . S
C1705 C1709 1.408 . S
C1706 C1704 1.363 . S
C1706 C1707 1.370 . S
C1706 C1710 1.524 . S
C1707 C1699 1.503 . S
C1707 C1706 1.370 . S
C1707 C1708 1.403 . S
C1708 C1707 1.403 . S
C1708 C1709 1.404 . S
C1708 C1711 1.539 . S
C1709 C1705 1.408 . S
C1709 C1708 1.404 . S
C1709 H1721 0.930 . S
C1710 C1706 1.524 . S
C1710 H1722 0.956 . S
C1710 H1723 0.961 . S
C1710 H1724 0.961 . S
C1711 C1708 1.539 . S
C1711 H1725 0.958 . S
C1711 H1726 0.961 . S
C1711 H1727 0.960 . S
H1712 C1696 0.931 . S
H1713 C1701 0.929 . S
H1714 C1702 0.960 . S
H1715 C1702 0.962 . S
H1716 C1702 0.960 . S
H1717 C1703 0.961 . S
H1718 C1703 0.961 . S
H1719 C1703 0.961 . S
H1720 C1704 0.931 . S
H1721 C1709 0.930 . S
H1722 C1710 0.956 . S
H1723 C1710 0.961 . S
H1724 C1710 0.961 . S
H1725 C1711 0.958 . S
H1726 C1711 0.961 . S
H1727 C1711 0.960 . S
C1728 C1729 1.391 . S
C1728 C1730 1.394 . S
C1728 H1744 0.931 . S
C1729 C1728 1.391 . S
C1729 C1733 1.376 . S
C1730 C1728 1.394 . S
C1730 C1731 1.369 . S
C1730 C1734 1.531 . S
C1731 C1730 1.369 . S
C1731 C1732 1.410 . S
C1731 C1739 1.503 1_556 S
C1732 C1731 1.410 . S
C1732 C1733 1.392 . S
C1732 C1735 1.511 . S
C1733 C1729 1.376 . S
C1733 C1732 1.392 . S
C1733 H1745 0.929 . S
C1734 C1730 1.531 . S
C1734 H1746 0.961 . S
C1734 H1747 0.962 1_556 S
C1734 H1748 0.960 . S
C1735 C1732 1.511 . S
C1735 H1749 0.961 . S
C1735 H1750 0.961 . S
C1735 H1751 0.961 . S
C1736 C1737 1.370 . S
C1736 C1738 1.363 . S
C1736 H1752 0.931 . S
C1737 C1736 1.370 . S
C1737 C1741 1.408 . S
C1738 C1736 1.363 . S
C1738 C1739 1.370 . S
C1738 C1742 1.524 . S
C1739 C1731 1.503 1_554 S
C1739 C1738 1.370 . S
C1739 C1740 1.403 . S
C1740 C1739 1.403 . S
C1740 C1741 1.404 . S
C1740 C1743 1.539 1_554 S
C1741 C1737 1.408 . S
C1741 C1740 1.404 . S
C1741 H1753 0.930 . S
C1742 C1738 1.524 . S
C1742 H1754 0.956 . S
C1742 H1755 0.961 . S
C1742 H1756 0.961 . S
C1743 C1740 1.539 1_556 S
C1743 H1757 0.958 . S
C1743 H1758 0.961 . S
C1743 H1759 0.960 . S
H1744 C1728 0.931 . S
H1745 C1733 0.929 . S
H1746 C1734 0.961 . S
H1747 C1734 0.962 1_554 S
H1748 C1734 0.960 . S
H1749 C1735 0.961 . S
H1750 C1735 0.961 . S
H1751 C1735 0.961 . S
H1752 C1736 0.931 . S
H1753 C1741 0.930 . S
H1754 C1742 0.956 . S
H1755 C1742 0.961 . S
H1756 C1742 0.961 . S
H1757 C1743 0.958 . S
H1758 C1743 0.961 . S
H1759 C1743 0.960 . S
C1760 C1761 1.391 . S
C1760 C1762 1.394 . S
C1760 H1776 0.931 . S
C1761 C1760 1.391 . S
C1761 C1765 1.376 . S
C1762 C1760 1.394 . S
C1762 C1763 1.369 . S
C1762 C1766 1.531 . S
C1763 C1762 1.369 . S
C1763 C1764 1.410 . S
C1763 C1771 1.503 1_554 S
C1764 C1763 1.410 . S
C1764 C1765 1.392 . S
C1764 C1767 1.511 1_554 S
C1765 C1761 1.376 . S
C1765 C1764 1.392 . S
C1765 H1777 0.929 . S
C1766 C1762 1.531 . S
C1766 H1778 0.960 . S
C1766 H1779 0.962 . S
C1766 H1780 0.960 . S
C1767 C1764 1.511 1_556 S
C1767 H1781 0.961 . S
C1767 H1782 0.961 . S
C1767 H1783 0.961 . S
C1768 C1769 1.370 . S
C1768 C1770 1.363 . S
C1768 H1784 0.931 . S
C1769 C1768 1.370 . S
C1769 C1773 1.408 . S
C1770 C1768 1.363 . S
C1770 C1771 1.370 . S
C1770 C1774 1.524 . S
C1771 C1763 1.503 1_556 S
C1771 C1770 1.370 . S
C1771 C1772 1.403 . S
C1772 C1771 1.403 . S
C1772 C1773 1.404 . S
C1772 C1775 1.539 1_556 S
C1773 C1769 1.408 . S
C1773 C1772 1.404 . S
C1773 H1785 0.930 . S
C1774 C1770 1.524 . S
C1774 H1786 0.956 . S
C1774 H1787 0.961 . S
C1774 H1788 0.961 . S
C1775 C1772 1.539 1_554 S
C1775 H1789 0.958 . S
C1775 H1790 0.972 . S
C1775 H1791 0.960 . S
H1776 C1760 0.931 . S
H1777 C1765 0.929 . S
H1778 C1766 0.960 . S
H1779 C1766 0.962 . S
H1780 C1766 0.960 . S
H1781 C1767 0.961 . S
H1782 C1767 0.961 . S
H1783 C1767 0.961 . S
H1784 C1768 0.931 . S
H1785 C1773 0.930 . S
H1786 C1774 0.956 . S
H1787 C1774 0.961 . S
H1788 C1774 0.961 . S
H1789 C1775 0.958 . S
H1790 C1775 0.972 . S
H1791 C1775 0.960 . S
C1792 C1793 1.391 . S
C1792 C1794 1.394 . S
C1792 H1808 0.931 . S
C1793 C1792 1.391 . S
C1793 C1797 1.376 . S
C1794 C1792 1.394 . S
C1794 C1795 1.369 . S
C1794 C1798 1.531 . S
C1795 C1794 1.369 . S
C1795 C1796 1.410 . S
C1795 C1803 1.503 . S
C1796 C1795 1.410 . S
C1796 C1797 1.392 . S
C1796 C1799 1.511 . S
C1797 C1793 1.376 . S
C1797 C1796 1.392 . S
C1797 H1809 0.929 . S
C1798 C1794 1.531 . S
C1798 H1810 0.960 . S
C1798 H1811 0.962 . S
C1798 H1812 0.960 . S
C1799 C1796 1.511 . S
C1799 H1813 0.961 . S
C1799 H1814 0.961 . S
C1799 H1815 0.961 . S
C1800 C1801 1.370 . S
C1800 C1802 1.363 . S
C1800 H1816 0.931 . S
C1801 C1800 1.370 . S
C1801 C1805 1.408 . S
C1802 C1800 1.363 . S
C1802 C1803 1.370 . S
C1802 C1806 1.524 . S
C1803 C1795 1.503 . S
C1803 C1802 1.370 . S
C1803 C1804 1.403 . S
C1804 C1803 1.403 . S
C1804 C1805 1.404 . S
C1804 C1807 1.539 . S
C1805 C1801 1.408 . S
C1805 C1804 1.404 . S
C1805 H1817 0.930 . S
C1806 C1802 1.524 . S
C1806 H1818 0.956 . S
C1806 H1819 0.961 . S
C1806 H1820 0.961 . S
C1807 C1804 1.539 . S
C1807 H1821 0.958 . S
C1807 H1822 0.961 . S
C1807 H1823 0.960 . S
H1808 C1792 0.931 . S
H1809 C1797 0.929 . S
H1810 C1798 0.960 . S
H1811 C1798 0.962 . S
H1812 C1798 0.960 . S
H1813 C1799 0.961 . S
H1814 C1799 0.961 . S
H1815 C1799 0.961 . S
H1816 C1800 0.931 . S
H1817 C1805 0.930 . S
H1818 C1806 0.956 . S
H1819 C1806 0.961 . S
H1820 C1806 0.961 . S
H1821 C1807 0.958 . S
H1822 C1807 0.961 . S
H1823 C1807 0.960 . S
C1824 C1825 1.391 . S
C1824 C1826 1.394 . S
C1824 H1840 0.931 . S
C1825 C1824 1.391 . S
C1825 C1829 1.376 . S
C1826 C1824 1.394 . S
C1826 C1827 1.369 . S
C1826 C1830 1.531 . S
C1827 C1826 1.369 . S
C1827 C1828 1.410 . S
C1827 C1835 1.503 . S
C1828 C1827 1.410 . S
C1828 C1829 1.392 . S
C1828 C1831 1.511 . S
C1829 C1825 1.376 . S
C1829 C1828 1.392 . S
C1829 H1841 0.929 . S
C1830 C1826 1.531 . S
C1830 H1842 0.960 . S
C1830 H1843 0.962 . S
C1830 H1844 0.960 . S
C1831 C1828 1.511 . S
C1831 H1845 0.961 . S
C1831 H1846 0.961 . S
C1831 H1847 0.961 . S
C1832 C1833 1.370 . S
C1832 C1834 1.363 . S
C1832 H1848 0.931 . S
C1833 C1832 1.370 . S
C1833 C1837 1.408 . S
C1834 C1832 1.363 . S
C1834 C1835 1.370 . S
C1834 C1838 1.524 . S
C1835 C1827 1.503 . S
C1835 C1834 1.370 . S
C1835 C1836 1.403 . S
C1836 C1835 1.403 . S
C1836 C1837 1.404 . S
C1836 C1839 1.539 . S
C1837 C1833 1.408 . S
C1837 C1836 1.404 . S
C1837 H1849 0.930 . S
C1838 C1834 1.524 . S
C1838 H1850 0.956 . S
C1838 H1851 0.961 . S
C1838 H1852 0.961 . S
C1839 C1836 1.539 . S
C1839 H1853 0.958 . S
C1839 H1854 0.961 . S
C1839 H1855 0.960 . S
H1840 C1824 0.931 . S
H1841 C1829 0.929 . S
H1842 C1830 0.960 . S
H1843 C1830 0.962 . S
H1844 C1830 0.960 . S
H1845 C1831 0.961 . S
H1846 C1831 0.961 . S
H1847 C1831 0.961 . S
H1848 C1832 0.931 . S
H1849 C1837 0.930 . S
H1850 C1838 0.956 . S
H1851 C1838 0.961 . S
H1852 C1838 0.961 . S
H1853 C1839 0.958 . S
H1854 C1839 0.961 . S
H1855 C1839 0.960 . S
C1856 C1857 1.391 . S
C1856 C1858 1.394 . S
C1856 H1872 0.931 . S
C1857 C1856 1.391 . S
C1857 C1861 1.376 . S
C1858 C1856 1.394 . S
C1858 C1859 1.369 . S
C1858 C1862 1.531 1_655 S
C1859 C1858 1.369 . S
C1859 C1860 1.410 . S
C1859 C1867 1.503 1_655 S
C1860 C1859 1.410 . S
C1860 C1861 1.392 . S
C1860 C1863 1.511 . S
C1861 C1857 1.376 . S
C1861 C1860 1.392 . S
C1861 H1873 0.929 . S
C1862 C1858 1.531 1_455 S
C1862 H1874 0.960 . S
C1862 H1875 0.962 . S
C1862 H1876 0.960 . S
C1863 C1860 1.511 . S
C1863 H1877 0.961 . S
C1863 H1878 0.961 . S
C1863 H1879 0.961 . S
C1864 C1865 1.370 . S
C1864 C1866 1.363 . S
C1864 H1880 0.931 . S
C1865 C1864 1.370 . S
C1865 C1869 1.408 . S
C1866 C1864 1.363 . S
C1866 C1867 1.370 . S
C1866 C1870 1.524 . S
C1867 C1859 1.503 1_455 S
C1867 C1866 1.370 . S
C1867 C1868 1.403 . S
C1868 C1867 1.403 . S
C1868 C1869 1.404 . S
C1868 C1871 1.539 . S
C1869 C1865 1.408 . S
C1869 C1868 1.404 . S
C1869 H1881 0.930 . S
C1870 C1866 1.524 . S
C1870 H1882 0.956 . S
C1870 H1883 0.961 1_455 S
C1870 H1884 0.961 . S
C1871 C1868 1.539 . S
C1871 H1885 0.958 . S
C1871 H1886 0.961 . S
C1871 H1887 0.960 1_455 S
H1872 C1856 0.931 . S
H1873 C1861 0.929 . S
H1874 C1862 0.960 . S
H1875 C1862 0.962 . S
H1876 C1862 0.960 . S
H1877 C1863 0.961 . S
H1878 C1863 0.961 . S
H1879 C1863 0.961 . S
H1880 C1864 0.931 . S
H1881 C1869 0.930 . S
H1882 C1870 0.956 . S
H1883 C1870 0.961 1_655 S
H1884 C1870 0.961 . S
H1885 C1871 0.958 . S
H1886 C1871 0.961 . S
H1887 C1871 0.960 1_655 S
C1888 C1889 1.391 . S
C1888 C1890 1.394 . S
C1888 H1904 0.931 . S
C1889 C1888 1.391 . S
C1889 C1893 1.376 . S
C1890 C1888 1.394 . S
C1890 C1891 1.369 . S
C1890 C1894 1.531 1_655 S
C1891 C1890 1.369 . S
C1891 C1892 1.410 . S
C1891 C1899 1.503 1_655 S
C1892 C1891 1.410 . S
C1892 C1893 1.392 . S
C1892 C1895 1.511 . S
C1893 C1889 1.376 . S
C1893 C1892 1.392 . S
C1893 H1905 0.929 . S
C1894 C1890 1.531 1_455 S
C1894 H1906 0.960 . S
C1894 H1907 0.962 . S
C1894 H1908 0.960 . S
C1895 C1892 1.511 . S
C1895 H1909 0.961 . S
C1895 H1910 0.961 . S
C1895 H1911 0.961 . S
C1896 C1897 1.370 . S
C1896 C1898 1.363 . S
C1896 H1912 0.931 . S
C1897 C1896 1.370 . S
C1897 C1901 1.408 . S
C1898 C1896 1.363 . S
C1898 C1899 1.370 . S
C1898 C1902 1.524 . S
C1899 C1891 1.503 1_455 S
C1899 C1898 1.370 . S
C1899 C1900 1.403 . S
C1900 C1899 1.403 . S
C1900 C1901 1.404 . S
C1900 C1903 1.539 . S
C1901 C1897 1.408 . S
C1901 C1900 1.404 . S
C1901 H1913 0.930 . S
C1902 C1898 1.524 . S
C1902 H1914 0.956 . S
C1902 H1915 0.961 1_455 S
C1902 H1916 0.961 . S
C1903 C1900 1.539 . S
C1903 H1917 0.958 . S
C1903 H1918 0.961 . S
C1903 H1919 0.960 1_455 S
H1904 C1888 0.931 . S
H1905 C1893 0.929 . S
H1906 C1894 0.960 . S
H1907 C1894 0.962 . S
H1908 C1894 0.960 . S
H1909 C1895 0.961 . S
H1910 C1895 0.961 . S
H1911 C1895 0.961 . S
H1912 C1896 0.931 . S
H1913 C1901 0.930 . S
H1914 C1902 0.956 . S
H1915 C1902 0.961 1_655 S
H1916 C1902 0.961 . S
H1917 C1903 0.958 . S
H1918 C1903 0.961 . S
H1919 C1903 0.960 1_655 S
C1920 C1921 1.391 . S
C1920 C1922 1.394 . S
C1920 H1936 0.931 . S
C1921 C1920 1.391 . S
C1921 C1925 1.376 . S
C1922 C1920 1.394 . S
C1922 C1923 1.369 . S
C1922 C1926 1.531 . S
C1923 C1922 1.369 . S
C1923 C1924 1.410 . S
C1923 C1931 1.503 . S
C1924 C1923 1.410 . S
C1924 C1925 1.392 . S
C1924 C1927 1.511 . S
C1925 C1921 1.376 . S
C1925 C1924 1.392 . S
C1925 H1937 0.929 . S
C1926 C1922 1.531 . S
C1926 H1938 0.960 . S
C1926 H1939 0.962 . S
C1926 H1940 0.960 . S
C1927 C1924 1.511 . S
C1927 H1941 0.961 . S
C1927 H1942 0.961 . S
C1927 H1943 0.961 . S
C1928 C1929 1.370 . S
C1928 C1930 1.363 . S
C1928 H1944 0.931 . S
C1929 C1928 1.370 . S
C1929 C1933 1.408 . S
C1930 C1928 1.363 . S
C1930 C1931 1.370 . S
C1930 C1934 1.524 . S
C1931 C1923 1.503 . S
C1931 C1930 1.370 . S
C1931 C1932 1.403 . S
C1932 C1931 1.403 . S
C1932 C1933 1.404 . S
C1932 C1935 1.539 . S
C1933 C1929 1.408 . S
C1933 C1932 1.404 . S
C1933 H1945 0.930 . S
C1934 C1930 1.524 . S
C1934 H1946 0.956 . S
C1934 H1947 0.961 . S
C1934 H1948 0.961 . S
C1935 C1932 1.539 . S
C1935 H1949 0.958 . S
C1935 H1950 0.961 . S
C1935 H1951 0.960 . S
H1936 C1920 0.931 . S
H1937 C1925 0.929 . S
H1938 C1926 0.960 . S
H1939 C1926 0.962 . S
H1940 C1926 0.960 . S
H1941 C1927 0.961 . S
H1942 C1927 0.961 . S
H1943 C1927 0.961 . S
H1944 C1928 0.931 . S
H1945 C1933 0.930 . S
H1946 C1934 0.956 . S
H1947 C1934 0.961 . S
H1948 C1934 0.961 . S
H1949 C1935 0.958 . S
H1950 C1935 0.961 . S
H1951 C1935 0.960 . S
C1952 C1953 1.391 . S
C1952 C1954 1.394 . S
C1952 H1968 0.931 . S
C1953 C1952 1.391 . S
C1953 C1957 1.376 . S
C1954 C1952 1.394 . S
C1954 C1955 1.369 . S
C1954 C1958 1.531 1_545 S
C1955 C1954 1.369 . S
C1955 C1956 1.410 . S
C1955 C1963 1.503 1_545 S
C1956 C1955 1.410 . S
C1956 C1957 1.392 . S
C1956 C1959 1.511 . S
C1957 C1953 1.376 . S
C1957 C1956 1.392 . S
C1957 H1969 0.929 . S
C1958 C1954 1.531 1_565 S
C1958 H1970 0.960 . S
C1958 H1971 0.962 . S
C1958 H1972 0.960 . S
C1959 C1956 1.511 . S
C1959 H1973 0.961 . S
C1959 H1974 0.961 . S
C1959 H1975 0.961 . S
C1960 C1961 1.370 . S
C1960 C1962 1.363 . S
C1960 H1976 0.931 . S
C1961 C1960 1.370 . S
C1961 C1965 1.408 . S
C1962 C1960 1.363 . S
C1962 C1963 1.370 . S
C1962 C1966 1.524 1_565 S
C1963 C1955 1.503 1_565 S
C1963 C1962 1.370 . S
C1963 C1964 1.403 . S
C1964 C1963 1.403 . S
C1964 C1965 1.404 . S
C1964 C1967 1.539 . S
C1965 C1961 1.408 . S
C1965 C1964 1.404 . S
C1965 H1977 0.930 . S
C1966 C1962 1.524 1_545 S
C1966 H1978 0.956 . S
C1966 H1979 0.961 . S
C1966 H1980 0.961 . S
C1967 C1964 1.539 . S
C1967 H1981 0.958 . S
C1967 H1982 0.961 . S
C1967 H1983 0.960 . S
H1968 C1952 0.931 . S
H1969 C1957 0.929 . S
H1970 C1958 0.960 . S
H1971 C1958 0.962 . S
H1972 C1958 0.960 . S
H1973 C1959 0.961 . S
H1974 C1959 0.961 . S
H1975 C1959 0.961 . S
H1976 C1960 0.931 . S
H1977 C1965 0.930 . S
H1978 C1966 0.956 . S
H1979 C1966 0.961 . S
H1980 C1966 0.961 . S
H1981 C1967 0.958 . S
H1982 C1967 0.961 . S
H1983 C1967 0.960 . S
C1984 C1985 1.391 . S
C1984 C1986 1.394 . S
C1984 H2000 0.931 . S
C1985 C1984 1.391 . S
C1985 C1989 1.376 . S
C1986 C1984 1.394 . S
C1986 C1987 1.369 . S
C1986 C1990 1.531 . S
C1987 C1986 1.369 . S
C1987 C1988 1.410 . S
C1987 C1995 1.503 . S
C1988 C1987 1.410 . S
C1988 C1989 1.392 . S
C1988 C1991 1.511 . S
C1989 C1985 1.376 . S
C1989 C1988 1.392 . S
C1989 H2001 0.929 . S
C1990 C1986 1.531 . S
C1990 H2002 0.960 . S
C1990 H2003 0.962 . S
C1990 H2004 0.960 . S
C1991 C1988 1.511 . S
C1991 H2005 0.961 . S
C1991 H2006 0.961 . S
C1991 H2007 0.961 . S
C1992 C1993 1.370 . S
C1992 C1994 1.363 . S
C1992 H2008 0.931 . S
C1993 C1992 1.370 . S
C1993 C1997 1.408 . S
C1994 C1992 1.363 . S
C1994 C1995 1.370 . S
C1994 C1998 1.524 . S
C1995 C1987 1.503 . S
C1995 C1994 1.370 . S
C1995 C1996 1.403 . S
C1996 C1995 1.403 . S
C1996 C1997 1.404 . S
C1996 C1999 1.539 . S
C1997 C1993 1.408 . S
C1997 C1996 1.404 . S
C1997 H2009 0.930 . S
C1998 C1994 1.524 . S
C1998 H2010 0.956 . S
C1998 H2011 0.961 . S
C1998 H2012 0.961 . S
C1999 C1996 1.539 . S
C1999 H2013 0.958 . S
C1999 H2014 0.961 . S
C1999 H2015 0.960 . S
H2000 C1984 0.931 . S
H2001 C1989 0.929 . S
H2002 C1990 0.960 . S
H2003 C1990 0.962 . S
H2004 C1990 0.960 . S
H2005 C1991 0.961 . S
H2006 C1991 0.961 . S
H2007 C1991 0.961 . S
H2008 C1992 0.931 . S
H2009 C1997 0.930 . S
H2010 C1998 0.956 . S
H2011 C1998 0.961 . S
H2012 C1998 0.961 . S
H2013 C1999 0.958 . S
H2014 C1999 0.961 . S
H2015 C1999 0.960 . S
C2016 C2017 1.391 . S
C2016 C2018 1.394 . S
C2016 H2032 0.931 . S
C2017 C2016 1.391 . S
C2017 C2021 1.376 . S
C2018 C2016 1.394 . S
C2018 C2019 1.369 . S
C2018 C2022 1.531 1_554 S
C2019 C2018 1.369 . S
C2019 C2020 1.410 . S
C2019 C2027 1.503 1_554 S
C2020 C2019 1.410 . S
C2020 C2021 1.392 . S
C2020 C2023 1.511 . S
C2021 C2017 1.376 . S
C2021 C2020 1.392 . S
C2021 H2033 0.929 . S
C2022 C2018 1.531 1_556 S
C2022 H2034 0.960 . S
C2022 H2035 0.962 . S
C2022 H2036 0.960 . S
C2023 C2020 1.511 . S
C2023 H2037 0.961 . S
C2023 H2038 0.961 . S
C2023 H2039 0.961 . S
C2024 C2025 1.370 . S
C2024 C2026 1.363 . S
C2024 H2040 0.931 . S
C2025 C2024 1.370 . S
C2025 C2029 1.408 . S
C2026 C2024 1.363 . S
C2026 C2027 1.370 . S
C2026 C2030 1.524 1_556 S
C2027 C2019 1.503 1_556 S
C2027 C2026 1.370 . S
C2027 C2028 1.403 . S
C2028 C2027 1.403 . S
C2028 C2029 1.404 . S
C2028 C2031 1.539 . S
C2029 C2025 1.408 . S
C2029 C2028 1.404 . S
C2029 H2041 0.930 . S
C2030 C2026 1.524 1_554 S
C2030 H2042 0.956 . S
C2030 H2043 0.961 . S
C2030 H2044 0.961 . S
C2031 C2028 1.539 . S
C2031 H2045 0.958 . S
C2031 H2046 0.961 . S
C2031 H2047 0.960 . S
H2032 C2016 0.931 . S
H2033 C2021 0.929 . S
H2034 C2022 0.960 . S
H2035 C2022 0.962 . S
H2036 C2022 0.960 . S
H2037 C2023 0.961 . S
H2038 C2023 0.961 . S
H2039 C2023 0.961 . S
H2040 C2024 0.931 . S
H2041 C2029 0.930 . S
H2042 C2030 0.956 . S
H2043 C2030 0.961 . S
H2044 C2030 0.961 . S
H2045 C2031 0.958 . S
H2046 C2031 0.961 . S
H2047 C2031 0.960 . S
C2048 C2049 1.391 . S
C2048 C2050 1.394 . S
C2048 H2064 0.931 . S
C2049 C2048 1.391 . S
C2049 C2053 1.376 . S
C2050 C2048 1.394 . S
C2050 C2051 1.369 . S
C2050 C2054 1.531 . S
C2051 C2050 1.369 . S
C2051 C2052 1.410 . S
C2051 C2059 1.503 1_556 S
C2052 C2051 1.410 . S
C2052 C2053 1.392 . S
C2052 C2055 1.511 . S
C2053 C2049 1.376 . S
C2053 C2052 1.392 . S
C2053 H2065 0.929 . S
C2054 C2050 1.531 . S
C2054 H2066 0.969 . S
C2054 H2067 0.962 1_556 S
C2054 H2068 0.960 . S
C2055 C2052 1.511 . S
C2055 H2069 0.961 . S
C2055 H2070 0.961 . S
C2055 H2071 0.961 . S
C2056 C2057 1.370 . S
C2056 C2058 1.363 . S
C2056 H2072 0.931 . S
C2057 C2056 1.370 . S
C2057 C2061 1.408 . S
C2058 C2056 1.363 . S
C2058 C2059 1.370 . S
C2058 C2062 1.524 . S
C2059 C2051 1.503 1_554 S
C2059 C2058 1.370 . S
C2059 C2060 1.403 . S
C2060 C2059 1.403 . S
C2060 C2061 1.404 . S
C2060 C2063 1.539 1_554 S
C2061 C2057 1.408 . S
C2061 C2060 1.404 . S
C2061 H2073 0.930 . S
C2062 C2058 1.524 . S
C2062 H2074 0.956 . S
C2062 H2075 0.961 . S
C2062 H2076 0.961 . S
C2063 C2060 1.539 1_556 S
C2063 H2077 0.958 . S
C2063 H2078 0.961 . S
C2063 H2079 0.960 . S
H2064 C2048 0.931 . S
H2065 C2053 0.929 . S
H2066 C2054 0.969 . S
H2067 C2054 0.962 1_554 S
H2068 C2054 0.960 . S
H2069 C2055 0.961 . S
H2070 C2055 0.961 . S
H2071 C2055 0.961 . S
H2072 C2056 0.931 . S
H2073 C2061 0.930 . S
H2074 C2062 0.956 . S
H2075 C2062 0.961 . S
H2076 C2062 0.961 . S
H2077 C2063 0.958 . S
H2078 C2063 0.961 . S
H2079 C2063 0.960 . S
C2080 C2081 1.391 . S
C2080 C2082 1.394 . S
C2080 H2096 0.931 . S
C2081 C2080 1.391 . S
C2081 C2085 1.376 . S
C2082 C2080 1.394 . S
C2082 C2083 1.369 . S
C2082 C2086 1.531 . S
C2083 C2082 1.369 . S
C2083 C2084 1.410 . S
C2083 C2091 1.503 . S
C2084 C2083 1.410 . S
C2084 C2085 1.392 . S
C2084 C2087 1.511 . S
C2085 C2081 1.376 . S
C2085 C2084 1.392 . S
C2085 H2097 0.929 . S
C2086 C2082 1.531 . S
C2086 H2098 0.960 . S
C2086 H2099 0.962 . S
C2086 H2100 0.960 . S
C2087 C2084 1.511 . S
C2087 H2101 0.961 . S
C2087 H2102 0.961 . S
C2087 H2103 0.961 . S
C2088 C2089 1.370 . S
C2088 C2090 1.363 . S
C2088 H2104 0.931 . S
C2089 C2088 1.370 . S
C2089 C2093 1.408 . S
C2090 C2088 1.363 . S
C2090 C2091 1.370 . S
C2090 C2094 1.524 . S
C2091 C2083 1.503 . S
C2091 C2090 1.370 . S
C2091 C2092 1.403 . S
C2092 C2091 1.403 . S
C2092 C2093 1.404 . S
C2092 C2095 1.539 . S
C2093 C2089 1.408 . S
C2093 C2092 1.404 . S
C2093 H2105 0.930 . S
C2094 C2090 1.524 . S
C2094 H2106 0.956 . S
C2094 H2107 0.961 . S
C2094 H2108 0.961 . S
C2095 C2092 1.539 . S
C2095 H2109 0.958 . S
C2095 H2110 0.961 . S
C2095 H2111 0.960 . S
H2096 C2080 0.931 . S
H2097 C2085 0.929 . S
H2098 C2086 0.960 . S
H2099 C2086 0.962 . S
H2100 C2086 0.960 . S
H2101 C2087 0.961 . S
H2102 C2087 0.961 . S
H2103 C2087 0.961 . S
H2104 C2088 0.931 . S
H2105 C2093 0.930 . S
H2106 C2094 0.956 . S
H2107 C2094 0.961 . S
H2108 C2094 0.961 . S
H2109 C2095 0.958 . S
H2110 C2095 0.961 . S
H2111 C2095 0.960 . S
C2112 C2113 1.391 . S
C2112 C2114 1.394 . S
C2112 H2128 0.931 . S
C2113 C2112 1.391 . S
C2113 C2117 1.376 . S
C2114 C2112 1.394 . S
C2114 C2115 1.369 . S
C2114 C2118 1.531 . S
C2115 C2114 1.369 . S
C2115 C2116 1.410 . S
C2115 C2123 1.503 . S
C2116 C2115 1.410 . S
C2116 C2117 1.392 . S
C2116 C2119 1.511 . S
C2117 C2113 1.376 . S
C2117 C2116 1.392 . S
C2117 H2129 0.929 . S
C2118 C2114 1.531 . S
C2118 H2130 0.960 . S
C2118 H2131 0.962 . S
C2118 H2132 0.960 . S
C2119 C2116 1.511 . S
C2119 H2133 0.961 . S
C2119 H2134 0.961 . S
C2119 H2135 0.961 . S
C2120 C2121 1.370 . S
C2120 C2122 1.363 . S
C2120 H2136 0.931 . S
C2121 C2120 1.370 . S
C2121 C2125 1.408 . S
C2122 C2120 1.363 . S
C2122 C2123 1.370 . S
C2122 C2126 1.524 . S
C2123 C2115 1.503 . S
C2123 C2122 1.370 . S
C2123 C2124 1.403 . S
C2124 C2123 1.403 . S
C2124 C2125 1.404 . S
C2124 C2127 1.539 . S
C2125 C2121 1.408 . S
C2125 C2124 1.404 . S
C2125 H2137 0.930 . S
C2126 C2122 1.524 . S
C2126 H2138 0.956 . S
C2126 H2139 0.961 . S
C2126 H2140 0.961 . S
C2127 C2124 1.539 . S
C2127 H2141 0.958 . S
C2127 H2142 0.961 . S
C2127 H2143 0.960 . S
H2128 C2112 0.931 . S
H2129 C2117 0.929 . S
H2130 C2118 0.960 . S
H2131 C2118 0.962 . S
H2132 C2118 0.960 . S
H2133 C2119 0.961 . S
H2134 C2119 0.961 . S
H2135 C2119 0.961 . S
H2136 C2120 0.931 . S
H2137 C2125 0.930 . S
H2138 C2126 0.956 . S
H2139 C2126 0.961 . S
H2140 C2126 0.961 . S
H2141 C2127 0.958 . S
H2142 C2127 0.961 . S
H2143 C2127 0.960 . S
C2144 C2145 1.391 . S
C2144 C2146 1.394 . S
C2144 H2160 0.931 . S
C2145 C2144 1.391 . S
C2145 C2149 1.376 . S
C2146 C2144 1.394 . S
C2146 C2147 1.369 . S
C2146 C2150 1.531 . S
C2147 C2146 1.369 . S
C2147 C2148 1.410 . S
C2147 C2155 1.503 1_455 S
C2148 C2147 1.410 . S
C2148 C2149 1.392 . S
C2148 C2151 1.511 1_455 S
C2149 C2145 1.376 . S
C2149 C2148 1.392 . S
C2149 H2161 0.929 . S
C2150 C2146 1.531 . S
C2150 H2162 0.960 . S
C2150 H2163 0.962 . S
C2150 H2164 0.960 . S
C2151 C2148 1.511 1_655 S
C2151 H2165 0.961 . S
C2151 H2166 0.961 . S
C2151 H2167 0.961 . S
C2152 C2153 1.370 . S
C2152 C2154 1.363 . S
C2152 H2168 0.931 . S
C2153 C2152 1.370 . S
C2153 C2157 1.408 . S
C2154 C2152 1.363 . S
C2154 C2155 1.370 . S
C2154 C2158 1.524 1_655 S
C2155 C2147 1.503 1_655 S
C2155 C2154 1.370 . S
C2155 C2156 1.403 . S
C2156 C2155 1.403 . S
C2156 C2157 1.404 . S
C2156 C2159 1.539 . S
C2157 C2153 1.408 . S
C2157 C2156 1.404 . S
C2157 H2169 0.930 . S
C2158 C2154 1.524 1_455 S
C2158 H2170 0.956 . S
C2158 H2171 0.960 1_455 S
C2158 H2172 0.961 1_455 S
C2159 C2156 1.539 . S
C2159 H2173 0.958 . S
C2159 H2174 0.961 . S
C2159 H2175 0.960 . S
H2160 C2144 0.931 . S
H2161 C2149 0.929 . S
H2162 C2150 0.960 . S
H2163 C2150 0.962 . S
H2164 C2150 0.960 . S
H2165 C2151 0.961 . S
H2166 C2151 0.961 . S
H2167 C2151 0.961 . S
H2168 C2152 0.931 . S
H2169 C2157 0.930 . S
H2170 C2158 0.956 . S
H2171 C2158 0.960 1_655 S
H2172 C2158 0.961 1_655 S
H2173 C2159 0.958 . S
H2174 C2159 0.961 . S
H2175 C2159 0.960 . S
C2176 C2177 1.391 . S
C2176 C2178 1.394 . S
C2176 H2192 0.931 . S
C2177 C2176 1.391 . S
C2177 C2181 1.376 . S
C2178 C2176 1.394 . S
C2178 C2179 1.369 . S
C2178 C2182 1.531 1_455 S
C2179 C2178 1.369 . S
C2179 C2180 1.410 . S
C2179 C2187 1.503 1_455 S
C2180 C2179 1.410 . S
C2180 C2181 1.392 . S
C2180 C2183 1.511 . S
C2181 C2177 1.376 . S
C2181 C2180 1.392 . S
C2181 H2193 0.929 . S
C2182 C2178 1.531 1_655 S
C2182 H2194 0.960 . S
C2182 H2195 0.962 . S
C2182 H2196 0.960 . S
C2183 C2180 1.511 . S
C2183 H2197 0.961 . S
C2183 H2198 0.961 . S
C2183 H2199 0.961 . S
C2184 C2185 1.370 . S
C2184 C2186 1.363 . S
C2184 H2200 0.931 . S
C2185 C2184 1.370 . S
C2185 C2189 1.408 . S
C2186 C2184 1.363 . S
C2186 C2187 1.370 . S
C2186 C2190 1.524 . S
C2187 C2179 1.503 1_655 S
C2187 C2186 1.370 . S
C2187 C2188 1.403 . S
C2188 C2187 1.403 . S
C2188 C2189 1.404 . S
C2188 C2191 1.539 1_655 S
C2189 C2185 1.408 . S
C2189 C2188 1.404 . S
C2189 H2201 0.930 . S
C2190 C2186 1.524 . S
C2190 H2202 0.956 . S
C2190 H2203 0.961 . S
C2190 H2204 0.961 . S
C2191 C2188 1.539 1_455 S
C2191 H2205 0.958 . S
C2191 H2206 0.961 . S
C2191 H2207 0.960 . S
H2192 C2176 0.931 . S
H2193 C2181 0.929 . S
H2194 C2182 0.960 . S
H2195 C2182 0.962 . S
H2196 C2182 0.960 . S
H2197 C2183 0.961 . S
H2198 C2183 0.961 . S
H2199 C2183 0.961 . S
H2200 C2184 0.931 . S
H2201 C2189 0.930 . S
H2202 C2190 0.956 . S
H2203 C2190 0.961 . S
H2204 C2190 0.961 . S
H2205 C2191 0.958 . S
H2206 C2191 0.961 . S
H2207 C2191 0.960 . S
C2208 C2209 1.391 . S
C2208 C2210 1.394 . S
C2208 H2224 0.931 . S
C2209 C2208 1.391 . S
C2209 C2213 1.376 . S
C2210 C2208 1.394 . S
C2210 C2211 1.369 . S
C2210 C2214 1.531 . S
C2211 C2210 1.369 . S
C2211 C2212 1.410 . S
C2211 C2219 1.503 . S
C2212 C2211 1.410 . S
C2212 C2213 1.392 . S
C2212 C2215 1.511 . S
C2213 C2209 1.376 . S
C2213 C2212 1.392 . S
C2213 H2225 0.929 . S
C2214 C2210 1.531 . S
C2214 H2226 0.960 . S
C2214 H2227 0.962 . S
C2214 H2228 0.960 . S
C2215 C2212 1.511 . S
C2215 H2229 0.961 . S
C2215 H2230 0.961 . S
C2215 H2231 0.961 . S
C2216 C2217 1.370 . S
C2216 C2218 1.363 . S
C2216 H2232 0.931 . S
C2217 C2216 1.370 . S
C2217 C2221 1.408 . S
C2218 C2216 1.363 . S
C2218 C2219 1.370 . S
C2218 C2222 1.524 . S
C2219 C2211 1.503 . S
C2219 C2218 1.370 . S
C2219 C2220 1.403 . S
C2220 C2219 1.403 . S
C2220 C2221 1.404 . S
C2220 C2223 1.539 . S
C2221 C2217 1.408 . S
C2221 C2220 1.404 . S
C2221 H2233 0.930 . S
C2222 C2218 1.524 . S
C2222 H2234 0.956 . S
C2222 H2235 0.961 . S
C2222 H2236 0.961 . S
C2223 C2220 1.539 . S
C2223 H2237 0.958 . S
C2223 H2238 0.961 . S
C2223 H2239 0.960 . S
H2224 C2208 0.931 . S
H2225 C2213 0.929 . S
H2226 C2214 0.960 . S
H2227 C2214 0.962 . S
H2228 C2214 0.960 . S
H2229 C2215 0.961 . S
H2230 C2215 0.961 . S
H2231 C2215 0.961 . S
H2232 C2216 0.931 . S
H2233 C2221 0.930 . S
H2234 C2222 0.956 . S
H2235 C2222 0.961 . S
H2236 C2222 0.961 . S
H2237 C2223 0.958 . S
H2238 C2223 0.961 . S
H2239 C2223 0.960 . S
C2240 C2241 1.391 . S
C2240 C2242 1.394 . S
C2240 H2256 0.931 . S
C2241 C2240 1.391 . S
C2241 C2245 1.376 . S
C2242 C2240 1.394 . S
C2242 C2243 1.369 . S
C2242 C2246 1.531 . S
C2243 C2242 1.369 . S
C2243 C2244 1.410 . S
C2243 C2251 1.503 . S
C2244 C2243 1.410 . S
C2244 C2245 1.392 . S
C2244 C2247 1.511 . S
C2245 C2241 1.376 . S
C2245 C2244 1.392 . S
C2245 H2257 0.929 . S
C2246 C2242 1.531 . S
C2246 H2258 0.960 . S
C2246 H2259 0.962 . S
C2246 H2260 0.960 . S
C2247 C2244 1.511 . S
C2247 H2261 0.961 . S
C2247 H2262 0.961 . S
C2247 H2263 0.961 . S
C2248 C2249 1.370 . S
C2248 C2250 1.363 . S
C2248 H2264 0.931 . S
C2249 C2248 1.370 . S
C2249 C2253 1.408 . S
C2250 C2248 1.363 . S
C2250 C2251 1.370 . S
C2250 C2254 1.524 . S
C2251 C2243 1.503 . S
C2251 C2250 1.370 . S
C2251 C2252 1.403 . S
C2252 C2251 1.403 . S
C2252 C2253 1.404 . S
C2252 C2255 1.539 . S
C2253 C2249 1.408 . S
C2253 C2252 1.404 . S
C2253 H2265 0.930 . S
C2254 C2250 1.524 . S
C2254 H2266 0.956 . S
C2254 H2267 0.961 . S
C2254 H2268 0.961 . S
C2255 C2252 1.539 . S
C2255 H2269 0.958 . S
C2255 H2270 0.961 . S
C2255 H2271 0.960 . S
H2256 C2240 0.931 . S
H2257 C2245 0.929 . S
H2258 C2246 0.960 . S
H2259 C2246 0.962 . S
H2260 C2246 0.960 . S
H2261 C2247 0.961 . S
H2262 C2247 0.961 . S
H2263 C2247 0.961 . S
H2264 C2248 0.931 . S
H2265 C2253 0.930 . S
H2266 C2254 0.956 . S
H2267 C2254 0.961 . S
H2268 C2254 0.961 . S
H2269 C2255 0.958 . S
H2270 C2255 0.961 . S
H2271 C2255 0.960 . S
C2272 C2273 1.391 . S
C2272 C2274 1.394 . S
C2272 H2288 0.931 . S
C2273 C2272 1.391 . S
C2273 C2277 1.376 . S
C2274 C2272 1.394 . S
C2274 C2275 1.369 . S
C2274 C2278 1.531 1_545 S
C2275 C2274 1.369 . S
C2275 C2276 1.410 . S
C2275 C2283 1.503 1_545 S
C2276 C2275 1.410 . S
C2276 C2277 1.392 . S
C2276 C2279 1.511 . S
C2277 C2273 1.376 . S
C2277 C2276 1.392 . S
C2277 H2289 0.929 . S
C2278 C2274 1.531 1_565 S
C2278 H2290 0.960 . S
C2278 H2291 0.962 . S
C2278 H2292 0.960 . S
C2279 C2276 1.511 . S
C2279 H2293 0.961 . S
C2279 H2294 0.961 . S
C2279 H2295 0.961 . S
C2280 C2281 1.370 . S
C2280 C2282 1.363 . S
C2280 H2296 0.931 . S
C2281 C2280 1.370 . S
C2281 C2285 1.408 . S
C2282 C2280 1.363 . S
C2282 C2283 1.370 . S
C2282 C2286 1.524 . S
C2283 C2275 1.503 1_565 S
C2283 C2282 1.370 . S
C2283 C2284 1.403 . S
C2284 C2283 1.403 . S
C2284 C2285 1.404 . S
C2284 C2287 1.539 . S
C2285 C2281 1.408 . S
C2285 C2284 1.404 . S
C2285 H2297 0.930 . S
C2286 C2282 1.524 . S
C2286 H2298 0.956 . S
C2286 H2299 0.961 1_565 S
C2286 H2300 0.961 . S
C2287 C2284 1.539 . S
C2287 H2301 0.958 . S
C2287 H2302 0.961 . S
C2287 H2303 0.960 1_565 S
H2288 C2272 0.931 . S
H2289 C2277 0.929 . S
H2290 C2278 0.960 . S
H2291 C2278 0.962 . S
H2292 C2278 0.960 . S
H2293 C2279 0.961 . S
H2294 C2279 0.961 . S
H2295 C2279 0.961 . S
H2296 C2280 0.931 . S
H2297 C2285 0.930 . S
H2298 C2286 0.956 . S
H2299 C2286 0.961 1_545 S
H2300 C2286 0.961 . S
H2301 C2287 0.958 . S
H2302 C2287 0.961 . S
H2303 C2287 0.960 1_545 S
C2304 C2305 1.391 . S
C2304 C2306 1.394 . S
C2304 H2320 0.931 . S
C2305 C2304 1.391 . S
C2305 C2309 1.376 . S
C2306 C2304 1.394 . S
C2306 C2307 1.369 . S
C2306 C2310 1.531 . S
C2307 C2306 1.369 . S
C2307 C2308 1.410 . S
C2307 C2315 1.503 . S
C2308 C2307 1.410 . S
C2308 C2309 1.392 . S
C2308 C2311 1.511 . S
C2309 C2305 1.376 . S
C2309 C2308 1.392 . S
C2309 H2321 0.929 . S
C2310 C2306 1.531 . S
C2310 H2322 0.960 . S
C2310 H2323 0.962 . S
C2310 H2324 0.960 . S
C2311 C2308 1.511 . S
C2311 H2325 0.961 . S
C2311 H2326 0.961 . S
C2311 H2327 0.961 . S
C2312 C2313 1.370 . S
C2312 C2314 1.363 . S
C2312 H2328 0.931 . S
C2313 C2312 1.370 . S
C2313 C2317 1.408 . S
C2314 C2312 1.363 . S
C2314 C2315 1.370 . S
C2314 C2318 1.524 . S
C2315 C2307 1.503 . S
C2315 C2314 1.370 . S
C2315 C2316 1.403 . S
C2316 C2315 1.403 . S
C2316 C2317 1.404 . S
C2316 C2319 1.539 . S
C2317 C2313 1.408 . S
C2317 C2316 1.404 . S
C2317 H2329 0.930 . S
C2318 C2314 1.524 . S
C2318 H2330 0.956 . S
C2318 H2331 0.961 . S
C2318 H2332 0.961 . S
C2319 C2316 1.539 . S
C2319 H2333 0.958 . S
C2319 H2334 0.961 . S
C2319 H2335 0.960 . S
H2320 C2304 0.931 . S
H2321 C2309 0.929 . S
H2322 C2310 0.960 . S
H2323 C2310 0.962 . S
H2324 C2310 0.960 . S
H2325 C2311 0.961 . S
H2326 C2311 0.961 . S
H2327 C2311 0.961 . S
H2328 C2312 0.931 . S
H2329 C2317 0.930 . S
H2330 C2318 0.956 . S
H2331 C2318 0.961 . S
H2332 C2318 0.961 . S
H2333 C2319 0.958 . S
H2334 C2319 0.961 . S
H2335 C2319 0.960 . S
C2336 C2337 1.391 . S
C2336 C2338 1.394 . S
C2336 H2352 0.931 . S
C2337 C2336 1.391 . S
C2337 C2341 1.376 . S
C2338 C2336 1.394 . S
C2338 C2339 1.369 . S
C2338 C2342 1.531 . S
C2339 C2338 1.369 . S
C2339 C2340 1.410 . S
C2339 C2347 1.503 . S
C2340 C2339 1.410 . S
C2340 C2341 1.392 . S
C2340 C2343 1.511 . S
C2341 C2337 1.376 . S
C2341 C2340 1.392 . S
C2341 H2353 0.929 . S
C2342 C2338 1.531 . S
C2342 H2354 0.960 . S
C2342 H2355 0.962 . S
C2342 H2356 0.960 . S
C2343 C2340 1.511 . S
C2343 H2357 0.961 . S
C2343 H2358 0.961 . S
C2343 H2359 0.961 . S
C2344 C2345 1.370 . S
C2344 C2346 1.363 . S
C2344 H2360 0.931 . S
C2345 C2344 1.370 . S
C2345 C2349 1.408 . S
C2346 C2344 1.363 . S
C2346 C2347 1.370 . S
C2346 C2350 1.524 . S
C2347 C2339 1.503 . S
C2347 C2346 1.370 . S
C2347 C2348 1.403 . S
C2348 C2347 1.403 . S
C2348 C2349 1.404 . S
C2348 C2351 1.539 . S
C2349 C2345 1.408 . S
C2349 C2348 1.404 . S
C2349 H2361 0.930 . S
C2350 C2346 1.524 . S
C2350 H2362 0.956 . S
C2350 H2363 0.961 . S
C2350 H2364 0.961 . S
C2351 C2348 1.539 . S
C2351 H2365 0.958 . S
C2351 H2366 0.961 . S
C2351 H2367 0.960 . S
H2352 C2336 0.931 . S
H2353 C2341 0.929 . S
H2354 C2342 0.960 . S
H2355 C2342 0.962 . S
H2356 C2342 0.960 . S
H2357 C2343 0.961 . S
H2358 C2343 0.961 . S
H2359 C2343 0.961 . S
H2360 C2344 0.931 . S
H2361 C2349 0.930 . S
H2362 C2350 0.956 . S
H2363 C2350 0.961 . S
H2364 C2350 0.961 . S
H2365 C2351 0.958 . S
H2366 C2351 0.961 . S
H2367 C2351 0.960 . S
C2368 C2369 1.391 . S
C2368 C2370 1.394 . S
C2368 H2384 0.931 . S
C2369 C2368 1.391 . S
C2369 C2373 1.376 . S
C2370 C2368 1.394 . S
C2370 C2371 1.369 . S
C2370 C2374 1.531 . S
C2371 C2370 1.369 . S
C2371 C2372 1.410 . S
C2371 C2379 1.503 1_545 S
C2372 C2371 1.410 . S
C2372 C2373 1.392 . S
C2372 C2375 1.511 . S
C2373 C2369 1.376 . S
C2373 C2372 1.392 . S
C2373 H2385 0.929 . S
C2374 C2370 1.531 . S
C2374 H2386 0.960 . S
C2374 H2387 0.962 . S
C2374 H2388 0.960 . S
C2375 C2372 1.511 . S
C2375 H2389 0.963 . S
C2375 H2390 0.961 1_545 S
C2375 H2391 0.961 . S
C2376 C2377 1.370 . S
C2376 C2378 1.363 . S
C2376 H2392 0.931 . S
C2377 C2376 1.370 . S
C2377 C2381 1.408 . S
C2378 C2376 1.363 . S
C2378 C2379 1.370 . S
C2378 C2382 1.524 . S
C2379 C2371 1.503 1_565 S
C2379 C2378 1.370 . S
C2379 C2380 1.403 . S
C2380 C2379 1.403 . S
C2380 C2381 1.404 . S
C2380 C2383 1.539 1_565 S
C2381 C2377 1.408 . S
C2381 C2380 1.404 . S
C2381 H2393 0.930 . S
C2382 C2378 1.524 . S
C2382 H2394 0.956 . S
C2382 H2395 0.961 . S
C2382 H2396 0.961 . S
C2383 C2380 1.539 1_545 S
C2383 H2397 0.958 . S
C2383 H2398 0.961 . S
C2383 H2399 0.960 . S
H2384 C2368 0.931 . S
H2385 C2373 0.929 . S
H2386 C2374 0.960 . S
H2387 C2374 0.962 . S
H2388 C2374 0.960 . S
H2389 C2375 0.963 . S
H2390 C2375 0.961 1_565 S
H2391 C2375 0.961 . S
H2392 C2376 0.931 . S
H2393 C2381 0.930 . S
H2394 C2382 0.956 . S
H2395 C2382 0.961 . S
H2396 C2382 0.961 . S
H2397 C2383 0.958 . S
H2398 C2383 0.961 . S
H2399 C2383 0.960 . S
C2400 C2401 1.391 . S
C2400 C2402 1.394 . S
C2400 H2416 0.931 . S
C2401 C2400 1.391 . S
C2401 C2405 1.376 . S
C2402 C2400 1.394 . S
C2402 C2403 1.369 . S
C2402 C2406 1.531 . S
C2403 C2402 1.369 . S
C2403 C2404 1.410 . S
C2403 C2411 1.503 . S
C2404 C2403 1.410 . S
C2404 C2405 1.392 . S
C2404 C2407 1.511 . S
C2405 C2401 1.376 . S
C2405 C2404 1.392 . S
C2405 H2417 0.929 . S
C2406 C2402 1.531 . S
C2406 H2418 0.960 . S
C2406 H2419 0.962 . S
C2406 H2420 0.960 . S
C2407 C2404 1.511 . S
C2407 H2421 0.961 . S
C2407 H2422 0.961 . S
C2407 H2423 0.961 . S
C2408 C2409 1.370 . S
C2408 C2410 1.363 . S
C2408 H2424 0.931 . S
C2409 C2408 1.370 . S
C2409 C2413 1.408 . S
C2410 C2408 1.363 . S
C2410 C2411 1.370 . S
C2410 C2414 1.524 . S
C2411 C2403 1.503 . S
C2411 C2410 1.370 . S
C2411 C2412 1.403 . S
C2412 C2411 1.403 . S
C2412 C2413 1.404 . S
C2412 C2415 1.539 . S
C2413 C2409 1.408 . S
C2413 C2412 1.404 . S
C2413 H2425 0.930 . S
C2414 C2410 1.524 . S
C2414 H2426 0.956 . S
C2414 H2427 0.961 . S
C2414 H2428 0.961 . S
C2415 C2412 1.539 . S
C2415 H2429 0.958 . S
C2415 H2430 0.961 . S
C2415 H2431 0.960 . S
H2416 C2400 0.931 . S
H2417 C2405 0.929 . S
H2418 C2406 0.960 . S
H2419 C2406 0.962 . S
H2420 C2406 0.960 . S
H2421 C2407 0.961 . S
H2422 C2407 0.961 . S
H2423 C2407 0.961 . S
H2424 C2408 0.931 . S
H2425 C2413 0.930 . S
H2426 C2414 0.956 . S
H2427 C2414 0.961 . S
H2428 C2414 0.961 . S
H2429 C2415 0.958 . S
H2430 C2415 0.961 . S
H2431 C2415 0.960 . S
C1409 C29 0.662 . S
C1417 C1201 0.657 . S
C1441 C108 0.651 . S
C1449 C821 0.653 . S
C1473 C1252 0.637 . S
C1481 C225 0.640 . S
C1505 C321 0.648 . S
C1513 C1349 0.641 . S
C1537 C372 0.652 . S
C1545 C557 0.655 . S
C1569 C909 0.652 . S
C1577 C489 0.655 . S
C1601 C1017 0.640 . S
C1609 C636 0.639 . S
C1633 C733 0.643 . S
C1641 C1113 0.639 . S
C1665 C196 1.719 . S
C1673 C57 1.733 . S
C1697 C137 1.738 . S
C1705 C293 1.720 . S
C1729 C1076 1.716 . S
C1737 C49 1.742 . S
C1761 C145 1.727 . S
C1769 C997 1.740 . S
C1793 C409 1.723 . S
C1801 C205 1.736 . S
C1825 C929 1.736 . S
C1833 C284 1.731 . S
C1857 C117 1.723 . S
C1865 C20 1.733 . S
C1889 C313 1.686 . S
C1897 C233 1.697 . S
C1921 C900 1.734 . S
C1929 C381 1.731 . S
C1953 C645 1.730 . S
C1961 C469 1.715 . S
C1985 C577 1.703 . S
C1993 C724 1.720 . S
C2017 C1369 1.731 . S
C2025 C460 1.718 . S
C2049 C585 1.696 . S
C2057 C1289 1.734 . S
C2081 C849 1.708 . S
C2089 C673 1.732 . S
C2113 C753 1.718 . S
C2121 C1173 1.724 . S
C2145 C548 1.729 . S
C2153 C497 1.731 . S
C2177 C761 1.726 . S
C2185 C665 1.745 . S
C2209 C812 1.743 . S
C2217 C1193 1.729 . S
C2241 C937 1.735 . S
C2249 C988 1.721 . S
C2273 C1085 1.715 . S
C2281 C401 1.728 . S
C2305 C1105 1.681 . S
C2313 C1025 1.699 . S
C2337 C1261 1.727 . S
C2345 C1164 1.718 . S
C2369 C841 1.698 . S
C2377 C1340 1.723 . S
C2401 C1377 1.714 . S
C2409 C1281 1.742 . S
