# Generated by pormake.
# Topology smk, (6)-cn, num edge types: 1
# Building blocks:
#     Node 0, Type 0, BuildingBlock: MIDCAF_clean_sbu_0, # of connection points: 6
#     Node 1, Type 0, BuildingBlock: MIDCAF_clean_sbu_0, # of connection points: 6
#     Node 2, Type 0, BuildingBlock: MIDCAF_clean_sbu_0, # of connection points: 6
#     Node 3, Type 0, BuildingBlock: MIDCAF_clean_sbu_0, # of connection points: 6
#     Node 4, Type 0, BuildingBlock: MIDCAF_clean_sbu_0, # of connection points: 6
#     Node 5, Type 0, BuildingBlock: MIDCAF_clean_sbu_0, # of connection points: 6
#     Edge 6, Type (0, 0), BuildingBlock: FUNLAD_clean_linker_0, # of connection points: 2
#     Edge 7, Type (0, 0), BuildingBlock: FUNLAD_clean_linker_0, # of connection points: 2
#     Edge 8, Type (0, 0), BuildingBlock: FUNLAD_clean_linker_0, # of connection points: 2
#     Edge 9, Type (0, 0), BuildingBlock: FUNLAD_clean_linker_0, # of connection points: 2
#     Edge 10, Type (0, 0), BuildingBlock: FUNLAD_clean_linker_0, # of connection points: 2
#     Edge 11, Type (0, 0), BuildingBlock: FUNLAD_clean_linker_0, # of connection points: 2
#     Edge 12, Type (0, 0), BuildingBlock: FUNLAD_clean_linker_0, # of connection points: 2
#     Edge 13, Type (0, 0), BuildingBlock: FUNLAD_clean_linker_0, # of connection points: 2
#     Edge 14, Type (0, 0), BuildingBlock: FUNLAD_clean_linker_0, # of connection points: 2
#     Edge 15, Type (0, 0), BuildingBlock: FUNLAD_clean_linker_0, # of connection points: 2
#     Edge 16, Type (0, 0), BuildingBlock: FUNLAD_clean_linker_0, # of connection points: 2
#     Edge 17, Type (0, 0), BuildingBlock: FUNLAD_clean_linker_0, # of connection points: 2
#     Edge 18, Type (0, 0), BuildingBlock: FUNLAD_clean_linker_0, # of connection points: 2
#     Edge 19, Type (0, 0), BuildingBlock: FUNLAD_clean_linker_0, # of connection points: 2
#     Edge 20, Type (0, 0), BuildingBlock: FUNLAD_clean_linker_0, # of connection points: 2
#     Edge 21, Type (0, 0), BuildingBlock: FUNLAD_clean_linker_0, # of connection points: 2
#     Edge 22, Type (0, 0), BuildingBlock: FUNLAD_clean_linker_0, # of connection points: 2
#     Edge 23, Type (0, 0), BuildingBlock: FUNLAD_clean_linker_0, # of connection points: 2
# Relax obj value: 0.124
# Max RMSD: 0.126
# Mean RMSD: 0.126
data_MOF--net-smk--node1-MIDCAF_clean_sbu_0--edge1-FUNLAD_clean_linker_0
_symmetry_space_group_name_H-M    P1
_symmetry_Int_Tables_number       1
_symmetry_cell_setting            triclinic
loop_
_symmetry_equiv_pos_as_xyz
'x, y, z'
_cell_length_a     48.348486
_cell_length_b     48.228663
_cell_length_c     17.250123
_cell_angle_alpha  89.824462
_cell_angle_beta   90.108033
_cell_angle_gamma 119.8875
loop_
_atom_site_label
_atom_site_type_symbol
_atom_site_fract_x
_atom_site_fract_y
_atom_site_fract_z
_atom_type_partial_charge
Zn0 Zn 0.4351 0.25343 0.48149 0.0
Zn1 Zn 0.42552 0.17805 0.6689 0.0
Zn2 Zn 0.42846 0.21577 0.57478 0.0
C3 C 0.38743 0.19888 0.72977 0.0
C4 C 0.4878 0.22106 0.67625 0.0
O5 O 0.40609 0.18958 0.46379 0.0
O6 O 0.40045 0.2277 0.4089 0.0
C7 C 0.40623 0.26813 0.59006 0.0
O8 O 0.40174 0.2197 0.67569 0.0
O9 O 0.39023 0.17432 0.73299 0.0
O10 O 0.46763 0.19902 0.71884 0.0
O11 O 0.47816 0.22981 0.61588 0.0
O12 O 0.42749 0.28362 0.54019 0.0
O13 O 0.4018 0.24068 0.61264 0.0
O14 O 0.4806 0.2495 0.5537 0.0
O15 O 0.47848 0.26953 0.44033 0.0
C16 C 0.49476 0.26679 0.49361 0.0
O17 O 0.40203 0.16655 0.52376 0.0
O18 O 0.41515 0.14035 0.60692 0.0
C19 C 0.39525 0.19942 0.40809 0.0
C20 C 0.40087 0.14041 0.54584 0.0
Zn21 Zn 0.15986 0.43193 0.62047 0.0
Zn22 Zn 0.26306 0.44814 0.82559 0.0
Zn23 Zn 0.21721 0.4363 0.7595 0.0
C24 C 0.21946 0.4328 0.93932 0.0
C25 C 0.28181 0.50369 0.7643 0.0
O26 O 0.2137 0.40854 0.65371 0.0
O27 O 0.1777 0.40741 0.56804 0.0
C28 C 0.15275 0.40511 0.78539 0.0
O29 O 0.20172 0.41984 0.87951 0.0
O30 O 0.24869 0.45269 0.92988 0.0
O31 O 0.2958 0.48781 0.77458 0.0
O32 O 0.25107 0.48899 0.7632 0.0
O33 O 0.16318 0.42017 0.72364 0.0
O34 O 0.17429 0.4089 0.83332 0.0
O35 O 0.22289 0.48251 0.71426 0.0
O36 O 0.18907 0.47946 0.61997 0.0
C37 C 0.21268 0.49561 0.66469 0.0
O38 O 0.23506 0.40581 0.70787 0.0
O39 O 0.26341 0.40789 0.80986 0.0
C40 C 0.19836 0.39979 0.58855 0.0
C41 C 0.2506 0.39504 0.7464 0.0
Zn42 Zn 0.75175 0.1854 0.82138 0.0
Zn43 Zn 0.83587 0.26111 -0.00487 0.0
Zn44 Zn 0.79286 0.22192 0.91007 0.0
C45 C 0.80271 0.20626 0.08252 0.0
C46 C 0.7987 0.28797 0.96498 0.0
O47 O 0.8171 0.22583 0.79931 0.0
O48 O 0.7744 0.20564 0.72459 0.0
C49 C 0.75962 0.14618 0.9218 0.0
O50 O 0.78955 0.19498 0.0165 0.0
O51 O 0.82238 0.23563 0.09037 0.0
O52 O 0.82692 0.29669 0.98563 0.0
O53 O 0.78065 0.25944 0.93915 0.0
O54 O 0.75062 0.14536 0.8528 0.0
O55 O 0.77283 0.17283 0.95921 0.0
O56 O 0.75598 0.23647 0.89137 0.0
O57 O 0.71556 0.19205 0.84476 0.0
C58 C 0.72663 0.22024 0.86915 0.0
O59 O 0.84095 0.24076 0.85279 0.0
O60 O 0.87466 0.26549 0.94872 0.0
C61 C 0.80431 0.22022 0.73158 0.0
C62 C 0.86961 0.25517 0.88027 0.0
Zn63 Zn 0.5676 0.71801 0.92805 0.0
Zn64 Zn 0.57512 0.82337 0.17583 0.0
Zn65 Zn 0.57142 0.78871 0.07189 0.0
C66 C 0.60321 0.79126 0.23564 0.0
C67 C 0.51109 0.78598 0.15639 0.0
O68 O 0.59705 0.81431 0.96599 0.0
O69 O 0.58079 0.76435 0.95149 0.0
C70 C 0.59776 0.73288 0.08889 0.0
O71 O 0.59113 0.77553 0.17268 0.0
O72 O 0.6028 0.81679 0.24793 0.0
O73 O 0.52992 0.80463 0.20708 0.0
O74 O 0.52205 0.7782 0.09744 0.0
O75 O 0.58969 0.71631 0.02636 0.0
O76 O 0.59194 0.75607 0.10304 0.0
O77 O 0.52084 0.75943 0.03644 0.0
O78 O 0.54589 0.73973 0.97796 0.0
C79 C 0.51948 0.73822 0.9904 0.0
O80 O 0.60275 0.83794 0.02519 0.0
O81 O 0.59461 0.86398 0.11909 0.0
C82 C 0.59512 0.7921 0.92238 0.0
C83 C 0.60708 0.86434 0.05467 0.0
Zn84 Zn 0.82518 0.56525 0.1727 0.0
Zn85 Zn 0.71807 0.56564 0.32842 0.0
Zn86 Zn 0.78578 0.57323 0.24756 0.0
C87 C 0.78817 0.59758 0.39774 0.0
C88 C 0.71576 0.50655 0.29735 0.0
O89 O 0.78917 0.59855 0.13853 0.0
O90 O 0.82737 0.59259 0.08532 0.0
C91 C 0.8608 0.60059 0.293 0.0
O92 O 0.80955 0.59738 0.35513 0.0
O93 O 0.76063 0.58501 0.37042 0.0
O94 O 0.6998 0.51979 0.31587 0.0
O95 O 0.74539 0.52297 0.27544 0.0
O96 O 0.86244 0.58382 0.23937 0.0
O97 O 0.83426 0.60014 0.30616 0.0
O98 O 0.76829 0.52118 0.22708 0.0
O99 O 0.8052 0.51937 0.15549 0.0
C100 C 0.77874 0.50512 0.18975 0.0
O101 O 0.76631 0.60183 0.18919 0.0
O102 O 0.7188 0.59044 0.23862 0.0
C103 C 0.8089 0.604 0.08284 0.0
C104 C 0.74139 0.6053 0.1909 0.0
Zn105 Zn 0.24337 0.83206 0.31712 0.0
Zn106 Zn 0.15018 0.7119 0.54376 0.0
Zn107 Zn 0.21412 0.79059 0.41458 0.0
C108 C 0.19048 0.78684 0.56397 0.0
C109 C 0.21956 0.74088 0.48473 0.0
O110 O 0.18231 0.77484 0.31458 0.0
O111 O 0.21488 0.81037 0.22966 0.0
C112 C 0.23341 0.86382 0.4364 0.0
O113 O 0.20978 0.81109 0.52392 0.0
O114 O 0.17962 0.76012 0.53055 0.0
O115 O 0.19335 0.73982 0.49656 0.0
O116 O 0.23924 0.76414 0.44291 0.0
O117 O 0.24097 0.8676 0.36566 0.0
O118 O 0.22465 0.83673 0.46965 0.0
O119 O 0.25735 0.78774 0.38837 0.0
O120 O 0.28401 0.83109 0.31649 0.0
C121 C 0.28243 0.80689 0.34937 0.0
O122 O 0.16198 0.75479 0.38047 0.0
O123 O 0.12561 0.71031 0.44695 0.0
C124 C 0.18876 0.78562 0.24496 0.0
C125 C 0.13379 0.72955 0.38896 0.0
C126 C 0.35669 0.18157 0.30008 0.0
C127 C 0.38339 0.18223 0.33431 0.0
C128 C 0.35337 0.18092 0.21937 0.0
C129 C 0.37695 0.18112 0.17116 0.0
C130 C 0.40169 0.1781 0.20604 0.0
C131 C 0.40481 0.17849 0.28688 0.0
C132 C 0.37889 0.18801 0.08611 0.0
C133 C 0.3567 0.19065 0.04403 0.0
C134 C 0.36159 0.19877 0.96017 0.0
C135 C 0.33786 0.17953 0.90673 0.0
C136 C 0.34464 0.18266 0.82724 0.0
C137 C 0.37486 0.20581 0.80005 0.0
H138 H 0.40905 0.23969 0.9726 0.0
C139 C 0.39703 0.22777 0.85283 0.0
C140 C 0.39062 0.22404 0.93247 0.0
H141 H 0.42073 0.24538 0.83353 0.0
H142 H 0.3401 0.18494 0.33548 0.0
H143 H 0.33367 0.18285 0.1959 0.0
H144 H 0.4201 0.17789 0.17071 0.0
H145 H 0.42603 0.17972 0.31156 0.0
H146 H 0.40039 0.1919 0.05649 0.0
H147 H 0.33381 0.18467 0.06885 0.0
H148 H 0.31514 0.1602 0.92677 0.0
H149 H 0.32741 0.16503 0.78784 0.0
C150 C 0.1837 0.35965 0.486 0.0
C151 C 0.20787 0.38503 0.52813 0.0
C152 C 0.18807 0.35604 0.40759 0.0
C153 C 0.21661 0.37805 0.37081 0.0
C154 C 0.24252 0.39973 0.41626 0.0
C155 C 0.23813 0.40331 0.49481 0.0
C156 C 0.21831 0.38332 0.28602 0.0
C157 C 0.19294 0.37937 0.2444 0.0
C158 C 0.19702 0.39444 0.16756 0.0
C159 C 0.17599 0.37775 0.10676 0.0
C160 C 0.1817 0.39114 0.03232 0.0
C161 C 0.20811 0.4216 0.01865 0.0
H162 H 0.2374 0.43986 0.20206 0.0
C163 C 0.22717 0.43937 0.08149 0.0
C164 C 0.22175 0.42589 0.15514 0.0
H165 H 0.24735 0.46318 0.07307 0.0
H166 H 0.1602 0.34518 0.51104 0.0
H167 H 0.16812 0.33806 0.3747 0.0
H168 H 0.26498 0.41656 0.38936 0.0
H169 H 0.257 0.42321 0.52616 0.0
H170 H 0.2419 0.3959 0.25984 0.0
H171 H 0.16902 0.36698 0.26843 0.0
H172 H 0.15623 0.35377 0.11591 0.0
H173 H 0.16674 0.37688 0.98496 0.0
C174 C 0.81982 0.18301 0.18508 0.0
C175 C 0.7952 0.18642 0.15179 0.0
C176 C 0.82127 0.1802 0.2653 0.0
C177 C 0.79814 0.18105 0.3128 0.0
C178 C 0.77116 0.17974 0.27831 0.0
C179 C 0.76976 0.18258 0.19803 0.0
C180 C 0.80327 0.18781 0.39679 0.0
C181 C 0.83239 0.20496 0.42932 0.0
C182 C 0.83506 0.21792 0.50786 0.0
C183 C 0.84722 0.20797 0.56911 0.0
C184 C 0.84123 0.21291 0.64581 0.0
C185 C 0.82315 0.22779 0.6606 0.0
H186 H 0.81218 0.24519 0.47651 0.0
C187 C 0.81508 0.24157 0.59939 0.0
C188 C 0.82105 0.23671 0.52334 0.0
H189 H 0.8012 0.25321 0.60995 0.0
H190 H 0.83978 0.18616 0.15008 0.0
H191 H 0.8417 0.17987 0.28996 0.0
H192 H 0.75277 0.17994 0.31375 0.0
H193 H 0.75086 0.18574 0.17345 0.0
H194 H 0.78239 0.18253 0.43143 0.0
H195 H 0.85412 0.21126 0.39772 0.0
H196 H 0.85845 0.19378 0.55782 0.0
H197 H 0.84746 0.20198 0.69256 0.0
C198 C 0.58407 0.75791 0.3522 0.0
C199 C 0.60996 0.77719 0.30365 0.0
C200 C 0.58862 0.75686 0.43204 0.0
C201 C 0.61928 0.77439 0.46426 0.0
C202 C 0.64559 0.79049 0.41459 0.0
C203 C 0.64091 0.7924 0.33488 0.0
C204 C 0.62359 0.77828 0.54955 0.0
C205 C 0.60788 0.78974 0.59131 0.0
C206 C 0.61025 0.79389 0.67712 0.0
C207 C 0.6034 0.81627 0.71135 0.0
C208 C 0.60119 0.81781 0.79217 0.0
C209 C 0.60499 0.79639 0.84007 0.0
H210 H 0.62078 0.75595 0.70162 0.0
C211 C 0.61315 0.77495 0.80612 0.0
C212 C 0.61598 0.77383 0.72564 0.0
H213 H 0.61602 0.75801 0.84177 0.0
H214 H 0.5599 0.74668 0.32994 0.0
H215 H 0.56799 0.7439 0.46916 0.0
H216 H 0.66947 0.80395 0.43823 0.0
H217 H 0.66114 0.80809 0.299 0.0
H218 H 0.64133 0.77392 0.57684 0.0
H219 H 0.59268 0.79685 0.56079 0.0
H220 H 0.5987 0.8319 0.67531 0.0
H221 H 0.59442 0.83423 0.81668 0.0
C222 C 0.81976 0.617 0.52242 0.0
C223 C 0.79295 0.61027 0.4774 0.0
C224 C 0.82027 0.624 0.60168 0.0
C225 C 0.79391 0.62423 0.63627 0.0
C226 C 0.76804 0.61899 0.59005 0.0
C227 C 0.76769 0.61248 0.51173 0.0
C228 C 0.79051 0.62575 0.72121 0.0
C229 C 0.81521 0.6425 0.76915 0.0
C230 C 0.81267 0.63915 0.85512 0.0
C231 C 0.84078 0.64817 0.89673 0.0
C232 C 0.83948 0.63944 0.97419 0.0
C233 C 0.81002 0.62172 0.01213 0.0
H234 H 0.76113 0.61849 0.86695 0.0
C235 C 0.78206 0.61589 0.97379 0.0
C236 C 0.78333 0.62459 0.89564 0.0
H237 H 0.75908 0.60238 0.00199 0.0
H238 H 0.83944 0.61534 0.49756 0.0
H239 H 0.84038 0.62737 0.6364 0.0
H240 H 0.74747 0.61894 0.61514 0.0
H241 H 0.7467 0.60778 0.47875 0.0
H242 H 0.76659 0.61152 0.74421 0.0
H243 H 0.83885 0.65691 0.74428 0.0
H244 H 0.86374 0.65992 0.86785 0.0
H245 H 0.86148 0.64456 0.00292 0.0
C246 C 0.18316 0.75457 0.12882 0.0
C247 C 0.16947 0.76735 0.17864 0.0
C248 C 0.17486 0.74994 0.0507 0.0
C249 C 0.15249 0.75775 0.02149 0.0
C250 C 0.13579 0.76656 0.07314 0.0
C251 C 0.14458 0.77179 0.15157 0.0
C252 C 0.14985 0.76089 0.93687 0.0
C253 C 0.17637 0.77883 0.89453 0.0
C254 C 0.17677 0.78313 0.80928 0.0
C255 C 0.20304 0.80973 0.77514 0.0
C256 C 0.20643 0.81244 0.69447 0.0
C257 C 0.18388 0.78819 0.64679 0.0
H258 H 0.13304 0.73876 0.78515 0.0
C259 C 0.15689 0.76235 0.68073 0.0
C260 C 0.15328 0.75984 0.76114 0.0
H261 H 0.13914 0.74329 0.64514 0.0
H262 H 0.20275 0.75144 0.14848 0.0
H263 H 0.18763 0.74257 0.01204 0.0
H264 H 0.11824 0.77238 0.0516 0.0
H265 H 0.13418 0.78218 0.1889 0.0
H266 H 0.12631 0.75057 0.91094 0.0
H267 H 0.19924 0.79139 0.92426 0.0
H268 H 0.22156 0.82793 0.81105 0.0
H269 H 0.22762 0.83241 0.66981 0.0
C270 C 0.38053 0.08211 0.53509 0.0
C271 C 0.37841 0.10896 0.51166 0.0
C272 C 0.3551 0.05132 0.52379 0.0
C273 C 0.327 0.04654 0.48796 0.0
C274 C 0.32594 0.07307 0.45753 0.0
C275 C 0.35138 0.10418 0.4699 0.0
C276 C 0.29917 0.01386 0.48026 0.0
C277 C 0.29129 0.99147 0.5363 0.0
C278 C 0.2687 0.95682 0.52413 0.0
C279 C 0.27273 0.93439 0.56791 0.0
C280 C 0.25766 0.90222 0.54553 0.0
C281 C 0.2384 0.89227 0.47915 0.0
H282 H 0.24072 0.96182 0.43197 0.0
C283 C 0.23107 0.91374 0.44185 0.0
C284 C 0.24586 0.9457 0.46448 0.0
H285 H 0.21587 0.90638 0.39101 0.0
H286 H 0.40121 0.08489 0.56639 0.0
H287 H 0.3573 0.03127 0.54448 0.0
H288 H 0.30479 0.06984 0.42772 0.0
H289 H 0.34898 0.12433 0.45124 0.0
H290 H 0.28612 0.00817 0.42604 0.0
H291 H 0.30463 0.99824 0.59036 0.0
H292 H 0.28969 0.9422 0.6153 0.0
H293 H 0.26371 0.88609 0.57505 0.0
C294 C 0.3592 0.26508 0.66361 0.0
C295 C 0.3831 0.27917 0.60666 0.0
C296 C 0.33562 0.274 0.67012 0.0
C297 C 0.3353 0.29663 0.6185 0.0
C298 C 0.35913 0.31045 0.56209 0.0
C299 C 0.38282 0.30225 0.55687 0.0
C300 C 0.311 0.30698 0.61998 0.0
C301 C 0.29674 0.30887 0.68499 0.0
C302 C 0.27872 0.32658 0.69035 0.0
C303 C 0.26262 0.32426 0.75974 0.0
C304 C 0.2508 0.34487 0.77451 0.0
C305 C 0.25453 0.36818 0.72 0.0
H306 H 0.29289 0.35176 0.5792 0.0
C307 C 0.2683 0.36907 0.64808 0.0
C308 C 0.28041 0.34854 0.63327 0.0
H309 H 0.2722 0.38737 0.60607 0.0
H310 H 0.35842 0.24692 0.70204 0.0
H311 H 0.31729 0.26252 0.7138 0.0
H312 H 0.35953 0.32787 0.52157 0.0
H313 H 0.40036 0.31339 0.51123 0.0
H314 H 0.30737 0.3163 0.56604 0.0
H315 H 0.30058 0.29938 0.7386 0.0
H316 H 0.26078 0.30769 0.80474 0.0
H317 H 0.2404 0.34387 0.83078 0.0
C318 C 0.91787 0.25061 0.866 0.0
C319 C 0.89733 0.26036 0.83439 0.0
C320 C 0.949 0.2635 0.83866 0.0
C321 C 0.96041 0.28706 0.78038 0.0
C322 C 0.93878 0.29429 0.74335 0.0
C323 C 0.90736 0.28104 0.77034 0.0
C324 C 0.99503 0.30637 0.76213 0.0
C325 C 0.0178 0.31356 0.81657 0.0
C326 C 0.05245 0.3367 0.80586 0.0
C327 C 0.0742 0.33755 0.86151 0.0
C328 C 0.10679 0.36002 0.85623 0.0
C329 C 0.11828 0.38223 0.79523 0.0
H330 H 0.04837 0.3602 0.70197 0.0
C331 C 0.09655 0.3815 0.73978 0.0
C332 C 0.06408 0.35915 0.74502 0.0
H333 H 0.10462 0.39835 0.69199 0.0
H334 H 0.91043 0.2345 0.9153 0.0
H335 H 0.96447 0.25612 0.866 0.0
H336 H 0.94683 0.31197 0.69739 0.0
H337 H 0.8919 0.28904 0.74563 0.0
H338 H 0.00141 0.31701 0.70486 0.0
H339 H 0.01074 0.30306 0.87396 0.0
H340 H 0.06597 0.32073 0.9094 0.0
H341 H 0.12293 0.35973 0.89927 0.0
C342 C 0.62432 0.92182 0.04139 0.0
C343 C 0.6284 0.89599 0.01984 0.0
C344 C 0.64759 0.95312 0.02475 0.0
C345 C 0.67566 0.95949 0.98608 0.0
C346 C 0.67879 0.93367 0.9591 0.0
C347 C 0.65536 0.90204 0.97627 0.0
C348 C 0.70103 0.99298 0.9711 0.0
C349 C 0.70757 0.01681 0.02189 0.0
C350 C 0.72733 0.05155 0.00361 0.0
C351 C 0.7246 0.07373 0.05142 0.0
C352 C 0.73774 0.10577 0.02868 0.0
C353 C 0.75358 0.11593 0.95747 0.0
H354 H 0.75036 0.04722 0.89954 0.0
C355 C 0.75888 0.09463 0.91332 0.0
C356 C 0.74626 0.06286 0.93648 0.0
H357 H 0.77156 0.10222 0.85867 0.0
H358 H 0.6035 0.91791 0.07389 0.0
H359 H 0.64361 0.97232 0.0429 0.0
H360 H 0.69991 0.93802 0.92742 0.0
H361 H 0.65913 0.88258 0.95913 0.0
H362 H 0.71332 0.99773 0.91604 0.0
H363 H 0.69546 0.01069 0.07762 0.0
H364 H 0.71057 0.06587 0.1041 0.0
H365 H 0.73337 0.12183 0.0636 0.0
C366 C 0.70979 0.62223 0.1141 0.0
C367 C 0.73949 0.63035 0.14667 0.0
C368 C 0.69994 0.64485 0.10931 0.0
C369 C 0.71983 0.67614 0.13594 0.0
C370 C 0.75121 0.68548 0.15831 0.0
C371 C 0.76099 0.66257 0.16411 0.0
C372 C 0.70669 0.69789 0.14589 0.0
C373 C 0.67884 0.68762 0.18389 0.0
C374 C 0.6593 0.70359 0.18105 0.0
C375 C 0.62623 0.68448 0.1924 0.0
C376 C 0.60568 0.69578 0.17183 0.0
C377 C 0.61791 0.72667 0.14156 0.0
H378 H 0.69712 0.7516 0.15237 0.0
C379 C 0.65106 0.74727 0.13977 0.0
C380 C 0.67172 0.73579 0.15914 0.0
H381 H 0.66093 0.77113 0.11576 0.0
H382 H 0.69267 0.59749 0.10114 0.0
H383 H 0.6759 0.6373 0.08981 0.0
H384 H 0.76708 0.70966 0.17792 0.0
H385 H 0.78377 0.66929 0.19082 0.0
H386 H 0.7192 0.72136 0.11914 0.0
H387 H 0.66781 0.66404 0.21073 0.0
H388 H 0.61597 0.65974 0.21038 0.0
H389 H 0.58017 0.67939 0.17271 0.0
C390 C 0.9143 0.61465 0.34048 0.0
C391 C 0.89131 0.62393 0.32882 0.0
C392 C 0.94659 0.63744 0.34335 0.0
C393 C 0.95664 0.67006 0.33463 0.0
C394 C 0.93362 0.67971 0.33165 0.0
C395 C 0.90102 0.65669 0.32824 0.0
C396 C 0.99114 0.69353 0.32673 0.0
C397 C 0.00974 0.68714 0.28036 0.0
C398 C 0.04495 0.703 0.28778 0.0
C399 C 0.05943 0.68444 0.27394 0.0
C400 C 0.0905 0.69485 0.2992 0.0
C401 C 0.10789 0.72443 0.33622 0.0
H402 H 0.0535 0.74946 0.32619 0.0
C403 C 0.09507 0.74486 0.34083 0.0
C404 C 0.06362 0.73414 0.31716 0.0
H405 H 0.10816 0.76776 0.36973 0.0
H406 H 0.90747 0.58956 0.34083 0.0
H407 H 0.96384 0.62942 0.34871 0.0
H408 H 0.94089 0.70482 0.3264 0.0
H409 H 0.88381 0.66445 0.31786 0.0
H410 H 0.00129 0.71457 0.3634 0.0
H411 H 0.99832 0.66591 0.24406 0.0
H412 H 0.04572 0.66054 0.25035 0.0
H413 H 0.09994 0.67869 0.29568 0.0
C414 C 0.54657 0.28728 0.42564 0.0
C415 C 0.52948 0.28796 0.49058 0.0
C416 C 0.57673 0.31328 0.40891 0.0
C417 C 0.58982 0.34068 0.45607 0.0
C418 C 0.57352 0.34026 0.52387 0.0
C419 C 0.54375 0.31395 0.5415 0.0
C420 C 0.61682 0.37167 0.42943 0.0
C421 C 0.63931 0.37495 0.37838 0.0
C422 C 0.66071 0.40675 0.34418 0.0
C423 C 0.69384 0.42246 0.35628 0.0
C424 C 0.71283 0.45482 0.33579 0.0
C425 C 0.69882 0.47134 0.30171 0.0
H426 H 0.62183 0.41084 0.29404 0.0
C427 C 0.66614 0.4546 0.2837 0.0
C428 C 0.64727 0.42269 0.30499 0.0
H429 H 0.65478 0.46674 0.25701 0.0
H430 H 0.53565 0.26762 0.38498 0.0
H431 H 0.58829 0.31292 0.35558 0.0
H432 H 0.5829 0.36118 0.56071 0.0
H433 H 0.53062 0.31526 0.59088 0.0
H434 H 0.61716 0.39318 0.44985 0.0
H435 H 0.64156 0.35461 0.36039 0.0
H436 H 0.7046 0.41041 0.38616 0.0
H437 H 0.73788 0.46735 0.3512 0.0
C438 C 0.22244 0.54853 0.71061 0.0
C439 C 0.22871 0.53054 0.6572 0.0
C440 C 0.23092 0.5802 0.69351 0.0
C441 C 0.24572 0.59423 0.62237 0.0
C442 C 0.25424 0.57684 0.57224 0.0
C443 C 0.24544 0.54512 0.58901 0.0
C444 C 0.25069 0.62585 0.59591 0.0
C445 C 0.23137 0.63714 0.61758 0.0
C446 C 0.23215 0.66608 0.58424 0.0
C447 C 0.21585 0.67891 0.62411 0.0
C448 C 0.21275 0.70381 0.59214 0.0
C449 C 0.22599 0.71666 0.51946 0.0
H450 H 0.25797 0.66969 0.4778 0.0
C451 C 0.24299 0.70456 0.47979 0.0
C452 C 0.24601 0.67938 0.51172 0.0
H453 H 0.25259 0.71345 0.42264 0.0
H454 H 0.20936 0.53755 0.76337 0.0
H455 H 0.22499 0.59318 0.73505 0.0
H456 H 0.266 0.58713 0.51765 0.0
H457 H 0.25031 0.53147 0.54691 0.0
H458 H 0.26898 0.6386 0.55259 0.0
H459 H 0.21286 0.62387 0.66014 0.0
H460 H 0.20481 0.66917 0.67972 0.0
H461 H 0.19953 0.71276 0.62403 0.0
C462 C 0.70459 0.24718 0.78888 0.0
C463 C 0.70659 0.23501 0.8613 0.0
C464 C 0.68054 0.25457 0.77396 0.0
C465 C 0.65782 0.24958 0.83133 0.0
C466 C 0.66115 0.23914 0.90527 0.0
C467 C 0.68509 0.23153 0.91988 0.0
C468 C 0.62949 0.2533 0.8157 0.0
C469 C 0.6164 0.25014 0.74458 0.0
C470 C 0.58477 0.24767 0.73009 0.0
C471 C 0.57612 0.25039 0.65359 0.0
C472 C 0.54508 0.24377 0.636 0.0
C473 C 0.52202 0.23423 0.69464 0.0
H474 H 0.56677 0.23606 0.84843 0.0
C475 C 0.53099 0.23282 0.77145 0.0
C476 C 0.56184 0.23935 0.78906 0.0
H477 H 0.51365 0.22527 0.81792 0.0
H478 H 0.72078 0.24958 0.7426 0.0
H479 H 0.67954 0.26348 0.71704 0.0
H480 H 0.64415 0.23526 0.95075 0.0
H481 H 0.68592 0.22159 0.97567 0.0
H482 H 0.6178 0.25627 0.86595 0.0
H483 H 0.62824 0.24722 0.69447 0.0
H484 H 0.59307 0.2564 0.60671 0.0
H485 H 0.53867 0.2441 0.57606 0.0
C486 C 0.45938 0.70797 0.97647 0.0
C487 C 0.48958 0.71296 0.95474 0.0
C488 C 0.4315 0.68321 0.9426 0.0
C489 C 0.43353 0.66314 0.88633 0.0
C490 C 0.46378 0.66861 0.86451 0.0
C491 C 0.49134 0.69316 0.89784 0.0
C492 C 0.40535 0.63512 0.85116 0.0
C493 C 0.37529 0.63015 0.84856 0.0
C494 C 0.34879 0.60059 0.813 0.0
C495 C 0.31775 0.58692 0.84351 0.0
C496 C 0.2941 0.55621 0.82056 0.0
C497 C 0.30131 0.53882 0.76707 0.0
H498 H 0.37754 0.595 0.72418 0.0
C499 C 0.3312 0.55383 0.73068 0.0
C500 C 0.35453 0.58457 0.75244 0.0
H501 H 0.33721 0.54097 0.68878 0.0
H502 H 0.45727 0.72283 0.02035 0.0
H503 H 0.40862 0.67944 0.96203 0.0
H504 H 0.46619 0.65365 0.82139 0.0
H505 H 0.51411 0.69647 0.87885 0.0
H506 H 0.41005 0.61731 0.82566 0.0
H507 H 0.36959 0.64687 0.87615 0.0
H508 H 0.31243 0.59897 0.88903 0.0
H509 H 0.27123 0.54501 0.84982 0.0
C510 C 0.77617 0.45422 0.22215 0.0
C511 C 0.76152 0.47005 0.18822 0.0
C512 C 0.76738 0.42316 0.19982 0.0
C513 C 0.74412 0.40765 0.14217 0.0
C514 C 0.72687 0.42204 0.11487 0.0
C515 C 0.73568 0.4533 0.13758 0.0
C516 C 0.74222 0.37971 0.1013 0.0
C517 C 0.76931 0.38207 0.07325 0.0
C518 C 0.77244 0.35677 0.03207 0.0
C519 C 0.80148 0.36612 -0.00566 0.0
C520 C 0.80873 0.34343 0.96677 0.0
C521 C 0.78706 0.31072 0.97588 0.0
H522 H 0.72706 0.31584 0.06559 0.0
C523 C 0.7569 0.30104 0.0081 0.0
C524 C 0.7496 0.32396 0.03636 0.0
H525 H 0.74003 0.2759 0.01691 0.0
H526 H 0.79623 0.46682 0.26112 0.0
H527 H 0.78065 0.4123 0.22269 0.0
H528 H 0.70877 0.41042 0.07066 0.0
H529 H 0.72432 0.46532 0.11028 0.0
H530 H 0.71912 0.35895 0.08952 0.0
H531 H 0.79135 0.4047 0.08102 0.0
H532 H 0.81945 0.39118 0.98965 0.0
H533 H 0.83211 0.35152 0.94197 0.0
C534 C 0.46211 0.76335 0.23579 0.0
C535 C 0.47705 0.77509 0.16418 0.0
C536 C 0.43213 0.75971 0.25032 0.0
C537 C 0.41704 0.76885 0.19403 0.0
C538 C 0.43107 0.77823 0.1202 0.0
C539 C 0.46085 0.78121 0.10521 0.0
C540 C 0.38849 0.77175 0.21163 0.0
C541 C 0.37849 0.77251 0.28415 0.0
C542 C 0.35393 0.78147 0.30053 0.0
C543 C 0.33418 0.7686 0.36571 0.0
C544 C 0.31136 0.77738 0.38321 0.0
C545 C 0.30814 0.79939 0.33611 0.0
H546 H 0.36727 0.81585 0.20645 0.0
C547 C 0.32883 0.81322 0.27274 0.0
C548 C 0.35146 0.80437 0.25508 0.0
H549 H 0.3272 0.83053 0.23568 0.0
H550 H 0.47423 0.75818 0.28169 0.0
H551 H 0.42173 0.75091 0.30671 0.0
H552 H 0.41988 0.78508 0.07538 0.0
H553 H 0.47217 0.79049 0.04963 0.0
H554 H 0.37681 0.77606 0.16295 0.0
H555 H 0.38895 0.76753 0.33405 0.0
H556 H 0.33621 0.7515 0.40271 0.0
H557 H 0.29643 0.7671 0.43369 0.0
loop_
_geom_bond_atom_site_label_1
_geom_bond_atom_site_label_2
_geom_bond_distance
_geom_bond_site_symmetry_2
_ccdc_geom_bond_type
Zn0 O6 1.920 . S
Zn0 O12 1.898 . S
Zn0 O15 1.905 . S
Zn1 O9 1.905 . S
Zn1 O10 1.898 . S
Zn1 O18 1.920 . S
Zn2 O5 2.080 . S
Zn2 O8 2.114 . S
Zn2 O11 2.120 . S
Zn2 O13 2.120 . S
Zn2 O14 2.114 . S
Zn2 O17 2.080 . S
C3 O8 1.166 . S
C3 O9 1.182 . S
C4 O10 1.167 . S
C4 O11 1.299 . S
O5 Zn2 2.080 . S
O5 C19 1.305 . S
O6 Zn0 1.920 . S
O6 C19 1.234 . S
C7 O12 1.167 . S
C7 O13 1.299 . S
O8 Zn2 2.114 . S
O8 C3 1.166 . S
O9 Zn1 1.905 . S
O9 C3 1.182 . S
O10 Zn1 1.898 . S
O10 C4 1.167 . S
O11 Zn2 2.120 . S
O11 C4 1.299 . S
O12 Zn0 1.898 . S
O12 C7 1.167 . S
O13 Zn2 2.120 . S
O13 C7 1.299 . S
O14 Zn2 2.114 . S
O14 C16 1.166 . S
O15 Zn0 1.905 . S
O15 C16 1.182 . S
C16 O14 1.166 . S
C16 O15 1.182 . S
O17 Zn2 2.080 . S
O17 C20 1.305 . S
O18 Zn1 1.920 . S
O18 C20 1.234 . S
C19 O5 1.305 . S
C19 O6 1.234 . S
C20 O17 1.305 . S
C20 O18 1.234 . S
Zn21 O27 1.920 . S
Zn21 O33 1.898 . S
Zn21 O36 1.905 . S
Zn22 O30 1.905 . S
Zn22 O31 1.898 . S
Zn22 O39 1.920 . S
Zn23 O26 2.080 . S
Zn23 O29 2.114 . S
Zn23 O32 2.120 . S
Zn23 O34 2.120 . S
Zn23 O35 2.114 . S
Zn23 O38 2.080 . S
C24 O29 1.166 . S
C24 O30 1.182 . S
C25 O31 1.167 . S
C25 O32 1.299 . S
O26 Zn23 2.080 . S
O26 C40 1.305 . S
O27 Zn21 1.920 . S
O27 C40 1.234 . S
C28 O33 1.167 . S
C28 O34 1.299 . S
O29 Zn23 2.114 . S
O29 C24 1.166 . S
O30 Zn22 1.905 . S
O30 C24 1.182 . S
O31 Zn22 1.898 . S
O31 C25 1.167 . S
O32 Zn23 2.120 . S
O32 C25 1.299 . S
O33 Zn21 1.898 . S
O33 C28 1.167 . S
O34 Zn23 2.120 . S
O34 C28 1.299 . S
O35 Zn23 2.114 . S
O35 C37 1.166 . S
O36 Zn21 1.905 . S
O36 C37 1.182 . S
C37 O35 1.166 . S
C37 O36 1.182 . S
O38 Zn23 2.080 . S
O38 C41 1.305 . S
O39 Zn22 1.920 . S
O39 C41 1.234 . S
C40 O26 1.305 . S
C40 O27 1.234 . S
C41 O38 1.305 . S
C41 O39 1.234 . S
Zn42 O48 1.920 . S
Zn42 O54 1.898 . S
Zn42 O57 1.905 . S
Zn43 O51 1.905 . S
Zn43 O52 1.898 . S
Zn43 O60 1.920 1_554 S
Zn44 O47 2.080 . S
Zn44 O50 2.114 1_556 S
Zn44 O53 2.120 . S
Zn44 O55 2.120 . S
Zn44 O56 2.114 . S
Zn44 O59 2.080 . S
C45 O50 1.166 . S
C45 O51 1.182 . S
C46 O52 1.167 1_556 S
C46 O53 1.299 . S
O47 Zn44 2.080 . S
O47 C61 1.305 . S
O48 Zn42 1.920 . S
O48 C61 1.234 . S
C49 O54 1.167 . S
C49 O55 1.299 . S
O50 Zn44 2.114 1_554 S
O50 C45 1.166 . S
O51 Zn43 1.905 . S
O51 C45 1.182 . S
O52 Zn43 1.898 . S
O52 C46 1.167 1_554 S
O53 Zn44 2.120 . S
O53 C46 1.299 . S
O54 Zn42 1.898 . S
O54 C49 1.167 . S
O55 Zn44 2.120 . S
O55 C49 1.299 . S
O56 Zn44 2.114 . S
O56 C58 1.166 . S
O57 Zn42 1.905 . S
O57 C58 1.182 . S
C58 O56 1.166 . S
C58 O57 1.182 . S
O59 Zn44 2.080 . S
O59 C62 1.305 . S
O60 Zn43 1.920 1_556 S
O60 C62 1.234 . S
C61 O47 1.305 . S
C61 O48 1.234 . S
C62 O59 1.305 . S
C62 O60 1.234 . S
Zn63 O69 1.920 . S
Zn63 O75 1.898 1_556 S
Zn63 O78 1.905 . S
Zn64 O72 1.905 . S
Zn64 O73 1.898 . S
Zn64 O81 1.920 . S
Zn65 O68 2.080 1_554 S
Zn65 O71 2.114 . S
Zn65 O74 2.120 . S
Zn65 O76 2.120 . S
Zn65 O77 2.114 . S
Zn65 O80 2.080 . S
C66 O71 1.166 . S
C66 O72 1.182 . S
C67 O73 1.167 . S
C67 O74 1.299 . S
O68 Zn65 2.080 1_556 S
O68 C82 1.305 . S
O69 Zn63 1.920 . S
O69 C82 1.234 . S
C70 O75 1.167 . S
C70 O76 1.299 . S
O71 Zn65 2.114 . S
O71 C66 1.166 . S
O72 Zn64 1.905 . S
O72 C66 1.182 . S
O73 Zn64 1.898 . S
O73 C67 1.167 . S
O74 Zn65 2.120 . S
O74 C67 1.299 . S
O75 Zn63 1.898 1_554 S
O75 C70 1.167 . S
O76 Zn65 2.120 . S
O76 C70 1.299 . S
O77 Zn65 2.114 . S
O77 C79 1.166 . S
O78 Zn63 1.905 . S
O78 C79 1.182 1_556 S
C79 O77 1.166 . S
C79 O78 1.182 1_554 S
O80 Zn65 2.080 . S
O80 C83 1.305 . S
O81 Zn64 1.920 . S
O81 C83 1.234 . S
C82 O68 1.305 . S
C82 O69 1.234 . S
C83 O80 1.305 . S
C83 O81 1.234 . S
Zn84 O90 1.920 . S
Zn84 O96 1.898 . S
Zn84 O99 1.905 . S
Zn85 O93 1.905 . S
Zn85 O94 1.898 . S
Zn85 O102 1.920 . S
Zn86 O89 2.080 . S
Zn86 O92 2.114 . S
Zn86 O95 2.120 . S
Zn86 O97 2.120 . S
Zn86 O98 2.114 . S
Zn86 O101 2.080 . S
C87 O92 1.166 . S
C87 O93 1.182 . S
C88 O94 1.167 . S
C88 O95 1.299 . S
O89 Zn86 2.080 . S
O89 C103 1.305 . S
O90 Zn84 1.920 . S
O90 C103 1.234 . S
C91 O96 1.167 . S
C91 O97 1.299 . S
O92 Zn86 2.114 . S
O92 C87 1.166 . S
O93 Zn85 1.905 . S
O93 C87 1.182 . S
O94 Zn85 1.898 . S
O94 C88 1.167 . S
O95 Zn86 2.120 . S
O95 C88 1.299 . S
O96 Zn84 1.898 . S
O96 C91 1.167 . S
O97 Zn86 2.120 . S
O97 C91 1.299 . S
O98 Zn86 2.114 . S
O98 C100 1.166 . S
O99 Zn84 1.905 . S
O99 C100 1.182 . S
C100 O98 1.166 . S
C100 O99 1.182 . S
O101 Zn86 2.080 . S
O101 C104 1.305 . S
O102 Zn85 1.920 . S
O102 C104 1.234 . S
C103 O89 1.305 . S
C103 O90 1.234 . S
C104 O101 1.305 . S
C104 O102 1.234 . S
Zn105 O111 1.920 . S
Zn105 O117 1.898 . S
Zn105 O120 1.905 . S
Zn106 O114 1.905 . S
Zn106 O115 1.898 . S
Zn106 O123 1.920 . S
Zn107 O110 2.080 . S
Zn107 O113 2.114 . S
Zn107 O116 2.120 . S
Zn107 O118 2.120 . S
Zn107 O119 2.114 . S
Zn107 O122 2.080 . S
C108 O113 1.166 . S
C108 O114 1.182 . S
C109 O115 1.167 . S
C109 O116 1.299 . S
O110 Zn107 2.080 . S
O110 C124 1.305 . S
O111 Zn105 1.920 . S
O111 C124 1.234 . S
C112 O117 1.167 . S
C112 O118 1.299 . S
O113 Zn107 2.114 . S
O113 C108 1.166 . S
O114 Zn106 1.905 . S
O114 C108 1.182 . S
O115 Zn106 1.898 . S
O115 C109 1.167 . S
O116 Zn107 2.120 . S
O116 C109 1.299 . S
O117 Zn105 1.898 . S
O117 C112 1.167 . S
O118 Zn107 2.120 . S
O118 C112 1.299 . S
O119 Zn107 2.114 . S
O119 C121 1.166 . S
O120 Zn105 1.905 . S
O120 C121 1.182 . S
C121 O119 1.166 . S
C121 O120 1.182 . S
O122 Zn107 2.080 . S
O122 C125 1.305 . S
O123 Zn106 1.920 . S
O123 C125 1.234 . S
C124 O110 1.305 . S
C124 O111 1.234 . S
C125 O122 1.305 . S
C125 O123 1.234 . S
C126 C127 1.386 . S
C126 C128 1.383 . S
C126 H142 0.951 . S
C127 C126 1.386 . S
C127 C131 1.383 . S
C128 C126 1.383 . S
C128 C129 1.402 . S
C128 H143 0.951 . S
C129 C128 1.402 . S
C129 C130 1.375 . S
C129 C132 1.481 . S
C130 C129 1.375 . S
C130 C131 1.367 . S
C130 H144 0.951 . S
C131 C127 1.383 . S
C131 C130 1.367 . S
C131 H145 0.950 . S
C132 C129 1.481 . S
C132 C133 1.297 . S
C132 H146 0.950 . S
C133 C132 1.297 . S
C133 C134 1.479 1_554 S
C133 H147 0.950 . S
C134 C133 1.479 1_556 S
C134 C135 1.375 . S
C134 C140 1.404 . S
C135 C134 1.375 . S
C135 C136 1.369 . S
C135 H148 0.950 . S
C136 C135 1.369 . S
C136 C137 1.392 . S
C136 H149 0.951 . S
C137 C136 1.392 . S
C137 C139 1.384 . S
H138 C140 0.949 . S
C139 C137 1.384 . S
C139 C140 1.385 . S
C139 H141 0.950 . S
C140 C134 1.404 . S
C140 H138 0.949 . S
C140 C139 1.385 . S
H141 C139 0.950 . S
H142 C126 0.951 . S
H143 C128 0.951 . S
H144 C130 0.951 . S
H145 C131 0.950 . S
H146 C132 0.950 . S
H147 C133 0.950 . S
H148 C135 0.950 . S
H149 C136 0.951 . S
C150 C151 1.386 . S
C150 C152 1.383 . S
C150 H166 0.951 . S
C151 C150 1.386 . S
C151 C155 1.383 . S
C152 C150 1.383 . S
C152 C153 1.402 . S
C152 H167 0.951 . S
C153 C152 1.402 . S
C153 C154 1.375 . S
C153 C156 1.481 . S
C154 C153 1.375 . S
C154 C155 1.367 . S
C154 H168 0.951 . S
C155 C151 1.383 . S
C155 C154 1.367 . S
C155 H169 0.950 . S
C156 C153 1.481 . S
C156 C157 1.297 . S
C156 H170 0.950 . S
C157 C156 1.297 . S
C157 C158 1.479 . S
C157 H171 0.950 . S
C158 C157 1.479 . S
C158 C159 1.375 . S
C158 C164 1.404 . S
C159 C158 1.375 . S
C159 C160 1.369 . S
C159 H172 0.950 . S
C160 C159 1.369 . S
C160 C161 1.392 1_554 S
C160 H173 0.951 1_554 S
C161 C160 1.392 1_556 S
C161 C163 1.384 1_556 S
H162 C164 0.949 . S
C163 C161 1.384 1_554 S
C163 C164 1.385 . S
C163 H165 0.950 1_554 S
C164 C158 1.404 . S
C164 H162 0.949 . S
C164 C163 1.385 . S
H165 C163 0.950 1_556 S
H166 C150 0.951 . S
H167 C152 0.951 . S
H168 C154 0.951 . S
H169 C155 0.950 . S
H170 C156 0.950 . S
H171 C157 0.950 . S
H172 C159 0.950 . S
H173 C160 0.951 1_556 S
C174 C175 1.386 . S
C174 C176 1.383 . S
C174 H190 0.951 . S
C175 C174 1.386 . S
C175 C179 1.383 . S
C176 C174 1.383 . S
C176 C177 1.402 . S
C176 H191 0.951 . S
C177 C176 1.402 . S
C177 C178 1.375 . S
C177 C180 1.481 . S
C178 C177 1.375 . S
C178 C179 1.367 . S
C178 H192 0.951 . S
C179 C175 1.383 . S
C179 C178 1.367 . S
C179 H193 0.950 . S
C180 C177 1.481 . S
C180 C181 1.297 . S
C180 H194 0.950 . S
C181 C180 1.297 . S
C181 C182 1.479 . S
C181 H195 0.950 . S
C182 C181 1.479 . S
C182 C183 1.375 . S
C182 C188 1.404 . S
C183 C182 1.375 . S
C183 C184 1.369 . S
C183 H196 0.950 . S
C184 C183 1.369 . S
C184 C185 1.392 . S
C184 H197 0.951 . S
C185 C184 1.392 . S
C185 C187 1.384 . S
H186 C188 0.949 . S
C187 C185 1.384 . S
C187 C188 1.385 . S
C187 H189 0.950 . S
C188 C182 1.404 . S
C188 H186 0.949 . S
C188 C187 1.385 . S
H189 C187 0.950 . S
H190 C174 0.951 . S
H191 C176 0.951 . S
H192 C178 0.951 . S
H193 C179 0.950 . S
H194 C180 0.950 . S
H195 C181 0.950 . S
H196 C183 0.950 . S
H197 C184 0.951 . S
C198 C199 1.386 . S
C198 C200 1.383 . S
C198 H214 0.951 . S
C199 C198 1.386 . S
C199 C203 1.383 . S
C200 C198 1.383 . S
C200 C201 1.402 . S
C200 H215 0.951 . S
C201 C200 1.402 . S
C201 C202 1.375 . S
C201 C204 1.481 . S
C202 C201 1.375 . S
C202 C203 1.367 . S
C202 H216 0.951 . S
C203 C199 1.383 . S
C203 C202 1.367 . S
C203 H217 0.950 . S
C204 C201 1.481 . S
C204 C205 1.297 . S
C204 H218 0.950 . S
C205 C204 1.297 . S
C205 C206 1.479 . S
C205 H219 0.950 . S
C206 C205 1.479 . S
C206 C207 1.375 . S
C206 C212 1.404 . S
C207 C206 1.375 . S
C207 C208 1.369 . S
C207 H220 0.950 . S
C208 C207 1.369 . S
C208 C209 1.392 . S
C208 H221 0.951 . S
C209 C208 1.392 . S
C209 C211 1.384 . S
H210 C212 0.949 . S
C211 C209 1.384 . S
C211 C212 1.385 . S
C211 H213 0.950 . S
C212 C206 1.404 . S
C212 H210 0.949 . S
C212 C211 1.385 . S
H213 C211 0.950 . S
H214 C198 0.951 . S
H215 C200 0.951 . S
H216 C202 0.951 . S
H217 C203 0.950 . S
H218 C204 0.950 . S
H219 C205 0.950 . S
H220 C207 0.950 . S
H221 C208 0.951 . S
C222 C223 1.386 . S
C222 C224 1.383 . S
C222 H238 0.951 . S
C223 C222 1.386 . S
C223 C227 1.383 . S
C224 C222 1.383 . S
C224 C225 1.402 . S
C224 H239 0.951 . S
C225 C224 1.402 . S
C225 C226 1.375 . S
C225 C228 1.481 . S
C226 C225 1.375 . S
C226 C227 1.367 . S
C226 H240 0.951 . S
C227 C223 1.383 . S
C227 C226 1.367 . S
C227 H241 0.950 . S
C228 C225 1.481 . S
C228 C229 1.297 . S
C228 H242 0.950 . S
C229 C228 1.297 . S
C229 C230 1.479 . S
C229 H243 0.950 . S
C230 C229 1.479 . S
C230 C231 1.375 . S
C230 C236 1.404 . S
C231 C230 1.375 . S
C231 C232 1.369 . S
C231 H244 0.950 . S
C232 C231 1.369 . S
C232 C233 1.392 1_556 S
C232 H245 0.951 1_556 S
C233 C232 1.392 1_554 S
C233 C235 1.384 1_554 S
H234 C236 0.949 . S
C235 C233 1.384 1_556 S
C235 C236 1.385 . S
C235 H237 0.957 . S
C236 C230 1.404 . S
C236 H234 0.949 . S
C236 C235 1.385 . S
H237 C235 0.957 . S
H238 C222 0.951 . S
H239 C224 0.951 . S
H240 C226 0.951 . S
H241 C227 0.950 . S
H242 C228 0.950 . S
H243 C229 0.950 . S
H244 C231 0.950 . S
H245 C232 0.951 1_554 S
C246 C247 1.386 . S
C246 C248 1.383 . S
C246 H262 0.951 . S
C247 C246 1.386 . S
C247 C251 1.383 . S
C248 C246 1.383 . S
C248 C249 1.402 . S
C248 H263 0.951 . S
C249 C248 1.402 . S
C249 C250 1.375 . S
C249 C252 1.481 1_554 S
C250 C249 1.375 . S
C250 C251 1.367 . S
C250 H264 0.951 . S
C251 C247 1.383 . S
C251 C250 1.367 . S
C251 H265 0.950 . S
C252 C249 1.481 1_556 S
C252 C253 1.297 . S
C252 H266 0.950 . S
C253 C252 1.297 . S
C253 C254 1.479 . S
C253 H267 0.950 . S
C254 C253 1.479 . S
C254 C255 1.375 . S
C254 C260 1.404 . S
C255 C254 1.375 . S
C255 C256 1.369 . S
C255 H268 0.950 . S
C256 C255 1.369 . S
C256 C257 1.392 . S
C256 H269 0.951 . S
C257 C256 1.392 . S
C257 C259 1.384 . S
H258 C260 0.949 . S
C259 C257 1.384 . S
C259 C260 1.385 . S
C259 H261 0.950 . S
C260 C254 1.404 . S
C260 H258 0.949 . S
C260 C259 1.385 . S
H261 C259 0.950 . S
H262 C246 0.951 . S
H263 C248 0.951 . S
H264 C250 0.951 . S
H265 C251 0.950 . S
H266 C252 0.950 . S
H267 C253 0.950 . S
H268 C255 0.950 . S
H269 C256 0.951 . S
C270 C271 1.386 . S
C270 C272 1.383 . S
C270 H286 0.951 . S
C271 C270 1.386 . S
C271 C275 1.383 . S
C272 C270 1.383 . S
C272 C273 1.402 . S
C272 H287 0.951 . S
C273 C272 1.402 . S
C273 C274 1.375 . S
C273 C276 1.481 . S
C274 C273 1.375 . S
C274 C275 1.367 . S
C274 H288 0.951 . S
C275 C271 1.383 . S
C275 C274 1.367 . S
C275 H289 0.950 . S
C276 C273 1.481 . S
C276 C277 1.297 1_545 S
C276 H290 0.950 . S
C277 C276 1.297 1_565 S
C277 C278 1.479 . S
C277 H291 0.950 . S
C278 C277 1.479 . S
C278 C279 1.375 . S
C278 C284 1.404 . S
C279 C278 1.375 . S
C279 C280 1.369 . S
C279 H292 0.950 . S
C280 C279 1.369 . S
C280 C281 1.392 . S
C280 H293 0.951 . S
C281 C280 1.392 . S
C281 C283 1.384 . S
H282 C284 0.949 . S
C283 C281 1.384 . S
C283 C284 1.385 . S
C283 H285 0.950 . S
C284 C278 1.404 . S
C284 H282 0.949 . S
C284 C283 1.385 . S
H285 C283 0.950 . S
H286 C270 0.951 . S
H287 C272 0.951 . S
H288 C274 0.951 . S
H289 C275 0.950 . S
H290 C276 0.950 . S
H291 C277 0.950 . S
H292 C279 0.950 . S
H293 C280 0.951 . S
C294 C295 1.386 . S
C294 C296 1.383 . S
C294 H310 0.951 . S
C295 C294 1.386 . S
C295 C299 1.383 . S
C296 C294 1.383 . S
C296 C297 1.402 . S
C296 H311 0.951 . S
C297 C296 1.402 . S
C297 C298 1.375 . S
C297 C300 1.481 . S
C298 C297 1.375 . S
C298 C299 1.367 . S
C298 H312 0.951 . S
C299 C295 1.383 . S
C299 C298 1.367 . S
C299 H313 0.950 . S
C300 C297 1.481 . S
C300 C301 1.297 . S
C300 H314 0.950 . S
C301 C300 1.297 . S
C301 C302 1.479 . S
C301 H315 0.950 . S
C302 C301 1.479 . S
C302 C303 1.375 . S
C302 C308 1.404 . S
C303 C302 1.375 . S
C303 C304 1.369 . S
C303 H316 0.950 . S
C304 C303 1.369 . S
C304 C305 1.392 . S
C304 H317 0.951 . S
C305 C304 1.392 . S
C305 C307 1.384 . S
H306 C308 0.949 . S
C307 C305 1.384 . S
C307 C308 1.385 . S
C307 H309 0.950 . S
C308 C302 1.404 . S
C308 H306 0.949 . S
C308 C307 1.385 . S
H309 C307 0.950 . S
H310 C294 0.951 . S
H311 C296 0.951 . S
H312 C298 0.951 . S
H313 C299 0.950 . S
H314 C300 0.950 . S
H315 C301 0.950 . S
H316 C303 0.950 . S
H317 C304 0.951 . S
C318 C319 1.386 . S
C318 C320 1.383 . S
C318 H334 0.951 . S
C319 C318 1.386 . S
C319 C323 1.383 . S
C320 C318 1.383 . S
C320 C321 1.402 . S
C320 H335 0.951 . S
C321 C320 1.402 . S
C321 C322 1.375 . S
C321 C324 1.481 . S
C322 C321 1.375 . S
C322 C323 1.367 . S
C322 H336 0.951 . S
C323 C319 1.383 . S
C323 C322 1.367 . S
C323 H337 0.950 . S
C324 C321 1.481 . S
C324 C325 1.297 1_655 S
C324 H338 0.950 . S
C325 C324 1.297 1_455 S
C325 C326 1.479 . S
C325 H339 0.950 . S
C326 C325 1.479 . S
C326 C327 1.375 . S
C326 C332 1.404 . S
C327 C326 1.375 . S
C327 C328 1.369 . S
C327 H340 0.950 . S
C328 C327 1.369 . S
C328 C329 1.392 . S
C328 H341 0.951 . S
C329 C328 1.392 . S
C329 C331 1.384 . S
H330 C332 0.949 . S
C331 C329 1.384 . S
C331 C332 1.385 . S
C331 H333 0.950 . S
C332 C326 1.404 . S
C332 H330 0.949 . S
C332 C331 1.385 . S
H333 C331 0.950 . S
H334 C318 0.951 . S
H335 C320 0.951 . S
H336 C322 0.951 . S
H337 C323 0.950 . S
H338 C324 0.950 . S
H339 C325 0.950 . S
H340 C327 0.950 . S
H341 C328 0.951 . S
C342 C343 1.386 . S
C342 C344 1.383 . S
C342 H358 0.951 . S
C343 C342 1.386 . S
C343 C347 1.383 . S
C344 C342 1.383 . S
C344 C345 1.402 . S
C344 H359 0.951 . S
C345 C344 1.402 . S
C345 C346 1.375 . S
C345 C348 1.481 . S
C346 C345 1.375 . S
C346 C347 1.367 . S
C346 H360 0.951 1_554 S
C347 C343 1.383 . S
C347 C346 1.367 . S
C347 H361 0.950 . S
C348 C345 1.481 . S
C348 C349 1.297 1_565 S
C348 H362 0.950 1_554 S
C349 C348 1.297 1_545 S
C349 C350 1.479 . S
C349 H363 0.950 . S
C350 C349 1.479 . S
C350 C351 1.375 . S
C350 C356 1.404 1_554 S
C351 C350 1.375 . S
C351 C352 1.369 . S
C351 H364 0.950 . S
C352 C351 1.369 . S
C352 C353 1.392 1_554 S
C352 H365 0.951 . S
C353 C352 1.392 1_556 S
C353 C355 1.384 . S
H354 C356 0.949 . S
C355 C353 1.384 . S
C355 C356 1.385 . S
C355 H357 0.950 . S
C356 C350 1.404 1_556 S
C356 H354 0.949 . S
C356 C355 1.385 . S
H357 C355 0.950 . S
H358 C342 0.951 . S
H359 C344 0.951 . S
H360 C346 0.951 1_556 S
H361 C347 0.950 . S
H362 C348 0.950 1_556 S
H363 C349 0.950 . S
H364 C351 0.950 . S
H365 C352 0.951 . S
C366 C367 1.386 . S
C366 C368 1.383 . S
C366 H382 0.951 . S
C367 C366 1.386 . S
C367 C371 1.383 . S
C368 C366 1.383 . S
C368 C369 1.402 . S
C368 H383 0.951 . S
C369 C368 1.402 . S
C369 C370 1.375 . S
C369 C372 1.481 . S
C370 C369 1.375 . S
C370 C371 1.367 . S
C370 H384 0.951 . S
C371 C367 1.383 . S
C371 C370 1.367 . S
C371 H385 0.950 . S
C372 C369 1.481 . S
C372 C373 1.297 . S
C372 H386 0.950 . S
C373 C372 1.297 . S
C373 C374 1.479 . S
C373 H387 0.950 . S
C374 C373 1.479 . S
C374 C375 1.375 . S
C374 C380 1.404 . S
C375 C374 1.375 . S
C375 C376 1.369 . S
C375 H388 0.950 . S
C376 C375 1.369 . S
C376 C377 1.392 . S
C376 H389 0.951 . S
C377 C376 1.392 . S
C377 C379 1.384 . S
H378 C380 0.949 . S
C379 C377 1.384 . S
C379 C380 1.385 . S
C379 H381 0.950 . S
C380 C374 1.404 . S
C380 H378 0.949 . S
C380 C379 1.385 . S
H381 C379 0.950 . S
H382 C366 0.951 . S
H383 C368 0.951 . S
H384 C370 0.951 . S
H385 C371 0.950 . S
H386 C372 0.950 . S
H387 C373 0.950 . S
H388 C375 0.950 . S
H389 C376 0.951 . S
C390 C391 1.386 . S
C390 C392 1.383 . S
C390 H406 0.951 . S
C391 C390 1.386 . S
C391 C395 1.383 . S
C392 C390 1.383 . S
C392 C393 1.402 . S
C392 H407 0.951 . S
C393 C392 1.402 . S
C393 C394 1.375 . S
C393 C396 1.481 . S
C394 C393 1.375 . S
C394 C395 1.367 . S
C394 H408 0.951 . S
C395 C391 1.383 . S
C395 C394 1.367 . S
C395 H409 0.950 . S
C396 C393 1.481 . S
C396 C397 1.297 1_655 S
C396 H410 0.950 . S
C397 C396 1.297 1_455 S
C397 C398 1.479 . S
C397 H411 0.950 . S
C398 C397 1.479 . S
C398 C399 1.375 . S
C398 C404 1.404 . S
C399 C398 1.375 . S
C399 C400 1.369 . S
C399 H412 0.950 . S
C400 C399 1.369 . S
C400 C401 1.392 . S
C400 H413 0.951 . S
C401 C400 1.392 . S
C401 C403 1.384 . S
H402 C404 0.949 . S
C403 C401 1.384 . S
C403 C404 1.385 . S
C403 H405 0.950 . S
C404 C398 1.404 . S
C404 H402 0.949 . S
C404 C403 1.385 . S
H405 C403 0.950 . S
H406 C390 0.951 . S
H407 C392 0.951 . S
H408 C394 0.951 . S
H409 C395 0.950 . S
H410 C396 0.950 . S
H411 C397 0.950 . S
H412 C399 0.950 . S
H413 C400 0.951 . S
C414 C415 1.386 . S
C414 C416 1.383 . S
C414 H430 0.951 . S
C415 C414 1.386 . S
C415 C419 1.383 . S
C416 C414 1.383 . S
C416 C417 1.402 . S
C416 H431 0.951 . S
C417 C416 1.402 . S
C417 C418 1.375 . S
C417 C420 1.481 . S
C418 C417 1.375 . S
C418 C419 1.367 . S
C418 H432 0.951 . S
C419 C415 1.383 . S
C419 C418 1.367 . S
C419 H433 0.950 . S
C420 C417 1.481 . S
C420 C421 1.297 . S
C420 H434 0.950 . S
C421 C420 1.297 . S
C421 C422 1.479 . S
C421 H435 0.950 . S
C422 C421 1.479 . S
C422 C423 1.375 . S
C422 C428 1.404 . S
C423 C422 1.375 . S
C423 C424 1.369 . S
C423 H436 0.950 . S
C424 C423 1.369 . S
C424 C425 1.392 . S
C424 H437 0.951 . S
C425 C424 1.392 . S
C425 C427 1.384 . S
H426 C428 0.949 . S
C427 C425 1.384 . S
C427 C428 1.385 . S
C427 H429 0.950 . S
C428 C422 1.404 . S
C428 H426 0.949 . S
C428 C427 1.385 . S
H429 C427 0.950 . S
H430 C414 0.951 . S
H431 C416 0.951 . S
H432 C418 0.951 . S
H433 C419 0.950 . S
H434 C420 0.950 . S
H435 C421 0.950 . S
H436 C423 0.950 . S
H437 C424 0.951 . S
C438 C439 1.386 . S
C438 C440 1.383 . S
C438 H454 0.951 . S
C439 C438 1.386 . S
C439 C443 1.383 . S
C440 C438 1.383 . S
C440 C441 1.402 . S
C440 H455 0.951 . S
C441 C440 1.402 . S
C441 C442 1.375 . S
C441 C444 1.481 . S
C442 C441 1.375 . S
C442 C443 1.367 . S
C442 H456 0.951 . S
C443 C439 1.383 . S
C443 C442 1.367 . S
C443 H457 0.950 . S
C444 C441 1.481 . S
C444 C445 1.297 . S
C444 H458 0.950 . S
C445 C444 1.297 . S
C445 C446 1.479 . S
C445 H459 0.950 . S
C446 C445 1.479 . S
C446 C447 1.375 . S
C446 C452 1.404 . S
C447 C446 1.375 . S
C447 C448 1.369 . S
C447 H460 0.950 . S
C448 C447 1.369 . S
C448 C449 1.392 . S
C448 H461 0.951 . S
C449 C448 1.392 . S
C449 C451 1.384 . S
H450 C452 0.949 . S
C451 C449 1.384 . S
C451 C452 1.385 . S
C451 H453 0.950 . S
C452 C446 1.404 . S
C452 H450 0.949 . S
C452 C451 1.385 . S
H453 C451 0.950 . S
H454 C438 0.951 . S
H455 C440 0.951 . S
H456 C442 0.951 . S
H457 C443 0.950 . S
H458 C444 0.950 . S
H459 C445 0.950 . S
H460 C447 0.950 . S
H461 C448 0.951 . S
C462 C463 1.386 . S
C462 C464 1.383 . S
C462 H478 0.951 . S
C463 C462 1.386 . S
C463 C467 1.383 . S
C464 C462 1.383 . S
C464 C465 1.402 . S
C464 H479 0.951 . S
C465 C464 1.402 . S
C465 C466 1.375 . S
C465 C468 1.481 . S
C466 C465 1.375 . S
C466 C467 1.367 . S
C466 H480 0.951 . S
C467 C463 1.383 . S
C467 C466 1.367 . S
C467 H481 0.950 . S
C468 C465 1.481 . S
C468 C469 1.297 . S
C468 H482 0.950 . S
C469 C468 1.297 . S
C469 C470 1.479 . S
C469 H483 0.950 . S
C470 C469 1.479 . S
C470 C471 1.375 . S
C470 C476 1.404 . S
C471 C470 1.375 . S
C471 C472 1.369 . S
C471 H484 0.950 . S
C472 C471 1.369 . S
C472 C473 1.392 . S
C472 H485 0.951 . S
C473 C472 1.392 . S
C473 C475 1.384 . S
H474 C476 0.949 . S
C475 C473 1.384 . S
C475 C476 1.385 . S
C475 H477 0.950 . S
C476 C470 1.404 . S
C476 H474 0.949 . S
C476 C475 1.385 . S
H477 C475 0.950 . S
H478 C462 0.951 . S
H479 C464 0.951 . S
H480 C466 0.951 . S
H481 C467 0.950 . S
H482 C468 0.950 . S
H483 C469 0.950 . S
H484 C471 0.950 . S
H485 C472 0.951 . S
C486 C487 1.386 . S
C486 C488 1.383 . S
C486 H502 0.951 . S
C487 C486 1.386 . S
C487 C491 1.383 1_554 S
C488 C486 1.383 . S
C488 C489 1.402 1_554 S
C488 H503 0.951 . S
C489 C488 1.402 1_556 S
C489 C490 1.375 . S
C489 C492 1.481 . S
C490 C489 1.375 . S
C490 C491 1.367 . S
C490 H504 0.951 . S
C491 C487 1.383 1_556 S
C491 C490 1.367 . S
C491 H505 0.950 . S
C492 C489 1.481 . S
C492 C493 1.297 . S
C492 H506 0.950 . S
C493 C492 1.297 . S
C493 C494 1.479 . S
C493 H507 0.950 . S
C494 C493 1.479 . S
C494 C495 1.375 . S
C494 C500 1.404 . S
C495 C494 1.375 . S
C495 C496 1.369 . S
C495 H508 0.950 . S
C496 C495 1.369 . S
C496 C497 1.392 . S
C496 H509 0.951 . S
C497 C496 1.392 . S
C497 C499 1.384 . S
H498 C500 0.949 . S
C499 C497 1.384 . S
C499 C500 1.385 . S
C499 H501 0.950 . S
C500 C494 1.404 . S
C500 H498 0.949 . S
C500 C499 1.385 . S
H501 C499 0.950 . S
H502 C486 0.951 . S
H503 C488 0.951 . S
H504 C490 0.951 . S
H505 C491 0.950 . S
H506 C492 0.950 . S
H507 C493 0.950 . S
H508 C495 0.950 . S
H509 C496 0.951 . S
C510 C511 1.386 . S
C510 C512 1.383 . S
C510 H526 0.951 . S
C511 C510 1.386 . S
C511 C515 1.383 . S
C512 C510 1.383 . S
C512 C513 1.402 . S
C512 H527 0.951 . S
C513 C512 1.402 . S
C513 C514 1.375 . S
C513 C516 1.481 . S
C514 C513 1.375 . S
C514 C515 1.367 . S
C514 H528 0.951 . S
C515 C511 1.383 . S
C515 C514 1.367 . S
C515 H529 0.950 . S
C516 C513 1.481 . S
C516 C517 1.297 . S
C516 H530 0.950 . S
C517 C516 1.297 . S
C517 C518 1.479 . S
C517 H531 0.950 . S
C518 C517 1.479 . S
C518 C519 1.375 . S
C518 C524 1.404 . S
C519 C518 1.375 . S
C519 C520 1.368 1_554 S
C519 H532 0.950 . S
C520 C519 1.368 1_556 S
C520 C521 1.393 . S
C520 H533 0.951 . S
C521 C520 1.393 . S
C521 C523 1.384 1_556 S
H522 C524 0.949 . S
C523 C521 1.384 1_554 S
C523 C524 1.385 . S
C523 H525 0.950 . S
C524 C518 1.404 . S
C524 H522 0.949 . S
C524 C523 1.385 . S
H525 C523 0.950 . S
H526 C510 0.951 . S
H527 C512 0.951 . S
H528 C514 0.951 . S
H529 C515 0.950 . S
H530 C516 0.950 . S
H531 C517 0.950 . S
H532 C519 0.950 . S
H533 C520 0.951 . S
C534 C535 1.386 . S
C534 C536 1.383 . S
C534 H550 0.951 . S
C535 C534 1.386 . S
C535 C539 1.383 . S
C536 C534 1.383 . S
C536 C537 1.402 . S
C536 H551 0.951 . S
C537 C536 1.402 . S
C537 C538 1.375 . S
C537 C540 1.481 . S
C538 C537 1.375 . S
C538 C539 1.367 . S
C538 H552 0.951 . S
C539 C535 1.383 . S
C539 C538 1.367 . S
C539 H553 0.950 . S
C540 C537 1.481 . S
C540 C541 1.297 . S
C540 H554 0.950 . S
C541 C540 1.297 . S
C541 C542 1.479 . S
C541 H555 0.950 . S
C542 C541 1.479 . S
C542 C543 1.375 . S
C542 C548 1.404 . S
C543 C542 1.375 . S
C543 C544 1.369 . S
C543 H556 0.950 . S
C544 C543 1.369 . S
C544 C545 1.392 . S
C544 H557 0.951 . S
C545 C544 1.392 . S
C545 C547 1.384 . S
H546 C548 0.949 . S
C547 C545 1.384 . S
C547 C548 1.385 . S
C547 H549 0.950 . S
C548 C542 1.404 . S
C548 H546 0.949 . S
C548 C547 1.385 . S
H549 C547 0.950 . S
H550 C534 0.951 . S
H551 C536 0.951 . S
H552 C538 0.951 . S
H553 C539 0.950 . S
H554 C540 0.950 . S
H555 C541 0.950 . S
H556 C543 0.950 . S
H557 C544 0.951 . S
C127 C19 0.898 . S
C137 C3 1.087 . S
C151 C40 0.956 . S
C161 C24 1.038 . S
C175 C45 0.918 . S
C185 C61 1.082 . S
C199 C66 1.043 . S
C209 C82 0.862 . S
C223 C87 0.940 . S
C233 C103 0.995 . S
C247 C124 1.028 . S
C257 C108 0.907 . S
C271 C20 1.437 . S
C281 C112 1.457 . S
C295 C7 1.351 . S
C305 C41 1.326 . S
C319 C62 1.418 . S
C329 C28 1.357 . S
C343 C83 1.419 . S
C353 C49 1.459 . S
C367 C104 1.389 . S
C377 C70 1.429 . S
C391 C91 1.386 . S
C401 C125 1.440 . S
C415 C16 1.533 . S
C425 C88 1.613 . S
C439 C37 1.586 . S
C449 C109 1.568 . S
C463 C58 1.570 . S
C473 C4 1.534 . S
C487 C79 1.547 . S
C497 C25 1.622 . S
C511 C100 1.614 . S
C521 C46 1.496 . S
C535 C67 1.533 . S
C545 C121 1.595 . S
