# Generated by pormake.
# Topology mer, (4)-cn, num edge types: 1
# Building blocks:
#     Node 0, Type 0, BuildingBlock: NAHDIM_clean_sbu_0, # of connection points: 4
#     Node 1, Type 0, BuildingBlock: NAHDIM_clean_sbu_0, # of connection points: 4
#     Node 2, Type 0, BuildingBlock: NAHDIM_clean_sbu_0, # of connection points: 4
#     Node 3, Type 0, BuildingBlock: NAHDIM_clean_sbu_0, # of connection points: 4
#     Node 4, Type 0, BuildingBlock: NAHDIM_clean_sbu_0, # of connection points: 4
#     Node 5, Type 0, BuildingBlock: NAHDIM_clean_sbu_0, # of connection points: 4
#     Node 6, Type 0, BuildingBlock: NAHDIM_clean_sbu_0, # of connection points: 4
#     Node 7, Type 0, BuildingBlock: NAHDIM_clean_sbu_0, # of connection points: 4
#     Node 8, Type 0, BuildingBlock: NAHDIM_clean_sbu_0, # of connection points: 4
#     Node 9, Type 0, BuildingBlock: NAHDIM_clean_sbu_0, # of connection points: 4
#     Node 10, Type 0, BuildingBlock: NAHDIM_clean_sbu_0, # of connection points: 4
#     Node 11, Type 0, BuildingBlock: NAHDIM_clean_sbu_0, # of connection points: 4
#     Node 12, Type 0, BuildingBlock: NAHDIM_clean_sbu_0, # of connection points: 4
#     Node 13, Type 0, BuildingBlock: NAHDIM_clean_sbu_0, # of connection points: 4
#     Node 14, Type 0, BuildingBlock: NAHDIM_clean_sbu_0, # of connection points: 4
#     Node 15, Type 0, BuildingBlock: NAHDIM_clean_sbu_0, # of connection points: 4
#     Node 16, Type 0, BuildingBlock: NAHDIM_clean_sbu_0, # of connection points: 4
#     Node 17, Type 0, BuildingBlock: NAHDIM_clean_sbu_0, # of connection points: 4
#     Node 18, Type 0, BuildingBlock: NAHDIM_clean_sbu_0, # of connection points: 4
#     Node 19, Type 0, BuildingBlock: NAHDIM_clean_sbu_0, # of connection points: 4
#     Node 20, Type 0, BuildingBlock: NAHDIM_clean_sbu_0, # of connection points: 4
#     Node 21, Type 0, BuildingBlock: NAHDIM_clean_sbu_0, # of connection points: 4
#     Node 22, Type 0, BuildingBlock: NAHDIM_clean_sbu_0, # of connection points: 4
#     Node 23, Type 0, BuildingBlock: NAHDIM_clean_sbu_0, # of connection points: 4
#     Node 24, Type 0, BuildingBlock: NAHDIM_clean_sbu_0, # of connection points: 4
#     Node 25, Type 0, BuildingBlock: NAHDIM_clean_sbu_0, # of connection points: 4
#     Node 26, Type 0, BuildingBlock: NAHDIM_clean_sbu_0, # of connection points: 4
#     Node 27, Type 0, BuildingBlock: NAHDIM_clean_sbu_0, # of connection points: 4
#     Node 28, Type 0, BuildingBlock: NAHDIM_clean_sbu_0, # of connection points: 4
#     Node 29, Type 0, BuildingBlock: NAHDIM_clean_sbu_0, # of connection points: 4
#     Node 30, Type 0, BuildingBlock: NAHDIM_clean_sbu_0, # of connection points: 4
#     Node 31, Type 0, BuildingBlock: NAHDIM_clean_sbu_0, # of connection points: 4
#     Edge 32, Type (0, 0), BuildingBlock: EZIPEK_clean_linker_0, # of connection points: 2
#     Edge 33, Type (0, 0), BuildingBlock: EZIPEK_clean_linker_0, # of connection points: 2
#     Edge 34, Type (0, 0), BuildingBlock: EZIPEK_clean_linker_0, # of connection points: 2
#     Edge 35, Type (0, 0), BuildingBlock: EZIPEK_clean_linker_0, # of connection points: 2
#     Edge 36, Type (0, 0), BuildingBlock: EZIPEK_clean_linker_0, # of connection points: 2
#     Edge 37, Type (0, 0), BuildingBlock: EZIPEK_clean_linker_0, # of connection points: 2
#     Edge 38, Type (0, 0), BuildingBlock: EZIPEK_clean_linker_0, # of connection points: 2
#     Edge 39, Type (0, 0), BuildingBlock: EZIPEK_clean_linker_0, # of connection points: 2
#     Edge 40, Type (0, 0), BuildingBlock: EZIPEK_clean_linker_0, # of connection points: 2
#     Edge 41, Type (0, 0), BuildingBlock: EZIPEK_clean_linker_0, # of connection points: 2
#     Edge 42, Type (0, 0), BuildingBlock: EZIPEK_clean_linker_0, # of connection points: 2
#     Edge 43, Type (0, 0), BuildingBlock: EZIPEK_clean_linker_0, # of connection points: 2
#     Edge 44, Type (0, 0), BuildingBlock: EZIPEK_clean_linker_0, # of connection points: 2
#     Edge 45, Type (0, 0), BuildingBlock: EZIPEK_clean_linker_0, # of connection points: 2
#     Edge 46, Type (0, 0), BuildingBlock: EZIPEK_clean_linker_0, # of connection points: 2
#     Edge 47, Type (0, 0), BuildingBlock: EZIPEK_clean_linker_0, # of connection points: 2
#     Edge 48, Type (0, 0), BuildingBlock: EZIPEK_clean_linker_0, # of connection points: 2
#     Edge 49, Type (0, 0), BuildingBlock: EZIPEK_clean_linker_0, # of connection points: 2
#     Edge 50, Type (0, 0), BuildingBlock: EZIPEK_clean_linker_0, # of connection points: 2
#     Edge 51, Type (0, 0), BuildingBlock: EZIPEK_clean_linker_0, # of connection points: 2
#     Edge 52, Type (0, 0), BuildingBlock: EZIPEK_clean_linker_0, # of connection points: 2
#     Edge 53, Type (0, 0), BuildingBlock: EZIPEK_clean_linker_0, # of connection points: 2
#     Edge 54, Type (0, 0), BuildingBlock: EZIPEK_clean_linker_0, # of connection points: 2
#     Edge 55, Type (0, 0), BuildingBlock: EZIPEK_clean_linker_0, # of connection points: 2
#     Edge 56, Type (0, 0), BuildingBlock: EZIPEK_clean_linker_0, # of connection points: 2
#     Edge 57, Type (0, 0), BuildingBlock: EZIPEK_clean_linker_0, # of connection points: 2
#     Edge 58, Type (0, 0), BuildingBlock: EZIPEK_clean_linker_0, # of connection points: 2
#     Edge 59, Type (0, 0), BuildingBlock: EZIPEK_clean_linker_0, # of connection points: 2
#     Edge 60, Type (0, 0), BuildingBlock: EZIPEK_clean_linker_0, # of connection points: 2
#     Edge 61, Type (0, 0), BuildingBlock: EZIPEK_clean_linker_0, # of connection points: 2
#     Edge 62, Type (0, 0), BuildingBlock: EZIPEK_clean_linker_0, # of connection points: 2
#     Edge 63, Type (0, 0), BuildingBlock: EZIPEK_clean_linker_0, # of connection points: 2
#     Edge 64, Type (0, 0), BuildingBlock: EZIPEK_clean_linker_0, # of connection points: 2
#     Edge 65, Type (0, 0), BuildingBlock: EZIPEK_clean_linker_0, # of connection points: 2
#     Edge 66, Type (0, 0), BuildingBlock: EZIPEK_clean_linker_0, # of connection points: 2
#     Edge 67, Type (0, 0), BuildingBlock: EZIPEK_clean_linker_0, # of connection points: 2
#     Edge 68, Type (0, 0), BuildingBlock: EZIPEK_clean_linker_0, # of connection points: 2
#     Edge 69, Type (0, 0), BuildingBlock: EZIPEK_clean_linker_0, # of connection points: 2
#     Edge 70, Type (0, 0), BuildingBlock: EZIPEK_clean_linker_0, # of connection points: 2
#     Edge 71, Type (0, 0), BuildingBlock: EZIPEK_clean_linker_0, # of connection points: 2
#     Edge 72, Type (0, 0), BuildingBlock: EZIPEK_clean_linker_0, # of connection points: 2
#     Edge 73, Type (0, 0), BuildingBlock: EZIPEK_clean_linker_0, # of connection points: 2
#     Edge 74, Type (0, 0), BuildingBlock: EZIPEK_clean_linker_0, # of connection points: 2
#     Edge 75, Type (0, 0), BuildingBlock: EZIPEK_clean_linker_0, # of connection points: 2
#     Edge 76, Type (0, 0), BuildingBlock: EZIPEK_clean_linker_0, # of connection points: 2
#     Edge 77, Type (0, 0), BuildingBlock: EZIPEK_clean_linker_0, # of connection points: 2
#     Edge 78, Type (0, 0), BuildingBlock: EZIPEK_clean_linker_0, # of connection points: 2
#     Edge 79, Type (0, 0), BuildingBlock: EZIPEK_clean_linker_0, # of connection points: 2
#     Edge 80, Type (0, 0), BuildingBlock: EZIPEK_clean_linker_0, # of connection points: 2
#     Edge 81, Type (0, 0), BuildingBlock: EZIPEK_clean_linker_0, # of connection points: 2
#     Edge 82, Type (0, 0), BuildingBlock: EZIPEK_clean_linker_0, # of connection points: 2
#     Edge 83, Type (0, 0), BuildingBlock: EZIPEK_clean_linker_0, # of connection points: 2
#     Edge 84, Type (0, 0), BuildingBlock: EZIPEK_clean_linker_0, # of connection points: 2
#     Edge 85, Type (0, 0), BuildingBlock: EZIPEK_clean_linker_0, # of connection points: 2
#     Edge 86, Type (0, 0), BuildingBlock: EZIPEK_clean_linker_0, # of connection points: 2
#     Edge 87, Type (0, 0), BuildingBlock: EZIPEK_clean_linker_0, # of connection points: 2
#     Edge 88, Type (0, 0), BuildingBlock: EZIPEK_clean_linker_0, # of connection points: 2
#     Edge 89, Type (0, 0), BuildingBlock: EZIPEK_clean_linker_0, # of connection points: 2
#     Edge 90, Type (0, 0), BuildingBlock: EZIPEK_clean_linker_0, # of connection points: 2
#     Edge 91, Type (0, 0), BuildingBlock: EZIPEK_clean_linker_0, # of connection points: 2
#     Edge 92, Type (0, 0), BuildingBlock: EZIPEK_clean_linker_0, # of connection points: 2
#     Edge 93, Type (0, 0), BuildingBlock: EZIPEK_clean_linker_0, # of connection points: 2
#     Edge 94, Type (0, 0), BuildingBlock: EZIPEK_clean_linker_0, # of connection points: 2
#     Edge 95, Type (0, 0), BuildingBlock: EZIPEK_clean_linker_0, # of connection points: 2
# Relax obj value: 0.161
# Max RMSD: 0.166
# Mean RMSD: 0.154
data_MOF--net-mer--node1-NAHDIM_clean_sbu_0--edge1-EZIPEK_clean_linker_0
_symmetry_space_group_name_H-M    P1
_symmetry_Int_Tables_number       1
_symmetry_cell_setting            triclinic
loop_
_symmetry_equiv_pos_as_xyz
'x, y, z'
_cell_length_a     51.08515
_cell_length_b     49.7262
_cell_length_c     32.376987
_cell_angle_alpha  89.957846
_cell_angle_beta   90.065564
_cell_angle_gamma 89.992574
loop_
_atom_site_label
_atom_site_type_symbol
_atom_site_fract_x
_atom_site_fract_y
_atom_site_fract_z
_atom_type_partial_charge
C0 C 0.04126 0.25151 0.2561 0.0
O1 O 0.05877 0.25323 0.22655 0.0
O2 O 0.1011 0.28805 0.28016 0.0
Zn3 Zn 0.08519 0.25761 0.31208 0.0
O4 O 0.08519 0.26499 0.37331 0.0
C5 C 0.13028 0.22573 0.29308 0.0
O6 O 0.1404 0.24948 0.28548 0.0
O7 O 0.04827 0.25229 0.2937 0.0
C8 C 0.10669 0.26695 0.39284 0.0
O9 O 0.12888 0.26643 0.37247 0.0
C10 C 0.10092 0.31234 0.29206 0.0
O11 O 0.08947 0.31895 0.3269 0.0
O12 O 0.1063 0.22381 0.30314 0.0
C13 C 0.69336 0.13023 0.29534 0.0
O14 O 0.71318 0.12298 0.27213 0.0
O15 O 0.72612 0.06732 0.33637 0.0
Zn16 Zn 0.725 0.10559 0.35588 0.0
O17 O 0.75648 0.12701 0.3386 0.0
C18 C 0.74108 0.0915 0.43654 0.0
O19 O 0.7575 0.07682 0.41507 0.0
O20 O 0.69329 0.12425 0.33347 0.0
C21 C 0.77974 0.11837 0.33486 0.0
O22 O 0.78513 0.09296 0.34155 0.0
C23 C 0.73497 0.05905 0.30201 0.0
O24 O 0.74504 0.07609 0.27543 0.0
O25 O 0.7241 0.10568 0.41788 0.0
C26 C 0.95698 0.7621 0.27872 0.0
O27 O 0.94278 0.75492 0.24672 0.0
O28 O 0.89743 0.72423 0.2936 0.0
Zn29 Zn 0.90846 0.75785 0.32487 0.0
O30 O 0.9052 0.75135 0.38597 0.0
C31 C 0.87533 0.79476 0.27701 0.0
O32 O 0.88263 0.78052 0.2449 0.0
O33 O 0.94624 0.76555 0.31364 0.0
C34 C 0.88495 0.74097 0.4022 0.0
O35 O 0.86547 0.73304 0.37877 0.0
C36 C 0.87362 0.72069 0.28369 0.0
O37 O 0.85611 0.7389 0.29307 0.0
O38 O 0.88523 0.7898 0.31219 0.0
C39 C 0.30618 0.8645 0.27853 0.0
O40 O 0.28849 0.87647 0.25546 0.0
O41 O 0.27711 0.92637 0.31859 0.0
Zn42 Zn 0.27569 0.88878 0.34093 0.0
O43 O 0.24197 0.8706 0.32527 0.0
C44 C 0.25886 0.90031 0.42296 0.0
O45 O 0.23977 0.91187 0.40233 0.0
O46 O 0.30537 0.86727 0.3175 0.0
C47 C 0.23965 0.84668 0.33841 0.0
O48 O 0.25877 0.83575 0.35964 0.0
C49 C 0.25646 0.93928 0.30942 0.0
O50 O 0.23354 0.92752 0.31271 0.0
O51 O 0.27761 0.88946 0.40327 0.0
C52 C 0.04545 0.7536 0.69939 0.0
O53 O 0.05454 0.73027 0.68703 0.0
O54 O 0.11314 0.73487 0.72637 0.0
Zn55 Zn 0.09873 0.7649 0.6915 0.0
O56 O 0.10001 0.75544 0.63106 0.0
C57 C 0.11922 0.81471 0.72751 0.0
O58 O 0.09884 0.81405 0.75216 0.0
O59 O 0.06128 0.77282 0.70595 0.0
C60 C 0.12159 0.75074 0.61298 0.0
O61 O 0.14352 0.75116 0.63416 0.0
C62 C 0.11429 0.71055 0.71459 0.0
O63 O 0.10436 0.70357 0.67875 0.0
O64 O 0.12227 0.79664 0.70028 0.0
C65 C 0.33193 0.12937 0.70431 0.0
O66 O 0.33131 0.10302 0.70177 0.0
O67 O 0.27806 0.08827 0.67463 0.0
Zn68 Zn 0.2814 0.12773 0.66218 0.0
O69 O 0.24972 0.14944 0.67932 0.0
C70 C 0.26473 0.12234 0.58014 0.0
O71 O 0.24501 0.11158 0.60017 0.0
O72 O 0.31337 0.14333 0.68932 0.0
C73 C 0.22659 0.14044 0.68379 0.0
O74 O 0.22207 0.11456 0.68052 0.0
C75 C 0.27057 0.07757 0.7082 0.0
O76 O 0.26376 0.09279 0.73954 0.0
O77 O 0.2843 0.13105 0.60037 0.0
C78 C 0.95071 0.2411 0.72554 0.0
O79 O 0.93507 0.23006 0.75288 0.0
O80 O 0.88236 0.27362 0.70609 0.0
Zn81 Zn 0.90411 0.2469 0.67457 0.0
O82 O 0.90189 0.25149 0.61252 0.0
C83 C 0.86501 0.20898 0.68157 0.0
O84 O 0.85283 0.22966 0.66538 0.0
O85 O 0.94164 0.24967 0.69147 0.0
C86 C 0.88353 0.26312 0.59286 0.0
O87 O 0.86439 0.27471 0.61307 0.0
C88 C 0.88096 0.29883 0.70048 0.0
O89 O 0.89517 0.3103 0.67163 0.0
O90 O 0.88936 0.2106 0.68903 0.0
C91 C 0.66049 0.87116 0.69053 0.0
O92 O 0.65855 0.89718 0.69672 0.0
O93 O 0.70285 0.92186 0.65554 0.0
Zn94 Zn 0.70308 0.88416 0.63449 0.0
O95 O 0.73829 0.86748 0.64433 0.0
C96 C 0.71394 0.89167 0.54996 0.0
O97 O 0.73589 0.90078 0.5658 0.0
O98 O 0.67695 0.86196 0.66487 0.0
C99 C 0.74006 0.84213 0.64094 0.0
O100 O 0.71932 0.82796 0.63099 0.0
C101 C 0.71903 0.92941 0.68299 0.0
O102 O 0.73582 0.91212 0.69845 0.0
O103 O 0.6958 0.88367 0.57374 0.0
C104 C 0.93486 0.7487 0.68233 0.0
O105 O 0.9303 0.72649 0.66165 0.0
O106 O 0.86741 0.72126 0.69296 0.0
Zn107 Zn 0.88205 0.75362 0.6639 0.0
O108 O 0.88915 0.74595 0.60392 0.0
C109 C 0.83113 0.7769 0.6685 0.0
O110 O 0.82466 0.75157 0.67355 0.0
O111 O 0.91609 0.7647 0.68981 0.0
C112 C 0.8708 0.74016 0.57901 0.0
O113 O 0.84684 0.73711 0.59281 0.0
C114 C 0.86888 0.69715 0.68034 0.0
O115 O 0.88244 0.69134 0.6471 0.0
O116 O 0.85514 0.7834 0.66552 0.0
C117 C 0.27027 0.96139 0.70826 0.0
O118 O 0.29284 0.94903 0.7042 0.0
O119 O 0.27806 0.88888 0.71646 0.0
Zn120 Zn 0.25033 0.90976 0.68615 0.0
O121 O 0.25836 0.90966 0.62525 0.0
C122 C 0.20666 0.88727 0.73168 0.0
O123 O 0.21984 0.89516 0.76432 0.0
O124 O 0.24913 0.94826 0.70402 0.0
C125 C 0.24598 0.89468 0.60018 0.0
O126 O 0.22808 0.87804 0.61406 0.0
C127 C 0.27872 0.86374 0.70964 0.0
O128 O 0.2624 0.85326 0.68273 0.0
O129 O 0.21551 0.89194 0.69577 0.0
C130 C 0.06124 0.25248 0.71573 0.0
O131 O 0.07834 0.2653 0.73877 0.0
O132 O 0.12158 0.28033 0.68204 0.0
Zn133 Zn 0.10269 0.2501 0.65427 0.0
O134 O 0.09724 0.25758 0.59384 0.0
C135 C 0.13905 0.21391 0.69239 0.0
O136 O 0.13512 0.22937 0.72465 0.0
O137 O 0.06774 0.24377 0.68034 0.0
C138 C 0.11651 0.26262 0.57036 0.0
O139 O 0.14023 0.26386 0.58579 0.0
C140 C 0.11883 0.30545 0.67669 0.0
O141 O 0.1017 0.3146 0.64986 0.0
O142 O 0.12617 0.218 0.65937 0.0
C143 C 0.72711 0.04122 0.72745 0.0
O144 O 0.70909 0.05486 0.74725 0.0
O145 O 0.71969 0.1131 0.73297 0.0
Zn146 Zn 0.74633 0.09316 0.69928 0.0
O147 O 0.73854 0.09812 0.63882 0.0
C148 C 0.78444 0.13252 0.69833 0.0
O149 O 0.76412 0.14485 0.68225 0.0
O150 O 0.7452 0.05351 0.70834 0.0
C151 C 0.75545 0.08942 0.6134 0.0
O152 O 0.77712 0.07846 0.62734 0.0
C153 C 0.6959 0.11494 0.72192 0.0
O154 O 0.6879 0.10303 0.68799 0.0
O155 O 0.78201 0.10844 0.71072 0.0
C156 C 0.93116 0.24706 0.26767 0.0
O157 O 0.91158 0.25176 0.24234 0.0
O158 O 0.87031 0.27397 0.30344 0.0
Zn159 Zn 0.89154 0.24525 0.33153 0.0
O160 O 0.89606 0.25346 0.39196 0.0
C161 C 0.849 0.20832 0.31945 0.0
O162 O 0.83597 0.23052 0.312 0.0
O163 O 0.92694 0.24324 0.30584 0.0
C164 C 0.87617 0.25582 0.41514 0.0
O165 O 0.85258 0.25403 0.39928 0.0
C166 C 0.87057 0.29861 0.31378 0.0
O167 O 0.88555 0.30661 0.34438 0.0
O168 O 0.87339 0.20939 0.32703 0.0
C169 C 0.72587 0.94457 0.28076 0.0
O170 O 0.70255 0.93438 0.28755 0.0
O171 O 0.71074 0.87483 0.25928 0.0
Zn172 Zn 0.73968 0.89072 0.29401 0.0
O173 O 0.73142 0.89066 0.35481 0.0
C174 C 0.78511 0.86374 0.25528 0.0
O175 O 0.7759 0.87153 0.21932 0.0
O176 O 0.74562 0.92913 0.27934 0.0
C177 C 0.71013 0.88443 0.37254 0.0
O178 O 0.68985 0.87656 0.35089 0.0
C179 C 0.70389 0.85059 0.26511 0.0
O180 O 0.7158 0.83618 0.29345 0.0
O181 O 0.77295 0.86968 0.28823 0.0
C182 C 0.06815 0.76118 0.30061 0.0
O183 O 0.08643 0.77523 0.28198 0.0
O184 O 0.12492 0.706 0.32071 0.0
Zn185 Zn 0.11075 0.73882 0.35006 0.0
O186 O 0.10885 0.73432 0.41233 0.0
C187 C 0.1577 0.76932 0.33438 0.0
O188 O 0.16865 0.74554 0.33718 0.0
O189 O 0.07417 0.74493 0.32939 0.0
C190 C 0.12832 0.73857 0.43598 0.0
O191 O 0.15126 0.74434 0.4202 0.0
C192 C 0.14205 0.69026 0.33575 0.0
O193 O 0.15058 0.69412 0.37353 0.0
O194 O 0.13299 0.7715 0.33739 0.0
C195 C 0.25412 0.05315 0.27847 0.0
O196 O 0.26312 0.06641 0.24641 0.0
O197 O 0.27476 0.1224 0.28362 0.0
Zn198 Zn 0.2475 0.10534 0.31939 0.0
O199 O 0.25751 0.10956 0.37932 0.0
C200 C 0.2123 0.14775 0.30172 0.0
O201 O 0.23455 0.16096 0.30089 0.0
O202 O 0.24617 0.06574 0.31014 0.0
C203 C 0.24952 0.12788 0.40356 0.0
O204 O 0.2345 0.14722 0.38947 0.0
C205 C 0.29876 0.12262 0.29372 0.0
O206 O 0.30648 0.11059 0.32774 0.0
O207 O 0.21248 0.12254 0.30811 0.0
C208 C 0.54044 0.74389 0.80784 0.0
O209 O 0.54849 0.76636 0.82495 0.0
O210 O 0.60116 0.77186 0.78757 0.0
Zn211 Zn 0.59339 0.73634 0.81545 0.0
O212 O 0.59419 0.74037 0.87726 0.0
C213 C 0.63286 0.70519 0.76925 0.0
O214 O 0.62783 0.72106 0.73779 0.0
O215 O 0.55703 0.72577 0.79903 0.0
C216 C 0.61363 0.75091 0.89561 0.0
O217 O 0.6332 0.76063 0.87416 0.0
C218 C 0.62406 0.78047 0.78027 0.0
O219 O 0.6445 0.76628 0.7914 0.0
O220 O 0.61996 0.70764 0.80253 0.0
C221 C 0.17554 0.63084 0.80021 0.0
O222 O 0.19334 0.61944 0.77679 0.0
O223 O 0.20385 0.56807 0.83454 0.0
Zn224 Zn 0.20728 0.60554 0.85747 0.0
O225 O 0.23824 0.62538 0.83354 0.0
C226 C 0.22408 0.58761 0.93825 0.0
O227 O 0.23629 0.56924 0.91646 0.0
O228 O 0.17631 0.62721 0.83902 0.0
C229 C 0.26148 0.62495 0.84737 0.0
O230 O 0.26742 0.60974 0.87913 0.0
C231 C 0.22339 0.55478 0.8215 0.0
O232 O 0.24675 0.56578 0.82174 0.0
O233 O 0.20992 0.605 0.92 0.0
C234 C 0.4556 0.25998 0.77066 0.0
O235 O 0.43941 0.25786 0.73931 0.0
O236 O 0.39475 0.22035 0.79152 0.0
Zn237 Zn 0.40992 0.25139 0.82308 0.0
O238 O 0.40844 0.24373 0.88393 0.0
C239 C 0.37086 0.28525 0.78473 0.0
O240 O 0.37106 0.26686 0.75565 0.0
O241 O 0.44716 0.25831 0.80741 0.0
C242 C 0.39072 0.22908 0.89977 0.0
O243 O 0.37358 0.21704 0.87586 0.0
C244 C 0.40519 0.19732 0.78785 0.0
O245 O 0.42824 0.19247 0.80425 0.0
O246 O 0.38706 0.28374 0.81443 0.0
C247 C 0.80608 0.35887 0.79696 0.0
O248 O 0.78502 0.367 0.77732 0.0
O249 O 0.77696 0.41943 0.84705 0.0
Zn250 Zn 0.7776 0.38074 0.86332 0.0
O251 O 0.74377 0.36299 0.8466 0.0
C252 C 0.76084 0.38567 0.94559 0.0
O253 O 0.74017 0.39478 0.92583 0.0
O254 O 0.80782 0.36231 0.83569 0.0
C255 C 0.7408 0.33841 0.85597 0.0
O256 O 0.75959 0.32563 0.8755 0.0
C257 C 0.76436 0.42801 0.8159 0.0
O258 O 0.7507 0.41133 0.79302 0.0
O259 O 0.7808 0.37845 0.92504 0.0
C260 C 0.54096 0.26487 0.22788 0.0
O261 O 0.55612 0.28251 0.24629 0.0
O262 O 0.60447 0.21486 0.22234 0.0
Zn263 Zn 0.58853 0.2449 0.18863 0.0
O264 O 0.59036 0.23658 0.1274 0.0
C265 C 0.63099 0.28097 0.20878 0.0
O266 O 0.64436 0.25848 0.20953 0.0
O267 O 0.55066 0.24755 0.20349 0.0
C268 C 0.6096 0.24348 0.10494 0.0
O269 O 0.62935 0.25659 0.12124 0.0
C270 C 0.62441 0.20208 0.20963 0.0
O271 O 0.63407 0.20741 0.17301 0.0
O272 O 0.60658 0.28038 0.20122 0.0
C273 C 0.81153 0.63985 0.20951 0.0
O274 O 0.78954 0.63815 0.23031 0.0
O275 O 0.78039 0.57129 0.16703 0.0
Zn276 Zn 0.78196 0.61008 0.15082 0.0
O277 O 0.74976 0.62942 0.17002 0.0
C278 C 0.77724 0.59496 0.06464 0.0
O279 O 0.77006 0.5715 0.07943 0.0
O280 O 0.81358 0.62814 0.17485 0.0
C281 C 0.72692 0.62221 0.15919 0.0
O282 O 0.72382 0.60083 0.13591 0.0
C283 C 0.77837 0.56325 0.20412 0.0
O284 O 0.77718 0.58073 0.23443 0.0
O285 O 0.78342 0.61388 0.08909 0.0
C286 C 0.45244 0.74003 0.21746 0.0
O287 O 0.4357 0.73958 0.2482 0.0
O288 O 0.3923 0.77832 0.20107 0.0
Zn289 Zn 0.40645 0.74776 0.16649 0.0
O290 O 0.40402 0.75643 0.10525 0.0
C291 C 0.36218 0.71405 0.18697 0.0
O292 O 0.35028 0.73738 0.18868 0.0
O293 O 0.44437 0.74283 0.1806 0.0
C294 C 0.38388 0.75032 0.08417 0.0
O295 O 0.36403 0.73835 0.10207 0.0
C296 C 0.37313 0.7925 0.18882 0.0
O297 O 0.36329 0.78848 0.15189 0.0
O298 O 0.38656 0.71319 0.17912 0.0
C299 C 0.16851 0.37541 0.1895 0.0
O300 O 0.16434 0.39861 0.17123 0.0
O301 O 0.22761 0.41544 0.16605 0.0
Zn302 Zn 0.22065 0.37684 0.15194 0.0
O303 O 0.25115 0.35302 0.16651 0.0
C304 C 0.23261 0.37557 0.06633 0.0
O305 O 0.25614 0.37891 0.08177 0.0
O306 O 0.19025 0.3634 0.18504 0.0
C307 C 0.27503 0.36009 0.16781 0.0
O308 O 0.28152 0.38509 0.15977 0.0
C309 C 0.23174 0.4237 0.20256 0.0
O310 O 0.2326 0.40657 0.2334 0.0
O311 O 0.21316 0.37421 0.0907 0.0
C312 C 0.43072 0.2511 0.21929 0.0
O313 O 0.41299 0.24592 0.24753 0.0
O314 O 0.37762 0.2065 0.19603 0.0
Zn315 Zn 0.38997 0.23737 0.16086 0.0
O316 O 0.39392 0.22659 0.10119 0.0
C317 C 0.35382 0.27828 0.19449 0.0
O318 O 0.35966 0.26889 0.23125 0.0
O319 O 0.42497 0.2494 0.18124 0.0
C320 C 0.37504 0.23044 0.0763 0.0
O321 O 0.35269 0.23978 0.09019 0.0
C322 C 0.35478 0.19697 0.19131 0.0
O323 O 0.33988 0.20604 0.16137 0.0
O324 O 0.36443 0.26822 0.1626 0.0
C325 C 0.77318 0.44807 0.21528 0.0
O326 O 0.79305 0.43561 0.19815 0.0
O327 O 0.77826 0.37424 0.23859 0.0
Zn328 Zn 0.75148 0.39637 0.20763 0.0
O329 O 0.75941 0.39623 0.14685 0.0
C330 C 0.71136 0.35763 0.22473 0.0
O331 O 0.73175 0.34287 0.23423 0.0
O332 O 0.75284 0.43486 0.22506 0.0
C333 C 0.75337 0.37669 0.1235 0.0
O334 O 0.74312 0.35485 0.13955 0.0
C335 C 0.80061 0.36876 0.2235 0.0
O336 O 0.8069 0.37761 0.1866 0.0
O337 O 0.71466 0.38211 0.21494 0.0
C338 C 0.5642 0.73768 0.21384 0.0
O339 O 0.58163 0.74536 0.24124 0.0
O340 O 0.62825 0.76389 0.18546 0.0
Zn341 Zn 0.60766 0.73567 0.15533 0.0
O342 O 0.605 0.74559 0.09542 0.0
C343 C 0.63958 0.69291 0.19013 0.0
O344 O 0.63622 0.70559 0.22528 0.0
O345 O 0.57125 0.73187 0.17735 0.0
C346 C 0.62464 0.7417 0.07219 0.0
O347 O 0.64645 0.7321 0.08783 0.0
C348 C 0.62824 0.78847 0.17481 0.0
O349 O 0.61347 0.79652 0.14398 0.0
O350 O 0.62813 0.70132 0.15781 0.0
C351 C 0.23074 0.5387 0.20121 0.0
O352 O 0.21202 0.54777 0.17712 0.0
O353 O 0.22022 0.61503 0.2349 0.0
Zn354 Zn 0.24505 0.59382 0.19954 0.0
O355 O 0.23332 0.596 0.14025 0.0
C356 C 0.28082 0.63615 0.19484 0.0
O357 O 0.25896 0.64843 0.18476 0.0
O358 O 0.24722 0.55501 0.21656 0.0
C359 C 0.24802 0.58615 0.11254 0.0
O360 O 0.2703 0.57485 0.12297 0.0
C361 C 0.19698 0.60837 0.24433 0.0
O362 O 0.18725 0.58546 0.23137 0.0
O363 O 0.28038 0.61129 0.20367 0.0
C364 C 0.42961 0.75189 0.80292 0.0
O365 O 0.42364 0.77575 0.8175 0.0
O366 O 0.36208 0.77731 0.7934 0.0
Zn367 Zn 0.37748 0.74518 0.82369 0.0
O368 O 0.38554 0.75335 0.88324 0.0
C369 C 0.3352 0.70741 0.8005 0.0
O370 O 0.33214 0.72159 0.76661 0.0
O371 O 0.41177 0.73431 0.79912 0.0
C372 C 0.36965 0.7636 0.90891 0.0
O373 O 0.34652 0.77173 0.89659 0.0
C374 C 0.33794 0.7832 0.79627 0.0
O375 O 0.3226 0.76867 0.81982 0.0
O376 O 0.35308 0.7135 0.82605 0.0
C377 C 0.22125 0.443 0.77647 0.0
O378 O 0.20162 0.42963 0.76027 0.0
O379 O 0.21272 0.37283 0.76754 0.0
Zn380 Zn 0.23924 0.39083 0.80471 0.0
O381 O 0.23036 0.38788 0.86542 0.0
C382 C 0.27786 0.35016 0.79355 0.0
O383 O 0.25703 0.33498 0.79722 0.0
O384 O 0.23966 0.43047 0.79447 0.0
C385 C 0.22999 0.36701 0.88809 0.0
O386 O 0.23316 0.34318 0.87148 0.0
C387 C 0.19065 0.36434 0.78011 0.0
O388 O 0.18427 0.36713 0.81915 0.0
O389 O 0.27551 0.37554 0.79541 0.0
C390 C 0.56606 0.2599 0.7875 0.0
O391 O 0.58539 0.27147 0.76754 0.0
O392 O 0.62114 0.20687 0.80879 0.0
Zn393 Zn 0.60611 0.23751 0.84228 0.0
O394 O 0.60087 0.22928 0.903 0.0
C395 C 0.65404 0.26772 0.83703 0.0
O396 O 0.66429 0.24356 0.83701 0.0
O397 O 0.57063 0.24536 0.81892 0.0
C398 C 0.6194 0.23003 0.92921 0.0
O399 O 0.64359 0.23336 0.91674 0.0
C400 C 0.63767 0.18972 0.82164 0.0
O401 O 0.64495 0.18985 0.86052 0.0
O402 O 0.62932 0.27053 0.83811 0.0
C403 C 0.77203 0.54225 0.79349 0.0
O404 O 0.795 0.5524 0.80287 0.0
O405 O 0.79012 0.61031 0.77385 0.0
Zn406 Zn 0.75864 0.59602 0.80489 0.0
O407 O 0.76476 0.59519 0.86631 0.0
C408 C 0.72147 0.6326 0.76391 0.0
O409 O 0.73832 0.63357 0.73338 0.0
O410 O 0.75241 0.55773 0.78994 0.0
C411 C 0.77541 0.61315 0.88848 0.0
O412 O 0.78438 0.63528 0.8716 0.0
C413 C 0.7948 0.63534 0.77153 0.0
O414 O 0.77934 0.65252 0.79019 0.0
O415 O 0.72599 0.61774 0.79502 0.0
C416 C 0.17043 0.16598 0.33071 0.0
C417 C 0.18749 0.16276 0.29652 0.0
C418 C 0.16154 0.19525 0.25677 0.0
C419 C 0.14754 0.20182 0.29316 0.0
N420 N 0.14017 0.19532 0.36624 0.0
N421 N 0.19937 0.17344 0.22638 0.0
C422 C 0.152 0.18737 0.33038 0.0
C423 C 0.18293 0.17702 0.25921 0.0
N424 N 0.17203 0.14896 0.36379 0.0
N425 N 0.15393 0.20603 0.21979 0.0
H426 H 0.21396 0.15874 0.22598 0.0
H427 H 0.19929 0.18564 0.20024 0.0
H428 H 0.13803 0.2191 0.21704 0.0
H429 H 0.16171 0.20026 0.19145 0.0
H430 H 0.15826 0.14859 0.38747 0.0
H431 H 0.18562 0.13343 0.36592 0.0
H432 H 0.14523 0.18785 0.39522 0.0
H433 H 0.12676 0.21103 0.36778 0.0
C434 C 0.81265 0.14919 0.36615 0.0
C435 C 0.80103 0.1381 0.33021 0.0
C436 C 0.8233 0.17119 0.28662 0.0
C437 C 0.83464 0.18261 0.32261 0.0
N438 N 0.84352 0.18076 0.39583 0.0
N439 N 0.79837 0.13446 0.25631 0.0
C440 C 0.83056 0.17088 0.36211 0.0
C441 C 0.80738 0.14785 0.29037 0.0
N442 N 0.80546 0.13982 0.40426 0.0
N443 N 0.82739 0.18307 0.24904 0.0
H444 H 0.78663 0.11734 0.25838 0.0
H445 H 0.80396 0.13891 0.22619 0.0
H446 H 0.84019 0.19918 0.24488 0.0
H447 H 0.81743 0.1778 0.2222 0.0
H448 H 0.81038 0.14911 0.43198 0.0
H449 H 0.79329 0.12319 0.40836 0.0
H450 H 0.84392 0.17133 0.42452 0.0
H451 H 0.85526 0.19784 0.39479 0.0
C452 C 0.85476 0.83617 0.24605 0.0
C453 C 0.85299 0.8137 0.27308 0.0
C454 C 0.80601 0.82169 0.28096 0.0
C455 C 0.80827 0.84586 0.25812 0.0
N456 N 0.8357 0.87854 0.22404 0.0
N457 N 0.82765 0.78937 0.32445 0.0
C458 C 0.83287 0.85375 0.24174 0.0
C459 C 0.82892 0.80782 0.2932 0.0
N460 N 0.87743 0.84092 0.22489 0.0
N461 N 0.78185 0.81121 0.28937 0.0
H462 H 0.84369 0.77884 0.33569 0.0
H463 H 0.81098 0.78667 0.34252 0.0
H464 H 0.76456 0.82003 0.27892 0.0
H465 H 0.77912 0.79221 0.30225 0.0
H466 H 0.87889 0.85495 0.2011 0.0
H467 H 0.89451 0.82984 0.22965 0.0
H468 H 0.85374 0.88658 0.21562 0.0
H469 H 0.82027 0.8921 0.22082 0.0
C470 C 0.17565 0.81266 0.36268 0.0
C471 C 0.17464 0.79329 0.33044 0.0
C472 C 0.21409 0.81244 0.29905 0.0
C473 C 0.21539 0.83129 0.33173 0.0
N474 N 0.19465 0.85413 0.38845 0.0
N475 N 0.18821 0.77902 0.26272 0.0
C476 C 0.19511 0.83305 0.36137 0.0
C477 C 0.19242 0.79459 0.29688 0.0
N478 N 0.15932 0.81054 0.39597 0.0
N479 N 0.234 0.81108 0.27094 0.0
H480 H 0.17209 0.76624 0.26002 0.0
H481 H 0.19911 0.78056 0.23568 0.0
H482 H 0.24941 0.82485 0.27042 0.0
H483 H 0.23594 0.79567 0.24941 0.0
H484 H 0.16147 0.82181 0.42283 0.0
H485 H 0.14445 0.79631 0.39816 0.0
H486 H 0.17902 0.85814 0.40811 0.0
H487 H 0.20895 0.86907 0.38866 0.0
C488 C 0.16511 0.82491 0.74848 0.0
C489 C 0.14048 0.83436 0.73429 0.0
C490 C 0.1583 0.87991 0.72732 0.0
C491 C 0.18358 0.86966 0.73626 0.0
N492 N 0.21193 0.83224 0.75229 0.0
N493 N 0.11334 0.87015 0.70806 0.0
C494 C 0.18722 0.84215 0.74643 0.0
C495 C 0.13687 0.86177 0.72358 0.0
N496 N 0.16716 0.79959 0.76473 0.0
N497 N 0.15482 0.90703 0.72301 0.0
H498 H 0.09711 0.85751 0.70563 0.0
H499 H 0.11025 0.88908 0.69522 0.0
H500 H 0.17021 0.92074 0.72537 0.0
H501 H 0.13655 0.91616 0.72049 0.0
H502 H 0.18391 0.7924 0.77941 0.0
H503 H 0.15129 0.78646 0.76696 0.0
H504 H 0.21617 0.81181 0.75458 0.0
H505 H 0.22861 0.8443 0.75211 0.0
C506 C 0.18593 0.15691 0.7196 0.0
C507 C 0.20435 0.15943 0.68699 0.0
C508 C 0.18194 0.1999 0.66255 0.0
C509 C 0.16171 0.19542 0.69168 0.0
N510 N 0.1425 0.16782 0.74486 0.0
N511 N 0.21616 0.17981 0.62168 0.0
C512 C 0.16317 0.17343 0.7195 0.0
C513 C 0.20138 0.17998 0.65686 0.0
N514 N 0.19064 0.13946 0.7514 0.0
N515 N 0.18326 0.22369 0.64143 0.0
H516 H 0.22987 0.16493 0.61507 0.0
H517 H 0.21278 0.1928 0.59696 0.0
H518 H 0.17006 0.2394 0.64605 0.0
H519 H 0.19911 0.22897 0.62288 0.0
H520 H 0.17928 0.13872 0.77807 0.0
H521 H 0.20732 0.1274 0.75291 0.0
H522 H 0.14126 0.15039 0.7626 0.0
H523 H 0.12557 0.17953 0.74563 0.0
C524 C 0.8308 0.14151 0.67736 0.0
C525 C 0.8092 0.14752 0.70329 0.0
C526 C 0.83063 0.18899 0.72594 0.0
C527 C 0.84947 0.18546 0.69436 0.0
N528 N 0.86869 0.15864 0.64047 0.0
N529 N 0.78891 0.17535 0.755 0.0
C530 C 0.8503 0.16148 0.67081 0.0
C531 C 0.80944 0.17064 0.72889 0.0
N532 N 0.83239 0.11697 0.65857 0.0
N533 N 0.83324 0.20993 0.75301 0.0
H534 H 0.77405 0.16131 0.75994 0.0
H535 H 0.78607 0.19333 0.77079 0.0
H536 H 0.84885 0.22345 0.75157 0.0
H537 H 0.82142 0.2127 0.7788 0.0
H538 H 0.84867 0.11044 0.64211 0.0
H539 H 0.8183 0.10207 0.66248 0.0
H540 H 0.86846 0.14331 0.61862 0.0
H541 H 0.88372 0.17252 0.63586 0.0
C542 C 0.80649 0.81006 0.6247 0.0
C543 C 0.81016 0.79713 0.66343 0.0
C544 C 0.7684 0.81513 0.68829 0.0
C545 C 0.765 0.8284 0.64986 0.0
N546 N 0.78246 0.84307 0.58451 0.0
N547 N 0.79796 0.79173 0.73477 0.0
C548 C 0.7847 0.82747 0.61914 0.0
C549 C 0.79207 0.801 0.69608 0.0
N550 N 0.82279 0.80437 0.5924 0.0
N551 N 0.74874 0.81562 0.71694 0.0
H552 H 0.81536 0.78164 0.74152 0.0
H553 H 0.78687 0.79603 0.76089 0.0
H554 H 0.73168 0.8269 0.71317 0.0
H555 H 0.74861 0.80374 0.74342 0.0
H556 H 0.81929 0.8105 0.56214 0.0
H557 H 0.83897 0.79177 0.59503 0.0
H558 H 0.79748 0.84563 0.56318 0.0
H559 H 0.7662 0.85516 0.57858 0.0
C560 C 0.65636 0.666 0.7373 0.0
C561 C 0.65544 0.68645 0.76781 0.0
C562 C 0.69714 0.67068 0.79685 0.0
C563 C 0.69888 0.65128 0.76475 0.0
N564 N 0.6818 0.6318 0.70202 0.0
N565 N 0.67664 0.71099 0.82298 0.0
C566 C 0.67905 0.64947 0.73408 0.0
C567 C 0.67617 0.68939 0.79682 0.0
N568 N 0.63493 0.66142 0.71291 0.0
N569 N 0.71562 0.67139 0.8275 0.0
H570 H 0.66162 0.72498 0.82503 0.0
H571 H 0.69283 0.71639 0.84067 0.0
H572 H 0.73303 0.66053 0.82665 0.0
H573 H 0.71318 0.68183 0.85509 0.0
H574 H 0.63311 0.64503 0.69314 0.0
H575 H 0.61782 0.67278 0.71486 0.0
H576 H 0.66984 0.63186 0.67597 0.0
H577 H 0.69701 0.61788 0.70018 0.0
C578 C 0.27951 0.67111 0.85477 0.0
C579 C 0.27989 0.64605 0.83408 0.0
C580 C 0.31473 0.66215 0.78828 0.0
C581 C 0.31602 0.68631 0.81162 0.0
N582 N 0.30219 0.71235 0.87094 0.0
N583 N 0.29872 0.61618 0.78379 0.0
C584 C 0.29921 0.69035 0.84605 0.0
C585 C 0.2977 0.64113 0.80144 0.0
N586 N 0.25975 0.67693 0.88185 0.0
N587 N 0.3298 0.65931 0.75368 0.0
H588 H 0.28601 0.60066 0.79203 0.0
H589 H 0.31306 0.61023 0.76291 0.0
H590 H 0.34357 0.67358 0.74445 0.0
H591 H 0.32773 0.64359 0.73275 0.0
H592 H 0.25663 0.69599 0.89419 0.0
H593 H 0.24489 0.66339 0.88919 0.0
H594 H 0.29295 0.71439 0.89942 0.0
H595 H 0.31534 0.72781 0.86495 0.0
C596 C 0.3432 0.32263 0.75573 0.0
C597 C 0.34842 0.30393 0.78785 0.0
C598 C 0.31142 0.32152 0.8273 0.0
C599 C 0.3039 0.33727 0.79288 0.0
N600 N 0.31122 0.35179 0.7228 0.0
N601 N 0.33401 0.28168 0.85036 0.0
C602 C 0.31952 0.33777 0.7567 0.0
C603 C 0.33171 0.30241 0.8228 0.0
N604 N 0.36108 0.32627 0.72486 0.0
N605 N 0.2994 0.32517 0.86457 0.0
H606 H 0.34755 0.26615 0.84711 0.0
H607 H 0.32061 0.27828 0.87404 0.0
H608 H 0.28502 0.33975 0.86918 0.0
H609 H 0.30577 0.31596 0.89171 0.0
H610 H 0.35962 0.34144 0.70278 0.0
H611 H 0.37858 0.31551 0.72337 0.0
H612 H 0.32017 0.35046 0.694 0.0
H613 H 0.29429 0.36351 0.72281 0.0
C614 C 0.68647 0.29844 0.80432 0.0
C615 C 0.67172 0.29114 0.83961 0.0
C616 C 0.69858 0.32052 0.88316 0.0
C617 C 0.71543 0.32489 0.84902 0.0
N618 N 0.72522 0.32038 0.77662 0.0
N619 N 0.66155 0.29625 0.91177 0.0
C620 C 0.70908 0.31488 0.80922 0.0
C621 C 0.67686 0.3029 0.87869 0.0
N622 N 0.67853 0.28971 0.76626 0.0
N623 N 0.70331 0.33353 0.91963 0.0
H624 H 0.64434 0.28522 0.90877 0.0
H625 H 0.66591 0.30108 0.94226 0.0
H626 H 0.71934 0.34617 0.92401 0.0
H627 H 0.69072 0.33335 0.94484 0.0
H628 H 0.68713 0.29546 0.73855 0.0
H629 H 0.66181 0.27793 0.76213 0.0
H630 H 0.7236 0.31152 0.74766 0.0
H631 H 0.74098 0.33361 0.77884 0.0
C632 C 0.64959 0.32451 0.18341 0.0
C633 C 0.64494 0.30652 0.21657 0.0
C634 C 0.67664 0.33082 0.25932 0.0
C635 C 0.68515 0.34486 0.22371 0.0
N636 N 0.67935 0.35623 0.1516 0.0
N637 N 0.65163 0.29359 0.28744 0.0
C638 C 0.67109 0.34263 0.18591 0.0
C639 C 0.65751 0.31027 0.25518 0.0
N640 N 0.63379 0.32393 0.14932 0.0
N641 N 0.6868 0.33748 0.29703 0.0
H642 H 0.63626 0.27978 0.2862 0.0
H643 H 0.6623 0.2928 0.31481 0.0
H644 H 0.70044 0.35293 0.30072 0.0
H645 H 0.68011 0.32959 0.32487 0.0
H646 H 0.63449 0.33823 0.12586 0.0
H647 H 0.61822 0.31058 0.14613 0.0
H648 H 0.67245 0.3524 0.12193 0.0
H649 H 0.69408 0.37066 0.15213 0.0
C650 C 0.70486 0.66683 0.15298 0.0
C651 C 0.70443 0.64002 0.16797 0.0
C652 C 0.66073 0.64747 0.19731 0.0
C653 C 0.66222 0.67477 0.18499 0.0
N654 N 0.68789 0.71199 0.1596 0.0
N655 N 0.68407 0.60567 0.20962 0.0
C656 C 0.68497 0.68491 0.16538 0.0
C657 C 0.6829 0.6305 0.19156 0.0
N658 N 0.72354 0.67472 0.12526 0.0
N659 N 0.63796 0.63769 0.21355 0.0
H660 H 0.70005 0.59281 0.20621 0.0
H661 H 0.67022 0.59865 0.23058 0.0
H662 H 0.62169 0.64984 0.21914 0.0
H663 H 0.63458 0.61734 0.21897 0.0
H664 H 0.723 0.69311 0.10985 0.0
H665 H 0.73819 0.66197 0.1144 0.0
H666 H 0.70525 0.72077 0.14947 0.0
H667 H 0.67385 0.72597 0.16879 0.0
C668 C 0.32339 0.65047 0.16387 0.0
C669 C 0.30538 0.65171 0.19706 0.0
C670 C 0.33131 0.68725 0.22964 0.0
C671 C 0.34648 0.68933 0.19315 0.0
N672 N 0.35742 0.67304 0.12502 0.0
N673 N 0.29176 0.67054 0.26213 0.0
C674 C 0.34309 0.67058 0.16044 0.0
C675 C 0.30937 0.66972 0.23038 0.0
N676 N 0.32142 0.63027 0.13541 0.0
N677 N 0.3383 0.70179 0.26373 0.0
H678 H 0.27628 0.65695 0.2648 0.0
H679 H 0.29168 0.6854 0.28476 0.0
H680 H 0.35481 0.71416 0.2642 0.0
H681 H 0.32948 0.69967 0.2925 0.0
H682 H 0.33547 0.62652 0.11287 0.0
H683 H 0.3067 0.61577 0.13633 0.0
H684 H 0.35338 0.66254 0.09796 0.0
H685 H 0.37276 0.68662 0.12179 0.0
C686 C 0.31477 0.34327 0.20605 0.0
C687 C 0.2955 0.3395 0.17492 0.0
C688 C 0.31207 0.29415 0.16227 0.0
C689 C 0.33333 0.29912 0.18941 0.0
N690 N 0.35749 0.33037 0.23192 0.0
N691 N 0.27996 0.31362 0.11655 0.0
C692 C 0.33541 0.32422 0.20999 0.0
C693 C 0.29531 0.31559 0.15105 0.0
N694 N 0.31283 0.36436 0.23291 0.0
N695 N 0.3071 0.26869 0.14855 0.0
H696 H 0.26806 0.3292 0.10602 0.0
H697 H 0.28124 0.29762 0.09588 0.0
H698 H 0.31807 0.25212 0.1579 0.0
H699 H 0.29036 0.26359 0.13189 0.0
H700 H 0.32482 0.36645 0.25877 0.0
H701 H 0.29768 0.3784 0.23174 0.0
H702 H 0.36117 0.34945 0.24387 0.0
H703 H 0.37325 0.31719 0.23495 0.0
C704 C 0.97291 0.22259 0.25608 0.0
C705 C 0.95842 0.24678 0.25276 0.0
C706 C -0.00159 0.27145 0.2354 0.0
C707 C 0.01319 0.24845 0.24656 0.0
N708 N 0.01544 0.20163 0.26515 0.0
N709 N 0.95662 0.29448 0.23932 0.0
C710 C 0.00067 0.22371 0.25562 0.0
C711 C 0.97085 0.27121 0.24143 0.0
N712 N 0.95994 0.19863 0.25942 0.0
N713 N 0.01082 0.29359 0.21986 0.0
H714 H 0.93636 0.29506 0.24298 0.0
H715 H 0.96496 0.31347 0.2363 0.0
H716 H 0.03104 0.29442 0.21577 0.0
H717 H 0.00103 0.31015 0.20764 0.0
H718 H 0.96913 0.17996 0.25861 0.0
H719 H 0.93954 0.19738 0.25934 0.0
H720 H 0.00774 0.18384 0.27697 0.0
H721 H 0.03581 0.20147 0.26259 0.0
C722 C 0.74802 0.01238 0.32093 0.0
C723 C 0.73484 0.02991 0.29335 0.0
C724 C 0.71924 0.99122 0.25344 0.0
C725 C 0.72976 0.97386 0.28397 0.0
N726 N 0.75003 0.96795 0.35091 0.0
N727 N 0.70521 0.03642 0.23605 0.0
C728 C 0.74315 0.9844 0.31879 0.0
C729 C 0.71986 0.01949 0.26004 0.0
N730 N 0.76579 0.02241 0.34851 0.0
N731 N 0.70909 0.98067 0.21789 0.0
H732 H 0.70508 0.05723 0.23995 0.0
H733 H 0.69163 0.02975 0.21435 0.0
H734 H 0.70818 0.96002 0.21233 0.0
H735 H 0.70359 0.99233 0.19259 0.0
H736 H 0.77794 0.01031 0.36649 0.0
H737 H 0.77033 0.04279 0.35034 0.0
H738 H 0.75699 0.97514 0.37907 0.0
H739 H 0.74653 0.9473 0.35114 0.0
C740 C 0.0261 0.7871 0.29469 0.0
C741 C 0.04052 0.76319 0.28741 0.0
C742 C 0.00031 0.7392 0.26918 0.0
C743 C 0.98584 0.76317 0.27608 0.0
N744 N 0.98515 0.81118 0.28549 0.0
N745 N 0.04281 0.719 0.25725 0.0
C746 C -0.00114 0.78757 0.2856 0.0
C747 C 0.02805 0.74005 0.27119 0.0
N748 N 0.03807 0.80883 0.31236 0.0
N749 N 0.9876 0.71529 0.26337 0.0
H750 H 0.06324 0.71912 0.25802 0.0
H751 H 0.03501 0.70268 0.24128 0.0
H752 H 0.96729 0.71358 0.26188 0.0
H753 H -0.0029 0.69676 0.26324 0.0
H754 H 0.02797 0.82566 0.32291 0.0
H755 H 0.05802 0.80936 0.31914 0.0
H756 H 0.9939 0.83 0.28832 0.0
H757 H 0.9652 0.81208 0.27866 0.0
C758 C 0.27116 0.98625 0.32552 0.0
C759 C 0.25801 0.96817 0.29865 0.0
C760 C 0.24338 0.00603 0.25579 0.0
C761 C 0.25758 0.02376 0.2817 0.0
N762 N 0.29106 0.03006 0.33337 0.0
N763 N 0.2369 0.96005 0.2331 0.0
C764 C 0.27344 0.01361 0.31405 0.0
C765 C 0.24568 0.97781 0.26217 0.0
N766 N 0.28009 0.97782 0.36321 0.0
N767 N 0.22691 0.01611 0.22632 0.0
H768 H 0.23883 0.93927 0.23631 0.0
H769 H 0.23003 0.96591 0.20416 0.0
H770 H 0.22506 0.03664 0.22043 0.0
H771 H 0.21378 0.00427 0.20974 0.0
H772 H 0.28711 0.99096 0.38569 0.0
H773 H 0.27813 0.95818 0.37389 0.0
H774 H 0.30492 0.02306 0.35442 0.0
H775 H 0.29372 0.05016 0.32505 0.0
C776 C 0.0023 0.74132 0.72973 0.0
C777 C 0.01684 0.75754 0.70203 0.0
C778 C 0.97612 0.77475 0.67181 0.0
C779 C 0.96201 0.75513 0.69449 0.0
N780 N 0.96072 0.72019 0.74598 0.0
N781 N 0.01818 0.78884 0.64495 0.0
C782 C 0.97482 0.73873 0.72411 0.0
C783 C 0.00393 0.77453 0.67318 0.0
N784 N 0.01487 0.72871 0.76164 0.0
N785 N 0.96299 0.79317 0.64823 0.0
H786 H 0.03857 0.78932 0.64468 0.0
H787 H 0.00993 0.7988 0.61983 0.0
H788 H 0.94269 0.7933 0.64507 0.0
H789 H 0.97196 0.80974 0.63456 0.0
H790 H 0.00526 0.71839 0.78513 0.0
H791 H 0.03498 0.73058 0.76662 0.0
H792 H 0.96914 0.70532 0.76431 0.0
H793 H 0.94034 0.71904 0.74448 0.0
C794 C 0.28064 0.00503 0.74367 0.0
C795 C 0.26945 0.99108 0.70982 0.0
C796 C 0.25501 0.03366 0.67965 0.0
C797 C 0.26887 0.04786 0.71079 0.0
N798 N 0.29868 0.04699 0.76881 0.0
N799 N 0.25111 0.99235 0.641 0.0
C800 C 0.28261 0.03357 0.74207 0.0
C801 C 0.25796 0.00543 0.67656 0.0
N802 N 0.2889 0.99109 0.77766 0.0
N803 N 0.23838 0.04701 0.65365 0.0
H804 H 0.25381 0.97177 0.63668 0.0
H805 H 0.24532 0.00233 0.61419 0.0
H806 H 0.23509 0.06763 0.65543 0.0
H807 H 0.2258 0.03724 0.63322 0.0
H808 H 0.29466 0.00035 0.80504 0.0
H809 H 0.28782 0.97018 0.77974 0.0
H810 H 0.31133 0.03731 0.78922 0.0
H811 H 0.30121 0.06778 0.76817 0.0
C812 C 0.01736 0.27317 0.72931 0.0
C813 C 0.03364 0.25004 0.72864 0.0
C814 C 0.99532 0.22067 0.7337 0.0
C815 C 0.97904 0.24378 0.73357 0.0
N816 N 0.9742 0.29154 0.74283 0.0
N817 N 0.03928 0.20268 0.74103 0.0
C818 C 0.99002 0.26991 0.7353 0.0
C819 C 0.02294 0.22404 0.73452 0.0
N820 N 0.02772 0.29802 0.72157 0.0
N821 N 0.98448 0.19562 0.73048 0.0
H822 H 0.05961 0.20472 0.74193 0.0
H823 H 0.03276 0.18359 0.74931 0.0
H824 H 0.96434 0.19228 0.73036 0.0
H825 H 0.99537 0.17824 0.72536 0.0
H826 H 0.01639 0.31513 0.71661 0.0
H827 H 0.04767 0.30137 0.71728 0.0
H828 H 0.98126 0.31085 0.74832 0.0
H829 H 0.95407 0.28964 0.74755 0.0
C830 C 0.71868 0.0054 0.6758 0.0
C831 C 0.72272 0.01265 0.71761 0.0
C832 C 0.71972 0.96533 0.73768 0.0
C833 C 0.72007 0.95802 0.69523 0.0
N834 N 0.72562 0.97151 0.62386 0.0
N835 N 0.72929 -0.00025 0.78861 0.0
C836 C 0.72101 0.97814 0.66419 0.0
C837 C 0.72376 0.9927 0.74877 0.0
N838 N 0.7118 0.02444 0.64731 0.0
N839 N 0.71445 0.94644 0.76721 0.0
H840 H 0.73188 0.01968 0.7978 0.0
H841 H 0.73314 0.98577 0.8118 0.0
H842 H 0.71046 0.92639 0.7602 0.0
H843 H 0.71149 0.95115 0.79819 0.0
H844 H 0.70596 0.01961 0.61736 0.0
H845 H 0.70919 0.04467 0.65478 0.0
H846 H 0.72887 0.98585 0.60094 0.0
H847 H 0.72917 0.9519 0.614 0.0
C848 C 0.50011 0.75721 0.76941 0.0
C849 C 0.51229 0.7404 0.79917 0.0
C850 C 0.46962 0.72718 0.82668 0.0
C851 C 0.45742 0.74464 0.7977 0.0
N852 N 0.45979 0.7711 0.73563 0.0
N853 N 0.50922 0.70437 0.84878 0.0
C854 C 0.47233 0.75798 0.76707 0.0
C855 C 0.49718 0.72351 0.82508 0.0
N856 N 0.51518 0.77293 0.74422 0.0
N857 N 0.45522 0.71574 0.85767 0.0
H858 H 0.52946 0.70176 0.84949 0.0
H859 H 0.49911 0.68957 0.86499 0.0
H860 H 0.43499 0.71783 0.86023 0.0
H861 H 0.46345 0.70568 0.88272 0.0
H862 H 0.50773 0.78805 0.72533 0.0
H863 H 0.53556 0.77147 0.74333 0.0
H864 H 0.46932 0.77937 0.71024 0.0
H865 H 0.43942 0.77173 0.73318 0.0
C866 C 0.20598 0.48033 0.82128 0.0
C867 C 0.21862 0.47201 0.78452 0.0
C868 C 0.22952 0.51875 0.76827 0.0
C869 C 0.22016 0.52657 0.80779 0.0
N870 N 0.20248 0.51414 0.87447 0.0
N871 N 0.24398 0.48231 0.72395 0.0
C872 C 0.20887 0.50727 0.83484 0.0
C873 C 0.23077 0.49096 0.75814 0.0
N874 N 0.19125 0.4624 0.84338 0.0
N875 N 0.23632 0.53792 0.73996 0.0
H876 H 0.24431 0.46218 0.71482 0.0
H877 H 0.25587 0.49473 0.70611 0.0
H878 H 0.23494 0.55849 0.74593 0.0
H879 H 0.24092 0.53361 0.70936 0.0
H880 H 0.17914 0.46801 0.86776 0.0
H881 H 0.18928 0.44222 0.8352 0.0
H882 H 0.19735 0.50017 0.89702 0.0
H883 H 0.20444 0.53349 0.8862 0.0
C884 C 0.49864 0.23882 0.75354 0.0
C885 C 0.4841 0.26211 0.76409 0.0
C886 C 0.52439 0.28618 0.78179 0.0
C887 C 0.5388 0.26253 0.77293 0.0
N888 N 0.54134 0.21916 0.74029 0.0
N889 N 0.48269 0.3096 0.7778 0.0
C890 C 0.52641 0.23976 0.75534 0.0
C891 C 0.49692 0.28641 0.77469 0.0
N892 N 0.48589 0.21541 0.74421 0.0
N893 N 0.53674 0.30783 0.79904 0.0
H894 H 0.46253 0.31016 0.77254 0.0
H895 H 0.49099 0.32852 0.78194 0.0
H896 H 0.55696 0.30857 0.80351 0.0
H897 H 0.52696 0.3245 0.8108 0.0
H898 H 0.49522 0.1969 0.74131 0.0
H899 H 0.46559 0.21415 0.74146 0.0
H900 H 0.53375 0.20302 0.7237 0.0
H901 H 0.56176 0.21947 0.74119 0.0
C902 C 0.75243 0.47447 0.83699 0.0
C903 C 0.76386 0.45709 0.80742 0.0
C904 C 0.77662 0.49577 0.76509 0.0
C905 C 0.76795 0.51305 0.79703 0.0
N906 N 0.75084 0.51926 0.86593 0.0
N907 N 0.789 0.45049 0.74522 0.0
C908 C 0.75657 0.50255 0.83362 0.0
C909 C 0.77635 0.4675 0.7717 0.0
N910 N 0.73707 0.46412 0.86772 0.0
N911 N 0.78473 0.50643 0.72833 0.0
H912 H 0.78907 0.42965 0.74893 0.0
H913 H 0.80096 0.45703 0.72122 0.0
H914 H 0.78542 0.5271 0.72285 0.0
H915 H 0.78879 0.4949 0.70228 0.0
H916 H 0.726 0.47596 0.88767 0.0
H917 H 0.73338 0.44359 0.8709 0.0
H918 H 0.7455 0.51236 0.8951 0.0
H919 H 0.75344 0.54004 0.86481 0.0
C920 C 0.47394 0.23689 0.2488 0.0
C921 C 0.458 0.2572 0.23098 0.0
C922 C 0.49651 0.28523 0.21799 0.0
C923 C 0.51246 0.26467 0.23502 0.0
N924 N 0.51642 0.22487 0.27685 0.0
N925 N 0.45264 0.30313 0.20907 0.0
C926 C 0.50111 0.24179 0.25392 0.0
C927 C 0.46886 0.28225 0.21908 0.0
N928 N 0.46351 0.21232 0.25827 0.0
N929 N 0.50776 0.30677 0.19865 0.0
H930 H 0.43228 0.30145 0.20995 0.0
H931 H 0.45919 0.32265 0.20374 0.0
H932 H 0.52793 0.30988 0.19782 0.0
H933 H 0.49725 0.32071 0.18128 0.0
H934 H 0.47478 0.19571 0.26654 0.0
H935 H 0.44368 0.20785 0.25521 0.0
H936 H 0.50896 0.20921 0.29468 0.0
H937 H 0.53642 0.22815 0.28123 0.0
C938 C 0.79474 0.51996 0.23475 0.0
C939 C 0.77535 0.53422 0.21226 0.0
C940 C 0.75434 0.49203 0.19231 0.0
C941 C 0.77289 0.47773 0.21651 0.0
N942 N 0.80753 0.47791 0.26711 0.0
N943 N 0.73304 0.53463 0.17922 0.0
C944 C 0.79213 0.49167 0.23976 0.0
C945 C 0.75398 0.52047 0.19407 0.0
N946 N 0.81626 0.53318 0.24956 0.0
N947 N 0.73813 0.47865 0.16567 0.0
H948 H 0.73189 0.55554 0.18094 0.0
H949 H 0.71575 0.52557 0.16932 0.0
H950 H 0.73816 0.45782 0.16221 0.0
H951 H 0.72637 0.4884 0.14402 0.0
H952 H 0.83247 0.52341 0.26202 0.0
H953 H 0.8188 0.5539 0.24671 0.0
H954 H 0.82011 0.48726 0.28796 0.0
H955 H 0.80603 0.45717 0.27151 0.0
C956 C 0.49412 0.71365 0.21708 0.0
C957 C 0.48086 0.73811 0.22524 0.0
C958 C 0.52263 0.76182 0.23224 0.0
C959 C 0.53596 0.73736 0.22379 0.0
N960 N 0.5352 0.68909 0.21831 0.0
N961 N 0.48174 0.78373 0.25017 0.0
C962 C 0.52189 0.71294 0.21945 0.0
C963 C 0.49492 0.76158 0.2363 0.0
N964 N 0.48015 0.69134 0.20595 0.0
N965 N 0.53616 0.78555 0.23342 0.0
H966 H 0.46139 0.78446 0.25239 0.0
H967 H 0.49098 0.8005 0.26277 0.0
H968 H 0.55643 0.78676 0.2304 0.0
H969 H 0.52719 0.80433 0.23437 0.0
H970 H 0.48868 0.6738 0.19472 0.0
H971 H 0.45973 0.69082 0.20603 0.0
H972 H 0.52613 0.67035 0.2189 0.0
H973 H 0.55555 0.68801 0.2206 0.0
C974 C 0.25626 0.46688 0.19823 0.0
C975 C 0.23337 0.45289 0.21011 0.0
C976 C 0.2119 0.49552 0.22681 0.0
C977 C 0.2331 0.50947 0.20841 0.0
N978 N 0.27474 0.50853 0.173 0.0
N979 N 0.18864 0.45332 0.2339 0.0
C980 C 0.25531 0.49525 0.19364 0.0
C981 C 0.21104 0.46702 0.22441 0.0
N982 N 0.27898 0.453 0.19184 0.0
N983 N 0.1929 0.50955 0.24725 0.0
H984 H 0.18748 0.4324 0.23351 0.0
H985 H 0.17077 0.46267 0.23961 0.0
H986 H 0.19326 0.53045 0.2501 0.0
H987 H 0.17825 0.50044 0.26468 0.0
H988 H 0.29699 0.46225 0.18686 0.0
H989 H 0.28026 0.43223 0.19586 0.0
H990 H 0.28975 0.49876 0.15726 0.0
H991 H 0.27489 0.52929 0.16876 0.0
C992 C 0.10031 0.24272 0.45993 0.0
C993 C 0.10703 0.26671 0.43855 0.0
C994 C 0.11702 0.28897 0.50439 0.0
C995 C 0.11262 0.26429 0.52519 0.0
N996 N 0.104 0.21662 0.52291 0.0
N997 N 0.12308 0.31228 0.43919 0.0
C998 C 0.10509 0.24091 0.50308 0.0
C999 C 0.11581 0.28974 0.46047 0.0
N1000 N 0.08941 0.22158 0.43905 0.0
N1001 N 0.12147 0.31184 0.5268 0.0
H1002 H 0.12053 0.31427 0.40739 0.0
H1003 H 0.13271 0.32854 0.45256 0.0
H1004 H 0.12253 0.31194 0.55898 0.0
H1005 H 0.12216 0.33103 0.514 0.0
H1006 H 0.08115 0.20496 0.45363 0.0
H1007 H 0.08681 0.2213 0.40715 0.0
H1008 H 0.10177 0.19832 0.50771 0.0
H1009 H 0.10757 0.21432 0.55444 0.0
C1010 C 0.74977 0.11536 0.5475 0.0
C1011 C 0.75033 0.09027 0.56845 0.0
C1012 C 0.74044 0.06681 0.50372 0.0
C1013 C 0.74273 0.09151 0.48213 0.0
N1014 N 0.75341 0.13882 0.48213 0.0
N1015 N 0.74926 0.0417 0.56624 0.0
C1016 C 0.74817 0.11575 0.50365 0.0
C1017 C 0.74662 0.06586 0.54646 0.0
N1018 N 0.75106 0.13882 0.56939 0.0
N1019 N 0.7313 0.04448 0.48369 0.0
H1020 H 0.75251 0.03996 0.5979 0.0
H1021 H 0.75001 0.02334 0.55085 0.0
H1022 H 0.72602 0.04455 0.45256 0.0
H1023 H 0.72653 0.0266 0.49866 0.0
H1024 H 0.74753 0.15764 0.55642 0.0
H1025 H 0.75395 0.13946 0.60123 0.0
H1026 H 0.76059 0.15628 0.49577 0.0
H1027 H 0.75274 0.14 0.45 0.0
C1028 C 0.87949 0.7156 0.46855 0.0
C1029 C 0.88212 0.74051 0.44758 0.0
C1030 C 0.88077 0.76469 0.51342 0.0
C1031 C 0.87575 0.74002 0.53407 0.0
N1032 N 0.86789 0.69223 0.53172 0.0
N1033 N 0.88029 0.78901 0.44862 0.0
C1034 C 0.87431 0.71552 0.51171 0.0
C1035 C 0.88158 0.76514 0.46962 0.0
N1036 N 0.88301 0.69205 0.44746 0.0
N1037 N 0.88475 0.78775 0.53556 0.0
H1038 H 0.88023 0.79028 0.41647 0.0
H1039 H 0.87677 0.80743 0.46282 0.0
H1040 H 0.88312 0.78879 0.56759 0.0
H1041 H 0.89162 0.80554 0.52248 0.0
H1042 H 0.88409 0.67329 0.46162 0.0
H1043 H 0.88705 0.69139 0.41591 0.0
H1044 H 0.8634 0.67435 0.51658 0.0
H1045 H 0.86561 0.69109 0.56366 0.0
C1046 C 0.24777 0.92135 0.53433 0.0
C1047 C 0.25106 0.8965 0.55529 0.0
C1048 C 0.25852 0.87379 0.48932 0.0
C1049 C 0.25765 0.89902 0.46871 0.0
N1050 N 0.25722 0.94748 0.47309 0.0
N1051 N 0.26549 0.85031 0.55393 0.0
C1052 C 0.25402 0.92303 0.49169 0.0
C1053 C 0.25825 0.87308 0.53314 0.0
N1054 N 0.23736 0.943 0.55448 0.0
N1055 N 0.25803 0.85039 0.46725 0.0
H1056 H 0.26602 0.84917 0.5861 0.0
H1057 H 0.27347 0.83354 0.53934 0.0
H1058 H 0.25714 0.8499 0.43517 0.0
H1059 H 0.25578 0.83154 0.48086 0.0
H1060 H 0.23203 0.96075 0.53954 0.0
H1061 H 0.23155 0.94238 0.58531 0.0
H1062 H 0.25744 0.96556 0.48933 0.0
H1063 H 0.26233 0.94954 0.44211 0.0
C1064 C 0.13437 0.7199 0.5073 0.0
C1065 C 0.12464 0.74051 0.48115 0.0
C1066 C 0.11398 0.76824 0.5414 0.0
C1067 C 0.1222 0.74696 0.56765 0.0
N1068 N 0.13639 0.70107 0.57641 0.0
N1069 N 0.10182 0.78265 0.47247 0.0
C1070 C 0.1314 0.72237 0.55083 0.0
C1071 C 0.11324 0.7641 0.49799 0.0
N1072 N 0.14679 0.69815 0.49048 0.0
N1073 N 0.10837 0.79295 0.55778 0.0
H1074 H 0.10198 0.78111 0.44036 0.0
H1075 H 0.09047 0.7986 0.4831 0.0
H1076 H 0.10917 0.79705 0.58933 0.0
H1077 H 0.10521 0.8101 0.54001 0.0
H1078 H 0.1571 0.68403 0.50779 0.0
H1079 H 0.1481 0.695 0.45871 0.0
H1080 H 0.14039 0.68172 0.56591 0.0
H1081 H 0.13453 0.70217 0.60843 0.0
C1082 C 0.24993 0.10201 0.47023 0.0
C1083 C 0.25537 0.12612 0.44832 0.0
C1084 C 0.26716 0.14834 0.51328 0.0
C1085 C 0.26392 0.12353 0.53446 0.0
N1086 N 0.2592 0.07529 0.53091 0.0
N1087 N 0.27512 0.17022 0.44763 0.0
C1088 C 0.2575 0.09989 0.51222 0.0
C1089 C 0.2658 0.14872 0.46943 0.0
N1090 N 0.23615 0.08167 0.45192 0.0
N1091 N 0.27012 0.17176 0.53485 0.0
H1092 H 0.27511 0.17094 0.41543 0.0
H1093 H 0.28528 0.18605 0.46133 0.0
H1094 H 0.27065 0.17262 0.56699 0.0
H1095 H 0.26963 0.19065 0.5209 0.0
H1096 H 0.22947 0.06489 0.46808 0.0
H1097 H 0.22882 0.08277 0.42191 0.0
H1098 H 0.25712 0.05724 0.51488 0.0
H1099 H 0.26555 0.07281 0.56132 0.0
C1100 C 0.87574 0.2833 0.48001 0.0
C1101 C 0.87949 0.25815 0.46031 0.0
C1102 C 0.88376 0.23605 0.52751 0.0
C1103 C 0.88252 0.26153 0.5472 0.0
N1104 N 0.88229 0.30995 0.54183 0.0
N1105 N 0.8923 0.21148 0.4645 0.0
C1106 C 0.87982 0.28536 0.52336 0.0
C1107 C 0.88526 0.23482 0.48381 0.0
N1108 N 0.8681 0.30516 0.45739 0.0
N1109 N 0.88185 0.21294 0.55027 0.0
H1110 H 0.89346 0.20964 0.4325 0.0
H1111 H 0.89934 0.1947 0.4803 0.0
H1112 H 0.8794 0.21281 0.58222 0.0
H1113 H 0.87985 0.19395 0.53709 0.0
H1114 H 0.86219 0.32325 0.47063 0.0
H1115 H 0.8659 0.30464 0.42537 0.0
H1116 H 0.88315 0.32796 0.52544 0.0
H1117 H 0.88598 0.31228 0.57331 0.0
C1118 C 0.71053 0.86396 0.48562 0.0
C1119 C 0.71097 0.8897 0.50467 0.0
C1120 C 0.70684 0.91159 0.43706 0.0
C1121 C 0.70857 0.88601 0.41795 0.0
N1122 N 0.71428 0.83801 0.42237 0.0
N1123 N 0.71107 0.93811 0.49963 0.0
C1124 C 0.71073 0.86218 0.44178 0.0
C1125 C 0.70955 0.91357 0.48067 0.0
N1126 N 0.71019 0.84124 0.50948 0.0
N1127 N 0.70183 0.93385 0.41343 0.0
H1128 H 0.7113 0.94043 0.53164 0.0
H1129 H 0.71341 0.9562 0.48387 0.0
H1130 H 0.69969 0.93303 0.3814 0.0
H1131 H 0.69783 0.9528 0.42546 0.0
H1132 H 0.70668 0.82206 0.49792 0.0
H1133 H 0.71206 0.84152 0.54154 0.0
H1134 H 0.71912 0.82026 0.43758 0.0
H1135 H 0.71398 0.83588 0.39032 0.0
C1136 C 0.62062 0.72067 0.00256 0.0
C1137 C 0.62175 0.74427 0.02705 0.0
C1138 C 0.61508 0.77222 0.96557 0.0
C1139 C 0.61603 0.74872 0.94084 0.0
N1140 N 0.6246 0.70116 0.93438 0.0
N1141 N 0.62391 0.79256 0.03225 0.0
C1142 C 0.62011 0.72306 0.95892 0.0
C1143 C 0.61998 0.77011 0.00869 0.0
N1144 N 0.61915 0.69597 0.02105 0.0
N1145 N 0.6088 0.79637 0.94794 0.0
H1146 H 0.62764 0.79166 0.0639 0.0
H1147 H 0.6256 0.81186 0.02008 0.0
H1148 H 0.60533 0.79863 0.91636 0.0
H1149 H 0.60504 0.81374 0.96486 0.0
H1150 H 0.6153 0.67828 0.00495 0.0
H1151 H 0.61954 0.6933 0.05301 0.0
H1152 H 0.63066 0.68259 0.9458 0.0
H1153 H 0.62455 0.70204 0.90219 0.0
C1154 C 0.23901 0.61144 0.00277 0.0
C1155 C 0.22784 0.58839 0.98367 0.0
C1156 C 0.23048 0.56369 0.04914 0.0
C1157 C 0.24014 0.5872 0.06868 0.0
N1158 N 0.2498 0.63464 0.06643 0.0
N1159 N 0.20761 0.54481 0.99032 0.0
C1160 C 0.24302 0.61151 0.04625 0.0
C1161 C 0.22206 0.56512 0.00735 0.0
N1162 N 0.24734 0.63258 0.97918 0.0
N1163 N 0.22971 0.5399 0.07032 0.0
H1164 H 0.20037 0.54559 0.96021 0.0
H1165 H 0.20054 0.52849 0.0071 0.0
H1166 H 0.23485 0.53822 0.10139 0.0
H1167 H 0.22578 0.52147 0.0564 0.0
H1168 H 0.25838 0.64849 0.9907 0.0
H1169 H 0.24521 0.63323 0.94723 0.0
H1170 H 0.24923 0.65358 0.05271 0.0
H1171 H 0.25419 0.63524 0.09789 0.0
C1172 C 0.38392 0.20487 0.01092 0.0
C1173 C 0.37976 0.22972 0.03134 0.0
C1174 C 0.38072 0.25357 0.96522 0.0
C1175 C 0.38699 0.22908 0.94503 0.0
N1176 N 0.39823 0.18206 0.94861 0.0
N1177 N 0.37955 0.27826 0.02952 0.0
C1178 C 0.38956 0.20484 0.96785 0.0
C1179 C 0.37966 0.25424 0.00894 0.0
N1180 N 0.38169 0.18132 0.03245 0.0
N1181 N 0.37469 0.27599 0.94261 0.0
H1182 H 0.37912 0.27972 0.06165 0.0
H1183 H 0.38242 0.29672 0.01497 0.0
H1184 H 0.37509 0.27647 0.91045 0.0
H1185 H 0.36695 0.29343 0.95555 0.0
H1186 H 0.38169 0.16244 0.01858 0.0
H1187 H 0.37789 0.18069 0.0641 0.0
H1188 H 0.40312 0.16446 0.96424 0.0
H1189 H 0.40255 0.18138 0.91715 0.0
C1190 C 0.76853 0.35852 0.05517 0.0
C1191 C 0.75627 0.37928 0.07812 0.0
C1192 C 0.75182 0.40597 0.01493 0.0
C1193 C 0.76048 0.38368 0.99129 0.0
N1194 N 0.77187 0.33646 0.98895 0.0
N1195 N 0.73063 0.42025 0.07779 0.0
C1196 C 0.7675 0.35929 0.01136 0.0
C1197 C 0.74639 0.40239 0.05751 0.0
N1198 N 0.78192 0.33852 0.07502 0.0
N1199 N 0.74955 0.43081 0.99716 0.0
H1200 H 0.72471 0.41767 0.10833 0.0
H1201 H 0.72101 0.43599 0.06287 0.0
H1202 H 0.75441 0.43459 0.96642 0.0
H1203 H 0.74568 0.44816 0.01412 0.0
H1204 H 0.79331 0.3244 0.05948 0.0
H1205 H 0.78397 0.33774 0.10705 0.0
H1206 H 0.77439 0.31763 0.00254 0.0
H1207 H 0.77024 0.33568 0.95691 0.0
C1208 C 0.61413 0.21311 0.04354 0.0
C1209 C 0.60883 0.23904 0.05981 0.0
C1210 C 0.60507 0.25739 0.98975 0.0
C1211 C 0.6135 0.23226 0.97372 0.0
N1212 N 0.62735 0.18649 0.9842 0.0
N1213 N 0.59995 0.2862 0.04965 0.0
C1214 C 0.61826 0.21013 0.0003 0.0
C1215 C 0.60434 0.26126 0.03322 0.0
N1216 N 0.61504 0.19139 0.0694 0.0
N1217 N 0.59757 0.27749 0.96336 0.0
H1218 H 0.59746 0.28951 0.08121 0.0
H1219 H 0.60001 0.30388 0.03244 0.0
H1220 H 0.59854 0.27581 0.93132 0.0
H1221 H 0.58857 0.29519 0.97289 0.0
H1222 H 0.61629 0.17158 0.05924 0.0
H1223 H 0.61247 0.19294 0.10124 0.0
H1224 H 0.63417 0.17055 0.00207 0.0
H1225 H 0.62941 0.18327 0.95252 0.0
C1226 C 0.75945 0.61897 0.0027 0.0
C1227 C 0.77707 0.5998 0.01959 0.0
C1228 C 0.79303 0.58877 0.95025 0.0
C1229 C 0.77674 0.60927 0.93369 0.0
N1230 N 0.74648 0.64597 0.94375 0.0
N1231 N 0.8134 0.56937 0.0111 0.0
C1232 C 0.7607 0.62514 0.95987 0.0
C1233 C 0.79455 0.58538 0.9938 0.0
N1234 N 0.74056 0.63016 0.02721 0.0
N1235 N 0.80697 0.57246 0.92432 0.0
H1236 H 0.81521 0.5665 0.04289 0.0
H1237 H 0.82858 0.56064 0.99441 0.0
H1238 H 0.80786 0.57543 0.89246 0.0
H1239 H 0.81649 0.55504 0.93398 0.0
H1240 H 0.72533 0.64202 0.01605 0.0
H1241 H 0.73864 0.62572 0.05854 0.0
H1242 H 0.73702 0.66032 0.96177 0.0
H1243 H 0.74536 0.65006 0.91222 0.0
C1244 C 0.37994 0.78357 0.97817 0.0
C1245 C 0.37492 0.76061 0.95348 0.0
C1246 C 0.38158 0.73127 0.01325 0.0
C1247 C 0.3834 0.75425 0.03892 0.0
N1248 N 0.38259 0.80246 0.04716 0.0
N1249 N 0.36673 0.71287 0.94823 0.0
C1250 C 0.38234 0.78052 0.02175 0.0
C1251 C 0.37469 0.73449 0.97115 0.0
N1252 N 0.38291 0.80815 0.9598 0.0
N1253 N 0.38728 0.7064 0.02889 0.0
H1254 H 0.36118 0.7143 0.91729 0.0
H1255 H 0.36332 0.69392 0.96084 0.0
H1256 H 0.39328 0.70344 0.05935 0.0
H1257 H 0.38879 0.68919 0.01073 0.0
H1258 H 0.38928 0.82523 0.97542 0.0
H1259 H 0.38087 0.81104 0.92803 0.0
H1260 H 0.37877 0.82195 0.03709 0.0
H1261 H 0.38508 0.80103 0.07904 0.0
C1262 C 0.21228 0.3535 0.95778 0.0
C1263 C 0.22911 0.36996 0.93371 0.0
C1264 C 0.24246 0.39388 0.99625 0.0
C1265 C 0.2292 0.37463 0.02082 0.0
N1266 N 0.20492 0.3329 0.02447 0.0
N1267 N 0.26538 0.40139 0.93233 0.0
C1268 C 0.21487 0.35358 0.00154 0.0
C1269 C 0.24558 0.38904 0.95348 0.0
N1270 N 0.19334 0.33839 0.9391 0.0
N1271 N 0.25156 0.41716 0.01346 0.0
H1272 H 0.27 0.39696 0.90174 0.0
H1273 H 0.27925 0.41358 0.94672 0.0
H1274 H 0.24853 0.42211 0.04439 0.0
H1275 H 0.25932 0.43283 0.99591 0.0
H1276 H 0.179 0.32804 0.95556 0.0
H1277 H 0.19023 0.33849 0.90725 0.0
H1278 H 0.19673 0.31575 0.01126 0.0
H1279 H 0.20709 0.33154 0.0564 0.0
C1280 C 0.12469 0.35378 0.20153 0.0
C1281 C 0.14875 0.36359 0.21746 0.0
C1282 C 0.14021 0.34183 0.28393 0.0
C1283 C 0.11597 0.3324 0.26833 0.0
N1284 N 0.08228 0.33395 0.21634 0.0
N1285 N 0.17616 0.37311 0.27628 0.0
C1286 C 0.10728 0.3399 0.22836 0.0
C1287 C 0.15544 0.35958 0.25953 0.0
N1288 N 0.11915 0.3564 0.16041 0.0
N1289 N 0.14945 0.33261 0.32098 0.0
H1290 H 0.18756 0.38649 0.25926 0.0
H1291 H 0.18044 0.37316 0.30774 0.0
H1292 H 0.13897 0.31946 0.33977 0.0
H1293 H 0.16838 0.33625 0.3316 0.0
H1294 H 0.10341 0.34694 0.14603 0.0
H1295 H 0.1313 0.36662 0.13986 0.0
H1296 H 0.07385 0.34104 0.18914 0.0
H1297 H 0.06912 0.32387 0.23551 0.0
C1298 C 0.65095 0.19126 0.27271 0.0
C1299 C 0.63794 0.18235 0.2364 0.0
C1300 C 0.65677 0.13733 0.24534 0.0
C1301 C 0.67265 0.14744 0.27771 0.0
N1302 N 0.68738 0.18469 0.31952 0.0
N1303 N 0.62791 0.14715 0.1877 0.0
C1304 C 0.67016 0.17446 0.29116 0.0
C1305 C 0.64061 0.15537 0.2227 0.0
N1306 N 0.64529 0.21583 0.28941 0.0
N1307 N 0.65673 0.11036 0.23706 0.0
H1308 H 0.61427 0.15911 0.17225 0.0
H1309 H 0.63159 0.12894 0.17298 0.0
H1310 H 0.66821 0.09664 0.25342 0.0
H1311 H 0.64383 0.10119 0.21653 0.0
H1312 H 0.65198 0.22198 0.31829 0.0
H1313 H 0.63206 0.2293 0.27643 0.0
H1314 H 0.68873 0.20507 0.32658 0.0
H1315 H 0.70199 0.17328 0.33362 0.0
C1316 C 0.84378 0.65236 0.26419 0.0
C1317 C 0.83262 0.65752 0.22483 0.0
C1318 C 0.85809 0.69903 0.21943 0.0
C1319 C 0.86499 0.69642 0.26148 0.0
N1320 N 0.86569 0.67073 0.32447 0.0
N1321 N 0.82762 0.68677 0.16551 0.0
C1322 C 0.85859 0.67287 0.2839 0.0
C1323 C 0.83974 0.68086 0.2021 0.0
N1324 N 0.84037 0.62777 0.28232 0.0
N1325 N 0.86908 0.71903 0.19628 0.0
H1326 H 0.81361 0.67442 0.15184 0.0
H1327 H 0.82986 0.70505 0.15021 0.0
H1328 H 0.88297 0.73222 0.20844 0.0
H1329 H 0.86665 0.72068 0.16443 0.0
H1330 H 0.84981 0.62188 0.30936 0.0
H1331 H 0.82984 0.6123 0.26824 0.0
H1332 H 0.85888 0.65572 0.34414 0.0
H1333 H 0.87775 0.68479 0.33894 0.0
C1334 C 0.35853 0.8394 0.20483 0.0
C1335 C 0.3602 0.81197 0.21669 0.0
C1336 C 0.3271 0.81917 0.27009 0.0
C1337 C 0.32595 0.8468 0.25918 0.0
N1338 N 0.34462 0.88454 0.22292 0.0
N1339 N 0.35129 0.77748 0.26761 0.0
C1340 C 0.34289 0.85734 0.22849 0.0
C1341 C 0.34636 0.80248 0.2518 0.0
N1342 N 0.37172 0.84823 0.17069 0.0
N1343 N 0.3086 0.80834 0.29565 0.0
H1344 H 0.36492 0.76426 0.25517 0.0
H1345 H 0.34372 0.77083 0.29568 0.0
H1346 H 0.29359 0.81957 0.30877 0.0
H1347 H 0.30651 0.78775 0.30057 0.0
H1348 H 0.36869 0.86701 0.15728 0.0
H1349 H 0.38497 0.83623 0.15455 0.0
H1350 H 0.35842 0.89367 0.20389 0.0
H1351 H 0.33378 0.89825 0.24028 0.0
C1352 C 0.17046 0.67695 0.77172 0.0
C1353 C 0.15882 0.65206 0.78242 0.0
C1354 C 0.11681 0.6673 0.75436 0.0
C1355 C 0.12933 0.69078 0.73912 0.0
N1356 N 0.16904 0.7162 0.7277 0.0
N1357 N 0.12178 0.62213 0.78188 0.0
C1358 C 0.15639 0.69528 0.74654 0.0
C1359 C 0.13216 0.64685 0.77338 0.0
N1360 N 0.19486 0.68326 0.78624 0.0
N1361 N 0.09019 0.66498 0.7518 0.0
H1362 H 0.13231 0.60704 0.79693 0.0
H1363 H 0.10337 0.61597 0.7718 0.0
H1364 H 0.07835 0.67971 0.73841 0.0
H1365 H 0.0796 0.64966 0.76596 0.0
H1366 H 0.20322 0.70227 0.78324 0.0
H1367 H 0.20583 0.67028 0.80478 0.0
H1368 H 0.18928 0.71861 0.72824 0.0
H1369 H 0.15971 0.72989 0.70827 0.0
C1370 C 0.35743 0.14071 0.76827 0.0
C1371 C 0.35401 0.14314 0.7249 0.0
C1372 C 0.38748 0.17838 0.72206 0.0
C1373 C 0.39071 0.17615 0.76544 0.0
N1374 N 0.3834 0.15179 0.82876 0.0
N1375 N 0.36956 0.15918 0.65917 0.0
C1376 C 0.37732 0.15601 0.78813 0.0
C1377 C 0.37025 0.16044 0.70135 0.0
N1378 N 0.34059 0.12515 0.79079 0.0
N1379 N 0.40045 0.19809 0.7009 0.0
H1380 H 0.35734 0.14599 0.64315 0.0
H1381 H 0.38258 0.16938 0.64005 0.0
H1382 H 0.41454 0.21037 0.71464 0.0
H1383 H 0.39652 0.20311 0.6703 0.0
H1384 H 0.33999 0.12501 0.82292 0.0
H1385 H 0.32578 0.11363 0.77744 0.0
H1386 H 0.3763 0.13568 0.84597 0.0
H1387 H 0.39731 0.16317 0.84454 0.0
C1388 C 0.87052 0.33765 0.74774 0.0
C1389 C 0.86207 0.31473 0.7252 0.0
C1390 C 0.81867 0.31839 0.75667 0.0
C1391 C 0.82603 0.34316 0.77464 0.0
N1392 N 0.85786 0.37851 0.78341 0.0
N1393 N 0.82621 0.2869 0.70151 0.0
C1394 C 0.85169 0.35343 0.7692 0.0
C1395 C 0.83562 0.30604 0.72787 0.0
N1396 N 0.89658 0.34368 0.75027 0.0
N1397 N 0.79584 0.30617 0.76814 0.0
H1398 H 0.83751 0.27838 0.67829 0.0
H1399 H 0.80646 0.28178 0.69959 0.0
H1400 H 0.78341 0.31417 0.79051 0.0
H1401 H 0.79075 0.28677 0.75898 0.0
H1402 H 0.90404 0.3585 0.76972 0.0
H1403 H 0.91107 0.33224 0.73596 0.0
H1404 H 0.87536 0.38823 0.77632 0.0
H1405 H 0.84465 0.39049 0.79964 0.0
C1406 C 0.6284 0.83384 0.69671 0.0
C1407 C 0.64589 0.8519 0.71626 0.0
C1408 C 0.64143 0.82715 0.78112 0.0
C1409 C 0.62805 0.80654 0.75958 0.0
N1410 N 0.60906 0.78936 0.69657 0.0
N1411 N 0.67061 0.86533 0.77651 0.0
C1412 C 0.62114 0.8098 0.71742 0.0
C1413 C 0.6525 0.84878 0.75857 0.0
N1414 N 0.61877 0.83983 0.65839 0.0
N1415 N 0.64327 0.82611 0.82322 0.0
H1416 H 0.67915 0.88157 0.76127 0.0
H1417 H 0.67857 0.86186 0.80566 0.0
H1418 H 0.6349 0.81067 0.84057 0.0
H1419 H 0.65064 0.84179 0.84108 0.0
H1420 H 0.6041 0.82877 0.6439 0.0
H1421 H 0.62376 0.85746 0.64273 0.0
H1422 H 0.60638 0.78928 0.66469 0.0
H1423 H 0.60313 0.77154 0.71071 0.0
C1424 C 0.85792 0.6713 0.74403 0.0
C1425 C 0.85318 0.67639 0.70159 0.0
C1426 C 0.81496 0.64666 0.70345 0.0
C1427 C 0.81708 0.64556 0.74705 0.0
N1428 N 0.8406 0.65579 0.8096 0.0
N1429 N 0.82589 0.67101 0.64113 0.0
C1430 C 0.83873 0.65741 0.76756 0.0
C1431 C 0.83164 0.66424 0.68107 0.0
N1432 N 0.881 0.67941 0.76146 0.0
N1433 N 0.79683 0.63118 0.68349 0.0
H1434 H 0.83727 0.68413 0.62365 0.0
H1435 H 0.80865 0.6654 0.62628 0.0
H1436 H 0.78408 0.61829 0.69894 0.0
H1437 H 0.79612 0.62912 0.6515 0.0
H1438 H 0.88679 0.67434 0.7913 0.0
H1439 H 0.89554 0.6893 0.74466 0.0
H1440 H 0.85399 0.66675 0.82704 0.0
H1441 H 0.82794 0.64408 0.82734 0.0
C1442 C 0.31393 0.82683 0.79668 0.0
C1443 C 0.32676 0.80645 0.77382 0.0
C1444 C 0.31367 0.82851 0.70936 0.0
C1445 C 0.29716 0.84599 0.73216 0.0
N1446 N 0.27922 0.8598 0.79797 0.0
N1447 N 0.33714 0.78622 0.70803 0.0
C1448 C 0.29685 0.84489 0.776 0.0
C1449 C 0.32647 0.80696 0.73 0.0
N1450 N 0.31847 0.82922 0.83813 0.0
N1451 N 0.31757 0.83288 0.66813 0.0
H1452 H 0.34675 0.77004 0.72182 0.0
H1453 H 0.33471 0.78398 0.67628 0.0
H1454 H 0.30895 0.84886 0.65223 0.0
H1455 H 0.33134 0.82242 0.65072 0.0
H1456 H 0.31168 0.8453 0.85573 0.0
H1457 H 0.33137 0.81666 0.85402 0.0
H1458 H 0.27608 0.85725 0.82951 0.0
H1459 H 0.26607 0.87311 0.78437 0.0
C1460 C 0.16419 0.31894 0.69516 0.0
C1461 C 0.13697 0.32377 0.69851 0.0
C1462 C 0.14572 0.35933 0.74897 0.0
C1463 C 0.17233 0.35106 0.7509 0.0
N1464 N 0.20563 0.31907 0.73056 0.0
N1465 N 0.10118 0.34667 0.7321 0.0
C1466 C 0.18133 0.32994 0.72502 0.0
C1467 C 0.12748 0.34362 0.72614 0.0
N1468 N 0.17373 0.3041 0.66302 0.0
N1469 N 0.138 0.38264 0.76768 0.0
H1470 H 0.08718 0.33559 0.71598 0.0
H1471 H 0.09333 0.35868 0.75536 0.0
H1472 H 0.15096 0.39526 0.78331 0.0
H1473 H 0.11939 0.39087 0.76396 0.0
H1474 H 0.19367 0.30202 0.657 0.0
H1475 H 0.16172 0.2965 0.63974 0.0
H1476 H 0.21198 0.30185 0.71523 0.0
H1477 H 0.2183 0.32527 0.75377 0.0
C1478 C 0.65975 0.12403 0.77217 0.0
C1479 C 0.67852 0.13388 0.74377 0.0
C1480 C 0.6662 0.1803 0.76011 0.0
C1481 C 0.64992 0.17054 0.79246 0.0
N1482 N 0.63087 0.13343 0.82989 0.0
N1483 N 0.7007 0.17087 0.71081 0.0
C1484 C 0.64654 0.14245 0.79857 0.0
C1485 C 0.68192 0.16188 0.73759 0.0
N1486 N 0.65434 0.0971 0.77341 0.0
N1487 N 0.66656 0.20711 0.75056 0.0
H1488 H 0.71126 0.15811 0.69144 0.0
H1489 H 0.70691 0.19078 0.70918 0.0
H1490 H 0.65617 0.22162 0.76677 0.0
H1491 H 0.67558 0.21494 0.72438 0.0
H1492 H 0.63914 0.08873 0.79047 0.0
H1493 H 0.66385 0.08315 0.75466 0.0
H1494 H 0.63007 0.11347 0.83947 0.0
H1495 H 0.61928 0.14619 0.84773 0.0
C1496 C 0.81026 0.32565 0.26034 0.0
C1497 C 0.81891 0.35117 0.24656 0.0
C1498 C 0.86258 0.34169 0.27448 0.0
C1499 C 0.85279 0.3177 0.2926 0.0
N1500 N 0.81518 0.29113 0.31211 0.0
N1501 N 0.85205 0.38581 0.24732 0.0
C1502 C 0.82597 0.31094 0.28834 0.0
C1503 C 0.84475 0.35992 0.25556 0.0
N1504 N 0.78776 0.3147 0.24496 0.0
N1505 N 0.8889 0.34656 0.27357 0.0
H1506 H 0.83942 0.39991 0.2342 0.0
H1507 H 0.8698 0.39394 0.25709 0.0
H1508 H 0.90269 0.3334 0.28606 0.0
H1509 H 0.89717 0.36237 0.25698 0.0
H1510 H 0.7818 0.29513 0.25162 0.0
H1511 H 0.77698 0.32389 0.22153 0.0
H1512 H 0.79517 0.28705 0.31242 0.0
H1513 H 0.8257 0.28109 0.33503 0.0
C1514 C 0.67455 0.80256 0.18694 0.0
C1515 C 0.64743 0.80702 0.19372 0.0
C1516 C 0.65738 0.8434 0.24243 0.0
C1517 C 0.68446 0.83772 0.2376 0.0
N1518 N 0.71946 0.81644 0.20019 0.0
N1519 N 0.61243 0.83355 0.22238 0.0
C1520 C 0.69324 0.81856 0.20833 0.0
C1521 C 0.63866 0.8282 0.2196 0.0
N1522 N 0.6823 0.78295 0.15995 0.0
N1523 N 0.64969 0.86273 0.26988 0.0
H1524 H 0.5982 0.82207 0.20747 0.0
H1525 H 0.60451 0.84995 0.23781 0.0
H1526 H 0.6629 0.87536 0.28482 0.0
H1527 H 0.63043 0.86621 0.27868 0.0
H1528 H 0.70146 0.77623 0.15676 0.0
H1529 H 0.66924 0.77274 0.14077 0.0
H1530 H 0.72745 0.80438 0.17723 0.0
H1531 H 0.73353 0.8283 0.2148 0.0
C1532 C 0.16474 0.6745 0.27101 0.0
C1533 C 0.15352 0.66851 0.31016 0.0
C1534 C 0.17005 0.62226 0.30563 0.0
C1535 C 0.18019 0.62805 0.26588 0.0
N1536 N 0.18111 0.65707 0.20622 0.0
N1537 N 0.13983 0.63512 0.35977 0.0
C1538 C 0.17563 0.65338 0.24718 0.0
C1539 C 0.15448 0.64188 0.32602 0.0
N1540 N 0.16641 0.70047 0.25736 0.0
N1541 N 0.17616 0.59853 0.32466 0.0
H1542 H 0.12758 0.64876 0.37477 0.0
H1543 H 0.13774 0.61545 0.37033 0.0
H1544 H 0.18736 0.58357 0.3106 0.0
H1545 H 0.17186 0.59451 0.35549 0.0
H1546 H 0.17736 0.70613 0.23165 0.0
H1547 H 0.15885 0.71682 0.27335 0.0
H1548 H 0.17561 0.67419 0.18982 0.0
H1549 H 0.18873 0.64189 0.1875 0.0
C1550 C 0.3248 0.13167 0.23008 0.0
C1551 C 0.31697 0.13973 0.27014 0.0
C1552 C 0.33985 0.18266 0.2618 0.0
C1553 C 0.34453 0.17615 0.21971 0.0
N1554 N 0.3421 0.14467 0.16319 0.0
N1555 N 0.3149 0.17328 0.3238 0.0
C1556 C 0.33728 0.15062 0.20372 0.0
C1557 C 0.32426 0.16516 0.28621 0.0
N1558 N 0.32079 0.10569 0.2178 0.0
N1559 N 0.35003 0.20567 0.27844 0.0
H1560 H 0.3037 0.16097 0.34297 0.0
H1561 H 0.31658 0.19284 0.33492 0.0
H1562 H 0.36043 0.21981 0.26141 0.0
H1563 H 0.34995 0.20984 0.30994 0.0
H1564 H 0.32803 0.09763 0.19046 0.0
H1565 H 0.31196 0.09136 0.2368 0.0
H1566 H 0.33448 0.12793 0.14811 0.0
H1567 H 0.35305 0.15714 0.14388 0.0
loop_
_geom_bond_atom_site_label_1
_geom_bond_atom_site_label_2
_geom_bond_distance
_geom_bond_site_symmetry_2
_ccdc_geom_bond_type
C0 O1 1.160 . S
C0 O7 1.185 . S
O1 C0 1.160 . S
O2 Zn3 1.899 . S
O2 C10 1.284 . S
Zn3 O2 1.899 . S
Zn3 O4 2.032 . S
Zn3 O7 2.086 . S
Zn3 O12 1.977 . S
O4 Zn3 2.032 . S
O4 C8 1.278 . S
C5 O6 1.203 . S
C5 O12 1.267 . S
O6 C5 1.203 . S
O7 C0 1.185 . S
O7 Zn3 2.086 . S
C8 O4 1.278 . S
C8 O9 1.211 . S
O9 C8 1.211 . S
C10 O2 1.284 . S
C10 O11 1.273 . S
O11 C10 1.273 . S
O12 Zn3 1.977 . S
O12 C5 1.267 . S
C13 O14 1.160 . S
C13 O20 1.185 . S
O14 C13 1.160 . S
O15 Zn16 1.899 . S
O15 C23 1.284 . S
Zn16 O15 1.899 . S
Zn16 O17 2.032 . S
Zn16 O20 2.086 . S
Zn16 O25 1.977 . S
O17 Zn16 2.032 . S
O17 C21 1.278 . S
C18 O19 1.203 . S
C18 O25 1.267 . S
O19 C18 1.203 . S
O20 C13 1.185 . S
O20 Zn16 2.086 . S
C21 O17 1.278 . S
C21 O22 1.211 . S
O22 C21 1.211 . S
C23 O15 1.284 . S
C23 O24 1.273 . S
O24 C23 1.273 . S
O25 Zn16 1.977 . S
O25 C18 1.267 . S
C26 O27 1.160 . S
C26 O33 1.185 . S
O27 C26 1.160 . S
O28 Zn29 1.899 . S
O28 C36 1.284 . S
Zn29 O28 1.899 . S
Zn29 O30 2.032 . S
Zn29 O33 2.086 . S
Zn29 O38 1.977 . S
O30 Zn29 2.032 . S
O30 C34 1.278 . S
C31 O32 1.203 . S
C31 O38 1.267 . S
O32 C31 1.203 . S
O33 C26 1.185 . S
O33 Zn29 2.086 . S
C34 O30 1.278 . S
C34 O35 1.211 . S
O35 C34 1.211 . S
C36 O28 1.284 . S
C36 O37 1.273 . S
O37 C36 1.273 . S
O38 Zn29 1.977 . S
O38 C31 1.267 . S
C39 O40 1.160 . S
C39 O46 1.185 . S
O40 C39 1.160 . S
O41 Zn42 1.899 . S
O41 C49 1.284 . S
Zn42 O41 1.899 . S
Zn42 O43 2.032 . S
Zn42 O46 2.086 . S
Zn42 O51 1.977 . S
O43 Zn42 2.032 . S
O43 C47 1.278 . S
C44 O45 1.203 . S
C44 O51 1.267 . S
O45 C44 1.203 . S
O46 C39 1.185 . S
O46 Zn42 2.086 . S
C47 O43 1.278 . S
C47 O48 1.211 . S
O48 C47 1.211 . S
C49 O41 1.284 . S
C49 O50 1.273 . S
O50 C49 1.273 . S
O51 Zn42 1.977 . S
O51 C44 1.267 . S
C52 O53 1.160 . S
C52 O59 1.185 . S
O53 C52 1.160 . S
O54 Zn55 1.899 . S
O54 C62 1.284 . S
Zn55 O54 1.899 . S
Zn55 O56 2.032 . S
Zn55 O59 2.086 . S
Zn55 O64 1.977 . S
O56 Zn55 2.032 . S
O56 C60 1.278 . S
C57 O58 1.203 . S
C57 O64 1.267 . S
O58 C57 1.203 . S
O59 C52 1.185 . S
O59 Zn55 2.086 . S
C60 O56 1.278 . S
C60 O61 1.211 . S
O61 C60 1.211 . S
C62 O54 1.284 . S
C62 O63 1.273 . S
O63 C62 1.273 . S
O64 Zn55 1.977 . S
O64 C57 1.267 . S
C65 O66 1.160 . S
C65 O72 1.185 . S
O66 C65 1.160 . S
O67 Zn68 1.899 . S
O67 C75 1.284 . S
Zn68 O67 1.899 . S
Zn68 O69 2.032 . S
Zn68 O72 2.086 . S
Zn68 O77 1.977 . S
O69 Zn68 2.032 . S
O69 C73 1.278 . S
C70 O71 1.203 . S
C70 O77 1.267 . S
O71 C70 1.203 . S
O72 C65 1.185 . S
O72 Zn68 2.086 . S
C73 O69 1.278 . S
C73 O74 1.211 . S
O74 C73 1.211 . S
C75 O67 1.284 . S
C75 O76 1.273 . S
O76 C75 1.273 . S
O77 Zn68 1.977 . S
O77 C70 1.267 . S
C78 O79 1.160 . S
C78 O85 1.185 . S
O79 C78 1.160 . S
O80 Zn81 1.899 . S
O80 C88 1.284 . S
Zn81 O80 1.899 . S
Zn81 O82 2.032 . S
Zn81 O85 2.086 . S
Zn81 O90 1.977 . S
O82 Zn81 2.032 . S
O82 C86 1.278 . S
C83 O84 1.203 . S
C83 O90 1.267 . S
O84 C83 1.203 . S
O85 C78 1.185 . S
O85 Zn81 2.086 . S
C86 O82 1.278 . S
C86 O87 1.211 . S
O87 C86 1.211 . S
C88 O80 1.284 . S
C88 O89 1.273 . S
O89 C88 1.273 . S
O90 Zn81 1.977 . S
O90 C83 1.267 . S
C91 O92 1.160 . S
C91 O98 1.185 . S
O92 C91 1.160 . S
O93 Zn94 1.899 . S
O93 C101 1.284 . S
Zn94 O93 1.899 . S
Zn94 O95 2.032 . S
Zn94 O98 2.086 . S
Zn94 O103 1.977 . S
O95 Zn94 2.032 . S
O95 C99 1.278 . S
C96 O97 1.203 . S
C96 O103 1.267 . S
O97 C96 1.203 . S
O98 C91 1.185 . S
O98 Zn94 2.086 . S
C99 O95 1.278 . S
C99 O100 1.211 . S
O100 C99 1.211 . S
C101 O93 1.284 . S
C101 O102 1.273 . S
O102 C101 1.273 . S
O103 Zn94 1.977 . S
O103 C96 1.267 . S
C104 O105 1.160 . S
C104 O111 1.185 . S
O105 C104 1.160 . S
O106 Zn107 1.899 . S
O106 C114 1.284 . S
Zn107 O106 1.899 . S
Zn107 O108 2.032 . S
Zn107 O111 2.086 . S
Zn107 O116 1.977 . S
O108 Zn107 2.032 . S
O108 C112 1.278 . S
C109 O110 1.203 . S
C109 O116 1.267 . S
O110 C109 1.203 . S
O111 C104 1.185 . S
O111 Zn107 2.086 . S
C112 O108 1.278 . S
C112 O113 1.211 . S
O113 C112 1.211 . S
C114 O106 1.284 . S
C114 O115 1.273 . S
O115 C114 1.273 . S
O116 Zn107 1.977 . S
O116 C109 1.267 . S
C117 O118 1.160 . S
C117 O124 1.185 . S
O118 C117 1.160 . S
O119 Zn120 1.899 . S
O119 C127 1.284 . S
Zn120 O119 1.899 . S
Zn120 O121 2.032 . S
Zn120 O124 2.086 . S
Zn120 O129 1.977 . S
O121 Zn120 2.032 . S
O121 C125 1.278 . S
C122 O123 1.203 . S
C122 O129 1.267 . S
O123 C122 1.203 . S
O124 C117 1.185 . S
O124 Zn120 2.086 . S
C125 O121 1.278 . S
C125 O126 1.211 . S
O126 C125 1.211 . S
C127 O119 1.284 . S
C127 O128 1.273 . S
O128 C127 1.273 . S
O129 Zn120 1.977 . S
O129 C122 1.267 . S
C130 O131 1.160 . S
C130 O137 1.185 . S
O131 C130 1.160 . S
O132 Zn133 1.899 . S
O132 C140 1.284 . S
Zn133 O132 1.899 . S
Zn133 O134 2.032 . S
Zn133 O137 2.086 . S
Zn133 O142 1.977 . S
O134 Zn133 2.032 . S
O134 C138 1.278 . S
C135 O136 1.203 . S
C135 O142 1.267 . S
O136 C135 1.203 . S
O137 C130 1.185 . S
O137 Zn133 2.086 . S
C138 O134 1.278 . S
C138 O139 1.211 . S
O139 C138 1.211 . S
C140 O132 1.284 . S
C140 O141 1.273 . S
O141 C140 1.273 . S
O142 Zn133 1.977 . S
O142 C135 1.267 . S
C143 O144 1.160 . S
C143 O150 1.185 . S
O144 C143 1.160 . S
O145 Zn146 1.899 . S
O145 C153 1.284 . S
Zn146 O145 1.899 . S
Zn146 O147 2.032 . S
Zn146 O150 2.086 . S
Zn146 O155 1.977 . S
O147 Zn146 2.032 . S
O147 C151 1.278 . S
C148 O149 1.203 . S
C148 O155 1.267 . S
O149 C148 1.203 . S
O150 C143 1.185 . S
O150 Zn146 2.086 . S
C151 O147 1.278 . S
C151 O152 1.211 . S
O152 C151 1.211 . S
C153 O145 1.284 . S
C153 O154 1.273 . S
O154 C153 1.273 . S
O155 Zn146 1.977 . S
O155 C148 1.267 . S
C156 O157 1.160 . S
C156 O163 1.185 . S
O157 C156 1.160 . S
O158 Zn159 1.899 . S
O158 C166 1.284 . S
Zn159 O158 1.899 . S
Zn159 O160 2.032 . S
Zn159 O163 2.086 . S
Zn159 O168 1.977 . S
O160 Zn159 2.032 . S
O160 C164 1.278 . S
C161 O162 1.203 . S
C161 O168 1.267 . S
O162 C161 1.203 . S
O163 C156 1.185 . S
O163 Zn159 2.086 . S
C164 O160 1.278 . S
C164 O165 1.211 . S
O165 C164 1.211 . S
C166 O158 1.284 . S
C166 O167 1.273 . S
O167 C166 1.273 . S
O168 Zn159 1.977 . S
O168 C161 1.267 . S
C169 O170 1.160 . S
C169 O176 1.185 . S
O170 C169 1.160 . S
O171 Zn172 1.899 . S
O171 C179 1.284 . S
Zn172 O171 1.899 . S
Zn172 O173 2.032 . S
Zn172 O176 2.086 . S
Zn172 O181 1.977 . S
O173 Zn172 2.032 . S
O173 C177 1.278 . S
C174 O175 1.203 . S
C174 O181 1.267 . S
O175 C174 1.203 . S
O176 C169 1.185 . S
O176 Zn172 2.086 . S
C177 O173 1.278 . S
C177 O178 1.211 . S
O178 C177 1.211 . S
C179 O171 1.284 . S
C179 O180 1.273 . S
O180 C179 1.273 . S
O181 Zn172 1.977 . S
O181 C174 1.267 . S
C182 O183 1.160 . S
C182 O189 1.185 . S
O183 C182 1.160 . S
O184 Zn185 1.899 . S
O184 C192 1.284 . S
Zn185 O184 1.899 . S
Zn185 O186 2.032 . S
Zn185 O189 2.086 . S
Zn185 O194 1.977 . S
O186 Zn185 2.032 . S
O186 C190 1.278 . S
C187 O188 1.203 . S
C187 O194 1.267 . S
O188 C187 1.203 . S
O189 C182 1.185 . S
O189 Zn185 2.086 . S
C190 O186 1.278 . S
C190 O191 1.211 . S
O191 C190 1.211 . S
C192 O184 1.284 . S
C192 O193 1.273 . S
O193 C192 1.273 . S
O194 Zn185 1.977 . S
O194 C187 1.267 . S
C195 O196 1.160 . S
C195 O202 1.185 . S
O196 C195 1.160 . S
O197 Zn198 1.899 . S
O197 C205 1.284 . S
Zn198 O197 1.899 . S
Zn198 O199 2.032 . S
Zn198 O202 2.086 . S
Zn198 O207 1.977 . S
O199 Zn198 2.032 . S
O199 C203 1.278 . S
C200 O201 1.203 . S
C200 O207 1.267 . S
O201 C200 1.203 . S
O202 C195 1.185 . S
O202 Zn198 2.086 . S
C203 O199 1.278 . S
C203 O204 1.211 . S
O204 C203 1.211 . S
C205 O197 1.284 . S
C205 O206 1.273 . S
O206 C205 1.273 . S
O207 Zn198 1.977 . S
O207 C200 1.267 . S
C208 O209 1.160 . S
C208 O215 1.185 . S
O209 C208 1.160 . S
O210 Zn211 1.899 . S
O210 C218 1.284 . S
Zn211 O210 1.899 . S
Zn211 O212 2.032 . S
Zn211 O215 2.086 . S
Zn211 O220 1.977 . S
O212 Zn211 2.032 . S
O212 C216 1.278 . S
C213 O214 1.203 . S
C213 O220 1.267 . S
O214 C213 1.203 . S
O215 C208 1.185 . S
O215 Zn211 2.086 . S
C216 O212 1.278 . S
C216 O217 1.211 . S
O217 C216 1.211 . S
C218 O210 1.284 . S
C218 O219 1.273 . S
O219 C218 1.273 . S
O220 Zn211 1.977 . S
O220 C213 1.267 . S
C221 O222 1.160 . S
C221 O228 1.185 . S
O222 C221 1.160 . S
O223 Zn224 1.899 . S
O223 C231 1.284 . S
Zn224 O223 1.899 . S
Zn224 O225 2.032 . S
Zn224 O228 2.086 . S
Zn224 O233 1.977 . S
O225 Zn224 2.032 . S
O225 C229 1.278 . S
C226 O227 1.203 . S
C226 O233 1.267 . S
O227 C226 1.203 . S
O228 C221 1.185 . S
O228 Zn224 2.086 . S
C229 O225 1.278 . S
C229 O230 1.211 . S
O230 C229 1.211 . S
C231 O223 1.284 . S
C231 O232 1.273 . S
O232 C231 1.273 . S
O233 Zn224 1.977 . S
O233 C226 1.267 . S
C234 O235 1.160 . S
C234 O241 1.185 . S
O235 C234 1.160 . S
O236 Zn237 1.899 . S
O236 C244 1.284 . S
Zn237 O236 1.899 . S
Zn237 O238 2.032 . S
Zn237 O241 2.086 . S
Zn237 O246 1.977 . S
O238 Zn237 2.032 . S
O238 C242 1.278 . S
C239 O240 1.203 . S
C239 O246 1.267 . S
O240 C239 1.203 . S
O241 C234 1.185 . S
O241 Zn237 2.086 . S
C242 O238 1.278 . S
C242 O243 1.211 . S
O243 C242 1.211 . S
C244 O236 1.284 . S
C244 O245 1.273 . S
O245 C244 1.273 . S
O246 Zn237 1.977 . S
O246 C239 1.267 . S
C247 O248 1.160 . S
C247 O254 1.185 . S
O248 C247 1.160 . S
O249 Zn250 1.899 . S
O249 C257 1.284 . S
Zn250 O249 1.899 . S
Zn250 O251 2.032 . S
Zn250 O254 2.086 . S
Zn250 O259 1.977 . S
O251 Zn250 2.032 . S
O251 C255 1.278 . S
C252 O253 1.203 . S
C252 O259 1.267 . S
O253 C252 1.203 . S
O254 C247 1.185 . S
O254 Zn250 2.086 . S
C255 O251 1.278 . S
C255 O256 1.211 . S
O256 C255 1.211 . S
C257 O249 1.284 . S
C257 O258 1.273 . S
O258 C257 1.273 . S
O259 Zn250 1.977 . S
O259 C252 1.267 . S
C260 O261 1.160 . S
C260 O267 1.185 . S
O261 C260 1.160 . S
O262 Zn263 1.899 . S
O262 C270 1.284 . S
Zn263 O262 1.899 . S
Zn263 O264 2.032 . S
Zn263 O267 2.086 . S
Zn263 O272 1.977 . S
O264 Zn263 2.032 . S
O264 C268 1.278 . S
C265 O266 1.203 . S
C265 O272 1.267 . S
O266 C265 1.203 . S
O267 C260 1.185 . S
O267 Zn263 2.086 . S
C268 O264 1.278 . S
C268 O269 1.211 . S
O269 C268 1.211 . S
C270 O262 1.284 . S
C270 O271 1.273 . S
O271 C270 1.273 . S
O272 Zn263 1.977 . S
O272 C265 1.267 . S
C273 O274 1.160 . S
C273 O280 1.185 . S
O274 C273 1.160 . S
O275 Zn276 1.899 . S
O275 C283 1.284 . S
Zn276 O275 1.899 . S
Zn276 O277 2.032 . S
Zn276 O280 2.086 . S
Zn276 O285 1.977 . S
O277 Zn276 2.032 . S
O277 C281 1.278 . S
C278 O279 1.203 . S
C278 O285 1.267 . S
O279 C278 1.203 . S
O280 C273 1.185 . S
O280 Zn276 2.086 . S
C281 O277 1.278 . S
C281 O282 1.211 . S
O282 C281 1.211 . S
C283 O275 1.284 . S
C283 O284 1.273 . S
O284 C283 1.273 . S
O285 Zn276 1.977 . S
O285 C278 1.267 . S
C286 O287 1.160 . S
C286 O293 1.185 . S
O287 C286 1.160 . S
O288 Zn289 1.899 . S
O288 C296 1.284 . S
Zn289 O288 1.899 . S
Zn289 O290 2.032 . S
Zn289 O293 2.086 . S
Zn289 O298 1.977 . S
O290 Zn289 2.032 . S
O290 C294 1.278 . S
C291 O292 1.203 . S
C291 O298 1.267 . S
O292 C291 1.203 . S
O293 C286 1.185 . S
O293 Zn289 2.086 . S
C294 O290 1.278 . S
C294 O295 1.211 . S
O295 C294 1.211 . S
C296 O288 1.284 . S
C296 O297 1.273 . S
O297 C296 1.273 . S
O298 Zn289 1.977 . S
O298 C291 1.267 . S
C299 O300 1.160 . S
C299 O306 1.185 . S
O300 C299 1.160 . S
O301 Zn302 1.899 . S
O301 C309 1.284 . S
Zn302 O301 1.899 . S
Zn302 O303 2.032 . S
Zn302 O306 2.086 . S
Zn302 O311 1.977 . S
O303 Zn302 2.032 . S
O303 C307 1.278 . S
C304 O305 1.203 . S
C304 O311 1.267 . S
O305 C304 1.203 . S
O306 C299 1.185 . S
O306 Zn302 2.086 . S
C307 O303 1.278 . S
C307 O308 1.211 . S
O308 C307 1.211 . S
C309 O301 1.284 . S
C309 O310 1.273 . S
O310 C309 1.273 . S
O311 Zn302 1.977 . S
O311 C304 1.267 . S
C312 O313 1.160 . S
C312 O319 1.185 . S
O313 C312 1.160 . S
O314 Zn315 1.899 . S
O314 C322 1.284 . S
Zn315 O314 1.899 . S
Zn315 O316 2.032 . S
Zn315 O319 2.086 . S
Zn315 O324 1.977 . S
O316 Zn315 2.032 . S
O316 C320 1.278 . S
C317 O318 1.203 . S
C317 O324 1.267 . S
O318 C317 1.203 . S
O319 C312 1.185 . S
O319 Zn315 2.086 . S
C320 O316 1.278 . S
C320 O321 1.211 . S
O321 C320 1.211 . S
C322 O314 1.284 . S
C322 O323 1.273 . S
O323 C322 1.273 . S
O324 Zn315 1.977 . S
O324 C317 1.267 . S
C325 O326 1.160 . S
C325 O332 1.185 . S
O326 C325 1.160 . S
O327 Zn328 1.899 . S
O327 C335 1.284 . S
Zn328 O327 1.899 . S
Zn328 O329 2.032 . S
Zn328 O332 2.086 . S
Zn328 O337 1.977 . S
O329 Zn328 2.032 . S
O329 C333 1.278 . S
C330 O331 1.203 . S
C330 O337 1.267 . S
O331 C330 1.203 . S
O332 C325 1.185 . S
O332 Zn328 2.086 . S
C333 O329 1.278 . S
C333 O334 1.211 . S
O334 C333 1.211 . S
C335 O327 1.284 . S
C335 O336 1.273 . S
O336 C335 1.273 . S
O337 Zn328 1.977 . S
O337 C330 1.267 . S
C338 O339 1.160 . S
C338 O345 1.185 . S
O339 C338 1.160 . S
O340 Zn341 1.899 . S
O340 C348 1.284 . S
Zn341 O340 1.899 . S
Zn341 O342 2.032 . S
Zn341 O345 2.086 . S
Zn341 O350 1.977 . S
O342 Zn341 2.032 . S
O342 C346 1.278 . S
C343 O344 1.203 . S
C343 O350 1.267 . S
O344 C343 1.203 . S
O345 C338 1.185 . S
O345 Zn341 2.086 . S
C346 O342 1.278 . S
C346 O347 1.211 . S
O347 C346 1.211 . S
C348 O340 1.284 . S
C348 O349 1.273 . S
O349 C348 1.273 . S
O350 Zn341 1.977 . S
O350 C343 1.267 . S
C351 O352 1.160 . S
C351 O358 1.185 . S
O352 C351 1.160 . S
O353 Zn354 1.899 . S
O353 C361 1.284 . S
Zn354 O353 1.899 . S
Zn354 O355 2.032 . S
Zn354 O358 2.086 . S
Zn354 O363 1.977 . S
O355 Zn354 2.032 . S
O355 C359 1.278 . S
C356 O357 1.203 . S
C356 O363 1.267 . S
O357 C356 1.203 . S
O358 C351 1.185 . S
O358 Zn354 2.086 . S
C359 O355 1.278 . S
C359 O360 1.211 . S
O360 C359 1.211 . S
C361 O353 1.284 . S
C361 O362 1.273 . S
O362 C361 1.273 . S
O363 Zn354 1.977 . S
O363 C356 1.267 . S
C364 O365 1.160 . S
C364 O371 1.185 . S
O365 C364 1.160 . S
O366 Zn367 1.899 . S
O366 C374 1.284 . S
Zn367 O366 1.899 . S
Zn367 O368 2.032 . S
Zn367 O371 2.086 . S
Zn367 O376 1.977 . S
O368 Zn367 2.032 . S
O368 C372 1.278 . S
C369 O370 1.203 . S
C369 O376 1.267 . S
O370 C369 1.203 . S
O371 C364 1.185 . S
O371 Zn367 2.086 . S
C372 O368 1.278 . S
C372 O373 1.211 . S
O373 C372 1.211 . S
C374 O366 1.284 . S
C374 O375 1.273 . S
O375 C374 1.273 . S
O376 Zn367 1.977 . S
O376 C369 1.267 . S
C377 O378 1.160 . S
C377 O384 1.185 . S
O378 C377 1.160 . S
O379 Zn380 1.899 . S
O379 C387 1.284 . S
Zn380 O379 1.899 . S
Zn380 O381 2.032 . S
Zn380 O384 2.086 . S
Zn380 O389 1.977 . S
O381 Zn380 2.032 . S
O381 C385 1.278 . S
C382 O383 1.203 . S
C382 O389 1.267 . S
O383 C382 1.203 . S
O384 C377 1.185 . S
O384 Zn380 2.086 . S
C385 O381 1.278 . S
C385 O386 1.211 . S
O386 C385 1.211 . S
C387 O379 1.284 . S
C387 O388 1.273 . S
O388 C387 1.273 . S
O389 Zn380 1.977 . S
O389 C382 1.267 . S
C390 O391 1.160 . S
C390 O397 1.185 . S
O391 C390 1.160 . S
O392 Zn393 1.899 . S
O392 C400 1.284 . S
Zn393 O392 1.899 . S
Zn393 O394 2.032 . S
Zn393 O397 2.086 . S
Zn393 O402 1.977 . S
O394 Zn393 2.032 . S
O394 C398 1.278 . S
C395 O396 1.203 . S
C395 O402 1.267 . S
O396 C395 1.203 . S
O397 C390 1.185 . S
O397 Zn393 2.086 . S
C398 O394 1.278 . S
C398 O399 1.211 . S
O399 C398 1.211 . S
C400 O392 1.284 . S
C400 O401 1.273 . S
O401 C400 1.273 . S
O402 Zn393 1.977 . S
O402 C395 1.267 . S
C403 O404 1.160 . S
C403 O410 1.185 . S
O404 C403 1.160 . S
O405 Zn406 1.899 . S
O405 C413 1.284 . S
Zn406 O405 1.899 . S
Zn406 O407 2.032 . S
Zn406 O410 2.086 . S
Zn406 O415 1.977 . S
O407 Zn406 2.032 . S
O407 C411 1.278 . S
C408 O409 1.203 . S
C408 O415 1.267 . S
O409 C408 1.203 . S
O410 C403 1.185 . S
O410 Zn406 2.086 . S
C411 O407 1.278 . S
C411 O412 1.211 . S
O412 C411 1.211 . S
C413 O405 1.284 . S
C413 O414 1.273 . S
O414 C413 1.273 . S
O415 Zn406 1.977 . S
O415 C408 1.267 . S
C416 C417 1.363 . S
C416 C422 1.379 . S
C416 N424 1.356 . S
C417 C416 1.363 . S
C417 C423 1.363 . S
C418 C419 1.363 . S
C418 C423 1.379 . S
C418 N425 1.356 . S
C419 C418 1.363 . S
C419 C422 1.363 . S
N420 C422 1.356 . S
N420 H432 0.984 . S
N420 H433 0.985 . S
N421 C423 1.356 . S
N421 H426 0.984 . S
N421 H427 0.985 . S
C422 C416 1.379 . S
C422 C419 1.363 . S
C422 N420 1.356 . S
C423 C417 1.363 . S
C423 C418 1.379 . S
C423 N421 1.356 . S
N424 C416 1.356 . S
N424 H430 0.984 . S
N424 H431 0.984 . S
N425 C418 1.356 . S
N425 H428 0.984 . S
N425 H429 0.985 . S
H426 N421 0.984 . S
H427 N421 0.985 . S
H428 N425 0.984 . S
H429 N425 0.985 . S
H430 N424 0.984 . S
H431 N424 0.984 . S
H432 N420 0.984 . S
H433 N420 0.985 . S
C434 C435 1.363 . S
C434 C440 1.379 . S
C434 N442 1.356 . S
C435 C434 1.363 . S
C435 C441 1.363 . S
C436 C437 1.363 . S
C436 C441 1.379 . S
C436 N443 1.356 . S
C437 C436 1.363 . S
C437 C440 1.363 . S
N438 C440 1.356 . S
N438 H450 0.984 . S
N438 H451 0.985 . S
N439 C441 1.356 . S
N439 H444 0.984 . S
N439 H445 0.985 . S
C440 C434 1.379 . S
C440 C437 1.363 . S
C440 N438 1.356 . S
C441 C435 1.363 . S
C441 C436 1.379 . S
C441 N439 1.356 . S
N442 C434 1.356 . S
N442 H448 0.984 . S
N442 H449 0.984 . S
N443 C436 1.356 . S
N443 H446 0.984 . S
N443 H447 0.985 . S
H444 N439 0.984 . S
H445 N439 0.985 . S
H446 N443 0.984 . S
H447 N443 0.985 . S
H448 N442 0.984 . S
H449 N442 0.984 . S
H450 N438 0.984 . S
H451 N438 0.985 . S
C452 C453 1.363 . S
C452 C458 1.379 . S
C452 N460 1.356 . S
C453 C452 1.363 . S
C453 C459 1.363 . S
C454 C455 1.363 . S
C454 C459 1.379 . S
C454 N461 1.356 . S
C455 C454 1.363 . S
C455 C458 1.363 . S
N456 C458 1.356 . S
N456 H468 0.984 . S
N456 H469 0.985 . S
N457 C459 1.356 . S
N457 H462 0.984 . S
N457 H463 0.985 . S
C458 C452 1.379 . S
C458 C455 1.363 . S
C458 N456 1.356 . S
C459 C453 1.363 . S
C459 C454 1.379 . S
C459 N457 1.356 . S
N460 C452 1.356 . S
N460 H466 0.984 . S
N460 H467 0.984 . S
N461 C454 1.356 . S
N461 H464 0.984 . S
N461 H465 0.985 . S
H462 N457 0.984 . S
H463 N457 0.985 . S
H464 N461 0.984 . S
H465 N461 0.985 . S
H466 N460 0.984 . S
H467 N460 0.984 . S
H468 N456 0.984 . S
H469 N456 0.985 . S
C470 C471 1.363 . S
C470 C476 1.379 . S
C470 N478 1.356 . S
C471 C470 1.363 . S
C471 C477 1.363 . S
C472 C473 1.363 . S
C472 C477 1.379 . S
C472 N479 1.356 . S
C473 C472 1.363 . S
C473 C476 1.363 . S
N474 C476 1.356 . S
N474 H486 0.984 . S
N474 H487 0.985 . S
N475 C477 1.356 . S
N475 H480 0.984 . S
N475 H481 0.985 . S
C476 C470 1.379 . S
C476 C473 1.363 . S
C476 N474 1.356 . S
C477 C471 1.363 . S
C477 C472 1.379 . S
C477 N475 1.356 . S
N478 C470 1.356 . S
N478 H484 0.984 . S
N478 H485 0.984 . S
N479 C472 1.356 . S
N479 H482 0.984 . S
N479 H483 0.985 . S
H480 N475 0.984 . S
H481 N475 0.985 . S
H482 N479 0.984 . S
H483 N479 0.985 . S
H484 N478 0.984 . S
H485 N478 0.984 . S
H486 N474 0.984 . S
H487 N474 0.985 . S
C488 C489 1.363 . S
C488 C494 1.379 . S
C488 N496 1.356 . S
C489 C488 1.363 . S
C489 C495 1.363 . S
C490 C491 1.363 . S
C490 C495 1.379 . S
C490 N497 1.356 . S
C491 C490 1.363 . S
C491 C494 1.363 . S
N492 C494 1.356 . S
N492 H504 0.984 . S
N492 H505 0.985 . S
N493 C495 1.356 . S
N493 H498 0.984 . S
N493 H499 0.985 . S
C494 C488 1.379 . S
C494 C491 1.363 . S
C494 N492 1.356 . S
C495 C489 1.363 . S
C495 C490 1.379 . S
C495 N493 1.356 . S
N496 C488 1.356 . S
N496 H502 0.984 . S
N496 H503 0.984 . S
N497 C490 1.356 . S
N497 H500 0.984 . S
N497 H501 0.985 . S
H498 N493 0.984 . S
H499 N493 0.985 . S
H500 N497 0.984 . S
H501 N497 0.985 . S
H502 N496 0.984 . S
H503 N496 0.984 . S
H504 N492 0.984 . S
H505 N492 0.985 . S
C506 C507 1.363 . S
C506 C512 1.379 . S
C506 N514 1.356 . S
C507 C506 1.363 . S
C507 C513 1.363 . S
C508 C509 1.363 . S
C508 C513 1.379 . S
C508 N515 1.356 . S
C509 C508 1.363 . S
C509 C512 1.363 . S
N510 C512 1.356 . S
N510 H522 0.984 . S
N510 H523 0.985 . S
N511 C513 1.356 . S
N511 H516 0.984 . S
N511 H517 0.985 . S
C512 C506 1.379 . S
C512 C509 1.363 . S
C512 N510 1.356 . S
C513 C507 1.363 . S
C513 C508 1.379 . S
C513 N511 1.356 . S
N514 C506 1.356 . S
N514 H520 0.984 . S
N514 H521 0.984 . S
N515 C508 1.356 . S
N515 H518 0.984 . S
N515 H519 0.985 . S
H516 N511 0.984 . S
H517 N511 0.985 . S
H518 N515 0.984 . S
H519 N515 0.985 . S
H520 N514 0.984 . S
H521 N514 0.984 . S
H522 N510 0.984 . S
H523 N510 0.985 . S
C524 C525 1.363 . S
C524 C530 1.379 . S
C524 N532 1.356 . S
C525 C524 1.363 . S
C525 C531 1.363 . S
C526 C527 1.363 . S
C526 C531 1.379 . S
C526 N533 1.356 . S
C527 C526 1.363 . S
C527 C530 1.363 . S
N528 C530 1.356 . S
N528 H540 0.984 . S
N528 H541 0.985 . S
N529 C531 1.356 . S
N529 H534 0.984 . S
N529 H535 0.985 . S
C530 C524 1.379 . S
C530 C527 1.363 . S
C530 N528 1.356 . S
C531 C525 1.363 . S
C531 C526 1.379 . S
C531 N529 1.356 . S
N532 C524 1.356 . S
N532 H538 0.984 . S
N532 H539 0.984 . S
N533 C526 1.356 . S
N533 H536 0.984 . S
N533 H537 0.985 . S
H534 N529 0.984 . S
H535 N529 0.985 . S
H536 N533 0.984 . S
H537 N533 0.985 . S
H538 N532 0.984 . S
H539 N532 0.984 . S
H540 N528 0.984 . S
H541 N528 0.985 . S
C542 C543 1.363 . S
C542 C548 1.379 . S
C542 N550 1.356 . S
C543 C542 1.363 . S
C543 C549 1.363 . S
C544 C545 1.363 . S
C544 C549 1.379 . S
C544 N551 1.356 . S
C545 C544 1.363 . S
C545 C548 1.363 . S
N546 C548 1.356 . S
N546 H558 0.984 . S
N546 H559 0.985 . S
N547 C549 1.356 . S
N547 H552 0.984 . S
N547 H553 0.985 . S
C548 C542 1.379 . S
C548 C545 1.363 . S
C548 N546 1.356 . S
C549 C543 1.363 . S
C549 C544 1.379 . S
C549 N547 1.356 . S
N550 C542 1.356 . S
N550 H556 0.984 . S
N550 H557 0.984 . S
N551 C544 1.356 . S
N551 H554 0.984 . S
N551 H555 0.985 . S
H552 N547 0.984 . S
H553 N547 0.985 . S
H554 N551 0.984 . S
H555 N551 0.985 . S
H556 N550 0.984 . S
H557 N550 0.984 . S
H558 N546 0.984 . S
H559 N546 0.985 . S
C560 C561 1.363 . S
C560 C566 1.379 . S
C560 N568 1.356 . S
C561 C560 1.363 . S
C561 C567 1.363 . S
C562 C563 1.363 . S
C562 C567 1.379 . S
C562 N569 1.356 . S
C563 C562 1.363 . S
C563 C566 1.363 . S
N564 C566 1.356 . S
N564 H576 0.984 . S
N564 H577 0.985 . S
N565 C567 1.356 . S
N565 H570 0.984 . S
N565 H571 0.985 . S
C566 C560 1.379 . S
C566 C563 1.363 . S
C566 N564 1.356 . S
C567 C561 1.363 . S
C567 C562 1.379 . S
C567 N565 1.356 . S
N568 C560 1.356 . S
N568 H574 0.984 . S
N568 H575 0.984 . S
N569 C562 1.356 . S
N569 H572 0.984 . S
N569 H573 0.985 . S
H570 N565 0.984 . S
H571 N565 0.985 . S
H572 N569 0.984 . S
H573 N569 0.985 . S
H574 N568 0.984 . S
H575 N568 0.984 . S
H576 N564 0.984 . S
H577 N564 0.985 . S
C578 C579 1.363 . S
C578 C584 1.379 . S
C578 N586 1.356 . S
C579 C578 1.363 . S
C579 C585 1.363 . S
C580 C581 1.363 . S
C580 C585 1.379 . S
C580 N587 1.356 . S
C581 C580 1.363 . S
C581 C584 1.363 . S
N582 C584 1.356 . S
N582 H594 0.984 . S
N582 H595 0.985 . S
N583 C585 1.356 . S
N583 H588 0.984 . S
N583 H589 0.985 . S
C584 C578 1.379 . S
C584 C581 1.363 . S
C584 N582 1.356 . S
C585 C579 1.363 . S
C585 C580 1.379 . S
C585 N583 1.356 . S
N586 C578 1.356 . S
N586 H592 0.984 . S
N586 H593 0.984 . S
N587 C580 1.356 . S
N587 H590 0.984 . S
N587 H591 0.985 . S
H588 N583 0.984 . S
H589 N583 0.985 . S
H590 N587 0.984 . S
H591 N587 0.985 . S
H592 N586 0.984 . S
H593 N586 0.984 . S
H594 N582 0.984 . S
H595 N582 0.985 . S
C596 C597 1.363 . S
C596 C602 1.379 . S
C596 N604 1.356 . S
C597 C596 1.363 . S
C597 C603 1.363 . S
C598 C599 1.363 . S
C598 C603 1.379 . S
C598 N605 1.356 . S
C599 C598 1.363 . S
C599 C602 1.363 . S
N600 C602 1.356 . S
N600 H612 0.984 . S
N600 H613 0.985 . S
N601 C603 1.356 . S
N601 H606 0.984 . S
N601 H607 0.985 . S
C602 C596 1.379 . S
C602 C599 1.363 . S
C602 N600 1.356 . S
C603 C597 1.363 . S
C603 C598 1.379 . S
C603 N601 1.356 . S
N604 C596 1.356 . S
N604 H610 0.984 . S
N604 H611 0.984 . S
N605 C598 1.356 . S
N605 H608 0.984 . S
N605 H609 0.985 . S
H606 N601 0.984 . S
H607 N601 0.985 . S
H608 N605 0.984 . S
H609 N605 0.985 . S
H610 N604 0.984 . S
H611 N604 0.984 . S
H612 N600 0.984 . S
H613 N600 0.985 . S
C614 C615 1.363 . S
C614 C620 1.379 . S
C614 N622 1.356 . S
C615 C614 1.363 . S
C615 C621 1.363 . S
C616 C617 1.363 . S
C616 C621 1.379 . S
C616 N623 1.356 . S
C617 C616 1.363 . S
C617 C620 1.363 . S
N618 C620 1.356 . S
N618 H630 0.984 . S
N618 H631 0.985 . S
N619 C621 1.356 . S
N619 H624 0.984 . S
N619 H625 0.985 . S
C620 C614 1.379 . S
C620 C617 1.363 . S
C620 N618 1.356 . S
C621 C615 1.363 . S
C621 C616 1.379 . S
C621 N619 1.356 . S
N622 C614 1.356 . S
N622 H628 0.984 . S
N622 H629 0.984 . S
N623 C616 1.356 . S
N623 H626 0.984 . S
N623 H627 0.985 . S
H624 N619 0.984 . S
H625 N619 0.985 . S
H626 N623 0.984 . S
H627 N623 0.985 . S
H628 N622 0.984 . S
H629 N622 0.984 . S
H630 N618 0.984 . S
H631 N618 0.985 . S
C632 C633 1.363 . S
C632 C638 1.379 . S
C632 N640 1.356 . S
C633 C632 1.363 . S
C633 C639 1.363 . S
C634 C635 1.363 . S
C634 C639 1.379 . S
C634 N641 1.356 . S
C635 C634 1.363 . S
C635 C638 1.363 . S
N636 C638 1.356 . S
N636 H648 0.984 . S
N636 H649 0.985 . S
N637 C639 1.356 . S
N637 H642 0.984 . S
N637 H643 0.985 . S
C638 C632 1.379 . S
C638 C635 1.363 . S
C638 N636 1.356 . S
C639 C633 1.363 . S
C639 C634 1.379 . S
C639 N637 1.356 . S
N640 C632 1.356 . S
N640 H646 0.984 . S
N640 H647 0.984 . S
N641 C634 1.356 . S
N641 H644 0.984 . S
N641 H645 0.985 . S
H642 N637 0.984 . S
H643 N637 0.985 . S
H644 N641 0.984 . S
H645 N641 0.985 . S
H646 N640 0.984 . S
H647 N640 0.984 . S
H648 N636 0.984 . S
H649 N636 0.985 . S
C650 C651 1.363 . S
C650 C656 1.379 . S
C650 N658 1.356 . S
C651 C650 1.363 . S
C651 C657 1.363 . S
C652 C653 1.363 . S
C652 C657 1.379 . S
C652 N659 1.356 . S
C653 C652 1.363 . S
C653 C656 1.363 . S
N654 C656 1.356 . S
N654 H666 0.984 . S
N654 H667 0.985 . S
N655 C657 1.356 . S
N655 H660 0.984 . S
N655 H661 0.985 . S
C656 C650 1.379 . S
C656 C653 1.363 . S
C656 N654 1.356 . S
C657 C651 1.363 . S
C657 C652 1.379 . S
C657 N655 1.356 . S
N658 C650 1.356 . S
N658 H664 0.984 . S
N658 H665 0.984 . S
N659 C652 1.356 . S
N659 H662 0.984 . S
N659 H663 0.985 . S
H660 N655 0.984 . S
H661 N655 0.985 . S
H662 N659 0.984 . S
H663 N659 0.985 . S
H664 N658 0.984 . S
H665 N658 0.984 . S
H666 N654 0.984 . S
H667 N654 0.985 . S
C668 C669 1.363 . S
C668 C674 1.379 . S
C668 N676 1.356 . S
C669 C668 1.363 . S
C669 C675 1.363 . S
C670 C671 1.363 . S
C670 C675 1.379 . S
C670 N677 1.356 . S
C671 C670 1.363 . S
C671 C674 1.363 . S
N672 C674 1.356 . S
N672 H684 0.984 . S
N672 H685 0.985 . S
N673 C675 1.356 . S
N673 H678 0.984 . S
N673 H679 0.985 . S
C674 C668 1.379 . S
C674 C671 1.363 . S
C674 N672 1.356 . S
C675 C669 1.363 . S
C675 C670 1.379 . S
C675 N673 1.356 . S
N676 C668 1.356 . S
N676 H682 0.984 . S
N676 H683 0.984 . S
N677 C670 1.356 . S
N677 H680 0.984 . S
N677 H681 0.985 . S
H678 N673 0.984 . S
H679 N673 0.985 . S
H680 N677 0.984 . S
H681 N677 0.985 . S
H682 N676 0.984 . S
H683 N676 0.984 . S
H684 N672 0.984 . S
H685 N672 0.985 . S
C686 C687 1.363 . S
C686 C692 1.379 . S
C686 N694 1.356 . S
C687 C686 1.363 . S
C687 C693 1.363 . S
C688 C689 1.363 . S
C688 C693 1.379 . S
C688 N695 1.356 . S
C689 C688 1.363 . S
C689 C692 1.363 . S
N690 C692 1.356 . S
N690 H702 0.984 . S
N690 H703 0.985 . S
N691 C693 1.356 . S
N691 H696 0.984 . S
N691 H697 0.985 . S
C692 C686 1.379 . S
C692 C689 1.363 . S
C692 N690 1.356 . S
C693 C687 1.363 . S
C693 C688 1.379 . S
C693 N691 1.356 . S
N694 C686 1.356 . S
N694 H700 0.984 . S
N694 H701 0.984 . S
N695 C688 1.356 . S
N695 H698 0.984 . S
N695 H699 0.985 . S
H696 N691 0.984 . S
H697 N691 0.985 . S
H698 N695 0.984 . S
H699 N695 0.985 . S
H700 N694 0.984 . S
H701 N694 0.984 . S
H702 N690 0.984 . S
H703 N690 0.985 . S
C704 C705 1.363 . S
C704 C710 1.379 1_655 S
C704 N712 1.356 . S
C705 C704 1.363 . S
C705 C711 1.363 . S
C706 C707 1.363 . S
C706 C711 1.379 1_455 S
C706 N713 1.356 . S
C707 C706 1.363 . S
C707 C710 1.363 . S
N708 C710 1.356 . S
N708 H720 0.984 . S
N708 H721 0.985 . S
N709 C711 1.356 . S
N709 H714 0.984 . S
N709 H715 0.985 . S
C710 C704 1.379 1_455 S
C710 C707 1.363 . S
C710 N708 1.356 . S
C711 C705 1.363 . S
C711 C706 1.379 1_655 S
C711 N709 1.356 . S
N712 C704 1.356 . S
N712 H718 0.984 . S
N712 H719 0.984 . S
N713 C706 1.356 . S
N713 H716 0.984 . S
N713 H717 0.985 . S
H714 N709 0.984 . S
H715 N709 0.985 . S
H716 N713 0.984 . S
H717 N713 0.985 . S
H718 N712 0.984 . S
H719 N712 0.984 . S
H720 N708 0.984 . S
H721 N708 0.985 . S
C722 C723 1.363 . S
C722 C728 1.379 1_545 S
C722 N730 1.356 . S
C723 C722 1.363 . S
C723 C729 1.363 . S
C724 C725 1.380 . S
C724 C729 1.354 1_565 S
C724 N731 1.372 . S
C725 C724 1.380 . S
C725 C728 1.363 . S
N726 C728 1.356 . S
N726 H738 0.984 . S
N726 H739 0.985 . S
N727 C729 1.356 . S
N727 H732 0.984 . S
N727 H733 0.985 . S
C728 C722 1.379 1_565 S
C728 C725 1.363 . S
C728 N726 1.356 . S
C729 C723 1.363 . S
C729 C724 1.354 1_545 S
C729 N727 1.356 . S
N730 C722 1.356 . S
N730 H736 0.984 . S
N730 H737 0.984 . S
N731 C724 1.372 . S
N731 H734 0.984 . S
N731 H735 0.985 . S
H732 N727 0.984 . S
H733 N727 0.985 . S
H734 N731 0.984 . S
H735 N731 0.985 . S
H736 N730 0.984 . S
H737 N730 0.984 . S
H738 N726 0.984 . S
H739 N726 0.985 . S
C740 C741 1.363 . S
C740 C746 1.379 1_455 S
C740 N748 1.356 . S
C741 C740 1.363 . S
C741 C747 1.363 . S
C742 C743 1.363 . S
C742 C747 1.379 1_655 S
C742 N749 1.356 . S
C743 C742 1.363 . S
C743 C746 1.363 . S
N744 C746 1.356 . S
N744 H756 0.984 . S
N744 H757 0.985 . S
N745 C747 1.356 . S
N745 H750 0.984 . S
N745 H751 0.985 . S
C746 C740 1.379 1_655 S
C746 C743 1.363 . S
C746 N744 1.356 . S
C747 C741 1.363 . S
C747 C742 1.379 1_455 S
C747 N745 1.356 . S
N748 C740 1.356 . S
N748 H754 0.984 . S
N748 H755 0.984 . S
N749 C742 1.356 . S
N749 H752 0.984 . S
N749 H753 0.985 . S
H750 N745 0.984 . S
H751 N745 0.985 . S
H752 N749 0.984 . S
H753 N749 0.985 . S
H754 N748 0.984 . S
H755 N748 0.984 . S
H756 N744 0.984 . S
H757 N744 0.985 . S
C758 C759 1.363 . S
C758 C764 1.379 1_565 S
C758 N766 1.356 . S
C759 C758 1.363 . S
C759 C765 1.363 . S
C760 C761 1.363 . S
C760 C765 1.379 1_545 S
C760 N767 1.356 . S
C761 C760 1.363 . S
C761 C764 1.363 . S
N762 C764 1.356 . S
N762 H774 0.984 . S
N762 H775 0.985 . S
N763 C765 1.356 . S
N763 H768 0.984 . S
N763 H769 0.985 . S
C764 C758 1.379 1_545 S
C764 C761 1.363 . S
C764 N762 1.356 . S
C765 C759 1.363 . S
C765 C760 1.379 1_565 S
C765 N763 1.356 . S
N766 C758 1.356 . S
N766 H772 0.984 . S
N766 H773 0.984 . S
N767 C760 1.356 . S
N767 H770 0.984 . S
N767 H771 0.985 . S
H768 N763 0.984 . S
H769 N763 0.985 . S
H770 N767 0.984 . S
H771 N767 0.985 . S
H772 N766 0.984 . S
H773 N766 0.984 . S
H774 N762 0.984 . S
H775 N762 0.985 . S
C776 C777 1.363 . S
C776 C782 1.379 1_455 S
C776 N784 1.356 . S
C777 C776 1.363 . S
C777 C783 1.363 . S
C778 C779 1.363 . S
C778 C783 1.379 1_655 S
C778 N785 1.356 . S
C779 C778 1.363 . S
C779 C782 1.363 . S
N780 C782 1.356 . S
N780 H792 0.984 . S
N780 H793 0.985 . S
N781 C783 1.356 . S
N781 H786 0.984 . S
N781 H787 0.985 . S
C782 C776 1.379 1_655 S
C782 C779 1.363 . S
C782 N780 1.356 . S
C783 C777 1.363 . S
C783 C778 1.379 1_455 S
C783 N781 1.356 . S
N784 C776 1.356 . S
N784 H790 0.984 . S
N784 H791 0.984 . S
N785 C778 1.356 . S
N785 H788 0.984 . S
N785 H789 0.985 . S
H786 N781 0.984 . S
H787 N781 0.985 . S
H788 N785 0.984 . S
H789 N785 0.985 . S
H790 N784 0.984 . S
H791 N784 0.984 . S
H792 N780 0.984 . S
H793 N780 0.985 . S
C794 C795 1.391 . S
C794 C800 1.337 1_565 S
C794 N802 1.383 . S
C795 C794 1.391 . S
C795 C801 1.363 . S
C796 C797 1.363 . S
C796 C801 1.379 1_545 S
C796 N803 1.356 . S
C797 C796 1.363 . S
C797 C800 1.363 . S
N798 C800 1.356 . S
N798 H810 0.984 . S
N798 H811 0.985 . S
N799 C801 1.356 . S
N799 H804 0.984 . S
N799 H805 0.985 . S
C800 C794 1.337 1_545 S
C800 C797 1.363 . S
C800 N798 1.356 . S
C801 C795 1.363 . S
C801 C796 1.379 1_565 S
C801 N799 1.356 . S
N802 C794 1.383 . S
N802 H808 0.984 . S
N802 H809 0.984 . S
N803 C796 1.356 . S
N803 H806 0.984 . S
N803 H807 0.985 . S
H804 N799 0.984 . S
H805 N799 0.985 . S
H806 N803 0.984 . S
H807 N803 0.985 . S
H808 N802 0.984 . S
H809 N802 0.984 . S
H810 N798 0.984 . S
H811 N798 0.985 . S
C812 C813 1.363 . S
C812 C818 1.379 1_455 S
C812 N820 1.356 . S
C813 C812 1.363 . S
C813 C819 1.363 . S
C814 C815 1.363 . S
C814 C819 1.379 1_655 S
C814 N821 1.356 . S
C815 C814 1.363 . S
C815 C818 1.363 . S
N816 C818 1.356 . S
N816 H828 0.984 . S
N816 H829 0.985 . S
N817 C819 1.356 . S
N817 H822 0.984 . S
N817 H823 0.985 . S
C818 C812 1.379 1_655 S
C818 C815 1.363 . S
C818 N816 1.356 . S
C819 C813 1.363 . S
C819 C814 1.379 1_455 S
C819 N817 1.356 . S
N820 C812 1.356 . S
N820 H826 0.984 . S
N820 H827 0.984 . S
N821 C814 1.356 . S
N821 H824 0.984 . S
N821 H825 0.985 . S
H822 N817 0.984 . S
H823 N817 0.985 . S
H824 N821 0.984 . S
H825 N821 0.985 . S
H826 N820 0.984 . S
H827 N820 0.984 . S
H828 N816 0.984 . S
H829 N816 0.985 . S
C830 C831 1.363 . S
C830 C836 1.379 1_545 S
C830 N838 1.356 . S
C831 C830 1.363 . S
C831 C837 1.386 . S
C832 C833 1.363 . S
C832 C837 1.345 1_565 S
C832 N839 1.356 . S
C833 C832 1.363 . S
C833 C836 1.363 . S
N834 C836 1.356 . S
N834 H846 0.984 . S
N834 H847 0.985 . S
N835 C837 1.378 . S
N835 H840 0.984 . S
N835 H841 0.985 . S
C836 C830 1.379 1_565 S
C836 C833 1.363 . S
C836 N834 1.356 . S
C837 C831 1.386 . S
C837 C832 1.345 1_545 S
C837 N835 1.378 . S
N838 C830 1.356 . S
N838 H844 0.984 . S
N838 H845 0.984 . S
N839 C832 1.356 . S
N839 H842 0.984 . S
N839 H843 0.985 . S
H840 N835 0.984 . S
H841 N835 0.985 . S
H842 N839 0.984 . S
H843 N839 0.985 . S
H844 N838 0.984 . S
H845 N838 0.984 . S
H846 N834 0.984 . S
H847 N834 0.985 . S
C848 C849 1.363 . S
C848 C854 1.379 . S
C848 N856 1.356 . S
C849 C848 1.363 . S
C849 C855 1.363 . S
C850 C851 1.363 . S
C850 C855 1.379 . S
C850 N857 1.356 . S
C851 C850 1.363 . S
C851 C854 1.363 . S
N852 C854 1.356 . S
N852 H864 0.984 . S
N852 H865 0.985 . S
N853 C855 1.356 . S
N853 H858 0.984 . S
N853 H859 0.985 . S
C854 C848 1.379 . S
C854 C851 1.363 . S
C854 N852 1.356 . S
C855 C849 1.363 . S
C855 C850 1.379 . S
C855 N853 1.356 . S
N856 C848 1.356 . S
N856 H862 0.984 . S
N856 H863 0.984 . S
N857 C850 1.356 . S
N857 H860 0.984 . S
N857 H861 0.985 . S
H858 N853 0.984 . S
H859 N853 0.985 . S
H860 N857 0.984 . S
H861 N857 0.985 . S
H862 N856 0.984 . S
H863 N856 0.984 . S
H864 N852 0.984 . S
H865 N852 0.985 . S
C866 C867 1.363 . S
C866 C872 1.379 . S
C866 N874 1.356 . S
C867 C866 1.363 . S
C867 C873 1.363 . S
C868 C869 1.363 . S
C868 C873 1.379 . S
C868 N875 1.356 . S
C869 C868 1.363 . S
C869 C872 1.363 . S
N870 C872 1.356 . S
N870 H882 0.984 . S
N870 H883 0.985 . S
N871 C873 1.356 . S
N871 H876 0.984 . S
N871 H877 0.985 . S
C872 C866 1.379 . S
C872 C869 1.363 . S
C872 N870 1.356 . S
C873 C867 1.363 . S
C873 C868 1.379 . S
C873 N871 1.356 . S
N874 C866 1.356 . S
N874 H880 0.984 . S
N874 H881 0.984 . S
N875 C868 1.356 . S
N875 H878 0.984 . S
N875 H879 0.985 . S
H876 N871 0.984 . S
H877 N871 0.985 . S
H878 N875 0.984 . S
H879 N875 0.985 . S
H880 N874 0.984 . S
H881 N874 0.984 . S
H882 N870 0.984 . S
H883 N870 0.985 . S
C884 C885 1.363 . S
C884 C890 1.379 . S
C884 N892 1.356 . S
C885 C884 1.363 . S
C885 C891 1.363 . S
C886 C887 1.363 . S
C886 C891 1.379 . S
C886 N893 1.356 . S
C887 C886 1.363 . S
C887 C890 1.363 . S
N888 C890 1.356 . S
N888 H900 0.984 . S
N888 H901 0.985 . S
N889 C891 1.356 . S
N889 H894 0.984 . S
N889 H895 0.985 . S
C890 C884 1.379 . S
C890 C887 1.363 . S
C890 N888 1.356 . S
C891 C885 1.363 . S
C891 C886 1.379 . S
C891 N889 1.356 . S
N892 C884 1.356 . S
N892 H898 0.984 . S
N892 H899 0.984 . S
N893 C886 1.356 . S
N893 H896 0.984 . S
N893 H897 0.985 . S
H894 N889 0.984 . S
H895 N889 0.985 . S
H896 N893 0.984 . S
H897 N893 0.985 . S
H898 N892 0.984 . S
H899 N892 0.984 . S
H900 N888 0.984 . S
H901 N888 0.985 . S
C902 C903 1.363 . S
C902 C908 1.379 . S
C902 N910 1.356 . S
C903 C902 1.363 . S
C903 C909 1.363 . S
C904 C905 1.363 . S
C904 C909 1.379 . S
C904 N911 1.356 . S
C905 C904 1.363 . S
C905 C908 1.363 . S
N906 C908 1.356 . S
N906 H918 0.984 . S
N906 H919 0.985 . S
N907 C909 1.356 . S
N907 H912 0.984 . S
N907 H913 0.985 . S
C908 C902 1.379 . S
C908 C905 1.363 . S
C908 N906 1.356 . S
C909 C903 1.363 . S
C909 C904 1.379 . S
C909 N907 1.356 . S
N910 C902 1.356 . S
N910 H916 0.984 . S
N910 H917 0.984 . S
N911 C904 1.356 . S
N911 H914 0.984 . S
N911 H915 0.985 . S
H912 N907 0.984 . S
H913 N907 0.985 . S
H914 N911 0.984 . S
H915 N911 0.985 . S
H916 N910 0.984 . S
H917 N910 0.984 . S
H918 N906 0.984 . S
H919 N906 0.985 . S
C920 C921 1.363 . S
C920 C926 1.379 . S
C920 N928 1.356 . S
C921 C920 1.363 . S
C921 C927 1.363 . S
C922 C923 1.363 . S
C922 C927 1.379 . S
C922 N929 1.356 . S
C923 C922 1.363 . S
C923 C926 1.363 . S
N924 C926 1.356 . S
N924 H936 0.984 . S
N924 H937 0.985 . S
N925 C927 1.356 . S
N925 H930 0.984 . S
N925 H931 0.985 . S
C926 C920 1.379 . S
C926 C923 1.363 . S
C926 N924 1.356 . S
C927 C921 1.363 . S
C927 C922 1.379 . S
C927 N925 1.356 . S
N928 C920 1.356 . S
N928 H934 0.984 . S
N928 H935 0.984 . S
N929 C922 1.356 . S
N929 H932 0.984 . S
N929 H933 0.985 . S
H930 N925 0.984 . S
H931 N925 0.985 . S
H932 N929 0.984 . S
H933 N929 0.985 . S
H934 N928 0.984 . S
H935 N928 0.984 . S
H936 N924 0.984 . S
H937 N924 0.985 . S
C938 C939 1.363 . S
C938 C944 1.379 . S
C938 N946 1.356 . S
C939 C938 1.363 . S
C939 C945 1.363 . S
C940 C941 1.363 . S
C940 C945 1.379 . S
C940 N947 1.356 . S
C941 C940 1.363 . S
C941 C944 1.363 . S
N942 C944 1.356 . S
N942 H954 0.984 . S
N942 H955 0.985 . S
N943 C945 1.356 . S
N943 H948 0.984 . S
N943 H949 0.985 . S
C944 C938 1.379 . S
C944 C941 1.363 . S
C944 N942 1.356 . S
C945 C939 1.363 . S
C945 C940 1.379 . S
C945 N943 1.356 . S
N946 C938 1.356 . S
N946 H952 0.984 . S
N946 H953 0.984 . S
N947 C940 1.356 . S
N947 H950 0.984 . S
N947 H951 0.985 . S
H948 N943 0.984 . S
H949 N943 0.985 . S
H950 N947 0.984 . S
H951 N947 0.985 . S
H952 N946 0.984 . S
H953 N946 0.984 . S
H954 N942 0.984 . S
H955 N942 0.985 . S
C956 C957 1.363 . S
C956 C962 1.379 . S
C956 N964 1.356 . S
C957 C956 1.363 . S
C957 C963 1.363 . S
C958 C959 1.363 . S
C958 C963 1.379 . S
C958 N965 1.356 . S
C959 C958 1.363 . S
C959 C962 1.363 . S
N960 C962 1.356 . S
N960 H972 0.984 . S
N960 H973 0.985 . S
N961 C963 1.356 . S
N961 H966 0.984 . S
N961 H967 0.985 . S
C962 C956 1.379 . S
C962 C959 1.363 . S
C962 N960 1.356 . S
C963 C957 1.363 . S
C963 C958 1.379 . S
C963 N961 1.356 . S
N964 C956 1.356 . S
N964 H970 0.984 . S
N964 H971 0.984 . S
N965 C958 1.356 . S
N965 H968 0.984 . S
N965 H969 0.985 . S
H966 N961 0.984 . S
H967 N961 0.985 . S
H968 N965 0.984 . S
H969 N965 0.985 . S
H970 N964 0.984 . S
H971 N964 0.984 . S
H972 N960 0.984 . S
H973 N960 0.985 . S
C974 C975 1.363 . S
C974 C980 1.379 . S
C974 N982 1.356 . S
C975 C974 1.363 . S
C975 C981 1.363 . S
C976 C977 1.363 . S
C976 C981 1.379 . S
C976 N983 1.356 . S
C977 C976 1.363 . S
C977 C980 1.363 . S
N978 C980 1.356 . S
N978 H990 0.984 . S
N978 H991 0.985 . S
N979 C981 1.356 . S
N979 H984 0.984 . S
N979 H985 0.985 . S
C980 C974 1.379 . S
C980 C977 1.363 . S
C980 N978 1.356 . S
C981 C975 1.363 . S
C981 C976 1.379 . S
C981 N979 1.356 . S
N982 C974 1.356 . S
N982 H988 0.984 . S
N982 H989 0.984 . S
N983 C976 1.356 . S
N983 H986 0.984 . S
N983 H987 0.985 . S
H984 N979 0.984 . S
H985 N979 0.985 . S
H986 N983 0.984 . S
H987 N983 0.985 . S
H988 N982 0.984 . S
H989 N982 0.984 . S
H990 N978 0.984 . S
H991 N978 0.985 . S
C992 C993 1.363 . S
C992 C998 1.379 . S
C992 N1000 1.356 . S
C993 C992 1.363 . S
C993 C999 1.363 . S
C994 C995 1.363 . S
C994 C999 1.379 . S
C994 N1001 1.356 . S
C995 C994 1.363 . S
C995 C998 1.363 . S
N996 C998 1.356 . S
N996 H1008 0.984 . S
N996 H1009 0.985 . S
N997 C999 1.356 . S
N997 H1002 0.984 . S
N997 H1003 0.985 . S
C998 C992 1.379 . S
C998 C995 1.363 . S
C998 N996 1.356 . S
C999 C993 1.363 . S
C999 C994 1.379 . S
C999 N997 1.356 . S
N1000 C992 1.356 . S
N1000 H1006 0.984 . S
N1000 H1007 0.984 . S
N1001 C994 1.356 . S
N1001 H1004 0.984 . S
N1001 H1005 0.985 . S
H1002 N997 0.984 . S
H1003 N997 0.985 . S
H1004 N1001 0.984 . S
H1005 N1001 0.985 . S
H1006 N1000 0.984 . S
H1007 N1000 0.984 . S
H1008 N996 0.984 . S
H1009 N996 0.985 . S
C1010 C1011 1.363 . S
C1010 C1016 1.379 . S
C1010 N1018 1.356 . S
C1011 C1010 1.363 . S
C1011 C1017 1.363 . S
C1012 C1013 1.363 . S
C1012 C1017 1.379 . S
C1012 N1019 1.356 . S
C1013 C1012 1.363 . S
C1013 C1016 1.363 . S
N1014 C1016 1.356 . S
N1014 H1026 0.984 . S
N1014 H1027 0.985 . S
N1015 C1017 1.356 . S
N1015 H1020 0.984 . S
N1015 H1021 0.985 . S
C1016 C1010 1.379 . S
C1016 C1013 1.363 . S
C1016 N1014 1.356 . S
C1017 C1011 1.363 . S
C1017 C1012 1.379 . S
C1017 N1015 1.356 . S
N1018 C1010 1.356 . S
N1018 H1024 0.984 . S
N1018 H1025 0.984 . S
N1019 C1012 1.356 . S
N1019 H1022 0.984 . S
N1019 H1023 0.985 . S
H1020 N1015 0.984 . S
H1021 N1015 0.985 . S
H1022 N1019 0.984 . S
H1023 N1019 0.985 . S
H1024 N1018 0.984 . S
H1025 N1018 0.984 . S
H1026 N1014 0.984 . S
H1027 N1014 0.985 . S
C1028 C1029 1.363 . S
C1028 C1034 1.379 . S
C1028 N1036 1.356 . S
C1029 C1028 1.363 . S
C1029 C1035 1.363 . S
C1030 C1031 1.363 . S
C1030 C1035 1.379 . S
C1030 N1037 1.356 . S
C1031 C1030 1.363 . S
C1031 C1034 1.363 . S
N1032 C1034 1.356 . S
N1032 H1044 0.984 . S
N1032 H1045 0.985 . S
N1033 C1035 1.356 . S
N1033 H1038 0.984 . S
N1033 H1039 0.985 . S
C1034 C1028 1.379 . S
C1034 C1031 1.363 . S
C1034 N1032 1.356 . S
C1035 C1029 1.363 . S
C1035 C1030 1.379 . S
C1035 N1033 1.356 . S
N1036 C1028 1.356 . S
N1036 H1042 0.984 . S
N1036 H1043 0.984 . S
N1037 C1030 1.356 . S
N1037 H1040 0.984 . S
N1037 H1041 0.985 . S
H1038 N1033 0.984 . S
H1039 N1033 0.985 . S
H1040 N1037 0.984 . S
H1041 N1037 0.985 . S
H1042 N1036 0.984 . S
H1043 N1036 0.984 . S
H1044 N1032 0.984 . S
H1045 N1032 0.985 . S
C1046 C1047 1.363 . S
C1046 C1052 1.379 . S
C1046 N1054 1.356 . S
C1047 C1046 1.363 . S
C1047 C1053 1.363 . S
C1048 C1049 1.363 . S
C1048 C1053 1.379 . S
C1048 N1055 1.356 . S
C1049 C1048 1.363 . S
C1049 C1052 1.363 . S
N1050 C1052 1.356 . S
N1050 H1062 0.984 . S
N1050 H1063 0.985 . S
N1051 C1053 1.356 . S
N1051 H1056 0.984 . S
N1051 H1057 0.985 . S
C1052 C1046 1.379 . S
C1052 C1049 1.363 . S
C1052 N1050 1.356 . S
C1053 C1047 1.363 . S
C1053 C1048 1.379 . S
C1053 N1051 1.356 . S
N1054 C1046 1.356 . S
N1054 H1060 0.984 . S
N1054 H1061 0.984 . S
N1055 C1048 1.356 . S
N1055 H1058 0.984 . S
N1055 H1059 0.985 . S
H1056 N1051 0.984 . S
H1057 N1051 0.985 . S
H1058 N1055 0.984 . S
H1059 N1055 0.985 . S
H1060 N1054 0.984 . S
H1061 N1054 0.984 . S
H1062 N1050 0.984 . S
H1063 N1050 0.985 . S
C1064 C1065 1.363 . S
C1064 C1070 1.379 . S
C1064 N1072 1.356 . S
C1065 C1064 1.363 . S
C1065 C1071 1.363 . S
C1066 C1067 1.363 . S
C1066 C1071 1.379 . S
C1066 N1073 1.356 . S
C1067 C1066 1.363 . S
C1067 C1070 1.363 . S
N1068 C1070 1.356 . S
N1068 H1080 0.984 . S
N1068 H1081 0.985 . S
N1069 C1071 1.356 . S
N1069 H1074 0.984 . S
N1069 H1075 0.985 . S
C1070 C1064 1.379 . S
C1070 C1067 1.363 . S
C1070 N1068 1.356 . S
C1071 C1065 1.363 . S
C1071 C1066 1.379 . S
C1071 N1069 1.356 . S
N1072 C1064 1.356 . S
N1072 H1078 0.984 . S
N1072 H1079 0.984 . S
N1073 C1066 1.356 . S
N1073 H1076 0.984 . S
N1073 H1077 0.985 . S
H1074 N1069 0.984 . S
H1075 N1069 0.985 . S
H1076 N1073 0.984 . S
H1077 N1073 0.985 . S
H1078 N1072 0.984 . S
H1079 N1072 0.984 . S
H1080 N1068 0.984 . S
H1081 N1068 0.985 . S
C1082 C1083 1.363 . S
C1082 C1088 1.379 . S
C1082 N1090 1.356 . S
C1083 C1082 1.363 . S
C1083 C1089 1.363 . S
C1084 C1085 1.363 . S
C1084 C1089 1.379 . S
C1084 N1091 1.356 . S
C1085 C1084 1.363 . S
C1085 C1088 1.363 . S
N1086 C1088 1.356 . S
N1086 H1098 0.984 . S
N1086 H1099 0.985 . S
N1087 C1089 1.356 . S
N1087 H1092 0.984 . S
N1087 H1093 0.985 . S
C1088 C1082 1.379 . S
C1088 C1085 1.363 . S
C1088 N1086 1.356 . S
C1089 C1083 1.363 . S
C1089 C1084 1.379 . S
C1089 N1087 1.356 . S
N1090 C1082 1.356 . S
N1090 H1096 0.984 . S
N1090 H1097 0.984 . S
N1091 C1084 1.356 . S
N1091 H1094 0.984 . S
N1091 H1095 0.985 . S
H1092 N1087 0.984 . S
H1093 N1087 0.985 . S
H1094 N1091 0.984 . S
H1095 N1091 0.985 . S
H1096 N1090 0.984 . S
H1097 N1090 0.984 . S
H1098 N1086 0.984 . S
H1099 N1086 0.985 . S
C1100 C1101 1.363 . S
C1100 C1106 1.379 . S
C1100 N1108 1.356 . S
C1101 C1100 1.363 . S
C1101 C1107 1.363 . S
C1102 C1103 1.363 . S
C1102 C1107 1.379 . S
C1102 N1109 1.356 . S
C1103 C1102 1.363 . S
C1103 C1106 1.363 . S
N1104 C1106 1.356 . S
N1104 H1116 0.984 . S
N1104 H1117 0.985 . S
N1105 C1107 1.356 . S
N1105 H1110 0.984 . S
N1105 H1111 0.985 . S
C1106 C1100 1.379 . S
C1106 C1103 1.363 . S
C1106 N1104 1.356 . S
C1107 C1101 1.363 . S
C1107 C1102 1.379 . S
C1107 N1105 1.356 . S
N1108 C1100 1.356 . S
N1108 H1114 0.984 . S
N1108 H1115 0.984 . S
N1109 C1102 1.356 . S
N1109 H1112 0.984 . S
N1109 H1113 0.985 . S
H1110 N1105 0.984 . S
H1111 N1105 0.985 . S
H1112 N1109 0.984 . S
H1113 N1109 0.985 . S
H1114 N1108 0.984 . S
H1115 N1108 0.984 . S
H1116 N1104 0.984 . S
H1117 N1104 0.985 . S
C1118 C1119 1.363 . S
C1118 C1124 1.379 . S
C1118 N1126 1.356 . S
C1119 C1118 1.363 . S
C1119 C1125 1.363 . S
C1120 C1121 1.363 . S
C1120 C1125 1.379 . S
C1120 N1127 1.356 . S
C1121 C1120 1.363 . S
C1121 C1124 1.363 . S
N1122 C1124 1.356 . S
N1122 H1134 0.984 . S
N1122 H1135 0.985 . S
N1123 C1125 1.356 . S
N1123 H1128 0.984 . S
N1123 H1129 0.985 . S
C1124 C1118 1.379 . S
C1124 C1121 1.363 . S
C1124 N1122 1.356 . S
C1125 C1119 1.363 . S
C1125 C1120 1.379 . S
C1125 N1123 1.356 . S
N1126 C1118 1.356 . S
N1126 H1132 0.984 . S
N1126 H1133 0.984 . S
N1127 C1120 1.356 . S
N1127 H1130 0.984 . S
N1127 H1131 0.985 . S
H1128 N1123 0.984 . S
H1129 N1123 0.985 . S
H1130 N1127 0.984 . S
H1131 N1127 0.985 . S
H1132 N1126 0.984 . S
H1133 N1126 0.984 . S
H1134 N1122 0.984 . S
H1135 N1122 0.985 . S
C1136 C1137 1.363 . S
C1136 C1142 1.379 1_554 S
C1136 N1144 1.356 . S
C1137 C1136 1.363 . S
C1137 C1143 1.363 . S
C1138 C1139 1.363 . S
C1138 C1143 1.379 1_556 S
C1138 N1145 1.356 . S
C1139 C1138 1.363 . S
C1139 C1142 1.363 . S
N1140 C1142 1.356 . S
N1140 H1152 0.984 . S
N1140 H1153 0.985 . S
N1141 C1143 1.356 . S
N1141 H1146 0.984 . S
N1141 H1147 0.985 . S
C1142 C1136 1.379 1_556 S
C1142 C1139 1.363 . S
C1142 N1140 1.356 . S
C1143 C1137 1.363 . S
C1143 C1138 1.379 1_554 S
C1143 N1141 1.356 . S
N1144 C1136 1.356 . S
N1144 H1150 0.984 . S
N1144 H1151 0.984 . S
N1145 C1138 1.356 . S
N1145 H1148 0.984 . S
N1145 H1149 0.985 . S
H1146 N1141 0.984 . S
H1147 N1141 0.985 . S
H1148 N1145 0.984 . S
H1149 N1145 0.985 . S
H1150 N1144 0.984 . S
H1151 N1144 0.984 . S
H1152 N1140 0.984 . S
H1153 N1140 0.985 . S
C1154 C1155 1.363 . S
C1154 C1160 1.379 1_556 S
C1154 N1162 1.356 . S
C1155 C1154 1.363 . S
C1155 C1161 1.363 . S
C1156 C1157 1.363 . S
C1156 C1161 1.379 1_554 S
C1156 N1163 1.356 . S
C1157 C1156 1.363 . S
C1157 C1160 1.363 . S
N1158 C1160 1.356 . S
N1158 H1170 0.984 . S
N1158 H1171 0.985 . S
N1159 C1161 1.356 . S
N1159 H1164 0.984 . S
N1159 H1165 0.985 . S
C1160 C1154 1.379 1_554 S
C1160 C1157 1.363 . S
C1160 N1158 1.356 . S
C1161 C1155 1.363 . S
C1161 C1156 1.379 1_556 S
C1161 N1159 1.356 . S
N1162 C1154 1.356 . S
N1162 H1168 0.984 . S
N1162 H1169 0.984 . S
N1163 C1156 1.356 . S
N1163 H1166 0.984 . S
N1163 H1167 0.985 . S
H1164 N1159 0.984 . S
H1165 N1159 0.985 . S
H1166 N1163 0.984 . S
H1167 N1163 0.985 . S
H1168 N1162 0.984 . S
H1169 N1162 0.984 . S
H1170 N1158 0.984 . S
H1171 N1158 0.985 . S
C1172 C1173 1.363 . S
C1172 C1178 1.379 1_554 S
C1172 N1180 1.356 . S
C1173 C1172 1.363 . S
C1173 C1179 1.363 . S
C1174 C1175 1.363 . S
C1174 C1179 1.379 1_556 S
C1174 N1181 1.356 . S
C1175 C1174 1.363 . S
C1175 C1178 1.363 . S
N1176 C1178 1.356 . S
N1176 H1188 0.984 . S
N1176 H1189 0.985 . S
N1177 C1179 1.356 . S
N1177 H1182 0.984 . S
N1177 H1183 0.985 . S
C1178 C1172 1.379 1_556 S
C1178 C1175 1.363 . S
C1178 N1176 1.356 . S
C1179 C1173 1.363 . S
C1179 C1174 1.379 1_554 S
C1179 N1177 1.356 . S
N1180 C1172 1.356 . S
N1180 H1186 0.984 . S
N1180 H1187 0.984 . S
N1181 C1174 1.356 . S
N1181 H1184 0.984 . S
N1181 H1185 0.985 . S
H1182 N1177 0.984 . S
H1183 N1177 0.985 . S
H1184 N1181 0.984 . S
H1185 N1181 0.985 . S
H1186 N1180 0.984 . S
H1187 N1180 0.984 . S
H1188 N1176 0.984 . S
H1189 N1176 0.985 . S
C1190 C1191 1.363 . S
C1190 C1196 1.379 1_554 S
C1190 N1198 1.356 . S
C1191 C1190 1.363 . S
C1191 C1197 1.363 . S
C1192 C1193 1.363 . S
C1192 C1197 1.379 1_556 S
C1192 N1199 1.356 . S
C1193 C1192 1.363 . S
C1193 C1196 1.363 . S
N1194 C1196 1.356 . S
N1194 H1206 0.984 . S
N1194 H1207 0.985 . S
N1195 C1197 1.356 . S
N1195 H1200 0.984 . S
N1195 H1201 0.985 . S
C1196 C1190 1.379 1_556 S
C1196 C1193 1.363 . S
C1196 N1194 1.356 . S
C1197 C1191 1.363 . S
C1197 C1192 1.379 1_554 S
C1197 N1195 1.356 . S
N1198 C1190 1.356 . S
N1198 H1204 0.984 . S
N1198 H1205 0.984 . S
N1199 C1192 1.356 . S
N1199 H1202 0.984 . S
N1199 H1203 0.985 . S
H1200 N1195 0.984 . S
H1201 N1195 0.985 . S
H1202 N1199 0.984 . S
H1203 N1199 0.985 . S
H1204 N1198 0.984 . S
H1205 N1198 0.984 . S
H1206 N1194 0.984 . S
H1207 N1194 0.985 . S
C1208 C1209 1.363 . S
C1208 C1214 1.379 1_554 S
C1208 N1216 1.356 . S
C1209 C1208 1.363 . S
C1209 C1215 1.363 . S
C1210 C1211 1.363 . S
C1210 C1215 1.379 1_556 S
C1210 N1217 1.356 . S
C1211 C1210 1.363 . S
C1211 C1214 1.363 . S
N1212 C1214 1.356 . S
N1212 H1224 0.984 . S
N1212 H1225 0.985 . S
N1213 C1215 1.356 . S
N1213 H1218 0.984 . S
N1213 H1219 0.985 . S
C1214 C1208 1.379 1_556 S
C1214 C1211 1.363 . S
C1214 N1212 1.356 . S
C1215 C1209 1.363 . S
C1215 C1210 1.379 1_554 S
C1215 N1213 1.356 . S
N1216 C1208 1.356 . S
N1216 H1222 0.984 . S
N1216 H1223 0.984 . S
N1217 C1210 1.356 . S
N1217 H1220 0.984 . S
N1217 H1221 0.985 . S
H1218 N1213 0.984 . S
H1219 N1213 0.985 . S
H1220 N1217 0.984 . S
H1221 N1217 0.985 . S
H1222 N1216 0.984 . S
H1223 N1216 0.984 . S
H1224 N1212 0.984 . S
H1225 N1212 0.985 . S
C1226 C1227 1.363 . S
C1226 C1232 1.379 1_554 S
C1226 N1234 1.356 . S
C1227 C1226 1.363 . S
C1227 C1233 1.363 . S
C1228 C1229 1.363 . S
C1228 C1233 1.379 1_556 S
C1228 N1235 1.356 . S
C1229 C1228 1.363 . S
C1229 C1232 1.363 . S
N1230 C1232 1.356 . S
N1230 H1242 0.984 . S
N1230 H1243 0.985 . S
N1231 C1233 1.356 . S
N1231 H1236 0.984 . S
N1231 H1237 0.985 . S
C1232 C1226 1.379 1_556 S
C1232 C1229 1.363 . S
C1232 N1230 1.356 . S
C1233 C1227 1.363 . S
C1233 C1228 1.379 1_554 S
C1233 N1231 1.356 . S
N1234 C1226 1.356 . S
N1234 H1240 0.984 . S
N1234 H1241 0.984 . S
N1235 C1228 1.356 . S
N1235 H1238 0.984 . S
N1235 H1239 0.985 . S
H1236 N1231 0.984 . S
H1237 N1231 0.985 . S
H1238 N1235 0.984 . S
H1239 N1235 0.985 . S
H1240 N1234 0.984 . S
H1241 N1234 0.984 . S
H1242 N1230 0.984 . S
H1243 N1230 0.985 . S
C1244 C1245 1.363 . S
C1244 C1250 1.379 1_556 S
C1244 N1252 1.356 . S
C1245 C1244 1.363 . S
C1245 C1251 1.363 . S
C1246 C1247 1.363 . S
C1246 C1251 1.379 1_554 S
C1246 N1253 1.356 . S
C1247 C1246 1.363 . S
C1247 C1250 1.363 . S
N1248 C1250 1.356 . S
N1248 H1260 0.984 . S
N1248 H1261 0.985 . S
N1249 C1251 1.356 . S
N1249 H1254 0.984 . S
N1249 H1255 0.985 . S
C1250 C1244 1.379 1_554 S
C1250 C1247 1.363 . S
C1250 N1248 1.356 . S
C1251 C1245 1.363 . S
C1251 C1246 1.379 1_556 S
C1251 N1249 1.356 . S
N1252 C1244 1.356 . S
N1252 H1258 0.984 . S
N1252 H1259 0.984 . S
N1253 C1246 1.356 . S
N1253 H1256 0.984 . S
N1253 H1257 0.985 . S
H1254 N1249 0.984 . S
H1255 N1249 0.985 . S
H1256 N1253 0.984 . S
H1257 N1253 0.985 . S
H1258 N1252 0.984 . S
H1259 N1252 0.984 . S
H1260 N1248 0.984 . S
H1261 N1248 0.985 . S
C1262 C1263 1.363 . S
C1262 C1268 1.379 1_556 S
C1262 N1270 1.356 . S
C1263 C1262 1.363 . S
C1263 C1269 1.363 . S
C1264 C1265 1.363 . S
C1264 C1269 1.379 1_554 S
C1264 N1271 1.356 . S
C1265 C1264 1.363 . S
C1265 C1268 1.363 . S
N1266 C1268 1.356 . S
N1266 H1278 0.984 . S
N1266 H1279 0.985 . S
N1267 C1269 1.356 . S
N1267 H1272 0.984 . S
N1267 H1273 0.985 . S
C1268 C1262 1.379 1_554 S
C1268 C1265 1.363 . S
C1268 N1266 1.356 . S
C1269 C1263 1.363 . S
C1269 C1264 1.379 1_556 S
C1269 N1267 1.356 . S
N1270 C1262 1.356 . S
N1270 H1276 0.984 . S
N1270 H1277 0.984 . S
N1271 C1264 1.356 . S
N1271 H1274 0.984 . S
N1271 H1275 0.985 . S
H1272 N1267 0.984 . S
H1273 N1267 0.985 . S
H1274 N1271 0.984 . S
H1275 N1271 0.985 . S
H1276 N1270 0.984 . S
H1277 N1270 0.984 . S
H1278 N1266 0.984 . S
H1279 N1266 0.985 . S
C1280 C1281 1.363 . S
C1280 C1286 1.379 . S
C1280 N1288 1.356 . S
C1281 C1280 1.363 . S
C1281 C1287 1.363 . S
C1282 C1283 1.363 . S
C1282 C1287 1.379 . S
C1282 N1289 1.356 . S
C1283 C1282 1.363 . S
C1283 C1286 1.363 . S
N1284 C1286 1.356 . S
N1284 H1296 0.984 . S
N1284 H1297 0.985 . S
N1285 C1287 1.356 . S
N1285 H1290 0.984 . S
N1285 H1291 0.985 . S
C1286 C1280 1.379 . S
C1286 C1283 1.363 . S
C1286 N1284 1.356 . S
C1287 C1281 1.363 . S
C1287 C1282 1.379 . S
C1287 N1285 1.356 . S
N1288 C1280 1.356 . S
N1288 H1294 0.984 . S
N1288 H1295 0.984 . S
N1289 C1282 1.356 . S
N1289 H1292 0.984 . S
N1289 H1293 0.985 . S
H1290 N1285 0.984 . S
H1291 N1285 0.985 . S
H1292 N1289 0.984 . S
H1293 N1289 0.985 . S
H1294 N1288 0.984 . S
H1295 N1288 0.984 . S
H1296 N1284 0.984 . S
H1297 N1284 0.985 . S
C1298 C1299 1.363 . S
C1298 C1304 1.379 . S
C1298 N1306 1.356 . S
C1299 C1298 1.363 . S
C1299 C1305 1.363 . S
C1300 C1301 1.363 . S
C1300 C1305 1.379 . S
C1300 N1307 1.356 . S
C1301 C1300 1.363 . S
C1301 C1304 1.363 . S
N1302 C1304 1.356 . S
N1302 H1314 0.984 . S
N1302 H1315 0.985 . S
N1303 C1305 1.356 . S
N1303 H1308 0.984 . S
N1303 H1309 0.985 . S
C1304 C1298 1.379 . S
C1304 C1301 1.363 . S
C1304 N1302 1.356 . S
C1305 C1299 1.363 . S
C1305 C1300 1.379 . S
C1305 N1303 1.356 . S
N1306 C1298 1.356 . S
N1306 H1312 0.984 . S
N1306 H1313 0.984 . S
N1307 C1300 1.356 . S
N1307 H1310 0.984 . S
N1307 H1311 0.985 . S
H1308 N1303 0.984 . S
H1309 N1303 0.985 . S
H1310 N1307 0.984 . S
H1311 N1307 0.985 . S
H1312 N1306 0.984 . S
H1313 N1306 0.984 . S
H1314 N1302 0.984 . S
H1315 N1302 0.985 . S
C1316 C1317 1.363 . S
C1316 C1322 1.379 . S
C1316 N1324 1.356 . S
C1317 C1316 1.363 . S
C1317 C1323 1.363 . S
C1318 C1319 1.363 . S
C1318 C1323 1.379 . S
C1318 N1325 1.356 . S
C1319 C1318 1.363 . S
C1319 C1322 1.363 . S
N1320 C1322 1.356 . S
N1320 H1332 0.984 . S
N1320 H1333 0.985 . S
N1321 C1323 1.356 . S
N1321 H1326 0.984 . S
N1321 H1327 0.985 . S
C1322 C1316 1.379 . S
C1322 C1319 1.363 . S
C1322 N1320 1.356 . S
C1323 C1317 1.363 . S
C1323 C1318 1.379 . S
C1323 N1321 1.356 . S
N1324 C1316 1.356 . S
N1324 H1330 0.984 . S
N1324 H1331 0.984 . S
N1325 C1318 1.356 . S
N1325 H1328 0.984 . S
N1325 H1329 0.985 . S
H1326 N1321 0.984 . S
H1327 N1321 0.985 . S
H1328 N1325 0.984 . S
H1329 N1325 0.985 . S
H1330 N1324 0.984 . S
H1331 N1324 0.984 . S
H1332 N1320 0.984 . S
H1333 N1320 0.985 . S
C1334 C1335 1.363 . S
C1334 C1340 1.379 . S
C1334 N1342 1.356 . S
C1335 C1334 1.363 . S
C1335 C1341 1.363 . S
C1336 C1337 1.363 . S
C1336 C1341 1.379 . S
C1336 N1343 1.356 . S
C1337 C1336 1.363 . S
C1337 C1340 1.363 . S
N1338 C1340 1.356 . S
N1338 H1350 0.984 . S
N1338 H1351 0.985 . S
N1339 C1341 1.356 . S
N1339 H1344 0.984 . S
N1339 H1345 0.985 . S
C1340 C1334 1.379 . S
C1340 C1337 1.363 . S
C1340 N1338 1.356 . S
C1341 C1335 1.363 . S
C1341 C1336 1.379 . S
C1341 N1339 1.356 . S
N1342 C1334 1.356 . S
N1342 H1348 0.984 . S
N1342 H1349 0.984 . S
N1343 C1336 1.356 . S
N1343 H1346 0.984 . S
N1343 H1347 0.985 . S
H1344 N1339 0.984 . S
H1345 N1339 0.985 . S
H1346 N1343 0.984 . S
H1347 N1343 0.985 . S
H1348 N1342 0.984 . S
H1349 N1342 0.984 . S
H1350 N1338 0.984 . S
H1351 N1338 0.985 . S
C1352 C1353 1.363 . S
C1352 C1358 1.379 . S
C1352 N1360 1.356 . S
C1353 C1352 1.363 . S
C1353 C1359 1.363 . S
C1354 C1355 1.363 . S
C1354 C1359 1.379 . S
C1354 N1361 1.356 . S
C1355 C1354 1.363 . S
C1355 C1358 1.363 . S
N1356 C1358 1.356 . S
N1356 H1368 0.984 . S
N1356 H1369 0.985 . S
N1357 C1359 1.356 . S
N1357 H1362 0.984 . S
N1357 H1363 0.985 . S
C1358 C1352 1.379 . S
C1358 C1355 1.363 . S
C1358 N1356 1.356 . S
C1359 C1353 1.363 . S
C1359 C1354 1.379 . S
C1359 N1357 1.356 . S
N1360 C1352 1.356 . S
N1360 H1366 0.984 . S
N1360 H1367 0.984 . S
N1361 C1354 1.356 . S
N1361 H1364 0.984 . S
N1361 H1365 0.985 . S
H1362 N1357 0.984 . S
H1363 N1357 0.985 . S
H1364 N1361 0.984 . S
H1365 N1361 0.985 . S
H1366 N1360 0.984 . S
H1367 N1360 0.984 . S
H1368 N1356 0.984 . S
H1369 N1356 0.985 . S
C1370 C1371 1.363 . S
C1370 C1376 1.379 . S
C1370 N1378 1.356 . S
C1371 C1370 1.363 . S
C1371 C1377 1.363 . S
C1372 C1373 1.363 . S
C1372 C1377 1.379 . S
C1372 N1379 1.356 . S
C1373 C1372 1.363 . S
C1373 C1376 1.363 . S
N1374 C1376 1.356 . S
N1374 H1386 0.984 . S
N1374 H1387 0.985 . S
N1375 C1377 1.356 . S
N1375 H1380 0.984 . S
N1375 H1381 0.985 . S
C1376 C1370 1.379 . S
C1376 C1373 1.363 . S
C1376 N1374 1.356 . S
C1377 C1371 1.363 . S
C1377 C1372 1.379 . S
C1377 N1375 1.356 . S
N1378 C1370 1.356 . S
N1378 H1384 0.984 . S
N1378 H1385 0.984 . S
N1379 C1372 1.356 . S
N1379 H1382 0.984 . S
N1379 H1383 0.985 . S
H1380 N1375 0.984 . S
H1381 N1375 0.985 . S
H1382 N1379 0.984 . S
H1383 N1379 0.985 . S
H1384 N1378 0.984 . S
H1385 N1378 0.984 . S
H1386 N1374 0.984 . S
H1387 N1374 0.985 . S
C1388 C1389 1.363 . S
C1388 C1394 1.379 . S
C1388 N1396 1.356 . S
C1389 C1388 1.363 . S
C1389 C1395 1.363 . S
C1390 C1391 1.363 . S
C1390 C1395 1.379 . S
C1390 N1397 1.356 . S
C1391 C1390 1.363 . S
C1391 C1394 1.363 . S
N1392 C1394 1.356 . S
N1392 H1404 0.984 . S
N1392 H1405 0.985 . S
N1393 C1395 1.356 . S
N1393 H1398 0.984 . S
N1393 H1399 0.985 . S
C1394 C1388 1.379 . S
C1394 C1391 1.363 . S
C1394 N1392 1.356 . S
C1395 C1389 1.363 . S
C1395 C1390 1.379 . S
C1395 N1393 1.356 . S
N1396 C1388 1.356 . S
N1396 H1402 0.984 . S
N1396 H1403 0.984 . S
N1397 C1390 1.356 . S
N1397 H1400 0.984 . S
N1397 H1401 0.985 . S
H1398 N1393 0.984 . S
H1399 N1393 0.985 . S
H1400 N1397 0.984 . S
H1401 N1397 0.985 . S
H1402 N1396 0.984 . S
H1403 N1396 0.984 . S
H1404 N1392 0.984 . S
H1405 N1392 0.985 . S
C1406 C1407 1.363 . S
C1406 C1412 1.379 . S
C1406 N1414 1.356 . S
C1407 C1406 1.363 . S
C1407 C1413 1.363 . S
C1408 C1409 1.363 . S
C1408 C1413 1.379 . S
C1408 N1415 1.356 . S
C1409 C1408 1.363 . S
C1409 C1412 1.363 . S
N1410 C1412 1.356 . S
N1410 H1422 0.984 . S
N1410 H1423 0.985 . S
N1411 C1413 1.356 . S
N1411 H1416 0.984 . S
N1411 H1417 0.985 . S
C1412 C1406 1.379 . S
C1412 C1409 1.363 . S
C1412 N1410 1.356 . S
C1413 C1407 1.363 . S
C1413 C1408 1.379 . S
C1413 N1411 1.356 . S
N1414 C1406 1.356 . S
N1414 H1420 0.984 . S
N1414 H1421 0.984 . S
N1415 C1408 1.356 . S
N1415 H1418 0.984 . S
N1415 H1419 0.985 . S
H1416 N1411 0.984 . S
H1417 N1411 0.985 . S
H1418 N1415 0.984 . S
H1419 N1415 0.985 . S
H1420 N1414 0.984 . S
H1421 N1414 0.984 . S
H1422 N1410 0.984 . S
H1423 N1410 0.985 . S
C1424 C1425 1.363 . S
C1424 C1430 1.379 . S
C1424 N1432 1.356 . S
C1425 C1424 1.363 . S
C1425 C1431 1.363 . S
C1426 C1427 1.363 . S
C1426 C1431 1.379 . S
C1426 N1433 1.356 . S
C1427 C1426 1.363 . S
C1427 C1430 1.363 . S
N1428 C1430 1.356 . S
N1428 H1440 0.984 . S
N1428 H1441 0.985 . S
N1429 C1431 1.356 . S
N1429 H1434 0.984 . S
N1429 H1435 0.985 . S
C1430 C1424 1.379 . S
C1430 C1427 1.363 . S
C1430 N1428 1.356 . S
C1431 C1425 1.363 . S
C1431 C1426 1.379 . S
C1431 N1429 1.356 . S
N1432 C1424 1.356 . S
N1432 H1438 0.984 . S
N1432 H1439 0.984 . S
N1433 C1426 1.356 . S
N1433 H1436 0.984 . S
N1433 H1437 0.985 . S
H1434 N1429 0.984 . S
H1435 N1429 0.985 . S
H1436 N1433 0.984 . S
H1437 N1433 0.985 . S
H1438 N1432 0.984 . S
H1439 N1432 0.984 . S
H1440 N1428 0.984 . S
H1441 N1428 0.985 . S
C1442 C1443 1.363 . S
C1442 C1448 1.379 . S
C1442 N1450 1.356 . S
C1443 C1442 1.363 . S
C1443 C1449 1.363 . S
C1444 C1445 1.363 . S
C1444 C1449 1.379 . S
C1444 N1451 1.356 . S
C1445 C1444 1.363 . S
C1445 C1448 1.363 . S
N1446 C1448 1.356 . S
N1446 H1458 0.984 . S
N1446 H1459 0.985 . S
N1447 C1449 1.356 . S
N1447 H1452 0.984 . S
N1447 H1453 0.985 . S
C1448 C1442 1.379 . S
C1448 C1445 1.363 . S
C1448 N1446 1.356 . S
C1449 C1443 1.363 . S
C1449 C1444 1.379 . S
C1449 N1447 1.356 . S
N1450 C1442 1.356 . S
N1450 H1456 0.984 . S
N1450 H1457 0.984 . S
N1451 C1444 1.356 . S
N1451 H1454 0.984 . S
N1451 H1455 0.985 . S
H1452 N1447 0.984 . S
H1453 N1447 0.985 . S
H1454 N1451 0.984 . S
H1455 N1451 0.985 . S
H1456 N1450 0.984 . S
H1457 N1450 0.984 . S
H1458 N1446 0.984 . S
H1459 N1446 0.985 . S
C1460 C1461 1.363 . S
C1460 C1466 1.379 . S
C1460 N1468 1.356 . S
C1461 C1460 1.363 . S
C1461 C1467 1.363 . S
C1462 C1463 1.363 . S
C1462 C1467 1.379 . S
C1462 N1469 1.356 . S
C1463 C1462 1.363 . S
C1463 C1466 1.363 . S
N1464 C1466 1.356 . S
N1464 H1476 0.984 . S
N1464 H1477 0.985 . S
N1465 C1467 1.356 . S
N1465 H1470 0.984 . S
N1465 H1471 0.985 . S
C1466 C1460 1.379 . S
C1466 C1463 1.363 . S
C1466 N1464 1.356 . S
C1467 C1461 1.363 . S
C1467 C1462 1.379 . S
C1467 N1465 1.356 . S
N1468 C1460 1.356 . S
N1468 H1474 0.984 . S
N1468 H1475 0.984 . S
N1469 C1462 1.356 . S
N1469 H1472 0.984 . S
N1469 H1473 0.985 . S
H1470 N1465 0.984 . S
H1471 N1465 0.985 . S
H1472 N1469 0.984 . S
H1473 N1469 0.985 . S
H1474 N1468 0.984 . S
H1475 N1468 0.984 . S
H1476 N1464 0.984 . S
H1477 N1464 0.985 . S
C1478 C1479 1.363 . S
C1478 C1484 1.379 . S
C1478 N1486 1.356 . S
C1479 C1478 1.363 . S
C1479 C1485 1.363 . S
C1480 C1481 1.363 . S
C1480 C1485 1.379 . S
C1480 N1487 1.356 . S
C1481 C1480 1.363 . S
C1481 C1484 1.363 . S
N1482 C1484 1.356 . S
N1482 H1494 0.984 . S
N1482 H1495 0.985 . S
N1483 C1485 1.356 . S
N1483 H1488 0.984 . S
N1483 H1489 0.985 . S
C1484 C1478 1.379 . S
C1484 C1481 1.363 . S
C1484 N1482 1.356 . S
C1485 C1479 1.363 . S
C1485 C1480 1.379 . S
C1485 N1483 1.356 . S
N1486 C1478 1.356 . S
N1486 H1492 0.984 . S
N1486 H1493 0.984 . S
N1487 C1480 1.356 . S
N1487 H1490 0.984 . S
N1487 H1491 0.985 . S
H1488 N1483 0.984 . S
H1489 N1483 0.985 . S
H1490 N1487 0.984 . S
H1491 N1487 0.985 . S
H1492 N1486 0.984 . S
H1493 N1486 0.984 . S
H1494 N1482 0.984 . S
H1495 N1482 0.985 . S
C1496 C1497 1.363 . S
C1496 C1502 1.379 . S
C1496 N1504 1.356 . S
C1497 C1496 1.363 . S
C1497 C1503 1.363 . S
C1498 C1499 1.363 . S
C1498 C1503 1.379 . S
C1498 N1505 1.356 . S
C1499 C1498 1.363 . S
C1499 C1502 1.363 . S
N1500 C1502 1.356 . S
N1500 H1512 0.984 . S
N1500 H1513 0.985 . S
N1501 C1503 1.356 . S
N1501 H1506 0.984 . S
N1501 H1507 0.985 . S
C1502 C1496 1.379 . S
C1502 C1499 1.363 . S
C1502 N1500 1.356 . S
C1503 C1497 1.363 . S
C1503 C1498 1.379 . S
C1503 N1501 1.356 . S
N1504 C1496 1.356 . S
N1504 H1510 0.984 . S
N1504 H1511 0.984 . S
N1505 C1498 1.356 . S
N1505 H1508 0.984 . S
N1505 H1509 0.985 . S
H1506 N1501 0.984 . S
H1507 N1501 0.985 . S
H1508 N1505 0.984 . S
H1509 N1505 0.985 . S
H1510 N1504 0.984 . S
H1511 N1504 0.984 . S
H1512 N1500 0.984 . S
H1513 N1500 0.985 . S
C1514 C1515 1.363 . S
C1514 C1520 1.379 . S
C1514 N1522 1.356 . S
C1515 C1514 1.363 . S
C1515 C1521 1.363 . S
C1516 C1517 1.363 . S
C1516 C1521 1.379 . S
C1516 N1523 1.356 . S
C1517 C1516 1.363 . S
C1517 C1520 1.363 . S
N1518 C1520 1.356 . S
N1518 H1530 0.984 . S
N1518 H1531 0.985 . S
N1519 C1521 1.356 . S
N1519 H1524 0.984 . S
N1519 H1525 0.985 . S
C1520 C1514 1.379 . S
C1520 C1517 1.363 . S
C1520 N1518 1.356 . S
C1521 C1515 1.363 . S
C1521 C1516 1.379 . S
C1521 N1519 1.356 . S
N1522 C1514 1.356 . S
N1522 H1528 0.984 . S
N1522 H1529 0.984 . S
N1523 C1516 1.356 . S
N1523 H1526 0.984 . S
N1523 H1527 0.985 . S
H1524 N1519 0.984 . S
H1525 N1519 0.985 . S
H1526 N1523 0.984 . S
H1527 N1523 0.985 . S
H1528 N1522 0.984 . S
H1529 N1522 0.984 . S
H1530 N1518 0.984 . S
H1531 N1518 0.985 . S
C1532 C1533 1.363 . S
C1532 C1538 1.379 . S
C1532 N1540 1.356 . S
C1533 C1532 1.363 . S
C1533 C1539 1.363 . S
C1534 C1535 1.363 . S
C1534 C1539 1.379 . S
C1534 N1541 1.356 . S
C1535 C1534 1.363 . S
C1535 C1538 1.363 . S
N1536 C1538 1.356 . S
N1536 H1548 0.984 . S
N1536 H1549 0.985 . S
N1537 C1539 1.356 . S
N1537 H1542 0.984 . S
N1537 H1543 0.985 . S
C1538 C1532 1.379 . S
C1538 C1535 1.363 . S
C1538 N1536 1.356 . S
C1539 C1533 1.363 . S
C1539 C1534 1.379 . S
C1539 N1537 1.356 . S
N1540 C1532 1.356 . S
N1540 H1546 0.984 . S
N1540 H1547 0.984 . S
N1541 C1534 1.356 . S
N1541 H1544 0.984 . S
N1541 H1545 0.985 . S
H1542 N1537 0.984 . S
H1543 N1537 0.985 . S
H1544 N1541 0.984 . S
H1545 N1541 0.985 . S
H1546 N1540 0.984 . S
H1547 N1540 0.984 . S
H1548 N1536 0.984 . S
H1549 N1536 0.985 . S
C1550 C1551 1.363 . S
C1550 C1556 1.379 . S
C1550 N1558 1.356 . S
C1551 C1550 1.363 . S
C1551 C1557 1.363 . S
C1552 C1553 1.363 . S
C1552 C1557 1.379 . S
C1552 N1559 1.356 . S
C1553 C1552 1.363 . S
C1553 C1556 1.363 . S
N1554 C1556 1.356 . S
N1554 H1566 0.984 . S
N1554 H1567 0.985 . S
N1555 C1557 1.356 . S
N1555 H1560 0.984 . S
N1555 H1561 0.985 . S
C1556 C1550 1.379 . S
C1556 C1553 1.363 . S
C1556 N1554 1.356 . S
C1557 C1551 1.363 . S
C1557 C1552 1.379 . S
C1557 N1555 1.356 . S
N1558 C1550 1.356 . S
N1558 H1564 0.984 . S
N1558 H1565 0.984 . S
N1559 C1552 1.356 . S
N1559 H1562 0.984 . S
N1559 H1563 0.985 . S
H1560 N1555 0.984 . S
H1561 N1555 0.985 . S
H1562 N1559 0.984 . S
H1563 N1559 0.985 . S
H1564 N1558 0.984 . S
H1565 N1558 0.984 . S
H1566 N1554 0.984 . S
H1567 N1554 0.985 . S
C417 C200 1.345 . S
C419 C5 1.345 . S
C435 C21 1.397 . S
C437 C161 1.388 . S
C453 C31 1.345 . S
C455 C174 1.345 . S
C471 C187 1.388 . S
C473 C47 1.397 . S
C489 C57 1.345 . S
C491 C122 1.345 . S
C507 C73 1.397 . S
C509 C135 1.388 . S
C525 C148 1.345 . S
C527 C83 1.345 . S
C543 C109 1.388 . S
C545 C99 1.397 . S
C561 C213 1.345 . S
C563 C408 1.345 . S
C579 C229 1.397 . S
C581 C369 1.388 . S
C597 C239 1.345 . S
C599 C382 1.345 . S
C615 C395 1.388 . S
C617 C255 1.397 . S
C633 C265 1.345 . S
C635 C330 1.345 . S
C651 C281 1.397 . S
C653 C343 1.388 . S
C669 C356 1.345 . S
C671 C291 1.345 . S
C687 C307 1.397 . S
C689 C317 1.388 . S
C705 C156 1.257 . S
C707 C0 1.256 . S
C723 C23 1.244 . S
C725 C169 1.233 . S
C741 C182 1.257 . S
C743 C26 1.256 . S
C759 C49 1.243 . S
C761 C195 1.233 . S
C777 C52 1.256 . S
C779 C104 1.257 . S
C795 C117 1.233 . S
C797 C75 1.243 . S
C813 C130 1.257 . S
C815 C78 1.256 . S
C831 C143 1.233 . S
C833 C101 1.243 . S
C849 C208 1.256 . S
C851 C364 1.257 . S
C867 C377 1.233 . S
C869 C231 1.244 . S
C885 C234 1.256 . S
C887 C390 1.257 . S
C903 C257 1.243 . S
C905 C403 1.233 . S
C921 C312 1.257 . S
C923 C260 1.256 . S
C939 C283 1.243 . S
C941 C325 1.233 . S
C957 C286 1.256 . S
C959 C338 1.257 . S
C975 C309 1.243 . S
C977 C351 1.233 . S
C993 C8 1.449 . S
C995 C138 1.451 . S
C1011 C151 1.432 . S
C1013 C18 1.434 . S
C1029 C34 1.449 . S
C1031 C112 1.451 . S
C1047 C125 1.432 . S
C1049 C44 1.434 . S
C1065 C190 1.451 . S
C1067 C60 1.449 . S
C1083 C203 1.432 . S
C1085 C70 1.434 . S
C1101 C164 1.451 . S
C1103 C86 1.449 . S
C1119 C96 1.434 . S
C1121 C177 1.432 . S
C1137 C346 1.451 . S
C1139 C216 1.449 . S
C1155 C226 1.434 . S
C1157 C359 1.432 . S
C1173 C320 1.451 . S
C1175 C242 1.449 . S
C1191 C333 1.432 . S
C1193 C252 1.434 . S
C1209 C268 1.449 . S
C1211 C398 1.451 . S
C1227 C278 1.434 . S
C1229 C411 1.432 . S
C1245 C372 1.451 . S
C1247 C294 1.449 . S
C1263 C385 1.432 . S
C1265 C304 1.434 . S
C1281 C299 1.240 . S
C1283 C10 1.231 . S
C1299 C270 1.231 . S
C1301 C13 1.240 . S
C1317 C273 1.240 . S
C1319 C36 1.231 . S
C1335 C296 1.231 . S
C1337 C39 1.240 . S
C1353 C221 1.240 . S
C1355 C62 1.231 . S
C1371 C65 1.240 . S
C1373 C244 1.231 . S
C1389 C88 1.231 . S
C1391 C247 1.240 . S
C1407 C91 1.240 . S
C1409 C218 1.231 . S
C1425 C114 1.395 . S
C1427 C413 1.386 . S
C1443 C374 1.395 . S
C1445 C127 1.386 . S
C1461 C140 1.395 . S
C1463 C387 1.386 . S
C1479 C153 1.386 . S
C1481 C400 1.395 . S
C1497 C335 1.386 . S
C1499 C166 1.395 . S
C1515 C348 1.395 . S
C1517 C179 1.386 . S
C1533 C192 1.395 . S
C1535 C361 1.386 . S
C1551 C205 1.386 . S
C1553 C322 1.395 . S
