# Generated by pormake.
# Topology uov, (4)-cn, num edge types: 1
# Building blocks:
#     Node 0, Type 0, BuildingBlock: AZAVOO_clean_sbu_0, # of connection points: 4
#     Node 1, Type 0, BuildingBlock: AZAVOO_clean_sbu_0, # of connection points: 4
#     Node 2, Type 0, BuildingBlock: AZAVOO_clean_sbu_0, # of connection points: 4
#     Node 3, Type 0, BuildingBlock: AZAVOO_clean_sbu_0, # of connection points: 4
#     Node 4, Type 0, BuildingBlock: AZAVOO_clean_sbu_0, # of connection points: 4
#     Node 5, Type 0, BuildingBlock: AZAVOO_clean_sbu_0, # of connection points: 4
#     Node 6, Type 0, BuildingBlock: AZAVOO_clean_sbu_0, # of connection points: 4
#     Node 7, Type 0, BuildingBlock: AZAVOO_clean_sbu_0, # of connection points: 4
#     Edge 8, Type (0, 0), BuildingBlock: CIFDUS_clean_linker_0, # of connection points: 2
#     Edge 9, Type (0, 0), BuildingBlock: CIFDUS_clean_linker_0, # of connection points: 2
#     Edge 10, Type (0, 0), BuildingBlock: CIFDUS_clean_linker_0, # of connection points: 2
#     Edge 11, Type (0, 0), BuildingBlock: CIFDUS_clean_linker_0, # of connection points: 2
#     Edge 12, Type (0, 0), BuildingBlock: CIFDUS_clean_linker_0, # of connection points: 2
#     Edge 13, Type (0, 0), BuildingBlock: CIFDUS_clean_linker_0, # of connection points: 2
#     Edge 14, Type (0, 0), BuildingBlock: CIFDUS_clean_linker_0, # of connection points: 2
#     Edge 15, Type (0, 0), BuildingBlock: CIFDUS_clean_linker_0, # of connection points: 2
#     Edge 16, Type (0, 0), BuildingBlock: CIFDUS_clean_linker_0, # of connection points: 2
#     Edge 17, Type (0, 0), BuildingBlock: CIFDUS_clean_linker_0, # of connection points: 2
#     Edge 18, Type (0, 0), BuildingBlock: CIFDUS_clean_linker_0, # of connection points: 2
#     Edge 19, Type (0, 0), BuildingBlock: CIFDUS_clean_linker_0, # of connection points: 2
#     Edge 20, Type (0, 0), BuildingBlock: CIFDUS_clean_linker_0, # of connection points: 2
#     Edge 21, Type (0, 0), BuildingBlock: CIFDUS_clean_linker_0, # of connection points: 2
#     Edge 22, Type (0, 0), BuildingBlock: CIFDUS_clean_linker_0, # of connection points: 2
#     Edge 23, Type (0, 0), BuildingBlock: CIFDUS_clean_linker_0, # of connection points: 2
# Relax obj value: 0.234
# Max RMSD: 0.250
# Mean RMSD: 0.233
data_MOF--net-uov--node1-AZAVOO_clean_sbu_0--edge1-CIFDUS_clean_linker_0
_symmetry_space_group_name_H-M    P1
_symmetry_Int_Tables_number       1
_symmetry_cell_setting            triclinic
loop_
_symmetry_equiv_pos_as_xyz
'x, y, z'
_cell_length_a     26.410655
_cell_length_b     25.577384
_cell_length_c     37.582505
_cell_angle_alpha  90.181902
_cell_angle_beta   90.033302
_cell_angle_gamma 93.38233
loop_
_atom_site_label
_atom_site_type_symbol
_atom_site_fract_x
_atom_site_fract_y
_atom_site_fract_z
_atom_type_partial_charge
Mg0 Mg 0.95507 0.23601 0.63265 0.0
O1 O 0.00889 0.22401 0.58539 0.0
O2 O 0.96621 0.24734 0.53695 0.0
Mg3 Mg 0.88732 0.27183 0.55236 0.0
C4 C 0.00586 0.23082 0.55172 0.0
C5 C 0.04352 0.19218 0.67932 0.0
O6 O 0.037 0.15111 0.65838 0.0
O7 O 0.97176 0.32364 0.62714 0.0
O8 O 0.92467 0.34464 0.58043 0.0
O9 O 0.92346 0.15396 0.62783 0.0
O10 O 0.89365 0.22041 0.59865 0.0
C11 C 0.95486 0.35736 0.606 0.0
C12 C 0.89338 0.17048 0.60367 0.0
O13 O 0.01804 0.23201 0.67373 0.0
Mg14 Mg 0.25209 0.07571 0.3751 0.0
O15 O 0.23517 0.02407 0.42401 0.0
O16 O 0.25865 0.07024 0.47254 0.0
Mg17 Mg 0.29004 0.15131 0.45472 0.0
C18 C 0.23998 0.02836 0.45774 0.0
C19 C 0.20201 0.97423 0.34318 0.0
O20 O 0.17178 0.98306 0.37001 0.0
O21 O 0.33514 0.0617 0.38214 0.0
O22 O 0.35796 0.11333 0.42835 0.0
O23 O 0.17548 0.10563 0.37793 0.0
O24 O 0.24172 0.14104 0.40723 0.0
C25 C 0.36849 0.08144 0.40356 0.0
C26 C 0.19337 0.13843 0.4017 0.0
O27 O 0.24069 0.00527 0.33809 0.0
Mg28 Mg 0.02689 0.7864 0.62407 0.0
O29 O 0.98403 0.8008 0.5727 0.0
O30 O 0.02881 0.77252 0.52671 0.0
Mg31 Mg 0.10239 0.7422 0.54911 0.0
C32 C 0.98958 0.79281 0.53942 0.0
C33 C 0.94191 0.84987 0.65484 0.0
O34 O 0.96559 0.88385 0.6336 0.0
O35 O 0.00296 0.69999 0.61845 0.0
O36 O 0.05557 0.67402 0.57597 0.0
O37 O 0.06745 0.86441 0.6214 0.0
O38 O 0.09502 0.79388 0.59544 0.0
C39 C 0.02092 0.66436 0.59918 0.0
C40 C 0.09952 0.8439 0.60036 0.0
O41 O 0.95654 0.80338 0.65628 0.0
Mg42 Mg 0.74639 0.95402 0.36667 0.0
O43 O 0.76592 0.00019 0.41789 0.0
O44 O 0.74369 0.94835 0.46391 0.0
Mg45 Mg 0.71085 0.86977 0.44206 0.0
C46 C 0.76231 0.99171 0.45134 0.0
C47 C 0.73989 0.02849 0.30216 0.0
O48 O 0.7131 0.98723 0.29014 0.0
O49 O 0.66371 0.96755 0.37614 0.0
O50 O 0.64223 0.91076 0.4195 0.0
O51 O 0.82317 0.92405 0.36609 0.0
O52 O 0.75791 0.88525 0.39446 0.0
C53 C 0.631 0.94547 0.39693 0.0
C54 C 0.80617 0.88885 0.3884 0.0
O55 O 0.75664 0.02802 0.33383 0.0
Mg56 Mg 0.99057 0.22684 0.12719 0.0
O57 O 0.94701 0.19061 0.07902 0.0
O58 O 0.9907 0.21124 0.02985 0.0
Mg59 Mg 0.06224 0.26088 0.04627 0.0
C60 C 0.95261 0.18825 0.04532 0.0
C61 C 0.91838 0.22585 0.19272 0.0
O62 O 0.95452 0.25916 0.20429 0.0
O63 O 0.96809 0.31036 0.11526 0.0
O64 O 0.01852 0.32798 0.0685 0.0
O65 O 0.03857 0.15613 0.13015 0.0
O66 O 0.05841 0.22841 0.10023 0.0
C67 C 0.98721 0.34224 0.09201 0.0
C68 C 0.07011 0.18269 0.10982 0.0
O69 O 0.92146 0.20737 0.16145 0.0
Mg70 Mg 0.28124 0.09588 0.91145 0.0
O71 O 0.22447 0.03046 0.9321 0.0
O72 O 0.15848 0.0712 0.95415 0.0
Mg73 Mg 0.16872 0.15885 0.94254 0.0
C74 C 0.18188 0.02969 0.94838 0.0
C75 C 0.35 0.00395 0.90664 0.0
O76 O 0.33056 0.99758 0.93862 0.0
O77 O 0.23495 0.10353 0.86052 0.0
O78 O 0.16942 0.14532 0.88202 0.0
O79 O 0.31115 0.10358 0.96707 0.0
O80 O 0.25018 0.14969 0.94489 0.0
C81 C 0.19336 0.12576 0.8561 0.0
C82 C 0.27624 0.13623 0.9719 0.0
O83 O 0.33265 0.03828 0.88641 0.0
Mg84 Mg 0.02762 0.73013 0.14171 0.0
O85 O 0.06576 0.78446 0.09741 0.0
O86 O 0.03203 0.76385 0.04376 0.0
Mg87 Mg 0.99605 0.68255 0.05224 0.0
C88 C 0.05995 0.79359 0.06404 0.0
C89 C 0.06416 0.76186 0.21604 0.0
O90 O 0.02249 0.73267 0.22225 0.0
O91 O 0.07612 0.65857 0.13564 0.0
O92 O 0.07025 0.6763 0.08004 0.0
O93 O 0.96302 0.78092 0.13887 0.0
O94 O 0.9684 0.70987 0.10537 0.0
C95 C 0.07514 0.64223 0.10377 0.0
C96 C 0.94518 0.75145 0.11315 0.0
O97 O 0.07908 0.7677 0.1841 0.0
Mg98 Mg 0.73023 0.87597 0.90447 0.0
O99 O 0.77904 0.95127 0.92113 0.0
O100 O 0.85938 0.92759 0.919 0.0
Mg101 Mg 0.86268 0.84138 0.90419 0.0
C102 C 0.82688 0.96169 0.92459 0.0
C103 C 0.6218 0.88651 0.90954 0.0
O104 O 0.63345 0.84062 0.92169 0.0
O105 O 0.75272 0.88438 0.84579 0.0
O106 O 0.83224 0.8584 0.84884 0.0
O107 O 0.72689 0.8523 0.96149 0.0
O108 O 0.78494 0.82878 0.9231 0.0
C109 C 0.79454 0.8736 0.83122 0.0
C110 C 0.76766 0.82832 0.95503 0.0
O111 O 0.65725 0.91763 0.89776 0.0
H112 H 0.07303 0.57844 0.6106 0.0
H113 H 0.92201 0.6297 0.59582 0.0
H114 H 0.88745 0.53857 0.59682 0.0
H115 H 0.90122 0.44397 0.59926 0.0
H116 H 0.05135 0.39361 0.61987 0.0
H117 H 0.08547 0.48465 0.6196 0.0
C118 C 0.03255 0.56941 0.60787 0.0
C119 C -2e-05 0.61014 0.60281 0.0
C120 C 0.01298 0.51725 0.60951 0.0
C121 C 0.94756 0.59859 0.59976 0.0
C122 C 0.92792 0.54664 0.60022 0.0
C123 C 0.9413 0.45317 0.60397 0.0
C124 C 0.9739 0.41246 0.60929 0.0
C125 C 0.96036 0.50561 0.60468 0.0
C126 C 0.02562 0.42453 0.61583 0.0
C127 C 0.04515 0.47647 0.6155 0.0
H128 H 0.60205 0.04469 0.39651 0.0
H129 H 0.54377 0.88373 0.39636 0.0
H130 H 0.45666 0.91194 0.39587 0.0
H131 H 0.39736 0.98268 0.39706 0.0
H132 H 0.45573 0.14324 0.40463 0.0
H133 H 0.54278 0.11529 0.40063 0.0
C134 C 0.57012 0.01598 0.39613 0.0
C135 C 0.57882 0.96237 0.39607 0.0
C136 C 0.52044 0.0325 0.39729 0.0
C137 C 0.53757 0.92523 0.39633 0.0
C138 C 0.48795 0.94134 0.39603 0.0
C139 C 0.42929 0.01139 0.39759 0.0
C140 C 0.42063 0.06482 0.40071 0.0
C141 C 0.47897 0.99486 0.3967 0.0
C142 C 0.4619 0.10188 0.40215 0.0
C143 C 0.51148 0.08593 0.39984 0.0
H144 H 0.01082 0.41833 0.04404 0.0
H145 H 0.95945 0.39494 0.15211 0.0
H146 H 0.98164 0.48708 0.1656 0.0
H147 H 0.02606 0.57123 0.14857 0.0
H148 H 0.07964 0.59209 0.04075 0.0
H149 H 0.04744 0.50351 0.02563 0.0
C150 C 0.00338 0.43355 0.07039 0.0
C151 C 0.98413 0.39948 0.09711 0.0
C152 C 0.01825 0.48576 0.07834 0.0
C153 C 0.97412 0.42017 0.13095 0.0
C154 C 0.98761 0.47273 0.13885 0.0
C155 C 0.03084 0.55627 0.12183 0.0
C156 C 0.05609 0.58786 0.09594 0.0
C157 C 0.01173 0.50526 0.11316 0.0
C158 C 0.0609 0.56832 0.06121 0.0
C159 C 0.04222 0.51781 0.05248 0.0
H160 H 0.39319 0.92509 0.94087 0.0
H161 H 0.41667 0.03279 0.85346 0.0
H162 H 0.50344 0.00623 0.84644 0.0
H163 H 0.5749 0.95678 0.86818 0.0
H164 H 0.54943 0.84772 0.95462 0.0
H165 H 0.46156 0.87085 0.95917 0.0
C166 C 0.41704 0.94224 0.91995 0.0
C167 C 0.39863 0.98113 0.89799 0.0
C168 C 0.46692 0.92717 0.91625 0.0
C169 C 0.42986 0.00266 0.87077 0.0
C170 C 0.47968 0.98784 0.86691 0.0
C171 C 0.55 0.93823 0.88797 0.0
C172 C 0.56869 0.90111 0.91128 0.0
C173 C 0.49903 0.95104 0.89007 0.0
C174 C 0.53593 0.87658 0.93642 0.0
C175 C 0.48564 0.88969 0.93905 0.0
H176 H 0.20088 0.15695 0.47301 0.0
H177 H 0.10504 0.17766 0.38185 0.0
H178 H 0.03973 0.21136 0.4202 0.0
H179 H 0.00764 0.2287 0.47956 0.0
H180 H 0.1007 0.20297 0.57168 0.0
H181 H 0.16948 0.17737 0.53297 0.0
C182 C 0.16625 0.16998 0.46152 0.0
C183 C 0.15793 0.16544 0.42465 0.0
C184 C 0.12815 0.18765 0.48391 0.0
C185 C 0.11225 0.1811 0.41017 0.0
C186 C 0.07488 0.20013 0.43208 0.0
C187 C 0.04306 0.21795 0.49132 0.0
C188 C 0.0488 0.21767 0.52856 0.0
C189 C 0.08202 0.20255 0.46902 0.0
C190 C 0.09505 0.20336 0.54314 0.0
C191 C 0.13447 0.18878 0.52101 0.0
H192 H 0.22722 0.02956 0.52939 0.0
H193 H 0.20741 0.929 0.4373 0.0
H194 H 0.16706 0.86016 0.4743 0.0
H195 H 0.13062 0.83171 0.53187 0.0
H196 H 0.14617 0.93485 0.62267 0.0
H197 H 0.19547 -0.00064 0.58717 0.0
C198 C 0.21473 0.99238 0.5174 0.0
C199 C 0.22013 0.98469 0.48056 0.0
C200 C 0.19067 0.95342 0.53863 0.0
C201 C 0.20347 0.93621 0.46555 0.0
C202 C 0.18037 0.89676 0.48669 0.0
C203 C 0.1459 0.86768 0.54404 0.0
C204 C 0.13516 0.87845 0.57984 0.0
C205 C 0.17288 0.90531 0.52315 0.0
C206 C 0.15406 0.92583 0.59511 0.0
C207 C 0.1821 0.96275 0.57482 0.0
H208 H 0.79667 0.86258 0.45802 0.0
H209 H 0.8985 0.85724 0.36874 0.0
H210 H 0.96407 0.82417 0.40732 0.0
H211 H 0.99399 0.80275 0.46726 0.0
H212 H 0.89287 0.81457 0.55686 0.0
H213 H 0.8254 0.83948 0.51728 0.0
C214 C 0.8326 0.85304 0.44678 0.0
C215 C 0.84245 0.86166 0.41053 0.0
C216 C 0.87055 0.83604 0.46933 0.0
C217 C 0.89 0.85052 0.39661 0.0
C218 C 0.92753 0.83191 0.41867 0.0
C219 C 0.95709 0.81041 0.47809 0.0
C220 C 0.94863 0.80692 0.515 0.0
C221 C 0.91853 0.82553 0.45523 0.0
C222 C 0.90064 0.81732 0.52861 0.0
C223 C 0.86189 0.83137 0.50598 0.0
H224 H 0.78806 0.97919 0.52062 0.0
H225 H 0.78247 0.09596 0.43823 0.0
H226 H 0.81937 0.16248 0.47892 0.0
H227 H 0.85658 0.18636 0.53691 0.0
H228 H 0.8663 0.06868 0.61817 0.0
H229 H 0.82405 0.00355 0.57889 0.0
C230 C 0.79441 0.0193 0.51163 0.0
C231 C 0.7824 0.03257 0.47644 0.0
C232 C 0.81646 0.05712 0.53493 0.0
C233 C 0.79151 0.08462 0.46514 0.0
C234 C 0.81255 0.12271 0.4884 0.0
C235 C 0.84891 0.1468 0.54627 0.0
C236 C 0.86442 0.13259 0.58051 0.0
C237 C 0.82562 0.10929 0.52325 0.0
C238 C 0.85481 0.08066 0.5919 0.0
C239 C 0.83068 0.04337 0.56946 0.0
H240 H 0.7962 0.01439 0.98307 0.0
H241 H 0.90424 0.02253 0.89713 0.0
H242 H 0.94946 0.09805 0.92506 0.0
H243 H 0.96426 0.15462 0.9771 0.0
H244 H 0.86069 0.1423 0.06587 0.0
H245 H 0.80779 0.07617 0.03376 0.0
C246 C 0.82877 0.0338 0.97007 0.0
C247 C 0.84663 0.01341 0.93792 0.0
C248 C 0.85594 0.07595 0.98714 0.0
C249 C 0.88966 0.03789 0.92174 0.0
C250 C 0.9157 0.08083 0.93783 0.0
C251 C 0.92968 0.13823 0.98928 0.0
C252 C 0.91681 0.15342 0.02403 0.0
C253 C 0.90013 0.09915 0.97105 0.0
C254 C 0.87185 0.13128 0.03928 0.0
C255 C 0.84152 0.09333 0.02092 0.0
H256 H 0.23006 0.07067 0.01938 0.0
H257 H 0.27923 0.23203 0.00136 0.0
H258 H 0.22443 0.25969 0.04934 0.0
H259 H 0.1512 0.23952 0.08666 0.0
H260 H 0.09377 0.07962 0.10087 0.0
H261 H 0.16476 0.0492 0.06562 0.0
C262 C 0.23013 0.11156 0.02715 0.0
C263 C 0.25854 0.14953 0.00739 0.0
C264 C 0.19629 0.12728 0.0534 0.0
C265 C 0.25789 0.20248 0.01672 0.0
C266 C 0.22619 0.21822 0.04378 0.0
C267 C 0.15432 0.19787 0.08225 0.0
C268 C 0.1166 0.16187 0.0952 0.0
C269 C 0.19326 0.18123 0.06073 0.0
C270 C 0.12196 0.10805 0.0905 0.0
C271 C 0.16215 0.0908 0.07005 0.0
H272 H 0.1102 0.80265 0.00134 0.0
H273 H 0.06208 0.89215 0.09127 0.0
H274 H 0.09254 0.97354 0.06206 0.0
H275 H 0.13062 0.01902 0.01016 0.0
H276 H 0.18845 0.92956 0.92343 0.0
H277 H 0.15585 0.84808 0.95176 0.0
C278 C 0.10697 0.84004 0.0146 0.0
C279 C 0.08395 0.84169 0.04832 0.0
C280 C 0.12576 0.88643 -0.00198 0.0
C281 C 0.08013 0.89009 0.06546 0.0
C282 C 0.09718 0.93654 0.04865 0.0
C283 C 0.13623 0.98165 -0.00244 0.0
C284 C 0.16142 0.98023 0.96462 0.0
C285 C 0.11961 0.93516 0.01481 0.0
C286 C 0.16888 0.93158 0.94867 0.0
C287 C 0.1504 0.88509 0.96492 0.0
H288 H 0.78451 0.86478 0.02192 0.0
H289 H 0.81435 0.73793 0.95054 0.0
H290 H 0.8672 0.69915 0.99554 0.0
H291 H 0.90893 0.70459 0.05305 0.0
H292 H 0.8887 0.83685 0.12209 0.0
H293 H 0.82686 0.8698 0.08055 0.0
C294 C 0.80215 0.82831 0.01661 0.0
C295 C 0.79579 0.80388 0.98334 0.0
C296 C 0.83413 0.80747 0.04204 0.0
C297 C 0.81915 0.75719 0.97615 0.0
C298 C 0.84923 0.73509 0.00178 0.0
C299 C 0.89133 0.74073 0.05905 0.0
C300 C 0.90414 0.76871 0.09023 0.0
C301 C 0.85775 0.76047 0.03449 0.0
C302 C 0.87981 0.81482 0.09801 0.0
C303 C 0.84456 0.83374 0.07426 0.0
H304 H 0.10665 0.1162 0.69919 0.0
H305 H 0.04916 0.26271 0.73372 0.0
H306 H 0.09114 0.25498 0.79086 0.0
H307 H 0.13987 0.20485 0.83237 0.0
H308 H 0.20121 0.06031 0.79856 0.0
H309 H 0.16214 0.06909 0.73975 0.0
C310 C 0.10373 0.14665 0.7191 0.0
C311 C 0.0743 0.1897 0.71219 0.0
C312 C 0.12827 0.14215 0.75213 0.0
C313 C 0.07134 0.22905 0.73822 0.0
C314 C 0.09519 0.22462 0.77105 0.0
C315 C 0.14472 0.17522 0.81213 0.0
C316 C 0.17265 0.1316 0.81988 0.0
C317 C 0.12294 0.18097 0.77849 0.0
C318 C 0.17962 0.09414 0.79319 0.0
C319 C 0.15724 0.09913 0.75964 0.0
H320 H 0.1497 0.82663 0.2122 0.0
H321 H 0.03521 0.76572 0.28556 0.0
H322 H 0.07042 0.82345 0.3322 0.0
H323 H 0.12906 0.89611 0.35071 0.0
H324 H 0.24338 0.95785 0.27761 0.0
H325 H 0.21318 0.89446 0.23246 0.0
C326 C 0.13277 0.82558 0.23849 0.0
C327 C 0.08949 0.79233 0.24521 0.0
C328 C 0.15299 0.8592 0.2652 0.0
C329 C 0.06832 0.79114 0.27954 0.0
C330 C 0.08836 0.82424 0.30625 0.0
C331 C 0.14768 0.89546 0.325 0.0
C332 C 0.18796 0.93209 0.31738 0.0
C333 C 0.12994 0.85923 0.29914 0.0
C334 C 0.21212 0.93023 0.28412 0.0
C335 C 0.19477 0.89411 0.25823 0.0
H336 H 0.86248 0.79428 0.68511 0.0
H337 H 0.94173 0.94661 0.68457 0.0
H338 H 0.89453 0.97235 0.73695 0.0
H339 H 0.84215 0.94542 0.78876 0.0
H340 H 0.76123 0.79435 0.78861 0.0
H341 H 0.79637 0.77454 0.7302 0.0
C342 C 0.86849 0.83344 0.69608 0.0
C343 C 0.90613 0.8681 0.6816 0.0
C344 C 0.84088 0.84817 0.72603 0.0
C345 C 0.91313 0.9191 0.69549 0.0
C346 C 0.8863 0.93382 0.72552 0.0
C347 C 0.83053 0.90927 0.77505 0.0
C348 C 0.79906 0.87148 0.79246 0.0
C349 C 0.85156 0.89794 0.74182 0.0
C350 C 0.78482 0.82422 0.77514 0.0
C351 C 0.80549 0.81262 0.74205 0.0
H352 H 0.79752 0.11704 0.31827 0.0
H353 H 0.72501 0.03325 0.23032 0.0
H354 H 0.76958 0.09215 0.18836 0.0
H355 H 0.83766 0.15918 0.17662 0.0
H356 H 0.91196 0.24134 0.26453 0.0
H357 H 0.8576 0.19175 0.30647 0.0
C358 C 0.79079 0.11215 0.28994 0.0
C359 C 0.75875 0.07013 0.27745 0.0
C360 C 0.81724 0.14554 0.26592 0.0
C361 C 0.74988 0.06489 0.24069 0.0
C362 C 0.77552 0.09844 0.21663 0.0
C363 C 0.84148 0.16684 0.20493 0.0
C364 C 0.87951 0.20316 0.21744 0.0
C365 C 0.81069 0.13761 0.22893 0.0
C366 C 0.88337 0.21322 0.25417 0.0
C367 C 0.8524 0.18473 0.27821 0.0
loop_
_geom_bond_atom_site_label_1
_geom_bond_atom_site_label_2
_geom_bond_distance
_geom_bond_site_symmetry_2
_ccdc_geom_bond_type
Mg0 O1 2.028 . S
Mg0 O7 1.986 . S
Mg0 O9 2.114 1_455 S
Mg0 O10 2.251 1_455 S
Mg0 O13 2.010 . S
O1 Mg0 2.028 . S
O1 C4 1.250 . S
O2 Mg3 2.041 . S
O2 C4 1.248 . S
Mg3 O2 2.041 . S
Mg3 O8 2.035 . S
Mg3 O10 2.072 1_455 S
C4 O1 1.250 . S
C4 O2 1.248 . S
C5 O6 1.264 . S
C5 O13 1.249 . S
O6 C5 1.264 . S
O7 Mg0 1.986 . S
O7 C11 1.246 . S
O8 Mg3 2.035 . S
O8 C11 1.259 . S
O9 Mg0 2.114 1_655 S
O9 C12 1.252 . S
O10 Mg0 2.251 1_655 S
O10 Mg3 2.072 1_655 S
O10 C12 1.273 . S
C11 O7 1.246 . S
C11 O8 1.259 . S
C12 O9 1.252 . S
C12 O10 1.273 . S
O13 Mg0 2.010 . S
O13 C5 1.249 . S
Mg14 O15 2.028 1_545 S
Mg14 O21 1.986 1_545 S
Mg14 O23 2.114 . S
Mg14 O24 2.251 . S
Mg14 O27 2.010 1_545 S
O15 Mg14 2.028 1_565 S
O15 C18 1.250 . S
O16 Mg17 2.028 1_565 S
O16 C18 1.248 . S
Mg17 O16 2.028 1_545 S
Mg17 O22 2.032 1_545 S
Mg17 O24 2.079 . S
C18 O15 1.250 . S
C18 O16 1.248 . S
C19 O20 1.264 . S
C19 O27 1.249 . S
O20 C19 1.264 . S
O21 Mg14 1.986 1_565 S
O21 C25 1.246 . S
O22 Mg17 2.032 1_565 S
O22 C25 1.259 . S
O23 Mg14 2.114 . S
O23 C26 1.252 . S
O24 Mg14 2.251 . S
O24 Mg17 2.079 . S
O24 C26 1.273 . S
C25 O21 1.246 . S
C25 O22 1.259 . S
C26 O23 1.252 . S
C26 O24 1.273 . S
O27 Mg14 2.010 1_565 S
O27 C19 1.249 . S
Mg28 O29 2.028 . S
Mg28 O35 1.986 . S
Mg28 O37 2.114 1_655 S
Mg28 O38 2.251 1_655 S
Mg28 O41 2.010 . S
O29 Mg28 2.028 . S
O29 C32 1.250 . S
O30 Mg31 2.041 . S
O30 C32 1.248 . S
Mg31 O30 2.041 . S
Mg31 O36 2.035 . S
Mg31 O38 2.072 1_655 S
C32 O29 1.250 . S
C32 O30 1.248 . S
C33 O34 1.264 . S
C33 O41 1.249 . S
O34 C33 1.264 . S
O35 Mg28 1.986 . S
O35 C39 1.246 . S
O36 Mg31 2.035 . S
O36 C39 1.259 . S
O37 Mg28 2.114 1_455 S
O37 C40 1.252 . S
O38 Mg28 2.251 1_455 S
O38 Mg31 2.072 1_455 S
O38 C40 1.273 . S
C39 O35 1.246 . S
C39 O36 1.259 . S
C40 O37 1.252 . S
C40 O38 1.273 . S
O41 Mg28 2.010 . S
O41 C33 1.249 . S
Mg42 O43 2.028 1_565 S
Mg42 O49 1.986 1_565 S
Mg42 O51 2.114 . S
Mg42 O52 2.251 . S
Mg42 O55 2.010 1_565 S
O43 Mg42 2.028 1_545 S
O43 C46 1.250 . S
O44 Mg45 2.028 1_545 S
O44 C46 1.248 . S
Mg45 O44 2.028 1_565 S
Mg45 O50 2.032 1_565 S
Mg45 O52 2.079 . S
C46 O43 1.250 . S
C46 O44 1.248 . S
C47 O48 1.264 . S
C47 O55 1.249 . S
O48 C47 1.264 . S
O49 Mg42 1.986 1_545 S
O49 C53 1.246 . S
O50 Mg45 2.032 1_545 S
O50 C53 1.259 . S
O51 Mg42 2.114 . S
O51 C54 1.252 . S
O52 Mg42 2.251 . S
O52 Mg45 2.079 . S
O52 C54 1.273 . S
C53 O49 1.246 . S
C53 O50 1.259 . S
C54 O51 1.252 . S
C54 O52 1.273 . S
O55 Mg42 2.010 1_545 S
O55 C47 1.249 . S
Mg56 O57 2.028 . S
Mg56 O63 1.986 . S
Mg56 O65 2.114 1_655 S
Mg56 O66 2.251 1_655 S
Mg56 O69 2.010 . S
O57 Mg56 2.028 . S
O57 C60 1.250 . S
O58 Mg59 2.028 . S
O58 C60 1.248 . S
Mg59 O58 2.028 . S
Mg59 O64 2.032 . S
Mg59 O66 2.079 1_655 S
C60 O57 1.250 . S
C60 O58 1.248 . S
C61 O62 1.264 . S
C61 O69 1.249 . S
O62 C61 1.264 . S
O63 Mg56 1.986 . S
O63 C67 1.246 . S
O64 Mg59 2.032 . S
O64 C67 1.259 . S
O65 Mg56 2.114 1_455 S
O65 C68 1.252 . S
O66 Mg56 2.251 1_455 S
O66 Mg59 2.079 1_455 S
O66 C68 1.273 . S
C67 O63 1.246 . S
C67 O64 1.259 . S
C68 O65 1.252 . S
C68 O66 1.273 . S
O69 Mg56 2.010 . S
O69 C61 1.249 . S
Mg70 O71 2.028 1_545 S
Mg70 O77 1.986 . S
Mg70 O79 2.114 . S
Mg70 O80 2.251 . S
Mg70 O83 2.010 . S
O71 Mg70 2.028 1_565 S
O71 C74 1.250 . S
O72 Mg73 2.028 1_565 S
O72 C74 1.248 . S
Mg73 O72 2.028 1_545 S
Mg73 O78 2.032 . S
Mg73 O80 2.079 . S
C74 O71 1.250 . S
C74 O72 1.248 . S
C75 O76 1.264 . S
C75 O83 1.249 . S
O76 C75 1.264 . S
O77 Mg70 1.986 . S
O77 C81 1.246 . S
O78 Mg73 2.032 . S
O78 C81 1.259 . S
O79 Mg70 2.114 . S
O79 C82 1.252 . S
O80 Mg70 2.251 . S
O80 Mg73 2.079 . S
O80 C82 1.273 . S
C81 O77 1.246 . S
C81 O78 1.259 . S
C82 O79 1.252 . S
C82 O80 1.273 . S
O83 Mg70 2.010 . S
O83 C75 1.249 . S
Mg84 O85 2.028 . S
Mg84 O91 1.986 . S
Mg84 O93 2.114 1_455 S
Mg84 O94 2.251 1_455 S
Mg84 O97 2.010 . S
O85 Mg84 2.028 . S
O85 C88 1.250 . S
O86 Mg87 2.028 . S
O86 C88 1.248 . S
Mg87 O86 2.028 . S
Mg87 O92 2.032 . S
Mg87 O94 2.079 1_455 S
C88 O85 1.250 . S
C88 O86 1.248 . S
C89 O90 1.264 . S
C89 O97 1.249 . S
O90 C89 1.264 . S
O91 Mg84 1.986 . S
O91 C95 1.246 . S
O92 Mg87 2.032 . S
O92 C95 1.259 . S
O93 Mg84 2.114 1_655 S
O93 C96 1.252 . S
O94 Mg84 2.251 1_655 S
O94 Mg87 2.079 1_655 S
O94 C96 1.273 . S
C95 O91 1.246 . S
C95 O92 1.259 . S
C96 O93 1.252 . S
C96 O94 1.273 . S
O97 Mg84 2.010 . S
O97 C89 1.249 . S
Mg98 O99 2.028 1_565 S
Mg98 O105 1.986 . S
Mg98 O107 2.114 . S
Mg98 O108 2.251 . S
Mg98 O111 2.010 . S
O99 Mg98 2.028 1_545 S
O99 C102 1.250 . S
O100 Mg101 2.028 1_545 S
O100 C102 1.248 . S
Mg101 O100 2.028 1_565 S
Mg101 O106 2.032 . S
Mg101 O108 2.079 . S
C102 O99 1.250 . S
C102 O100 1.248 . S
C103 O104 1.264 . S
C103 O111 1.249 . S
O104 C103 1.264 . S
O105 Mg98 1.986 . S
O105 C109 1.246 . S
O106 Mg101 2.032 . S
O106 C109 1.259 . S
O107 Mg98 2.114 . S
O107 C110 1.252 . S
O108 Mg98 2.251 . S
O108 Mg101 2.079 . S
O108 C110 1.273 . S
C109 O105 1.246 . S
C109 O106 1.259 . S
C110 O107 1.252 . S
C110 O108 1.273 . S
O111 Mg98 2.010 . S
O111 C103 1.249 . S
H112 C118 0.930 . S
H113 C121 0.930 . S
H114 C122 0.930 . S
H115 C123 0.930 . S
H116 C126 0.930 . S
H117 C127 0.930 . S
C118 H112 0.930 . S
C118 C119 1.355 1_455 S
C118 C120 1.415 . S
C119 C118 1.355 1_655 S
C119 C121 1.419 . S
C120 C118 1.415 . S
C120 C125 1.425 1_455 S
C120 C127 1.409 . S
C121 H113 0.930 . S
C121 C119 1.419 . S
C121 C122 1.362 . S
C122 H114 0.930 . S
C122 C121 1.362 . S
C122 C125 1.409 . S
C123 H115 0.930 . S
C123 C124 1.355 1_655 S
C123 C125 1.415 . S
C124 C123 1.355 1_455 S
C124 C126 1.419 . S
C125 C120 1.425 1_655 S
C125 C122 1.409 . S
C125 C123 1.415 . S
C126 H116 0.930 . S
C126 C124 1.419 . S
C126 C127 1.362 . S
C127 H117 0.930 . S
C127 C120 1.409 . S
C127 C126 1.362 . S
H128 C134 0.930 . S
H129 C137 0.930 . S
H130 C138 0.930 . S
H131 C139 0.930 . S
H132 C142 0.930 . S
H133 C143 0.930 . S
C134 H128 0.930 . S
C134 C135 1.355 . S
C134 C136 1.415 . S
C135 C134 1.355 . S
C135 C137 1.419 1_545 S
C136 C134 1.415 . S
C136 C141 1.425 1_545 S
C136 C143 1.409 . S
C137 H129 0.930 . S
C137 C135 1.419 1_565 S
C137 C138 1.362 . S
C138 H130 0.930 . S
C138 C137 1.362 . S
C138 C141 1.409 . S
C139 H131 0.930 . S
C139 C140 1.355 . S
C139 C141 1.415 . S
C140 C139 1.355 . S
C140 C142 1.419 1_565 S
C141 C136 1.425 1_565 S
C141 C138 1.409 . S
C141 C139 1.415 . S
C142 H132 0.930 . S
C142 C140 1.419 1_545 S
C142 C143 1.362 . S
C143 H133 0.930 . S
C143 C136 1.409 . S
C143 C142 1.362 . S
H144 C150 0.930 . S
H145 C153 0.930 . S
H146 C154 0.930 . S
H147 C155 0.930 . S
H148 C158 0.930 . S
H149 C159 0.930 . S
C150 H144 0.930 . S
C150 C151 1.355 . S
C150 C152 1.415 . S
C151 C150 1.355 . S
C151 C153 1.419 1_655 S
C152 C150 1.415 . S
C152 C157 1.425 1_655 S
C152 C159 1.409 . S
C153 H145 0.930 . S
C153 C151 1.419 1_455 S
C153 C154 1.362 . S
C154 H146 0.930 . S
C154 C153 1.362 . S
C154 C157 1.409 . S
C155 H147 0.930 . S
C155 C156 1.355 . S
C155 C157 1.415 . S
C156 C155 1.355 . S
C156 C158 1.419 1_455 S
C157 C152 1.425 1_455 S
C157 C154 1.409 . S
C157 C155 1.415 . S
C158 H148 0.930 . S
C158 C156 1.419 1_655 S
C158 C159 1.362 . S
C159 H149 0.930 . S
C159 C152 1.409 . S
C159 C158 1.362 . S
H160 C166 0.930 . S
H161 C169 0.930 . S
H162 C170 0.930 . S
H163 C171 0.930 . S
H164 C174 0.930 . S
H165 C175 0.930 . S
C166 H160 0.930 . S
C166 C167 1.355 1_565 S
C166 C168 1.415 . S
C167 C166 1.355 1_545 S
C167 C169 1.419 . S
C168 C166 1.415 . S
C168 C173 1.425 1_565 S
C168 C175 1.409 . S
C169 H161 0.930 . S
C169 C167 1.419 . S
C169 C170 1.362 . S
C170 H162 0.930 . S
C170 C169 1.362 . S
C170 C173 1.409 . S
C171 H163 0.930 . S
C171 C172 1.355 1_545 S
C171 C173 1.415 . S
C172 C171 1.355 1_565 S
C172 C174 1.419 . S
C173 C168 1.425 1_545 S
C173 C170 1.409 . S
C173 C171 1.415 . S
C174 H164 0.930 . S
C174 C172 1.419 . S
C174 C175 1.362 . S
C175 H165 0.930 . S
C175 C168 1.409 . S
C175 C174 1.362 . S
H176 C182 0.930 . S
H177 C185 0.930 . S
H178 C186 0.930 . S
H179 C187 0.930 . S
H180 C190 0.930 . S
H181 C191 0.930 . S
C182 H176 0.930 . S
C182 C183 1.355 . S
C182 C184 1.415 . S
C183 C182 1.355 . S
C183 C185 1.419 . S
C184 C182 1.415 . S
C184 C189 1.425 . S
C184 C191 1.409 . S
C185 H177 0.930 . S
C185 C183 1.419 . S
C185 C186 1.362 . S
C186 H178 0.930 . S
C186 C185 1.362 . S
C186 C189 1.409 . S
C187 H179 0.930 . S
C187 C188 1.355 . S
C187 C189 1.415 . S
C188 C187 1.355 . S
C188 C190 1.419 . S
C189 C184 1.425 . S
C189 C186 1.409 . S
C189 C187 1.415 . S
C190 H180 0.930 . S
C190 C188 1.419 . S
C190 C191 1.362 . S
C191 H181 0.930 . S
C191 C184 1.409 . S
C191 C190 1.362 . S
H192 C198 0.930 . S
H193 C201 0.930 . S
H194 C202 0.930 . S
H195 C203 0.930 . S
H196 C206 0.930 . S
H197 C207 0.930 . S
C198 H192 0.930 . S
C198 C199 1.355 . S
C198 C200 1.415 . S
C199 C198 1.355 . S
C199 C201 1.419 . S
C200 C198 1.415 . S
C200 C205 1.425 . S
C200 C207 1.409 . S
C201 H193 0.930 . S
C201 C199 1.419 . S
C201 C202 1.362 . S
C202 H194 0.930 . S
C202 C201 1.362 . S
C202 C205 1.409 . S
C203 H195 0.930 . S
C203 C204 1.355 . S
C203 C205 1.415 . S
C204 C203 1.355 . S
C204 C206 1.419 . S
C205 C200 1.425 . S
C205 C202 1.409 . S
C205 C203 1.415 . S
C206 H196 0.930 . S
C206 C204 1.419 . S
C206 C207 1.362 . S
C207 H197 0.930 . S
C207 C200 1.409 . S
C207 C206 1.362 . S
H208 C214 0.930 . S
H209 C217 0.930 . S
H210 C218 0.930 . S
H211 C219 0.930 . S
H212 C222 0.930 . S
H213 C223 0.930 . S
C214 H208 0.930 . S
C214 C215 1.355 . S
C214 C216 1.415 . S
C215 C214 1.355 . S
C215 C217 1.419 . S
C216 C214 1.415 . S
C216 C221 1.425 . S
C216 C223 1.409 . S
C217 H209 0.930 . S
C217 C215 1.419 . S
C217 C218 1.362 . S
C218 H210 0.930 . S
C218 C217 1.362 . S
C218 C221 1.409 . S
C219 H211 0.930 . S
C219 C220 1.355 . S
C219 C221 1.415 . S
C220 C219 1.355 . S
C220 C222 1.419 . S
C221 C216 1.425 . S
C221 C218 1.409 . S
C221 C219 1.415 . S
C222 H212 0.930 . S
C222 C220 1.419 . S
C222 C223 1.362 . S
C223 H213 0.930 . S
C223 C216 1.409 . S
C223 C222 1.362 . S
H224 C230 0.930 . S
H225 C233 0.930 . S
H226 C234 0.930 . S
H227 C235 0.930 . S
H228 C238 0.930 . S
H229 C239 0.930 . S
C230 H224 0.930 . S
C230 C231 1.355 . S
C230 C232 1.415 . S
C231 C230 1.355 . S
C231 C233 1.419 . S
C232 C230 1.415 . S
C232 C237 1.425 . S
C232 C239 1.409 . S
C233 H225 0.930 . S
C233 C231 1.419 . S
C233 C234 1.362 . S
C234 H226 0.930 . S
C234 C233 1.362 . S
C234 C237 1.409 . S
C235 H227 0.930 . S
C235 C236 1.355 . S
C235 C237 1.415 . S
C236 C235 1.355 . S
C236 C238 1.419 . S
C237 C232 1.425 . S
C237 C234 1.409 . S
C237 C235 1.415 . S
C238 H228 0.930 . S
C238 C236 1.419 . S
C238 C239 1.362 . S
C239 H229 0.930 . S
C239 C232 1.409 . S
C239 C238 1.362 . S
H240 C246 0.930 . S
H241 C249 0.930 . S
H242 C250 0.930 . S
H243 C251 0.930 . S
H244 C254 0.930 . S
H245 C255 0.930 . S
C246 H240 0.930 . S
C246 C247 1.355 . S
C246 C248 1.415 1_556 S
C247 C246 1.355 . S
C247 C249 1.419 . S
C248 C246 1.415 1_554 S
C248 C253 1.425 1_554 S
C248 C255 1.409 . S
C249 H241 0.930 . S
C249 C247 1.419 . S
C249 C250 1.362 . S
C250 H242 0.930 . S
C250 C249 1.362 . S
C250 C253 1.409 . S
C251 H243 0.930 . S
C251 C252 1.355 . S
C251 C253 1.415 1_554 S
C252 C251 1.355 . S
C252 C254 1.419 . S
C253 C248 1.425 1_556 S
C253 C250 1.409 . S
C253 C251 1.415 1_556 S
C254 H244 0.930 . S
C254 C252 1.419 . S
C254 C255 1.362 . S
C255 H245 0.930 . S
C255 C248 1.409 . S
C255 C254 1.362 . S
H256 C262 0.927 1_554 S
H257 C265 0.930 . S
H258 C266 0.930 . S
H259 C267 0.930 . S
H260 C270 0.930 . S
H261 C271 0.930 . S
C262 H256 0.927 1_556 S
C262 C263 1.355 . S
C262 C264 1.415 1_556 S
C263 C262 1.355 . S
C263 C265 1.419 . S
C264 C262 1.415 1_554 S
C264 C269 1.425 . S
C264 C271 1.409 . S
C265 H257 0.930 . S
C265 C263 1.419 . S
C265 C266 1.362 . S
C266 H258 0.930 . S
C266 C265 1.362 . S
C266 C269 1.409 1_556 S
C267 H259 0.930 . S
C267 C268 1.355 . S
C267 C269 1.415 . S
C268 C267 1.355 . S
C268 C270 1.419 . S
C269 C264 1.425 . S
C269 C266 1.409 1_554 S
C269 C267 1.415 . S
C270 H260 0.930 . S
C270 C268 1.419 . S
C270 C271 1.362 . S
C271 H261 0.930 . S
C271 C264 1.409 . S
C271 C270 1.362 . S
H272 C278 0.930 . S
H273 C281 0.930 . S
H274 C282 0.930 . S
H275 C283 0.930 . S
H276 C286 0.930 . S
H277 C287 0.947 . S
C278 H272 0.930 . S
C278 C279 1.355 . S
C278 C280 1.415 . S
C279 C278 1.355 . S
C279 C281 1.419 . S
C280 C278 1.415 . S
C280 C285 1.425 1_554 S
C280 C287 1.414 . S
C281 H273 0.930 . S
C281 C279 1.419 . S
C281 C282 1.362 1_554 S
C282 H274 0.930 . S
C282 C281 1.362 1_556 S
C282 C285 1.409 . S
C283 H275 0.930 . S
C283 C284 1.355 . S
C283 C285 1.415 . S
C284 C283 1.355 . S
C284 C286 1.419 . S
C285 C280 1.425 1_556 S
C285 C282 1.409 . S
C285 C283 1.415 . S
C286 H276 0.930 . S
C286 C284 1.419 . S
C286 C287 1.342 1_556 S
C287 H277 0.947 . S
C287 C280 1.414 . S
C287 C286 1.342 1_554 S
H288 C294 0.930 . S
H289 C297 0.930 . S
H290 C298 0.930 . S
H291 C299 0.930 . S
H292 C302 0.930 . S
H293 C303 0.930 . S
C294 H288 0.930 . S
C294 C295 1.355 1_554 S
C294 C296 1.415 . S
C295 C294 1.355 1_556 S
C295 C297 1.419 . S
C296 C294 1.415 . S
C296 C301 1.425 . S
C296 C303 1.409 . S
C297 H289 0.930 . S
C297 C295 1.419 . S
C297 C298 1.362 . S
C298 H290 0.930 . S
C298 C297 1.362 . S
C298 C301 1.409 1_556 S
C299 H291 0.930 . S
C299 C300 1.355 . S
C299 C301 1.415 . S
C300 C299 1.355 . S
C300 C302 1.419 . S
C301 C296 1.425 . S
C301 C298 1.409 1_554 S
C301 C299 1.415 . S
C302 H292 0.930 . S
C302 C300 1.419 . S
C302 C303 1.362 . S
C303 H293 0.930 . S
C303 C296 1.409 . S
C303 C302 1.362 . S
H304 C310 0.930 . S
H305 C313 0.930 . S
H306 C314 0.930 . S
H307 C315 0.930 . S
H308 C318 0.930 1_565 S
H309 C319 0.930 . S
C310 H304 0.930 . S
C310 C311 1.355 . S
C310 C312 1.415 . S
C311 C310 1.355 . S
C311 C313 1.419 . S
C312 C310 1.415 . S
C312 C317 1.425 . S
C312 C319 1.409 . S
C313 H305 0.930 . S
C313 C311 1.419 . S
C313 C314 1.362 . S
C314 H306 0.930 . S
C314 C313 1.362 . S
C314 C317 1.409 . S
C315 H307 0.930 . S
C315 C316 1.355 . S
C315 C317 1.415 . S
C316 C315 1.355 . S
C316 C318 1.419 . S
C317 C312 1.425 . S
C317 C314 1.409 . S
C317 C315 1.415 . S
C318 H308 0.930 1_545 S
C318 C316 1.419 . S
C318 C319 1.362 . S
C319 H309 0.930 . S
C319 C312 1.409 . S
C319 C318 1.362 . S
H320 C326 0.930 . S
H321 C329 0.930 . S
H322 C330 0.930 . S
H323 C331 0.930 . S
H324 C334 0.930 . S
H325 C335 0.930 . S
C326 H320 0.930 . S
C326 C327 1.355 . S
C326 C328 1.415 . S
C327 C326 1.355 . S
C327 C329 1.419 . S
C328 C326 1.415 . S
C328 C333 1.425 . S
C328 C335 1.409 . S
C329 H321 0.930 . S
C329 C327 1.419 . S
C329 C330 1.362 . S
C330 H322 0.930 . S
C330 C329 1.362 . S
C330 C333 1.409 . S
C331 H323 0.930 . S
C331 C332 1.355 . S
C331 C333 1.415 . S
C332 C331 1.355 . S
C332 C334 1.419 . S
C333 C328 1.425 . S
C333 C330 1.409 . S
C333 C331 1.415 . S
C334 H324 0.930 . S
C334 C332 1.419 . S
C334 C335 1.362 . S
C335 H325 0.930 . S
C335 C328 1.409 . S
C335 C334 1.362 . S
H336 C342 0.930 . S
H337 C345 0.930 . S
H338 C346 0.930 . S
H339 C347 0.930 . S
H340 C350 0.930 . S
H341 C351 0.930 . S
C342 H336 0.930 . S
C342 C343 1.355 . S
C342 C344 1.415 . S
C343 C342 1.355 . S
C343 C345 1.419 . S
C344 C342 1.415 . S
C344 C349 1.425 . S
C344 C351 1.409 . S
C345 H337 0.930 . S
C345 C343 1.419 . S
C345 C346 1.362 . S
C346 H338 0.930 . S
C346 C345 1.362 . S
C346 C349 1.409 . S
C347 H339 0.930 . S
C347 C348 1.355 . S
C347 C349 1.415 . S
C348 C347 1.355 . S
C348 C350 1.419 . S
C349 C344 1.425 . S
C349 C346 1.409 . S
C349 C347 1.415 . S
C350 H340 0.930 . S
C350 C348 1.419 . S
C350 C351 1.362 . S
C351 H341 0.930 . S
C351 C344 1.409 . S
C351 C350 1.362 . S
H352 C358 0.930 . S
H353 C361 0.930 . S
H354 C362 0.930 . S
H355 C363 0.930 . S
H356 C366 0.930 . S
H357 C367 0.930 . S
C358 H352 0.930 . S
C358 C359 1.355 . S
C358 C360 1.415 . S
C359 C358 1.355 . S
C359 C361 1.419 . S
C360 C358 1.415 . S
C360 C365 1.425 . S
C360 C367 1.409 . S
C361 H353 0.930 . S
C361 C359 1.419 . S
C361 C362 1.362 . S
C362 H354 0.930 . S
C362 C361 1.362 . S
C362 C365 1.409 . S
C363 H355 0.930 . S
C363 C364 1.355 . S
C363 C365 1.415 . S
C364 C363 1.355 . S
C364 C366 1.419 . S
C365 C360 1.425 . S
C365 C362 1.409 . S
C365 C363 1.415 . S
C366 H356 0.930 . S
C366 C364 1.419 . S
C366 C367 1.362 . S
C367 H357 0.930 . S
C367 C360 1.409 . S
C367 C366 1.362 . S
C119 C39 1.293 . S
C124 C11 1.313 . S
C135 C53 1.227 . S
C140 C25 1.242 . S
C151 C67 1.270 . S
C156 C95 1.241 . S
C167 C75 1.008 . S
C172 C103 1.038 . S
C183 C26 0.909 . S
C188 C4 0.967 . S
C199 C18 1.019 . S
C204 C40 1.050 . S
C215 C54 0.915 . S
C220 C32 0.973 . S
C231 C46 0.960 . S
C236 C12 0.972 . S
C247 C102 1.070 . S
C252 C60 1.011 . S
C263 C82 0.901 . S
C268 C68 0.895 . S
C279 C88 0.950 . S
C284 C74 1.051 . S
C295 C110 0.856 . S
C300 C96 0.914 . S
C311 C5 1.569 . S
C316 C81 1.687 . S
C327 C89 1.463 . S
C332 C19 1.496 . S
C343 C33 1.625 . S
C348 C109 1.628 . S
C359 C47 1.508 . S
C364 C61 1.467 . S
