# Generated by pormake.
# Topology wjg, (4)-cn, num edge types: 1
# Building blocks:
#     Node 0, Type 0, BuildingBlock: AZAVOO_clean_sbu_0, # of connection points: 4
#     Node 1, Type 0, BuildingBlock: AZAVOO_clean_sbu_0, # of connection points: 4
#     Node 2, Type 0, BuildingBlock: AZAVOO_clean_sbu_0, # of connection points: 4
#     Node 3, Type 0, BuildingBlock: AZAVOO_clean_sbu_0, # of connection points: 4
#     Node 4, Type 0, BuildingBlock: AZAVOO_clean_sbu_0, # of connection points: 4
#     Node 5, Type 0, BuildingBlock: AZAVOO_clean_sbu_0, # of connection points: 4
#     Node 6, Type 0, BuildingBlock: AZAVOO_clean_sbu_0, # of connection points: 4
#     Node 7, Type 0, BuildingBlock: AZAVOO_clean_sbu_0, # of connection points: 4
#     Node 8, Type 0, BuildingBlock: AZAVOO_clean_sbu_0, # of connection points: 4
#     Node 9, Type 0, BuildingBlock: AZAVOO_clean_sbu_0, # of connection points: 4
#     Node 10, Type 0, BuildingBlock: AZAVOO_clean_sbu_0, # of connection points: 4
#     Node 11, Type 0, BuildingBlock: AZAVOO_clean_sbu_0, # of connection points: 4
#     Edge 12, Type (0, 0), BuildingBlock: OJICUG_clean_linker_0, # of connection points: 2
#     Edge 13, Type (0, 0), BuildingBlock: OJICUG_clean_linker_0, # of connection points: 2
#     Edge 14, Type (0, 0), BuildingBlock: OJICUG_clean_linker_0, # of connection points: 2
#     Edge 15, Type (0, 0), BuildingBlock: OJICUG_clean_linker_0, # of connection points: 2
#     Edge 16, Type (0, 0), BuildingBlock: OJICUG_clean_linker_0, # of connection points: 2
#     Edge 17, Type (0, 0), BuildingBlock: OJICUG_clean_linker_0, # of connection points: 2
#     Edge 18, Type (0, 0), BuildingBlock: OJICUG_clean_linker_0, # of connection points: 2
#     Edge 19, Type (0, 0), BuildingBlock: OJICUG_clean_linker_0, # of connection points: 2
#     Edge 20, Type (0, 0), BuildingBlock: OJICUG_clean_linker_0, # of connection points: 2
#     Edge 21, Type (0, 0), BuildingBlock: OJICUG_clean_linker_0, # of connection points: 2
#     Edge 22, Type (0, 0), BuildingBlock: OJICUG_clean_linker_0, # of connection points: 2
#     Edge 23, Type (0, 0), BuildingBlock: OJICUG_clean_linker_0, # of connection points: 2
#     Edge 24, Type (0, 0), BuildingBlock: OJICUG_clean_linker_0, # of connection points: 2
#     Edge 25, Type (0, 0), BuildingBlock: OJICUG_clean_linker_0, # of connection points: 2
#     Edge 26, Type (0, 0), BuildingBlock: OJICUG_clean_linker_0, # of connection points: 2
#     Edge 27, Type (0, 0), BuildingBlock: OJICUG_clean_linker_0, # of connection points: 2
#     Edge 28, Type (0, 0), BuildingBlock: OJICUG_clean_linker_0, # of connection points: 2
#     Edge 29, Type (0, 0), BuildingBlock: OJICUG_clean_linker_0, # of connection points: 2
#     Edge 30, Type (0, 0), BuildingBlock: OJICUG_clean_linker_0, # of connection points: 2
#     Edge 31, Type (0, 0), BuildingBlock: OJICUG_clean_linker_0, # of connection points: 2
#     Edge 32, Type (0, 0), BuildingBlock: OJICUG_clean_linker_0, # of connection points: 2
#     Edge 33, Type (0, 0), BuildingBlock: OJICUG_clean_linker_0, # of connection points: 2
#     Edge 34, Type (0, 0), BuildingBlock: OJICUG_clean_linker_0, # of connection points: 2
#     Edge 35, Type (0, 0), BuildingBlock: OJICUG_clean_linker_0, # of connection points: 2
# Relax obj value: 0.259
# Max RMSD: 0.122
# Mean RMSD: 0.122
data_MOF--net-wjg--node1-AZAVOO_clean_sbu_0--edge1-OJICUG_clean_linker_0
_symmetry_space_group_name_H-M    P1
_symmetry_Int_Tables_number       1
_symmetry_cell_setting            triclinic
loop_
_symmetry_equiv_pos_as_xyz
'x, y, z'
_cell_length_a     25.628092
_cell_length_b     25.302356
_cell_length_c     28.400522
_cell_angle_alpha  90.507517
_cell_angle_beta   89.862884
_cell_angle_gamma 120.9499
loop_
_atom_site_label
_atom_site_type_symbol
_atom_site_fract_x
_atom_site_fract_y
_atom_site_fract_z
_atom_type_partial_charge
Mg0 Mg 0.14239 0.41168 0.33275 0.0
O1 O 0.21883 0.3904 0.31982 0.0
O2 O 0.27907 0.42246 0.38386 0.0
Mg3 Mg 0.23971 0.4593 0.43822 0.0
C4 C 0.26545 0.39844 0.34268 0.0
C5 C 0.0538 0.36599 0.24774 0.0
O6 O 0.01764 0.34814 0.28452 0.0
O7 O 0.21256 0.51607 0.32196 0.0
O8 O 0.26509 0.5393 0.38933 0.0
O9 O 0.08878 0.31712 0.36528 0.0
O10 O 0.15103 0.40263 0.40443 0.0
C11 C 0.25443 0.55513 0.3497 0.0
C12 C 0.11784 0.34352 0.40372 0.0
O13 O 0.11121 0.39486 0.25473 0.0
Mg14 Mg 0.7419 0.14443 0.6652 0.0
O15 O 0.84108 0.22161 0.65092 0.0
O16 O 0.87135 0.2866 0.71295 0.0
Mg17 Mg 0.79577 0.24954 0.76802 0.0
C18 C 0.8809 0.27045 0.67263 0.0
C19 C 0.75267 0.08169 0.5714 0.0
O20 O 0.79538 0.08203 0.59714 0.0
O21 O 0.70905 0.21361 0.65131 0.0
O22 O 0.73992 0.2698 0.71768 0.0
O23 O 0.78123 0.09293 0.70161 0.0
O24 O 0.76086 0.15821 0.73696 0.0
C25 C 0.71247 0.25645 0.67812 0.0
C26 C 0.78513 0.12478 0.73869 0.0
O27 O 0.72469 0.10735 0.58793 0.0
Mg28 Mg 0.60272 0.74832 -0.00727 0.0
O29 O 0.62037 0.84734 -0.01493 0.0
O30 O 0.5962 0.87247 0.0544 0.0
Mg31 Mg 0.5577 0.79012 0.10355 0.0
C32 C 0.61638 0.88581 0.01233 0.0
C33 C 0.64623 0.70844 0.90637 0.0
O34 O 0.66187 0.68817 0.94296 0.0
O35 O 0.49961 0.7115 -0.01698 0.0
O36 O 0.4785 0.73882 0.05232 0.0
O37 O 0.69695 0.79133 0.02442 0.0
O38 O 0.61304 0.76171 0.06522 0.0
C39 C 0.46197 0.7137 0.01169 0.0
C40 C 0.67142 0.79019 0.06402 0.0
O41 O 0.61884 0.73799 0.91373 0.0
Mg42 Mg 0.87023 0.6153 0.33013 0.0
O43 O 0.79403 0.63751 0.31981 0.0
O44 O 0.73563 0.60603 0.38461 0.0
Mg45 Mg 0.77568 0.56821 0.43684 0.0
C46 C 0.74835 0.63014 0.34377 0.0
C47 C 0.95711 0.66103 0.24471 0.0
O48 O 0.99362 0.67861 0.28138 0.0
O49 O 0.79938 0.51102 0.3183 0.0
O50 O 0.74866 0.48827 0.3864 0.0
O51 O 0.92495 0.70965 0.36409 0.0
O52 O 0.8635 0.62388 0.40221 0.0
C53 C 0.75815 0.47219 0.34614 0.0
C54 C 0.89682 0.68294 0.40246 0.0
O55 O 0.89977 0.63229 0.25188 0.0
Mg56 Mg 0.26714 0.87542 0.66374 0.0
O57 O 0.16805 0.79656 0.6522 0.0
O58 O 0.13967 0.73601 0.71587 0.0
Mg59 Mg 0.21773 0.77773 0.76918 0.0
C60 C 0.12892 0.74925 0.67513 0.0
C61 C 0.30747 0.9626 0.57692 0.0
O62 O 0.32806 1.00122 0.61281 0.0
O63 O 0.30067 0.80633 0.65153 0.0
O64 O 0.27184 0.75419 0.71906 0.0
O65 O 0.22754 0.92801 0.69872 0.0
O66 O 0.25142 0.86714 0.73599 0.0
C67 C 0.29812 0.76516 0.67917 0.0
C68 C 0.22599 0.89957 0.7368 0.0
O69 O 0.2789 0.90486 0.58527 0.0
Mg70 Mg 0.40584 0.27542 -0.00576 0.0
O71 O 0.38952 0.17688 -0.01443 0.0
O72 O 0.41439 0.15287 0.05458 0.0
Mg73 Mg 0.45189 0.23541 0.10444 0.0
C74 C 0.39421 0.13902 0.01242 0.0
C75 C 0.36171 0.314 0.90808 0.0
O76 O 0.34563 0.33436 0.94475 0.0
O77 O 0.50923 0.31328 -0.01536 0.0
O78 O 0.53074 0.28691 0.05365 0.0
O79 O 0.31147 0.23138 0.02574 0.0
O80 O 0.39557 0.26238 0.06667 0.0
C81 C 0.5471 0.31174 0.01325 0.0
C82 C 0.33717 0.2331 0.0653 0.0
O83 O 0.3895 0.28494 0.91533 0.0
Mg84 Mg 0.61208 0.88105 0.29992 0.0
O85 O 0.63346 0.80412 0.31356 0.0
O86 O 0.59874 0.74001 0.25098 0.0
Mg87 Mg 0.56083 0.7773 0.19635 0.0
C88 C 0.62423 0.7557 0.2914 0.0
C89 C 0.68521 0.94432 0.39402 0.0
O90 O 0.72856 0.94572 0.36827 0.0
O91 O 0.50911 0.81103 0.31344 0.0
O92 O 0.48379 0.75553 0.24674 0.0
O93 O 0.70403 0.93358 0.26381 0.0
O94 O 0.61784 0.86829 0.2281 0.0
C95 C 0.46945 0.76821 0.28648 0.0
C96 C 0.67605 0.90208 0.22653 0.0
O97 O 0.63125 0.91733 0.37741 0.0
Mg98 Mg 0.74066 0.6097 0.63275 0.0
O99 O 0.83903 0.63152 0.6446 0.0
O100 O 0.86648 0.60016 0.57982 0.0
Mg101 Mg 0.7892 0.56311 0.52613 0.0
C102 C 0.87744 0.62385 0.62112 0.0
C103 C 0.69989 0.65641 0.71797 0.0
O104 O 0.68277 0.67492 0.68117 0.0
O105 O 0.70593 0.50548 0.64318 0.0
O106 O 0.73467 0.48287 0.57526 0.0
O107 O 0.7821 0.70432 0.60063 0.0
O108 O 0.75794 0.61921 0.56095 0.0
C109 C 0.70846 0.46676 0.61515 0.0
C110 C 0.78437 0.6783 0.56192 0.0
O111 O 0.72697 0.62647 0.71099 0.0
Mg112 Mg 0.14385 0.74755 0.9696 0.0
O113 O 0.22625 0.84674 0.97822 0.0
O114 O 0.27636 0.87168 0.90943 0.0
Mg115 Mg 0.23178 0.78887 0.85964 0.0
C116 C 0.2693 0.8852 0.95151 0.0
C117 C 0.0603 0.70983 0.05595 0.0
O118 O 0.02349 0.68979 0.01942 0.0
O119 O 0.2099 0.7112 0.97951 0.0
O120 O 0.2589 0.73815 0.91066 0.0
O121 O 0.09307 0.78998 0.93783 0.0
O122 O 0.14724 0.76036 0.89713 0.0
C123 C 0.24989 0.71332 0.95106 0.0
C124 C 0.11762 0.7887 0.89835 0.0
O125 O 0.11757 0.73825 0.04849 0.0
Mg126 Mg 0.39949 0.14626 0.29906 0.0
O127 O 0.37982 0.22476 0.3109 0.0
O128 O 0.41275 0.28519 0.24713 0.0
Mg129 Mg 0.44891 0.24391 0.19369 0.0
C130 C 0.38855 0.27195 0.28793 0.0
C131 C 0.35249 0.05893 0.38587 0.0
O132 O 0.33316 0.02032 0.34997 0.0
O133 O 0.5029 0.21601 0.31109 0.0
O134 O 0.52699 0.26832 0.24367 0.0
O135 O 0.3065 0.09313 0.26433 0.0
O136 O 0.39209 0.1545 0.2269 0.0
C137 C 0.54207 0.2575 0.28354 0.0
C138 C 0.33375 0.12174 0.22623 0.0
O139 O 0.38213 0.11668 0.37752 0.0
Mg140 Mg 0.26958 0.41017 0.63431 0.0
O141 O 0.1707 0.38788 0.64428 0.0
O142 O 0.14464 0.41854 0.57899 0.0
Mg143 Mg 0.22348 0.4561 0.52697 0.0
C144 C 0.13263 0.39491 0.62001 0.0
C145 C 0.30904 0.36417 0.71972 0.0
O146 O 0.32725 0.3461 0.68293 0.0
O147 O 0.30395 0.51447 0.64567 0.0
O148 O 0.27656 0.53636 0.57726 0.0
O149 O 0.22891 0.31555 0.6009 0.0
O150 O 0.2546 0.40086 0.56218 0.0
C151 C 0.30193 0.55288 0.61757 0.0
C152 C 0.22799 0.3418 0.56231 0.0
O153 O 0.28149 0.39351 0.7127 0.0
Mg154 Mg 0.86577 0.27786 0.97261 0.0
O155 O 0.78404 0.17829 0.98028 0.0
O156 O 0.73443 0.15215 0.91109 0.0
Mg157 Mg 0.77851 0.23461 0.86188 0.0
C158 C 0.74143 0.13921 0.95313 0.0
C159 C 0.94912 0.31633 0.05913 0.0
O160 O 0.98572 0.33584 0.02263 0.0
O161 O 0.79897 0.31348 -0.01769 0.0
O162 O 0.7505 0.28547 0.91301 0.0
O163 O 0.91752 0.23606 0.94075 0.0
O164 O 0.86297 0.26465 0.90007 0.0
C165 C 0.75908 0.31076 0.95356 0.0
C166 C 0.89312 0.23689 0.90119 0.0
O167 O 0.89182 0.28796 0.05164 0.0
C168 C 0.34058 0.66235 0.36649 0.0
C169 C 0.29923 0.61845 0.33379 0.0
H170 H 0.42692 0.74507 0.3773 0.0
C171 C 0.30865 0.63215 0.28569 0.0
H172 H 0.33417 0.65376 0.40396 0.0
C173 C 0.36184 0.6848 0.27052 0.0
C174 C 0.40666 0.72484 0.3031 0.0
H175 H 0.27767 0.59979 0.2596 0.0
H176 H 0.36986 0.69162 0.23299 0.0
C177 C 0.39376 0.71505 0.3513 0.0
C178 C 0.68924 0.30837 0.61341 0.0
C179 C 0.69255 0.29887 0.66159 0.0
H180 H 0.69021 0.36878 0.56082 0.0
C181 C 0.6874 0.33834 0.69424 0.0
H182 H 0.69266 0.27876 0.58738 0.0
C183 C 0.68626 0.39024 0.67914 0.0
C184 C 0.69034 0.40378 0.63104 0.0
H185 H 0.68872 0.3317 0.73175 0.0
H186 H 0.68737 0.42223 0.70528 0.0
C187 C 0.68816 0.36033 0.5983 0.0
C188 C 0.38537 0.69187 0.94805 0.0
C189 C 0.39963 0.69581 -0.00391 0.0
H190 H 0.3258 0.69309 0.89609 0.0
C191 C 0.35707 0.6928 0.02924 0.0
H192 H 0.41674 0.69366 0.92159 0.0
C193 C 0.30483 0.69262 0.01469 0.0
C194 C 0.2941 0.69561 0.96666 0.0
H195 H 0.36612 0.69478 0.06665 0.0
H196 H 0.27559 0.69502 0.04115 0.0
C197 C 0.33321 0.69184 0.9335 0.0
C198 C 0.64904 0.34142 0.26686 0.0
C199 C 0.60513 0.3016 0.29965 0.0
H200 H 0.73269 0.42656 0.2557 0.0
C201 C 0.61916 0.31209 0.34775 0.0
H202 H 0.64018 0.33406 0.22937 0.0
C203 C 0.67255 0.36514 0.36276 0.0
C204 C 0.71296 0.40873 0.32999 0.0
H205 H 0.58677 0.28225 0.37391 0.0
H206 H 0.67985 0.37415 0.40026 0.0
C207 C 0.70242 0.39445 0.28186 0.0
C208 C 0.322 0.71152 0.61532 0.0
C209 C 0.31764 0.72185 0.66335 0.0
H210 H 0.32201 0.65019 0.56312 0.0
C211 C 0.32174 0.6827 0.69636 0.0
H212 H 0.31951 0.74089 0.58901 0.0
C213 C 0.32285 0.63037 0.68162 0.0
C214 C 0.31989 0.61611 0.63354 0.0
H215 H 0.31965 0.68998 0.73379 0.0
H216 H 0.32091 0.59867 0.70792 0.0
C217 C 0.32314 0.65919 0.60058 0.0
C218 C 0.67541 0.33135 0.93546 0.0
C219 C 0.71474 0.32871 0.96883 0.0
H220 H 0.59179 0.32909 0.92319 0.0
C221 C 0.70438 0.33344 0.01677 0.0
H222 H 0.68256 0.32881 0.8981 0.0
C223 C 0.65227 0.33385 0.03108 0.0
C224 C 0.60947 0.32965 -0.00223 0.0
H225 H 0.73382 0.33201 0.04339 0.0
H226 H 0.64348 0.33316 0.06846 0.0
C227 C 0.62338 0.33188 0.94977 0.0
C228 C 0.36153 0.40053 0.32252 0.0
C229 C 0.29778 0.36814 0.32565 0.0
H230 H 0.44086 0.39508 0.30687 0.0
C231 C 0.26488 0.30421 0.31809 0.0
H232 H 0.38767 0.44979 0.32899 0.0
C233 C 0.29522 0.27281 0.30829 0.0
C234 C 0.35877 0.30514 0.30419 0.0
H235 H 0.21575 0.27824 0.32123 0.0
H236 H 0.26887 0.22335 0.30277 0.0
C237 C 0.39182 0.36935 0.31059 0.0
C238 C 0.97526 0.36572 0.64625 0.0
C239 C 0.94399 0.30244 0.65596 0.0
H240 H 0.06047 0.44498 0.62613 0.0
C241 C 0.97559 0.27074 0.65553 0.0
H242 H 0.9517 0.39105 0.64719 0.0
C243 C 0.03786 0.30198 0.64622 0.0
C244 C 0.06907 0.36497 0.63562 0.0
H245 H 0.9524 0.22209 0.66371 0.0
H246 H 0.06132 0.27653 0.64601 0.0
C247 C 0.03724 0.39652 0.63493 0.0
C248 C 0.69589 0.05983 0.0165 0.0
C249 C 0.70355 0.07456 0.96851 0.0
H250 H 0.66109 0.98847 0.0679 0.0
C251 C 0.67853 0.02646 0.93489 0.0
H252 H 0.71462 0.09584 0.04315 0.0
C253 C 0.64891 0.96494 0.94897 0.0
C254 C 0.64244 0.95025 -0.00305 0.0
H255 H 0.68404 0.03631 0.89756 0.0
H256 H 0.63192 0.92894 0.92231 0.0
C257 C 0.66502 0.99829 0.03058 0.0
C258 C 0.62134 0.65958 0.31585 0.0
C259 C 0.65445 0.72333 0.30796 0.0
H260 H 0.62563 0.57967 0.33449 0.0
C261 C 0.71819 0.75532 0.3101 0.0
H262 H 0.57213 0.63403 0.31355 0.0
C263 C 0.74858 0.72395 0.31936 0.0
C264 C 0.71564 0.66046 0.32816 0.0
H265 H 0.74454 0.80435 0.30326 0.0
H266 H 0.79785 0.74962 0.3209 0.0
C267 C 0.65178 0.62855 0.32711 0.0
C268 C 0.03319 0.65217 0.65219 0.0
C269 C 0.06544 0.71628 0.65909 0.0
H270 H 0.9473 0.57209 0.63352 0.0
C271 C 0.03486 0.74881 0.65556 0.0
H272 H 0.056 0.62629 0.65543 0.0
C273 C 0.97268 0.71768 0.64587 0.0
C274 C 0.94056 0.65385 0.63783 0.0
H275 H 0.05882 0.7982 0.66142 0.0
H276 H 0.95003 0.74379 0.64321 0.0
C277 C 0.97127 0.62128 0.64036 0.0
C278 C 0.34617 0.02687 0.0299 0.0
C279 C 0.3686 0.07451 -0.00341 0.0
H280 H 0.29653 0.92947 0.04181 0.0
C281 C 0.36216 0.05931 0.94851 0.0
H282 H 0.35014 0.03711 0.06729 0.0
C283 C 0.33257 0.99764 0.93401 0.0
C284 C 0.3075 0.94994 0.96732 0.0
H285 H 0.37906 0.095 0.92211 0.0
H286 H 0.32701 0.98735 0.89662 0.0
C287 C 0.31527 0.96519 0.0154 0.0
C288 C 0.93797 0.30895 0.14761 0.0
C289 C 0.97535 0.32822 0.10757 0.0
H290 H 0.93324 0.30564 0.22292 0.0
C291 C 0.03896 0.35969 0.11408 0.0
H292 H 0.88892 0.28463 0.14402 0.0
C293 C 0.06452 0.37181 0.15934 0.0
C294 C 0.02719 0.3528 0.19939 0.0
H295 H 0.06934 0.37525 0.08411 0.0
H296 H 0.11358 0.39625 0.16289 0.0
C297 C 0.96356 0.32109 0.19291 0.0
C298 C 0.67893 0.02966 0.50366 0.0
C299 C 0.73511 0.04783 0.52541 0.0
H300 H 0.61833 0.98162 0.44577 0.0
C301 C 0.77371 0.03056 0.50392 0.0
H302 H 0.64784 0.04169 0.51941 0.0
C303 C 0.75702 0.99658 0.46176 0.0
C304 C 0.70078 0.97795 0.44009 0.0
H305 H 0.81722 0.04352 0.51961 0.0
H306 H 0.78834 0.98473 0.4462 0.0
C307 C 0.66176 0.99471 0.46168 0.0
C308 C 0.69061 0.66307 0.85162 0.0
C309 C 0.6603 0.69596 0.85799 0.0
H310 H 0.72689 0.62483 0.80297 0.0
C311 C 0.64368 0.71602 0.81787 0.0
H312 H 0.70422 0.64685 0.88166 0.0
C313 C 0.65678 0.70329 0.77264 0.0
C314 C 0.68686 0.67017 0.76629 0.0
H315 H 0.62038 0.74143 0.82136 0.0
H316 H 0.64309 0.7194 0.74257 0.0
C317 C 0.7037 0.65035 0.80642 0.0
C318 C 0.97081 0.66669 0.11099 0.0
C319 C 0.03438 0.69832 0.10441 0.0
H320 H 0.89657 0.63018 0.15991 0.0
C321 C 0.07207 0.718 0.14442 0.0
H322 H 0.94021 0.6508 0.08104 0.0
C323 C 0.04685 0.70608 0.18975 0.0
C324 C 0.98327 0.67417 0.19631 0.0
H325 H 0.1211 0.74245 0.14077 0.0
H326 H 0.07741 0.72181 0.21971 0.0
C327 C 0.9456 0.65479 0.15629 0.0
C328 C 0.30759 0.97054 0.44284 0.0
C329 C 0.34039 0.03461 0.43488 0.0
H330 H 0.27143 0.89754 0.49337 0.0
C331 C 0.36171 0.0745 0.47411 0.0
H332 H 0.29034 0.93826 0.41355 0.0
C333 C 0.35079 0.05098 0.51997 0.0
C334 C 0.31825 0.98691 0.52793 0.0
H335 H 0.38709 0.12398 0.46945 0.0
H336 H 0.36815 0.08326 0.54926 0.0
C337 C 0.29668 0.94702 0.4887 0.0
C338 C 0.31709 0.35836 0.85342 0.0
C339 C 0.34775 0.32591 0.85972 0.0
H340 H 0.28078 0.39583 0.80481 0.0
C341 C 0.36491 0.30578 0.81955 0.0
H342 H 0.30307 0.37462 0.88349 0.0
C343 C 0.35203 0.31804 0.77433 0.0
C344 C 0.32163 0.35075 0.76804 0.0
H345 H 0.38849 0.2807 0.82297 0.0
H346 H 0.36617 0.30191 0.74423 0.0
C347 C 0.3042 0.3706 0.80822 0.0
C348 C 0.09884 0.30294 0.48487 0.0
C349 C 0.12679 0.30927 0.44118 0.0
H350 H 0.1074 0.30003 0.55956 0.0
C351 C 0.17842 0.3036 0.43868 0.0
H352 H 0.05893 0.30711 0.48775 0.0
C353 C 0.20886 0.3049 0.47985 0.0
C354 C 0.18539 0.30757 0.52378 0.0
H355 H 0.19966 0.30648 0.4052 0.0
H356 H 0.25373 0.31077 0.47719 0.0
C357 C 0.12711 0.29982 0.52596 0.0
C358 C 0.91258 0.22055 0.81877 0.0
C359 C 0.88507 0.19512 0.86195 0.0
H360 H 0.90425 0.21247 0.7439 0.0
C361 C 0.83428 0.13497 0.86267 0.0
H362 H 0.95177 0.26687 0.81727 0.0
C363 C 0.80427 0.10609 0.82064 0.0
C364 C 0.82737 0.13561 0.77757 0.0
H365 H 0.8132 0.11386 0.89574 0.0
H366 H 0.76005 0.06425 0.82222 0.0
C367 C 0.88474 0.18982 0.77678 0.0
C368 C 0.71106 0.8382 0.18831 0.0
C369 C 0.70779 0.89189 0.18754 0.0
H370 H 0.70071 0.76137 0.14789 0.0
C371 C 0.71386 0.92096 0.14442 0.0
H372 H 0.70815 0.81592 0.22125 0.0
C373 C 0.71469 0.89207 0.10237 0.0
C374 C 0.70535 0.8323 0.10316 0.0
H375 H 0.71135 0.96236 0.14286 0.0
H376 H 0.71441 0.91279 0.06931 0.0
C377 C 0.70782 0.8074 0.14633 0.0
C378 C 0.91501 0.71934 0.485 0.0
C379 C 0.88862 0.71667 0.44128 0.0
H380 H 0.90411 0.71669 0.55971 0.0
C381 C 0.83763 0.72349 0.43961 0.0
H382 H 0.95433 0.71414 0.48725 0.0
C383 C 0.80599 0.71945 0.48093 0.0
C384 C 0.82783 0.71309 0.52435 0.0
H385 H 0.81754 0.72327 0.40619 0.0
H386 H 0.76156 0.71463 0.47838 0.0
C387 C 0.8856 0.71964 0.52643 0.0
C388 C 0.17792 0.89035 0.86095 0.0
C389 C 0.1265 0.83061 0.85957 0.0
H390 H 0.25256 0.9603 0.82116 0.0
C391 C 0.09845 0.80562 0.81617 0.0
H392 H 0.1993 0.91124 0.89422 0.0
C393 C 0.12621 0.83635 0.77449 0.0
C394 C 0.18414 0.88986 0.77574 0.0
H395 H 0.05872 0.75965 0.81414 0.0
H396 H 0.10622 0.81403 0.74135 0.0
C397 C 0.20793 0.91899 0.81919 0.0
C398 C 0.29637 0.1026 0.14385 0.0
C399 C 0.3016 0.13128 0.18745 0.0
H400 H 0.29592 0.11082 0.06888 0.0
C401 C 0.29728 0.18437 0.18903 0.0
H402 H 0.29965 0.06163 0.14164 0.0
C403 C 0.30046 0.21519 0.14752 0.0
C404 C 0.30366 0.19071 0.10394 0.0
H405 H 0.29958 0.20636 0.22231 0.0
H406 H 0.30683 0.26092 0.1498 0.0
C407 C 0.29522 0.1313 0.10225 0.0
loop_
_geom_bond_atom_site_label_1
_geom_bond_atom_site_label_2
_geom_bond_distance
_geom_bond_site_symmetry_2
_ccdc_geom_bond_type
Mg0 O1 2.028 . S
Mg0 O7 1.986 . S
Mg0 O9 2.114 . S
Mg0 O10 2.251 . S
Mg0 O13 2.010 . S
O1 Mg0 2.028 . S
O1 C4 1.250 . S
O2 Mg3 2.028 . S
O2 C4 1.248 . S
Mg3 O2 2.028 . S
Mg3 O8 2.032 . S
Mg3 O10 2.079 . S
C4 O1 1.250 . S
C4 O2 1.248 . S
C5 O6 1.264 . S
C5 O13 1.249 . S
O6 C5 1.264 . S
O7 Mg0 1.986 . S
O7 C11 1.246 . S
O8 Mg3 2.032 . S
O8 C11 1.259 . S
O9 Mg0 2.114 . S
O9 C12 1.252 . S
O10 Mg0 2.251 . S
O10 Mg3 2.079 . S
O10 C12 1.273 . S
C11 O7 1.246 . S
C11 O8 1.259 . S
C12 O9 1.252 . S
C12 O10 1.273 . S
O13 Mg0 2.010 . S
O13 C5 1.249 . S
Mg14 O15 2.028 . S
Mg14 O21 1.986 . S
Mg14 O23 2.114 . S
Mg14 O24 2.251 . S
Mg14 O27 2.010 . S
O15 Mg14 2.028 . S
O15 C18 1.250 . S
O16 Mg17 2.028 . S
O16 C18 1.248 . S
Mg17 O16 2.028 . S
Mg17 O22 2.032 . S
Mg17 O24 2.079 . S
C18 O15 1.250 . S
C18 O16 1.248 . S
C19 O20 1.264 . S
C19 O27 1.249 . S
O20 C19 1.264 . S
O21 Mg14 1.986 . S
O21 C25 1.246 . S
O22 Mg17 2.032 . S
O22 C25 1.259 . S
O23 Mg14 2.114 . S
O23 C26 1.252 . S
O24 Mg14 2.251 . S
O24 Mg17 2.079 . S
O24 C26 1.273 . S
C25 O21 1.246 . S
C25 O22 1.259 . S
C26 O23 1.252 . S
C26 O24 1.273 . S
O27 Mg14 2.010 . S
O27 C19 1.249 . S
Mg28 O29 2.028 1_554 S
Mg28 O35 1.986 1_554 S
Mg28 O37 2.114 . S
Mg28 O38 2.251 . S
Mg28 O41 2.010 1_554 S
O29 Mg28 2.028 1_556 S
O29 C32 1.250 1_556 S
O30 Mg31 2.028 . S
O30 C32 1.248 . S
Mg31 O30 2.028 . S
Mg31 O36 2.032 . S
Mg31 O38 2.079 . S
C32 O29 1.250 1_554 S
C32 O30 1.248 . S
C33 O34 1.264 . S
C33 O41 1.249 . S
O34 C33 1.264 . S
O35 Mg28 1.986 1_556 S
O35 C39 1.246 . S
O36 Mg31 2.032 . S
O36 C39 1.259 1_554 S
O37 Mg28 2.114 . S
O37 C40 1.252 . S
O38 Mg28 2.251 . S
O38 Mg31 2.079 . S
O38 C40 1.273 . S
C39 O35 1.246 . S
C39 O36 1.259 1_556 S
C40 O37 1.252 . S
C40 O38 1.273 . S
O41 Mg28 2.010 1_556 S
O41 C33 1.249 . S
Mg42 O43 2.028 . S
Mg42 O49 1.986 . S
Mg42 O51 2.114 . S
Mg42 O52 2.251 . S
Mg42 O55 2.010 . S
O43 Mg42 2.028 . S
O43 C46 1.250 . S
O44 Mg45 2.028 . S
O44 C46 1.248 . S
Mg45 O44 2.028 . S
Mg45 O50 2.032 . S
Mg45 O52 2.079 . S
C46 O43 1.250 . S
C46 O44 1.248 . S
C47 O48 1.264 . S
C47 O55 1.249 . S
O48 C47 1.264 . S
O49 Mg42 1.986 . S
O49 C53 1.246 . S
O50 Mg45 2.032 . S
O50 C53 1.259 . S
O51 Mg42 2.114 . S
O51 C54 1.252 . S
O52 Mg42 2.251 . S
O52 Mg45 2.079 . S
O52 C54 1.273 . S
C53 O49 1.246 . S
C53 O50 1.259 . S
C54 O51 1.252 . S
C54 O52 1.273 . S
O55 Mg42 2.010 . S
O55 C47 1.249 . S
Mg56 O57 2.028 . S
Mg56 O63 1.986 . S
Mg56 O65 2.114 . S
Mg56 O66 2.251 . S
Mg56 O69 2.010 . S
O57 Mg56 2.028 . S
O57 C60 1.250 . S
O58 Mg59 2.028 . S
O58 C60 1.248 . S
Mg59 O58 2.028 . S
Mg59 O64 2.032 . S
Mg59 O66 2.079 . S
C60 O57 1.250 . S
C60 O58 1.248 . S
C61 O62 1.264 . S
C61 O69 1.249 . S
O62 C61 1.264 . S
O63 Mg56 1.986 . S
O63 C67 1.246 . S
O64 Mg59 2.032 . S
O64 C67 1.259 . S
O65 Mg56 2.114 . S
O65 C68 1.252 . S
O66 Mg56 2.251 . S
O66 Mg59 2.079 . S
O66 C68 1.273 . S
C67 O63 1.246 . S
C67 O64 1.259 . S
C68 O65 1.252 . S
C68 O66 1.273 . S
O69 Mg56 2.010 . S
O69 C61 1.249 . S
Mg70 O71 2.028 1_554 S
Mg70 O77 1.986 1_554 S
Mg70 O79 2.114 . S
Mg70 O80 2.251 . S
Mg70 O83 2.010 1_554 S
O71 Mg70 2.028 1_556 S
O71 C74 1.250 1_556 S
O72 Mg73 2.028 . S
O72 C74 1.248 . S
Mg73 O72 2.028 . S
Mg73 O78 2.032 . S
Mg73 O80 2.079 . S
C74 O71 1.250 1_554 S
C74 O72 1.248 . S
C75 O76 1.264 . S
C75 O83 1.249 . S
O76 C75 1.264 . S
O77 Mg70 1.986 1_556 S
O77 C81 1.246 . S
O78 Mg73 2.032 . S
O78 C81 1.259 1_554 S
O79 Mg70 2.114 . S
O79 C82 1.252 . S
O80 Mg70 2.251 . S
O80 Mg73 2.079 . S
O80 C82 1.273 . S
C81 O77 1.246 . S
C81 O78 1.259 1_556 S
C82 O79 1.252 . S
C82 O80 1.273 . S
O83 Mg70 2.010 1_556 S
O83 C75 1.249 . S
Mg84 O85 2.028 . S
Mg84 O91 1.986 . S
Mg84 O93 2.114 . S
Mg84 O94 2.251 . S
Mg84 O97 2.010 . S
O85 Mg84 2.028 . S
O85 C88 1.250 . S
O86 Mg87 2.028 . S
O86 C88 1.248 . S
Mg87 O86 2.028 . S
Mg87 O92 2.032 . S
Mg87 O94 2.079 . S
C88 O85 1.250 . S
C88 O86 1.248 . S
C89 O90 1.264 . S
C89 O97 1.249 . S
O90 C89 1.264 . S
O91 Mg84 1.986 . S
O91 C95 1.246 . S
O92 Mg87 2.032 . S
O92 C95 1.259 . S
O93 Mg84 2.114 . S
O93 C96 1.252 . S
O94 Mg84 2.251 . S
O94 Mg87 2.079 . S
O94 C96 1.273 . S
C95 O91 1.246 . S
C95 O92 1.259 . S
C96 O93 1.252 . S
C96 O94 1.273 . S
O97 Mg84 2.010 . S
O97 C89 1.249 . S
Mg98 O99 2.028 . S
Mg98 O105 1.986 . S
Mg98 O107 2.114 . S
Mg98 O108 2.251 . S
Mg98 O111 2.010 . S
O99 Mg98 2.028 . S
O99 C102 1.250 . S
O100 Mg101 2.028 . S
O100 C102 1.248 . S
Mg101 O100 2.028 . S
Mg101 O106 2.032 . S
Mg101 O108 2.079 . S
C102 O99 1.250 . S
C102 O100 1.248 . S
C103 O104 1.264 . S
C103 O111 1.249 . S
O104 C103 1.264 . S
O105 Mg98 1.986 . S
O105 C109 1.246 . S
O106 Mg101 2.032 . S
O106 C109 1.259 . S
O107 Mg98 2.114 . S
O107 C110 1.252 . S
O108 Mg98 2.251 . S
O108 Mg101 2.079 . S
O108 C110 1.273 . S
C109 O105 1.246 . S
C109 O106 1.259 . S
C110 O107 1.252 . S
C110 O108 1.273 . S
O111 Mg98 2.010 . S
O111 C103 1.249 . S
Mg112 O113 2.028 1_556 S
Mg112 O119 1.986 1_556 S
Mg112 O121 2.114 . S
Mg112 O122 2.251 . S
Mg112 O125 2.010 1_556 S
O113 Mg112 2.028 1_554 S
O113 C116 1.250 1_554 S
O114 Mg115 2.028 . S
O114 C116 1.248 . S
Mg115 O114 2.028 . S
Mg115 O120 2.032 . S
Mg115 O122 2.079 . S
C116 O113 1.250 1_556 S
C116 O114 1.248 . S
C117 O118 1.264 . S
C117 O125 1.249 . S
O118 C117 1.264 . S
O119 Mg112 1.986 1_554 S
O119 C123 1.246 . S
O120 Mg115 2.032 . S
O120 C123 1.259 1_556 S
O121 Mg112 2.114 . S
O121 C124 1.252 . S
O122 Mg112 2.251 . S
O122 Mg115 2.079 . S
O122 C124 1.273 . S
C123 O119 1.246 . S
C123 O120 1.259 1_554 S
C124 O121 1.252 . S
C124 O122 1.273 . S
O125 Mg112 2.010 1_554 S
O125 C117 1.249 . S
Mg126 O127 2.028 . S
Mg126 O133 1.986 . S
Mg126 O135 2.114 . S
Mg126 O136 2.251 . S
Mg126 O139 2.010 . S
O127 Mg126 2.028 . S
O127 C130 1.250 . S
O128 Mg129 2.028 . S
O128 C130 1.248 . S
Mg129 O128 2.028 . S
Mg129 O134 2.032 . S
Mg129 O136 2.079 . S
C130 O127 1.250 . S
C130 O128 1.248 . S
C131 O132 1.264 . S
C131 O139 1.249 . S
O132 C131 1.264 . S
O133 Mg126 1.986 . S
O133 C137 1.246 . S
O134 Mg129 2.032 . S
O134 C137 1.259 . S
O135 Mg126 2.114 . S
O135 C138 1.252 . S
O136 Mg126 2.251 . S
O136 Mg129 2.079 . S
O136 C138 1.273 . S
C137 O133 1.246 . S
C137 O134 1.259 . S
C138 O135 1.252 . S
C138 O136 1.273 . S
O139 Mg126 2.010 . S
O139 C131 1.249 . S
Mg140 O141 2.028 . S
Mg140 O147 1.986 . S
Mg140 O149 2.114 . S
Mg140 O150 2.251 . S
Mg140 O153 2.010 . S
O141 Mg140 2.028 . S
O141 C144 1.250 . S
O142 Mg143 2.028 . S
O142 C144 1.248 . S
Mg143 O142 2.028 . S
Mg143 O148 2.032 . S
Mg143 O150 2.079 . S
C144 O141 1.250 . S
C144 O142 1.248 . S
C145 O146 1.264 . S
C145 O153 1.249 . S
O146 C145 1.264 . S
O147 Mg140 1.986 . S
O147 C151 1.246 . S
O148 Mg143 2.032 . S
O148 C151 1.259 . S
O149 Mg140 2.114 . S
O149 C152 1.252 . S
O150 Mg140 2.251 . S
O150 Mg143 2.079 . S
O150 C152 1.273 . S
C151 O147 1.246 . S
C151 O148 1.259 . S
C152 O149 1.252 . S
C152 O150 1.273 . S
O153 Mg140 2.010 . S
O153 C145 1.249 . S
Mg154 O155 2.028 1_556 S
Mg154 O161 1.986 1_556 S
Mg154 O163 2.114 . S
Mg154 O164 2.251 . S
Mg154 O167 2.010 1_556 S
O155 Mg154 2.028 1_554 S
O155 C158 1.250 1_554 S
O156 Mg157 2.028 . S
O156 C158 1.248 . S
Mg157 O156 2.028 . S
Mg157 O162 2.032 . S
Mg157 O164 2.079 . S
C158 O155 1.250 1_556 S
C158 O156 1.248 . S
C159 O160 1.264 . S
C159 O167 1.249 . S
O160 C159 1.264 . S
O161 Mg154 1.986 1_554 S
O161 C165 1.246 . S
O162 Mg157 2.032 . S
O162 C165 1.259 1_556 S
O163 Mg154 2.114 . S
O163 C166 1.252 . S
O164 Mg154 2.251 . S
O164 Mg157 2.079 . S
O164 C166 1.273 . S
C165 O161 1.246 . S
C165 O162 1.259 1_554 S
C166 O163 1.252 . S
C166 O164 1.273 . S
O167 Mg154 2.010 1_554 S
O167 C159 1.249 . S
C168 C169 1.387 . S
C168 H172 0.950 . S
C168 C177 1.390 . S
C169 C168 1.387 . S
C169 C171 1.387 . S
H170 C177 0.950 . S
C171 C169 1.387 . S
C171 C173 1.390 . S
C171 H175 0.950 . S
H172 C168 0.950 . S
C173 C171 1.390 . S
C173 C174 1.387 . S
C173 H176 0.950 . S
C174 C173 1.387 . S
C174 C177 1.387 . S
H175 C171 0.950 . S
H176 C173 0.950 . S
C177 C168 1.390 . S
C177 H170 0.950 . S
C177 C174 1.387 . S
C178 C179 1.387 . S
C178 H182 0.950 . S
C178 C187 1.390 . S
C179 C178 1.387 . S
C179 C181 1.387 . S
H180 C187 0.950 . S
C181 C179 1.387 . S
C181 C183 1.390 . S
C181 H185 0.950 . S
H182 C178 0.950 . S
C183 C181 1.390 . S
C183 C184 1.387 . S
C183 H186 0.950 . S
C184 C183 1.387 . S
C184 C187 1.387 . S
H185 C181 0.950 . S
H186 C183 0.950 . S
C187 C178 1.390 . S
C187 H180 0.950 . S
C187 C184 1.387 . S
C188 C189 1.387 . S
C188 H192 0.950 . S
C188 C197 1.390 1_556 S
C189 C188 1.387 . S
C189 C191 1.387 . S
H190 C197 0.950 . S
C191 C189 1.387 . S
C191 C193 1.390 1_556 S
C191 H195 0.950 . S
H192 C188 0.950 . S
C193 C191 1.390 1_554 S
C193 C194 1.387 . S
C193 H196 0.950 . S
C194 C193 1.387 . S
C194 C197 1.387 . S
H195 C191 0.950 . S
H196 C193 0.950 . S
C197 C188 1.390 1_554 S
C197 H190 0.950 . S
C197 C194 1.387 . S
C198 C199 1.387 . S
C198 H202 0.950 . S
C198 C207 1.390 . S
C199 C198 1.387 . S
C199 C201 1.387 . S
H200 C207 0.950 . S
C201 C199 1.387 . S
C201 C203 1.390 . S
C201 H205 0.950 . S
H202 C198 0.950 . S
C203 C201 1.390 . S
C203 C204 1.387 . S
C203 H206 0.950 . S
C204 C203 1.387 . S
C204 C207 1.387 . S
H205 C201 0.950 . S
H206 C203 0.950 . S
C207 C198 1.390 . S
C207 H200 0.950 . S
C207 C204 1.387 . S
C208 C209 1.387 . S
C208 H212 0.950 . S
C208 C217 1.390 . S
C209 C208 1.387 . S
C209 C211 1.387 . S
H210 C217 0.950 . S
C211 C209 1.387 . S
C211 C213 1.390 . S
C211 H215 0.950 . S
H212 C208 0.950 . S
C213 C211 1.390 . S
C213 C214 1.387 . S
C213 H216 0.950 . S
C214 C213 1.387 . S
C214 C217 1.387 . S
H215 C211 0.950 . S
H216 C213 0.950 . S
C217 C208 1.390 . S
C217 H210 0.950 . S
C217 C214 1.387 . S
C218 C219 1.387 . S
C218 H222 0.950 . S
C218 C227 1.390 1_554 S
C219 C218 1.387 . S
C219 C221 1.387 . S
H220 C227 0.950 . S
C221 C219 1.387 . S
C221 C223 1.390 1_554 S
C221 H225 0.950 . S
H222 C218 0.950 . S
C223 C221 1.390 1_556 S
C223 C224 1.387 . S
C223 H226 0.950 . S
C224 C223 1.387 . S
C224 C227 1.387 . S
H225 C221 0.950 . S
H226 C223 0.950 . S
C227 C218 1.390 1_556 S
C227 H220 0.950 . S
C227 C224 1.387 . S
C228 C229 1.387 . S
C228 H232 0.950 . S
C228 C237 1.390 . S
C229 C228 1.387 . S
C229 C231 1.387 . S
H230 C237 0.950 . S
C231 C229 1.387 . S
C231 C233 1.390 . S
C231 H235 0.950 . S
H232 C228 0.950 . S
C233 C231 1.390 . S
C233 C234 1.387 . S
C233 H236 0.950 . S
C234 C233 1.387 . S
C234 C237 1.387 . S
H235 C231 0.950 . S
H236 C233 0.950 . S
C237 C228 1.390 . S
C237 H230 0.950 . S
C237 C234 1.387 . S
C238 C239 1.387 . S
C238 H242 0.950 . S
C238 C247 1.390 1_655 S
C239 C238 1.387 . S
C239 C241 1.387 . S
H240 C247 0.950 . S
C241 C239 1.387 . S
C241 C243 1.390 1_655 S
C241 H245 0.950 . S
H242 C238 0.950 . S
C243 C241 1.390 1_455 S
C243 C244 1.387 . S
C243 H246 0.950 . S
C244 C243 1.387 . S
C244 C247 1.387 . S
H245 C241 0.950 . S
H246 C243 0.950 . S
C247 C238 1.390 1_455 S
C247 H240 0.950 . S
C247 C244 1.387 . S
C248 C249 1.387 . S
C248 H252 0.950 . S
C248 C257 1.390 1_544 S
C249 C248 1.387 . S
C249 C251 1.387 . S
H250 C257 0.950 . S
C251 C249 1.387 . S
C251 C253 1.390 1_544 S
C251 H255 0.950 . S
H252 C248 0.950 . S
C253 C251 1.390 1_566 S
C253 C254 1.387 . S
C253 H256 0.950 . S
C254 C253 1.387 . S
C254 C257 1.387 . S
H255 C251 0.950 . S
H256 C253 0.950 . S
C257 C248 1.390 1_566 S
C257 H250 0.950 . S
C257 C254 1.387 . S
C258 C259 1.387 . S
C258 H262 0.950 . S
C258 C267 1.390 . S
C259 C258 1.387 . S
C259 C261 1.387 . S
H260 C267 0.950 . S
C261 C259 1.387 . S
C261 C263 1.390 . S
C261 H265 0.950 . S
H262 C258 0.950 . S
C263 C261 1.390 . S
C263 C264 1.387 . S
C263 H266 0.950 . S
C264 C263 1.387 . S
C264 C267 1.387 . S
H265 C261 0.950 . S
H266 C263 0.950 . S
C267 C258 1.390 . S
C267 H260 0.950 . S
C267 C264 1.387 . S
C268 C269 1.387 . S
C268 H272 0.950 . S
C268 C277 1.390 1_455 S
C269 C268 1.387 . S
C269 C271 1.387 . S
H270 C277 0.950 . S
C271 C269 1.387 . S
C271 C273 1.390 1_455 S
C271 H275 0.950 . S
H272 C268 0.950 . S
C273 C271 1.390 1_655 S
C273 C274 1.387 . S
C273 H276 0.950 . S
C274 C273 1.387 . S
C274 C277 1.387 . S
H275 C271 0.950 . S
H276 C273 0.950 . S
C277 C268 1.390 1_655 S
C277 H270 0.950 . S
C277 C274 1.387 . S
C278 C279 1.387 . S
C278 H282 0.950 . S
C278 C287 1.390 1_546 S
C279 C278 1.387 . S
C279 C281 1.387 . S
H280 C287 0.950 . S
C281 C279 1.387 . S
C281 C283 1.390 1_546 S
C281 H285 0.950 . S
H282 C278 0.950 . S
C283 C281 1.390 1_564 S
C283 C284 1.387 . S
C283 H286 0.950 . S
C284 C283 1.387 . S
C284 C287 1.387 . S
H285 C281 0.950 . S
H286 C283 0.950 . S
C287 C278 1.390 1_564 S
C287 H280 0.950 . S
C287 C284 1.387 . S
C288 C289 1.387 . S
C288 H292 0.950 . S
C288 C297 1.390 . S
C289 C288 1.387 . S
C289 C291 1.387 1_655 S
H290 C297 0.950 . S
C291 C289 1.387 1_455 S
C291 C293 1.390 . S
C291 H295 0.950 . S
H292 C288 0.950 . S
C293 C291 1.390 . S
C293 C294 1.387 . S
C293 H296 0.950 . S
C294 C293 1.387 . S
C294 C297 1.387 1_455 S
H295 C291 0.950 . S
H296 C293 0.950 . S
C297 C288 1.390 . S
C297 H290 0.950 . S
C297 C294 1.387 1_655 S
C298 C299 1.387 . S
C298 H302 0.950 . S
C298 C307 1.390 1_545 S
C299 C298 1.387 . S
C299 C301 1.387 . S
H300 C307 0.950 . S
C301 C299 1.387 . S
C301 C303 1.390 1_545 S
C301 H305 0.950 . S
H302 C298 0.950 . S
C303 C301 1.390 1_565 S
C303 C304 1.387 . S
C303 H306 0.950 . S
C304 C303 1.387 . S
C304 C307 1.387 . S
H305 C301 0.950 . S
H306 C303 0.950 . S
C307 C298 1.390 1_565 S
C307 H300 0.950 . S
C307 C304 1.387 . S
C308 C309 1.387 . S
C308 H312 0.950 . S
C308 C317 1.390 . S
C309 C308 1.387 . S
C309 C311 1.387 . S
H310 C317 0.950 . S
C311 C309 1.387 . S
C311 C313 1.390 . S
C311 H315 0.950 . S
H312 C308 0.950 . S
C313 C311 1.390 . S
C313 C314 1.387 . S
C313 H316 0.950 . S
C314 C313 1.387 . S
C314 C317 1.387 . S
H315 C311 0.950 . S
H316 C313 0.950 . S
C317 C308 1.390 . S
C317 H310 0.950 . S
C317 C314 1.387 . S
C318 C319 1.387 1_655 S
C318 H322 0.950 . S
C318 C327 1.390 . S
C319 C318 1.387 1_455 S
C319 C321 1.387 . S
H320 C327 0.950 . S
C321 C319 1.387 . S
C321 C323 1.390 . S
C321 H325 0.950 . S
H322 C318 0.950 . S
C323 C321 1.390 . S
C323 C324 1.387 1_455 S
C323 H326 0.950 . S
C324 C323 1.387 1_655 S
C324 C327 1.387 . S
H325 C321 0.950 . S
H326 C323 0.950 . S
C327 C318 1.390 . S
C327 H320 0.950 . S
C327 C324 1.387 . S
C328 C329 1.387 . S
C328 H332 0.950 . S
C328 C337 1.390 1_545 S
C329 C328 1.387 . S
C329 C331 1.387 . S
H330 C337 0.950 . S
C331 C329 1.387 . S
C331 C333 1.390 1_545 S
C331 H335 0.950 . S
H332 C328 0.950 . S
C333 C331 1.390 1_565 S
C333 C334 1.387 . S
C333 H336 0.950 . S
C334 C333 1.387 . S
C334 C337 1.387 . S
H335 C331 0.950 . S
H336 C333 0.950 . S
C337 C328 1.390 1_565 S
C337 H330 0.950 . S
C337 C334 1.387 . S
C338 C339 1.387 . S
C338 H342 0.950 . S
C338 C347 1.390 . S
C339 C338 1.387 . S
C339 C341 1.387 . S
H340 C347 0.950 . S
C341 C339 1.387 . S
C341 C343 1.390 . S
C341 H345 0.950 . S
H342 C338 0.950 . S
C343 C341 1.390 . S
C343 C344 1.387 . S
C343 H346 0.950 . S
C344 C343 1.387 . S
C344 C347 1.387 . S
H345 C341 0.950 . S
H346 C343 0.950 . S
C347 C338 1.390 . S
C347 H340 0.950 . S
C347 C344 1.387 . S
C348 C349 1.387 . S
C348 H352 0.950 . S
C348 C357 1.390 . S
C349 C348 1.387 . S
C349 C351 1.387 . S
H350 C357 0.950 . S
C351 C349 1.387 . S
C351 C353 1.390 . S
C351 H355 0.950 . S
H352 C348 0.950 . S
C353 C351 1.390 . S
C353 C354 1.387 . S
C353 H356 0.950 . S
C354 C353 1.387 . S
C354 C357 1.387 . S
H355 C351 0.950 . S
H356 C353 0.950 . S
C357 C348 1.390 . S
C357 H350 0.950 . S
C357 C354 1.387 . S
C358 C359 1.387 . S
C358 H362 0.950 . S
C358 C367 1.390 . S
C359 C358 1.387 . S
C359 C361 1.387 . S
H360 C367 0.950 . S
C361 C359 1.387 . S
C361 C363 1.390 . S
C361 H365 0.950 . S
H362 C358 0.950 . S
C363 C361 1.390 . S
C363 C364 1.387 . S
C363 H366 0.950 . S
C364 C363 1.387 . S
C364 C367 1.387 . S
H365 C361 0.950 . S
H366 C363 0.950 . S
C367 C358 1.390 . S
C367 H360 0.950 . S
C367 C364 1.387 . S
C368 C369 1.387 . S
C368 H372 0.950 . S
C368 C377 1.390 . S
C369 C368 1.387 . S
C369 C371 1.387 . S
H370 C377 0.950 . S
C371 C369 1.387 . S
C371 C373 1.390 . S
C371 H375 0.950 . S
H372 C368 0.950 . S
C373 C371 1.390 . S
C373 C374 1.387 . S
C373 H376 0.950 . S
C374 C373 1.387 . S
C374 C377 1.387 . S
H375 C371 0.950 . S
H376 C373 0.950 . S
C377 C368 1.390 . S
C377 H370 0.950 . S
C377 C374 1.387 . S
C378 C379 1.387 . S
C378 H382 0.950 . S
C378 C387 1.390 . S
C379 C378 1.387 . S
C379 C381 1.387 . S
H380 C387 0.950 . S
C381 C379 1.387 . S
C381 C383 1.390 . S
C381 H385 0.950 . S
H382 C378 0.950 . S
C383 C381 1.390 . S
C383 C384 1.387 . S
C383 H386 0.950 . S
C384 C383 1.387 . S
C384 C387 1.387 . S
H385 C381 0.950 . S
H386 C383 0.950 . S
C387 C378 1.390 . S
C387 H380 0.950 . S
C387 C384 1.387 . S
C388 C389 1.387 . S
C388 H392 0.950 . S
C388 C397 1.390 . S
C389 C388 1.387 . S
C389 C391 1.387 . S
H390 C397 0.950 . S
C391 C389 1.387 . S
C391 C393 1.390 . S
C391 H395 0.950 . S
H392 C388 0.950 . S
C393 C391 1.390 . S
C393 C394 1.387 . S
C393 H396 0.950 . S
C394 C393 1.387 . S
C394 C397 1.387 . S
H395 C391 0.950 . S
H396 C393 0.950 . S
C397 C388 1.390 . S
C397 H390 0.950 . S
C397 C394 1.387 . S
C398 C399 1.387 . S
C398 H402 0.950 . S
C398 C407 1.390 . S
C399 C398 1.387 . S
C399 C401 1.387 . S
H400 C407 0.950 . S
C401 C399 1.387 . S
C401 C403 1.390 . S
C401 H405 0.950 . S
H402 C398 0.950 . S
C403 C401 1.390 . S
C403 C404 1.387 . S
C403 H406 0.950 . S
C404 C403 1.387 . S
C404 C407 1.387 . S
H405 C401 0.950 . S
H406 C403 0.950 . S
C407 C398 1.390 . S
C407 H400 0.950 . S
C407 C404 1.387 . S
C169 C11 1.382 . S
C174 C95 1.380 . S
C179 C25 1.381 . S
C184 C109 1.383 . S
C189 C39 1.379 . S
C194 C123 1.379 . S
C199 C137 1.381 . S
C204 C53 1.379 . S
C209 C67 1.380 . S
C214 C151 1.382 . S
C219 C165 1.379 . S
C224 C81 1.379 . S
C229 C4 0.913 . S
C234 C130 0.917 . S
C239 C18 0.917 . S
C244 C144 0.913 . S
C249 C158 0.917 1_554 S
C254 C32 0.917 1_556 S
C259 C88 0.918 . S
C264 C46 0.916 . S
C269 C60 0.918 . S
C274 C102 0.915 . S
C279 C74 0.917 1_556 S
C284 C116 0.917 1_554 S
C289 C159 1.561 . S
C294 C5 1.564 . S
C299 C19 1.562 . S
C304 C89 1.562 . S
C309 C33 1.564 . S
C314 C103 1.560 . S
C319 C117 1.563 . S
C324 C47 1.560 . S
C329 C131 1.563 . S
C334 C61 1.563 . S
C339 C75 1.564 . S
C344 C145 1.560 . S
C349 C12 0.994 . S
C354 C152 0.994 . S
C359 C166 0.995 . S
C364 C26 0.995 . S
C369 C96 0.997 . S
C374 C40 0.996 . S
C379 C54 0.994 . S
C384 C110 0.994 . S
C389 C124 1.001 . S
C394 C68 1.001 . S
C399 C138 0.996 . S
C404 C82 0.997 . S
