# Generated by pormake.
# Topology zfy, (5)-cn, num edge types: 1
# Building blocks:
#     Node 0, Type 0, BuildingBlock: BEQFEK_clean_sbu_0, # of connection points: 5
#     Node 1, Type 0, BuildingBlock: BEQFEK_clean_sbu_0, # of connection points: 5
#     Node 2, Type 0, BuildingBlock: BEQFEK_clean_sbu_0, # of connection points: 5
#     Node 3, Type 0, BuildingBlock: BEQFEK_clean_sbu_0, # of connection points: 5
#     Node 4, Type 0, BuildingBlock: BEQFEK_clean_sbu_0, # of connection points: 5
#     Node 5, Type 0, BuildingBlock: BEQFEK_clean_sbu_0, # of connection points: 5
#     Node 6, Type 0, BuildingBlock: BEQFEK_clean_sbu_0, # of connection points: 5
#     Node 7, Type 0, BuildingBlock: BEQFEK_clean_sbu_0, # of connection points: 5
#     Node 8, Type 0, BuildingBlock: BEQFEK_clean_sbu_0, # of connection points: 5
#     Node 9, Type 0, BuildingBlock: BEQFEK_clean_sbu_0, # of connection points: 5
#     Node 10, Type 0, BuildingBlock: BEQFEK_clean_sbu_0, # of connection points: 5
#     Node 11, Type 0, BuildingBlock: BEQFEK_clean_sbu_0, # of connection points: 5
#     Node 12, Type 0, BuildingBlock: BEQFEK_clean_sbu_0, # of connection points: 5
#     Node 13, Type 0, BuildingBlock: BEQFEK_clean_sbu_0, # of connection points: 5
#     Node 14, Type 0, BuildingBlock: BEQFEK_clean_sbu_0, # of connection points: 5
#     Node 15, Type 0, BuildingBlock: BEQFEK_clean_sbu_0, # of connection points: 5
#     Edge 16, Type (0, 0), BuildingBlock: MIFKUJ_clean_linker_0, # of connection points: 2
#     Edge 17, Type (0, 0), BuildingBlock: MIFKUJ_clean_linker_0, # of connection points: 2
#     Edge 18, Type (0, 0), BuildingBlock: MIFKUJ_clean_linker_0, # of connection points: 2
#     Edge 19, Type (0, 0), BuildingBlock: MIFKUJ_clean_linker_0, # of connection points: 2
#     Edge 20, Type (0, 0), BuildingBlock: MIFKUJ_clean_linker_0, # of connection points: 2
#     Edge 21, Type (0, 0), BuildingBlock: MIFKUJ_clean_linker_0, # of connection points: 2
#     Edge 22, Type (0, 0), BuildingBlock: MIFKUJ_clean_linker_0, # of connection points: 2
#     Edge 23, Type (0, 0), BuildingBlock: MIFKUJ_clean_linker_0, # of connection points: 2
#     Edge 24, Type (0, 0), BuildingBlock: MIFKUJ_clean_linker_0, # of connection points: 2
#     Edge 25, Type (0, 0), BuildingBlock: MIFKUJ_clean_linker_0, # of connection points: 2
#     Edge 26, Type (0, 0), BuildingBlock: MIFKUJ_clean_linker_0, # of connection points: 2
#     Edge 27, Type (0, 0), BuildingBlock: MIFKUJ_clean_linker_0, # of connection points: 2
#     Edge 28, Type (0, 0), BuildingBlock: MIFKUJ_clean_linker_0, # of connection points: 2
#     Edge 29, Type (0, 0), BuildingBlock: MIFKUJ_clean_linker_0, # of connection points: 2
#     Edge 30, Type (0, 0), BuildingBlock: MIFKUJ_clean_linker_0, # of connection points: 2
#     Edge 31, Type (0, 0), BuildingBlock: MIFKUJ_clean_linker_0, # of connection points: 2
#     Edge 32, Type (0, 0), BuildingBlock: MIFKUJ_clean_linker_0, # of connection points: 2
#     Edge 33, Type (0, 0), BuildingBlock: MIFKUJ_clean_linker_0, # of connection points: 2
#     Edge 34, Type (0, 0), BuildingBlock: MIFKUJ_clean_linker_0, # of connection points: 2
#     Edge 35, Type (0, 0), BuildingBlock: MIFKUJ_clean_linker_0, # of connection points: 2
#     Edge 36, Type (0, 0), BuildingBlock: MIFKUJ_clean_linker_0, # of connection points: 2
#     Edge 37, Type (0, 0), BuildingBlock: MIFKUJ_clean_linker_0, # of connection points: 2
#     Edge 38, Type (0, 0), BuildingBlock: MIFKUJ_clean_linker_0, # of connection points: 2
#     Edge 39, Type (0, 0), BuildingBlock: MIFKUJ_clean_linker_0, # of connection points: 2
#     Edge 40, Type (0, 0), BuildingBlock: MIFKUJ_clean_linker_0, # of connection points: 2
#     Edge 41, Type (0, 0), BuildingBlock: MIFKUJ_clean_linker_0, # of connection points: 2
#     Edge 42, Type (0, 0), BuildingBlock: MIFKUJ_clean_linker_0, # of connection points: 2
#     Edge 43, Type (0, 0), BuildingBlock: MIFKUJ_clean_linker_0, # of connection points: 2
#     Edge 44, Type (0, 0), BuildingBlock: MIFKUJ_clean_linker_0, # of connection points: 2
#     Edge 45, Type (0, 0), BuildingBlock: MIFKUJ_clean_linker_0, # of connection points: 2
#     Edge 46, Type (0, 0), BuildingBlock: MIFKUJ_clean_linker_0, # of connection points: 2
#     Edge 47, Type (0, 0), BuildingBlock: MIFKUJ_clean_linker_0, # of connection points: 2
#     Edge 48, Type (0, 0), BuildingBlock: MIFKUJ_clean_linker_0, # of connection points: 2
#     Edge 49, Type (0, 0), BuildingBlock: MIFKUJ_clean_linker_0, # of connection points: 2
#     Edge 50, Type (0, 0), BuildingBlock: MIFKUJ_clean_linker_0, # of connection points: 2
#     Edge 51, Type (0, 0), BuildingBlock: MIFKUJ_clean_linker_0, # of connection points: 2
#     Edge 52, Type (0, 0), BuildingBlock: MIFKUJ_clean_linker_0, # of connection points: 2
#     Edge 53, Type (0, 0), BuildingBlock: MIFKUJ_clean_linker_0, # of connection points: 2
#     Edge 54, Type (0, 0), BuildingBlock: MIFKUJ_clean_linker_0, # of connection points: 2
#     Edge 55, Type (0, 0), BuildingBlock: MIFKUJ_clean_linker_0, # of connection points: 2
# Relax obj value: 0.200
# Max RMSD: 0.146
# Mean RMSD: 0.146
data_MOF--net-zfy--node1-BEQFEK_clean_sbu_0--edge1-MIFKUJ_clean_linker_0
_symmetry_space_group_name_H-M    P1
_symmetry_Int_Tables_number       1
_symmetry_cell_setting            triclinic
loop_
_symmetry_equiv_pos_as_xyz
'x, y, z'
_cell_length_a     70.561053
_cell_length_b     70.610217
_cell_length_c     34.997058
_cell_angle_alpha  89.979275
_cell_angle_beta   90.049866
_cell_angle_gamma 90.011715
loop_
_atom_site_label
_atom_site_type_symbol
_atom_site_fract_x
_atom_site_fract_y
_atom_site_fract_z
_atom_type_partial_charge
Co0 Co 0.31632 0.16934 0.0837 0.0
Co1 Co 0.31147 0.20194 0.02365 0.0
C2 C 0.30557 0.20778 0.10927 0.0
O3 O 0.31018 0.19082 0.11731 0.0
O4 O 0.30568 0.21369 0.07479 0.0
C5 C 0.33107 0.14721 0.14671 0.0
O6 O 0.33569 0.16364 0.16166 0.0
C7 C 0.32727 0.23524 0.98488 0.0
C8 C 0.30736 0.2394 0.93691 0.0
C9 C 0.32389 0.24648 0.95296 0.0
N10 N 0.31356 0.22204 0.98713 0.0
N11 N 0.30165 0.22466 0.95847 0.0
C12 C 0.34264 0.23745 0.01403 0.0
H13 H 0.33831 0.23091 0.04152 0.0
H14 H 0.35563 0.23015 0.004 0.0
H15 H 0.34604 0.25265 0.01832 0.0
C16 C 0.3522 0.16408 0.04187 0.0
N17 N 0.33666 0.17444 0.04984 0.0
N18 N 0.33402 0.18695 0.02251 0.0
C19 C 0.34732 0.18429 0.99525 0.0
C20 C 0.3594 0.16976 0.00675 0.0
C21 C 0.35959 0.14852 0.06687 0.0
H22 H 0.36001 0.15347 0.09687 0.0
H23 H 0.37411 0.14419 0.0585 0.0
H24 H 0.34999 0.1361 0.06509 0.0
O25 O 0.29327 0.16277 0.05366 0.0
O26 O 0.28976 0.18543 0.01005 0.0
H27 H 0.35215 0.18288 0.9343 0.0
H28 H 0.35471 0.20596 0.95518 0.0
C29 C 0.34628 0.19272 0.956 0.0
H30 H 0.3314 0.196 0.94837 0.0
H31 H 0.28974 0.21627 0.95339 0.0
O32 O 0.32253 0.14677 0.11474 0.0
C33 C 0.28428 0.17003 0.02559 0.0
Co34 Co 0.59012 0.5624 0.31841 0.0
Co35 Co 0.55448 0.55973 0.26469 0.0
C36 C 0.55138 0.55254 0.34916 0.0
O37 O 0.56901 0.55584 0.35363 0.0
O38 O 0.54359 0.55397 0.31633 0.0
C39 C 0.61302 0.57838 0.37886 0.0
O40 O 0.59676 0.58392 0.39326 0.0
C41 C 0.51819 0.57124 0.22861 0.0
C42 C 0.52229 0.56027 0.17011 0.0
C43 C 0.51004 0.57094 0.19233 0.0
N44 N 0.53462 0.56152 0.22737 0.0
N45 N 0.53673 0.55469 0.19251 0.0
C46 C 0.5118 0.58232 0.26268 0.0
H47 H 0.52369 0.58428 0.28312 0.0
H48 H 0.50618 0.59633 0.25378 0.0
H49 H 0.50029 0.57445 0.2773 0.0
C50 C 0.59529 0.59818 0.27619 0.0
N51 N 0.58467 0.58301 0.2856 0.0
N52 N 0.5695 0.58247 0.26375 0.0
C53 C 0.56979 0.59772 0.2403 0.0
C54 C 0.58618 0.60818 0.24732 0.0
C55 C 0.61513 0.60125 0.29027 0.0
H56 H 0.62273 0.58753 0.29154 0.0
H57 H 0.61464 0.60738 0.31943 0.0
H58 H 0.62326 0.61089 0.27143 0.0
O59 O 0.59586 0.54001 0.28727 0.0
O60 O 0.57064 0.53755 0.24951 0.0
H61 H 0.55469 0.59091 0.18906 0.0
H62 H 0.55696 0.61609 0.19774 0.0
C63 C 0.5548 0.60207 0.21132 0.0
H64 H 0.54082 0.60228 0.2255 0.0
H65 H 0.54852 0.54696 0.18351 0.0
O66 O 0.61311 0.56852 0.3485 0.0
C67 C 0.58675 0.53154 0.26093 0.0
Co68 Co 0.18728 0.83882 0.57085 0.0
Co69 Co 0.19479 0.80487 0.51455 0.0
C70 C 0.20106 0.80175 0.60052 0.0
O71 O 0.19522 0.81855 0.60667 0.0
O72 O 0.20136 0.7949 0.56675 0.0
C73 C 0.18521 0.86909 0.62894 0.0
O74 O 0.20086 0.86225 0.64392 0.0
C75 C 0.18437 0.76814 0.48074 0.0
C76 C 0.19833 0.76955 0.42439 0.0
C77 C 0.18607 0.75857 0.44609 0.0
N78 N 0.19463 0.7842 0.47891 0.0
N79 N 0.20319 0.78478 0.44538 0.0
C80 C 0.1733 0.76229 0.51527 0.0
H81 H 0.18012 0.76778 0.54156 0.0
H82 H 0.15883 0.76836 0.51373 0.0
H83 H 0.17222 0.74663 0.51701 0.0
C84 C 0.15133 0.83998 0.52781 0.0
N85 N 0.1677 0.8312 0.53688 0.0
N86 N 0.17082 0.81745 0.51236 0.0
C87 C 0.15659 0.81729 0.4864 0.0
C88 C 0.14371 0.83151 0.49548 0.0
C89 C 0.14486 0.85801 0.54604 0.0
H90 H 0.15594 0.86898 0.54204 0.0
H91 H 0.14291 0.85565 0.57713 0.0
H92 H 0.13143 0.86336 0.53367 0.0
O93 O 0.2099 0.8467 0.54126 0.0
O94 O 0.21501 0.8233 0.49987 0.0
H95 H 0.16968 0.80585 0.43623 0.0
H96 H 0.14424 0.80847 0.43233 0.0
C97 C 0.15606 0.8048 0.45184 0.0
H98 H 0.15402 0.78994 0.46093 0.0
H99 H 0.21176 0.79593 0.43623 0.0
O100 O 0.178 0.86113 0.5998 0.0
C101 C 0.2194 0.8394 0.51399 0.0
Co102 Co 0.91362 0.43745 0.827 0.0
Co103 Co 0.9487 0.44209 0.77256 0.0
C104 C 0.95146 0.44873 0.85802 0.0
O105 O 0.934 0.44482 0.86308 0.0
O106 O 0.959 0.44765 0.8249 0.0
C107 C 0.8884 0.42635 0.88971 0.0
O108 O 0.90318 0.42777 0.91238 0.0
C109 C 0.98382 0.42859 0.73626 0.0
C110 C 0.98383 0.44495 0.68247 0.0
C111 C 0.99341 0.43076 0.70186 0.0
N112 N 0.96918 0.4408 0.73686 0.0
N113 N 0.96948 0.45076 0.70489 0.0
C114 C 0.98713 0.41382 0.76618 0.0
H115 H 0.97446 0.41226 0.78469 0.0
H116 H 0.99068 0.40005 0.75269 0.0
H117 H 0.9993 0.41817 0.78425 0.0
C118 C 0.91084 0.40104 0.78675 0.0
N119 N 0.92053 0.41695 0.79505 0.0
N120 N 0.93414 0.41926 0.76985 0.0
C121 C 0.93302 0.40518 0.74371 0.0
C122 C 0.91817 0.39315 0.75359 0.0
C123 C 0.89423 0.39401 0.80922 0.0
H124 H 0.88169 0.40292 0.80272 0.0
H125 H 0.89735 0.39506 0.84019 0.0
H126 H 0.89091 0.37904 0.80226 0.0
O127 O 0.90716 0.45978 0.79502 0.0
O128 O 0.93243 0.46382 0.75794 0.0
H129 H 0.94547 0.4196 0.69591 0.0
H130 H 0.93644 0.39636 0.6848 0.0
C131 C 0.94376 0.40498 0.70682 0.0
H132 H 0.95801 0.39883 0.71179 0.0
H133 H 0.95937 0.46092 0.69761 0.0
O134 O 0.89012 0.43036 0.85449 0.0
C135 C 0.91605 0.46892 0.76924 0.0
Co136 Co 0.6898 0.84006 0.92431 0.0
Co137 Co 0.69247 0.80507 0.98011 0.0
C138 C 0.70051 0.80091 0.8965 0.0
O139 O 0.69713 0.81843 0.89101 0.0
O140 O 0.69878 0.79354 0.92959 0.0
C141 C 0.66952 0.8605 0.86774 0.0
O142 O 0.66016 0.84444 0.86565 0.0
C143 C 0.68139 0.76897 0.01801 0.0
C144 C 0.69174 0.77415 0.07662 0.0
C145 C 0.68158 0.76127 0.0548 0.0
N146 N 0.69048 0.78577 0.01875 0.0
N147 N 0.69689 0.78857 0.05376 0.0
C148 C 0.67294 0.76062 0.98256 0.0
H149 H 0.68042 0.76589 0.95689 0.0
H150 H 0.65787 0.76492 0.98027 0.0
H151 H 0.67377 0.74492 0.98332 0.0
C152 C 0.65375 0.84545 0.96621 0.0
N153 N 0.66897 0.83482 0.95694 0.0
N154 N 0.66965 0.81993 0.97958 0.0
C155 C 0.65456 0.82049 0.0034 0.0
C156 C 0.64397 0.83661 0.99552 0.0
C157 C 0.6505 0.86531 0.9525 0.0
H158 H 0.66419 0.87241 0.9466 0.0
H159 H 0.64189 0.86493 0.92601 0.0
H160 H 0.64268 0.87382 0.97398 0.0
O161 O 0.71175 0.8469 0.95625 0.0
O162 O 0.71441 0.8217 0.99424 0.0
H163 H 0.66237 0.80739 0.0562 0.0
H164 H 0.63707 0.80915 0.04888 0.0
C165 C 0.65087 0.80653 0.03467 0.0
H166 H 0.65064 0.79206 0.02261 0.0
H167 H 0.70421 0.80068 0.06239 0.0
O168 O 0.6835 0.86175 0.89054 0.0
C169 C 0.72018 0.83788 0.98283 0.0
Co170 Co 0.41716 0.4398 0.6803 0.0
Co171 Co 0.45195 0.44487 0.73573 0.0
C172 C 0.45516 0.45136 0.65027 0.0
O173 O 0.43774 0.44734 0.64501 0.0
O174 O 0.46262 0.45037 0.68351 0.0
C175 C 0.39342 0.42654 0.61738 0.0
O176 O 0.40924 0.42502 0.59786 0.0
C177 C 0.48676 0.4315 0.7743 0.0
C178 C 0.48682 0.44918 0.82635 0.0
C179 C 0.49629 0.43437 0.8087 0.0
N180 N 0.47229 0.44389 0.77217 0.0
N181 N 0.47262 0.4546 0.80311 0.0
C182 C 0.49001 0.4161 0.74571 0.0
H183 H 0.47734 0.41423 0.72726 0.0
H184 H 0.49346 0.40258 0.76037 0.0
H185 H 0.50218 0.42001 0.72728 0.0
C186 C 0.41447 0.4034 0.72071 0.0
N187 N 0.42402 0.41943 0.71266 0.0
N188 N 0.43749 0.4219 0.73819 0.0
C189 C 0.4364 0.40777 0.76427 0.0
C190 C 0.42179 0.39554 0.75395 0.0
C191 C 0.39812 0.39617 0.69766 0.0
H192 H 0.40175 0.39673 0.66689 0.0
H193 H 0.39454 0.38133 0.70521 0.0
H194 H 0.38556 0.4053 0.70263 0.0
O195 O 0.41028 0.46207 0.71196 0.0
O196 O 0.43531 0.46654 0.74961 0.0
H197 H 0.43906 0.39955 0.82364 0.0
H198 H 0.4609 0.40091 0.79741 0.0
C199 C 0.44687 0.40766 0.80152 0.0
H200 H 0.449 0.42233 0.81184 0.0
H201 H 0.46265 0.4651 0.80914 0.0
O202 O 0.39397 0.43278 0.65142 0.0
C203 C 0.4189 0.47139 0.73787 0.0
Co204 Co 0.81704 0.16361 0.43652 0.0
Co205 Co 0.80905 0.19714 0.49308 0.0
C206 C 0.80199 0.19984 0.40707 0.0
O207 O 0.80879 0.18353 0.39993 0.0
O208 O 0.80125 0.20629 0.44107 0.0
C209 C 0.82091 0.13495 0.37589 0.0
O210 O 0.80788 0.14424 0.35669 0.0
C211 C 0.82123 0.23337 0.52565 0.0
C212 C 0.80364 0.23562 0.57759 0.0
C213 C 0.81817 0.24448 0.55781 0.0
N214 N 0.80937 0.21846 0.52687 0.0
N215 N 0.79873 0.22002 0.55776 0.0
C216 C 0.83479 0.23705 0.49359 0.0
H217 H 0.82968 0.23018 0.46698 0.0
H218 H 0.84885 0.231 0.5006 0.0
H219 H 0.83652 0.25251 0.48899 0.0
C220 C 0.85339 0.16323 0.47821 0.0
N221 N 0.83681 0.1717 0.4695 0.0
N222 N 0.83316 0.18485 0.49504 0.0
C223 C 0.84703 0.18464 0.52178 0.0
C224 C 0.86044 0.17107 0.51172 0.0
C225 C 0.86058 0.14585 0.45853 0.0
H226 H 0.85081 0.13392 0.46467 0.0
H227 H 0.8608 0.14825 0.42721 0.0
H228 H 0.87498 0.14184 0.46823 0.0
O229 O 0.79474 0.15557 0.46779 0.0
O230 O 0.7894 0.17882 0.50937 0.0
H231 H 0.83173 0.19578 0.56981 0.0
H232 H 0.85615 0.18989 0.5802 0.0
C233 C 0.84637 0.19567 0.55835 0.0
H234 H 0.85076 0.21045 0.5528 0.0
H235 H 0.78848 0.21015 0.56586 0.0
O236 O 0.82609 0.14096 0.40849 0.0
C237 C 0.78531 0.16261 0.49549 0.0
Co238 Co 0.08837 0.56578 0.17531 0.0
Co239 Co 0.05531 0.56056 0.23436 0.0
C240 C 0.04951 0.55436 0.14966 0.0
O241 O 0.06659 0.55895 0.14242 0.0
O242 O 0.04318 0.55468 0.1838 0.0
C243 C 0.10854 0.58429 0.11449 0.0
O244 O 0.09176 0.59098 0.10538 0.0
C245 C 0.01996 0.5717 0.27297 0.0
C246 C 0.02334 0.55808 0.32937 0.0
C247 C 0.01159 0.57012 0.30885 0.0
N248 N 0.03597 0.56133 0.27274 0.0
N249 N 0.0377 0.55294 0.30631 0.0
C250 C 0.01427 0.58453 0.24091 0.0
H251 H 0.02637 0.5869 0.22122 0.0
H252 H 0.00914 0.59829 0.25219 0.0
H253 H 0.00258 0.57782 0.22457 0.0
C254 C 0.09362 0.6012 0.21926 0.0
N255 N 0.08326 0.58578 0.21005 0.0
N256 N 0.06944 0.58377 0.23497 0.0
C257 C 0.07061 0.59795 0.26085 0.0
C258 C 0.08592 0.60948 0.25166 0.0
C259 C 0.11227 0.60607 0.20124 0.0
H260 H 0.12097 0.5931 0.19808 0.0
H261 H 0.1097 0.61214 0.17248 0.0
H262 H 0.12037 0.61651 0.21838 0.0
O263 O 0.09589 0.54299 0.2042 0.0
O264 O 0.0729 0.53928 0.24702 0.0
H265 H 0.05893 0.58652 0.3124 0.0
H266 H 0.06218 0.61194 0.31345 0.0
C267 C 0.05817 0.59972 0.2953 0.0
H268 H 0.04334 0.60184 0.28596 0.0
H269 H 0.04913 0.54438 0.31406 0.0
O270 O 0.11001 0.57291 0.14247 0.0
C271 C 0.08852 0.53399 0.23203 0.0
Co272 Co 0.81589 0.66407 0.57445 0.0
Co273 Co 0.81115 0.69859 0.51869 0.0
C274 C 0.80467 0.70223 0.6038 0.0
O275 O 0.80914 0.685 0.60961 0.0
O276 O 0.80512 0.70925 0.57027 0.0
C277 C 0.83587 0.64294 0.63078 0.0
O278 O 0.84468 0.65916 0.63556 0.0
C279 C 0.82386 0.73461 0.48508 0.0
C280 C 0.80785 0.73544 0.43086 0.0
C281 C 0.82145 0.74506 0.45181 0.0
N282 N 0.81252 0.7193 0.48342 0.0
N283 N 0.80281 0.72002 0.45114 0.0
C284 C 0.83632 0.73931 0.51843 0.0
H285 H 0.83074 0.73278 0.54492 0.0
H286 H 0.85077 0.73368 0.51354 0.0
H287 H 0.83739 0.7549 0.52204 0.0
C288 C 0.85164 0.6598 0.53031 0.0
N289 N 0.83616 0.66989 0.5404 0.0
N290 N 0.83418 0.68423 0.51665 0.0
C291 C 0.84829 0.68357 0.49053 0.0
C292 C 0.85995 0.66823 0.4987 0.0
C293 C 0.85656 0.64071 0.5462 0.0
H294 H 0.84349 0.63236 0.55111 0.0
H295 H 0.86409 0.64255 0.57376 0.0
H296 H 0.8659 0.63263 0.52663 0.0
O297 O 0.7931 0.65758 0.54412 0.0
O298 O 0.78971 0.6817 0.50372 0.0
H299 H 0.83578 0.69663 0.44128 0.0
H300 H 0.86082 0.69173 0.43619 0.0
C301 C 0.84961 0.69628 0.45634 0.0
H302 H 0.85311 0.7108 0.46574 0.0
H303 H 0.79308 0.70974 0.44251 0.0
O304 O 0.82261 0.64185 0.60631 0.0
C305 C 0.78424 0.66576 0.51695 0.0
Co306 Co 0.08995 0.06643 0.83106 0.0
Co307 Co 0.05691 0.06102 0.77171 0.0
C308 C 0.0519 0.05409 0.85721 0.0
O309 O 0.06886 0.05903 0.86477 0.0
O310 O 0.04558 0.05446 0.82297 0.0
C311 C 0.11314 0.08 0.89468 0.0
O312 O 0.09716 0.0824 0.9133 0.0
C313 C 0.02204 0.07442 0.73421 0.0
C314 C 0.02301 0.05926 0.67908 0.0
C315 C 0.01286 0.0728 0.69917 0.0
N316 N 0.03695 0.06253 0.73454 0.0
N317 N 0.03725 0.05329 0.70172 0.0
C318 C 0.01808 0.08846 0.76518 0.0
H319 H 0.03055 0.08997 0.78429 0.0
H320 H 0.01429 0.10241 0.7527 0.0
H321 H 0.0059 0.08342 0.78243 0.0
C322 C 0.09325 0.10296 0.79121 0.0
N323 N 0.0837 0.08683 0.79834 0.0
N324 N 0.07083 0.08427 0.77164 0.0
C325 C 0.07228 0.09846 0.74581 0.0
C326 C 0.08656 0.1108 0.75741 0.0
C327 C 0.10914 0.11026 0.81547 0.0
H328 H 0.12178 0.1011 0.81167 0.0
H329 H 0.10489 0.10982 0.84592 0.0
H330 H 0.11289 0.12507 0.80799 0.0
O331 O 0.09725 0.0441 0.80011 0.0
O332 O 0.07438 0.0401 0.75715 0.0
H333 H 0.06173 0.08384 0.69644 0.0
H334 H 0.0701 0.10745 0.6867 0.0
C335 C 0.06255 0.09846 0.70776 0.0
H336 H 0.04796 0.10401 0.7112 0.0
H337 H 0.04767 0.04351 0.6941 0.0
O338 O 0.11277 0.07322 0.86107 0.0
C339 C 0.09014 0.03512 0.77196 0.0
Co340 Co 0.68793 0.33409 0.07693 0.0
Co341 Co 0.69223 0.29956 0.0209 0.0
C342 C 0.69893 0.2956 0.10584 0.0
O343 O 0.69476 0.31294 0.11119 0.0
O344 O 0.69808 0.2882 0.07257 0.0
C345 C 0.66897 0.35595 0.13479 0.0
O346 O 0.66147 0.33961 0.1445 0.0
C347 C 0.68104 0.26377 0.98313 0.0
C348 C 0.69447 0.2672 0.92658 0.0
C349 C 0.68255 0.2554 0.9472 0.0
N350 N 0.69131 0.27985 0.98322 0.0
N351 N 0.6996 0.28158 0.94957 0.0
C352 C 0.66843 0.25792 0.01541 0.0
H353 H 0.66615 0.26993 0.03534 0.0
H354 H 0.6546 0.25277 0.00438 0.0
H355 H 0.67529 0.24619 0.03138 0.0
C356 C 0.65238 0.33891 0.0331 0.0
N357 N 0.66775 0.32858 0.04272 0.0
N358 N 0.66917 0.314 0.01943 0.0
C359 C 0.65455 0.3146 0.99437 0.0
C360 C 0.64336 0.33033 0.00244 0.0
C361 C 0.64818 0.35825 0.04862 0.0
H362 H 0.66151 0.36637 0.05202 0.0
H363 H 0.64126 0.35682 0.0769 0.0
H364 H 0.63862 0.3664 0.02956 0.0
O365 O 0.71086 0.34054 0.04791 0.0
O366 O 0.71381 0.31669 0.00673 0.0
H367 H 0.66468 0.3011 0.94358 0.0
H368 H 0.63927 0.30456 0.94444 0.0
C369 C 0.65188 0.30105 0.96194 0.0
H370 H 0.64989 0.28661 0.97349 0.0
H371 H 0.70806 0.29306 0.94169 0.0
O372 O 0.68109 0.35646 0.10799 0.0
C373 C 0.71955 0.33239 0.02064 0.0
Co374 Co 0.41563 0.93886 0.31567 0.0
Co375 Co 0.45057 0.9455 0.26127 0.0
C376 C 0.45358 0.9505 0.34689 0.0
O377 O 0.43625 0.94592 0.35185 0.0
O378 O 0.46101 0.95038 0.31362 0.0
C379 C 0.38721 0.93408 0.37734 0.0
O380 O 0.39732 0.94562 0.3986 0.0
C381 C 0.48666 0.93561 0.22335 0.0
C382 C 0.48402 0.95156 0.16931 0.0
C383 C 0.49544 0.93859 0.18819 0.0
N384 N 0.47071 0.94607 0.22457 0.0
N385 N 0.46945 0.95585 0.19248 0.0
C386 C 0.49203 0.92167 0.25369 0.0
H387 H 0.47981 0.91881 0.27281 0.0
H388 H 0.49704 0.90824 0.24067 0.0
H389 H 0.50373 0.92765 0.2711 0.0
C390 C 0.41357 0.90338 0.27153 0.0
N391 N 0.42277 0.91942 0.28112 0.0
N392 N 0.43695 0.92213 0.25734 0.0
C393 C 0.437 0.90792 0.2314 0.0
C394 C 0.42226 0.89549 0.23976 0.0
C395 C 0.39507 0.89747 0.28878 0.0
H396 H 0.38462 0.90903 0.28473 0.0
H397 H 0.39699 0.89514 0.3199 0.0
H398 H 0.38929 0.88441 0.27566 0.0
O399 O 0.40844 0.96187 0.28678 0.0
O400 O 0.43323 0.9669 0.24896 0.0
H401 H 0.45031 0.92054 0.1826 0.0
H402 H 0.44617 0.89535 0.17783 0.0
C403 C 0.45015 0.9068 0.19794 0.0
H404 H 0.46464 0.90376 0.20831 0.0
H405 H 0.45817 0.96479 0.18566 0.0
O406 O 0.39275 0.93012 0.34374 0.0
C407 C 0.41691 0.97163 0.26135 0.0
Co408 Co 0.1871 0.339 0.43601 0.0
Co409 Co 0.19512 0.30498 0.49146 0.0
C410 C 0.2 0.3021 0.4051 0.0
O411 O 0.19421 0.31894 0.39922 0.0
O412 O 0.20076 0.29527 0.43883 0.0
C413 C 0.18209 0.36716 0.37478 0.0
O414 O 0.19396 0.35714 0.35413 0.0
C415 C 0.18325 0.2689 0.52504 0.0
C416 C 0.20103 0.26711 0.57687 0.0
C417 C 0.18646 0.25806 0.55753 0.0
N418 N 0.19506 0.28386 0.52567 0.0
N419 N 0.20583 0.28257 0.55648 0.0
C420 C 0.16957 0.26495 0.49328 0.0
H421 H 0.17483 0.2711 0.46613 0.0
H422 H 0.1557 0.27156 0.4997 0.0
H423 H 0.1674 0.24946 0.48993 0.0
C424 C 0.15147 0.33998 0.47983 0.0
N425 N 0.16784 0.33134 0.47046 0.0
N426 N 0.17147 0.31794 0.4955 0.0
C427 C 0.15776 0.31809 0.52252 0.0
C428 C 0.1445 0.33191 0.51315 0.0
C429 C 0.14438 0.35758 0.46074 0.0
H430 H 0.15469 0.36917 0.46579 0.0
H431 H 0.14331 0.35515 0.4295 0.0
H432 H 0.13039 0.36212 0.47176 0.0
O433 O 0.21019 0.3464 0.46497 0.0
O434 O 0.2159 0.32273 0.50537 0.0
H435 H 0.17292 0.30607 0.56992 0.0
H436 H 0.14858 0.31209 0.58056 0.0
C437 C 0.15828 0.30651 0.55841 0.0
H438 H 0.15372 0.29187 0.55198 0.0
H439 H 0.21606 0.29255 0.56418 0.0
O440 O 0.17799 0.36176 0.4084 0.0
C441 C 0.22013 0.33888 0.4914 0.0
Co442 Co 0.91596 0.9369 0.17552 0.0
Co443 Co 0.94897 0.94296 0.23465 0.0
C444 C 0.95431 0.94853 0.14917 0.0
O445 O 0.93735 0.94359 0.14187 0.0
O446 O 0.96056 0.94866 0.18341 0.0
C447 C 0.895 0.91894 0.11498 0.0
O448 O 0.91164 0.91216 0.10518 0.0
C449 C 0.98372 0.92981 0.27238 0.0
C450 C 0.98335 0.94588 0.32648 0.0
C451 C 0.99316 0.93187 0.30703 0.0
N452 N 0.96898 0.94189 0.27169 0.0
N453 N 0.96903 0.95169 0.30385 0.0
C454 C 0.98722 0.91522 0.24221 0.0
H455 H 0.97457 0.91359 0.22362 0.0
H456 H 0.99091 0.90142 0.25546 0.0
H457 H 0.99931 0.91982 0.22421 0.0
C458 C 0.91184 0.90122 0.21929 0.0
N459 N 0.92167 0.91699 0.21026 0.0
N460 N 0.9348 0.91986 0.23635 0.0
C461 C 0.93333 0.90628 0.26344 0.0
C462 C 0.91876 0.89397 0.25346 0.0
C463 C 0.89562 0.89363 0.19632 0.0
H464 H 0.90043 0.89112 0.16667 0.0
H465 H 0.89026 0.88 0.20774 0.0
H466 H 0.88396 0.90416 0.19579 0.0
O467 O 0.90869 0.95988 0.20475 0.0
O468 O 0.93158 0.96415 0.24767 0.0
H469 H 0.93587 0.8984 0.32314 0.0
H470 H 0.95786 0.90123 0.2978 0.0
C471 C 0.94332 0.90694 0.30119 0.0
H472 H 0.94427 0.92175 0.31138 0.0
H473 H 0.9588 0.96174 0.31107 0.0
O474 O 0.8938 0.92993 0.14362 0.0
C475 C 0.91591 0.96913 0.23246 0.0
Co476 Co 0.31423 0.6656 0.92643 0.0
Co477 Co 0.31012 0.70027 0.98221 0.0
C478 C 0.30437 0.70455 0.89742 0.0
O479 O 0.30802 0.68709 0.89197 0.0
O480 O 0.30516 0.71172 0.93082 0.0
C481 C 0.33466 0.64466 0.87052 0.0
O482 O 0.34368 0.66085 0.86692 0.0
C483 C 0.32261 0.73564 0.01885 0.0
C484 C 0.30843 0.73387 0.07495 0.0
C485 C 0.32123 0.74463 0.05415 0.0
N486 N 0.31141 0.72021 0.01925 0.0
N487 N 0.30269 0.71946 0.05259 0.0
C488 C 0.33594 0.74017 0.98687 0.0
H489 H 0.33783 0.72767 0.96803 0.0
H490 H 0.34988 0.74478 0.99825 0.0
H491 H 0.32993 0.7519 0.96959 0.0
C492 C 0.34943 0.66018 0.97173 0.0
N493 N 0.33433 0.67074 0.96127 0.0
N494 N 0.33274 0.68522 0.98478 0.0
C495 C 0.34685 0.68425 0.01091 0.0
C496 C 0.35795 0.66847 0.00324 0.0
C497 C 0.35385 0.64093 0.95611 0.0
H498 H 0.34057 0.63306 0.95039 0.0
H499 H 0.36186 0.64251 0.92906 0.0
H500 H 0.36264 0.63254 0.97624 0.0
O501 O 0.29117 0.65926 0.9559 0.0
O502 O 0.28792 0.68392 0.99496 0.0
H503 H 0.33551 0.69787 0.06056 0.0
H504 H 0.3606 0.69291 0.06366 0.0
C505 C 0.34897 0.69734 0.0443 0.0
H506 H 0.35231 0.71173 0.0338 0.0
H507 H 0.29349 0.70861 0.06074 0.0
O508 O 0.32096 0.64353 0.89397 0.0
C509 C 0.2822 0.66797 0.98219 0.0
Co510 Co 0.58484 0.06589 0.68144 0.0
Co511 Co 0.54974 0.0585 0.73481 0.0
C512 C 0.54773 0.05297 0.64899 0.0
O513 O 0.56493 0.05802 0.64439 0.0
O514 O 0.54015 0.05302 0.68207 0.0
C515 C 0.61905 0.06591 0.63343 0.0
O516 O 0.61647 0.04759 0.62935 0.0
C517 C 0.51347 0.07013 0.76821 0.0
C518 C 0.51227 0.05302 0.82096 0.0
C519 C 0.50287 0.06722 0.80118 0.0
N520 N 0.52861 0.05856 0.76908 0.0
N521 N 0.52765 0.04816 0.80042 0.0
C522 C 0.50925 0.0834 0.73591 0.0
H523 H 0.51485 0.0776 0.70873 0.0
H524 H 0.5163 0.09719 0.74105 0.0
H525 H 0.49376 0.08583 0.73331 0.0
C526 C 0.58585 0.10137 0.7256 0.0
N527 N 0.57684 0.08534 0.71522 0.0
N528 N 0.56294 0.08199 0.73934 0.0
C529 C 0.56309 0.09557 0.76663 0.0
C530 C 0.57746 0.10843 0.75847 0.0
C531 C 0.60398 0.10802 0.70794 0.0
H532 H 0.61489 0.09681 0.71099 0.0
H533 H 0.60158 0.11063 0.67706 0.0
H534 H 0.60944 0.12116 0.72132 0.0
O535 O 0.59244 0.04333 0.71204 0.0
O536 O 0.56733 0.03764 0.74892 0.0
H537 H 0.55092 0.08066 0.81407 0.0
H538 H 0.55627 0.10523 0.82394 0.0
C539 C 0.55113 0.09517 0.80198 0.0
H540 H 0.53644 0.09927 0.79465 0.0
H541 H 0.53783 0.03821 0.80843 0.0
O542 O 0.60728 0.07546 0.653 0.0
C543 C 0.58399 0.03348 0.73747 0.0
H544 H 0.49673 0.10555 0.79631 0.0
H545 H 0.47144 0.1238 0.82647 0.0
H546 H 0.44785 0.0724 0.87307 0.0
H547 H 0.47295 0.05397 0.84215 0.0
H548 H 0.42017 0.09676 0.84574 0.0
H549 H 0.47533 0.0998 0.92732 0.0
H550 H 0.50892 0.10637 0.94165 0.0
H551 H 0.50109 0.16467 0.91049 0.0
H552 H 0.46749 0.15838 0.89543 0.0
H553 H 0.36319 0.13174 0.99447 0.0
H554 H 0.38723 0.11554 0.95668 0.0
H555 H 0.41165 0.16942 0.9255 0.0
H556 H 0.38813 0.18568 0.96542 0.0
H557 H 0.43883 0.14528 0.94119 0.0
H558 H 0.38356 0.14323 0.86256 0.0
H559 H 0.35001 0.13713 0.84712 0.0
H560 H 0.35781 0.07794 0.87049 0.0
H561 H 0.39136 0.08373 0.88661 0.0
C562 C 0.48585 0.09803 0.81191 0.0
C563 C 0.48662 0.07824 0.81617 0.0
C564 C 0.47154 0.10854 0.82964 0.0
C565 C 0.45782 0.09948 0.85223 0.0
C566 C 0.45826 0.07968 0.8557 0.0
C567 C 0.47262 0.06918 0.83811 0.0
C568 C 0.44351 0.11067 0.87364 0.0
C569 C 0.42422 0.10725 0.86687 0.0
C570 C 0.44882 0.12473 0.90045 0.0
C571 C 0.46895 0.12857 0.90987 0.0
C572 C 0.4808 0.11399 0.92325 0.0
C573 C 0.49984 0.11767 0.93155 0.0
C574 C 0.50714 0.13591 0.92688 0.0
C575 C 0.49541 0.15054 0.91403 0.0
C576 C 0.47638 0.14692 0.90563 0.0
C577 C 0.37388 0.14014 0.98014 0.0
C578 C 0.37396 0.15998 0.98334 0.0
C579 C 0.38745 0.13086 0.958 0.0
C580 C 0.40112 0.14124 0.93766 0.0
C581 C 0.40123 0.16109 0.94082 0.0
C582 C 0.38775 0.17038 0.96342 0.0
C583 C 0.41538 0.13129 0.91358 0.0
C584 C 0.4347 0.13492 0.91986 0.0
C585 C 0.41008 0.11752 0.88609 0.0
C586 C 0.38995 0.11394 0.87607 0.0
C587 C 0.3781 0.12893 0.86464 0.0
C588 C 0.35908 0.12553 0.85574 0.0
C589 C 0.35178 0.10717 0.85789 0.0
C590 C 0.36349 0.09216 0.86886 0.0
C591 C 0.38251 0.09549 0.87783 0.0
H592 H 0.33705 0.10456 0.85101 0.0
H593 H 0.52188 0.13873 0.93331 0.0
H594 H 0.602 0.64032 0.27632 0.0
H595 H 0.61746 0.66594 0.24139 0.0
H596 H 0.60218 0.63937 0.13459 0.0
H597 H 0.58838 0.61281 0.16971 0.0
H598 H 0.63507 0.651 0.12656 0.0
H599 H 0.57984 0.68187 0.17356 0.0
H600 H 0.55616 0.69221 0.22093 0.0
H601 H 0.59915 0.7228 0.28209 0.0
H602 H 0.62315 0.71243 0.23536 0.0
H603 H 0.64861 0.74361 0.02972 0.0
H604 H 0.63224 0.71695 0.05923 0.0
H605 H 0.67417 0.71526 0.14861 0.0
H606 H 0.69145 0.74117 0.11802 0.0
H607 H 0.62666 0.71859 0.16128 0.0
H608 H 0.68196 0.68284 0.1119 0.0
H609 H 0.70299 0.67349 0.05888 0.0
H610 H 0.65498 0.65349 0.99508 0.0
H611 H 0.63365 0.66302 0.04757 0.0
C612 C 0.60195 0.63998 0.24537 0.0
C613 C 0.59379 0.62465 0.22577 0.0
C614 C 0.6106 0.65477 0.22533 0.0
C615 C 0.6107 0.65494 0.18513 0.0
C616 C 0.60227 0.63972 0.16553 0.0
C617 C 0.59409 0.62466 0.18563 0.0
C618 C 0.62031 0.67051 0.16363 0.0
C619 C 0.63294 0.66575 0.13405 0.0
C620 C 0.61773 0.68991 0.173 0.0
C621 C 0.60333 0.69624 0.20111 0.0
C622 C 0.58427 0.6907 0.19725 0.0
C623 C 0.57078 0.69658 0.22397 0.0
C624 C 0.57615 0.70812 0.25454 0.0
C625 C 0.59501 0.71385 0.25841 0.0
C626 C 0.60856 0.70799 0.23179 0.0
C627 C 0.65493 0.73716 0.05461 0.0
C628 C 0.67182 0.74426 0.07062 0.0
C629 C 0.64529 0.72208 0.07187 0.0
C630 C 0.6521 0.71409 0.10586 0.0
C631 C 0.66879 0.72118 0.12218 0.0
C632 C 0.67862 0.73599 0.1046 0.0
C633 C 0.64141 0.69884 0.12527 0.0
C634 C 0.62857 0.70376 0.15413 0.0
C635 C 0.6434 0.67968 0.11469 0.0
C636 C 0.65622 0.67386 0.08337 0.0
C637 C 0.67589 0.67665 0.08638 0.0
C638 C 0.68786 0.67127 0.05649 0.0
C639 C 0.68032 0.66296 0.02357 0.0
C640 C 0.6608 0.65996 0.02055 0.0
C641 C 0.64877 0.66534 0.05036 0.0
H642 H 0.68961 0.6588 1.00046 0.0
H643 H 0.56569 0.71266 0.2752 0.0
H644 H 0.10714 0.83666 0.51765 0.0
H645 H 0.08154 0.85178 0.48152 0.0
H646 H 0.11879 0.8578 0.38447 0.0
H647 H 0.14464 0.84356 0.42143 0.0
H648 H 0.10102 0.88914 0.39416 0.0
H649 H 0.08097 0.82485 0.38729 0.0
H650 H 0.07282 0.79304 0.41124 0.0
H651 H 0.02784 0.81666 0.47864 0.0
H652 H 0.03589 0.84867 0.45551 0.0
H653 H 0.02513 0.91856 0.27103 0.0
H654 H 0.05062 0.8994 0.29897 0.0
H655 H 0.0219 0.90004 0.40767 0.0
H656 H 0.99639 0.91909 0.3799 0.0
H657 H 0.03551 0.8639 0.38686 0.0
H658 H 0.05782 0.92861 0.39497 0.0
H659 H 0.06616 0.95993 0.36867 0.0
H660 H 0.10727 0.9341 0.29482 0.0
H661 H 0.09898 0.90258 0.32033 0.0
C662 C 0.10974 0.84106 0.48846 0.0
C663 C 0.12774 0.83877 0.47213 0.0
C664 C 0.09509 0.84959 0.46771 0.0
C665 C 0.09808 0.85572 0.42993 0.0
C666 C 0.11606 0.85315 0.41344 0.0
C667 C 0.13077 0.84483 0.4344 0.0
C668 C 0.08277 0.86568 0.40844 0.0
C669 C 0.0868 0.8834 0.39199 0.0
C670 C 0.06408 0.85843 0.40596 0.0
C671 C 0.05914 0.83919 0.41989 0.0
C672 C 0.06943 0.82328 0.40744 0.0
C673 C 0.06481 0.80521 0.42083 0.0
C674 C 0.04985 0.80283 0.44651 0.0
C675 C 0.03944 0.81852 0.45878 0.0
C676 C 0.04401 0.83663 0.44549 0.0
C677 C 0.02413 0.9144 0.30071 0.0
C678 C 0.00867 0.92016 0.32318 0.0
C679 C 0.03877 0.90357 0.31672 0.0
C680 C 0.03815 0.89829 0.35541 0.0
C681 C 0.02263 0.90389 0.37774 0.0
C682 C 0.00814 0.91487 0.36189 0.0
C683 C 0.05382 0.88728 0.37305 0.0
C684 C 0.04982 0.86944 0.38878 0.0
C685 C 0.07259 0.89429 0.37446 0.0
C686 C 0.07763 0.91323 0.35924 0.0
C687 C 0.06852 0.9296 0.37288 0.0
C688 C 0.07326 0.94738 0.35817 0.0
C689 C 0.08719 0.949 0.33 0.0
C690 C 0.09645 0.93283 0.31658 0.0
C691 C 0.09175 0.915 0.33117 0.0
H692 H 0.09085 0.96278 0.31865 0.0
H693 H 0.0463 0.78883 0.45685 0.0
H694 H 0.93501 0.36223 0.72069 0.0
H695 H 0.91949 0.33696 0.6836 0.0
H696 H 0.86576 0.36539 0.69625 0.0
H697 H 0.8812 0.39067 0.73232 0.0
H698 H 0.86404 0.32733 0.71494 0.0
H699 H 0.88833 0.36678 0.61313 0.0
H700 H 0.91354 0.38351 0.57793 0.0
H701 H 0.9423 0.33079 0.55858 0.0
H702 H 0.91739 0.31378 0.5942 0.0
H703 H 0.80465 0.27634 0.59168 0.0
H704 H 0.82287 0.30196 0.62116 0.0
H705 H 0.87493 0.2744 0.58819 0.0
H706 H 0.85673 0.24908 0.55778 0.0
H707 H 0.87931 0.31081 0.58069 0.0
H708 H 0.8561 0.27092 0.68031 0.0
H709 H 0.83243 0.25325 0.71793 0.0
H710 H 0.80364 0.30515 0.74465 0.0
H711 H 0.82697 0.32311 0.70666 0.0
C712 C 0.91992 0.36307 0.71521 0.0
C713 C 0.90924 0.37819 0.72987 0.0
C714 C 0.91108 0.34868 0.69408 0.0
C715 C 0.89144 0.34927 0.68731 0.0
C716 C 0.88088 0.36456 0.70142 0.0
C717 C 0.8897 0.37894 0.72219 0.0
C718 C 0.88161 0.3338 0.66644 0.0
C719 C 0.86723 0.32385 0.68544 0.0
C720 C 0.88623 0.32884 0.62841 0.0
C721 C 0.9011 0.33904 0.60667 0.0
C722 C 0.90011 0.35878 0.60164 0.0
C723 C 0.91433 0.36831 0.58156 0.0
C724 C 0.92954 0.35823 0.56612 0.0
C725 C 0.93053 0.33859 0.57061 0.0
C726 C 0.91635 0.32899 0.59071 0.0
C727 C 0.81999 0.27592 0.59028 0.0
C728 C 0.82925 0.26085 0.57201 0.0
C729 C 0.83041 0.29049 0.60736 0.0
C730 C 0.85033 0.28998 0.6076 0.0
C731 C 0.8596 0.27518 0.58837 0.0
C732 C 0.84916 0.26075 0.57075 0.0
C733 C 0.86143 0.3045 0.62898 0.0
C734 C 0.87611 0.31423 0.6102 0.0
C735 C 0.85728 0.3091 0.66751 0.0
C736 C 0.84319 0.29834 0.69031 0.0
C737 C 0.84463 0.27855 0.69395 0.0
C738 C 0.83129 0.26848 0.71537 0.0
C739 C 0.81651 0.27806 0.73358 0.0
C740 C 0.81507 0.29774 0.73047 0.0
C741 C 0.82836 0.30787 0.709 0.0
H742 H 0.80621 0.27025 0.75018 0.0
H743 H 0.94054 0.36563 0.55059 0.0
H744 H 0.61007 0.84861 0.96802 0.0
H745 H 0.58505 0.86541 0.00279 0.0
H746 H 0.61753 0.86072 0.10691 0.0
H747 H 0.64245 0.84371 0.07215 0.0
H748 H 0.58051 0.85473 0.12041 0.0
H749 H 0.6175 0.90121 0.05341 0.0
H750 H 0.63255 0.91583 0.9971 0.0
H751 H 0.578 0.92338 0.94487 0.0
H752 H 0.56263 0.90846 1.00056 0.0
H753 H 0.52826 0.92526 0.22202 0.0
H754 H 0.5539 0.90751 0.19141 0.0
H755 H 0.52478 0.91131 0.08324 0.0
H756 H 0.49919 0.92895 0.11358 0.0
H757 H 0.56122 0.91823 0.07375 0.0
H758 H 0.5243 0.87049 0.13743 0.0
H759 H 0.5086 0.85539 0.19249 0.0
H760 H 0.56225 0.84995 0.24947 0.0
H761 H 0.57824 0.8653 0.19495 0.0
C762 C 0.61168 0.85097 0.99844 0.0
C763 C 0.62805 0.84479 0.01754 0.0
C764 C 0.59748 0.86066 0.01823 0.0
C765 C 0.59955 0.86461 0.05737 0.0
C766 C 0.61563 0.85785 0.07674 0.0
C767 C 0.62981 0.84807 0.05695 0.0
C768 C 0.58521 0.87624 0.0778 0.0
C769 C 0.57648 0.86873 0.11052 0.0
C770 C 0.57969 0.89438 0.06448 0.0
C771 C 0.58892 0.90354 0.03108 0.0
C772 C 0.60872 0.90585 0.02981 0.0
C773 C 0.61731 0.91421 0.99799 0.0
C774 C 0.60624 0.92051 0.96739 0.0
C775 C 0.58655 0.91849 0.96858 0.0
C776 C 0.5779 0.91008 1.00027 0.0
C777 C 0.52717 0.92207 0.19188 0.0
C778 C 0.51147 0.9282 0.17043 0.0
C779 C 0.5419 0.912 0.17433 0.0
C780 C 0.54116 0.90783 0.13506 0.0
C781 C 0.5257 0.91433 0.11354 0.0
C782 C 0.51106 0.92442 0.13098 0.0
C783 C 0.55638 0.89664 0.11615 0.0
C784 C 0.5653 0.90426 0.08373 0.0
C785 C 0.562 0.87857 0.12959 0.0
C786 C 0.55243 0.86923 0.16229 0.0
C787 C 0.53273 0.86621 0.16183 0.0
C788 C 0.52378 0.85759 0.19292 0.0
C789 C 0.53441 0.85176 0.22451 0.0
C790 C 0.55403 0.8545 0.22501 0.0
C791 C 0.56304 0.86316 0.19402 0.0
H792 H 0.52746 0.84508 0.24855 0.0
H793 H 0.61291 0.92699 0.9428 0.0
H794 H 0.31092 0.27852 0.91903 0.0
H795 H 0.32935 0.30344 0.88791 0.0
H796 H 0.38113 0.27444 0.91761 0.0
H797 H 0.36272 0.24957 0.94912 0.0
H798 H 0.38565 0.31174 0.92609 0.0
H799 H 0.36254 0.27126 0.82754 0.0
H800 H 0.33879 0.2531 0.79106 0.0
H801 H 0.3091 0.30449 0.76415 0.0
H802 H 0.33254 0.32294 0.80095 0.0
H803 H 0.43957 0.36509 0.78664 0.0
H804 H 0.42487 0.33919 0.82324 0.0
H805 H 0.37018 0.36569 0.80995 0.0
H806 H 0.3848 0.39158 0.77423 0.0
H807 H 0.36949 0.32778 0.79192 0.0
H808 H 0.39301 0.36785 0.89346 0.0
H809 H 0.41783 0.3853 0.92842 0.0
H810 H 0.44822 0.33346 0.94744 0.0
H811 H 0.4237 0.31573 0.91205 0.0
C812 C 0.32625 0.27755 0.91924 0.0
C813 C 0.33535 0.2622 0.93698 0.0
C814 C 0.33678 0.29176 0.9013 0.0
C815 C 0.35665 0.2907 0.8999 0.0
C816 C 0.36582 0.27561 0.91841 0.0
C817 C 0.35527 0.26145 0.93669 0.0
C818 C 0.3677 0.30506 0.87808 0.0
C819 C 0.3823 0.31504 0.89657 0.0
C820 C 0.36331 0.3095 0.83959 0.0
C821 C 0.34921 0.29846 0.8173 0.0
C822 C 0.35087 0.27867 0.81408 0.0
C823 C 0.33747 0.26833 0.79331 0.0
C824 C 0.32242 0.27763 0.77538 0.0
C825 C 0.32076 0.2973 0.7781 0.0
C826 C 0.33411 0.30771 0.79888 0.0
C827 C 0.42444 0.36537 0.79183 0.0
C828 C 0.41326 0.38014 0.77711 0.0
C829 C 0.41606 0.35062 0.81269 0.0
C830 C 0.3964 0.35049 0.81921 0.0
C831 C 0.38533 0.36541 0.80496 0.0
C832 C 0.39368 0.38014 0.78442 0.0
C833 C 0.3871 0.33471 0.84016 0.0
C834 C 0.37289 0.3244 0.82138 0.0
C835 C 0.392 0.32987 0.87816 0.0
C836 C 0.40663 0.34049 0.89975 0.0
C837 C 0.40506 0.36019 0.90483 0.0
C838 C 0.41906 0.37013 0.92476 0.0
C839 C 0.43462 0.36051 0.94005 0.0
C840 C 0.43618 0.3409 0.93553 0.0
C841 C 0.42223 0.3309 0.91556 0.0
H842 H 0.44545 0.36823 0.95547 0.0
H843 H 0.31207 0.2696 0.7593 0.0
H844 H 0.98001 0.08408 0.73466 0.0
H845 H 0.95399 0.10263 0.7069 0.0
H846 H 0.98429 0.10602 0.60018 0.0
H847 H 0.01023 0.08743 0.62766 0.0
H848 H 0.9681 0.14122 0.62509 0.0
H849 H 0.95063 0.07554 0.60595 0.0
H850 H 0.94398 0.04292 0.62728 0.0
H851 H 0.89965 0.06336 0.70043 0.0
H852 H 0.90623 0.09615 0.67991 0.0
H853 H 0.89763 0.16887 0.49209 0.0
H854 H 0.9234 0.15383 0.52793 0.0
H855 H 0.88457 0.14122 0.61978 0.0
H856 H 0.85865 0.15534 0.58287 0.0
H857 H 0.90482 0.11184 0.60763 0.0
H858 H 0.91997 0.17691 0.6257 0.0
H859 H 0.9263 0.21002 0.60732 0.0
H860 H 0.97435 0.19218 0.54129 0.0
H861 H 0.96814 0.15891 0.55883 0.0
C862 C 0.98122 0.089 0.70548 0.0
C863 C 0.99721 0.08443 0.6834 0.0
C864 C 0.9663 0.09948 0.68958 0.0
C865 C 0.96722 0.10571 0.65148 0.0
C866 C 0.98332 0.10142 0.62965 0.0
C867 C 0.99807 0.09071 0.64532 0.0
C868 C 0.95122 0.11622 0.63381 0.0
C869 C 0.95428 0.1348 0.62096 0.0
C870 C 0.93307 0.10801 0.62951 0.0
C871 C 0.92907 0.08831 0.64174 0.0
C872 C 0.93958 0.07309 0.62685 0.0
C873 C 0.9358 0.05457 0.63873 0.0
C874 C 0.92144 0.05107 0.66529 0.0
C875 C 0.91079 0.06609 0.67992 0.0
C876 C 0.91453 0.08464 0.66816 0.0
C877 C 0.89472 0.16302 0.52011 0.0
C878 C 0.87628 0.16353 0.53506 0.0
C879 C 0.90945 0.15453 0.54072 0.0
C880 C 0.90609 0.14664 0.57702 0.0
C881 C 0.88762 0.14728 0.59201 0.0
C882 C 0.87285 0.15554 0.57114 0.0
C883 C 0.92161 0.13696 0.59846 0.0
C884 C 0.91852 0.11847 0.61201 0.0
C885 C 0.93966 0.14539 0.6039 0.0
C886 C 0.94349 0.16539 0.59333 0.0
C887 C 0.9318 0.18003 0.60703 0.0
C888 C 0.93538 0.19883 0.59679 0.0
C889 C 0.95069 0.2032 0.57308 0.0
C890 C 0.96248 0.18877 0.55962 0.0
C891 C 0.95895 0.16994 0.56974 0.0
H892 H 0.95344 0.21776 0.56519 0.0
H893 H 0.91854 0.03672 0.67444 0.0
H894 H 0.09751 0.60743 0.32587 0.0
H895 H 0.11316 0.63214 0.36369 0.0
H896 H 0.11072 0.66996 0.26691 0.0
H897 H 0.09463 0.64536 0.22944 0.0
H898 H 0.14612 0.64921 0.35476 0.0
H899 H 0.10578 0.71534 0.29799 0.0
H900 H 0.07386 0.7236 0.27449 0.0
H901 H 0.05007 0.67714 0.33748 0.0
H902 H 0.08178 0.66878 0.36182 0.0
H903 H 0.19829 0.73267 0.39414 0.0
H904 H 0.18041 0.70668 0.36541 0.0
H905 H 0.13219 0.7206 0.43568 0.0
H906 H 0.14955 0.74722 0.4627 0.0
H907 H 0.12047 0.71431 0.36746 0.0
H908 H 0.16084 0.68065 0.45291 0.0
H909 H 0.19095 0.67115 0.48316 0.0
H910 H 0.2114 0.65056 0.37538 0.0
H911 H 0.1815 0.66017 0.34436 0.0
C912 C 0.10002 0.62116 0.31301 0.0
C913 C 0.09459 0.62468 0.27506 0.0
C914 C 0.10912 0.63519 0.33445 0.0
C915 C 0.11296 0.653 0.31832 0.0
C916 C 0.10762 0.65647 0.28023 0.0
C917 C 0.09849 0.64243 0.25882 0.0
C918 C 0.1229 0.66781 0.34101 0.0
C919 C 0.1405 0.66344 0.35758 0.0
C920 C 0.11539 0.68626 0.34554 0.0
C921 C 0.09621 0.69133 0.3314 0.0
C922 C 0.09373 0.70694 0.30695 0.0
C923 C 0.07567 0.71163 0.29347 0.0
C924 C 0.05996 0.70087 0.3044 0.0
C925 C 0.06226 0.68543 0.32894 0.0
C926 C 0.08028 0.68069 0.34254 0.0
C927 C 0.18394 0.73007 0.40377 0.0
C928 C 0.17562 0.74173 0.43169 0.0
C929 C 0.17375 0.71512 0.38745 0.0
C930 C 0.15502 0.71138 0.39884 0.0
C931 C 0.14667 0.72303 0.42666 0.0
C932 C 0.1568 0.73809 0.44273 0.0
C933 C 0.14391 0.69584 0.38062 0.0
C934 C 0.12609 0.70007 0.36479 0.0
C935 C 0.15098 0.67712 0.37771 0.0
C936 C 0.16898 0.67128 0.39626 0.0
C937 C 0.17181 0.67422 0.4356 0.0
C938 C 0.18883 0.66879 0.45289 0.0
C939 C 0.20309 0.6603 0.43119 0.0
C940 C 0.20035 0.65716 0.39215 0.0
C941 C 0.18336 0.66258 0.37471 0.0
H942 H 0.21626 0.6561 0.44463 0.0
H943 H 0.04599 0.70451 0.2939 0.0
H944 H 0.85934 0.65732 0.42381 0.0
H945 H 0.88501 0.64244 0.38739 0.0
H946 H 0.92132 0.64543 0.4865 0.0
H947 H 0.89579 0.66081 0.52254 0.0
H948 H 0.94074 0.65433 0.423 0.0
H949 H 0.89854 0.60462 0.46228 0.0
H950 H 0.8677 0.58847 0.46821 0.0
H951 H 0.86342 0.58486 0.34602 0.0
H952 H 0.89413 0.60126 0.33935 0.0
H953 H 0.00851 0.58382 0.381 0.0
H954 H 0.98249 0.60192 0.40882 0.0
H955 H 0.95208 0.59894 0.30206 0.0
H956 H 0.97802 0.58044 0.27414 0.0
H957 H 0.9293 0.59131 0.36459 0.0
H958 H 0.97325 0.63932 0.32636 0.0
H959 H 0.00448 0.65485 0.3221 0.0
H960 H 0.0059 0.66104 0.44411 0.0
H961 H 0.9748 0.64527 0.44918 0.0
C962 C 0.87295 0.65515 0.43746 0.0
C963 C 0.87576 0.66044 0.47572 0.0
C964 C 0.88754 0.64647 0.41682 0.0
C965 C 0.90507 0.64265 0.43429 0.0
C966 C 0.90796 0.64827 0.47236 0.0
C967 C 0.89339 0.657 0.49294 0.0
C968 C 0.92021 0.63226 0.4134 0.0
C969 C 0.93827 0.64049 0.41052 0.0
C970 C 0.91693 0.61435 0.39637 0.0
C971 C 0.89854 0.60435 0.40031 0.0
C972 C 0.89096 0.60051 0.43667 0.0
C973 C 0.87351 0.59129 0.44016 0.0
C974 C 0.86358 0.58569 0.40751 0.0
C975 C 0.87111 0.58924 0.37129 0.0
C976 C 0.88854 0.59849 0.36763 0.0
C977 C 0.99628 0.58698 0.36339 0.0
C978 C 0.99549 0.58096 0.32513 0.0
C979 C 0.98147 0.59744 0.37929 0.0
C980 C 0.96547 0.60206 0.35735 0.0
C981 C 0.96438 0.5957 0.31938 0.0
C982 C 0.97931 0.58529 0.30334 0.0
C983 C 0.94984 0.61333 0.37449 0.0
C984 C 0.93171 0.60525 0.37673 0.0
C985 C 0.9531 0.63132 0.39114 0.0
C986 C 0.97174 0.64097 0.38817 0.0
C987 C 0.98028 0.64386 0.35232 0.0
C988 C 0.99795 0.65273 0.34975 0.0
C989 C 0.00718 0.6589 0.38282 0.0
C990 C 0.99873 0.65625 0.41852 0.0
C991 C 0.98107 0.64736 0.42125 0.0
H992 H 0.02086 0.66576 0.38078 0.0
H993 H 0.85007 0.57855 0.41027 0.0
H994 H 0.06976 0.14131 0.72302 0.0
H995 H 0.08536 0.1665 0.68591 0.0
H996 H 0.13941 0.1393 0.70345 0.0
H997 H 0.1239 0.11411 0.73967 0.0
H998 H 0.14044 0.17761 0.71888 0.0
H999 H 0.11757 0.13593 0.61932 0.0
H1000 H 0.09287 0.11814 0.58467 0.0
H1001 H 0.06341 0.16998 0.56036 0.0
H1002 H 0.08779 0.18805 0.5954 0.0
H1003 H 0.20005 0.22672 0.59325 0.0
H1004 H 0.18187 0.20142 0.62392 0.0
H1005 H 0.12977 0.22828 0.5887 0.0
H1006 H 0.14792 0.25331 0.55729 0.0
H1007 H 0.12593 0.1914 0.58294 0.0
H1008 H 0.14771 0.23342 0.68036 0.0
H1009 H 0.17099 0.25217 0.71687 0.0
H1010 H 0.20064 0.20131 0.7477 0.0
H1011 H 0.17768 0.18226 0.71091 0.0
C1012 C 0.08495 0.14075 0.71872 0.0
C1013 C 0.09568 0.12597 0.73463 0.0
C1014 C 0.09383 0.15508 0.69756 0.0
C1015 C 0.11356 0.15477 0.69198 0.0
C1016 C 0.12421 0.13991 0.70766 0.0
C1017 C 0.11535 0.12558 0.72849 0.0
C1018 C 0.12333 0.16999 0.67033 0.0
C1019 C 0.13742 0.1805 0.68903 0.0
C1020 C 0.11893 0.17416 0.63178 0.0
C1021 C 0.1044 0.16332 0.61032 0.0
C1022 C 0.10575 0.14352 0.60684 0.0
C1023 C 0.09182 0.13339 0.58709 0.0
C1024 C 0.07655 0.14292 0.57041 0.0
C1025 C 0.07522 0.16261 0.57334 0.0
C1026 C 0.0891 0.1728 0.59313 0.0
C1027 C 0.18472 0.22705 0.59161 0.0
C1028 C 0.17543 0.24184 0.57245 0.0
C1029 C 0.17433 0.21266 0.60934 0.0
C1030 C 0.15441 0.21309 0.60923 0.0
C1031 C 0.1451 0.22758 0.58912 0.0
C1032 C 0.15552 0.24184 0.57093 0.0
C1033 C 0.14335 0.19884 0.63131 0.0
C1034 C 0.12895 0.18857 0.61279 0.0
C1035 C 0.14727 0.19504 0.67028 0.0
C1036 C 0.16107 0.20643 0.69259 0.0
C1037 C 0.15927 0.22625 0.69471 0.0
C1038 C 0.1724 0.23692 0.71548 0.0
C1039 C 0.18731 0.22794 0.73452 0.0
C1040 C 0.1891 0.20825 0.7329 0.0
C1041 C 0.17602 0.1975 0.71212 0.0
H1042 H 0.19746 0.23623 0.75059 0.0
H1043 H 0.06578 0.13505 0.55514 0.0
H1044 H 0.52749 0.41805 0.77458 0.0
H1045 H 0.55246 0.39946 0.80548 0.0
H1046 H 0.52474 0.40664 0.91437 0.0
H1047 H 0.49995 0.42537 0.88371 0.0
H1048 H 0.56092 0.41177 0.92309 0.0
H1049 H 0.52274 0.36433 0.86223 0.0
H1050 H 0.50627 0.34888 0.80845 0.0
H1051 H 0.5593 0.34161 0.75018 0.0
H1052 H 0.57607 0.35727 0.80341 0.0
H1053 H 0.60875 0.34084 0.02881 0.0
H1054 H 0.58371 0.35764 0.9939 0.0
H1055 H 0.6173 0.35524 0.89108 0.0
H1056 H 0.64246 0.33866 0.92614 0.0
H1057 H 0.57902 0.34769 0.87792 0.0
H1058 H 0.61705 0.3941 0.94277 0.0
H1059 H 0.63263 0.40891 0.9983 0.0
H1060 H 0.5785 0.41764 0.05135 0.0
H1061 H 0.5626 0.40243 0.99653 0.0
C1062 C 0.52656 0.41541 0.80496 0.0
C1063 C 0.51156 0.42291 0.82657 0.0
C1064 C 0.5409 0.40483 0.82268 0.0
C1065 C 0.54039 0.40137 0.86227 0.0
C1066 C 0.5255 0.40907 0.88384 0.0
C1067 C 0.51131 0.41976 0.86624 0.0
C1068 C 0.5554 0.38995 0.88149 0.0
C1069 C 0.56468 0.39766 0.91346 0.0
C1070 C 0.56066 0.37167 0.86856 0.0
C1071 C 0.55063 0.36215 0.83662 0.0
C1072 C 0.53087 0.35956 0.83782 0.0
C1073 C 0.52148 0.35075 0.80745 0.0
C1074 C 0.53172 0.34431 0.77587 0.0
C1075 C 0.55138 0.34663 0.77464 0.0
C1076 C 0.56084 0.35546 0.8049 0.0
C1077 C 0.61063 0.3437 0.99864 0.0
C1078 C 0.62742 0.33834 0.98004 0.0
C1079 C 0.59639 0.35334 0.97877 0.0
C1080 C 0.59872 0.35785 0.93996 0.0
C1081 C 0.61519 0.35187 0.92098 0.0
C1082 C 0.6295 0.34231 0.94094 0.0
C1083 C 0.58431 0.36945 0.91964 0.0
C1084 C 0.57521 0.3618 0.88747 0.0
C1085 C 0.57907 0.38771 0.93265 0.0
C1086 C 0.58863 0.39692 0.96565 0.0
C1087 C 0.60847 0.39898 0.96643 0.0
C1088 C 0.61736 0.40747 0.99779 0.0
C1089 C 0.60656 0.41417 0.02838 0.0
C1090 C 0.58684 0.4124 0.02767 0.0
C1091 C 0.57789 0.40383 0.99646 0.0
H1092 H 0.61347 0.42077 0.0526 0.0
H1093 H 0.52443 0.33749 0.75239 0.0
H1094 H 0.41161 0.89574 0.16474 0.0
H1095 H 0.397 0.86989 0.12849 0.0
H1096 H 0.40061 0.83375 0.22777 0.0
H1097 H 0.41612 0.85934 0.26331 0.0
H1098 H 0.40781 0.81369 0.16734 0.0
H1099 H 0.35917 0.85776 0.20189 0.0
H1100 H 0.34362 0.88897 0.20576 0.0
H1101 H 0.34101 0.8918 0.08329 0.0
H1102 H 0.35681 0.86071 0.07869 0.0
H1103 H 0.33453 0.74809 0.12661 0.0
H1104 H 0.35374 0.77357 0.15357 0.0
H1105 H 0.35334 0.80231 0.04482 0.0
H1106 H 0.33371 0.77696 0.0178 0.0
H1107 H 0.34582 0.82623 0.10528 0.0
H1108 H 0.3926 0.77899 0.07413 0.0
H1109 H 0.40691 0.74712 0.075 0.0
H1110 H 0.4111 0.74942 0.19731 0.0
H1111 H 0.39656 0.78117 0.19725 0.0
C1112 C 0.40969 0.88211 0.17842 0.0
C1113 C 0.41507 0.87943 0.21668 0.0
C1114 C 0.40112 0.86742 0.1579 0.0
C1115 C 0.39735 0.84993 0.17555 0.0
C1116 C 0.40331 0.84709 0.21346 0.0
C1117 C 0.41211 0.8617 0.2338 0.0
C1118 C 0.38663 0.83481 0.15516 0.0
C1119 C 0.39418 0.81642 0.15405 0.0
C1120 C 0.36894 0.83836 0.13726 0.0
C1121 C 0.35936 0.85701 0.13994 0.0
C1122 C 0.3554 0.86511 0.17578 0.0
C1123 C 0.34653 0.88276 0.1781 0.0
C1124 C 0.34138 0.89239 0.14479 0.0
C1125 C 0.34505 0.88435 0.10907 0.0
C1126 C 0.35395 0.8667 0.10658 0.0
C1127 C 0.33851 0.75983 0.10838 0.0
C1128 C 0.33285 0.76033 0.06985 0.0
C1129 C 0.34962 0.77432 0.12378 0.0
C1130 C 0.35527 0.78969 0.10105 0.0
C1131 C 0.34932 0.79047 0.06276 0.0
C1132 C 0.33826 0.77588 0.04724 0.0
C1133 C 0.36695 0.80513 0.11774 0.0
C1134 C 0.35954 0.82357 0.11821 0.0
C1135 C 0.38458 0.80154 0.1357 0.0
C1136 C 0.39336 0.78243 0.13569 0.0
C1137 C 0.39643 0.77265 0.10123 0.0
C1138 C 0.40461 0.7546 0.10158 0.0
C1139 C 0.40988 0.74625 0.1362 0.0
C1140 C 0.407 0.75591 0.17052 0.0
C1141 C 0.39881 0.77393 0.17034 0.0
H1142 H 0.41623 0.73231 0.13648 0.0
H1143 H 0.3345 0.90606 0.14664 0.0
H1144 H 0.14574 0.34635 0.58549 0.0
H1145 H 0.11966 0.36097 0.62132 0.0
H1146 H 0.08164 0.34975 0.52746 0.0
H1147 H 0.10757 0.33454 0.49216 0.0
H1148 H 0.08265 0.38837 0.55378 0.0
H1149 H 0.0761 0.32485 0.60307 0.0
H1150 H 0.08766 0.29572 0.63416 0.0
H1151 H 0.10178 0.32734 0.73502 0.0
H1152 H 0.09057 0.35674 0.70429 0.0
H1153 H 0.99574 0.41719 0.6297 0.0
H1154 H 0.02126 0.3987 0.60114 0.0
H1155 H 0.05177 0.39995 0.70807 0.0
H1156 H 0.02579 0.41799 0.73715 0.0
H1157 H 0.05584 0.36656 0.67722 0.0
H1158 H 0.06346 0.42959 0.63136 0.0
H1159 H 0.05404 0.45989 0.60193 0.0
H1160 H 0.04083 0.43118 0.4971 0.0
H1161 H 0.04992 0.40065 0.52608 0.0
C1162 C 0.13168 0.34653 0.57306 0.0
C1163 C 0.12852 0.3391 0.53638 0.0
C1164 C 0.11685 0.35498 0.59339 0.0
C1165 C 0.09873 0.35637 0.57705 0.0
C1166 C 0.09552 0.34877 0.54056 0.0
C1167 C 0.11027 0.34007 0.52051 0.0
C1168 C 0.08338 0.36673 0.59702 0.0
C1169 C 0.07658 0.38349 0.5805 0.0
C1170 C 0.07607 0.36072 0.63262 0.0
C1171 C 0.08268 0.34303 0.65122 0.0
C1172 C 0.08183 0.32563 0.63175 0.0
C1173 C 0.08829 0.30906 0.64933 0.0
C1174 C 0.0955 0.30969 0.6865 0.0
C1175 C 0.09622 0.32688 0.70621 0.0
C1176 C 0.0898 0.3435 0.68873 0.0
C1177 C 0.00787 0.41348 0.64715 0.0
C1178 C 0.00879 0.41902 0.68563 0.0
C1179 C 0.0225 0.40296 0.63076 0.0
C1180 C 0.03868 0.39823 0.65216 0.0
C1181 C 0.03946 0.40343 0.69092 0.0
C1182 C 0.02461 0.41371 0.70756 0.0
C1183 C 0.0548 0.38815 0.63369 0.0
C1184 C 0.06186 0.3715 0.65051 0.0
C1185 C 0.06266 0.39446 0.59863 0.0
C1186 C 0.05721 0.4128 0.58102 0.0
C1187 C 0.05842 0.42972 0.60212 0.0
C1188 C 0.05316 0.44694 0.5855 0.0
C1189 C 0.0468 0.44746 0.5477 0.0
C1190 C 0.04573 0.43076 0.5264 0.0
C1191 C 0.05096 0.41349 0.54289 0.0
H1192 H 0.04273 0.46081 0.53488 0.0
H1193 H 0.1005 0.29685 0.70007 0.0
H1194 H 0.93619 0.86409 0.2885 0.0
H1195 H 0.92145 0.83947 0.32814 0.0
H1196 H 0.86683 0.8658 0.31176 0.0
H1197 H 0.8817 0.89086 0.27411 0.0
H1198 H 0.86935 0.85481 0.38173 0.0
H1199 H 0.88188 0.82538 0.26052 0.0
H1200 H 0.90152 0.81513 0.20606 0.0
H1201 H 0.93585 0.7815 0.28136 0.0
H1202 H 0.91655 0.79175 0.33638 0.0
H1203 H 0.8079 0.77595 0.41435 0.0
H1204 H 0.82616 0.8021 0.38652 0.0
H1205 H 0.8779 0.77702 0.42831 0.0
H1206 H 0.85973 0.75089 0.45614 0.0
H1207 H 0.87876 0.787 0.35001 0.0
H1208 H 0.86308 0.81512 0.47066 0.0
H1209 H 0.84171 0.82498 0.52268 0.0
H1210 H 0.81117 0.8608 0.44488 0.0
H1211 H 0.83219 0.85092 0.39224 0.0
C1212 C 0.92106 0.86459 0.29361 0.0
C1213 C 0.91001 0.8791 0.27763 0.0
C1214 C 0.91262 0.85048 0.31601 0.0
C1215 C 0.89293 0.85052 0.32237 0.0
C1216 C 0.882 0.86535 0.30715 0.0
C1217 C 0.89047 0.87954 0.28524 0.0
C1218 C 0.88354 0.8351 0.34441 0.0
C1219 C 0.87131 0.84 0.37451 0.0
C1220 C 0.88631 0.8157 0.33563 0.0
C1221 C 0.89791 0.8095 0.30261 0.0
C1222 C 0.89371 0.81591 0.2655 0.0
C1223 C 0.90476 0.81009 0.23453 0.0
C1224 C 0.91996 0.79772 0.24026 0.0
C1225 C 0.9241 0.79111 0.27697 0.0
C1226 C 0.9131 0.79691 0.30806 0.0
C1227 C 0.82315 0.7762 0.41806 0.0
C1228 C 0.83236 0.76163 0.43811 0.0
C1229 C 0.83355 0.79112 0.40222 0.0
C1230 C 0.85337 0.79157 0.40565 0.0
C1231 C 0.86261 0.77701 0.42564 0.0
C1232 C 0.85218 0.76222 0.44193 0.0
C1233 C 0.86446 0.80678 0.38682 0.0
C1234 C 0.87698 0.80182 0.35735 0.0
C1235 C 0.86173 0.82611 0.39578 0.0
C1236 C 0.84912 0.83214 0.42742 0.0
C1237 C 0.85171 0.82497 0.46456 0.0
C1238 C 0.83968 0.83059 0.49418 0.0
C1239 C 0.82507 0.84348 0.48707 0.0
C1240 C 0.82249 0.8508 0.45034 0.0
C1241 C 0.83447 0.84521 0.42061 0.0
H1242 H 0.81577 0.84781 0.51004 0.0
H1243 H 0.9285 0.79322 0.21625 0.0
H1244 H 0.47582 0.5789 0.2271 0.0
H1245 H 0.44932 0.59712 0.2004 0.0
H1246 H 0.48083 0.60547 0.09619 0.0
H1247 H 0.50735 0.58766 0.12284 0.0
H1248 H 0.46379 0.63803 0.11914 0.0
H1249 H 0.44656 0.57258 0.10076 0.0
H1250 H 0.43999 0.5398 0.1212 0.0
H1251 H 0.39534 0.5596 0.19428 0.0
H1252 H 0.40182 0.59255 0.17463 0.0
H1253 H 0.39384 0.66043 0.98081 0.0
H1254 H 0.419 0.64527 0.0184 0.0
H1255 H 0.38151 0.64216 0.11553 0.0
H1256 H 0.35631 0.65727 0.07777 0.0
H1257 H 0.40044 0.6086 0.10281 0.0
H1258 H 0.41555 0.67408 0.11439 0.0
H1259 H 0.42171 0.70641 0.09101 0.0
H1260 H 0.47056 0.68665 0.02986 0.0
H1261 H 0.46437 0.65404 0.05186 0.0
C1262 C 0.4772 0.58487 0.19877 0.0
C1263 C 0.49377 0.58199 0.17725 0.0
C1264 C 0.46198 0.59512 0.18339 0.0
C1265 C 0.46307 0.60264 0.14623 0.0
C1266 C 0.47967 0.59988 0.12493 0.0
C1267 C 0.49477 0.58958 0.14015 0.0
C1268 C 0.4469 0.61308 0.12889 0.0
C1269 C 0.44997 0.63156 0.11535 0.0
C1270 C 0.42874 0.60481 0.12475 0.0
C1271 C 0.42483 0.58504 0.13661 0.0
C1272 C 0.43545 0.56996 0.12146 0.0
C1273 C 0.43173 0.55135 0.13284 0.0
C1274 C 0.4173 0.54763 0.15912 0.0
C1275 C 0.40654 0.56251 0.17399 0.0
C1276 C 0.41023 0.58115 0.16273 0.0
C1277 C 0.39111 0.65666 0.01031 0.0
C1278 C 0.37335 0.66027 0.02673 0.0
C1279 C 0.40544 0.64803 0.03175 0.0
C1280 C 0.4022 0.64277 0.06993 0.0
C1281 C 0.38434 0.64619 0.08622 0.0
C1282 C 0.37005 0.65494 0.06481 0.0
C1283 C 0.41742 0.63343 0.09249 0.0
C1284 C 0.41418 0.61518 0.10701 0.0
C1285 C 0.43545 0.64189 0.09742 0.0
C1286 C 0.43939 0.66155 0.08454 0.0
C1287 C 0.42752 0.67658 0.09569 0.0
C1288 C 0.43103 0.69497 0.08272 0.0
C1289 C 0.44653 0.69859 0.05902 0.0
C1290 C 0.45855 0.68382 0.04821 0.0
C1291 C 0.45504 0.66537 0.06089 0.0
H1292 H 0.44923 0.71285 0.04906 0.0
H1293 H 0.41443 0.53321 0.16789 0.0
H1294 H 0.58165 0.14552 0.74016 0.0
H1295 H 0.59873 0.16985 0.77654 0.0
H1296 H 0.6082 0.12983 0.86771 0.0
H1297 H 0.59144 0.10536 0.83095 0.0
H1298 H 0.59845 0.16787 0.89263 0.0
H1299 H 0.6419 0.13526 0.80977 0.0
H1300 H 0.65194 0.12239 0.7475 0.0
H1301 H 0.65246 0.17845 0.69999 0.0
H1302 H 0.64201 0.19163 0.76179 0.0
H1303 H 0.67218 0.22174 0.98146 0.0
H1304 H 0.65379 0.19587 0.95308 0.0
H1305 H 0.65027 0.22691 0.84709 0.0
H1306 H 0.66874 0.25259 0.87511 0.0
H1307 H 0.65753 0.1915 0.83226 0.0
H1308 H 0.61271 0.22423 0.91203 0.0
H1309 H 0.60059 0.2377 0.97224 0.0
H1310 H 0.60141 0.18254 0.02392 0.0
H1311 H 0.61381 0.16878 0.96414 0.0
C1312 C 0.58709 0.14208 0.76828 0.0
C1313 C 0.58515 0.1237 0.78297 0.0
C1314 C 0.59686 0.15592 0.78896 0.0
C1315 C 0.60481 0.15159 0.82471 0.0
C1316 C 0.60208 0.13347 0.84027 0.0
C1317 C 0.59247 0.11956 0.81937 0.0
C1318 C 0.61715 0.16555 0.84434 0.0
C1319 C 0.61151 0.17287 0.87979 0.0
C1320 C 0.63402 0.17222 0.82718 0.0
C1321 C 0.64098 0.16441 0.79035 0.0
C1322 C 0.64404 0.14484 0.78599 0.0
C1323 C 0.6498 0.13749 0.75077 0.0
C1324 C 0.65276 0.14959 0.71977 0.0
C1325 C 0.65011 0.16909 0.72401 0.0
C1326 C 0.64427 0.17651 0.75914 0.0
C1327 C 0.66728 0.22314 0.9523 0.0
C1328 C 0.67165 0.23937 0.93076 0.0
C1329 C 0.65682 0.20831 0.93602 0.0
C1330 C 0.65038 0.20952 0.89803 0.0
C1331 C 0.65505 0.22559 0.8764 0.0
C1332 C 0.66561 0.24029 0.89251 0.0
C1333 C 0.63874 0.19418 0.88055 0.0
C1334 C 0.64454 0.18649 0.84539 0.0
C1335 C 0.62194 0.18729 0.89789 0.0
C1336 C 0.61438 0.19551 0.93376 0.0
C1337 C 0.61044 0.215 0.93633 0.0
C1338 C 0.6035 0.22268 0.97036 0.0
C1339 C 0.60028 0.21099 1.00192 0.0
C1340 C 0.60394 0.19158 0.99947 0.0
C1341 C 0.61092 0.18383 0.96552 0.0
H1342 H 0.59491 0.21697 0.02824 0.0
H1343 H 0.65716 0.14387 0.69249 0.0
H1344 H 0.30589 0.20118 0.18635 0.0
H1345 H 0.28811 0.21801 0.23554 0.0
H1346 H 0.26847 0.25809 0.15138 0.0
H1347 H 0.28653 0.24152 0.10195 0.0
H1348 H 0.27583 0.27552 0.21838 0.0
H1349 H 0.24078 0.22061 0.17844 0.0
H1350 H 0.23616 0.18662 0.16513 0.0
H1351 H 0.24761 0.17343 0.28269 0.0
H1352 H 0.25256 0.20733 0.29659 0.0
H1353 H 0.19996 0.31127 0.32886 0.0
H1354 H 0.21734 0.2956 0.27746 0.0
H1355 H 0.23686 0.25308 0.35676 0.0
H1356 H 0.21913 0.26835 0.4081 0.0
H1357 H 0.22897 0.2372 0.29053 0.0
H1358 H 0.2648 0.29176 0.33043 0.0
H1359 H 0.26975 0.32567 0.34415 0.0
H1360 H 0.25711 0.33944 0.22735 0.0
H1361 H 0.25185 0.30562 0.21306 0.0
C1362 C 0.29805 0.21376 0.17831 0.0
C1363 C 0.29751 0.21986 0.14002 0.0
C1364 C 0.28778 0.22331 0.20649 0.0
C1365 C 0.27655 0.23905 0.19703 0.0
C1366 C 0.2769 0.24589 0.15934 0.0
C1367 C 0.28728 0.2364 0.13109 0.0
C1368 C 0.26379 0.24776 0.22602 0.0
C1369 C 0.26541 0.26719 0.2338 0.0
C1370 C 0.25039 0.23686 0.24667 0.0
C1371 C 0.2472 0.21649 0.23847 0.0
C1372 C 0.24243 0.21044 0.2014 0.0
C1373 C 0.23974 0.1912 0.19375 0.0
C1374 C 0.24163 0.17787 0.22303 0.0
C1375 C 0.24616 0.18377 0.26004 0.0
C1376 C 0.2489 0.20299 0.26782 0.0
C1377 C 0.20771 0.29842 0.33531 0.0
C1378 C 0.20823 0.29118 0.37279 0.0
C1379 C 0.21779 0.28955 0.30589 0.0
C1380 C 0.22882 0.27339 0.31336 0.0
C1381 C 0.22858 0.26559 0.35028 0.0
C1382 C 0.21839 0.27436 0.37966 0.0
C1383 C 0.24108 0.26495 0.28316 0.0
C1384 C 0.23935 0.24555 0.27509 0.0
C1385 C 0.25441 0.27588 0.26233 0.0
C1386 C 0.25775 0.29619 0.27078 0.0
C1387 C 0.26296 0.30204 0.30774 0.0
C1388 C 0.26583 0.32124 0.31561 0.0
C1389 C 0.26369 0.33471 0.28667 0.0
C1390 C 0.25873 0.329 0.24976 0.0
C1391 C 0.25582 0.30982 0.24175 0.0
H1392 H 0.26591 0.34956 0.29282 0.0
H1393 H 0.23955 0.16297 0.21705 0.0
H1394 H 0.44279 0.45861 0.57755 0.0
H1395 H 0.4593 0.47564 0.52707 0.0
H1396 H 0.50905 0.4797 0.59828 0.0
H1397 H 0.4924 0.46303 0.64961 0.0
H1398 H 0.50168 0.51293 0.56743 0.0
H1399 H 0.50663 0.44977 0.51832 0.0
H1400 H 0.49499 0.41837 0.49835 0.0
H1401 H 0.45937 0.44439 0.41378 0.0
H1402 H 0.47062 0.47598 0.43359 0.0
H1403 H 0.56403 0.5453 0.42171 0.0
H1404 H 0.54758 0.52846 0.47259 0.0
H1405 H 0.49745 0.52489 0.40236 0.0
H1406 H 0.514 0.54144 0.35074 0.0
H1407 H 0.50512 0.4914 0.43275 0.0
H1408 H 0.50025 0.55458 0.48198 0.0
H1409 H 0.51201 0.58595 0.50195 0.0
H1410 H 0.54766 0.55978 0.5863 0.0
H1411 H 0.5363 0.52823 0.56648 0.0
C1412 C 0.45735 0.46285 0.58244 0.0
C1413 C 0.46623 0.45939 0.61783 0.0
C1414 C 0.46682 0.47259 0.55335 0.0
C1415 C 0.48552 0.47889 0.55858 0.0
C1416 C 0.49462 0.47503 0.59349 0.0
C1417 C 0.48511 0.46537 0.62277 0.0
C1418 C 0.49519 0.49027 0.52835 0.0
C1419 C 0.50269 0.50806 0.53811 0.0
C1420 C 0.49607 0.48425 0.48976 0.0
C1421 C 0.48935 0.46526 0.47768 0.0
C1422 C 0.49622 0.44881 0.49566 0.0
C1423 C 0.48971 0.43097 0.48433 0.0
C1424 C 0.47642 0.42938 0.45488 0.0
C1425 C 0.46965 0.44564 0.43662 0.0
C1426 C 0.4761 0.46351 0.44785 0.0
C1427 C 0.54941 0.54122 0.41714 0.0
C1428 C 0.54039 0.54476 0.38193 0.0
C1429 C 0.53998 0.53159 0.44645 0.0
C1430 C 0.52119 0.52545 0.44155 0.0
C1431 C 0.51195 0.52944 0.40687 0.0
C1432 C 0.52141 0.53902 0.37742 0.0
C1433 C 0.5116 0.51405 0.47183 0.0
C1434 C 0.50411 0.49626 0.46208 0.0
C1435 C 0.51075 0.52006 0.51042 0.0
C1436 C 0.51754 0.53903 0.5225 0.0
C1437 C 0.5107 0.5555 0.50459 0.0
C1438 C 0.51728 0.57332 0.51592 0.0
C1439 C 0.5306 0.57485 0.54531 0.0
C1440 C 0.53735 0.55857 0.56351 0.0
C1441 C 0.53083 0.54072 0.55227 0.0
H1442 H 0.53568 0.58866 0.55404 0.0
H1443 H 0.47139 0.41556 0.44616 0.0
H1444 H 0.21565 0.76567 0.59899 0.0
H1445 H 0.23317 0.74942 0.6496 0.0
H1446 H 0.22383 0.79675 0.72509 0.0
H1447 H 0.20645 0.81319 0.67462 0.0
H1448 H 0.26042 0.78621 0.72608 0.0
H1449 H 0.20049 0.75492 0.73806 0.0
H1450 H 0.17246 0.73719 0.71587 0.0
H1451 H 0.20809 0.6911 0.68074 0.0
H1452 H 0.23638 0.70868 0.70226 0.0
H1453 H 0.29118 0.74119 0.89872 0.0
H1454 H 0.27417 0.75789 0.84799 0.0
H1455 H 0.28266 0.71044 0.77238 0.0
H1456 H 0.29947 0.69355 0.82296 0.0
H1457 H 0.24643 0.72118 0.77164 0.0
H1458 H 0.30639 0.75248 0.75961 0.0
H1459 H 0.33441 0.7702 0.78187 0.0
H1460 H 0.29875 0.81625 0.81714 0.0
H1461 H 0.27047 0.79868 0.79555 0.0
C1462 C 0.21708 0.77255 0.6265 0.0
C1463 C 0.20959 0.79078 0.63259 0.0
C1464 C 0.22711 0.7632 0.65549 0.0
C1465 C 0.22983 0.77183 0.69128 0.0
C1466 C 0.22199 0.78982 0.69773 0.0
C1467 C 0.21193 0.79915 0.66882 0.0
C1468 C 0.24143 0.76242 0.72147 0.0
C1469 C 0.25719 0.77209 0.73643 0.0
C1470 C 0.23755 0.74382 0.73437 0.0
C1471 C 0.22057 0.73321 0.72142 0.0
C1472 C 0.20236 0.74108 0.7253 0.0
C1473 C 0.18643 0.73104 0.71291 0.0
C1474 C 0.1885 0.71306 0.69681 0.0
C1475 C 0.20651 0.70505 0.69317 0.0
C1476 C 0.2225 0.71504 0.70549 0.0
C1477 C 0.28974 0.73441 0.87111 0.0
C1478 C 0.2967 0.71596 0.8651 0.0
C1479 C 0.27998 0.74401 0.84206 0.0
C1480 C 0.27709 0.73545 0.80625 0.0
C1481 C 0.2846 0.71732 0.79977 0.0
C1482 C 0.29434 0.70772 0.82875 0.0
C1483 C 0.26546 0.74494 0.7762 0.0
C1484 C 0.24968 0.7353 0.76128 0.0
C1485 C 0.26932 0.76357 0.76334 0.0
C1486 C 0.2863 0.77417 0.77632 0.0
C1487 C 0.30451 0.76632 0.77241 0.0
C1488 C 0.32044 0.77635 0.78485 0.0
C1489 C 0.31836 0.79432 0.80101 0.0
C1490 C 0.30034 0.80231 0.80467 0.0
C1491 C 0.28435 0.79233 0.7923 0.0
H1492 H 0.33071 0.80206 0.81061 0.0
H1493 H 0.17614 0.70531 0.68724 0.0
H1494 H 0.98795 0.46233 0.8573 0.0
H1495 H 0.00418 0.47983 0.90788 0.0
H1496 H 0.95622 0.47162 0.98239 0.0
H1497 H 0.93978 0.45433 0.93186 0.0
H1498 H 0.9669 0.50775 0.98306 0.0
H1499 H 0.99829 0.44815 0.99715 0.0
H1500 H 0.01606 0.41994 0.97627 0.0
H1501 H 0.06226 0.45522 0.94009 0.0
H1502 H 0.04465 0.48368 0.96029 0.0
H1503 H 0.0132 0.54027 0.15388 0.0
H1504 H 0.99609 0.52248 0.10471 0.0
H1505 H 0.04218 0.53148 0.02594 0.0
H1506 H 0.05939 0.54918 0.07475 0.0
H1507 H 0.03212 0.49455 0.02871 0.0
H1508 H 1.0003 0.55419 0.01416 0.0
H1509 H 0.98244 0.58224 0.0356 0.0
H1510 H 0.93692 0.54655 0.07356 0.0
H1511 H 0.95463 0.51824 0.05282 0.0
C1512 C 0.98095 0.46395 0.88463 0.0
C1513 C 0.9625 0.45689 0.89035 0.0
C1514 C 0.99027 0.47398 0.9136 0.0
C1515 C 0.98146 0.47706 0.94908 0.0
C1516 C 0.9633 0.46953 0.95526 0.0
C1517 C 0.95396 0.45951 0.92633 0.0
C1518 C 0.99079 0.48885 0.97904 0.0
C1519 C 0.98105 0.50468 0.99347 0.0
C1520 C 0.00942 0.48515 0.99208 0.0
C1521 C 0.02006 0.46807 0.9799 0.0
C1522 C 0.01217 0.44991 0.98445 0.0
C1523 C 0.02223 0.43387 0.97279 0.0
C1524 C 0.04026 0.43579 0.95677 0.0
C1525 C 0.04829 0.45376 0.95246 0.0
C1526 C 0.03828 0.46985 0.96404 0.0
C1527 C 0.01958 0.53876 0.1259 0.0
C1528 C 0.03774 0.54615 0.11844 0.0
C1529 C 0.00976 0.52856 0.09778 0.0
C1530 C 0.01787 0.52558 0.0616 0.0
C1531 C 0.03568 0.53349 0.05368 0.0
C1532 C 0.04546 0.54373 0.08166 0.0
C1533 C 0.00826 0.51348 0.03257 0.0
C1534 C 0.01795 0.49759 0.01834 0.0
C1535 C 0.98957 0.51708 0.01982 0.0
C1536 C 0.97889 0.53408 0.0323 0.0
C1537 C 0.98656 0.55231 0.02739 0.0
C1538 C 0.97645 0.56826 0.03935 0.0
C1539 C 0.95858 0.56618 0.05603 0.0
C1540 C 0.95077 0.54814 0.06069 0.0
C1541 C 0.96083 0.53213 0.04881 0.0
H1542 H 0.95078 0.57855 0.06527 0.0
H1543 H 0.04803 0.42335 0.94777 0.0
H1544 H 0.79137 0.73878 0.60212 0.0
H1545 H 0.77408 0.75546 0.65238 0.0
H1546 H 0.78194 0.7079 0.72808 0.0
H1547 H 0.79907 0.69103 0.67795 0.0
H1548 H 0.7456 0.71902 0.72759 0.0
H1549 H 0.8059 0.74941 0.74191 0.0
H1550 H 0.83435 0.76674 0.72068 0.0
H1551 H 0.79966 0.81335 0.6843 0.0
H1552 H 0.77096 0.79618 0.70486 0.0
H1553 H 0.71347 0.76422 0.89854 0.0
H1554 H 0.73102 0.74742 0.84879 0.0
H1555 H 0.72416 0.7951 0.77298 0.0
H1556 H 0.70684 0.8121 0.82263 0.0
H1557 H 0.76014 0.7838 0.77382 0.0
H1558 H 0.69984 0.75342 0.75903 0.0
H1559 H 0.67133 0.73612 0.78003 0.0
H1560 H 0.70591 0.68955 0.81699 0.0
H1561 H 0.73467 0.70668 0.79667 0.0
C1562 C 0.7897 0.73196 0.62964 0.0
C1563 C 0.79662 0.71351 0.63584 0.0
C1564 C 0.7798 0.74154 0.65841 0.0
C1565 C 0.77668 0.73296 0.6941 0.0
C1566 C 0.78408 0.7148 0.70076 0.0
C1567 C 0.79399 0.70521 0.67206 0.0
C1568 C 0.76499 0.74252 0.72385 0.0
C1569 C 0.74895 0.73308 0.73812 0.0
C1570 C 0.76903 0.76106 0.73691 0.0
C1571 C 0.78627 0.77143 0.72458 0.0
C1572 C 0.80432 0.76329 0.7291 0.0
C1573 C 0.8205 0.7731 0.71724 0.0
C1574 C 0.81881 0.79111 0.70106 0.0
C1575 C 0.80095 0.79938 0.69679 0.0
C1576 C 0.78472 0.78963 0.70858 0.0
C1577 C 0.71542 0.77104 0.87109 0.0
C1578 C 0.70874 0.78957 0.86474 0.0
C1579 C 0.72547 0.76139 0.84261 0.0
C1580 C 0.72893 0.76997 0.80703 0.0
C1581 C 0.72177 0.7882 0.80022 0.0
C1582 C 0.71175 0.79787 0.82865 0.0
C1583 C 0.74072 0.76032 0.77753 0.0
C1584 C 0.75679 0.76974 0.76331 0.0
C1585 C 0.73669 0.74177 0.76449 0.0
C1586 C 0.71943 0.73142 0.77668 0.0
C1587 C 0.70138 0.73955 0.77192 0.0
C1588 C 0.68517 0.72977 0.78364 0.0
C1589 C 0.68681 0.71177 0.79993 0.0
C1590 C 0.70466 0.7035 0.80442 0.0
C1591 C 0.72092 0.71324 0.79278 0.0
H1592 H 0.67424 0.70422 0.80898 0.0
H1593 H 0.83135 0.79868 0.6919 0.0
H1594 H 0.71571 0.31016 0.16925 0.0
H1595 H 0.73318 0.29357 0.21868 0.0
H1596 H 0.71868 0.24003 0.16671 0.0
H1597 H 0.70212 0.25687 0.1152 0.0
H1598 H 0.7268 0.27252 0.27183 0.0
H1599 H 0.75104 0.20622 0.18649 0.0
H1600 H 0.75899 0.19739 0.12018 0.0
H1601 H 0.77277 0.25528 0.09483 0.0
H1602 H 0.76514 0.2644 0.16108 0.0
H1603 H 0.76528 0.21027 0.40691 0.0
H1604 H 0.74731 0.22509 0.35543 0.0
H1605 H 0.79818 0.22826 0.28709 0.0
H1606 H 0.81574 0.21166 0.3377 0.0
H1607 H 0.77261 0.22146 0.24168 0.0
H1608 H 0.77597 0.26843 0.33867 0.0
H1609 H 0.77307 0.28215 0.4032 0.0
H1610 H 0.7131 0.27182 0.40181 0.0
H1611 H 0.71567 0.25781 0.33744 0.0
C1612 C 0.71608 0.29483 0.16833 0.0
C1613 C 0.70748 0.28486 0.13812 0.0
C1614 C 0.72614 0.2853 0.19682 0.0
C1615 C 0.72762 0.26545 0.19653 0.0
C1616 C 0.7183 0.25535 0.16726 0.0
C1617 C 0.70862 0.26497 0.13798 0.0
C1618 C 0.73903 0.25565 0.22684 0.0
C1619 C 0.73681 0.26136 0.26506 0.0
C1620 C 0.75256 0.24139 0.21842 0.0
C1621 C 0.75729 0.23601 0.1786 0.0
C1622 C 0.75581 0.21704 0.16677 0.0
C1623 C 0.76026 0.21199 0.1292 0.0
C1624 C 0.76631 0.22578 0.10327 0.0
C1625 C 0.768 0.24463 0.1149 0.0
C1626 C 0.7636 0.24975 0.15243 0.0
C1627 C 0.77261 0.21426 0.38093 0.0
C1628 C 0.79193 0.21015 0.37642 0.0
C1629 C 0.76236 0.22288 0.3515 0.0
C1630 C 0.77136 0.22846 0.31743 0.0
C1631 C 0.79078 0.22424 0.31294 0.0
C1632 C 0.80089 0.21491 0.34195 0.0
C1633 C 0.76046 0.23845 0.28661 0.0
C1634 C 0.76266 0.23268 0.24838 0.0
C1635 C 0.74768 0.25345 0.2947 0.0
C1636 C 0.74605 0.26192 0.33337 0.0
C1637 C 0.76218 0.26898 0.35222 0.0
C1638 C 0.7606 0.27682 0.38876 0.0
C1639 C 0.74292 0.27781 0.40663 0.0
C1640 C 0.72679 0.27102 0.38795 0.0
C1641 C 0.7283 0.26315 0.35143 0.0
H1642 H 0.74173 0.28388 0.43492 0.0
H1643 H 0.76973 0.22184 0.0742 0.0
H1644 H 0.94563 0.95033 0.07298 0.0
H1645 H 0.96246 0.96761 0.02306 0.0
H1646 H 0.00589 0.98307 0.10404 0.0
H1647 H 0.98925 0.9656 0.15416 0.0
H1648 H 0.96925 0.00467 0.01979 0.0
H1649 H 0.04781 0.99 0.0573 0.0
H1650 H 0.06747 0.96442 0.08448 0.0
H1651 H 0.02694 0.92308 0.04674 0.0
H1652 H 0.00718 0.94837 0.0189 0.0
H1653 H 0.06055 0.05168 0.93333 0.0
H1654 H 0.04371 0.03402 0.98268 0.0
H1655 H 1.00047 0.0189 0.90105 0.0
H1656 H 0.01711 0.03676 0.85147 0.0
H1657 H 0.03696 0.99697 0.98531 0.0
H1658 H 0.95845 0.01166 0.94758 0.0
H1659 H 0.93879 0.03726 0.92052 0.0
H1660 H 0.9792 0.07859 0.95883 0.0
H1661 H 0.99896 0.05327 0.98655 0.0
C1662 C 0.95893 0.95712 0.08014 0.0
C1663 C 0.96604 0.95656 0.11775 0.0
C1664 C 0.96849 0.9671 0.05152 0.0
C1665 C 0.98544 0.97669 0.05968 0.0
C1666 C 0.99294 0.97563 0.09686 0.0
C1667 C 0.98339 0.96561 0.12555 0.0
C1668 C 0.9947 0.98855 0.0298 0.0
C1669 C 0.98399 0.00279 0.01185 0.0
C1670 C 0.01406 0.98648 0.02008 0.0
C1671 C 0.02592 0.97112 0.03639 0.0
C1672 C 0.04313 0.97545 0.0547 0.0
C1673 C 0.05428 0.961 0.07023 0.0
C1674 C 0.04842 0.94214 0.06746 0.0
C1675 C 0.03142 0.93769 0.04902 0.0
C1676 C 0.02023 0.95209 0.03341 0.0
C1677 C 0.0473 0.04487 0.92589 0.0
C1678 C 0.04023 0.04566 0.88826 0.0
C1679 C 0.03773 0.03467 0.95419 0.0
C1680 C 0.02082 0.02508 0.94569 0.0
C1681 C 0.01338 0.02633 0.90849 0.0
C1682 C 0.02293 0.03657 0.88011 0.0
C1683 C 0.01151 0.0131 0.97532 0.0
C1684 C 0.02221 0.99884 0.99322 0.0
C1685 C 0.99215 0.01516 0.98501 0.0
C1686 C 0.98028 0.03053 0.96875 0.0
C1687 C 0.96311 0.02621 0.95032 0.0
C1688 C 0.95195 0.04068 0.93486 0.0
C1689 C 0.95778 0.05954 0.93783 0.0
C1690 C 0.97474 0.06398 0.9564 0.0
C1691 C 0.98594 0.04957 0.97194 0.0
H1692 H 0.94912 0.07071 0.92583 0.0
H1693 H 0.05707 0.93098 0.07952 0.0
H1694 H 0.44157 0.95583 0.42065 0.0
H1695 H 0.45778 0.97305 0.47159 0.0
H1696 H 0.50627 0.98104 0.39847 0.0
H1697 H 0.49025 0.96365 0.34734 0.0
H1698 H 0.51708 0.97335 0.47127 0.0
H1699 H 0.47405 0.01611 0.40952 0.0
H1700 H 0.44312 0.02675 0.38472 0.0
H1701 H 0.4197 0.02443 0.49784 0.0
H1702 H 0.45045 0.01349 0.52324 0.0
H1703 H 0.56019 0.04754 0.57552 0.0
H1704 H 0.54421 0.03041 0.52413 0.0
H1705 H 0.49541 0.02224 0.59634 0.0
H1706 H 0.51119 0.03956 0.64785 0.0
H1707 H 0.48484 0.03016 0.52361 0.0
H1708 H 0.52788 0.98717 0.58519 0.0
H1709 H 0.55884 0.97651 0.60983 0.0
H1710 H 0.58226 0.97934 0.49677 0.0
H1711 H 0.55149 0.99029 0.47152 0.0
C1712 C 0.4558 0.96097 0.41546 0.0
C1713 C 0.46451 0.95842 0.37964 0.0
C1714 C 0.465 0.97096 0.44463 0.0
C1715 C 0.4831 0.9787 0.43866 0.0
C1716 C 0.49226 0.97532 0.4037 0.0
C1717 C 0.48306 0.96534 0.37446 0.0
C1718 C 0.49216 0.99087 0.46833 0.0
C1719 C 0.51013 0.9859 0.48234 0.0
C1720 C 0.48298 0.00709 0.48337 0.0
C1721 C 0.4645 0.0138 0.46822 0.0
C1722 C 0.46227 0.01773 0.42907 0.0
C1723 C 0.44477 0.02384 0.4149 0.0
C1724 C 0.42944 0.02622 0.43967 0.0
C1725 C 0.43159 0.02255 0.47868 0.0
C1726 C 0.44905 0.01641 0.49298 0.0
C1727 C 0.54595 0.04236 0.58041 0.0
C1728 C 0.53707 0.04486 0.61608 0.0
C1729 C 0.53687 0.03243 0.55099 0.0
C1730 C 0.51873 0.02469 0.55655 0.0
C1731 C 0.50944 0.02797 0.5914 0.0
C1732 C 0.51851 0.03789 0.62088 0.0
C1733 C 0.50975 0.01262 0.5266 0.0
C1734 C 0.4918 0.01761 0.51252 0.0
C1735 C 0.51895 0.99643 0.51148 0.0
C1736 C 0.53744 0.98973 0.52654 0.0
C1737 C 0.53967 0.98566 0.56563 0.0
C1738 C 0.55718 0.97954 0.5797 0.0
C1739 C 0.57252 0.9773 0.5549 0.0
C1740 C 0.57037 0.98111 0.51595 0.0
C1741 C 0.5529 0.98726 0.50174 0.0
H1742 H 0.58607 0.97256 0.56585 0.0
H1743 H 0.41591 0.03095 0.42867 0.0
H1744 H 0.11908 0.09874 0.96232 0.0
H1745 H 0.14861 0.11323 0.98465 0.0
H1746 H 0.17744 0.09286 0.88409 0.0
H1747 H 0.14817 0.07817 0.86185 0.0
H1748 H 0.1994 0.0888 0.9453 0.0
H1749 H 0.16238 0.13808 0.88875 0.0
H1750 H 0.13394 0.1578 0.87908 0.0
H1751 H 0.13747 0.17728 0.9951 0.0
H1752 H 0.16577 0.15743 0.00563 0.0
H1753 H 0.26228 0.17966 0.96386 0.0
H1754 H 0.23373 0.16362 0.94083 0.0
H1755 H 0.2383 0.123 0.03247 0.0
H1756 H 0.26696 0.13865 0.05523 0.0
H1757 H 0.20009 0.15781 0.9721 0.0
H1758 H 0.22263 0.08019 0.00289 0.0
H1759 H 0.25183 0.06101 0.00516 0.0
H1760 H 0.27893 0.09943 0.92733 0.0
H1761 H 0.24982 0.11869 0.92419 0.0
C1762 C 0.13175 0.09717 0.94516 0.0
C1763 C 0.13123 0.08737 0.91021 0.0
C1764 C 0.14859 0.10554 0.95787 0.0
C1765 C 0.16517 0.10433 0.93577 0.0
C1766 C 0.16482 0.09399 0.90158 0.0
C1767 C 0.14804 0.08563 0.88889 0.0
C1768 C 0.18273 0.11432 0.94753 0.0
C1769 C 0.19954 0.10387 0.95133 0.0
C1770 C 0.18303 0.13408 0.95437 0.0
C1771 C 0.16608 0.14612 0.94809 0.0
C1772 C 0.15701 0.14646 0.91229 0.0
C1773 C 0.14092 0.15768 0.90664 0.0
C1774 C 0.13388 0.16875 0.93649 0.0
C1775 C 0.14293 0.16867 0.97202 0.0
C1776 C 0.159 0.15744 0.97785 0.0
C1777 C 0.25725 0.16728 0.97905 0.0
C1778 C 0.26699 0.1604 0.01129 0.0
C1779 C 0.24089 0.15817 0.96591 0.0
C1780 C 0.23398 0.142 0.98468 0.0
C1781 C 0.24354 0.13525 0.01712 0.0
C1782 C 0.25992 0.14428 0.03016 0.0
C1783 C 0.2167 0.13222 0.97057 0.0
C1784 C 0.19994 0.14272 0.96628 0.0
C1785 C 0.21657 0.11259 0.96229 0.0
C1786 C 0.23409 0.10098 0.96364 0.0
C1787 C 0.23479 0.0845 0.98616 0.0
C1788 C 0.25134 0.07362 0.98761 0.0
C1789 C 0.26725 0.07903 0.96651 0.0
C1790 C 0.26662 0.0953 0.94379 0.0
C1791 C 0.25011 0.10621 0.9422 0.0
H1792 H 0.28004 0.0706 0.96769 0.0
H1793 H 0.12143 0.17744 0.93206 0.0
H1794 H 0.62256 0.51795 0.27087 0.0
H1795 H 0.63578 0.4883 0.24762 0.0
H1796 H 0.58288 0.47528 0.19155 0.0
H1797 H 0.56956 0.50531 0.2142 0.0
H1798 H 0.62572 0.45358 0.2637 0.0
H1799 H 0.59329 0.44577 0.11251 0.0
H1800 H 0.58158 0.46565 0.05958 0.0
H1801 H 0.61701 0.5115 0.09705 0.0
H1802 H 0.6292 0.49178 0.14977 0.0
H1803 H 0.64124 0.36054 0.18882 0.0
H1804 H 0.62663 0.39025 0.20952 0.0
H1805 H 0.66422 0.42152 0.13562 0.0
H1806 H 0.67878 0.39198 0.11458 0.0
H1807 H 0.62809 0.43346 0.12803 0.0
H1808 H 0.67169 0.42065 0.23077 0.0
H1809 H 0.68598 0.40152 0.28226 0.0
H1810 H 0.63232 0.39906 0.33986 0.0
H1811 H 0.61766 0.41798 0.28842 0.0
C1812 C 0.61371 0.50889 0.25338 0.0
C1813 C 0.59495 0.51401 0.24452 0.0
C1814 C 0.6213 0.49188 0.24019 0.0
C1815 C 0.61035 0.47953 0.21786 0.0
C1816 C 0.59168 0.48467 0.20841 0.0
C1817 C 0.58407 0.50183 0.22143 0.0
C1818 C 0.61849 0.46109 0.20576 0.0
C1819 C 0.62616 0.44918 0.23401 0.0
C1820 C 0.61915 0.45532 0.16702 0.0
C1821 C 0.61191 0.46738 0.1355 0.0
C1822 C 0.59858 0.4601 0.10946 0.0
C1823 C 0.59188 0.47133 0.07946 0.0
C1824 C 0.59846 0.48987 0.07509 0.0
C1825 C 0.61184 0.49718 0.10061 0.0
C1826 C 0.61863 0.48598 0.13059 0.0
C1827 C 0.64653 0.37375 0.17726 0.0
C1828 C 0.66122 0.37388 0.15014 0.0
C1829 C 0.63815 0.39071 0.18909 0.0
C1830 C 0.64436 0.40809 0.17411 0.0
C1831 C 0.65916 0.40826 0.1474 0.0
C1832 C 0.66756 0.39135 0.13563 0.0
C1833 C 0.6354 0.42615 0.18594 0.0
C1834 C 0.62749 0.43787 0.15771 0.0
C1835 C 0.63475 0.4319 0.22459 0.0
C1836 C 0.64354 0.42055 0.25555 0.0
C1837 C 0.66291 0.4159 0.25426 0.0
C1838 C 0.67108 0.40512 0.28346 0.0
C1839 C 0.66005 0.39903 0.31425 0.0
C1840 C 0.64084 0.40376 0.31596 0.0
C1841 C 0.6326 0.41452 0.2868 0.0
H1842 H 0.6664 0.39069 0.33684 0.0
H1843 H 0.59325 0.49855 0.05186 0.0
H1844 H 0.23896 0.86772 0.54938 0.0
H1845 H 0.26721 0.88412 0.52688 0.0
H1846 H 0.26606 0.85124 0.42297 0.0
H1847 H 0.23816 0.83413 0.44619 0.0
H1848 H 0.30052 0.85335 0.44676 0.0
H1849 H 0.25164 0.89955 0.42807 0.0
H1850 H 0.22459 0.91968 0.44649 0.0
H1851 H 0.25895 0.94722 0.53121 0.0
H1852 H 0.28615 0.92708 0.5136 0.0
H1853 H 0.36297 0.91045 0.33952 0.0
H1854 H 0.33455 0.89512 0.36389 0.0
H1855 H 0.34262 0.92238 0.47293 0.0
H1856 H 0.3713 0.93791 0.44864 0.0
H1857 H 0.3051 0.92348 0.44757 0.0
H1858 H 0.35429 0.87691 0.46355 0.0
H1859 H 0.38102 0.85711 0.44212 0.0
H1860 H 0.34525 0.83062 0.35842 0.0
H1861 H 0.31836 0.85046 0.37901 0.0
C1862 C 0.24464 0.86403 0.52163 0.0
C1863 C 0.23623 0.84968 0.49947 0.0
C1864 C 0.26078 0.87351 0.50868 0.0
C1865 C 0.26862 0.86922 0.47285 0.0
C1866 C 0.26027 0.85486 0.45068 0.0
C1867 C 0.24429 0.84512 0.46392 0.0
C1868 C 0.28579 0.8794 0.45897 0.0
C1869 C 0.30136 0.86869 0.44645 0.0
C1870 C 0.28716 0.89944 0.45932 0.0
C1871 C 0.27088 0.91168 0.46974 0.0
C1872 C 0.25339 0.90981 0.45079 0.0
C1873 C 0.23804 0.92124 0.46106 0.0
C1874 C 0.24004 0.93469 0.49007 0.0
C1875 C 0.25742 0.93678 0.50877 0.0
C1876 C 0.27281 0.92538 0.49863 0.0
C1877 C 0.35882 0.9132 0.36873 0.0
C1878 C 0.36958 0.92529 0.39222 0.0
C1879 C 0.34253 0.90439 0.38263 0.0
C1880 C 0.33661 0.9074 0.42037 0.0
C1881 C 0.347 0.91981 0.44373 0.0
C1882 C 0.3634 0.92863 0.42983 0.0
C1883 C 0.31964 0.89741 0.43527 0.0
C1884 C 0.30416 0.90815 0.44797 0.0
C1885 C 0.31826 0.87741 0.43469 0.0
C1886 C 0.33435 0.86528 0.42263 0.0
C1887 C 0.35215 0.86695 0.44041 0.0
C1888 C 0.36733 0.85571 0.42844 0.0
C1889 C 0.36485 0.84265 0.39887 0.0
C1890 C 0.34716 0.84076 0.3813 0.0
C1891 C 0.33194 0.85198 0.39314 0.0
H1892 H 0.37662 0.83396 0.38962 0.0
H1893 H 0.22813 0.94351 0.498 0.0
H1894 H 0.81749 0.60922 0.64031 0.0
H1895 H 0.83067 0.57961 0.66553 0.0
H1896 H 0.88415 0.60743 0.68559 0.0
H1897 H 0.871 0.63717 0.66122 0.0
H1898 H 0.88495 0.57158 0.64141 0.0
H1899 H 0.86093 0.59872 0.75896 0.0
H1900 H 0.83611 0.61267 0.79972 0.0
H1901 H 0.80225 0.56253 0.78686 0.0
H1902 H 0.82678 0.54838 0.74554 0.0
H1903 H 0.93424 0.49988 0.74075 0.0
H1904 H 0.92009 0.52937 0.71814 0.0
H1905 H 0.86423 0.5063 0.73753 0.0
H1906 H 0.87843 0.47721 0.76243 0.0
H1907 H 0.86381 0.53994 0.76057 0.0
H1908 H 0.88553 0.51202 0.6445 0.0
H1909 H 0.9082 0.49711 0.60017 0.0
H1910 H 0.94338 0.54669 0.60434 0.0
H1911 H 0.92104 0.56182 0.64911 0.0
C1912 C 0.83198 0.60907 0.65053 0.0
C1913 C 0.8432 0.62551 0.64891 0.0
C1914 C 0.83947 0.59218 0.66489 0.0
C1915 C 0.85835 0.5914 0.67731 0.0
C1916 C 0.86953 0.60781 0.67609 0.0
C1917 C 0.86196 0.62479 0.6624 0.0
C1918 C 0.86665 0.5733 0.69039 0.0
C1919 C 0.88056 0.56471 0.6677 0.0
C1920 C 0.8603 0.56411 0.72386 0.0
C1921 C 0.8456 0.57258 0.74883 0.0
C1922 C 0.84812 0.59074 0.76453 0.0
C1923 C 0.83412 0.59867 0.7878 0.0
C1924 C 0.81759 0.58851 0.79579 0.0
C1925 C 0.81505 0.57039 0.78061 0.0
C1926 C 0.829 0.5624 0.75729 0.0
C1927 C 0.91894 0.50107 0.73992 0.0
C1928 C 0.90743 0.48625 0.75321 0.0
C1929 C 0.91084 0.51791 0.72677 0.0
C1930 C 0.89103 0.52003 0.72538 0.0
C1931 C 0.87953 0.50509 0.7383 0.0
C1932 C 0.88764 0.48843 0.75239 0.0
C1933 C 0.88234 0.53801 0.71166 0.0
C1934 C 0.86828 0.54664 0.73417 0.0
C1935 C 0.88824 0.54702 0.67745 0.0
C1936 C 0.90169 0.53798 0.65045 0.0
C1937 C 0.89817 0.5197 0.63618 0.0
C1938 C 0.91095 0.51121 0.61094 0.0
C1939 C 0.92724 0.52093 0.59953 0.0
C1940 C 0.93076 0.53917 0.61325 0.0
C1941 C 0.91804 0.54772 0.63852 0.0
H1942 H 0.93712 0.51433 0.57999 0.0
H1943 H 0.80677 0.59467 0.81382 0.0
H1944 H 0.75142 0.81918 0.00887 0.0
H1945 H 0.78125 0.83303 0.03075 0.0
H1946 H 0.75754 0.88906 0.01773 0.0
H1947 H 0.72818 0.87521 0.99336 0.0
H1948 H 0.79029 0.89041 0.99177 0.0
H1949 H 0.76583 0.86556 0.10861 0.0
H1950 H 0.75252 0.84165 0.15241 0.0
H1951 H 0.80254 0.80761 0.13971 0.0
H1952 H 0.81605 0.8312 0.09542 0.0
H1953 H 0.86007 0.93544 0.11342 0.0
H1954 H 0.83045 0.92166 0.08943 0.0
H1955 H 0.86057 0.87137 0.05512 0.0
H1956 H 0.89034 0.88522 0.07809 0.0
H1957 H 0.82531 0.86738 0.1056 0.0
H1958 H 0.84886 0.89501 0.9877 0.0
H1959 H 0.86111 0.92134 0.94852 0.0
H1960 H 0.81053 0.95332 0.97053 0.0
H1961 H 0.7981 0.92727 0.01032 0.0
C1962 C 0.75256 0.83444 0.01106 0.0
C1963 C 0.73752 0.84614 0.99952 0.0
C1964 C 0.76959 0.84238 0.02377 0.0
C1965 C 0.77166 0.86215 0.02654 0.0
C1966 C 0.75641 0.87379 0.01577 0.0
C1967 C 0.73959 0.86588 1.00202 0.0
C1968 C 0.78993 0.87075 0.03907 0.0
C1969 C 0.79772 0.88548 0.01702 0.0
C1970 C 0.79994 0.86428 0.07173 0.0
C1971 C 0.79187 0.85006 0.09839 0.0
C1972 C 0.77393 0.85291 0.11494 0.0
C1973 C 0.76636 0.83942 0.13989 0.0
C1974 C 0.77665 0.8231 0.14876 0.0
C1975 C 0.79457 0.82025 0.13277 0.0
C1976 C 0.8022 0.83368 0.10777 0.0
C1977 C 0.86041 0.92155 0.1003 0.0
C1978 C 0.8775 0.91143 0.09745 0.0
C1979 C 0.84351 0.91372 0.0867 0.0
C1980 C 0.84341 0.89552 0.07067 0.0
C1981 C 0.86044 0.88544 0.06745 0.0
C1982 C 0.87742 0.89342 0.08032 0.0
C1983 C 0.82537 0.88682 0.05831 0.0
C1984 C 0.8177 0.87217 0.08044 0.0
C1985 C 0.81523 0.89367 0.0264 0.0
C1986 C 0.82265 0.90928 0.00231 0.0
C1987 C 0.84043 0.90773 0.98449 0.0
C1988 C 0.84739 0.92258 0.9621 0.0
C1989 C 0.83663 0.93901 0.95713 0.0
C1990 C 0.81886 0.9406 0.97444 0.0
C1991 C 0.81185 0.92579 0.99689 0.0
H1992 H 0.84203 0.9505 0.93978 0.0
H1993 H 0.77077 0.81268 0.16808 0.0
H1994 H 0.43628 0.50257 0.76781 0.0
H1995 H 0.4214 0.53185 0.78957 0.0
H1996 H 0.36617 0.50808 0.76645 0.0
H1997 H 0.38112 0.4792 0.74252 0.0
H1998 H 0.36565 0.54168 0.74324 0.0
H1999 H 0.38583 0.51414 0.86081 0.0
H2000 H 0.40793 0.49954 0.90681 0.0
H2001 H 0.4425 0.54959 0.90499 0.0
H2002 H 0.42074 0.5644 0.85855 0.0
H2003 H 0.31662 0.6108 0.8597 0.0
H2004 H 0.33041 0.58124 0.83561 0.0
H2005 H 0.38399 0.60941 0.81915 0.0
H2006 H 0.37025 0.63908 0.84236 0.0
H2007 H 0.38442 0.57369 0.86361 0.0
H2008 H 0.36193 0.60038 0.74425 0.0
H2009 H 0.33758 0.61393 0.70169 0.0
H2010 H 0.30421 0.56337 0.71267 0.0
H2011 H 0.32825 0.54962 0.75577 0.0
C2012 C 0.42096 0.50355 0.76765 0.0
C2013 C 0.40986 0.48859 0.75357 0.0
C2014 C 0.41243 0.52028 0.7803 0.0
C2015 C 0.39258 0.52215 0.78035 0.0
C2016 C 0.38149 0.50707 0.7667 0.0
C2017 C 0.39004 0.49053 0.75316 0.0
C2018 C 0.38342 0.54004 0.79338 0.0
C2019 C 0.3696 0.54846 0.76989 0.0
C2020 C 0.38862 0.54915 0.82794 0.0
C2021 C 0.40174 0.5403 0.85591 0.0
C2022 C 0.39822 0.52198 0.87 0.0
C2023 C 0.41067 0.51368 0.89619 0.0
C2024 C 0.42663 0.52361 0.90874 0.0
C2025 C 0.43014 0.5419 0.8952 0.0
C2026 C 0.41774 0.55026 0.86897 0.0
C2027 C 0.33127 0.61074 0.85048 0.0
C2028 C 0.34234 0.62727 0.8528 0.0
C2029 C 0.33911 0.59387 0.83677 0.0
C2030 C 0.3582 0.5932 0.82572 0.0
C2031 C 0.36923 0.6097 0.82759 0.0
C2032 C 0.36131 0.62664 0.84062 0.0
C2033 C 0.36688 0.57513 0.81341 0.0
C2034 C 0.38054 0.56674 0.83708 0.0
C2035 C 0.3612 0.56582 0.77958 0.0
C2036 C 0.34679 0.57406 0.75356 0.0
C2037 C 0.34932 0.59223 0.73789 0.0
C2038 C 0.33559 0.59993 0.7136 0.0
C2039 C 0.31933 0.58954 0.70457 0.0
C2040 C 0.3168 0.57141 0.71973 0.0
C2041 C 0.33047 0.56365 0.74406 0.0
H2042 H 0.30872 0.59553 0.68576 0.0
H2043 H 0.43626 0.51716 0.92902 0.0
H2044 H 0.77411 0.12655 0.47759 0.0
H2045 H 0.74635 0.10951 0.50099 0.0
H2046 H 0.7312 0.15748 0.57087 0.0
H2047 H 0.7592 0.1745 0.54828 0.0
H2048 H 0.72612 0.12597 0.60961 0.0
H2049 H 0.70847 0.14813 0.48568 0.0
H2050 H 0.71155 0.15286 0.41616 0.0
H2051 H 0.70956 0.09271 0.39855 0.0
H2052 H 0.70674 0.08761 0.46808 0.0
H2053 H 0.63018 0.10267 0.64326 0.0
H2054 H 0.65876 0.11798 0.61965 0.0
H2055 H 0.67526 0.06624 0.56338 0.0
H2056 H 0.64652 0.05065 0.58717 0.0
H2057 H 0.67991 0.09872 0.51783 0.0
H2058 H 0.6957 0.07778 0.64477 0.0
H2059 H 0.69103 0.07491 0.71433 0.0
H2060 H 0.69501 0.13529 0.72622 0.0
H2061 H 0.69924 0.13858 0.65659 0.0
C2062 C 0.76493 0.13349 0.49804 0.0
C2063 C 0.76887 0.15196 0.51089 0.0
C2064 C 0.74899 0.12374 0.51126 0.0
C2065 C 0.7365 0.13231 0.53723 0.0
C2066 C 0.7406 0.15058 0.55076 0.0
C2067 C 0.75662 0.16031 0.53775 0.0
C2068 C 0.71911 0.12228 0.55014 0.0
C2069 C 0.71592 0.12021 0.58951 0.0
C2070 C 0.70591 0.11448 0.52396 0.0
C2071 C 0.7076 0.11748 0.48213 0.0
C2072 C 0.70885 0.1359 0.46702 0.0
C2073 C 0.71052 0.13865 0.4276 0.0
C2074 C 0.71081 0.12309 0.40296 0.0
C2075 C 0.70937 0.10475 0.41768 0.0
C2076 C 0.70772 0.10192 0.45709 0.0
C2077 C 0.63979 0.09448 0.62584 0.0
C2078 C 0.63606 0.07535 0.61736 0.0
C2079 C 0.65619 0.10328 0.61242 0.0
C2080 C 0.66924 0.09319 0.59015 0.0
C2081 C 0.66538 0.07425 0.58068 0.0
C2082 C 0.64898 0.06536 0.59436 0.0
C2083 C 0.68697 0.10245 0.57719 0.0
C2084 C 0.6902 0.1044 0.53784 0.0
C2085 C 0.70004 0.1104 0.6034 0.0
C2086 C 0.69762 0.10844 0.64536 0.0
C2087 C 0.6954 0.09047 0.66215 0.0
C2088 C 0.69284 0.08876 0.70161 0.0
C2089 C 0.69267 0.10491 0.72467 0.0
C2090 C 0.69512 0.12279 0.70832 0.0
C2091 C 0.69758 0.12459 0.66885 0.0
H2092 H 0.69067 0.10357 0.7552 0.0
H2093 H 0.71209 0.12525 0.37245 0.0
H2094 H 0.08177 0.51466 0.2987 0.0
H2095 H 0.09827 0.48642 0.32224 0.0
H2096 H 0.13359 0.48629 0.22176 0.0
H2097 H 0.11735 0.51448 0.19811 0.0
H2098 H 0.1188 0.45054 0.23993 0.0
H2099 H 0.15184 0.50188 0.30124 0.0
H2100 H 0.1544 0.53087 0.34014 0.0
H2101 H 0.13026 0.50171 0.43617 0.0
H2102 H 0.1273 0.4726 0.39764 0.0
H2103 H 0.18723 0.38341 0.30419 0.0
H2104 H 0.17186 0.41192 0.27903 0.0
H2105 H 0.14103 0.41828 0.38466 0.0
H2106 H 0.1566 0.39029 0.41022 0.0
H2107 H 0.15399 0.45126 0.36272 0.0
H2108 H 0.12 0.40041 0.30307 0.0
H2109 H 0.11613 0.37125 0.2651 0.0
H2110 H 0.14037 0.39894 0.16741 0.0
H2111 H 0.14462 0.42821 0.20498 0.0
C2112 C 0.09305 0.50862 0.28161 0.0
C2113 C 0.09829 0.51687 0.2466 0.0
C2114 C 0.10248 0.49253 0.29514 0.0
C2115 C 0.1172 0.48436 0.27378 0.0
C2116 C 0.12227 0.49239 0.23863 0.0
C2117 C 0.11301 0.50857 0.22529 0.0
C2118 C 0.12741 0.46745 0.28809 0.0
C2119 C 0.12671 0.45072 0.26653 0.0
C2120 C 0.13734 0.46765 0.32318 0.0
C2121 C 0.13917 0.48512 0.34643 0.0
C2122 C 0.14693 0.50169 0.33055 0.0
C2123 C 0.14848 0.51814 0.35255 0.0
C2124 C 0.14245 0.51815 0.39057 0.0
C2125 C 0.1349 0.50169 0.4067 0.0
C2126 C 0.13329 0.48521 0.3848 0.0
C2127 C 0.1772 0.39091 0.32206 0.0
C2128 C 0.17309 0.38448 0.35917 0.0
C2129 C 0.16836 0.40715 0.30758 0.0
C2130 C 0.15511 0.41713 0.32981 0.0
C2131 C 0.15118 0.41084 0.36696 0.0
C2132 C 0.16006 0.39473 0.38148 0.0
C2133 C 0.14534 0.43419 0.31469 0.0
C2134 C 0.14612 0.45101 0.33608 0.0
C2135 C 0.13533 0.43401 0.27961 0.0
C2136 C 0.13282 0.41643 0.25696 0.0
C2137 C 0.12465 0.40023 0.27359 0.0
C2138 C 0.12236 0.38369 0.25212 0.0
C2139 C 0.12805 0.38323 0.2139 0.0
C2140 C 0.136 0.39931 0.19704 0.0
C2141 C 0.13834 0.41588 0.2184 0.0
H2142 H 0.12626 0.37041 0.19732 0.0
H2143 H 0.14367 0.5309 0.40756 0.0
H2144 H 0.61871 0.59822 0.44517 0.0
H2145 H 0.64829 0.61245 0.46772 0.0
H2146 H 0.6776 0.58997 0.36954 0.0
H2147 H 0.6483 0.57529 0.34747 0.0
H2148 H 0.69926 0.58668 0.4289 0.0
H2149 H 0.66294 0.6367 0.37365 0.0
H2150 H 0.63485 0.65692 0.36405 0.0
H2151 H 0.63831 0.67574 0.48052 0.0
H2152 H 0.66627 0.6554 0.49098 0.0
H2153 H 0.76288 0.67689 0.45526 0.0
H2154 H 0.73444 0.66155 0.42977 0.0
H2155 H 0.73792 0.61899 0.51798 0.0
H2156 H 0.76647 0.63389 0.54304 0.0
H2157 H 0.70057 0.65539 0.45854 0.0
H2158 H 0.72228 0.57699 0.4854 0.0
H2159 H 0.75132 0.55755 0.48671 0.0
H2160 H 0.779 0.59708 0.41201 0.0
H2161 H 0.75005 0.6166 0.40982 0.0
C2162 C 0.63149 0.59616 0.42859 0.0
C2163 C 0.63112 0.58569 0.39446 0.0
C2164 C 0.64838 0.6044 0.44139 0.0
C2165 C 0.66512 0.60257 0.41998 0.0
C2166 C 0.66488 0.59162 0.38654 0.0
C2167 C 0.64808 0.58323 0.37394 0.0
C2168 C 0.68282 0.61234 0.4319 0.0
C2169 C 0.69953 0.60169 0.43546 0.0
C2170 C 0.68333 0.63205 0.43942 0.0
C2171 C 0.66659 0.64439 0.43319 0.0
C2172 C 0.65763 0.64505 0.39729 0.0
C2173 C 0.64174 0.65655 0.39168 0.0
C2174 C 0.63477 0.66758 0.42168 0.0
C2175 C 0.64371 0.66717 0.45732 0.0
C2176 C 0.65959 0.65567 0.4631 0.0
C2177 C 0.75764 0.66421 0.46914 0.0
C2178 C 0.76705 0.65657 0.50108 0.0
C2179 C 0.74134 0.6555 0.4546 0.0
C2180 C 0.73416 0.63899 0.47168 0.0
C2181 C 0.74339 0.6315 0.50384 0.0
C2182 C 0.75971 0.6401 0.51822 0.0
C2183 C 0.71691 0.62964 0.45625 0.0
C2184 C 0.70029 0.64037 0.45203 0.0
C2185 C 0.71662 0.61013 0.44695 0.0
C2186 C 0.73404 0.59835 0.44778 0.0
C2187 C 0.73454 0.58149 0.46914 0.0
C2188 C 0.75099 0.57047 0.47006 0.0
C2189 C 0.76701 0.57611 0.44956 0.0
C2190 C 0.7666 0.59276 0.428 0.0
C2191 C 0.75018 0.60382 0.42695 0.0
H2192 H 0.77974 0.56756 0.45033 0.0
H2193 H 0.62247 0.67647 0.41729 0.0
H2194 H 0.08125 0.01338 0.70938 0.0
H2195 H 0.09795 0.98531 0.68609 0.0
H2196 H 0.13856 0.99057 0.77771 0.0
H2197 H 0.12226 0.01878 0.80066 0.0
H2198 H 0.15614 0.98239 0.71306 0.0
H2199 H 0.10242 0.95771 0.78098 0.0
H2200 H 0.06852 0.95439 0.79677 0.0
H2201 H 0.05691 0.93545 0.68255 0.0
H2202 H 0.09071 0.9389 0.66592 0.0
H2203 H 0.19542 0.88942 0.69274 0.0
H2204 H 0.17979 0.91765 0.71864 0.0
H2205 H 0.13871 0.91559 0.6274 0.0
H2206 H 0.15399 0.88751 0.60177 0.0
H2207 H 0.12172 0.92184 0.69427 0.0
H2208 H 0.17533 0.94724 0.62607 0.0
H2209 H 0.20923 0.95054 0.6103 0.0
H2210 H 0.22107 0.96799 0.72541 0.0
H2211 H 0.18725 0.96454 0.74199 0.0
C2212 C 0.09375 0.00859 0.72454 0.0
C2213 C 0.10034 0.01832 0.757 0.0
C2214 C 0.10325 0.99249 0.71128 0.0
C2215 C 0.11937 0.98568 0.73048 0.0
C2216 C 0.12615 0.99554 0.76246 0.0
C2217 C 0.11675 0.01167 0.77559 0.0
C2218 C 0.12917 0.96822 0.71742 0.0
C2219 C 0.14866 0.96909 0.70944 0.0
C2220 C 0.11938 0.95092 0.71212 0.0
C2221 C 0.09907 0.94873 0.72212 0.0
C2222 C 0.09261 0.95297 0.75915 0.0
C2223 C 0.07342 0.95104 0.76827 0.0
C2224 C 0.06056 0.94476 0.74066 0.0
C2225 C 0.06688 0.94034 0.7039 0.0
C2226 C 0.08605 0.94226 0.69462 0.0
C2227 C 0.18306 0.89498 0.67823 0.0
C2228 C 0.17597 0.88615 0.64516 0.0
C2229 C 0.17418 0.91115 0.69299 0.0
C2230 C 0.15815 0.91881 0.67479 0.0
C2231 C 0.15101 0.90992 0.64199 0.0
C2232 C 0.15983 0.89383 0.62732 0.0
C2233 C 0.14864 0.93605 0.68965 0.0
C2234 C 0.12921 0.93513 0.69802 0.0
C2235 C 0.15849 0.95328 0.69534 0.0
C2236 C 0.1788 0.95543 0.68537 0.0
C2237 C 0.18519 0.95163 0.64809 0.0
C2238 C 0.20438 0.95356 0.639 0.0
C2239 C 0.2173 0.95942 0.66687 0.0
C2240 C 0.21105 0.96342 0.70387 0.0
C2241 C 0.19187 0.9615 0.71312 0.0
H2242 H 0.23216 0.9609 0.65977 0.0
H2243 H 0.04571 0.94328 0.74777 0.0
H2244 H 0.73221 0.33403 0.94682 0.0
H2245 H 0.76052 0.35045 0.92332 0.0
H2246 H 0.77512 0.36587 0.03913 0.0
H2247 H 0.74623 0.35073 0.06204 0.0
H2248 H 0.78114 0.3942 0.99928 0.0
H2249 H 0.79809 0.3288 0.98237 0.0
H2250 H 0.7946 0.29605 0.9589 0.0
H2251 H 0.79555 0.31601 0.843 0.0
H2252 H 0.79879 0.34892 0.8658 0.0
H2253 H 0.87874 0.41704 0.96331 0.0
H2254 H 0.84965 0.40138 0.98496 0.0
H2255 H 0.82856 0.40082 0.8693 0.0
H2256 H 0.85731 0.41667 0.84749 0.0
H2257 H 0.82613 0.36538 0.9074 0.0
H2258 H 0.81025 0.43119 0.92785 0.0
H2259 H 0.81545 0.46319 0.95405 0.0
H2260 H 0.81472 0.4407 0.06806 0.0
H2261 H 0.80977 0.40852 0.04249 0.0
C2262 C 0.74156 0.34091 0.9671 0.0
C2263 C 0.73708 0.34119 0.00615 0.0
C2264 C 0.75781 0.35018 0.95376 0.0
C2265 C 0.77023 0.35922 0.97946 0.0
C2266 C 0.76581 0.35914 0.01859 0.0
C2267 C 0.74931 0.35042 0.03172 0.0
C2268 C 0.78753 0.3693 0.96588 0.0
C2269 C 0.79107 0.38768 0.97964 0.0
C2270 C 0.80043 0.36112 0.93957 0.0
C2271 C 0.79848 0.34134 0.92582 0.0
C2272 C 0.79741 0.32621 0.95189 0.0
C2273 C 0.7955 0.30762 0.9387 0.0
C2274 C 0.7948 0.30396 0.89949 0.0
C2275 C 0.79606 0.31888 0.87337 0.0
C2276 C 0.79795 0.3375 0.88641 0.0
C2277 C 0.86785 0.41373 0.94254 0.0
C2278 C 0.87039 0.41807 0.90366 0.0
C2279 C 0.85125 0.40479 0.95495 0.0
C2280 C 0.83701 0.39994 0.92866 0.0
C2281 C 0.83944 0.40439 0.88997 0.0
C2282 C 0.85588 0.41351 0.87762 0.0
C2283 C 0.81966 0.38994 0.94131 0.0
C2284 C 0.81614 0.37169 0.9272 0.0
C2285 C 0.80698 0.39806 0.96785 0.0
C2286 C 0.80983 0.41742 0.98323 0.0
C2287 C 0.81135 0.43304 0.95849 0.0
C2288 C 0.81422 0.45122 0.97323 0.0
C2289 C 0.81546 0.45397 0.01269 0.0
C2290 C 0.81378 0.43855 0.0375 0.0
C2291 C 0.81092 0.42034 0.0229 0.0
H2292 H 0.81769 0.46805 0.02405 0.0
H2293 H 0.79332 0.28956 0.88934 0.0
H2294 H 0.43266 0.99914 0.21607 0.0
H2295 H 0.4187 0.02952 0.19783 0.0
H2296 H 0.36702 0.0145 0.25622 0.0
H2297 H 0.38097 0.98434 0.27533 0.0
H2298 H 0.38945 0.0403 0.15677 0.0
H2299 H 0.34798 0.05271 0.29836 0.0
H2300 H 0.35098 0.04482 0.36679 0.0
H2301 H 0.41129 0.03964 0.35434 0.0
H2302 H 0.40868 0.04774 0.28602 0.0
H2303 H 0.32201 0.11112 0.1258 0.0
H2304 H 0.33694 0.08182 0.14717 0.0
H2305 H 0.37227 0.11349 0.22494 0.0
H2306 H 0.35707 0.14293 0.20427 0.0
H2307 H 0.36136 0.08126 0.25712 0.0
H2308 H 0.38936 0.09956 0.13948 0.0
H2309 H 0.38963 0.10991 0.07219 0.0
H2310 H 0.3633 0.05771 0.03841 0.0
H2311 H 0.36256 0.04716 0.10563 0.0
C2312 C 0.41828 0.00225 0.22487 0.0
C2313 C 0.408 0.98936 0.24748 0.0
C2314 C 0.41032 0.01962 0.21436 0.0
C2315 C 0.39194 0.02443 0.2262 0.0
C2316 C 0.38138 0.01128 0.24746 0.0
C2317 C 0.38936 0.99399 0.25822 0.0
C2318 C 0.38386 0.04332 0.21699 0.0
C2319 C 0.38331 0.04924 0.17871 0.0
C2320 C 0.37636 0.05529 0.24574 0.0
C2321 C 0.37809 0.05066 0.28698 0.0
C2322 C 0.36188 0.04997 0.31027 0.0
C2323 C 0.36352 0.04544 0.34904 0.0
C2324 C 0.38131 0.04167 0.36488 0.0
C2325 C 0.39751 0.04249 0.34202 0.0
C2326 C 0.39596 0.04702 0.30326 0.0
C2327 C 0.33279 0.11186 0.1478 0.0
C2328 C 0.33847 0.12937 0.16311 0.0
C2329 C 0.34138 0.09509 0.15985 0.0
C2330 C 0.356 0.09551 0.18705 0.0
C2331 C 0.36108 0.11286 0.20376 0.0
C2332 C 0.35238 0.12967 0.19191 0.0
C2333 C 0.36642 0.07792 0.19683 0.0
C2334 C 0.36749 0.07229 0.23521 0.0
C2335 C 0.37497 0.06654 0.16831 0.0
C2336 C 0.37577 0.07263 0.12768 0.0
C2337 C 0.38352 0.09032 0.11774 0.0
C2338 C 0.38376 0.09623 0.07961 0.0
C2339 C 0.37644 0.0845 0.05106 0.0
C2340 C 0.36894 0.06679 0.06057 0.0
C2341 C 0.36862 0.06083 0.09869 0.0
H2342 H 0.37662 0.08911 0.02155 0.0
H2343 H 0.38254 0.03815 0.39488 0.0
H2344 H 0.23455 0.37241 0.46518 0.0
H2345 H 0.26388 0.38799 0.48439 0.0
H2346 H 0.27414 0.34399 0.5674 0.0
H2347 H 0.24493 0.32804 0.54785 0.0
H2348 H 0.27595 0.40307 0.5488 0.0
H2349 H 0.32157 0.336 0.57391 0.0
H2350 H 0.32366 0.30309 0.55062 0.0
H2351 H 0.29789 0.31956 0.4445 0.0
H2352 H 0.29588 0.3526 0.46695 0.0
H2353 H 0.35899 0.42513 0.65291 0.0
H2354 H 0.32963 0.41134 0.62892 0.0
H2355 H 0.35728 0.39743 0.5227 0.0
H2356 H 0.38692 0.41098 0.54677 0.0
H2357 H 0.33698 0.36816 0.54767 0.0
H2358 H 0.32586 0.43406 0.52757 0.0
H2359 H 0.32417 0.46789 0.54473 0.0
H2360 H 0.28185 0.45553 0.62924 0.0
H2361 H 0.28348 0.42158 0.61295 0.0
C2362 C 0.24298 0.36603 0.48763 0.0
C2363 C 0.2374 0.34888 0.50482 0.0
C2364 C 0.25975 0.37501 0.49863 0.0
C2365 C 0.27134 0.36706 0.52699 0.0
C2366 C 0.26559 0.35022 0.54497 0.0
C2367 C 0.24882 0.34116 0.53388 0.0
C2368 C 0.28953 0.37634 0.53739 0.0
C2369 C 0.28929 0.39542 0.54861 0.0
C2370 C 0.30701 0.36651 0.53629 0.0
C2371 C 0.30841 0.34673 0.52229 0.0
C2372 C 0.31642 0.33261 0.54555 0.0
C2373 C 0.31758 0.31393 0.5325 0.0
C2374 C 0.31086 0.30923 0.49615 0.0
C2375 C 0.30303 0.32321 0.47271 0.0
C2376 C 0.30185 0.34191 0.48559 0.0
C2377 C 0.35884 0.41929 0.6243 0.0
C2378 C 0.37532 0.41922 0.6017 0.0
C2379 C 0.34199 0.41144 0.61059 0.0
C2380 C 0.34119 0.4035 0.57387 0.0
C2381 C 0.35758 0.40349 0.55113 0.0
C2382 C 0.37449 0.41131 0.56487 0.0
C2383 C 0.32334 0.39479 0.55974 0.0
C2384 C 0.32364 0.37581 0.54786 0.0
C2385 C 0.30598 0.40484 0.55941 0.0
C2386 C 0.30492 0.42525 0.56925 0.0
C2387 C 0.3163 0.43854 0.55001 0.0
C2388 C 0.31533 0.45774 0.55955 0.0
C2389 C 0.30294 0.46385 0.58812 0.0
C2390 C 0.29146 0.45077 0.60715 0.0
C2391 C 0.29238 0.43155 0.59774 0.0
H2392 H 0.30221 0.47872 0.59546 0.0
H2393 H 0.31175 0.29475 0.48613 0.0
H2394 H 0.84762 0.11249 0.40954 0.0
H2395 H 0.86314 0.08467 0.38315 0.0
H2396 H 0.83036 0.09023 0.27972 0.0
H2397 H 0.81456 0.11828 0.3061 0.0
H2398 H 0.83213 0.05323 0.30609 0.0
H2399 H 0.87571 0.1039 0.27994 0.0
H2400 H 0.89535 0.13164 0.29626 0.0
H2401 H 0.92715 0.09805 0.37604 0.0
H2402 H 0.90752 0.07016 0.36057 0.0
H2403 H 0.88648 0.98794 0.19873 0.0
H2404 H 0.87011 0.0161 0.22173 0.0
H2405 H 0.90582 0.0169 0.32186 0.0
H2406 H 0.92273 0.98898 0.29839 0.0
H2407 H 0.90222 0.05125 0.29508 0.0
H2408 H 0.85877 1.00108 0.32412 0.0
H2409 H 0.83892 0.97312 0.31064 0.0
H2410 H 0.80675 0.00518 0.22893 0.0
H2411 H 0.82659 0.03328 0.24156 0.0
C2412 C 0.84368 0.10791 0.38113 0.0
C2413 C 0.82993 0.11776 0.35982 0.0
C2414 C 0.85263 0.09197 0.36607 0.0
C2415 C 0.8481 0.08554 0.32928 0.0
C2416 C 0.8341 0.09504 0.30813 0.0
C2417 C 0.82513 0.11107 0.32321 0.0
C2418 C 0.85807 0.06888 0.31317 0.0
C2419 C 0.84743 0.05287 0.30305 0.0
C2420 C 0.87807 0.06828 0.31029 0.0
C2421 C 0.89004 0.08498 0.31931 0.0
C2422 C 0.88681 0.10246 0.30115 0.0
C2423 C 0.89795 0.1182 0.31022 0.0
C2424 C 0.91246 0.11662 0.33723 0.0
C2425 C 0.91589 0.09926 0.35514 0.0
C2426 C 0.90478 0.08348 0.3462 0.0
C2427 C 0.89085 0.99404 0.22572 0.0
C2428 C 0.90588 0.98614 0.24681 0.0
C2429 C 0.88139 0.01013 0.23892 0.0
C2430 C 0.8865 0.01847 0.27385 0.0
C2431 C 0.90159 0.01069 0.29486 0.0
C2432 C 0.91122 0.99471 0.28145 0.0
C2433 C 0.87631 0.03546 0.28816 0.0
C2434 C 0.88691 0.05157 0.29795 0.0
C2435 C 0.85628 0.03608 0.29106 0.0
C2436 C 0.84429 0.01923 0.28352 0.0
C2437 C 0.84755 0.00213 0.30307 0.0
C2438 C 0.83629 0.98626 0.29562 0.0
C2439 C 0.82162 0.98736 0.26887 0.0
C2440 C 0.81814 0.00434 0.2496 0.0
C2441 C 0.82938 0.02025 0.25692 0.0
H2442 H 0.81291 0.97506 0.26314 0.0
H2443 H 0.92106 0.12883 0.34423 0.0
H2444 H 0.14523 0.57433 0.12907 0.0
H2445 H 0.17392 0.58938 0.10484 0.0
H2446 H 0.14004 0.62711 0.036 0.0
H2447 H 0.11115 0.61195 0.0598 0.0
H2448 H 0.171 0.61522 0.99752 0.0
H2449 H 0.15733 0.64225 0.11881 0.0
H2450 H 0.14949 0.64183 0.18744 0.0
H2451 H 0.20248 0.61453 0.2121 0.0
H2452 H 0.21047 0.61442 0.14348 0.0
H2453 H 0.25616 0.68434 0.03005 0.0
H2454 H 0.22586 0.67112 0.05109 0.0
H2455 H 0.23787 0.61945 0.98998 0.0
H2456 H 0.26789 0.63267 0.96813 0.0
H2457 H 0.21587 0.64175 0.09286 0.0
H2458 H 0.1979 0.60121 0.9529 0.0
H2459 H 0.20374 0.60408 0.88364 0.0
H2460 H 0.21082 0.66419 0.89549 0.0
H2461 H 0.20477 0.66172 0.9647 0.0
C2462 C 0.14384 0.58568 0.10844 0.0
C2463 C 0.12588 0.59203 0.09656 0.0
C2464 C 0.16027 0.59433 0.09476 0.0
C2465 C 0.15909 0.60957 0.06914 0.0
C2466 C 0.14124 0.61541 0.0559 0.0
C2467 C 0.12476 0.60674 0.06955 0.0
C2468 C 0.17649 0.61978 0.05733 0.0
C2469 C 0.18082 0.62102 0.01832 0.0
C2470 C 0.18901 0.62782 0.08449 0.0
C2471 C 0.18443 0.62819 0.12592 0.0
C2472 C 0.16726 0.63604 0.13882 0.0
C2473 C 0.16279 0.6359 0.17773 0.0
C2474 C 0.17546 0.62813 0.20411 0.0
C2475 C 0.19266 0.62053 0.19163 0.0
C2476 C 0.19718 0.62056 0.15272 0.0
C2477 C 0.25238 0.67014 0.02117 0.0
C2478 C 0.2644 0.65964 0.9971 0.0
C2479 C 0.23506 0.66259 0.03328 0.0
C2480 C 0.22944 0.64442 0.0216 0.0
C2481 C 0.2417 0.63367 0.99867 0.0
C2482 C 0.25892 0.64123 0.98633 0.0
C2483 C 0.2107 0.6367 0.03303 0.0
C2484 C 0.20607 0.63597 0.07201 0.0
C2485 C 0.19766 0.62957 0.00577 0.0
C2486 C 0.20105 0.63124 0.96405 0.0
C2487 C 0.20062 0.61505 0.94069 0.0
C2488 C 0.20398 0.6166 0.90145 0.0
C2489 C 0.2077 0.6343 0.8852 0.0
C2490 C 0.208 0.65048 0.90813 0.0
C2491 C 0.20463 0.64901 0.94738 0.0
H2492 H 0.21032 0.63546 0.85482 0.0
H2493 H 0.17198 0.62803 0.23422 0.0
H2494 H 0.56771 0.00334 0.77386 0.0
H2495 H 0.58315 0.97444 0.79606 0.0
H2496 H 0.63732 0.9964 0.75974 0.0
H2497 H 0.62179 0.02498 0.73587 0.0
H2498 H 0.63553 0.96219 0.73898 0.0
H2499 H 0.62253 0.99305 0.85672 0.0
H2500 H 0.60408 0.009 0.90707 0.0
H2501 H 0.56971 0.95929 0.92092 0.0
H2502 H 0.58772 0.94314 0.87015 0.0
H2503 H 0.68814 0.89355 0.85209 0.0
H2504 H 0.67432 0.92322 0.82835 0.0
H2505 H 0.6195 0.89648 0.82151 0.0
H2506 H 0.63324 0.86669 0.84416 0.0
H2507 H 0.62299 0.93317 0.86554 0.0
H2508 H 0.63698 0.90358 0.74371 0.0
H2509 H 0.65805 0.88826 0.69684 0.0
H2510 H 0.69398 0.93735 0.69626 0.0
H2511 H 0.67325 0.95286 0.7436 0.0
C2512 C 0.58293 0.00208 0.77086 0.0
C2513 C 0.59353 0.01646 0.75311 0.0
C2514 C 0.59178 0.98556 0.78378 0.0
C2515 C 0.61149 0.98327 0.78014 0.0
C2516 C 0.62211 0.99777 0.76287 0.0
C2517 C 0.61322 0.01414 0.74931 0.0
C2518 C 0.62089 0.96543 0.79273 0.0
C2519 C 0.63296 0.95608 0.76693 0.0
C2520 C 0.61744 0.95718 0.82904 0.0
C2521 C 0.60634 0.96697 0.85919 0.0
C2522 C 0.6109 0.98559 0.87015 0.0
C2523 C 0.60054 0.99465 0.89885 0.0
C2524 C 0.58569 0.98519 0.91708 0.0
C2525 C 0.58118 0.96662 0.90669 0.0
C2526 C 0.59146 0.95751 0.87793 0.0
C2527 C 0.67321 0.89394 0.84496 0.0
C2528 C 0.66178 0.8778 0.84981 0.0
C2529 C 0.66536 0.91086 0.83148 0.0
C2530 C 0.64592 0.91196 0.82333 0.0
C2531 C 0.63454 0.89584 0.82768 0.0
C2532 C 0.64244 0.87883 0.84036 0.0
C2533 C 0.6373 0.93015 0.8117 0.0
C2534 C 0.62547 0.93949 0.83772 0.0
C2535 C 0.64125 0.93858 0.77603 0.0
C2536 C 0.65369 0.92928 0.74753 0.0
C2537 C 0.64948 0.91103 0.7339 0.0
C2538 C 0.66133 0.90233 0.70717 0.0
C2539 C 0.67738 0.9118 0.69367 0.0
C2540 C 0.68157 0.93001 0.70679 0.0
C2541 C 0.66976 0.93877 0.73355 0.0
H2542 H 0.68654 0.90504 0.67297 0.0
H2543 H 0.57771 0.99222 0.93934 0.0
loop_
_geom_bond_atom_site_label_1
_geom_bond_atom_site_label_2
_geom_bond_distance
_geom_bond_site_symmetry_2
_ccdc_geom_bond_type
Co0 O3 1.970 . S
Co0 N17 1.989 . S
Co0 O25 1.967 . S
Co0 O32 1.920 . S
Co1 O4 1.966 . S
Co1 N10 2.022 1_554 S
Co1 N18 1.993 . S
Co1 O26 1.933 1_554 S
C2 O3 1.258 . S
C2 O4 1.263 . S
O3 Co0 1.970 . S
O3 C2 1.258 . S
O4 Co1 1.966 . S
O4 C2 1.263 . S
C5 O6 1.235 . S
C5 O32 1.289 . S
O6 C5 1.235 . S
C7 C9 1.400 . S
C7 N10 1.351 . S
C7 C12 1.501 1_556 S
C8 C9 1.387 . S
C8 N11 1.341 . S
C9 C7 1.400 . S
C9 C8 1.387 . S
N10 Co1 2.022 1_556 S
N10 C7 1.351 . S
N10 N11 1.365 . S
N11 C8 1.341 . S
N11 N10 1.365 . S
N11 H31 0.862 . S
C12 C7 1.501 1_554 S
C12 H13 0.961 . S
C12 H14 0.961 . S
C12 H15 0.960 . S
H13 C12 0.961 . S
H14 C12 0.961 . S
H15 C12 0.960 . S
C16 N17 1.342 . S
C16 C20 1.401 1_554 S
C16 C21 1.499 . S
N17 Co0 1.989 . S
N17 C16 1.342 . S
N17 N18 1.388 . S
N18 Co1 1.993 . S
N18 N17 1.388 . S
N18 C19 1.346 1_554 S
C19 N18 1.346 1_556 S
C19 C20 1.396 . S
C19 C29 1.510 . S
C20 C16 1.401 1_556 S
C20 C19 1.396 . S
C21 C16 1.499 . S
C21 H22 0.959 . S
C21 H23 0.960 . S
C21 H24 0.961 . S
H22 C21 0.959 . S
H23 C21 0.960 . S
H24 C21 0.961 . S
O25 Co0 1.967 . S
O25 C33 1.258 . S
O26 Co1 1.933 1_556 S
O26 C33 1.254 1_556 S
H27 C29 0.959 . S
H28 C29 0.961 . S
C29 C19 1.510 . S
C29 H27 0.959 . S
C29 H28 0.961 . S
C29 H30 0.960 . S
H30 C29 0.960 . S
H31 N11 0.862 . S
O32 Co0 1.920 . S
O32 C5 1.289 . S
C33 O25 1.258 . S
C33 O26 1.254 1_554 S
Co34 O37 1.970 . S
Co34 N51 1.989 . S
Co34 O59 1.967 . S
Co34 O66 1.920 . S
Co35 O38 1.966 . S
Co35 N44 2.022 . S
Co35 N52 1.993 . S
Co35 O60 1.941 . S
C36 O37 1.258 . S
C36 O38 1.263 . S
O37 Co34 1.970 . S
O37 C36 1.258 . S
O38 Co35 1.966 . S
O38 C36 1.263 . S
C39 O40 1.235 . S
C39 O66 1.289 . S
O40 C39 1.235 . S
C41 C43 1.400 . S
C41 N44 1.351 . S
C41 C46 1.501 . S
C42 C43 1.387 . S
C42 N45 1.341 . S
C43 C41 1.400 . S
C43 C42 1.387 . S
N44 Co35 2.022 . S
N44 C41 1.351 . S
N44 N45 1.365 . S
N45 C42 1.341 . S
N45 N44 1.365 . S
N45 H65 0.862 . S
C46 C41 1.501 . S
C46 H47 0.961 . S
C46 H48 0.961 . S
C46 H49 0.960 . S
H47 C46 0.961 . S
H48 C46 0.961 . S
H49 C46 0.960 . S
C50 N51 1.342 . S
C50 C54 1.401 . S
C50 C55 1.499 . S
N51 Co34 1.989 . S
N51 C50 1.342 . S
N51 N52 1.388 . S
N52 Co35 1.993 . S
N52 N51 1.388 . S
N52 C53 1.346 . S
C53 N52 1.346 . S
C53 C54 1.396 . S
C53 C63 1.510 . S
C54 C50 1.401 . S
C54 C53 1.396 . S
C55 C50 1.499 . S
C55 H56 0.959 . S
C55 H57 0.960 . S
C55 H58 0.961 . S
H56 C55 0.959 . S
H57 C55 0.960 . S
H58 C55 0.961 . S
O59 Co34 1.967 . S
O59 C67 1.258 . S
O60 Co35 1.941 . S
O60 C67 1.266 . S
H61 C63 0.959 . S
H62 C63 0.961 . S
C63 C53 1.510 . S
C63 H61 0.959 . S
C63 H62 0.961 . S
C63 H64 0.960 . S
H64 C63 0.960 . S
H65 N45 0.862 . S
O66 Co34 1.920 . S
O66 C39 1.289 . S
C67 O59 1.258 . S
C67 O60 1.266 . S
Co68 O71 1.970 . S
Co68 N85 1.989 . S
Co68 O93 1.967 . S
Co68 O100 1.920 . S
Co69 O72 1.966 . S
Co69 N78 2.022 . S
Co69 N86 1.993 . S
Co69 O94 1.941 . S
C70 O71 1.258 . S
C70 O72 1.263 . S
O71 Co68 1.970 . S
O71 C70 1.258 . S
O72 Co69 1.966 . S
O72 C70 1.263 . S
C73 O74 1.235 . S
C73 O100 1.289 . S
O74 C73 1.235 . S
C75 C77 1.400 . S
C75 N78 1.351 . S
C75 C80 1.501 . S
C76 C77 1.387 . S
C76 N79 1.341 . S
C77 C75 1.400 . S
C77 C76 1.387 . S
N78 Co69 2.022 . S
N78 C75 1.351 . S
N78 N79 1.365 . S
N79 C76 1.341 . S
N79 N78 1.365 . S
N79 H99 0.862 . S
C80 C75 1.501 . S
C80 H81 0.961 . S
C80 H82 0.961 . S
C80 H83 0.960 . S
H81 C80 0.961 . S
H82 C80 0.961 . S
H83 C80 0.960 . S
C84 N85 1.342 . S
C84 C88 1.401 . S
C84 C89 1.499 . S
N85 Co68 1.989 . S
N85 C84 1.342 . S
N85 N86 1.388 . S
N86 Co69 1.993 . S
N86 N85 1.388 . S
N86 C87 1.346 . S
C87 N86 1.346 . S
C87 C88 1.396 . S
C87 C97 1.510 . S
C88 C84 1.401 . S
C88 C87 1.396 . S
C89 C84 1.499 . S
C89 H90 0.959 . S
C89 H91 0.960 . S
C89 H92 0.961 . S
H90 C89 0.959 . S
H91 C89 0.960 . S
H92 C89 0.961 . S
O93 Co68 1.967 . S
O93 C101 1.258 . S
O94 Co69 1.941 . S
O94 C101 1.266 . S
H95 C97 0.959 . S
H96 C97 0.961 . S
C97 C87 1.510 . S
C97 H95 0.959 . S
C97 H96 0.961 . S
C97 H98 0.960 . S
H98 C97 0.960 . S
H99 N79 0.862 . S
O100 Co68 1.920 . S
O100 C73 1.289 . S
C101 O93 1.258 . S
C101 O94 1.266 . S
Co102 O105 1.970 . S
Co102 N119 1.989 . S
Co102 O127 1.967 . S
Co102 O134 1.920 . S
Co103 O106 1.966 . S
Co103 N112 2.022 . S
Co103 N120 1.993 . S
Co103 O128 1.941 . S
C104 O105 1.258 . S
C104 O106 1.263 . S
O105 Co102 1.970 . S
O105 C104 1.258 . S
O106 Co103 1.966 . S
O106 C104 1.263 . S
C107 O108 1.235 . S
C107 O134 1.289 . S
O108 C107 1.235 . S
C109 C111 1.400 . S
C109 N112 1.351 . S
C109 C114 1.501 . S
C110 C111 1.387 . S
C110 N113 1.341 . S
C111 C109 1.400 . S
C111 C110 1.387 . S
N112 Co103 2.022 . S
N112 C109 1.351 . S
N112 N113 1.365 . S
N113 C110 1.341 . S
N113 N112 1.365 . S
N113 H133 0.862 . S
C114 C109 1.501 . S
C114 H115 0.961 . S
C114 H116 0.961 . S
C114 H117 0.960 . S
H115 C114 0.961 . S
H116 C114 0.961 . S
H117 C114 0.960 . S
C118 N119 1.342 . S
C118 C122 1.401 . S
C118 C123 1.499 . S
N119 Co102 1.989 . S
N119 C118 1.342 . S
N119 N120 1.388 . S
N120 Co103 1.993 . S
N120 N119 1.388 . S
N120 C121 1.346 . S
C121 N120 1.346 . S
C121 C122 1.396 . S
C121 C131 1.510 . S
C122 C118 1.401 . S
C122 C121 1.396 . S
C123 C118 1.499 . S
C123 H124 0.959 . S
C123 H125 0.960 . S
C123 H126 0.961 . S
H124 C123 0.959 . S
H125 C123 0.960 . S
H126 C123 0.961 . S
O127 Co102 1.967 . S
O127 C135 1.258 . S
O128 Co103 1.941 . S
O128 C135 1.266 . S
H129 C131 0.959 . S
H130 C131 0.961 . S
C131 C121 1.510 . S
C131 H129 0.959 . S
C131 H130 0.961 . S
C131 H132 0.960 . S
H132 C131 0.960 . S
H133 N113 0.862 . S
O134 Co102 1.920 . S
O134 C107 1.289 . S
C135 O127 1.258 . S
C135 O128 1.266 . S
Co136 O139 1.970 . S
Co136 N153 1.989 . S
Co136 O161 1.967 . S
Co136 O168 1.920 . S
Co137 O140 1.966 . S
Co137 N146 2.022 1_556 S
Co137 N154 1.993 . S
Co137 O162 1.933 1_556 S
C138 O139 1.258 . S
C138 O140 1.263 . S
O139 Co136 1.970 . S
O139 C138 1.258 . S
O140 Co137 1.966 . S
O140 C138 1.263 . S
C141 O142 1.235 . S
C141 O168 1.289 . S
O142 C141 1.235 . S
C143 C145 1.400 . S
C143 N146 1.351 . S
C143 C148 1.501 1_554 S
C144 C145 1.387 . S
C144 N147 1.341 . S
C145 C143 1.400 . S
C145 C144 1.387 . S
N146 Co137 2.022 1_554 S
N146 C143 1.351 . S
N146 N147 1.365 . S
N147 C144 1.341 . S
N147 N146 1.365 . S
N147 H167 0.862 . S
C148 C143 1.501 1_556 S
C148 H149 0.961 . S
C148 H150 0.961 . S
C148 H151 0.960 . S
H149 C148 0.961 . S
H150 C148 0.961 . S
H151 C148 0.960 . S
C152 N153 1.342 . S
C152 C156 1.401 1_556 S
C152 C157 1.499 . S
N153 Co136 1.989 . S
N153 C152 1.342 . S
N153 N154 1.388 . S
N154 Co137 1.993 . S
N154 N153 1.388 . S
N154 C155 1.346 1_556 S
C155 N154 1.346 1_554 S
C155 C156 1.396 . S
C155 C165 1.510 . S
C156 C152 1.401 1_554 S
C156 C155 1.396 . S
C157 C152 1.499 . S
C157 H158 0.959 . S
C157 H159 0.960 . S
C157 H160 0.961 . S
H158 C157 0.959 . S
H159 C157 0.960 . S
H160 C157 0.961 . S
O161 Co136 1.967 . S
O161 C169 1.258 . S
O162 Co137 1.933 1_554 S
O162 C169 1.254 1_554 S
H163 C165 0.959 . S
H164 C165 0.961 . S
C165 C155 1.510 . S
C165 H163 0.959 . S
C165 H164 0.961 . S
C165 H166 0.960 . S
H166 C165 0.960 . S
H167 N147 0.862 . S
O168 Co136 1.920 . S
O168 C141 1.289 . S
C169 O161 1.258 . S
C169 O162 1.254 1_556 S
Co170 O173 1.970 . S
Co170 N187 1.989 . S
Co170 O195 1.967 . S
Co170 O202 1.920 . S
Co171 O174 1.966 . S
Co171 N180 2.022 . S
Co171 N188 1.993 . S
Co171 O196 1.941 . S
C172 O173 1.258 . S
C172 O174 1.263 . S
O173 Co170 1.970 . S
O173 C172 1.258 . S
O174 Co171 1.966 . S
O174 C172 1.263 . S
C175 O176 1.235 . S
C175 O202 1.289 . S
O176 C175 1.235 . S
C177 C179 1.400 . S
C177 N180 1.351 . S
C177 C182 1.501 . S
C178 C179 1.387 . S
C178 N181 1.341 . S
C179 C177 1.400 . S
C179 C178 1.387 . S
N180 Co171 2.022 . S
N180 C177 1.351 . S
N180 N181 1.365 . S
N181 C178 1.341 . S
N181 N180 1.365 . S
N181 H201 0.862 . S
C182 C177 1.501 . S
C182 H183 0.961 . S
C182 H184 0.961 . S
C182 H185 0.960 . S
H183 C182 0.961 . S
H184 C182 0.961 . S
H185 C182 0.960 . S
C186 N187 1.342 . S
C186 C190 1.401 . S
C186 C191 1.499 . S
N187 Co170 1.989 . S
N187 C186 1.342 . S
N187 N188 1.388 . S
N188 Co171 1.993 . S
N188 N187 1.388 . S
N188 C189 1.346 . S
C189 N188 1.346 . S
C189 C190 1.396 . S
C189 C199 1.510 . S
C190 C186 1.401 . S
C190 C189 1.396 . S
C191 C186 1.499 . S
C191 H192 0.959 . S
C191 H193 0.960 . S
C191 H194 0.961 . S
H192 C191 0.959 . S
H193 C191 0.960 . S
H194 C191 0.961 . S
O195 Co170 1.967 . S
O195 C203 1.258 . S
O196 Co171 1.941 . S
O196 C203 1.266 . S
H197 C199 0.959 . S
H198 C199 0.961 . S
C199 C189 1.510 . S
C199 H197 0.959 . S
C199 H198 0.961 . S
C199 H200 0.960 . S
H200 C199 0.960 . S
H201 N181 0.862 . S
O202 Co170 1.920 . S
O202 C175 1.289 . S
C203 O195 1.258 . S
C203 O196 1.266 . S
Co204 O207 1.970 . S
Co204 N221 1.989 . S
Co204 O229 1.967 . S
Co204 O236 1.920 . S
Co205 O208 1.966 . S
Co205 N214 2.022 . S
Co205 N222 1.993 . S
Co205 O230 1.941 . S
C206 O207 1.258 . S
C206 O208 1.263 . S
O207 Co204 1.970 . S
O207 C206 1.258 . S
O208 Co205 1.966 . S
O208 C206 1.263 . S
C209 O210 1.235 . S
C209 O236 1.289 . S
O210 C209 1.235 . S
C211 C213 1.400 . S
C211 N214 1.351 . S
C211 C216 1.501 . S
C212 C213 1.387 . S
C212 N215 1.341 . S
C213 C211 1.400 . S
C213 C212 1.387 . S
N214 Co205 2.022 . S
N214 C211 1.351 . S
N214 N215 1.365 . S
N215 C212 1.341 . S
N215 N214 1.365 . S
N215 H235 0.862 . S
C216 C211 1.501 . S
C216 H217 0.961 . S
C216 H218 0.961 . S
C216 H219 0.960 . S
H217 C216 0.961 . S
H218 C216 0.961 . S
H219 C216 0.960 . S
C220 N221 1.342 . S
C220 C224 1.401 . S
C220 C225 1.499 . S
N221 Co204 1.989 . S
N221 C220 1.342 . S
N221 N222 1.388 . S
N222 Co205 1.993 . S
N222 N221 1.388 . S
N222 C223 1.346 . S
C223 N222 1.346 . S
C223 C224 1.396 . S
C223 C233 1.510 . S
C224 C220 1.401 . S
C224 C223 1.396 . S
C225 C220 1.499 . S
C225 H226 0.959 . S
C225 H227 0.960 . S
C225 H228 0.961 . S
H226 C225 0.959 . S
H227 C225 0.960 . S
H228 C225 0.961 . S
O229 Co204 1.967 . S
O229 C237 1.258 . S
O230 Co205 1.941 . S
O230 C237 1.266 . S
H231 C233 0.959 . S
H232 C233 0.961 . S
C233 C223 1.510 . S
C233 H231 0.959 . S
C233 H232 0.961 . S
C233 H234 0.960 . S
H234 C233 0.960 . S
H235 N215 0.862 . S
O236 Co204 1.920 . S
O236 C209 1.289 . S
C237 O229 1.258 . S
C237 O230 1.266 . S
Co238 O241 1.970 . S
Co238 N255 1.989 . S
Co238 O263 1.967 . S
Co238 O270 1.920 . S
Co239 O242 1.966 . S
Co239 N248 2.022 . S
Co239 N256 1.993 . S
Co239 O264 1.941 . S
C240 O241 1.258 . S
C240 O242 1.263 . S
O241 Co238 1.970 . S
O241 C240 1.258 . S
O242 Co239 1.966 . S
O242 C240 1.263 . S
C243 O244 1.235 . S
C243 O270 1.289 . S
O244 C243 1.235 . S
C245 C247 1.400 . S
C245 N248 1.351 . S
C245 C250 1.501 . S
C246 C247 1.387 . S
C246 N249 1.341 . S
C247 C245 1.400 . S
C247 C246 1.387 . S
N248 Co239 2.022 . S
N248 C245 1.351 . S
N248 N249 1.365 . S
N249 C246 1.341 . S
N249 N248 1.365 . S
N249 H269 0.862 . S
C250 C245 1.501 . S
C250 H251 0.961 . S
C250 H252 0.961 . S
C250 H253 0.960 . S
H251 C250 0.961 . S
H252 C250 0.961 . S
H253 C250 0.960 . S
C254 N255 1.342 . S
C254 C258 1.401 . S
C254 C259 1.499 . S
N255 Co238 1.989 . S
N255 C254 1.342 . S
N255 N256 1.388 . S
N256 Co239 1.993 . S
N256 N255 1.388 . S
N256 C257 1.346 . S
C257 N256 1.346 . S
C257 C258 1.396 . S
C257 C267 1.510 . S
C258 C254 1.401 . S
C258 C257 1.396 . S
C259 C254 1.499 . S
C259 H260 0.959 . S
C259 H261 0.960 . S
C259 H262 0.961 . S
H260 C259 0.959 . S
H261 C259 0.960 . S
H262 C259 0.961 . S
O263 Co238 1.967 . S
O263 C271 1.258 . S
O264 Co239 1.941 . S
O264 C271 1.266 . S
H265 C267 0.959 . S
H266 C267 0.961 . S
C267 C257 1.510 . S
C267 H265 0.959 . S
C267 H266 0.961 . S
C267 H268 0.960 . S
H268 C267 0.960 . S
H269 N249 0.862 . S
O270 Co238 1.920 . S
O270 C243 1.289 . S
C271 O263 1.258 . S
C271 O264 1.266 . S
Co272 O275 1.970 . S
Co272 N289 1.989 . S
Co272 O297 1.967 . S
Co272 O304 1.920 . S
Co273 O276 1.966 . S
Co273 N282 2.022 . S
Co273 N290 1.993 . S
Co273 O298 1.941 . S
C274 O275 1.258 . S
C274 O276 1.263 . S
O275 Co272 1.970 . S
O275 C274 1.258 . S
O276 Co273 1.966 . S
O276 C274 1.263 . S
C277 O278 1.235 . S
C277 O304 1.289 . S
O278 C277 1.235 . S
C279 C281 1.400 . S
C279 N282 1.351 . S
C279 C284 1.501 . S
C280 C281 1.387 . S
C280 N283 1.341 . S
C281 C279 1.400 . S
C281 C280 1.387 . S
N282 Co273 2.022 . S
N282 C279 1.351 . S
N282 N283 1.365 . S
N283 C280 1.341 . S
N283 N282 1.365 . S
N283 H303 0.862 . S
C284 C279 1.501 . S
C284 H285 0.961 . S
C284 H286 0.961 . S
C284 H287 0.960 . S
H285 C284 0.961 . S
H286 C284 0.961 . S
H287 C284 0.960 . S
C288 N289 1.342 . S
C288 C292 1.401 . S
C288 C293 1.499 . S
N289 Co272 1.989 . S
N289 C288 1.342 . S
N289 N290 1.388 . S
N290 Co273 1.993 . S
N290 N289 1.388 . S
N290 C291 1.346 . S
C291 N290 1.346 . S
C291 C292 1.396 . S
C291 C301 1.510 . S
C292 C288 1.401 . S
C292 C291 1.396 . S
C293 C288 1.499 . S
C293 H294 0.959 . S
C293 H295 0.960 . S
C293 H296 0.961 . S
H294 C293 0.959 . S
H295 C293 0.960 . S
H296 C293 0.961 . S
O297 Co272 1.967 . S
O297 C305 1.258 . S
O298 Co273 1.941 . S
O298 C305 1.266 . S
H299 C301 0.959 . S
H300 C301 0.961 . S
C301 C291 1.510 . S
C301 H299 0.959 . S
C301 H300 0.961 . S
C301 H302 0.960 . S
H302 C301 0.960 . S
H303 N283 0.862 . S
O304 Co272 1.920 . S
O304 C277 1.289 . S
C305 O297 1.258 . S
C305 O298 1.266 . S
Co306 O309 1.970 . S
Co306 N323 1.989 . S
Co306 O331 1.967 . S
Co306 O338 1.920 . S
Co307 O310 1.966 . S
Co307 N316 2.022 . S
Co307 N324 1.993 . S
Co307 O332 1.941 . S
C308 O309 1.258 . S
C308 O310 1.263 . S
O309 Co306 1.970 . S
O309 C308 1.258 . S
O310 Co307 1.966 . S
O310 C308 1.263 . S
C311 O312 1.235 . S
C311 O338 1.289 . S
O312 C311 1.235 . S
C313 C315 1.400 . S
C313 N316 1.351 . S
C313 C318 1.501 . S
C314 C315 1.387 . S
C314 N317 1.341 . S
C315 C313 1.400 . S
C315 C314 1.387 . S
N316 Co307 2.022 . S
N316 C313 1.351 . S
N316 N317 1.365 . S
N317 C314 1.341 . S
N317 N316 1.365 . S
N317 H337 0.862 . S
C318 C313 1.501 . S
C318 H319 0.961 . S
C318 H320 0.961 . S
C318 H321 0.960 . S
H319 C318 0.961 . S
H320 C318 0.961 . S
H321 C318 0.960 . S
C322 N323 1.342 . S
C322 C326 1.401 . S
C322 C327 1.499 . S
N323 Co306 1.989 . S
N323 C322 1.342 . S
N323 N324 1.388 . S
N324 Co307 1.993 . S
N324 N323 1.388 . S
N324 C325 1.346 . S
C325 N324 1.346 . S
C325 C326 1.396 . S
C325 C335 1.510 . S
C326 C322 1.401 . S
C326 C325 1.396 . S
C327 C322 1.499 . S
C327 H328 0.959 . S
C327 H329 0.960 . S
C327 H330 0.961 . S
H328 C327 0.959 . S
H329 C327 0.960 . S
H330 C327 0.961 . S
O331 Co306 1.967 . S
O331 C339 1.258 . S
O332 Co307 1.941 . S
O332 C339 1.266 . S
H333 C335 0.959 . S
H334 C335 0.961 . S
C335 C325 1.510 . S
C335 H333 0.959 . S
C335 H334 0.961 . S
C335 H336 0.960 . S
H336 C335 0.960 . S
H337 N317 0.862 . S
O338 Co306 1.920 . S
O338 C311 1.289 . S
C339 O331 1.258 . S
C339 O332 1.266 . S
Co340 O343 1.970 . S
Co340 N357 1.989 . S
Co340 O365 1.967 . S
Co340 O372 1.920 . S
Co341 O344 1.966 . S
Co341 N350 2.022 1_554 S
Co341 N358 1.993 . S
Co341 O366 1.933 1_554 S
C342 O343 1.258 . S
C342 O344 1.263 . S
O343 Co340 1.970 . S
O343 C342 1.258 . S
O344 Co341 1.966 . S
O344 C342 1.263 . S
C345 O346 1.235 . S
C345 O372 1.289 . S
O346 C345 1.235 . S
C347 C349 1.400 . S
C347 N350 1.351 . S
C347 C352 1.501 1_556 S
C348 C349 1.387 . S
C348 N351 1.341 . S
C349 C347 1.400 . S
C349 C348 1.387 . S
N350 Co341 2.022 1_556 S
N350 C347 1.351 . S
N350 N351 1.365 . S
N351 C348 1.341 . S
N351 N350 1.365 . S
N351 H371 0.862 . S
C352 C347 1.501 1_554 S
C352 H353 0.961 . S
C352 H354 0.961 . S
C352 H355 0.960 . S
H353 C352 0.961 . S
H354 C352 0.961 . S
H355 C352 0.960 . S
C356 N357 1.342 . S
C356 C360 1.401 1_554 S
C356 C361 1.499 . S
N357 Co340 1.989 . S
N357 C356 1.342 . S
N357 N358 1.388 . S
N358 Co341 1.993 . S
N358 N357 1.388 . S
N358 C359 1.346 1_554 S
C359 N358 1.346 1_556 S
C359 C360 1.396 . S
C359 C369 1.510 . S
C360 C356 1.401 1_556 S
C360 C359 1.396 . S
C361 C356 1.499 . S
C361 H362 0.959 . S
C361 H363 0.960 . S
C361 H364 0.961 . S
H362 C361 0.959 . S
H363 C361 0.960 . S
H364 C361 0.961 . S
O365 Co340 1.967 . S
O365 C373 1.258 . S
O366 Co341 1.933 1_556 S
O366 C373 1.254 1_556 S
H367 C369 0.959 . S
H368 C369 0.961 . S
C369 C359 1.510 . S
C369 H367 0.959 . S
C369 H368 0.961 . S
C369 H370 0.960 . S
H370 C369 0.960 . S
H371 N351 0.862 . S
O372 Co340 1.920 . S
O372 C345 1.289 . S
C373 O365 1.258 . S
C373 O366 1.254 1_554 S
Co374 O377 1.970 . S
Co374 N391 1.989 . S
Co374 O399 1.967 . S
Co374 O406 1.920 . S
Co375 O378 1.966 . S
Co375 N384 2.022 . S
Co375 N392 1.993 . S
Co375 O400 1.941 . S
C376 O377 1.258 . S
C376 O378 1.263 . S
O377 Co374 1.970 . S
O377 C376 1.258 . S
O378 Co375 1.966 . S
O378 C376 1.263 . S
C379 O380 1.235 . S
C379 O406 1.289 . S
O380 C379 1.235 . S
C381 C383 1.400 . S
C381 N384 1.351 . S
C381 C386 1.501 . S
C382 C383 1.387 . S
C382 N385 1.341 . S
C383 C381 1.400 . S
C383 C382 1.387 . S
N384 Co375 2.022 . S
N384 C381 1.351 . S
N384 N385 1.365 . S
N385 C382 1.341 . S
N385 N384 1.365 . S
N385 H405 0.862 . S
C386 C381 1.501 . S
C386 H387 0.961 . S
C386 H388 0.961 . S
C386 H389 0.960 . S
H387 C386 0.961 . S
H388 C386 0.961 . S
H389 C386 0.960 . S
C390 N391 1.342 . S
C390 C394 1.401 . S
C390 C395 1.499 . S
N391 Co374 1.989 . S
N391 C390 1.342 . S
N391 N392 1.388 . S
N392 Co375 1.993 . S
N392 N391 1.388 . S
N392 C393 1.346 . S
C393 N392 1.346 . S
C393 C394 1.396 . S
C393 C403 1.510 . S
C394 C390 1.401 . S
C394 C393 1.396 . S
C395 C390 1.499 . S
C395 H396 0.959 . S
C395 H397 0.960 . S
C395 H398 0.961 . S
H396 C395 0.959 . S
H397 C395 0.960 . S
H398 C395 0.961 . S
O399 Co374 1.967 . S
O399 C407 1.258 . S
O400 Co375 1.941 . S
O400 C407 1.266 . S
H401 C403 0.959 . S
H402 C403 0.961 . S
C403 C393 1.510 . S
C403 H401 0.959 . S
C403 H402 0.961 . S
C403 H404 0.960 . S
H404 C403 0.960 . S
H405 N385 0.862 . S
O406 Co374 1.920 . S
O406 C379 1.289 . S
C407 O399 1.258 . S
C407 O400 1.266 . S
Co408 O411 1.970 . S
Co408 N425 1.989 . S
Co408 O433 1.967 . S
Co408 O440 1.920 . S
Co409 O412 1.966 . S
Co409 N418 2.022 . S
Co409 N426 1.993 . S
Co409 O434 1.941 . S
C410 O411 1.258 . S
C410 O412 1.263 . S
O411 Co408 1.970 . S
O411 C410 1.258 . S
O412 Co409 1.966 . S
O412 C410 1.263 . S
C413 O414 1.235 . S
C413 O440 1.289 . S
O414 C413 1.235 . S
C415 C417 1.400 . S
C415 N418 1.351 . S
C415 C420 1.501 . S
C416 C417 1.387 . S
C416 N419 1.341 . S
C417 C415 1.400 . S
C417 C416 1.387 . S
N418 Co409 2.022 . S
N418 C415 1.351 . S
N418 N419 1.365 . S
N419 C416 1.341 . S
N419 N418 1.365 . S
N419 H439 0.862 . S
C420 C415 1.501 . S
C420 H421 0.961 . S
C420 H422 0.961 . S
C420 H423 0.960 . S
H421 C420 0.961 . S
H422 C420 0.961 . S
H423 C420 0.960 . S
C424 N425 1.342 . S
C424 C428 1.401 . S
C424 C429 1.499 . S
N425 Co408 1.989 . S
N425 C424 1.342 . S
N425 N426 1.388 . S
N426 Co409 1.993 . S
N426 N425 1.388 . S
N426 C427 1.346 . S
C427 N426 1.346 . S
C427 C428 1.396 . S
C427 C437 1.510 . S
C428 C424 1.401 . S
C428 C427 1.396 . S
C429 C424 1.499 . S
C429 H430 0.959 . S
C429 H431 0.960 . S
C429 H432 0.961 . S
H430 C429 0.959 . S
H431 C429 0.960 . S
H432 C429 0.961 . S
O433 Co408 1.967 . S
O433 C441 1.258 . S
O434 Co409 1.941 . S
O434 C441 1.266 . S
H435 C437 0.959 . S
H436 C437 0.961 . S
C437 C427 1.510 . S
C437 H435 0.959 . S
C437 H436 0.961 . S
C437 H438 0.960 . S
H438 C437 0.960 . S
H439 N419 0.862 . S
O440 Co408 1.920 . S
O440 C413 1.289 . S
C441 O433 1.258 . S
C441 O434 1.266 . S
Co442 O445 1.970 . S
Co442 N459 1.989 . S
Co442 O467 1.967 . S
Co442 O474 1.920 . S
Co443 O446 1.966 . S
Co443 N452 2.022 . S
Co443 N460 1.993 . S
Co443 O468 1.941 . S
C444 O445 1.258 . S
C444 O446 1.263 . S
O445 Co442 1.970 . S
O445 C444 1.258 . S
O446 Co443 1.966 . S
O446 C444 1.263 . S
C447 O448 1.235 . S
C447 O474 1.289 . S
O448 C447 1.235 . S
C449 C451 1.400 . S
C449 N452 1.351 . S
C449 C454 1.501 . S
C450 C451 1.387 . S
C450 N453 1.341 . S
C451 C449 1.400 . S
C451 C450 1.387 . S
N452 Co443 2.022 . S
N452 C449 1.351 . S
N452 N453 1.365 . S
N453 C450 1.341 . S
N453 N452 1.365 . S
N453 H473 0.862 . S
C454 C449 1.501 . S
C454 H455 0.961 . S
C454 H456 0.961 . S
C454 H457 0.960 . S
H455 C454 0.961 . S
H456 C454 0.961 . S
H457 C454 0.960 . S
C458 N459 1.342 . S
C458 C462 1.401 . S
C458 C463 1.499 . S
N459 Co442 1.989 . S
N459 C458 1.342 . S
N459 N460 1.388 . S
N460 Co443 1.993 . S
N460 N459 1.388 . S
N460 C461 1.346 . S
C461 N460 1.346 . S
C461 C462 1.396 . S
C461 C471 1.510 . S
C462 C458 1.401 . S
C462 C461 1.396 . S
C463 C458 1.499 . S
C463 H464 0.959 . S
C463 H465 0.960 . S
C463 H466 0.961 . S
H464 C463 0.959 . S
H465 C463 0.960 . S
H466 C463 0.961 . S
O467 Co442 1.967 . S
O467 C475 1.258 . S
O468 Co443 1.941 . S
O468 C475 1.266 . S
H469 C471 0.959 . S
H470 C471 0.961 . S
C471 C461 1.510 . S
C471 H469 0.959 . S
C471 H470 0.961 . S
C471 H472 0.960 . S
H472 C471 0.960 . S
H473 N453 0.862 . S
O474 Co442 1.920 . S
O474 C447 1.289 . S
C475 O467 1.258 . S
C475 O468 1.266 . S
Co476 O479 1.970 . S
Co476 N493 1.989 . S
Co476 O501 1.967 . S
Co476 O508 1.920 . S
Co477 O480 1.966 . S
Co477 N486 2.022 1_556 S
Co477 N494 1.993 . S
Co477 O502 1.933 1_556 S
C478 O479 1.258 . S
C478 O480 1.263 . S
O479 Co476 1.970 . S
O479 C478 1.258 . S
O480 Co477 1.966 . S
O480 C478 1.263 . S
C481 O482 1.235 . S
C481 O508 1.289 . S
O482 C481 1.235 . S
C483 C485 1.400 . S
C483 N486 1.351 . S
C483 C488 1.501 1_554 S
C484 C485 1.387 . S
C484 N487 1.341 . S
C485 C483 1.400 . S
C485 C484 1.387 . S
N486 Co477 2.022 1_554 S
N486 C483 1.351 . S
N486 N487 1.365 . S
N487 C484 1.341 . S
N487 N486 1.365 . S
N487 H507 0.862 . S
C488 C483 1.501 1_556 S
C488 H489 0.961 . S
C488 H490 0.961 . S
C488 H491 0.960 . S
H489 C488 0.961 . S
H490 C488 0.961 . S
H491 C488 0.960 . S
C492 N493 1.342 . S
C492 C496 1.401 1_556 S
C492 C497 1.499 . S
N493 Co476 1.989 . S
N493 C492 1.342 . S
N493 N494 1.388 . S
N494 Co477 1.993 . S
N494 N493 1.388 . S
N494 C495 1.346 1_556 S
C495 N494 1.346 1_554 S
C495 C496 1.396 . S
C495 C505 1.510 . S
C496 C492 1.401 1_554 S
C496 C495 1.396 . S
C497 C492 1.499 . S
C497 H498 0.959 . S
C497 H499 0.960 . S
C497 H500 0.961 . S
H498 C497 0.959 . S
H499 C497 0.960 . S
H500 C497 0.961 . S
O501 Co476 1.967 . S
O501 C509 1.258 . S
O502 Co477 1.933 1_554 S
O502 C509 1.254 1_554 S
H503 C505 0.959 . S
H504 C505 0.961 . S
C505 C495 1.510 . S
C505 H503 0.959 . S
C505 H504 0.961 . S
C505 H506 0.960 . S
H506 C505 0.960 . S
H507 N487 0.862 . S
O508 Co476 1.920 . S
O508 C481 1.289 . S
C509 O501 1.258 . S
C509 O502 1.254 1_556 S
Co510 O513 1.970 . S
Co510 N527 1.989 . S
Co510 O535 1.967 . S
Co510 O542 1.920 . S
Co511 O514 1.966 . S
Co511 N520 2.022 . S
Co511 N528 1.993 . S
Co511 O536 1.941 . S
C512 O513 1.258 . S
C512 O514 1.263 . S
O513 Co510 1.970 . S
O513 C512 1.258 . S
O514 Co511 1.966 . S
O514 C512 1.263 . S
C515 O516 1.235 . S
C515 O542 1.289 . S
O516 C515 1.235 . S
C517 C519 1.400 . S
C517 N520 1.351 . S
C517 C522 1.501 . S
C518 C519 1.387 . S
C518 N521 1.341 . S
C519 C517 1.400 . S
C519 C518 1.387 . S
N520 Co511 2.022 . S
N520 C517 1.351 . S
N520 N521 1.365 . S
N521 C518 1.341 . S
N521 N520 1.365 . S
N521 H541 0.862 . S
C522 C517 1.501 . S
C522 H523 0.961 . S
C522 H524 0.961 . S
C522 H525 0.960 . S
H523 C522 0.961 . S
H524 C522 0.961 . S
H525 C522 0.960 . S
C526 N527 1.342 . S
C526 C530 1.401 . S
C526 C531 1.499 . S
N527 Co510 1.989 . S
N527 C526 1.342 . S
N527 N528 1.388 . S
N528 Co511 1.993 . S
N528 N527 1.388 . S
N528 C529 1.346 . S
C529 N528 1.346 . S
C529 C530 1.396 . S
C529 C539 1.510 . S
C530 C526 1.401 . S
C530 C529 1.396 . S
C531 C526 1.499 . S
C531 H532 0.959 . S
C531 H533 0.960 . S
C531 H534 0.961 . S
H532 C531 0.959 . S
H533 C531 0.960 . S
H534 C531 0.961 . S
O535 Co510 1.967 . S
O535 C543 1.258 . S
O536 Co511 1.941 . S
O536 C543 1.266 . S
H537 C539 0.959 . S
H538 C539 0.961 . S
C539 C529 1.510 . S
C539 H537 0.959 . S
C539 H538 0.961 . S
C539 H540 0.960 . S
H540 C539 0.960 . S
H541 N521 0.862 . S
O542 Co510 1.920 . S
O542 C515 1.289 . S
C543 O535 1.258 . S
C543 O536 1.266 . S
H544 C562 0.951 . S
H545 C564 0.951 . S
H546 C566 0.950 . S
H547 C567 0.950 . S
H548 C569 0.950 . S
H549 C572 0.950 . S
H550 C573 0.950 . S
H551 C575 0.950 . S
H552 C576 0.950 . S
H553 C577 0.951 . S
H554 C579 0.951 . S
H555 C581 0.950 . S
H556 C582 0.950 . S
H557 C584 0.950 . S
H558 C587 0.950 . S
H559 C588 0.950 . S
H560 C590 0.950 . S
H561 C591 0.950 . S
C562 H544 0.951 . S
C562 C563 1.366 . S
C562 C564 1.388 . S
C563 C562 1.366 . S
C563 C567 1.385 . S
C564 H545 0.951 . S
C564 C562 1.388 . S
C564 C565 1.366 . S
C565 C564 1.366 . S
C565 C566 1.414 . S
C565 C568 1.499 . S
C566 H546 0.950 . S
C566 C565 1.414 . S
C566 C567 1.374 . S
C567 H547 0.950 . S
C567 C563 1.385 . S
C567 C566 1.374 . S
C568 C565 1.499 . S
C568 C569 1.373 . S
C568 C570 1.389 . S
C569 H548 0.950 . S
C569 C568 1.373 . S
C569 C585 1.377 . S
C570 C568 1.389 . S
C570 C571 1.524 . S
C570 C584 1.377 . S
C571 C570 1.524 . S
C571 C572 1.397 . S
C571 C576 1.363 . S
C572 H549 0.950 . S
C572 C571 1.397 . S
C572 C573 1.334 . S
C573 H550 0.950 . S
C573 C572 1.334 . S
C573 C574 1.287 . S
C574 C573 1.287 . S
C574 C575 1.524 . S
C574 H593 0.913 . S
C575 H551 0.950 . S
C575 C574 1.524 . S
C575 C576 1.415 . S
C576 H552 0.950 . S
C576 C571 1.363 . S
C576 C575 1.415 . S
C577 H553 0.951 . S
C577 C578 1.366 . S
C577 C579 1.388 . S
C578 C577 1.366 . S
C578 C582 1.385 . S
C579 H554 0.951 . S
C579 C577 1.388 . S
C579 C580 1.366 . S
C580 C579 1.366 . S
C580 C581 1.414 . S
C580 C583 1.499 . S
C581 H555 0.950 . S
C581 C580 1.414 . S
C581 C582 1.374 . S
C582 H556 0.950 . S
C582 C578 1.385 . S
C582 C581 1.374 . S
C583 C580 1.499 . S
C583 C584 1.373 . S
C583 C585 1.389 . S
C584 H557 0.950 . S
C584 C570 1.377 . S
C584 C583 1.373 . S
C585 C569 1.377 . S
C585 C583 1.389 . S
C585 C586 1.524 . S
C586 C585 1.524 . S
C586 C587 1.397 . S
C586 C591 1.363 . S
C587 H558 0.950 . S
C587 C586 1.397 . S
C587 C588 1.334 . S
C588 H559 0.950 . S
C588 C587 1.334 . S
C588 C589 1.287 . S
C589 C588 1.287 . S
C589 C590 1.524 . S
C589 H592 0.999 . S
C590 H560 0.950 . S
C590 C589 1.524 . S
C590 C591 1.415 . S
C591 H561 0.950 . S
C591 C586 1.363 . S
C591 C590 1.415 . S
H592 C589 0.999 . S
H593 C574 0.913 . S
H594 C612 0.951 . S
H595 C614 0.951 . S
H596 C616 0.950 . S
H597 C617 0.950 . S
H598 C619 0.950 . S
H599 C622 0.950 . S
H600 C623 0.950 . S
H601 C625 0.950 . S
H602 C626 0.950 . S
H603 C627 0.951 . S
H604 C629 0.951 . S
H605 C631 0.950 . S
H606 C632 0.950 . S
H607 C634 0.950 . S
H608 C637 0.950 . S
H609 C638 0.950 . S
H610 C640 0.950 1_556 S
H611 C641 0.950 . S
C612 H594 0.951 . S
C612 C613 1.366 . S
C612 C614 1.388 . S
C613 C612 1.366 . S
C613 C617 1.385 . S
C614 H595 0.951 . S
C614 C612 1.388 . S
C614 C615 1.366 . S
C615 C614 1.366 . S
C615 C616 1.414 . S
C615 C618 1.499 . S
C616 H596 0.950 . S
C616 C615 1.414 . S
C616 C617 1.374 . S
C617 H597 0.950 . S
C617 C613 1.385 . S
C617 C616 1.374 . S
C618 C615 1.499 . S
C618 C619 1.373 . S
C618 C620 1.389 . S
C619 H598 0.950 . S
C619 C618 1.373 . S
C619 C635 1.377 . S
C620 C618 1.389 . S
C620 C621 1.524 . S
C620 C634 1.377 . S
C621 C620 1.524 . S
C621 C622 1.397 . S
C621 C626 1.363 . S
C622 H599 0.950 . S
C622 C621 1.397 . S
C622 C623 1.334 . S
C623 H600 0.950 . S
C623 C622 1.334 . S
C623 C624 1.287 . S
C624 C623 1.287 . S
C624 C625 1.524 . S
C624 H643 0.913 . S
C625 H601 0.950 . S
C625 C624 1.524 . S
C625 C626 1.415 . S
C626 H602 0.950 . S
C626 C621 1.363 . S
C626 C625 1.415 . S
C627 H603 0.951 . S
C627 C628 1.366 . S
C627 C629 1.388 . S
C628 C627 1.366 . S
C628 C632 1.385 . S
C629 H604 0.951 . S
C629 C627 1.388 . S
C629 C630 1.366 . S
C630 C629 1.366 . S
C630 C631 1.414 . S
C630 C633 1.499 . S
C631 H605 0.950 . S
C631 C630 1.414 . S
C631 C632 1.374 . S
C632 H606 0.950 . S
C632 C628 1.385 . S
C632 C631 1.374 . S
C633 C630 1.499 . S
C633 C634 1.373 . S
C633 C635 1.389 . S
C634 H607 0.950 . S
C634 C620 1.377 . S
C634 C633 1.373 . S
C635 C619 1.377 . S
C635 C633 1.389 . S
C635 C636 1.524 . S
C636 C635 1.524 . S
C636 C637 1.397 . S
C636 C641 1.363 . S
C637 H608 0.950 . S
C637 C636 1.397 . S
C637 C638 1.334 . S
C638 H609 0.950 . S
C638 C637 1.334 . S
C638 C639 1.287 . S
C639 C638 1.287 . S
C639 C640 1.524 . S
C639 H642 0.999 1_554 S
C640 H610 0.950 1_554 S
C640 C639 1.524 . S
C640 C641 1.415 . S
C641 H611 0.950 . S
C641 C636 1.363 . S
C641 C640 1.415 . S
H642 C639 0.999 1_556 S
H643 C624 0.913 . S
H644 C662 0.951 . S
H645 C664 0.951 . S
H646 C666 0.950 . S
H647 C667 0.950 . S
H648 C669 0.950 . S
H649 C672 0.950 . S
H650 C673 0.950 . S
H651 C675 0.950 . S
H652 C676 0.950 . S
H653 C677 0.951 . S
H654 C679 0.951 . S
H655 C681 0.950 . S
H656 C682 1.010 . S
H657 C684 0.950 . S
H658 C687 0.950 . S
H659 C688 0.950 . S
H660 C690 0.950 . S
H661 C691 0.950 . S
C662 H644 0.951 . S
C662 C663 1.366 . S
C662 C664 1.388 . S
C663 C662 1.366 . S
C663 C667 1.385 . S
C664 H645 0.951 . S
C664 C662 1.388 . S
C664 C665 1.366 . S
C665 C664 1.366 . S
C665 C666 1.414 . S
C665 C668 1.499 . S
C666 H646 0.950 . S
C666 C665 1.414 . S
C666 C667 1.374 . S
C667 H647 0.950 . S
C667 C663 1.385 . S
C667 C666 1.374 . S
C668 C665 1.499 . S
C668 C669 1.373 . S
C668 C670 1.389 . S
C669 H648 0.950 . S
C669 C668 1.373 . S
C669 C685 1.377 . S
C670 C668 1.389 . S
C670 C671 1.524 . S
C670 C684 1.377 . S
C671 C670 1.524 . S
C671 C672 1.397 . S
C671 C676 1.363 . S
C672 H649 0.950 . S
C672 C671 1.397 . S
C672 C673 1.334 . S
C673 H650 0.950 . S
C673 C672 1.334 . S
C673 C674 1.287 . S
C674 C673 1.287 . S
C674 C675 1.524 . S
C674 H693 0.913 . S
C675 H651 0.950 . S
C675 C674 1.524 . S
C675 C676 1.415 . S
C676 H652 0.950 . S
C676 C671 1.363 . S
C676 C675 1.415 . S
C677 H653 0.951 . S
C677 C678 1.366 . S
C677 C679 1.388 . S
C678 C677 1.366 . S
C678 C682 1.372 1_455 S
C679 H654 0.951 . S
C679 C677 1.388 . S
C679 C680 1.366 . S
C680 C679 1.366 . S
C680 C681 1.414 . S
C680 C683 1.499 . S
C681 H655 0.950 . S
C681 C680 1.414 . S
C681 C682 1.329 1_455 S
C682 H656 1.010 . S
C682 C678 1.372 1_655 S
C682 C681 1.329 1_655 S
C683 C680 1.499 . S
C683 C684 1.373 . S
C683 C685 1.389 . S
C684 H657 0.950 . S
C684 C670 1.377 . S
C684 C683 1.373 . S
C685 C669 1.377 . S
C685 C683 1.389 . S
C685 C686 1.524 . S
C686 C685 1.524 . S
C686 C687 1.397 . S
C686 C691 1.363 . S
C687 H658 0.950 . S
C687 C686 1.397 . S
C687 C688 1.334 . S
C688 H659 0.950 . S
C688 C687 1.334 . S
C688 C689 1.287 . S
C689 C688 1.287 . S
C689 C690 1.524 . S
C689 H692 0.999 . S
C690 H660 0.950 . S
C690 C689 1.524 . S
C690 C691 1.415 . S
C691 H661 0.950 . S
C691 C686 1.363 . S
C691 C690 1.415 . S
H692 C689 0.999 . S
H693 C674 0.913 . S
H694 C712 0.951 . S
H695 C714 0.951 . S
H696 C716 0.950 . S
H697 C717 0.950 . S
H698 C719 0.950 . S
H699 C722 0.950 . S
H700 C723 0.950 . S
H701 C725 0.950 . S
H702 C726 0.950 . S
H703 C727 0.951 . S
H704 C729 0.951 . S
H705 C731 0.950 . S
H706 C732 0.950 . S
H707 C734 0.950 . S
H708 C737 0.950 . S
H709 C738 0.950 . S
H710 C740 0.950 . S
H711 C741 0.950 . S
C712 H694 0.951 . S
C712 C713 1.366 . S
C712 C714 1.388 . S
C713 C712 1.366 . S
C713 C717 1.385 . S
C714 H695 0.951 . S
C714 C712 1.388 . S
C714 C715 1.366 . S
C715 C714 1.366 . S
C715 C716 1.414 . S
C715 C718 1.499 . S
C716 H696 0.950 . S
C716 C715 1.414 . S
C716 C717 1.374 . S
C717 H697 0.950 . S
C717 C713 1.385 . S
C717 C716 1.374 . S
C718 C715 1.499 . S
C718 C719 1.373 . S
C718 C720 1.389 . S
C719 H698 0.950 . S
C719 C718 1.373 . S
C719 C735 1.377 . S
C720 C718 1.389 . S
C720 C721 1.524 . S
C720 C734 1.377 . S
C721 C720 1.524 . S
C721 C722 1.397 . S
C721 C726 1.363 . S
C722 H699 0.950 . S
C722 C721 1.397 . S
C722 C723 1.334 . S
C723 H700 0.950 . S
C723 C722 1.334 . S
C723 C724 1.287 . S
C724 C723 1.287 . S
C724 C725 1.524 . S
C724 H743 0.913 . S
C725 H701 0.950 . S
C725 C724 1.524 . S
C725 C726 1.415 . S
C726 H702 0.950 . S
C726 C721 1.363 . S
C726 C725 1.415 . S
C727 H703 0.951 . S
C727 C728 1.366 . S
C727 C729 1.388 . S
C728 C727 1.366 . S
C728 C732 1.385 . S
C729 H704 0.951 . S
C729 C727 1.388 . S
C729 C730 1.366 . S
C730 C729 1.366 . S
C730 C731 1.414 . S
C730 C733 1.499 . S
C731 H705 0.950 . S
C731 C730 1.414 . S
C731 C732 1.374 . S
C732 H706 0.950 . S
C732 C728 1.385 . S
C732 C731 1.374 . S
C733 C730 1.499 . S
C733 C734 1.373 . S
C733 C735 1.389 . S
C734 H707 0.950 . S
C734 C720 1.377 . S
C734 C733 1.373 . S
C735 C719 1.377 . S
C735 C733 1.389 . S
C735 C736 1.524 . S
C736 C735 1.524 . S
C736 C737 1.397 . S
C736 C741 1.363 . S
C737 H708 0.950 . S
C737 C736 1.397 . S
C737 C738 1.334 . S
C738 H709 0.950 . S
C738 C737 1.334 . S
C738 C739 1.287 . S
C739 C738 1.287 . S
C739 C740 1.524 . S
C739 H742 0.999 . S
C740 H710 0.950 . S
C740 C739 1.524 . S
C740 C741 1.415 . S
C741 H711 0.950 . S
C741 C736 1.363 . S
C741 C740 1.415 . S
H742 C739 0.999 . S
H743 C724 0.913 . S
H744 C762 0.951 1_556 S
H745 C764 0.951 . S
H746 C766 0.950 . S
H747 C767 0.950 . S
H748 C769 0.950 . S
H749 C772 0.950 . S
H750 C773 0.950 . S
H751 C775 0.963 . S
H752 C776 0.950 . S
H753 C777 0.951 . S
H754 C779 0.951 . S
H755 C781 0.950 . S
H756 C782 0.950 . S
H757 C784 0.950 . S
H758 C787 0.950 . S
H759 C788 0.950 . S
H760 C790 0.950 . S
H761 C791 0.950 . S
C762 H744 0.951 1_554 S
C762 C763 1.366 . S
C762 C764 1.388 . S
C763 C762 1.366 . S
C763 C767 1.385 . S
C764 H745 0.951 . S
C764 C762 1.388 . S
C764 C765 1.366 . S
C765 C764 1.366 . S
C765 C766 1.414 . S
C765 C768 1.499 . S
C766 H746 0.950 . S
C766 C765 1.414 . S
C766 C767 1.374 . S
C767 H747 0.950 . S
C767 C763 1.385 . S
C767 C766 1.374 . S
C768 C765 1.499 . S
C768 C769 1.373 . S
C768 C770 1.389 . S
C769 H748 0.950 . S
C769 C768 1.373 . S
C769 C785 1.377 . S
C770 C768 1.389 . S
C770 C771 1.524 . S
C770 C784 1.377 . S
C771 C770 1.524 . S
C771 C772 1.397 . S
C771 C776 1.363 . S
C772 H749 0.950 . S
C772 C771 1.397 . S
C772 C773 1.334 . S
C773 H750 0.950 . S
C773 C772 1.334 . S
C773 C774 1.287 . S
C774 C773 1.287 . S
C774 C775 1.522 1_554 S
C774 H793 0.913 1_554 S
C775 H751 0.963 . S
C775 C774 1.522 1_556 S
C775 C776 1.402 1_556 S
C776 H752 0.950 . S
C776 C771 1.363 . S
C776 C775 1.402 1_554 S
C777 H753 0.951 . S
C777 C778 1.366 . S
C777 C779 1.388 . S
C778 C777 1.366 . S
C778 C782 1.385 . S
C779 H754 0.951 . S
C779 C777 1.388 . S
C779 C780 1.366 . S
C780 C779 1.366 . S
C780 C781 1.414 . S
C780 C783 1.499 . S
C781 H755 0.950 . S
C781 C780 1.414 . S
C781 C782 1.374 . S
C782 H756 0.950 . S
C782 C778 1.385 . S
C782 C781 1.374 . S
C783 C780 1.499 . S
C783 C784 1.373 . S
C783 C785 1.389 . S
C784 H757 0.950 . S
C784 C770 1.377 . S
C784 C783 1.373 . S
C785 C769 1.377 . S
C785 C783 1.389 . S
C785 C786 1.524 . S
C786 C785 1.524 . S
C786 C787 1.397 . S
C786 C791 1.363 . S
C787 H758 0.950 . S
C787 C786 1.397 . S
C787 C788 1.334 . S
C788 H759 0.950 . S
C788 C787 1.334 . S
C788 C789 1.287 . S
C789 C788 1.287 . S
C789 C790 1.524 . S
C789 H792 0.999 . S
C790 H760 0.950 . S
C790 C789 1.524 . S
C790 C791 1.415 . S
C791 H761 0.950 . S
C791 C786 1.363 . S
C791 C790 1.415 . S
H792 C789 0.999 . S
H793 C774 0.913 1_556 S
H794 C812 0.951 . S
H795 C814 0.951 . S
H796 C816 0.950 . S
H797 C817 0.950 . S
H798 C819 0.950 . S
H799 C822 0.950 . S
H800 C823 0.950 . S
H801 C825 0.950 . S
H802 C826 0.950 . S
H803 C827 0.951 . S
H804 C829 0.951 . S
H805 C831 0.950 . S
H806 C832 0.950 . S
H807 C834 0.950 . S
H808 C837 0.950 . S
H809 C838 0.950 . S
H810 C840 0.950 . S
H811 C841 0.950 . S
C812 H794 0.951 . S
C812 C813 1.366 . S
C812 C814 1.388 . S
C813 C812 1.366 . S
C813 C817 1.385 . S
C814 H795 0.951 . S
C814 C812 1.388 . S
C814 C815 1.366 . S
C815 C814 1.366 . S
C815 C816 1.414 . S
C815 C818 1.499 . S
C816 H796 0.950 . S
C816 C815 1.414 . S
C816 C817 1.374 . S
C817 H797 0.950 . S
C817 C813 1.385 . S
C817 C816 1.374 . S
C818 C815 1.499 . S
C818 C819 1.373 . S
C818 C820 1.389 . S
C819 H798 0.950 . S
C819 C818 1.373 . S
C819 C835 1.377 . S
C820 C818 1.389 . S
C820 C821 1.524 . S
C820 C834 1.377 . S
C821 C820 1.524 . S
C821 C822 1.397 . S
C821 C826 1.363 . S
C822 H799 0.950 . S
C822 C821 1.397 . S
C822 C823 1.334 . S
C823 H800 0.950 . S
C823 C822 1.334 . S
C823 C824 1.287 . S
C824 C823 1.287 . S
C824 C825 1.524 . S
C824 H843 0.913 . S
C825 H801 0.950 . S
C825 C824 1.524 . S
C825 C826 1.415 . S
C826 H802 0.950 . S
C826 C821 1.363 . S
C826 C825 1.415 . S
C827 H803 0.951 . S
C827 C828 1.366 . S
C827 C829 1.388 . S
C828 C827 1.366 . S
C828 C832 1.385 . S
C829 H804 0.951 . S
C829 C827 1.388 . S
C829 C830 1.366 . S
C830 C829 1.366 . S
C830 C831 1.414 . S
C830 C833 1.499 . S
C831 H805 0.950 . S
C831 C830 1.414 . S
C831 C832 1.374 . S
C832 H806 0.950 . S
C832 C828 1.385 . S
C832 C831 1.374 . S
C833 C830 1.499 . S
C833 C834 1.373 . S
C833 C835 1.389 . S
C834 H807 0.950 . S
C834 C820 1.377 . S
C834 C833 1.373 . S
C835 C819 1.377 . S
C835 C833 1.389 . S
C835 C836 1.524 . S
C836 C835 1.524 . S
C836 C837 1.397 . S
C836 C841 1.363 . S
C837 H808 0.950 . S
C837 C836 1.397 . S
C837 C838 1.334 . S
C838 H809 0.950 . S
C838 C837 1.334 . S
C838 C839 1.287 . S
C839 C838 1.287 . S
C839 C840 1.524 . S
C839 H842 0.999 . S
C840 H810 0.950 . S
C840 C839 1.524 . S
C840 C841 1.415 . S
C841 H811 0.950 . S
C841 C836 1.363 . S
C841 C840 1.415 . S
H842 C839 0.999 . S
H843 C824 0.913 . S
H844 C862 0.951 . S
H845 C864 0.951 . S
H846 C866 0.950 . S
H847 C867 0.950 . S
H848 C869 0.950 . S
H849 C872 0.950 . S
H850 C873 0.950 . S
H851 C875 0.950 . S
H852 C876 0.950 . S
H853 C877 0.951 . S
H854 C879 0.951 . S
H855 C881 0.950 . S
H856 C882 0.950 . S
H857 C884 0.950 . S
H858 C887 0.950 . S
H859 C888 0.950 . S
H860 C890 0.950 . S
H861 C891 0.950 . S
C862 H844 0.951 . S
C862 C863 1.366 . S
C862 C864 1.388 . S
C863 C862 1.366 . S
C863 C867 1.385 1_655 S
C864 H845 0.951 . S
C864 C862 1.388 . S
C864 C865 1.366 . S
C865 C864 1.366 . S
C865 C866 1.414 . S
C865 C868 1.499 . S
C866 H846 0.950 . S
C866 C865 1.414 . S
C866 C867 1.374 1_655 S
C867 H847 0.950 . S
C867 C863 1.385 1_455 S
C867 C866 1.374 1_455 S
C868 C865 1.499 . S
C868 C869 1.373 . S
C868 C870 1.389 . S
C869 H848 0.950 . S
C869 C868 1.373 . S
C869 C885 1.377 . S
C870 C868 1.389 . S
C870 C871 1.524 . S
C870 C884 1.377 . S
C871 C870 1.524 . S
C871 C872 1.397 . S
C871 C876 1.363 . S
C872 H849 0.950 . S
C872 C871 1.397 . S
C872 C873 1.334 . S
C873 H850 0.950 . S
C873 C872 1.334 . S
C873 C874 1.287 . S
C874 C873 1.287 . S
C874 C875 1.524 . S
C874 H893 0.913 . S
C875 H851 0.950 . S
C875 C874 1.524 . S
C875 C876 1.415 . S
C876 H852 0.950 . S
C876 C871 1.363 . S
C876 C875 1.415 . S
C877 H853 0.951 . S
C877 C878 1.366 . S
C877 C879 1.388 . S
C878 C877 1.366 . S
C878 C882 1.385 . S
C879 H854 0.951 . S
C879 C877 1.388 . S
C879 C880 1.366 . S
C880 C879 1.366 . S
C880 C881 1.414 . S
C880 C883 1.499 . S
C881 H855 0.950 . S
C881 C880 1.414 . S
C881 C882 1.374 . S
C882 H856 0.950 . S
C882 C878 1.385 . S
C882 C881 1.374 . S
C883 C880 1.499 . S
C883 C884 1.373 . S
C883 C885 1.389 . S
C884 H857 0.950 . S
C884 C870 1.377 . S
C884 C883 1.373 . S
C885 C869 1.377 . S
C885 C883 1.389 . S
C885 C886 1.524 . S
C886 C885 1.524 . S
C886 C887 1.397 . S
C886 C891 1.363 . S
C887 H858 0.950 . S
C887 C886 1.397 . S
C887 C888 1.334 . S
C888 H859 0.950 . S
C888 C887 1.334 . S
C888 C889 1.287 . S
C889 C888 1.287 . S
C889 C890 1.524 . S
C889 H892 0.999 . S
C890 H860 0.950 . S
C890 C889 1.524 . S
C890 C891 1.415 . S
C891 H861 0.950 . S
C891 C886 1.363 . S
C891 C890 1.415 . S
H892 C889 0.999 . S
H893 C874 0.913 . S
H894 C912 0.951 . S
H895 C914 0.951 . S
H896 C916 0.950 . S
H897 C917 0.950 . S
H898 C919 0.950 . S
H899 C922 0.950 . S
H900 C923 0.950 . S
H901 C925 0.950 . S
H902 C926 0.950 . S
H903 C927 0.951 . S
H904 C929 0.951 . S
H905 C931 0.950 . S
H906 C932 0.950 . S
H907 C934 0.950 . S
H908 C937 0.950 . S
H909 C938 0.950 . S
H910 C940 0.950 . S
H911 C941 0.950 . S
C912 H894 0.951 . S
C912 C913 1.366 . S
C912 C914 1.388 . S
C913 C912 1.366 . S
C913 C917 1.385 . S
C914 H895 0.951 . S
C914 C912 1.388 . S
C914 C915 1.366 . S
C915 C914 1.366 . S
C915 C916 1.414 . S
C915 C918 1.499 . S
C916 H896 0.950 . S
C916 C915 1.414 . S
C916 C917 1.374 . S
C917 H897 0.950 . S
C917 C913 1.385 . S
C917 C916 1.374 . S
C918 C915 1.499 . S
C918 C919 1.373 . S
C918 C920 1.389 . S
C919 H898 0.950 . S
C919 C918 1.373 . S
C919 C935 1.377 . S
C920 C918 1.389 . S
C920 C921 1.524 . S
C920 C934 1.377 . S
C921 C920 1.524 . S
C921 C922 1.397 . S
C921 C926 1.363 . S
C922 H899 0.950 . S
C922 C921 1.397 . S
C922 C923 1.334 . S
C923 H900 0.950 . S
C923 C922 1.334 . S
C923 C924 1.287 . S
C924 C923 1.287 . S
C924 C925 1.524 . S
C924 H943 0.913 . S
C925 H901 0.950 . S
C925 C924 1.524 . S
C925 C926 1.415 . S
C926 H902 0.950 . S
C926 C921 1.363 . S
C926 C925 1.415 . S
C927 H903 0.951 . S
C927 C928 1.366 . S
C927 C929 1.388 . S
C928 C927 1.366 . S
C928 C932 1.385 . S
C929 H904 0.951 . S
C929 C927 1.388 . S
C929 C930 1.366 . S
C930 C929 1.366 . S
C930 C931 1.414 . S
C930 C933 1.499 . S
C931 H905 0.950 . S
C931 C930 1.414 . S
C931 C932 1.374 . S
C932 H906 0.950 . S
C932 C928 1.385 . S
C932 C931 1.374 . S
C933 C930 1.499 . S
C933 C934 1.373 . S
C933 C935 1.389 . S
C934 H907 0.950 . S
C934 C920 1.377 . S
C934 C933 1.373 . S
C935 C919 1.377 . S
C935 C933 1.389 . S
C935 C936 1.524 . S
C936 C935 1.524 . S
C936 C937 1.397 . S
C936 C941 1.363 . S
C937 H908 0.950 . S
C937 C936 1.397 . S
C937 C938 1.334 . S
C938 H909 0.950 . S
C938 C937 1.334 . S
C938 C939 1.287 . S
C939 C938 1.287 . S
C939 C940 1.524 . S
C939 H942 0.999 . S
C940 H910 0.950 . S
C940 C939 1.524 . S
C940 C941 1.415 . S
C941 H911 0.950 . S
C941 C936 1.363 . S
C941 C940 1.415 . S
H942 C939 0.999 . S
H943 C924 0.913 . S
H944 C962 0.951 . S
H945 C964 0.951 . S
H946 C966 0.950 . S
H947 C967 0.950 . S
H948 C969 0.950 . S
H949 C972 0.950 . S
H950 C973 0.950 . S
H951 C975 0.950 . S
H952 C976 0.950 . S
H953 C977 0.920 1_455 S
H954 C979 0.951 . S
H955 C981 0.950 . S
H956 C982 0.950 . S
H957 C984 0.950 . S
H958 C987 0.950 . S
H959 C988 0.950 1_455 S
H960 C990 0.960 . S
H961 C991 0.950 . S
C962 H944 0.951 . S
C962 C963 1.366 . S
C962 C964 1.388 . S
C963 C962 1.366 . S
C963 C967 1.385 . S
C964 H945 0.951 . S
C964 C962 1.388 . S
C964 C965 1.366 . S
C965 C964 1.366 . S
C965 C966 1.414 . S
C965 C968 1.499 . S
C966 H946 0.950 . S
C966 C965 1.414 . S
C966 C967 1.374 . S
C967 H947 0.950 . S
C967 C963 1.385 . S
C967 C966 1.374 . S
C968 C965 1.499 . S
C968 C969 1.373 . S
C968 C970 1.389 . S
C969 H948 0.950 . S
C969 C968 1.373 . S
C969 C985 1.377 . S
C970 C968 1.389 . S
C970 C971 1.524 . S
C970 C984 1.377 . S
C971 C970 1.524 . S
C971 C972 1.397 . S
C971 C976 1.363 . S
C972 H949 0.950 . S
C972 C971 1.397 . S
C972 C973 1.334 . S
C973 H950 0.950 . S
C973 C972 1.334 . S
C973 C974 1.287 . S
C974 C973 1.287 . S
C974 C975 1.524 . S
C974 H993 0.913 . S
C975 H951 0.950 . S
C975 C974 1.524 . S
C975 C976 1.415 . S
C976 H952 0.950 . S
C976 C971 1.363 . S
C976 C975 1.415 . S
C977 H953 0.920 1_655 S
C977 C978 1.371 . S
C977 C979 1.414 . S
C978 C977 1.371 . S
C978 C982 1.385 . S
C979 H954 0.951 . S
C979 C977 1.414 . S
C979 C980 1.366 . S
C980 C979 1.366 . S
C980 C981 1.414 . S
C980 C983 1.499 . S
C981 H955 0.950 . S
C981 C980 1.414 . S
C981 C982 1.374 . S
C982 H956 0.950 . S
C982 C978 1.385 . S
C982 C981 1.374 . S
C983 C980 1.499 . S
C983 C984 1.373 . S
C983 C985 1.389 . S
C984 H957 0.950 . S
C984 C970 1.377 . S
C984 C983 1.373 . S
C985 C969 1.377 . S
C985 C983 1.389 . S
C985 C986 1.524 . S
C986 C985 1.524 . S
C986 C987 1.397 . S
C986 C991 1.363 . S
C987 H958 0.950 . S
C987 C986 1.397 . S
C987 C988 1.334 . S
C988 H959 0.950 1_655 S
C988 C987 1.334 . S
C988 C989 1.287 1_655 S
C989 C988 1.287 1_455 S
C989 C990 1.529 . S
C989 H992 0.999 . S
C990 H960 0.960 . S
C990 C989 1.529 . S
C990 C991 1.398 1_455 S
C991 H961 0.950 . S
C991 C986 1.363 . S
C991 C990 1.398 1_655 S
H992 C989 0.999 . S
H993 C974 0.913 . S
H994 C1012 0.951 . S
H995 C1014 0.951 . S
H996 C1016 0.950 . S
H997 C1017 0.950 . S
H998 C1019 0.950 . S
H999 C1022 0.950 . S
H1000 C1023 0.950 . S
H1001 C1025 0.950 . S
H1002 C1026 0.950 . S
H1003 C1027 0.951 . S
H1004 C1029 0.951 . S
H1005 C1031 0.950 . S
H1006 C1032 0.950 . S
H1007 C1034 0.950 . S
H1008 C1037 0.950 . S
H1009 C1038 0.950 . S
H1010 C1040 0.950 . S
H1011 C1041 0.950 . S
C1012 H994 0.951 . S
C1012 C1013 1.366 . S
C1012 C1014 1.388 . S
C1013 C1012 1.366 . S
C1013 C1017 1.385 . S
C1014 H995 0.951 . S
C1014 C1012 1.388 . S
C1014 C1015 1.366 . S
C1015 C1014 1.366 . S
C1015 C1016 1.414 . S
C1015 C1018 1.499 . S
C1016 H996 0.950 . S
C1016 C1015 1.414 . S
C1016 C1017 1.374 . S
C1017 H997 0.950 . S
C1017 C1013 1.385 . S
C1017 C1016 1.374 . S
C1018 C1015 1.499 . S
C1018 C1019 1.373 . S
C1018 C1020 1.389 . S
C1019 H998 0.950 . S
C1019 C1018 1.373 . S
C1019 C1035 1.377 . S
C1020 C1018 1.389 . S
C1020 C1021 1.524 . S
C1020 C1034 1.377 . S
C1021 C1020 1.524 . S
C1021 C1022 1.397 . S
C1021 C1026 1.363 . S
C1022 H999 0.950 . S
C1022 C1021 1.397 . S
C1022 C1023 1.334 . S
C1023 H1000 0.950 . S
C1023 C1022 1.334 . S
C1023 C1024 1.287 . S
C1024 C1023 1.287 . S
C1024 C1025 1.524 . S
C1024 H1043 0.913 . S
C1025 H1001 0.950 . S
C1025 C1024 1.524 . S
C1025 C1026 1.415 . S
C1026 H1002 0.950 . S
C1026 C1021 1.363 . S
C1026 C1025 1.415 . S
C1027 H1003 0.951 . S
C1027 C1028 1.366 . S
C1027 C1029 1.388 . S
C1028 C1027 1.366 . S
C1028 C1032 1.385 . S
C1029 H1004 0.951 . S
C1029 C1027 1.388 . S
C1029 C1030 1.366 . S
C1030 C1029 1.366 . S
C1030 C1031 1.414 . S
C1030 C1033 1.499 . S
C1031 H1005 0.950 . S
C1031 C1030 1.414 . S
C1031 C1032 1.374 . S
C1032 H1006 0.950 . S
C1032 C1028 1.385 . S
C1032 C1031 1.374 . S
C1033 C1030 1.499 . S
C1033 C1034 1.373 . S
C1033 C1035 1.389 . S
C1034 H1007 0.950 . S
C1034 C1020 1.377 . S
C1034 C1033 1.373 . S
C1035 C1019 1.377 . S
C1035 C1033 1.389 . S
C1035 C1036 1.524 . S
C1036 C1035 1.524 . S
C1036 C1037 1.397 . S
C1036 C1041 1.363 . S
C1037 H1008 0.950 . S
C1037 C1036 1.397 . S
C1037 C1038 1.334 . S
C1038 H1009 0.950 . S
C1038 C1037 1.334 . S
C1038 C1039 1.287 . S
C1039 C1038 1.287 . S
C1039 C1040 1.524 . S
C1039 H1042 0.999 . S
C1040 H1010 0.950 . S
C1040 C1039 1.524 . S
C1040 C1041 1.415 . S
C1041 H1011 0.950 . S
C1041 C1036 1.363 . S
C1041 C1040 1.415 . S
H1042 C1039 0.999 . S
H1043 C1024 0.913 . S
H1044 C1062 0.951 . S
H1045 C1064 0.951 . S
H1046 C1066 0.950 . S
H1047 C1067 0.950 . S
H1048 C1069 0.950 . S
H1049 C1072 0.950 . S
H1050 C1073 0.950 . S
H1051 C1075 0.950 . S
H1052 C1076 0.950 . S
H1053 C1077 0.951 1_554 S
H1054 C1079 0.951 . S
H1055 C1081 0.950 . S
H1056 C1082 0.950 . S
H1057 C1084 0.950 . S
H1058 C1087 0.950 . S
H1059 C1088 0.950 . S
H1060 C1090 0.950 . S
H1061 C1091 0.950 . S
C1062 H1044 0.951 . S
C1062 C1063 1.366 . S
C1062 C1064 1.388 . S
C1063 C1062 1.366 . S
C1063 C1067 1.385 . S
C1064 H1045 0.951 . S
C1064 C1062 1.388 . S
C1064 C1065 1.366 . S
C1065 C1064 1.366 . S
C1065 C1066 1.414 . S
C1065 C1068 1.499 . S
C1066 H1046 0.950 . S
C1066 C1065 1.414 . S
C1066 C1067 1.374 . S
C1067 H1047 0.950 . S
C1067 C1063 1.385 . S
C1067 C1066 1.374 . S
C1068 C1065 1.499 . S
C1068 C1069 1.373 . S
C1068 C1070 1.389 . S
C1069 H1048 0.950 . S
C1069 C1068 1.373 . S
C1069 C1085 1.377 . S
C1070 C1068 1.389 . S
C1070 C1071 1.524 . S
C1070 C1084 1.377 . S
C1071 C1070 1.524 . S
C1071 C1072 1.397 . S
C1071 C1076 1.363 . S
C1072 H1049 0.950 . S
C1072 C1071 1.397 . S
C1072 C1073 1.334 . S
C1073 H1050 0.950 . S
C1073 C1072 1.334 . S
C1073 C1074 1.287 . S
C1074 C1073 1.287 . S
C1074 C1075 1.524 . S
C1074 H1093 0.913 . S
C1075 H1051 0.950 . S
C1075 C1074 1.524 . S
C1075 C1076 1.415 . S
C1076 H1052 0.950 . S
C1076 C1071 1.363 . S
C1076 C1075 1.415 . S
C1077 H1053 0.951 1_556 S
C1077 C1078 1.366 . S
C1077 C1079 1.388 . S
C1078 C1077 1.366 . S
C1078 C1082 1.385 . S
C1079 H1054 0.951 . S
C1079 C1077 1.388 . S
C1079 C1080 1.366 . S
C1080 C1079 1.366 . S
C1080 C1081 1.414 . S
C1080 C1083 1.499 . S
C1081 H1055 0.950 . S
C1081 C1080 1.414 . S
C1081 C1082 1.374 . S
C1082 H1056 0.950 . S
C1082 C1078 1.385 . S
C1082 C1081 1.374 . S
C1083 C1080 1.499 . S
C1083 C1084 1.373 . S
C1083 C1085 1.389 . S
C1084 H1057 0.950 . S
C1084 C1070 1.377 . S
C1084 C1083 1.373 . S
C1085 C1069 1.377 . S
C1085 C1083 1.389 . S
C1085 C1086 1.524 . S
C1086 C1085 1.524 . S
C1086 C1087 1.397 . S
C1086 C1091 1.363 . S
C1087 H1058 0.950 . S
C1087 C1086 1.397 . S
C1087 C1088 1.334 1_556 S
C1088 H1059 0.950 . S
C1088 C1087 1.334 1_554 S
C1088 C1089 1.287 . S
C1089 C1088 1.287 . S
C1089 C1090 1.524 . S
C1089 H1092 0.999 . S
C1090 H1060 0.950 . S
C1090 C1089 1.524 . S
C1090 C1091 1.415 1_554 S
C1091 H1061 0.950 . S
C1091 C1086 1.363 . S
C1091 C1090 1.415 1_556 S
H1092 C1089 0.999 . S
H1093 C1074 0.913 . S
H1094 C1112 0.951 . S
H1095 C1114 0.951 . S
H1096 C1116 0.950 . S
H1097 C1117 0.950 . S
H1098 C1119 0.950 . S
H1099 C1122 0.950 . S
H1100 C1123 0.950 . S
H1101 C1125 0.950 . S
H1102 C1126 0.950 . S
H1103 C1127 0.951 . S
H1104 C1129 0.951 . S
H1105 C1131 0.950 . S
H1106 C1132 0.979 . S
H1107 C1134 0.950 . S
H1108 C1137 0.950 . S
H1109 C1138 0.950 . S
H1110 C1140 0.950 . S
H1111 C1141 0.950 . S
C1112 H1094 0.951 . S
C1112 C1113 1.366 . S
C1112 C1114 1.388 . S
C1113 C1112 1.366 . S
C1113 C1117 1.385 . S
C1114 H1095 0.951 . S
C1114 C1112 1.388 . S
C1114 C1115 1.366 . S
C1115 C1114 1.366 . S
C1115 C1116 1.414 . S
C1115 C1118 1.499 . S
C1116 H1096 0.950 . S
C1116 C1115 1.414 . S
C1116 C1117 1.374 . S
C1117 H1097 0.950 . S
C1117 C1113 1.385 . S
C1117 C1116 1.374 . S
C1118 C1115 1.499 . S
C1118 C1119 1.373 . S
C1118 C1120 1.389 . S
C1119 H1098 0.950 . S
C1119 C1118 1.373 . S
C1119 C1135 1.377 . S
C1120 C1118 1.389 . S
C1120 C1121 1.524 . S
C1120 C1134 1.377 . S
C1121 C1120 1.524 . S
C1121 C1122 1.397 . S
C1121 C1126 1.363 . S
C1122 H1099 0.950 . S
C1122 C1121 1.397 . S
C1122 C1123 1.334 . S
C1123 H1100 0.950 . S
C1123 C1122 1.334 . S
C1123 C1124 1.287 . S
C1124 C1123 1.287 . S
C1124 C1125 1.524 . S
C1124 H1143 0.913 . S
C1125 H1101 0.950 . S
C1125 C1124 1.524 . S
C1125 C1126 1.415 . S
C1126 H1102 0.950 . S
C1126 C1121 1.363 . S
C1126 C1125 1.415 . S
C1127 H1103 0.951 . S
C1127 C1128 1.366 . S
C1127 C1129 1.388 . S
C1128 C1127 1.366 . S
C1128 C1132 1.385 . S
C1129 H1104 0.951 . S
C1129 C1127 1.388 . S
C1129 C1130 1.366 . S
C1130 C1129 1.366 . S
C1130 C1131 1.414 . S
C1130 C1133 1.499 . S
C1131 H1105 0.950 . S
C1131 C1130 1.414 . S
C1131 C1132 1.374 . S
C1132 H1106 0.979 . S
C1132 C1128 1.385 . S
C1132 C1131 1.374 . S
C1133 C1130 1.499 . S
C1133 C1134 1.373 . S
C1133 C1135 1.389 . S
C1134 H1107 0.950 . S
C1134 C1120 1.377 . S
C1134 C1133 1.373 . S
C1135 C1119 1.377 . S
C1135 C1133 1.389 . S
C1135 C1136 1.524 . S
C1136 C1135 1.524 . S
C1136 C1137 1.397 . S
C1136 C1141 1.363 . S
C1137 H1108 0.950 . S
C1137 C1136 1.397 . S
C1137 C1138 1.334 . S
C1138 H1109 0.950 . S
C1138 C1137 1.334 . S
C1138 C1139 1.287 . S
C1139 C1138 1.287 . S
C1139 C1140 1.524 . S
C1139 H1142 0.999 . S
C1140 H1110 0.950 . S
C1140 C1139 1.524 . S
C1140 C1141 1.415 . S
C1141 H1111 0.950 . S
C1141 C1136 1.363 . S
C1141 C1140 1.415 . S
H1142 C1139 0.999 . S
H1143 C1124 0.913 . S
H1144 C1162 0.951 . S
H1145 C1164 0.951 . S
H1146 C1166 0.950 . S
H1147 C1167 0.950 . S
H1148 C1169 0.950 . S
H1149 C1172 0.950 . S
H1150 C1173 0.950 . S
H1151 C1175 0.950 . S
H1152 C1176 0.950 . S
H1153 C1177 0.951 1_655 S
H1154 C1179 0.951 . S
H1155 C1181 0.950 . S
H1156 C1182 0.950 . S
H1157 C1184 0.950 . S
H1158 C1187 0.950 . S
H1159 C1188 0.950 . S
H1160 C1190 0.950 . S
H1161 C1191 0.950 . S
C1162 H1144 0.951 . S
C1162 C1163 1.366 . S
C1162 C1164 1.388 . S
C1163 C1162 1.366 . S
C1163 C1167 1.385 . S
C1164 H1145 0.951 . S
C1164 C1162 1.388 . S
C1164 C1165 1.366 . S
C1165 C1164 1.366 . S
C1165 C1166 1.414 . S
C1165 C1168 1.499 . S
C1166 H1146 0.950 . S
C1166 C1165 1.414 . S
C1166 C1167 1.374 . S
C1167 H1147 0.950 . S
C1167 C1163 1.385 . S
C1167 C1166 1.374 . S
C1168 C1165 1.499 . S
C1168 C1169 1.373 . S
C1168 C1170 1.389 . S
C1169 H1148 0.950 . S
C1169 C1168 1.373 . S
C1169 C1185 1.377 . S
C1170 C1168 1.389 . S
C1170 C1171 1.524 . S
C1170 C1184 1.377 . S
C1171 C1170 1.524 . S
C1171 C1172 1.397 . S
C1171 C1176 1.363 . S
C1172 H1149 0.950 . S
C1172 C1171 1.397 . S
C1172 C1173 1.334 . S
C1173 H1150 0.950 . S
C1173 C1172 1.334 . S
C1173 C1174 1.287 . S
C1174 C1173 1.287 . S
C1174 C1175 1.524 . S
C1174 H1193 0.913 . S
C1175 H1151 0.950 . S
C1175 C1174 1.524 . S
C1175 C1176 1.415 . S
C1176 H1152 0.950 . S
C1176 C1171 1.363 . S
C1176 C1175 1.415 . S
C1177 H1153 0.951 1_455 S
C1177 C1178 1.366 . S
C1177 C1179 1.388 . S
C1178 C1177 1.366 . S
C1178 C1182 1.385 . S
C1179 H1154 0.951 . S
C1179 C1177 1.388 . S
C1179 C1180 1.366 . S
C1180 C1179 1.366 . S
C1180 C1181 1.414 . S
C1180 C1183 1.499 . S
C1181 H1155 0.950 . S
C1181 C1180 1.414 . S
C1181 C1182 1.374 . S
C1182 H1156 0.950 . S
C1182 C1178 1.385 . S
C1182 C1181 1.374 . S
C1183 C1180 1.499 . S
C1183 C1184 1.373 . S
C1183 C1185 1.389 . S
C1184 H1157 0.950 . S
C1184 C1170 1.377 . S
C1184 C1183 1.373 . S
C1185 C1169 1.377 . S
C1185 C1183 1.389 . S
C1185 C1186 1.524 . S
C1186 C1185 1.524 . S
C1186 C1187 1.397 . S
C1186 C1191 1.363 . S
C1187 H1158 0.950 . S
C1187 C1186 1.397 . S
C1187 C1188 1.334 . S
C1188 H1159 0.950 . S
C1188 C1187 1.334 . S
C1188 C1189 1.287 . S
C1189 C1188 1.287 . S
C1189 C1190 1.524 . S
C1189 H1192 0.999 . S
C1190 H1160 0.950 . S
C1190 C1189 1.524 . S
C1190 C1191 1.415 . S
C1191 H1161 0.950 . S
C1191 C1186 1.363 . S
C1191 C1190 1.415 . S
H1192 C1189 0.999 . S
H1193 C1174 0.913 . S
H1194 C1212 0.951 . S
H1195 C1214 0.951 . S
H1196 C1216 0.950 . S
H1197 C1217 0.950 . S
H1198 C1219 0.950 . S
H1199 C1222 0.950 . S
H1200 C1223 0.950 . S
H1201 C1225 0.950 . S
H1202 C1226 0.950 . S
H1203 C1227 0.951 . S
H1204 C1229 0.951 . S
H1205 C1231 0.950 . S
H1206 C1232 0.950 . S
H1207 C1234 0.950 . S
H1208 C1237 0.950 . S
H1209 C1238 0.950 . S
H1210 C1240 0.950 . S
H1211 C1241 0.950 . S
C1212 H1194 0.951 . S
C1212 C1213 1.366 . S
C1212 C1214 1.388 . S
C1213 C1212 1.366 . S
C1213 C1217 1.385 . S
C1214 H1195 0.951 . S
C1214 C1212 1.388 . S
C1214 C1215 1.366 . S
C1215 C1214 1.366 . S
C1215 C1216 1.414 . S
C1215 C1218 1.499 . S
C1216 H1196 0.950 . S
C1216 C1215 1.414 . S
C1216 C1217 1.374 . S
C1217 H1197 0.950 . S
C1217 C1213 1.385 . S
C1217 C1216 1.374 . S
C1218 C1215 1.499 . S
C1218 C1219 1.373 . S
C1218 C1220 1.389 . S
C1219 H1198 0.950 . S
C1219 C1218 1.373 . S
C1219 C1235 1.377 . S
C1220 C1218 1.389 . S
C1220 C1221 1.524 . S
C1220 C1234 1.377 . S
C1221 C1220 1.524 . S
C1221 C1222 1.397 . S
C1221 C1226 1.363 . S
C1222 H1199 0.950 . S
C1222 C1221 1.397 . S
C1222 C1223 1.334 . S
C1223 H1200 0.950 . S
C1223 C1222 1.334 . S
C1223 C1224 1.287 . S
C1224 C1223 1.287 . S
C1224 C1225 1.524 . S
C1224 H1243 0.913 . S
C1225 H1201 0.950 . S
C1225 C1224 1.524 . S
C1225 C1226 1.415 . S
C1226 H1202 0.950 . S
C1226 C1221 1.363 . S
C1226 C1225 1.415 . S
C1227 H1203 0.951 . S
C1227 C1228 1.366 . S
C1227 C1229 1.388 . S
C1228 C1227 1.366 . S
C1228 C1232 1.385 . S
C1229 H1204 0.951 . S
C1229 C1227 1.388 . S
C1229 C1230 1.366 . S
C1230 C1229 1.366 . S
C1230 C1231 1.414 . S
C1230 C1233 1.499 . S
C1231 H1205 0.950 . S
C1231 C1230 1.414 . S
C1231 C1232 1.374 . S
C1232 H1206 0.950 . S
C1232 C1228 1.385 . S
C1232 C1231 1.374 . S
C1233 C1230 1.499 . S
C1233 C1234 1.373 . S
C1233 C1235 1.389 . S
C1234 H1207 0.950 . S
C1234 C1220 1.377 . S
C1234 C1233 1.373 . S
C1235 C1219 1.377 . S
C1235 C1233 1.389 . S
C1235 C1236 1.524 . S
C1236 C1235 1.524 . S
C1236 C1237 1.397 . S
C1236 C1241 1.363 . S
C1237 H1208 0.950 . S
C1237 C1236 1.397 . S
C1237 C1238 1.334 . S
C1238 H1209 0.950 . S
C1238 C1237 1.334 . S
C1238 C1239 1.287 . S
C1239 C1238 1.287 . S
C1239 C1240 1.524 . S
C1239 H1242 0.999 . S
C1240 H1210 0.950 . S
C1240 C1239 1.524 . S
C1240 C1241 1.415 . S
C1241 H1211 0.950 . S
C1241 C1236 1.363 . S
C1241 C1240 1.415 . S
H1242 C1239 0.999 . S
H1243 C1224 0.913 . S
H1244 C1262 0.951 . S
H1245 C1264 0.951 . S
H1246 C1266 0.950 . S
H1247 C1267 0.950 . S
H1248 C1269 0.950 . S
H1249 C1272 0.950 . S
H1250 C1273 0.950 . S
H1251 C1275 0.950 . S
H1252 C1276 0.950 . S
H1253 C1277 0.951 . S
H1254 C1279 0.951 . S
H1255 C1281 0.950 . S
H1256 C1282 0.950 . S
H1257 C1284 0.950 . S
H1258 C1287 0.950 . S
H1259 C1288 0.950 . S
H1260 C1290 0.950 . S
H1261 C1291 0.950 . S
C1262 H1244 0.951 . S
C1262 C1263 1.366 . S
C1262 C1264 1.388 . S
C1263 C1262 1.366 . S
C1263 C1267 1.385 . S
C1264 H1245 0.951 . S
C1264 C1262 1.388 . S
C1264 C1265 1.366 . S
C1265 C1264 1.366 . S
C1265 C1266 1.414 . S
C1265 C1268 1.499 . S
C1266 H1246 0.950 . S
C1266 C1265 1.414 . S
C1266 C1267 1.374 . S
C1267 H1247 0.950 . S
C1267 C1263 1.385 . S
C1267 C1266 1.374 . S
C1268 C1265 1.499 . S
C1268 C1269 1.373 . S
C1268 C1270 1.389 . S
C1269 H1248 0.950 . S
C1269 C1268 1.373 . S
C1269 C1285 1.377 . S
C1270 C1268 1.389 . S
C1270 C1271 1.524 . S
C1270 C1284 1.377 . S
C1271 C1270 1.524 . S
C1271 C1272 1.397 . S
C1271 C1276 1.363 . S
C1272 H1249 0.950 . S
C1272 C1271 1.397 . S
C1272 C1273 1.334 . S
C1273 H1250 0.950 . S
C1273 C1272 1.334 . S
C1273 C1274 1.287 . S
C1274 C1273 1.287 . S
C1274 C1275 1.524 . S
C1274 H1293 0.913 . S
C1275 H1251 0.950 . S
C1275 C1274 1.524 . S
C1275 C1276 1.415 . S
C1276 H1252 0.950 . S
C1276 C1271 1.363 . S
C1276 C1275 1.415 . S
C1277 H1253 0.951 . S
C1277 C1278 1.366 . S
C1277 C1279 1.388 . S
C1278 C1277 1.366 . S
C1278 C1282 1.385 . S
C1279 H1254 0.951 . S
C1279 C1277 1.388 . S
C1279 C1280 1.366 . S
C1280 C1279 1.366 . S
C1280 C1281 1.414 . S
C1280 C1283 1.499 . S
C1281 H1255 0.950 . S
C1281 C1280 1.414 . S
C1281 C1282 1.374 . S
C1282 H1256 0.950 . S
C1282 C1278 1.385 . S
C1282 C1281 1.374 . S
C1283 C1280 1.499 . S
C1283 C1284 1.373 . S
C1283 C1285 1.389 . S
C1284 H1257 0.950 . S
C1284 C1270 1.377 . S
C1284 C1283 1.373 . S
C1285 C1269 1.377 . S
C1285 C1283 1.389 . S
C1285 C1286 1.524 . S
C1286 C1285 1.524 . S
C1286 C1287 1.397 . S
C1286 C1291 1.363 . S
C1287 H1258 0.950 . S
C1287 C1286 1.397 . S
C1287 C1288 1.334 . S
C1288 H1259 0.950 . S
C1288 C1287 1.334 . S
C1288 C1289 1.287 . S
C1289 C1288 1.287 . S
C1289 C1290 1.524 . S
C1289 H1292 0.999 . S
C1290 H1260 0.950 . S
C1290 C1289 1.524 . S
C1290 C1291 1.415 . S
C1291 H1261 0.950 . S
C1291 C1286 1.363 . S
C1291 C1290 1.415 . S
H1292 C1289 0.999 . S
H1293 C1274 0.913 . S
H1294 C1312 0.951 . S
H1295 C1314 0.951 . S
H1296 C1316 0.950 . S
H1297 C1317 0.950 . S
H1298 C1319 0.950 . S
H1299 C1322 0.950 . S
H1300 C1323 0.950 . S
H1301 C1325 0.950 . S
H1302 C1326 0.950 . S
H1303 C1327 0.951 . S
H1304 C1329 0.951 . S
H1305 C1331 0.950 . S
H1306 C1332 0.950 . S
H1307 C1334 0.950 . S
H1308 C1337 0.950 . S
H1309 C1338 0.950 . S
H1310 C1340 0.943 1_554 S
H1311 C1341 0.950 . S
C1312 H1294 0.951 . S
C1312 C1313 1.366 . S
C1312 C1314 1.388 . S
C1313 C1312 1.366 . S
C1313 C1317 1.385 . S
C1314 H1295 0.951 . S
C1314 C1312 1.388 . S
C1314 C1315 1.366 . S
C1315 C1314 1.366 . S
C1315 C1316 1.414 . S
C1315 C1318 1.499 . S
C1316 H1296 0.950 . S
C1316 C1315 1.414 . S
C1316 C1317 1.374 . S
C1317 H1297 0.950 . S
C1317 C1313 1.385 . S
C1317 C1316 1.374 . S
C1318 C1315 1.499 . S
C1318 C1319 1.373 . S
C1318 C1320 1.389 . S
C1319 H1298 0.950 . S
C1319 C1318 1.373 . S
C1319 C1335 1.377 . S
C1320 C1318 1.389 . S
C1320 C1321 1.524 . S
C1320 C1334 1.377 . S
C1321 C1320 1.524 . S
C1321 C1322 1.397 . S
C1321 C1326 1.363 . S
C1322 H1299 0.950 . S
C1322 C1321 1.397 . S
C1322 C1323 1.334 . S
C1323 H1300 0.950 . S
C1323 C1322 1.334 . S
C1323 C1324 1.287 . S
C1324 C1323 1.287 . S
C1324 C1325 1.524 . S
C1324 H1343 0.913 . S
C1325 H1301 0.950 . S
C1325 C1324 1.524 . S
C1325 C1326 1.415 . S
C1326 H1302 0.950 . S
C1326 C1321 1.363 . S
C1326 C1325 1.415 . S
C1327 H1303 0.951 . S
C1327 C1328 1.366 . S
C1327 C1329 1.388 . S
C1328 C1327 1.366 . S
C1328 C1332 1.385 . S
C1329 H1304 0.951 . S
C1329 C1327 1.388 . S
C1329 C1330 1.366 . S
C1330 C1329 1.366 . S
C1330 C1331 1.414 . S
C1330 C1333 1.499 . S
C1331 H1305 0.950 . S
C1331 C1330 1.414 . S
C1331 C1332 1.374 . S
C1332 H1306 0.950 . S
C1332 C1328 1.385 . S
C1332 C1331 1.374 . S
C1333 C1330 1.499 . S
C1333 C1334 1.373 . S
C1333 C1335 1.389 . S
C1334 H1307 0.950 . S
C1334 C1320 1.377 . S
C1334 C1333 1.373 . S
C1335 C1319 1.377 . S
C1335 C1333 1.389 . S
C1335 C1336 1.524 . S
C1336 C1335 1.524 . S
C1336 C1337 1.397 . S
C1336 C1341 1.363 . S
C1337 H1308 0.950 . S
C1337 C1336 1.397 . S
C1337 C1338 1.334 1_556 S
C1338 H1309 0.950 . S
C1338 C1337 1.334 1_554 S
C1338 C1339 1.287 . S
C1339 C1338 1.287 . S
C1339 C1340 1.518 1_554 S
C1339 H1342 0.999 . S
C1340 H1310 0.943 1_556 S
C1340 C1339 1.518 1_556 S
C1340 C1341 1.429 . S
C1341 H1311 0.950 . S
C1341 C1336 1.363 . S
C1341 C1340 1.429 . S
H1342 C1339 0.999 . S
H1343 C1324 0.913 . S
H1344 C1362 0.951 . S
H1345 C1364 0.951 . S
H1346 C1366 0.950 . S
H1347 C1367 0.950 . S
H1348 C1369 0.950 . S
H1349 C1372 0.950 . S
H1350 C1373 0.950 . S
H1351 C1375 0.950 . S
H1352 C1376 0.950 . S
H1353 C1377 0.951 . S
H1354 C1379 0.951 . S
H1355 C1381 0.950 . S
H1356 C1382 0.950 . S
H1357 C1384 0.950 . S
H1358 C1387 0.950 . S
H1359 C1388 0.950 . S
H1360 C1390 0.950 . S
H1361 C1391 0.950 . S
C1362 H1344 0.951 . S
C1362 C1363 1.366 . S
C1362 C1364 1.388 . S
C1363 C1362 1.366 . S
C1363 C1367 1.385 . S
C1364 H1345 0.951 . S
C1364 C1362 1.388 . S
C1364 C1365 1.366 . S
C1365 C1364 1.366 . S
C1365 C1366 1.414 . S
C1365 C1368 1.499 . S
C1366 H1346 0.950 . S
C1366 C1365 1.414 . S
C1366 C1367 1.374 . S
C1367 H1347 0.950 . S
C1367 C1363 1.385 . S
C1367 C1366 1.374 . S
C1368 C1365 1.499 . S
C1368 C1369 1.373 . S
C1368 C1370 1.389 . S
C1369 H1348 0.950 . S
C1369 C1368 1.373 . S
C1369 C1385 1.377 . S
C1370 C1368 1.389 . S
C1370 C1371 1.524 . S
C1370 C1384 1.377 . S
C1371 C1370 1.524 . S
C1371 C1372 1.397 . S
C1371 C1376 1.363 . S
C1372 H1349 0.950 . S
C1372 C1371 1.397 . S
C1372 C1373 1.334 . S
C1373 H1350 0.950 . S
C1373 C1372 1.334 . S
C1373 C1374 1.287 . S
C1374 C1373 1.287 . S
C1374 C1375 1.524 . S
C1374 H1393 0.913 . S
C1375 H1351 0.950 . S
C1375 C1374 1.524 . S
C1375 C1376 1.415 . S
C1376 H1352 0.950 . S
C1376 C1371 1.363 . S
C1376 C1375 1.415 . S
C1377 H1353 0.951 . S
C1377 C1378 1.366 . S
C1377 C1379 1.388 . S
C1378 C1377 1.366 . S
C1378 C1382 1.385 . S
C1379 H1354 0.951 . S
C1379 C1377 1.388 . S
C1379 C1380 1.366 . S
C1380 C1379 1.366 . S
C1380 C1381 1.414 . S
C1380 C1383 1.499 . S
C1381 H1355 0.950 . S
C1381 C1380 1.414 . S
C1381 C1382 1.374 . S
C1382 H1356 0.950 . S
C1382 C1378 1.385 . S
C1382 C1381 1.374 . S
C1383 C1380 1.499 . S
C1383 C1384 1.373 . S
C1383 C1385 1.389 . S
C1384 H1357 0.950 . S
C1384 C1370 1.377 . S
C1384 C1383 1.373 . S
C1385 C1369 1.377 . S
C1385 C1383 1.389 . S
C1385 C1386 1.524 . S
C1386 C1385 1.524 . S
C1386 C1387 1.397 . S
C1386 C1391 1.363 . S
C1387 H1358 0.950 . S
C1387 C1386 1.397 . S
C1387 C1388 1.334 . S
C1388 H1359 0.950 . S
C1388 C1387 1.334 . S
C1388 C1389 1.287 . S
C1389 C1388 1.287 . S
C1389 C1390 1.524 . S
C1389 H1392 0.999 . S
C1390 H1360 0.950 . S
C1390 C1389 1.524 . S
C1390 C1391 1.415 . S
C1391 H1361 0.950 . S
C1391 C1386 1.363 . S
C1391 C1390 1.415 . S
H1392 C1389 0.999 . S
H1393 C1374 0.913 . S
H1394 C1412 0.951 . S
H1395 C1414 0.951 . S
H1396 C1416 0.950 . S
H1397 C1417 0.950 . S
H1398 C1419 0.950 . S
H1399 C1422 0.950 . S
H1400 C1423 0.950 . S
H1401 C1425 0.950 . S
H1402 C1426 0.950 . S
H1403 C1427 0.951 . S
H1404 C1429 0.951 . S
H1405 C1431 0.950 . S
H1406 C1432 0.950 . S
H1407 C1434 0.950 . S
H1408 C1437 0.950 . S
H1409 C1438 0.950 . S
H1410 C1440 0.950 . S
H1411 C1441 0.950 . S
C1412 H1394 0.951 . S
C1412 C1413 1.366 . S
C1412 C1414 1.388 . S
C1413 C1412 1.366 . S
C1413 C1417 1.385 . S
C1414 H1395 0.951 . S
C1414 C1412 1.388 . S
C1414 C1415 1.366 . S
C1415 C1414 1.366 . S
C1415 C1416 1.414 . S
C1415 C1418 1.499 . S
C1416 H1396 0.950 . S
C1416 C1415 1.414 . S
C1416 C1417 1.374 . S
C1417 H1397 0.950 . S
C1417 C1413 1.385 . S
C1417 C1416 1.374 . S
C1418 C1415 1.499 . S
C1418 C1419 1.373 . S
C1418 C1420 1.389 . S
C1419 H1398 0.950 . S
C1419 C1418 1.373 . S
C1419 C1435 1.377 . S
C1420 C1418 1.389 . S
C1420 C1421 1.524 . S
C1420 C1434 1.377 . S
C1421 C1420 1.524 . S
C1421 C1422 1.397 . S
C1421 C1426 1.363 . S
C1422 H1399 0.950 . S
C1422 C1421 1.397 . S
C1422 C1423 1.334 . S
C1423 H1400 0.950 . S
C1423 C1422 1.334 . S
C1423 C1424 1.287 . S
C1424 C1423 1.287 . S
C1424 C1425 1.524 . S
C1424 H1443 0.913 . S
C1425 H1401 0.950 . S
C1425 C1424 1.524 . S
C1425 C1426 1.415 . S
C1426 H1402 0.950 . S
C1426 C1421 1.363 . S
C1426 C1425 1.415 . S
C1427 H1403 0.951 . S
C1427 C1428 1.366 . S
C1427 C1429 1.388 . S
C1428 C1427 1.366 . S
C1428 C1432 1.385 . S
C1429 H1404 0.951 . S
C1429 C1427 1.388 . S
C1429 C1430 1.366 . S
C1430 C1429 1.366 . S
C1430 C1431 1.414 . S
C1430 C1433 1.499 . S
C1431 H1405 0.950 . S
C1431 C1430 1.414 . S
C1431 C1432 1.374 . S
C1432 H1406 0.950 . S
C1432 C1428 1.385 . S
C1432 C1431 1.374 . S
C1433 C1430 1.499 . S
C1433 C1434 1.373 . S
C1433 C1435 1.389 . S
C1434 H1407 0.950 . S
C1434 C1420 1.377 . S
C1434 C1433 1.373 . S
C1435 C1419 1.377 . S
C1435 C1433 1.389 . S
C1435 C1436 1.524 . S
C1436 C1435 1.524 . S
C1436 C1437 1.397 . S
C1436 C1441 1.363 . S
C1437 H1408 0.950 . S
C1437 C1436 1.397 . S
C1437 C1438 1.334 . S
C1438 H1409 0.950 . S
C1438 C1437 1.334 . S
C1438 C1439 1.287 . S
C1439 C1438 1.287 . S
C1439 C1440 1.524 . S
C1439 H1442 0.999 . S
C1440 H1410 0.950 . S
C1440 C1439 1.524 . S
C1440 C1441 1.415 . S
C1441 H1411 0.950 . S
C1441 C1436 1.363 . S
C1441 C1440 1.415 . S
H1442 C1439 0.999 . S
H1443 C1424 0.913 . S
H1444 C1462 0.951 . S
H1445 C1464 0.951 . S
H1446 C1466 0.950 . S
H1447 C1467 0.950 . S
H1448 C1469 0.950 . S
H1449 C1472 0.950 . S
H1450 C1473 0.950 . S
H1451 C1475 0.950 . S
H1452 C1476 0.950 . S
H1453 C1477 0.951 . S
H1454 C1479 0.951 . S
H1455 C1481 0.950 . S
H1456 C1482 0.950 . S
H1457 C1484 0.950 . S
H1458 C1487 0.950 . S
H1459 C1488 0.950 . S
H1460 C1490 0.950 . S
H1461 C1491 0.950 . S
C1462 H1444 0.951 . S
C1462 C1463 1.366 . S
C1462 C1464 1.388 . S
C1463 C1462 1.366 . S
C1463 C1467 1.385 . S
C1464 H1445 0.951 . S
C1464 C1462 1.388 . S
C1464 C1465 1.366 . S
C1465 C1464 1.366 . S
C1465 C1466 1.414 . S
C1465 C1468 1.499 . S
C1466 H1446 0.950 . S
C1466 C1465 1.414 . S
C1466 C1467 1.374 . S
C1467 H1447 0.950 . S
C1467 C1463 1.385 . S
C1467 C1466 1.374 . S
C1468 C1465 1.499 . S
C1468 C1469 1.373 . S
C1468 C1470 1.389 . S
C1469 H1448 0.950 . S
C1469 C1468 1.373 . S
C1469 C1485 1.377 . S
C1470 C1468 1.389 . S
C1470 C1471 1.524 . S
C1470 C1484 1.377 . S
C1471 C1470 1.524 . S
C1471 C1472 1.397 . S
C1471 C1476 1.363 . S
C1472 H1449 0.950 . S
C1472 C1471 1.397 . S
C1472 C1473 1.334 . S
C1473 H1450 0.950 . S
C1473 C1472 1.334 . S
C1473 C1474 1.287 . S
C1474 C1473 1.287 . S
C1474 C1475 1.524 . S
C1474 H1493 0.913 . S
C1475 H1451 0.950 . S
C1475 C1474 1.524 . S
C1475 C1476 1.415 . S
C1476 H1452 0.950 . S
C1476 C1471 1.363 . S
C1476 C1475 1.415 . S
C1477 H1453 0.951 . S
C1477 C1478 1.366 . S
C1477 C1479 1.388 . S
C1478 C1477 1.366 . S
C1478 C1482 1.385 . S
C1479 H1454 0.951 . S
C1479 C1477 1.388 . S
C1479 C1480 1.366 . S
C1480 C1479 1.366 . S
C1480 C1481 1.414 . S
C1480 C1483 1.499 . S
C1481 H1455 0.950 . S
C1481 C1480 1.414 . S
C1481 C1482 1.374 . S
C1482 H1456 0.950 . S
C1482 C1478 1.385 . S
C1482 C1481 1.374 . S
C1483 C1480 1.499 . S
C1483 C1484 1.373 . S
C1483 C1485 1.389 . S
C1484 H1457 0.950 . S
C1484 C1470 1.377 . S
C1484 C1483 1.373 . S
C1485 C1469 1.377 . S
C1485 C1483 1.389 . S
C1485 C1486 1.524 . S
C1486 C1485 1.524 . S
C1486 C1487 1.397 . S
C1486 C1491 1.363 . S
C1487 H1458 0.950 . S
C1487 C1486 1.397 . S
C1487 C1488 1.334 . S
C1488 H1459 0.950 . S
C1488 C1487 1.334 . S
C1488 C1489 1.287 . S
C1489 C1488 1.287 . S
C1489 C1490 1.524 . S
C1489 H1492 0.999 . S
C1490 H1460 0.950 . S
C1490 C1489 1.524 . S
C1490 C1491 1.415 . S
C1491 H1461 0.950 . S
C1491 C1486 1.363 . S
C1491 C1490 1.415 . S
H1492 C1489 0.999 . S
H1493 C1474 0.913 . S
H1494 C1512 0.951 . S
H1495 C1514 0.951 . S
H1496 C1516 0.950 . S
H1497 C1517 0.950 . S
H1498 C1519 0.950 . S
H1499 C1522 0.950 . S
H1500 C1523 0.950 . S
H1501 C1525 0.950 . S
H1502 C1526 0.950 1_556 S
H1503 C1527 0.951 . S
H1504 C1529 0.951 . S
H1505 C1531 0.950 . S
H1506 C1532 0.950 . S
H1507 C1534 0.950 . S
H1508 C1537 0.950 . S
H1509 C1538 0.950 . S
H1510 C1540 0.950 . S
H1511 C1541 0.950 1_554 S
C1512 H1494 0.951 . S
C1512 C1513 1.366 . S
C1512 C1514 1.388 . S
C1513 C1512 1.366 . S
C1513 C1517 1.385 . S
C1514 H1495 0.951 . S
C1514 C1512 1.388 . S
C1514 C1515 1.366 . S
C1515 C1514 1.366 . S
C1515 C1516 1.414 . S
C1515 C1518 1.499 . S
C1516 H1496 0.950 . S
C1516 C1515 1.414 . S
C1516 C1517 1.374 . S
C1517 H1497 0.950 . S
C1517 C1513 1.385 . S
C1517 C1516 1.374 . S
C1518 C1515 1.499 . S
C1518 C1519 1.373 . S
C1518 C1520 1.391 1_655 S
C1519 H1498 0.950 . S
C1519 C1518 1.373 . S
C1519 C1535 1.375 1_556 S
C1520 C1518 1.391 1_455 S
C1520 C1521 1.524 1_556 S
C1520 C1534 1.375 1_556 S
C1521 C1520 1.524 1_554 S
C1521 C1522 1.397 1_455 S
C1521 C1526 1.363 . S
C1522 H1499 0.950 . S
C1522 C1521 1.397 1_655 S
C1522 C1523 1.334 . S
C1523 H1500 0.950 . S
C1523 C1522 1.334 . S
C1523 C1524 1.287 1_655 S
C1524 C1523 1.287 1_455 S
C1524 C1525 1.524 . S
C1524 H1543 0.913 . S
C1525 H1501 0.950 . S
C1525 C1524 1.524 . S
C1525 C1526 1.415 . S
C1526 H1502 0.950 1_554 S
C1526 C1521 1.363 . S
C1526 C1525 1.415 . S
C1527 H1503 0.951 . S
C1527 C1528 1.366 . S
C1527 C1529 1.388 . S
C1528 C1527 1.366 . S
C1528 C1532 1.385 . S
C1529 H1504 0.951 . S
C1529 C1527 1.388 . S
C1529 C1530 1.366 . S
C1530 C1529 1.366 . S
C1530 C1531 1.414 . S
C1530 C1533 1.499 . S
C1531 H1505 0.950 . S
C1531 C1530 1.414 . S
C1531 C1532 1.374 . S
C1532 H1506 0.950 . S
C1532 C1528 1.385 . S
C1532 C1531 1.374 . S
C1533 C1530 1.499 . S
C1533 C1534 1.373 . S
C1533 C1535 1.391 1_455 S
C1534 H1507 0.950 . S
C1534 C1520 1.375 1_554 S
C1534 C1533 1.373 . S
C1535 C1519 1.375 1_554 S
C1535 C1533 1.391 1_655 S
C1535 C1536 1.524 1_554 S
C1536 C1535 1.524 1_556 S
C1536 C1537 1.397 1_655 S
C1536 C1541 1.363 . S
C1537 H1508 0.950 . S
C1537 C1536 1.397 1_455 S
C1537 C1538 1.334 . S
C1538 H1509 0.950 . S
C1538 C1537 1.334 . S
C1538 C1539 1.287 1_455 S
C1539 C1538 1.287 1_655 S
C1539 C1540 1.524 . S
C1539 H1542 0.999 . S
C1540 H1510 0.950 . S
C1540 C1539 1.524 . S
C1540 C1541 1.415 . S
C1541 H1511 0.950 1_556 S
C1541 C1536 1.363 . S
C1541 C1540 1.415 . S
H1542 C1539 0.999 . S
H1543 C1524 0.913 . S
H1544 C1562 0.951 . S
H1545 C1564 0.951 . S
H1546 C1566 0.950 . S
H1547 C1567 0.950 . S
H1548 C1569 0.950 . S
H1549 C1572 0.950 . S
H1550 C1573 0.950 . S
H1551 C1575 0.950 . S
H1552 C1576 0.950 . S
H1553 C1577 0.951 . S
H1554 C1579 0.951 . S
H1555 C1581 0.950 . S
H1556 C1582 0.950 . S
H1557 C1584 0.950 . S
H1558 C1587 0.950 . S
H1559 C1588 0.950 . S
H1560 C1590 0.950 . S
H1561 C1591 0.950 . S
C1562 H1544 0.951 . S
C1562 C1563 1.366 . S
C1562 C1564 1.388 . S
C1563 C1562 1.366 . S
C1563 C1567 1.385 . S
C1564 H1545 0.951 . S
C1564 C1562 1.388 . S
C1564 C1565 1.366 . S
C1565 C1564 1.366 . S
C1565 C1566 1.414 . S
C1565 C1568 1.499 . S
C1566 H1546 0.950 . S
C1566 C1565 1.414 . S
C1566 C1567 1.374 . S
C1567 H1547 0.950 . S
C1567 C1563 1.385 . S
C1567 C1566 1.374 . S
C1568 C1565 1.499 . S
C1568 C1569 1.373 . S
C1568 C1570 1.389 . S
C1569 H1548 0.950 . S
C1569 C1568 1.373 . S
C1569 C1585 1.377 . S
C1570 C1568 1.389 . S
C1570 C1571 1.524 . S
C1570 C1584 1.377 . S
C1571 C1570 1.524 . S
C1571 C1572 1.397 . S
C1571 C1576 1.363 . S
C1572 H1549 0.950 . S
C1572 C1571 1.397 . S
C1572 C1573 1.334 . S
C1573 H1550 0.950 . S
C1573 C1572 1.334 . S
C1573 C1574 1.287 . S
C1574 C1573 1.287 . S
C1574 C1575 1.524 . S
C1574 H1593 0.913 . S
C1575 H1551 0.950 . S
C1575 C1574 1.524 . S
C1575 C1576 1.415 . S
C1576 H1552 0.950 . S
C1576 C1571 1.363 . S
C1576 C1575 1.415 . S
C1577 H1553 0.951 . S
C1577 C1578 1.366 . S
C1577 C1579 1.388 . S
C1578 C1577 1.366 . S
C1578 C1582 1.385 . S
C1579 H1554 0.951 . S
C1579 C1577 1.388 . S
C1579 C1580 1.366 . S
C1580 C1579 1.366 . S
C1580 C1581 1.414 . S
C1580 C1583 1.499 . S
C1581 H1555 0.950 . S
C1581 C1580 1.414 . S
C1581 C1582 1.374 . S
C1582 H1556 0.950 . S
C1582 C1578 1.385 . S
C1582 C1581 1.374 . S
C1583 C1580 1.499 . S
C1583 C1584 1.373 . S
C1583 C1585 1.389 . S
C1584 H1557 0.950 . S
C1584 C1570 1.377 . S
C1584 C1583 1.373 . S
C1585 C1569 1.377 . S
C1585 C1583 1.389 . S
C1585 C1586 1.524 . S
C1586 C1585 1.524 . S
C1586 C1587 1.397 . S
C1586 C1591 1.363 . S
C1587 H1558 0.950 . S
C1587 C1586 1.397 . S
C1587 C1588 1.334 . S
C1588 H1559 0.950 . S
C1588 C1587 1.334 . S
C1588 C1589 1.287 . S
C1589 C1588 1.287 . S
C1589 C1590 1.524 . S
C1589 H1592 0.999 . S
C1590 H1560 0.950 . S
C1590 C1589 1.524 . S
C1590 C1591 1.415 . S
C1591 H1561 0.950 . S
C1591 C1586 1.363 . S
C1591 C1590 1.415 . S
H1592 C1589 0.999 . S
H1593 C1574 0.913 . S
H1594 C1612 0.951 . S
H1595 C1614 0.951 . S
H1596 C1616 0.950 . S
H1597 C1617 0.950 . S
H1598 C1619 0.950 . S
H1599 C1622 0.950 . S
H1600 C1623 0.950 . S
H1601 C1625 0.950 . S
H1602 C1626 0.950 . S
H1603 C1627 0.951 . S
H1604 C1629 0.951 . S
H1605 C1631 0.950 . S
H1606 C1632 0.950 . S
H1607 C1634 0.950 . S
H1608 C1637 0.950 . S
H1609 C1638 0.950 . S
H1610 C1640 0.950 . S
H1611 C1641 0.950 . S
C1612 H1594 0.951 . S
C1612 C1613 1.366 . S
C1612 C1614 1.388 . S
C1613 C1612 1.366 . S
C1613 C1617 1.385 . S
C1614 H1595 0.951 . S
C1614 C1612 1.388 . S
C1614 C1615 1.366 . S
C1615 C1614 1.366 . S
C1615 C1616 1.414 . S
C1615 C1618 1.499 . S
C1616 H1596 0.950 . S
C1616 C1615 1.414 . S
C1616 C1617 1.374 . S
C1617 H1597 0.950 . S
C1617 C1613 1.385 . S
C1617 C1616 1.374 . S
C1618 C1615 1.499 . S
C1618 C1619 1.373 . S
C1618 C1620 1.389 . S
C1619 H1598 0.950 . S
C1619 C1618 1.373 . S
C1619 C1635 1.377 . S
C1620 C1618 1.389 . S
C1620 C1621 1.524 . S
C1620 C1634 1.377 . S
C1621 C1620 1.524 . S
C1621 C1622 1.397 . S
C1621 C1626 1.363 . S
C1622 H1599 0.950 . S
C1622 C1621 1.397 . S
C1622 C1623 1.334 . S
C1623 H1600 0.950 . S
C1623 C1622 1.334 . S
C1623 C1624 1.287 . S
C1624 C1623 1.287 . S
C1624 C1625 1.524 . S
C1624 H1643 0.913 . S
C1625 H1601 0.950 . S
C1625 C1624 1.524 . S
C1625 C1626 1.415 . S
C1626 H1602 0.950 . S
C1626 C1621 1.363 . S
C1626 C1625 1.415 . S
C1627 H1603 0.951 . S
C1627 C1628 1.366 . S
C1627 C1629 1.388 . S
C1628 C1627 1.366 . S
C1628 C1632 1.385 . S
C1629 H1604 0.951 . S
C1629 C1627 1.388 . S
C1629 C1630 1.366 . S
C1630 C1629 1.366 . S
C1630 C1631 1.414 . S
C1630 C1633 1.499 . S
C1631 H1605 0.950 . S
C1631 C1630 1.414 . S
C1631 C1632 1.374 . S
C1632 H1606 0.950 . S
C1632 C1628 1.385 . S
C1632 C1631 1.374 . S
C1633 C1630 1.499 . S
C1633 C1634 1.373 . S
C1633 C1635 1.389 . S
C1634 H1607 0.950 . S
C1634 C1620 1.377 . S
C1634 C1633 1.373 . S
C1635 C1619 1.377 . S
C1635 C1633 1.389 . S
C1635 C1636 1.524 . S
C1636 C1635 1.524 . S
C1636 C1637 1.397 . S
C1636 C1641 1.363 . S
C1637 H1608 0.950 . S
C1637 C1636 1.397 . S
C1637 C1638 1.334 . S
C1638 H1609 0.950 . S
C1638 C1637 1.334 . S
C1638 C1639 1.287 . S
C1639 C1638 1.287 . S
C1639 C1640 1.524 . S
C1639 H1642 0.999 . S
C1640 H1610 0.950 . S
C1640 C1639 1.524 . S
C1640 C1641 1.415 . S
C1641 H1611 0.950 . S
C1641 C1636 1.363 . S
C1641 C1640 1.415 . S
H1642 C1639 0.999 . S
H1643 C1624 0.913 . S
H1644 C1662 0.951 . S
H1645 C1664 0.951 . S
H1646 C1666 0.917 1_545 S
H1647 C1667 0.950 . S
H1648 C1669 0.950 . S
H1649 C1672 0.950 . S
H1650 C1673 0.950 . S
H1651 C1675 0.950 . S
H1652 C1676 0.950 1_556 S
H1653 C1677 0.951 . S
H1654 C1679 0.951 . S
H1655 C1681 0.917 1_565 S
H1656 C1682 0.950 . S
H1657 C1684 0.950 . S
H1658 C1687 0.950 . S
H1659 C1688 0.950 . S
H1660 C1690 0.950 . S
H1661 C1691 0.950 1_554 S
C1662 H1644 0.951 . S
C1662 C1663 1.366 . S
C1662 C1664 1.388 . S
C1663 C1662 1.366 . S
C1663 C1667 1.385 . S
C1664 H1645 0.951 . S
C1664 C1662 1.388 . S
C1664 C1665 1.366 . S
C1665 C1664 1.366 . S
C1665 C1666 1.414 . S
C1665 C1668 1.499 . S
C1666 H1646 0.917 1_565 S
C1666 C1665 1.414 . S
C1666 C1667 1.374 . S
C1667 H1647 0.950 . S
C1667 C1663 1.385 . S
C1667 C1666 1.374 . S
C1668 C1665 1.499 . S
C1668 C1669 1.373 1_565 S
C1668 C1670 1.389 1_655 S
C1669 H1648 0.950 . S
C1669 C1668 1.373 1_545 S
C1669 C1685 1.377 1_554 S
C1670 C1668 1.389 1_455 S
C1670 C1671 1.524 . S
C1670 C1684 1.377 1_554 S
C1671 C1670 1.524 . S
C1671 C1672 1.397 . S
C1671 C1676 1.363 . S
C1672 H1649 0.950 . S
C1672 C1671 1.397 . S
C1672 C1673 1.334 . S
C1673 H1650 0.950 . S
C1673 C1672 1.334 . S
C1673 C1674 1.287 . S
C1674 C1673 1.287 . S
C1674 C1675 1.524 . S
C1674 H1693 0.913 . S
C1675 H1651 0.950 . S
C1675 C1674 1.524 . S
C1675 C1676 1.415 . S
C1676 H1652 0.950 1_554 S
C1676 C1671 1.363 . S
C1676 C1675 1.415 . S
C1677 H1653 0.951 . S
C1677 C1678 1.366 . S
C1677 C1679 1.388 . S
C1678 C1677 1.366 . S
C1678 C1682 1.385 . S
C1679 H1654 0.951 . S
C1679 C1677 1.388 . S
C1679 C1680 1.366 . S
C1680 C1679 1.366 . S
C1680 C1681 1.414 . S
C1680 C1683 1.499 . S
C1681 H1655 0.917 1_545 S
C1681 C1680 1.414 . S
C1681 C1682 1.374 . S
C1682 H1656 0.950 . S
C1682 C1678 1.385 . S
C1682 C1681 1.374 . S
C1683 C1680 1.499 . S
C1683 C1684 1.373 1_545 S
C1683 C1685 1.389 1_455 S
C1684 H1657 0.950 . S
C1684 C1670 1.377 1_556 S
C1684 C1683 1.373 1_565 S
C1685 C1669 1.377 1_556 S
C1685 C1683 1.389 1_655 S
C1685 C1686 1.524 . S
C1686 C1685 1.524 . S
C1686 C1687 1.397 . S
C1686 C1691 1.363 . S
C1687 H1658 0.950 . S
C1687 C1686 1.397 . S
C1687 C1688 1.334 . S
C1688 H1659 0.950 . S
C1688 C1687 1.334 . S
C1688 C1689 1.287 . S
C1689 C1688 1.287 . S
C1689 C1690 1.524 . S
C1689 H1692 0.999 . S
C1690 H1660 0.950 . S
C1690 C1689 1.524 . S
C1690 C1691 1.415 . S
C1691 H1661 0.950 1_556 S
C1691 C1686 1.363 . S
C1691 C1690 1.415 . S
H1692 C1689 0.999 . S
H1693 C1674 0.913 . S
H1694 C1712 0.951 . S
H1695 C1714 0.951 . S
H1696 C1716 0.950 . S
H1697 C1717 0.950 . S
H1698 C1719 0.950 . S
H1699 C1722 0.950 . S
H1700 C1723 0.950 . S
H1701 C1725 0.950 . S
H1702 C1726 0.950 . S
H1703 C1727 0.951 . S
H1704 C1729 0.951 . S
H1705 C1731 0.950 . S
H1706 C1732 0.950 . S
H1707 C1734 0.950 . S
H1708 C1737 0.950 . S
H1709 C1738 0.950 . S
H1710 C1740 0.950 . S
H1711 C1741 0.950 . S
C1712 H1694 0.951 . S
C1712 C1713 1.366 . S
C1712 C1714 1.388 . S
C1713 C1712 1.366 . S
C1713 C1717 1.385 . S
C1714 H1695 0.951 . S
C1714 C1712 1.388 . S
C1714 C1715 1.366 . S
C1715 C1714 1.366 . S
C1715 C1716 1.414 . S
C1715 C1718 1.499 . S
C1716 H1696 0.950 . S
C1716 C1715 1.414 . S
C1716 C1717 1.374 . S
C1717 H1697 0.950 . S
C1717 C1713 1.385 . S
C1717 C1716 1.374 . S
C1718 C1715 1.499 . S
C1718 C1719 1.373 . S
C1718 C1720 1.389 1_565 S
C1719 H1698 0.950 . S
C1719 C1718 1.373 . S
C1719 C1735 1.377 . S
C1720 C1718 1.389 1_545 S
C1720 C1721 1.524 . S
C1720 C1734 1.377 . S
C1721 C1720 1.524 . S
C1721 C1722 1.397 . S
C1721 C1726 1.363 . S
C1722 H1699 0.950 . S
C1722 C1721 1.397 . S
C1722 C1723 1.334 . S
C1723 H1700 0.950 . S
C1723 C1722 1.334 . S
C1723 C1724 1.287 . S
C1724 C1723 1.287 . S
C1724 C1725 1.524 . S
C1724 H1743 0.913 . S
C1725 H1701 0.950 . S
C1725 C1724 1.524 . S
C1725 C1726 1.415 . S
C1726 H1702 0.950 . S
C1726 C1721 1.363 . S
C1726 C1725 1.415 . S
C1727 H1703 0.951 . S
C1727 C1728 1.366 . S
C1727 C1729 1.388 . S
C1728 C1727 1.366 . S
C1728 C1732 1.385 . S
C1729 H1704 0.951 . S
C1729 C1727 1.388 . S
C1729 C1730 1.366 . S
C1730 C1729 1.366 . S
C1730 C1731 1.414 . S
C1730 C1733 1.499 . S
C1731 H1705 0.950 . S
C1731 C1730 1.414 . S
C1731 C1732 1.374 . S
C1732 H1706 0.950 . S
C1732 C1728 1.385 . S
C1732 C1731 1.374 . S
C1733 C1730 1.499 . S
C1733 C1734 1.373 . S
C1733 C1735 1.389 1_545 S
C1734 H1707 0.950 . S
C1734 C1720 1.377 . S
C1734 C1733 1.373 . S
C1735 C1719 1.377 . S
C1735 C1733 1.389 1_565 S
C1735 C1736 1.524 . S
C1736 C1735 1.524 . S
C1736 C1737 1.397 . S
C1736 C1741 1.363 . S
C1737 H1708 0.950 . S
C1737 C1736 1.397 . S
C1737 C1738 1.334 . S
C1738 H1709 0.950 . S
C1738 C1737 1.334 . S
C1738 C1739 1.287 . S
C1739 C1738 1.287 . S
C1739 C1740 1.524 . S
C1739 H1742 0.999 . S
C1740 H1710 0.950 . S
C1740 C1739 1.524 . S
C1740 C1741 1.415 . S
C1741 H1711 0.950 . S
C1741 C1736 1.363 . S
C1741 C1740 1.415 . S
H1742 C1739 0.999 . S
H1743 C1724 0.913 . S
H1744 C1762 0.951 . S
H1745 C1764 0.951 . S
H1746 C1766 0.950 . S
H1747 C1767 0.950 . S
H1748 C1769 0.950 . S
H1749 C1772 0.950 . S
H1750 C1773 0.950 . S
H1751 C1775 0.950 1_554 S
H1752 C1776 0.950 1_554 S
H1753 C1777 0.951 . S
H1754 C1779 0.951 . S
H1755 C1781 0.950 . S
H1756 C1782 0.950 . S
H1757 C1784 0.950 . S
H1758 C1787 0.950 . S
H1759 C1788 0.943 1_554 S
H1760 C1790 0.950 . S
H1761 C1791 0.950 . S
C1762 H1744 0.951 . S
C1762 C1763 1.366 . S
C1762 C1764 1.388 . S
C1763 C1762 1.366 . S
C1763 C1767 1.385 . S
C1764 H1745 0.951 . S
C1764 C1762 1.388 . S
C1764 C1765 1.366 . S
C1765 C1764 1.366 . S
C1765 C1766 1.414 . S
C1765 C1768 1.499 . S
C1766 H1746 0.950 . S
C1766 C1765 1.414 . S
C1766 C1767 1.374 . S
C1767 H1747 0.950 . S
C1767 C1763 1.385 . S
C1767 C1766 1.374 . S
C1768 C1765 1.499 . S
C1768 C1769 1.373 . S
C1768 C1770 1.389 . S
C1769 H1748 0.950 . S
C1769 C1768 1.373 . S
C1769 C1785 1.377 . S
C1770 C1768 1.389 . S
C1770 C1771 1.524 . S
C1770 C1784 1.377 . S
C1771 C1770 1.524 . S
C1771 C1772 1.397 . S
C1771 C1776 1.363 . S
C1772 H1749 0.950 . S
C1772 C1771 1.397 . S
C1772 C1773 1.334 . S
C1773 H1750 0.950 . S
C1773 C1772 1.334 . S
C1773 C1774 1.287 . S
C1774 C1773 1.287 . S
C1774 C1775 1.524 . S
C1774 H1793 0.913 . S
C1775 H1751 0.950 1_556 S
C1775 C1774 1.524 . S
C1775 C1776 1.415 . S
C1776 H1752 0.950 1_556 S
C1776 C1771 1.363 . S
C1776 C1775 1.415 . S
C1777 H1753 0.951 . S
C1777 C1778 1.366 1_556 S
C1777 C1779 1.388 . S
C1778 C1777 1.366 1_554 S
C1778 C1782 1.385 . S
C1779 H1754 0.951 . S
C1779 C1777 1.388 . S
C1779 C1780 1.366 . S
C1780 C1779 1.366 . S
C1780 C1781 1.414 1_556 S
C1780 C1783 1.499 . S
C1781 H1755 0.950 . S
C1781 C1780 1.414 1_554 S
C1781 C1782 1.374 . S
C1782 H1756 0.950 . S
C1782 C1778 1.385 . S
C1782 C1781 1.374 . S
C1783 C1780 1.499 . S
C1783 C1784 1.373 . S
C1783 C1785 1.389 . S
C1784 H1757 0.950 . S
C1784 C1770 1.377 . S
C1784 C1783 1.373 . S
C1785 C1769 1.377 . S
C1785 C1783 1.389 . S
C1785 C1786 1.524 . S
C1786 C1785 1.524 . S
C1786 C1787 1.397 . S
C1786 C1791 1.363 . S
C1787 H1758 0.950 . S
C1787 C1786 1.397 . S
C1787 C1788 1.334 . S
C1788 H1759 0.943 1_556 S
C1788 C1787 1.334 . S
C1788 C1789 1.287 . S
C1789 C1788 1.287 . S
C1789 C1790 1.524 . S
C1789 H1792 0.999 . S
C1790 H1760 0.950 . S
C1790 C1789 1.524 . S
C1790 C1791 1.415 . S
C1791 H1761 0.950 . S
C1791 C1786 1.363 . S
C1791 C1790 1.415 . S
H1792 C1789 0.999 . S
H1793 C1774 0.913 . S
H1794 C1812 0.951 . S
H1795 C1814 0.951 . S
H1796 C1816 0.950 . S
H1797 C1817 0.950 . S
H1798 C1819 0.950 . S
H1799 C1822 0.950 . S
H1800 C1823 0.950 . S
H1801 C1825 0.950 . S
H1802 C1826 0.950 . S
H1803 C1827 0.951 . S
H1804 C1829 0.951 . S
H1805 C1831 0.950 . S
H1806 C1832 0.950 . S
H1807 C1834 0.950 . S
H1808 C1837 0.950 . S
H1809 C1838 0.950 . S
H1810 C1840 0.950 . S
H1811 C1841 0.950 . S
C1812 H1794 0.951 . S
C1812 C1813 1.366 . S
C1812 C1814 1.388 . S
C1813 C1812 1.366 . S
C1813 C1817 1.385 . S
C1814 H1795 0.951 . S
C1814 C1812 1.388 . S
C1814 C1815 1.366 . S
C1815 C1814 1.366 . S
C1815 C1816 1.414 . S
C1815 C1818 1.499 . S
C1816 H1796 0.950 . S
C1816 C1815 1.414 . S
C1816 C1817 1.374 . S
C1817 H1797 0.950 . S
C1817 C1813 1.385 . S
C1817 C1816 1.374 . S
C1818 C1815 1.499 . S
C1818 C1819 1.373 . S
C1818 C1820 1.389 . S
C1819 H1798 0.950 . S
C1819 C1818 1.373 . S
C1819 C1835 1.377 . S
C1820 C1818 1.389 . S
C1820 C1821 1.524 . S
C1820 C1834 1.377 . S
C1821 C1820 1.524 . S
C1821 C1822 1.397 . S
C1821 C1826 1.363 . S
C1822 H1799 0.950 . S
C1822 C1821 1.397 . S
C1822 C1823 1.334 . S
C1823 H1800 0.950 . S
C1823 C1822 1.334 . S
C1823 C1824 1.287 . S
C1824 C1823 1.287 . S
C1824 C1825 1.524 . S
C1824 H1843 0.913 . S
C1825 H1801 0.950 . S
C1825 C1824 1.524 . S
C1825 C1826 1.415 . S
C1826 H1802 0.950 . S
C1826 C1821 1.363 . S
C1826 C1825 1.415 . S
C1827 H1803 0.951 . S
C1827 C1828 1.366 . S
C1827 C1829 1.388 . S
C1828 C1827 1.366 . S
C1828 C1832 1.385 . S
C1829 H1804 0.951 . S
C1829 C1827 1.388 . S
C1829 C1830 1.366 . S
C1830 C1829 1.366 . S
C1830 C1831 1.414 . S
C1830 C1833 1.499 . S
C1831 H1805 0.950 . S
C1831 C1830 1.414 . S
C1831 C1832 1.374 . S
C1832 H1806 0.950 . S
C1832 C1828 1.385 . S
C1832 C1831 1.374 . S
C1833 C1830 1.499 . S
C1833 C1834 1.373 . S
C1833 C1835 1.389 . S
C1834 H1807 0.950 . S
C1834 C1820 1.377 . S
C1834 C1833 1.373 . S
C1835 C1819 1.377 . S
C1835 C1833 1.389 . S
C1835 C1836 1.524 . S
C1836 C1835 1.524 . S
C1836 C1837 1.397 . S
C1836 C1841 1.363 . S
C1837 H1808 0.950 . S
C1837 C1836 1.397 . S
C1837 C1838 1.334 . S
C1838 H1809 0.950 . S
C1838 C1837 1.334 . S
C1838 C1839 1.287 . S
C1839 C1838 1.287 . S
C1839 C1840 1.524 . S
C1839 H1842 0.999 . S
C1840 H1810 0.950 . S
C1840 C1839 1.524 . S
C1840 C1841 1.415 . S
C1841 H1811 0.950 . S
C1841 C1836 1.363 . S
C1841 C1840 1.415 . S
H1842 C1839 0.999 . S
H1843 C1824 0.913 . S
H1844 C1862 0.951 . S
H1845 C1864 0.951 . S
H1846 C1866 0.950 . S
H1847 C1867 0.950 . S
H1848 C1869 0.950 . S
H1849 C1872 0.950 . S
H1850 C1873 0.950 . S
H1851 C1875 0.950 . S
H1852 C1876 0.950 . S
H1853 C1877 0.951 . S
H1854 C1879 0.951 . S
H1855 C1881 0.950 . S
H1856 C1882 0.950 . S
H1857 C1884 0.950 . S
H1858 C1887 0.950 . S
H1859 C1888 0.950 . S
H1860 C1890 0.950 . S
H1861 C1891 0.950 . S
C1862 H1844 0.951 . S
C1862 C1863 1.366 . S
C1862 C1864 1.388 . S
C1863 C1862 1.366 . S
C1863 C1867 1.385 . S
C1864 H1845 0.951 . S
C1864 C1862 1.388 . S
C1864 C1865 1.366 . S
C1865 C1864 1.366 . S
C1865 C1866 1.414 . S
C1865 C1868 1.499 . S
C1866 H1846 0.950 . S
C1866 C1865 1.414 . S
C1866 C1867 1.374 . S
C1867 H1847 0.950 . S
C1867 C1863 1.385 . S
C1867 C1866 1.374 . S
C1868 C1865 1.499 . S
C1868 C1869 1.373 . S
C1868 C1870 1.389 . S
C1869 H1848 0.950 . S
C1869 C1868 1.373 . S
C1869 C1885 1.377 . S
C1870 C1868 1.389 . S
C1870 C1871 1.524 . S
C1870 C1884 1.377 . S
C1871 C1870 1.524 . S
C1871 C1872 1.397 . S
C1871 C1876 1.363 . S
C1872 H1849 0.950 . S
C1872 C1871 1.397 . S
C1872 C1873 1.334 . S
C1873 H1850 0.950 . S
C1873 C1872 1.334 . S
C1873 C1874 1.287 . S
C1874 C1873 1.287 . S
C1874 C1875 1.524 . S
C1874 H1893 0.913 . S
C1875 H1851 0.950 . S
C1875 C1874 1.524 . S
C1875 C1876 1.415 . S
C1876 H1852 0.950 . S
C1876 C1871 1.363 . S
C1876 C1875 1.415 . S
C1877 H1853 0.951 . S
C1877 C1878 1.366 . S
C1877 C1879 1.388 . S
C1878 C1877 1.366 . S
C1878 C1882 1.385 . S
C1879 H1854 0.951 . S
C1879 C1877 1.388 . S
C1879 C1880 1.366 . S
C1880 C1879 1.366 . S
C1880 C1881 1.414 . S
C1880 C1883 1.499 . S
C1881 H1855 0.950 . S
C1881 C1880 1.414 . S
C1881 C1882 1.374 . S
C1882 H1856 0.950 . S
C1882 C1878 1.385 . S
C1882 C1881 1.374 . S
C1883 C1880 1.499 . S
C1883 C1884 1.373 . S
C1883 C1885 1.389 . S
C1884 H1857 0.950 . S
C1884 C1870 1.377 . S
C1884 C1883 1.373 . S
C1885 C1869 1.377 . S
C1885 C1883 1.389 . S
C1885 C1886 1.524 . S
C1886 C1885 1.524 . S
C1886 C1887 1.397 . S
C1886 C1891 1.363 . S
C1887 H1858 0.950 . S
C1887 C1886 1.397 . S
C1887 C1888 1.334 . S
C1888 H1859 0.950 . S
C1888 C1887 1.334 . S
C1888 C1889 1.287 . S
C1889 C1888 1.287 . S
C1889 C1890 1.524 . S
C1889 H1892 0.999 . S
C1890 H1860 0.950 . S
C1890 C1889 1.524 . S
C1890 C1891 1.415 . S
C1891 H1861 0.950 . S
C1891 C1886 1.363 . S
C1891 C1890 1.415 . S
H1892 C1889 0.999 . S
H1893 C1874 0.913 . S
H1894 C1912 0.951 . S
H1895 C1914 0.951 . S
H1896 C1916 0.950 . S
H1897 C1917 0.950 . S
H1898 C1919 0.950 . S
H1899 C1922 0.950 . S
H1900 C1923 0.950 . S
H1901 C1925 0.950 . S
H1902 C1926 0.950 . S
H1903 C1927 0.951 . S
H1904 C1929 0.951 . S
H1905 C1931 0.950 . S
H1906 C1932 0.950 . S
H1907 C1934 0.950 . S
H1908 C1937 0.950 . S
H1909 C1938 0.950 . S
H1910 C1940 0.950 . S
H1911 C1941 0.950 . S
C1912 H1894 0.951 . S
C1912 C1913 1.366 . S
C1912 C1914 1.388 . S
C1913 C1912 1.366 . S
C1913 C1917 1.385 . S
C1914 H1895 0.951 . S
C1914 C1912 1.388 . S
C1914 C1915 1.366 . S
C1915 C1914 1.366 . S
C1915 C1916 1.414 . S
C1915 C1918 1.499 . S
C1916 H1896 0.950 . S
C1916 C1915 1.414 . S
C1916 C1917 1.374 . S
C1917 H1897 0.950 . S
C1917 C1913 1.385 . S
C1917 C1916 1.374 . S
C1918 C1915 1.499 . S
C1918 C1919 1.373 . S
C1918 C1920 1.389 . S
C1919 H1898 0.950 . S
C1919 C1918 1.373 . S
C1919 C1935 1.377 . S
C1920 C1918 1.389 . S
C1920 C1921 1.524 . S
C1920 C1934 1.377 . S
C1921 C1920 1.524 . S
C1921 C1922 1.397 . S
C1921 C1926 1.363 . S
C1922 H1899 0.950 . S
C1922 C1921 1.397 . S
C1922 C1923 1.334 . S
C1923 H1900 0.950 . S
C1923 C1922 1.334 . S
C1923 C1924 1.287 . S
C1924 C1923 1.287 . S
C1924 C1925 1.524 . S
C1924 H1943 0.913 . S
C1925 H1901 0.950 . S
C1925 C1924 1.524 . S
C1925 C1926 1.415 . S
C1926 H1902 0.950 . S
C1926 C1921 1.363 . S
C1926 C1925 1.415 . S
C1927 H1903 0.951 . S
C1927 C1928 1.366 . S
C1927 C1929 1.388 . S
C1928 C1927 1.366 . S
C1928 C1932 1.385 . S
C1929 H1904 0.951 . S
C1929 C1927 1.388 . S
C1929 C1930 1.366 . S
C1930 C1929 1.366 . S
C1930 C1931 1.414 . S
C1930 C1933 1.499 . S
C1931 H1905 0.950 . S
C1931 C1930 1.414 . S
C1931 C1932 1.374 . S
C1932 H1906 0.950 . S
C1932 C1928 1.385 . S
C1932 C1931 1.374 . S
C1933 C1930 1.499 . S
C1933 C1934 1.373 . S
C1933 C1935 1.389 . S
C1934 H1907 0.950 . S
C1934 C1920 1.377 . S
C1934 C1933 1.373 . S
C1935 C1919 1.377 . S
C1935 C1933 1.389 . S
C1935 C1936 1.524 . S
C1936 C1935 1.524 . S
C1936 C1937 1.397 . S
C1936 C1941 1.363 . S
C1937 H1908 0.950 . S
C1937 C1936 1.397 . S
C1937 C1938 1.334 . S
C1938 H1909 0.950 . S
C1938 C1937 1.334 . S
C1938 C1939 1.287 . S
C1939 C1938 1.287 . S
C1939 C1940 1.524 . S
C1939 H1942 0.999 . S
C1940 H1910 0.950 . S
C1940 C1939 1.524 . S
C1940 C1941 1.415 . S
C1941 H1911 0.950 . S
C1941 C1936 1.363 . S
C1941 C1940 1.415 . S
H1942 C1939 0.999 . S
H1943 C1924 0.913 . S
H1944 C1962 0.951 . S
H1945 C1964 0.951 . S
H1946 C1966 0.950 . S
H1947 C1967 0.950 . S
H1948 C1969 0.950 . S
H1949 C1972 0.950 . S
H1950 C1973 0.950 . S
H1951 C1975 0.950 . S
H1952 C1976 0.950 . S
H1953 C1977 0.951 . S
H1954 C1979 0.951 . S
H1955 C1981 0.950 . S
H1956 C1982 0.950 . S
H1957 C1984 0.950 . S
H1958 C1987 0.950 . S
H1959 C1988 0.950 . S
H1960 C1990 0.950 . S
H1961 C1991 0.950 . S
C1962 H1944 0.951 . S
C1962 C1963 1.366 . S
C1962 C1964 1.388 1_556 S
C1963 C1962 1.366 . S
C1963 C1967 1.385 1_556 S
C1964 H1945 0.951 . S
C1964 C1962 1.388 1_554 S
C1964 C1965 1.366 . S
C1965 C1964 1.366 . S
C1965 C1966 1.414 . S
C1965 C1968 1.499 . S
C1966 H1946 0.950 . S
C1966 C1965 1.414 . S
C1966 C1967 1.374 . S
C1967 H1947 0.950 . S
C1967 C1963 1.385 1_554 S
C1967 C1966 1.374 . S
C1968 C1965 1.499 . S
C1968 C1969 1.373 . S
C1968 C1970 1.389 . S
C1969 H1948 0.950 . S
C1969 C1968 1.373 . S
C1969 C1985 1.377 . S
C1970 C1968 1.389 . S
C1970 C1971 1.524 . S
C1970 C1984 1.377 . S
C1971 C1970 1.524 . S
C1971 C1972 1.397 . S
C1971 C1976 1.363 . S
C1972 H1949 0.950 . S
C1972 C1971 1.397 . S
C1972 C1973 1.334 . S
C1973 H1950 0.950 . S
C1973 C1972 1.334 . S
C1973 C1974 1.287 . S
C1974 C1973 1.287 . S
C1974 C1975 1.524 . S
C1974 H1993 0.913 . S
C1975 H1951 0.950 . S
C1975 C1974 1.524 . S
C1975 C1976 1.415 . S
C1976 H1952 0.950 . S
C1976 C1971 1.363 . S
C1976 C1975 1.415 . S
C1977 H1953 0.951 . S
C1977 C1978 1.366 . S
C1977 C1979 1.388 . S
C1978 C1977 1.366 . S
C1978 C1982 1.385 . S
C1979 H1954 0.951 . S
C1979 C1977 1.388 . S
C1979 C1980 1.366 . S
C1980 C1979 1.366 . S
C1980 C1981 1.414 . S
C1980 C1983 1.499 . S
C1981 H1955 0.950 . S
C1981 C1980 1.414 . S
C1981 C1982 1.374 . S
C1982 H1956 0.950 . S
C1982 C1978 1.385 . S
C1982 C1981 1.374 . S
C1983 C1980 1.499 . S
C1983 C1984 1.373 . S
C1983 C1985 1.389 . S
C1984 H1957 0.950 . S
C1984 C1970 1.377 . S
C1984 C1983 1.373 . S
C1985 C1969 1.377 . S
C1985 C1983 1.389 . S
C1985 C1986 1.524 . S
C1986 C1985 1.524 . S
C1986 C1987 1.397 . S
C1986 C1991 1.363 . S
C1987 H1958 0.950 . S
C1987 C1986 1.397 . S
C1987 C1988 1.334 1_554 S
C1988 H1959 0.950 . S
C1988 C1987 1.334 1_556 S
C1988 C1989 1.287 . S
C1989 C1988 1.287 . S
C1989 C1990 1.524 1_556 S
C1989 H1992 0.999 . S
C1990 H1960 0.950 . S
C1990 C1989 1.524 1_554 S
C1990 C1991 1.415 . S
C1991 H1961 0.950 . S
C1991 C1986 1.363 . S
C1991 C1990 1.415 . S
H1992 C1989 0.999 . S
H1993 C1974 0.913 . S
H1994 C2012 0.951 . S
H1995 C2014 0.951 . S
H1996 C2016 0.950 . S
H1997 C2017 0.950 . S
H1998 C2019 0.950 . S
H1999 C2022 0.950 . S
H2000 C2023 0.950 . S
H2001 C2025 0.950 . S
H2002 C2026 0.950 . S
H2003 C2027 0.951 . S
H2004 C2029 0.951 . S
H2005 C2031 0.950 . S
H2006 C2032 0.950 . S
H2007 C2034 0.950 . S
H2008 C2037 0.950 . S
H2009 C2038 0.950 . S
H2010 C2040 0.950 . S
H2011 C2041 0.950 . S
C2012 H1994 0.951 . S
C2012 C2013 1.366 . S
C2012 C2014 1.388 . S
C2013 C2012 1.366 . S
C2013 C2017 1.385 . S
C2014 H1995 0.951 . S
C2014 C2012 1.388 . S
C2014 C2015 1.366 . S
C2015 C2014 1.366 . S
C2015 C2016 1.414 . S
C2015 C2018 1.499 . S
C2016 H1996 0.950 . S
C2016 C2015 1.414 . S
C2016 C2017 1.374 . S
C2017 H1997 0.950 . S
C2017 C2013 1.385 . S
C2017 C2016 1.374 . S
C2018 C2015 1.499 . S
C2018 C2019 1.373 . S
C2018 C2020 1.389 . S
C2019 H1998 0.950 . S
C2019 C2018 1.373 . S
C2019 C2035 1.377 . S
C2020 C2018 1.389 . S
C2020 C2021 1.524 . S
C2020 C2034 1.377 . S
C2021 C2020 1.524 . S
C2021 C2022 1.397 . S
C2021 C2026 1.363 . S
C2022 H1999 0.950 . S
C2022 C2021 1.397 . S
C2022 C2023 1.334 . S
C2023 H2000 0.950 . S
C2023 C2022 1.334 . S
C2023 C2024 1.287 . S
C2024 C2023 1.287 . S
C2024 C2025 1.524 . S
C2024 H2043 0.913 . S
C2025 H2001 0.950 . S
C2025 C2024 1.524 . S
C2025 C2026 1.415 . S
C2026 H2002 0.950 . S
C2026 C2021 1.363 . S
C2026 C2025 1.415 . S
C2027 H2003 0.951 . S
C2027 C2028 1.366 . S
C2027 C2029 1.388 . S
C2028 C2027 1.366 . S
C2028 C2032 1.385 . S
C2029 H2004 0.951 . S
C2029 C2027 1.388 . S
C2029 C2030 1.366 . S
C2030 C2029 1.366 . S
C2030 C2031 1.414 . S
C2030 C2033 1.499 . S
C2031 H2005 0.950 . S
C2031 C2030 1.414 . S
C2031 C2032 1.374 . S
C2032 H2006 0.950 . S
C2032 C2028 1.385 . S
C2032 C2031 1.374 . S
C2033 C2030 1.499 . S
C2033 C2034 1.373 . S
C2033 C2035 1.389 . S
C2034 H2007 0.950 . S
C2034 C2020 1.377 . S
C2034 C2033 1.373 . S
C2035 C2019 1.377 . S
C2035 C2033 1.389 . S
C2035 C2036 1.524 . S
C2036 C2035 1.524 . S
C2036 C2037 1.397 . S
C2036 C2041 1.363 . S
C2037 H2008 0.950 . S
C2037 C2036 1.397 . S
C2037 C2038 1.334 . S
C2038 H2009 0.950 . S
C2038 C2037 1.334 . S
C2038 C2039 1.287 . S
C2039 C2038 1.287 . S
C2039 C2040 1.524 . S
C2039 H2042 0.999 . S
C2040 H2010 0.950 . S
C2040 C2039 1.524 . S
C2040 C2041 1.415 . S
C2041 H2011 0.950 . S
C2041 C2036 1.363 . S
C2041 C2040 1.415 . S
H2042 C2039 0.999 . S
H2043 C2024 0.913 . S
H2044 C2062 0.951 . S
H2045 C2064 0.951 . S
H2046 C2066 0.950 . S
H2047 C2067 0.950 . S
H2048 C2069 0.950 . S
H2049 C2072 0.950 . S
H2050 C2073 0.950 . S
H2051 C2075 0.950 . S
H2052 C2076 0.950 . S
H2053 C2077 0.951 . S
H2054 C2079 0.951 . S
H2055 C2081 0.950 . S
H2056 C2082 0.950 . S
H2057 C2084 0.950 . S
H2058 C2087 0.950 . S
H2059 C2088 0.950 . S
H2060 C2090 0.950 . S
H2061 C2091 0.950 . S
C2062 H2044 0.951 . S
C2062 C2063 1.366 . S
C2062 C2064 1.388 . S
C2063 C2062 1.366 . S
C2063 C2067 1.385 . S
C2064 H2045 0.951 . S
C2064 C2062 1.388 . S
C2064 C2065 1.366 . S
C2065 C2064 1.366 . S
C2065 C2066 1.414 . S
C2065 C2068 1.499 . S
C2066 H2046 0.950 . S
C2066 C2065 1.414 . S
C2066 C2067 1.374 . S
C2067 H2047 0.950 . S
C2067 C2063 1.385 . S
C2067 C2066 1.374 . S
C2068 C2065 1.499 . S
C2068 C2069 1.373 . S
C2068 C2070 1.389 . S
C2069 H2048 0.950 . S
C2069 C2068 1.373 . S
C2069 C2085 1.377 . S
C2070 C2068 1.389 . S
C2070 C2071 1.524 . S
C2070 C2084 1.377 . S
C2071 C2070 1.524 . S
C2071 C2072 1.397 . S
C2071 C2076 1.363 . S
C2072 H2049 0.950 . S
C2072 C2071 1.397 . S
C2072 C2073 1.334 . S
C2073 H2050 0.950 . S
C2073 C2072 1.334 . S
C2073 C2074 1.287 . S
C2074 C2073 1.287 . S
C2074 C2075 1.524 . S
C2074 H2093 0.913 . S
C2075 H2051 0.950 . S
C2075 C2074 1.524 . S
C2075 C2076 1.415 . S
C2076 H2052 0.950 . S
C2076 C2071 1.363 . S
C2076 C2075 1.415 . S
C2077 H2053 0.951 . S
C2077 C2078 1.366 . S
C2077 C2079 1.388 . S
C2078 C2077 1.366 . S
C2078 C2082 1.385 . S
C2079 H2054 0.951 . S
C2079 C2077 1.388 . S
C2079 C2080 1.366 . S
C2080 C2079 1.366 . S
C2080 C2081 1.414 . S
C2080 C2083 1.499 . S
C2081 H2055 0.950 . S
C2081 C2080 1.414 . S
C2081 C2082 1.374 . S
C2082 H2056 0.950 . S
C2082 C2078 1.385 . S
C2082 C2081 1.374 . S
C2083 C2080 1.499 . S
C2083 C2084 1.373 . S
C2083 C2085 1.389 . S
C2084 H2057 0.950 . S
C2084 C2070 1.377 . S
C2084 C2083 1.373 . S
C2085 C2069 1.377 . S
C2085 C2083 1.389 . S
C2085 C2086 1.524 . S
C2086 C2085 1.524 . S
C2086 C2087 1.397 . S
C2086 C2091 1.363 . S
C2087 H2058 0.950 . S
C2087 C2086 1.397 . S
C2087 C2088 1.334 . S
C2088 H2059 0.950 . S
C2088 C2087 1.334 . S
C2088 C2089 1.287 . S
C2089 C2088 1.287 . S
C2089 C2090 1.524 . S
C2089 H2092 0.999 . S
C2090 H2060 0.950 . S
C2090 C2089 1.524 . S
C2090 C2091 1.415 . S
C2091 H2061 0.950 . S
C2091 C2086 1.363 . S
C2091 C2090 1.415 . S
H2092 C2089 0.999 . S
H2093 C2074 0.913 . S
H2094 C2112 0.951 . S
H2095 C2114 0.951 . S
H2096 C2116 0.950 . S
H2097 C2117 0.950 . S
H2098 C2119 0.950 . S
H2099 C2122 0.950 . S
H2100 C2123 0.950 . S
H2101 C2125 0.950 . S
H2102 C2126 0.950 . S
H2103 C2127 0.951 . S
H2104 C2129 0.951 . S
H2105 C2131 0.950 . S
H2106 C2132 0.950 . S
H2107 C2134 0.950 . S
H2108 C2137 0.950 . S
H2109 C2138 0.950 . S
H2110 C2140 0.950 . S
H2111 C2141 0.950 . S
C2112 H2094 0.951 . S
C2112 C2113 1.366 . S
C2112 C2114 1.388 . S
C2113 C2112 1.366 . S
C2113 C2117 1.385 . S
C2114 H2095 0.951 . S
C2114 C2112 1.388 . S
C2114 C2115 1.366 . S
C2115 C2114 1.366 . S
C2115 C2116 1.414 . S
C2115 C2118 1.499 . S
C2116 H2096 0.950 . S
C2116 C2115 1.414 . S
C2116 C2117 1.374 . S
C2117 H2097 0.950 . S
C2117 C2113 1.385 . S
C2117 C2116 1.374 . S
C2118 C2115 1.499 . S
C2118 C2119 1.373 . S
C2118 C2120 1.389 . S
C2119 H2098 0.950 . S
C2119 C2118 1.373 . S
C2119 C2135 1.377 . S
C2120 C2118 1.389 . S
C2120 C2121 1.524 . S
C2120 C2134 1.377 . S
C2121 C2120 1.524 . S
C2121 C2122 1.397 . S
C2121 C2126 1.363 . S
C2122 H2099 0.950 . S
C2122 C2121 1.397 . S
C2122 C2123 1.334 . S
C2123 H2100 0.950 . S
C2123 C2122 1.334 . S
C2123 C2124 1.287 . S
C2124 C2123 1.287 . S
C2124 C2125 1.524 . S
C2124 H2143 0.913 . S
C2125 H2101 0.950 . S
C2125 C2124 1.524 . S
C2125 C2126 1.415 . S
C2126 H2102 0.950 . S
C2126 C2121 1.363 . S
C2126 C2125 1.415 . S
C2127 H2103 0.951 . S
C2127 C2128 1.366 . S
C2127 C2129 1.388 . S
C2128 C2127 1.366 . S
C2128 C2132 1.385 . S
C2129 H2104 0.951 . S
C2129 C2127 1.388 . S
C2129 C2130 1.366 . S
C2130 C2129 1.366 . S
C2130 C2131 1.414 . S
C2130 C2133 1.499 . S
C2131 H2105 0.950 . S
C2131 C2130 1.414 . S
C2131 C2132 1.374 . S
C2132 H2106 0.950 . S
C2132 C2128 1.385 . S
C2132 C2131 1.374 . S
C2133 C2130 1.499 . S
C2133 C2134 1.373 . S
C2133 C2135 1.389 . S
C2134 H2107 0.950 . S
C2134 C2120 1.377 . S
C2134 C2133 1.373 . S
C2135 C2119 1.377 . S
C2135 C2133 1.389 . S
C2135 C2136 1.524 . S
C2136 C2135 1.524 . S
C2136 C2137 1.397 . S
C2136 C2141 1.363 . S
C2137 H2108 0.950 . S
C2137 C2136 1.397 . S
C2137 C2138 1.334 . S
C2138 H2109 0.950 . S
C2138 C2137 1.334 . S
C2138 C2139 1.287 . S
C2139 C2138 1.287 . S
C2139 C2140 1.524 . S
C2139 H2142 0.999 . S
C2140 H2110 0.950 . S
C2140 C2139 1.524 . S
C2140 C2141 1.415 . S
C2141 H2111 0.950 . S
C2141 C2136 1.363 . S
C2141 C2140 1.415 . S
H2142 C2139 0.999 . S
H2143 C2124 0.913 . S
H2144 C2162 0.951 . S
H2145 C2164 0.951 . S
H2146 C2166 0.950 . S
H2147 C2167 0.950 . S
H2148 C2169 0.950 . S
H2149 C2172 0.950 . S
H2150 C2173 0.950 . S
H2151 C2175 0.950 . S
H2152 C2176 0.950 . S
H2153 C2177 0.951 . S
H2154 C2179 0.951 . S
H2155 C2181 0.950 . S
H2156 C2182 0.950 . S
H2157 C2184 0.950 . S
H2158 C2187 0.950 . S
H2159 C2188 0.950 . S
H2160 C2190 0.950 . S
H2161 C2191 0.950 . S
C2162 H2144 0.951 . S
C2162 C2163 1.366 . S
C2162 C2164 1.388 . S
C2163 C2162 1.366 . S
C2163 C2167 1.385 . S
C2164 H2145 0.951 . S
C2164 C2162 1.388 . S
C2164 C2165 1.366 . S
C2165 C2164 1.366 . S
C2165 C2166 1.414 . S
C2165 C2168 1.499 . S
C2166 H2146 0.950 . S
C2166 C2165 1.414 . S
C2166 C2167 1.374 . S
C2167 H2147 0.950 . S
C2167 C2163 1.385 . S
C2167 C2166 1.374 . S
C2168 C2165 1.499 . S
C2168 C2169 1.373 . S
C2168 C2170 1.389 . S
C2169 H2148 0.950 . S
C2169 C2168 1.373 . S
C2169 C2185 1.377 . S
C2170 C2168 1.389 . S
C2170 C2171 1.524 . S
C2170 C2184 1.377 . S
C2171 C2170 1.524 . S
C2171 C2172 1.397 . S
C2171 C2176 1.363 . S
C2172 H2149 0.950 . S
C2172 C2171 1.397 . S
C2172 C2173 1.334 . S
C2173 H2150 0.950 . S
C2173 C2172 1.334 . S
C2173 C2174 1.287 . S
C2174 C2173 1.287 . S
C2174 C2175 1.524 . S
C2174 H2193 0.913 . S
C2175 H2151 0.950 . S
C2175 C2174 1.524 . S
C2175 C2176 1.415 . S
C2176 H2152 0.950 . S
C2176 C2171 1.363 . S
C2176 C2175 1.415 . S
C2177 H2153 0.951 . S
C2177 C2178 1.366 . S
C2177 C2179 1.388 . S
C2178 C2177 1.366 . S
C2178 C2182 1.385 . S
C2179 H2154 0.951 . S
C2179 C2177 1.388 . S
C2179 C2180 1.366 . S
C2180 C2179 1.366 . S
C2180 C2181 1.414 . S
C2180 C2183 1.499 . S
C2181 H2155 0.950 . S
C2181 C2180 1.414 . S
C2181 C2182 1.374 . S
C2182 H2156 0.950 . S
C2182 C2178 1.385 . S
C2182 C2181 1.374 . S
C2183 C2180 1.499 . S
C2183 C2184 1.373 . S
C2183 C2185 1.389 . S
C2184 H2157 0.950 . S
C2184 C2170 1.377 . S
C2184 C2183 1.373 . S
C2185 C2169 1.377 . S
C2185 C2183 1.389 . S
C2185 C2186 1.524 . S
C2186 C2185 1.524 . S
C2186 C2187 1.397 . S
C2186 C2191 1.363 . S
C2187 H2158 0.950 . S
C2187 C2186 1.397 . S
C2187 C2188 1.334 . S
C2188 H2159 0.950 . S
C2188 C2187 1.334 . S
C2188 C2189 1.287 . S
C2189 C2188 1.287 . S
C2189 C2190 1.524 . S
C2189 H2192 0.999 . S
C2190 H2160 0.950 . S
C2190 C2189 1.524 . S
C2190 C2191 1.415 . S
C2191 H2161 0.950 . S
C2191 C2186 1.363 . S
C2191 C2190 1.415 . S
H2192 C2189 0.999 . S
H2193 C2174 0.913 . S
H2194 C2212 0.951 . S
H2195 C2214 0.932 1_565 S
H2196 C2216 0.950 . S
H2197 C2217 0.950 . S
H2198 C2219 0.950 . S
H2199 C2222 0.950 . S
H2200 C2223 0.950 . S
H2201 C2225 0.950 . S
H2202 C2226 0.950 . S
H2203 C2227 0.951 . S
H2204 C2229 0.951 . S
H2205 C2231 0.950 . S
H2206 C2232 0.950 . S
H2207 C2234 0.950 . S
H2208 C2237 0.950 . S
H2209 C2238 0.950 . S
H2210 C2240 0.950 . S
H2211 C2241 0.950 . S
C2212 H2194 0.951 . S
C2212 C2213 1.366 . S
C2212 C2214 1.441 . S
C2213 C2212 1.366 . S
C2213 C2217 1.385 . S
C2214 H2195 0.932 1_545 S
C2214 C2212 1.441 . S
C2214 C2215 1.334 1_545 S
C2215 C2214 1.334 1_565 S
C2215 C2216 1.414 . S
C2215 C2218 1.499 . S
C2216 H2196 0.950 . S
C2216 C2215 1.414 . S
C2216 C2217 1.374 1_565 S
C2217 H2197 0.950 . S
C2217 C2213 1.385 . S
C2217 C2216 1.374 1_545 S
C2218 C2215 1.499 . S
C2218 C2219 1.373 . S
C2218 C2220 1.389 . S
C2219 H2198 0.950 . S
C2219 C2218 1.373 . S
C2219 C2235 1.377 . S
C2220 C2218 1.389 . S
C2220 C2221 1.524 . S
C2220 C2234 1.377 . S
C2221 C2220 1.524 . S
C2221 C2222 1.397 . S
C2221 C2226 1.363 . S
C2222 H2199 0.950 . S
C2222 C2221 1.397 . S
C2222 C2223 1.334 . S
C2223 H2200 0.950 . S
C2223 C2222 1.334 . S
C2223 C2224 1.287 . S
C2224 C2223 1.287 . S
C2224 C2225 1.524 . S
C2224 H2243 0.913 . S
C2225 H2201 0.950 . S
C2225 C2224 1.524 . S
C2225 C2226 1.415 . S
C2226 H2202 0.950 . S
C2226 C2221 1.363 . S
C2226 C2225 1.415 . S
C2227 H2203 0.951 . S
C2227 C2228 1.366 . S
C2227 C2229 1.388 . S
C2228 C2227 1.366 . S
C2228 C2232 1.385 . S
C2229 H2204 0.951 . S
C2229 C2227 1.388 . S
C2229 C2230 1.366 . S
C2230 C2229 1.366 . S
C2230 C2231 1.414 . S
C2230 C2233 1.499 . S
C2231 H2205 0.950 . S
C2231 C2230 1.414 . S
C2231 C2232 1.374 . S
C2232 H2206 0.950 . S
C2232 C2228 1.385 . S
C2232 C2231 1.374 . S
C2233 C2230 1.499 . S
C2233 C2234 1.373 . S
C2233 C2235 1.389 . S
C2234 H2207 0.950 . S
C2234 C2220 1.377 . S
C2234 C2233 1.373 . S
C2235 C2219 1.377 . S
C2235 C2233 1.389 . S
C2235 C2236 1.524 . S
C2236 C2235 1.524 . S
C2236 C2237 1.397 . S
C2236 C2241 1.363 . S
C2237 H2208 0.950 . S
C2237 C2236 1.397 . S
C2237 C2238 1.334 . S
C2238 H2209 0.950 . S
C2238 C2237 1.334 . S
C2238 C2239 1.287 . S
C2239 C2238 1.287 . S
C2239 C2240 1.524 . S
C2239 H2242 0.999 . S
C2240 H2210 0.950 . S
C2240 C2239 1.524 . S
C2240 C2241 1.415 . S
C2241 H2211 0.950 . S
C2241 C2236 1.363 . S
C2241 C2240 1.415 . S
H2242 C2239 0.999 . S
H2243 C2224 0.913 . S
H2244 C2262 0.951 . S
H2245 C2264 0.951 . S
H2246 C2266 0.950 . S
H2247 C2267 0.950 . S
H2248 C2269 0.950 1_554 S
H2249 C2272 0.950 . S
H2250 C2273 0.950 . S
H2251 C2275 0.950 . S
H2252 C2276 0.950 . S
H2253 C2277 0.951 . S
H2254 C2279 0.951 . S
H2255 C2281 0.950 . S
H2256 C2282 0.950 . S
H2257 C2284 0.950 . S
H2258 C2287 0.950 . S
H2259 C2288 0.950 . S
H2260 C2290 0.950 . S
H2261 C2291 0.950 . S
C2262 H2244 0.951 . S
C2262 C2263 1.366 1_556 S
C2262 C2264 1.388 . S
C2263 C2262 1.366 1_554 S
C2263 C2267 1.385 . S
C2264 H2245 0.951 . S
C2264 C2262 1.388 . S
C2264 C2265 1.366 . S
C2265 C2264 1.366 . S
C2265 C2266 1.414 1_556 S
C2265 C2268 1.499 . S
C2266 H2246 0.950 . S
C2266 C2265 1.414 1_554 S
C2266 C2267 1.374 . S
C2267 H2247 0.950 . S
C2267 C2263 1.385 . S
C2267 C2266 1.374 . S
C2268 C2265 1.499 . S
C2268 C2269 1.373 . S
C2268 C2270 1.389 . S
C2269 H2248 0.950 1_556 S
C2269 C2268 1.373 . S
C2269 C2285 1.377 . S
C2270 C2268 1.389 . S
C2270 C2271 1.524 . S
C2270 C2284 1.377 . S
C2271 C2270 1.524 . S
C2271 C2272 1.397 . S
C2271 C2276 1.363 . S
C2272 H2249 0.950 . S
C2272 C2271 1.397 . S
C2272 C2273 1.334 . S
C2273 H2250 0.950 . S
C2273 C2272 1.334 . S
C2273 C2274 1.287 . S
C2274 C2273 1.287 . S
C2274 C2275 1.524 . S
C2274 H2293 0.913 . S
C2275 H2251 0.950 . S
C2275 C2274 1.524 . S
C2275 C2276 1.415 . S
C2276 H2252 0.950 . S
C2276 C2271 1.363 . S
C2276 C2275 1.415 . S
C2277 H2253 0.951 . S
C2277 C2278 1.366 . S
C2277 C2279 1.388 . S
C2278 C2277 1.366 . S
C2278 C2282 1.385 . S
C2279 H2254 0.951 . S
C2279 C2277 1.388 . S
C2279 C2280 1.366 . S
C2280 C2279 1.366 . S
C2280 C2281 1.414 . S
C2280 C2283 1.499 . S
C2281 H2255 0.950 . S
C2281 C2280 1.414 . S
C2281 C2282 1.374 . S
C2282 H2256 0.950 . S
C2282 C2278 1.385 . S
C2282 C2281 1.374 . S
C2283 C2280 1.499 . S
C2283 C2284 1.373 . S
C2283 C2285 1.389 . S
C2284 H2257 0.950 . S
C2284 C2270 1.377 . S
C2284 C2283 1.373 . S
C2285 C2269 1.377 . S
C2285 C2283 1.389 . S
C2285 C2286 1.524 . S
C2286 C2285 1.524 . S
C2286 C2287 1.397 . S
C2286 C2291 1.363 1_556 S
C2287 H2258 0.950 . S
C2287 C2286 1.397 . S
C2287 C2288 1.334 1_556 S
C2288 H2259 0.950 . S
C2288 C2287 1.334 1_554 S
C2288 C2289 1.287 . S
C2289 C2288 1.287 . S
C2289 C2290 1.524 . S
C2289 H2292 0.999 . S
C2290 H2260 0.950 . S
C2290 C2289 1.524 . S
C2290 C2291 1.415 . S
C2291 H2261 0.950 . S
C2291 C2286 1.363 1_554 S
C2291 C2290 1.415 . S
H2292 C2289 0.999 . S
H2293 C2274 0.913 . S
H2294 C2312 0.951 . S
H2295 C2314 0.951 . S
H2296 C2316 0.950 . S
H2297 C2317 0.950 . S
H2298 C2319 0.950 . S
H2299 C2322 0.950 . S
H2300 C2323 0.950 . S
H2301 C2325 0.950 . S
H2302 C2326 0.950 . S
H2303 C2327 0.951 . S
H2304 C2329 0.951 . S
H2305 C2331 0.950 . S
H2306 C2332 0.950 . S
H2307 C2334 0.950 . S
H2308 C2337 0.950 . S
H2309 C2338 0.950 . S
H2310 C2340 0.950 . S
H2311 C2341 0.950 . S
C2312 H2294 0.951 . S
C2312 C2313 1.366 . S
C2312 C2314 1.388 1_565 S
C2313 C2312 1.366 . S
C2313 C2317 1.385 . S
C2314 H2295 0.951 . S
C2314 C2312 1.388 1_545 S
C2314 C2315 1.366 . S
C2315 C2314 1.366 . S
C2315 C2316 1.414 1_545 S
C2315 C2318 1.499 . S
C2316 H2296 0.950 . S
C2316 C2315 1.414 1_565 S
C2316 C2317 1.374 . S
C2317 H2297 0.950 . S
C2317 C2313 1.385 . S
C2317 C2316 1.374 . S
C2318 C2315 1.499 . S
C2318 C2319 1.373 . S
C2318 C2320 1.389 . S
C2319 H2298 0.950 . S
C2319 C2318 1.373 . S
C2319 C2335 1.377 . S
C2320 C2318 1.389 . S
C2320 C2321 1.524 . S
C2320 C2334 1.377 . S
C2321 C2320 1.524 . S
C2321 C2322 1.397 . S
C2321 C2326 1.363 . S
C2322 H2299 0.950 . S
C2322 C2321 1.397 . S
C2322 C2323 1.334 . S
C2323 H2300 0.950 . S
C2323 C2322 1.334 . S
C2323 C2324 1.287 . S
C2324 C2323 1.287 . S
C2324 C2325 1.524 . S
C2324 H2343 0.913 . S
C2325 H2301 0.950 . S
C2325 C2324 1.524 . S
C2325 C2326 1.415 . S
C2326 H2302 0.950 . S
C2326 C2321 1.363 . S
C2326 C2325 1.415 . S
C2327 H2303 0.951 . S
C2327 C2328 1.366 . S
C2327 C2329 1.388 . S
C2328 C2327 1.366 . S
C2328 C2332 1.385 . S
C2329 H2304 0.951 . S
C2329 C2327 1.388 . S
C2329 C2330 1.366 . S
C2330 C2329 1.366 . S
C2330 C2331 1.414 . S
C2330 C2333 1.499 . S
C2331 H2305 0.950 . S
C2331 C2330 1.414 . S
C2331 C2332 1.374 . S
C2332 H2306 0.950 . S
C2332 C2328 1.385 . S
C2332 C2331 1.374 . S
C2333 C2330 1.499 . S
C2333 C2334 1.373 . S
C2333 C2335 1.389 . S
C2334 H2307 0.950 . S
C2334 C2320 1.377 . S
C2334 C2333 1.373 . S
C2335 C2319 1.377 . S
C2335 C2333 1.389 . S
C2335 C2336 1.524 . S
C2336 C2335 1.524 . S
C2336 C2337 1.397 . S
C2336 C2341 1.363 . S
C2337 H2308 0.950 . S
C2337 C2336 1.397 . S
C2337 C2338 1.334 . S
C2338 H2309 0.950 . S
C2338 C2337 1.334 . S
C2338 C2339 1.287 . S
C2339 C2338 1.287 . S
C2339 C2340 1.524 . S
C2339 H2342 0.999 . S
C2340 H2310 0.950 . S
C2340 C2339 1.524 . S
C2340 C2341 1.415 . S
C2341 H2311 0.950 . S
C2341 C2336 1.363 . S
C2341 C2340 1.415 . S
H2342 C2339 0.999 . S
H2343 C2324 0.913 . S
H2344 C2362 0.951 . S
H2345 C2364 0.951 . S
H2346 C2366 0.950 . S
H2347 C2367 0.950 . S
H2348 C2369 0.950 . S
H2349 C2372 0.950 . S
H2350 C2373 0.950 . S
H2351 C2375 0.950 . S
H2352 C2376 0.950 . S
H2353 C2377 0.951 . S
H2354 C2379 0.951 . S
H2355 C2381 0.950 . S
H2356 C2382 0.950 . S
H2357 C2384 0.950 . S
H2358 C2387 0.950 . S
H2359 C2388 0.950 . S
H2360 C2390 0.950 . S
H2361 C2391 0.950 . S
C2362 H2344 0.951 . S
C2362 C2363 1.366 . S
C2362 C2364 1.388 . S
C2363 C2362 1.366 . S
C2363 C2367 1.385 . S
C2364 H2345 0.951 . S
C2364 C2362 1.388 . S
C2364 C2365 1.366 . S
C2365 C2364 1.366 . S
C2365 C2366 1.414 . S
C2365 C2368 1.499 . S
C2366 H2346 0.950 . S
C2366 C2365 1.414 . S
C2366 C2367 1.374 . S
C2367 H2347 0.950 . S
C2367 C2363 1.385 . S
C2367 C2366 1.374 . S
C2368 C2365 1.499 . S
C2368 C2369 1.373 . S
C2368 C2370 1.389 . S
C2369 H2348 0.950 . S
C2369 C2368 1.373 . S
C2369 C2385 1.377 . S
C2370 C2368 1.389 . S
C2370 C2371 1.524 . S
C2370 C2384 1.377 . S
C2371 C2370 1.524 . S
C2371 C2372 1.397 . S
C2371 C2376 1.363 . S
C2372 H2349 0.950 . S
C2372 C2371 1.397 . S
C2372 C2373 1.334 . S
C2373 H2350 0.950 . S
C2373 C2372 1.334 . S
C2373 C2374 1.287 . S
C2374 C2373 1.287 . S
C2374 C2375 1.524 . S
C2374 H2393 0.913 . S
C2375 H2351 0.950 . S
C2375 C2374 1.524 . S
C2375 C2376 1.415 . S
C2376 H2352 0.950 . S
C2376 C2371 1.363 . S
C2376 C2375 1.415 . S
C2377 H2353 0.951 . S
C2377 C2378 1.366 . S
C2377 C2379 1.388 . S
C2378 C2377 1.366 . S
C2378 C2382 1.385 . S
C2379 H2354 0.951 . S
C2379 C2377 1.388 . S
C2379 C2380 1.366 . S
C2380 C2379 1.366 . S
C2380 C2381 1.414 . S
C2380 C2383 1.499 . S
C2381 H2355 0.950 . S
C2381 C2380 1.414 . S
C2381 C2382 1.374 . S
C2382 H2356 0.950 . S
C2382 C2378 1.385 . S
C2382 C2381 1.374 . S
C2383 C2380 1.499 . S
C2383 C2384 1.373 . S
C2383 C2385 1.389 . S
C2384 H2357 0.950 . S
C2384 C2370 1.377 . S
C2384 C2383 1.373 . S
C2385 C2369 1.377 . S
C2385 C2383 1.389 . S
C2385 C2386 1.524 . S
C2386 C2385 1.524 . S
C2386 C2387 1.397 . S
C2386 C2391 1.363 . S
C2387 H2358 0.950 . S
C2387 C2386 1.397 . S
C2387 C2388 1.334 . S
C2388 H2359 0.950 . S
C2388 C2387 1.334 . S
C2388 C2389 1.287 . S
C2389 C2388 1.287 . S
C2389 C2390 1.524 . S
C2389 H2392 0.999 . S
C2390 H2360 0.950 . S
C2390 C2389 1.524 . S
C2390 C2391 1.415 . S
C2391 H2361 0.950 . S
C2391 C2386 1.363 . S
C2391 C2390 1.415 . S
H2392 C2389 0.999 . S
H2393 C2374 0.913 . S
H2394 C2412 0.951 . S
H2395 C2414 0.951 . S
H2396 C2416 0.950 . S
H2397 C2417 0.950 . S
H2398 C2419 0.950 . S
H2399 C2422 0.950 . S
H2400 C2423 0.950 . S
H2401 C2425 0.950 . S
H2402 C2426 0.950 . S
H2403 C2427 0.951 . S
H2404 C2429 0.951 . S
H2405 C2431 0.950 1_545 S
H2406 C2432 0.950 . S
H2407 C2434 0.950 . S
H2408 C2437 0.950 . S
H2409 C2438 0.950 . S
H2410 C2440 0.950 . S
H2411 C2441 0.950 . S
C2412 H2394 0.951 . S
C2412 C2413 1.366 . S
C2412 C2414 1.388 . S
C2413 C2412 1.366 . S
C2413 C2417 1.385 . S
C2414 H2395 0.951 . S
C2414 C2412 1.388 . S
C2414 C2415 1.366 . S
C2415 C2414 1.366 . S
C2415 C2416 1.414 . S
C2415 C2418 1.499 . S
C2416 H2396 0.950 . S
C2416 C2415 1.414 . S
C2416 C2417 1.374 . S
C2417 H2397 0.950 . S
C2417 C2413 1.385 . S
C2417 C2416 1.374 . S
C2418 C2415 1.499 . S
C2418 C2419 1.373 . S
C2418 C2420 1.389 . S
C2419 H2398 0.950 . S
C2419 C2418 1.373 . S
C2419 C2435 1.377 . S
C2420 C2418 1.389 . S
C2420 C2421 1.524 . S
C2420 C2434 1.377 . S
C2421 C2420 1.524 . S
C2421 C2422 1.397 . S
C2421 C2426 1.363 . S
C2422 H2399 0.950 . S
C2422 C2421 1.397 . S
C2422 C2423 1.334 . S
C2423 H2400 0.950 . S
C2423 C2422 1.334 . S
C2423 C2424 1.287 . S
C2424 C2423 1.287 . S
C2424 C2425 1.524 . S
C2424 H2443 0.913 . S
C2425 H2401 0.950 . S
C2425 C2424 1.524 . S
C2425 C2426 1.415 . S
C2426 H2402 0.950 . S
C2426 C2421 1.363 . S
C2426 C2425 1.415 . S
C2427 H2403 0.951 . S
C2427 C2428 1.366 . S
C2427 C2429 1.388 1_565 S
C2428 C2427 1.366 . S
C2428 C2432 1.385 . S
C2429 H2404 0.951 . S
C2429 C2427 1.388 1_545 S
C2429 C2430 1.366 . S
C2430 C2429 1.366 . S
C2430 C2431 1.414 1_545 S
C2430 C2433 1.499 . S
C2431 H2405 0.950 1_565 S
C2431 C2430 1.414 1_565 S
C2431 C2432 1.374 . S
C2432 H2406 0.950 . S
C2432 C2428 1.385 . S
C2432 C2431 1.374 . S
C2433 C2430 1.499 . S
C2433 C2434 1.373 . S
C2433 C2435 1.389 . S
C2434 H2407 0.950 . S
C2434 C2420 1.377 . S
C2434 C2433 1.373 . S
C2435 C2419 1.377 . S
C2435 C2433 1.389 . S
C2435 C2436 1.524 . S
C2436 C2435 1.524 . S
C2436 C2437 1.397 1_545 S
C2436 C2441 1.363 . S
C2437 H2408 0.950 . S
C2437 C2436 1.397 1_565 S
C2437 C2438 1.334 . S
C2438 H2409 0.950 . S
C2438 C2437 1.334 . S
C2438 C2439 1.287 . S
C2439 C2438 1.287 . S
C2439 C2440 1.524 1_565 S
C2439 H2442 0.999 . S
C2440 H2410 0.950 . S
C2440 C2439 1.524 1_545 S
C2440 C2441 1.415 . S
C2441 H2411 0.950 . S
C2441 C2436 1.363 . S
C2441 C2440 1.415 . S
H2442 C2439 0.999 . S
H2443 C2424 0.913 . S
H2444 C2462 0.951 . S
H2445 C2464 0.951 . S
H2446 C2466 0.950 . S
H2447 C2467 0.950 . S
H2448 C2469 0.950 . S
H2449 C2472 0.950 . S
H2450 C2473 0.950 . S
H2451 C2475 0.950 . S
H2452 C2476 0.950 . S
H2453 C2477 0.951 . S
H2454 C2479 0.958 . S
H2455 C2481 0.950 . S
H2456 C2482 0.950 . S
H2457 C2484 0.950 . S
H2458 C2487 0.950 . S
H2459 C2488 0.950 . S
H2460 C2490 0.950 . S
H2461 C2491 0.950 . S
C2462 H2444 0.951 . S
C2462 C2463 1.366 . S
C2462 C2464 1.388 . S
C2463 C2462 1.366 . S
C2463 C2467 1.385 . S
C2464 H2445 0.951 . S
C2464 C2462 1.388 . S
C2464 C2465 1.366 . S
C2465 C2464 1.366 . S
C2465 C2466 1.414 . S
C2465 C2468 1.499 . S
C2466 H2446 0.950 . S
C2466 C2465 1.414 . S
C2466 C2467 1.374 . S
C2467 H2447 0.950 . S
C2467 C2463 1.385 . S
C2467 C2466 1.374 . S
C2468 C2465 1.499 . S
C2468 C2469 1.373 . S
C2468 C2470 1.389 . S
C2469 H2448 0.950 . S
C2469 C2468 1.373 . S
C2469 C2485 1.377 . S
C2470 C2468 1.389 . S
C2470 C2471 1.524 . S
C2470 C2484 1.377 . S
C2471 C2470 1.524 . S
C2471 C2472 1.397 . S
C2471 C2476 1.363 . S
C2472 H2449 0.950 . S
C2472 C2471 1.397 . S
C2472 C2473 1.334 . S
C2473 H2450 0.950 . S
C2473 C2472 1.334 . S
C2473 C2474 1.287 . S
C2474 C2473 1.287 . S
C2474 C2475 1.524 . S
C2474 H2493 0.913 . S
C2475 H2451 0.950 . S
C2475 C2474 1.524 . S
C2475 C2476 1.415 . S
C2476 H2452 0.950 . S
C2476 C2471 1.363 . S
C2476 C2475 1.415 . S
C2477 H2453 0.951 . S
C2477 C2478 1.366 . S
C2477 C2479 1.396 . S
C2478 C2477 1.366 . S
C2478 C2482 1.385 1_556 S
C2479 H2454 0.958 . S
C2479 C2477 1.396 . S
C2479 C2480 1.351 1_556 S
C2480 C2479 1.351 1_554 S
C2480 C2481 1.414 . S
C2480 C2483 1.499 . S
C2481 H2455 0.950 . S
C2481 C2480 1.414 . S
C2481 C2482 1.374 . S
C2482 H2456 0.950 . S
C2482 C2478 1.385 1_554 S
C2482 C2481 1.374 . S
C2483 C2480 1.499 . S
C2483 C2484 1.373 . S
C2483 C2485 1.389 . S
C2484 H2457 0.950 . S
C2484 C2470 1.377 . S
C2484 C2483 1.373 . S
C2485 C2469 1.377 . S
C2485 C2483 1.389 . S
C2485 C2486 1.524 1_554 S
C2486 C2485 1.524 1_556 S
C2486 C2487 1.397 . S
C2486 C2491 1.363 . S
C2487 H2458 0.950 . S
C2487 C2486 1.397 . S
C2487 C2488 1.334 . S
C2488 H2459 0.950 . S
C2488 C2487 1.334 . S
C2488 C2489 1.287 . S
C2489 C2488 1.287 . S
C2489 C2490 1.524 . S
C2489 H2492 0.999 . S
C2490 H2460 0.950 . S
C2490 C2489 1.524 . S
C2490 C2491 1.415 . S
C2491 H2461 0.950 . S
C2491 C2486 1.363 . S
C2491 C2490 1.415 . S
H2492 C2489 0.999 . S
H2493 C2474 0.913 . S
H2494 C2512 0.951 . S
H2495 C2514 0.951 . S
H2496 C2516 0.964 . S
H2497 C2517 0.950 . S
H2498 C2519 0.950 . S
H2499 C2522 0.950 . S
H2500 C2523 0.950 . S
H2501 C2525 0.950 . S
H2502 C2526 0.950 . S
H2503 C2527 0.951 . S
H2504 C2529 0.951 . S
H2505 C2531 0.950 . S
H2506 C2532 0.950 . S
H2507 C2534 0.950 . S
H2508 C2537 0.950 . S
H2509 C2538 0.950 . S
H2510 C2540 0.950 . S
H2511 C2541 0.950 . S
C2512 H2494 0.951 . S
C2512 C2513 1.366 . S
C2512 C2514 1.388 1_545 S
C2513 C2512 1.366 . S
C2513 C2517 1.385 . S
C2514 H2495 0.951 . S
C2514 C2512 1.388 1_565 S
C2514 C2515 1.366 . S
C2515 C2514 1.366 . S
C2515 C2516 1.414 1_565 S
C2515 C2518 1.499 . S
C2516 H2496 0.964 . S
C2516 C2515 1.414 1_545 S
C2516 C2517 1.374 . S
C2517 H2497 0.950 . S
C2517 C2513 1.385 . S
C2517 C2516 1.374 . S
C2518 C2515 1.499 . S
C2518 C2519 1.373 . S
C2518 C2520 1.389 . S
C2519 H2498 0.950 . S
C2519 C2518 1.373 . S
C2519 C2535 1.377 . S
C2520 C2518 1.389 . S
C2520 C2521 1.524 . S
C2520 C2534 1.377 . S
C2521 C2520 1.524 . S
C2521 C2522 1.397 1_565 S
C2521 C2526 1.363 . S
C2522 H2499 0.950 . S
C2522 C2521 1.397 1_545 S
C2522 C2523 1.334 . S
C2523 H2500 0.950 . S
C2523 C2522 1.334 . S
C2523 C2524 1.287 . S
C2524 C2523 1.287 . S
C2524 C2525 1.524 1_545 S
C2524 H2543 0.913 . S
C2525 H2501 0.950 . S
C2525 C2524 1.524 1_565 S
C2525 C2526 1.415 . S
C2526 H2502 0.950 . S
C2526 C2521 1.363 . S
C2526 C2525 1.415 . S
C2527 H2503 0.951 . S
C2527 C2528 1.366 . S
C2527 C2529 1.388 . S
C2528 C2527 1.366 . S
C2528 C2532 1.385 . S
C2529 H2504 0.951 . S
C2529 C2527 1.388 . S
C2529 C2530 1.366 . S
C2530 C2529 1.366 . S
C2530 C2531 1.414 . S
C2530 C2533 1.499 . S
C2531 H2505 0.950 . S
C2531 C2530 1.414 . S
C2531 C2532 1.374 . S
C2532 H2506 0.950 . S
C2532 C2528 1.385 . S
C2532 C2531 1.374 . S
C2533 C2530 1.499 . S
C2533 C2534 1.373 . S
C2533 C2535 1.389 . S
C2534 H2507 0.950 . S
C2534 C2520 1.377 . S
C2534 C2533 1.373 . S
C2535 C2519 1.377 . S
C2535 C2533 1.389 . S
C2535 C2536 1.524 . S
C2536 C2535 1.524 . S
C2536 C2537 1.397 . S
C2536 C2541 1.363 . S
C2537 H2508 0.950 . S
C2537 C2536 1.397 . S
C2537 C2538 1.334 . S
C2538 H2509 0.950 . S
C2538 C2537 1.334 . S
C2538 C2539 1.287 . S
C2539 C2538 1.287 . S
C2539 C2540 1.524 . S
C2539 H2542 0.999 . S
C2540 H2510 0.950 . S
C2540 C2539 1.524 . S
C2540 C2541 1.415 . S
C2541 H2511 0.950 . S
C2541 C2536 1.363 . S
C2541 C2540 1.415 . S
H2542 C2539 0.999 . S
H2543 C2524 0.913 . S
C563 C519 1.259 . S
C578 C20 1.320 . S
C613 C54 1.320 . S
C628 C145 1.257 . S
C663 C88 1.320 . S
C678 C451 1.258 1_455 S
C713 C122 1.320 . S
C728 C213 1.259 . S
C763 C156 1.320 . S
C778 C383 1.258 . S
C813 C9 1.259 . S
C828 C190 1.320 . S
C863 C315 1.258 1_655 S
C878 C224 1.320 . S
C913 C258 1.320 . S
C928 C77 1.257 . S
C963 C292 1.320 . S
C978 C247 1.258 1_655 S
C1013 C326 1.320 . S
C1028 C417 1.259 . S
C1063 C179 1.257 . S
C1078 C360 1.320 . S
C1113 C394 1.320 . S
C1128 C485 1.258 . S
C1163 C428 1.320 . S
C1178 C111 1.258 1_455 S
C1213 C462 1.320 . S
C1228 C281 1.257 . S
C1263 C43 1.259 . S
C1278 C496 1.320 . S
C1313 C530 1.320 . S
C1328 C349 1.257 . S
C1363 C2 2.378 . S
C1378 C410 2.378 . S
C1413 C172 2.378 . S
C1428 C36 2.378 . S
C1463 C70 2.378 . S
C1478 C478 2.378 . S
C1513 C104 2.378 . S
C1528 C240 2.378 . S
C1563 C274 2.378 . S
C1578 C138 2.378 . S
C1613 C342 2.378 . S
C1628 C206 2.378 . S
C1663 C444 2.378 . S
C1678 C308 2.378 . S
C1713 C376 2.378 . S
C1728 C512 2.378 . S
C1763 C311 1.118 . S
C1778 C33 1.156 . S
C1813 C67 1.156 . S
C1828 C345 1.117 . S
C1863 C101 1.156 . S
C1878 C379 1.118 . S
C1913 C277 1.117 . S
C1928 C135 1.156 . S
C1963 C169 1.155 . S
C1978 C447 1.117 . S
C2013 C203 1.156 . S
C2028 C481 1.117 . S
C2063 C237 1.155 . S
C2078 C515 1.117 . S
C2113 C271 1.156 . S
C2128 C413 1.118 . S
C2163 C39 1.118 . S
C2178 C305 1.156 . S
C2213 C339 1.156 . S
C2228 C73 1.117 . S
C2263 C373 1.155 . S
C2278 C107 1.117 . S
C2313 C407 1.156 . S
C2328 C5 1.118 . S
C2363 C441 1.155 . S
C2378 C175 1.117 . S
C2413 C209 1.119 . S
C2428 C475 1.156 . S
C2463 C243 1.118 . S
C2478 C509 1.155 . S
C2513 C543 1.156 . S
C2528 C141 1.118 . S
