# Generated by pormake.
# Topology nfa, (4)-cn, num edge types: 1
# Building blocks:
#     Node 0, Type 0, BuildingBlock: MUDLON_clean_sbu_0, # of connection points: 4
#     Node 1, Type 0, BuildingBlock: MUDLON_clean_sbu_0, # of connection points: 4
#     Node 2, Type 0, BuildingBlock: MUDLON_clean_sbu_0, # of connection points: 4
#     Node 3, Type 0, BuildingBlock: MUDLON_clean_sbu_0, # of connection points: 4
#     Node 4, Type 0, BuildingBlock: MUDLON_clean_sbu_0, # of connection points: 4
#     Node 5, Type 0, BuildingBlock: MUDLON_clean_sbu_0, # of connection points: 4
#     Node 6, Type 0, BuildingBlock: MUDLON_clean_sbu_0, # of connection points: 4
#     Node 7, Type 0, BuildingBlock: MUDLON_clean_sbu_0, # of connection points: 4
#     Node 8, Type 0, BuildingBlock: MUDLON_clean_sbu_0, # of connection points: 4
#     Node 9, Type 0, BuildingBlock: MUDLON_clean_sbu_0, # of connection points: 4
#     Node 10, Type 0, BuildingBlock: MUDLON_clean_sbu_0, # of connection points: 4
#     Node 11, Type 0, BuildingBlock: MUDLON_clean_sbu_0, # of connection points: 4
#     Node 12, Type 0, BuildingBlock: MUDLON_clean_sbu_0, # of connection points: 4
#     Node 13, Type 0, BuildingBlock: MUDLON_clean_sbu_0, # of connection points: 4
#     Node 14, Type 0, BuildingBlock: MUDLON_clean_sbu_0, # of connection points: 4
#     Node 15, Type 0, BuildingBlock: MUDLON_clean_sbu_0, # of connection points: 4
#     Node 16, Type 0, BuildingBlock: MUDLON_clean_sbu_0, # of connection points: 4
#     Node 17, Type 0, BuildingBlock: MUDLON_clean_sbu_0, # of connection points: 4
#     Node 18, Type 0, BuildingBlock: MUDLON_clean_sbu_0, # of connection points: 4
#     Node 19, Type 0, BuildingBlock: MUDLON_clean_sbu_0, # of connection points: 4
#     Node 20, Type 0, BuildingBlock: MUDLON_clean_sbu_0, # of connection points: 4
#     Node 21, Type 0, BuildingBlock: MUDLON_clean_sbu_0, # of connection points: 4
#     Node 22, Type 0, BuildingBlock: MUDLON_clean_sbu_0, # of connection points: 4
#     Node 23, Type 0, BuildingBlock: MUDLON_clean_sbu_0, # of connection points: 4
#     Edge 24, Type (0, 0), BuildingBlock: XUDNAN_clean_linker_2, # of connection points: 2
#     Edge 25, Type (0, 0), BuildingBlock: XUDNAN_clean_linker_2, # of connection points: 2
#     Edge 26, Type (0, 0), BuildingBlock: XUDNAN_clean_linker_2, # of connection points: 2
#     Edge 27, Type (0, 0), BuildingBlock: XUDNAN_clean_linker_2, # of connection points: 2
#     Edge 28, Type (0, 0), BuildingBlock: XUDNAN_clean_linker_2, # of connection points: 2
#     Edge 29, Type (0, 0), BuildingBlock: XUDNAN_clean_linker_2, # of connection points: 2
#     Edge 30, Type (0, 0), BuildingBlock: XUDNAN_clean_linker_2, # of connection points: 2
#     Edge 31, Type (0, 0), BuildingBlock: XUDNAN_clean_linker_2, # of connection points: 2
#     Edge 32, Type (0, 0), BuildingBlock: XUDNAN_clean_linker_2, # of connection points: 2
#     Edge 33, Type (0, 0), BuildingBlock: XUDNAN_clean_linker_2, # of connection points: 2
#     Edge 34, Type (0, 0), BuildingBlock: XUDNAN_clean_linker_2, # of connection points: 2
#     Edge 35, Type (0, 0), BuildingBlock: XUDNAN_clean_linker_2, # of connection points: 2
#     Edge 36, Type (0, 0), BuildingBlock: XUDNAN_clean_linker_2, # of connection points: 2
#     Edge 37, Type (0, 0), BuildingBlock: XUDNAN_clean_linker_2, # of connection points: 2
#     Edge 38, Type (0, 0), BuildingBlock: XUDNAN_clean_linker_2, # of connection points: 2
#     Edge 39, Type (0, 0), BuildingBlock: XUDNAN_clean_linker_2, # of connection points: 2
#     Edge 40, Type (0, 0), BuildingBlock: XUDNAN_clean_linker_2, # of connection points: 2
#     Edge 41, Type (0, 0), BuildingBlock: XUDNAN_clean_linker_2, # of connection points: 2
#     Edge 42, Type (0, 0), BuildingBlock: XUDNAN_clean_linker_2, # of connection points: 2
#     Edge 43, Type (0, 0), BuildingBlock: XUDNAN_clean_linker_2, # of connection points: 2
#     Edge 44, Type (0, 0), BuildingBlock: XUDNAN_clean_linker_2, # of connection points: 2
#     Edge 45, Type (0, 0), BuildingBlock: XUDNAN_clean_linker_2, # of connection points: 2
#     Edge 46, Type (0, 0), BuildingBlock: XUDNAN_clean_linker_2, # of connection points: 2
#     Edge 47, Type (0, 0), BuildingBlock: XUDNAN_clean_linker_2, # of connection points: 2
#     Edge 48, Type (0, 0), BuildingBlock: XUDNAN_clean_linker_2, # of connection points: 2
#     Edge 49, Type (0, 0), BuildingBlock: XUDNAN_clean_linker_2, # of connection points: 2
#     Edge 50, Type (0, 0), BuildingBlock: XUDNAN_clean_linker_2, # of connection points: 2
#     Edge 51, Type (0, 0), BuildingBlock: XUDNAN_clean_linker_2, # of connection points: 2
#     Edge 52, Type (0, 0), BuildingBlock: XUDNAN_clean_linker_2, # of connection points: 2
#     Edge 53, Type (0, 0), BuildingBlock: XUDNAN_clean_linker_2, # of connection points: 2
#     Edge 54, Type (0, 0), BuildingBlock: XUDNAN_clean_linker_2, # of connection points: 2
#     Edge 55, Type (0, 0), BuildingBlock: XUDNAN_clean_linker_2, # of connection points: 2
#     Edge 56, Type (0, 0), BuildingBlock: XUDNAN_clean_linker_2, # of connection points: 2
#     Edge 57, Type (0, 0), BuildingBlock: XUDNAN_clean_linker_2, # of connection points: 2
#     Edge 58, Type (0, 0), BuildingBlock: XUDNAN_clean_linker_2, # of connection points: 2
#     Edge 59, Type (0, 0), BuildingBlock: XUDNAN_clean_linker_2, # of connection points: 2
#     Edge 60, Type (0, 0), BuildingBlock: XUDNAN_clean_linker_2, # of connection points: 2
#     Edge 61, Type (0, 0), BuildingBlock: XUDNAN_clean_linker_2, # of connection points: 2
#     Edge 62, Type (0, 0), BuildingBlock: XUDNAN_clean_linker_2, # of connection points: 2
#     Edge 63, Type (0, 0), BuildingBlock: XUDNAN_clean_linker_2, # of connection points: 2
#     Edge 64, Type (0, 0), BuildingBlock: XUDNAN_clean_linker_2, # of connection points: 2
#     Edge 65, Type (0, 0), BuildingBlock: XUDNAN_clean_linker_2, # of connection points: 2
#     Edge 66, Type (0, 0), BuildingBlock: XUDNAN_clean_linker_2, # of connection points: 2
#     Edge 67, Type (0, 0), BuildingBlock: XUDNAN_clean_linker_2, # of connection points: 2
#     Edge 68, Type (0, 0), BuildingBlock: XUDNAN_clean_linker_2, # of connection points: 2
#     Edge 69, Type (0, 0), BuildingBlock: XUDNAN_clean_linker_2, # of connection points: 2
#     Edge 70, Type (0, 0), BuildingBlock: XUDNAN_clean_linker_2, # of connection points: 2
#     Edge 71, Type (0, 0), BuildingBlock: XUDNAN_clean_linker_2, # of connection points: 2
# Relax obj value: 0.350
# Max RMSD: 0.278
# Mean RMSD: 0.239
data_MOF--net-nfa--node1-MUDLON_clean_sbu_0--edge1-XUDNAN_clean_linker_2
_symmetry_space_group_name_H-M    P1
_symmetry_Int_Tables_number       1
_symmetry_cell_setting            triclinic
loop_
_symmetry_equiv_pos_as_xyz
'x, y, z'
_cell_length_a     38.055426
_cell_length_b     43.705351
_cell_length_c     38.086168
_cell_angle_alpha  89.851119
_cell_angle_beta   89.73832
_cell_angle_gamma 89.603128
loop_
_atom_site_label
_atom_site_type_symbol
_atom_site_fract_x
_atom_site_fract_y
_atom_site_fract_z
_atom_type_partial_charge
Mg0 Mg 0.13189 0.38793 0.39057 0.0
C1 C 0.22294 0.3867 0.37852 0.0
O2 O 0.23641 0.36627 0.35701 0.0
C3 C 0.09267 0.32517 0.36037 0.0
O4 O 0.12029 0.31307 0.34478 0.0
C5 C 0.10264 0.42197 0.32923 0.0
O6 O 0.09998 0.39317 0.31989 0.0
O7 O 0.11407 0.42797 0.35991 0.0
O8 O 0.18962 0.38719 0.38297 0.0
O9 O 0.12273 0.38432 0.44729 0.0
C10 C 0.14789 0.37484 0.46654 0.0
O11 O 0.1799 0.37502 0.4536 0.0
O12 O 0.09526 0.35081 0.37608 0.0
Mg13 Mg 0.9333 0.91 0.53675 0.0
C14 C 0.89195 0.96767 0.51776 0.0
O15 O 0.87091 0.94749 0.50364 0.0
C16 C 0.96302 0.86873 0.47087 0.0
O17 O 0.96039 0.89064 0.44734 0.0
C18 C 0.86624 0.87688 0.53112 0.0
O19 O 0.87995 0.87143 0.50002 0.0
O20 O 0.88357 0.89235 0.5531 0.0
O21 O 0.92211 0.9589 0.52836 0.0
O22 O 0.96633 0.90692 0.58191 0.0
C23 C 0.97796 0.92981 0.59853 0.0
O24 O 0.96953 0.95761 0.58829 0.0
O25 O 0.95459 0.87391 0.50266 0.0
Mg26 Mg 0.36059 0.6329 0.89903 0.0
C27 C 0.2809 0.63861 0.8693 0.0
O28 O 0.2827 0.66817 0.86337 0.0
C29 C 0.38485 0.69616 0.86489 0.0
O30 O 0.35455 0.6985 0.84869 0.0
C31 C 0.38862 0.60314 0.83775 0.0
O32 O 0.37832 0.63079 0.82866 0.0
O33 O 0.38659 0.59567 0.87011 0.0
O34 O 0.30733 0.62422 0.88137 0.0
O35 O 0.3575 0.63488 0.95692 0.0
C36 C 0.32696 0.63846 0.97036 0.0
O37 O 0.29952 0.63699 0.94973 0.0
O38 O 0.39085 0.67339 0.88484 0.0
Mg39 Mg 0.59781 0.12343 0.05478 0.0
C40 C 0.58168 0.17404 0.00182 0.0
O41 O 0.61434 0.18115 0.0088 0.0
C42 C 0.62198 0.05475 0.04183 0.0
O43 O 0.63771 0.0644 0.01319 0.0
C44 C 0.53196 0.1219 0.08858 0.0
O45 O 0.5308 0.10683 0.05878 0.0
O46 O 0.56129 0.13324 0.09774 0.0
O47 O 0.5693 0.14903 0.01376 0.0
O48 O 0.65223 0.13891 0.05839 0.0
C49 C 0.67114 0.13367 0.03132 0.0
O50 O 0.65605 0.12316 0.00291 0.0
O51 O 0.60222 0.0731 0.05901 0.0
Mg52 Mg 0.13272 0.63771 0.10558 0.0
C53 C 0.20331 0.60265 0.11387 0.0
O54 O 0.18471 0.58366 0.13294 0.0
C55 C 0.07725 0.67457 0.145 0.0
O56 O 0.06511 0.64675 0.14898 0.0
C57 C 0.11539 0.5944 0.16296 0.0
O58 O 0.13208 0.61686 0.17842 0.0
O59 O 0.1099 0.59642 0.12993 0.0
O60 O 0.1899 0.62833 0.10485 0.0
O61 O 0.13152 0.64935 0.04933 0.0
C62 C 0.15272 0.67172 0.04576 0.0
O63 O 0.16616 0.68371 0.07429 0.0
O64 O 0.10678 0.67834 0.12956 0.0
Mg65 Mg 0.55867 0.91062 0.46871 0.0
C66 C 0.56686 0.98622 0.47878 0.0
O67 O 0.53722 0.99279 0.49496 0.0
C68 C 0.53391 0.85255 0.48792 0.0
O69 O 0.55515 0.85102 0.46067 0.0
C70 C 0.61628 0.89076 0.51136 0.0
O71 O 0.59281 0.90132 0.53374 0.0
O72 O 0.60926 0.89121 0.4788 0.0
O73 O 0.57396 0.95873 0.47028 0.0
O74 O 0.5414 0.90079 0.41643 0.0
C75 C 0.53272 0.92091 0.39399 0.0
O76 O 0.53747 0.95 0.40099 0.0
O77 O 0.52714 0.87899 0.50074 0.0
Mg78 Mg 0.35601 0.39429 0.61365 0.0
C79 C 0.39887 0.33718 0.65798 0.0
O80 O 0.38415 0.33639 0.68922 0.0
C81 C 0.28029 0.41842 0.63237 0.0
O82 O 0.29434 0.42734 0.66203 0.0
C83 C 0.34889 0.35262 0.56002 0.0
O84 O 0.32929 0.34538 0.58728 0.0
O85 O 0.36494 0.37814 0.56032 0.0
O86 O 0.38814 0.35648 0.63522 0.0
O87 O 0.37873 0.43602 0.63503 0.0
C88 C 0.38088 0.43586 0.66845 0.0
O89 O 0.3716 0.41098 0.68548 0.0
O90 O 0.29859 0.40234 0.61113 0.0
Mg91 Mg 0.92979 0.10972 0.93758 0.0
C92 C 0.93658 0.17647 0.95326 0.0
O93 O 0.94756 0.1646 0.98299 0.0
C94 C 0.88851 0.05382 0.92575 0.0
O95 O 0.9136 0.04401 0.94662 0.0
C96 C -0.00054 0.11656 0.89904 0.0
O97 O 0.00022 0.14208 0.91714 0.0
O98 O 0.97416 0.0981 0.90383 0.0
O99 O 0.92412 0.15879 0.93005 0.0
O100 O 0.94261 0.09824 0.99189 0.0
C101 C 0.92582 0.10289 0.02045 0.0
O102 O 0.94128 0.09607 0.05025 0.0
O103 O 0.88729 0.08204 0.91764 0.0
Mg104 Mg 0.3088 0.15164 0.32927 0.0
C105 C 0.27049 0.09393 0.31478 0.0
O106 O 0.25509 0.1135 0.29351 0.0
C107 C 0.33662 0.20195 0.37246 0.0
O108 O 0.33153 0.21541 0.342 0.0
C109 C 0.33653 0.15027 0.25593 0.0
O110 O 0.30254 0.14795 0.25082 0.0
O111 O 0.34769 0.15315 0.28713 0.0
O112 O 0.29389 0.10371 0.33564 0.0
O113 O 0.26326 0.17848 0.31332 0.0
C114 C 0.24389 0.19393 0.33414 0.0
O115 O 0.21919 0.21169 0.32113 0.0
O116 O 0.33025 0.1735 0.37535 0.0
Mg117 Mg 0.22604 0.16637 0.66782 0.0
C118 C 0.16203 0.13278 0.69885 0.0
O119 O 0.167 0.11453 0.6719 0.0
C120 C 0.23348 0.15315 0.58644 0.0
O121 O 0.21823 0.12664 0.5916 0.0
C122 C 0.24853 0.10327 0.6935 0.0
O123 O 0.2481 0.11784 0.72363 0.0
O124 O 0.24177 0.11814 0.66552 0.0
O125 O 0.18115 0.15636 0.70194 0.0
O126 O 0.20122 0.20904 0.65048 0.0
C127 C 0.17188 0.20852 0.63449 0.0
O128 O 0.15521 0.18243 0.63168 0.0
O129 O 0.23906 0.1707 0.61232 0.0
Mg130 Mg 0.21355 0.85316 0.81038 0.0
C131 C 0.23951 0.88477 0.74394 0.0
O132 O 0.21417 0.8691 0.72936 0.0
C133 C 0.19192 0.79086 0.83555 0.0
O134 O 0.16117 0.80457 0.83364 0.0
C135 C 0.14521 0.8537 0.77146 0.0
O136 O 0.15803 0.828 0.75875 0.0
O137 O 0.16173 0.86739 0.7955 0.0
O138 O 0.24825 0.87866 0.77541 0.0
O139 O 0.22441 0.87269 0.86041 0.0
C140 C 0.25666 0.87325 0.86868 0.0
O141 O 0.28022 0.86403 0.84562 0.0
O142 O 0.21876 0.80446 0.82297 0.0
Mg143 Mg 0.29225 0.83514 0.19276 0.0
C144 C 0.35513 0.83601 0.24055 0.0
O145 O 0.33558 0.81804 0.26012 0.0
C146 C 0.26818 0.8568 0.12065 0.0
O147 O 0.2368 0.84863 0.13156 0.0
C148 C 0.25293 0.88985 0.21819 0.0
O149 O 0.258 0.89661 0.18497 0.0
O150 O 0.26061 0.86296 0.22877 0.0
O151 O 0.34419 0.84441 0.21069 0.0
O152 O 0.28503 0.78638 0.18294 0.0
C153 C 0.31188 0.77424 0.16828 0.0
O154 O 0.34058 0.79063 0.16556 0.0
O155 O 0.29419 0.85453 0.14115 0.0
Mg156 Mg 0.40519 0.39941 0.06024 0.0
C157 C 0.37635 0.45825 0.02206 0.0
O158 O 0.36816 0.4407 0.99544 0.0
C159 C 0.44408 0.3623 -0.00019 0.0
O160 O 0.45454 0.3887 0.98708 0.0
C161 C 0.33176 0.38703 0.05487 0.0
O162 O 0.34416 0.38581 0.02266 0.0
O163 O 0.35338 0.3886 0.08005 0.0
O164 O 0.3955 0.44754 0.0466 0.0
O165 O 0.44513 0.39922 0.10043 0.0
C166 C 0.47581 0.40321 0.08798 0.0
O167 O 0.47931 0.40916 0.05434 0.0
O168 O 0.42277 0.36192 0.02567 0.0
Mg169 Mg 0.85295 0.88253 0.10996 0.0
C170 C 0.88745 0.82817 0.15529 0.0
O171 O 0.86303 0.8326 0.17927 0.0
C172 C 0.77857 0.90108 0.13629 0.0
O173 O 0.79508 0.91166 0.16385 0.0
C174 C 0.83712 0.85078 0.04665 0.0
O175 O 0.82309 0.83621 0.07343 0.0
O176 O 0.85475 0.87493 0.05296 0.0
O177 O 0.88714 0.84434 0.12745 0.0
O178 O 0.87024 0.92558 0.13494 0.0
C179 C 0.87578 0.92441 0.168 0.0
O180 O 0.8743 0.89766 0.18367 0.0
O181 O 0.79538 0.88475 0.11418 0.0
Mg182 Mg 0.06414 0.61578 0.53116 0.0
C183 C 0.1082 0.55689 0.52776 0.0
O184 O 0.12909 0.57463 0.50933 0.0
C185 C 0.04807 0.65644 0.46688 0.0
O186 O 0.08108 0.65134 0.45838 0.0
C187 C 0.12148 0.66572 0.53241 0.0
O188 O 0.09748 0.68598 0.52345 0.0
O189 O 0.11335 0.63786 0.53675 0.0
O190 O 0.07757 0.56675 0.53589 0.0
O191 O 0.03417 0.62661 0.577 0.0
C192 C 0.01102 0.60781 0.58713 0.0
O193 O 0.00803 0.5815 0.57084 0.0
O194 O 0.03403 0.64046 0.4911 0.0
Mg195 Mg 0.63123 0.88694 0.88974 0.0
C196 C 0.70372 0.90622 0.89762 0.0
O197 O 0.68904 0.91228 0.92811 0.0
C198 C 0.59329 0.82716 0.87284 0.0
O199 O 0.61361 0.81642 0.8978 0.0
C200 C 0.6178 0.93072 0.83573 0.0
O201 O 0.6303 0.90533 0.8219 0.0
O202 O 0.61249 0.93117 0.8689 0.0
O203 O 0.68599 0.89212 0.87457 0.0
O204 O 0.63042 0.87278 0.94575 0.0
C205 C 0.65498 0.85463 0.9556 0.0
O206 O 0.67908 0.84636 0.93269 0.0
O207 O 0.59777 0.85446 0.86218 0.0
Mg208 Mg 0.83766 0.13924 0.39541 0.0
C209 C 0.8668 0.07763 0.35739 0.0
O210 O 0.86943 0.06391 0.38801 0.0
C211 C 0.86994 0.15443 0.46727 0.0
O212 O 0.89507 0.16653 0.44817 0.0
C213 C 0.77092 0.10531 0.39859 0.0
O214 O 0.7953 0.08443 0.39331 0.0
O215 O 0.77999 0.13339 0.39782 0.0
O216 O 0.85645 0.10542 0.35601 0.0
O217 O 0.86265 0.1828 0.37992 0.0
C218 C 0.89366 0.18127 0.36689 0.0
O219 O 0.90701 0.15417 0.3598 0.0
O220 O 0.84629 0.13869 0.45238 0.0
Mg221 Mg 0.64719 0.14382 0.60601 0.0
C222 C 0.61949 0.16078 0.53168 0.0
O223 O 0.59349 0.17448 0.54822 0.0
C224 C 0.633 0.08286 0.6459 0.0
O225 O 0.6573 0.07199 0.62466 0.0
C226 C 0.59864 0.19197 0.64077 0.0
O227 O 0.59051 0.1687 0.66105 0.0
O228 O 0.6239 0.189 0.61878 0.0
O229 O 0.64045 0.14369 0.54882 0.0
O230 O 0.70459 0.13388 0.60693 0.0
C231 C 0.71291 0.11417 0.58347 0.0
O232 O 0.68774 0.10269 0.56421 0.0
O233 O 0.6224 0.11036 0.64185 0.0
Mg234 Mg 0.06108 0.44332 0.93211 0.0
C235 C 0.05013 0.37633 0.93984 0.0
O236 O 0.05782 0.3843 0.97208 0.0
C237 C 0.08225 0.49815 0.88856 0.0
O238 O 0.0501 0.50682 0.89663 0.0
C239 C 0.98545 0.4402 0.94511 0.0
O240 O 0.99554 0.4227 0.97133 0.0
O241 O 0.00724 0.45954 0.93314 0.0
O242 O 0.05333 0.3961 0.91548 0.0
O243 O 0.09318 0.44427 0.97899 0.0
C244 C 0.08996 0.4388 0.01164 0.0
O245 O 0.05937 0.43088 0.02477 0.0
O246 O 0.09248 0.47137 0.89697 0.0
Mg247 Mg 0.42922 0.59948 0.45784 0.0
C248 C 0.4499 0.64331 0.51717 0.0
O249 O 0.41875 0.63642 0.52965 0.0
C250 C 0.40594 0.53396 0.4427 0.0
O251 O 0.42022 0.54024 0.41209 0.0
C252 C 0.48155 0.59169 0.39985 0.0
O253 O 0.4965 0.57443 0.4239 0.0
O254 O 0.45192 0.60393 0.40637 0.0
O255 O 0.46259 0.62742 0.492 0.0
O256 O 0.38127 0.62541 0.45824 0.0
C257 C 0.36062 0.61711 0.4826 0.0
O258 O 0.36987 0.59406 0.50284 0.0
O259 O 0.41022 0.55265 0.46799 0.0
Mg260 Mg 0.79866 0.64196 0.83856 0.0
C261 C 0.83423 0.62678 0.77219 0.0
O262 O 0.82887 0.59938 0.78537 0.0
C263 C 0.83858 0.60472 0.89695 0.0
O264 O 0.86333 0.58594 0.90785 0.0
C265 C 0.74494 0.60293 0.8 0.0
O266 O 0.74932 0.62378 0.77549 0.0
O267 O 0.75826 0.60736 0.83017 0.0
O268 O 0.82256 0.64998 0.78851 0.0
O269 O 0.78616 0.6881 0.86005 0.0
C270 C 0.80593 0.71029 0.851 0.0
O271 O 0.82956 0.70555 0.82633 0.0
O272 O 0.84007 0.61549 0.86585 0.0
Mg273 Mg 0.71411 0.66768 0.17923 0.0
C274 C 0.72272 0.665 0.10332 0.0
O275 O 0.74258 0.68804 0.1124 0.0
C276 C 0.65866 0.63727 0.22168 0.0
O277 O 0.68195 0.61504 0.21946 0.0
C278 C 0.69765 0.73458 0.16993 0.0
O279 O 0.67115 0.72742 0.19048 0.0
O280 O 0.72415 0.71662 0.16978 0.0
O281 O 0.70648 0.65005 0.12681 0.0
O282 O 0.75135 0.63663 0.2057 0.0
C283 C 0.76156 0.61316 0.18852 0.0
O284 O 0.75578 0.61241 0.15458 0.0
O285 O 0.66491 0.66267 0.20674 0.0
Mg286 Mg 0.69926 0.36715 0.32509 0.0
C287 C 0.74045 0.40574 0.27103 0.0
O288 O 0.71547 0.39744 0.2495 0.0
C289 C 0.71243 0.30547 0.36395 0.0
O290 O 0.73341 0.32172 0.38364 0.0
C291 C 0.65571 0.35729 0.26437 0.0
O292 O 0.68143 0.33718 0.26188 0.0
O293 O 0.65436 0.37449 0.29123 0.0
O294 O 0.74279 0.39273 0.3009 0.0
O295 O 0.69694 0.38892 0.37609 0.0
C296 C 0.72781 0.39073 0.38857 0.0
O297 O 0.75447 0.38101 0.36952 0.0
O298 O 0.69911 0.31766 0.33657 0.0
Mg299 Mg 0.80218 0.35338 0.68525 0.0
C300 C 0.85312 0.38319 0.73544 0.0
O301 O 0.8429 0.40778 0.71827 0.0
C302 C 0.80022 0.40458 0.63225 0.0
O303 O 0.78504 0.41924 0.65833 0.0
C304 C 0.75647 0.38842 0.73687 0.0
O305 O 0.77828 0.37586 0.7594 0.0
O306 O 0.75613 0.37834 0.7055 0.0
O307 O 0.84213 0.35717 0.7256 0.0
O308 O 0.79915 0.30632 0.66443 0.0
C309 C 0.82887 0.29273 0.66272 0.0
O310 O 0.85612 0.30628 0.67675 0.0
O311 O 0.81439 0.37864 0.63808 0.0
H312 H 0.1949 0.3572 0.51671 0.0
H313 H 0.08568 0.34808 0.48659 0.0
H314 H 0.07818 0.30738 0.53115 0.0
H315 H 0.2129 0.2807 0.52556 0.0
H316 H 0.24148 0.28386 0.56294 0.0
H317 H 0.2369 0.3155 0.53303 0.0
H318 H 0.21819 0.35114 0.58431 0.0
H319 H 0.22328 0.31963 0.61456 0.0
H320 H 0.18214 0.34024 0.61245 0.0
H321 H 0.08548 0.26207 0.57214 0.0
H322 H 0.10553 0.21909 0.60952 0.0
H323 H 0.20958 0.25877 0.61386 0.0
C324 C 0.16907 0.34737 0.52026 0.0
C325 C 0.14083 0.35604 0.4983 0.0
C326 C 0.10759 0.34223 0.50344 0.0
C327 C 0.10314 0.31892 0.52858 0.0
C328 C 0.13201 0.31002 0.54875 0.0
C329 C 0.16417 0.32425 0.5453 0.0
C330 C 0.19171 0.30911 0.56829 0.0
C331 C 0.22254 0.29656 0.54612 0.0
C332 C 0.20458 0.33136 0.59658 0.0
C333 C 0.17039 0.28346 0.58434 0.0
C334 C 0.13597 0.28441 0.57289 0.0
C335 C 0.11213 0.26157 0.58192 0.0
C336 C 0.1238 0.23719 0.60309 0.0
C337 C 0.15895 0.23584 0.61516 0.0
C338 C 0.18231 0.25955 0.60589 0.0
H339 H 0.00351 0.87514 0.6219 0.0
H340 H 0.00547 0.97272 0.64308 0.0
H341 H 0.04512 0.96318 0.69331 0.0
H342 H 0.00543 0.84931 0.71239 0.0
H343 H 0.03351 0.81703 0.7026 0.0
H344 H 0.00366 0.83148 0.66982 0.0
H345 H 0.05554 0.83842 0.62619 0.0
H346 H 0.0855 0.82383 0.65867 0.0
H347 H 0.09289 0.86085 0.6391 0.0
H348 H 0.08546 0.94287 0.74009 0.0
H349 H 0.1273 0.91415 0.777 0.0
H350 H 0.09954 0.8301 0.72358 0.0
C351 C 0.01194 0.89456 0.63723 0.0
C352 C 0.00122 0.92467 0.6288 0.0
C353 C 0.01324 0.94944 0.64926 0.0
C354 C 0.03562 0.94424 0.67786 0.0
C355 C 0.04555 0.91419 0.68547 0.0
C356 C 0.03425 0.88982 0.6656 0.0
C357 C 0.0501 0.8599 0.67794 0.0
C358 C 0.02147 0.83815 0.6915 0.0
C359 C 0.07233 0.84489 0.64874 0.0
C360 C 0.07271 0.87127 0.70757 0.0
C361 C 0.0693 0.90257 0.71187 0.0
C362 C 0.08819 0.91835 0.73713 0.0
C363 C 0.11176 0.90177 0.75806 0.0
C364 C 0.11653 0.86985 0.75318 0.0
C365 C 0.09629 0.85443 0.728 0.0
H366 H 0.36471 0.74508 0.13266 0.0
H367 H 0.25369 0.73825 0.1577 0.0
H368 H 0.24862 0.6952 0.11607 0.0
H369 H 0.35729 0.73709 0.04532 0.0
H370 H 0.39665 0.71473 0.03811 0.0
H371 H 0.39365 0.73976 0.07534 0.0
H372 H 0.40704 0.69441 0.11724 0.0
H373 H 0.41051 0.66915 0.08 0.0
H374 H 0.3805 0.66046 0.11534 0.0
H375 H 0.25355 0.65953 0.06549 0.0
H376 H 0.26606 0.63696 0.00755 0.0
H377 H 0.37473 0.66509 0.01536 0.0
C378 C 0.33953 0.73389 0.13034 0.0
C379 C 0.30962 0.74496 0.14871 0.0
C380 C 0.27706 0.73 0.14432 0.0
C381 C 0.27397 0.70547 0.12074 0.0
C382 C 0.30378 0.69591 0.1021 0.0
C383 C 0.33604 0.7095 0.10689 0.0
C384 C 0.36298 0.69762 0.08063 0.0
C385 C 0.37852 0.72386 0.05855 0.0
C386 C 0.39198 0.67932 0.09942 0.0
C387 C 0.34027 0.6768 0.05865 0.0
C388 C 0.3065 0.6755 0.07218 0.0
C389 C 0.27989 0.66021 0.05477 0.0
C390 C 0.28741 0.64712 0.02203 0.0
C391 C 0.32162 0.64842 0.00729 0.0
C392 C 0.3486 0.66286 0.02638 0.0
H393 H 0.40677 0.16608 0.25197 0.0
H394 H 0.32192 0.12565 0.19235 0.0
H395 H 0.36259 0.11602 0.14321 0.0
H396 H 0.44887 0.20289 0.17455 0.0
H397 H 0.49271 0.19666 0.19087 0.0
H398 H 0.45667 0.20196 0.22119 0.0
H399 H 0.47232 0.15046 0.25127 0.0
H400 H 0.50822 0.1449 0.22096 0.0
H401 H 0.47479 0.11608 0.22526 0.0
H402 H 0.41181 0.10745 0.10257 0.0
H403 H 0.46718 0.10248 0.0701 0.0
H404 H 0.52191 0.14981 0.15368 0.0
C405 C 0.39679 0.15542 0.22843 0.0
C406 C 0.36115 0.14654 0.22603 0.0
C407 C 0.349 0.1328 0.19477 0.0
C408 C 0.37191 0.12718 0.16669 0.0
C409 C 0.40685 0.13587 0.16998 0.0
C410 C 0.41929 0.15007 0.19973 0.0
C411 C 0.45827 0.15695 0.19602 0.0
C412 C 0.46449 0.19168 0.19564 0.0
C413 C 0.47965 0.14114 0.22511 0.0
C414 C 0.46597 0.14306 0.16025 0.0
C415 C 0.43567 0.13137 0.14575 0.0
C416 C 0.43568 0.11675 0.11344 0.0
C417 C 0.46747 0.11398 0.09525 0.0
C418 C 0.49909 0.12573 0.10927 0.0
C419 C 0.49824 0.14063 0.14224 0.0
H420 H 0.14165 0.75015 0.8575 0.0
H421 H 0.25116 0.77409 0.87126 0.0
H422 H 0.25452 0.73971 0.9225 0.0
H423 H 0.11651 0.74999 0.94181 0.0
H424 H 0.08854 0.71687 0.94133 0.0
H425 H 0.09595 0.7381 0.90155 0.0
H426 H 0.11874 0.68908 0.87009 0.0
H427 H 0.1101 0.66762 0.90971 0.0
H428 H 0.15325 0.66678 0.89018 0.0
H429 H 0.24241 0.71373 0.97879 0.0
H430 H 0.21813 0.69162 0.03277 0.0
H431 H 0.11773 0.67866 0.98203 0.0
C432 C 0.16669 0.74719 0.8705 0.0
C433 C 0.1962 0.76473 0.86021 0.0
C434 C 0.22836 0.76063 0.87821 0.0
C435 C 0.23048 0.74119 0.9075 0.0
C436 C 0.2005 0.72531 0.91792 0.0
C437 C 0.16945 0.7273 0.89942 0.0
C438 C 0.14051 0.70933 0.91774 0.0
C439 C 0.10851 0.72981 0.9261 0.0
C440 C 0.13 0.68156 0.89559 0.0
C441 C 0.15931 0.69917 0.95091 0.0
C442 C 0.19406 0.70837 0.95006 0.0
C443 C 0.21574 0.70527 0.97912 0.0
C444 C 0.20168 0.69256 0.00977 0.0
C445 C 0.16647 0.68229 0.01131 0.0
C446 C 0.14509 0.68524 0.98121 0.0
H447 H 0.49974 0.86657 0.38478 0.0
H448 H 0.51768 0.95455 0.33488 0.0
H449 H 0.47812 0.93979 0.28643 0.0
H450 H 0.49123 0.82042 0.30479 0.0
H451 H 0.45657 0.79763 0.32355 0.0
H452 H 0.48992 0.81348 0.35146 0.0
H453 H 0.44166 0.83966 0.38936 0.0
H454 H 0.40821 0.82403 0.36159 0.0
H455 H 0.41016 0.86476 0.3686 0.0
H456 H 0.43424 0.91654 0.24569 0.0
H457 H 0.38598 0.88853 0.21766 0.0
H458 H 0.39432 0.81722 0.29683 0.0
C459 C 0.49614 0.8825 0.36324 0.0
C460 C 0.51218 0.91154 0.36321 0.0
C461 C 0.5059 0.93206 0.33512 0.0
C462 C 0.48358 0.92384 0.30753 0.0
C463 C 0.46775 0.89517 0.30872 0.0
C464 C 0.47361 0.8749 0.33597 0.0
C465 C 0.45086 0.8468 0.33302 0.0
C466 C 0.4735 0.81787 0.32789 0.0
C467 C 0.42627 0.84366 0.36503 0.0
C468 C 0.43067 0.85465 0.30014 0.0
C469 C 0.4413 0.88234 0.28614 0.0
C470 C 0.4259 0.89473 0.25623 0.0
C471 C 0.39857 0.87858 0.24048 0.0
C472 C 0.38655 0.85065 0.25509 0.0
C473 C 0.4031 0.83844 0.28507 0.0
H474 H 0.34757 0.35455 0.48724 0.0
H475 H 0.36688 0.29515 0.5766 0.0
H476 H 0.37048 0.25055 0.53746 0.0
H477 H 0.29196 0.30524 0.44299 0.0
H478 H 0.30753 0.31341 0.39923 0.0
H479 H 0.31129 0.34185 0.43304 0.0
H480 H 0.37864 0.34511 0.42246 0.0
H481 H 0.37458 0.31737 0.38778 0.0
H482 H 0.40479 0.31061 0.42333 0.0
H483 H 0.36425 0.21184 0.49108 0.0
H484 H 0.35298 0.18107 0.43817 0.0
H485 H 0.33886 0.26455 0.37758 0.0
C486 C 0.35375 0.33228 0.49819 0.0
C487 C 0.35724 0.32817 0.53479 0.0
C488 C 0.36424 0.29864 0.54854 0.0
C489 C 0.36636 0.27318 0.52657 0.0
C490 C 0.36156 0.27759 0.49078 0.0
C491 C 0.35585 0.30635 0.47644 0.0
C492 C 0.34936 0.30409 0.43725 0.0
C493 C 0.31287 0.31691 0.42759 0.0
C494 C 0.37858 0.32025 0.41646 0.0
C495 C 0.35125 0.26965 0.43229 0.0
C496 C 0.3585 0.25489 0.46352 0.0
C497 C 0.35936 0.22308 0.46621 0.0
C498 C 0.35288 0.20579 0.43605 0.0
C499 C 0.34567 0.22035 0.40362 0.0
C500 C 0.34505 0.25273 0.40181 0.0
H501 H 0.14476 0.16552 0.75834 0.0
H502 H 0.12234 0.08097 0.7034 0.0
H503 H 0.08176 0.06596 0.75099 0.0
H504 H 0.14163 0.13362 0.84686 0.0
H505 H 0.12084 0.16706 0.86546 0.0
H506 H 0.14944 0.1708 0.82788 0.0
H507 H 0.09964 0.19804 0.79337 0.0
H508 H 0.07105 0.19458 0.83093 0.0
H509 H 0.05766 0.17956 0.78907 0.0
H510 H 0.04234 0.06064 0.80349 0.0
H511 H 0.00427 0.06679 0.85564 0.0
H512 H 0.05207 0.15478 0.87659 0.0
C513 C 0.13136 0.14383 0.7563 0.0
C514 C 0.13672 0.12445 0.727 0.0
C515 C 0.1186 0.09628 0.72543 0.0
C516 C 0.09563 0.08745 0.75246 0.0
C517 C 0.09106 0.10699 0.78097 0.0
C518 C 0.10828 0.13465 0.78306 0.0
C519 C 0.09767 0.1519 0.81599 0.0
C520 C 0.12928 0.15608 0.84049 0.0
C521 C 0.08048 0.18284 0.80677 0.0
C522 C 0.07123 0.1299 0.83164 0.0
C523 C 0.06815 0.10397 0.81125 0.0
C524 C 0.04463 0.08078 0.81976 0.0
C525 C 0.02312 0.08448 0.84948 0.0
C526 C 0.02512 0.11126 0.87026 0.0
C527 C 0.05001 0.13395 0.86143 0.0
H528 H 0.25692 0.56728 0.13972 0.0
H529 H 0.21636 0.60706 0.04374 0.0
H530 H 0.26036 0.57773 0.00926 0.0
H531 H 0.35116 0.56503 0.11198 0.0
H532 H 0.35875 0.529 0.1339 0.0
H533 H 0.32654 0.55553 0.15102 0.0
H534 H 0.27899 0.51335 0.14824 0.0
H535 H 0.31099 0.48677 0.13113 0.0
H536 H 0.27109 0.49418 0.10718 0.0
H537 H 0.30422 0.53928 0.98492 0.0
H538 H 0.34501 0.49597 0.97331 0.0
H539 H 0.35932 0.4838 0.08538 0.0
C540 C 0.25825 0.57066 0.11157 0.0
C541 C 0.23397 0.59011 0.09446 0.0
C542 C 0.23548 0.59302 0.05745 0.0
C543 C 0.26025 0.57631 0.03764 0.0
C544 C 0.28384 0.55725 0.05527 0.0
C545 C 0.2833 0.55464 0.09148 0.0
C546 C 0.30986 0.53105 0.10392 0.0
C547 C 0.33827 0.54605 0.12654 0.0
C548 C 0.29163 0.5048 0.12377 0.0
C549 C 0.32483 0.52027 0.0691 0.0
C550 C 0.30956 0.53565 0.04128 0.0
C551 C 0.31698 0.52762 0.00654 0.0
C552 C 0.34018 0.503 0.00016 0.0
C553 C 0.35607 0.48693 0.02834 0.0
C554 C 0.34859 0.49619 0.06318 0.0
H555 H 0.86905 0.99963 0.95517 0.0
H556 H 0.84806 0.05961 0.86674 0.0
H557 H 0.8047 0.02259 0.84421 0.0
H558 H 0.85712 0.92609 0.90986 0.0
H559 H 0.83503 0.90896 0.94686 0.0
H560 H 0.86787 0.93782 0.95386 0.0
H561 H 0.82337 0.97052 0.98947 0.0
H562 H 0.7908 0.94145 0.98341 0.0
H563 H 0.78163 0.98036 0.97015 0.0
H564 H 0.76198 0.97984 0.83274 0.0
H565 H 0.71598 0.9404 0.83912 0.0
H566 H 0.76227 0.91086 0.93731 0.0
C567 C 0.85577 1.00472 0.93073 0.0
C568 C 0.8622 0.0322 0.91236 0.0
C569 C 0.84358 0.03854 0.88107 0.0
C570 C 0.81922 0.01753 0.86792 0.0
C571 C 0.81366 0.99046 0.88655 0.0
C572 C 0.83103 0.98429 0.91761 0.0
C573 C 0.81739 0.95551 0.9349 0.0
C574 C 0.84609 0.93063 0.93645 0.0
C575 C 0.8024 0.96239 0.97165 0.0
C576 C 0.7888 0.94694 0.90936 0.0
C577 C 0.78786 0.96673 0.88098 0.0
C578 C 0.7627 0.96403 0.85465 0.0
C579 C 0.73691 0.94141 0.85827 0.0
C580 C 0.73612 0.92247 0.88842 0.0
C581 C 0.7629 0.92474 0.9137 0.0
H582 H 0.74418 0.04788 0.39362 0.0
H583 H 0.71747 0.13894 0.43034 0.0
H584 H 0.66135 0.11925 0.45441 0.0
H585 H 0.65626 0.02706 0.36802 0.0
H586 H 0.66165 0.9877 0.38126 0.0
H587 H 0.69914 0.00928 0.36662 0.0
H588 H 0.73215 0.99839 0.42621 0.0
H589 H 0.69519 0.97474 0.43737 0.0
H590 H 0.70822 1.00463 0.46666 0.0
H591 H 0.60857 0.08752 0.47744 0.0
H592 H 0.56464 0.04823 0.49412 0.0
H593 H 0.62743 0.97915 0.44079 0.0
C594 C 0.72647 0.06388 0.40642 0.0
C595 C 0.73528 0.09513 0.40984 0.0
C596 C 0.71123 0.11508 0.42694 0.0
C597 C 0.67935 0.10399 0.44093 0.0
C598 C 0.67181 0.07288 0.43745 0.0
C599 C 0.69475 0.05323 0.42035 0.0
C600 C 0.68082 0.02088 0.41959 0.0
C601 C 0.67406 0.01064 0.38162 0.0
C602 C 0.70564 0.9984 0.43856 0.0
C603 C 0.64681 0.02507 0.43971 0.0
C604 C 0.6418 0.05514 0.44982 0.0
C605 C 0.61229 0.06396 0.46943 0.0
C606 C 0.58748 0.04148 0.47886 0.0
C607 C 0.59243 0.01051 0.46887 0.0
C608 C 0.62259 1.00253 0.44895 0.0
H609 H 0.66779 0.0115 0.01523 0.0
H610 H 0.60334 0.03208 0.10657 0.0
H611 H 0.63063 0.98886 0.13827 0.0
H612 H 0.67048 0.9256 0.02722 0.0
H613 H 0.71563 0.92383 0.01276 0.0
H614 H 0.68649 0.95273 0.99531 0.0
H615 H 0.73049 0.99403 0.01408 0.0
H616 H 0.75928 0.96616 0.03388 0.0
H617 H 0.74244 0.99742 0.05965 0.0
H618 H 0.67283 0.95032 0.16373 0.0
H619 H 0.72391 0.91765 0.17922 0.0
H620 H 0.75846 0.91931 0.07072 0.0
C621 C 0.65843 1.00627 0.04144 0.0
C622 C 0.63317 0.02524 0.05822 0.0
C623 C 0.62236 0.01787 0.0929 0.0
C624 C 0.63775 0.99328 0.11119 0.0
C625 C 0.6635 0.97575 0.09433 0.0
C626 C 0.67329 0.98158 0.05997 0.0
C627 C 0.70402 0.96139 0.04905 0.0
C628 C 0.69352 0.93959 0.01933 0.0
C629 C 0.73591 0.98092 0.03852 0.0
C630 C 0.71075 0.94401 0.08293 0.0
C631 C 0.68703 0.95257 0.10876 0.0
C632 C 0.69084 0.94269 0.14345 0.0
C633 C 0.71991 0.92414 0.15206 0.0
C634 C 0.74458 0.91528 0.12606 0.0
C635 C 0.73929 0.92474 0.09091 0.0
H636 H 0.16209 0.51956 0.505 0.0
H637 H 0.09018 0.53366 0.59216 0.0
H638 H 0.12297 0.49527 0.62705 0.0
H639 H 0.17336 0.43452 0.52176 0.0
H640 H 0.21861 0.43524 0.50787 0.0
H641 H 0.18709 0.46123 0.48842 0.0
H642 H 0.22634 0.50706 0.5054 0.0
H643 H 0.25768 0.48171 0.52577 0.0
H644 H 0.23818 0.51244 0.55073 0.0
H645 H 0.17018 0.46235 0.65579 0.0
H646 H 0.22344 0.43333 0.67336 0.0
H647 H 0.26133 0.43634 0.56597 0.0
C648 C 0.15262 0.51387 0.53105 0.0
C649 C 0.1234 0.52955 0.54573 0.0
C650 C 0.11212 0.52169 0.58009 0.0
C651 C 0.13074 0.49998 0.60022 0.0
C652 C 0.16005 0.48558 0.58532 0.0
C653 C 0.1703 0.4916 0.55114 0.0
C654 C 0.20321 0.47357 0.54163 0.0
C655 C 0.19511 0.44974 0.51322 0.0
C656 C 0.2331 0.49499 0.5302 0.0
C657 C 0.21127 0.45808 0.57641 0.0
C658 C 0.18593 0.46513 0.60128 0.0
C659 C 0.1896 0.45598 0.63624 0.0
C660 C 0.21997 0.43954 0.64604 0.0
C661 C 0.24617 0.43195 0.62095 0.0
C662 C 0.24126 0.44091 0.58555 0.0
H663 H 0.29321 0.39643 0.36568 0.0
H664 H 0.20643 0.42896 0.43013 0.0
H665 H 0.2462 0.46625 0.4581 0.0
H666 H 0.3633 0.40552 0.43029 0.0
H667 H 0.39461 0.41887 0.39817 0.0
H668 H 0.36048 0.39282 0.38539 0.0
H669 H 0.33975 0.43077 0.33726 0.0
H670 H 0.37404 0.45671 0.34954 0.0
H671 H 0.32895 0.46962 0.3492 0.0
H672 H 0.29561 0.50032 0.47933 0.0
H673 H 0.34748 0.5335 0.48489 0.0
H674 H 0.40054 0.48157 0.40329 0.0
C675 C 0.28252 0.41101 0.3861 0.0
C676 C 0.2466 0.40921 0.39605 0.0
C677 C 0.23381 0.42937 0.42234 0.0
C678 C 0.25627 0.45053 0.4386 0.0
C679 C 0.29151 0.45143 0.42838 0.0
C680 C 0.30442 0.4325 0.4023 0.0
C681 C 0.34245 0.43994 0.39375 0.0
C682 C 0.36664 0.41267 0.40243 0.0
C683 C 0.34652 0.44986 0.35515 0.0
C684 C 0.34875 0.46644 0.41858 0.0
C685 C 0.31934 0.4722 0.439 0.0
C686 C 0.31878 0.49579 0.46363 0.0
C687 C 0.34853 0.5145 0.46672 0.0
C688 C 0.37821 0.51013 0.44464 0.0
C689 C 0.37838 0.48537 0.42073 0.0
H690 H 0.26794 0.57952 0.88866 0.0
H691 H 0.21816 0.65915 0.84132 0.0
H692 H 0.16254 0.63027 0.83667 0.0
H693 H 0.22377 0.52158 0.83808 0.0
H694 H 0.22013 0.49575 0.87488 0.0
H695 H 0.25619 0.52217 0.87244 0.0
H696 H 0.23934 0.54367 0.93366 0.0
H697 H 0.20335 0.51728 0.93632 0.0
H698 H 0.19532 0.55774 0.94118 0.0
H699 H 0.11123 0.59354 0.84139 0.0
H700 H 0.06897 0.55218 0.85445 0.0
H701 H 0.15352 0.49688 0.89764 0.0
C702 C 0.24553 0.59096 0.87694 0.0
C703 C 0.24755 0.62163 0.86507 0.0
C704 C 0.21734 0.63566 0.85039 0.0
C705 C 0.18567 0.61942 0.84765 0.0
C706 C 0.18462 0.5893 0.85993 0.0
C707 C 0.21384 0.57525 0.87428 0.0
C708 C 0.20575 0.54318 0.88694 0.0
C709 C 0.22776 0.51926 0.86687 0.0
C710 C 0.21125 0.54032 0.92688 0.0
C711 C 0.16726 0.54126 0.87748 0.0
C712 C 0.15548 0.56809 0.86201 0.0
C713 C 0.12029 0.5723 0.85302 0.0
C714 C 0.0965 0.54869 0.86048 0.0
C715 C 0.10804 0.52114 0.8765 0.0
C716 C 0.14402 0.51733 0.88454 0.0
H717 H 0.68546 0.86541 0.02016 0.0
H718 H 0.6208 0.80144 0.963 0.0
H719 H 0.62526 0.76459 0.01177 0.0
H720 H 0.74328 0.81182 0.05833 0.0
H721 H 0.74638 0.83024 0.10044 0.0
H722 H 0.73653 0.8526 0.06187 0.0
H723 H 0.67953 0.87274 0.09197 0.0
H724 H 0.68979 0.85038 0.13045 0.0
H725 H 0.64808 0.84575 0.10893 0.0
H726 H 0.64035 0.73302 0.06302 0.0
H727 H 0.66017 0.70955 0.11846 0.0
H728 H 0.7138 0.7933 0.14602 0.0
C729 C 0.67131 0.84404 0.01863 0.0
C730 C 0.65204 0.83645 0.98816 0.0
C731 C 0.63493 0.80793 0.98638 0.0
C732 C 0.63753 0.78676 0.01388 0.0
C733 C 0.65706 0.79457 0.04331 0.0
C734 C 0.6731 0.82271 0.04641 0.0
C735 C 0.6927 0.82479 0.08114 0.0
C736 C 0.73209 0.83023 0.07506 0.0
C737 C 0.67655 0.8499 0.10451 0.0
C738 C 0.68607 0.79304 0.09632 0.0
C739 C 0.66539 0.77618 0.07383 0.0
C740 C 0.65614 0.74607 0.0811 0.0
C741 C 0.66765 0.73289 0.11252 0.0
C742 C 0.68838 0.7496 0.13636 0.0
C743 C 0.69797 0.78006 0.12813 0.0
H744 H 0.5882 0.38044 0.26345 0.0
H745 H 0.6725 0.34724 0.19616 0.0
H746 H 0.63643 0.35794 0.14398 0.0
H747 H 0.51846 0.34713 0.21304 0.0
H748 H 0.4882 0.37845 0.22013 0.0
H749 H 0.52132 0.36983 0.25237 0.0
H750 H 0.54389 0.42556 0.24818 0.0
H751 H 0.51095 0.4343 0.21575 0.0
H752 H 0.55669 0.44084 0.20605 0.0
H753 H 0.59257 0.37306 0.09928 0.0
H754 H 0.54043 0.38645 0.06426 0.0
H755 H 0.48215 0.40641 0.15987 0.0
C756 C 0.59897 0.37555 0.23769 0.0
C757 C 0.6331 0.36311 0.23375 0.0
C758 C 0.64631 0.35663 0.19973 0.0
C759 C 0.62614 0.3628 0.16992 0.0
C760 C 0.59264 0.37506 0.17461 0.0
C761 C 0.57884 0.38097 0.20755 0.0
C762 C 0.54129 0.39258 0.20506 0.0
C763 C 0.51582 0.37069 0.22376 0.0
C764 C 0.53803 0.42526 0.21962 0.0
C765 C 0.53622 0.39211 0.16562 0.0
C766 C 0.56645 0.38243 0.14862 0.0
C767 C 0.56865 0.38054 0.11223 0.0
C768 C 0.53894 0.38832 0.09259 0.0
C769 C 0.50729 0.39736 0.10941 0.0
C770 C 0.50599 0.3994 0.1464 0.0
H771 H 0.78844 0.26836 0.60887 0.0
H772 H 0.88383 0.25333 0.66869 0.0
H773 H 0.90062 0.21126 0.62922 0.0
H774 H 0.7742 0.18496 0.58582 0.0
H775 H 0.75891 0.19419 0.54238 0.0
H776 H 0.75091 0.22039 0.57805 0.0
H777 H 0.78083 0.26361 0.54297 0.0
H778 H 0.78974 0.23796 0.50713 0.0
H779 H 0.82524 0.25836 0.5273 0.0
H780 H 0.91266 0.17738 0.5784 0.0
H781 H 0.9169 0.15149 0.5208 0.0
H782 H 0.81286 0.18473 0.49433 0.0
C783 C 0.81219 0.25547 0.61435 0.0
C784 C 0.8347 0.26414 0.64215 0.0
C785 C 0.86608 0.2472 0.64773 0.0
C786 C 0.87586 0.22312 0.62545 0.0
C787 C 0.85387 0.21577 0.59767 0.0
C788 C 0.82239 0.23106 0.59223 0.0
C789 C 0.80516 0.22 0.5586 0.0
C790 C 0.77022 0.20394 0.56671 0.0
C791 C 0.79994 0.24657 0.53248 0.0
C792 C 0.83263 0.19723 0.54541 0.0
C793 C 0.86037 0.19502 0.56858 0.0
C794 C 0.89064 0.17815 0.56053 0.0
C795 C 0.89288 0.1635 0.52781 0.0
C796 C 0.86484 0.16531 0.50373 0.0
C797 C 0.83408 0.18196 0.51295 0.0
H798 H 0.86015 0.58225 0.7289 0.0
H799 H 0.86151 0.68031 0.74717 0.0
H800 H 0.90629 0.68617 0.70069 0.0
H801 H 0.9504 0.57259 0.71567 0.0
H802 H 0.9466 0.54451 0.68134 0.0
H803 H 0.91251 0.5481 0.71401 0.0
H804 H 0.86601 0.55668 0.66534 0.0
H805 H 0.89986 0.55265 0.63241 0.0
H806 H 0.87256 0.58651 0.63324 0.0
H807 H 0.95452 0.68078 0.65661 0.0
H808 H -0.00071 0.66516 0.61309 0.0
H809 H 0.96531 0.57081 0.62259 0.0
C810 C 0.86944 0.60502 0.72275 0.0
C811 C 0.85749 0.6308 0.74163 0.0
C812 C 0.87028 0.66023 0.7329 0.0
C813 C 0.89576 0.6638 0.70664 0.0
C814 C 0.90775 0.63777 0.68923 0.0
C815 C 0.89465 0.60903 0.69649 0.0
C816 C 0.91256 0.58471 0.67451 0.0
C817 C 0.93165 0.5611 0.69778 0.0
C818 C 0.88618 0.56923 0.64991 0.0
C819 C 0.93829 0.60423 0.65426 0.0
C820 C 0.93513 0.63475 0.66321 0.0
C821 C 0.957 0.65701 0.64902 0.0
C822 C 0.98247 0.64787 0.62454 0.0
C823 C 0.98561 0.61679 0.61445 0.0
C824 C 0.9633 0.59475 0.62964 0.0
H825 H 0.7376 0.27144 0.4191 0.0
H826 H 0.65436 0.27406 0.34165 0.0
H827 H 0.62476 0.23143 0.37218 0.0
H828 H 0.73834 0.18839 0.43134 0.0
H829 H 0.74478 0.18927 0.47822 0.0
H830 H 0.76298 0.21882 0.45058 0.0
H831 H 0.73152 0.26212 0.48329 0.0
H832 H 0.71509 0.23438 0.51404 0.0
H833 H 0.68499 0.25967 0.49166 0.0
H834 H 0.59835 0.19639 0.41796 0.0
H835 H 0.58089 0.16793 0.47165 0.0
H836 H 0.68354 0.1842 0.51616 0.0
C837 C 0.71369 0.26247 0.40791 0.0
C838 C 0.69842 0.27612 0.37785 0.0
C839 C 0.66684 0.26387 0.36439 0.0
C840 C 0.64973 0.23966 0.38166 0.0
C841 C 0.66484 0.22749 0.41199 0.0
C842 C 0.69648 0.23813 0.42461 0.0
C843 C 0.70614 0.22256 0.45887 0.0
C844 C 0.74004 0.20359 0.45456 0.0
C845 C 0.70963 0.24608 0.48871 0.0
C846 C 0.67431 0.20233 0.46432 0.0
C847 C 0.65066 0.20557 0.43706 0.0
C848 C 0.61713 0.19279 0.43884 0.0
C849 C 0.60734 0.17674 0.4694 0.0
C850 C 0.63122 0.17312 0.49741 0.0
C851 C 0.66533 0.18553 0.49441 0.0
H852 H 0.95605 0.4694 0.88821 0.0
H853 H 0.95572 0.38336 0.94558 0.0
H854 H 0.9213 0.35979 0.89846 0.0
H855 H 0.86561 0.46153 0.85207 0.0
H856 H 0.87771 0.47904 0.81089 0.0
H857 H 0.89952 0.49009 0.85075 0.0
H858 H 0.9597 0.47698 0.82226 0.0
H859 H 0.93817 0.46545 0.7825 0.0
H860 H 0.96721 0.43917 0.80481 0.0
H861 H 0.89309 0.34382 0.84228 0.0
H862 H 0.86605 0.33822 0.78395 0.0
H863 H 0.88248 0.43491 0.76357 0.0
C864 C 0.94785 0.44586 0.89132 0.0
C865 C 0.95853 0.42835 0.92073 0.0
C866 C 0.94759 0.39747 0.92361 0.0
C867 C 0.92818 0.38374 0.89681 0.0
C868 C 0.91927 0.40132 0.86759 0.0
C869 C 0.928 0.43189 0.86501 0.0
C870 C 0.91588 0.44537 0.83035 0.0
C871 C 0.88802 0.47049 0.83638 0.0
C872 C 0.94711 0.45744 0.80872 0.0
C873 C 0.89995 0.41737 0.81347 0.0
C874 C 0.90224 0.39221 0.83539 0.0
C875 C 0.89065 0.36346 0.82507 0.0
C876 C 0.87557 0.36048 0.79175 0.0
C877 C 0.87206 0.38613 0.76915 0.0
C878 C 0.88467 0.41488 0.78023 0.0
H879 H 0.7716 0.7243 0.913 0.0
H880 H 0.84422 0.76166 0.83647 0.0
H881 H 0.85503 0.8056 0.87537 0.0
H882 H 0.73789 0.79793 0.94934 0.0
H883 H 0.73722 0.78331 0.99361 0.0
H884 H 0.73003 0.75786 0.95724 0.0
H885 H 0.78141 0.72302 0.97846 0.0
H886 H 0.78804 0.7482 0.01494 0.0
H887 H 0.82399 0.73951 0.98552 0.0
H888 H 0.86369 0.84264 0.92623 0.0
H889 H 0.86946 0.86792 0.98425 0.0
H890 H 0.79483 0.80368 0.02815 0.0
C891 C 0.78939 0.74184 0.90424 0.0
C892 C 0.80725 0.73916 0.87177 0.0
C893 C 0.83013 0.76302 0.86119 0.0
C894 C 0.83646 0.78818 0.88314 0.0
C895 C 0.81975 0.78932 0.91575 0.0
C896 C 0.79652 0.76678 0.9262 0.0
C897 C 0.78488 0.7715 0.96393 0.0
C898 C 0.74516 0.77805 0.96614 0.0
C899 C 0.79522 0.74394 0.98706 0.0
C900 C 0.80598 0.79957 0.97329 0.0
C901 C 0.82542 0.81001 0.94509 0.0
C902 C 0.84822 0.83482 0.94837 0.0
C903 C 0.85142 0.84905 0.98141 0.0
C904 C 0.83235 0.83807 0.01079 0.0
C905 C 0.80925 0.81316 0.00624 0.0
H906 H 0.54222 0.56582 0.37434 0.0
H907 H 0.46473 0.63676 0.35286 0.0
H908 H 0.50009 0.6543 0.3024 0.0
H909 H 0.61669 0.60919 0.3561 0.0
H910 H 0.64125 0.57873 0.3354 0.0
H911 H 0.60844 0.56991 0.36796 0.0
H912 H 0.57685 0.53455 0.32375 0.0
H913 H 0.60975 0.54313 0.29106 0.0
H914 H 0.56393 0.54954 0.28156 0.0
H915 H 0.5466 0.66753 0.25844 0.0
H916 H 0.59957 0.67329 0.22131 0.0
H917 H 0.64547 0.59257 0.27005 0.0
C918 C 0.53239 0.58471 0.35867 0.0
C919 C 0.50073 0.5999 0.36749 0.0
C920 C 0.48882 0.62464 0.34645 0.0
C921 C 0.50873 0.63482 0.31776 0.0
C922 C 0.54018 0.61974 0.31021 0.0
C923 C 0.55173 0.59496 0.32973 0.0
C924 C 0.58706 0.58346 0.3168 0.0
C925 C 0.61499 0.58546 0.34579 0.0
C926 C 0.58421 0.55073 0.30244 0.0
C927 C 0.59399 0.6062 0.28764 0.0
C928 C 0.56661 0.6269 0.2842 0.0
C929 C 0.56797 0.65116 0.26045 0.0
C930 C 0.59818 0.65431 0.2396 0.0
C931 C 0.62641 0.63322 0.24263 0.0
C932 C 0.62405 0.60876 0.26677 0.0
H933 H 0.84145 1.00195 0.48505 0.0
H934 H 0.90699 0.99968 0.57771 0.0
H935 H 0.87295 0.04294 0.60286 0.0
H936 H 0.83095 0.08773 0.48557 0.0
H937 H 0.78643 0.08628 0.46987 0.0
H938 H 0.81808 0.05768 0.45611 0.0
H939 H 0.77875 0.01416 0.47851 0.0
H940 H 0.74609 0.04193 0.49113 0.0
H941 H 0.76258 0.01498 0.52311 0.0
H942 H 0.82418 0.08117 0.62182 0.0
H943 H 0.76862 0.11064 0.63039 0.0
H944 H 0.73848 0.0893 0.5237 0.0
C945 C 0.84934 0.01121 0.51013 0.0
C946 C 0.87703 0.99757 0.52925 0.0
C947 C 0.88628 0.0101 0.56225 0.0
C948 C 0.86694 0.03461 0.57685 0.0
C949 C 0.83896 0.04694 0.55776 0.0
C950 C 0.83085 0.03602 0.52469 0.0
C951 C 0.79887 0.05215 0.50997 0.0
C952 C 0.80919 0.07214 0.47844 0.0
C953 C 0.76989 0.0294 0.50015 0.0
C954 C 0.78828 0.07178 0.54096 0.0
C955 C 0.81203 0.06923 0.56813 0.0
C956 C 0.80586 0.08376 0.60036 0.0
C957 C 0.77429 0.10055 0.60504 0.0
C958 C 0.74919 0.10225 0.57777 0.0
C959 C 0.75711 0.08846 0.54512 0.0
H960 H 0.13284 0.58163 0.2312 0.0
H961 H 0.0778 0.54402 0.14173 0.0
H962 H 0.06487 0.49732 0.17634 0.0
H963 H 0.17348 0.51225 0.25798 0.0
H964 H 0.16997 0.52016 0.30429 0.0
H965 H 0.17277 0.55124 0.27332 0.0
H966 H 0.11479 0.57415 0.29812 0.0
H967 H 0.11176 0.54303 0.3291 0.0
H968 H 0.07587 0.55087 0.29962 0.0
H969 H 0.06041 0.45379 0.22006 0.0
H970 H 0.06628 0.41623 0.26811 0.0
H971 H 0.12455 0.48225 0.32922 0.0
C972 C 0.11767 0.56378 0.21889 0.0
C973 C 0.1061 0.56665 0.18369 0.0
C974 C 0.0868 0.54246 0.16862 0.0
C975 C 0.07929 0.51588 0.18813 0.0
C976 C 0.09126 0.51381 0.2227 0.0
C977 C 0.11011 0.53712 0.23791 0.0
C978 C 0.12149 0.52868 0.27488 0.0
C979 C 0.16182 0.52804 0.27777 0.0
C980 C 0.10498 0.55048 0.30203 0.0
C981 C 0.10635 0.49681 0.27813 0.0
C982 C 0.08885 0.48875 0.24779 0.0
C983 C 0.07385 0.45999 0.24397 0.0
C984 C 0.07735 0.43879 0.2715 0.0
C985 C 0.09573 0.44627 0.30263 0.0
C986 C 0.10989 0.47594 0.30608 0.0
H987 H 0.81746 0.8577 0.48418 0.0
H988 H 0.83111 0.88226 0.5936 0.0
H989 H 0.76701 0.87983 0.60264 0.0
H990 H 0.74878 0.90432 0.46924 0.0
H991 H 0.72511 0.87953 0.44006 0.0
H992 H 0.77193 0.87576 0.44386 0.0
H993 H 0.76545 0.81848 0.46054 0.0
H994 H 0.71841 0.82201 0.45639 0.0
H995 H 0.73725 0.80783 0.49666 0.0
H996 H 0.7023 0.88366 0.59742 0.0
H997 H 0.64149 0.89354 0.5783 0.0
H998 H 0.67015 0.86755 0.47195 0.0
C999 C 0.8071 0.8614 0.51037 0.0
C1000 C 0.82915 0.86997 0.53824 0.0
C1001 C 0.81459 0.87548 0.57192 0.0
C1002 C 0.77826 0.87401 0.57735 0.0
C1003 C 0.75705 0.86678 0.5489 0.0
C1004 C 0.77094 0.86029 0.51611 0.0
C1005 C 0.74246 0.85734 0.48883 0.0
C1006 C 0.74738 0.88063 0.45876 0.0
C1007 C 0.7408 0.82445 0.47479 0.0
C1008 C 0.71059 0.86487 0.51098 0.0
C1009 C 0.71942 0.86951 0.54572 0.0
C1010 C 0.69487 0.87939 0.57049 0.0
C1011 C 0.66045 0.88506 0.55934 0.0
C1012 C 0.6512 0.88122 0.52366 0.0
C1013 C 0.67643 0.87037 0.49945 0.0
H1014 H 0.38908 0.53971 0.84025 0.0
H1015 H 0.40728 0.61689 0.77074 0.0
H1016 H 0.41282 0.58193 0.72052 0.0
H1017 H 0.44913 0.48499 0.79226 0.0
H1018 H 0.42016 0.4532 0.80001 0.0
H1019 H 0.42247 0.48387 0.83148 0.0
H1020 H 0.35514 0.49188 0.82683 0.0
H1021 H 0.35261 0.46149 0.79521 0.0
H1022 H 0.33581 0.49901 0.78442 0.0
H1023 H 0.40907 0.53972 0.67655 0.0
H1024 H 0.39842 0.49258 0.64258 0.0
H1025 H 0.38347 0.4424 0.73999 0.0
C1026 C 0.39535 0.54911 0.81466 0.0
C1027 C 0.39789 0.58107 0.80955 0.0
C1028 C 0.40527 0.59251 0.77542 0.0
C1029 C 0.40853 0.57282 0.74663 0.0
C1030 C 0.4047 0.54157 0.75224 0.0
C1031 C 0.39871 0.52966 0.78543 0.0
C1032 C 0.39334 0.49534 0.78372 0.0
C1033 C 0.42304 0.47834 0.80301 0.0
C1034 C 0.35707 0.48643 0.7984 0.0
C1035 C 0.39565 0.49018 0.74436 0.0
C1036 C 0.40272 0.51707 0.72671 0.0
C1037 C 0.40413 0.51838 0.6901 0.0
C1038 C 0.39798 0.4915 0.67099 0.0
C1039 C 0.39031 0.46371 0.6885 0.0
C1040 C 0.38961 0.46315 0.72571 0.0
H1041 H 0.86782 0.08447 0.98418 0.0
H1042 H 0.90286 0.14924 0.06194 0.0
H1043 H 0.84148 0.16662 0.07111 0.0
H1044 H 0.79613 0.13177 0.94647 0.0
H1045 H 0.76753 0.09939 0.94133 0.0
H1046 H 0.81445 0.09427 0.93841 0.0
H1047 H 0.81176 0.05302 0.98702 0.0
H1048 H 0.76491 0.05802 0.99051 0.0
H1049 H 0.79201 0.06226 0.02883 0.0
H1050 H 0.77581 0.1731 0.07609 0.0
H1051 H 0.71083 0.17017 0.07403 0.0
H1052 H 0.71886 0.10222 0.99151 0.0
C1053 C 0.86271 0.10329 0.00174 0.0
C1054 C 0.8901 0.11628 0.02141 0.0
C1055 C 0.88218 0.13944 0.04617 0.0
C1056 C 0.84745 0.14939 0.05157 0.0
C1057 C 0.82087 0.13578 0.03214 0.0
C1058 C 0.82809 0.11335 0.00751 0.0
C1059 C 0.79454 0.10088 0.99192 0.0
C1060 C 0.79309 0.10697 0.95217 0.0
C1061 C 0.7906 0.06653 7e-05 0.0
C1062 C 0.76739 0.11984 0.0116 0.0
C1063 C 0.78306 0.13969 0.03485 0.0
C1064 C 0.76323 0.15804 0.05756 0.0
C1065 C 0.72639 0.15617 0.05633 0.0
C1066 C 0.70986 0.13637 0.03229 0.0
C1067 C 0.73075 0.11812 0.00962 0.0
H1068 H 0.24292 0.14385 0.37704 0.0
H1069 H 0.25505 0.24232 0.37709 0.0
H1070 H 0.26047 0.24171 0.44188 0.0
H1071 H 0.1865 0.14261 0.45039 0.0
H1072 H 0.20265 0.10682 0.46778 0.0
H1073 H 0.20539 0.11435 0.42138 0.0
H1074 H 0.27257 0.10425 0.42275 0.0
H1075 H 0.27012 0.09669 0.46926 0.0
H1076 H 0.29956 0.12554 0.45271 0.0
H1077 H 0.26115 0.23067 0.50651 0.0
H1078 H 0.25147 0.21118 0.56651 0.0
H1079 H 0.23397 0.12013 0.52492 0.0
C1080 C 0.24751 0.16511 0.39079 0.0
C1081 C 0.24937 0.19307 0.37235 0.0
C1082 C 0.25393 0.22069 0.391 0.0
C1083 C 0.25717 0.22051 0.42768 0.0
C1084 C 0.2549 0.19257 0.44527 0.0
C1085 C 0.24972 0.16542 0.42751 0.0
C1086 C 0.24398 0.13911 0.45287 0.0
C1087 C 0.20747 0.1249 0.44779 0.0
C1088 C 0.27331 0.11497 0.44918 0.0
C1089 C 0.24629 0.15574 0.48764 0.0
C1090 C 0.25333 0.18644 0.48265 0.0
C1091 C 0.25574 0.20665 0.51073 0.0
C1092 C 0.2502 0.1953 0.54476 0.0
C1093 C 0.24187 0.16407 0.55048 0.0
C1094 C 0.2403 0.14407 0.52145 0.0
H1095 H 0.26034 0.06474 0.74922 0.0
H1096 H 0.24624 0.06525 0.63619 0.0
H1097 H 0.24926 0.00875 0.63585 0.0
H1098 H 0.32065 0.99875 0.75357 0.0
H1099 H 0.3012 0.98461 0.79364 0.0
H1100 H 0.30117 0.02509 0.78451 0.0
H1101 H 0.23343 0.02689 0.792 0.0
H1102 H 0.23332 0.98654 0.80134 0.0
H1103 H 0.20665 1.00163 0.76626 0.0
H1104 H 0.24722 0.95203 0.64888 0.0
H1105 H 0.24071 0.90014 0.67422 0.0
H1106 H 0.25872 0.93687 0.77819 0.0
C1107 C 0.25855 0.05306 0.72426 0.0
C1108 C 0.25329 0.06952 0.69269 0.0
C1109 C 0.25053 0.05322 0.6607 0.0
C1110 C 0.25226 0.02109 0.66024 0.0
C1111 C 0.25704 1.00557 0.69193 0.0
C1112 C 0.26032 0.02106 0.72332 0.0
C1113 C 0.26303 0.99906 0.75401 0.0
C1114 C 0.29864 1.00206 0.77252 0.0
C1115 C 0.23228 1.00382 0.77991 0.0
C1116 C 0.26023 0.96874 0.73509 0.0
C1117 C 0.25683 0.97293 0.69927 0.0
C1118 C 0.25062 0.94843 0.67678 0.0
C1119 C 0.24702 0.91903 0.69137 0.0
C1120 C 0.24999 0.91433 0.72803 0.0
C1121 C 0.2575 0.93951 0.74994 0.0
H1122 H 0.21933 0.87505 0.07211 0.0
H1123 H 0.33097 0.85826 0.08628 0.0
H1124 H 0.34127 0.86838 0.02354 0.0
H1125 H 0.21027 0.83859 0.99371 0.0
H1126 H 0.18004 0.86556 0.97419 0.0
H1127 H 0.18201 0.86179 0.02111 0.0
H1128 H 0.19423 0.91989 0.02669 0.0
H1129 H 0.19233 0.92382 0.97958 0.0
H1130 H 0.23061 0.9364 0.00302 0.0
H1131 H 0.3386 0.87273 0.95887 0.0
H1132 H 0.32284 0.87132 0.89621 0.0
H1133 H 0.21336 0.88699 0.92386 0.0
C1134 C 0.246 0.87418 0.0621 0.0
C1135 C 0.27432 0.86598 0.08397 0.0
C1136 C 0.30888 0.86481 0.07 0.0
C1137 C 0.31506 0.8706 0.03442 0.0
C1138 C 0.28652 0.87814 0.01337 0.0
C1139 C 0.25271 0.88033 0.02669 0.0
C1140 C 0.2264 0.88657 0.99787 0.0
C1141 C 0.19804 0.86163 0.99666 0.0
C1142 C 0.20992 0.91857 0.00205 0.0
C1143 C 0.25039 0.88531 0.96615 0.0
C1144 C 0.28507 0.88115 0.97571 0.0
C1145 C 0.31167 0.8767 0.95097 0.0
C1146 C 0.30245 0.87588 0.91546 0.0
C1147 C 0.26691 0.87918 0.90521 0.0
C1148 C 0.2408 0.88479 0.93088 0.0
H1149 H 0.23905 0.06584 0.25964 0.0
H1150 H 0.28805 0.04693 0.36004 0.0
H1151 H 0.28058 0.99131 0.34999 0.0
H1152 H 0.17623 1.00194 0.25937 0.0
H1153 H 0.1825 0.99537 0.21305 0.0
H1154 H 0.18702 0.03338 0.23063 0.0
H1155 H 0.24973 0.03689 0.20399 0.0
H1156 H 0.24526 0.99908 0.1862 0.0
H1157 H 0.28172 1.00769 0.21447 0.0
H1158 H 0.27206 0.93737 0.32603 0.0
H1159 H 0.26863 0.89122 0.28868 0.0
H1160 H 0.22691 0.94659 0.20371 0.0
C1161 C 0.24742 0.05011 0.28001 0.0
C1162 C 0.2637 0.06075 0.31088 0.0
C1163 C 0.27525 0.03928 0.33632 0.0
C1164 C 0.27096 1.00768 0.33089 0.0
C1165 C 0.25518 0.99796 0.29984 0.0
C1166 C 0.24378 0.01866 0.27479 0.0
C1167 C 0.23126 1.00267 0.24201 0.0
C1168 C 0.19191 0.0087 0.23592 0.0
C1169 C 0.25332 0.01214 0.20979 0.0
C1170 C 0.23802 0.96968 0.2521 0.0
C1171 C 0.2512 0.96726 0.28577 0.0
C1172 C 0.26134 0.93902 0.29982 0.0
C1173 C 0.25908 0.91287 0.27848 0.0
C1174 C 0.24727 0.91526 0.24334 0.0
C1175 C 0.23567 0.94394 0.23057 0.0
H1176 H 0.52033 0.19414 0.03141 0.0
H1177 H 0.59211 0.21104 0.94512 0.0
H1178 H 0.55928 0.25842 0.93023 0.0
H1179 H 0.43902 0.22852 0.9924 0.0
H1180 H 0.42597 0.24536 0.03364 0.0
H1181 H 0.45066 0.21001 0.03314 0.0
H1182 H 0.4976 0.23439 0.07314 0.0
H1183 H 0.47329 0.26982 0.07354 0.0
H1184 H 0.51856 0.26934 0.05946 0.0
H1185 H 0.52324 0.30711 0.92937 0.0
H1186 H 0.48817 0.35335 0.94333 0.0
H1187 H 0.44128 0.30587 0.03191 0.0
C1188 C 0.52808 0.20715 0.00843 0.0
C1189 C 0.55801 0.19847 0.98859 0.0
C1190 C 0.56871 0.21695 0.95999 0.0
C1191 C 0.55025 0.24391 0.95144 0.0
C1192 C 0.52144 0.25239 0.97213 0.0
C1193 C 0.51041 0.23454 9e-05 0.0
C1194 C 0.48173 0.25068 0.02096 0.0
C1195 C 0.4473 0.23256 0.01996 0.0
C1196 C 0.49351 0.25639 0.05901 0.0
C1197 C 0.47853 0.28046 0.0006 0.0
C1198 C 0.50142 0.28091 0.97235 0.0
C1199 C 0.50485 0.30681 0.95113 0.0
C1200 C 0.48481 0.33303 0.95928 0.0
C1201 C 0.46162 0.33331 0.98851 0.0
C1202 C 0.45818 0.30635 0.00897 0.0
H1203 H 0.9597 0.22071 0.99782 0.0
H1204 H 0.93621 0.20384 0.8882 0.0
H1205 H 0.96124 0.25412 0.87242 0.0
H1206 H 0.94206 0.30422 0.99532 0.0
H1207 H 0.97712 0.31186 0.02564 0.0
H1208 H 0.95371 0.27622 0.02819 0.0
H1209 H 0.01276 0.24666 0.02267 0.0
H1210 H 0.03628 0.28212 0.01945 0.0
H1211 H 0.04099 0.25378 0.98542 0.0
H1212 H 0.99359 0.30485 0.86837 0.0
H1213 H 0.02754 0.3524 0.87699 0.0
H1214 H 0.03037 0.33438 0.9891 0.0
C1215 C 0.95909 0.22783 0.97057 0.0
C1216 C 0.94586 0.20839 0.94428 0.0
C1217 C 0.94583 0.21849 0.90887 0.0
C1218 C 0.96016 0.24696 0.89962 0.0
C1219 C 0.97407 0.26513 0.92612 0.0
C1220 C 0.97316 0.25609 0.96093 0.0
C1221 C 0.991 0.2791 0.98432 0.0
C1222 C 0.96439 0.29372 0.00987 0.0
C1223 C 0.0221 0.26453 0.00411 0.0
C1224 C 0.00334 0.30192 0.95712 0.0
C1225 C 0.99299 0.29379 0.92373 0.0
C1226 C 0.00171 0.31147 0.89444 0.0
C1227 C 0.02121 0.33831 0.89954 0.0
C1228 C 0.03202 0.34696 0.93364 0.0
C1229 C 0.02293 0.32833 0.96261 0.0
H1230 H 0.05404 0.72259 0.1042 0.0
H1231 H 0.04605 0.68303 0.20828 0.0
H1232 H 0.99888 0.72001 0.22333 0.0
H1233 H 0.03293 0.80314 0.12807 0.0
H1234 H 0.00695 0.80924 0.08918 0.0
H1235 H 0.0433 0.7826 0.08831 0.0
H1236 H 0.00154 0.74008 0.0669 0.0
H1237 H 0.965 0.76644 0.06817 0.0
H1238 H 0.96298 0.73105 0.09245 0.0
H1239 H 0.94902 0.75793 0.22542 0.0
H1240 H 0.90107 0.79514 0.21508 0.0
H1241 H 0.93939 0.80949 0.10879 0.0
C1242 C 0.04322 0.72259 0.13055 0.0
C1243 C 0.05436 0.70058 0.15552 0.0
C1244 C 0.0384 0.70018 0.18914 0.0
C1245 C 0.01149 0.721 0.19783 0.0
C1246 C 0.00033 0.74187 0.1724 0.0
C1247 C 0.01573 0.74293 0.13944 0.0
C1248 C 0.9967 0.76585 0.11605 0.0
C1249 C 0.02145 0.79175 0.10475 0.0
C1250 C 0.98061 0.74989 0.084 0.0
C1251 C 0.96826 0.77741 0.14096 0.0
C1252 C 0.97091 0.76329 0.17333 0.0
C1253 C 0.94689 0.76932 0.20025 0.0
C1254 C 0.91957 0.79044 0.19406 0.0
C1255 C 0.91629 0.8054 0.16117 0.0
C1256 C 0.94115 0.79867 0.13434 0.0
H1257 H 0.50279 0.67336 0.48225 0.0
H1258 H 0.42924 0.68331 0.5689 0.0
H1259 H 0.44529 0.73778 0.57433 0.0
H1260 H 0.5698 0.728 0.51495 0.0
H1261 H 0.57883 0.74169 0.47118 0.0
H1262 H 0.56528 0.70269 0.47796 0.0
H1263 H 0.51403 0.71118 0.43426 0.0
H1264 H 0.52706 0.75026 0.42782 0.0
H1265 H 0.48295 0.74177 0.44201 0.0
H1266 H 0.46471 0.79357 0.56522 0.0
H1267 H 0.48802 0.84343 0.54409 0.0
H1268 H 0.54752 0.7954 0.46358 0.0
C1269 C 0.49088 0.68663 0.50317 0.0
C1270 C 0.4649 0.67385 0.52528 0.0
C1271 C 0.44941 0.69243 0.55175 0.0
C1272 C 0.45829 0.72349 0.555 0.0
C1273 C 0.48289 0.7357 0.53174 0.0
C1274 C 0.49929 0.71764 0.50665 0.0
C1275 C 0.52284 0.73651 0.4831 0.0
C1276 C 0.56148 0.72663 0.48705 0.0
C1277 C 0.51099 0.73482 0.44454 0.0
C1278 C 0.51651 0.76804 0.49824 0.0
C1279 C 0.49365 0.76734 0.52644 0.0
C1280 C 0.483 0.79426 0.54341 0.0
C1281 C 0.49623 0.8225 0.53121 0.0
C1282 C 0.51963 0.82348 0.50223 0.0
C1283 C 0.5298 0.79571 0.48591 0.0
H1284 H 0.00515 0.69246 0.50717 0.0
H1285 H 0.0563 0.68854 0.40536 0.0
H1286 H 0.03633 0.74161 0.39296 0.0
H1287 H 0.92996 0.74191 0.48343 0.0
H1288 H 0.93194 0.76256 0.52428 0.0
H1289 H 0.9457 0.72306 0.52254 0.0
H1290 H 0.00616 0.73796 0.54813 0.0
H1291 H 0.99279 0.7775 0.54957 0.0
H1292 H 0.03213 0.76659 0.52609 0.0
H1293 H 0.01374 0.79694 0.39376 0.0
H1294 H 0.99267 0.8492 0.4084 0.0
H1295 H 0.9601 0.81685 0.51127 0.0
C1296 C 0.01111 0.70234 0.48173 0.0
C1297 C 0.03153 0.68605 0.45679 0.0
C1298 C 0.04014 0.70039 0.42453 0.0
C1299 C 0.02896 0.73054 0.41733 0.0
C1300 C 0.00964 0.74624 0.44291 0.0
C1301 C 0.00089 0.73256 0.47452 0.0
C1302 C 0.98312 0.75513 0.4991 0.0
C1303 C 0.94544 0.74506 0.50784 0.0
C1304 C 0.00485 0.75955 0.53269 0.0
C1305 C 0.98327 0.78369 0.4765 0.0
C1306 C 0.9983 0.77815 0.44404 0.0
C1307 C 0.00182 0.80144 0.41909 0.0
C1308 C 0.9898 0.83109 0.42763 0.0
C1309 C 0.97484 0.83731 0.46102 0.0
C1310 C 0.97149 0.81306 0.48552 0.0
H1311 H 0.07515 0.26882 0.33142 0.0
H1312 H 0.03192 0.34411 0.39244 0.0
H1313 H 0.97554 0.31721 0.39712 0.0
H1314 H 0.9933 0.25162 0.28397 0.0
H1315 H 0.00089 0.21088 0.28483 0.0
H1316 H 0.03759 0.23673 0.28422 0.0
H1317 H 0.06194 0.21147 0.34075 0.0
H1318 H 0.02543 0.18552 0.34147 0.0
H1319 H 0.03427 0.20903 0.3792 0.0
H1320 H 0.92399 0.28142 0.39755 0.0
H1321 H 0.88231 0.23831 0.39528 0.0
H1322 H 0.95821 0.18585 0.33445 0.0
C1323 C 0.05374 0.2798 0.34548 0.0
C1324 C 0.05826 0.30878 0.36147 0.0
C1325 C 0.02941 0.32208 0.3798 0.0
C1326 C 0.99709 0.30697 0.38259 0.0
C1327 C 0.99356 0.27849 0.36677 0.0
C1328 C 0.02105 0.265 0.34849 0.0
C1329 C 0.01048 0.2337 0.33497 0.0
C1330 C 0.01058 0.23321 0.2946 0.0
C1331 C 0.03445 0.20844 0.35001 0.0
C1332 C 0.97326 0.23141 0.34944 0.0
C1333 C 0.96383 0.2577 0.36724 0.0
C1334 C 0.931 0.26078 0.38344 0.0
C1335 C 0.90738 0.23619 0.3819 0.0
C1336 C 0.91675 0.20866 0.36459 0.0
C1337 C 0.95006 0.20659 0.34779 0.0
H1338 H 0.45152 0.69516 0.89174 0.0
H1339 H 0.382 0.74917 0.82566 0.0
H1340 H 0.42933 0.78707 0.81694 0.0
H1341 H 0.49214 0.7571 0.93495 0.0
H1342 H 0.53494 0.73923 0.9363 0.0
H1343 H 0.49612 0.71597 0.93583 0.0
H1344 H 0.51972 0.68758 0.88077 0.0
H1345 H 0.55855 0.71094 0.88096 0.0
H1346 H 0.5316 0.70926 0.84223 0.0
H1347 H 0.48429 0.81991 0.81711 0.0
H1348 H 0.54061 0.84586 0.82832 0.0
H1349 H 0.57355 0.7698 0.8942 0.0
C1350 C 0.44614 0.71488 0.87529 0.0
C1351 C 0.41293 0.71915 0.85934 0.0
C1352 C 0.40718 0.74534 0.8381 0.0
C1353 C 0.43396 0.76695 0.83293 0.0
C1354 C 0.46639 0.76195 0.84901 0.0
C1355 C 0.4725 0.73653 0.8698 0.0
C1356 C 0.50921 0.73679 0.88502 0.0
C1357 C 0.50801 0.73732 0.92541 0.0
C1358 C 0.53105 0.70952 0.87143 0.0
C1359 C 0.52265 0.76667 0.87018 0.0
C1360 C 0.49777 0.78072 0.84916 0.0
C1361 C 0.50401 0.80899 0.83335 0.0
C1362 C 0.53618 0.82352 0.8398 0.0
C1363 C 0.56167 0.80986 0.86205 0.0
C1364 C 0.55484 0.7808 0.87685 0.0
H1365 H 0.63127 0.93384 0.76562 0.0
H1366 H 0.59377 0.98916 0.85267 0.0
H1367 H 0.58893 0.03392 0.81247 0.0
H1368 H 0.68508 0.98943 0.72722 0.0
H1369 H 0.67604 0.97799 0.68275 0.0
H1370 H 0.6734 0.95041 0.71777 0.0
H1371 H 0.60933 0.93798 0.7001 0.0
H1372 H 0.61178 0.96561 0.665 0.0
H1373 H 0.5773 0.96847 0.69745 0.0
H1374 H 0.59054 0.0733 0.76133 0.0
H1375 H 0.6018 0.10321 0.7071 0.0
H1376 H 0.64017 0.02107 0.65563 0.0
C1377 C 0.62161 0.95521 0.77642 0.0
C1378 C 0.61268 0.95784 0.81243 0.0
C1379 C 0.60055 0.98646 0.8252 0.0
C1380 C 0.5977 0.01198 0.8025 0.0
C1381 C 0.60706 1.00848 0.76712 0.0
C1382 C 0.61883 0.98068 0.75435 0.0
C1383 C 0.62914 0.9828 0.71597 0.0
C1384 C 0.66823 0.97469 0.71064 0.0
C1385 C 0.60547 0.96251 0.6933 0.0
C1386 C 0.6221 0.01634 0.70901 0.0
C1387 C 0.60882 0.03081 0.73855 0.0
C1388 C 0.60081 0.06204 0.73815 0.0
C1389 C 0.60716 0.07885 0.70712 0.0
C1390 C 0.62187 0.06452 0.677 0.0
C1391 C 0.62889 0.03276 0.6781 0.0
H1392 H 0.15377 0.46183 0.99466 0.0
H1393 H 0.10046 0.40772 0.07395 0.0
H1394 H 0.15805 0.39368 0.09972 0.0
H1395 H 0.21644 0.4108 0.97601 0.0
H1396 H 0.25183 0.43732 0.9688 0.0
H1397 H 0.20722 0.44954 0.96226 0.0
H1398 H 0.21533 0.49389 0.00642 0.0
H1399 H 0.26034 0.48209 0.01262 0.0
H1400 H 0.23141 0.48578 0.04995 0.0
H1401 H 0.22235 0.37932 0.11086 0.0
H1402 H 0.28592 0.36625 0.10564 0.0
H1403 H 0.2946 0.42733 0.01633 0.0
C1404 C 0.15404 0.44787 0.01819 0.0
C1405 C 0.12264 0.4359 0.03235 0.0
C1406 C 0.12418 0.41743 0.06291 0.0
C1407 C 0.1568 0.40931 0.07767 0.0
C1408 C 0.18743 0.42018 0.06176 0.0
C1409 C 0.18616 0.43948 0.03292 0.0
C1410 C 0.2223 0.44503 0.01767 0.0
C1411 C 0.22454 0.43505 0.97892 0.0
C1412 C 0.23294 0.4787 0.02195 0.0
C1413 C 0.24395 0.42442 0.04105 0.0
C1414 C 0.2238 0.41094 0.06706 0.0
C1415 C 0.23836 0.39003 0.09082 0.0
C1416 C 0.27431 0.38262 0.08764 0.0
C1417 C 0.29467 0.39543 0.06025 0.0
C1418 C 0.27935 0.41687 0.03717 0.0
H1419 H 0.88157 0.01602 0.34922 0.0
H1420 H 0.86347 0.09945 0.28976 0.0
H1421 H 0.86789 0.07022 0.23452 0.0
H1422 H 0.94405 0.98102 0.28686 0.0
H1423 H 0.92732 0.94305 0.29419 0.0
H1424 H 0.92533 0.97099 0.32887 0.0
H1425 H 0.85812 0.96303 0.33439 0.0
H1426 H 0.85987 0.93512 0.29977 0.0
H1427 H 0.83086 0.96775 0.29613 0.0
H1428 H 0.87053 0.03081 0.1852 0.0
H1429 H 0.87073 0.9849 0.14714 0.0
H1430 H 0.88741 0.92763 0.23889 0.0
C1431 C 0.87906 0.02828 0.32462 0.0
C1432 C 0.87227 0.06018 0.32407 0.0
C1433 C 0.86877 0.0751 0.2911 0.0
C1434 C 0.87128 0.05867 0.25946 0.0
C1435 C 0.87749 0.02722 0.26096 0.0
C1436 C 0.8815 0.01222 0.29274 0.0
C1437 C 0.88653 0.97811 0.28727 0.0
C1438 C 0.92297 0.96768 0.30005 0.0
C1439 C 0.85709 0.95994 0.30546 0.0
C1440 C 0.8839 0.97613 0.24758 0.0
C1441 C 0.87902 1.00471 0.23277 0.0
C1442 C 0.87468 1.00836 0.19656 0.0
C1443 C 0.87489 0.98213 0.17508 0.0
C1444 C 0.87925 0.95255 0.18981 0.0
C1445 C 0.88425 0.94983 0.22657 0.0
H1446 H 0.17278 0.63447 0.56503 0.0
H1447 H 0.15452 0.71115 0.49487 0.0
H1448 H 0.21796 0.71179 0.47997 0.0
H1449 H 0.26503 0.65222 0.59233 0.0
H1450 H 0.27664 0.61218 0.59049 0.0
H1451 H 0.23262 0.6236 0.60253 0.0
H1452 H 0.20828 0.58931 0.55286 0.0
H1453 H 0.25203 0.57845 0.54 0.0
H1454 H 0.22283 0.59557 0.50833 0.0
H1455 H 0.28024 0.69679 0.46387 0.0
H1456 H 0.33642 0.66995 0.45126 0.0
H1457 H 0.31083 0.60173 0.53019 0.0
C1458 C 0.18236 0.65228 0.54767 0.0
C1459 C 0.15905 0.67285 0.53117 0.0
C1460 C 0.17223 0.69551 0.50816 0.0
C1461 C 0.20813 0.69589 0.49944 0.0
C1462 C 0.23005 0.67365 0.51426 0.0
C1463 C 0.21761 0.65253 0.53833 0.0
C1464 C 0.24446 0.62803 0.54647 0.0
C1465 C 0.25534 0.6291 0.58526 0.0
C1466 C 0.23109 0.59599 0.5363 0.0
C1467 C 0.27381 0.63817 0.52264 0.0
C1468 C 0.26536 0.66461 0.50444 0.0
C1469 C 0.28746 0.67649 0.47856 0.0
C1470 C 0.31909 0.66099 0.47138 0.0
C1471 C 0.32789 0.63388 0.48989 0.0
C1472 C 0.30503 0.62262 0.51592 0.0
H1473 H 0.73469 0.60847 0.07551 0.0
H1474 H 0.71172 0.70292 0.04908 0.0
H1475 H 0.72708 0.69293 0.98751 0.0
H1476 H 0.8083 0.60272 0.03327 0.0
H1477 H 0.80523 0.5646 0.01562 0.0
H1478 H 0.78065 0.57468 0.05427 0.0
H1479 H 0.72258 0.55894 0.02451 0.0
H1480 H 0.74702 0.54791 0.9858 0.0
H1481 H 0.71116 0.5749 0.98236 0.0
H1482 H 0.76618 0.68022 0.94126 0.0
H1483 H 0.81465 0.66131 0.90393 0.0
H1484 H 0.80674 0.57204 0.95054 0.0
C1485 C 0.731 0.62635 0.0561 0.0
C1486 C 0.72162 0.65629 0.06642 0.0
C1487 C 0.71848 0.6798 0.04121 0.0
C1488 C 0.7272 0.67429 0.00626 0.0
C1489 C 0.73909 0.64517 0.99712 0.0
C1490 C 0.74007 0.62117 0.02088 0.0
C1491 C 0.75913 0.59365 0.00533 0.0
C1492 C 0.79015 0.58335 0.0285 0.0
C1493 C 0.73343 0.56728 -0.00088 0.0
C1494 C 0.77175 0.60711 0.9708 0.0
C1495 C 0.75938 0.63674 0.96668 0.0
C1496 C 0.77356 0.65642 0.94184 0.0
C1497 C 0.80015 0.64547 0.91997 0.0
C1498 C 0.81072 0.61469 0.92115 0.0
C1499 C 0.79698 0.59522 0.94743 0.0
H1500 H 0.75209 0.43407 0.20806 0.0
H1501 H 0.76624 0.44541 0.32014 0.0
H1502 H 0.7817 0.49961 0.31063 0.0
H1503 H 0.82399 0.48931 0.18068 0.0
H1504 H 0.79855 0.50215 0.14359 0.0
H1505 H 0.79496 0.46319 0.1588 0.0
H1506 H 0.72753 0.47027 0.16512 0.0
H1507 H 0.73094 0.50917 0.15032 0.0
H1508 H 0.7105 0.50091 0.19203 0.0
H1509 H 0.78348 0.55489 0.28976 0.0
H1510 H 0.77695 0.6045 0.25873 0.0
H1511 H 0.76571 0.55605 0.16019 0.0
C1512 C 0.75978 0.44765 0.23045 0.0
C1513 C 0.75818 0.43541 0.26477 0.0
C1514 C 0.76781 0.45409 0.29351 0.0
C1515 C 0.77648 0.48501 0.28838 0.0
C1516 C 0.7763 0.49674 0.25428 0.0
C1517 C 0.76908 0.47836 0.22571 0.0
C1518 C 0.76805 0.49684 0.19205 0.0
C1519 C 0.79819 0.4873 0.16732 0.0
C1520 C 0.73213 0.49414 0.17385 0.0
C1521 C 0.77374 0.52872 0.20632 0.0
C1522 C 0.77876 0.5283 0.24222 0.0
C1523 C 0.78065 0.5554 0.2615 0.0
C1524 C 0.77687 0.58351 0.24368 0.0
C1525 C 0.77139 0.58431 0.20692 0.0
C1526 C 0.77073 0.55643 0.18814 0.0
H1527 H 0.82155 0.37544 0.57242 0.0
H1528 H 0.75798 0.45174 0.60954 0.0
H1529 H 0.73322 0.45807 0.5501 0.0
H1530 H 0.8388 0.40475 0.48328 0.0
H1531 H 0.83534 0.3671 0.46443 0.0
H1532 H 0.85092 0.37148 0.5087 0.0
H1533 H 0.80243 0.33444 0.53044 0.0
H1534 H 0.78616 0.33052 0.48643 0.0
H1535 H 0.75705 0.34307 0.52102 0.0
H1536 H 0.70912 0.45094 0.4884 0.0
H1537 H 0.69452 0.43542 0.4274 0.0
H1538 H 0.77522 0.36507 0.43199 0.0
C1539 C 0.80323 0.3941 0.56792 0.0
C1540 C 0.79174 0.4131 0.59566 0.0
C1541 C 0.76735 0.43699 0.58865 0.0
C1542 C 0.75296 0.44065 0.55502 0.0
C1543 C 0.7635 0.42043 0.52873 0.0
C1544 C 0.78862 0.39801 0.53469 0.0
C1545 C 0.79415 0.37806 0.50281 0.0
C1546 C 0.83205 0.38052 0.48898 0.0
C1547 C 0.78436 0.34456 0.51066 0.0
C1548 C 0.76824 0.39274 0.47794 0.0
C1549 C 0.75041 0.4169 0.49332 0.0
C1550 C 0.72342 0.43245 0.47585 0.0
C1551 C 0.71511 0.42342 0.44147 0.0
C1552 C 0.73416 0.39947 0.42514 0.0
C1553 C 0.76079 0.38393 0.44373 0.0
H1554 H 0.75894 0.54854 0.83343 0.0
H1555 H 0.70647 0.58687 0.74236 0.0
H1556 H 0.69607 0.53468 0.71999 0.0
H1557 H 0.80514 0.49331 0.78819 0.0
H1558 H 0.80268 0.4642 0.82166 0.0
H1559 H 0.80042 0.5039 0.83369 0.0
H1560 H 0.74097 0.49483 0.86538 0.0
H1561 H 0.74318 0.45491 0.8537 0.0
H1562 H 0.70527 0.47756 0.84181 0.0
H1563 H 0.69843 0.47864 0.70373 0.0
H1564 H 0.71419 0.42426 0.69474 0.0
H1565 H 0.76566 0.42276 0.79619 0.0
C1566 C 0.74408 0.54598 0.80945 0.0
C1567 C 0.73297 0.57187 0.78996 0.0
C1568 C 0.71482 0.56742 0.75799 0.0
C1569 C 0.70878 0.53782 0.74507 0.0
C1570 C 0.72107 0.51281 0.76438 0.0
C1571 C 0.73822 0.51662 0.79599 0.0
C1572 C 0.75218 0.48635 0.80981 0.0
C1573 C 0.79247 0.487 0.81353 0.0
C1574 C 0.73432 0.47792 0.84475 0.0
C1575 C 0.74103 0.46503 0.78064 0.0
C1576 C 0.72273 0.48061 0.75486 0.0
C1577 C 0.71216 0.46611 0.72408 0.0
C1578 C 0.72119 0.43514 0.71922 0.0
C1579 C 0.74085 0.41896 0.74488 0.0
C1580 C 0.75002 0.43412 0.77631 0.0
H1581 H 0.55211 0.21259 0.69128 0.0
H1582 H 0.58854 0.23108 0.58527 0.0
H1583 H 0.54167 0.27 0.57838 0.0
H1584 H 0.46147 0.21972 0.67676 0.0
H1585 H 0.45143 0.23937 0.71717 0.0
H1586 H 0.48889 0.21407 0.71475 0.0
H1587 H 0.52964 0.25778 0.73499 0.0
H1588 H 0.4922 0.28315 0.73791 0.0
H1589 H 0.52957 0.29354 0.71131 0.0
H1590 H 0.48743 0.30355 0.58112 0.0
H1591 H 0.43442 0.33377 0.59539 0.0
H1592 H 0.43441 0.29595 0.70096 0.0
C1593 C 0.5506 0.22521 0.66683 0.0
C1594 C 0.57412 0.21869 0.63879 0.0
C1595 C 0.57115 0.23574 0.60723 0.0
C1596 C 0.54441 0.25781 0.60299 0.0
C1597 C 0.52118 0.26312 0.6308 0.0
C1598 C 0.52448 0.24781 0.66241 0.0
C1599 C 0.49626 0.25816 0.68827 0.0
C1600 C 0.47315 0.23122 0.6999 0.0
C1601 C 0.51291 0.2741 0.72 0.0
C1602 C 0.47575 0.2808 0.66585 0.0
C1603 C 0.49064 0.28331 0.6328 0.0
C1604 C 0.4759 0.30209 0.6071 0.0
C1605 C 0.44562 0.31916 0.6155 0.0
C1606 C 0.43013 0.31757 0.64946 0.0
C1607 C 0.4455 0.29788 0.67483 0.0
loop_
_geom_bond_atom_site_label_1
_geom_bond_atom_site_label_2
_geom_bond_distance
_geom_bond_site_symmetry_2
_ccdc_geom_bond_type
Mg0 O7 2.141 . S
Mg0 O8 2.048 . S
Mg0 O9 2.048 . S
Mg0 O12 2.141 . S
C1 O2 1.313 . S
C1 O8 1.195 . S
O2 C1 1.313 . S
C3 O4 1.245 . S
C3 O12 1.289 . S
O4 C3 1.245 . S
C5 O6 1.245 . S
C5 O7 1.289 . S
O6 C5 1.245 . S
O7 Mg0 2.141 . S
O7 C5 1.289 . S
O8 Mg0 2.048 . S
O8 C1 1.195 . S
O9 Mg0 2.048 . S
O9 C10 1.195 . S
C10 O9 1.195 . S
C10 O11 1.313 . S
O11 C10 1.313 . S
O12 Mg0 2.141 . S
O12 C3 1.289 . S
Mg13 O20 2.141 . S
Mg13 O21 2.048 . S
Mg13 O22 2.048 . S
Mg13 O25 2.141 . S
C14 O15 1.313 . S
C14 O21 1.195 . S
O15 C14 1.313 . S
C16 O17 1.245 . S
C16 O25 1.289 . S
O17 C16 1.245 . S
C18 O19 1.245 . S
C18 O20 1.289 . S
O19 C18 1.245 . S
O20 Mg13 2.141 . S
O20 C18 1.289 . S
O21 Mg13 2.048 . S
O21 C14 1.195 . S
O22 Mg13 2.048 . S
O22 C23 1.195 . S
C23 O22 1.195 . S
C23 O24 1.313 . S
O24 C23 1.313 . S
O25 Mg13 2.141 . S
O25 C16 1.289 . S
Mg26 O33 2.141 . S
Mg26 O34 2.048 . S
Mg26 O35 2.048 . S
Mg26 O38 2.141 . S
C27 O28 1.313 . S
C27 O34 1.195 . S
O28 C27 1.313 . S
C29 O30 1.245 . S
C29 O38 1.289 . S
O30 C29 1.245 . S
C31 O32 1.245 . S
C31 O33 1.289 . S
O32 C31 1.245 . S
O33 Mg26 2.141 . S
O33 C31 1.289 . S
O34 Mg26 2.048 . S
O34 C27 1.195 . S
O35 Mg26 2.048 . S
O35 C36 1.195 . S
C36 O35 1.195 . S
C36 O37 1.313 . S
O37 C36 1.313 . S
O38 Mg26 2.141 . S
O38 C29 1.289 . S
Mg39 O46 2.141 . S
Mg39 O47 2.048 . S
Mg39 O48 2.048 . S
Mg39 O51 2.141 . S
C40 O41 1.313 1_554 S
C40 O47 1.195 . S
O41 C40 1.313 1_556 S
C42 O43 1.245 . S
C42 O51 1.289 . S
O43 C42 1.245 . S
C44 O45 1.245 . S
C44 O46 1.289 . S
O45 C44 1.245 . S
O46 Mg39 2.141 . S
O46 C44 1.289 . S
O47 Mg39 2.048 . S
O47 C40 1.195 . S
O48 Mg39 2.048 . S
O48 C49 1.195 1_554 S
C49 O48 1.195 1_556 S
C49 O50 1.313 . S
O50 C49 1.313 . S
O51 Mg39 2.141 . S
O51 C42 1.289 . S
Mg52 O59 2.141 . S
Mg52 O60 2.048 . S
Mg52 O61 2.048 . S
Mg52 O64 2.141 . S
C53 O54 1.313 . S
C53 O60 1.195 . S
O54 C53 1.313 . S
C55 O56 1.245 . S
C55 O64 1.289 . S
O56 C55 1.245 . S
C57 O58 1.245 . S
C57 O59 1.289 . S
O58 C57 1.245 . S
O59 Mg52 2.141 . S
O59 C57 1.289 . S
O60 Mg52 2.048 . S
O60 C53 1.195 . S
O61 Mg52 2.048 . S
O61 C62 1.195 . S
C62 O61 1.195 . S
C62 O63 1.313 . S
O63 C62 1.313 . S
O64 Mg52 2.141 . S
O64 C55 1.289 . S
Mg65 O72 2.141 . S
Mg65 O73 2.048 . S
Mg65 O74 2.048 . S
Mg65 O77 2.141 . S
C66 O67 1.313 . S
C66 O73 1.195 . S
O67 C66 1.313 . S
C68 O69 1.245 . S
C68 O77 1.289 . S
O69 C68 1.245 . S
C70 O71 1.245 . S
C70 O72 1.289 . S
O71 C70 1.245 . S
O72 Mg65 2.141 . S
O72 C70 1.289 . S
O73 Mg65 2.048 . S
O73 C66 1.195 . S
O74 Mg65 2.048 . S
O74 C75 1.195 . S
C75 O74 1.195 . S
C75 O76 1.313 . S
O76 C75 1.313 . S
O77 Mg65 2.141 . S
O77 C68 1.289 . S
Mg78 O85 2.141 . S
Mg78 O86 2.048 . S
Mg78 O87 2.048 . S
Mg78 O90 2.141 . S
C79 O80 1.313 . S
C79 O86 1.195 . S
O80 C79 1.313 . S
C81 O82 1.245 . S
C81 O90 1.289 . S
O82 C81 1.245 . S
C83 O84 1.245 . S
C83 O85 1.289 . S
O84 C83 1.245 . S
O85 Mg78 2.141 . S
O85 C83 1.289 . S
O86 Mg78 2.048 . S
O86 C79 1.195 . S
O87 Mg78 2.048 . S
O87 C88 1.195 . S
C88 O87 1.195 . S
C88 O89 1.313 . S
O89 C88 1.313 . S
O90 Mg78 2.141 . S
O90 C81 1.289 . S
Mg91 O98 2.141 . S
Mg91 O99 2.048 . S
Mg91 O100 2.048 . S
Mg91 O103 2.141 . S
C92 O93 1.313 1_556 S
C92 O99 1.195 . S
O93 C92 1.313 1_554 S
C94 O95 1.245 . S
C94 O103 1.289 . S
O95 C94 1.245 . S
C96 O97 1.253 . S
C96 O98 1.260 1_455 S
O97 C96 1.253 . S
O98 Mg91 2.141 . S
O98 C96 1.260 1_655 S
O99 Mg91 2.048 . S
O99 C92 1.195 . S
O100 Mg91 2.048 . S
O100 C101 1.195 1_556 S
C101 O100 1.195 1_554 S
C101 O102 1.313 . S
O102 C101 1.313 . S
O103 Mg91 2.141 . S
O103 C94 1.289 . S
Mg104 O111 2.141 . S
Mg104 O112 2.048 . S
Mg104 O113 2.048 . S
Mg104 O116 2.141 . S
C105 O106 1.313 . S
C105 O112 1.195 . S
O106 C105 1.313 . S
C107 O108 1.245 . S
C107 O116 1.289 . S
O108 C107 1.245 . S
C109 O110 1.245 . S
C109 O111 1.289 . S
O110 C109 1.245 . S
O111 Mg104 2.141 . S
O111 C109 1.289 . S
O112 Mg104 2.048 . S
O112 C105 1.195 . S
O113 Mg104 2.048 . S
O113 C114 1.195 . S
C114 O113 1.195 . S
C114 O115 1.313 . S
O115 C114 1.313 . S
O116 Mg104 2.141 . S
O116 C107 1.289 . S
Mg117 O124 2.141 . S
Mg117 O125 2.048 . S
Mg117 O126 2.048 . S
Mg117 O129 2.141 . S
C118 O119 1.313 . S
C118 O125 1.195 . S
O119 C118 1.313 . S
C120 O121 1.245 . S
C120 O129 1.289 . S
O121 C120 1.245 . S
C122 O123 1.245 . S
C122 O124 1.289 . S
O123 C122 1.245 . S
O124 Mg117 2.141 . S
O124 C122 1.289 . S
O125 Mg117 2.048 . S
O125 C118 1.195 . S
O126 Mg117 2.048 . S
O126 C127 1.195 . S
C127 O126 1.195 . S
C127 O128 1.313 . S
O128 C127 1.313 . S
O129 Mg117 2.141 . S
O129 C120 1.289 . S
Mg130 O137 2.141 . S
Mg130 O138 2.048 . S
Mg130 O139 2.048 . S
Mg130 O142 2.141 . S
C131 O132 1.313 . S
C131 O138 1.195 . S
O132 C131 1.313 . S
C133 O134 1.245 . S
C133 O142 1.289 . S
O134 C133 1.245 . S
C135 O136 1.245 . S
C135 O137 1.289 . S
O136 C135 1.245 . S
O137 Mg130 2.141 . S
O137 C135 1.289 . S
O138 Mg130 2.048 . S
O138 C131 1.195 . S
O139 Mg130 2.048 . S
O139 C140 1.195 . S
C140 O139 1.195 . S
C140 O141 1.313 . S
O141 C140 1.313 . S
O142 Mg130 2.141 . S
O142 C133 1.289 . S
Mg143 O150 2.141 . S
Mg143 O151 2.048 . S
Mg143 O152 2.048 . S
Mg143 O155 2.141 . S
C144 O145 1.313 . S
C144 O151 1.195 . S
O145 C144 1.313 . S
C146 O147 1.245 . S
C146 O155 1.289 . S
O147 C146 1.245 . S
C148 O149 1.245 . S
C148 O150 1.289 . S
O149 C148 1.245 . S
O150 Mg143 2.141 . S
O150 C148 1.289 . S
O151 Mg143 2.048 . S
O151 C144 1.195 . S
O152 Mg143 2.048 . S
O152 C153 1.195 . S
C153 O152 1.195 . S
C153 O154 1.313 . S
O154 C153 1.313 . S
O155 Mg143 2.141 . S
O155 C146 1.289 . S
Mg156 O163 2.141 . S
Mg156 O164 2.048 . S
Mg156 O165 2.048 . S
Mg156 O168 2.141 . S
C157 O158 1.313 . S
C157 O164 1.195 . S
O158 C157 1.313 . S
C159 O160 1.257 . S
C159 O168 1.276 1_556 S
O160 C159 1.257 . S
C161 O162 1.245 . S
C161 O163 1.289 1_556 S
O162 C161 1.245 . S
O163 Mg156 2.141 . S
O163 C161 1.289 1_554 S
O164 Mg156 2.048 . S
O164 C157 1.195 . S
O165 Mg156 2.048 . S
O165 C166 1.195 . S
C166 O165 1.195 . S
C166 O167 1.313 . S
O167 C166 1.313 . S
O168 Mg156 2.141 . S
O168 C159 1.276 1_554 S
Mg169 O176 2.141 . S
Mg169 O177 2.048 . S
Mg169 O178 2.048 . S
Mg169 O181 2.141 . S
C170 O171 1.313 . S
C170 O177 1.195 . S
O171 C170 1.313 . S
C172 O173 1.245 . S
C172 O181 1.289 . S
O173 C172 1.245 . S
C174 O175 1.245 . S
C174 O176 1.289 . S
O175 C174 1.245 . S
O176 Mg169 2.141 . S
O176 C174 1.289 . S
O177 Mg169 2.048 . S
O177 C170 1.195 . S
O178 Mg169 2.048 . S
O178 C179 1.195 . S
C179 O178 1.195 . S
C179 O180 1.313 . S
O180 C179 1.313 . S
O181 Mg169 2.141 . S
O181 C172 1.289 . S
Mg182 O189 2.141 . S
Mg182 O190 2.048 . S
Mg182 O191 2.048 . S
Mg182 O194 2.141 . S
C183 O184 1.313 . S
C183 O190 1.195 . S
O184 C183 1.313 . S
C185 O186 1.245 . S
C185 O194 1.289 . S
O186 C185 1.245 . S
C187 O188 1.245 . S
C187 O189 1.289 . S
O188 C187 1.245 . S
O189 Mg182 2.141 . S
O189 C187 1.289 . S
O190 Mg182 2.048 . S
O190 C183 1.195 . S
O191 Mg182 2.048 . S
O191 C192 1.195 . S
C192 O191 1.195 . S
C192 O193 1.313 . S
O193 C192 1.313 . S
O194 Mg182 2.141 . S
O194 C185 1.289 . S
Mg195 O202 2.141 . S
Mg195 O203 2.048 . S
Mg195 O204 2.048 . S
Mg195 O207 2.141 . S
C196 O197 1.313 . S
C196 O203 1.195 . S
O197 C196 1.313 . S
C198 O199 1.245 . S
C198 O207 1.289 . S
O199 C198 1.245 . S
C200 O201 1.245 . S
C200 O202 1.289 . S
O201 C200 1.245 . S
O202 Mg195 2.141 . S
O202 C200 1.289 . S
O203 Mg195 2.048 . S
O203 C196 1.195 . S
O204 Mg195 2.048 . S
O204 C205 1.195 . S
C205 O204 1.195 . S
C205 O206 1.313 . S
O206 C205 1.313 . S
O207 Mg195 2.141 . S
O207 C198 1.289 . S
Mg208 O215 2.141 . S
Mg208 O216 2.048 . S
Mg208 O217 2.048 . S
Mg208 O220 2.141 . S
C209 O210 1.313 . S
C209 O216 1.195 . S
O210 C209 1.313 . S
C211 O212 1.245 . S
C211 O220 1.289 . S
O212 C211 1.245 . S
C213 O214 1.245 . S
C213 O215 1.289 . S
O214 C213 1.245 . S
O215 Mg208 2.141 . S
O215 C213 1.289 . S
O216 Mg208 2.048 . S
O216 C209 1.195 . S
O217 Mg208 2.048 . S
O217 C218 1.195 . S
C218 O217 1.195 . S
C218 O219 1.313 . S
O219 C218 1.313 . S
O220 Mg208 2.141 . S
O220 C211 1.289 . S
Mg221 O228 2.141 . S
Mg221 O229 2.048 . S
Mg221 O230 2.048 . S
Mg221 O233 2.141 . S
C222 O223 1.313 . S
C222 O229 1.195 . S
O223 C222 1.313 . S
C224 O225 1.245 . S
C224 O233 1.289 . S
O225 C224 1.245 . S
C226 O227 1.245 . S
C226 O228 1.289 . S
O227 C226 1.245 . S
O228 Mg221 2.141 . S
O228 C226 1.289 . S
O229 Mg221 2.048 . S
O229 C222 1.195 . S
O230 Mg221 2.048 . S
O230 C231 1.195 . S
C231 O230 1.195 . S
C231 O232 1.313 . S
O232 C231 1.313 . S
O233 Mg221 2.141 . S
O233 C224 1.289 . S
Mg234 O241 2.141 . S
Mg234 O242 2.048 . S
Mg234 O243 2.048 . S
Mg234 O246 2.141 . S
C235 O236 1.313 1_556 S
C235 O242 1.195 . S
O236 C235 1.313 1_554 S
C237 O238 1.245 . S
C237 O246 1.289 . S
O238 C237 1.245 . S
C239 O240 1.245 1_455 S
C239 O241 1.289 . S
O240 C239 1.245 1_655 S
O241 Mg234 2.141 . S
O241 C239 1.289 . S
O242 Mg234 2.048 . S
O242 C235 1.195 . S
O243 Mg234 2.048 . S
O243 C244 1.195 1_556 S
C244 O243 1.195 1_554 S
C244 O245 1.313 . S
O245 C244 1.313 . S
O246 Mg234 2.141 . S
O246 C237 1.289 . S
Mg247 O254 2.141 . S
Mg247 O255 2.048 . S
Mg247 O256 2.048 . S
Mg247 O259 2.141 . S
C248 O249 1.313 . S
C248 O255 1.195 . S
O249 C248 1.313 . S
C250 O251 1.245 . S
C250 O259 1.289 . S
O251 C250 1.245 . S
C252 O253 1.245 . S
C252 O254 1.289 . S
O253 C252 1.245 . S
O254 Mg247 2.141 . S
O254 C252 1.289 . S
O255 Mg247 2.048 . S
O255 C248 1.195 . S
O256 Mg247 2.048 . S
O256 C257 1.195 . S
C257 O256 1.195 . S
C257 O258 1.313 . S
O258 C257 1.313 . S
O259 Mg247 2.141 . S
O259 C250 1.289 . S
Mg260 O267 2.141 . S
Mg260 O268 2.048 . S
Mg260 O269 2.048 . S
Mg260 O272 2.141 . S
C261 O262 1.313 . S
C261 O268 1.195 . S
O262 C261 1.313 . S
C263 O264 1.245 . S
C263 O272 1.289 . S
O264 C263 1.245 . S
C265 O266 1.245 . S
C265 O267 1.289 . S
O266 C265 1.245 . S
O267 Mg260 2.141 . S
O267 C265 1.289 . S
O268 Mg260 2.048 . S
O268 C261 1.195 . S
O269 Mg260 2.048 . S
O269 C270 1.195 . S
C270 O269 1.195 . S
C270 O271 1.313 . S
O271 C270 1.313 . S
O272 Mg260 2.141 . S
O272 C263 1.289 . S
Mg273 O280 2.141 . S
Mg273 O281 2.048 . S
Mg273 O282 2.048 . S
Mg273 O285 2.141 . S
C274 O275 1.313 . S
C274 O281 1.195 . S
O275 C274 1.313 . S
C276 O277 1.245 . S
C276 O285 1.289 . S
O277 C276 1.245 . S
C278 O279 1.245 . S
C278 O280 1.289 . S
O279 C278 1.245 . S
O280 Mg273 2.141 . S
O280 C278 1.289 . S
O281 Mg273 2.048 . S
O281 C274 1.195 . S
O282 Mg273 2.048 . S
O282 C283 1.195 . S
C283 O282 1.195 . S
C283 O284 1.313 . S
O284 C283 1.313 . S
O285 Mg273 2.141 . S
O285 C276 1.289 . S
Mg286 O293 2.141 . S
Mg286 O294 2.048 . S
Mg286 O295 2.048 . S
Mg286 O298 2.141 . S
C287 O288 1.313 . S
C287 O294 1.195 . S
O288 C287 1.313 . S
C289 O290 1.245 . S
C289 O298 1.289 . S
O290 C289 1.245 . S
C291 O292 1.245 . S
C291 O293 1.289 . S
O292 C291 1.245 . S
O293 Mg286 2.141 . S
O293 C291 1.289 . S
O294 Mg286 2.048 . S
O294 C287 1.195 . S
O295 Mg286 2.048 . S
O295 C296 1.195 . S
C296 O295 1.195 . S
C296 O297 1.313 . S
O297 C296 1.313 . S
O298 Mg286 2.141 . S
O298 C289 1.289 . S
Mg299 O306 2.141 . S
Mg299 O307 2.048 . S
Mg299 O308 2.048 . S
Mg299 O311 2.141 . S
C300 O301 1.313 . S
C300 O307 1.195 . S
O301 C300 1.313 . S
C302 O303 1.245 . S
C302 O311 1.289 . S
O303 C302 1.245 . S
C304 O305 1.245 . S
C304 O306 1.289 . S
O305 C304 1.245 . S
O306 Mg299 2.141 . S
O306 C304 1.289 . S
O307 Mg299 2.048 . S
O307 C300 1.195 . S
O308 Mg299 2.048 . S
O308 C309 1.195 . S
C309 O308 1.195 . S
C309 O310 1.313 . S
O310 C309 1.313 . S
O311 Mg299 2.141 . S
O311 C302 1.289 . S
H312 C324 0.930 . S
H313 C326 0.930 . S
H314 C327 0.930 . S
H315 C331 0.959 . S
H316 C331 0.959 . S
H317 C331 0.961 . S
H318 C332 0.960 . S
H319 C332 0.961 . S
H320 C332 0.959 . S
H321 C335 0.929 . S
H322 C336 0.931 . S
H323 C338 0.930 . S
C324 H312 0.930 . S
C324 C325 1.399 . S
C324 C329 1.399 . S
C325 C324 1.399 . S
C325 C326 1.376 . S
C326 H313 0.930 . S
C326 C325 1.376 . S
C326 C327 1.388 . S
C327 H314 0.930 . S
C327 C326 1.388 . S
C327 C328 1.390 . S
C328 C327 1.390 . S
C328 C329 1.394 . S
C328 C334 1.465 . S
C329 C324 1.399 . S
C329 C328 1.394 . S
C329 C330 1.516 . S
C330 C329 1.516 . S
C330 C331 1.502 . S
C330 C332 1.561 . S
C330 C333 1.526 . S
C331 H315 0.959 . S
C331 H316 0.959 . S
C331 H317 0.961 . S
C331 C330 1.502 . S
C332 H318 0.960 . S
C332 H319 0.961 . S
C332 H320 0.959 . S
C332 C330 1.561 . S
C333 C330 1.526 . S
C333 C334 1.396 . S
C333 C338 1.390 . S
C334 C328 1.465 . S
C334 C333 1.396 . S
C334 C335 1.399 . S
C335 H321 0.929 . S
C335 C334 1.399 . S
C335 C336 1.385 . S
C336 H322 0.931 . S
C336 C335 1.385 . S
C336 C337 1.389 . S
C337 C336 1.389 . S
C337 C338 1.387 . S
C338 H323 0.930 . S
C338 C333 1.390 . S
C338 C337 1.387 . S
H339 C351 0.930 . S
H340 C353 0.930 . S
H341 C354 0.930 . S
H342 C358 0.959 . S
H343 C358 0.959 . S
H344 C358 0.961 . S
H345 C359 0.960 . S
H346 C359 0.961 . S
H347 C359 0.959 . S
H348 C362 0.929 . S
H349 C363 0.931 . S
H350 C365 0.930 . S
C351 H339 0.930 . S
C351 C352 1.399 . S
C351 C356 1.399 . S
C352 C351 1.399 . S
C352 C353 1.376 . S
C353 H340 0.930 . S
C353 C352 1.376 . S
C353 C354 1.388 . S
C354 H341 0.930 . S
C354 C353 1.388 . S
C354 C355 1.390 . S
C355 C354 1.390 . S
C355 C356 1.394 . S
C355 C361 1.465 . S
C356 C351 1.399 . S
C356 C355 1.394 . S
C356 C357 1.516 . S
C357 C356 1.516 . S
C357 C358 1.502 . S
C357 C359 1.561 . S
C357 C360 1.526 . S
C358 H342 0.959 . S
C358 H343 0.959 . S
C358 H344 0.961 . S
C358 C357 1.502 . S
C359 H345 0.960 . S
C359 H346 0.961 . S
C359 H347 0.959 . S
C359 C357 1.561 . S
C360 C357 1.526 . S
C360 C361 1.396 . S
C360 C365 1.390 . S
C361 C355 1.465 . S
C361 C360 1.396 . S
C361 C362 1.399 . S
C362 H348 0.929 . S
C362 C361 1.399 . S
C362 C363 1.385 . S
C363 H349 0.931 . S
C363 C362 1.385 . S
C363 C364 1.389 . S
C364 C363 1.389 . S
C364 C365 1.387 . S
C365 H350 0.930 . S
C365 C360 1.390 . S
C365 C364 1.387 . S
H366 C378 0.930 . S
H367 C380 0.930 . S
H368 C381 0.930 . S
H369 C385 0.959 . S
H370 C385 0.959 . S
H371 C385 0.961 . S
H372 C386 0.960 . S
H373 C386 0.961 . S
H374 C386 0.959 . S
H375 C389 0.929 . S
H376 C390 0.931 . S
H377 C392 0.930 . S
C378 H366 0.930 . S
C378 C379 1.399 . S
C378 C383 1.399 . S
C379 C378 1.399 . S
C379 C380 1.376 . S
C380 H367 0.930 . S
C380 C379 1.376 . S
C380 C381 1.388 . S
C381 H368 0.930 . S
C381 C380 1.388 . S
C381 C382 1.390 . S
C382 C381 1.390 . S
C382 C383 1.394 . S
C382 C388 1.465 . S
C383 C378 1.399 . S
C383 C382 1.394 . S
C383 C384 1.516 . S
C384 C383 1.516 . S
C384 C385 1.502 . S
C384 C386 1.561 . S
C384 C387 1.526 . S
C385 H369 0.959 . S
C385 H370 0.959 . S
C385 H371 0.961 . S
C385 C384 1.502 . S
C386 H372 0.960 . S
C386 H373 0.961 . S
C386 H374 0.959 . S
C386 C384 1.561 . S
C387 C384 1.526 . S
C387 C388 1.396 . S
C387 C392 1.390 . S
C388 C382 1.465 . S
C388 C387 1.396 . S
C388 C389 1.399 1_554 S
C389 H375 0.929 . S
C389 C388 1.399 1_556 S
C389 C390 1.385 . S
C390 H376 0.931 . S
C390 C389 1.385 . S
C390 C391 1.389 . S
C391 C390 1.389 . S
C391 C392 1.387 1_556 S
C392 H377 0.930 . S
C392 C387 1.390 . S
C392 C391 1.387 1_554 S
H393 C405 0.930 . S
H394 C407 0.930 . S
H395 C408 0.930 . S
H396 C412 0.959 . S
H397 C412 0.959 . S
H398 C412 0.961 . S
H399 C413 0.960 . S
H400 C413 0.961 . S
H401 C413 0.959 . S
H402 C416 0.929 . S
H403 C417 0.931 . S
H404 C419 0.930 . S
C405 H393 0.930 . S
C405 C406 1.399 . S
C405 C410 1.399 . S
C406 C405 1.399 . S
C406 C407 1.376 . S
C407 H394 0.930 . S
C407 C406 1.376 . S
C407 C408 1.388 . S
C408 H395 0.930 . S
C408 C407 1.388 . S
C408 C409 1.390 . S
C409 C408 1.390 . S
C409 C410 1.394 . S
C409 C415 1.465 . S
C410 C405 1.399 . S
C410 C409 1.394 . S
C410 C411 1.516 . S
C411 C410 1.516 . S
C411 C412 1.502 . S
C411 C413 1.561 . S
C411 C414 1.526 . S
C412 H396 0.959 . S
C412 H397 0.959 . S
C412 H398 0.961 . S
C412 C411 1.502 . S
C413 H399 0.960 . S
C413 H400 0.961 . S
C413 H401 0.959 . S
C413 C411 1.561 . S
C414 C411 1.526 . S
C414 C415 1.396 . S
C414 C419 1.390 . S
C415 C409 1.465 . S
C415 C414 1.396 . S
C415 C416 1.399 . S
C416 H402 0.929 . S
C416 C415 1.399 . S
C416 C417 1.385 . S
C417 H403 0.931 . S
C417 C416 1.385 . S
C417 C418 1.389 . S
C418 C417 1.389 . S
C418 C419 1.387 . S
C419 H404 0.930 . S
C419 C414 1.390 . S
C419 C418 1.387 . S
H420 C432 0.930 . S
H421 C434 0.930 . S
H422 C435 0.930 . S
H423 C439 0.959 . S
H424 C439 0.959 . S
H425 C439 0.961 . S
H426 C440 0.960 . S
H427 C440 0.961 . S
H428 C440 0.959 . S
H429 C443 0.929 . S
H430 C444 0.931 . S
H431 C446 0.930 . S
C432 H420 0.930 . S
C432 C433 1.399 . S
C432 C437 1.399 . S
C433 C432 1.399 . S
C433 C434 1.376 . S
C434 H421 0.930 . S
C434 C433 1.376 . S
C434 C435 1.388 . S
C435 H422 0.930 . S
C435 C434 1.388 . S
C435 C436 1.390 . S
C436 C435 1.390 . S
C436 C437 1.394 . S
C436 C442 1.465 . S
C437 C432 1.399 . S
C437 C436 1.394 . S
C437 C438 1.516 . S
C438 C437 1.516 . S
C438 C439 1.502 . S
C438 C440 1.561 . S
C438 C441 1.526 . S
C439 H423 0.959 . S
C439 H424 0.959 . S
C439 H425 0.961 . S
C439 C438 1.502 . S
C440 H426 0.960 . S
C440 H427 0.961 . S
C440 H428 0.959 . S
C440 C438 1.561 . S
C441 C438 1.526 . S
C441 C442 1.396 . S
C441 C446 1.390 . S
C442 C436 1.465 . S
C442 C441 1.396 . S
C442 C443 1.399 1_556 S
C443 H429 0.929 . S
C443 C442 1.399 1_554 S
C443 C444 1.385 . S
C444 H430 0.931 . S
C444 C443 1.385 . S
C444 C445 1.389 . S
C445 C444 1.389 . S
C445 C446 1.387 1_554 S
C446 H431 0.930 . S
C446 C441 1.390 . S
C446 C445 1.387 1_556 S
H447 C459 0.930 . S
H448 C461 0.930 . S
H449 C462 0.930 . S
H450 C466 0.959 . S
H451 C466 0.959 . S
H452 C466 0.961 . S
H453 C467 0.960 . S
H454 C467 0.961 . S
H455 C467 0.959 . S
H456 C470 0.929 . S
H457 C471 0.931 . S
H458 C473 0.930 . S
C459 H447 0.930 . S
C459 C460 1.399 . S
C459 C464 1.399 . S
C460 C459 1.399 . S
C460 C461 1.376 . S
C461 H448 0.930 . S
C461 C460 1.376 . S
C461 C462 1.388 . S
C462 H449 0.930 . S
C462 C461 1.388 . S
C462 C463 1.390 . S
C463 C462 1.390 . S
C463 C464 1.394 . S
C463 C469 1.465 . S
C464 C459 1.399 . S
C464 C463 1.394 . S
C464 C465 1.516 . S
C465 C464 1.516 . S
C465 C466 1.502 . S
C465 C467 1.561 . S
C465 C468 1.526 . S
C466 H450 0.959 . S
C466 H451 0.959 . S
C466 H452 0.961 . S
C466 C465 1.502 . S
C467 H453 0.960 . S
C467 H454 0.961 . S
C467 H455 0.959 . S
C467 C465 1.561 . S
C468 C465 1.526 . S
C468 C469 1.396 . S
C468 C473 1.390 . S
C469 C463 1.465 . S
C469 C468 1.396 . S
C469 C470 1.399 . S
C470 H456 0.929 . S
C470 C469 1.399 . S
C470 C471 1.385 . S
C471 H457 0.931 . S
C471 C470 1.385 . S
C471 C472 1.389 . S
C472 C471 1.389 . S
C472 C473 1.387 . S
C473 H458 0.930 . S
C473 C468 1.390 . S
C473 C472 1.387 . S
H474 C486 0.930 . S
H475 C488 0.930 . S
H476 C489 0.930 . S
H477 C493 0.959 . S
H478 C493 0.959 . S
H479 C493 0.961 . S
H480 C494 0.960 . S
H481 C494 0.961 . S
H482 C494 0.959 . S
H483 C497 0.929 . S
H484 C498 0.931 . S
H485 C500 0.930 . S
C486 H474 0.930 . S
C486 C487 1.399 . S
C486 C491 1.399 . S
C487 C486 1.399 . S
C487 C488 1.376 . S
C488 H475 0.930 . S
C488 C487 1.376 . S
C488 C489 1.388 . S
C489 H476 0.930 . S
C489 C488 1.388 . S
C489 C490 1.390 . S
C490 C489 1.390 . S
C490 C491 1.394 . S
C490 C496 1.465 . S
C491 C486 1.399 . S
C491 C490 1.394 . S
C491 C492 1.516 . S
C492 C491 1.516 . S
C492 C493 1.502 . S
C492 C494 1.561 . S
C492 C495 1.526 . S
C493 H477 0.959 . S
C493 H478 0.959 . S
C493 H479 0.961 . S
C493 C492 1.502 . S
C494 H480 0.960 . S
C494 H481 0.961 . S
C494 H482 0.959 . S
C494 C492 1.561 . S
C495 C492 1.526 . S
C495 C496 1.396 . S
C495 C500 1.390 . S
C496 C490 1.465 . S
C496 C495 1.396 . S
C496 C497 1.399 . S
C497 H483 0.929 . S
C497 C496 1.399 . S
C497 C498 1.385 . S
C498 H484 0.931 . S
C498 C497 1.385 . S
C498 C499 1.389 . S
C499 C498 1.389 . S
C499 C500 1.387 . S
C500 H485 0.930 . S
C500 C495 1.390 . S
C500 C499 1.387 . S
H501 C513 0.930 . S
H502 C515 0.930 . S
H503 C516 0.930 . S
H504 C520 0.959 . S
H505 C520 0.959 . S
H506 C520 0.961 . S
H507 C521 0.960 . S
H508 C521 0.961 . S
H509 C521 0.959 . S
H510 C524 0.929 . S
H511 C525 0.931 . S
H512 C527 0.930 . S
C513 H501 0.930 . S
C513 C514 1.399 . S
C513 C518 1.399 . S
C514 C513 1.399 . S
C514 C515 1.376 . S
C515 H502 0.930 . S
C515 C514 1.376 . S
C515 C516 1.388 . S
C516 H503 0.930 . S
C516 C515 1.388 . S
C516 C517 1.390 . S
C517 C516 1.390 . S
C517 C518 1.394 . S
C517 C523 1.465 . S
C518 C513 1.399 . S
C518 C517 1.394 . S
C518 C519 1.516 . S
C519 C518 1.516 . S
C519 C520 1.502 . S
C519 C521 1.561 . S
C519 C522 1.526 . S
C520 H504 0.959 . S
C520 H505 0.959 . S
C520 H506 0.961 . S
C520 C519 1.502 . S
C521 H507 0.960 . S
C521 H508 0.961 . S
C521 H509 0.959 . S
C521 C519 1.561 . S
C522 C519 1.526 . S
C522 C523 1.396 . S
C522 C527 1.390 . S
C523 C517 1.465 . S
C523 C522 1.396 . S
C523 C524 1.399 . S
C524 H510 0.929 . S
C524 C523 1.399 . S
C524 C525 1.385 . S
C525 H511 0.931 . S
C525 C524 1.385 . S
C525 C526 1.389 . S
C526 C525 1.389 . S
C526 C527 1.387 . S
C527 H512 0.930 . S
C527 C522 1.390 . S
C527 C526 1.387 . S
H528 C540 0.930 . S
H529 C542 0.930 . S
H530 C543 0.930 . S
H531 C547 0.959 . S
H532 C547 0.959 . S
H533 C547 0.961 . S
H534 C548 0.960 . S
H535 C548 0.961 . S
H536 C548 0.959 . S
H537 C551 0.929 . S
H538 C552 0.931 . S
H539 C554 0.930 . S
C540 H528 0.930 . S
C540 C541 1.399 . S
C540 C545 1.399 . S
C541 C540 1.399 . S
C541 C542 1.376 . S
C542 H529 0.930 . S
C542 C541 1.376 . S
C542 C543 1.388 . S
C543 H530 0.930 . S
C543 C542 1.388 . S
C543 C544 1.390 . S
C544 C543 1.390 . S
C544 C545 1.394 . S
C544 C550 1.465 . S
C545 C540 1.399 . S
C545 C544 1.394 . S
C545 C546 1.516 . S
C546 C545 1.516 . S
C546 C547 1.502 . S
C546 C548 1.561 . S
C546 C549 1.526 . S
C547 H531 0.959 . S
C547 H532 0.959 . S
C547 H533 0.961 . S
C547 C546 1.502 . S
C548 H534 0.960 . S
C548 H535 0.961 . S
C548 H536 0.959 . S
C548 C546 1.561 . S
C549 C546 1.526 . S
C549 C550 1.396 . S
C549 C554 1.390 . S
C550 C544 1.465 . S
C550 C549 1.396 . S
C550 C551 1.399 . S
C551 H537 0.929 . S
C551 C550 1.399 . S
C551 C552 1.385 . S
C552 H538 0.931 . S
C552 C551 1.385 . S
C552 C553 1.389 . S
C553 C552 1.389 . S
C553 C554 1.387 . S
C554 H539 0.930 . S
C554 C549 1.390 . S
C554 C553 1.387 . S
H555 C567 0.930 1_565 S
H556 C569 0.930 . S
H557 C570 0.930 . S
H558 C574 0.959 . S
H559 C574 0.959 . S
H560 C574 0.961 . S
H561 C575 0.960 . S
H562 C575 0.961 . S
H563 C575 0.959 . S
H564 C578 0.929 . S
H565 C579 0.931 . S
H566 C581 0.930 . S
C567 H555 0.930 1_545 S
C567 C568 1.399 . S
C567 C572 1.399 1_545 S
C568 C567 1.399 . S
C568 C569 1.376 . S
C569 H556 0.930 . S
C569 C568 1.376 . S
C569 C570 1.388 . S
C570 H557 0.930 . S
C570 C569 1.388 . S
C570 C571 1.379 1_545 S
C571 C570 1.379 1_565 S
C571 C572 1.398 . S
C571 C577 1.474 . S
C572 C567 1.399 1_565 S
C572 C571 1.398 . S
C572 C573 1.516 . S
C573 C572 1.516 . S
C573 C574 1.502 . S
C573 C575 1.561 1_556 S
C573 C576 1.526 . S
C574 H558 0.959 . S
C574 H559 0.959 . S
C574 H560 0.961 . S
C574 C573 1.502 . S
C575 H561 0.960 . S
C575 H562 0.961 . S
C575 H563 0.959 . S
C575 C573 1.561 1_554 S
C576 C573 1.526 . S
C576 C577 1.396 . S
C576 C581 1.390 . S
C577 C571 1.474 . S
C577 C576 1.396 . S
C577 C578 1.399 . S
C578 H564 0.929 . S
C578 C577 1.399 . S
C578 C579 1.385 . S
C579 H565 0.931 . S
C579 C578 1.385 . S
C579 C580 1.389 . S
C580 C579 1.389 . S
C580 C581 1.387 . S
C581 H566 0.930 . S
C581 C576 1.390 . S
C581 C580 1.387 . S
H582 C594 0.930 . S
H583 C596 0.930 . S
H584 C597 0.930 . S
H585 C601 0.959 . S
H586 C601 0.959 . S
H587 C601 0.961 . S
H588 C602 0.960 . S
H589 C602 0.961 . S
H590 C602 0.959 . S
H591 C605 0.929 . S
H592 C606 0.925 1_545 S
H593 C608 0.930 . S
C594 H582 0.930 . S
C594 C595 1.399 . S
C594 C599 1.399 . S
C595 C594 1.399 . S
C595 C596 1.376 . S
C596 H583 0.930 . S
C596 C595 1.376 . S
C596 C597 1.388 . S
C597 H584 0.930 . S
C597 C596 1.388 . S
C597 C598 1.390 . S
C598 C597 1.390 . S
C598 C599 1.394 . S
C598 C604 1.465 . S
C599 C594 1.399 . S
C599 C598 1.394 . S
C599 C600 1.516 1_545 S
C600 C599 1.516 1_565 S
C600 C601 1.502 . S
C600 C602 1.561 . S
C600 C603 1.526 . S
C601 H585 0.959 . S
C601 H586 0.959 . S
C601 H587 0.961 . S
C601 C600 1.502 . S
C602 H588 0.960 . S
C602 H589 0.961 . S
C602 H590 0.959 . S
C602 C600 1.561 . S
C603 C600 1.526 . S
C603 C604 1.396 1_565 S
C603 C608 1.390 . S
C604 C598 1.465 . S
C604 C603 1.396 1_545 S
C604 C605 1.399 . S
C605 H591 0.929 . S
C605 C604 1.399 . S
C605 C606 1.359 1_545 S
C606 H592 0.925 1_565 S
C606 C605 1.359 1_565 S
C606 C607 1.423 . S
C607 C606 1.423 . S
C607 C608 1.387 . S
C608 H593 0.930 . S
C608 C603 1.390 . S
C608 C607 1.387 . S
H609 C621 0.930 . S
H610 C623 0.930 . S
H611 C624 0.930 . S
H612 C628 0.959 1_554 S
H613 C628 0.959 . S
H614 C628 0.961 . S
H615 C629 0.960 1_556 S
H616 C629 0.961 1_566 S
H617 C629 0.959 . S
H618 C632 0.929 . S
H619 C633 0.931 . S
H620 C635 0.930 . S
C621 H609 0.930 . S
C621 C622 1.399 . S
C621 C626 1.394 1_545 S
C622 C621 1.399 . S
C622 C623 1.376 . S
C623 H610 0.930 . S
C623 C622 1.376 . S
C623 C624 1.388 . S
C624 H611 0.930 . S
C624 C623 1.388 . S
C624 C625 1.390 1_545 S
C625 C624 1.390 1_565 S
C625 C626 1.394 . S
C625 C631 1.465 . S
C626 C621 1.394 1_565 S
C626 C625 1.394 . S
C626 C627 1.521 . S
C627 C626 1.521 . S
C627 C628 1.502 1_554 S
C627 C629 1.561 1_565 S
C627 C630 1.526 . S
C628 H612 0.959 1_556 S
C628 H613 0.959 . S
C628 H614 0.961 . S
C628 C627 1.502 1_556 S
C629 H615 0.960 1_554 S
C629 H616 0.961 1_544 S
C629 H617 0.959 . S
C629 C627 1.561 1_545 S
C630 C627 1.526 . S
C630 C631 1.396 . S
C630 C635 1.390 . S
C631 C625 1.465 . S
C631 C630 1.396 . S
C631 C632 1.399 . S
C632 H618 0.929 . S
C632 C631 1.399 . S
C632 C633 1.385 . S
C633 H619 0.931 . S
C633 C632 1.385 . S
C633 C634 1.389 . S
C634 C633 1.389 . S
C634 C635 1.387 . S
C635 H620 0.930 . S
C635 C630 1.390 . S
C635 C634 1.387 . S
H636 C648 0.930 . S
H637 C650 0.930 . S
H638 C651 0.930 . S
H639 C655 0.959 . S
H640 C655 0.959 . S
H641 C655 0.961 . S
H642 C656 0.960 . S
H643 C656 0.961 . S
H644 C656 0.959 . S
H645 C659 0.929 . S
H646 C660 0.931 . S
H647 C662 0.930 . S
C648 H636 0.930 . S
C648 C649 1.399 . S
C648 C653 1.399 . S
C649 C648 1.399 . S
C649 C650 1.376 . S
C650 H637 0.930 . S
C650 C649 1.376 . S
C650 C651 1.388 . S
C651 H638 0.930 . S
C651 C650 1.388 . S
C651 C652 1.390 . S
C652 C651 1.390 . S
C652 C653 1.394 . S
C652 C658 1.465 . S
C653 C648 1.399 . S
C653 C652 1.394 . S
C653 C654 1.516 . S
C654 C653 1.516 . S
C654 C655 1.502 . S
C654 C656 1.561 . S
C654 C657 1.526 . S
C655 H639 0.959 . S
C655 H640 0.959 . S
C655 H641 0.961 . S
C655 C654 1.502 . S
C656 H642 0.960 . S
C656 H643 0.961 . S
C656 H644 0.959 . S
C656 C654 1.561 . S
C657 C654 1.526 . S
C657 C658 1.396 . S
C657 C662 1.390 . S
C658 C652 1.465 . S
C658 C657 1.396 . S
C658 C659 1.399 . S
C659 H645 0.929 . S
C659 C658 1.399 . S
C659 C660 1.385 . S
C660 H646 0.931 . S
C660 C659 1.385 . S
C660 C661 1.389 . S
C661 C660 1.389 . S
C661 C662 1.387 . S
C662 H647 0.930 . S
C662 C657 1.390 . S
C662 C661 1.387 . S
H663 C675 0.930 . S
H664 C677 0.930 . S
H665 C678 0.930 . S
H666 C682 0.959 . S
H667 C682 0.959 . S
H668 C682 0.961 . S
H669 C683 0.960 . S
H670 C683 0.961 . S
H671 C683 0.959 . S
H672 C686 0.929 . S
H673 C687 0.931 . S
H674 C689 0.930 . S
C675 H663 0.930 . S
C675 C676 1.399 . S
C675 C680 1.399 . S
C676 C675 1.399 . S
C676 C677 1.376 . S
C677 H664 0.930 . S
C677 C676 1.376 . S
C677 C678 1.388 . S
C678 H665 0.930 . S
C678 C677 1.388 . S
C678 C679 1.390 . S
C679 C678 1.390 . S
C679 C680 1.394 . S
C679 C685 1.465 . S
C680 C675 1.399 . S
C680 C679 1.394 . S
C680 C681 1.516 . S
C681 C680 1.516 . S
C681 C682 1.502 . S
C681 C683 1.561 . S
C681 C684 1.526 . S
C682 H666 0.959 . S
C682 H667 0.959 . S
C682 H668 0.961 . S
C682 C681 1.502 . S
C683 H669 0.960 . S
C683 H670 0.961 . S
C683 H671 0.959 . S
C683 C681 1.561 . S
C684 C681 1.526 . S
C684 C685 1.396 . S
C684 C689 1.390 . S
C685 C679 1.465 . S
C685 C684 1.396 . S
C685 C686 1.399 . S
C686 H672 0.929 . S
C686 C685 1.399 . S
C686 C687 1.385 . S
C687 H673 0.931 . S
C687 C686 1.385 . S
C687 C688 1.389 . S
C688 C687 1.389 . S
C688 C689 1.387 . S
C689 H674 0.930 . S
C689 C684 1.390 . S
C689 C688 1.387 . S
H690 C702 0.930 . S
H691 C704 0.930 . S
H692 C705 0.930 . S
H693 C709 0.959 . S
H694 C709 0.959 . S
H695 C709 0.961 . S
H696 C710 0.960 . S
H697 C710 0.961 . S
H698 C710 0.963 . S
H699 C713 0.929 . S
H700 C714 0.931 . S
H701 C716 0.930 . S
C702 H690 0.930 . S
C702 C703 1.399 . S
C702 C707 1.399 . S
C703 C702 1.399 . S
C703 C704 1.376 . S
C704 H691 0.930 . S
C704 C703 1.376 . S
C704 C705 1.388 . S
C705 H692 0.930 . S
C705 C704 1.388 . S
C705 C706 1.390 . S
C706 C705 1.390 . S
C706 C707 1.394 . S
C706 C712 1.465 . S
C707 C702 1.399 . S
C707 C706 1.394 . S
C707 C708 1.516 . S
C708 C707 1.516 . S
C708 C709 1.502 . S
C708 C710 1.561 . S
C708 C711 1.526 . S
C709 H693 0.959 . S
C709 H694 0.959 . S
C709 H695 0.961 . S
C709 C708 1.502 . S
C710 H696 0.960 . S
C710 H697 0.961 . S
C710 H698 0.963 . S
C710 C708 1.561 . S
C711 C708 1.526 . S
C711 C712 1.396 . S
C711 C716 1.390 . S
C712 C706 1.465 . S
C712 C711 1.396 . S
C712 C713 1.399 . S
C713 H699 0.929 . S
C713 C712 1.399 . S
C713 C714 1.385 . S
C714 H700 0.931 . S
C714 C713 1.385 . S
C714 C715 1.389 . S
C715 C714 1.389 . S
C715 C716 1.387 . S
C716 H701 0.930 . S
C716 C711 1.390 . S
C716 C715 1.387 . S
H717 C729 0.930 . S
H718 C731 0.930 . S
H719 C732 0.930 . S
H720 C736 0.959 . S
H721 C736 0.959 . S
H722 C736 0.961 . S
H723 C737 0.960 . S
H724 C737 0.961 . S
H725 C737 0.959 . S
H726 C740 0.929 . S
H727 C741 0.931 . S
H728 C743 0.930 . S
C729 H717 0.930 . S
C729 C730 1.399 1_554 S
C729 C734 1.399 . S
C730 C729 1.399 1_556 S
C730 C731 1.376 . S
C731 H718 0.930 . S
C731 C730 1.376 . S
C731 C732 1.388 . S
C732 H719 0.930 . S
C732 C731 1.388 . S
C732 C733 1.390 1_556 S
C733 C732 1.390 1_554 S
C733 C734 1.394 . S
C733 C739 1.465 . S
C734 C729 1.399 . S
C734 C733 1.394 . S
C734 C735 1.516 . S
C735 C734 1.516 . S
C735 C736 1.502 . S
C735 C737 1.561 . S
C735 C738 1.526 . S
C736 H720 0.959 . S
C736 H721 0.959 . S
C736 H722 0.961 . S
C736 C735 1.502 . S
C737 H723 0.960 . S
C737 H724 0.961 . S
C737 H725 0.959 . S
C737 C735 1.561 . S
C738 C735 1.526 . S
C738 C739 1.396 . S
C738 C743 1.390 . S
C739 C733 1.465 . S
C739 C738 1.396 . S
C739 C740 1.399 . S
C740 H726 0.929 . S
C740 C739 1.399 . S
C740 C741 1.385 . S
C741 H727 0.931 . S
C741 C740 1.385 . S
C741 C742 1.389 . S
C742 C741 1.389 . S
C742 C743 1.387 . S
C743 H728 0.930 . S
C743 C738 1.390 . S
C743 C742 1.387 . S
H744 C756 0.930 . S
H745 C758 0.930 . S
H746 C759 0.930 . S
H747 C763 0.959 . S
H748 C763 0.959 . S
H749 C763 0.961 . S
H750 C764 0.960 . S
H751 C764 0.961 . S
H752 C764 0.959 . S
H753 C767 0.929 . S
H754 C768 0.931 . S
H755 C770 0.930 . S
C756 H744 0.930 . S
C756 C757 1.399 . S
C756 C761 1.399 . S
C757 C756 1.399 . S
C757 C758 1.376 . S
C758 H745 0.930 . S
C758 C757 1.376 . S
C758 C759 1.388 . S
C759 H746 0.930 . S
C759 C758 1.388 . S
C759 C760 1.390 . S
C760 C759 1.390 . S
C760 C761 1.394 . S
C760 C766 1.465 . S
C761 C756 1.399 . S
C761 C760 1.394 . S
C761 C762 1.516 . S
C762 C761 1.516 . S
C762 C763 1.502 . S
C762 C764 1.561 . S
C762 C765 1.526 . S
C763 H747 0.959 . S
C763 H748 0.959 . S
C763 H749 0.961 . S
C763 C762 1.502 . S
C764 H750 0.960 . S
C764 H751 0.961 . S
C764 H752 0.959 . S
C764 C762 1.561 . S
C765 C762 1.526 . S
C765 C766 1.396 . S
C765 C770 1.390 . S
C766 C760 1.465 . S
C766 C765 1.396 . S
C766 C767 1.399 . S
C767 H753 0.929 . S
C767 C766 1.399 . S
C767 C768 1.385 . S
C768 H754 0.931 . S
C768 C767 1.385 . S
C768 C769 1.389 . S
C769 C768 1.389 . S
C769 C770 1.387 . S
C770 H755 0.930 . S
C770 C765 1.390 . S
C770 C769 1.387 . S
H771 C783 0.930 . S
H772 C785 0.930 . S
H773 C786 0.930 . S
H774 C790 0.959 . S
H775 C790 0.959 . S
H776 C790 0.961 . S
H777 C791 0.960 . S
H778 C791 0.961 . S
H779 C791 0.959 . S
H780 C794 0.929 . S
H781 C795 0.931 . S
H782 C797 0.930 . S
C783 H771 0.930 . S
C783 C784 1.399 . S
C783 C788 1.399 . S
C784 C783 1.399 . S
C784 C785 1.376 . S
C785 H772 0.930 . S
C785 C784 1.376 . S
C785 C786 1.388 . S
C786 H773 0.930 . S
C786 C785 1.388 . S
C786 C787 1.390 . S
C787 C786 1.390 . S
C787 C788 1.394 . S
C787 C793 1.465 . S
C788 C783 1.399 . S
C788 C787 1.394 . S
C788 C789 1.516 . S
C789 C788 1.516 . S
C789 C790 1.502 . S
C789 C791 1.561 . S
C789 C792 1.526 . S
C790 H774 0.959 . S
C790 H775 0.959 . S
C790 H776 0.961 . S
C790 C789 1.502 . S
C791 H777 0.960 . S
C791 H778 0.961 . S
C791 H779 0.959 . S
C791 C789 1.561 . S
C792 C789 1.526 . S
C792 C793 1.396 . S
C792 C797 1.390 . S
C793 C787 1.465 . S
C793 C792 1.396 . S
C793 C794 1.399 . S
C794 H780 0.929 . S
C794 C793 1.399 . S
C794 C795 1.385 . S
C795 H781 0.931 . S
C795 C794 1.385 . S
C795 C796 1.389 . S
C796 C795 1.389 . S
C796 C797 1.387 . S
C797 H782 0.930 . S
C797 C792 1.390 . S
C797 C796 1.387 . S
H798 C810 0.930 . S
H799 C812 0.930 . S
H800 C813 0.930 . S
H801 C817 0.959 . S
H802 C817 0.959 . S
H803 C817 0.961 . S
H804 C818 0.960 . S
H805 C818 0.961 . S
H806 C818 0.959 . S
H807 C821 0.929 . S
H808 C822 0.931 . S
H809 C824 0.930 . S
C810 H798 0.930 . S
C810 C811 1.399 . S
C810 C815 1.399 . S
C811 C810 1.399 . S
C811 C812 1.376 . S
C812 H799 0.930 . S
C812 C811 1.376 . S
C812 C813 1.388 . S
C813 H800 0.930 . S
C813 C812 1.388 . S
C813 C814 1.390 . S
C814 C813 1.390 . S
C814 C815 1.394 . S
C814 C820 1.465 . S
C815 C810 1.399 . S
C815 C814 1.394 . S
C815 C816 1.516 . S
C816 C815 1.516 . S
C816 C817 1.502 . S
C816 C818 1.561 . S
C816 C819 1.526 . S
C817 H801 0.959 . S
C817 H802 0.959 . S
C817 H803 0.961 . S
C817 C816 1.502 . S
C818 H804 0.960 . S
C818 H805 0.961 . S
C818 H806 0.959 . S
C818 C816 1.561 . S
C819 C816 1.526 . S
C819 C820 1.396 . S
C819 C824 1.390 . S
C820 C814 1.465 . S
C820 C819 1.396 . S
C820 C821 1.399 . S
C821 H807 0.929 . S
C821 C820 1.399 . S
C821 C822 1.385 . S
C822 H808 0.931 . S
C822 C821 1.385 . S
C822 C823 1.389 . S
C823 C822 1.389 . S
C823 C824 1.387 . S
C824 H809 0.930 . S
C824 C819 1.390 . S
C824 C823 1.387 . S
H825 C837 0.930 . S
H826 C839 0.930 . S
H827 C840 0.930 . S
H828 C844 0.959 . S
H829 C844 0.959 . S
H830 C844 0.961 . S
H831 C845 0.960 . S
H832 C845 0.961 . S
H833 C845 0.959 . S
H834 C848 0.929 . S
H835 C849 0.931 . S
H836 C851 0.930 . S
C837 H825 0.930 . S
C837 C838 1.399 . S
C837 C842 1.399 . S
C838 C837 1.399 . S
C838 C839 1.376 . S
C839 H826 0.930 . S
C839 C838 1.376 . S
C839 C840 1.388 . S
C840 H827 0.930 . S
C840 C839 1.388 . S
C840 C841 1.390 . S
C841 C840 1.390 . S
C841 C842 1.394 . S
C841 C847 1.465 . S
C842 C837 1.399 . S
C842 C841 1.394 . S
C842 C843 1.516 . S
C843 C842 1.516 . S
C843 C844 1.502 . S
C843 C845 1.561 . S
C843 C846 1.526 . S
C844 H828 0.959 . S
C844 H829 0.959 . S
C844 H830 0.961 . S
C844 C843 1.502 . S
C845 H831 0.960 . S
C845 H832 0.961 . S
C845 H833 0.959 . S
C845 C843 1.561 . S
C846 C843 1.526 . S
C846 C847 1.396 . S
C846 C851 1.390 . S
C847 C841 1.465 . S
C847 C846 1.396 . S
C847 C848 1.399 . S
C848 H834 0.929 . S
C848 C847 1.399 . S
C848 C849 1.385 . S
C849 H835 0.931 . S
C849 C848 1.385 . S
C849 C850 1.389 . S
C850 C849 1.389 . S
C850 C851 1.387 . S
C851 H836 0.930 . S
C851 C846 1.390 . S
C851 C850 1.387 . S
H852 C864 0.930 . S
H853 C866 0.930 . S
H854 C867 0.930 . S
H855 C871 0.959 . S
H856 C871 0.959 . S
H857 C871 0.961 . S
H858 C872 0.960 . S
H859 C872 0.961 . S
H860 C872 0.959 . S
H861 C875 0.929 . S
H862 C876 0.931 . S
H863 C878 0.930 . S
C864 H852 0.930 . S
C864 C865 1.399 . S
C864 C869 1.399 . S
C865 C864 1.399 . S
C865 C866 1.376 . S
C866 H853 0.930 . S
C866 C865 1.376 . S
C866 C867 1.388 . S
C867 H854 0.930 . S
C867 C866 1.388 . S
C867 C868 1.390 . S
C868 C867 1.390 . S
C868 C869 1.394 . S
C868 C874 1.465 . S
C869 C864 1.399 . S
C869 C868 1.394 . S
C869 C870 1.516 . S
C870 C869 1.516 . S
C870 C871 1.502 . S
C870 C872 1.561 . S
C870 C873 1.526 . S
C871 H855 0.959 . S
C871 H856 0.959 . S
C871 H857 0.961 . S
C871 C870 1.502 . S
C872 H858 0.960 . S
C872 H859 0.961 . S
C872 H860 0.959 . S
C872 C870 1.561 . S
C873 C870 1.526 . S
C873 C874 1.396 . S
C873 C878 1.390 . S
C874 C868 1.465 . S
C874 C873 1.396 . S
C874 C875 1.399 . S
C875 H861 0.929 . S
C875 C874 1.399 . S
C875 C876 1.385 . S
C876 H862 0.931 . S
C876 C875 1.385 . S
C876 C877 1.389 . S
C877 C876 1.389 . S
C877 C878 1.387 . S
C878 H863 0.930 . S
C878 C873 1.390 . S
C878 C877 1.387 . S
H879 C891 0.930 . S
H880 C893 0.930 . S
H881 C894 0.930 . S
H882 C898 0.959 . S
H883 C898 0.959 . S
H884 C898 0.961 . S
H885 C899 0.960 . S
H886 C899 0.961 1_554 S
H887 C899 0.959 . S
H888 C902 0.929 . S
H889 C903 0.931 . S
H890 C905 0.930 . S
C891 H879 0.930 . S
C891 C892 1.399 . S
C891 C896 1.399 . S
C892 C891 1.399 . S
C892 C893 1.376 . S
C893 H880 0.930 . S
C893 C892 1.376 . S
C893 C894 1.388 . S
C894 H881 0.930 . S
C894 C893 1.388 . S
C894 C895 1.390 . S
C895 C894 1.390 . S
C895 C896 1.394 . S
C895 C901 1.465 . S
C896 C891 1.399 . S
C896 C895 1.394 . S
C896 C897 1.516 . S
C897 C896 1.516 . S
C897 C898 1.502 . S
C897 C899 1.561 . S
C897 C900 1.526 . S
C898 H882 0.959 . S
C898 H883 0.959 . S
C898 H884 0.961 . S
C898 C897 1.502 . S
C899 H885 0.960 . S
C899 H886 0.961 1_556 S
C899 H887 0.959 . S
C899 C897 1.561 . S
C900 C897 1.526 . S
C900 C901 1.396 . S
C900 C905 1.390 1_556 S
C901 C895 1.465 . S
C901 C900 1.396 . S
C901 C902 1.399 . S
C902 H888 0.929 . S
C902 C901 1.399 . S
C902 C903 1.385 . S
C903 H889 0.931 . S
C903 C902 1.385 . S
C903 C904 1.389 1_556 S
C904 C903 1.389 1_554 S
C904 C905 1.387 . S
C905 H890 0.930 . S
C905 C900 1.390 1_554 S
C905 C904 1.387 . S
H906 C918 0.930 . S
H907 C920 0.930 . S
H908 C921 0.930 . S
H909 C925 0.959 . S
H910 C925 0.959 . S
H911 C925 0.961 . S
H912 C926 0.960 . S
H913 C926 0.961 . S
H914 C926 0.959 . S
H915 C929 0.929 . S
H916 C930 0.931 . S
H917 C932 0.930 . S
C918 H906 0.930 . S
C918 C919 1.399 . S
C918 C923 1.399 . S
C919 C918 1.399 . S
C919 C920 1.376 . S
C920 H907 0.930 . S
C920 C919 1.376 . S
C920 C921 1.388 . S
C921 H908 0.930 . S
C921 C920 1.388 . S
C921 C922 1.390 . S
C922 C921 1.390 . S
C922 C923 1.394 . S
C922 C928 1.465 . S
C923 C918 1.399 . S
C923 C922 1.394 . S
C923 C924 1.516 . S
C924 C923 1.516 . S
C924 C925 1.502 . S
C924 C926 1.561 . S
C924 C927 1.526 . S
C925 H909 0.959 . S
C925 H910 0.959 . S
C925 H911 0.961 . S
C925 C924 1.502 . S
C926 H912 0.960 . S
C926 H913 0.961 . S
C926 H914 0.959 . S
C926 C924 1.561 . S
C927 C924 1.526 . S
C927 C928 1.396 . S
C927 C932 1.390 . S
C928 C922 1.465 . S
C928 C927 1.396 . S
C928 C929 1.399 . S
C929 H915 0.929 . S
C929 C928 1.399 . S
C929 C930 1.385 . S
C930 H916 0.931 . S
C930 C929 1.385 . S
C930 C931 1.389 . S
C931 C930 1.389 . S
C931 C932 1.387 . S
C932 H917 0.930 . S
C932 C927 1.390 . S
C932 C931 1.387 . S
H933 C945 0.930 . S
H934 C947 0.930 . S
H935 C948 0.930 . S
H936 C952 0.959 . S
H937 C952 0.959 . S
H938 C952 0.961 . S
H939 C953 0.960 . S
H940 C953 0.961 . S
H941 C953 0.959 1_565 S
H942 C956 0.929 . S
H943 C957 0.931 . S
H944 C959 0.930 . S
C945 H933 0.930 . S
C945 C946 1.399 . S
C945 C950 1.399 1_565 S
C946 C945 1.399 . S
C946 C947 1.376 . S
C947 H934 0.930 . S
C947 C946 1.376 . S
C947 C948 1.388 . S
C948 H935 0.930 . S
C948 C947 1.388 . S
C948 C949 1.390 1_565 S
C949 C948 1.390 1_545 S
C949 C950 1.394 . S
C949 C955 1.465 . S
C950 C945 1.399 1_545 S
C950 C949 1.394 . S
C950 C951 1.516 . S
C951 C950 1.516 . S
C951 C952 1.502 . S
C951 C953 1.561 . S
C951 C954 1.526 . S
C952 H936 0.959 . S
C952 H937 0.959 . S
C952 H938 0.961 . S
C952 C951 1.502 . S
C953 H939 0.960 . S
C953 H940 0.961 . S
C953 H941 0.959 1_545 S
C953 C951 1.561 . S
C954 C951 1.526 . S
C954 C955 1.396 . S
C954 C959 1.390 . S
C955 C949 1.465 . S
C955 C954 1.396 . S
C955 C956 1.399 . S
C956 H942 0.929 . S
C956 C955 1.399 . S
C956 C957 1.385 . S
C957 H943 0.931 . S
C957 C956 1.385 . S
C957 C958 1.389 . S
C958 C957 1.389 . S
C958 C959 1.387 . S
C959 H944 0.930 . S
C959 C954 1.390 . S
C959 C958 1.387 . S
H960 C972 0.930 . S
H961 C974 0.930 . S
H962 C975 0.930 . S
H963 C979 0.959 . S
H964 C979 0.959 . S
H965 C979 0.961 . S
H966 C980 0.960 . S
H967 C980 0.961 . S
H968 C980 0.959 . S
H969 C983 0.929 . S
H970 C984 0.931 . S
H971 C986 0.930 . S
C972 H960 0.930 . S
C972 C973 1.399 . S
C972 C977 1.399 . S
C973 C972 1.399 . S
C973 C974 1.376 . S
C974 H961 0.930 . S
C974 C973 1.376 . S
C974 C975 1.388 . S
C975 H962 0.930 . S
C975 C974 1.388 . S
C975 C976 1.390 . S
C976 C975 1.390 . S
C976 C977 1.394 . S
C976 C982 1.465 . S
C977 C972 1.399 . S
C977 C976 1.394 . S
C977 C978 1.516 . S
C978 C977 1.516 . S
C978 C979 1.502 . S
C978 C980 1.561 . S
C978 C981 1.526 . S
C979 H963 0.959 . S
C979 H964 0.959 . S
C979 H965 0.961 . S
C979 C978 1.502 . S
C980 H966 0.960 . S
C980 H967 0.961 . S
C980 H968 0.959 . S
C980 C978 1.561 . S
C981 C978 1.526 . S
C981 C982 1.396 . S
C981 C986 1.390 . S
C982 C976 1.465 . S
C982 C981 1.396 . S
C982 C983 1.399 . S
C983 H969 0.929 . S
C983 C982 1.399 . S
C983 C984 1.385 . S
C984 H970 0.931 . S
C984 C983 1.385 . S
C984 C985 1.389 . S
C985 C984 1.389 . S
C985 C986 1.387 . S
C986 H971 0.930 . S
C986 C981 1.390 . S
C986 C985 1.387 . S
H987 C999 0.930 . S
H988 C1001 0.930 . S
H989 C1002 0.930 . S
H990 C1006 0.959 . S
H991 C1006 0.959 . S
H992 C1006 0.961 . S
H993 C1007 0.960 . S
H994 C1007 0.961 . S
H995 C1007 0.959 . S
H996 C1010 0.929 . S
H997 C1011 0.931 . S
H998 C1013 0.930 . S
C999 H987 0.930 . S
C999 C1000 1.399 . S
C999 C1004 1.399 . S
C1000 C999 1.399 . S
C1000 C1001 1.376 . S
C1001 H988 0.930 . S
C1001 C1000 1.376 . S
C1001 C1002 1.388 . S
C1002 H989 0.930 . S
C1002 C1001 1.388 . S
C1002 C1003 1.390 . S
C1003 C1002 1.390 . S
C1003 C1004 1.394 . S
C1003 C1009 1.465 . S
C1004 C999 1.399 . S
C1004 C1003 1.394 . S
C1004 C1005 1.516 . S
C1005 C1004 1.516 . S
C1005 C1006 1.502 . S
C1005 C1007 1.561 . S
C1005 C1008 1.526 . S
C1006 H990 0.959 . S
C1006 H991 0.959 . S
C1006 H992 0.961 . S
C1006 C1005 1.502 . S
C1007 H993 0.960 . S
C1007 H994 0.961 . S
C1007 H995 0.959 . S
C1007 C1005 1.561 . S
C1008 C1005 1.526 . S
C1008 C1009 1.396 . S
C1008 C1013 1.390 . S
C1009 C1003 1.465 . S
C1009 C1008 1.396 . S
C1009 C1010 1.399 . S
C1010 H996 0.929 . S
C1010 C1009 1.399 . S
C1010 C1011 1.385 . S
C1011 H997 0.931 . S
C1011 C1010 1.385 . S
C1011 C1012 1.389 . S
C1012 C1011 1.389 . S
C1012 C1013 1.387 . S
C1013 H998 0.930 . S
C1013 C1008 1.390 . S
C1013 C1012 1.387 . S
H1014 C1026 0.930 . S
H1015 C1028 0.930 . S
H1016 C1029 0.930 . S
H1017 C1033 0.959 . S
H1018 C1033 0.959 . S
H1019 C1033 0.961 . S
H1020 C1034 0.960 . S
H1021 C1034 0.961 . S
H1022 C1034 0.959 . S
H1023 C1037 0.929 . S
H1024 C1038 0.931 . S
H1025 C1040 0.930 . S
C1026 H1014 0.930 . S
C1026 C1027 1.399 . S
C1026 C1031 1.399 . S
C1027 C1026 1.399 . S
C1027 C1028 1.376 . S
C1028 H1015 0.930 . S
C1028 C1027 1.376 . S
C1028 C1029 1.388 . S
C1029 H1016 0.930 . S
C1029 C1028 1.388 . S
C1029 C1030 1.390 . S
C1030 C1029 1.390 . S
C1030 C1031 1.394 . S
C1030 C1036 1.465 . S
C1031 C1026 1.399 . S
C1031 C1030 1.394 . S
C1031 C1032 1.516 . S
C1032 C1031 1.516 . S
C1032 C1033 1.502 . S
C1032 C1034 1.561 . S
C1032 C1035 1.526 . S
C1033 H1017 0.959 . S
C1033 H1018 0.959 . S
C1033 H1019 0.961 . S
C1033 C1032 1.502 . S
C1034 H1020 0.960 . S
C1034 H1021 0.961 . S
C1034 H1022 0.959 . S
C1034 C1032 1.561 . S
C1035 C1032 1.526 . S
C1035 C1036 1.396 . S
C1035 C1040 1.390 . S
C1036 C1030 1.465 . S
C1036 C1035 1.396 . S
C1036 C1037 1.399 . S
C1037 H1023 0.929 . S
C1037 C1036 1.399 . S
C1037 C1038 1.385 . S
C1038 H1024 0.931 . S
C1038 C1037 1.385 . S
C1038 C1039 1.389 . S
C1039 C1038 1.389 . S
C1039 C1040 1.387 . S
C1040 H1025 0.930 . S
C1040 C1035 1.390 . S
C1040 C1039 1.387 . S
H1041 C1053 0.930 1_556 S
H1042 C1055 0.930 . S
H1043 C1056 0.930 . S
H1044 C1060 0.959 . S
H1045 C1060 0.959 . S
H1046 C1060 0.961 . S
H1047 C1061 0.960 . S
H1048 C1061 0.961 1_556 S
H1049 C1061 0.959 . S
H1050 C1064 0.929 . S
H1051 C1065 0.931 . S
H1052 C1067 0.930 . S
C1053 H1041 0.930 1_554 S
C1053 C1054 1.399 . S
C1053 C1058 1.399 1_554 S
C1054 C1053 1.399 . S
C1054 C1055 1.376 . S
C1055 H1042 0.930 . S
C1055 C1054 1.376 . S
C1055 C1056 1.388 . S
C1056 H1043 0.930 . S
C1056 C1055 1.388 . S
C1056 C1057 1.390 . S
C1057 C1056 1.390 . S
C1057 C1058 1.394 1_554 S
C1057 C1063 1.465 . S
C1058 C1053 1.399 1_556 S
C1058 C1057 1.394 1_556 S
C1058 C1059 1.516 . S
C1059 C1058 1.516 . S
C1059 C1060 1.502 . S
C1059 C1061 1.561 1_556 S
C1059 C1062 1.526 . S
C1060 H1044 0.959 . S
C1060 H1045 0.959 . S
C1060 H1046 0.961 . S
C1060 C1059 1.502 . S
C1061 H1047 0.960 . S
C1061 H1048 0.961 1_554 S
C1061 H1049 0.959 . S
C1061 C1059 1.561 1_554 S
C1062 C1059 1.526 . S
C1062 C1063 1.396 1_556 S
C1062 C1067 1.390 . S
C1063 C1057 1.465 . S
C1063 C1062 1.396 1_554 S
C1063 C1064 1.399 . S
C1064 H1050 0.929 . S
C1064 C1063 1.399 . S
C1064 C1065 1.385 1_554 S
C1065 H1051 0.931 . S
C1065 C1064 1.385 1_556 S
C1065 C1066 1.389 . S
C1066 C1065 1.389 . S
C1066 C1067 1.387 . S
C1067 H1052 0.930 . S
C1067 C1062 1.390 . S
C1067 C1066 1.387 . S
H1068 C1080 0.930 . S
H1069 C1082 0.930 . S
H1070 C1083 0.930 . S
H1071 C1087 0.959 . S
H1072 C1087 0.959 . S
H1073 C1087 0.961 . S
H1074 C1088 0.960 . S
H1075 C1088 0.961 . S
H1076 C1088 0.959 . S
H1077 C1091 0.929 . S
H1078 C1092 0.931 . S
H1079 C1094 0.930 . S
C1080 H1068 0.930 . S
C1080 C1081 1.399 . S
C1080 C1085 1.399 . S
C1081 C1080 1.399 . S
C1081 C1082 1.376 . S
C1082 H1069 0.930 . S
C1082 C1081 1.376 . S
C1082 C1083 1.388 . S
C1083 H1070 0.930 . S
C1083 C1082 1.388 . S
C1083 C1084 1.390 . S
C1084 C1083 1.390 . S
C1084 C1085 1.394 . S
C1084 C1090 1.465 . S
C1085 C1080 1.399 . S
C1085 C1084 1.394 . S
C1085 C1086 1.516 . S
C1086 C1085 1.516 . S
C1086 C1087 1.502 . S
C1086 C1088 1.561 . S
C1086 C1089 1.526 . S
C1087 H1071 0.959 . S
C1087 H1072 0.959 . S
C1087 H1073 0.961 . S
C1087 C1086 1.502 . S
C1088 H1074 0.960 . S
C1088 H1075 0.961 . S
C1088 H1076 0.959 . S
C1088 C1086 1.561 . S
C1089 C1086 1.526 . S
C1089 C1090 1.396 . S
C1089 C1094 1.390 . S
C1090 C1084 1.465 . S
C1090 C1089 1.396 . S
C1090 C1091 1.399 . S
C1091 H1077 0.929 . S
C1091 C1090 1.399 . S
C1091 C1092 1.385 . S
C1092 H1078 0.931 . S
C1092 C1091 1.385 . S
C1092 C1093 1.389 . S
C1093 C1092 1.389 . S
C1093 C1094 1.387 . S
C1094 H1079 0.930 . S
C1094 C1089 1.390 . S
C1094 C1093 1.387 . S
H1095 C1107 0.930 . S
H1096 C1109 0.930 . S
H1097 C1110 0.924 1_565 S
H1098 C1114 0.959 . S
H1099 C1114 0.959 . S
H1100 C1114 0.961 . S
H1101 C1115 0.960 . S
H1102 C1115 0.961 . S
H1103 C1115 0.959 . S
H1104 C1118 0.929 . S
H1105 C1119 0.931 . S
H1106 C1121 0.930 . S
C1107 H1095 0.930 . S
C1107 C1108 1.399 . S
C1107 C1112 1.399 . S
C1108 C1107 1.399 . S
C1108 C1109 1.376 . S
C1109 H1096 0.930 . S
C1109 C1108 1.376 . S
C1109 C1110 1.388 . S
C1110 H1097 0.924 1_545 S
C1110 C1109 1.388 . S
C1110 C1111 1.390 . S
C1111 C1110 1.390 . S
C1111 C1112 1.394 . S
C1111 C1117 1.465 1_545 S
C1112 C1107 1.399 . S
C1112 C1111 1.394 . S
C1112 C1113 1.516 . S
C1113 C1112 1.516 . S
C1113 C1114 1.502 . S
C1113 C1115 1.561 . S
C1113 C1116 1.526 1_545 S
C1114 H1098 0.959 . S
C1114 H1099 0.959 . S
C1114 H1100 0.961 . S
C1114 C1113 1.502 . S
C1115 H1101 0.960 . S
C1115 H1102 0.961 . S
C1115 H1103 0.959 . S
C1115 C1113 1.561 . S
C1116 C1113 1.526 1_565 S
C1116 C1117 1.396 . S
C1116 C1121 1.390 . S
C1117 C1111 1.465 1_565 S
C1117 C1116 1.396 . S
C1117 C1118 1.399 . S
C1118 H1104 0.929 . S
C1118 C1117 1.399 . S
C1118 C1119 1.385 . S
C1119 H1105 0.931 . S
C1119 C1118 1.385 . S
C1119 C1120 1.389 . S
C1120 C1119 1.389 . S
C1120 C1121 1.387 . S
C1121 H1106 0.930 . S
C1121 C1116 1.390 . S
C1121 C1120 1.387 . S
H1122 C1134 0.930 . S
H1123 C1136 0.930 . S
H1124 C1137 0.930 . S
H1125 C1141 0.959 . S
H1126 C1141 0.959 . S
H1127 C1141 0.961 1_554 S
H1128 C1142 0.939 1_554 S
H1129 C1142 0.982 . S
H1130 C1142 0.956 1_554 S
H1131 C1145 0.929 . S
H1132 C1146 0.931 . S
H1133 C1148 0.930 . S
C1134 H1122 0.930 . S
C1134 C1135 1.399 . S
C1134 C1139 1.399 . S
C1135 C1134 1.399 . S
C1135 C1136 1.376 . S
C1136 H1123 0.930 . S
C1136 C1135 1.376 . S
C1136 C1137 1.388 . S
C1137 H1124 0.930 . S
C1137 C1136 1.388 . S
C1137 C1138 1.390 . S
C1138 C1137 1.390 . S
C1138 C1139 1.394 . S
C1138 C1144 1.465 1_554 S
C1139 C1134 1.399 . S
C1139 C1138 1.394 . S
C1139 C1140 1.516 1_554 S
C1140 C1139 1.516 1_556 S
C1140 C1141 1.502 . S
C1140 C1142 1.565 . S
C1140 C1143 1.526 . S
C1141 H1125 0.959 . S
C1141 H1126 0.959 . S
C1141 H1127 0.961 1_556 S
C1141 C1140 1.502 . S
C1142 H1128 0.939 1_556 S
C1142 H1129 0.982 . S
C1142 H1130 0.956 1_556 S
C1142 C1140 1.565 . S
C1143 C1140 1.526 . S
C1143 C1144 1.396 . S
C1143 C1148 1.390 . S
C1144 C1138 1.465 1_556 S
C1144 C1143 1.396 . S
C1144 C1145 1.399 . S
C1145 H1131 0.929 . S
C1145 C1144 1.399 . S
C1145 C1146 1.385 . S
C1146 H1132 0.931 . S
C1146 C1145 1.385 . S
C1146 C1147 1.389 . S
C1147 C1146 1.389 . S
C1147 C1148 1.387 . S
C1148 H1133 0.930 . S
C1148 C1143 1.390 . S
C1148 C1147 1.387 . S
H1149 C1161 0.930 . S
H1150 C1163 0.930 . S
H1151 C1164 0.930 . S
H1152 C1168 0.959 . S
H1153 C1168 0.959 . S
H1154 C1168 0.961 . S
H1155 C1169 0.960 . S
H1156 C1169 0.961 . S
H1157 C1169 0.959 . S
H1158 C1172 0.929 . S
H1159 C1173 0.931 . S
H1160 C1175 0.930 . S
C1161 H1149 0.930 . S
C1161 C1162 1.399 . S
C1161 C1166 1.399 . S
C1162 C1161 1.399 . S
C1162 C1163 1.376 . S
C1163 H1150 0.930 . S
C1163 C1162 1.376 . S
C1163 C1164 1.388 . S
C1164 H1151 0.930 . S
C1164 C1163 1.388 . S
C1164 C1165 1.390 . S
C1165 C1164 1.390 . S
C1165 C1166 1.394 . S
C1165 C1171 1.465 1_545 S
C1166 C1161 1.399 . S
C1166 C1165 1.394 . S
C1166 C1167 1.516 . S
C1167 C1166 1.516 . S
C1167 C1168 1.502 . S
C1167 C1169 1.561 . S
C1167 C1170 1.526 1_545 S
C1168 H1152 0.959 . S
C1168 H1153 0.959 . S
C1168 H1154 0.961 . S
C1168 C1167 1.502 . S
C1169 H1155 0.960 . S
C1169 H1156 0.961 . S
C1169 H1157 0.959 . S
C1169 C1167 1.561 . S
C1170 C1167 1.526 1_565 S
C1170 C1171 1.396 . S
C1170 C1175 1.390 . S
C1171 C1165 1.465 1_565 S
C1171 C1170 1.396 . S
C1171 C1172 1.399 . S
C1172 H1158 0.929 . S
C1172 C1171 1.399 . S
C1172 C1173 1.385 . S
C1173 H1159 0.931 . S
C1173 C1172 1.385 . S
C1173 C1174 1.389 . S
C1174 C1173 1.389 . S
C1174 C1175 1.387 . S
C1175 H1160 0.930 . S
C1175 C1170 1.390 . S
C1175 C1174 1.387 . S
H1176 C1188 0.930 . S
H1177 C1190 0.930 . S
H1178 C1191 0.930 . S
H1179 C1195 0.959 . S
H1180 C1195 0.959 . S
H1181 C1195 0.961 . S
H1182 C1196 0.960 . S
H1183 C1196 0.961 . S
H1184 C1196 0.959 . S
H1185 C1199 0.929 . S
H1186 C1200 0.931 . S
H1187 C1202 0.930 . S
C1188 H1176 0.930 . S
C1188 C1189 1.399 1_554 S
C1188 C1193 1.399 . S
C1189 C1188 1.399 1_556 S
C1189 C1190 1.376 . S
C1190 H1177 0.930 . S
C1190 C1189 1.376 . S
C1190 C1191 1.388 . S
C1191 H1178 0.930 . S
C1191 C1190 1.388 . S
C1191 C1192 1.390 . S
C1192 C1191 1.390 . S
C1192 C1193 1.394 1_556 S
C1192 C1198 1.465 . S
C1193 C1188 1.399 . S
C1193 C1192 1.394 1_554 S
C1193 C1194 1.516 . S
C1194 C1193 1.516 . S
C1194 C1195 1.502 . S
C1194 C1196 1.561 . S
C1194 C1197 1.526 . S
C1195 H1179 0.959 . S
C1195 H1180 0.959 . S
C1195 H1181 0.961 . S
C1195 C1194 1.502 . S
C1196 H1182 0.960 . S
C1196 H1183 0.961 . S
C1196 H1184 0.959 . S
C1196 C1194 1.561 . S
C1197 C1194 1.526 . S
C1197 C1198 1.396 1_554 S
C1197 C1202 1.390 . S
C1198 C1192 1.465 . S
C1198 C1197 1.396 1_556 S
C1198 C1199 1.399 . S
C1199 H1185 0.929 . S
C1199 C1198 1.399 . S
C1199 C1200 1.385 . S
C1200 H1186 0.931 . S
C1200 C1199 1.385 . S
C1200 C1201 1.389 . S
C1201 C1200 1.389 . S
C1201 C1202 1.387 1_556 S
C1202 H1187 0.930 . S
C1202 C1197 1.390 . S
C1202 C1201 1.387 1_554 S
H1203 C1215 0.930 . S
H1204 C1217 0.930 . S
H1205 C1218 0.930 . S
H1206 C1222 0.959 . S
H1207 C1222 0.959 . S
H1208 C1222 0.961 . S
H1209 C1223 0.960 . S
H1210 C1223 0.961 . S
H1211 C1223 0.959 . S
H1212 C1226 0.929 . S
H1213 C1227 0.931 . S
H1214 C1229 0.930 . S
C1215 H1203 0.930 . S
C1215 C1216 1.399 1_554 S
C1215 C1220 1.399 . S
C1216 C1215 1.399 1_556 S
C1216 C1217 1.376 . S
C1217 H1204 0.930 . S
C1217 C1216 1.376 . S
C1217 C1218 1.388 1_655 S
C1218 H1205 0.930 . S
C1218 C1217 1.388 1_455 S
C1218 C1219 1.390 . S
C1219 C1218 1.390 . S
C1219 C1220 1.394 1_456 S
C1219 C1225 1.465 . S
C1220 C1215 1.399 . S
C1220 C1219 1.394 1_654 S
C1220 C1221 1.516 . S
C1221 C1220 1.516 . S
C1221 C1222 1.502 . S
C1221 C1223 1.561 1_655 S
C1221 C1224 1.526 1_655 S
C1222 H1206 0.959 . S
C1222 H1207 0.959 . S
C1222 H1208 0.961 . S
C1222 C1221 1.502 . S
C1223 H1209 0.960 . S
C1223 H1210 0.961 . S
C1223 H1211 0.959 . S
C1223 C1221 1.561 1_455 S
C1224 C1221 1.526 1_455 S
C1224 C1225 1.396 1_554 S
C1224 C1229 1.390 . S
C1225 C1219 1.465 . S
C1225 C1224 1.396 1_556 S
C1225 C1226 1.399 . S
C1226 H1212 0.929 . S
C1226 C1225 1.399 . S
C1226 C1227 1.385 . S
C1227 H1213 0.931 . S
C1227 C1226 1.385 . S
C1227 C1228 1.389 . S
C1228 C1227 1.389 . S
C1228 C1229 1.387 1_556 S
C1229 H1214 0.930 . S
C1229 C1224 1.390 . S
C1229 C1228 1.387 1_554 S
H1230 C1242 0.930 . S
H1231 C1244 0.930 . S
H1232 C1245 0.930 . S
H1233 C1249 0.959 . S
H1234 C1249 0.959 1_655 S
H1235 C1249 0.961 . S
H1236 C1250 0.960 . S
H1237 C1250 0.961 . S
H1238 C1250 0.959 . S
H1239 C1253 0.929 . S
H1240 C1254 0.931 . S
H1241 C1256 0.930 . S
C1242 H1230 0.930 . S
C1242 C1243 1.399 . S
C1242 C1247 1.399 . S
C1243 C1242 1.399 . S
C1243 C1244 1.376 . S
C1244 H1231 0.930 . S
C1244 C1243 1.376 . S
C1244 C1245 1.388 . S
C1245 H1232 0.930 . S
C1245 C1244 1.388 . S
C1245 C1246 1.390 . S
C1246 C1245 1.390 . S
C1246 C1247 1.394 . S
C1246 C1252 1.465 1_455 S
C1247 C1242 1.399 . S
C1247 C1246 1.394 . S
C1247 C1248 1.516 1_455 S
C1248 C1247 1.516 1_655 S
C1248 C1249 1.502 1_655 S
C1248 C1250 1.561 . S
C1248 C1251 1.526 . S
C1249 H1233 0.959 . S
C1249 H1234 0.959 1_455 S
C1249 H1235 0.961 . S
C1249 C1248 1.502 1_455 S
C1250 H1236 0.960 . S
C1250 H1237 0.961 . S
C1250 H1238 0.959 . S
C1250 C1248 1.561 . S
C1251 C1248 1.526 . S
C1251 C1252 1.396 . S
C1251 C1256 1.390 . S
C1252 C1246 1.465 1_655 S
C1252 C1251 1.396 . S
C1252 C1253 1.399 . S
C1253 H1239 0.929 . S
C1253 C1252 1.399 . S
C1253 C1254 1.385 . S
C1254 H1240 0.931 . S
C1254 C1253 1.385 . S
C1254 C1255 1.389 . S
C1255 C1254 1.389 . S
C1255 C1256 1.387 . S
C1256 H1241 0.930 . S
C1256 C1251 1.390 . S
C1256 C1255 1.387 . S
H1257 C1269 0.930 . S
H1258 C1271 0.930 . S
H1259 C1272 0.930 . S
H1260 C1276 0.959 . S
H1261 C1276 0.959 . S
H1262 C1276 0.961 . S
H1263 C1277 0.960 . S
H1264 C1277 0.961 . S
H1265 C1277 0.959 . S
H1266 C1280 0.929 . S
H1267 C1281 0.931 . S
H1268 C1283 0.930 . S
C1269 H1257 0.930 . S
C1269 C1270 1.399 . S
C1269 C1274 1.399 . S
C1270 C1269 1.399 . S
C1270 C1271 1.376 . S
C1271 H1258 0.930 . S
C1271 C1270 1.376 . S
C1271 C1272 1.388 . S
C1272 H1259 0.930 . S
C1272 C1271 1.388 . S
C1272 C1273 1.390 . S
C1273 C1272 1.390 . S
C1273 C1274 1.394 . S
C1273 C1279 1.465 . S
C1274 C1269 1.399 . S
C1274 C1273 1.394 . S
C1274 C1275 1.516 . S
C1275 C1274 1.516 . S
C1275 C1276 1.502 . S
C1275 C1277 1.561 . S
C1275 C1278 1.526 . S
C1276 H1260 0.959 . S
C1276 H1261 0.959 . S
C1276 H1262 0.961 . S
C1276 C1275 1.502 . S
C1277 H1263 0.960 . S
C1277 H1264 0.961 . S
C1277 H1265 0.959 . S
C1277 C1275 1.561 . S
C1278 C1275 1.526 . S
C1278 C1279 1.396 . S
C1278 C1283 1.390 . S
C1279 C1273 1.465 . S
C1279 C1278 1.396 . S
C1279 C1280 1.399 . S
C1280 H1266 0.929 . S
C1280 C1279 1.399 . S
C1280 C1281 1.385 . S
C1281 H1267 0.931 . S
C1281 C1280 1.385 . S
C1281 C1282 1.389 . S
C1282 C1281 1.389 . S
C1282 C1283 1.387 . S
C1283 H1268 0.930 . S
C1283 C1278 1.390 . S
C1283 C1282 1.387 . S
H1284 C1296 0.930 . S
H1285 C1298 0.930 . S
H1286 C1299 0.930 . S
H1287 C1303 0.959 . S
H1288 C1303 0.959 . S
H1289 C1303 0.961 . S
H1290 C1304 0.960 . S
H1291 C1304 0.961 . S
H1292 C1304 0.959 . S
H1293 C1307 0.929 1_455 S
H1294 C1308 0.931 . S
H1295 C1310 0.930 . S
C1296 H1284 0.930 . S
C1296 C1297 1.399 . S
C1296 C1301 1.399 . S
C1297 C1296 1.399 . S
C1297 C1298 1.376 . S
C1298 H1285 0.930 . S
C1298 C1297 1.376 . S
C1298 C1299 1.388 . S
C1299 H1286 0.930 . S
C1299 C1298 1.388 . S
C1299 C1300 1.390 . S
C1300 C1299 1.390 . S
C1300 C1301 1.394 . S
C1300 C1306 1.465 1_455 S
C1301 C1296 1.399 . S
C1301 C1300 1.394 . S
C1301 C1302 1.516 1_455 S
C1302 C1301 1.516 1_655 S
C1302 C1303 1.502 . S
C1302 C1304 1.561 1_655 S
C1302 C1305 1.526 . S
C1303 H1287 0.959 . S
C1303 H1288 0.959 . S
C1303 H1289 0.961 . S
C1303 C1302 1.502 . S
C1304 H1290 0.960 . S
C1304 H1291 0.961 . S
C1304 H1292 0.959 . S
C1304 C1302 1.561 1_455 S
C1305 C1302 1.526 . S
C1305 C1306 1.396 . S
C1305 C1310 1.390 . S
C1306 C1300 1.465 1_655 S
C1306 C1305 1.396 . S
C1306 C1307 1.399 . S
C1307 H1293 0.929 1_655 S
C1307 C1306 1.399 . S
C1307 C1308 1.385 . S
C1308 H1294 0.931 . S
C1308 C1307 1.385 . S
C1308 C1309 1.389 . S
C1309 C1308 1.389 . S
C1309 C1310 1.387 . S
C1310 H1295 0.930 . S
C1310 C1305 1.390 . S
C1310 C1309 1.387 . S
H1311 C1323 0.930 . S
H1312 C1325 0.930 . S
H1313 C1326 0.930 . S
H1314 C1330 0.959 . S
H1315 C1330 0.959 . S
H1316 C1330 0.961 1_455 S
H1317 C1331 0.960 . S
H1318 C1331 0.961 . S
H1319 C1331 0.959 . S
H1320 C1334 0.929 . S
H1321 C1335 0.931 . S
H1322 C1337 0.930 . S
C1323 H1311 0.930 . S
C1323 C1324 1.399 . S
C1323 C1328 1.399 . S
C1324 C1323 1.399 . S
C1324 C1325 1.376 . S
C1325 H1312 0.930 . S
C1325 C1324 1.376 . S
C1325 C1326 1.388 . S
C1326 H1313 0.930 . S
C1326 C1325 1.388 . S
C1326 C1327 1.390 . S
C1327 C1326 1.390 . S
C1327 C1328 1.394 . S
C1327 C1333 1.465 1_455 S
C1328 C1323 1.399 . S
C1328 C1327 1.394 . S
C1328 C1329 1.516 . S
C1329 C1328 1.516 . S
C1329 C1330 1.502 1_455 S
C1329 C1331 1.561 . S
C1329 C1332 1.526 1_455 S
C1330 H1314 0.959 . S
C1330 H1315 0.959 . S
C1330 H1316 0.961 1_655 S
C1330 C1329 1.502 1_655 S
C1331 H1317 0.960 . S
C1331 H1318 0.961 . S
C1331 H1319 0.959 . S
C1331 C1329 1.561 . S
C1332 C1329 1.526 1_655 S
C1332 C1333 1.396 . S
C1332 C1337 1.390 . S
C1333 C1327 1.465 1_655 S
C1333 C1332 1.396 . S
C1333 C1334 1.399 . S
C1334 H1320 0.929 . S
C1334 C1333 1.399 . S
C1334 C1335 1.385 . S
C1335 H1321 0.931 . S
C1335 C1334 1.385 . S
C1335 C1336 1.389 . S
C1336 C1335 1.389 . S
C1336 C1337 1.387 . S
C1337 H1322 0.930 . S
C1337 C1332 1.390 . S
C1337 C1336 1.387 . S
H1338 C1350 0.930 . S
H1339 C1352 0.930 . S
H1340 C1353 0.930 . S
H1341 C1357 0.959 . S
H1342 C1357 0.959 . S
H1343 C1357 0.961 . S
H1344 C1358 0.960 . S
H1345 C1358 0.961 . S
H1346 C1358 0.959 . S
H1347 C1361 0.929 . S
H1348 C1362 0.931 . S
H1349 C1364 0.930 . S
C1350 H1338 0.930 . S
C1350 C1351 1.399 . S
C1350 C1355 1.399 . S
C1351 C1350 1.399 . S
C1351 C1352 1.376 . S
C1352 H1339 0.930 . S
C1352 C1351 1.376 . S
C1352 C1353 1.388 . S
C1353 H1340 0.930 . S
C1353 C1352 1.388 . S
C1353 C1354 1.390 . S
C1354 C1353 1.390 . S
C1354 C1355 1.394 . S
C1354 C1360 1.465 . S
C1355 C1350 1.399 . S
C1355 C1354 1.394 . S
C1355 C1356 1.516 . S
C1356 C1355 1.516 . S
C1356 C1357 1.502 . S
C1356 C1358 1.561 . S
C1356 C1359 1.526 . S
C1357 H1341 0.959 . S
C1357 H1342 0.959 . S
C1357 H1343 0.961 . S
C1357 C1356 1.502 . S
C1358 H1344 0.960 . S
C1358 H1345 0.961 . S
C1358 H1346 0.959 . S
C1358 C1356 1.561 . S
C1359 C1356 1.526 . S
C1359 C1360 1.396 . S
C1359 C1364 1.390 . S
C1360 C1354 1.465 . S
C1360 C1359 1.396 . S
C1360 C1361 1.399 . S
C1361 H1347 0.929 . S
C1361 C1360 1.399 . S
C1361 C1362 1.385 . S
C1362 H1348 0.931 . S
C1362 C1361 1.385 . S
C1362 C1363 1.389 . S
C1363 C1362 1.389 . S
C1363 C1364 1.387 . S
C1364 H1349 0.930 . S
C1364 C1359 1.390 . S
C1364 C1363 1.387 . S
H1365 C1377 0.930 . S
H1366 C1379 0.930 . S
H1367 C1380 0.930 1_545 S
H1368 C1384 0.959 . S
H1369 C1384 0.959 . S
H1370 C1384 0.961 . S
H1371 C1385 0.960 . S
H1372 C1385 0.961 . S
H1373 C1385 0.959 . S
H1374 C1388 0.929 . S
H1375 C1389 0.931 . S
H1376 C1391 0.930 . S
C1377 H1365 0.930 . S
C1377 C1378 1.399 . S
C1377 C1382 1.399 . S
C1378 C1377 1.399 . S
C1378 C1379 1.376 . S
C1379 H1366 0.930 . S
C1379 C1378 1.376 . S
C1379 C1380 1.388 . S
C1380 H1367 0.930 1_565 S
C1380 C1379 1.388 . S
C1380 C1381 1.388 1_565 S
C1381 C1380 1.388 1_545 S
C1381 C1382 1.368 1_545 S
C1381 C1387 1.490 . S
C1382 C1377 1.399 . S
C1382 C1381 1.368 1_565 S
C1382 C1383 1.516 . S
C1383 C1382 1.516 . S
C1383 C1384 1.502 . S
C1383 C1385 1.561 . S
C1383 C1386 1.526 1_565 S
C1384 H1368 0.959 . S
C1384 H1369 0.959 . S
C1384 H1370 0.961 . S
C1384 C1383 1.502 . S
C1385 H1371 0.960 . S
C1385 H1372 0.961 . S
C1385 H1373 0.959 . S
C1385 C1383 1.561 . S
C1386 C1383 1.526 1_545 S
C1386 C1387 1.396 . S
C1386 C1391 1.390 . S
C1387 C1381 1.490 . S
C1387 C1386 1.396 . S
C1387 C1388 1.399 . S
C1388 H1374 0.929 . S
C1388 C1387 1.399 . S
C1388 C1389 1.385 . S
C1389 H1375 0.931 . S
C1389 C1388 1.385 . S
C1389 C1390 1.389 . S
C1390 C1389 1.389 . S
C1390 C1391 1.387 . S
C1391 H1376 0.930 . S
C1391 C1386 1.390 . S
C1391 C1390 1.387 . S
H1392 C1404 0.924 1_556 S
H1393 C1406 0.930 . S
H1394 C1407 0.930 . S
H1395 C1411 0.959 . S
H1396 C1411 0.959 . S
H1397 C1411 0.961 . S
H1398 C1412 0.960 . S
H1399 C1412 0.961 . S
H1400 C1412 0.959 . S
H1401 C1415 0.929 1_554 S
H1402 C1416 0.931 . S
H1403 C1418 0.930 . S
C1404 H1392 0.924 1_554 S
C1404 C1405 1.410 . S
C1404 C1409 1.396 1_554 S
C1405 C1404 1.410 . S
C1405 C1406 1.376 . S
C1406 H1393 0.930 . S
C1406 C1405 1.376 . S
C1406 C1407 1.388 . S
C1407 H1394 0.930 . S
C1407 C1406 1.388 . S
C1407 C1408 1.390 . S
C1408 C1407 1.390 . S
C1408 C1409 1.394 1_554 S
C1408 C1414 1.465 1_554 S
C1409 C1404 1.396 1_556 S
C1409 C1408 1.394 1_556 S
C1409 C1410 1.516 . S
C1410 C1409 1.516 . S
C1410 C1411 1.502 . S
C1410 C1412 1.561 1_556 S
C1410 C1413 1.526 . S
C1411 H1395 0.959 . S
C1411 H1396 0.959 . S
C1411 H1397 0.961 . S
C1411 C1410 1.502 . S
C1412 H1398 0.960 . S
C1412 H1399 0.961 . S
C1412 H1400 0.959 . S
C1412 C1410 1.561 1_554 S
C1413 C1410 1.526 . S
C1413 C1414 1.396 . S
C1413 C1418 1.390 . S
C1414 C1408 1.465 1_556 S
C1414 C1413 1.396 . S
C1414 C1415 1.399 . S
C1415 H1401 0.929 1_556 S
C1415 C1414 1.399 . S
C1415 C1416 1.385 . S
C1416 H1402 0.931 . S
C1416 C1415 1.385 . S
C1416 C1417 1.389 . S
C1417 C1416 1.389 . S
C1417 C1418 1.387 . S
C1418 H1403 0.930 . S
C1418 C1413 1.390 . S
C1418 C1417 1.387 . S
H1419 C1431 0.930 . S
H1420 C1433 0.930 . S
H1421 C1434 0.930 . S
H1422 C1438 0.959 . S
H1423 C1438 0.959 . S
H1424 C1438 0.961 . S
H1425 C1439 0.960 . S
H1426 C1439 0.961 . S
H1427 C1439 0.959 . S
H1428 C1442 0.929 1_545 S
H1429 C1443 0.931 . S
H1430 C1445 0.930 . S
C1431 H1419 0.930 . S
C1431 C1432 1.399 . S
C1431 C1436 1.399 . S
C1432 C1431 1.399 . S
C1432 C1433 1.376 . S
C1433 H1420 0.930 . S
C1433 C1432 1.376 . S
C1433 C1434 1.388 . S
C1434 H1421 0.930 . S
C1434 C1433 1.388 . S
C1434 C1435 1.390 . S
C1435 C1434 1.390 . S
C1435 C1436 1.394 . S
C1435 C1441 1.465 1_545 S
C1436 C1431 1.399 . S
C1436 C1435 1.394 . S
C1436 C1437 1.516 1_545 S
C1437 C1436 1.516 1_565 S
C1437 C1438 1.502 . S
C1437 C1439 1.561 . S
C1437 C1440 1.526 . S
C1438 H1422 0.959 . S
C1438 H1423 0.959 . S
C1438 H1424 0.961 . S
C1438 C1437 1.502 . S
C1439 H1425 0.960 . S
C1439 H1426 0.961 . S
C1439 H1427 0.959 . S
C1439 C1437 1.561 . S
C1440 C1437 1.526 . S
C1440 C1441 1.396 . S
C1440 C1445 1.390 . S
C1441 C1435 1.465 1_565 S
C1441 C1440 1.396 . S
C1441 C1442 1.399 . S
C1442 H1428 0.929 1_565 S
C1442 C1441 1.399 . S
C1442 C1443 1.385 . S
C1443 H1429 0.931 . S
C1443 C1442 1.385 . S
C1443 C1444 1.389 . S
C1444 C1443 1.389 . S
C1444 C1445 1.387 . S
C1445 H1430 0.930 . S
C1445 C1440 1.390 . S
C1445 C1444 1.387 . S
H1446 C1458 0.930 . S
H1447 C1460 0.930 . S
H1448 C1461 0.930 . S
H1449 C1465 0.959 . S
H1450 C1465 0.959 . S
H1451 C1465 0.961 . S
H1452 C1466 0.960 . S
H1453 C1466 0.961 . S
H1454 C1466 0.959 . S
H1455 C1469 0.929 . S
H1456 C1470 0.931 . S
H1457 C1472 0.930 . S
C1458 H1446 0.930 . S
C1458 C1459 1.399 . S
C1458 C1463 1.399 . S
C1459 C1458 1.399 . S
C1459 C1460 1.376 . S
C1460 H1447 0.930 . S
C1460 C1459 1.376 . S
C1460 C1461 1.388 . S
C1461 H1448 0.930 . S
C1461 C1460 1.388 . S
C1461 C1462 1.390 . S
C1462 C1461 1.390 . S
C1462 C1463 1.394 . S
C1462 C1468 1.465 . S
C1463 C1458 1.399 . S
C1463 C1462 1.394 . S
C1463 C1464 1.516 . S
C1464 C1463 1.516 . S
C1464 C1465 1.502 . S
C1464 C1466 1.561 . S
C1464 C1467 1.526 . S
C1465 H1449 0.959 . S
C1465 H1450 0.959 . S
C1465 H1451 0.961 . S
C1465 C1464 1.502 . S
C1466 H1452 0.960 . S
C1466 H1453 0.961 . S
C1466 H1454 0.959 . S
C1466 C1464 1.561 . S
C1467 C1464 1.526 . S
C1467 C1468 1.396 . S
C1467 C1472 1.390 . S
C1468 C1462 1.465 . S
C1468 C1467 1.396 . S
C1468 C1469 1.399 . S
C1469 H1455 0.929 . S
C1469 C1468 1.399 . S
C1469 C1470 1.385 . S
C1470 H1456 0.931 . S
C1470 C1469 1.385 . S
C1470 C1471 1.389 . S
C1471 C1470 1.389 . S
C1471 C1472 1.387 . S
C1472 H1457 0.930 . S
C1472 C1467 1.390 . S
C1472 C1471 1.387 . S
H1473 C1485 0.930 . S
H1474 C1487 0.930 . S
H1475 C1488 0.930 . S
H1476 C1492 0.959 . S
H1477 C1492 0.959 . S
H1478 C1492 0.961 1_554 S
H1479 C1493 0.960 . S
H1480 C1493 0.961 1_556 S
H1481 C1493 0.959 . S
H1482 C1496 0.929 . S
H1483 C1497 0.931 . S
H1484 C1499 0.930 . S
C1485 H1473 0.930 . S
C1485 C1486 1.399 . S
C1485 C1490 1.399 . S
C1486 C1485 1.399 . S
C1486 C1487 1.376 . S
C1487 H1474 0.930 . S
C1487 C1486 1.376 . S
C1487 C1488 1.388 . S
C1488 H1475 0.930 . S
C1488 C1487 1.388 . S
C1488 C1489 1.390 . S
C1489 C1488 1.390 . S
C1489 C1490 1.394 . S
C1489 C1495 1.465 1_554 S
C1490 C1485 1.399 . S
C1490 C1489 1.394 . S
C1490 C1491 1.516 . S
C1491 C1490 1.516 . S
C1491 C1492 1.502 1_554 S
C1491 C1493 1.561 . S
C1491 C1494 1.526 1_554 S
C1492 H1476 0.959 . S
C1492 H1477 0.959 . S
C1492 H1478 0.961 1_556 S
C1492 C1491 1.502 1_556 S
C1493 H1479 0.960 . S
C1493 H1480 0.961 1_554 S
C1493 H1481 0.959 . S
C1493 C1491 1.561 . S
C1494 C1491 1.526 1_556 S
C1494 C1495 1.396 . S
C1494 C1499 1.390 . S
C1495 C1489 1.465 1_556 S
C1495 C1494 1.396 . S
C1495 C1496 1.399 . S
C1496 H1482 0.929 . S
C1496 C1495 1.399 . S
C1496 C1497 1.385 . S
C1497 H1483 0.931 . S
C1497 C1496 1.385 . S
C1497 C1498 1.389 . S
C1498 C1497 1.389 . S
C1498 C1499 1.387 . S
C1499 H1484 0.930 . S
C1499 C1494 1.390 . S
C1499 C1498 1.387 . S
H1500 C1512 0.930 . S
H1501 C1514 0.930 . S
H1502 C1515 0.930 . S
H1503 C1519 0.959 . S
H1504 C1519 0.959 . S
H1505 C1519 0.961 . S
H1506 C1520 0.960 . S
H1507 C1520 0.961 . S
H1508 C1520 0.959 . S
H1509 C1523 0.929 . S
H1510 C1524 0.931 . S
H1511 C1526 0.930 . S
C1512 H1500 0.930 . S
C1512 C1513 1.399 . S
C1512 C1517 1.399 . S
C1513 C1512 1.399 . S
C1513 C1514 1.376 . S
C1514 H1501 0.930 . S
C1514 C1513 1.376 . S
C1514 C1515 1.388 . S
C1515 H1502 0.930 . S
C1515 C1514 1.388 . S
C1515 C1516 1.390 . S
C1516 C1515 1.390 . S
C1516 C1517 1.394 . S
C1516 C1522 1.465 . S
C1517 C1512 1.399 . S
C1517 C1516 1.394 . S
C1517 C1518 1.516 . S
C1518 C1517 1.516 . S
C1518 C1519 1.502 . S
C1518 C1520 1.561 . S
C1518 C1521 1.526 . S
C1519 H1503 0.959 . S
C1519 H1504 0.959 . S
C1519 H1505 0.961 . S
C1519 C1518 1.502 . S
C1520 H1506 0.960 . S
C1520 H1507 0.961 . S
C1520 H1508 0.959 . S
C1520 C1518 1.561 . S
C1521 C1518 1.526 . S
C1521 C1522 1.396 . S
C1521 C1526 1.390 . S
C1522 C1516 1.465 . S
C1522 C1521 1.396 . S
C1522 C1523 1.399 . S
C1523 H1509 0.929 . S
C1523 C1522 1.399 . S
C1523 C1524 1.385 . S
C1524 H1510 0.931 . S
C1524 C1523 1.385 . S
C1524 C1525 1.389 . S
C1525 C1524 1.389 . S
C1525 C1526 1.387 . S
C1526 H1511 0.930 . S
C1526 C1521 1.390 . S
C1526 C1525 1.387 . S
H1527 C1539 0.930 . S
H1528 C1541 0.930 . S
H1529 C1542 0.930 . S
H1530 C1546 0.959 . S
H1531 C1546 0.959 . S
H1532 C1546 0.961 . S
H1533 C1547 0.960 . S
H1534 C1547 0.961 . S
H1535 C1547 0.959 . S
H1536 C1550 0.929 . S
H1537 C1551 0.931 . S
H1538 C1553 0.930 . S
C1539 H1527 0.930 . S
C1539 C1540 1.399 . S
C1539 C1544 1.399 . S
C1540 C1539 1.399 . S
C1540 C1541 1.376 . S
C1541 H1528 0.930 . S
C1541 C1540 1.376 . S
C1541 C1542 1.388 . S
C1542 H1529 0.930 . S
C1542 C1541 1.388 . S
C1542 C1543 1.390 . S
C1543 C1542 1.390 . S
C1543 C1544 1.394 . S
C1543 C1549 1.465 . S
C1544 C1539 1.399 . S
C1544 C1543 1.394 . S
C1544 C1545 1.516 . S
C1545 C1544 1.516 . S
C1545 C1546 1.502 . S
C1545 C1547 1.561 . S
C1545 C1548 1.526 . S
C1546 H1530 0.959 . S
C1546 H1531 0.959 . S
C1546 H1532 0.961 . S
C1546 C1545 1.502 . S
C1547 H1533 0.960 . S
C1547 H1534 0.961 . S
C1547 H1535 0.959 . S
C1547 C1545 1.561 . S
C1548 C1545 1.526 . S
C1548 C1549 1.396 . S
C1548 C1553 1.390 . S
C1549 C1543 1.465 . S
C1549 C1548 1.396 . S
C1549 C1550 1.399 . S
C1550 H1536 0.929 . S
C1550 C1549 1.399 . S
C1550 C1551 1.385 . S
C1551 H1537 0.931 . S
C1551 C1550 1.385 . S
C1551 C1552 1.389 . S
C1552 C1551 1.389 . S
C1552 C1553 1.387 . S
C1553 H1538 0.930 . S
C1553 C1548 1.390 . S
C1553 C1552 1.387 . S
H1554 C1566 0.930 . S
H1555 C1568 0.930 . S
H1556 C1569 0.930 . S
H1557 C1573 0.959 . S
H1558 C1573 0.959 . S
H1559 C1573 0.961 . S
H1560 C1574 0.960 . S
H1561 C1574 0.961 . S
H1562 C1574 0.959 . S
H1563 C1577 0.929 . S
H1564 C1578 0.931 . S
H1565 C1580 0.930 . S
C1566 H1554 0.930 . S
C1566 C1567 1.399 . S
C1566 C1571 1.399 . S
C1567 C1566 1.399 . S
C1567 C1568 1.376 . S
C1568 H1555 0.930 . S
C1568 C1567 1.376 . S
C1568 C1569 1.388 . S
C1569 H1556 0.930 . S
C1569 C1568 1.388 . S
C1569 C1570 1.390 . S
C1570 C1569 1.390 . S
C1570 C1571 1.394 . S
C1570 C1576 1.465 . S
C1571 C1566 1.399 . S
C1571 C1570 1.394 . S
C1571 C1572 1.516 . S
C1572 C1571 1.516 . S
C1572 C1573 1.502 . S
C1572 C1574 1.561 . S
C1572 C1575 1.526 . S
C1573 H1557 0.959 . S
C1573 H1558 0.959 . S
C1573 H1559 0.961 . S
C1573 C1572 1.502 . S
C1574 H1560 0.960 . S
C1574 H1561 0.961 . S
C1574 H1562 0.959 . S
C1574 C1572 1.561 . S
C1575 C1572 1.526 . S
C1575 C1576 1.396 . S
C1575 C1580 1.390 . S
C1576 C1570 1.465 . S
C1576 C1575 1.396 . S
C1576 C1577 1.399 . S
C1577 H1563 0.929 . S
C1577 C1576 1.399 . S
C1577 C1578 1.385 . S
C1578 H1564 0.931 . S
C1578 C1577 1.385 . S
C1578 C1579 1.389 . S
C1579 C1578 1.389 . S
C1579 C1580 1.387 . S
C1580 H1565 0.930 . S
C1580 C1575 1.390 . S
C1580 C1579 1.387 . S
H1581 C1593 0.930 . S
H1582 C1595 0.930 . S
H1583 C1596 0.930 . S
H1584 C1600 0.959 . S
H1585 C1600 0.959 . S
H1586 C1600 0.961 . S
H1587 C1601 0.960 . S
H1588 C1601 0.961 . S
H1589 C1601 0.959 . S
H1590 C1604 0.929 . S
H1591 C1605 0.931 . S
H1592 C1607 0.930 . S
C1593 H1581 0.930 . S
C1593 C1594 1.399 . S
C1593 C1598 1.399 . S
C1594 C1593 1.399 . S
C1594 C1595 1.376 . S
C1595 H1582 0.930 . S
C1595 C1594 1.376 . S
C1595 C1596 1.388 . S
C1596 H1583 0.930 . S
C1596 C1595 1.388 . S
C1596 C1597 1.390 . S
C1597 C1596 1.390 . S
C1597 C1598 1.394 . S
C1597 C1603 1.465 . S
C1598 C1593 1.399 . S
C1598 C1597 1.394 . S
C1598 C1599 1.516 . S
C1599 C1598 1.516 . S
C1599 C1600 1.502 . S
C1599 C1601 1.561 . S
C1599 C1602 1.526 . S
C1600 H1584 0.959 . S
C1600 H1585 0.959 . S
C1600 H1586 0.961 . S
C1600 C1599 1.502 . S
C1601 H1587 0.960 . S
C1601 H1588 0.961 . S
C1601 H1589 0.959 . S
C1601 C1599 1.561 . S
C1602 C1599 1.526 . S
C1602 C1603 1.396 . S
C1602 C1607 1.390 . S
C1603 C1597 1.465 . S
C1603 C1602 1.396 . S
C1603 C1604 1.399 . S
C1604 H1590 0.929 . S
C1604 C1603 1.399 . S
C1604 C1605 1.385 . S
C1605 H1591 0.931 . S
C1605 C1604 1.385 . S
C1605 C1606 1.389 . S
C1606 C1605 1.389 . S
C1606 C1607 1.387 . S
C1607 H1592 0.930 . S
C1607 C1602 1.390 . S
C1607 C1606 1.387 . S
C325 C10 1.514 . S
C337 C127 1.405 . S
C352 C23 1.775 1_455 S
C364 C135 1.742 . S
C379 C153 1.446 . S
C391 C36 1.515 . S
C406 C109 1.707 . S
C418 C44 1.750 . S
C433 C133 1.413 . S
C445 C62 1.484 . S
C460 C75 1.759 . S
C472 C144 1.661 . S
C487 C83 1.450 . S
C499 C107 1.403 . S
C514 C118 1.664 . S
C526 C96 1.796 . S
C541 C53 1.542 . S
C553 C157 1.480 . S
C568 C94 1.444 . S
C580 C196 1.476 . S
C595 C213 1.509 . S
C607 C66 1.482 . S
C622 C42 1.415 . S
C634 C172 1.406 . S
C649 C183 1.423 . S
C661 C81 1.419 . S
C676 C1 1.498 . S
C688 C250 1.435 . S
C703 C27 1.457 . S
C715 C237 1.479 . S
C730 C205 1.498 . S
C742 C278 1.377 . S
C757 C291 1.749 . S
C769 C166 1.749 . S
C784 C309 1.405 . S
C796 C211 1.426 . S
C811 C261 1.717 . S
C823 C192 1.717 1_655 S
C838 C289 1.514 . S
C850 C222 1.501 . S
C865 C239 1.717 1_655 S
C877 C300 1.706 . S
C892 C270 1.398 . S
C904 C174 1.453 . S
C919 C252 1.733 . S
C931 C276 1.693 . S
C946 C14 1.483 . S
C958 C231 1.515 . S
C973 C57 1.539 . S
C985 C5 1.535 . S
C1000 C18 1.096 . S
C1012 C70 1.150 . S
C1027 C31 1.483 . S
C1039 C88 1.502 . S
C1054 C101 1.271 . S
C1066 C49 1.204 . S
C1081 C114 1.169 . S
C1093 C120 1.119 . S
C1108 C122 0.599 . S
C1120 C131 0.646 . S
C1135 C146 1.000 . S
C1147 C140 1.151 . S
C1162 C105 0.690 . S
C1174 C148 0.675 . S
C1189 C40 0.670 1_556 S
C1201 C159 0.666 . S
C1216 C92 0.682 . S
C1228 C235 0.689 . S
C1243 C55 1.526 . S
C1255 C170 1.533 . S
C1270 C248 0.674 . S
C1282 C68 0.661 . S
C1297 C185 0.624 . S
C1309 C16 0.608 . S
C1324 C3 1.532 . S
C1336 C218 1.533 . S
C1351 C29 1.457 . S
C1363 C198 1.507 . S
C1378 C200 1.503 . S
C1390 C224 1.512 . S
C1405 C244 1.232 . S
C1417 C161 1.191 . S
C1432 C209 1.586 . S
C1444 C179 1.561 . S
C1459 C187 1.207 . S
C1471 C257 1.160 . S
C1486 C274 1.059 . S
C1498 C263 1.148 . S
C1513 C287 0.697 . S
C1525 C283 0.706 . S
C1540 C302 1.136 . S
C1552 C296 1.152 . S
C1567 C265 0.666 . S
C1579 C304 0.616 . S
C1594 C226 1.505 . S
C1606 C79 1.525 . S
