# Generated by pormake.
# Topology wld, (5)-cn, num edge types: 1
# Building blocks:
#     Node 0, Type 0, BuildingBlock: XOMCOT_clean_sbu_0, # of connection points: 5
#     Node 1, Type 0, BuildingBlock: XOMCOT_clean_sbu_0, # of connection points: 5
#     Node 2, Type 0, BuildingBlock: XOMCOT_clean_sbu_0, # of connection points: 5
#     Node 3, Type 0, BuildingBlock: XOMCOT_clean_sbu_0, # of connection points: 5
#     Node 4, Type 0, BuildingBlock: XOMCOT_clean_sbu_0, # of connection points: 5
#     Node 5, Type 0, BuildingBlock: XOMCOT_clean_sbu_0, # of connection points: 5
#     Node 6, Type 0, BuildingBlock: XOMCOT_clean_sbu_0, # of connection points: 5
#     Node 7, Type 0, BuildingBlock: XOMCOT_clean_sbu_0, # of connection points: 5
#     Node 8, Type 0, BuildingBlock: XOMCOT_clean_sbu_0, # of connection points: 5
#     Node 9, Type 0, BuildingBlock: XOMCOT_clean_sbu_0, # of connection points: 5
#     Node 10, Type 0, BuildingBlock: XOMCOT_clean_sbu_0, # of connection points: 5
#     Node 11, Type 0, BuildingBlock: XOMCOT_clean_sbu_0, # of connection points: 5
#     Edge 12, Type (0, 0), BuildingBlock: XUDNAN_clean_linker_2, # of connection points: 2
#     Edge 13, Type (0, 0), BuildingBlock: XUDNAN_clean_linker_2, # of connection points: 2
#     Edge 14, Type (0, 0), BuildingBlock: XUDNAN_clean_linker_2, # of connection points: 2
#     Edge 15, Type (0, 0), BuildingBlock: XUDNAN_clean_linker_2, # of connection points: 2
#     Edge 16, Type (0, 0), BuildingBlock: XUDNAN_clean_linker_2, # of connection points: 2
#     Edge 17, Type (0, 0), BuildingBlock: XUDNAN_clean_linker_2, # of connection points: 2
#     Edge 18, Type (0, 0), BuildingBlock: XUDNAN_clean_linker_2, # of connection points: 2
#     Edge 19, Type (0, 0), BuildingBlock: XUDNAN_clean_linker_2, # of connection points: 2
#     Edge 20, Type (0, 0), BuildingBlock: XUDNAN_clean_linker_2, # of connection points: 2
#     Edge 21, Type (0, 0), BuildingBlock: XUDNAN_clean_linker_2, # of connection points: 2
#     Edge 22, Type (0, 0), BuildingBlock: XUDNAN_clean_linker_2, # of connection points: 2
#     Edge 23, Type (0, 0), BuildingBlock: XUDNAN_clean_linker_2, # of connection points: 2
#     Edge 24, Type (0, 0), BuildingBlock: XUDNAN_clean_linker_2, # of connection points: 2
#     Edge 25, Type (0, 0), BuildingBlock: XUDNAN_clean_linker_2, # of connection points: 2
#     Edge 26, Type (0, 0), BuildingBlock: XUDNAN_clean_linker_2, # of connection points: 2
#     Edge 27, Type (0, 0), BuildingBlock: XUDNAN_clean_linker_2, # of connection points: 2
#     Edge 28, Type (0, 0), BuildingBlock: XUDNAN_clean_linker_2, # of connection points: 2
#     Edge 29, Type (0, 0), BuildingBlock: XUDNAN_clean_linker_2, # of connection points: 2
#     Edge 30, Type (0, 0), BuildingBlock: XUDNAN_clean_linker_2, # of connection points: 2
#     Edge 31, Type (0, 0), BuildingBlock: XUDNAN_clean_linker_2, # of connection points: 2
#     Edge 32, Type (0, 0), BuildingBlock: XUDNAN_clean_linker_2, # of connection points: 2
#     Edge 33, Type (0, 0), BuildingBlock: XUDNAN_clean_linker_2, # of connection points: 2
#     Edge 34, Type (0, 0), BuildingBlock: XUDNAN_clean_linker_2, # of connection points: 2
#     Edge 35, Type (0, 0), BuildingBlock: XUDNAN_clean_linker_2, # of connection points: 2
#     Edge 36, Type (0, 0), BuildingBlock: XUDNAN_clean_linker_2, # of connection points: 2
#     Edge 37, Type (0, 0), BuildingBlock: XUDNAN_clean_linker_2, # of connection points: 2
#     Edge 38, Type (0, 0), BuildingBlock: XUDNAN_clean_linker_2, # of connection points: 2
#     Edge 39, Type (0, 0), BuildingBlock: XUDNAN_clean_linker_2, # of connection points: 2
#     Edge 40, Type (0, 0), BuildingBlock: XUDNAN_clean_linker_2, # of connection points: 2
#     Edge 41, Type (0, 0), BuildingBlock: XUDNAN_clean_linker_2, # of connection points: 2
# Relax obj value: 0.214
# Max RMSD: 0.221
# Mean RMSD: 0.221
data_MOF--net-wld--node1-XOMCOT_clean_sbu_0--edge1-XUDNAN_clean_linker_2
_symmetry_space_group_name_H-M    P1
_symmetry_Int_Tables_number       1
_symmetry_cell_setting            triclinic
loop_
_symmetry_equiv_pos_as_xyz
'x, y, z'
_cell_length_a     37.970235
_cell_length_b     37.963486
_cell_length_c     51.554163
_cell_angle_alpha  90.018734
_cell_angle_beta   90.029659
_cell_angle_gamma 119.90221
loop_
_atom_site_label
_atom_site_type_symbol
_atom_site_fract_x
_atom_site_fract_y
_atom_site_fract_z
_atom_type_partial_charge
Co0 Co 0.38557 0.2397 0.08359 0.0
C1 C 0.33204 0.26748 0.05958 0.0
C2 C 0.3946 0.30573 0.04959 0.0
C3 C 0.37213 0.31946 0.03666 0.0
N4 N 0.36972 0.27392 0.06471 0.0
N5 N 0.3328 0.2953 0.04294 0.0
H6 H 0.30437 0.24194 0.0666 0.0
H7 H 0.42672 0.31702 0.04699 0.0
C8 C 0.45456 0.32415 0.09659 0.0
O9 O 0.42908 0.33728 0.10139 0.0
N10 N 0.40253 0.20603 0.10132 0.0
C11 C 0.38092 0.17304 0.11633 0.0
C12 C 0.40614 0.15827 0.12392 0.0
C13 C 0.43992 0.21071 0.09978 0.0
N14 N 0.44323 0.18245 0.11361 0.0
C15 C 0.3245 0.23438 0.11867 0.0
C16 C 0.37587 0.27574 0.15944 0.0
C17 C 0.3351 0.26598 0.16083 0.0
C18 C 0.309 0.24363 0.1405 0.0
C19 C 0.39011 0.26594 0.13709 0.0
N20 N 0.3651 0.24834 0.11624 0.0
H21 H 0.30366 0.21582 0.10376 0.0
H22 H 0.42142 0.27313 0.13648 0.0
H23 H 0.34923 0.16059 0.12127 0.0
H24 H 0.46408 0.23377 0.08814 0.0
O25 O 0.3374 0.19145 0.0717 0.0
O26 O 0.39642 0.22261 0.05082 0.0
O27 O 0.44153 0.28743 0.0896 0.0
C28 C 0.3591 0.19285 0.05177 0.0
H29 H 0.38355 0.3438 0.02255 0.0
H30 H 0.39809 0.13227 0.13625 0.0
H31 H 0.39688 0.29188 0.17507 0.0
H32 H 0.27682 0.23345 0.14141 0.0
Co33 Co 0.74718 0.13845 0.08499 0.0
C34 C 0.72231 0.05867 0.05991 0.0
C35 C 0.67993 0.07904 0.05241 0.0
C36 C 0.66758 0.04345 0.03901 0.0
N37 N 0.71347 0.08794 0.06637 0.0
N38 N 0.69438 0.03083 0.04372 0.0
H39 H 0.74963 0.05865 0.06556 0.0
H40 H 0.66646 0.09818 0.05079 0.0
C41 C 0.66302 0.12104 0.09988 0.0
O42 O 0.65167 0.08279 0.10452 0.0
N43 N 0.78032 0.18962 0.10215 0.0
C44 C 0.81322 0.20192 0.1174 0.0
C45 C 0.83125 0.24358 0.12075 0.0
C46 C 0.77875 0.22331 0.09644 0.0
N47 N 0.80962 0.25684 0.10723 0.0
C48 C 0.75375 0.08306 0.11953 0.0
C49 C 0.71545 0.09461 0.16149 0.0
C50 C 0.72505 0.06343 0.1624 0.0
C51 C 0.74592 0.05894 0.14147 0.0
C52 C 0.72393 0.11814 0.13902 0.0
N53 N 0.73999 0.10997 0.11766 0.0
H54 H 0.77112 0.08009 0.10412 0.0
H55 H 0.71686 0.14239 0.13868 0.0
H56 H 0.82447 0.18249 0.12439 0.0
H57 H 0.75623 0.22327 0.08357 0.0
O58 O 0.79531 0.13874 0.073 0.0
O59 O 0.76389 0.16637 0.05208 0.0
O60 O 0.69885 0.14561 0.09173 0.0
C61 C 0.79392 0.15904 0.05311 0.0
H62 H 0.64229 0.02929 0.02561 0.0
H63 H 0.85928 0.2628 0.13104 0.0
H64 H 0.70042 0.09997 0.1776 0.0
H65 H 0.75598 0.0368 0.14196 0.0
Co66 Co 0.85965 0.61039 0.09738 0.0
C67 C 0.92971 0.65058 0.06121 0.0
C68 C 0.94955 0.64276 0.09849 0.0
C69 C 0.98291 0.66212 0.08258 0.0
N70 N 0.9159 0.63565 0.0852 0.0
N71 N 0.97034 0.66716 0.05918 0.0
H72 H 0.91067 0.64936 0.04532 0.0
H73 H 0.95063 0.63574 0.11863 0.0
C74 C 0.8763 0.54134 0.10964 0.0
O75 O 0.90547 0.56332 0.12609 0.0
N76 N 0.80404 0.58535 0.1089 0.0
C77 C 0.78709 0.60261 0.12329 0.0
C78 C 0.74628 0.57513 0.12601 0.0
C79 C 0.77362 0.54795 0.10292 0.0
N80 N 0.73796 0.5408 0.11323 0.0
C81 C 0.90389 0.66234 0.13974 0.0
C82 C 0.87318 0.60304 0.17775 0.0
C83 C 0.90335 0.64253 0.18432 0.0
C84 C 0.91829 0.67258 0.1651 0.0
C85 C 0.86024 0.59395 0.15204 0.0
N86 N 0.87712 0.62301 0.13322 0.0
H87 H 0.91533 0.6857 0.125 0.0
H88 H 0.8371 0.56333 0.14714 0.0
H89 H 0.80328 0.6331 0.13111 0.0
H90 H 0.77739 0.52685 0.09074 0.0
O91 O 0.85711 0.65878 0.08886 0.0
O92 O 0.84088 0.60669 0.06227 0.0
O93 O 0.85646 0.55579 0.09815 0.0
C94 C 0.84329 0.64163 0.0664 0.0
H95 H 0.01413 0.67287 0.08813 0.0
H96 H 0.72455 0.57994 0.13675 0.0
H97 H 0.8605 0.57918 0.19221 0.0
H98 H 0.94086 0.70367 0.16967 0.0
Co99 Co 0.25508 0.38629 0.41138 0.0
C100 C 0.27412 0.32515 0.43323 0.0
C101 C 0.32685 0.38438 0.43278 0.0
C102 C 0.33678 0.35814 0.44466 0.0
N103 N 0.28769 0.36368 0.42494 0.0
N104 N 0.30356 0.32095 0.44503 0.0
H105 H 0.24299 0.30083 0.43149 0.0
H106 H 0.34654 0.41679 0.43207 0.0
C107 C 0.33743 0.45792 0.39604 0.0
O108 O 0.34629 0.43566 0.38083 0.0
N109 N 0.22267 0.40913 0.39913 0.0
C110 C 0.18766 0.3906 0.38557 0.0
C111 C 0.17352 0.41756 0.38262 0.0
C112 C 0.22921 0.44663 0.4044 0.0
N113 N 0.19988 0.45277 0.39439 0.0
C114 C 0.25468 0.33453 0.37049 0.0
C115 C 0.27289 0.38972 0.33066 0.0
C116 C 0.26838 0.35157 0.32501 0.0
C117 C 0.25887 0.3237 0.34527 0.0
C118 C 0.26888 0.39948 0.35619 0.0
N119 N 0.26108 0.37247 0.3759 0.0
H120 H 0.24571 0.31208 0.38557 0.0
H121 H 0.27267 0.42913 0.36018 0.0
H122 H 0.17332 0.35964 0.37857 0.0
H123 H 0.25439 0.46863 0.41597 0.0
O124 O 0.20533 0.33753 0.4206 0.0
O125 O 0.24044 0.391 0.44633 0.0
O126 O 0.30436 0.442 0.40894 0.0
C127 C 0.20865 0.3554 0.4428 0.0
H128 H 0.3654 0.36645 0.45405 0.0
H129 H 0.14621 0.41182 0.37246 0.0
H130 H 0.28006 0.41209 0.31554 0.0
H131 H 0.25391 0.29346 0.34159 0.0
Co132 Co 0.60825 0.86622 0.41294 0.0
C133 C 0.66468 0.94985 0.43192 0.0
C134 C 0.60255 0.93267 0.43846 0.0
C135 C 0.62668 0.96998 0.44971 0.0
N136 N 0.62625 0.9205 0.42642 0.0
N137 N 0.66578 0.98069 0.44565 0.0
H138 H 0.69129 0.94759 0.42762 0.0
H139 H 0.57001 0.91455 0.44073 0.0
C140 C 0.54056 0.87942 0.39472 0.0
O141 O 0.56728 0.91574 0.38626 0.0
N142 N 0.58973 0.8117 0.40091 0.0
C143 C 0.61036 0.7975 0.38736 0.0
C144 C 0.58636 0.75583 0.38528 0.0
C145 C 0.554 0.77896 0.40704 0.0
N146 N 0.551 0.74429 0.3978 0.0
C147 C 0.66332 0.91602 0.37247 0.0
C148 C 0.60834 0.88097 0.3323 0.0
C149 C 0.64714 0.91347 0.32691 0.0
C150 C 0.67499 0.93082 0.34729 0.0
C151 C 0.59783 0.86748 0.35775 0.0
N152 N 0.6246 0.88603 0.37768 0.0
H153 H 0.68579 0.92817 0.38755 0.0
H154 H 0.56792 0.84196 0.36142 0.0
H155 H 0.64097 0.81598 0.38013 0.0
H156 H 0.53099 0.78067 0.41842 0.0
O157 O 0.65747 0.86856 0.42501 0.0
O158 O 0.60101 0.84693 0.4482 0.0
O159 O 0.55204 0.85724 0.40649 0.0
C160 C 0.6379 0.85318 0.44656 0.0
H161 H 0.61625 0.98643 0.46165 0.0
H162 H 0.59492 0.73557 0.37608 0.0
H163 H 0.58606 0.86639 0.31703 0.0
H164 H 0.70576 0.95503 0.34371 0.0
Co165 Co 0.14983 0.75657 0.41826 0.0
C166 C 0.06779 0.72278 0.44259 0.0
C167 C 0.10559 0.7036 0.46159 0.0
C168 C 0.0703 0.68951 0.47563 0.0
N169 N 0.10395 0.72424 0.44074 0.0
N170 N 0.04671 0.70156 0.46352 0.0
H171 H 0.05762 0.73867 0.43016 0.0
H172 H 0.13143 0.70033 0.46674 0.0
C173 C 0.13472 0.67104 0.41215 0.0
O174 O 0.09528 0.65672 0.4118 0.0
N175 N 0.19665 0.78852 0.39693 0.0
C176 C 0.2051 0.81991 0.381 0.0
C177 C 0.24378 0.83434 0.37101 0.0
C178 C 0.22972 0.78435 0.39656 0.0
N179 N 0.25869 0.81142 0.38074 0.0
C180 C 0.09082 0.7584 0.38453 0.0
C181 C 0.09234 0.70799 0.34647 0.0
C182 C 0.06348 0.72063 0.34492 0.0
C183 C 0.06366 0.74705 0.36387 0.0
C184 C 0.11856 0.71959 0.36781 0.0
N185 N 0.11554 0.74214 0.38748 0.0
H186 H 0.09157 0.78009 0.39833 0.0
H187 H 0.14135 0.71055 0.36829 0.0
H188 H 0.1849 0.83171 0.37719 0.0
H189 H 0.23317 0.76276 0.4084 0.0
O190 O 0.14869 0.80496 0.42851 0.0
O191 O 0.183 0.77994 0.4487 0.0
O192 O 0.15925 0.70919 0.41404 0.0
C193 C 0.17259 0.80777 0.44745 0.0
H194 H 0.06284 0.67243 0.49356 0.0
H195 H 0.25958 0.85941 0.35766 0.0
H196 H 0.0941 0.68872 0.33163 0.0
H197 H 0.0431 0.75903 0.36264 0.0
Co198 Co 0.6058 0.73862 0.91732 0.0
C199 C 0.66084 0.71209 0.94056 0.0
C200 C 0.5992 0.67632 0.95324 0.0
C201 C 0.62276 0.66557 0.96769 0.0
N202 N 0.62277 0.70491 0.93574 0.0
N203 N 0.66141 0.68809 0.95965 0.0
H204 H 0.68812 0.73692 0.93247 0.0
H205 H 0.56747 0.66609 0.95672 0.0
C206 C 0.53681 0.65479 0.90672 0.0
O207 O 0.56306 0.64266 0.90185 0.0
N208 N 0.58766 0.7722 0.90063 0.0
C209 C 0.6048 0.79953 0.88132 0.0
C210 C 0.58175 0.81804 0.87735 0.0
C211 C 0.55528 0.77485 0.90839 0.0
N212 N 0.551 0.80259 0.89463 0.0
C213 C 0.66028 0.73775 0.87842 0.0
C214 C 0.60385 0.70938 0.83867 0.0
C215 C 0.64384 0.7193 0.83332 0.0
C216 C 0.67221 0.73323 0.85355 0.0
C217 C 0.59307 0.71364 0.86381 0.0
N218 N 0.62089 0.727 0.88354 0.0
H219 H 0.68329 0.75201 0.89304 0.0
H220 H 0.56263 0.70808 0.86704 0.0
H221 H 0.63236 0.80604 0.87122 0.0
H222 H 0.53552 0.75716 0.92415 0.0
O223 O 0.65609 0.78681 0.9265 0.0
O224 O 0.59977 0.75885 0.95025 0.0
O225 O 0.549 0.69135 0.91378 0.0
C226 C 0.637 0.78813 0.94714 0.0
H227 H 0.61263 0.64425 0.98367 0.0
H228 H 0.58786 0.84191 0.86355 0.0
H229 H 0.58127 0.69925 0.82339 0.0
H230 H 0.70375 0.7425 0.84988 0.0
Co231 Co 0.24358 0.84644 0.90927 0.0
C232 C 0.26434 0.92349 0.93613 0.0
C233 C 0.28094 0.8859 0.95818 0.0
C234 C 0.29022 0.91997 0.97256 0.0
N235 N 0.26476 0.88819 0.93543 0.0
N236 N 0.27991 0.94348 0.95861 0.0
H237 H 0.25255 0.9341 0.92074 0.0
H238 H 0.28531 0.86096 0.96396 0.0
C239 C 0.31748 0.84439 0.89143 0.0
O240 O 0.30561 0.84358 0.86737 0.0
N241 N 0.2216 0.80251 0.88401 0.0
C242 C 0.18862 0.78952 0.86854 0.0
C243 C 0.17731 0.75114 0.8595 0.0
C244 C 0.22867 0.77105 0.88476 0.0
N245 N 0.2027 0.73974 0.86974 0.0
C246 C 0.23726 0.88993 0.86552 0.0
C247 C 0.31857 0.94843 0.86333 0.0
C248 C 0.29195 0.94869 0.84464 0.0
C249 C 0.25074 0.91933 0.84608 0.0
C250 C 0.30386 0.91805 0.88222 0.0
N251 N 0.26392 0.88812 0.88244 0.0
H252 H 0.20518 0.86949 0.86737 0.0
H253 H 0.32459 0.91893 0.89691 0.0
H254 H 0.17099 0.80438 0.86596 0.0
H255 H 0.24988 0.76942 0.89804 0.0
O256 O 0.19023 0.83987 0.91419 0.0
O257 O 0.21517 0.80662 0.93587 0.0
O258 O 0.29634 0.84578 0.91027 0.0
C259 C 0.18513 0.81327 0.9319 0.0
H260 H 0.3041 0.92729 0.99161 0.0
H261 H 0.15098 0.73216 0.84766 0.0
H262 H 0.35052 0.9712 0.86319 0.0
H263 H 0.22896 0.91963 0.83263 0.0
Co264 Co 0.13869 0.38599 0.90911 0.0
C265 C 0.05806 0.33447 0.93372 0.0
C266 C 0.07928 0.39775 0.93926 0.0
C267 C 0.04342 0.37592 0.95262 0.0
N268 N 0.0879 0.37181 0.92661 0.0
N269 N 0.03021 0.33611 0.94915 0.0
H270 H 0.05781 0.30664 0.92917 0.0
H271 H 0.09887 0.4303 0.94025 0.0
C272 C 0.12665 0.45545 0.89197 0.0
O273 O 0.08861 0.43007 0.88581 0.0
N274 N 0.19003 0.40126 0.89294 0.0
C275 C 0.20188 0.37882 0.87913 0.0
C276 C 0.24263 0.40308 0.87301 0.0
C277 C 0.22317 0.43813 0.89527 0.0
N278 N 0.25549 0.44036 0.88305 0.0
C279 C 0.08249 0.32603 0.87363 0.0
C280 C 0.10526 0.3755 0.83038 0.0
C281 C 0.07349 0.33523 0.82819 0.0
C282 C 0.06253 0.31031 0.85018 0.0
C283 C 0.12441 0.39001 0.8543 0.0
N284 N 0.1116 0.3659 0.87589 0.0
H285 H 0.07515 0.30562 0.88971 0.0
H286 H 0.14995 0.42055 0.85535 0.0
H287 H 0.18249 0.34718 0.8741 0.0
H288 H 0.22401 0.46261 0.90649 0.0
O289 O 0.13596 0.33695 0.92182 0.0
O290 O 0.16513 0.39628 0.94244 0.0
O291 O 0.14889 0.44244 0.90182 0.0
C292 C 0.15628 0.35844 0.94179 0.0
H293 H 0.02963 0.38838 0.96529 0.0
H294 H 0.26118 0.39421 0.86195 0.0
H295 H 0.11582 0.39539 0.81365 0.0
H296 H 0.03866 0.2788 0.84937 0.0
Co297 Co 0.75271 0.61882 0.58559 0.0
C298 C 0.72425 0.67442 0.56445 0.0
C299 C 0.69602 0.61555 0.54664 0.0
C300 C 0.68368 0.63904 0.53362 0.0
N301 N 0.72122 0.63742 0.56615 0.0
N302 N 0.70136 0.67586 0.54491 0.0
H303 H 0.74448 0.70067 0.57574 0.0
H304 H 0.68866 0.58503 0.5414 0.0
C305 C 0.66613 0.55348 0.59417 0.0
O306 O 0.65598 0.58072 0.60062 0.0
N307 N 0.78363 0.59891 0.60372 0.0
C308 C 0.81784 0.62008 0.61778 0.0
C309 C 0.83268 0.59451 0.62408 0.0
C310 C 0.77806 0.56116 0.60164 0.0
N311 N 0.80739 0.55752 0.61396 0.0
C312 C 0.75999 0.67859 0.62253 0.0
C313 C 0.71518 0.62491 0.6615 0.0
C314 C 0.72825 0.66629 0.66469 0.0
C315 C 0.75199 0.69342 0.64519 0.0
C316 C 0.72358 0.6114 0.63835 0.0
N317 N 0.74316 0.63784 0.61846 0.0
H318 H 0.78003 0.70002 0.60834 0.0
H319 H 0.71408 0.57957 0.63643 0.0
H320 H 0.83168 0.65207 0.62235 0.0
H321 H 0.75411 0.53734 0.59021 0.0
O322 O 0.80283 0.66653 0.57544 0.0
O323 O 0.77094 0.60872 0.55317 0.0
O324 O 0.7029 0.56388 0.589 0.0
C325 C 0.80159 0.64535 0.55523 0.0
H326 H 0.66411 0.63022 0.51674 0.0
H327 H 0.86008 0.60256 0.63494 0.0
H328 H 0.69777 0.60306 0.67645 0.0
H329 H 0.76442 0.72586 0.64748 0.0
Co330 Co 0.39265 0.14682 0.59465 0.0
C331 C 0.33558 0.06232 0.57716 0.0
C332 C 0.39762 0.07864 0.57117 0.0
C333 C 0.3734 0.0412 0.56031 0.0
N334 N 0.37412 0.09168 0.58255 0.0
N335 N 0.33438 0.03103 0.56391 0.0
H336 H 0.30902 0.06492 0.58114 0.0
H337 H 0.43001 0.09641 0.56837 0.0
C338 C 0.46538 0.13863 0.60939 0.0
O339 O 0.44239 0.10611 0.6233 0.0
N340 N 0.41179 0.20206 0.60528 0.0
C341 C 0.39228 0.21741 0.61889 0.0
C342 C 0.41586 0.25929 0.61877 0.0
C343 C 0.44642 0.23425 0.59701 0.0
N344 N 0.44981 0.26975 0.60482 0.0
C345 C 0.3433 0.09922 0.63743 0.0
C346 C 0.40215 0.13745 0.67518 0.0
C347 C 0.36434 0.10461 0.68233 0.0
C348 C 0.3344 0.08607 0.6631 0.0
C349 C 0.40956 0.14992 0.64935 0.0
N350 N 0.38102 0.12956 0.63062 0.0
H351 H 0.31962 0.0853 0.62312 0.0
H352 H 0.43873 0.17556 0.64429 0.0
H353 H 0.36253 0.19954 0.62751 0.0
H354 H 0.4682 0.23142 0.585 0.0
O355 O 0.3413 0.14228 0.58495 0.0
O356 O 0.39494 0.16346 0.55918 0.0
O357 O 0.45001 0.15727 0.59742 0.0
C358 C 0.358 0.15644 0.56245 0.0
H359 H 0.38375 0.02459 0.54846 0.0
H360 H 0.40781 0.28027 0.62744 0.0
H361 H 0.42627 0.15295 0.68924 0.0
H362 H 0.30418 0.06175 0.66782 0.0
Co363 Co 0.86648 0.26264 0.57992 0.0
C364 C 0.95023 0.29334 0.55942 0.0
C365 C 0.92152 0.32514 0.54403 0.0
C366 C 0.95737 0.33778 0.53092 0.0
N367 N 0.91714 0.29757 0.56214 0.0
N368 N 0.97526 0.31773 0.5407 0.0
H369 H 0.95465 0.27065 0.56901 0.0
H370 H 0.89889 0.33359 0.53953 0.0
C371 C 0.88175 0.34696 0.59262 0.0
O372 O 0.92078 0.36055 0.59581 0.0
N373 N 0.81504 0.22834 0.59634 0.0
C374 C 0.80276 0.19548 0.6116 0.0
C375 C 0.7612 0.17786 0.61527 0.0
C376 C 0.78148 0.23025 0.59091 0.0
N377 N 0.74802 0.19974 0.60195 0.0
C378 C 0.91651 0.251 0.61634 0.0
C379 C 0.90437 0.28947 0.65797 0.0
C380 C 0.92965 0.27266 0.66109 0.0
C381 C 0.93541 0.25306 0.63987 0.0
C382 C 0.88604 0.28676 0.63394 0.0
N383 N 0.8937 0.26931 0.6131 0.0
H384 H 0.91926 0.2333 0.60101 0.0
H385 H 0.86454 0.29739 0.63256 0.0
H386 H 0.82218 0.18428 0.61866 0.0
H387 H 0.78166 0.25314 0.57834 0.0
O388 O 0.86763 0.21531 0.56746 0.0
O389 O 0.83964 0.24636 0.54663 0.0
O390 O 0.85777 0.30995 0.58645 0.0
C391 C 0.84755 0.21673 0.54744 0.0
H392 H 0.96863 0.35876 0.51477 0.0
H393 H 0.74205 0.1502 0.62589 0.0
H394 H 0.89771 0.3034 0.67416 0.0
H395 H 0.95413 0.23903 0.64142 0.0
H396 H 0.57966 0.07795 0.10541 0.0
H397 H 0.68371 0.20022 0.10602 0.0
H398 H 0.63836 0.22803 0.11357 0.0
H399 H 0.51441 0.10261 0.07072 0.0
H400 H 0.46904 0.06833 0.08829 0.0
H401 H 0.50977 0.05728 0.08524 0.0
H402 H 0.51296 0.05282 0.13525 0.0
H403 H 0.47226 0.064 0.13847 0.0
H404 H 0.51984 0.09506 0.15493 0.0
H405 H 0.58284 0.24339 0.11838 0.0
H406 H 0.51909 0.24563 0.11855 0.0
H407 H 0.44968 0.11413 0.11447 0.0
C408 C 0.59286 0.11051 0.10749 0.0
C409 C 0.63523 0.1369 0.10516 0.0
C410 C 0.65135 0.17938 0.1076 0.0
C411 C 0.62587 0.19551 0.11207 0.0
C412 C 0.58429 0.1688 0.11404 0.0
C413 C 0.56772 0.12724 0.11177 0.0
C414 C 0.52167 0.10572 0.11303 0.0
C415 C 0.50261 0.08211 0.08782 0.0
C416 C 0.50575 0.07775 0.13684 0.0
C417 C 0.51507 0.14181 0.11585 0.0
C418 C 0.55175 0.1778 0.11666 0.0
C419 C 0.55392 0.21543 0.11795 0.0
C420 C 0.51762 0.21642 0.11791 0.0
C421 C 0.47964 0.18009 0.1165 0.0
C422 C 0.47834 0.14225 0.11598 0.0
H423 H 0.85106 0.32262 0.139 0.0
H424 H 0.79079 0.2852 0.06423 0.0
H425 H 0.80273 0.3541 0.05679 0.0
H426 H 0.81412 0.38896 0.15624 0.0
H427 H 0.86076 0.42712 0.17094 0.0
H428 H 0.84873 0.37485 0.17045 0.0
H429 H 0.91706 0.39571 0.14752 0.0
H430 H 0.92939 0.44811 0.14804 0.0
H431 H 0.92933 0.42435 0.11775 0.0
H432 H 0.81665 0.42494 0.05826 0.0
H433 H 0.83621 0.49607 0.06741 0.0
H434 H 0.89123 0.49046 0.14004 0.0
C435 C 0.84085 0.32911 0.12096 0.0
C436 C 0.81927 0.29814 0.10246 0.0
C437 C 0.8063 0.30789 0.07909 0.0
C438 C 0.81327 0.34714 0.07453 0.0
C439 C 0.83375 0.37664 0.09335 0.0
C440 C 0.84782 0.36843 0.11597 0.0
C441 C 0.86868 0.40597 0.13302 0.0
C442 C 0.84675 0.39878 0.15921 0.0
C443 C 0.9138 0.41932 0.13679 0.0
C444 C 0.86355 0.43622 0.11652 0.0
C445 C 0.84318 0.41847 0.09376 0.0
C446 C 0.83307 0.43942 0.07586 0.0
C447 C 0.84416 0.47975 0.08129 0.0
C448 C 0.86548 0.49887 0.10433 0.0
C449 C 0.87545 0.4768 0.1221 0.0
H450 H 0.66306 0.53396 0.1148 0.0
H451 H 0.72489 0.4644 0.1066 0.0
H452 H 0.65881 0.40157 0.10206 0.0
H453 H 0.57804 0.45893 0.15251 0.0
H454 H 0.54154 0.46919 0.13701 0.0
H455 H 0.59376 0.5089 0.13989 0.0
H456 H 0.59735 0.51998 0.09015 0.0
H457 H 0.54517 0.4803 0.08711 0.0
H458 H 0.58415 0.47759 0.06877 0.0
H459 H 0.58702 0.34688 0.09786 0.0
H460 H 0.51325 0.30285 0.09396 0.0
H461 H 0.49661 0.40698 0.10556 0.0
C462 C 0.66268 0.50547 0.11233 0.0
C463 C 0.69922 0.50413 0.11099 0.0
C464 C 0.6974 0.46628 0.10732 0.0
C465 C 0.65999 0.43039 0.1049 0.0
C466 C 0.62466 0.43284 0.10621 0.0
C467 C 0.62556 0.46931 0.10984 0.0
C468 C 0.58299 0.4634 0.11011 0.0
C469 C 0.57354 0.47584 0.13645 0.0
C470 C 0.57708 0.4867 0.0877 0.0
C471 C 0.55806 0.41787 0.10601 0.0
C472 C 0.58285 0.40099 0.10384 0.0
C473 C 0.56726 0.3597 0.09959 0.0
C474 C 0.52517 0.33491 0.09738 0.0
C475 C 0.49893 0.35133 0.09948 0.0
C476 C 0.51575 0.39344 0.10398 0.0
H477 H 0.13165 0.45946 0.39561 0.0
H478 H 0.26339 0.52948 0.39702 0.0
H479 H 0.26052 0.59263 0.40134 0.0
H480 H 0.11644 0.53223 0.3584 0.0
H481 H 0.07193 0.52308 0.37633 0.0
H482 H 0.08414 0.48316 0.37281 0.0
H483 H 0.08324 0.4754 0.42278 0.0
H484 H 0.07112 0.51535 0.42645 0.0
H485 H 0.11506 0.51914 0.44252 0.0
H486 H 0.24396 0.64773 0.40607 0.0
H487 H 0.21479 0.69229 0.41108 0.0
H488 H 0.09319 0.58748 0.40647 0.0
C489 C 0.15984 0.48813 0.39652 0.0
C490 C 0.19777 0.48954 0.39606 0.0
C491 C 0.23401 0.52762 0.3977 0.0
C492 C 0.2327 0.56367 0.4 0.0
C493 C 0.1949 0.56121 0.40064 0.0
C494 C 0.15908 0.52452 0.39894 0.0
C495 C 0.12253 0.53056 0.40062 0.0
C496 C 0.09728 0.51642 0.37554 0.0
C497 C 0.09646 0.50882 0.42452 0.0
C498 C 0.14351 0.57637 0.40359 0.0
C499 C 0.18524 0.5933 0.40348 0.0
C500 C 0.21132 0.63489 0.40613 0.0
C501 C 0.19435 0.65997 0.40896 0.0
C502 C 0.15162 0.64352 0.40913 0.0
C503 C 0.12593 0.60105 0.40639 0.0
H504 H 0.53071 0.67703 0.36819 0.0
H505 H 0.49585 0.71853 0.43695 0.0
H506 H 0.43793 0.64998 0.4434 0.0
H507 H 0.42998 0.60839 0.34555 0.0
H508 H 0.44151 0.57012 0.33471 0.0
H509 H 0.48071 0.62277 0.33513 0.0
H510 H 0.52552 0.60492 0.36397 0.0
H511 H 0.48649 0.55218 0.36359 0.0
H512 H 0.50537 0.57819 0.39407 0.0
H513 H 0.3832 0.5784 0.44221 0.0
H514 H 0.33536 0.50608 0.43442 0.0
H515 H 0.40597 0.50837 0.36744 0.0
C516 C 0.51115 0.67165 0.38473 0.0
C517 C 0.51778 0.70356 0.40186 0.0
C518 C 0.49112 0.69512 0.42316 0.0
C519 C 0.4582 0.65609 0.42715 0.0
C520 C 0.45237 0.62559 0.40981 0.0
C521 C 0.47811 0.63267 0.38911 0.0
C522 C 0.4647 0.59414 0.37347 0.0
C523 C 0.45356 0.59917 0.34556 0.0
C524 C 0.49747 0.58162 0.37381 0.0
C525 C 0.4274 0.56444 0.38867 0.0
C526 C 0.42091 0.58347 0.40947 0.0
C527 C 0.38803 0.56302 0.42609 0.0
C528 C 0.36096 0.5219 0.42142 0.0
C529 C 0.36697 0.50142 0.40036 0.0
C530 C 0.40077 0.52307 0.38381 0.0
H531 H 0.49909 0.92075 0.38676 0.0
H532 H 0.48376 0.79962 0.3902 0.0
H533 H 0.41062 0.76998 0.38156 0.0
H534 H 0.40891 0.89606 0.42046 0.0
H535 H 0.3969 0.92885 0.4018 0.0
H536 H 0.44892 0.94102 0.40528 0.0
H537 H 0.45649 0.94314 0.35527 0.0
H538 H 0.4043 0.93068 0.35165 0.0
H539 H 0.42186 0.8996 0.33627 0.0
H540 H 0.33956 0.75296 0.37556 0.0
H541 H 0.27284 0.74915 0.37575 0.0
H542 H 0.33211 0.88063 0.37716 0.0
C543 C 0.48033 0.88804 0.38528 0.0
C544 C 0.497 0.86244 0.38906 0.0
C545 C 0.47153 0.81976 0.3875 0.0
C546 C 0.43003 0.80264 0.38237 0.0
C547 C 0.41441 0.8286 0.37894 0.0
C548 C 0.43856 0.87034 0.3805 0.0
C549 C 0.41321 0.89096 0.37832 0.0
C550 C 0.41722 0.91566 0.40293 0.0
C551 C 0.42465 0.91768 0.35392 0.0
C552 C 0.37101 0.85419 0.37589 0.0
C553 C 0.37268 0.81862 0.37587 0.0
C554 C 0.33782 0.78056 0.37532 0.0
C555 C 0.30013 0.77868 0.37552 0.0
C556 C 0.29752 0.81457 0.37642 0.0
C557 C 0.33341 0.85284 0.37595 0.0
H558 H 0.36951 0.83953 0.85636 0.0
H559 H 0.34987 0.84501 0.93892 0.0
H560 H 0.41051 0.83942 0.94837 0.0
H561 H 0.40063 0.76609 0.86019 0.0
H562 H 0.43857 0.78837 0.83512 0.0
H563 H 0.39508 0.79542 0.83467 0.0
H564 H 0.44264 0.87352 0.83378 0.0
H565 H 0.48635 0.86672 0.83425 0.0
H566 H 0.48073 0.89758 0.85865 0.0
H567 H 0.47 0.82854 0.94915 0.0
H568 H 0.52546 0.81373 0.941 0.0
H569 H 0.50819 0.81695 0.85815 0.0
C570 C 0.37818 0.83998 0.87642 0.0
C571 C 0.35489 0.84274 0.8969 0.0
C572 C 0.36718 0.84296 0.92289 0.0
C573 C 0.40166 0.83989 0.92847 0.0
C574 C 0.42371 0.83689 0.90787 0.0
C575 C 0.41264 0.83708 0.88236 0.0
C576 C 0.44085 0.83197 0.86389 0.0
C577 C 0.41737 0.79316 0.84751 0.0
C578 C 0.46402 0.8697 0.84663 0.0
C579 C 0.46906 0.82817 0.88304 0.0
C580 C 0.45863 0.83121 0.90831 0.0
C581 C 0.47872 0.8265 0.92946 0.0
C582 C 0.50998 0.81795 0.92468 0.0
C583 C 0.52099 0.81442 0.89899 0.0
C584 C 0.50069 0.82023 0.87793 0.0
H585 H 0.08816 0.49892 0.88025 0.0
H586 H 0.20723 0.51156 0.89151 0.0
H587 H 0.23939 0.58474 0.88304 0.0
H588 H 0.11767 0.57581 0.82902 0.0
H589 H 0.08561 0.59457 0.8412 0.0
H590 H 0.07148 0.54214 0.84608 0.0
H591 H 0.06727 0.55063 0.89567 0.0
H592 H 0.08115 0.60295 0.89092 0.0
H593 H 0.11057 0.59029 0.91249 0.0
H594 H 0.25894 0.6566 0.87582 0.0
H595 H 0.26441 0.72397 0.87212 0.0
H596 H 0.13325 0.66633 0.86624 0.0
C597 C 0.12099 0.51705 0.88063 0.0
C598 C 0.14517 0.49938 0.88646 0.0
C599 C 0.18803 0.52426 0.88713 0.0
C600 C 0.20666 0.56593 0.8822 0.0
C601 C 0.18206 0.58246 0.87667 0.0
C602 C 0.14018 0.55898 0.87595 0.0
C603 C 0.12092 0.58508 0.87114 0.0
C604 C 0.09754 0.57371 0.84532 0.0
C605 C 0.09336 0.58205 0.89392 0.0
C606 C 0.15854 0.62683 0.86974 0.0
C607 C 0.19345 0.62444 0.8727 0.0
C608 C 0.23187 0.65891 0.8733 0.0
C609 C 0.23468 0.69699 0.87129 0.0
C610 C 0.19933 0.70032 0.86884 0.0
C611 C 0.16083 0.66468 0.86759 0.0
H612 H 0.49494 0.57126 0.90256 0.0
H613 H 0.48014 0.67747 0.89856 0.0
H614 H 0.40763 0.63362 0.8885 0.0
H615 H 0.42365 0.51322 0.85103 0.0
H616 H 0.40388 0.46525 0.86761 0.0
H617 H 0.45553 0.50486 0.87316 0.0
H618 H 0.44167 0.5016 0.92257 0.0
H619 H 0.39012 0.4618 0.91718 0.0
H620 H 0.40002 0.50734 0.93418 0.0
H621 H 0.33738 0.57959 0.87986 0.0
H622 H 0.27097 0.51693 0.87644 0.0
H623 H 0.32897 0.44438 0.88706 0.0
C624 C 0.47642 0.58521 0.89941 0.0
C625 C 0.49319 0.62777 0.90129 0.0
C626 C 0.46795 0.64493 0.89735 0.0
C627 C 0.42676 0.62032 0.89143 0.0
C628 C 0.41118 0.57857 0.88967 0.0
C629 C 0.43495 0.56096 0.89376 0.0
C630 C 0.40972 0.51497 0.89212 0.0
C631 C 0.42406 0.49862 0.86964 0.0
C632 C 0.41042 0.49528 0.91806 0.0
C633 C 0.36807 0.50964 0.88668 0.0
C634 C 0.3699 0.54688 0.88509 0.0
C635 C 0.3355 0.55024 0.88104 0.0
C636 C 0.29795 0.51456 0.87923 0.0
C637 C 0.29497 0.47602 0.88162 0.0
C638 C 0.3306 0.47351 0.88482 0.0
H639 H 0.87751 0.55436 0.61243 0.0
H640 H 0.74629 0.47993 0.61597 0.0
H641 H 0.75185 0.41805 0.61291 0.0
H642 H 0.89251 0.49501 0.56585 0.0
H643 H 0.9388 0.50117 0.57979 0.0
H644 H 0.92514 0.53984 0.58449 0.0
H645 H 0.92968 0.53402 0.6343 0.0
H646 H 0.94362 0.49547 0.62976 0.0
H647 H 0.90054 0.48516 0.6497 0.0
H648 H 0.77066 0.36507 0.60671 0.0
H649 H 0.80159 0.32274 0.5985 0.0
H650 H 0.9215 0.43046 0.59894 0.0
C651 C 0.8501 0.52498 0.61313 0.0
C652 C 0.81142 0.52181 0.61447 0.0
C653 C 0.77612 0.48292 0.61475 0.0
C654 C 0.77901 0.44766 0.61315 0.0
C655 C 0.81745 0.45179 0.61131 0.0
C656 C 0.85244 0.48934 0.6114 0.0
C657 C 0.88981 0.485 0.60789 0.0
C658 C 0.91291 0.50653 0.58303 0.0
C659 C 0.91754 0.50085 0.63184 0.0
C660 C 0.87019 0.4392 0.60545 0.0
C661 C 0.82844 0.4208 0.60762 0.0
C662 C 0.80333 0.37903 0.60517 0.0
C663 C 0.82129 0.35527 0.60037 0.0
C664 C 0.86405 0.37323 0.59803 0.0
C665 C 0.88879 0.41581 0.60079 0.0
H666 H 0.59594 0.50899 0.62241 0.0
H667 H 0.66682 0.5011 0.55899 0.0
H668 H 0.61667 0.42853 0.5535 0.0
H669 H 0.57026 0.41272 0.64988 0.0
H670 H 0.51979 0.40027 0.65971 0.0
H671 H 0.55927 0.45264 0.65743 0.0
H672 H 0.51471 0.467 0.62594 0.0
H673 H 0.47507 0.41461 0.62811 0.0
H674 H 0.49521 0.43692 0.59689 0.0
H675 H 0.56028 0.35784 0.55472 0.0
H676 H 0.50293 0.29051 0.56457 0.0
H677 H 0.4701 0.34122 0.62965 0.0
C678 C 0.60043 0.49195 0.60719 0.0
C679 C 0.63495 0.51051 0.59097 0.0
C680 C 0.64051 0.4873 0.5716 0.0
C681 C 0.61213 0.44617 0.56824 0.0
C682 C 0.57861 0.42858 0.58462 0.0
C683 C 0.57268 0.45043 0.60389 0.0
C684 C 0.53537 0.42308 0.61992 0.0
C685 C 0.54688 0.42212 0.64842 0.0
C686 C 0.50318 0.43619 0.61756 0.0
C687 C 0.52153 0.38256 0.60665 0.0
C688 C 0.54672 0.38675 0.58616 0.0
C689 C 0.54047 0.35399 0.57086 0.0
C690 C 0.50786 0.31564 0.57684 0.0
C691 C 0.48208 0.31001 0.59825 0.0
C692 C 0.48895 0.34425 0.61314 0.0
H693 H 0.68291 0.15786 0.63424 0.0
H694 H 0.71926 0.22205 0.56068 0.0
H695 H 0.65138 0.21353 0.55541 0.0
H696 H 0.57971 0.08357 0.61293 0.0
H697 H 0.55717 0.08211 0.64396 0.0
H698 H 0.609 0.09287 0.64223 0.0
H699 H 0.63244 0.15984 0.66763 0.0
H700 H 0.58074 0.14946 0.66926 0.0
H701 H 0.6196 0.19657 0.65551 0.0
H702 H 0.58213 0.20261 0.55885 0.0
H703 H 0.5115 0.18342 0.56879 0.0
H704 H 0.51613 0.12168 0.63857 0.0
C705 C 0.67641 0.16968 0.61691 0.0
C706 C 0.70695 0.19149 0.59821 0.0
C707 C 0.69708 0.20644 0.57576 0.0
C708 C 0.65838 0.20146 0.57242 0.0
C709 C 0.62943 0.18086 0.59146 0.0
C710 C 0.63753 0.16458 0.61308 0.0
C711 C 0.60033 0.14343 0.63037 0.0
C712 C 0.58569 0.09778 0.63249 0.0
C713 C 0.6088 0.16354 0.65729 0.0
C714 C 0.57045 0.15092 0.61516 0.0
C715 C 0.58819 0.17285 0.59289 0.0
C716 C 0.56764 0.18504 0.57608 0.0
C717 C 0.52758 0.17416 0.58199 0.0
C718 C 0.50826 0.1509 0.60439 0.0
C719 C 0.53004 0.13914 0.62119 0.0
H720 H 0.30995 0.11212 0.05997 0.0
H721 H 0.37502 0.2009 -9e-05 0.0
H722 H 0.35372 0.14548 0.96767 0.0
H723 H 0.34233 0.04559 0.04033 0.0
H724 H 0.29602 -0.00024 0.04853 0.0
H725 H 0.30981 0.04618 0.06559 0.0
H726 H 0.24074 0.03999 0.05325 0.0
H727 H 0.22664 0.99337 0.03616 0.0
H728 H 0.22587 0.03481 0.01962 0.0
H729 H 0.32902 0.08008 0.94279 0.0
H730 H 0.30951 0.01034 0.92838 0.0
H731 H 0.26614 0.9651 0.00569 0.0
C732 C 0.31857 0.1198 0.03984 0.0
C733 C 0.34327 0.16053 0.03212 0.0
C734 C 0.3556 0.1697 0.00596 0.0
C735 C 0.34352 0.13849 0.98757 0.0
C736 C 0.31968 0.09841 0.99586 0.0
C737 C 0.3077 0.08901 0.02146 0.0
C738 C 0.28687 0.04368 0.02616 0.0
C739 C 0.31016 0.03321 0.04633 0.0
C740 C 0.24238 0.02698 0.03427 0.0
C741 C 0.28972 0.02908 -0.00064 0.0
C742 C 0.30778 0.06094 0.98197 0.0
C743 C 0.3146 0.05488 0.95619 0.0
C744 C 0.30335 0.01531 0.94814 0.0
C745 C 0.28646 0.98273 0.966 0.0
C746 C 0.27908 0.98969 0.99177 0.0
H747 H 0.81944 0.22717 0.02362 0.0
H748 H 0.84392 0.12953 0.04062 0.0
H749 H 0.90468 0.16192 0.01253 0.0
H750 H 0.85706 0.24618 0.95577 0.0
H751 H 0.87923 0.30041 0.95917 0.0
H752 H 0.83466 0.26663 0.97759 0.0
H753 H 0.87221 0.30184 0.02009 0.0
H754 H 0.91698 0.33543 0.00189 0.0
H755 H 0.92002 0.30483 0.02755 0.0
H756 H 0.9655 0.20754 0.98594 0.0
H757 H 0.02302 0.26373 0.9631 0.0
H758 H 0.96007 0.33279 0.96409 0.0
C759 C 0.83697 0.21207 0.02076 0.0
C760 C 0.8269 0.17566 0.0339 0.0
C761 C 0.85115 0.15735 0.0305 0.0
C762 C 0.8856 0.17545 0.01457 0.0
C763 C 0.89538 0.21194 0.00237 0.0
C764 C 0.87179 0.23007 0.00523 0.0
C765 C 0.89102 0.27105 0.99193 0.0
C766 C 0.86387 0.27105 0.9698 0.0
C767 C 0.90063 0.30529 0.01154 0.0
C768 C 0.92945 0.27344 0.98156 0.0
C769 C 0.9311 0.23882 0.98751 0.0
C770 C 0.96432 0.23457 0.98083 0.0
C771 C 0.99681 0.26664 0.96774 0.0
C772 C 0.99598 0.30261 0.96163 0.0
C773 C 0.96165 0.30576 0.96856 0.0
H774 H 0.78723 0.66469 0.07403 0.0
H775 H 0.86218 0.65346 0.01505 0.0
H776 H 0.82862 0.67292 0.98133 0.0
H777 H 0.69891 0.61581 0.03814 0.0
H778 H 0.67712 0.6456 0.04966 0.0
H779 H 0.71251 0.63946 0.06966 0.0
H780 H 0.75835 0.71766 0.07291 0.0
H781 H 0.72286 0.7241 0.05306 0.0
H782 H 0.7755 0.74756 0.04367 0.0
H783 H 0.78317 0.68833 0.95379 0.0
H784 H 0.72544 0.69218 0.93425 0.0
H785 H 0.67606 0.68637 0.01082 0.0
C786 C 0.79752 0.66795 0.05411 0.0
C787 C 0.828 0.65898 0.04704 0.0
C788 C 0.83945 0.66123 0.02075 0.0
C789 C 0.8206 0.67228 0.00154 0.0
C790 C 0.78983 0.68007 0.00899 0.0
C791 C 0.77812 0.67769 0.03465 0.0
C792 C 0.74057 0.68173 0.03715 0.0
C793 C 0.70521 0.64337 0.04937 0.0
C794 C 0.7499 0.72005 0.05261 0.0
C795 C 0.73248 0.68589 0.00889 0.0
C796 C 0.76178 0.68591 0.99299 0.0
C797 C 0.76018 0.68859 0.96607 0.0
C798 C 0.72747 0.69079 0.95513 0.0
C799 C 0.69647 0.68928 0.97108 0.0
C800 C 0.69933 0.68725 0.99827 0.0
H801 H 0.99606 0.3194 0.49038 0.0
H802 H 0.03437 0.31656 0.5691 0.0
H803 H 0.09693 0.31921 0.55242 0.0
H804 H 0.03387 0.25578 0.46233 0.0
H805 H 0.04896 0.28404 0.4324 0.0
H806 H 0.00673 0.28031 0.45061 0.0
H807 H 0.04133 0.35892 0.45208 0.0
H808 H 0.08343 0.36285 0.43374 0.0
H809 H 0.09228 0.38809 0.46465 0.0
H810 H 0.15867 0.33081 0.52708 0.0
H811 H 0.21288 0.34589 0.49483 0.0
H812 H 0.13084 0.33393 0.43272 0.0
C813 C 0.01767 0.31926 0.50403 0.0
C814 C 0.01089 0.31816 0.53098 0.0
C815 C 0.0393 0.31736 0.54838 0.0
C816 C 0.07473 0.31883 0.53908 0.0
C817 C 0.08066 0.32012 0.51232 0.0
C818 C 0.05264 0.31981 0.49505 0.0
C819 C 0.0664 0.32199 0.46726 0.0
C820 C 0.03725 0.28321 0.45227 0.0
C821 C 0.07115 0.36023 0.45365 0.0
C822 C 0.10709 0.32473 0.4716 0.0
C823 C 0.11491 0.3238 0.49773 0.0
C824 C 0.15247 0.3304 0.50656 0.0
C825 C 0.18297 0.33884 0.48822 0.0
C826 C 0.17523 0.33961 0.46148 0.0
C827 C 0.13669 0.3317 0.45306 0.0
H828 H 0.6778 0.81196 0.4386 0.0
H829 H 0.63151 0.8569 0.49918 0.0
H830 H 0.6515 0.82268 0.53229 0.0
H831 H 0.63623 0.71546 0.46425 0.0
H832 H 0.67676 0.70671 0.45437 0.0
H833 H 0.66672 0.74125 0.43629 0.0
H834 H 0.74129 0.79858 0.44281 0.0
H835 H 0.75169 0.76409 0.46083 0.0
H836 H 0.76196 0.81162 0.47514 0.0
H837 H 0.67244 0.77934 0.5583 0.0
H838 H 0.68519 0.72493 0.57431 0.0
H839 H 0.71055 0.70345 0.4959 0.0
C840 C 0.67332 0.81578 0.45894 0.0
C841 C 0.65431 0.83787 0.4666 0.0
C842 C 0.64682 0.84063 0.49316 0.0
C843 C 0.65815 0.82142 0.51202 0.0
C844 C 0.67614 0.79902 0.5038 0.0
C845 C 0.68325 0.79581 0.47782 0.0
C846 C 0.69736 0.76537 0.47357 0.0
C847 C 0.66748 0.73013 0.4561 0.0
C848 C 0.74065 0.78617 0.46243 0.0
C849 C 0.69647 0.7514 0.50113 0.0
C850 C 0.68519 0.77185 0.51842 0.0
C851 C 0.68149 0.76331 0.54494 0.0
C852 C 0.68882 0.73258 0.55388 0.0
C853 C 0.69862 0.71028 0.53624 0.0
C854 C 0.70298 0.7202 0.50966 0.0
H855 H 0.32444 0.95689 0.55386 0.0
H856 H 0.26795 0.03101 0.54412 0.0
H857 H 0.21536 0.97798 0.51614 0.0
H858 H 0.31477 0.92521 0.49053 0.0
H859 H 0.30443 0.8744 0.49749 0.0
H860 H 0.33345 0.91482 0.52004 0.0
H861 H 0.2827 0.8743 0.5568 0.0
H862 H 0.25369 0.83341 0.5344 0.0
H863 H 0.2293 0.85619 0.55222 0.0
H864 H 0.17519 0.92144 0.48431 0.0
H865 H 0.14808 0.86397 0.45339 0.0
H866 H 0.23117 0.82715 0.48422 0.0
C867 C 0.30044 0.9615 0.54629 0.0
C868 C 0.30013 0.9979 0.55122 0.0
C869 C 0.26838 0.00304 0.54096 0.0
C870 C 0.23852 0.97318 0.52493 0.0
C871 C 0.24065 0.93825 0.51967 0.0
C872 C 0.2705 0.93205 0.53037 0.0
C873 C 0.26805 0.89349 0.52025 0.0
C874 C 0.30751 0.90255 0.50624 0.0
C875 C 0.25781 0.86251 0.54223 0.0
C876 C 0.23305 0.87964 0.50145 0.0
C877 C 0.21739 0.90563 0.50152 0.0
C878 C 0.18671 0.90049 0.48444 0.0
C879 C 0.17167 0.86793 0.46687 0.0
C880 C 0.18742 0.84107 0.46654 0.0
C881 C 0.2182 0.8469 0.48425 0.0
H882 H 0.62915 0.95832 0.03165 0.0
H883 H 0.76071 0.02659 0.02875 0.0
H884 H 0.76105 0.96904 0.00647 0.0
H885 H 0.61962 0.85868 0.04265 0.0
H886 H 0.57481 0.83268 0.02271 0.0
H887 H 0.58528 0.87835 0.03975 0.0
H888 H 0.58165 0.91112 0.99641 0.0
H889 H 0.57096 0.8655 0.97935 0.0
H890 H 0.6134 0.91359 0.96967 0.0
H891 H 0.74629 0.90658 0.98056 0.0
H892 H 0.71758 0.84287 0.95498 0.0
H893 H 0.59606 0.81462 0.97703 0.0
C894 C 0.65799 0.96098 0.02643 0.0
C895 C 0.69488 0.99677 0.03191 0.0
C896 C 0.73213 0.99919 0.025 0.0
C897 C 0.73259 0.96674 0.01227 0.0
C898 C 0.69558 0.93196 0.00695 0.0
C899 C 0.65898 0.92876 0.01404 0.0
C900 C 0.62339 0.88861 0.00554 0.0
C901 C 0.59937 0.86308 0.02907 0.0
C902 C 0.59575 0.89512 0.98662 0.0
C903 C 0.64561 0.87006 0.99203 0.0
C904 C 0.68723 0.89548 0.99299 0.0
C905 C 0.7138 0.88608 0.98009 0.0
C906 C 0.69729 0.84996 0.96562 0.0
C907 C 0.65476 0.82366 0.96448 0.0
C908 C 0.62877 0.83365 0.97818 0.0
H909 H 0.04392 0.67591 0.04701 0.0
H910 H 0.95378 0.70689 0.02148 0.0
H911 H 0.99771 0.74516 0.9847 0.0
H912 H 0.13029 0.77145 0.03314 0.0
H913 H 0.16121 0.75053 0.02234 0.0
H914 H 0.12151 0.72342 0.04572 0.0
H915 H 0.08968 0.66002 0.01583 0.0
H916 H 0.12934 0.68696 0.99235 0.0
H917 H 0.07684 0.66475 0.98283 0.0
H918 H 0.05317 0.7833 0.95209 0.0
H919 H 0.11569 0.81739 0.92564 0.0
H920 H 0.16943 0.76158 0.97269 0.0
C921 C 0.03337 0.69068 0.0337 0.0
C922 C 0.9953 0.68821 0.03713 0.0
C923 C 0.98249 0.70773 0.01907 0.0
C924 C 0.00734 0.72976 0.99818 0.0
C925 C 0.04482 0.73184 0.99553 0.0
C926 C 0.05772 0.7127 0.01273 0.0
C927 C 0.09978 0.72049 0.00593 0.0
C928 C 0.12997 0.7428 0.0281 0.0
C929 C 0.09883 0.68068 0.9988 0.0
C930 C 0.10878 0.74757 0.98247 0.0
C931 C 0.07666 0.75365 0.97671 0.0
C932 C 0.07842 0.77854 0.9563 0.0
C933 C 0.11404 0.79781 0.94142 0.0
C934 C 0.1473 0.79204 0.94709 0.0
C935 C 0.1444 0.76638 0.96779 0.0
H936 H 0.22546 0.39989 0.9702 0.0
H937 H 0.12409 0.27905 0.95591 0.0
H938 H 0.15561 0.24998 0.98441 0.0
H939 H 0.29956 0.3725 0.96542 0.0
H940 H 0.33258 0.40688 0.99001 0.0
H941 H 0.29912 0.41885 0.97225 0.0
H942 H 0.26758 0.42539 0.0153 0.0
H943 H 0.30126 0.41378 0.03327 0.0
H944 H 0.24713 0.38387 0.03809 0.0
H945 H 0.201 0.23379 0.01121 0.0
H946 H 0.25786 0.23131 0.03273 0.0
H947 H 0.3308 0.36257 0.02786 0.0
C948 C 0.20932 0.36746 0.97378 0.0
C949 C 0.17211 0.34165 0.96131 0.0
C950 C 0.1525 0.29923 0.96556 0.0
C951 C 0.1701 0.28253 0.98174 0.0
C952 C 0.20743 0.3087 0.99326 0.0
C953 C 0.22685 0.35028 0.98944 0.0
C954 C 0.26867 0.3713 0.00167 0.0
C955 C 0.30192 0.39368 0.98111 0.0
C956 C 0.27129 0.40029 0.02338 0.0
C957 C 0.27007 0.33501 0.01253 0.0
C958 C 0.23424 0.29925 0.00787 0.0
C959 C 0.22901 0.26163 0.01526 0.0
C960 C 0.26141 0.26053 0.02755 0.0
C961 C 0.29868 0.29677 0.03201 0.0
C962 C 0.30272 0.33441 0.02459 0.0
H963 H 0.02468 0.7056 0.51284 0.0
H964 H 0.98226 0.68478 0.43327 0.0
H965 H 0.91528 0.67361 0.4478 0.0
H966 H 0.93338 0.63142 0.54212 0.0
H967 H 0.93825 0.66162 0.57031 0.0
H968 H 0.98298 0.66937 0.55336 0.0
H969 H 0.00576 0.74567 0.54769 0.0
H970 H 0.96088 0.73805 0.56449 0.0
H971 H 0.9719 0.75984 0.53242 0.0
H972 H 0.85138 0.65748 0.47154 0.0
H973 H 0.79579 0.64148 0.50276 0.0
H974 H 0.88164 0.67902 0.56635 0.0
C975 C 0.0012 0.69871 0.49856 0.0
C976 C 0.0082 0.69572 0.47201 0.0
C977 C 0.97721 0.68726 0.4537 0.0
C978 C 0.93925 0.68091 0.46176 0.0
C979 C 0.93323 0.68399 0.48814 0.0
C980 C 0.96347 0.69312 0.50624 0.0
C981 C 0.94906 0.69419 0.53343 0.0
C982 C 0.95103 0.66224 0.55082 0.0
C983 C 0.97335 0.73699 0.54519 0.0
C984 C 0.90564 0.68319 0.52788 0.0
C985 C 0.89705 0.67726 0.50163 0.0
C986 C 0.85791 0.66301 0.49204 0.0
C987 C 0.82664 0.65404 0.50981 0.0
C988 C 0.83504 0.66021 0.53665 0.0
C989 C 0.87502 0.6756 0.54576 0.0
H990 H 0.39281 0.20228 0.51947 0.0
H991 H 0.27882 0.13956 0.56138 0.0
H992 H 0.24884 0.16822 0.53125 0.0
H993 H 0.39298 0.29176 0.51228 0.0
H994 H 0.41558 0.30367 0.48045 0.0
H995 H 0.42546 0.27237 0.50196 0.0
H996 H 0.3994 0.21543 0.46723 0.0
H997 H 0.38966 0.24674 0.44544 0.0
H998 H 0.34947 0.19637 0.45348 0.0
H999 H 0.23428 0.21053 0.49984 0.0
H1000 H 0.23734 0.26432 0.47126 0.0
H1001 H 0.36143 0.30004 0.45089 0.0
C1002 C 0.36114 0.19349 0.52183 0.0
C1003 C 0.33796 0.16837 0.54256 0.0
C1004 C 0.29698 0.15852 0.54546 0.0
C1005 C 0.27969 0.17456 0.5284 0.0
C1006 C 0.30381 0.20028 0.50858 0.0
C1007 C 0.34365 0.20953 0.5052 0.0
C1008 C 0.36465 0.2414 0.48441 0.0
C1009 C 0.40184 0.27954 0.49545 0.0
C1010 C 0.37648 0.22393 0.46127 0.0
C1011 C 0.33093 0.2498 0.47725 0.0
C1012 C 0.29578 0.22525 0.49096 0.0
C1013 C 0.26142 0.22941 0.48867 0.0
C1014 C 0.26335 0.25992 0.47232 0.0
C1015 C 0.2996 0.2862 0.45882 0.0
C1016 C 0.33337 0.28034 0.46098 0.0
H1017 H 0.7818 0.1939 0.51614 0.0
H1018 H 0.87489 0.16427 0.53637 0.0
H1019 H 0.84178 0.10353 0.50821 0.0
H1020 H 0.70158 0.09564 0.51989 0.0
H1021 H 0.67275 0.09964 0.49341 0.0
H1022 H 0.7072 0.14427 0.51144 0.0
H1023 H 0.74473 0.17973 0.46903 0.0
H1024 H 0.71011 0.13527 0.45076 0.0
H1025 H 0.76411 0.1551 0.44824 0.0
H1026 H 0.7949 0.04265 0.48177 0.0
H1027 H 0.73707 0.98532 0.4598 0.0
H1028 H 0.67367 0.05388 0.45748 0.0
C1029 C 0.7959 0.17532 0.51395 0.0
C1030 C 0.83114 0.18392 0.52806 0.0
C1031 C 0.84803 0.15824 0.52549 0.0
C1032 C 0.82952 0.1238 0.50951 0.0
C1033 C 0.7941 0.11548 0.49638 0.0
C1034 C 0.77749 0.14055 0.49838 0.0
C1035 C 0.73704 0.12261 0.48449 0.0
C1036 C 0.70263 0.11509 0.50344 0.0
C1037 C 0.73914 0.1498 0.46177 0.0
C1038 C 0.73302 0.08308 0.47492 0.0
C1039 C 0.76652 0.07982 0.48163 0.0
C1040 C 0.76879 0.04512 0.47603 0.0
C1041 C 0.73581 0.01273 0.46343 0.0
C1042 C 0.70085 0.01514 0.45677 0.0
C1043 C 0.69988 0.05108 0.46238 0.0
H1044 H 0.31099 0.31481 0.30871 0.0
H1045 H 0.23661 0.36406 0.28064 0.0
H1046 H 0.24487 0.34654 0.23572 0.0
H1047 H 0.38191 0.35055 0.25601 0.0
H1048 H 0.38752 0.30614 0.25515 0.0
H1049 H 0.37492 0.32155 0.28516 0.0
H1050 H 0.31103 0.25031 0.2898 0.0
H1051 H 0.32347 0.23465 0.25983 0.0
H1052 H 0.27441 0.23056 0.2638 0.0
H1053 H 0.26093 0.32358 0.1941 0.0
H1054 H 0.28575 0.29893 0.15812 0.0
H1055 H 0.35045 0.26516 0.21308 0.0
C1056 C 0.29617 0.32157 0.29311 0.0
C1057 C 0.27309 0.34073 0.2981 0.0
C1058 C 0.25468 0.3497 0.27718 0.0
C1059 C 0.25904 0.33968 0.25165 0.0
C1060 C 0.28207 0.32092 0.24739 0.0
C1061 C 0.30048 0.31209 0.2675 0.0
C1062 C 0.32443 0.29272 0.25755 0.0
C1063 C 0.36989 0.31934 0.26384 0.0
C1064 C 0.3073 0.24949 0.26839 0.0
C1065 C 0.31659 0.29204 0.22869 0.0
C1066 C 0.29188 0.30823 0.2233 0.0
C1067 C 0.28023 0.31076 0.19808 0.0
C1068 C 0.2943 0.29647 0.1778 0.0
C1069 C 0.31991 0.27999 0.1828 0.0
C1070 C 0.33116 0.27785 0.20863 0.0
H1071 H 0.72941 0.08054 0.21466 0.0
H1072 H 0.69154 0.98125 0.15984 0.0
H1073 H 0.66978 0.93247 0.19604 0.0
H1074 H 0.76758 0.03987 0.26374 0.0
H1075 H 0.74961 0.05723 0.29048 0.0
H1076 H 0.76312 0.08475 0.26028 0.0
H1077 H 0.69163 0.07751 0.25762 0.0
H1078 H 0.67797 0.05011 0.28784 0.0
H1079 H 0.64722 0.02767 0.25937 0.0
H1080 H 0.64999 0.89424 0.2377 0.0
H1081 H 0.63406 0.8689 0.28273 0.0
H1082 H 0.68503 0.99266 0.31072 0.0
C1083 C 0.71646 0.04853 0.21031 0.0
C1084 C 0.71238 0.03468 0.18446 0.0
C1085 C 0.69553 0.99257 0.17953 0.0
C1086 C 0.68291 0.96461 0.19994 0.0
C1087 C 0.68746 0.97923 0.22517 0.0
C1088 C 0.70388 0.02015 0.23049 0.0
C1089 C 0.705 0.02766 0.25942 0.0
C1090 C 0.74894 0.05393 0.26904 0.0
C1091 C 0.67889 0.04686 0.26647 0.0
C1092 C 0.68628 0.98453 0.26944 0.0
C1093 C 0.67639 0.9571 0.24934 0.0
C1094 C 0.65772 0.9154 0.25364 0.0
C1095 C 0.64865 0.90129 0.27921 0.0
C1096 C 0.65842 0.92885 0.3001 0.0
C1097 C 0.67776 0.971 0.2951 0.0
H1098 H 0.98298 0.67941 0.19877 0.0
H1099 H 0.86084 0.62634 0.22967 0.0
H1100 H 0.8887 0.64116 0.27432 0.0
H1101 H 0.02078 0.63978 0.24774 0.0
H1102 H 0.07069 0.68416 0.24865 0.0
H1103 H 0.04124 0.67091 0.21921 0.0
H1104 H 0.04809 0.74232 0.218 0.0
H1105 H 0.07769 0.75585 0.24739 0.0
H1106 H 0.03252 0.76009 0.24576 0.0
H1107 H 0.93001 0.6629 0.31528 0.0
H1108 H 0.98168 0.68677 0.35011 0.0
H1109 H 0.07667 0.72248 0.2925 0.0
C1110 C 0.96222 0.67132 0.21498 0.0
C1111 C 0.91985 0.65209 0.21095 0.0
C1112 C 0.8934 0.64112 0.23251 0.0
C1113 C 0.90895 0.64949 0.25784 0.0
C1114 C 0.95092 0.66837 0.26118 0.0
C1115 C 0.97718 0.67888 0.24036 0.0
C1116 C 0.02089 0.69759 0.24926 0.0
C1117 C 0.03948 0.67154 0.2407 0.0
C1118 C 0.04628 0.74157 0.23952 0.0
C1119 C 0.01517 0.69613 0.27836 0.0
C1120 C 0.9746 0.67949 0.28481 0.0
C1121 C 0.96183 0.67582 0.31048 0.0
C1122 C 0.99131 0.68952 0.33008 0.0
C1123 C 0.03295 0.70623 0.32389 0.0
C1124 C 0.04495 0.70939 0.29771 0.0
H1125 H 0.7306 0.6474 0.71598 0.0
H1126 H 0.69821 0.71807 0.66529 0.0
H1127 H 0.67519 0.74099 0.70316 0.0
H1128 H 0.64718 0.61402 0.75946 0.0
H1129 H 0.67615 0.61812 0.78815 0.0
H1130 H 0.69143 0.60827 0.75718 0.0
H1131 H 0.76294 0.67136 0.76305 0.0
H1132 H 0.74789 0.68139 0.79407 0.0
H1133 H 0.76759 0.7202 0.76942 0.0
H1134 H 0.65172 0.75267 0.74576 0.0
H1135 H 0.63266 0.7556 0.79122 0.0
H1136 H 0.68255 0.67975 0.81485 0.0
C1137 C 0.71875 0.66778 0.71293 0.0
C1138 C 0.7162 0.68106 0.68775 0.0
C1139 C 0.70081 0.70793 0.68447 0.0
C1140 C 0.68752 0.72096 0.70582 0.0
C1141 C 0.69022 0.70717 0.73035 0.0
C1142 C 0.70578 0.6815 0.7341 0.0
C1143 C 0.70514 0.67114 0.76255 0.0
C1144 C 0.67838 0.62516 0.76709 0.0
C1145 C 0.74847 0.68698 0.77288 0.0
C1146 C 0.68616 0.69446 0.77413 0.0
C1147 C 0.67769 0.71491 0.75516 0.0
C1148 C 0.65854 0.73714 0.76083 0.0
C1149 C 0.64768 0.73849 0.78661 0.0
C1150 C 0.65631 0.71802 0.80637 0.0
C1151 C 0.67609 0.69602 0.80006 0.0
H1152 H 0.27679 0.93517 0.79288 0.0
H1153 H 0.34086 0.03113 0.84931 0.0
H1154 H 0.36511 0.08221 0.81402 0.0
H1155 H 0.35324 0.9778 0.74361 0.0
H1156 H 0.31724 0.96115 0.71726 0.0
H1157 H 0.30418 0.93276 0.74709 0.0
H1158 H 0.23991 0.93981 0.75117 0.0
H1159 H 0.25288 0.96839 0.7214 0.0
H1160 H 0.24507 0.98966 0.75063 0.0
H1161 H 0.38117 0.12256 0.7724 0.0
H1162 H 0.39138 0.14887 0.72764 0.0
H1163 H 0.3196 0.02543 0.69866 0.0
C1164 C 0.29567 0.96699 0.79779 0.0
C1165 C 0.30683 0.9794 0.82373 0.0
C1166 C 0.33217 0.02114 0.82947 0.0
C1167 C 0.34586 0.05029 0.80961 0.0
C1168 C 0.33418 0.03702 0.78419 0.0
C1169 C 0.30994 0.99632 0.77823 0.0
C1170 C 0.30288 0.98977 0.74933 0.0
C1171 C 0.32045 0.96385 0.7387 0.0
C1172 C 0.25749 0.97079 0.74276 0.0
C1173 C 0.32682 0.03318 0.73991 0.0
C1174 C 0.34442 0.06003 0.76028 0.0
C1175 C 0.36778 0.10177 0.75627 0.0
C1176 C 0.37362 0.11639 0.73073 0.0
C1177 C 0.35649 0.08929 0.70948 0.0
C1178 C 0.33266 0.04714 0.71435 0.0
H1179 H 0.04991 0.37327 0.79253 0.0
H1180 H 0.04923 0.26027 0.80713 0.0
H1181 H 0.01107 0.23174 0.76658 0.0
H1182 H 0.95036 0.32948 0.76526 0.0
H1183 H 0.96404 0.36838 0.74103 0.0
H1184 H 0.99147 0.3803 0.77125 0.0
H1185 H 0.05924 0.4066 0.74628 0.0
H1186 H 0.03206 0.3951 0.71598 0.0
H1187 H 0.06426 0.37394 0.72299 0.0
H1188 H 0.97212 0.21495 0.72515 0.0
H1189 H 0.93721 0.21182 0.68419 0.0
H1190 H 0.96536 0.3366 0.69538 0.0
C1191 C 0.04214 0.34269 0.78706 0.0
C1192 C 0.05229 0.3189 0.80313 0.0
C1193 C 0.04115 0.27883 0.7954 0.0
C1194 C 0.01965 0.26241 0.77233 0.0
C1195 C 0.0097 0.28649 0.75714 0.0
C1196 C 0.02077 0.32584 0.76404 0.0
C1197 C 0.00642 0.34525 0.74411 0.0
C1198 C 0.97628 0.3565 0.75614 0.0
C1199 C 0.04266 0.38242 0.7316 0.0
C1200 C 0.98551 0.31059 0.72495 0.0
C1201 C 0.98769 0.27698 0.73292 0.0
C1202 C 0.97048 0.24116 0.71858 0.0
C1203 C 0.95091 0.23978 0.69527 0.0
C1204 C 0.94888 0.27409 0.68643 0.0
C1205 C 0.96616 0.30979 0.70168 0.0
loop_
_geom_bond_atom_site_label_1
_geom_bond_atom_site_label_2
_geom_bond_distance
_geom_bond_site_symmetry_2
_ccdc_geom_bond_type
Co0 N4 2.148 . S
Co0 N10 2.128 . S
Co0 N20 2.194 . S
Co0 O25 2.351 . S
Co0 O26 2.155 . S
Co0 O27 2.096 . S
C1 N4 1.301 . S
C1 N5 1.328 . S
C1 H6 0.930 . S
C2 C3 1.333 . S
C2 N4 1.317 . S
C2 H7 0.930 . S
C3 C2 1.333 . S
C3 N5 1.350 . S
C3 H29 0.931 . S
N4 Co0 2.148 . S
N4 C1 1.301 . S
N4 C2 1.317 . S
N5 C1 1.328 . S
N5 C3 1.350 . S
H6 C1 0.930 . S
H7 C2 0.930 . S
C8 O9 1.224 . S
C8 O27 1.247 . S
O9 C8 1.224 . S
N10 Co0 2.128 . S
N10 C11 1.355 . S
N10 C13 1.311 . S
C11 N10 1.355 . S
C11 C12 1.363 . S
C11 H23 0.929 . S
C12 C11 1.363 . S
C12 N14 1.375 . S
C12 H30 0.931 . S
C13 N10 1.311 . S
C13 N14 1.347 . S
C13 H24 0.929 . S
N14 C12 1.375 . S
N14 C13 1.347 . S
C15 C18 1.365 . S
C15 N20 1.328 . S
C15 H21 0.929 . S
C16 C17 1.362 . S
C16 C19 1.378 . S
C16 H31 0.929 . S
C17 C16 1.362 . S
C17 C18 1.366 . S
C18 C15 1.365 . S
C18 C17 1.366 . S
C18 H32 0.930 . S
C19 C16 1.378 . S
C19 N20 1.315 . S
C19 H22 0.930 . S
N20 Co0 2.194 . S
N20 C15 1.328 . S
N20 C19 1.315 . S
H21 C15 0.929 . S
H22 C19 0.930 . S
H23 C11 0.929 . S
H24 C13 0.929 . S
O25 Co0 2.351 . S
O25 C28 1.244 . S
O26 Co0 2.155 . S
O26 C28 1.240 . S
O27 Co0 2.096 . S
O27 C8 1.247 . S
C28 O25 1.244 . S
C28 O26 1.240 . S
H29 C3 0.931 . S
H30 C12 0.931 . S
H31 C16 0.929 . S
H32 C18 0.930 . S
Co33 N37 2.148 . S
Co33 N43 2.128 . S
Co33 N53 2.194 . S
Co33 O58 2.351 . S
Co33 O59 2.155 . S
Co33 O60 2.096 . S
C34 N37 1.301 . S
C34 N38 1.328 . S
C34 H39 0.930 . S
C35 C36 1.333 . S
C35 N37 1.317 . S
C35 H40 0.930 . S
C36 C35 1.333 . S
C36 N38 1.350 . S
C36 H62 0.931 . S
N37 Co33 2.148 . S
N37 C34 1.301 . S
N37 C35 1.317 . S
N38 C34 1.328 . S
N38 C36 1.350 . S
H39 C34 0.930 . S
H40 C35 0.930 . S
C41 O42 1.224 . S
C41 O60 1.247 . S
O42 C41 1.224 . S
N43 Co33 2.128 . S
N43 C44 1.355 . S
N43 C46 1.311 . S
C44 N43 1.355 . S
C44 C45 1.363 . S
C44 H56 0.929 . S
C45 C44 1.363 . S
C45 N47 1.375 . S
C45 H63 0.931 . S
C46 N43 1.311 . S
C46 N47 1.347 . S
C46 H57 0.929 . S
N47 C45 1.375 . S
N47 C46 1.347 . S
C48 C51 1.365 . S
C48 N53 1.328 . S
C48 H54 0.929 . S
C49 C50 1.362 . S
C49 C52 1.378 . S
C49 H64 0.929 . S
C50 C49 1.362 . S
C50 C51 1.366 . S
C51 C48 1.365 . S
C51 C50 1.366 . S
C51 H65 0.930 . S
C52 C49 1.378 . S
C52 N53 1.315 . S
C52 H55 0.930 . S
N53 Co33 2.194 . S
N53 C48 1.328 . S
N53 C52 1.315 . S
H54 C48 0.929 . S
H55 C52 0.930 . S
H56 C44 0.929 . S
H57 C46 0.929 . S
O58 Co33 2.351 . S
O58 C61 1.244 . S
O59 Co33 2.155 . S
O59 C61 1.240 . S
O60 Co33 2.096 . S
O60 C41 1.247 . S
C61 O58 1.244 . S
C61 O59 1.240 . S
H62 C36 0.931 . S
H63 C45 0.931 . S
H64 C49 0.929 . S
H65 C51 0.930 . S
Co66 N70 2.148 . S
Co66 N76 2.128 . S
Co66 N86 2.194 . S
Co66 O91 2.351 . S
Co66 O92 2.155 . S
Co66 O93 2.096 . S
C67 N70 1.301 . S
C67 N71 1.328 . S
C67 H72 0.930 . S
C68 C69 1.333 . S
C68 N70 1.317 . S
C68 H73 0.930 . S
C69 C68 1.333 . S
C69 N71 1.350 . S
C69 H95 0.931 . S
N70 Co66 2.148 . S
N70 C67 1.301 . S
N70 C68 1.317 . S
N71 C67 1.328 . S
N71 C69 1.350 . S
H72 C67 0.930 . S
H73 C68 0.930 . S
C74 O75 1.224 . S
C74 O93 1.247 . S
O75 C74 1.224 . S
N76 Co66 2.128 . S
N76 C77 1.355 . S
N76 C79 1.311 . S
C77 N76 1.355 . S
C77 C78 1.363 . S
C77 H89 0.929 . S
C78 C77 1.363 . S
C78 N80 1.375 . S
C78 H96 0.931 . S
C79 N76 1.311 . S
C79 N80 1.347 . S
C79 H90 0.929 . S
N80 C78 1.375 . S
N80 C79 1.347 . S
C81 C84 1.365 . S
C81 N86 1.328 . S
C81 H87 0.929 . S
C82 C83 1.362 . S
C82 C85 1.378 . S
C82 H97 0.929 . S
C83 C82 1.362 . S
C83 C84 1.366 . S
C84 C81 1.365 . S
C84 C83 1.366 . S
C84 H98 0.930 . S
C85 C82 1.378 . S
C85 N86 1.315 . S
C85 H88 0.930 . S
N86 Co66 2.194 . S
N86 C81 1.328 . S
N86 C85 1.315 . S
H87 C81 0.929 . S
H88 C85 0.930 . S
H89 C77 0.929 . S
H90 C79 0.929 . S
O91 Co66 2.351 . S
O91 C94 1.244 . S
O92 Co66 2.155 . S
O92 C94 1.240 . S
O93 Co66 2.096 . S
O93 C74 1.247 . S
C94 O91 1.244 . S
C94 O92 1.240 . S
H95 C69 0.931 . S
H96 C78 0.931 . S
H97 C82 0.929 . S
H98 C84 0.930 . S
Co99 N103 2.148 . S
Co99 N109 2.128 . S
Co99 N119 2.194 . S
Co99 O124 2.351 . S
Co99 O125 2.155 . S
Co99 O126 2.096 . S
C100 N103 1.301 . S
C100 N104 1.328 . S
C100 H105 0.930 . S
C101 C102 1.333 . S
C101 N103 1.317 . S
C101 H106 0.930 . S
C102 C101 1.333 . S
C102 N104 1.350 . S
C102 H128 0.931 . S
N103 Co99 2.148 . S
N103 C100 1.301 . S
N103 C101 1.317 . S
N104 C100 1.328 . S
N104 C102 1.350 . S
H105 C100 0.930 . S
H106 C101 0.930 . S
C107 O108 1.224 . S
C107 O126 1.247 . S
O108 C107 1.224 . S
N109 Co99 2.128 . S
N109 C110 1.355 . S
N109 C112 1.311 . S
C110 N109 1.355 . S
C110 C111 1.363 . S
C110 H122 0.929 . S
C111 C110 1.363 . S
C111 N113 1.375 . S
C111 H129 0.931 . S
C112 N109 1.311 . S
C112 N113 1.347 . S
C112 H123 0.929 . S
N113 C111 1.375 . S
N113 C112 1.347 . S
C114 C117 1.365 . S
C114 N119 1.328 . S
C114 H120 0.929 . S
C115 C116 1.362 . S
C115 C118 1.378 . S
C115 H130 0.929 . S
C116 C115 1.362 . S
C116 C117 1.366 . S
C117 C114 1.365 . S
C117 C116 1.366 . S
C117 H131 0.930 . S
C118 C115 1.378 . S
C118 N119 1.315 . S
C118 H121 0.930 . S
N119 Co99 2.194 . S
N119 C114 1.328 . S
N119 C118 1.315 . S
H120 C114 0.929 . S
H121 C118 0.930 . S
H122 C110 0.929 . S
H123 C112 0.929 . S
O124 Co99 2.351 . S
O124 C127 1.244 . S
O125 Co99 2.155 . S
O125 C127 1.240 . S
O126 Co99 2.096 . S
O126 C107 1.247 . S
C127 O124 1.244 . S
C127 O125 1.240 . S
H128 C102 0.931 . S
H129 C111 0.931 . S
H130 C115 0.929 . S
H131 C117 0.930 . S
Co132 N136 2.148 . S
Co132 N142 2.128 . S
Co132 N152 2.194 . S
Co132 O157 2.351 . S
Co132 O158 2.155 . S
Co132 O159 2.096 . S
C133 N136 1.301 . S
C133 N137 1.328 . S
C133 H138 0.930 . S
C134 C135 1.333 . S
C134 N136 1.317 . S
C134 H139 0.930 . S
C135 C134 1.333 . S
C135 N137 1.350 . S
C135 H161 0.931 . S
N136 Co132 2.148 . S
N136 C133 1.301 . S
N136 C134 1.317 . S
N137 C133 1.328 . S
N137 C135 1.350 . S
H138 C133 0.930 . S
H139 C134 0.930 . S
C140 O141 1.224 . S
C140 O159 1.247 . S
O141 C140 1.224 . S
N142 Co132 2.128 . S
N142 C143 1.355 . S
N142 C145 1.311 . S
C143 N142 1.355 . S
C143 C144 1.363 . S
C143 H155 0.929 . S
C144 C143 1.363 . S
C144 N146 1.375 . S
C144 H162 0.931 . S
C145 N142 1.311 . S
C145 N146 1.347 . S
C145 H156 0.929 . S
N146 C144 1.375 . S
N146 C145 1.347 . S
C147 C150 1.365 . S
C147 N152 1.328 . S
C147 H153 0.929 . S
C148 C149 1.362 . S
C148 C151 1.378 . S
C148 H163 0.929 . S
C149 C148 1.362 . S
C149 C150 1.366 . S
C150 C147 1.365 . S
C150 C149 1.366 . S
C150 H164 0.930 . S
C151 C148 1.378 . S
C151 N152 1.315 . S
C151 H154 0.930 . S
N152 Co132 2.194 . S
N152 C147 1.328 . S
N152 C151 1.315 . S
H153 C147 0.929 . S
H154 C151 0.930 . S
H155 C143 0.929 . S
H156 C145 0.929 . S
O157 Co132 2.351 . S
O157 C160 1.244 . S
O158 Co132 2.155 . S
O158 C160 1.240 . S
O159 Co132 2.096 . S
O159 C140 1.247 . S
C160 O157 1.244 . S
C160 O158 1.240 . S
H161 C135 0.931 . S
H162 C144 0.931 . S
H163 C148 0.929 . S
H164 C150 0.930 . S
Co165 N169 2.148 . S
Co165 N175 2.128 . S
Co165 N185 2.194 . S
Co165 O190 2.351 . S
Co165 O191 2.155 . S
Co165 O192 2.096 . S
C166 N169 1.301 . S
C166 N170 1.328 . S
C166 H171 0.930 . S
C167 C168 1.333 . S
C167 N169 1.317 . S
C167 H172 0.930 . S
C168 C167 1.333 . S
C168 N170 1.350 . S
C168 H194 0.931 . S
N169 Co165 2.148 . S
N169 C166 1.301 . S
N169 C167 1.317 . S
N170 C166 1.328 . S
N170 C168 1.350 . S
H171 C166 0.930 . S
H172 C167 0.930 . S
C173 O174 1.224 . S
C173 O192 1.247 . S
O174 C173 1.224 . S
N175 Co165 2.128 . S
N175 C176 1.355 . S
N175 C178 1.311 . S
C176 N175 1.355 . S
C176 C177 1.363 . S
C176 H188 0.929 . S
C177 C176 1.363 . S
C177 N179 1.375 . S
C177 H195 0.931 . S
C178 N175 1.311 . S
C178 N179 1.347 . S
C178 H189 0.929 . S
N179 C177 1.375 . S
N179 C178 1.347 . S
C180 C183 1.365 . S
C180 N185 1.328 . S
C180 H186 0.929 . S
C181 C182 1.362 . S
C181 C184 1.378 . S
C181 H196 0.929 . S
C182 C181 1.362 . S
C182 C183 1.366 . S
C183 C180 1.365 . S
C183 C182 1.366 . S
C183 H197 0.930 . S
C184 C181 1.378 . S
C184 N185 1.315 . S
C184 H187 0.930 . S
N185 Co165 2.194 . S
N185 C180 1.328 . S
N185 C184 1.315 . S
H186 C180 0.929 . S
H187 C184 0.930 . S
H188 C176 0.929 . S
H189 C178 0.929 . S
O190 Co165 2.351 . S
O190 C193 1.244 . S
O191 Co165 2.155 . S
O191 C193 1.240 . S
O192 Co165 2.096 . S
O192 C173 1.247 . S
C193 O190 1.244 . S
C193 O191 1.240 . S
H194 C168 0.931 . S
H195 C177 0.931 . S
H196 C181 0.929 . S
H197 C183 0.930 . S
Co198 N202 2.148 . S
Co198 N208 2.128 . S
Co198 N218 2.194 . S
Co198 O223 2.351 . S
Co198 O224 2.155 . S
Co198 O225 2.096 . S
C199 N202 1.301 . S
C199 N203 1.328 . S
C199 H204 0.930 . S
C200 C201 1.333 . S
C200 N202 1.317 . S
C200 H205 0.930 . S
C201 C200 1.333 . S
C201 N203 1.350 . S
C201 H227 0.931 . S
N202 Co198 2.148 . S
N202 C199 1.301 . S
N202 C200 1.317 . S
N203 C199 1.328 . S
N203 C201 1.350 . S
H204 C199 0.930 . S
H205 C200 0.930 . S
C206 O207 1.224 . S
C206 O225 1.247 . S
O207 C206 1.224 . S
N208 Co198 2.128 . S
N208 C209 1.355 . S
N208 C211 1.311 . S
C209 N208 1.355 . S
C209 C210 1.363 . S
C209 H221 0.929 . S
C210 C209 1.363 . S
C210 N212 1.375 . S
C210 H228 0.931 . S
C211 N208 1.311 . S
C211 N212 1.347 . S
C211 H222 0.929 . S
N212 C210 1.375 . S
N212 C211 1.347 . S
C213 C216 1.365 . S
C213 N218 1.328 . S
C213 H219 0.929 . S
C214 C215 1.362 . S
C214 C217 1.378 . S
C214 H229 0.929 . S
C215 C214 1.362 . S
C215 C216 1.366 . S
C216 C213 1.365 . S
C216 C215 1.366 . S
C216 H230 0.930 . S
C217 C214 1.378 . S
C217 N218 1.315 . S
C217 H220 0.930 . S
N218 Co198 2.194 . S
N218 C213 1.328 . S
N218 C217 1.315 . S
H219 C213 0.929 . S
H220 C217 0.930 . S
H221 C209 0.929 . S
H222 C211 0.929 . S
O223 Co198 2.351 . S
O223 C226 1.244 . S
O224 Co198 2.155 . S
O224 C226 1.240 . S
O225 Co198 2.096 . S
O225 C206 1.247 . S
C226 O223 1.244 . S
C226 O224 1.240 . S
H227 C201 0.931 . S
H228 C210 0.931 . S
H229 C214 0.929 . S
H230 C216 0.930 . S
Co231 N235 2.148 . S
Co231 N241 2.128 . S
Co231 N251 2.194 . S
Co231 O256 2.351 . S
Co231 O257 2.155 . S
Co231 O258 2.096 . S
C232 N235 1.301 . S
C232 N236 1.328 . S
C232 H237 0.930 . S
C233 C234 1.333 . S
C233 N235 1.317 . S
C233 H238 0.930 . S
C234 C233 1.333 . S
C234 N236 1.350 . S
C234 H260 0.931 . S
N235 Co231 2.148 . S
N235 C232 1.301 . S
N235 C233 1.317 . S
N236 C232 1.328 . S
N236 C234 1.350 . S
H237 C232 0.930 . S
H238 C233 0.930 . S
C239 O240 1.224 . S
C239 O258 1.247 . S
O240 C239 1.224 . S
N241 Co231 2.128 . S
N241 C242 1.355 . S
N241 C244 1.311 . S
C242 N241 1.355 . S
C242 C243 1.363 . S
C242 H254 0.929 . S
C243 C242 1.363 . S
C243 N245 1.375 . S
C243 H261 0.931 . S
C244 N241 1.311 . S
C244 N245 1.347 . S
C244 H255 0.929 . S
N245 C243 1.375 . S
N245 C244 1.347 . S
C246 C249 1.365 . S
C246 N251 1.328 . S
C246 H252 0.929 . S
C247 C248 1.362 . S
C247 C250 1.378 . S
C247 H262 0.929 . S
C248 C247 1.362 . S
C248 C249 1.366 . S
C249 C246 1.365 . S
C249 C248 1.366 . S
C249 H263 0.930 . S
C250 C247 1.378 . S
C250 N251 1.315 . S
C250 H253 0.930 . S
N251 Co231 2.194 . S
N251 C246 1.328 . S
N251 C250 1.315 . S
H252 C246 0.929 . S
H253 C250 0.930 . S
H254 C242 0.929 . S
H255 C244 0.929 . S
O256 Co231 2.351 . S
O256 C259 1.244 . S
O257 Co231 2.155 . S
O257 C259 1.240 . S
O258 Co231 2.096 . S
O258 C239 1.247 . S
C259 O256 1.244 . S
C259 O257 1.240 . S
H260 C234 0.931 . S
H261 C243 0.931 . S
H262 C247 0.929 . S
H263 C249 0.930 . S
Co264 N268 2.148 . S
Co264 N274 2.128 . S
Co264 N284 2.194 . S
Co264 O289 2.351 . S
Co264 O290 2.155 . S
Co264 O291 2.096 . S
C265 N268 1.301 . S
C265 N269 1.328 . S
C265 H270 0.930 . S
C266 C267 1.333 . S
C266 N268 1.317 . S
C266 H271 0.930 . S
C267 C266 1.333 . S
C267 N269 1.350 . S
C267 H293 0.931 . S
N268 Co264 2.148 . S
N268 C265 1.301 . S
N268 C266 1.317 . S
N269 C265 1.328 . S
N269 C267 1.350 . S
H270 C265 0.930 . S
H271 C266 0.930 . S
C272 O273 1.224 . S
C272 O291 1.247 . S
O273 C272 1.224 . S
N274 Co264 2.128 . S
N274 C275 1.355 . S
N274 C277 1.311 . S
C275 N274 1.355 . S
C275 C276 1.363 . S
C275 H287 0.929 . S
C276 C275 1.363 . S
C276 N278 1.375 . S
C276 H294 0.931 . S
C277 N274 1.311 . S
C277 N278 1.347 . S
C277 H288 0.929 . S
N278 C276 1.375 . S
N278 C277 1.347 . S
C279 C282 1.365 . S
C279 N284 1.328 . S
C279 H285 0.929 . S
C280 C281 1.362 . S
C280 C283 1.378 . S
C280 H295 0.929 . S
C281 C280 1.362 . S
C281 C282 1.366 . S
C282 C279 1.365 . S
C282 C281 1.366 . S
C282 H296 0.930 . S
C283 C280 1.378 . S
C283 N284 1.315 . S
C283 H286 0.930 . S
N284 Co264 2.194 . S
N284 C279 1.328 . S
N284 C283 1.315 . S
H285 C279 0.929 . S
H286 C283 0.930 . S
H287 C275 0.929 . S
H288 C277 0.929 . S
O289 Co264 2.351 . S
O289 C292 1.244 . S
O290 Co264 2.155 . S
O290 C292 1.240 . S
O291 Co264 2.096 . S
O291 C272 1.247 . S
C292 O289 1.244 . S
C292 O290 1.240 . S
H293 C267 0.931 . S
H294 C276 0.931 . S
H295 C280 0.929 . S
H296 C282 0.930 . S
Co297 N301 2.148 . S
Co297 N307 2.128 . S
Co297 N317 2.194 . S
Co297 O322 2.351 . S
Co297 O323 2.155 . S
Co297 O324 2.096 . S
C298 N301 1.301 . S
C298 N302 1.328 . S
C298 H303 0.930 . S
C299 C300 1.333 . S
C299 N301 1.317 . S
C299 H304 0.930 . S
C300 C299 1.333 . S
C300 N302 1.350 . S
C300 H326 0.931 . S
N301 Co297 2.148 . S
N301 C298 1.301 . S
N301 C299 1.317 . S
N302 C298 1.328 . S
N302 C300 1.350 . S
H303 C298 0.930 . S
H304 C299 0.930 . S
C305 O306 1.224 . S
C305 O324 1.247 . S
O306 C305 1.224 . S
N307 Co297 2.128 . S
N307 C308 1.355 . S
N307 C310 1.311 . S
C308 N307 1.355 . S
C308 C309 1.363 . S
C308 H320 0.929 . S
C309 C308 1.363 . S
C309 N311 1.375 . S
C309 H327 0.931 . S
C310 N307 1.311 . S
C310 N311 1.347 . S
C310 H321 0.929 . S
N311 C309 1.375 . S
N311 C310 1.347 . S
C312 C315 1.365 . S
C312 N317 1.328 . S
C312 H318 0.929 . S
C313 C314 1.362 . S
C313 C316 1.378 . S
C313 H328 0.929 . S
C314 C313 1.362 . S
C314 C315 1.366 . S
C315 C312 1.365 . S
C315 C314 1.366 . S
C315 H329 0.930 . S
C316 C313 1.378 . S
C316 N317 1.315 . S
C316 H319 0.930 . S
N317 Co297 2.194 . S
N317 C312 1.328 . S
N317 C316 1.315 . S
H318 C312 0.929 . S
H319 C316 0.930 . S
H320 C308 0.929 . S
H321 C310 0.929 . S
O322 Co297 2.351 . S
O322 C325 1.244 . S
O323 Co297 2.155 . S
O323 C325 1.240 . S
O324 Co297 2.096 . S
O324 C305 1.247 . S
C325 O322 1.244 . S
C325 O323 1.240 . S
H326 C300 0.931 . S
H327 C309 0.931 . S
H328 C313 0.929 . S
H329 C315 0.930 . S
Co330 N334 2.148 . S
Co330 N340 2.128 . S
Co330 N350 2.194 . S
Co330 O355 2.351 . S
Co330 O356 2.155 . S
Co330 O357 2.096 . S
C331 N334 1.301 . S
C331 N335 1.328 . S
C331 H336 0.930 . S
C332 C333 1.333 . S
C332 N334 1.317 . S
C332 H337 0.930 . S
C333 C332 1.333 . S
C333 N335 1.350 . S
C333 H359 0.931 . S
N334 Co330 2.148 . S
N334 C331 1.301 . S
N334 C332 1.317 . S
N335 C331 1.328 . S
N335 C333 1.350 . S
H336 C331 0.930 . S
H337 C332 0.930 . S
C338 O339 1.224 . S
C338 O357 1.247 . S
O339 C338 1.224 . S
N340 Co330 2.128 . S
N340 C341 1.355 . S
N340 C343 1.311 . S
C341 N340 1.355 . S
C341 C342 1.363 . S
C341 H353 0.929 . S
C342 C341 1.363 . S
C342 N344 1.375 . S
C342 H360 0.931 . S
C343 N340 1.311 . S
C343 N344 1.347 . S
C343 H354 0.929 . S
N344 C342 1.375 . S
N344 C343 1.347 . S
C345 C348 1.365 . S
C345 N350 1.328 . S
C345 H351 0.929 . S
C346 C347 1.362 . S
C346 C349 1.378 . S
C346 H361 0.929 . S
C347 C346 1.362 . S
C347 C348 1.366 . S
C348 C345 1.365 . S
C348 C347 1.366 . S
C348 H362 0.930 . S
C349 C346 1.378 . S
C349 N350 1.315 . S
C349 H352 0.930 . S
N350 Co330 2.194 . S
N350 C345 1.328 . S
N350 C349 1.315 . S
H351 C345 0.929 . S
H352 C349 0.930 . S
H353 C341 0.929 . S
H354 C343 0.929 . S
O355 Co330 2.351 . S
O355 C358 1.244 . S
O356 Co330 2.155 . S
O356 C358 1.240 . S
O357 Co330 2.096 . S
O357 C338 1.247 . S
C358 O355 1.244 . S
C358 O356 1.240 . S
H359 C333 0.931 . S
H360 C342 0.931 . S
H361 C346 0.929 . S
H362 C348 0.930 . S
Co363 N367 2.148 . S
Co363 N373 2.128 . S
Co363 N383 2.194 . S
Co363 O388 2.351 . S
Co363 O389 2.155 . S
Co363 O390 2.096 . S
C364 N367 1.301 . S
C364 N368 1.328 . S
C364 H369 0.930 . S
C365 C366 1.333 . S
C365 N367 1.317 . S
C365 H370 0.930 . S
C366 C365 1.333 . S
C366 N368 1.350 . S
C366 H392 0.931 . S
N367 Co363 2.148 . S
N367 C364 1.301 . S
N367 C365 1.317 . S
N368 C364 1.328 . S
N368 C366 1.350 . S
H369 C364 0.930 . S
H370 C365 0.930 . S
C371 O372 1.224 . S
C371 O390 1.247 . S
O372 C371 1.224 . S
N373 Co363 2.128 . S
N373 C374 1.355 . S
N373 C376 1.311 . S
C374 N373 1.355 . S
C374 C375 1.363 . S
C374 H386 0.929 . S
C375 C374 1.363 . S
C375 N377 1.375 . S
C375 H393 0.931 . S
C376 N373 1.311 . S
C376 N377 1.347 . S
C376 H387 0.929 . S
N377 C375 1.375 . S
N377 C376 1.347 . S
C378 C381 1.365 . S
C378 N383 1.328 . S
C378 H384 0.929 . S
C379 C380 1.362 . S
C379 C382 1.378 . S
C379 H394 0.929 . S
C380 C379 1.362 . S
C380 C381 1.366 . S
C381 C378 1.365 . S
C381 C380 1.366 . S
C381 H395 0.930 . S
C382 C379 1.378 . S
C382 N383 1.315 . S
C382 H385 0.930 . S
N383 Co363 2.194 . S
N383 C378 1.328 . S
N383 C382 1.315 . S
H384 C378 0.929 . S
H385 C382 0.930 . S
H386 C374 0.929 . S
H387 C376 0.929 . S
O388 Co363 2.351 . S
O388 C391 1.244 . S
O389 Co363 2.155 . S
O389 C391 1.240 . S
O390 Co363 2.096 . S
O390 C371 1.247 . S
C391 O388 1.244 . S
C391 O389 1.240 . S
H392 C366 0.931 . S
H393 C375 0.931 . S
H394 C379 0.929 . S
H395 C381 0.930 . S
H396 C408 0.930 . S
H397 C410 0.930 . S
H398 C411 0.930 . S
H399 C415 0.959 . S
H400 C415 0.959 . S
H401 C415 0.961 . S
H402 C416 0.960 . S
H403 C416 0.961 . S
H404 C416 0.959 . S
H405 C419 0.929 . S
H406 C420 0.931 . S
H407 C422 0.930 . S
C408 H396 0.930 . S
C408 C409 1.399 . S
C408 C413 1.399 . S
C409 C408 1.399 . S
C409 C410 1.376 . S
C410 H397 0.930 . S
C410 C409 1.376 . S
C410 C411 1.388 . S
C411 H398 0.930 . S
C411 C410 1.388 . S
C411 C412 1.390 . S
C412 C411 1.390 . S
C412 C413 1.394 . S
C412 C418 1.465 . S
C413 C408 1.399 . S
C413 C412 1.394 . S
C413 C414 1.516 . S
C414 C413 1.516 . S
C414 C415 1.502 . S
C414 C416 1.561 . S
C414 C417 1.526 . S
C415 H399 0.959 . S
C415 H400 0.959 . S
C415 H401 0.961 . S
C415 C414 1.502 . S
C416 H402 0.960 . S
C416 H403 0.961 . S
C416 H404 0.959 . S
C416 C414 1.561 . S
C417 C414 1.526 . S
C417 C418 1.396 . S
C417 C422 1.390 . S
C418 C412 1.465 . S
C418 C417 1.396 . S
C418 C419 1.399 . S
C419 H405 0.929 . S
C419 C418 1.399 . S
C419 C420 1.385 . S
C420 H406 0.931 . S
C420 C419 1.385 . S
C420 C421 1.389 . S
C421 C420 1.389 . S
C421 C422 1.387 . S
C422 H407 0.930 . S
C422 C417 1.390 . S
C422 C421 1.387 . S
H423 C435 0.930 . S
H424 C437 0.930 . S
H425 C438 0.930 . S
H426 C442 0.959 . S
H427 C442 0.959 . S
H428 C442 0.961 . S
H429 C443 0.960 . S
H430 C443 0.961 . S
H431 C443 0.959 . S
H432 C446 0.929 . S
H433 C447 0.931 . S
H434 C449 0.930 . S
C435 H423 0.930 . S
C435 C436 1.399 . S
C435 C440 1.399 . S
C436 C435 1.399 . S
C436 C437 1.376 . S
C437 H424 0.930 . S
C437 C436 1.376 . S
C437 C438 1.388 . S
C438 H425 0.930 . S
C438 C437 1.388 . S
C438 C439 1.390 . S
C439 C438 1.390 . S
C439 C440 1.394 . S
C439 C445 1.465 . S
C440 C435 1.399 . S
C440 C439 1.394 . S
C440 C441 1.516 . S
C441 C440 1.516 . S
C441 C442 1.502 . S
C441 C443 1.561 . S
C441 C444 1.526 . S
C442 H426 0.959 . S
C442 H427 0.959 . S
C442 H428 0.961 . S
C442 C441 1.502 . S
C443 H429 0.960 . S
C443 H430 0.961 . S
C443 H431 0.959 . S
C443 C441 1.561 . S
C444 C441 1.526 . S
C444 C445 1.396 . S
C444 C449 1.390 . S
C445 C439 1.465 . S
C445 C444 1.396 . S
C445 C446 1.399 . S
C446 H432 0.929 . S
C446 C445 1.399 . S
C446 C447 1.385 . S
C447 H433 0.931 . S
C447 C446 1.385 . S
C447 C448 1.389 . S
C448 C447 1.389 . S
C448 C449 1.387 . S
C449 H434 0.930 . S
C449 C444 1.390 . S
C449 C448 1.387 . S
H450 C462 0.930 . S
H451 C464 0.930 . S
H452 C465 0.930 . S
H453 C469 0.959 . S
H454 C469 0.959 . S
H455 C469 0.961 . S
H456 C470 0.960 . S
H457 C470 0.961 . S
H458 C470 0.959 . S
H459 C473 0.929 . S
H460 C474 0.931 . S
H461 C476 0.930 . S
C462 H450 0.930 . S
C462 C463 1.399 . S
C462 C467 1.399 . S
C463 C462 1.399 . S
C463 C464 1.376 . S
C464 H451 0.930 . S
C464 C463 1.376 . S
C464 C465 1.388 . S
C465 H452 0.930 . S
C465 C464 1.388 . S
C465 C466 1.390 . S
C466 C465 1.390 . S
C466 C467 1.394 . S
C466 C472 1.465 . S
C467 C462 1.399 . S
C467 C466 1.394 . S
C467 C468 1.516 . S
C468 C467 1.516 . S
C468 C469 1.502 . S
C468 C470 1.561 . S
C468 C471 1.526 . S
C469 H453 0.959 . S
C469 H454 0.959 . S
C469 H455 0.961 . S
C469 C468 1.502 . S
C470 H456 0.960 . S
C470 H457 0.961 . S
C470 H458 0.959 . S
C470 C468 1.561 . S
C471 C468 1.526 . S
C471 C472 1.396 . S
C471 C476 1.390 . S
C472 C466 1.465 . S
C472 C471 1.396 . S
C472 C473 1.399 . S
C473 H459 0.929 . S
C473 C472 1.399 . S
C473 C474 1.385 . S
C474 H460 0.931 . S
C474 C473 1.385 . S
C474 C475 1.389 . S
C475 C474 1.389 . S
C475 C476 1.387 . S
C476 H461 0.930 . S
C476 C471 1.390 . S
C476 C475 1.387 . S
H477 C489 0.930 . S
H478 C491 0.930 . S
H479 C492 0.930 . S
H480 C496 0.959 . S
H481 C496 0.959 . S
H482 C496 0.961 . S
H483 C497 0.960 . S
H484 C497 0.961 . S
H485 C497 0.959 . S
H486 C500 0.929 . S
H487 C501 0.931 . S
H488 C503 0.930 . S
C489 H477 0.930 . S
C489 C490 1.399 . S
C489 C494 1.399 . S
C490 C489 1.399 . S
C490 C491 1.376 . S
C491 H478 0.930 . S
C491 C490 1.376 . S
C491 C492 1.388 . S
C492 H479 0.930 . S
C492 C491 1.388 . S
C492 C493 1.390 . S
C493 C492 1.390 . S
C493 C494 1.394 . S
C493 C499 1.465 . S
C494 C489 1.399 . S
C494 C493 1.394 . S
C494 C495 1.516 . S
C495 C494 1.516 . S
C495 C496 1.502 . S
C495 C497 1.561 . S
C495 C498 1.526 . S
C496 H480 0.959 . S
C496 H481 0.959 . S
C496 H482 0.961 . S
C496 C495 1.502 . S
C497 H483 0.960 . S
C497 H484 0.961 . S
C497 H485 0.959 . S
C497 C495 1.561 . S
C498 C495 1.526 . S
C498 C499 1.396 . S
C498 C503 1.390 . S
C499 C493 1.465 . S
C499 C498 1.396 . S
C499 C500 1.399 . S
C500 H486 0.929 . S
C500 C499 1.399 . S
C500 C501 1.385 . S
C501 H487 0.931 . S
C501 C500 1.385 . S
C501 C502 1.389 . S
C502 C501 1.389 . S
C502 C503 1.387 . S
C503 H488 0.930 . S
C503 C498 1.390 . S
C503 C502 1.387 . S
H504 C516 0.930 . S
H505 C518 0.930 . S
H506 C519 0.930 . S
H507 C523 0.959 . S
H508 C523 0.959 . S
H509 C523 0.961 . S
H510 C524 0.960 . S
H511 C524 0.961 . S
H512 C524 0.959 . S
H513 C527 0.929 . S
H514 C528 0.931 . S
H515 C530 0.930 . S
C516 H504 0.930 . S
C516 C517 1.399 . S
C516 C521 1.399 . S
C517 C516 1.399 . S
C517 C518 1.376 . S
C518 H505 0.930 . S
C518 C517 1.376 . S
C518 C519 1.388 . S
C519 H506 0.930 . S
C519 C518 1.388 . S
C519 C520 1.390 . S
C520 C519 1.390 . S
C520 C521 1.394 . S
C520 C526 1.465 . S
C521 C516 1.399 . S
C521 C520 1.394 . S
C521 C522 1.516 . S
C522 C521 1.516 . S
C522 C523 1.502 . S
C522 C524 1.561 . S
C522 C525 1.526 . S
C523 H507 0.959 . S
C523 H508 0.959 . S
C523 H509 0.961 . S
C523 C522 1.502 . S
C524 H510 0.960 . S
C524 H511 0.961 . S
C524 H512 0.959 . S
C524 C522 1.561 . S
C525 C522 1.526 . S
C525 C526 1.396 . S
C525 C530 1.390 . S
C526 C520 1.465 . S
C526 C525 1.396 . S
C526 C527 1.399 . S
C527 H513 0.929 . S
C527 C526 1.399 . S
C527 C528 1.385 . S
C528 H514 0.931 . S
C528 C527 1.385 . S
C528 C529 1.389 . S
C529 C528 1.389 . S
C529 C530 1.387 . S
C530 H515 0.930 . S
C530 C525 1.390 . S
C530 C529 1.387 . S
H531 C543 0.930 . S
H532 C545 0.930 . S
H533 C546 0.930 . S
H534 C550 0.959 . S
H535 C550 0.959 . S
H536 C550 0.961 . S
H537 C551 0.960 . S
H538 C551 0.961 . S
H539 C551 0.959 . S
H540 C554 0.929 . S
H541 C555 0.931 . S
H542 C557 0.930 . S
C543 H531 0.930 . S
C543 C544 1.399 . S
C543 C548 1.399 . S
C544 C543 1.399 . S
C544 C545 1.376 . S
C545 H532 0.930 . S
C545 C544 1.376 . S
C545 C546 1.388 . S
C546 H533 0.930 . S
C546 C545 1.388 . S
C546 C547 1.390 . S
C547 C546 1.390 . S
C547 C548 1.394 . S
C547 C553 1.465 . S
C548 C543 1.399 . S
C548 C547 1.394 . S
C548 C549 1.516 . S
C549 C548 1.516 . S
C549 C550 1.502 . S
C549 C551 1.561 . S
C549 C552 1.526 . S
C550 H534 0.959 . S
C550 H535 0.959 . S
C550 H536 0.961 . S
C550 C549 1.502 . S
C551 H537 0.960 . S
C551 H538 0.961 . S
C551 H539 0.959 . S
C551 C549 1.561 . S
C552 C549 1.526 . S
C552 C553 1.396 . S
C552 C557 1.390 . S
C553 C547 1.465 . S
C553 C552 1.396 . S
C553 C554 1.399 . S
C554 H540 0.929 . S
C554 C553 1.399 . S
C554 C555 1.385 . S
C555 H541 0.931 . S
C555 C554 1.385 . S
C555 C556 1.389 . S
C556 C555 1.389 . S
C556 C557 1.387 . S
C557 H542 0.930 . S
C557 C552 1.390 . S
C557 C556 1.387 . S
H558 C570 0.930 . S
H559 C572 0.930 . S
H560 C573 0.930 . S
H561 C577 0.959 . S
H562 C577 0.959 . S
H563 C577 0.961 . S
H564 C578 0.960 . S
H565 C578 0.961 . S
H566 C578 0.959 . S
H567 C581 0.929 . S
H568 C582 0.931 . S
H569 C584 0.930 . S
C570 H558 0.930 . S
C570 C571 1.399 . S
C570 C575 1.399 . S
C571 C570 1.399 . S
C571 C572 1.376 . S
C572 H559 0.930 . S
C572 C571 1.376 . S
C572 C573 1.388 . S
C573 H560 0.930 . S
C573 C572 1.388 . S
C573 C574 1.390 . S
C574 C573 1.390 . S
C574 C575 1.394 . S
C574 C580 1.465 . S
C575 C570 1.399 . S
C575 C574 1.394 . S
C575 C576 1.516 . S
C576 C575 1.516 . S
C576 C577 1.502 . S
C576 C578 1.561 . S
C576 C579 1.526 . S
C577 H561 0.959 . S
C577 H562 0.959 . S
C577 H563 0.961 . S
C577 C576 1.502 . S
C578 H564 0.960 . S
C578 H565 0.961 . S
C578 H566 0.959 . S
C578 C576 1.561 . S
C579 C576 1.526 . S
C579 C580 1.396 . S
C579 C584 1.390 . S
C580 C574 1.465 . S
C580 C579 1.396 . S
C580 C581 1.399 . S
C581 H567 0.929 . S
C581 C580 1.399 . S
C581 C582 1.385 . S
C582 H568 0.931 . S
C582 C581 1.385 . S
C582 C583 1.389 . S
C583 C582 1.389 . S
C583 C584 1.387 . S
C584 H569 0.930 . S
C584 C579 1.390 . S
C584 C583 1.387 . S
H585 C597 0.930 . S
H586 C599 0.930 . S
H587 C600 0.930 . S
H588 C604 0.959 . S
H589 C604 0.959 . S
H590 C604 0.961 . S
H591 C605 0.960 . S
H592 C605 0.961 . S
H593 C605 0.959 . S
H594 C608 0.929 . S
H595 C609 0.931 . S
H596 C611 0.930 . S
C597 H585 0.930 . S
C597 C598 1.399 . S
C597 C602 1.399 . S
C598 C597 1.399 . S
C598 C599 1.376 . S
C599 H586 0.930 . S
C599 C598 1.376 . S
C599 C600 1.388 . S
C600 H587 0.930 . S
C600 C599 1.388 . S
C600 C601 1.390 . S
C601 C600 1.390 . S
C601 C602 1.394 . S
C601 C607 1.465 . S
C602 C597 1.399 . S
C602 C601 1.394 . S
C602 C603 1.516 . S
C603 C602 1.516 . S
C603 C604 1.502 . S
C603 C605 1.561 . S
C603 C606 1.526 . S
C604 H588 0.959 . S
C604 H589 0.959 . S
C604 H590 0.961 . S
C604 C603 1.502 . S
C605 H591 0.960 . S
C605 H592 0.961 . S
C605 H593 0.959 . S
C605 C603 1.561 . S
C606 C603 1.526 . S
C606 C607 1.396 . S
C606 C611 1.390 . S
C607 C601 1.465 . S
C607 C606 1.396 . S
C607 C608 1.399 . S
C608 H594 0.929 . S
C608 C607 1.399 . S
C608 C609 1.385 . S
C609 H595 0.931 . S
C609 C608 1.385 . S
C609 C610 1.389 . S
C610 C609 1.389 . S
C610 C611 1.387 . S
C611 H596 0.930 . S
C611 C606 1.390 . S
C611 C610 1.387 . S
H612 C624 0.930 . S
H613 C626 0.930 . S
H614 C627 0.930 . S
H615 C631 0.959 . S
H616 C631 0.959 . S
H617 C631 0.961 . S
H618 C632 0.960 . S
H619 C632 0.961 . S
H620 C632 0.959 . S
H621 C635 0.929 . S
H622 C636 0.931 . S
H623 C638 0.930 . S
C624 H612 0.930 . S
C624 C625 1.399 . S
C624 C629 1.399 . S
C625 C624 1.399 . S
C625 C626 1.376 . S
C626 H613 0.930 . S
C626 C625 1.376 . S
C626 C627 1.388 . S
C627 H614 0.930 . S
C627 C626 1.388 . S
C627 C628 1.390 . S
C628 C627 1.390 . S
C628 C629 1.394 . S
C628 C634 1.465 . S
C629 C624 1.399 . S
C629 C628 1.394 . S
C629 C630 1.516 . S
C630 C629 1.516 . S
C630 C631 1.502 . S
C630 C632 1.561 . S
C630 C633 1.526 . S
C631 H615 0.959 . S
C631 H616 0.959 . S
C631 H617 0.961 . S
C631 C630 1.502 . S
C632 H618 0.960 . S
C632 H619 0.961 . S
C632 H620 0.959 . S
C632 C630 1.561 . S
C633 C630 1.526 . S
C633 C634 1.396 . S
C633 C638 1.390 . S
C634 C628 1.465 . S
C634 C633 1.396 . S
C634 C635 1.399 . S
C635 H621 0.929 . S
C635 C634 1.399 . S
C635 C636 1.385 . S
C636 H622 0.931 . S
C636 C635 1.385 . S
C636 C637 1.389 . S
C637 C636 1.389 . S
C637 C638 1.387 . S
C638 H623 0.930 . S
C638 C633 1.390 . S
C638 C637 1.387 . S
H639 C651 0.930 . S
H640 C653 0.930 . S
H641 C654 0.930 . S
H642 C658 0.959 . S
H643 C658 0.959 . S
H644 C658 0.961 . S
H645 C659 0.960 . S
H646 C659 0.961 . S
H647 C659 0.959 . S
H648 C662 0.929 . S
H649 C663 0.931 . S
H650 C665 0.930 . S
C651 H639 0.930 . S
C651 C652 1.399 . S
C651 C656 1.399 . S
C652 C651 1.399 . S
C652 C653 1.376 . S
C653 H640 0.930 . S
C653 C652 1.376 . S
C653 C654 1.388 . S
C654 H641 0.930 . S
C654 C653 1.388 . S
C654 C655 1.390 . S
C655 C654 1.390 . S
C655 C656 1.394 . S
C655 C661 1.465 . S
C656 C651 1.399 . S
C656 C655 1.394 . S
C656 C657 1.516 . S
C657 C656 1.516 . S
C657 C658 1.502 . S
C657 C659 1.561 . S
C657 C660 1.526 . S
C658 H642 0.959 . S
C658 H643 0.959 . S
C658 H644 0.961 . S
C658 C657 1.502 . S
C659 H645 0.960 . S
C659 H646 0.961 . S
C659 H647 0.959 . S
C659 C657 1.561 . S
C660 C657 1.526 . S
C660 C661 1.396 . S
C660 C665 1.390 . S
C661 C655 1.465 . S
C661 C660 1.396 . S
C661 C662 1.399 . S
C662 H648 0.929 . S
C662 C661 1.399 . S
C662 C663 1.385 . S
C663 H649 0.931 . S
C663 C662 1.385 . S
C663 C664 1.389 . S
C664 C663 1.389 . S
C664 C665 1.387 . S
C665 H650 0.930 . S
C665 C660 1.390 . S
C665 C664 1.387 . S
H666 C678 0.930 . S
H667 C680 0.930 . S
H668 C681 0.930 . S
H669 C685 0.959 . S
H670 C685 0.959 . S
H671 C685 0.961 . S
H672 C686 0.960 . S
H673 C686 0.961 . S
H674 C686 0.959 . S
H675 C689 0.929 . S
H676 C690 0.931 . S
H677 C692 0.930 . S
C678 H666 0.930 . S
C678 C679 1.399 . S
C678 C683 1.399 . S
C679 C678 1.399 . S
C679 C680 1.376 . S
C680 H667 0.930 . S
C680 C679 1.376 . S
C680 C681 1.388 . S
C681 H668 0.930 . S
C681 C680 1.388 . S
C681 C682 1.390 . S
C682 C681 1.390 . S
C682 C683 1.394 . S
C682 C688 1.465 . S
C683 C678 1.399 . S
C683 C682 1.394 . S
C683 C684 1.516 . S
C684 C683 1.516 . S
C684 C685 1.502 . S
C684 C686 1.561 . S
C684 C687 1.526 . S
C685 H669 0.959 . S
C685 H670 0.959 . S
C685 H671 0.961 . S
C685 C684 1.502 . S
C686 H672 0.960 . S
C686 H673 0.961 . S
C686 H674 0.959 . S
C686 C684 1.561 . S
C687 C684 1.526 . S
C687 C688 1.396 . S
C687 C692 1.390 . S
C688 C682 1.465 . S
C688 C687 1.396 . S
C688 C689 1.399 . S
C689 H675 0.929 . S
C689 C688 1.399 . S
C689 C690 1.385 . S
C690 H676 0.931 . S
C690 C689 1.385 . S
C690 C691 1.389 . S
C691 C690 1.389 . S
C691 C692 1.387 . S
C692 H677 0.930 . S
C692 C687 1.390 . S
C692 C691 1.387 . S
H693 C705 0.930 . S
H694 C707 0.930 . S
H695 C708 0.930 . S
H696 C712 0.959 . S
H697 C712 0.959 . S
H698 C712 0.961 . S
H699 C713 0.960 . S
H700 C713 0.961 . S
H701 C713 0.959 . S
H702 C716 0.929 . S
H703 C717 0.931 . S
H704 C719 0.930 . S
C705 H693 0.930 . S
C705 C706 1.399 . S
C705 C710 1.399 . S
C706 C705 1.399 . S
C706 C707 1.376 . S
C707 H694 0.930 . S
C707 C706 1.376 . S
C707 C708 1.388 . S
C708 H695 0.930 . S
C708 C707 1.388 . S
C708 C709 1.390 . S
C709 C708 1.390 . S
C709 C710 1.394 . S
C709 C715 1.465 . S
C710 C705 1.399 . S
C710 C709 1.394 . S
C710 C711 1.516 . S
C711 C710 1.516 . S
C711 C712 1.502 . S
C711 C713 1.561 . S
C711 C714 1.526 . S
C712 H696 0.959 . S
C712 H697 0.959 . S
C712 H698 0.961 . S
C712 C711 1.502 . S
C713 H699 0.960 . S
C713 H700 0.961 . S
C713 H701 0.959 . S
C713 C711 1.561 . S
C714 C711 1.526 . S
C714 C715 1.396 . S
C714 C719 1.390 . S
C715 C709 1.465 . S
C715 C714 1.396 . S
C715 C716 1.399 . S
C716 H702 0.929 . S
C716 C715 1.399 . S
C716 C717 1.385 . S
C717 H703 0.931 . S
C717 C716 1.385 . S
C717 C718 1.389 . S
C718 C717 1.389 . S
C718 C719 1.387 . S
C719 H704 0.930 . S
C719 C714 1.390 . S
C719 C718 1.387 . S
H720 C732 0.930 . S
H721 C734 0.930 . S
H722 C735 0.930 1_556 S
H723 C739 0.959 . S
H724 C739 0.959 . S
H725 C739 0.961 . S
H726 C740 0.960 . S
H727 C740 0.961 1_565 S
H728 C740 0.959 . S
H729 C743 0.929 . S
H730 C744 0.931 . S
H731 C746 0.930 . S
C732 H720 0.930 . S
C732 C733 1.399 . S
C732 C737 1.399 . S
C733 C732 1.399 . S
C733 C734 1.376 . S
C734 H721 0.930 . S
C734 C733 1.376 . S
C734 C735 1.388 . S
C735 H722 0.930 1_554 S
C735 C734 1.388 . S
C735 C736 1.390 . S
C736 C735 1.390 . S
C736 C737 1.394 . S
C736 C742 1.465 1_554 S
C737 C732 1.399 . S
C737 C736 1.394 . S
C737 C738 1.516 . S
C738 C737 1.516 . S
C738 C739 1.502 . S
C738 C740 1.561 . S
C738 C741 1.526 1_554 S
C739 H723 0.959 . S
C739 H724 0.959 . S
C739 H725 0.961 . S
C739 C738 1.502 . S
C740 H726 0.960 . S
C740 H727 0.961 1_545 S
C740 H728 0.959 . S
C740 C738 1.561 . S
C741 C738 1.526 1_556 S
C741 C742 1.396 . S
C741 C746 1.390 1_545 S
C742 C736 1.465 1_556 S
C742 C741 1.396 . S
C742 C743 1.399 . S
C743 H729 0.929 . S
C743 C742 1.399 . S
C743 C744 1.385 . S
C744 H730 0.931 . S
C744 C743 1.385 . S
C744 C745 1.389 1_545 S
C745 C744 1.389 1_565 S
C745 C746 1.387 . S
C746 H731 0.930 . S
C746 C741 1.390 1_565 S
C746 C745 1.387 . S
H747 C759 0.930 . S
H748 C761 0.930 . S
H749 C762 0.930 . S
H750 C766 0.975 . S
H751 C766 0.959 . S
H752 C766 0.961 . S
H753 C767 0.960 . S
H754 C767 0.961 1_455 S
H755 C767 0.959 . S
H756 C770 0.929 . S
H757 C771 0.931 . S
H758 C773 0.930 . S
C759 H747 0.930 . S
C759 C760 1.399 . S
C759 C764 1.399 . S
C760 C759 1.399 . S
C760 C761 1.376 . S
C761 H748 0.930 . S
C761 C760 1.376 . S
C761 C762 1.388 . S
C762 H749 0.930 . S
C762 C761 1.388 . S
C762 C763 1.390 . S
C763 C762 1.390 . S
C763 C764 1.394 . S
C763 C769 1.465 1_554 S
C764 C759 1.399 . S
C764 C763 1.394 . S
C764 C765 1.516 . S
C765 C764 1.516 . S
C765 C766 1.502 . S
C765 C767 1.561 . S
C765 C768 1.526 1_554 S
C766 H750 0.975 . S
C766 H751 0.959 . S
C766 H752 0.961 . S
C766 C765 1.502 . S
C767 H753 0.960 . S
C767 H754 0.961 1_655 S
C767 H755 0.959 . S
C767 C765 1.561 . S
C768 C765 1.526 1_556 S
C768 C769 1.396 . S
C768 C773 1.383 1_655 S
C769 C763 1.465 1_556 S
C769 C768 1.396 . S
C769 C770 1.399 . S
C770 H756 0.929 . S
C770 C769 1.399 . S
C770 C771 1.385 . S
C771 H757 0.931 . S
C771 C770 1.385 . S
C771 C772 1.389 1_655 S
C772 C771 1.389 1_455 S
C772 C773 1.393 . S
C773 H758 0.930 . S
C773 C768 1.383 1_455 S
C773 C772 1.393 . S
H774 C786 0.930 . S
H775 C788 0.930 . S
H776 C789 0.930 1_556 S
H777 C793 0.959 . S
H778 C793 0.959 . S
H779 C793 0.961 . S
H780 C794 0.960 . S
H781 C794 0.961 . S
H782 C794 0.959 1_556 S
H783 C797 0.929 . S
H784 C798 0.931 . S
H785 C800 0.930 . S
C786 H774 0.930 . S
C786 C787 1.399 . S
C786 C791 1.399 . S
C787 C786 1.399 . S
C787 C788 1.376 . S
C788 H775 0.930 . S
C788 C787 1.376 . S
C788 C789 1.388 . S
C789 H776 0.930 1_554 S
C789 C788 1.388 . S
C789 C790 1.390 . S
C790 C789 1.390 . S
C790 C791 1.394 . S
C790 C796 1.465 1_554 S
C791 C786 1.399 . S
C791 C790 1.394 . S
C791 C792 1.516 . S
C792 C791 1.516 . S
C792 C793 1.502 . S
C792 C794 1.561 . S
C792 C795 1.526 1_554 S
C793 H777 0.959 . S
C793 H778 0.959 . S
C793 H779 0.961 . S
C793 C792 1.502 . S
C794 H780 0.960 . S
C794 H781 0.961 . S
C794 H782 0.959 1_554 S
C794 C792 1.561 . S
C795 C792 1.526 1_556 S
C795 C796 1.396 . S
C795 C800 1.390 . S
C796 C790 1.465 1_556 S
C796 C795 1.396 . S
C796 C797 1.399 . S
C797 H783 0.929 . S
C797 C796 1.399 . S
C797 C798 1.385 . S
C798 H784 0.931 . S
C798 C797 1.385 . S
C798 C799 1.389 . S
C799 C798 1.389 . S
C799 C800 1.387 . S
C800 H785 0.930 . S
C800 C795 1.390 . S
C800 C799 1.387 . S
H801 C813 0.930 1_655 S
H802 C815 0.930 1_655 S
H803 C816 0.930 . S
H804 C820 0.959 . S
H805 C820 0.959 . S
H806 C820 0.961 . S
H807 C821 0.960 1_655 S
H808 C821 0.961 . S
H809 C821 0.959 . S
H810 C824 0.929 . S
H811 C825 0.931 . S
H812 C827 0.930 . S
C813 H801 0.930 1_455 S
C813 C814 1.399 1_455 S
C813 C818 1.399 . S
C814 C813 1.399 1_655 S
C814 C815 1.376 1_655 S
C815 H802 0.930 1_455 S
C815 C814 1.376 1_455 S
C815 C816 1.388 . S
C816 H803 0.930 . S
C816 C815 1.388 . S
C816 C817 1.390 . S
C817 C816 1.390 . S
C817 C818 1.394 . S
C817 C823 1.465 . S
C818 C813 1.399 . S
C818 C817 1.394 . S
C818 C819 1.516 . S
C819 C818 1.516 . S
C819 C820 1.502 . S
C819 C821 1.561 . S
C819 C822 1.526 . S
C820 H804 0.959 . S
C820 H805 0.959 . S
C820 H806 0.961 . S
C820 C819 1.502 . S
C821 H807 0.960 1_455 S
C821 H808 0.961 . S
C821 H809 0.959 . S
C821 C819 1.561 . S
C822 C819 1.526 . S
C822 C823 1.396 . S
C822 C827 1.390 . S
C823 C817 1.465 . S
C823 C822 1.396 . S
C823 C824 1.399 . S
C824 H810 0.929 . S
C824 C823 1.399 . S
C824 C825 1.385 . S
C825 H811 0.931 . S
C825 C824 1.385 . S
C825 C826 1.389 . S
C826 C825 1.389 . S
C826 C827 1.387 . S
C827 H812 0.930 . S
C827 C822 1.390 . S
C827 C826 1.387 . S
H828 C840 0.930 . S
H829 C842 0.930 . S
H830 C843 0.930 . S
H831 C847 0.959 . S
H832 C847 0.959 . S
H833 C847 0.961 . S
H834 C848 0.960 . S
H835 C848 0.961 . S
H836 C848 0.959 . S
H837 C851 0.929 . S
H838 C852 0.931 . S
H839 C854 0.930 . S
C840 H828 0.930 . S
C840 C841 1.399 . S
C840 C845 1.399 . S
C841 C840 1.399 . S
C841 C842 1.376 . S
C842 H829 0.930 . S
C842 C841 1.376 . S
C842 C843 1.388 . S
C843 H830 0.930 . S
C843 C842 1.388 . S
C843 C844 1.390 . S
C844 C843 1.390 . S
C844 C845 1.394 . S
C844 C850 1.465 . S
C845 C840 1.399 . S
C845 C844 1.394 . S
C845 C846 1.516 . S
C846 C845 1.516 . S
C846 C847 1.502 . S
C846 C848 1.561 . S
C846 C849 1.526 . S
C847 H831 0.959 . S
C847 H832 0.959 . S
C847 H833 0.961 . S
C847 C846 1.502 . S
C848 H834 0.960 . S
C848 H835 0.961 . S
C848 H836 0.959 . S
C848 C846 1.561 . S
C849 C846 1.526 . S
C849 C850 1.396 . S
C849 C854 1.390 . S
C850 C844 1.465 . S
C850 C849 1.396 . S
C850 C851 1.399 . S
C851 H837 0.929 . S
C851 C850 1.399 . S
C851 C852 1.385 . S
C852 H838 0.931 . S
C852 C851 1.385 . S
C852 C853 1.389 . S
C853 C852 1.389 . S
C853 C854 1.387 . S
C854 H839 0.930 . S
C854 C849 1.390 . S
C854 C853 1.387 . S
H855 C867 0.930 . S
H856 C869 0.930 . S
H857 C870 0.930 . S
H858 C874 0.959 . S
H859 C874 0.959 . S
H860 C874 0.961 . S
H861 C875 0.960 . S
H862 C875 0.961 . S
H863 C875 0.959 . S
H864 C878 0.929 . S
H865 C879 0.931 . S
H866 C881 0.930 . S
C867 H855 0.930 . S
C867 C868 1.399 1_565 S
C867 C872 1.399 . S
C868 C867 1.399 1_545 S
C868 C869 1.376 . S
C869 H856 0.930 . S
C869 C868 1.376 . S
C869 C870 1.388 . S
C870 H857 0.930 . S
C870 C869 1.388 . S
C870 C871 1.390 1_545 S
C871 C870 1.390 1_565 S
C871 C872 1.394 . S
C871 C877 1.465 . S
C872 C867 1.399 . S
C872 C871 1.394 . S
C872 C873 1.516 . S
C873 C872 1.516 . S
C873 C874 1.502 . S
C873 C875 1.561 . S
C873 C876 1.526 . S
C874 H858 0.959 . S
C874 H859 0.959 . S
C874 H860 0.961 . S
C874 C873 1.502 . S
C875 H861 0.960 . S
C875 H862 0.961 . S
C875 H863 0.959 . S
C875 C873 1.561 . S
C876 C873 1.526 . S
C876 C877 1.396 . S
C876 C881 1.390 . S
C877 C871 1.465 . S
C877 C876 1.396 . S
C877 C878 1.399 . S
C878 H864 0.929 . S
C878 C877 1.399 . S
C878 C879 1.385 . S
C879 H865 0.931 . S
C879 C878 1.385 . S
C879 C880 1.389 . S
C880 C879 1.389 . S
C880 C881 1.387 . S
C881 H866 0.930 . S
C881 C876 1.390 . S
C881 C880 1.387 . S
H882 C894 0.930 . S
H883 C896 0.930 . S
H884 C897 0.943 . S
H885 C901 0.959 . S
H886 C901 0.959 . S
H887 C901 0.961 . S
H888 C902 0.960 . S
H889 C902 0.961 . S
H890 C902 0.959 . S
H891 C905 0.929 . S
H892 C906 0.931 . S
H893 C908 0.930 . S
C894 H882 0.930 . S
C894 C895 1.399 1_565 S
C894 C899 1.399 . S
C895 C894 1.399 1_545 S
C895 C896 1.376 . S
C896 H883 0.930 . S
C896 C895 1.376 . S
C896 C897 1.401 1_554 S
C897 H884 0.943 . S
C897 C896 1.401 1_556 S
C897 C898 1.365 1_545 S
C898 C897 1.365 1_565 S
C898 C899 1.372 1_556 S
C898 C904 1.484 . S
C899 C894 1.399 . S
C899 C898 1.372 1_554 S
C899 C900 1.516 . S
C900 C899 1.516 . S
C900 C901 1.502 . S
C900 C902 1.561 . S
C900 C903 1.526 1_554 S
C901 H885 0.959 . S
C901 H886 0.959 . S
C901 H887 0.961 . S
C901 C900 1.502 . S
C902 H888 0.960 . S
C902 H889 0.961 . S
C902 H890 0.959 . S
C902 C900 1.561 . S
C903 C900 1.526 1_556 S
C903 C904 1.396 . S
C903 C908 1.390 . S
C904 C898 1.484 . S
C904 C903 1.396 . S
C904 C905 1.399 . S
C905 H891 0.929 . S
C905 C904 1.399 . S
C905 C906 1.385 . S
C906 H892 0.931 . S
C906 C905 1.385 . S
C906 C907 1.389 . S
C907 C906 1.389 . S
C907 C908 1.387 . S
C908 H893 0.930 . S
C908 C903 1.390 . S
C908 C907 1.387 . S
H909 C921 0.930 . S
H910 C923 0.930 . S
H911 C924 0.930 1_556 S
H912 C928 0.959 1_556 S
H913 C928 0.959 . S
H914 C928 0.961 . S
H915 C929 0.960 . S
H916 C929 0.961 . S
H917 C929 0.959 . S
H918 C932 0.929 . S
H919 C933 0.931 . S
H920 C935 0.930 . S
C921 H909 0.930 . S
C921 C922 1.399 1_455 S
C921 C926 1.399 . S
C922 C921 1.399 1_655 S
C922 C923 1.376 . S
C923 H910 0.930 . S
C923 C922 1.376 . S
C923 C924 1.388 1_655 S
C924 H911 0.930 1_554 S
C924 C923 1.388 1_455 S
C924 C925 1.390 . S
C925 C924 1.390 . S
C925 C926 1.394 . S
C925 C931 1.465 1_554 S
C926 C921 1.399 . S
C926 C925 1.394 . S
C926 C927 1.516 . S
C927 C926 1.516 . S
C927 C928 1.502 . S
C927 C929 1.561 . S
C927 C930 1.526 1_554 S
C928 H912 0.959 1_554 S
C928 H913 0.959 . S
C928 H914 0.961 . S
C928 C927 1.502 . S
C929 H915 0.960 . S
C929 H916 0.961 . S
C929 H917 0.959 . S
C929 C927 1.561 . S
C930 C927 1.526 1_556 S
C930 C931 1.396 . S
C930 C935 1.390 . S
C931 C925 1.465 1_556 S
C931 C930 1.396 . S
C931 C932 1.399 . S
C932 H918 0.929 . S
C932 C931 1.399 . S
C932 C933 1.385 . S
C933 H919 0.931 . S
C933 C932 1.385 . S
C933 C934 1.389 . S
C934 C933 1.389 . S
C934 C935 1.387 . S
C935 H920 0.930 . S
C935 C930 1.390 . S
C935 C934 1.387 . S
H936 C948 0.930 . S
H937 C950 0.930 . S
H938 C951 0.930 . S
H939 C955 0.959 . S
H940 C955 0.959 1_554 S
H941 C955 0.961 . S
H942 C956 0.960 . S
H943 C956 0.961 . S
H944 C956 0.959 . S
H945 C959 0.929 . S
H946 C960 0.931 . S
H947 C962 0.930 . S
C948 H936 0.930 . S
C948 C949 1.399 . S
C948 C953 1.399 . S
C949 C948 1.399 . S
C949 C950 1.376 . S
C950 H937 0.930 . S
C950 C949 1.376 . S
C950 C951 1.388 . S
C951 H938 0.930 . S
C951 C950 1.388 . S
C951 C952 1.390 . S
C952 C951 1.390 . S
C952 C953 1.394 . S
C952 C958 1.465 1_556 S
C953 C948 1.399 . S
C953 C952 1.394 . S
C953 C954 1.516 1_556 S
C954 C953 1.516 1_554 S
C954 C955 1.502 1_554 S
C954 C956 1.561 . S
C954 C957 1.526 . S
C955 H939 0.959 . S
C955 H940 0.959 1_556 S
C955 H941 0.961 . S
C955 C954 1.502 1_556 S
C956 H942 0.960 . S
C956 H943 0.961 . S
C956 H944 0.959 . S
C956 C954 1.561 . S
C957 C954 1.526 . S
C957 C958 1.396 . S
C957 C962 1.390 . S
C958 C952 1.465 1_554 S
C958 C957 1.396 . S
C958 C959 1.399 . S
C959 H945 0.929 . S
C959 C958 1.399 . S
C959 C960 1.385 . S
C960 H946 0.931 . S
C960 C959 1.385 . S
C960 C961 1.389 . S
C961 C960 1.389 . S
C961 C962 1.387 . S
C962 H947 0.930 . S
C962 C957 1.390 . S
C962 C961 1.387 . S
H963 C975 0.930 . S
H964 C977 0.930 . S
H965 C978 0.930 . S
H966 C982 0.959 . S
H967 C982 0.959 . S
H968 C982 0.961 . S
H969 C983 0.960 1_455 S
H970 C983 0.961 . S
H971 C983 0.959 . S
H972 C986 0.929 . S
H973 C987 0.931 . S
H974 C989 0.930 . S
C975 H963 0.930 . S
C975 C976 1.399 . S
C975 C980 1.399 1_455 S
C976 C975 1.399 . S
C976 C977 1.376 1_455 S
C977 H964 0.930 . S
C977 C976 1.376 1_655 S
C977 C978 1.388 . S
C978 H965 0.930 . S
C978 C977 1.388 . S
C978 C979 1.390 . S
C979 C978 1.390 . S
C979 C980 1.394 . S
C979 C985 1.465 . S
C980 C975 1.399 1_655 S
C980 C979 1.394 . S
C980 C981 1.516 . S
C981 C980 1.516 . S
C981 C982 1.502 . S
C981 C983 1.561 . S
C981 C984 1.526 . S
C982 H966 0.959 . S
C982 H967 0.959 . S
C982 H968 0.961 . S
C982 C981 1.502 . S
C983 H969 0.960 1_655 S
C983 H970 0.961 . S
C983 H971 0.959 . S
C983 C981 1.561 . S
C984 C981 1.526 . S
C984 C985 1.396 . S
C984 C989 1.390 . S
C985 C979 1.465 . S
C985 C984 1.396 . S
C985 C986 1.399 . S
C986 H972 0.929 . S
C986 C985 1.399 . S
C986 C987 1.385 . S
C987 H973 0.931 . S
C987 C986 1.385 . S
C987 C988 1.389 . S
C988 C987 1.389 . S
C988 C989 1.387 . S
C989 H974 0.930 . S
C989 C984 1.390 . S
C989 C988 1.387 . S
H990 C1002 0.930 . S
H991 C1004 0.930 . S
H992 C1005 0.930 . S
H993 C1009 0.959 . S
H994 C1009 0.959 . S
H995 C1009 0.961 . S
H996 C1010 0.960 . S
H997 C1010 0.961 . S
H998 C1010 0.959 . S
H999 C1013 0.929 . S
H1000 C1014 0.931 . S
H1001 C1016 0.930 . S
C1002 H990 0.930 . S
C1002 C1003 1.399 . S
C1002 C1007 1.399 . S
C1003 C1002 1.399 . S
C1003 C1004 1.376 . S
C1004 H991 0.930 . S
C1004 C1003 1.376 . S
C1004 C1005 1.388 . S
C1005 H992 0.930 . S
C1005 C1004 1.388 . S
C1005 C1006 1.390 . S
C1006 C1005 1.390 . S
C1006 C1007 1.394 . S
C1006 C1012 1.465 . S
C1007 C1002 1.399 . S
C1007 C1006 1.394 . S
C1007 C1008 1.516 . S
C1008 C1007 1.516 . S
C1008 C1009 1.502 . S
C1008 C1010 1.561 . S
C1008 C1011 1.526 . S
C1009 H993 0.959 . S
C1009 H994 0.959 . S
C1009 H995 0.961 . S
C1009 C1008 1.502 . S
C1010 H996 0.960 . S
C1010 H997 0.961 . S
C1010 H998 0.959 . S
C1010 C1008 1.561 . S
C1011 C1008 1.526 . S
C1011 C1012 1.396 . S
C1011 C1016 1.390 . S
C1012 C1006 1.465 . S
C1012 C1011 1.396 . S
C1012 C1013 1.399 . S
C1013 H999 0.929 . S
C1013 C1012 1.399 . S
C1013 C1014 1.385 . S
C1014 H1000 0.931 . S
C1014 C1013 1.385 . S
C1014 C1015 1.389 . S
C1015 C1014 1.389 . S
C1015 C1016 1.387 . S
C1016 H1001 0.930 . S
C1016 C1011 1.390 . S
C1016 C1015 1.387 . S
H1017 C1029 0.930 . S
H1018 C1031 0.930 . S
H1019 C1032 0.930 . S
H1020 C1036 0.959 . S
H1021 C1036 0.959 . S
H1022 C1036 0.961 . S
H1023 C1037 0.960 . S
H1024 C1037 0.961 . S
H1025 C1037 0.959 . S
H1026 C1040 0.929 . S
H1027 C1041 0.931 . S
H1028 C1043 0.930 . S
C1029 H1017 0.930 . S
C1029 C1030 1.399 . S
C1029 C1034 1.399 . S
C1030 C1029 1.399 . S
C1030 C1031 1.376 . S
C1031 H1018 0.930 . S
C1031 C1030 1.376 . S
C1031 C1032 1.388 . S
C1032 H1019 0.930 . S
C1032 C1031 1.388 . S
C1032 C1033 1.390 . S
C1033 C1032 1.390 . S
C1033 C1034 1.394 . S
C1033 C1039 1.465 . S
C1034 C1029 1.399 . S
C1034 C1033 1.394 . S
C1034 C1035 1.516 . S
C1035 C1034 1.516 . S
C1035 C1036 1.502 . S
C1035 C1037 1.561 . S
C1035 C1038 1.526 . S
C1036 H1020 0.959 . S
C1036 H1021 0.959 . S
C1036 H1022 0.961 . S
C1036 C1035 1.502 . S
C1037 H1023 0.960 . S
C1037 H1024 0.961 . S
C1037 H1025 0.959 . S
C1037 C1035 1.561 . S
C1038 C1035 1.526 . S
C1038 C1039 1.396 . S
C1038 C1043 1.390 . S
C1039 C1033 1.465 . S
C1039 C1038 1.396 . S
C1039 C1040 1.399 1_545 S
C1040 H1026 0.929 . S
C1040 C1039 1.399 1_565 S
C1040 C1041 1.385 . S
C1041 H1027 0.931 . S
C1041 C1040 1.385 . S
C1041 C1042 1.389 . S
C1042 C1041 1.389 . S
C1042 C1043 1.387 1_565 S
C1043 H1028 0.930 . S
C1043 C1038 1.390 . S
C1043 C1042 1.387 1_545 S
H1044 C1056 0.930 . S
H1045 C1058 0.930 . S
H1046 C1059 0.930 . S
H1047 C1063 0.959 . S
H1048 C1063 0.959 . S
H1049 C1063 0.961 . S
H1050 C1064 0.960 . S
H1051 C1064 0.961 . S
H1052 C1064 0.959 . S
H1053 C1067 0.929 . S
H1054 C1068 0.931 . S
H1055 C1070 0.930 . S
C1056 H1044 0.930 . S
C1056 C1057 1.399 . S
C1056 C1061 1.399 . S
C1057 C1056 1.399 . S
C1057 C1058 1.376 . S
C1058 H1045 0.930 . S
C1058 C1057 1.376 . S
C1058 C1059 1.388 . S
C1059 H1046 0.930 . S
C1059 C1058 1.388 . S
C1059 C1060 1.390 . S
C1060 C1059 1.390 . S
C1060 C1061 1.394 . S
C1060 C1066 1.465 . S
C1061 C1056 1.399 . S
C1061 C1060 1.394 . S
C1061 C1062 1.516 . S
C1062 C1061 1.516 . S
C1062 C1063 1.502 . S
C1062 C1064 1.561 . S
C1062 C1065 1.526 . S
C1063 H1047 0.959 . S
C1063 H1048 0.959 . S
C1063 H1049 0.961 . S
C1063 C1062 1.502 . S
C1064 H1050 0.960 . S
C1064 H1051 0.961 . S
C1064 H1052 0.959 . S
C1064 C1062 1.561 . S
C1065 C1062 1.526 . S
C1065 C1066 1.396 . S
C1065 C1070 1.390 . S
C1066 C1060 1.465 . S
C1066 C1065 1.396 . S
C1066 C1067 1.399 . S
C1067 H1053 0.929 . S
C1067 C1066 1.399 . S
C1067 C1068 1.385 . S
C1068 H1054 0.931 . S
C1068 C1067 1.385 . S
C1068 C1069 1.389 . S
C1069 C1068 1.389 . S
C1069 C1070 1.387 . S
C1070 H1055 0.930 . S
C1070 C1065 1.390 . S
C1070 C1069 1.387 . S
H1071 C1083 0.930 . S
H1072 C1085 0.930 . S
H1073 C1086 0.930 . S
H1074 C1090 0.959 . S
H1075 C1090 0.959 . S
H1076 C1090 0.961 . S
H1077 C1091 0.960 . S
H1078 C1091 0.961 . S
H1079 C1091 0.959 . S
H1080 C1094 0.929 . S
H1081 C1095 0.931 . S
H1082 C1097 0.930 . S
C1083 H1071 0.930 . S
C1083 C1084 1.399 . S
C1083 C1088 1.399 . S
C1084 C1083 1.399 . S
C1084 C1085 1.376 . S
C1085 H1072 0.930 . S
C1085 C1084 1.376 . S
C1085 C1086 1.388 1_545 S
C1086 H1073 0.930 . S
C1086 C1085 1.388 1_565 S
C1086 C1087 1.390 1_565 S
C1087 C1086 1.390 1_545 S
C1087 C1088 1.394 . S
C1087 C1093 1.465 1_545 S
C1088 C1083 1.399 . S
C1088 C1087 1.394 . S
C1088 C1089 1.516 . S
C1089 C1088 1.516 . S
C1089 C1090 1.502 . S
C1089 C1091 1.561 . S
C1089 C1092 1.526 1_545 S
C1090 H1074 0.959 . S
C1090 H1075 0.959 . S
C1090 H1076 0.961 . S
C1090 C1089 1.502 . S
C1091 H1077 0.960 . S
C1091 H1078 0.961 . S
C1091 H1079 0.959 . S
C1091 C1089 1.561 . S
C1092 C1089 1.526 1_565 S
C1092 C1093 1.396 . S
C1092 C1097 1.390 . S
C1093 C1087 1.465 1_565 S
C1093 C1092 1.396 . S
C1093 C1094 1.399 . S
C1094 H1080 0.929 . S
C1094 C1093 1.399 . S
C1094 C1095 1.385 . S
C1095 H1081 0.931 . S
C1095 C1094 1.385 . S
C1095 C1096 1.389 . S
C1096 C1095 1.389 . S
C1096 C1097 1.387 . S
C1097 H1082 0.930 . S
C1097 C1092 1.390 . S
C1097 C1096 1.387 . S
H1098 C1110 0.930 . S
H1099 C1112 0.930 . S
H1100 C1113 0.930 . S
H1101 C1117 0.959 . S
H1102 C1117 0.959 . S
H1103 C1117 0.961 . S
H1104 C1118 0.960 . S
H1105 C1118 0.961 . S
H1106 C1118 0.959 . S
H1107 C1121 0.929 1_655 S
H1108 C1122 0.931 . S
H1109 C1124 0.930 . S
C1110 H1098 0.930 . S
C1110 C1111 1.399 . S
C1110 C1115 1.399 . S
C1111 C1110 1.399 . S
C1111 C1112 1.376 . S
C1112 H1099 0.930 . S
C1112 C1111 1.376 . S
C1112 C1113 1.388 . S
C1113 H1100 0.930 . S
C1113 C1112 1.388 . S
C1113 C1114 1.390 . S
C1114 C1113 1.390 . S
C1114 C1115 1.394 . S
C1114 C1120 1.465 1_655 S
C1115 C1110 1.399 . S
C1115 C1114 1.394 . S
C1115 C1116 1.516 1_655 S
C1116 C1115 1.516 1_455 S
C1116 C1117 1.502 . S
C1116 C1118 1.561 . S
C1116 C1119 1.526 . S
C1117 H1101 0.959 . S
C1117 H1102 0.959 . S
C1117 H1103 0.961 . S
C1117 C1116 1.502 . S
C1118 H1104 0.960 . S
C1118 H1105 0.961 . S
C1118 H1106 0.959 . S
C1118 C1116 1.561 . S
C1119 C1116 1.526 . S
C1119 C1120 1.396 . S
C1119 C1124 1.390 . S
C1120 C1114 1.465 1_455 S
C1120 C1119 1.396 . S
C1120 C1121 1.399 . S
C1121 H1107 0.929 1_455 S
C1121 C1120 1.399 . S
C1121 C1122 1.385 . S
C1122 H1108 0.931 . S
C1122 C1121 1.385 . S
C1122 C1123 1.389 . S
C1123 C1122 1.389 . S
C1123 C1124 1.387 . S
C1124 H1109 0.930 . S
C1124 C1119 1.390 . S
C1124 C1123 1.387 . S
H1125 C1137 0.930 . S
H1126 C1139 0.930 . S
H1127 C1140 0.930 . S
H1128 C1144 0.959 . S
H1129 C1144 0.959 . S
H1130 C1144 0.961 . S
H1131 C1145 0.960 . S
H1132 C1145 0.961 . S
H1133 C1145 0.959 . S
H1134 C1148 0.929 . S
H1135 C1149 0.931 . S
H1136 C1151 0.930 . S
C1137 H1125 0.930 . S
C1137 C1138 1.399 . S
C1137 C1142 1.399 . S
C1138 C1137 1.399 . S
C1138 C1139 1.376 . S
C1139 H1126 0.930 . S
C1139 C1138 1.376 . S
C1139 C1140 1.388 . S
C1140 H1127 0.930 . S
C1140 C1139 1.388 . S
C1140 C1141 1.390 . S
C1141 C1140 1.390 . S
C1141 C1142 1.394 . S
C1141 C1147 1.465 . S
C1142 C1137 1.399 . S
C1142 C1141 1.394 . S
C1142 C1143 1.516 . S
C1143 C1142 1.516 . S
C1143 C1144 1.502 . S
C1143 C1145 1.561 . S
C1143 C1146 1.526 . S
C1144 H1128 0.959 . S
C1144 H1129 0.959 . S
C1144 H1130 0.961 . S
C1144 C1143 1.502 . S
C1145 H1131 0.960 . S
C1145 H1132 0.961 . S
C1145 H1133 0.959 . S
C1145 C1143 1.561 . S
C1146 C1143 1.526 . S
C1146 C1147 1.396 . S
C1146 C1151 1.390 . S
C1147 C1141 1.465 . S
C1147 C1146 1.396 . S
C1147 C1148 1.399 . S
C1148 H1134 0.929 . S
C1148 C1147 1.399 . S
C1148 C1149 1.385 . S
C1149 H1135 0.931 . S
C1149 C1148 1.385 . S
C1149 C1150 1.389 . S
C1150 C1149 1.389 . S
C1150 C1151 1.387 . S
C1151 H1136 0.930 . S
C1151 C1146 1.390 . S
C1151 C1150 1.387 . S
H1152 C1164 0.930 . S
H1153 C1166 0.930 . S
H1154 C1167 0.930 . S
H1155 C1171 0.959 . S
H1156 C1171 0.959 . S
H1157 C1171 0.961 . S
H1158 C1172 0.960 . S
H1159 C1172 0.961 . S
H1160 C1172 0.959 . S
H1161 C1175 0.929 . S
H1162 C1176 0.931 . S
H1163 C1178 0.930 . S
C1164 H1152 0.930 . S
C1164 C1165 1.399 . S
C1164 C1169 1.399 . S
C1165 C1164 1.399 . S
C1165 C1166 1.376 . S
C1166 H1153 0.930 . S
C1166 C1165 1.376 . S
C1166 C1167 1.388 . S
C1167 H1154 0.930 . S
C1167 C1166 1.388 . S
C1167 C1168 1.390 . S
C1168 C1167 1.390 . S
C1168 C1169 1.394 . S
C1168 C1174 1.465 1_565 S
C1169 C1164 1.399 . S
C1169 C1168 1.394 . S
C1169 C1170 1.516 . S
C1170 C1169 1.516 . S
C1170 C1171 1.502 . S
C1170 C1172 1.561 1_565 S
C1170 C1173 1.526 1_565 S
C1171 H1155 0.959 . S
C1171 H1156 0.959 . S
C1171 H1157 0.961 . S
C1171 C1170 1.502 . S
C1172 H1158 0.960 . S
C1172 H1159 0.961 . S
C1172 H1160 0.959 . S
C1172 C1170 1.561 1_545 S
C1173 C1170 1.526 1_545 S
C1173 C1174 1.396 . S
C1173 C1178 1.390 . S
C1174 C1168 1.465 1_545 S
C1174 C1173 1.396 . S
C1174 C1175 1.399 . S
C1175 H1161 0.929 . S
C1175 C1174 1.399 . S
C1175 C1176 1.385 . S
C1176 H1162 0.931 . S
C1176 C1175 1.385 . S
C1176 C1177 1.389 . S
C1177 C1176 1.389 . S
C1177 C1178 1.387 . S
C1178 H1163 0.930 . S
C1178 C1173 1.390 . S
C1178 C1177 1.387 . S
H1179 C1191 0.930 . S
H1180 C1193 0.930 . S
H1181 C1194 0.930 . S
H1182 C1198 0.959 . S
H1183 C1198 0.959 . S
H1184 C1198 0.961 1_455 S
H1185 C1199 0.960 . S
H1186 C1199 0.961 . S
H1187 C1199 0.959 . S
H1188 C1202 0.929 . S
H1189 C1203 0.931 . S
H1190 C1205 0.930 . S
C1191 H1179 0.930 . S
C1191 C1192 1.399 . S
C1191 C1196 1.399 . S
C1192 C1191 1.399 . S
C1192 C1193 1.376 . S
C1193 H1180 0.930 . S
C1193 C1192 1.376 . S
C1193 C1194 1.388 . S
C1194 H1181 0.930 . S
C1194 C1193 1.388 . S
C1194 C1195 1.390 . S
C1195 C1194 1.390 . S
C1195 C1196 1.394 . S
C1195 C1201 1.465 1_455 S
C1196 C1191 1.399 . S
C1196 C1195 1.394 . S
C1196 C1197 1.516 . S
C1197 C1196 1.516 . S
C1197 C1198 1.502 1_455 S
C1197 C1199 1.561 . S
C1197 C1200 1.526 1_455 S
C1198 H1182 0.959 . S
C1198 H1183 0.959 . S
C1198 H1184 0.961 1_655 S
C1198 C1197 1.502 1_655 S
C1199 H1185 0.960 . S
C1199 H1186 0.961 . S
C1199 H1187 0.959 . S
C1199 C1197 1.561 . S
C1200 C1197 1.526 1_655 S
C1200 C1201 1.396 . S
C1200 C1205 1.390 . S
C1201 C1195 1.465 1_655 S
C1201 C1200 1.396 . S
C1201 C1202 1.399 . S
C1202 H1188 0.929 . S
C1202 C1201 1.399 . S
C1202 C1203 1.385 . S
C1203 H1189 0.931 . S
C1203 C1202 1.385 . S
C1203 C1204 1.389 . S
C1204 C1203 1.389 . S
C1204 C1205 1.387 . S
C1205 H1190 0.930 . S
C1205 C1200 1.390 . S
C1205 C1204 1.387 . S
C409 C41 1.589 . S
C421 N14 1.604 . S
C436 N47 1.556 . S
C448 C74 1.626 . S
C463 N80 1.600 . S
C475 C8 1.593 . S
C490 N113 1.619 . S
C502 C173 1.574 . S
C517 N146 1.543 . S
C529 C107 1.639 . S
C544 C140 1.580 . S
C556 N179 1.613 . S
C571 C239 1.636 . S
C583 N212 1.569 . S
C598 C272 1.638 . S
C610 N245 1.548 . S
C625 C206 1.604 . S
C637 N278 1.610 . S
C652 N311 1.623 . S
C664 C371 1.569 . S
C679 C305 1.636 . S
C691 N344 1.545 . S
C706 N377 1.559 . S
C718 C338 1.638 . S
C733 C28 1.342 . S
C745 N236 1.332 . S
C760 C61 1.349 . S
C772 N269 1.332 . S
C787 C94 1.313 . S
C799 N203 1.293 . S
C814 N368 1.243 . S
C826 C127 1.303 . S
C841 C160 1.348 . S
C853 N302 1.333 . S
C868 N335 1.312 . S
C880 C193 1.348 . S
C895 N38 1.242 . S
C907 C226 1.319 . S
C922 N71 1.249 . S
C934 C259 1.307 . S
C949 C292 1.349 . S
C961 N5 1.318 . S
C976 N170 1.330 . S
C988 C325 1.343 . S
C1003 C358 1.316 . S
C1015 N104 1.243 . S
C1030 C391 1.349 . S
C1042 N137 1.285 . S
C1057 C116 1.325 . S
C1069 C17 1.312 . S
C1084 C50 1.269 . S
C1096 C149 1.319 . S
C1111 C83 1.330 . S
C1123 C182 1.306 . S
C1138 C314 1.316 . S
C1150 C215 1.335 . S
C1165 C248 1.269 . S
C1177 C347 1.298 . S
C1192 C281 1.329 . S
C1204 C380 1.326 . S
