# Generated by pormake.
# Topology ict, (4)-cn, num edge types: 1
# Building blocks:
#     Node 0, Type 0, BuildingBlock: AZAVOO_clean_sbu_0, # of connection points: 4
#     Node 1, Type 0, BuildingBlock: AZAVOO_clean_sbu_0, # of connection points: 4
#     Node 2, Type 0, BuildingBlock: AZAVOO_clean_sbu_0, # of connection points: 4
#     Node 3, Type 0, BuildingBlock: AZAVOO_clean_sbu_0, # of connection points: 4
#     Node 4, Type 0, BuildingBlock: AZAVOO_clean_sbu_0, # of connection points: 4
#     Node 5, Type 0, BuildingBlock: AZAVOO_clean_sbu_0, # of connection points: 4
#     Node 6, Type 0, BuildingBlock: AZAVOO_clean_sbu_0, # of connection points: 4
#     Node 7, Type 0, BuildingBlock: AZAVOO_clean_sbu_0, # of connection points: 4
#     Node 8, Type 0, BuildingBlock: AZAVOO_clean_sbu_0, # of connection points: 4
#     Node 9, Type 0, BuildingBlock: AZAVOO_clean_sbu_0, # of connection points: 4
#     Node 10, Type 0, BuildingBlock: AZAVOO_clean_sbu_0, # of connection points: 4
#     Node 11, Type 0, BuildingBlock: AZAVOO_clean_sbu_0, # of connection points: 4
#     Node 12, Type 0, BuildingBlock: AZAVOO_clean_sbu_0, # of connection points: 4
#     Node 13, Type 0, BuildingBlock: AZAVOO_clean_sbu_0, # of connection points: 4
#     Node 14, Type 0, BuildingBlock: AZAVOO_clean_sbu_0, # of connection points: 4
#     Node 15, Type 0, BuildingBlock: AZAVOO_clean_sbu_0, # of connection points: 4
#     Node 16, Type 0, BuildingBlock: AZAVOO_clean_sbu_0, # of connection points: 4
#     Node 17, Type 0, BuildingBlock: AZAVOO_clean_sbu_0, # of connection points: 4
#     Node 18, Type 0, BuildingBlock: AZAVOO_clean_sbu_0, # of connection points: 4
#     Node 19, Type 0, BuildingBlock: AZAVOO_clean_sbu_0, # of connection points: 4
#     Node 20, Type 0, BuildingBlock: AZAVOO_clean_sbu_0, # of connection points: 4
#     Node 21, Type 0, BuildingBlock: AZAVOO_clean_sbu_0, # of connection points: 4
#     Node 22, Type 0, BuildingBlock: AZAVOO_clean_sbu_0, # of connection points: 4
#     Node 23, Type 0, BuildingBlock: AZAVOO_clean_sbu_0, # of connection points: 4
#     Node 24, Type 0, BuildingBlock: AZAVOO_clean_sbu_0, # of connection points: 4
#     Node 25, Type 0, BuildingBlock: AZAVOO_clean_sbu_0, # of connection points: 4
#     Node 26, Type 0, BuildingBlock: AZAVOO_clean_sbu_0, # of connection points: 4
#     Node 27, Type 0, BuildingBlock: AZAVOO_clean_sbu_0, # of connection points: 4
#     Node 28, Type 0, BuildingBlock: AZAVOO_clean_sbu_0, # of connection points: 4
#     Node 29, Type 0, BuildingBlock: AZAVOO_clean_sbu_0, # of connection points: 4
#     Node 30, Type 0, BuildingBlock: AZAVOO_clean_sbu_0, # of connection points: 4
#     Node 31, Type 0, BuildingBlock: AZAVOO_clean_sbu_0, # of connection points: 4
#     Node 32, Type 0, BuildingBlock: AZAVOO_clean_sbu_0, # of connection points: 4
#     Node 33, Type 0, BuildingBlock: AZAVOO_clean_sbu_0, # of connection points: 4
#     Node 34, Type 0, BuildingBlock: AZAVOO_clean_sbu_0, # of connection points: 4
#     Node 35, Type 0, BuildingBlock: AZAVOO_clean_sbu_0, # of connection points: 4
#     Edge 36, Type (0, 0), BuildingBlock: UVAHIK_clean_linker_0, # of connection points: 2
#     Edge 37, Type (0, 0), BuildingBlock: UVAHIK_clean_linker_0, # of connection points: 2
#     Edge 38, Type (0, 0), BuildingBlock: UVAHIK_clean_linker_0, # of connection points: 2
#     Edge 39, Type (0, 0), BuildingBlock: UVAHIK_clean_linker_0, # of connection points: 2
#     Edge 40, Type (0, 0), BuildingBlock: UVAHIK_clean_linker_0, # of connection points: 2
#     Edge 41, Type (0, 0), BuildingBlock: UVAHIK_clean_linker_0, # of connection points: 2
#     Edge 42, Type (0, 0), BuildingBlock: UVAHIK_clean_linker_0, # of connection points: 2
#     Edge 43, Type (0, 0), BuildingBlock: UVAHIK_clean_linker_0, # of connection points: 2
#     Edge 44, Type (0, 0), BuildingBlock: UVAHIK_clean_linker_0, # of connection points: 2
#     Edge 45, Type (0, 0), BuildingBlock: UVAHIK_clean_linker_0, # of connection points: 2
#     Edge 46, Type (0, 0), BuildingBlock: UVAHIK_clean_linker_0, # of connection points: 2
#     Edge 47, Type (0, 0), BuildingBlock: UVAHIK_clean_linker_0, # of connection points: 2
#     Edge 48, Type (0, 0), BuildingBlock: UVAHIK_clean_linker_0, # of connection points: 2
#     Edge 49, Type (0, 0), BuildingBlock: UVAHIK_clean_linker_0, # of connection points: 2
#     Edge 50, Type (0, 0), BuildingBlock: UVAHIK_clean_linker_0, # of connection points: 2
#     Edge 51, Type (0, 0), BuildingBlock: UVAHIK_clean_linker_0, # of connection points: 2
#     Edge 52, Type (0, 0), BuildingBlock: UVAHIK_clean_linker_0, # of connection points: 2
#     Edge 53, Type (0, 0), BuildingBlock: UVAHIK_clean_linker_0, # of connection points: 2
#     Edge 54, Type (0, 0), BuildingBlock: UVAHIK_clean_linker_0, # of connection points: 2
#     Edge 55, Type (0, 0), BuildingBlock: UVAHIK_clean_linker_0, # of connection points: 2
#     Edge 56, Type (0, 0), BuildingBlock: UVAHIK_clean_linker_0, # of connection points: 2
#     Edge 57, Type (0, 0), BuildingBlock: UVAHIK_clean_linker_0, # of connection points: 2
#     Edge 58, Type (0, 0), BuildingBlock: UVAHIK_clean_linker_0, # of connection points: 2
#     Edge 59, Type (0, 0), BuildingBlock: UVAHIK_clean_linker_0, # of connection points: 2
#     Edge 60, Type (0, 0), BuildingBlock: UVAHIK_clean_linker_0, # of connection points: 2
#     Edge 61, Type (0, 0), BuildingBlock: UVAHIK_clean_linker_0, # of connection points: 2
#     Edge 62, Type (0, 0), BuildingBlock: UVAHIK_clean_linker_0, # of connection points: 2
#     Edge 63, Type (0, 0), BuildingBlock: UVAHIK_clean_linker_0, # of connection points: 2
#     Edge 64, Type (0, 0), BuildingBlock: UVAHIK_clean_linker_0, # of connection points: 2
#     Edge 65, Type (0, 0), BuildingBlock: UVAHIK_clean_linker_0, # of connection points: 2
#     Edge 66, Type (0, 0), BuildingBlock: UVAHIK_clean_linker_0, # of connection points: 2
#     Edge 67, Type (0, 0), BuildingBlock: UVAHIK_clean_linker_0, # of connection points: 2
#     Edge 68, Type (0, 0), BuildingBlock: UVAHIK_clean_linker_0, # of connection points: 2
#     Edge 69, Type (0, 0), BuildingBlock: UVAHIK_clean_linker_0, # of connection points: 2
#     Edge 70, Type (0, 0), BuildingBlock: UVAHIK_clean_linker_0, # of connection points: 2
#     Edge 71, Type (0, 0), BuildingBlock: UVAHIK_clean_linker_0, # of connection points: 2
#     Edge 72, Type (0, 0), BuildingBlock: UVAHIK_clean_linker_0, # of connection points: 2
#     Edge 73, Type (0, 0), BuildingBlock: UVAHIK_clean_linker_0, # of connection points: 2
#     Edge 74, Type (0, 0), BuildingBlock: UVAHIK_clean_linker_0, # of connection points: 2
#     Edge 75, Type (0, 0), BuildingBlock: UVAHIK_clean_linker_0, # of connection points: 2
#     Edge 76, Type (0, 0), BuildingBlock: UVAHIK_clean_linker_0, # of connection points: 2
#     Edge 77, Type (0, 0), BuildingBlock: UVAHIK_clean_linker_0, # of connection points: 2
#     Edge 78, Type (0, 0), BuildingBlock: UVAHIK_clean_linker_0, # of connection points: 2
#     Edge 79, Type (0, 0), BuildingBlock: UVAHIK_clean_linker_0, # of connection points: 2
#     Edge 80, Type (0, 0), BuildingBlock: UVAHIK_clean_linker_0, # of connection points: 2
#     Edge 81, Type (0, 0), BuildingBlock: UVAHIK_clean_linker_0, # of connection points: 2
#     Edge 82, Type (0, 0), BuildingBlock: UVAHIK_clean_linker_0, # of connection points: 2
#     Edge 83, Type (0, 0), BuildingBlock: UVAHIK_clean_linker_0, # of connection points: 2
#     Edge 84, Type (0, 0), BuildingBlock: UVAHIK_clean_linker_0, # of connection points: 2
#     Edge 85, Type (0, 0), BuildingBlock: UVAHIK_clean_linker_0, # of connection points: 2
#     Edge 86, Type (0, 0), BuildingBlock: UVAHIK_clean_linker_0, # of connection points: 2
#     Edge 87, Type (0, 0), BuildingBlock: UVAHIK_clean_linker_0, # of connection points: 2
#     Edge 88, Type (0, 0), BuildingBlock: UVAHIK_clean_linker_0, # of connection points: 2
#     Edge 89, Type (0, 0), BuildingBlock: UVAHIK_clean_linker_0, # of connection points: 2
#     Edge 90, Type (0, 0), BuildingBlock: UVAHIK_clean_linker_0, # of connection points: 2
#     Edge 91, Type (0, 0), BuildingBlock: UVAHIK_clean_linker_0, # of connection points: 2
#     Edge 92, Type (0, 0), BuildingBlock: UVAHIK_clean_linker_0, # of connection points: 2
#     Edge 93, Type (0, 0), BuildingBlock: UVAHIK_clean_linker_0, # of connection points: 2
#     Edge 94, Type (0, 0), BuildingBlock: UVAHIK_clean_linker_0, # of connection points: 2
#     Edge 95, Type (0, 0), BuildingBlock: UVAHIK_clean_linker_0, # of connection points: 2
#     Edge 96, Type (0, 0), BuildingBlock: UVAHIK_clean_linker_0, # of connection points: 2
#     Edge 97, Type (0, 0), BuildingBlock: UVAHIK_clean_linker_0, # of connection points: 2
#     Edge 98, Type (0, 0), BuildingBlock: UVAHIK_clean_linker_0, # of connection points: 2
#     Edge 99, Type (0, 0), BuildingBlock: UVAHIK_clean_linker_0, # of connection points: 2
#     Edge 100, Type (0, 0), BuildingBlock: UVAHIK_clean_linker_0, # of connection points: 2
#     Edge 101, Type (0, 0), BuildingBlock: UVAHIK_clean_linker_0, # of connection points: 2
#     Edge 102, Type (0, 0), BuildingBlock: UVAHIK_clean_linker_0, # of connection points: 2
#     Edge 103, Type (0, 0), BuildingBlock: UVAHIK_clean_linker_0, # of connection points: 2
#     Edge 104, Type (0, 0), BuildingBlock: UVAHIK_clean_linker_0, # of connection points: 2
#     Edge 105, Type (0, 0), BuildingBlock: UVAHIK_clean_linker_0, # of connection points: 2
#     Edge 106, Type (0, 0), BuildingBlock: UVAHIK_clean_linker_0, # of connection points: 2
#     Edge 107, Type (0, 0), BuildingBlock: UVAHIK_clean_linker_0, # of connection points: 2
# Relax obj value: 0.144
# Max RMSD: 0.163
# Mean RMSD: 0.156
data_MOF--net-ict--node1-AZAVOO_clean_sbu_0--edge1-UVAHIK_clean_linker_0
_symmetry_space_group_name_H-M    P1
_symmetry_Int_Tables_number       1
_symmetry_cell_setting            triclinic
loop_
_symmetry_equiv_pos_as_xyz
'x, y, z'
_cell_length_a     84.323224
_cell_length_b     83.918767
_cell_length_c     45.677991
_cell_angle_alpha  90.52216
_cell_angle_beta   90.034584
_cell_angle_gamma 120.11084
loop_
_atom_site_label
_atom_site_type_symbol
_atom_site_fract_x
_atom_site_fract_y
_atom_site_fract_z
_atom_type_partial_charge
Mg0 Mg 0.23061 0.23725 0.0954 0.0
O1 O 0.23078 0.20996 0.09474 0.0
O2 O 0.20771 0.18958 0.12215 0.0
Mg3 Mg 0.19272 0.20367 0.14069 0.0
C4 C 0.22139 0.19388 0.10549 0.0
C5 C 0.26639 0.24744 0.06239 0.0
O6 O 0.26855 0.24067 0.08692 0.0
O7 O 0.20594 0.22479 0.0639 0.0
O8 O 0.18385 0.20529 0.09399 0.0
O9 O 0.24753 0.24657 0.13669 0.0
O10 O 0.21732 0.23086 0.13568 0.0
C11 C 0.18923 0.21271 0.06894 0.0
C12 C 0.23222 0.23852 0.15085 0.0
O13 O 0.25163 0.24778 0.05839 0.0
Mg14 Mg 0.76707 0.01988 0.03781 0.0
O15 O 0.79691 0.04408 0.04059 0.0
O16 O 0.81235 0.03458 0.06833 0.0
Mg17 Mg 0.79288 0.0058 0.08529 0.0
C18 C 0.8118 0.04671 0.0524 0.0
C19 C 0.74915 0.02336 0.98075 0.0
O20 O 0.7416 0.00539 0.98269 0.0
O21 O 0.77608 0.00425 0.00697 0.0
O22 O 0.79029 0.9951 0.03826 0.0
O23 O 0.75871 0.02913 0.07846 0.0
O24 O 0.76956 0.0101 0.07821 0.0
C25 C 0.78455 0.99556 0.01257 0.0
C26 C 0.76344 0.01898 0.09299 0.0
O27 O 0.76091 0.03354 -7e-05 0.0
Mg28 Mg 0.99189 0.80459 0.97354 0.0
O29 O 0.98844 0.79825 0.02238 0.0
O30 O 0.96098 0.77396 0.03133 0.0
Mg31 Mg 0.94677 0.76417 0.98669 0.0
C32 C 0.97662 0.78682 0.04009 0.0
C33 C 0.02539 0.83735 0.00183 0.0
O34 O 0.01157 0.83709 0.01551 0.0
O35 O 0.99696 0.78056 0.96578 0.0
O36 O 0.96872 0.7569 0.97369 0.0
O37 O 0.9784 0.82156 0.97793 0.0
O38 O 0.9635 0.79175 0.96779 0.0
C39 C 0.98557 0.76328 0.96712 0.0
C40 C 0.96299 0.80659 0.97296 0.0
O41 O 0.02208 0.82513 0.98233 0.0
Mg42 Mg 0.22092 0.20759 0.52173 0.0
O43 O 0.2192 0.2184 0.47714 0.0
O44 O 0.20733 0.23683 0.47901 0.0
Mg45 Mg 0.20239 0.23875 0.52801 0.0
C46 C 0.21405 0.22854 0.4646 0.0
C47 C 0.23934 0.18369 0.49568 0.0
O48 O 0.25154 0.18345 0.47808 0.0
O49 O 0.24602 0.23543 0.53357 0.0
O50 O 0.23349 0.25347 0.53558 0.0
O51 O 0.19158 0.18486 0.51605 0.0
O52 O 0.2 0.21173 0.53719 0.0
C53 C 0.24733 0.25116 0.53717 0.0
C54 C 0.18704 0.19605 0.52799 0.0
O55 O 0.23929 0.19871 0.4989 0.0
Mg56 Mg 0.75623 0.98816 0.45134 0.0
O57 O 0.75873 0.96206 0.44738 0.0
O58 O 0.77783 0.96665 0.4103 0.0
Mg59 Mg 0.78678 0.99451 0.38955 0.0
C60 C 0.76762 0.95678 0.43114 0.0
C61 C 0.72854 0.98162 0.49932 0.0
O62 O 0.72501 0.9904 0.47897 0.0
O63 O 0.78509 0.00358 0.47202 0.0
O64 O 0.80209 0.00797 0.43206 0.0
O65 O 0.73304 0.97748 0.41829 0.0
O66 O 0.76239 0.99353 0.40731 0.0
C67 C 0.80068 0.01023 0.45943 0.0
C68 C 0.74565 0.98466 0.39859 0.0
O69 O 0.74176 0.97864 0.49538 0.0
Mg70 Mg 0.01705 0.80262 0.40356 0.0
O71 O 0.04198 0.83178 0.40694 0.0
O72 O 0.03601 0.85098 0.38213 0.0
Mg73 Mg 0.00738 0.83408 0.36207 0.0
C74 C 0.04662 0.84791 0.39802 0.0
C75 C 0.02905 0.77831 0.43716 0.0
O76 O 0.02167 0.76824 0.41349 0.0
O77 O 0.00124 0.81041 0.4359 0.0
O78 O 0.99488 0.82831 0.40801 0.0
O79 O 0.02717 0.79688 0.36138 0.0
O80 O 0.00915 0.80883 0.36413 0.0
C81 C 0.99366 0.82016 0.43212 0.0
C82 C 0.01812 0.80343 0.34812 0.0
O83 O 0.02915 0.79345 0.44004 0.0
Mg84 Mg 0.75319 0.79402 0.91697 0.0
O85 O 0.78282 0.80104 0.92731 0.0
O86 O 0.79104 0.81721 0.96931 0.0
Mg87 Mg 0.76672 0.81905 0.98677 0.0
C88 C 0.79458 0.80988 0.94755 0.0
C89 C 0.73859 0.7734 0.86113 0.0
O90 O 0.72971 0.78226 0.86649 0.0
O91 O 0.74271 0.77126 0.95054 0.0
O92 O 0.75142 0.78746 0.99254 0.0
O93 O 0.76317 0.82086 0.89471 0.0
O94 O 0.75653 0.81633 0.94178 0.0
C95 C 0.74377 0.77214 0.97844 0.0
C96 C 0.76247 0.82749 0.92006 0.0
O97 O 0.7504 0.77467 0.87972 0.0
Mg98 Mg 0.23632 0.00908 0.96522 0.0
O99 O 0.2397 0.03505 0.98889 0.0
O100 O 0.23581 0.02828 0.03656 0.0
Mg101 Mg 0.22972 0.99895 0.04356 0.0
C102 C 0.23911 0.03945 0.01558 0.0
C103 C 0.23564 0.01362 0.90181 0.0
O104 O 0.22207 0.99742 0.90939 0.0
O105 O 0.26471 0.01521 0.98056 0.0
O106 O 0.25884 0.00797 0.02794 0.0
O107 O 0.20622 0.9979 0.96181 0.0
O108 O 0.21943 0.99203 0.99852 0.0
C109 C 0.26975 0.0135 0.00617 0.0
C110 C 0.20465 0.98987 0.98651 0.0
O111 O 0.24665 0.02404 0.92167 0.0
Mg112 Mg 0.02201 0.24024 0.96377 0.0
O113 O 0.99475 0.21479 0.97814 0.0
O114 O -0.00016 0.20949 0.02418 0.0
Mg115 Mg 0.02938 0.22911 0.03789 0.0
C116 C 0.98928 0.20582 0.00205 0.0
C117 C 0.02118 0.25836 0.9088 0.0
O118 O 0.03786 0.26796 0.91966 0.0
O119 O 0.01618 0.25888 0.99293 0.0
O120 O 0.02231 0.25223 0.03741 0.0
O121 O 0.03285 0.22273 0.9461 0.0
O122 O 0.03697 0.23324 0.99154 0.0
C123 C 0.0176 0.26129 0.02067 0.0
C124 C 0.03964 0.22373 0.97192 0.0
O125 O 0.00911 0.2451 0.92373 0.0
Mg126 Mg 0.78306 0.76226 0.51379 0.0
O127 O 0.78377 0.78939 0.50232 0.0
O128 O 0.79843 0.79826 0.45959 0.0
Mg129 Mg 0.80682 0.77769 0.44399 0.0
C130 C 0.79013 0.80068 0.48105 0.0
C131 C 0.76104 0.74268 0.56598 0.0
O132 O 0.76933 0.73376 0.55726 0.0
O133 O 0.76053 0.74672 0.47992 0.0
O134 O 0.77624 0.75596 0.43807 0.0
O135 O 0.8102 0.77758 0.5364 0.0
O136 O 0.80654 0.76969 0.4896 0.0
C137 C 0.7613 0.74628 0.45201 0.0
C138 C 0.81748 0.77777 0.51137 0.0
O139 O 0.76285 0.75608 0.55072 0.0
Mg140 Mg 0.24278 0.01059 0.57231 0.0
O141 O 0.21873 0.99644 0.54031 0.0
O142 O 0.21863 0.01649 0.50876 0.0
Mg143 Mg 0.24465 0.0439 0.51937 0.0
C144 C 0.21157 0.00021 0.51881 0.0
C145 C 0.23272 0.97575 0.6121 0.0
O146 O 0.22748 0.95833 0.61634 0.0
O147 O 0.26218 0.01094 0.53723 0.0
O148 O 0.26182 0.03083 0.50522 0.0
O149 O 0.22596 0.01872 0.60041 0.0
O150 O 0.24464 0.03587 0.56533 0.0
C151 C 0.26705 0.01962 0.51311 0.0
C152 C 0.23286 0.03361 0.58506 0.0
O153 O 0.23626 0.98199 0.58626 0.0
Mg154 Mg 0.9846 0.2009 0.55287 0.0
O155 O 0.00902 0.1965 0.54299 0.0
O156 O 0.00311 0.18272 0.49897 0.0
Mg157 Mg 0.97559 0.1779 0.48163 0.0
C158 C 0.01333 0.18946 0.52161 0.0
C159 C 0.98713 0.22106 0.60726 0.0
O160 O 0.96983 0.2116 0.5991 0.0
O161 O 0.99502 0.22423 0.52041 0.0
O162 O 0.98719 0.20933 0.47737 0.0
O163 O 0.96926 0.17377 0.57449 0.0
O164 O 0.96735 0.17805 0.52726 0.0
C165 C 0.99387 0.22422 0.49256 0.0
C166 C 0.96253 0.16686 0.54896 0.0
O167 O 0.99907 0.22048 0.59101 0.0
Mg168 Mg 0.88788 0.54257 0.40467 0.0
O169 O 0.88747 0.51506 0.40544 0.0
O170 O 0.86476 0.49554 0.4342 0.0
Mg171 Mg 0.85073 0.51078 0.45249 0.0
C172 C 0.87813 0.49927 0.41713 0.0
C173 C 0.91482 0.56727 0.35567 0.0
O174 O 0.90953 0.57864 0.36542 0.0
O175 O 0.86259 0.53016 0.37475 0.0
O176 O 0.84071 0.51219 0.40633 0.0
O177 O 0.9059 0.5527 0.44447 0.0
O178 O 0.87567 0.53764 0.44578 0.0
C179 C 0.84578 0.51907 0.38085 0.0
C180 C 0.89102 0.5455 0.45978 0.0
O181 O 0.90784 0.55129 0.36657 0.0
Mg182 Mg 0.4409 0.35613 0.40024 0.0
O183 O 0.47094 0.37957 0.39812 0.0
O184 O 0.48758 0.37255 0.42786 0.0
Mg185 Mg 0.4686 0.34484 0.44887 0.0
C186 C 0.48626 0.38326 0.40958 0.0
C187 C 0.42013 0.35797 0.34445 0.0
O188 O 0.41018 0.34029 0.34998 0.0
O189 O 0.44817 0.3382 0.37155 0.0
O190 O 0.46416 0.33152 0.40336 0.0
O191 O 0.4351 0.36883 0.43946 0.0
O192 O 0.44553 0.34945 0.44187 0.0
C193 C 0.45717 0.33015 0.37799 0.0
C194 C 0.44096 0.36007 0.45519 0.0
O195 O 0.43391 0.36801 0.3607 0.0
Mg196 Mg 0.6625 0.13055 0.27906 0.0
O197 O 0.66153 0.12707 0.32927 0.0
O198 O 0.63371 0.10372 0.34016 0.0
Mg199 Mg 0.61745 0.0917 0.29797 0.0
C200 C 0.64971 0.11644 0.34788 0.0
C201 C 0.69996 0.16449 0.29768 0.0
O202 O 0.68908 0.16621 0.3164 0.0
O203 O 0.66643 0.10561 0.27396 0.0
O204 O 0.63838 0.08284 0.2859 0.0
O205 O 0.65019 0.14866 0.28318 0.0
O206 O 0.63405 0.11847 0.27721 0.0
C207 C 0.65492 0.08861 0.27815 0.0
C208 C 0.63434 0.13378 0.28154 0.0
O209 O 0.6933 0.15068 0.28033 0.0
Mg210 Mg 0.89516 0.55923 0.83603 0.0
O211 O 0.89227 0.5636 0.78781 0.0
O212 O 0.87792 0.57953 0.78135 0.0
Mg213 Mg 0.87221 0.58617 0.82772 0.0
C214 C 0.88571 0.57098 0.77114 0.0
C215 C 0.91579 0.53643 0.81727 0.0
O216 O 0.93037 0.5366 0.80672 0.0
O217 O 0.91817 0.58907 0.84121 0.0
O218 O 0.90316 0.60452 0.83585 0.0
O219 O 0.86676 0.53402 0.83413 0.0
O220 O 0.87262 0.56203 0.84586 0.0
C221 C 0.91795 0.60415 0.84021 0.0
C222 C 0.86074 0.54506 0.84092 0.0
O223 O 0.91659 0.55171 0.82236 0.0
Mg224 Mg 0.45051 0.34706 0.82295 0.0
O225 O 0.454 0.32143 0.82061 0.0
O226 O 0.47677 0.3279 0.78938 0.0
Mg227 Mg 0.48807 0.35698 0.77237 0.0
C228 C 0.46446 0.31694 0.807 0.0
C229 C 0.41666 0.33597 0.86003 0.0
O230 O 0.4147 0.34451 0.83757 0.0
O231 O 0.47622 0.36218 0.85206 0.0
O232 O 0.49797 0.36785 0.81894 0.0
O233 O 0.43159 0.33736 0.78407 0.0
O234 O 0.46158 0.35508 0.78102 0.0
C235 C 0.49304 0.36892 0.84498 0.0
C236 C 0.44597 0.3461 0.76787 0.0
O237 O 0.43112 0.33483 0.86177 0.0
Mg238 Mg 0.6757 0.11894 0.71369 0.0
O239 O 0.70211 0.14666 0.72016 0.0
O240 O 0.69973 0.16827 0.69563 0.0
Mg241 Mg 0.67141 0.1546 0.67436 0.0
C242 C 0.70868 0.16331 0.71209 0.0
C243 C 0.67631 0.09809 0.77127 0.0
O244 O 0.65961 0.09527 0.77445 0.0
O245 O 0.66118 0.12809 0.74653 0.0
O246 O 0.65893 0.14927 0.72024 0.0
O247 O 0.68602 0.11354 0.67142 0.0
O248 O 0.6701 0.12777 0.67451 0.0
C249 C 0.65614 0.14005 0.74367 0.0
C250 C 0.67875 0.12201 0.65846 0.0
O251 O 0.68569 0.10703 0.74929 0.0
Mg252 Mg 0.42596 0.12812 0.27659 0.0
O253 O 0.45449 0.13191 0.28556 0.0
O254 O 0.46382 0.14573 0.3293 0.0
Mg255 Mg 0.44125 0.15018 0.34838 0.0
C256 C 0.46642 0.13876 0.30611 0.0
C257 C 0.41119 0.1104 0.2183 0.0
O258 O 0.40365 0.12048 0.2241 0.0
O259 O 0.41313 0.10416 0.30809 0.0
O260 O 0.4218 0.11871 0.35142 0.0
O261 O 0.43827 0.15607 0.25712 0.0
O262 O 0.43134 0.15022 0.30389 0.0
C263 C 0.41299 0.10396 0.33604 0.0
C264 C 0.43802 0.16211 0.2832 0.0
O265 O 0.42175 0.10961 0.23736 0.0
Mg266 Mg 0.92003 0.33154 0.27765 0.0
O267 O 0.91343 0.34996 0.30673 0.0
O268 O 0.89468 0.33322 0.34265 0.0
Mg269 Mg 0.88964 0.30394 0.33716 0.0
C270 C 0.90391 0.34848 0.32936 0.0
C271 C 0.94643 0.36456 0.23321 0.0
O272 O 0.96079 0.38094 0.22906 0.0
O273 O 0.93934 0.3312 0.31238 0.0
O274 O 0.91993 0.31425 0.34768 0.0
O275 O 0.89466 0.32343 0.25054 0.0
O276 O 0.89548 0.30877 0.28997 0.0
C277 C 0.93613 0.32366 0.33747 0.0
C278 C 0.88603 0.31065 0.26964 0.0
O279 O 0.94368 0.35773 0.25868 0.0
Mg280 Mg 0.68595 0.56009 0.25803 0.0
O281 O 0.66228 0.53611 0.28261 0.0
O282 O 0.67232 0.53619 0.32795 0.0
Mg283 Mg 0.70166 0.55994 0.33275 0.0
C284 C 0.65979 0.52941 0.30833 0.0
C285 C 0.66949 0.57073 0.20595 0.0
O286 O 0.68154 0.58716 0.21602 0.0
O287 O 0.68021 0.58053 0.28245 0.0
O288 O 0.691 0.58014 0.32704 0.0
O289 O 0.69761 0.54238 0.24463 0.0
O290 O 0.70522 0.55902 0.28531 0.0
C291 C 0.68366 0.58616 0.30902 0.0
C292 C 0.70689 0.54741 0.26886 0.0
O293 O 0.66698 0.55666 0.21999 0.0
Mg294 Mg 0.46048 0.10947 0.86519 0.0
O295 O 0.4628 0.1377 0.85676 0.0
O296 O 0.47465 0.14591 0.81195 0.0
Mg297 Mg 0.47975 0.1239 0.79211 0.0
C298 C 0.46844 0.14902 0.83548 0.0
C299 C 0.44105 0.09102 0.92032 0.0
O300 O 0.44853 0.08154 0.91055 0.0
O301 O 0.43569 0.09535 0.83499 0.0
O302 O 0.44858 0.10363 0.79082 0.0
O303 O 0.48897 0.12281 0.88322 0.0
O304 O 0.48187 0.11549 0.83663 0.0
C305 C 0.43453 0.09476 0.80709 0.0
C306 C 0.49431 0.1227 0.85669 0.0
O307 O 0.4428 0.10449 0.9053 0.0
Mg308 Mg 0.88457 0.35071 0.89498 0.0
O309 O 0.8621 0.32672 0.86744 0.0
O310 O 0.86244 0.33859 0.8236 0.0
Mg311 Mg 0.88415 0.36889 0.82243 0.0
C312 C 0.85605 0.32506 0.84121 0.0
C313 C 0.89785 0.33455 0.94376 0.0
O314 O 0.91356 0.34693 0.93254 0.0
O315 O 0.90665 0.34805 0.86969 0.0
O316 O 0.90583 0.36023 0.82675 0.0
O317 O 0.86499 0.3598 0.91003 0.0
O318 O 0.88159 0.36968 0.86999 0.0
C319 C 0.91246 0.35295 0.84364 0.0
C320 C 0.86935 0.36975 0.88673 0.0
O321 O 0.88306 0.33155 0.93144 0.0
Mg322 Mg 0.67534 0.56742 0.87106 0.0
O323 O 0.69236 0.55461 0.85634 0.0
O324 O 0.6777 0.53341 0.82151 0.0
Mg325 Mg 0.65016 0.53233 0.8147 0.0
C326 C 0.69154 0.54254 0.8383 0.0
C327 C 0.70713 0.59546 0.91685 0.0
O328 O 0.72381 0.60923 0.92165 0.0
O329 O 0.68132 0.58345 0.8286 0.0
O330 O 0.66431 0.5616 0.7957 0.0
O331 O 0.66141 0.54509 0.90473 0.0
O332 O 0.65135 0.54331 0.85958 0.0
C333 C 0.67513 0.57849 0.80259 0.0
C334 C 0.64953 0.53559 0.8845 0.0
O335 O 0.70154 0.5912 0.89058 0.0
Mg336 Mg 0.56586 0.88726 0.77535 0.0
O337 O 0.56463 0.85978 0.7655 0.0
O338 O 0.54092 0.83762 0.7898 0.0
Mg339 Mg 0.52792 0.85092 0.81722 0.0
C340 C 0.5544 0.8429 0.77229 0.0
C341 C 0.60008 0.89954 0.73603 0.0
O342 O 0.60329 0.89091 0.75701 0.0
O343 O 0.54049 0.8786 0.74649 0.0
O344 O 0.51819 0.85779 0.77479 0.0
O345 O 0.58403 0.89265 0.81456 0.0
O346 O 0.55378 0.87731 0.81587 0.0
C347 C 0.52355 0.86732 0.75146 0.0
C348 C 0.56914 0.88328 0.82941 0.0
O349 O 0.58548 0.90048 0.73695 0.0
Mg350 Mg 0.11278 0.69444 0.70543 0.0
O351 O 0.14226 0.71944 0.70593 0.0
O352 O 0.15798 0.71417 0.74016 0.0
Mg353 Mg 0.13933 0.68664 0.76175 0.0
C354 C 0.15709 0.7242 0.72011 0.0
C355 C 0.10789 0.72017 0.66305 0.0
O356 O 0.11399 0.73039 0.68689 0.0
O357 O 0.12305 0.67719 0.68155 0.0
O358 O 0.13802 0.67255 0.71801 0.0
O359 O 0.10337 0.70645 0.74125 0.0
O360 O 0.1157 0.68904 0.74872 0.0
C361 C 0.13237 0.6702 0.69151 0.0
C362 C 0.10914 0.69872 0.75941 0.0
O363 O 0.10633 0.70428 0.66292 0.0
Mg364 Mg 0.31891 0.45547 0.65724 0.0
O365 O 0.32005 0.45333 0.70723 0.0
O366 O 0.29364 0.42935 0.72182 0.0
Mg367 Mg 0.27589 0.41588 0.68135 0.0
C368 C 0.30959 0.44293 0.72739 0.0
C369 C 0.35398 0.491 0.64276 0.0
O370 O 0.34128 0.49214 0.62779 0.0
O371 O 0.32385 0.43131 0.65116 0.0
O372 O 0.29698 0.40783 0.66598 0.0
O373 O 0.30574 0.47259 0.66184 0.0
O374 O 0.29025 0.44224 0.65795 0.0
C375 C 0.31322 0.41422 0.65615 0.0
C376 C 0.2901 0.45742 0.66152 0.0
O377 O 0.3494 0.47656 0.65747 0.0
Mg378 Mg 0.53758 0.87787 0.20486 0.0
O379 O 0.54101 0.87886 0.15468 0.0
O380 O 0.53858 0.90267 0.13864 0.0
Mg381 Mg 0.53286 0.91624 0.17748 0.0
C382 C 0.54123 0.88915 0.13406 0.0
C383 C 0.53989 0.84487 0.22742 0.0
O384 O 0.52725 0.845 0.24407 0.0
O385 O 0.5666 0.9028 0.20998 0.0
O386 O 0.56193 0.92516 0.19336 0.0
O387 O 0.50713 0.86023 0.19996 0.0
O388 O 0.5219 0.89061 0.20216 0.0
C389 C 0.5724 0.91967 0.20386 0.0
C390 C 0.50665 0.87539 0.19905 0.0
O391 O 0.54762 0.8573 0.20822 0.0
Mg392 Mg 0.10015 0.66147 0.11944 0.0
O393 O 0.10378 0.63599 0.11815 0.0
O394 O 0.12711 0.64229 0.0883 0.0
Mg395 Mg 0.13818 0.67106 0.06994 0.0
C396 C 0.11458 0.63149 0.10576 0.0
C397 C 0.06536 0.63464 0.15275 0.0
O398 O 0.06244 0.62713 0.12649 0.0
O399 O 0.12561 0.67663 0.14886 0.0
O400 O 0.1477 0.6826 0.11622 0.0
O401 O 0.08185 0.65244 0.07949 0.0
O402 O 0.11191 0.6697 0.0782 0.0
C403 C 0.14252 0.68369 0.14207 0.0
C404 C 0.09659 0.66147 0.06419 0.0
O405 O 0.08052 0.64927 0.15799 0.0
Mg406 Mg 0.35472 0.46684 0.08828 0.0
O407 O 0.38055 0.49544 0.09224 0.0
O408 O 0.37552 0.51534 0.06753 0.0
Mg409 Mg 0.34683 0.49973 0.04748 0.0
C410 C 0.38578 0.51171 0.08333 0.0
C411 C 0.35784 0.43877 0.12777 0.0
O412 O 0.34404 0.42794 0.11051 0.0
O413 O 0.33967 0.47541 0.12087 0.0
O414 O 0.33437 0.49423 0.09345 0.0
O415 O 0.3646 0.4608 0.04614 0.0
O416 O 0.34769 0.47399 0.04886 0.0
C417 C 0.33278 0.48581 0.11741 0.0
C418 C 0.35637 0.46822 0.03288 0.0
O419 O 0.36548 0.4561 0.12458 0.0
Mg420 Mg 0.08512 0.45862 0.63193 0.0
O421 O 0.11247 0.46011 0.64365 0.0
O422 O 0.12154 0.47498 0.68669 0.0
Mg423 Mg 0.10103 0.48347 0.70166 0.0
C424 C 0.12383 0.4666 0.66506 0.0
C425 C 0.06986 0.43992 0.575 0.0
O426 O 0.06336 0.451 0.58016 0.0
O427 O 0.07013 0.43628 0.66597 0.0
O428 O 0.07966 0.45278 0.70759 0.0
O429 O 0.09992 0.48538 0.60902 0.0
O430 O 0.09265 0.48264 0.65587 0.0
C431 C 0.06998 0.43751 0.69387 0.0
C432 C 0.10056 0.49319 0.63388 0.0
O433 O 0.07957 0.43828 0.59472 0.0
Mg434 Mg 0.57181 0.6618 0.62115 0.0
O435 O 0.57303 0.68664 0.64496 0.0
O436 O 0.56471 0.67815 0.69126 0.0
Mg437 Mg 0.55771 0.64831 0.69685 0.0
C438 C 0.57 0.6901 0.671 0.0
C439 C 0.57706 0.6694 0.55861 0.0
O440 O 0.56344 0.6526 0.56289 0.0
O441 O 0.59842 0.66716 0.64336 0.0
O442 O 0.58788 0.65724 0.68837 0.0
O443 O 0.54249 0.65125 0.61026 0.0
O444 O 0.55166 0.64329 0.64989 0.0
C445 C 0.60086 0.66375 0.66968 0.0
C446 C 0.53836 0.64208 0.63432 0.0
O447 O 0.5861 0.67894 0.58077 0.0
Mg448 Mg 0.36715 0.91341 0.62179 0.0
O449 O 0.34042 0.88728 0.63561 0.0
O450 O 0.34474 0.88286 0.68249 0.0
Mg451 Mg 0.37303 0.90501 0.69829 0.0
C452 C 0.33482 0.87819 0.65938 0.0
C453 C 0.36677 0.92805 0.56301 0.0
O454 O 0.38389 0.93658 0.57216 0.0
O455 O 0.35861 0.9312 0.64729 0.0
O456 O 0.36402 0.92668 0.69351 0.0
O457 O 0.38012 0.89692 0.6084 0.0
O458 O 0.3822 0.90849 0.65272 0.0
C459 C 0.35901 0.93451 0.67469 0.0
C460 C 0.38605 0.89887 0.63508 0.0
O461 O 0.35449 0.91637 0.57978 0.0
Mg462 Mg 0.12892 0.44162 0.22336 0.0
O463 O 0.13004 0.46818 0.20699 0.0
O464 O 0.14236 0.47294 0.16231 0.0
Mg465 Mg 0.14912 0.45059 0.15032 0.0
C466 C 0.13549 0.47752 0.18343 0.0
C467 C 0.10811 0.42518 0.27769 0.0
O468 O 0.11519 0.41511 0.26902 0.0
O469 O 0.10458 0.42449 0.19318 0.0
O470 O 0.11818 0.42948 0.14953 0.0
O471 O 0.15733 0.45741 0.24207 0.0
O472 O 0.15077 0.44618 0.19706 0.0
C473 C 0.1039 0.42162 0.16557 0.0
C474 C 0.163 0.45528 0.21679 0.0
O475 O 0.11056 0.43861 0.26185 0.0
Mg476 Mg 0.59418 0.67673 0.22818 0.0
O477 O 0.56787 0.66083 0.20107 0.0
O478 O 0.56659 0.67871 0.16644 0.0
Mg479 Mg 0.59335 0.70627 0.17033 0.0
C480 C 0.55968 0.66334 0.17966 0.0
C481 C 0.58442 0.64349 0.27246 0.0
O482 O 0.5796 0.62632 0.27806 0.0
O483 O 0.61073 0.6737 0.19139 0.0
O484 O 0.60932 0.69182 0.15709 0.0
O485 O 0.58019 0.68803 0.25675 0.0
O486 O 0.59602 0.70156 0.21713 0.0
C487 C 0.61454 0.68078 0.16594 0.0
C488 C 0.58592 0.7014 0.23827 0.0
O489 O 0.58823 0.64913 0.24633 0.0
Mg490 Mg 0.31033 0.89233 0.20903 0.0
O491 O 0.33357 0.88614 0.20033 0.0
O492 O 0.3266 0.86955 0.15883 0.0
Mg493 Mg 0.29964 0.8658 0.14081 0.0
C494 C 0.33717 0.87745 0.18075 0.0
C495 C 0.31606 0.9135 0.26448 0.0
O496 O 0.29832 0.90459 0.25923 0.0
O497 O 0.3218 0.91423 0.17396 0.0
O498 O 0.3135 0.89719 0.13291 0.0
O499 O 0.29462 0.8662 0.2332 0.0
O500 O 0.29191 0.86879 0.18561 0.0
C501 C 0.32098 0.91284 0.14607 0.0
C502 C 0.28749 0.8584 0.20831 0.0
O503 O 0.32659 0.91254 0.24553 0.0
C504 C 0.38561 0.32788 0.87843 0.0
C505 C 0.40174 0.32702 0.88175 0.0
C506 C 0.37109 0.31887 0.89794 0.0
C507 C 0.35958 0.29931 0.97201 0.0
H508 H 0.31001 0.27297 0.94083 0.0
C509 C 0.29731 0.25425 0.04502 0.0
C510 C 0.28137 0.25531 0.04061 0.0
C511 C 0.31187 0.26236 0.02533 0.0
C512 C 0.32374 0.28042 0.94994 0.0
H513 H 0.41534 0.31616 0.90848 0.0
H514 H 0.3899 0.30035 0.94264 0.0
H515 H 0.33582 0.28848 0.90755 0.0
H516 H 0.26812 0.26554 0.01175 0.0
H517 H 0.29361 0.2799 0.97753 0.0
H518 H 0.3475 0.29139 0.01442 0.0
C519 C 0.38857 0.30813 0.92496 0.0
C520 C 0.33855 0.2893 0.93085 0.0
C521 C 0.40312 0.31713 0.90534 0.0
C522 C 0.28019 0.26443 0.01576 0.0
C523 C 0.29478 0.27259 0.99606 0.0
C524 C 0.34476 0.29045 0.99111 0.0
C525 C 0.37232 0.30877 0.92132 0.0
C526 C 0.35664 0.29893 0.94166 0.0
C527 C 0.31087 0.27178 0.00074 0.0
C528 C 0.32664 0.28095 0.98033 0.0
H529 H 0.38409 0.33543 0.86059 0.0
H530 H 0.35891 0.31991 0.89479 0.0
H531 H 0.37332 0.3068 0.98107 0.0
H532 H 0.29864 0.24723 0.06382 0.0
H533 H 0.3239 0.26119 0.02934 0.0
C534 C 0.70161 0.09292 0.78848 0.0
C535 C 0.68415 0.0908 0.79286 0.0
C536 C 0.70897 0.0859 0.8086 0.0
C537 C 0.69566 0.05175 0.86778 0.0
H538 H 0.74748 0.07937 0.88709 0.0
C539 C 0.73023 0.02017 0.93639 0.0
C540 C 0.74301 0.03149 0.95781 0.0
C541 C 0.72356 0.0276 0.91578 0.0
C542 C 0.73296 0.07153 0.88211 0.0
H543 H 0.66082 0.07979 0.82205 0.0
H544 H 0.67377 0.06777 0.85739 0.0
H545 H 0.73463 0.09222 0.85313 0.0
H546 H 0.75905 0.05959 0.97402 0.0
H547 H 0.74724 0.07252 0.9383 0.0
H548 H 0.69388 0.03128 0.8973 0.0
C549 C 0.68166 0.0746 0.83812 0.0
C550 C 0.72562 0.0788 0.86236 0.0
C551 C 0.67427 0.08159 0.81793 0.0
C552 C 0.74925 0.05049 0.95777 0.0
C553 C 0.74253 0.05792 0.93719 0.0
C554 C 0.70299 0.0445 0.88755 0.0
C555 C 0.69909 0.07663 0.83367 0.0
C556 C 0.70688 0.06899 0.85492 0.0
C557 C 0.72946 0.04653 0.91612 0.0
C558 C 0.72173 0.05428 0.89494 0.0
H559 H 0.70958 0.0999 0.76935 0.0
H560 H 0.72231 0.08749 0.80424 0.0
H561 H 0.68122 0.04371 0.86232 0.0
H562 H 0.72522 0.0055 0.93567 0.0
H563 H 0.71377 0.01848 0.89954 0.0
C564 C 0.98131 0.73177 0.96879 0.0
C565 C 0.99122 0.74987 0.95841 0.0
C566 C 0.98343 0.71783 0.95603 0.0
C567 C 0.98976 0.68933 0.92708 0.0
H568 H 0.98203 0.69083 0.84375 0.0
C569 C 0.94993 0.62234 0.86083 0.0
C570 C 0.93499 0.62182 0.84623 0.0
C571 C 0.96471 0.63916 0.8705 0.0
C572 C 0.98439 0.69023 0.86692 0.0
H573 H 0.01243 0.76795 0.92841 0.0
H574 H 0.0161 0.74341 0.90578 0.0
H575 H 0.99487 0.71909 0.87268 0.0
H576 H 0.92456 0.63862 0.82813 0.0
H577 H 0.94997 0.66767 0.84508 0.0
H578 H 0.97754 0.66018 0.92179 0.0
C579 C 0.00658 0.74003 0.92373 0.0
C580 C 0.99198 0.70649 0.88351 0.0
C581 C 0.00456 0.75408 0.93677 0.0
C582 C 0.93575 0.6385 0.83961 0.0
C583 C 0.95049 0.65524 0.84906 0.0
C584 C 0.98204 0.67304 0.91052 0.0
C585 C 0.99545 0.72161 0.9324 0.0
C586 C 0.99364 0.70603 0.91408 0.0
C587 C 0.96487 0.65576 0.86546 0.0
C588 C 0.9782 0.67318 0.8806 0.0
H589 H 0.97108 0.72816 0.98568 0.0
H590 H 0.97449 0.70384 0.96318 0.0
H591 H 0.99127 0.68859 0.9505 0.0
H592 H 0.9498 0.60972 0.86612 0.0
H593 H 0.97564 0.63912 0.88288 0.0
C594 C 0.32292 0.39957 0.61821 0.0
C595 C 0.31885 0.40088 0.64753 0.0
C596 C 0.32369 0.38417 0.60823 0.0
C597 C 0.30441 0.33535 0.62983 0.0
H598 H 0.32278 0.33258 0.5533 0.0
C599 C 0.27492 0.26647 0.56961 0.0
C600 C 0.26499 0.26727 0.54555 0.0
C601 C 0.28886 0.28276 0.58238 0.0
C602 C 0.31787 0.33317 0.57498 0.0
H603 H 0.31426 0.38841 0.69017 0.0
H604 H 0.31715 0.36231 0.67354 0.0
H605 H 0.33501 0.36242 0.57802 0.0
H606 H 0.2628 0.28524 0.51416 0.0
H607 H 0.28752 0.3136 0.53574 0.0
H608 H 0.28716 0.30612 0.62649 0.0
C609 C 0.3187 0.37247 0.65764 0.0
C610 C 0.32466 0.35028 0.58905 0.0
C611 C 0.31729 0.38754 0.66736 0.0
C612 C 0.27033 0.28434 0.53271 0.0
C613 C 0.28452 0.30053 0.54495 0.0
C614 C 0.29802 0.31827 0.61613 0.0
C615 C 0.32082 0.36997 0.62761 0.0
C616 C 0.3173 0.35173 0.61599 0.0
C617 C 0.2933 0.29995 0.57071 0.0
C618 C 0.30403 0.31711 0.588 0.0
H619 H 0.324 0.40967 0.60251 0.0
H620 H 0.32516 0.38289 0.58495 0.0
H621 H 0.29807 0.33562 0.65026 0.0
H622 H 0.27091 0.25344 0.58001 0.0
H623 H 0.29539 0.28201 0.60234 0.0
C624 C 0.62907 0.90633 0.71048 0.0
C625 C 0.61343 0.9082 0.71196 0.0
C626 C 0.6418 0.91458 0.688 0.0
C627 C 0.64689 0.93379 0.61369 0.0
H628 H 0.69891 0.95646 0.63054 0.0
C629 C 0.7015 0.97726 0.52832 0.0
C630 C 0.71647 0.97438 0.52523 0.0
C631 C 0.68938 0.96962 0.55168 0.0
C632 C 0.68443 0.95003 0.62543 0.0
H633 H 0.59894 0.92028 0.69093 0.0
H634 H 0.62125 0.93487 0.65191 0.0
H635 H 0.67678 0.94232 0.66999 0.0
H636 H 0.73066 0.96151 0.54474 0.0
H637 H 0.70942 0.94811 0.58561 0.0
H638 H 0.65453 0.94154 0.56917 0.0
C639 C 0.62356 0.92679 0.66791 0.0
C640 C 0.67173 0.9419 0.64803 0.0
C641 C 0.6108 0.9185 0.69039 0.0
C642 C 0.71927 0.964 0.54648 0.0
C643 C 0.70714 0.95638 0.56996 0.0
C644 C 0.65958 0.94194 0.59114 0.0
C645 C 0.63923 0.92494 0.66644 0.0
C646 C 0.65279 0.93368 0.64244 0.0
C647 C 0.69192 0.95892 0.57261 0.0
C648 C 0.6785 0.95019 0.59673 0.0
H649 H 0.6315 0.89842 0.72666 0.0
H650 H 0.65355 0.91262 0.68731 0.0
H651 H 0.63242 0.9273 0.60846 0.0
H652 H 0.69897 0.98525 0.51246 0.0
H653 H 0.67799 0.97211 0.55334 0.0
C654 C 0.04623 0.78339 0.48446 0.0
C655 C 0.03749 0.77227 0.45977 0.0
C656 C 0.05445 0.77778 0.50548 0.0
C657 C 0.05415 0.73652 0.53386 0.0
H658 H 0.10123 0.77221 0.56725 0.0
C659 C 0.09363 0.71518 0.613 0.0
C660 C 0.10162 0.72655 0.63775 0.0
C661 C 0.08662 0.72084 0.5901 0.0
C662 C 0.08801 0.7621 0.55833 0.0
H663 H 0.03048 0.74649 0.43788 0.0
H664 H 0.04486 0.73677 0.47443 0.0
H665 H 0.0871 0.78185 0.53008 0.0
H666 H 0.10885 0.75298 0.65748 0.0
H667 H 0.09652 0.76273 0.6178 0.0
H668 H 0.05496 0.71681 0.56229 0.0
C669 C 0.04523 0.74975 0.4777 0.0
C670 C 0.0799 0.76763 0.53704 0.0
C671 C 0.03706 0.75538 0.45666 0.0
C672 C 0.10281 0.74387 0.63875 0.0
C673 C 0.09582 0.74952 0.61588 0.0
C674 C 0.06225 0.73099 0.55518 0.0
C675 C 0.05406 0.7609 0.50233 0.0
C676 C 0.06283 0.75494 0.52465 0.0
C677 C 0.08747 0.73801 0.5914 0.0
C678 C 0.07923 0.74373 0.5678 0.0
H679 H 0.04679 0.79647 0.48757 0.0
H680 H 0.06092 0.78658 0.52438 0.0
H681 H 0.04088 0.72644 0.52505 0.0
H682 H 0.09254 0.70177 0.61149 0.0
H683 H 0.08051 0.71174 0.57137 0.0
C684 C 0.62579 0.67888 0.11644 0.0
C685 C 0.62704 0.67792 0.14695 0.0
C686 C 0.63996 0.68067 0.09852 0.0
C687 C 0.6882 0.70589 0.10299 0.0
H688 H 0.68579 0.68891 0.02306 0.0
C689 C 0.74178 0.75382 0.02242 0.0
C690 C 0.73463 0.75497 0.9953 0.0
C691 C 0.73171 0.7387 0.04049 0.0
C692 C 0.68673 0.69387 0.0453 0.0
H693 H 0.64322 0.6764 0.18253 0.0
H694 H 0.6684 0.68016 0.15113 0.0
H695 H 0.66063 0.67076 0.05656 0.0
H696 H 0.71195 0.74083 0.96489 0.0
H697 H 0.69382 0.71513 0.99693 0.0
H698 H 0.71308 0.72986 0.09153 0.0
C699 C 0.65633 0.67928 0.14113 0.0
C700 C 0.67241 0.68333 0.06454 0.0
C701 C 0.64194 0.67711 0.15905 0.0
C702 C 0.71776 0.74025 0.98574 0.0
C703 C 0.70744 0.72539 0.00414 0.0
C704 C 0.70229 0.71661 0.08368 0.0
C705 C 0.65578 0.68187 0.11087 0.0
C706 C 0.67269 0.68966 0.09319 0.0
C707 C 0.71397 0.72472 0.03226 0.0
C708 C 0.70137 0.71119 0.05415 0.0
H709 H 0.61436 0.67939 0.10658 0.0
H710 H 0.63923 0.68279 0.07531 0.0
H711 H 0.68868 0.71124 0.12486 0.0
H712 H 0.75494 0.76488 0.03002 0.0
H713 H 0.73754 0.73843 0.06147 0.0
C714 C 0.33522 0.94715 0.14218 0.0
C715 C 0.32735 0.92973 0.12848 0.0
C716 C 0.33838 0.96264 0.12633 0.0
C717 C 0.33708 0.9797 0.05143 0.0
H718 H 0.3134 0.00267 0.09234 0.0
C719 C 0.29824 0.02495 0.03542 0.0
C720 C 0.28781 0.01528 0.01078 0.0
C721 C 0.31174 0.02155 0.04625 0.0
C722 C 0.3206 0.99698 0.08058 0.0
H723 H 0.31816 0.9153 0.08675 0.0
H724 H 0.32328 0.94214 0.05939 0.0
H725 H 0.32148 0.98305 0.11876 0.0
H726 H 0.28432 0.99589 0.97641 0.0
H727 H 0.30717 0.98919 0.99591 0.0
H728 H 0.33535 0.99309 0.01282 0.0
C729 C 0.32718 0.94393 0.0823 0.0
C730 C 0.32522 0.98559 0.09589 0.0
C731 C 0.32408 0.92845 0.09811 0.0
C732 C 0.29234 0.00362 0.99533 0.0
C733 C 0.3055 -0.00019 0.00661 0.0
C734 C 0.33255 0.99125 0.03605 0.0
C735 C 0.33369 0.96105 0.09646 0.0
C736 C 0.33282 0.9762 0.08131 0.0
C737 C 0.31451 0.00786 0.03329 0.0
C738 C 0.32353 -0.00057 0.0502 0.0
H739 H 0.33818 0.94872 0.16544 0.0
H740 H 0.34373 0.97572 0.13777 0.0
H741 H 0.3432 0.97289 0.03967 0.0
H742 H 0.29498 0.03408 0.0476 0.0
H743 H 0.31887 0.02852 0.06622 0.0
C744 C 0.07194 0.39467 0.16925 0.0
C745 C 0.08647 0.40747 0.15192 0.0
C746 C 0.05701 0.37927 0.15632 0.0
C747 C 0.03507 0.35697 0.08514 0.0
H748 H 0.03175 0.31368 0.12073 0.0
C749 C 0.0218 0.29292 0.01951 0.0
C750 C 0.01544 0.27615 0.03402 0.0
C751 C 0.02366 0.30833 0.03464 0.0
C752 C 0.03192 0.32541 0.11072 0.0
H753 H 0.09579 0.41513 0.10726 0.0
H754 H 0.06993 0.3883 0.08486 0.0
H755 H 0.04715 0.34279 0.14668 0.0
H756 H 0.00401 0.26163 0.07446 0.0
H757 H 0.00631 0.2882 0.10043 0.0
H758 H 0.02035 0.33958 0.04862 0.0
C759 C 0.07001 0.3901 0.10839 0.0
C760 C 0.04085 0.34221 0.12572 0.0
C761 C 0.08496 0.40541 0.12129 0.0
C762 C 0.00926 0.27453 0.06294 0.0
C763 C 0.0107 0.2898 0.07785 0.0
C764 C 0.02593 0.34005 0.07018 0.0
C765 C 0.05628 0.37647 0.12583 0.0
C766 C 0.04316 0.3583 0.11265 0.0
C767 C 0.01887 0.30715 0.06442 0.0
C768 C 0.02489 0.32419 0.08231 0.0
H769 H 0.07258 0.39592 0.1929 0.0
H770 H 0.0465 0.36908 0.17028 0.0
H771 H 0.03647 0.36913 0.07468 0.0
H772 H 0.02668 0.29452 0.9972 0.0
H773 H 0.03011 0.32142 0.02351 0.0
C774 C 0.67955 0.6041 0.34912 0.0
C775 C 0.68085 0.60136 0.31903 0.0
C776 C 0.68072 0.62035 0.35944 0.0
C777 C 0.70541 0.66814 0.34032 0.0
H778 H 0.68353 0.67411 0.41115 0.0
C779 C 0.74354 0.73521 0.40515 0.0
C780 C 0.74497 0.73277 0.43522 0.0
C781 C 0.73003 0.72096 0.38805 0.0
C782 C 0.68979 0.67272 0.39134 0.0
H783 H 0.68283 0.61281 0.27593 0.0
H784 H 0.6852 0.64147 0.29408 0.0
H785 H 0.66892 0.64442 0.38542 0.0
H786 H 0.73255 0.71404 0.4714 0.0
H787 H 0.70957 0.68895 0.44157 0.0
H788 H 0.727 0.69572 0.34716 0.0
C789 C 0.68327 0.63098 0.30963 0.0
C790 C 0.68134 0.65574 0.37652 0.0
C791 C 0.68185 0.61456 0.29925 0.0
C792 C 0.7318 0.71632 0.44826 0.0
C793 C 0.7185 0.70194 0.43108 0.0
C794 C 0.71394 0.685 0.35525 0.0
C795 C 0.68343 0.63432 0.33991 0.0
C796 C 0.68947 0.65309 0.35148 0.0
C797 C 0.71791 0.70381 0.40054 0.0
C798 C 0.70665 0.68731 0.38162 0.0
H799 H 0.67858 0.59407 0.36487 0.0
H800 H 0.68093 0.62253 0.38288 0.0
H801 H 0.71215 0.66649 0.3213 0.0
H802 H 0.75331 0.74788 0.39459 0.0
H803 H 0.72967 0.72312 0.36479 0.0
C804 C 0.29739 0.02219 0.50479 0.0
C805 C 0.28006 0.01773 0.4941 0.0
C806 C 0.31117 0.0244 0.48539 0.0
C807 C 0.32268 0.03604 0.40732 0.0
H808 H 0.36716 0.0364 0.43004 0.0
C809 C 0.38584 0.07198 0.33573 0.0
C810 C 0.40033 0.08663 0.35119 0.0
C811 C 0.37147 0.05754 0.3508 0.0
C812 C 0.35472 0.03615 0.42328 0.0
H813 H 0.26275 0.01028 0.45562 0.0
H814 H 0.28624 0.0127 0.42193 0.0
H815 H 0.33997 0.02089 0.46089 0.0
H816 H 0.41213 0.0965 0.39439 0.0
H817 H 0.3871 0.07126 0.42057 0.0
H818 H 0.33747 0.05148 0.37005 0.0
C819 C 0.2897 0.01553 0.44494 0.0
C820 C 0.33917 0.02741 0.44104 0.0
C821 C 0.27614 0.01392 0.46421 0.0
C822 C 0.40106 0.08555 0.38183 0.0
C823 C 0.38679 0.071 0.39686 0.0
C824 C 0.33804 0.04441 0.3894 0.0
C825 C 0.3077 0.02176 0.45501 0.0
C826 C 0.32312 0.02783 0.43383 0.0
C827 C 0.37145 0.05735 0.38155 0.0
C828 C 0.3544 0.04511 0.39766 0.0
H829 H 0.30069 0.02532 0.52782 0.0
H830 H 0.32481 0.02937 0.49415 0.0
H831 H 0.31087 0.03712 0.40108 0.0
H832 H 0.38489 0.0723 0.31212 0.0
H833 H 0.35987 0.04707 0.33848 0.0
C834 C 0.95221 0.3262 0.38446 0.0
C835 C 0.9511 0.32366 0.35401 0.0
C836 C 0.96366 0.32221 0.40108 0.0
C837 C 0.9973 0.305 0.39567 0.0
H838 H 0.97277 0.28005 0.46686 0.0
C839 C 0.99773 0.24241 0.44708 0.0
C840 C 0.99807 0.24158 0.47782 0.0
C841 C 0.99805 0.25741 0.43339 0.0
C842 C 0.98002 0.28726 0.44735 0.0
H843 H 0.96169 0.31596 0.31672 0.0
H844 H 0.98077 0.30782 0.34561 0.0
H845 H 0.96193 0.2976 0.44059 0.0
H846 H 0.0006 0.25667 0.5181 0.0
H847 H 0.00081 0.2826 0.49412 0.0
H848 H 0.01439 0.29302 0.40171 0.0
C849 C 0.97347 0.31357 0.3569 0.0
C850 C 0.97388 0.2975 0.43222 0.0
C851 C 0.96246 0.31817 0.34021 0.0
C852 C 0.00018 0.25675 0.4944 0.0
C853 C 0.00028 0.27162 0.48072 0.0
C854 C 0.0032 0.29437 0.41058 0.0
C855 C 0.97366 0.31481 0.38772 0.0
C856 C 0.98216 0.30625 0.4058 0.0
C857 C 0.99854 0.27176 0.45017 0.0
C858 C 0.99439 0.28516 0.4363 0.0
H859 H 0.94366 0.3306 0.39551 0.0
H860 H 0.96393 0.32408 0.42459 0.0
H861 H 0.00432 0.31181 0.3758 0.0
H862 H 0.99625 0.23104 0.43363 0.0
H863 H 0.99661 0.25714 0.40979 0.0
C864 C 0.03309 0.61239 0.16714 0.0
C865 C 0.05062 0.62685 0.1749 0.0
C866 C 0.01878 0.60561 0.18727 0.0
C867 C 0.00424 0.61826 0.25593 0.0
H868 H 0.96754 0.56634 0.25553 0.0
C869 C 0.93665 0.59056 0.32015 0.0
C870 C 0.92979 0.57349 0.33401 0.0
C871 C 0.95142 0.59682 0.30086 0.0
C872 C 0.97774 0.58086 0.25619 0.0
H873 H 0.06698 0.64523 0.21022 0.0
H874 H 0.04206 0.63307 0.24569 0.0
H875 H 0.99382 0.57741 0.2233 0.0
H876 H 0.93304 0.54955 0.33839 0.0
H877 H 0.95898 0.56061 0.30535 0.0
H878 H 0.98844 0.6216 0.28949 0.0
C879 C 0.03928 0.62724 0.22377 0.0
C880 C 0.99273 0.58726 0.23739 0.0
C881 C 0.05361 0.63414 0.20351 0.0
C882 C 0.93791 0.56273 0.32793 0.0
C883 C 0.95276 0.56904 0.30885 0.0
C884 C 0.98931 0.61183 0.2749 0.0
C885 C 0.02163 0.61299 0.21581 0.0
C886 C 0.00611 0.60607 0.23683 0.0
C887 C 0.95978 0.58622 0.29515 0.0
C888 C 0.97579 0.59306 0.27515 0.0
H889 H 0.03027 0.60651 0.14524 0.0
H890 H 0.00534 0.59485 0.18015 0.0
H891 H 0.01415 0.63286 0.2559 0.0
H892 H 0.93066 0.59915 0.32425 0.0
H893 H 0.95622 0.60995 0.29031 0.0
C894 C 0.39934 0.35524 0.30302 0.0
C895 C 0.41471 0.36629 0.32075 0.0
C896 C 0.39364 0.36317 0.28168 0.0
C897 C 0.40911 0.40562 0.23837 0.0
H898 H 0.35695 0.387 0.22962 0.0
C899 C 0.37992 0.44212 0.16766 0.0
C900 C 0.36452 0.43078 0.15013 0.0
C901 C 0.38628 0.43443 0.18841 0.0
C902 C 0.37156 0.39225 0.23156 0.0
H903 H 0.43635 0.39435 0.32957 0.0
H904 H 0.42629 0.40818 0.29259 0.0
H905 H 0.36776 0.37318 0.26534 0.0
H906 H 0.34376 0.40244 0.14072 0.0
H907 H 0.35488 0.38909 0.17672 0.0
H908 H 0.41286 0.42476 0.20463 0.0
C909 C 0.41874 0.39335 0.29494 0.0
C910 C 0.37776 0.38429 0.25202 0.0
C911 C 0.42446 0.38542 0.31627 0.0
C912 C 0.35562 0.4116 0.1539 0.0
C913 C 0.36194 0.40393 0.17467 0.0
C914 C 0.4029 0.4136 0.21792 0.0
C915 C 0.40315 0.38234 0.27756 0.0
C916 C 0.39661 0.39084 0.25565 0.0
C917 C 0.37735 0.41524 0.19217 0.0
C918 C 0.38404 0.40698 0.21422 0.0
H919 H 0.39157 0.34045 0.30576 0.0
H920 H 0.38176 0.35423 0.26836 0.0
H921 H 0.42371 0.41085 0.24031 0.0
H922 H 0.38709 0.45695 0.16534 0.0
H923 H 0.39807 0.44354 0.20176 0.0
C924 C 0.59984 0.93397 0.23706 0.0
C925 C 0.5915 0.9339 0.21042 0.0
C926 C 0.6158 0.9499 0.24644 0.0
C927 C 0.63315 0.98941 0.26878 0.0
H928 H 0.67032 0.02624 0.2187 0.0
C929 C 0.66121 0.06898 0.24482 0.0
C930 C 0.6603 0.07467 0.27336 0.0
C931 C 0.66102 0.0524 0.24002 0.0
C932 C 0.66008 0.01613 0.23308 0.0
H933 H 0.59422 0.94938 0.17123 0.0
H934 H 0.622 0.97692 0.18724 0.0
H935 H 0.65466 0.99383 0.20375 0.0
H936 H 0.66014 0.06875 0.31934 0.0
H937 H 0.66084 0.0403 0.31122 0.0
H938 H 0.63715 0.0115 0.29683 0.0
C939 C 0.61637 0.9649 0.20109 0.0
C940 C 0.65122 0.99755 0.22459 0.0
C941 C 0.60034 0.94917 0.19199 0.0
C942 C 0.66089 0.06454 0.29713 0.0
C943 C 0.66108 0.04817 0.2924 0.0
C944 C 0.64184 0.00794 0.27711 0.0
C945 C 0.62374 0.9658 0.22905 0.0
C946 C 0.637 0.98413 0.24167 0.0
C947 C 0.66006 0.04132 0.26377 0.0
C948 C 0.65475 0.02167 0.25865 0.0
H949 H 0.59324 0.92235 0.25167 0.0
H950 H 0.62125 0.95018 0.26804 0.0
H951 H 0.62215 0.97946 0.28234 0.0
H952 H 0.66051 0.07652 0.22621 0.0
H953 H 0.66005 0.04761 0.21766 0.0
C954 C 0.35478 0.96153 0.66492 0.0
C955 C 0.35542 0.9492 0.68491 0.0
C956 C 0.35502 0.97744 0.67493 0.0
C957 C 0.35318 0.00249 0.74155 0.0
H958 H 0.39585 0.04368 0.70707 0.0
C959 C 0.40464 0.06523 0.8074 0.0
C960 C 0.417 0.08145 0.7929 0.0
C961 C 0.39055 0.05052 0.79185 0.0
C962 C 0.38355 0.03259 0.71661 0.0
H963 H 0.35484 0.94296 0.73104 0.0
H964 H 0.35542 0.9707 0.74838 0.0
H965 H 0.3819 0.01391 0.68316 0.0
H966 H 0.42288 0.09597 0.75178 0.0
H967 H 0.39779 0.07064 0.72491 0.0
H968 H 0.35535 0.02112 0.77573 0.0
C969 C 0.35473 0.96812 0.72501 0.0
C970 C 0.37553 0.01539 0.70279 0.0
C971 C 0.35459 0.95228 0.71504 0.0
C972 C 0.41376 0.08346 0.76338 0.0
C973 C 0.39943 0.06889 0.74796 0.0
C974 C 0.36109 0.0198 0.75527 0.0
C975 C 0.35577 0.98127 0.70508 0.0
C976 C 0.36082 -2e-05 0.7158 0.0
C977 C 0.38835 0.05185 0.76156 0.0
C978 C 0.37696 0.03487 0.74371 0.0
H979 H 0.35522 0.95949 0.64155 0.0
H980 H 0.35561 0.98724 0.65907 0.0
H981 H 0.34165 0.99088 0.75184 0.0
H982 H 0.40676 0.06327 0.83017 0.0
H983 H 0.38242 0.03765 0.80319 0.0
C984 C 0.04051 0.40761 0.69837 0.0
C985 C 0.05699 0.42131 0.71101 0.0
C986 C 0.02669 0.39431 0.7159 0.0
C987 C 0.9992 0.36522 0.75639 0.0
H988 H 0.99315 0.3875 0.82708 0.0
C989 C 0.93035 0.3503 0.80248 0.0
C990 C 0.92826 0.35163 0.83276 0.0
C991 C 0.9468 0.35283 0.79119 0.0
C992 C 0.9948 0.38081 0.80787 0.0
H993 H 0.07273 0.43069 0.75136 0.0
H994 H 0.04897 0.40711 0.78173 0.0
H995 H 0.02148 0.40352 0.79999 0.0
H996 H 0.9412 0.35522 0.87518 0.0
H997 H 0.97027 0.36 0.85532 0.0
H998 H 0.97178 0.34312 0.76345 0.0
C999 C 0.04635 0.40702 0.75851 0.0
C1000 C 0.01112 0.39002 0.79222 0.0
C1001 C 0.06002 0.42049 0.74107 0.0
C1002 C 0.94246 0.35414 0.85174 0.0
C1003 C 0.9591 0.35695 0.84038 0.0
C1004 C 0.98277 0.35609 0.77195 0.0
C1005 C 0.02919 0.39426 0.7464 0.0
C1006 C 0.01331 0.38268 0.76569 0.0
C1007 C 0.96163 0.35697 0.80992 0.0
C1008 C 0.98017 0.36412 0.79729 0.0
H1009 H 0.03777 0.40789 0.67526 0.0
H1010 H 0.01365 0.38486 0.70571 0.0
H1011 H 0.00055 0.35894 0.73644 0.0
H1012 H 0.91955 0.34821 0.78735 0.0
H1013 H 0.94833 0.3529 0.76764 0.0
C1014 C 0.6907 0.61159 0.78688 0.0
C1015 C 0.67854 0.59284 0.78075 0.0
C1016 C 0.69118 0.62523 0.76883 0.0
C1017 C 0.67665 0.64896 0.74529 0.0
H1018 H 0.65707 0.6382 0.66626 0.0
C1019 C 0.622 0.66437 0.70841 0.0
C1020 C 0.6186 0.66556 0.67864 0.0
C1021 C 0.63668 0.66226 0.71705 0.0
C1022 C 0.66298 0.64185 0.68803 0.0
H1023 H 0.65846 0.57375 0.74946 0.0
H1024 H 0.65872 0.5972 0.71899 0.0
H1025 H 0.67085 0.6213 0.68637 0.0
H1026 H 0.62905 0.66728 0.63472 0.0
H1027 H 0.65501 0.66386 0.6499 0.0
H1028 H 0.66886 0.66957 0.74688 0.0
C1029 C 0.66823 0.60162 0.73724 0.0
C1030 C 0.67063 0.63188 0.69981 0.0
C1031 C 0.66795 0.58804 0.75499 0.0
C1032 C 0.6312 0.66623 0.65783 0.0
C1033 C 0.64601 0.66414 0.66653 0.0
C1034 C 0.66935 0.65919 0.73331 0.0
C1035 C 0.67933 0.62042 0.74448 0.0
C1036 C 0.67643 0.63445 0.72925 0.0
C1037 C 0.64849 0.66138 0.69618 0.0
C1038 C 0.66129 0.6549 0.70525 0.0
H1039 H 0.69927 0.61578 0.80633 0.0
H1040 H 0.70027 0.63953 0.77473 0.0
H1041 H 0.68105 0.65155 0.76795 0.0
H1042 H 0.61272 0.66404 0.7251 0.0
H1043 H 0.63789 0.66 0.74004 0.0
C1044 C 0.23722 0.06748 0.00265 0.0
C1045 C 0.24167 0.0578 0.02286 0.0
C1046 C 0.2376 0.08376 0.01112 0.0
C1047 C 0.23485 0.10711 0.07848 0.0
H1048 H 0.24618 0.14746 0.02603 0.0
C1049 C 0.24147 0.18374 0.08046 0.0
C1050 C 0.22585 0.17946 0.0972 0.0
C1051 C 0.24508 0.16987 0.07158 0.0
C1052 C 0.24319 0.13642 0.04109 0.0
H1053 H 0.25132 0.05824 0.06704 0.0
H1054 H 0.25265 0.08683 0.08143 0.0
H1055 H 0.25057 0.12217 0.00968 0.0
H1056 H 0.20179 0.15717 0.11765 0.0
H1057 H 0.20787 0.13311 0.10179 0.0
H1058 H 0.22786 0.12143 0.11009 0.0
C1059 C 0.24816 0.08158 0.05941 0.0
C1060 C 0.24548 0.1218 0.03157 0.0
C1061 C 0.2475 0.06523 0.05112 0.0
C1062 C 0.21403 0.16103 0.10501 0.0
C1063 C 0.21757 0.1472 0.096 0.0
C1064 C 0.23269 0.12174 0.08803 0.0
C1065 C 0.24268 0.09077 0.03985 0.0
C1066 C 0.24119 0.10687 0.05008 0.0
C1067 C 0.23312 0.15141 0.07915 0.0
C1068 C 0.23659 0.13647 0.06936 0.0
H1069 H 0.23264 0.06205 0.98073 0.0
H1070 H 0.23317 0.09038 0.99551 0.0
H1071 H 0.23111 0.09576 0.09325 0.0
H1072 H 0.25089 0.19779 0.07409 0.0
H1073 H 0.2573 0.17363 0.05893 0.0
C1074 C 0.96204 0.18685 0.03307 0.0
C1075 C 0.96996 0.191 0.00511 0.0
C1076 C 0.94422 0.17236 0.03696 0.0
C1077 C 0.90096 0.13933 0.99819 0.0
H1078 H 0.89372 0.1112 0.06875 0.0
C1079 C 0.84604 0.06496 0.0532 0.0
C1080 C 0.82928 0.0639 0.04635 0.0
C1081 C 0.86265 0.08077 0.04704 0.0
C1082 C 0.89548 0.11873 0.04877 0.0
H1083 H 0.96517 0.18355 0.9591 0.0
H1084 H 0.93405 0.15757 0.96605 0.0
H1085 H 0.92344 0.13766 0.05917 0.0
H1086 H 0.81689 0.07872 0.02749 0.0
H1087 H 0.84603 0.1067 0.01754 0.0
H1088 H 0.87302 0.11968 0.98731 0.0
C1089 C 0.94156 0.16582 0.9849 0.0
C1090 C 0.91253 0.13418 0.04347 0.0
C1091 C 0.95941 0.18063 0.98093 0.0
C1092 C 0.82956 0.0791 0.03309 0.0
C1093 C 0.84627 0.09508 0.02718 0.0
C1094 C 0.88385 0.12367 0.00339 0.0
C1095 C 0.93387 0.16131 0.01312 0.0
C1096 C 0.91553 0.14476 0.0182 0.0
C1097 C 0.86303 0.09613 0.03421 0.0
C1098 C 0.88093 0.11313 0.02871 0.0
H1099 H 0.96966 0.19483 0.05208 0.0
H1100 H 0.93861 0.16974 0.05888 0.0
H1101 H 0.90271 0.14722 0.97863 0.0
H1102 H 0.84641 0.05344 0.063 0.0
H1103 H 0.87522 0.08083 0.0521 0.0
C1104 C 0.81492 0.79756 0.93173 0.0
C1105 C 0.81258 0.81082 0.94706 0.0
C1106 C 0.83137 0.79737 0.93402 0.0
C1107 C 0.87231 0.81443 0.98251 0.0
H1108 H 0.89159 0.79924 0.91779 0.0
C1109 C 0.94449 0.82191 0.98249 0.0
C1110 C 0.94543 0.80652 0.97254 0.0
C1111 C 0.92815 0.82229 0.98004 0.0
C1112 C 0.88627 0.80338 0.9361 0.0
H1113 H 0.826 0.83487 0.97554 0.0
H1114 H 0.85483 0.83499 0.97861 0.0
H1115 H 0.86379 0.80093 0.91079 0.0
H1116 H 0.92993 0.77935 0.95258 0.0
H1117 H 0.90148 0.78012 0.94805 0.0
H1118 H 0.89511 0.81727 0.00754 0.0
C1119 C 0.84379 0.8243 0.96568 0.0
C1120 C 0.87031 0.80431 0.93215 0.0
C1121 C 0.82729 0.82433 0.96372 0.0
C1122 C 0.92964 0.79139 0.96053 0.0
C1123 C 0.91339 0.79187 0.95772 0.0
C1124 C 0.88838 0.81373 0.98633 0.0
C1125 C 0.84594 0.81059 0.95139 0.0
C1126 C 0.86309 0.80982 0.95532 0.0
C1127 C 0.91253 0.80738 0.96722 0.0
C1128 C 0.89548 0.80814 0.9632 0.0
H1129 H 0.80379 0.78689 0.91887 0.0
H1130 H 0.83241 0.78647 0.92294 0.0
H1131 H 0.86697 0.81834 0.00108 0.0
H1132 H 0.95644 0.83377 0.99183 0.0
H1133 H 0.92786 0.83444 0.98743 0.0
C1134 C 0.15426 0.17895 0.51028 0.0
C1135 C 0.16788 0.19215 0.52889 0.0
C1136 C 0.13658 0.17663 0.51007 0.0
C1137 C 0.10487 0.18551 0.55387 0.0
H1138 H 0.08381 0.18657 0.47899 0.0
C1139 C 0.04371 0.19819 0.54506 0.0
C1140 C 0.03053 0.18868 0.52306 0.0
C1141 C 0.05987 0.19735 0.5461 0.0
C1142 C 0.08931 0.18595 0.5001 0.0
H1143 H 0.17351 0.21275 0.56257 0.0
H1144 H 0.14283 0.20859 0.56237 0.0
H1145 H 0.1125 0.18615 0.48051 0.0
H1146 H 0.02396 0.17059 0.48515 0.0
H1147 H 0.05181 0.16883 0.48738 0.0
H1148 H 0.08175 0.1853 0.57355 0.0
C1149 C 0.14571 0.20005 0.54791 0.0
C1150 C 0.10577 0.1857 0.50093 0.0
C1151 C 0.16334 0.20252 0.54786 0.0
C1152 C 0.03386 0.17823 0.50229 0.0
C1153 C 0.04992 0.17729 0.50346 0.0
C1154 C 0.08835 0.18561 0.55306 0.0
C1155 C 0.13218 0.18725 0.5288 0.0
C1156 C 0.11385 0.18573 0.52783 0.0
C1157 C 0.06319 0.18688 0.5253 0.0
C1158 C 0.08046 0.18607 0.52617 0.0
H1159 H 0.15738 0.1708 0.49538 0.0
H1160 H 0.12637 0.16659 0.49521 0.0
H1161 H 0.11067 0.18531 0.57494 0.0
H1162 H 0.04164 0.20643 0.56133 0.0
H1163 H 0.06989 0.20516 0.56298 0.0
C1164 C 0.79632 0.83037 0.45885 0.0
C1165 C 0.78762 0.81696 0.48053 0.0
C1166 C 0.79367 0.84545 0.45729 0.0
C1167 C 0.76168 0.8614 0.47692 0.0
H1168 H 0.80299 0.90892 0.45651 0.0
C1169 C 0.75805 0.9288 0.46244 0.0
C1170 C 0.76742 0.9394 0.43793 0.0
C1171 C 0.75959 0.9135 0.47024 0.0
C1172 C 0.79129 0.89572 0.46208 0.0
H1173 H 0.76932 0.80906 0.51776 0.0
H1174 H 0.76471 0.83562 0.515 0.0
H1175 H 0.80795 0.88334 0.46678 0.0
H1176 H 0.78511 0.94163 0.40173 0.0
H1177 H 0.78769 0.91514 0.41527 0.0
H1178 H 0.74503 0.87393 0.47184 0.0
C1179 C 0.77353 0.83428 0.49914 0.0
C1180 C 0.79413 0.88107 0.46798 0.0
C1181 C 0.77626 0.81914 0.50082 0.0
C1182 C 0.7778 0.93395 0.42088 0.0
C1183 C 0.7794 0.9188 0.42874 0.0
C1184 C 0.75884 0.87616 0.47108 0.0
C1185 C 0.78223 0.8476 0.47734 0.0
C1186 C 0.77932 0.8636 0.47472 0.0
C1187 C 0.77063 0.90862 0.45381 0.0
C1188 C 0.77358 0.89334 0.46285 0.0
H1189 H 0.80514 0.8292 0.44281 0.0
H1190 H 0.80034 0.85527 0.43991 0.0
H1191 H 0.74997 0.84809 0.48193 0.0
H1192 H 0.74992 0.93258 0.47606 0.0
H1193 H 0.75266 0.90589 0.48967 0.0
C1194 C 0.07564 0.86123 0.42775 0.0
C1195 C 0.06456 0.86368 0.40737 0.0
C1196 C 0.09205 0.87626 0.43777 0.0
C1197 C 0.11556 0.92696 0.44552 0.0
H1198 H 0.15816 0.92212 0.46096 0.0
C1199 C 0.18578 0.9885 0.48203 0.0
C1200 C 0.19481 0.98504 0.50486 0.0
C1201 C 0.17018 0.97402 0.4687 0.0
C1202 C 0.14633 0.92365 0.45694 0.0
H1203 H 0.06238 0.88389 0.38096 0.0
H1204 H 0.09112 0.91002 0.3981 0.0
H1205 H 0.13067 0.89622 0.43973 0.0
H1206 H 0.1944 0.96355 0.53159 0.0
H1207 H 0.16727 0.93845 0.50845 0.0
H1208 H 0.13128 0.95441 0.46282 0.0
C1209 C 0.08694 0.89651 0.40676 0.0
C1210 C 0.13056 0.9088 0.44481 0.0
C1211 C 0.07049 0.88149 0.3968 0.0
C1212 C 0.18784 0.96677 0.51406 0.0
C1213 C 0.17234 0.95233 0.50065 0.0
C1214 C 0.13137 0.94185 0.45756 0.0
C1215 C 0.09783 0.89412 0.42758 0.0
C1216 C 0.11492 0.9102 0.43921 0.0
C1217 C 0.16336 0.95576 0.47778 0.0
C1218 C 0.14686 0.94029 0.46368 0.0
H1219 H 0.07148 0.84774 0.43646 0.0
H1220 H 0.09997 0.87394 0.45409 0.0
H1221 H 0.10368 0.92845 0.4419 0.0
H1222 H 0.19077 0.00239 0.47437 0.0
H1223 H 0.16362 0.97708 0.45098 0.0
C1224 C 0.79987 0.97907 0.99247 0.0
C1225 C 0.78622 0.98391 0.98977 0.0
C1226 C 0.79915 0.96484 0.97545 0.0
C1227 C 0.76399 0.92144 0.94633 0.0
H1228 H 0.80496 0.91633 0.9199 0.0
C1229 C 0.76261 0.85277 0.94936 0.0
C1230 C 0.76757 0.84699 0.92376 0.0
C1231 C 0.76563 0.87066 0.95185 0.0
C1232 C 0.79337 0.91762 0.92687 0.0
H1233 H 0.76204 0.97881 0.96534 0.0
H1234 H 0.76065 0.95367 0.93569 0.0
H1235 H 0.80952 0.94706 0.93059 0.0
H1236 H 0.78022 0.85561 0.88113 0.0
H1237 H 0.7859 0.88718 0.88589 0.0
H1238 H 0.74804 0.89202 0.94394 0.0
C1239 C 0.77187 0.9609 0.95108 0.0
C1240 C 0.79597 0.93515 0.93302 0.0
C1241 C 0.77273 0.97534 0.96792 0.0
C1242 C 0.77623 0.85968 0.90111 0.0
C1243 C 0.77949 0.87771 0.9038 0.0
C1244 C 0.76145 0.90397 0.94053 0.0
C1245 C 0.78466 0.95504 0.95557 0.0
C1246 C 0.78139 0.93718 0.9435 0.0
C1247 C 0.77386 0.88321 0.92896 0.0
C1248 C 0.77622 0.90187 0.93152 0.0
H1249 H 0.81054 0.98557 0.00897 0.0
H1250 H 0.80915 0.9606 0.97954 0.0
H1251 H 0.75254 0.92251 0.95471 0.0
H1252 H 0.75588 0.84333 0.96717 0.0
H1253 H 0.76142 0.87467 0.97168 0.0
C1254 C 0.18444 0.96482 0.02091 0.0
C1255 C 0.18641 0.97716 0.99871 0.0
C1256 C 0.16705 0.95048 0.02847 0.0
C1257 C 0.11721 0.93293 0.02006 0.0
H1258 H 0.11343 0.8849 0.01843 0.0
C1259 C 0.05919 0.85372 0.99198 0.0
C1260 C 0.04432 0.85238 0.00788 0.0
C1261 C 0.07683 0.86874 0.99635 0.0
C1262 C 0.11427 0.89822 0.019 0.0
H1263 H 0.17169 0.98499 0.96854 0.0
H1264 H 0.14143 0.96009 0.98177 0.0
H1265 H 0.14358 0.91267 0.01732 0.0
H1266 H 0.03643 0.86534 0.04175 0.0
H1267 H 0.06718 0.89146 0.04936 0.0
H1268 H 0.0879 0.91848 0.02047 0.0
C1269 C 0.15326 0.96143 0.99336 0.0
C1270 C 0.13154 0.91412 0.01873 0.0
C1271 C 0.17062 0.97567 0.98568 0.0
C1272 C 0.04756 0.86603 0.02893 0.0
C1273 C 0.06516 0.88104 0.03325 0.0
C1274 C 0.09996 0.91703 0.02045 0.0
C1275 C 0.15133 0.94833 0.01415 0.0
C1276 C 0.13317 0.93164 0.01862 0.0
C1277 C 0.07994 0.88272 0.01668 0.0
C1278 C 0.09829 0.8995 0.0193 0.0
H1279 H 0.19636 0.96563 0.03138 0.0
H1280 H 0.16594 0.94072 0.04485 0.0
H1281 H 0.11805 0.94624 0.02019 0.0
H1282 H 0.05715 0.84342 0.97564 0.0
H1283 H 0.0879 0.86974 0.98303 0.0
C1284 C 0.17574 0.22213 0.02848 0.0
C1285 C 0.17491 0.20833 0.04664 0.0
C1286 C 0.16006 0.21931 0.01338 0.0
C1287 C 0.11046 0.19287 0.02454 0.0
H1288 H 0.10881 0.21698 0.95359 0.0
C1289 C 0.05729 0.20873 0.95479 0.0
C1290 C 0.05144 0.21574 0.97787 0.0
C1291 C 0.07069 0.20386 0.95958 0.0
C1292 C 0.10895 0.2099 0.9732 0.0
H1293 H 0.15785 0.18009 0.06055 0.0
H1294 H 0.13077 0.17495 0.03349 0.0
H1295 H 0.13633 0.2155 0.9653 0.0
H1296 H 0.05448 0.22229 0.02429 0.0
H1297 H 0.07761 0.21366 0.03268 0.0
H1298 H 0.0833 0.18764 0.03281 0.0
C1299 C 0.14323 0.18817 0.03168 0.0
C1300 C 0.12478 0.20921 0.98004 0.0
C1301 C 0.15877 0.19106 0.04702 0.0
C1302 C 0.05859 0.21688 0.00607 0.0
C1303 C 0.07184 0.21187 0.0109 0.0
C1304 C 0.09471 0.19359 0.01774 0.0
C1305 C 0.14339 0.20258 0.016 0.0
C1306 C 0.12586 0.20105 0.00615 0.0
C1307 C 0.07835 0.20571 0.98759 0.0
C1308 C 0.09395 0.20254 0.99242 0.0
H1309 H 0.18799 0.23559 0.02789 0.0
H1310 H 0.16067 0.23073 0.00156 0.0
H1311 H 0.11084 0.18669 0.04504 0.0
H1312 H 0.05207 0.20771 0.93277 0.0
H1313 H 0.07532 0.19899 0.94127 0.0
C1314 C 0.97192 0.80525 0.4737 0.0
C1315 C 0.98082 0.82004 0.45431 0.0
C1316 C 0.9564 0.80258 0.48896 0.0
C1317 C 0.91632 0.79171 0.48928 0.0
H1318 H 0.90611 0.82917 0.51858 0.0
C1319 C 0.84464 0.78252 0.48262 0.0
C1320 C 0.8375 0.78577 0.5083 0.0
C1321 C 0.86316 0.78784 0.48094 0.0
C1322 C 0.90881 0.81855 0.51072 0.0
H1323 H 0.9818 0.8448 0.4384 0.0
H1324 H 0.95486 0.84015 0.46494 0.0
H1325 H 0.93795 0.83679 0.51104 0.0
H1326 H 0.84436 0.79793 0.55187 0.0
H1327 H 0.87696 0.80755 0.54864 0.0
H1328 H 0.88727 0.77367 0.48796 0.0
C1329 C 0.9597 0.83054 0.4683 0.0
C1330 C 0.92699 0.8229 0.50635 0.0
C1331 C 0.9751 0.83314 0.45291 0.0
C1332 C 0.84947 0.79523 0.53179 0.0
C1333 C 0.8681 0.80074 0.52997 0.0
C1334 C 0.89823 0.78744 0.49336 0.0
C1335 C 0.94965 0.81474 0.4853 0.0
C1336 C 0.93089 0.80961 0.49499 0.0
C1337 C 0.87499 0.79666 0.50479 0.0
C1338 C 0.89428 0.80092 0.50341 0.0
H1339 H 0.97604 0.79496 0.47537 0.0
H1340 H 0.94906 0.79041 0.50229 0.0
H1341 H 0.91881 0.78122 0.48014 0.0
H1342 H 0.83581 0.77526 0.46413 0.0
H1343 H 0.8682 0.7848 0.46107 0.0
C1344 C 0.22302 0.1674 0.54133 0.0
C1345 C 0.22673 0.16679 0.51151 0.0
C1346 C 0.21545 0.15126 0.55795 0.0
C1347 C 0.19597 0.10017 0.55298 0.0
H1348 H 0.23233 0.109 0.61252 0.0
C1349 C 0.23999 0.06599 0.58316 0.0
C1350 C 0.22714 0.04748 0.58856 0.0
C1351 C 0.23478 0.07932 0.58354 0.0
C1352 C 0.22178 0.10627 0.59645 0.0
H1353 H 0.22367 0.14887 0.47493 0.0
H1354 H 0.21025 0.12087 0.50345 0.0
H1355 H 0.23002 0.13478 0.59352 0.0
H1356 H 0.19882 0.02833 0.59924 0.0
H1357 H 0.1894 0.05181 0.59873 0.0
H1358 H 0.18886 0.07181 0.55428 0.0
C1359 C 0.21318 0.1336 0.51432 0.0
C1360 C 0.22034 0.12102 0.58569 0.0
C1361 C 0.22102 0.14968 0.49795 0.0
C1362 C 0.20898 0.04256 0.59517 0.0
C1363 C 0.20362 0.05593 0.59483 0.0
C1364 C 0.19734 0.08537 0.5639 0.0
C1365 C 0.21118 0.13431 0.54477 0.0
C1366 C 0.20818 0.11829 0.56259 0.0
C1367 C 0.21649 0.07442 0.58878 0.0
C1368 C 0.211 0.08849 0.58449 0.0
H1369 H 0.22737 0.18047 0.55227 0.0
H1370 H 0.21397 0.1522 0.58135 0.0
H1371 H 0.18632 0.09762 0.53541 0.0
H1372 H 0.25409 0.07014 0.57807 0.0
H1373 H 0.24494 0.09337 0.57831 0.0
C1374 C 0.94409 0.13872 0.51777 0.0
C1375 C 0.94864 0.14717 0.54555 0.0
C1376 C 0.92936 0.12077 0.51439 0.0
C1377 C 0.88487 0.09109 0.54367 0.0
H1378 H 0.88608 0.05259 0.49795 0.0
C1379 C 0.81786 0.02661 0.50563 0.0
C1380 C 0.81791 0.02171 0.47613 0.0
C1381 C 0.83433 0.03895 0.51987 0.0
C1382 C 0.88546 0.06321 0.51067 0.0
H1383 H 0.94174 0.1433 0.5917 0.0
H1384 H 0.91565 0.11211 0.58552 0.0
H1385 H 0.91474 0.08037 0.51112 0.0
H1386 H 0.83548 0.02536 0.43896 0.0
H1387 H 0.86364 0.04698 0.46312 0.0
H1388 H 0.85566 0.07476 0.54146 0.0
C1389 C 0.92364 0.11932 0.56653 0.0
C1390 C 0.90189 0.07904 0.51831 0.0
C1391 C 0.9386 0.13711 0.57001 0.0
C1392 C 0.83481 0.02881 0.46165 0.0
C1393 C 0.85112 0.04115 0.47571 0.0
C1394 C 0.86841 0.07542 0.53554 0.0
C1395 C 0.91874 0.11113 0.53863 0.0
C1396 C 0.9017 0.09329 0.53424 0.0
C1397 C 0.85114 0.04665 0.50485 0.0
C1398 C 0.86848 0.06154 0.51812 0.0
H1399 H 0.95158 0.1461 0.49856 0.0
H1400 H 0.92573 0.11475 0.49261 0.0
H1401 H 0.88441 0.10199 0.55585 0.0
H1402 H 0.8051 0.0213 0.51748 0.0
H1403 H 0.83385 0.04271 0.54246 0.0
C1404 C 0.87302 0.4673 0.42325 0.0
C1405 C 0.88258 0.48466 0.40996 0.0
C1406 C 0.87671 0.45332 0.41564 0.0
C1407 C 0.89547 0.43817 0.35583 0.0
H1408 H 0.89722 0.40607 0.41468 0.0
C1409 C 0.91354 0.38205 0.32658 0.0
C1410 C 0.9031 0.36483 0.34 0.0
C1411 C 0.91223 0.39726 0.33595 0.0
C1412 C 0.8966 0.4148 0.39794 0.0
H1413 H 0.90378 0.50095 0.3785 0.0
H1414 H 0.91022 0.47656 0.36536 0.0
H1415 H 0.89274 0.43152 0.4296 0.0
H1416 H 0.88318 0.35023 0.37406 0.0
H1417 H 0.88072 0.37663 0.39003 0.0
H1418 H 0.89903 0.42132 0.32412 0.0
C1419 C 0.89974 0.47374 0.38147 0.0
C1420 C 0.89405 0.4294 0.4065 0.0
C1421 C 0.8961 0.48775 0.38916 0.0
C1422 C 0.89149 0.36327 0.36326 0.0
C1423 C 0.89015 0.37846 0.37256 0.0
C1424 C 0.89796 0.42354 0.34725 0.0
C1425 C 0.89 0.45632 0.39449 0.0
C1426 C 0.89336 0.44119 0.38553 0.0
C1427 C 0.90042 0.39562 0.35892 0.0
C1428 C 0.89845 0.4116 0.36818 0.0
H1429 H 0.86251 0.46441 0.43935 0.0
H1430 H 0.86883 0.44 0.42585 0.0
H1431 H 0.89473 0.44683 0.33909 0.0
H1432 H 0.92269 0.38379 0.3087 0.0
H1433 H 0.92053 0.41033 0.32523 0.0
C1434 C 0.63956 0.50433 0.34264 0.0
C1435 C 0.64165 0.5137 0.31628 0.0
C1436 C 0.62239 0.49011 0.35111 0.0
C1437 C 0.57319 0.47242 0.34174 0.0
H1438 H 0.56875 0.42804 0.37507 0.0
C1439 C 0.50347 0.40927 0.37456 0.0
C1440 C 0.50333 0.39974 0.39983 0.0
C1441 C 0.51998 0.42354 0.36366 0.0
C1442 C 0.56977 0.44044 0.36617 0.0
H1443 H 0.62727 0.51531 0.27802 0.0
H1444 H 0.59716 0.49038 0.29297 0.0
H1445 H 0.5982 0.45168 0.35637 0.0
H1446 H 0.52035 0.39842 0.43429 0.0
H1447 H 0.54896 0.42347 0.41573 0.0
H1448 H 0.54478 0.46128 0.35197 0.0
C1449 C 0.60889 0.49418 0.30705 0.0
C1450 C 0.58665 0.45394 0.35534 0.0
C1451 C 0.62615 0.50835 0.29842 0.0
C1452 C 0.51996 0.40531 0.4146 0.0
C1453 C 0.5364 0.4196 0.40382 0.0
C1454 C 0.55628 0.45892 0.35273 0.0
C1455 C 0.60685 0.48495 0.33354 0.0
C1456 C 0.5886 0.47016 0.34329 0.0
C1457 C 0.53669 0.42863 0.37788 0.0
C1458 C 0.55444 0.44285 0.36538 0.0
H1459 H 0.65118 0.50806 0.35695 0.0
H1460 H 0.62122 0.4834 0.37179 0.0
H1461 H 0.57433 0.48487 0.33282 0.0
H1462 H 0.49091 0.40531 0.36258 0.0
H1463 H 0.51971 0.43013 0.34355 0.0
C1464 C 0.48499 0.12592 0.28417 0.0
C1465 C 0.48379 0.13851 0.30319 0.0
C1466 C 0.50127 0.12538 0.28213 0.0
C1467 C 0.54569 0.14093 0.32124 0.0
H1468 H 0.55951 0.1286 0.24716 0.0
C1469 C 0.61732 0.14968 0.29773 0.0
C1470 C 0.61714 0.13421 0.28529 0.0
C1471 C 0.60103 0.15013 0.30057 0.0
C1472 C 0.55575 0.13197 0.26801 0.0
H1473 H 0.49887 0.16075 0.33441 0.0
H1474 H 0.52741 0.16038 0.32996 0.0
H1475 H 0.53138 0.12999 0.25024 0.0
H1476 H 0.59981 0.10713 0.26601 0.0
H1477 H 0.57144 0.10814 0.27042 0.0
H1478 H 0.57052 0.14348 0.33859 0.0
C1479 C 0.51565 0.15043 0.31734 0.0
C1480 C 0.53956 0.13267 0.26988 0.0
C1481 C 0.49929 0.15075 0.31976 0.0
C1482 C 0.60037 0.11922 0.27578 0.0
C1483 C 0.58416 0.11982 0.27813 0.0
C1484 C 0.56203 0.14054 0.31921 0.0
C1485 C 0.51686 0.13764 0.29867 0.0
C1486 C 0.53424 0.13708 0.29657 0.0
C1487 C 0.58434 0.13528 0.29052 0.0
C1488 C 0.56716 0.13596 0.29262 0.0
H1489 H 0.47324 0.1162 0.27129 0.0
H1490 H 0.50149 0.1151 0.2679 0.0
H1491 H 0.54194 0.14401 0.34233 0.0
H1492 H 0.63004 0.16142 0.30529 0.0
H1493 H 0.60153 0.16225 0.31009 0.0
C1494 C 0.83538 0.54944 0.85846 0.0
C1495 C 0.84104 0.53916 0.84155 0.0
C1496 C 0.81714 0.54512 0.85832 0.0
C1497 C 0.77665 0.52652 0.81294 0.0
H1498 H 0.75361 0.5278 0.88571 0.0
C1499 C 0.70713 0.52585 0.81797 0.0
C1500 C 0.70701 0.53883 0.83761 0.0
C1501 C 0.7217 0.5223 0.81806 0.0
C1502 C 0.75984 0.52742 0.86517 0.0
H1503 H 0.83202 0.51613 0.81136 0.0
H1504 H 0.79979 0.50874 0.81053 0.0
H1505 H 0.78224 0.52728 0.88696 0.0
H1506 H 0.7223 0.55831 0.87257 0.0
H1507 H 0.74753 0.55226 0.87248 0.0
H1508 H 0.75464 0.52755 0.79115 0.0
C1509 C 0.80962 0.52005 0.82413 0.0
C1510 C 0.77617 0.52702 0.86591 0.0
C1511 C 0.82797 0.52421 0.8247 0.0
C1512 C 0.72182 0.54817 0.85718 0.0
C1513 C 0.73627 0.54458 0.85732 0.0
C1514 C 0.76028 0.527 0.81218 0.0
C1515 C 0.80408 0.53053 0.84096 0.0
C1516 C 0.78507 0.52719 0.83984 0.0
C1517 C 0.73637 0.53154 0.83792 0.0
C1518 C 0.75206 0.52812 0.83833 0.0
H1519 H 0.84512 0.56102 0.87174 0.0
H1520 H 0.81335 0.55359 0.87121 0.0
H1521 H 0.78329 0.52676 0.79252 0.0
H1522 H 0.69595 0.51839 0.8026 0.0
H1523 H 0.72137 0.51215 0.80287 0.0
C1524 C 0.47769 0.18052 0.81758 0.0
C1525 C 0.46782 0.16634 0.83765 0.0
C1526 C 0.47692 0.19672 0.81862 0.0
C1527 C 0.44837 0.21591 0.84119 0.0
H1528 H 0.49323 0.26239 0.82953 0.0
C1529 C 0.4516 0.28708 0.83461 0.0
C1530 C 0.46304 0.29887 0.81259 0.0
C1531 C 0.45148 0.27069 0.84089 0.0
C1532 C 0.48055 0.24952 0.83263 0.0
H1533 H 0.44935 0.15814 0.87467 0.0
H1534 H 0.44789 0.18663 0.87628 0.0
H1535 H 0.49463 0.23434 0.8356 0.0
H1536 H 0.48279 0.30219 0.77921 0.0
H1537 H 0.4824 0.27377 0.7899 0.0
H1538 H 0.43427 0.23115 0.83743 0.0
C1539 C 0.45625 0.18506 0.85979 0.0
C1540 C 0.48137 0.23346 0.8362 0.0
C1541 C 0.45717 0.16883 0.85895 0.0
C1542 C 0.47394 0.29361 0.79652 0.0
C1543 C 0.47382 0.27733 0.80279 0.0
C1544 C 0.44754 0.23205 0.83753 0.0
C1545 C 0.46617 0.19918 0.83964 0.0
C1546 C 0.46528 0.21641 0.83976 0.0
C1547 C 0.46284 0.26581 0.82533 0.0
C1548 C 0.4636 0.24895 0.83243 0.0
H1549 H 0.48606 0.17913 0.80089 0.0
H1550 H 0.48452 0.20722 0.80253 0.0
H1551 H 0.43573 0.20294 0.84378 0.0
H1552 H 0.44303 0.2907 0.84741 0.0
H1553 H 0.44287 0.26209 0.8584 0.0
C1554 C 0.73566 0.1953 0.71177 0.0
C1555 C 0.72661 0.17763 0.72402 0.0
C1556 C 0.75156 0.20942 0.72477 0.0
C1557 C 0.77397 0.22469 0.79584 0.0
H1558 H 0.81471 0.26048 0.74976 0.0
C1559 C 0.83596 0.29066 0.84614 0.0
C1560 C 0.84166 0.30683 0.83002 0.0
C1561 C 0.82313 0.27346 0.83428 0.0
C1562 C 0.8034 0.25064 0.76293 0.0
H1563 H 0.72749 0.16079 0.75907 0.0
H1564 H 0.75528 0.18561 0.78192 0.0
H1565 H 0.79053 0.23268 0.72617 0.0
H1566 H 0.83786 0.31758 0.78914 0.0
H1567 H 0.8155 0.2879 0.76892 0.0
H1568 H 0.78653 0.243 0.83242 0.0
C1569 C 0.74999 0.18846 0.76226 0.0
C1570 C 0.7896 0.23472 0.74943 0.0
C1571 C 0.73416 0.17425 0.74905 0.0
C1572 C 0.83397 0.30545 0.80213 0.0
C1573 C 0.82122 0.28837 0.79037 0.0
C1574 C 0.78777 0.24071 0.80937 0.0
C1575 C 0.7587 0.20624 0.75045 0.0
C1576 C 0.77451 0.2218 0.76557 0.0
C1577 C 0.81581 0.27215 0.80609 0.0
C1578 C 0.80237 0.25409 0.79286 0.0
H1579 H 0.73024 0.19837 0.69248 0.0
H1580 H 0.75787 0.22303 0.71533 0.0
H1581 H 0.76242 0.21501 0.80878 0.0
H1582 H 0.84163 0.29123 0.86766 0.0
H1583 H 0.81922 0.26119 0.84691 0.0
C1584 C 0.45186 0.19477 0.26643 0.0
C1585 C 0.4437 0.18164 0.28865 0.0
C1586 C 0.45495 0.21267 0.27046 0.0
C1587 C 0.4679 0.25213 0.29492 0.0
H1588 H 0.42634 0.25469 0.3257 0.0
C1589 C 0.47262 0.31341 0.35938 0.0
C1590 C 0.45845 0.31753 0.35662 0.0
C1591 C 0.47213 0.29896 0.34333 0.0
C1592 C 0.43797 0.25425 0.31658 0.0
H1593 H 0.43303 0.17716 0.33289 0.0
H1594 H 0.4383 0.20827 0.33975 0.0
H1595 H 0.4232 0.22479 0.31443 0.0
H1596 H 0.43339 0.31066 0.3333 0.0
H1597 H 0.43239 0.28509 0.30542 0.0
H1598 H 0.48288 0.28164 0.29822 0.0
C1599 C 0.44221 0.20469 0.3192 0.0
C1600 C 0.43623 0.23713 0.3105 0.0
C1601 C 0.43934 0.18693 0.31533 0.0
C1602 C 0.44447 0.30777 0.33589 0.0
C1603 C 0.44386 0.2931 0.32007 0.0
C1604 C 0.46972 0.26931 0.30138 0.0
C1605 C 0.44968 0.2176 0.29661 0.0
C1606 C 0.45128 0.23589 0.30026 0.0
C1607 C 0.45736 0.28818 0.32442 0.0
C1608 C 0.45486 0.2705 0.31282 0.0
H1609 H 0.45537 0.19109 0.24563 0.0
H1610 H 0.46078 0.22242 0.25276 0.0
H1611 H 0.47968 0.25151 0.28698 0.0
H1612 H 0.48366 0.32082 0.37501 0.0
H1613 H 0.48267 0.29544 0.3473 0.0
C1614 C 0.8567 0.28831 0.24476 0.0
C1615 C 0.86596 0.29896 0.26949 0.0
C1616 C 0.83821 0.27459 0.24667 0.0
C1617 C 0.80447 0.24585 0.30315 0.0
H1618 H 0.76956 0.23051 0.23901 0.0
C1619 C 0.72737 0.1933 0.31637 0.0
C1620 C 0.71928 0.17937 0.29487 0.0
C1621 C 0.74522 0.208 0.31286 0.0
C1622 C 0.77924 0.2346 0.25702 0.0
H1623 H 0.86305 0.30498 0.31465 0.0
H1624 H 0.83076 0.28175 0.31778 0.0
H1625 H 0.80033 0.25702 0.23304 0.0
H1626 H 0.72361 0.1699 0.25287 0.0
H1627 H 0.75475 0.19572 0.24667 0.0
H1628 H 0.78326 0.22361 0.32724 0.0
C1629 C 0.83778 0.28323 0.29727 0.0
C1630 C 0.79687 0.24976 0.25361 0.0
C1631 C 0.85626 0.29665 0.29547 0.0
C1632 C 0.72948 0.18037 0.2699 0.0
C1633 C 0.74724 0.19522 0.26621 0.0
C1634 C 0.78682 0.23087 0.30664 0.0
C1635 C 0.82867 0.27153 0.27326 0.0
C1636 C 0.80972 0.25561 0.27667 0.0
C1637 C 0.75526 0.20921 0.2876 0.0
C1638 C 0.77402 0.22507 0.28364 0.0
H1639 H 0.86402 0.28982 0.22455 0.0
H1640 H 0.83172 0.26582 0.22774 0.0
H1641 H 0.81409 0.24956 0.32116 0.0
H1642 H 0.71988 0.19293 0.33584 0.0
H1643 H 0.75103 0.21865 0.32963 0.0
C1644 C 0.83438 0.52891 0.33782 0.0
C1645 C 0.83124 0.51586 0.35947 0.0
C1646 C 0.81963 0.52823 0.32258 0.0
C1647 C 0.7716 0.5131 0.33704 0.0
H1648 H 0.77163 0.53003 0.25833 0.0
C1649 C 0.7222 0.52895 0.25795 0.0
C1650 C 0.71909 0.54024 0.27728 0.0
C1651 C 0.73467 0.5232 0.26527 0.0
C1652 C 0.77133 0.52505 0.28024 0.0
H1653 H 0.81047 0.49071 0.3797 0.0
H1654 H 0.78489 0.48934 0.35276 0.0
H1655 H 0.79597 0.52397 0.27359 0.0
H1656 H 0.72668 0.5543 0.31942 0.0
H1657 H 0.74802 0.54402 0.33233 0.0
H1658 H 0.7473 0.5146 0.344 0.0
C1659 C 0.79863 0.50041 0.34817 0.0
C1660 C 0.78532 0.52172 0.28903 0.0
C1661 C 0.81331 0.50115 0.3635 0.0
C1662 C 0.7285 0.54542 0.30418 0.0
C1663 C 0.74076 0.53952 0.31161 0.0
C1664 C 0.75775 0.51654 0.32834 0.0
C1665 C 0.80153 0.51443 0.32861 0.0
C1666 C 0.78575 0.51597 0.31769 0.0
C1667 C 0.74407 0.52845 0.29219 0.0
C1668 C 0.75766 0.52289 0.30007 0.0
H1669 H 0.84804 0.54042 0.3342 0.0
H1670 H 0.82234 0.53927 0.30768 0.0
H1671 H 0.77162 0.50895 0.35941 0.0
H1672 H 0.71524 0.5248 0.23696 0.0
H1673 H 0.73692 0.51462 0.24995 0.0
C1674 C 0.63255 0.12734 0.78326 0.0
C1675 C 0.6452 0.1424 0.76672 0.0
C1676 C 0.61926 0.12862 0.79984 0.0
C1677 C 0.5946 0.15421 0.79672 0.0
H1678 H 0.57012 0.12614 0.86577 0.0
C1679 C 0.51926 0.12953 0.82086 0.0
C1680 C 0.51383 0.12965 0.84988 0.0
C1681 C 0.53725 0.13418 0.81457 0.0
C1682 C 0.57698 0.13429 0.84673 0.0
H1683 H 0.65528 0.17115 0.75711 0.0
H1684 H 0.63259 0.17358 0.78674 0.0
H1685 H 0.59918 0.12884 0.8505 0.0
H1686 H 0.52318 0.13518 0.89505 0.0
H1687 H 0.55474 0.14331 0.88396 0.0
H1688 H 0.57236 0.15941 0.79261 0.0
C1689 C 0.63241 0.16058 0.78611 0.0
C1690 C 0.59352 0.13568 0.83783 0.0
C1691 C 0.64547 0.15923 0.76927 0.0
C1692 C 0.52695 0.135 0.87244 0.0
C1693 C 0.54498 0.13954 0.86615 0.0
C1694 C 0.57813 0.1528 0.80557 0.0
C1695 C 0.61857 0.14505 0.80038 0.0
C1696 C 0.60233 0.14536 0.81236 0.0
C1697 C 0.55025 0.13897 0.83715 0.0
C1698 C 0.56891 0.14246 0.83024 0.0
H1699 H 0.63203 0.1142 0.78163 0.0
H1700 H 0.60879 0.11637 0.81049 0.0
H1701 H 0.60082 0.16156 0.77676 0.0
H1702 H 0.50952 0.12532 0.80298 0.0
H1703 H 0.5408 0.13336 0.79204 0.0
C1704 C 0.89483 0.50361 0.80462 0.0
C1705 C 0.89928 0.51865 0.82326 0.0
C1706 C 0.88171 0.48585 0.81278 0.0
C1707 C 0.86716 0.45986 0.87923 0.0
H1708 H 0.83932 0.41978 0.82432 0.0
C1709 C 0.85446 0.38768 0.90318 0.0
C1710 C 0.86155 0.38171 0.88047 0.0
C1711 C 0.8504 0.40172 0.89837 0.0
C1712 C 0.84683 0.43079 0.84009 0.0
H1713 H 0.89292 0.52724 0.86429 0.0
H1714 H 0.86995 0.49593 0.87895 0.0
H1715 H 0.84783 0.45121 0.81115 0.0
H1716 H 0.86816 0.38449 0.83429 0.0
H1717 H 0.86124 0.40876 0.8259 0.0
H1718 H 0.8674 0.43974 0.90725 0.0
C1719 C 0.87652 0.49793 0.85787 0.0
C1720 C 0.85167 0.44877 0.83256 0.0
C1721 C 0.88956 0.51582 0.84945 0.0
C1722 C 0.86302 0.38892 0.85236 0.0
C1723 C 0.85879 0.40275 0.84747 0.0
C1724 C 0.86232 0.44189 0.88675 0.0
C1725 C 0.87294 0.4827 0.84003 0.0
C1726 C 0.86282 0.46361 0.85135 0.0
C1727 C 0.85313 0.40983 0.87065 0.0
C1728 C 0.85304 0.42733 0.86654 0.0
H1729 H 0.90218 0.50548 0.78431 0.0
H1730 H 0.87951 0.47446 0.79868 0.0
H1731 H 0.87582 0.47097 0.89417 0.0
H1732 H 0.85312 0.38233 0.92509 0.0
H1733 H 0.84593 0.4068 0.91661 0.0
C1734 C 0.6225 0.50669 0.86589 0.0
C1735 C 0.63464 0.51636 0.88903 0.0
C1736 C 0.60837 0.48864 0.86943 0.0
C1737 C 0.57707 0.45544 0.92048 0.0
H1738 H 0.57129 0.42114 0.8583 0.0
C1739 C 0.5237 0.37878 0.86634 0.0
C1740 C 0.50778 0.38014 0.86612 0.0
C1741 C 0.53982 0.39265 0.87921 0.0
C1742 C 0.57277 0.43026 0.87634 0.0
H1743 H 0.641 0.51474 0.93456 0.0
H1744 H 0.61575 0.48288 0.94091 0.0
H1745 H 0.59892 0.45103 0.86087 0.0
H1746 H 0.49567 0.39612 0.88127 0.0
H1747 H 0.52402 0.4208 0.90287 0.0
H1748 H 0.55046 0.4348 0.93525 0.0
C1749 C 0.61755 0.48944 0.91989 0.0
C1750 C 0.5886 0.4475 0.87759 0.0
C1751 C 0.63199 0.50759 0.9162 0.0
C1752 C 0.50776 0.39472 0.88137 0.0
C1753 C 0.52404 0.40885 0.89376 0.0
C1754 C 0.56108 0.43809 0.91918 0.0
C1755 C 0.60578 0.47977 0.89634 0.0
C1756 C 0.59065 0.46048 0.89902 0.0
C1757 C 0.5405 0.40845 0.89137 0.0
C1758 C 0.55853 0.42548 0.89656 0.0
H1759 H 0.62374 0.51306 0.8449 0.0
H1760 H 0.59927 0.48163 0.85109 0.0
H1761 H 0.57834 0.46526 0.93719 0.0
H1762 H 0.52398 0.36757 0.85487 0.0
H1763 H 0.55208 0.3916 0.87776 0.0
C1764 C 0.57082 0.71918 0.65586 0.0
C1765 C 0.57209 0.70831 0.67797 0.0
C1766 C 0.57124 0.73564 0.663 0.0
C1767 C 0.58502 0.77152 0.71986 0.0
H1768 H 0.54349 0.77549 0.69301 0.0
C1769 C 0.57513 0.83389 0.74666 0.0
C1770 C 0.55797 0.82887 0.75894 0.0
C1771 C 0.57839 0.82051 0.73421 0.0
C1772 C 0.55522 0.7746 0.70049 0.0
H1773 H 0.57564 0.70659 0.72466 0.0
H1774 H 0.57669 0.73545 0.73696 0.0
H1775 H 0.54734 0.75 0.67547 0.0
H1776 H 0.5307 0.80594 0.76729 0.0
H1777 H 0.53634 0.78271 0.74512 0.0
H1778 H 0.59271 0.79597 0.74527 0.0
C1779 C 0.57525 0.73118 0.71419 0.0
C1780 C 0.55749 0.76013 0.69031 0.0
C1781 C 0.57452 0.7146 0.70715 0.0
C1782 C 0.5441 0.81025 0.75817 0.0
C1783 C 0.54726 0.79696 0.74529 0.0
C1784 C 0.58291 0.78617 0.72969 0.0
C1785 C 0.57329 0.74169 0.69227 0.0
C1786 C 0.5722 0.75824 0.70037 0.0
C1787 C 0.56444 0.80194 0.7333 0.0
C1788 C 0.56776 0.7876 0.72057 0.0
H1789 H 0.5689 0.71468 0.63318 0.0
H1790 H 0.56976 0.74355 0.64569 0.0
H1791 H 0.59651 0.77038 0.72785 0.0
H1792 H 0.5861 0.84812 0.74695 0.0
H1793 H 0.59174 0.82467 0.72505 0.0
C1794 C 0.19028 0.74696 0.72852 0.0
C1795 C 0.17422 0.7412 0.71194 0.0
C1796 C 0.20693 0.76177 0.71956 0.0
C1797 C 0.22848 0.80291 0.67321 0.0
H1798 H 0.27059 0.7962 0.68076 0.0
C1799 C 0.30274 0.85834 0.63943 0.0
C1800 C 0.31615 0.86182 0.66081 0.0
C1801 C 0.28492 0.84326 0.64209 0.0
C1802 C 0.25898 0.79831 0.67856 0.0
H1803 H 0.16302 0.74708 0.67343 0.0
H1804 H 0.19231 0.77309 0.65774 0.0
H1805 H 0.2402 0.77099 0.69264 0.0
H1806 H 0.32139 0.85194 0.70143 0.0
H1807 H 0.29062 0.82586 0.70588 0.0
H1808 H 0.24751 0.83044 0.6595 0.0
C1809 C 0.19189 0.76604 0.67772 0.0
C1810 C 0.24157 0.78389 0.68545 0.0
C1811 C 0.17513 0.75113 0.68671 0.0
C1812 C 0.31144 0.84974 0.68454 0.0
C1813 C 0.29379 0.83467 0.68702 0.0
C1814 C 0.24599 0.81741 0.66625 0.0
C1815 C 0.20804 0.77124 0.69375 0.0
C1816 C 0.22618 0.78615 0.6836 0.0
C1817 C 0.2803 0.83127 0.66594 0.0
C1818 C 0.26147 0.81538 0.66958 0.0
H1819 H 0.19012 0.73982 0.74825 0.0
H1820 H 0.21903 0.76572 0.73282 0.0
H1821 H 0.21689 0.80507 0.67158 0.0
H1822 H 0.3059 0.86741 0.62094 0.0
H1823 H 0.2748 0.84092 0.62545 0.0
C1824 C 0.25577 0.44116 0.6647 0.0
C1825 C 0.27274 0.45764 0.66462 0.0
C1826 C 0.23937 0.44152 0.66579 0.0
C1827 C 0.22068 0.47228 0.68323 0.0
H1828 H 0.17925 0.43677 0.63669 0.0
C1829 C 0.14594 0.45933 0.6396 0.0
C1830 C 0.14022 0.46442 0.66515 0.0
C1831 C 0.16179 0.4579 0.63983 0.0
C1832 C 0.19073 0.4469 0.64961 0.0
H1833 H 0.28578 0.48744 0.66569 0.0
H1834 H 0.2573 0.4881 0.66693 0.0
H1835 H 0.20763 0.43578 0.6366 0.0
H1836 H 0.14635 0.47137 0.71124 0.0
H1837 H 0.17352 0.4684 0.71182 0.0
H1838 H 0.20412 0.48388 0.69533 0.0
C1839 C 0.25658 0.47485 0.66681 0.0
C1840 C 0.20694 0.44616 0.64991 0.0
C1841 C 0.27295 0.47448 0.66595 0.0
C1842 C 0.15047 0.46765 0.69104 0.0
C1843 C 0.16616 0.46604 0.69135 0.0
C1844 C 0.20456 0.47311 0.68276 0.0
C1845 C 0.23956 0.45838 0.66658 0.0
C1846 C 0.22214 0.45886 0.6667 0.0
C1847 C 0.17216 0.46136 0.6657 0.0
C1848 C 0.18934 0.46041 0.66599 0.0
H1849 H 0.2551 0.42795 0.66359 0.0
H1850 H 0.22655 0.42856 0.66604 0.0
H1851 H 0.232 0.48215 0.69671 0.0
H1852 H 0.13839 0.45679 0.61927 0.0
H1853 H 0.16611 0.45446 0.61958 0.0
C1854 C 0.35592 0.8628 0.16842 0.0
C1855 C 0.35426 0.87665 0.18319 0.0
C1856 C 0.37215 0.8622 0.17013 0.0
C1857 C 0.41569 0.88088 0.21296 0.0
H1858 H 0.43156 0.86463 0.14497 0.0
C1859 C 0.48838 0.89129 0.20184 0.0
C1860 C 0.48928 0.87541 0.19485 0.0
C1861 C 0.47178 0.89113 0.19993 0.0
C1862 C 0.4272 0.86909 0.16414 0.0
H1863 H 0.36839 0.90083 0.21119 0.0
H1864 H 0.39696 0.90027 0.21328 0.0
H1865 H 0.40298 0.86527 0.14279 0.0
H1866 H 0.47361 0.84708 0.17961 0.0
H1867 H 0.44457 0.84699 0.17553 0.0
H1868 H 0.44037 0.8853 0.23381 0.0
C1869 C 0.38555 0.88948 0.20107 0.0
C1870 C 0.41078 0.86937 0.16302 0.0
C1871 C 0.36919 0.88988 0.19976 0.0
C1872 C 0.47332 0.85951 0.18516 0.0
C1873 C 0.45675 0.85946 0.18275 0.0
C1874 C 0.43225 0.88089 0.21387 0.0
C1875 C 0.38727 0.87563 0.18626 0.0
C1876 C 0.40477 0.87526 0.18744 0.0
C1877 C 0.4558 0.8752 0.19054 0.0
C1878 C 0.43815 0.87498 0.18949 0.0
H1879 H 0.34458 0.85228 0.1557 0.0
H1880 H 0.37274 0.85108 0.15896 0.0
H1881 H 0.4114 0.88513 0.23242 0.0
H1882 H 0.50042 0.90374 0.20949 0.0
H1883 H 0.47143 0.90349 0.20581 0.0
C1884 C 0.10343 0.60361 0.13778 0.0
C1885 C 0.11384 0.61403 0.11381 0.0
C1886 C 0.10477 0.58852 0.14749 0.0
C1887 C 0.13716 0.57112 0.14582 0.0
H1888 H 0.09573 0.52454 0.16952 0.0
C1889 C 0.14214 0.50589 0.1562 0.0
C1890 C 0.13337 0.4939 0.17961 0.0
C1891 C 0.13957 0.5208 0.15121 0.0
C1892 C 0.10745 0.53757 0.1634 0.0
H1893 H 0.13297 0.61602 0.08026 0.0
H1894 H 0.13506 0.58974 0.09688 0.0
H1895 H 0.09077 0.54958 0.15396 0.0
H1896 H 0.11509 0.48836 0.21636 0.0
H1897 H 0.11058 0.5146 0.20752 0.0
H1898 H 0.15382 0.55917 0.15481 0.0
C1899 C 0.12622 0.59347 0.10865 0.0
C1900 C 0.10461 0.55189 0.15443 0.0
C1901 C 0.12491 0.60848 0.09899 0.0
C1902 C 0.1221 0.49736 0.19818 0.0
C1903 C 0.1194 0.51229 0.19302 0.0
C1904 C 0.13998 0.55687 0.15473 0.0
C1905 C 0.11655 0.58359 0.13345 0.0
C1906 C 0.11941 0.56869 0.14495 0.0
C1907 C 0.12811 0.52415 0.16941 0.0
C1908 C 0.12514 0.53981 0.16305 0.0
H1909 H 0.09477 0.6075 0.14972 0.0
H1910 H 0.09714 0.58119 0.16666 0.0
H1911 H 0.14892 0.58405 0.13941 0.0
H1912 H 0.15093 0.5037 0.14143 0.0
H1913 H 0.14627 0.52951 0.1326 0.0
C1914 C 0.53168 0.65028 0.14741 0.0
C1915 C 0.54177 0.64782 0.16967 0.0
C1916 C 0.51492 0.63554 0.13783 0.0
C1917 C 0.4882 0.58481 0.13519 0.0
H1918 H 0.44685 0.59209 0.12205 0.0
C1919 C 0.41492 0.52424 0.11267 0.0
C1920 C 0.40413 0.52701 0.09212 0.0
C1921 C 0.43189 0.5389 0.12172 0.0
C1922 C 0.45832 0.58987 0.12524 0.0
H1923 H 0.54202 0.62787 0.19935 0.0
H1924 H 0.5128 0.60225 0.18264 0.0
H1925 H 0.47606 0.6179 0.13856 0.0
H1926 H 0.40299 0.54734 0.0645 0.0
H1927 H 0.43265 0.57272 0.07988 0.0
H1928 H 0.47052 0.55681 0.12172 0.0
C1929 C 0.51795 0.61555 0.17244 0.0
C1930 C 0.47505 0.60466 0.13474 0.0
C1931 C 0.53466 0.63029 0.18214 0.0
C1932 C 0.41085 0.54471 0.08052 0.0
C1933 C 0.42784 0.55932 0.08948 0.0
C1934 C 0.47149 0.57002 0.12557 0.0
C1935 C 0.50791 0.618 0.15017 0.0
C1936 C 0.49017 0.6023 0.13987 0.0
C1937 C 0.4385 0.55664 0.11037 0.0
C1938 C 0.45633 0.57237 0.12049 0.0
H1939 H 0.53674 0.66358 0.1373 0.0
H1940 H 0.50757 0.63782 0.12042 0.0
H1941 H 0.49967 0.58262 0.13857 0.0
H1942 H 0.41014 0.51081 0.12215 0.0
H1943 H 0.43965 0.53638 0.1381 0.0
C1944 C 0.15056 0.6553 0.67857 0.0
C1945 C 0.13515 0.65716 0.67344 0.0
C1946 C 0.15121 0.64007 0.66766 0.0
C1947 C 0.14044 0.60019 0.66873 0.0
H1948 H 0.11627 0.57164 0.59892 0.0
C1949 C 0.10862 0.52171 0.66293 0.0
C1950 C 0.10936 0.51345 0.6365 0.0
C1951 C 0.11519 0.54063 0.66452 0.0
C1952 C 0.12333 0.57956 0.61832 0.0
H1953 H 0.10903 0.64544 0.65087 0.0
H1954 H 0.10985 0.61849 0.63239 0.0
H1955 H 0.12239 0.60326 0.60361 0.0
H1956 H 0.11817 0.51866 0.59123 0.0
H1957 H 0.12979 0.55177 0.59413 0.0
H1958 H 0.14125 0.57652 0.68358 0.0
C1959 C 0.12161 0.62892 0.64444 0.0
C1960 C 0.12667 0.59761 0.62112 0.0
C1961 C 0.12111 0.64437 0.65503 0.0
C1962 C 0.11737 0.52461 0.61193 0.0
C1963 C 0.12392 0.54355 0.61351 0.0
C1964 C 0.13714 0.58221 0.6659 0.0
C1965 C 0.13629 0.62618 0.65184 0.0
C1966 C 0.13493 0.608 0.64665 0.0
C1967 C 0.12265 0.55173 0.63972 0.0
C1968 C 0.12815 0.57153 0.64101 0.0
H1969 H 0.16169 0.66513 0.69243 0.0
H1970 H 0.16296 0.63867 0.67302 0.0
H1971 H 0.14659 0.60763 0.6889 0.0
H1972 H 0.10243 0.5135 0.68219 0.0
H1973 H 0.11378 0.54644 0.68495 0.0
C1974 C 0.38637 0.50655 0.66175 0.0
C1975 C 0.373 0.50672 0.64356 0.0
C1976 C 0.40414 0.52177 0.66304 0.0
C1977 C 0.43634 0.56246 0.62087 0.0
H1978 H 0.46178 0.58086 0.69508 0.0
C1979 C 0.50496 0.62965 0.62582 0.0
C1980 C 0.51901 0.62935 0.64188 0.0
C1981 C 0.48678 0.61567 0.629 0.0
C1982 C 0.4549 0.5758 0.67418 0.0
H1983 H 0.36781 0.52302 0.61248 0.0
H1984 H 0.39868 0.54946 0.61477 0.0
H1985 H 0.43092 0.55386 0.69407 0.0
H1986 H 0.52492 0.61483 0.67526 0.0
H1987 H 0.49314 0.59022 0.68056 0.0
H1988 H 0.46022 0.58411 0.60085 0.0
C1989 C 0.39552 0.53753 0.62785 0.0
C1990 C 0.43726 0.56033 0.6736 0.0
C1991 C 0.37779 0.52238 0.62663 0.0
C1992 C 0.51438 0.61543 0.66259 0.0
C1993 C 0.49615 0.60134 0.66565 0.0
C1994 C 0.45392 0.57784 0.62144 0.0
C1995 C 0.4089 0.53742 0.64605 0.0
C1996 C 0.42777 0.55356 0.64692 0.0
C1997 C 0.48225 0.60099 0.64815 0.0
C1998 C 0.46338 0.58478 0.64809 0.0
H1999 H 0.38309 0.4947 0.67513 0.0
H2000 H 0.41421 0.52121 0.67706 0.0
H2001 H 0.42955 0.55737 0.59991 0.0
H2002 H 0.50807 0.64031 0.60992 0.0
H2003 H 0.47633 0.61608 0.61576 0.0
C2004 C 0.40409 0.89371 0.67353 0.0
C2005 C 0.39754 0.89111 0.64459 0.0
C2006 C 0.41638 0.88801 0.6819 0.0
C2007 C 0.45167 0.87924 0.65217 0.0
H2008 H 0.44842 0.85818 0.72863 0.0
C2009 C 0.49125 0.8514 0.73307 0.0
C2010 C 0.5093 0.86626 0.73125 0.0
C2011 C 0.477 0.85171 0.71807 0.0
C2012 C 0.44943 0.86379 0.707 0.0
H2013 H 0.39847 0.88011 0.60186 0.0
H2014 H 0.41998 0.87013 0.61658 0.0
H2015 H 0.42387 0.86309 0.71178 0.0
H2016 H 0.52674 0.89254 0.71062 0.0
H2017 H 0.50175 0.89325 0.68473 0.0
H2018 H 0.47739 0.88008 0.6476 0.0
C2019 C 0.41565 0.87668 0.6327 0.0
C2020 C 0.43544 0.8668 0.69751 0.0
C2021 C 0.40323 0.88228 0.62435 0.0
C2022 C 0.51298 0.88088 0.71248 0.0
C2023 C 0.49865 0.88126 0.69758 0.0
C2024 C 0.46574 0.87626 0.66173 0.0
C2025 C 0.4225 0.87967 0.6615 0.0
C2026 C 0.43653 0.87484 0.67021 0.0
C2027 C 0.48041 0.86696 0.70105 0.0
C2028 C 0.46489 0.86871 0.68944 0.0
H2029 H 0.40015 0.9006 0.68961 0.0
H2030 H 0.42158 0.89074 0.70416 0.0
H2031 H 0.45296 0.88558 0.6311 0.0
H2032 H 0.48799 0.83977 0.74698 0.0
H2033 H 0.46318 0.84027 0.72063 0.0
C2034 C 0.19604 0.472 0.23267 0.0
C2035 C 0.1826 0.46186 0.21128 0.0
C2036 C 0.2142 0.47623 0.22861 0.0
C2037 C 0.24047 0.45882 0.18963 0.0
H2038 H 0.28256 0.50778 0.19999 0.0
C2039 C 0.31192 0.47227 0.16048 0.0
C2040 C 0.3206 0.48651 0.14008 0.0
C2041 C 0.29729 0.47072 0.17715 0.0
C2042 C 0.27093 0.494 0.1973 0.0
H2043 H 0.17782 0.4487 0.16851 0.0
H2044 H 0.20935 0.45609 0.1615 0.0
H2045 H 0.25183 0.5022 0.21175 0.0
H2046 H 0.32206 0.51135 0.12345 0.0
H2047 H 0.29665 0.50862 0.15235 0.0
H2048 H 0.25925 0.45067 0.17412 0.0
C2049 C 0.20584 0.46063 0.1815 0.0
C2050 C 0.25339 0.49081 0.20412 0.0
C2051 C 0.1878 0.45656 0.18541 0.0
C2052 C 0.31551 0.50009 0.13872 0.0
C2053 C 0.30101 0.49861 0.15549 0.0
C2054 C 0.25794 0.46196 0.18305 0.0
C2055 C 0.21915 0.47018 0.20327 0.0
C2056 C 0.23795 0.4733 0.19949 0.0
C2057 C 0.29121 0.48346 0.1739 0.0
C2058 C 0.27333 0.47968 0.18604 0.0
H2059 H 0.19244 0.47626 0.25285 0.0
H2060 H 0.22422 0.48365 0.24571 0.0
H2061 H 0.22882 0.44512 0.18629 0.0
H2062 H 0.31556 0.46164 0.16215 0.0
H2063 H 0.29016 0.45904 0.19151 0.0
C2064 C 0.53546 0.81614 0.25126 0.0
C2065 C 0.54442 0.83003 0.23034 0.0
C2066 C 0.5392 0.80174 0.25343 0.0
C2067 C 0.5576 0.77725 0.21049 0.0
H2068 H 0.56285 0.75943 0.2859 0.0
C2069 C 0.58864 0.7307 0.2209 0.0
C2070 C 0.58032 0.71552 0.23969 0.0
C2071 C 0.58329 0.74393 0.22093 0.0
C2072 C 0.56117 0.76409 0.2647 0.0
H2073 H 0.56458 0.83983 0.19564 0.0
H2074 H 0.57124 0.81481 0.19961 0.0
H2075 H 0.55576 0.78432 0.28373 0.0
H2076 H 0.56016 0.70263 0.27395 0.0
H2077 H 0.55072 0.72597 0.27402 0.0
H2078 H 0.56315 0.75722 0.19141 0.0
C2079 C 0.56111 0.81491 0.21406 0.0
C2080 C 0.55714 0.77836 0.26344 0.0
C2081 C 0.55738 0.82932 0.2119 0.0
C2082 C 0.56677 0.71413 0.25913 0.0
C2083 C 0.56141 0.72749 0.25921 0.0
C2084 C 0.56163 0.76305 0.21175 0.0
C2085 C 0.55196 0.80087 0.2347 0.0
C2086 C 0.55556 0.78527 0.23629 0.0
C2087 C 0.56949 0.74241 0.2398 0.0
C2088 C 0.56374 0.75649 0.23884 0.0
H2089 H 0.52538 0.81626 0.26581 0.0
H2090 H 0.5318 0.79107 0.26937 0.0
H2091 H 0.55604 0.78193 0.18922 0.0
H2092 H 0.59941 0.73247 0.20608 0.0
H2093 H 0.59011 0.75547 0.20622 0.0
C2094 C 0.17423 0.6971 0.16151 0.0
C2095 C 0.15696 0.69574 0.16307 0.0
C2096 C 0.18953 0.71202 0.1744 0.0
C2097 C 0.20559 0.75487 0.21944 0.0
H2098 H 0.24402 0.77519 0.1611 0.0
C2099 C 0.27006 0.82736 0.23139 0.0
C2100 C 0.2747 0.83833 0.20623 0.0
C2101 C 0.25706 0.80859 0.22988 0.0
C2102 C 0.23344 0.76971 0.17764 0.0
H2103 H 0.14175 0.70784 0.18159 0.0
H2104 H 0.16856 0.73425 0.2035 0.0
H2105 H 0.21845 0.7441 0.15481 0.0
H2106 H 0.26943 0.83813 0.15972 0.0
H2107 H 0.24681 0.80545 0.15705 0.0
H2108 H 0.22029 0.78105 0.24137 0.0
C2109 C 0.17032 0.72369 0.19274 0.0
C2110 C 0.21887 0.75174 0.1743 0.0
C2111 C 0.15491 0.70854 0.18021 0.0
C2112 C 0.26631 0.83006 0.17944 0.0
C2113 C 0.25337 0.8113 0.17791 0.0
C2114 C 0.22022 0.77292 0.22278 0.0
C2115 C 0.18793 0.72608 0.18859 0.0
C2116 C 0.20457 0.7442 0.19483 0.0
C2117 C 0.24849 0.80038 0.20314 0.0
C2118 C 0.23406 0.78066 0.20151 0.0
H2119 H 0.17611 0.68726 0.14866 0.0
H2120 H 0.20281 0.71316 0.17157 0.0
H2121 H 0.19488 0.74944 0.23575 0.0
H2122 H 0.27629 0.83332 0.2524 0.0
H2123 H 0.25371 0.8005 0.24962 0.0
C2124 C 0.24777 0.24654 0.20012 0.0
C2125 C 0.2316 0.23809 0.18323 0.0
C2126 C 0.24691 0.24692 0.23074 0.0
C2127 C 0.24075 0.23652 0.29526 0.0
H2128 H 0.20221 0.24235 0.33098 0.0
C2129 C 0.22135 0.21972 0.41615 0.0
C2130 C 0.21637 0.23082 0.43246 0.0
C2131 C 0.22409 0.22199 0.38602 0.0
C2132 C 0.2132 0.24094 0.32144 0.0
H2133 H 0.20188 0.22342 0.18535 0.0
H2134 H 0.20041 0.22352 0.23829 0.0
H2135 H 0.20584 0.24427 0.27808 0.0
H2136 H 0.21037 0.25305 0.42973 0.0
H2137 H 0.21542 0.2572 0.37701 0.0
H2138 H 0.24833 0.23356 0.3387 0.0
C2139 C 0.21377 0.23019 0.22805 0.0
C2140 C 0.21513 0.24178 0.29103 0.0
C2141 C 0.21462 0.2299 0.19759 0.0
C2142 C 0.2141 0.24421 0.41781 0.0
C2143 C 0.21696 0.24655 0.38758 0.0
C2144 C 0.23887 0.23577 0.3257 0.0
C2145 C 0.22988 0.23885 0.24504 0.0
C2146 C 0.22873 0.23927 0.27752 0.0
C2147 C 0.22204 0.23549 0.37134 0.0
C2148 C 0.22488 0.23767 0.33914 0.0
H2149 H 0.26107 0.25309 0.18972 0.0
H2150 H 0.2596 0.25384 0.24314 0.0
H2151 H 0.25131 0.23444 0.28563 0.0
H2152 H 0.22309 0.20916 0.42662 0.0
H2153 H 0.22759 0.21295 0.37418 0.0
C2154 C 0.76719 0.00628 0.14009 0.0
C2155 C 0.7608 0.0165 0.12504 0.0
C2156 C 0.76291 0.00189 0.16946 0.0
C2157 C 0.74614 0.01368 0.23644 0.0
H2158 H 0.73666 0.96536 0.25991 0.0
C2159 C 0.72917 0.98829 0.35611 0.0
C2160 C 0.74143 0.98307 0.36711 0.0
C2161 C 0.72807 0.99045 0.32592 0.0
C2162 C 0.73919 0.97886 0.25364 0.0
H2163 H 0.74522 0.03054 0.12937 0.0
H2164 H 0.73747 0.02261 0.18082 0.0
H2165 H 0.74211 0.97395 0.20855 0.0
H2166 H 0.76107 0.97468 0.35554 0.0
H2167 H 0.75888 0.97801 0.30295 0.0
H2168 H 0.74329 0.01851 0.28182 0.0
C2169 C 0.74601 0.01818 0.16987 0.0
C2170 C 0.74246 0.98386 0.22427 0.0
C2171 C 0.75045 0.02273 0.14039 0.0
C2172 C 0.75164 0.97887 0.34753 0.0
C2173 C 0.75029 0.98067 0.31745 0.0
C2174 C 0.74268 0.00858 0.26587 0.0
C2175 C 0.75189 0.00737 0.18458 0.0
C2176 C 0.74652 0.00153 0.2154 0.0
C2177 C 0.73892 0.98701 0.30638 0.0
C2178 C 0.73965 0.9913 0.27483 0.0
H2179 H 0.77519 0.00125 0.12911 0.0
H2180 H 0.76813 0.99401 0.18026 0.0
H2181 H 0.74928 0.02741 0.23043 0.0
H2182 H 0.72129 0.99175 0.37091 0.0
H2183 H 0.71912 0.99525 0.3179 0.0
C2184 C 0.00663 0.81065 0.30268 0.0
C2185 C 0.01705 0.80379 0.3158 0.0
C2186 C 0.00352 0.80907 0.27257 0.0
C2187 C 0.98771 0.7917 0.21403 0.0
H2188 H 0.0247 0.80044 0.1561 0.0
C2189 C 0.96952 0.77524 0.09166 0.0
C2190 C 0.98154 0.78831 0.07157 0.0
C2191 C 0.97439 0.77653 0.12121 0.0
C2192 C 0.01424 0.79803 0.17203 0.0
H2193 H 0.03291 0.79041 0.30732 0.0
H2194 H 0.02733 0.78749 0.25437 0.0
H2195 H 0.03292 0.80472 0.20809 0.0
H2196 H 0.00816 0.81302 0.06695 0.0
H2197 H 0.01643 0.8154 0.11848 0.0
H2198 H 0.96914 0.78546 0.1782 0.0
C2199 C 0.0217 0.79424 0.26756 0.0
C2200 C 0.01892 0.8003 0.2018 0.0
C2201 C 0.02488 0.79589 0.29786 0.0
C2202 C 0.99854 0.80268 0.08176 0.0
C2203 C 0.00338 0.80398 0.1113 0.0
C2204 C 0.98305 0.78942 0.18437 0.0
C2205 C 0.01062 0.80045 0.25472 0.0
C2206 C 0.00574 0.79737 0.2231 0.0
C2207 C 0.99135 0.79094 0.13139 0.0
C2208 C 0.99627 0.79269 0.16298 0.0
H2209 H 0.00032 0.81677 0.31571 0.0
H2210 H 0.99527 0.81436 0.26331 0.0
H2211 H 0.97714 0.78902 0.22991 0.0
H2212 H 0.95638 0.76392 0.08457 0.0
H2213 H 0.96489 0.76613 0.13606 0.0
C2214 C 0.74414 0.75301 0.82718 0.0
C2215 C 0.73606 0.76385 0.8327 0.0
C2216 C 0.74293 0.74539 0.79932 0.0
C2217 C 0.75068 0.74369 0.73519 0.0
H2218 H 0.71059 0.73204 0.68137 0.0
C2219 C 0.7543 0.72698 0.61431 0.0
C2220 C 0.75245 0.73902 0.59522 0.0
C2221 C 0.74884 0.72557 0.64345 0.0
C2222 C 0.72181 0.73516 0.69625 0.0
H2223 H 0.71985 0.77466 0.81364 0.0
H2224 H 0.71837 0.76212 0.76515 0.0
H2225 H 0.70721 0.73677 0.73335 0.0
H2226 H 0.74219 0.75799 0.59119 0.0
H2227 H 0.73241 0.75531 0.64219 0.0
H2228 H 0.76525 0.7421 0.69801 0.0
C2229 C 0.72523 0.75899 0.78228 0.0
C2230 C 0.71996 0.73798 0.72597 0.0
C2231 C 0.72623 0.76636 0.81015 0.0
C2232 C 0.74388 0.74867 0.60539 0.0
C2233 C 0.7382 0.74707 0.63452 0.0
C2234 C 0.75239 0.74058 0.70561 0.0
C2235 C 0.73383 0.74867 0.7763 0.0
C2236 C 0.73459 0.74283 0.74569 0.0
C2237 C 0.74118 0.73596 0.654 0.0
C2238 C 0.73817 0.73676 0.68575 0.0
H2239 H 0.75165 0.75067 0.84423 0.0
H2240 H 0.74942 0.73722 0.7957 0.0
H2241 H 0.76236 0.74767 0.74946 0.0
H2242 H 0.76075 0.71926 0.60716 0.0
H2243 H 0.75113 0.71679 0.658 0.0
C2244 C 0.24905 0.00551 0.6402 0.0
C2245 C 0.23407 0.98753 0.63715 0.0
C2246 C 0.25135 0.01569 0.66594 0.0
C2247 C 0.22756 0.01973 0.72989 0.0
H2248 H 0.269 0.02693 0.77694 0.0
C2249 C 0.22239 0.00939 0.85197 0.0
C2250 C 0.23759 0.01892 0.87069 0.0
C2251 C 0.22404 0.0125 0.82199 0.0
C2252 C 0.25764 0.02561 0.76395 0.0
H2253 H 0.20939 0.96636 0.65762 0.0
H2254 H 0.21303 0.98433 0.70204 0.0
H2255 H 0.26788 0.01975 0.72475 0.0
H2256 H 0.26632 0.03986 0.87284 0.0
H2257 H 0.26933 0.04526 0.81977 0.0
H2258 H 0.2169 0.02483 0.76907 0.0
C2259 C 0.22306 0.99051 0.68477 0.0
C2260 C 0.257 0.02145 0.73407 0.0
C2261 C 0.22102 0.9802 0.6595 0.0
C2262 C 0.25439 0.0323 0.85888 0.0
C2263 C 0.25611 0.03533 0.82855 0.0
C2264 C 0.22831 0.02414 0.75959 0.0
C2265 C 0.23842 0.00816 0.68851 0.0
C2266 C 0.24151 0.01756 0.71722 0.0
C2267 C 0.24098 0.02521 0.80974 0.0
C2268 C 0.24284 0.02605 0.77732 0.0
H2269 H 0.25938 0.01134 0.62331 0.0
H2270 H 0.26335 0.02924 0.66848 0.0
H2271 H 0.21555 0.01694 0.7172 0.0
H2272 H 0.2092 0.99909 0.86038 0.0
H2273 H 0.21217 0.00418 0.80827 0.0
C2274 C 0.97807 0.22749 0.65591 0.0
C2275 C 0.99201 0.23059 0.63603 0.0
C2276 C 0.98234 0.23504 0.68408 0.0
C2277 C 0.99354 0.25686 0.74038 0.0
H2278 H 0.03401 0.25596 0.779 0.0
C2279 C 0.00019 0.2502 0.86529 0.0
C2280 C 0.01767 0.26092 0.87795 0.0
C2281 C 0.99771 0.25069 0.83509 0.0
C2282 C 0.02283 0.25656 0.76839 0.0
H2283 H 0.02141 0.24483 0.62959 0.0
H2284 H 0.02896 0.25859 0.67864 0.0
H2285 H 0.02896 0.24916 0.72688 0.0
H2286 H 0.04599 0.28145 0.86911 0.0
H2287 H 0.04163 0.28202 0.81649 0.0
H2288 H 0.98686 0.26317 0.78265 0.0
C2289 C 0.01467 0.24985 0.67271 0.0
C2290 C 0.01996 0.25275 0.73843 0.0
C2291 C 0.01037 0.24207 0.64453 0.0
C2292 C 0.03236 0.27291 0.86007 0.0
C2293 C 0.02992 0.27323 0.82991 0.0
C2294 C 0.99624 0.26038 0.77049 0.0
C2295 C 0.0007 0.24612 0.69305 0.0
C2296 C 0.00506 0.25249 0.7241 0.0
C2297 C 0.01269 0.26177 0.81706 0.0
C2298 C 0.01075 0.25998 0.78481 0.0
H2299 H 0.96376 0.21867 0.65011 0.0
H2300 H 0.97118 0.23152 0.69914 0.0
H2301 H 0.98217 0.25721 0.73001 0.0
H2302 H 0.9886 0.24088 0.8785 0.0
H2303 H 0.98429 0.24166 0.82566 0.0
C2304 C 0.90811 0.55772 0.5072 0.0
C2305 C 0.89148 0.54693 0.49212 0.0
C2306 C 0.90823 0.56065 0.53744 0.0
C2307 C 0.90528 0.55757 0.60384 0.0
H2308 H 0.86594 0.56369 0.63541 0.0
C2309 C 0.89294 0.55741 0.72774 0.0
C2310 C 0.88707 0.56923 0.73906 0.0
C2311 C 0.89416 0.55548 0.6976 0.0
C2312 C 0.87715 0.56224 0.62695 0.0
H2313 H 0.86199 0.5303 0.49719 0.0
H2314 H 0.86226 0.53482 0.54973 0.0
H2315 H 0.86706 0.55882 0.58308 0.0
H2316 H 0.87807 0.58845 0.72743 0.0
H2317 H 0.88054 0.58534 0.67469 0.0
H2318 H 0.91564 0.56151 0.64765 0.0
C2319 C 0.87519 0.54145 0.5382 0.0
C2320 C 0.87765 0.55916 0.59696 0.0
C2321 C 0.87506 0.53866 0.50804 0.0
C2322 C 0.88254 0.57916 0.71945 0.0
C2323 C 0.88389 0.57731 0.68921 0.0
C2324 C 0.90485 0.56077 0.63384 0.0
C2325 C 0.89172 0.55276 0.55322 0.0
C2326 C 0.8916 0.55658 0.58506 0.0
C2327 C 0.88967 0.5654 0.67793 0.0
C2328 C 0.89067 0.56296 0.64581 0.0
H2329 H 0.921 0.56439 0.49554 0.0
H2330 H 0.92121 0.56956 0.54825 0.0
H2331 H 0.91617 0.55555 0.59548 0.0
H2332 H 0.89642 0.54943 0.74216 0.0
H2333 H 0.89832 0.54592 0.68974 0.0
C2334 C 0.45729 0.36272 0.50197 0.0
C2335 C 0.44227 0.36186 0.48733 0.0
C2336 C 0.45744 0.36172 0.53243 0.0
C2337 C 0.43353 0.36326 0.60033 0.0
H2338 H 0.45563 0.33604 0.63161 0.0
C2339 C 0.42756 0.34066 0.72192 0.0
C2340 C 0.44452 0.34614 0.73556 0.0
C2341 C 0.42646 0.34214 0.69156 0.0
C2342 C 0.44944 0.34369 0.62316 0.0
H2343 H 0.4159 0.35998 0.4928 0.0
H2344 H 0.41575 0.35756 0.54612 0.0
H2345 H 0.45549 0.34027 0.57902 0.0
H2346 H 0.47354 0.35718 0.72776 0.0
H2347 H 0.4715 0.35915 0.67496 0.0
H2348 H 0.42709 0.36614 0.64484 0.0
C2349 C 0.42766 0.35941 0.53425 0.0
C2350 C 0.44949 0.34629 0.59302 0.0
C2351 C 0.4277 0.36078 0.5037 0.0
C2352 C 0.46025 0.35271 0.71811 0.0
C2353 C 0.4591 0.35385 0.68779 0.0
C2354 C 0.43323 0.36039 0.63053 0.0
C2355 C 0.44236 0.35942 0.54897 0.0
C2356 C 0.44179 0.35635 0.58117 0.0
C2357 C 0.44225 0.34879 0.67426 0.0
C2358 C 0.44139 0.35078 0.64221 0.0
H2359 H 0.46889 0.36402 0.48986 0.0
H2360 H 0.46931 0.36247 0.54295 0.0
H2361 H 0.42763 0.37122 0.59214 0.0
H2362 H 0.41519 0.33566 0.73476 0.0
H2363 H 0.41329 0.33807 0.68158 0.0
C2364 C 0.67169 0.13405 0.61347 0.0
C2365 C 0.67981 0.12471 0.62634 0.0
C2366 C 0.67083 0.1351 0.58315 0.0
C2367 C 0.6576 0.12248 0.52181 0.0
H2368 H 0.69549 0.12873 0.46731 0.0
C2369 C 0.64197 0.10624 0.39979 0.0
C2370 C 0.65464 0.11846 0.37943 0.0
C2371 C 0.64638 0.10784 0.42949 0.0
C2372 C 0.68485 0.12713 0.4823 0.0
H2373 H 0.69395 0.10963 0.61728 0.0
H2374 H 0.69206 0.1111 0.56394 0.0
H2375 H 0.70155 0.13084 0.52012 0.0
H2376 H 0.68208 0.14188 0.37451 0.0
H2377 H 0.6897 0.1448 0.42673 0.0
H2378 H 0.64097 0.11899 0.48437 0.0
C2379 C 0.68662 0.11788 0.57751 0.0
C2380 C 0.68825 0.12814 0.51251 0.0
C2381 C 0.68763 0.11696 0.60805 0.0
C2382 C 0.67196 0.13227 0.38959 0.0
C2383 C 0.67638 0.13387 0.41946 0.0
C2384 C 0.65422 0.12147 0.4918 0.0
C2385 C 0.6778 0.12659 0.56475 0.0
C2386 C 0.67464 0.12582 0.5326 0.0
C2387 C 0.66356 0.12174 0.43976 0.0
C2388 C 0.66772 0.12363 0.47165 0.0
H2389 H 0.66544 0.14013 0.6267 0.0
H2390 H 0.66428 0.14226 0.57409 0.0
H2391 H 0.64669 0.12034 0.53661 0.0
H2392 H 0.62856 0.09533 0.39285 0.0
H2393 H 0.6363 0.09806 0.44444 0.0
C2394 C 0.4007 0.10656 0.16631 0.0
C2395 C 0.40908 0.10208 0.18885 0.0
C2396 C 0.40051 0.1006 0.13764 0.0
C2397 C 0.39676 0.08243 0.07884 0.0
H2398 H 0.44232 0.08595 0.05376 0.0
C2399 C 0.42423 0.09697 0.96032 0.0
C2400 C 0.43264 0.08727 0.94969 0.0
C2401 C 0.41804 0.0947 0.98922 0.0
C2402 C 0.42939 0.08462 0.0605 0.0
H2403 H 0.42278 0.08682 0.19939 0.0
H2404 H 0.42196 0.0759 0.14939 0.0
H2405 H 0.43749 0.08903 0.10544 0.0
H2406 H 0.44036 0.06693 0.96058 0.0
H2407 H 0.4298 0.06322 0.01103 0.0
H2408 H 0.38924 0.07907 0.03337 0.0
C2409 C 0.41601 0.0845 0.15371 0.0
C2410 C 0.42656 0.08629 0.09018 0.0
C2411 C 0.41639 0.09066 0.18241 0.0
C2412 C 0.43404 0.0747 0.96812 0.0
C2413 C 0.42804 0.07258 0.99704 0.0
C2414 C 0.39972 0.081 0.04905 0.0
C2415 C 0.4085 0.08981 0.13083 0.0
C2416 C 0.41036 0.08559 0.09972 0.0
C2417 C 0.42032 0.08282 0.00803 0.0
C2418 C 0.41619 0.08239 0.0396 0.0
H2419 H 0.39493 0.11534 0.17051 0.0
H2420 H 0.39484 0.10522 0.12066 0.0
H2421 H 0.38396 0.08143 0.08542 0.0
H2422 H 0.42289 0.1067 0.94662 0.0
H2423 H 0.41224 0.10286 0.99723 0.0
C2424 C 0.93129 0.36498 0.18689 0.0
C2425 C 0.93406 0.35476 0.20837 0.0
C2426 C 0.92183 0.3565 0.16112 0.0
C2427 C 0.91507 0.32046 0.1108 0.0
H2428 H 0.8824 0.33381 0.07246 0.0
C2429 C 0.88118 0.31925 0.98986 0.0
C2430 C 0.89745 0.32742 0.97349 0.0
C2431 C 0.88161 0.3162 0.01985 0.0
C2432 C 0.8912 0.32957 0.08294 0.0
H2433 H 0.92878 0.32761 0.22025 0.0
H2434 H 0.91246 0.31271 0.17446 0.0
H2435 H 0.88939 0.34067 0.1244 0.0
H2436 H 0.92662 0.33716 0.97517 0.0
H2437 H 0.92735 0.33182 0.02729 0.0
H2438 H 0.91766 0.31026 0.06891 0.0
C2439 C 0.91743 0.32725 0.1779 0.0
C2440 C 0.89529 0.33363 0.11266 0.0
C2441 C 0.92664 0.33573 0.20408 0.0
C2442 C 0.91386 0.33098 0.98718 0.0
C2443 C 0.91426 0.3278 0.01708 0.0
C2444 C 0.9111 0.31653 0.08095 0.0
C2445 C 0.91521 0.33766 0.15599 0.0
C2446 C 0.90776 0.3297 0.12663 0.0
C2447 C 0.89828 0.32107 0.03399 0.0
C2448 C 0.89961 0.32162 0.06648 0.0
H2449 H 0.93691 0.37968 0.18967 0.0
H2450 H 0.92054 0.36492 0.14452 0.0
H2451 H 0.92481 0.31737 0.12098 0.0
H2452 H 0.86828 0.31625 0.97997 0.0
H2453 H 0.86903 0.31078 0.03223 0.0
C2454 C 0.65255 0.551 0.16247 0.0
C2455 C 0.66225 0.56856 0.17571 0.0
C2456 C 0.64939 0.54919 0.13225 0.0
C2457 C 0.66287 0.55212 0.07007 0.0
H2458 H 0.65749 0.58655 0.02086 0.0
C2459 C 0.7038 0.58242 0.96639 0.0
C2460 C 0.69561 0.58536 0.94191 0.0
C2461 C 0.69385 0.57525 0.99198 0.0
C2462 C 0.65862 0.57654 0.03417 0.0
H2463 H 0.67452 0.59786 0.16805 0.0
H2464 H 0.66919 0.59473 0.11548 0.0
H2465 H 0.64894 0.58388 0.0725 0.0
H2466 H 0.67056 0.58286 0.92451 0.0
H2467 H 0.65307 0.5706 0.96993 0.0
H2468 H 0.67347 0.54552 0.03217 0.0
C2469 C 0.66398 0.58233 0.12833 0.0
C2470 C 0.65389 0.57514 0.06378 0.0
C2471 C 0.66716 0.58415 0.15853 0.0
C2472 C 0.67707 0.58049 0.94309 0.0
C2473 C 0.66714 0.5736 0.96902 0.0
C2474 C 0.66769 0.55361 0.04058 0.0
C2475 C 0.65581 0.56489 0.11467 0.0
C2476 C 0.65665 0.56344 0.08231 0.0
C2477 C 0.67556 0.57119 0.99384 0.0
C2478 C 0.66632 0.56638 0.02265 0.0
H2479 H 0.64837 0.53868 0.17512 0.0
H2480 H 0.64277 0.53555 0.12243 0.0
H2481 H 0.66531 0.54307 0.08369 0.0
H2482 H 0.7181 0.58615 0.96601 0.0
H2483 H 0.70079 0.5738 0.01086 0.0
C2484 C 0.54073 0.86824 0.09391 0.0
C2485 C 0.54553 0.88599 0.10395 0.0
C2486 C 0.54459 0.86549 0.06508 0.0
C2487 C 0.57526 0.88712 0.00444 0.0
H2488 H 0.534 0.85898 0.95224 0.0
C2489 C 0.58223 0.89465 0.87919 0.0
C2490 C 0.56955 0.88032 0.86108 0.0
C2491 C 0.58071 0.89312 0.90965 0.0
C2492 C 0.5458 0.86649 0.96645 0.0
H2493 H 0.55866 0.91482 0.09214 0.0
H2494 H 0.56588 0.91003 0.04219 0.0
H2495 H 0.52876 0.86003 0.00441 0.0
H2496 H 0.54644 0.85251 0.86032 0.0
H2497 H 0.54434 0.84931 0.91329 0.0
H2498 H 0.59243 0.89344 0.96693 0.0
C2499 C 0.55892 0.89827 0.05647 0.0
C2500 C 0.5427 0.86715 0.99638 0.0
C2501 C 0.55466 0.90096 0.08493 0.0
C2502 C 0.55614 0.86392 0.87384 0.0
C2503 C 0.55489 0.86217 0.90427 0.0
C2504 C 0.57843 0.88614 0.97461 0.0
C2505 C 0.55378 0.88052 0.04623 0.0
C2506 C 0.55736 0.87782 0.01545 0.0
C2507 C 0.56674 0.87699 0.92268 0.0
C2508 C 0.5637 0.8762 0.95501 0.0
H2509 H 0.53368 0.85647 0.10812 0.0
H2510 H 0.54047 0.85167 0.05751 0.0
H2511 H 0.58677 0.89537 0.01889 0.0
H2512 H 0.59262 0.9075 0.86983 0.0
H2513 H 0.58998 0.90497 0.92282 0.0
C2514 C 0.07951 0.65955 0.018 0.0
C2515 C 0.09599 0.66374 0.03218 0.0
C2516 C 0.07958 0.66444 0.98872 0.0
C2517 C 0.11157 0.69695 0.93368 0.0
H2518 H 0.07411 0.66584 0.87728 0.0
C2519 C 0.12214 0.70221 0.80944 0.0
C2520 C 0.1078 0.70016 0.79132 0.0
C2521 C 0.11978 0.70021 0.83966 0.0
C2522 C 0.08449 0.67481 0.89295 0.0
H2523 H 0.12525 0.67543 0.02612 0.0
H2524 H 0.12527 0.6832 0.97528 0.0
H2525 H 0.07139 0.65605 0.92819 0.0
H2526 H 0.08001 0.69519 0.79037 0.0
H2527 H 0.0757 0.69136 0.84358 0.0
H2528 H 0.12503 0.71532 0.89819 0.0
C2529 C 0.11237 0.67675 0.98689 0.0
C2530 C 0.08296 0.6692 0.92209 0.0
C2531 C 0.11232 0.67205 0.01608 0.0
C2532 C 0.09131 0.69696 0.80401 0.0
C2533 C 0.0888 0.6946 0.83431 0.0
C2534 C 0.11317 0.70245 0.90459 0.0
C2535 C 0.09611 0.67351 0.97305 0.0
C2536 C 0.09672 0.68001 0.94264 0.0
C2537 C 0.10291 0.69584 0.85231 0.0
C2538 C 0.09986 0.69127 0.88381 0.0
H2539 H 0.0667 0.65325 0.02986 0.0
H2540 H 0.0668 0.66175 0.97874 0.0
H2541 H 0.12215 0.70589 0.9491 0.0
H2542 H 0.13505 0.70489 0.80017 0.0
H2543 H 0.13087 0.70117 0.85297 0.0
C2544 C 0.34686 0.47749 0.98729 0.0
C2545 C 0.35593 0.46922 0.00055 0.0
C2546 C 0.34413 0.4764 0.95709 0.0
C2547 C 0.32716 0.45893 0.89921 0.0
H2548 H 0.36209 0.46276 0.84056 0.0
C2549 C 0.30493 0.4351 0.78065 0.0
C2550 C 0.31618 0.4465 0.75818 0.0
C2551 C 0.31097 0.43839 0.80969 0.0
C2552 C 0.35224 0.46178 0.8567 0.0
H2553 H 0.37001 0.45398 0.99219 0.0
H2554 H 0.36497 0.45182 0.93916 0.0
H2555 H 0.37139 0.46867 0.89217 0.0
H2556 H 0.34277 0.47023 0.74875 0.0
H2557 H 0.35321 0.47606 0.79967 0.0
H2558 H 0.30808 0.45225 0.86404 0.0
C2559 C 0.36014 0.45933 0.95227 0.0
C2560 C 0.35752 0.46499 0.88624 0.0
C2561 C 0.36298 0.46052 0.98265 0.0
C2562 C 0.33372 0.46119 0.7655 0.0
C2563 C 0.33977 0.46447 0.79464 0.0
C2564 C 0.32191 0.45569 0.86984 0.0
C2565 C 0.35023 0.46683 0.9393 0.0
C2566 C 0.34502 0.46365 0.9078 0.0
C2567 C 0.32839 0.45318 0.81708 0.0
C2568 C 0.33433 0.45699 0.84823 0.0
H2569 H 0.34123 0.48429 0.00025 0.0
H2570 H 0.33679 0.48266 0.94772 0.0
H2571 H 0.3171 0.45749 0.91528 0.0
H2572 H 0.2914 0.42358 0.77588 0.0
H2573 H 0.30197 0.42925 0.8264 0.0
C2574 C 0.06088 0.43753 0.5224 0.0
C2575 C 0.06834 0.43217 0.54521 0.0
C2576 C 0.06175 0.4326 0.49345 0.0
C2577 C 0.06037 0.41685 0.43332 0.0
H2578 H 0.10624 0.41978 0.41196 0.0
C2579 C 0.09149 0.43238 0.31662 0.0
C2580 C 0.09933 0.42197 0.30675 0.0
C2581 C 0.08479 0.43034 0.3452 0.0
C2582 C 0.09325 0.41868 0.41763 0.0
H2583 H 0.08139 0.4163 0.55576 0.0
H2584 H 0.08235 0.40711 0.50521 0.0
H2585 H 0.09959 0.4215 0.46327 0.0
H2586 H 0.10558 0.40072 0.31875 0.0
H2587 H 0.09415 0.39742 0.36854 0.0
H2588 H 0.05462 0.41502 0.38724 0.0
C2589 C 0.07636 0.41566 0.50961 0.0
C2590 C 0.08936 0.41955 0.4471 0.0
C2591 C 0.07568 0.42079 0.53863 0.0
C2592 C 0.09973 0.40904 0.32566 0.0
C2593 C 0.09323 0.40716 0.35423 0.0
C2594 C 0.06441 0.41626 0.40377 0.0
C2595 C 0.06989 0.42197 0.48654 0.0
C2596 C 0.07298 0.41891 0.45537 0.0
C2597 C 0.086 0.418 0.36445 0.0
C2598 C 0.08098 0.41737 0.39566 0.0
H2599 H 0.0551 0.44629 0.52666 0.0
H2600 H 0.05684 0.43796 0.47642 0.0
H2601 H 0.04746 0.41595 0.43883 0.0
H2602 H 0.09094 0.44241 0.30254 0.0
H2603 H 0.07936 0.43894 0.35262 0.0
C2604 C 0.57118 0.64864 0.31748 0.0
C2605 C 0.58506 0.65561 0.29642 0.0
C2606 C 0.57278 0.6589 0.3426 0.0
C2607 C 0.60597 0.68743 0.39444 0.0
H2608 H 0.56565 0.69097 0.42816 0.0
C2609 C 0.59808 0.69087 0.51985 0.0
C2610 C 0.58073 0.67673 0.52857 0.0
C2611 C 0.60136 0.69605 0.49032 0.0
C2612 C 0.57717 0.69032 0.41902 0.0
H2613 H 0.61129 0.67885 0.2844 0.0
H2614 H 0.61453 0.69663 0.32947 0.0
H2615 H 0.56599 0.68565 0.37558 0.0
H2616 H 0.55298 0.65777 0.51379 0.0
H2617 H 0.55859 0.66666 0.46306 0.0
H2618 H 0.61622 0.69023 0.43821 0.0
C2619 C 0.60222 0.68343 0.326 0.0
C2620 C 0.57738 0.68737 0.38894 0.0
C2621 C 0.60035 0.67331 0.30034 0.0
C2622 C 0.56656 0.66859 0.50773 0.0
C2623 C 0.56972 0.67389 0.4786 0.0
C2624 C 0.60565 0.69016 0.42466 0.0
C2625 C 0.58854 0.67614 0.3475 0.0
C2626 C 0.59128 0.68495 0.37666 0.0
C2627 C 0.58721 0.68741 0.46934 0.0
C2628 C 0.59067 0.69053 0.43743 0.0
H2629 H 0.5593 0.635 0.3149 0.0
H2630 H 0.56216 0.65288 0.35903 0.0
H2631 H 0.61679 0.68551 0.38545 0.0
H2632 H 0.60924 0.69738 0.53554 0.0
H2633 H 0.61499 0.70651 0.4838 0.0
C2634 C 0.34187 0.93086 0.30029 0.0
C2635 C 0.32303 0.92167 0.29381 0.0
C2636 C 0.34805 0.93614 0.3291 0.0
C2637 C 0.3556 0.93154 0.39209 0.0
H2638 H 0.32969 0.94349 0.45049 0.0
C2639 C 0.37661 0.94191 0.51353 0.0
C2640 C 0.36236 0.93121 0.53304 0.0
C2641 C 0.37276 0.94393 0.48455 0.0
C2642 C 0.33702 0.94016 0.43436 0.0
H2643 H 0.29598 0.91175 0.31221 0.0
H2644 H 0.30661 0.92032 0.36222 0.0
H2645 H 0.32208 0.94279 0.39868 0.0
H2646 H 0.33284 0.91487 0.53776 0.0
H2647 H 0.3261 0.91855 0.48693 0.0
H2648 H 0.37052 0.92893 0.42782 0.0
C2649 C 0.31674 0.92384 0.3452 0.0
C2650 C 0.33267 0.93971 0.40471 0.0
C2651 C 0.3106 0.91877 0.31642 0.0
C2652 C 0.34411 0.92313 0.52322 0.0
C2653 C 0.34025 0.92532 0.49421 0.0
C2654 C 0.3601 0.93223 0.42165 0.0
C2655 C 0.3355 0.93214 0.35207 0.0
C2656 C 0.34164 0.93501 0.38322 0.0
C2657 C 0.35457 0.93546 0.4745 0.0
C2658 C 0.35064 0.93622 0.4431 0.0
H2659 H 0.3518 0.93346 0.28328 0.0
H2660 H 0.36264 0.9429 0.33347 0.0
H2661 H 0.36257 0.9275 0.37637 0.0
H2662 H 0.39082 0.94839 0.52041 0.0
H2663 H 0.38403 0.95195 0.46987 0.0
loop_
_geom_bond_atom_site_label_1
_geom_bond_atom_site_label_2
_geom_bond_distance
_geom_bond_site_symmetry_2
_ccdc_geom_bond_type
Mg0 O1 2.028 . S
Mg0 O7 1.986 . S
Mg0 O9 2.114 . S
Mg0 O10 2.251 . S
Mg0 O13 2.010 . S
O1 Mg0 2.028 . S
O1 C4 1.250 . S
O2 Mg3 2.028 . S
O2 C4 1.248 . S
Mg3 O2 2.028 . S
Mg3 O8 2.032 . S
Mg3 O10 2.079 . S
C4 O1 1.250 . S
C4 O2 1.248 . S
C5 O6 1.264 . S
C5 O13 1.249 . S
O6 C5 1.264 . S
O7 Mg0 1.986 . S
O7 C11 1.246 . S
O8 Mg3 2.032 . S
O8 C11 1.259 . S
O9 Mg0 2.114 . S
O9 C12 1.252 . S
O10 Mg0 2.251 . S
O10 Mg3 2.079 . S
O10 C12 1.273 . S
C11 O7 1.246 . S
C11 O8 1.259 . S
C12 O9 1.252 . S
C12 O10 1.273 . S
O13 Mg0 2.010 . S
O13 C5 1.249 . S
Mg14 O15 2.028 . S
Mg14 O21 2.003 . S
Mg14 O23 2.114 . S
Mg14 O24 2.251 . S
Mg14 O27 2.010 . S
O15 Mg14 2.028 . S
O15 C18 1.250 . S
O16 Mg17 2.028 . S
O16 C18 1.248 . S
Mg17 O16 2.028 . S
Mg17 O22 2.032 1_545 S
Mg17 O24 2.079 . S
C18 O15 1.250 . S
C18 O16 1.248 . S
C19 O20 1.264 . S
C19 O27 1.249 . S
O20 C19 1.264 . S
O21 Mg14 2.003 . S
O21 C25 1.228 1_545 S
O22 Mg17 2.032 1_565 S
O22 C25 1.259 . S
O23 Mg14 2.114 . S
O23 C26 1.252 . S
O24 Mg14 2.251 . S
O24 Mg17 2.079 . S
O24 C26 1.273 . S
C25 O21 1.228 1_565 S
C25 O22 1.259 . S
C26 O23 1.252 . S
C26 O24 1.273 . S
O27 Mg14 2.010 . S
O27 C19 1.249 . S
Mg28 O29 2.028 . S
Mg28 O35 1.986 . S
Mg28 O37 2.114 . S
Mg28 O38 2.251 . S
Mg28 O41 2.010 1_655 S
O29 Mg28 2.028 . S
O29 C32 1.250 . S
O30 Mg31 2.028 . S
O30 C32 1.248 . S
Mg31 O30 2.028 . S
Mg31 O36 2.032 . S
Mg31 O38 2.079 . S
C32 O29 1.250 . S
C32 O30 1.248 . S
C33 O34 1.264 1_554 S
C33 O41 1.249 . S
O34 C33 1.264 1_556 S
O35 Mg28 1.986 . S
O35 C39 1.246 . S
O36 Mg31 2.032 . S
O36 C39 1.259 . S
O37 Mg28 2.114 . S
O37 C40 1.252 . S
O38 Mg28 2.251 . S
O38 Mg31 2.079 . S
O38 C40 1.273 . S
C39 O35 1.246 . S
C39 O36 1.259 . S
C40 O37 1.252 . S
C40 O38 1.273 . S
O41 Mg28 2.010 1_455 S
O41 C33 1.249 . S
Mg42 O43 2.028 . S
Mg42 O49 1.986 . S
Mg42 O51 2.114 . S
Mg42 O52 2.251 . S
Mg42 O55 2.010 . S
O43 Mg42 2.028 . S
O43 C46 1.250 . S
O44 Mg45 2.028 . S
O44 C46 1.248 . S
Mg45 O44 2.028 . S
Mg45 O50 2.032 . S
Mg45 O52 2.079 . S
C46 O43 1.250 . S
C46 O44 1.248 . S
C47 O48 1.264 . S
C47 O55 1.249 . S
O48 C47 1.264 . S
O49 Mg42 1.986 . S
O49 C53 1.246 . S
O50 Mg45 2.032 . S
O50 C53 1.259 . S
O51 Mg42 2.114 . S
O51 C54 1.252 . S
O52 Mg42 2.251 . S
O52 Mg45 2.079 . S
O52 C54 1.273 . S
C53 O49 1.246 . S
C53 O50 1.259 . S
C54 O51 1.252 . S
C54 O52 1.273 . S
O55 Mg42 2.010 . S
O55 C47 1.249 . S
Mg56 O57 2.028 . S
Mg56 O63 1.986 1_565 S
Mg56 O65 2.114 . S
Mg56 O66 2.255 1_565 S
Mg56 O69 2.010 . S
O57 Mg56 2.028 . S
O57 C60 1.250 . S
O58 Mg59 2.028 1_565 S
O58 C60 1.248 . S
Mg59 O58 2.028 1_545 S
Mg59 O64 2.032 . S
Mg59 O66 2.069 . S
C60 O57 1.250 . S
C60 O58 1.248 . S
C61 O62 1.264 . S
C61 O69 1.249 . S
O62 C61 1.264 . S
O63 Mg56 1.986 1_545 S
O63 C67 1.246 . S
O64 Mg59 2.032 . S
O64 C67 1.259 . S
O65 Mg56 2.114 . S
O65 C68 1.252 . S
O66 Mg56 2.255 1_545 S
O66 Mg59 2.069 . S
O66 C68 1.273 1_545 S
C67 O63 1.246 . S
C67 O64 1.259 . S
C68 O65 1.252 . S
C68 O66 1.273 1_565 S
O69 Mg56 2.010 . S
O69 C61 1.249 . S
Mg70 O71 2.028 . S
Mg70 O77 1.986 1_455 S
Mg70 O79 2.114 . S
Mg70 O80 2.251 . S
Mg70 O83 2.010 . S
O71 Mg70 2.028 . S
O71 C74 1.250 . S
O72 Mg73 2.028 . S
O72 C74 1.248 . S
Mg73 O72 2.028 . S
Mg73 O78 2.032 1_455 S
Mg73 O80 2.079 . S
C74 O71 1.250 . S
C74 O72 1.248 . S
C75 O76 1.264 . S
C75 O83 1.249 . S
O76 C75 1.264 . S
O77 Mg70 1.986 1_655 S
O77 C81 1.246 . S
O78 Mg73 2.032 1_655 S
O78 C81 1.259 . S
O79 Mg70 2.114 . S
O79 C82 1.252 . S
O80 Mg70 2.251 . S
O80 Mg73 2.079 . S
O80 C82 1.273 . S
C81 O77 1.246 . S
C81 O78 1.259 . S
C82 O79 1.252 . S
C82 O80 1.273 . S
O83 Mg70 2.010 . S
O83 C75 1.249 . S
Mg84 O85 2.028 . S
Mg84 O91 1.986 . S
Mg84 O93 2.114 . S
Mg84 O94 2.251 . S
Mg84 O97 2.010 . S
O85 Mg84 2.028 . S
O85 C88 1.250 . S
O86 Mg87 2.028 . S
O86 C88 1.248 1_554 S
Mg87 O86 2.028 . S
Mg87 O92 2.032 . S
Mg87 O94 2.079 1_554 S
C88 O85 1.250 . S
C88 O86 1.248 1_556 S
C89 O90 1.264 . S
C89 O97 1.249 . S
O90 C89 1.264 . S
O91 Mg84 1.986 . S
O91 C95 1.246 . S
O92 Mg87 2.032 . S
O92 C95 1.259 1_554 S
O93 Mg84 2.114 . S
O93 C96 1.252 . S
O94 Mg84 2.251 . S
O94 Mg87 2.079 1_556 S
O94 C96 1.273 . S
C95 O91 1.246 . S
C95 O92 1.259 1_556 S
C96 O93 1.252 . S
C96 O94 1.273 . S
O97 Mg84 2.010 . S
O97 C89 1.249 . S
Mg98 O99 2.028 1_565 S
Mg98 O105 1.986 . S
Mg98 O107 2.114 . S
Mg98 O108 2.251 . S
Mg98 O111 2.010 . S
O99 Mg98 2.028 1_545 S
O99 C102 1.250 . S
O100 Mg101 2.028 1_545 S
O100 C102 1.248 1_554 S
Mg101 O100 2.028 1_565 S
Mg101 O106 2.032 . S
Mg101 O108 2.079 1_554 S
C102 O99 1.250 . S
C102 O100 1.248 1_556 S
C103 O104 1.264 . S
C103 O111 1.249 . S
O104 C103 1.264 . S
O105 Mg98 1.986 . S
O105 C109 1.246 1_556 S
O106 Mg101 2.032 . S
O106 C109 1.259 . S
O107 Mg98 2.114 . S
O107 C110 1.252 . S
O108 Mg98 2.251 . S
O108 Mg101 2.079 1_556 S
O108 C110 1.273 . S
C109 O105 1.246 1_554 S
C109 O106 1.259 . S
C110 O107 1.252 . S
C110 O108 1.273 . S
O111 Mg98 2.010 . S
O111 C103 1.249 . S
Mg112 O113 2.049 . S
Mg112 O119 1.986 . S
Mg112 O121 2.114 . S
Mg112 O122 2.251 . S
Mg112 O125 2.010 . S
O113 Mg112 2.049 . S
O113 C116 1.243 1_455 S
O114 Mg115 2.001 1_655 S
O114 C116 1.266 1_554 S
Mg115 O114 2.001 1_455 S
Mg115 O120 2.032 . S
Mg115 O122 2.079 1_554 S
C116 O113 1.243 1_655 S
C116 O114 1.266 1_556 S
C117 O118 1.264 . S
C117 O125 1.249 . S
O118 C117 1.264 . S
O119 Mg112 1.986 . S
O119 C123 1.246 1_556 S
O120 Mg115 2.032 . S
O120 C123 1.259 . S
O121 Mg112 2.114 . S
O121 C124 1.252 . S
O122 Mg112 2.251 . S
O122 Mg115 2.079 1_556 S
O122 C124 1.273 . S
C123 O119 1.246 1_554 S
C123 O120 1.259 . S
C124 O121 1.252 . S
C124 O122 1.273 . S
O125 Mg112 2.010 . S
O125 C117 1.249 . S
Mg126 O127 2.028 . S
Mg126 O133 1.986 . S
Mg126 O135 2.114 . S
Mg126 O136 2.251 . S
Mg126 O139 2.010 . S
O127 Mg126 2.028 . S
O127 C130 1.250 . S
O128 Mg129 2.028 . S
O128 C130 1.248 . S
Mg129 O128 2.028 . S
Mg129 O134 2.032 . S
Mg129 O136 2.079 . S
C130 O127 1.250 . S
C130 O128 1.248 . S
C131 O132 1.264 . S
C131 O139 1.249 . S
O132 C131 1.264 . S
O133 Mg126 1.986 . S
O133 C137 1.246 . S
O134 Mg129 2.032 . S
O134 C137 1.259 . S
O135 Mg126 2.114 . S
O135 C138 1.252 . S
O136 Mg126 2.251 . S
O136 Mg129 2.079 . S
O136 C138 1.273 . S
C137 O133 1.246 . S
C137 O134 1.259 . S
C138 O135 1.252 . S
C138 O136 1.273 . S
O139 Mg126 2.010 . S
O139 C131 1.249 . S
Mg140 O141 2.028 . S
Mg140 O147 1.986 . S
Mg140 O149 2.114 . S
Mg140 O150 2.251 . S
Mg140 O153 2.010 . S
O141 Mg140 2.028 . S
O141 C144 1.250 1_545 S
O142 Mg143 2.028 . S
O142 C144 1.248 1_545 S
Mg143 O142 2.028 . S
Mg143 O148 2.032 . S
Mg143 O150 2.079 . S
C144 O141 1.250 1_565 S
C144 O142 1.248 1_565 S
C145 O146 1.264 . S
C145 O153 1.249 . S
O146 C145 1.264 . S
O147 Mg140 1.986 . S
O147 C151 1.246 . S
O148 Mg143 2.032 . S
O148 C151 1.259 . S
O149 Mg140 2.114 . S
O149 C152 1.252 . S
O150 Mg140 2.251 . S
O150 Mg143 2.079 . S
O150 C152 1.273 . S
C151 O147 1.246 . S
C151 O148 1.259 . S
C152 O149 1.252 . S
C152 O150 1.273 . S
O153 Mg140 2.010 . S
O153 C145 1.249 . S
Mg154 O155 2.028 1_655 S
Mg154 O161 1.986 . S
Mg154 O163 2.114 . S
Mg154 O164 2.251 . S
Mg154 O167 2.010 . S
O155 Mg154 2.028 1_455 S
O155 C158 1.250 . S
O156 Mg157 2.028 1_455 S
O156 C158 1.248 . S
Mg157 O156 2.028 1_655 S
Mg157 O162 2.032 . S
Mg157 O164 2.079 . S
C158 O155 1.250 . S
C158 O156 1.248 . S
C159 O160 1.264 . S
C159 O167 1.249 . S
O160 C159 1.264 . S
O161 Mg154 1.986 . S
O161 C165 1.246 . S
O162 Mg157 2.032 . S
O162 C165 1.259 . S
O163 Mg154 2.114 . S
O163 C166 1.252 . S
O164 Mg154 2.251 . S
O164 Mg157 2.079 . S
O164 C166 1.273 . S
C165 O161 1.246 . S
C165 O162 1.259 . S
C166 O163 1.252 . S
C166 O164 1.273 . S
O167 Mg154 2.010 . S
O167 C159 1.249 . S
Mg168 O169 2.028 . S
Mg168 O175 1.986 . S
Mg168 O177 2.114 . S
Mg168 O178 2.251 . S
Mg168 O181 2.010 . S
O169 Mg168 2.028 . S
O169 C172 1.250 . S
O170 Mg171 2.028 . S
O170 C172 1.248 . S
Mg171 O170 2.028 . S
Mg171 O176 2.032 . S
Mg171 O178 2.079 . S
C172 O169 1.250 . S
C172 O170 1.248 . S
C173 O174 1.264 . S
C173 O181 1.249 . S
O174 C173 1.264 . S
O175 Mg168 1.986 . S
O175 C179 1.246 . S
O176 Mg171 2.032 . S
O176 C179 1.259 . S
O177 Mg168 2.114 . S
O177 C180 1.252 . S
O178 Mg168 2.251 . S
O178 Mg171 2.079 . S
O178 C180 1.273 . S
C179 O175 1.246 . S
C179 O176 1.259 . S
C180 O177 1.252 . S
C180 O178 1.273 . S
O181 Mg168 2.010 . S
O181 C173 1.249 . S
Mg182 O183 2.028 . S
Mg182 O189 1.986 . S
Mg182 O191 2.114 . S
Mg182 O192 2.251 . S
Mg182 O195 2.010 . S
O183 Mg182 2.028 . S
O183 C186 1.250 . S
O184 Mg185 2.028 . S
O184 C186 1.248 . S
Mg185 O184 2.028 . S
Mg185 O190 2.032 . S
Mg185 O192 2.079 . S
C186 O183 1.250 . S
C186 O184 1.248 . S
C187 O188 1.264 . S
C187 O195 1.249 . S
O188 C187 1.264 . S
O189 Mg182 1.986 . S
O189 C193 1.246 . S
O190 Mg185 2.032 . S
O190 C193 1.259 . S
O191 Mg182 2.114 . S
O191 C194 1.252 . S
O192 Mg182 2.251 . S
O192 Mg185 2.079 . S
O192 C194 1.273 . S
C193 O189 1.246 . S
C193 O190 1.259 . S
C194 O191 1.252 . S
C194 O192 1.273 . S
O195 Mg182 2.010 . S
O195 C187 1.249 . S
Mg196 O197 2.028 . S
Mg196 O203 1.986 . S
Mg196 O205 2.114 . S
Mg196 O206 2.251 . S
Mg196 O209 2.010 . S
O197 Mg196 2.028 . S
O197 C200 1.250 . S
O198 Mg199 2.028 . S
O198 C200 1.248 . S
Mg199 O198 2.028 . S
Mg199 O204 2.032 . S
Mg199 O206 2.079 . S
C200 O197 1.250 . S
C200 O198 1.248 . S
C201 O202 1.264 . S
C201 O209 1.249 . S
O202 C201 1.264 . S
O203 Mg196 1.986 . S
O203 C207 1.246 . S
O204 Mg199 2.032 . S
O204 C207 1.259 . S
O205 Mg196 2.114 . S
O205 C208 1.252 . S
O206 Mg196 2.251 . S
O206 Mg199 2.079 . S
O206 C208 1.273 . S
C207 O203 1.246 . S
C207 O204 1.259 . S
C208 O205 1.252 . S
C208 O206 1.273 . S
O209 Mg196 2.010 . S
O209 C201 1.249 . S
Mg210 O211 2.028 . S
Mg210 O217 1.986 . S
Mg210 O219 2.114 . S
Mg210 O220 2.251 . S
Mg210 O223 2.010 . S
O211 Mg210 2.028 . S
O211 C214 1.250 . S
O212 Mg213 2.028 . S
O212 C214 1.248 . S
Mg213 O212 2.028 . S
Mg213 O218 2.032 . S
Mg213 O220 2.079 . S
C214 O211 1.250 . S
C214 O212 1.248 . S
C215 O216 1.264 . S
C215 O223 1.249 . S
O216 C215 1.264 . S
O217 Mg210 1.986 . S
O217 C221 1.246 . S
O218 Mg213 2.032 . S
O218 C221 1.259 . S
O219 Mg210 2.114 . S
O219 C222 1.252 . S
O220 Mg210 2.251 . S
O220 Mg213 2.079 . S
O220 C222 1.273 . S
C221 O217 1.246 . S
C221 O218 1.259 . S
C222 O219 1.252 . S
C222 O220 1.273 . S
O223 Mg210 2.010 . S
O223 C215 1.249 . S
Mg224 O225 2.028 . S
Mg224 O231 1.986 . S
Mg224 O233 2.114 . S
Mg224 O234 2.251 . S
Mg224 O237 2.010 . S
O225 Mg224 2.028 . S
O225 C228 1.250 . S
O226 Mg227 2.028 . S
O226 C228 1.248 . S
Mg227 O226 2.028 . S
Mg227 O232 2.032 . S
Mg227 O234 2.079 . S
C228 O225 1.250 . S
C228 O226 1.248 . S
C229 O230 1.264 . S
C229 O237 1.249 . S
O230 C229 1.264 . S
O231 Mg224 1.986 . S
O231 C235 1.246 . S
O232 Mg227 2.032 . S
O232 C235 1.259 . S
O233 Mg224 2.114 . S
O233 C236 1.252 . S
O234 Mg224 2.251 . S
O234 Mg227 2.079 . S
O234 C236 1.273 . S
C235 O231 1.246 . S
C235 O232 1.259 . S
C236 O233 1.252 . S
C236 O234 1.273 . S
O237 Mg224 2.010 . S
O237 C229 1.249 . S
Mg238 O239 2.028 . S
Mg238 O245 1.986 . S
Mg238 O247 2.114 . S
Mg238 O248 2.251 . S
Mg238 O251 2.010 . S
O239 Mg238 2.028 . S
O239 C242 1.250 . S
O240 Mg241 2.028 . S
O240 C242 1.248 . S
Mg241 O240 2.028 . S
Mg241 O246 2.032 . S
Mg241 O248 2.079 . S
C242 O239 1.250 . S
C242 O240 1.248 . S
C243 O244 1.264 . S
C243 O251 1.249 . S
O244 C243 1.264 . S
O245 Mg238 1.986 . S
O245 C249 1.246 . S
O246 Mg241 2.032 . S
O246 C249 1.259 . S
O247 Mg238 2.114 . S
O247 C250 1.252 . S
O248 Mg238 2.251 . S
O248 Mg241 2.079 . S
O248 C250 1.273 . S
C249 O245 1.246 . S
C249 O246 1.259 . S
C250 O247 1.252 . S
C250 O248 1.273 . S
O251 Mg238 2.010 . S
O251 C243 1.249 . S
Mg252 O253 2.028 . S
Mg252 O259 1.986 . S
Mg252 O261 2.114 . S
Mg252 O262 2.251 . S
Mg252 O265 2.010 . S
O253 Mg252 2.028 . S
O253 C256 1.250 . S
O254 Mg255 2.028 . S
O254 C256 1.248 . S
Mg255 O254 2.028 . S
Mg255 O260 2.032 . S
Mg255 O262 2.079 . S
C256 O253 1.250 . S
C256 O254 1.248 . S
C257 O258 1.264 . S
C257 O265 1.249 . S
O258 C257 1.264 . S
O259 Mg252 1.986 . S
O259 C263 1.246 . S
O260 Mg255 2.032 . S
O260 C263 1.259 . S
O261 Mg252 2.114 . S
O261 C264 1.252 . S
O262 Mg252 2.251 . S
O262 Mg255 2.079 . S
O262 C264 1.273 . S
C263 O259 1.246 . S
C263 O260 1.259 . S
C264 O261 1.252 . S
C264 O262 1.273 . S
O265 Mg252 2.010 . S
O265 C257 1.249 . S
Mg266 O267 2.028 . S
Mg266 O273 1.986 . S
Mg266 O275 2.114 . S
Mg266 O276 2.251 . S
Mg266 O279 2.010 . S
O267 Mg266 2.028 . S
O267 C270 1.250 . S
O268 Mg269 2.028 . S
O268 C270 1.248 . S
Mg269 O268 2.028 . S
Mg269 O274 2.032 . S
Mg269 O276 2.079 . S
C270 O267 1.250 . S
C270 O268 1.248 . S
C271 O272 1.264 . S
C271 O279 1.249 . S
O272 C271 1.264 . S
O273 Mg266 1.986 . S
O273 C277 1.246 . S
O274 Mg269 2.032 . S
O274 C277 1.259 . S
O275 Mg266 2.114 . S
O275 C278 1.252 . S
O276 Mg266 2.251 . S
O276 Mg269 2.079 . S
O276 C278 1.273 . S
C277 O273 1.246 . S
C277 O274 1.259 . S
C278 O275 1.252 . S
C278 O276 1.273 . S
O279 Mg266 2.010 . S
O279 C271 1.249 . S
Mg280 O281 2.028 . S
Mg280 O287 1.986 . S
Mg280 O289 2.114 . S
Mg280 O290 2.251 . S
Mg280 O293 2.010 . S
O281 Mg280 2.028 . S
O281 C284 1.250 . S
O282 Mg283 2.028 . S
O282 C284 1.248 . S
Mg283 O282 2.028 . S
Mg283 O288 2.032 . S
Mg283 O290 2.079 . S
C284 O281 1.250 . S
C284 O282 1.248 . S
C285 O286 1.264 . S
C285 O293 1.249 . S
O286 C285 1.264 . S
O287 Mg280 1.986 . S
O287 C291 1.246 . S
O288 Mg283 2.032 . S
O288 C291 1.259 . S
O289 Mg280 2.114 . S
O289 C292 1.252 . S
O290 Mg280 2.251 . S
O290 Mg283 2.079 . S
O290 C292 1.273 . S
C291 O287 1.246 . S
C291 O288 1.259 . S
C292 O289 1.252 . S
C292 O290 1.273 . S
O293 Mg280 2.010 . S
O293 C285 1.249 . S
Mg294 O295 2.028 . S
Mg294 O301 1.986 . S
Mg294 O303 2.114 . S
Mg294 O304 2.251 . S
Mg294 O307 2.010 . S
O295 Mg294 2.028 . S
O295 C298 1.250 . S
O296 Mg297 2.028 . S
O296 C298 1.248 . S
Mg297 O296 2.028 . S
Mg297 O302 2.032 . S
Mg297 O304 2.079 . S
C298 O295 1.250 . S
C298 O296 1.248 . S
C299 O300 1.264 . S
C299 O307 1.249 . S
O300 C299 1.264 . S
O301 Mg294 1.986 . S
O301 C305 1.246 . S
O302 Mg297 2.032 . S
O302 C305 1.259 . S
O303 Mg294 2.114 . S
O303 C306 1.252 . S
O304 Mg294 2.251 . S
O304 Mg297 2.079 . S
O304 C306 1.273 . S
C305 O301 1.246 . S
C305 O302 1.259 . S
C306 O303 1.252 . S
C306 O304 1.273 . S
O307 Mg294 2.010 . S
O307 C299 1.249 . S
Mg308 O309 2.028 . S
Mg308 O315 1.986 . S
Mg308 O317 2.114 . S
Mg308 O318 2.251 . S
Mg308 O321 2.010 . S
O309 Mg308 2.028 . S
O309 C312 1.250 . S
O310 Mg311 2.028 . S
O310 C312 1.248 . S
Mg311 O310 2.028 . S
Mg311 O316 2.032 . S
Mg311 O318 2.079 . S
C312 O309 1.250 . S
C312 O310 1.248 . S
C313 O314 1.264 . S
C313 O321 1.249 . S
O314 C313 1.264 . S
O315 Mg308 1.986 . S
O315 C319 1.246 . S
O316 Mg311 2.032 . S
O316 C319 1.259 . S
O317 Mg308 2.114 . S
O317 C320 1.252 . S
O318 Mg308 2.251 . S
O318 Mg311 2.079 . S
O318 C320 1.273 . S
C319 O315 1.246 . S
C319 O316 1.259 . S
C320 O317 1.252 . S
C320 O318 1.273 . S
O321 Mg308 2.010 . S
O321 C313 1.249 . S
Mg322 O323 2.028 . S
Mg322 O329 1.986 . S
Mg322 O331 2.114 . S
Mg322 O332 2.251 . S
Mg322 O335 2.010 . S
O323 Mg322 2.028 . S
O323 C326 1.250 . S
O324 Mg325 2.028 . S
O324 C326 1.248 . S
Mg325 O324 2.028 . S
Mg325 O330 2.032 . S
Mg325 O332 2.079 . S
C326 O323 1.250 . S
C326 O324 1.248 . S
C327 O328 1.264 . S
C327 O335 1.249 . S
O328 C327 1.264 . S
O329 Mg322 1.986 . S
O329 C333 1.246 . S
O330 Mg325 2.032 . S
O330 C333 1.259 . S
O331 Mg322 2.114 . S
O331 C334 1.252 . S
O332 Mg322 2.251 . S
O332 Mg325 2.079 . S
O332 C334 1.273 . S
C333 O329 1.246 . S
C333 O330 1.259 . S
C334 O331 1.252 . S
C334 O332 1.273 . S
O335 Mg322 2.010 . S
O335 C327 1.249 . S
Mg336 O337 2.028 . S
Mg336 O343 1.986 . S
Mg336 O345 2.114 . S
Mg336 O346 2.251 . S
Mg336 O349 2.010 . S
O337 Mg336 2.028 . S
O337 C340 1.250 . S
O338 Mg339 2.028 . S
O338 C340 1.248 . S
Mg339 O338 2.028 . S
Mg339 O344 2.032 . S
Mg339 O346 2.079 . S
C340 O337 1.250 . S
C340 O338 1.248 . S
C341 O342 1.264 . S
C341 O349 1.249 . S
O342 C341 1.264 . S
O343 Mg336 1.986 . S
O343 C347 1.246 . S
O344 Mg339 2.032 . S
O344 C347 1.259 . S
O345 Mg336 2.114 . S
O345 C348 1.252 . S
O346 Mg336 2.251 . S
O346 Mg339 2.079 . S
O346 C348 1.273 . S
C347 O343 1.246 . S
C347 O344 1.259 . S
C348 O345 1.252 . S
C348 O346 1.273 . S
O349 Mg336 2.010 . S
O349 C341 1.249 . S
Mg350 O351 2.028 . S
Mg350 O357 1.986 . S
Mg350 O359 2.114 . S
Mg350 O360 2.251 . S
Mg350 O363 2.010 . S
O351 Mg350 2.028 . S
O351 C354 1.250 . S
O352 Mg353 2.028 . S
O352 C354 1.248 . S
Mg353 O352 2.028 . S
Mg353 O358 2.032 . S
Mg353 O360 2.079 . S
C354 O351 1.250 . S
C354 O352 1.248 . S
C355 O356 1.264 . S
C355 O363 1.249 . S
O356 C355 1.264 . S
O357 Mg350 1.986 . S
O357 C361 1.246 . S
O358 Mg353 2.032 . S
O358 C361 1.259 . S
O359 Mg350 2.114 . S
O359 C362 1.252 . S
O360 Mg350 2.251 . S
O360 Mg353 2.079 . S
O360 C362 1.273 . S
C361 O357 1.246 . S
C361 O358 1.259 . S
C362 O359 1.252 . S
C362 O360 1.273 . S
O363 Mg350 2.010 . S
O363 C355 1.249 . S
Mg364 O365 2.028 . S
Mg364 O371 1.986 . S
Mg364 O373 2.114 . S
Mg364 O374 2.251 . S
Mg364 O377 2.010 . S
O365 Mg364 2.028 . S
O365 C368 1.250 . S
O366 Mg367 2.028 . S
O366 C368 1.248 . S
Mg367 O366 2.028 . S
Mg367 O372 2.032 . S
Mg367 O374 2.079 . S
C368 O365 1.250 . S
C368 O366 1.248 . S
C369 O370 1.264 . S
C369 O377 1.249 . S
O370 C369 1.264 . S
O371 Mg364 1.986 . S
O371 C375 1.246 . S
O372 Mg367 2.032 . S
O372 C375 1.259 . S
O373 Mg364 2.114 . S
O373 C376 1.252 . S
O374 Mg364 2.251 . S
O374 Mg367 2.079 . S
O374 C376 1.273 . S
C375 O371 1.246 . S
C375 O372 1.259 . S
C376 O373 1.252 . S
C376 O374 1.273 . S
O377 Mg364 2.010 . S
O377 C369 1.249 . S
Mg378 O379 2.028 . S
Mg378 O385 1.986 . S
Mg378 O387 2.114 . S
Mg378 O388 2.251 . S
Mg378 O391 2.010 . S
O379 Mg378 2.028 . S
O379 C382 1.250 . S
O380 Mg381 2.028 . S
O380 C382 1.248 . S
Mg381 O380 2.028 . S
Mg381 O386 2.032 . S
Mg381 O388 2.079 . S
C382 O379 1.250 . S
C382 O380 1.248 . S
C383 O384 1.264 . S
C383 O391 1.249 . S
O384 C383 1.264 . S
O385 Mg378 1.986 . S
O385 C389 1.246 . S
O386 Mg381 2.032 . S
O386 C389 1.259 . S
O387 Mg378 2.114 . S
O387 C390 1.252 . S
O388 Mg378 2.251 . S
O388 Mg381 2.079 . S
O388 C390 1.273 . S
C389 O385 1.246 . S
C389 O386 1.259 . S
C390 O387 1.252 . S
C390 O388 1.273 . S
O391 Mg378 2.010 . S
O391 C383 1.249 . S
Mg392 O393 2.028 . S
Mg392 O399 1.986 . S
Mg392 O401 2.114 . S
Mg392 O402 2.251 . S
Mg392 O405 2.010 . S
O393 Mg392 2.028 . S
O393 C396 1.250 . S
O394 Mg395 2.028 . S
O394 C396 1.248 . S
Mg395 O394 2.028 . S
Mg395 O400 2.032 . S
Mg395 O402 2.079 . S
C396 O393 1.250 . S
C396 O394 1.248 . S
C397 O398 1.264 . S
C397 O405 1.249 . S
O398 C397 1.264 . S
O399 Mg392 1.986 . S
O399 C403 1.246 . S
O400 Mg395 2.032 . S
O400 C403 1.259 . S
O401 Mg392 2.114 . S
O401 C404 1.252 . S
O402 Mg392 2.251 . S
O402 Mg395 2.079 . S
O402 C404 1.273 . S
C403 O399 1.246 . S
C403 O400 1.259 . S
C404 O401 1.252 . S
C404 O402 1.273 . S
O405 Mg392 2.010 . S
O405 C397 1.249 . S
Mg406 O407 2.028 . S
Mg406 O413 1.986 . S
Mg406 O415 2.114 . S
Mg406 O416 2.251 . S
Mg406 O419 2.010 . S
O407 Mg406 2.028 . S
O407 C410 1.250 . S
O408 Mg409 2.028 . S
O408 C410 1.248 . S
Mg409 O408 2.028 . S
Mg409 O414 2.032 . S
Mg409 O416 2.079 . S
C410 O407 1.250 . S
C410 O408 1.248 . S
C411 O412 1.264 . S
C411 O419 1.249 . S
O412 C411 1.264 . S
O413 Mg406 1.986 . S
O413 C417 1.246 . S
O414 Mg409 2.032 . S
O414 C417 1.259 . S
O415 Mg406 2.114 . S
O415 C418 1.252 . S
O416 Mg406 2.251 . S
O416 Mg409 2.079 . S
O416 C418 1.273 . S
C417 O413 1.246 . S
C417 O414 1.259 . S
C418 O415 1.252 . S
C418 O416 1.273 . S
O419 Mg406 2.010 . S
O419 C411 1.249 . S
Mg420 O421 2.028 . S
Mg420 O427 1.986 . S
Mg420 O429 2.114 . S
Mg420 O430 2.251 . S
Mg420 O433 2.010 . S
O421 Mg420 2.028 . S
O421 C424 1.250 . S
O422 Mg423 2.028 . S
O422 C424 1.248 . S
Mg423 O422 2.028 . S
Mg423 O428 2.032 . S
Mg423 O430 2.079 . S
C424 O421 1.250 . S
C424 O422 1.248 . S
C425 O426 1.264 . S
C425 O433 1.249 . S
O426 C425 1.264 . S
O427 Mg420 1.986 . S
O427 C431 1.246 . S
O428 Mg423 2.032 . S
O428 C431 1.259 . S
O429 Mg420 2.114 . S
O429 C432 1.252 . S
O430 Mg420 2.251 . S
O430 Mg423 2.079 . S
O430 C432 1.273 . S
C431 O427 1.246 . S
C431 O428 1.259 . S
C432 O429 1.252 . S
C432 O430 1.273 . S
O433 Mg420 2.010 . S
O433 C425 1.249 . S
Mg434 O435 2.028 . S
Mg434 O441 1.986 . S
Mg434 O443 2.114 . S
Mg434 O444 2.251 . S
Mg434 O447 2.010 . S
O435 Mg434 2.028 . S
O435 C438 1.250 . S
O436 Mg437 2.028 . S
O436 C438 1.248 . S
Mg437 O436 2.028 . S
Mg437 O442 2.032 . S
Mg437 O444 2.079 . S
C438 O435 1.250 . S
C438 O436 1.248 . S
C439 O440 1.264 . S
C439 O447 1.249 . S
O440 C439 1.264 . S
O441 Mg434 1.986 . S
O441 C445 1.246 . S
O442 Mg437 2.032 . S
O442 C445 1.259 . S
O443 Mg434 2.114 . S
O443 C446 1.252 . S
O444 Mg434 2.251 . S
O444 Mg437 2.079 . S
O444 C446 1.273 . S
C445 O441 1.246 . S
C445 O442 1.259 . S
C446 O443 1.252 . S
C446 O444 1.273 . S
O447 Mg434 2.010 . S
O447 C439 1.249 . S
Mg448 O449 2.028 . S
Mg448 O455 1.986 . S
Mg448 O457 2.114 . S
Mg448 O458 2.251 . S
Mg448 O461 2.010 . S
O449 Mg448 2.028 . S
O449 C452 1.250 . S
O450 Mg451 2.028 . S
O450 C452 1.248 . S
Mg451 O450 2.028 . S
Mg451 O456 2.032 . S
Mg451 O458 2.079 . S
C452 O449 1.250 . S
C452 O450 1.248 . S
C453 O454 1.264 . S
C453 O461 1.249 . S
O454 C453 1.264 . S
O455 Mg448 1.986 . S
O455 C459 1.246 . S
O456 Mg451 2.032 . S
O456 C459 1.259 . S
O457 Mg448 2.114 . S
O457 C460 1.252 . S
O458 Mg448 2.251 . S
O458 Mg451 2.079 . S
O458 C460 1.273 . S
C459 O455 1.246 . S
C459 O456 1.259 . S
C460 O457 1.252 . S
C460 O458 1.273 . S
O461 Mg448 2.010 . S
O461 C453 1.249 . S
Mg462 O463 2.028 . S
Mg462 O469 1.986 . S
Mg462 O471 2.114 . S
Mg462 O472 2.251 . S
Mg462 O475 2.010 . S
O463 Mg462 2.028 . S
O463 C466 1.250 . S
O464 Mg465 2.028 . S
O464 C466 1.248 . S
Mg465 O464 2.028 . S
Mg465 O470 2.032 . S
Mg465 O472 2.079 . S
C466 O463 1.250 . S
C466 O464 1.248 . S
C467 O468 1.264 . S
C467 O475 1.249 . S
O468 C467 1.264 . S
O469 Mg462 1.986 . S
O469 C473 1.246 . S
O470 Mg465 2.032 . S
O470 C473 1.259 . S
O471 Mg462 2.114 . S
O471 C474 1.252 . S
O472 Mg462 2.251 . S
O472 Mg465 2.079 . S
O472 C474 1.273 . S
C473 O469 1.246 . S
C473 O470 1.259 . S
C474 O471 1.252 . S
C474 O472 1.273 . S
O475 Mg462 2.010 . S
O475 C467 1.249 . S
Mg476 O477 2.028 . S
Mg476 O483 1.986 . S
Mg476 O485 2.114 . S
Mg476 O486 2.251 . S
Mg476 O489 2.010 . S
O477 Mg476 2.028 . S
O477 C480 1.250 . S
O478 Mg479 2.028 . S
O478 C480 1.248 . S
Mg479 O478 2.028 . S
Mg479 O484 2.032 . S
Mg479 O486 2.079 . S
C480 O477 1.250 . S
C480 O478 1.248 . S
C481 O482 1.264 . S
C481 O489 1.249 . S
O482 C481 1.264 . S
O483 Mg476 1.986 . S
O483 C487 1.246 . S
O484 Mg479 2.032 . S
O484 C487 1.259 . S
O485 Mg476 2.114 . S
O485 C488 1.252 . S
O486 Mg476 2.251 . S
O486 Mg479 2.079 . S
O486 C488 1.273 . S
C487 O483 1.246 . S
C487 O484 1.259 . S
C488 O485 1.252 . S
C488 O486 1.273 . S
O489 Mg476 2.010 . S
O489 C481 1.249 . S
Mg490 O491 2.028 . S
Mg490 O497 1.986 . S
Mg490 O499 2.114 . S
Mg490 O500 2.251 . S
Mg490 O503 2.010 . S
O491 Mg490 2.028 . S
O491 C494 1.250 . S
O492 Mg493 2.028 . S
O492 C494 1.248 . S
Mg493 O492 2.028 . S
Mg493 O498 2.032 . S
Mg493 O500 2.079 . S
C494 O491 1.250 . S
C494 O492 1.248 . S
C495 O496 1.264 . S
C495 O503 1.249 . S
O496 C495 1.264 . S
O497 Mg490 1.986 . S
O497 C501 1.246 . S
O498 Mg493 2.032 . S
O498 C501 1.259 . S
O499 Mg490 2.114 . S
O499 C502 1.252 . S
O500 Mg490 2.251 . S
O500 Mg493 2.079 . S
O500 C502 1.273 . S
C501 O497 1.246 . S
C501 O498 1.259 . S
C502 O499 1.252 . S
C502 O500 1.273 . S
O503 Mg490 2.010 . S
O503 C495 1.249 . S
C504 C505 1.349 . S
C504 C506 1.327 . S
C504 H529 0.950 . S
C505 C504 1.349 . S
C505 C521 1.349 . S
C506 C504 1.327 . S
C506 C525 1.429 . S
C506 H530 0.950 . S
C507 C524 1.574 . S
C507 C526 1.368 . S
C507 H531 0.949 . S
H508 C512 0.949 . S
C509 C510 1.349 . S
C509 C511 1.327 1_554 S
C509 H532 0.950 . S
C510 C509 1.349 . S
C510 C522 1.349 1_554 S
C511 C509 1.327 1_556 S
C511 C527 1.429 . S
C511 H533 0.950 1_556 S
C512 H508 0.949 . S
C512 C520 1.574 . S
C512 C528 1.368 . S
H513 C521 0.950 . S
H514 C519 0.950 . S
H515 C520 0.949 . S
H516 C522 0.950 . S
H517 C523 0.950 . S
H518 C524 0.949 . S
C519 H514 0.950 . S
C519 C521 1.327 . S
C519 C525 1.429 . S
C520 C512 1.574 . S
C520 H515 0.949 . S
C520 C526 1.368 . S
C521 C505 1.349 . S
C521 H513 0.950 . S
C521 C519 1.327 . S
C522 C510 1.349 1_556 S
C522 H516 0.950 . S
C522 C523 1.327 . S
C523 H517 0.950 . S
C523 C522 1.327 . S
C523 C527 1.429 . S
C524 C507 1.574 . S
C524 H518 0.949 . S
C524 C528 1.368 . S
C525 C506 1.429 . S
C525 C519 1.429 . S
C525 C526 1.523 . S
C526 C507 1.368 . S
C526 C520 1.368 . S
C526 C525 1.523 . S
C527 C511 1.429 . S
C527 C523 1.429 . S
C527 C528 1.523 . S
C528 C512 1.368 . S
C528 C524 1.368 . S
C528 C527 1.523 . S
H529 C504 0.950 . S
H530 C506 0.950 . S
H531 C507 0.949 . S
H532 C509 0.950 . S
H533 C511 0.950 1_554 S
C534 C535 1.349 . S
C534 C536 1.327 . S
C534 H559 0.950 . S
C535 C534 1.349 . S
C535 C551 1.349 . S
C536 C534 1.327 . S
C536 C555 1.429 . S
C536 H560 0.950 . S
C537 C554 1.574 . S
C537 C556 1.368 . S
C537 H561 0.949 . S
H538 C542 0.949 . S
C539 C540 1.349 . S
C539 C541 1.327 . S
C539 H562 0.950 . S
C540 C539 1.349 . S
C540 C552 1.349 . S
C541 C539 1.327 . S
C541 C557 1.429 . S
C541 H563 0.950 . S
C542 H538 0.949 . S
C542 C550 1.574 . S
C542 C558 1.368 . S
H543 C551 0.950 . S
H544 C549 0.950 . S
H545 C550 0.949 . S
H546 C552 0.950 . S
H547 C553 0.950 . S
H548 C554 0.949 . S
C549 H544 0.950 . S
C549 C551 1.327 . S
C549 C555 1.429 . S
C550 C542 1.574 . S
C550 H545 0.949 . S
C550 C556 1.368 . S
C551 C535 1.349 . S
C551 H543 0.950 . S
C551 C549 1.327 . S
C552 C540 1.349 . S
C552 H546 0.950 . S
C552 C553 1.327 . S
C553 H547 0.950 . S
C553 C552 1.327 . S
C553 C557 1.429 . S
C554 C537 1.574 . S
C554 H548 0.949 . S
C554 C558 1.368 . S
C555 C536 1.429 . S
C555 C549 1.429 . S
C555 C556 1.523 . S
C556 C537 1.368 . S
C556 C550 1.368 . S
C556 C555 1.523 . S
C557 C541 1.429 . S
C557 C553 1.429 . S
C557 C558 1.523 . S
C558 C542 1.368 . S
C558 C554 1.368 . S
C558 C557 1.523 . S
H559 C534 0.950 . S
H560 C536 0.950 . S
H561 C537 0.949 . S
H562 C539 0.950 . S
H563 C541 0.950 . S
C564 C565 1.349 . S
C564 C566 1.327 . S
C564 H589 0.950 1_556 S
C565 C564 1.349 . S
C565 C581 1.349 . S
C566 C564 1.327 . S
C566 C585 1.429 . S
C566 H590 0.950 . S
C567 C584 1.574 . S
C567 C586 1.368 . S
C567 H591 0.949 . S
H568 C572 0.949 . S
C569 C570 1.349 . S
C569 C571 1.327 . S
C569 H592 0.950 . S
C570 C569 1.349 . S
C570 C582 1.349 . S
C571 C569 1.327 . S
C571 C587 1.429 . S
C571 H593 0.950 . S
C572 H568 0.949 . S
C572 C580 1.574 . S
C572 C588 1.368 . S
H573 C581 0.950 . S
H574 C579 0.950 . S
H575 C580 0.949 . S
H576 C582 0.950 . S
H577 C583 0.950 . S
H578 C584 0.949 . S
C579 H574 0.950 . S
C579 C581 1.327 . S
C579 C585 1.429 . S
C580 C572 1.574 . S
C580 H575 0.949 . S
C580 C586 1.368 . S
C581 C565 1.349 . S
C581 H573 0.950 . S
C581 C579 1.327 . S
C582 C570 1.349 . S
C582 H576 0.950 . S
C582 C583 1.327 . S
C583 H577 0.950 . S
C583 C582 1.327 . S
C583 C587 1.429 . S
C584 C567 1.574 . S
C584 H578 0.949 . S
C584 C588 1.368 . S
C585 C566 1.429 . S
C585 C579 1.429 . S
C585 C586 1.523 . S
C586 C567 1.368 . S
C586 C580 1.368 . S
C586 C585 1.523 . S
C587 C571 1.429 . S
C587 C583 1.429 . S
C587 C588 1.523 . S
C588 C572 1.368 . S
C588 C584 1.368 . S
C588 C587 1.523 . S
H589 C564 0.950 1_554 S
H590 C566 0.950 . S
H591 C567 0.949 . S
H592 C569 0.950 . S
H593 C571 0.950 . S
C594 C595 1.349 . S
C594 C596 1.327 . S
C594 H619 0.950 . S
C595 C594 1.349 . S
C595 C611 1.349 . S
C596 C594 1.327 . S
C596 C615 1.429 . S
C596 H620 0.950 . S
C597 C614 1.574 . S
C597 C616 1.368 . S
C597 H621 0.949 . S
H598 C602 0.949 . S
C599 C600 1.349 . S
C599 C601 1.327 . S
C599 H622 0.950 . S
C600 C599 1.349 . S
C600 C612 1.349 . S
C601 C599 1.327 . S
C601 C617 1.429 . S
C601 H623 0.950 . S
C602 H598 0.949 . S
C602 C610 1.574 . S
C602 C618 1.368 . S
H603 C611 0.950 . S
H604 C609 0.950 . S
H605 C610 0.949 . S
H606 C612 0.950 . S
H607 C613 0.950 . S
H608 C614 0.949 . S
C609 H604 0.950 . S
C609 C611 1.327 . S
C609 C615 1.429 . S
C610 C602 1.574 . S
C610 H605 0.949 . S
C610 C616 1.368 . S
C611 C595 1.349 . S
C611 H603 0.950 . S
C611 C609 1.327 . S
C612 C600 1.349 . S
C612 H606 0.950 . S
C612 C613 1.327 . S
C613 H607 0.950 . S
C613 C612 1.327 . S
C613 C617 1.429 . S
C614 C597 1.574 . S
C614 H608 0.949 . S
C614 C618 1.368 . S
C615 C596 1.429 . S
C615 C609 1.429 . S
C615 C616 1.523 . S
C616 C597 1.368 . S
C616 C610 1.368 . S
C616 C615 1.523 . S
C617 C601 1.429 . S
C617 C613 1.429 . S
C617 C618 1.523 . S
C618 C602 1.368 . S
C618 C614 1.368 . S
C618 C617 1.523 . S
H619 C594 0.950 . S
H620 C596 0.950 . S
H621 C597 0.949 . S
H622 C599 0.950 . S
H623 C601 0.950 . S
C624 C625 1.349 . S
C624 C626 1.327 . S
C624 H649 0.950 . S
C625 C624 1.349 . S
C625 C641 1.349 . S
C626 C624 1.327 . S
C626 C645 1.429 . S
C626 H650 0.950 . S
C627 C644 1.574 . S
C627 C646 1.368 . S
C627 H651 0.949 . S
H628 C632 0.949 . S
C629 C630 1.349 . S
C629 C631 1.327 . S
C629 H652 0.950 . S
C630 C629 1.349 . S
C630 C642 1.349 . S
C631 C629 1.327 . S
C631 C647 1.429 . S
C631 H653 0.950 . S
C632 H628 0.949 . S
C632 C640 1.574 . S
C632 C648 1.368 . S
H633 C641 0.950 . S
H634 C639 0.950 . S
H635 C640 0.949 . S
H636 C642 0.950 . S
H637 C643 0.950 . S
H638 C644 0.949 . S
C639 H634 0.950 . S
C639 C641 1.327 . S
C639 C645 1.429 . S
C640 C632 1.574 . S
C640 H635 0.949 . S
C640 C646 1.368 . S
C641 C625 1.349 . S
C641 H633 0.950 . S
C641 C639 1.327 . S
C642 C630 1.349 . S
C642 H636 0.950 . S
C642 C643 1.327 . S
C643 H637 0.950 . S
C643 C642 1.327 . S
C643 C647 1.429 . S
C644 C627 1.574 . S
C644 H638 0.949 . S
C644 C648 1.368 . S
C645 C626 1.429 . S
C645 C639 1.429 . S
C645 C646 1.523 . S
C646 C627 1.368 . S
C646 C640 1.368 . S
C646 C645 1.523 . S
C647 C631 1.429 . S
C647 C643 1.429 . S
C647 C648 1.523 . S
C648 C632 1.368 . S
C648 C644 1.368 . S
C648 C647 1.523 . S
H649 C624 0.950 . S
H650 C626 0.950 . S
H651 C627 0.949 . S
H652 C629 0.950 . S
H653 C631 0.950 . S
C654 C655 1.349 . S
C654 C656 1.327 . S
C654 H679 0.950 . S
C655 C654 1.349 . S
C655 C671 1.349 . S
C656 C654 1.327 . S
C656 C675 1.429 . S
C656 H680 0.950 . S
C657 C674 1.574 . S
C657 C676 1.368 . S
C657 H681 0.949 . S
H658 C662 0.949 . S
C659 C660 1.349 . S
C659 C661 1.327 . S
C659 H682 0.950 . S
C660 C659 1.349 . S
C660 C672 1.349 . S
C661 C659 1.327 . S
C661 C677 1.429 . S
C661 H683 0.950 . S
C662 H658 0.949 . S
C662 C670 1.574 . S
C662 C678 1.368 . S
H663 C671 0.950 . S
H664 C669 0.950 . S
H665 C670 0.949 . S
H666 C672 0.950 . S
H667 C673 0.950 . S
H668 C674 0.949 . S
C669 H664 0.950 . S
C669 C671 1.327 . S
C669 C675 1.429 . S
C670 C662 1.574 . S
C670 H665 0.949 . S
C670 C676 1.368 . S
C671 C655 1.349 . S
C671 H663 0.950 . S
C671 C669 1.327 . S
C672 C660 1.349 . S
C672 H666 0.950 . S
C672 C673 1.327 . S
C673 H667 0.950 . S
C673 C672 1.327 . S
C673 C677 1.429 . S
C674 C657 1.574 . S
C674 H668 0.949 . S
C674 C678 1.368 . S
C675 C656 1.429 . S
C675 C669 1.429 . S
C675 C676 1.523 . S
C676 C657 1.368 . S
C676 C670 1.368 . S
C676 C675 1.523 . S
C677 C661 1.429 . S
C677 C673 1.429 . S
C677 C678 1.523 . S
C678 C662 1.368 . S
C678 C674 1.368 . S
C678 C677 1.523 . S
H679 C654 0.950 . S
H680 C656 0.950 . S
H681 C657 0.949 . S
H682 C659 0.950 . S
H683 C661 0.950 . S
C684 C685 1.349 . S
C684 C686 1.327 . S
C684 H709 0.950 . S
C685 C684 1.349 . S
C685 C701 1.349 . S
C686 C684 1.327 . S
C686 C705 1.429 . S
C686 H710 0.950 . S
C687 C704 1.574 . S
C687 C706 1.368 . S
C687 H711 0.949 . S
H688 C692 0.949 . S
C689 C690 1.349 . S
C689 C691 1.327 . S
C689 H712 0.950 . S
C690 C689 1.349 . S
C690 C702 1.354 . S
C691 C689 1.327 . S
C691 C707 1.429 . S
C691 H713 0.950 . S
C692 H688 0.949 . S
C692 C700 1.574 . S
C692 C708 1.368 . S
H693 C701 0.950 . S
H694 C699 0.950 . S
H695 C700 0.949 . S
H696 C702 0.926 1_556 S
H697 C703 0.950 . S
H698 C704 0.949 . S
C699 H694 0.950 . S
C699 C701 1.327 . S
C699 C705 1.429 . S
C700 C692 1.574 . S
C700 H695 0.949 . S
C700 C706 1.368 . S
C701 C685 1.349 . S
C701 H693 0.950 . S
C701 C699 1.327 . S
C702 C690 1.354 . S
C702 H696 0.926 1_554 S
C702 C703 1.347 . S
C703 H697 0.950 . S
C703 C702 1.347 . S
C703 C707 1.429 . S
C704 C687 1.574 . S
C704 H698 0.949 . S
C704 C708 1.368 . S
C705 C686 1.429 . S
C705 C699 1.429 . S
C705 C706 1.523 . S
C706 C687 1.368 . S
C706 C700 1.368 . S
C706 C705 1.523 . S
C707 C691 1.429 . S
C707 C703 1.429 . S
C707 C708 1.523 . S
C708 C692 1.368 . S
C708 C704 1.368 . S
C708 C707 1.523 . S
H709 C684 0.950 . S
H710 C686 0.950 . S
H711 C687 0.949 . S
H712 C689 0.950 . S
H713 C691 0.950 . S
C714 C715 1.349 . S
C714 C716 1.327 . S
C714 H739 0.950 . S
C715 C714 1.349 . S
C715 C731 1.349 . S
C716 C714 1.327 . S
C716 C735 1.429 . S
C716 H740 0.950 . S
C717 C734 1.574 . S
C717 C736 1.368 . S
C717 H741 0.949 . S
H718 C722 0.949 . S
C719 C720 1.349 . S
C719 C721 1.327 . S
C719 H742 0.950 1_565 S
C720 C719 1.349 . S
C720 C732 1.349 . S
C721 C719 1.327 . S
C721 C737 1.429 . S
C721 H743 0.950 . S
C722 H718 0.949 . S
C722 C730 1.574 . S
C722 C738 1.368 . S
H723 C731 0.950 . S
H724 C729 0.950 . S
H725 C730 0.949 . S
H726 C732 0.950 . S
H727 C733 0.950 . S
H728 C734 0.949 . S
C729 H724 0.950 . S
C729 C731 1.327 . S
C729 C735 1.429 . S
C730 C722 1.574 . S
C730 H725 0.949 . S
C730 C736 1.368 . S
C731 C715 1.349 . S
C731 H723 0.950 . S
C731 C729 1.327 . S
C732 C720 1.349 . S
C732 H726 0.950 . S
C732 C733 1.327 . S
C733 H727 0.950 . S
C733 C732 1.327 . S
C733 C737 1.429 . S
C734 C717 1.574 . S
C734 H728 0.949 . S
C734 C738 1.368 . S
C735 C716 1.429 . S
C735 C729 1.429 . S
C735 C736 1.523 . S
C736 C717 1.368 . S
C736 C730 1.368 . S
C736 C735 1.523 . S
C737 C721 1.429 . S
C737 C733 1.429 . S
C737 C738 1.523 . S
C738 C722 1.368 . S
C738 C734 1.368 . S
C738 C737 1.523 . S
H739 C714 0.950 . S
H740 C716 0.950 . S
H741 C717 0.949 . S
H742 C719 0.950 1_545 S
H743 C721 0.950 . S
C744 C745 1.349 . S
C744 C746 1.327 . S
C744 H769 0.950 . S
C745 C744 1.349 . S
C745 C761 1.349 . S
C746 C744 1.327 . S
C746 C765 1.429 . S
C746 H770 0.950 . S
C747 C764 1.574 . S
C747 C766 1.368 . S
C747 H771 0.949 . S
H748 C752 0.949 . S
C749 C750 1.349 . S
C749 C751 1.327 . S
C749 H772 0.950 1_554 S
C750 C749 1.349 . S
C750 C762 1.349 . S
C751 C749 1.327 . S
C751 C767 1.429 . S
C751 H773 0.950 . S
C752 H748 0.949 . S
C752 C760 1.574 . S
C752 C768 1.368 . S
H753 C761 0.950 . S
H754 C759 0.950 . S
H755 C760 0.949 . S
H756 C762 0.950 . S
H757 C763 0.950 . S
H758 C764 0.949 . S
C759 H754 0.950 . S
C759 C761 1.327 . S
C759 C765 1.429 . S
C760 C752 1.574 . S
C760 H755 0.949 . S
C760 C766 1.368 . S
C761 C745 1.349 . S
C761 H753 0.950 . S
C761 C759 1.327 . S
C762 C750 1.349 . S
C762 H756 0.950 . S
C762 C763 1.327 . S
C763 H757 0.950 . S
C763 C762 1.327 . S
C763 C767 1.429 . S
C764 C747 1.574 . S
C764 H758 0.949 . S
C764 C768 1.368 . S
C765 C746 1.429 . S
C765 C759 1.429 . S
C765 C766 1.523 . S
C766 C747 1.368 . S
C766 C760 1.368 . S
C766 C765 1.523 . S
C767 C751 1.429 . S
C767 C763 1.429 . S
C767 C768 1.523 . S
C768 C752 1.368 . S
C768 C764 1.368 . S
C768 C767 1.523 . S
H769 C744 0.950 . S
H770 C746 0.950 . S
H771 C747 0.949 . S
H772 C749 0.950 1_556 S
H773 C751 0.950 . S
C774 C775 1.349 . S
C774 C776 1.327 . S
C774 H799 0.950 . S
C775 C774 1.349 . S
C775 C791 1.349 . S
C776 C774 1.327 . S
C776 C795 1.429 . S
C776 H800 0.950 . S
C777 C794 1.574 . S
C777 C796 1.368 . S
C777 H801 0.949 . S
H778 C782 0.949 . S
C779 C780 1.349 . S
C779 C781 1.327 . S
C779 H802 0.950 . S
C780 C779 1.349 . S
C780 C792 1.349 . S
C781 C779 1.327 . S
C781 C797 1.429 . S
C781 H803 0.950 . S
C782 H778 0.949 . S
C782 C790 1.574 . S
C782 C798 1.368 . S
H783 C791 0.950 . S
H784 C789 0.950 . S
H785 C790 0.949 . S
H786 C792 0.950 . S
H787 C793 0.950 . S
H788 C794 0.949 . S
C789 H784 0.950 . S
C789 C791 1.327 . S
C789 C795 1.429 . S
C790 C782 1.574 . S
C790 H785 0.949 . S
C790 C796 1.368 . S
C791 C775 1.349 . S
C791 H783 0.950 . S
C791 C789 1.327 . S
C792 C780 1.349 . S
C792 H786 0.950 . S
C792 C793 1.327 . S
C793 H787 0.950 . S
C793 C792 1.327 . S
C793 C797 1.429 . S
C794 C777 1.574 . S
C794 H788 0.949 . S
C794 C798 1.368 . S
C795 C776 1.429 . S
C795 C789 1.429 . S
C795 C796 1.523 . S
C796 C777 1.368 . S
C796 C790 1.368 . S
C796 C795 1.523 . S
C797 C781 1.429 . S
C797 C793 1.429 . S
C797 C798 1.523 . S
C798 C782 1.368 . S
C798 C794 1.368 . S
C798 C797 1.523 . S
H799 C774 0.950 . S
H800 C776 0.950 . S
H801 C777 0.949 . S
H802 C779 0.950 . S
H803 C781 0.950 . S
C804 C805 1.349 . S
C804 C806 1.327 . S
C804 H829 0.950 . S
C805 C804 1.349 . S
C805 C821 1.349 . S
C806 C804 1.327 . S
C806 C825 1.429 . S
C806 H830 0.950 . S
C807 C824 1.574 . S
C807 C826 1.368 . S
C807 H831 0.949 . S
H808 C812 0.949 . S
C809 C810 1.349 . S
C809 C811 1.327 . S
C809 H832 0.950 . S
C810 C809 1.349 . S
C810 C822 1.349 . S
C811 C809 1.327 . S
C811 C827 1.429 . S
C811 H833 0.950 . S
C812 H808 0.949 . S
C812 C820 1.574 . S
C812 C828 1.368 . S
H813 C821 0.950 . S
H814 C819 0.950 . S
H815 C820 0.949 . S
H816 C822 0.950 . S
H817 C823 0.950 . S
H818 C824 0.949 . S
C819 H814 0.950 . S
C819 C821 1.327 . S
C819 C825 1.429 . S
C820 C812 1.574 . S
C820 H815 0.949 . S
C820 C826 1.368 . S
C821 C805 1.349 . S
C821 H813 0.950 . S
C821 C819 1.327 . S
C822 C810 1.349 . S
C822 H816 0.950 . S
C822 C823 1.327 . S
C823 H817 0.950 . S
C823 C822 1.327 . S
C823 C827 1.429 . S
C824 C807 1.574 . S
C824 H818 0.949 . S
C824 C828 1.368 . S
C825 C806 1.429 . S
C825 C819 1.429 . S
C825 C826 1.523 . S
C826 C807 1.368 . S
C826 C820 1.368 . S
C826 C825 1.523 . S
C827 C811 1.429 . S
C827 C823 1.429 . S
C827 C828 1.523 . S
C828 C812 1.368 . S
C828 C824 1.368 . S
C828 C827 1.523 . S
H829 C804 0.950 . S
H830 C806 0.950 . S
H831 C807 0.949 . S
H832 C809 0.950 . S
H833 C811 0.950 . S
C834 C835 1.349 . S
C834 C836 1.327 . S
C834 H859 0.950 . S
C835 C834 1.349 . S
C835 C851 1.349 . S
C836 C834 1.327 . S
C836 C855 1.429 . S
C836 H860 0.950 . S
C837 C854 1.574 . S
C837 C856 1.368 . S
C837 H861 0.949 . S
H838 C842 0.949 . S
C839 C840 1.349 . S
C839 C841 1.327 . S
C839 H862 0.950 . S
C840 C839 1.349 . S
C840 C852 1.349 . S
C841 C839 1.327 . S
C841 C857 1.429 . S
C841 H863 0.950 . S
C842 H838 0.949 . S
C842 C850 1.574 . S
C842 C858 1.368 . S
H843 C851 0.950 . S
H844 C849 0.950 . S
H845 C850 0.949 . S
H846 C852 0.950 . S
H847 C853 0.950 . S
H848 C854 0.949 . S
C849 H844 0.950 . S
C849 C851 1.327 . S
C849 C855 1.429 . S
C850 C842 1.574 . S
C850 H845 0.949 . S
C850 C856 1.368 . S
C851 C835 1.349 . S
C851 H843 0.950 . S
C851 C849 1.327 . S
C852 C840 1.349 . S
C852 H846 0.950 . S
C852 C853 1.327 . S
C853 H847 0.950 . S
C853 C852 1.327 . S
C853 C857 1.429 . S
C854 C837 1.574 . S
C854 H848 0.949 . S
C854 C858 1.368 . S
C855 C836 1.429 . S
C855 C849 1.429 . S
C855 C856 1.523 . S
C856 C837 1.368 . S
C856 C850 1.368 . S
C856 C855 1.523 . S
C857 C841 1.429 . S
C857 C853 1.429 . S
C857 C858 1.523 . S
C858 C842 1.368 . S
C858 C854 1.368 . S
C858 C857 1.523 . S
H859 C834 0.950 . S
H860 C836 0.950 . S
H861 C837 0.949 . S
H862 C839 0.950 . S
H863 C841 0.950 . S
C864 C865 1.349 . S
C864 C866 1.327 . S
C864 H889 0.950 . S
C865 C864 1.349 . S
C865 C881 1.349 . S
C866 C864 1.327 . S
C866 C885 1.429 . S
C866 H890 0.950 . S
C867 C884 1.574 1_455 S
C867 C886 1.368 . S
C867 H891 0.949 . S
H868 C872 0.949 . S
C869 C870 1.349 . S
C869 C871 1.327 . S
C869 H892 0.950 . S
C870 C869 1.349 . S
C870 C882 1.349 . S
C871 C869 1.327 . S
C871 C887 1.429 . S
C871 H893 0.950 . S
C872 H868 0.949 . S
C872 C880 1.574 1_655 S
C872 C888 1.368 . S
H873 C881 0.950 . S
H874 C879 0.950 . S
H875 C880 0.949 . S
H876 C882 0.950 . S
H877 C883 0.950 . S
H878 C884 0.949 . S
C879 H874 0.950 . S
C879 C881 1.327 . S
C879 C885 1.429 . S
C880 C872 1.574 1_455 S
C880 H875 0.949 . S
C880 C886 1.368 . S
C881 C865 1.349 . S
C881 H873 0.950 . S
C881 C879 1.327 . S
C882 C870 1.349 . S
C882 H876 0.950 . S
C882 C883 1.327 . S
C883 H877 0.950 . S
C883 C882 1.327 . S
C883 C887 1.429 . S
C884 C867 1.574 1_655 S
C884 H878 0.949 . S
C884 C888 1.368 . S
C885 C866 1.429 . S
C885 C879 1.429 . S
C885 C886 1.523 . S
C886 C867 1.368 . S
C886 C880 1.368 . S
C886 C885 1.523 . S
C887 C871 1.429 . S
C887 C883 1.429 . S
C887 C888 1.523 . S
C888 C872 1.368 . S
C888 C884 1.368 . S
C888 C887 1.523 . S
H889 C864 0.950 . S
H890 C866 0.950 . S
H891 C867 0.949 . S
H892 C869 0.950 . S
H893 C871 0.950 . S
C894 C895 1.349 . S
C894 C896 1.327 . S
C894 H919 0.950 . S
C895 C894 1.349 . S
C895 C911 1.349 . S
C896 C894 1.327 . S
C896 C915 1.429 . S
C896 H920 0.950 . S
C897 C914 1.574 . S
C897 C916 1.368 . S
C897 H921 0.949 . S
H898 C902 0.949 . S
C899 C900 1.349 . S
C899 C901 1.327 . S
C899 H922 0.950 . S
C900 C899 1.349 . S
C900 C912 1.349 . S
C901 C899 1.327 . S
C901 C917 1.429 . S
C901 H923 0.950 . S
C902 H898 0.949 . S
C902 C910 1.574 . S
C902 C918 1.368 . S
H903 C911 0.950 . S
H904 C909 0.950 . S
H905 C910 0.949 . S
H906 C912 0.950 . S
H907 C913 0.950 . S
H908 C914 0.949 . S
C909 H904 0.950 . S
C909 C911 1.327 . S
C909 C915 1.429 . S
C910 C902 1.574 . S
C910 H905 0.949 . S
C910 C916 1.368 . S
C911 C895 1.349 . S
C911 H903 0.950 . S
C911 C909 1.327 . S
C912 C900 1.349 . S
C912 H906 0.950 . S
C912 C913 1.327 . S
C913 H907 0.950 . S
C913 C912 1.327 . S
C913 C917 1.429 . S
C914 C897 1.574 . S
C914 H908 0.949 . S
C914 C918 1.368 . S
C915 C896 1.429 . S
C915 C909 1.429 . S
C915 C916 1.523 . S
C916 C897 1.368 . S
C916 C910 1.368 . S
C916 C915 1.523 . S
C917 C901 1.429 . S
C917 C913 1.429 . S
C917 C918 1.523 . S
C918 C902 1.368 . S
C918 C914 1.368 . S
C918 C917 1.523 . S
H919 C894 0.950 . S
H920 C896 0.950 . S
H921 C897 0.949 . S
H922 C899 0.950 . S
H923 C901 0.950 . S
C924 C925 1.349 . S
C924 C926 1.327 . S
C924 H949 0.950 . S
C925 C924 1.349 . S
C925 C941 1.349 . S
C926 C924 1.327 . S
C926 C945 1.429 . S
C926 H950 0.950 . S
C927 C944 1.574 . S
C927 C946 1.368 1_545 S
C927 H951 0.949 1_545 S
H928 C932 0.949 . S
C929 C930 1.349 . S
C929 C931 1.327 . S
C929 H952 0.950 . S
C930 C929 1.349 . S
C930 C942 1.349 . S
C931 C929 1.327 . S
C931 C947 1.429 . S
C931 H953 0.950 . S
C932 H928 0.949 . S
C932 C940 1.574 1_545 S
C932 C948 1.368 . S
H933 C941 0.950 . S
H934 C939 0.950 . S
H935 C940 0.949 . S
H936 C942 0.950 . S
H937 C943 0.950 . S
H938 C944 0.949 . S
C939 H934 0.950 . S
C939 C941 1.327 . S
C939 C945 1.429 . S
C940 C932 1.574 1_565 S
C940 H935 0.949 . S
C940 C946 1.368 . S
C941 C925 1.349 . S
C941 H933 0.950 . S
C941 C939 1.327 . S
C942 C930 1.349 . S
C942 H936 0.950 . S
C942 C943 1.327 . S
C943 H937 0.950 . S
C943 C942 1.327 . S
C943 C947 1.429 . S
C944 C927 1.574 . S
C944 H938 0.949 . S
C944 C948 1.368 . S
C945 C926 1.429 . S
C945 C939 1.429 . S
C945 C946 1.523 . S
C946 C927 1.368 1_565 S
C946 C940 1.368 . S
C946 C945 1.523 . S
C947 C931 1.429 . S
C947 C943 1.429 . S
C947 C948 1.523 . S
C948 C932 1.368 . S
C948 C944 1.368 . S
C948 C947 1.523 . S
H949 C924 0.950 . S
H950 C926 0.950 . S
H951 C927 0.949 1_565 S
H952 C929 0.950 . S
H953 C931 0.950 . S
C954 C955 1.349 . S
C954 C956 1.327 . S
C954 H979 0.950 . S
C955 C954 1.349 . S
C955 C971 1.349 . S
C956 C954 1.327 . S
C956 C975 1.429 . S
C956 H980 0.950 . S
C957 C974 1.574 1_565 S
C957 C976 1.368 . S
C957 H981 0.949 . S
H958 C962 0.949 . S
C959 C960 1.349 . S
C959 C961 1.327 . S
C959 H982 0.950 . S
C960 C959 1.349 . S
C960 C972 1.349 . S
C961 C959 1.327 . S
C961 C977 1.429 . S
C961 H983 0.950 . S
C962 H958 0.949 . S
C962 C970 1.574 . S
C962 C978 1.368 . S
H963 C971 0.950 . S
H964 C969 0.950 . S
H965 C970 0.949 . S
H966 C972 0.950 . S
H967 C973 0.950 . S
H968 C974 0.949 . S
C969 H964 0.950 . S
C969 C971 1.327 . S
C969 C975 1.429 . S
C970 C962 1.574 . S
C970 H965 0.949 . S
C970 C976 1.368 1_545 S
C971 C955 1.349 . S
C971 H963 0.950 . S
C971 C969 1.327 . S
C972 C960 1.349 . S
C972 H966 0.950 . S
C972 C973 1.327 . S
C973 H967 0.950 . S
C973 C972 1.327 . S
C973 C977 1.429 . S
C974 C957 1.574 1_545 S
C974 H968 0.949 . S
C974 C978 1.368 . S
C975 C956 1.429 . S
C975 C969 1.429 . S
C975 C976 1.523 . S
C976 C957 1.368 . S
C976 C970 1.368 1_565 S
C976 C975 1.523 . S
C977 C961 1.429 . S
C977 C973 1.429 . S
C977 C978 1.523 . S
C978 C962 1.368 . S
C978 C974 1.368 . S
C978 C977 1.523 . S
H979 C954 0.950 . S
H980 C956 0.950 . S
H981 C957 0.949 . S
H982 C959 0.950 . S
H983 C961 0.950 . S
C984 C985 1.349 . S
C984 C986 1.327 . S
C984 H1009 0.950 . S
C985 C984 1.349 . S
C985 C1001 1.349 . S
C986 C984 1.327 . S
C986 C1005 1.429 . S
C986 H1010 0.950 . S
C987 C1004 1.574 1_455 S
C987 C1006 1.368 . S
C987 H1011 0.949 . S
H988 C992 0.949 . S
C989 C990 1.349 . S
C989 C991 1.327 . S
C989 H1012 0.950 . S
C990 C989 1.349 . S
C990 C1002 1.349 . S
C991 C989 1.327 . S
C991 C1007 1.429 . S
C991 H1013 0.950 . S
C992 H988 0.949 . S
C992 C1000 1.574 1_655 S
C992 C1008 1.368 . S
H993 C1001 0.950 . S
H994 C999 0.950 . S
H995 C1000 0.949 . S
H996 C1002 0.950 . S
H997 C1003 0.950 . S
H998 C1004 0.949 . S
C999 H994 0.950 . S
C999 C1001 1.327 . S
C999 C1005 1.429 . S
C1000 C992 1.574 1_455 S
C1000 H995 0.949 . S
C1000 C1006 1.368 . S
C1001 C985 1.349 . S
C1001 H993 0.950 . S
C1001 C999 1.327 . S
C1002 C990 1.349 . S
C1002 H996 0.950 . S
C1002 C1003 1.327 . S
C1003 H997 0.950 . S
C1003 C1002 1.327 . S
C1003 C1007 1.429 . S
C1004 C987 1.574 1_655 S
C1004 H998 0.949 . S
C1004 C1008 1.368 . S
C1005 C986 1.429 . S
C1005 C999 1.429 . S
C1005 C1006 1.523 . S
C1006 C987 1.368 . S
C1006 C1000 1.368 . S
C1006 C1005 1.523 . S
C1007 C991 1.429 . S
C1007 C1003 1.429 . S
C1007 C1008 1.523 . S
C1008 C992 1.368 . S
C1008 C1004 1.368 . S
C1008 C1007 1.523 . S
H1009 C984 0.950 . S
H1010 C986 0.950 . S
H1011 C987 0.949 . S
H1012 C989 0.950 . S
H1013 C991 0.950 . S
C1014 C1015 1.349 . S
C1014 C1016 1.327 . S
C1014 H1039 0.950 . S
C1015 C1014 1.349 . S
C1015 C1031 1.349 . S
C1016 C1014 1.327 . S
C1016 C1035 1.429 . S
C1016 H1040 0.950 . S
C1017 C1034 1.574 . S
C1017 C1036 1.368 . S
C1017 H1041 0.949 . S
H1018 C1022 0.949 . S
C1019 C1020 1.349 . S
C1019 C1021 1.327 . S
C1019 H1042 0.950 . S
C1020 C1019 1.349 . S
C1020 C1032 1.349 . S
C1021 C1019 1.327 . S
C1021 C1037 1.429 . S
C1021 H1043 0.950 . S
C1022 H1018 0.949 . S
C1022 C1030 1.574 . S
C1022 C1038 1.368 . S
H1023 C1031 0.950 . S
H1024 C1029 0.950 . S
H1025 C1030 0.949 . S
H1026 C1032 0.950 . S
H1027 C1033 0.950 . S
H1028 C1034 0.949 . S
C1029 H1024 0.950 . S
C1029 C1031 1.327 . S
C1029 C1035 1.429 . S
C1030 C1022 1.574 . S
C1030 H1025 0.949 . S
C1030 C1036 1.368 . S
C1031 C1015 1.349 . S
C1031 H1023 0.950 . S
C1031 C1029 1.327 . S
C1032 C1020 1.349 . S
C1032 H1026 0.950 . S
C1032 C1033 1.327 . S
C1033 H1027 0.950 . S
C1033 C1032 1.327 . S
C1033 C1037 1.429 . S
C1034 C1017 1.574 . S
C1034 H1028 0.949 . S
C1034 C1038 1.368 . S
C1035 C1016 1.429 . S
C1035 C1029 1.429 . S
C1035 C1036 1.523 . S
C1036 C1017 1.368 . S
C1036 C1030 1.368 . S
C1036 C1035 1.523 . S
C1037 C1021 1.429 . S
C1037 C1033 1.429 . S
C1037 C1038 1.523 . S
C1038 C1022 1.368 . S
C1038 C1034 1.368 . S
C1038 C1037 1.523 . S
H1039 C1014 0.950 . S
H1040 C1016 0.950 . S
H1041 C1017 0.949 . S
H1042 C1019 0.950 . S
H1043 C1021 0.950 . S
C1044 C1045 1.349 . S
C1044 C1046 1.327 . S
C1044 H1069 0.950 . S
C1045 C1044 1.349 . S
C1045 C1061 1.349 1_556 S
C1046 C1044 1.327 . S
C1046 C1065 1.429 1_556 S
C1046 H1070 0.950 . S
C1047 C1064 1.574 . S
C1047 C1066 1.368 . S
C1047 H1071 0.949 . S
H1048 C1052 0.949 . S
C1049 C1050 1.349 . S
C1049 C1051 1.327 . S
C1049 H1072 0.950 . S
C1050 C1049 1.349 . S
C1050 C1062 1.349 . S
C1051 C1049 1.327 . S
C1051 C1067 1.429 . S
C1051 H1073 0.950 . S
C1052 H1048 0.949 . S
C1052 C1060 1.574 . S
C1052 C1068 1.368 1_556 S
H1053 C1061 0.950 . S
H1054 C1059 0.950 . S
H1055 C1060 0.949 . S
H1056 C1062 0.950 . S
H1057 C1063 0.950 1_556 S
H1058 C1064 0.949 . S
C1059 H1054 0.950 . S
C1059 C1061 1.327 . S
C1059 C1065 1.429 . S
C1060 C1052 1.574 . S
C1060 H1055 0.949 . S
C1060 C1066 1.368 1_556 S
C1061 C1045 1.349 1_554 S
C1061 H1053 0.950 . S
C1061 C1059 1.327 . S
C1062 C1050 1.349 . S
C1062 H1056 0.950 . S
C1062 C1063 1.327 . S
C1063 H1057 0.950 1_554 S
C1063 C1062 1.327 . S
C1063 C1067 1.429 . S
C1064 C1047 1.574 . S
C1064 H1058 0.949 . S
C1064 C1068 1.368 . S
C1065 C1046 1.429 1_554 S
C1065 C1059 1.429 . S
C1065 C1066 1.523 . S
C1066 C1047 1.368 . S
C1066 C1060 1.368 1_554 S
C1066 C1065 1.523 . S
C1067 C1051 1.429 . S
C1067 C1063 1.429 . S
C1067 C1068 1.523 . S
C1068 C1052 1.368 1_554 S
C1068 C1064 1.368 . S
C1068 C1067 1.523 . S
H1069 C1044 0.950 . S
H1070 C1046 0.950 . S
H1071 C1047 0.949 . S
H1072 C1049 0.950 . S
H1073 C1051 0.950 . S
C1074 C1075 1.349 1_554 S
C1074 C1076 1.327 . S
C1074 H1099 0.950 . S
C1075 C1074 1.349 1_556 S
C1075 C1091 1.349 . S
C1076 C1074 1.327 . S
C1076 C1095 1.434 . S
C1076 H1100 0.950 . S
C1077 C1094 1.574 . S
C1077 C1096 1.368 1_556 S
C1077 H1101 0.949 . S
H1078 C1082 0.949 . S
C1079 C1080 1.349 . S
C1079 C1081 1.327 . S
C1079 H1102 0.950 1_554 S
C1080 C1079 1.349 . S
C1080 C1092 1.349 . S
C1081 C1079 1.327 . S
C1081 C1097 1.429 . S
C1081 H1103 0.950 1_554 S
C1082 H1078 0.949 . S
C1082 C1090 1.574 . S
C1082 C1098 1.368 . S
H1083 C1091 0.950 . S
H1084 C1089 0.950 . S
H1085 C1090 0.949 . S
H1086 C1092 0.950 . S
H1087 C1093 0.950 . S
H1088 C1094 0.949 . S
C1089 H1084 0.950 . S
C1089 C1091 1.327 . S
C1089 C1095 1.422 1_556 S
C1090 C1082 1.574 . S
C1090 H1085 0.949 . S
C1090 C1096 1.368 . S
C1091 C1075 1.349 . S
C1091 H1083 0.950 . S
C1091 C1089 1.327 . S
C1092 C1080 1.349 . S
C1092 H1086 0.950 . S
C1092 C1093 1.327 . S
C1093 H1087 0.950 . S
C1093 C1092 1.327 . S
C1093 C1097 1.429 . S
C1094 C1077 1.574 . S
C1094 H1088 0.949 . S
C1094 C1098 1.368 1_556 S
C1095 C1076 1.434 . S
C1095 C1089 1.422 1_554 S
C1095 C1096 1.525 . S
C1096 C1077 1.368 1_554 S
C1096 C1090 1.368 . S
C1096 C1095 1.525 . S
C1097 C1081 1.429 . S
C1097 C1093 1.429 . S
C1097 C1098 1.523 . S
C1098 C1082 1.368 . S
C1098 C1094 1.368 1_554 S
C1098 C1097 1.523 . S
H1099 C1074 0.950 . S
H1100 C1076 0.950 . S
H1101 C1077 0.949 . S
H1102 C1079 0.950 1_556 S
H1103 C1081 0.950 1_556 S
C1104 C1105 1.349 . S
C1104 C1106 1.327 . S
C1104 H1129 0.950 . S
C1105 C1104 1.349 . S
C1105 C1121 1.349 . S
C1106 C1104 1.327 . S
C1106 C1125 1.429 . S
C1106 H1130 0.950 . S
C1107 C1124 1.574 . S
C1107 C1126 1.368 1_554 S
C1107 H1131 0.949 . S
H1108 C1112 0.949 . S
C1109 C1110 1.349 . S
C1109 C1111 1.327 . S
C1109 H1132 0.950 . S
C1110 C1109 1.349 . S
C1110 C1122 1.349 . S
C1111 C1109 1.327 . S
C1111 C1127 1.429 . S
C1111 H1133 0.950 . S
C1112 H1108 0.949 . S
C1112 C1120 1.574 . S
C1112 C1128 1.368 1_556 S
H1113 C1121 0.950 1_554 S
H1114 C1119 0.950 . S
H1115 C1120 0.949 . S
H1116 C1122 0.963 . S
H1117 C1123 0.950 1_556 S
H1118 C1124 0.949 . S
C1119 H1114 0.950 . S
C1119 C1121 1.327 1_554 S
C1119 C1125 1.429 1_554 S
C1120 C1112 1.574 . S
C1120 H1115 0.949 . S
C1120 C1126 1.368 . S
C1121 C1105 1.349 . S
C1121 H1113 0.950 1_556 S
C1121 C1119 1.327 1_556 S
C1122 C1110 1.349 . S
C1122 H1116 0.963 . S
C1122 C1123 1.327 . S
C1123 H1117 0.950 1_554 S
C1123 C1122 1.327 . S
C1123 C1127 1.429 . S
C1124 C1107 1.574 . S
C1124 H1118 0.949 . S
C1124 C1128 1.368 . S
C1125 C1106 1.429 . S
C1125 C1119 1.429 1_556 S
C1125 C1126 1.523 . S
C1126 C1107 1.368 1_556 S
C1126 C1120 1.368 . S
C1126 C1125 1.523 . S
C1127 C1111 1.429 . S
C1127 C1123 1.429 . S
C1127 C1128 1.523 . S
C1128 C1112 1.368 1_554 S
C1128 C1124 1.368 . S
C1128 C1127 1.523 . S
H1129 C1104 0.950 . S
H1130 C1106 0.950 . S
H1131 C1107 0.949 . S
H1132 C1109 0.950 . S
H1133 C1111 0.950 . S
C1134 C1135 1.349 . S
C1134 C1136 1.327 . S
C1134 H1159 0.950 . S
C1135 C1134 1.349 . S
C1135 C1151 1.349 . S
C1136 C1134 1.327 . S
C1136 C1155 1.429 . S
C1136 H1160 0.950 . S
C1137 C1154 1.574 . S
C1137 C1156 1.368 . S
C1137 H1161 0.949 . S
H1138 C1142 0.949 . S
C1139 C1140 1.349 . S
C1139 C1141 1.327 . S
C1139 H1162 0.950 . S
C1140 C1139 1.349 . S
C1140 C1152 1.349 . S
C1141 C1139 1.327 . S
C1141 C1157 1.429 . S
C1141 H1163 0.950 . S
C1142 H1138 0.949 . S
C1142 C1150 1.574 . S
C1142 C1158 1.368 . S
H1143 C1151 0.950 . S
H1144 C1149 0.950 . S
H1145 C1150 0.949 . S
H1146 C1152 0.950 . S
H1147 C1153 0.950 . S
H1148 C1154 0.949 . S
C1149 H1144 0.950 . S
C1149 C1151 1.327 . S
C1149 C1155 1.429 . S
C1150 C1142 1.574 . S
C1150 H1145 0.949 . S
C1150 C1156 1.368 . S
C1151 C1135 1.349 . S
C1151 H1143 0.950 . S
C1151 C1149 1.327 . S
C1152 C1140 1.349 . S
C1152 H1146 0.950 . S
C1152 C1153 1.327 . S
C1153 H1147 0.950 . S
C1153 C1152 1.327 . S
C1153 C1157 1.429 . S
C1154 C1137 1.574 . S
C1154 H1148 0.949 . S
C1154 C1158 1.368 . S
C1155 C1136 1.429 . S
C1155 C1149 1.429 . S
C1155 C1156 1.523 . S
C1156 C1137 1.368 . S
C1156 C1150 1.368 . S
C1156 C1155 1.523 . S
C1157 C1141 1.429 . S
C1157 C1153 1.429 . S
C1157 C1158 1.523 . S
C1158 C1142 1.368 . S
C1158 C1154 1.368 . S
C1158 C1157 1.523 . S
H1159 C1134 0.950 . S
H1160 C1136 0.950 . S
H1161 C1137 0.949 . S
H1162 C1139 0.950 . S
H1163 C1141 0.950 . S
C1164 C1165 1.349 . S
C1164 C1166 1.327 . S
C1164 H1189 0.950 . S
C1165 C1164 1.349 . S
C1165 C1181 1.349 . S
C1166 C1164 1.327 . S
C1166 C1185 1.429 . S
C1166 H1190 0.950 . S
C1167 C1184 1.574 . S
C1167 C1186 1.368 . S
C1167 H1191 0.949 . S
H1168 C1172 0.949 . S
C1169 C1170 1.349 . S
C1169 C1171 1.327 . S
C1169 H1192 0.950 . S
C1170 C1169 1.349 . S
C1170 C1182 1.349 . S
C1171 C1169 1.327 . S
C1171 C1187 1.429 . S
C1171 H1193 0.950 . S
C1172 H1168 0.949 . S
C1172 C1180 1.574 . S
C1172 C1188 1.368 . S
H1173 C1181 0.950 . S
H1174 C1179 0.950 . S
H1175 C1180 0.949 . S
H1176 C1182 0.950 . S
H1177 C1183 0.950 . S
H1178 C1184 0.949 . S
C1179 H1174 0.950 . S
C1179 C1181 1.327 . S
C1179 C1185 1.429 . S
C1180 C1172 1.574 . S
C1180 H1175 0.949 . S
C1180 C1186 1.368 . S
C1181 C1165 1.349 . S
C1181 H1173 0.950 . S
C1181 C1179 1.327 . S
C1182 C1170 1.349 . S
C1182 H1176 0.950 . S
C1182 C1183 1.327 . S
C1183 H1177 0.950 . S
C1183 C1182 1.327 . S
C1183 C1187 1.429 . S
C1184 C1167 1.574 . S
C1184 H1178 0.949 . S
C1184 C1188 1.368 . S
C1185 C1166 1.429 . S
C1185 C1179 1.429 . S
C1185 C1186 1.523 . S
C1186 C1167 1.368 . S
C1186 C1180 1.368 . S
C1186 C1185 1.523 . S
C1187 C1171 1.429 . S
C1187 C1183 1.429 . S
C1187 C1188 1.523 . S
C1188 C1172 1.368 . S
C1188 C1184 1.368 . S
C1188 C1187 1.523 . S
H1189 C1164 0.950 . S
H1190 C1166 0.950 . S
H1191 C1167 0.949 . S
H1192 C1169 0.950 . S
H1193 C1171 0.950 . S
C1194 C1195 1.349 . S
C1194 C1196 1.327 . S
C1194 H1219 0.950 . S
C1195 C1194 1.349 . S
C1195 C1211 1.349 . S
C1196 C1194 1.327 . S
C1196 C1215 1.429 . S
C1196 H1220 0.950 . S
C1197 C1214 1.574 . S
C1197 C1216 1.368 . S
C1197 H1221 0.949 . S
H1198 C1202 0.949 . S
C1199 C1200 1.349 . S
C1199 C1201 1.327 . S
C1199 H1222 0.950 . S
C1200 C1199 1.349 . S
C1200 C1212 1.349 . S
C1201 C1199 1.327 . S
C1201 C1217 1.429 . S
C1201 H1223 0.950 . S
C1202 H1198 0.949 . S
C1202 C1210 1.574 . S
C1202 C1218 1.368 . S
H1203 C1211 0.950 . S
H1204 C1209 0.950 . S
H1205 C1210 0.949 . S
H1206 C1212 0.950 . S
H1207 C1213 0.950 . S
H1208 C1214 0.949 . S
C1209 H1204 0.950 . S
C1209 C1211 1.327 . S
C1209 C1215 1.429 . S
C1210 C1202 1.574 . S
C1210 H1205 0.949 . S
C1210 C1216 1.368 . S
C1211 C1195 1.349 . S
C1211 H1203 0.950 . S
C1211 C1209 1.327 . S
C1212 C1200 1.349 . S
C1212 H1206 0.950 . S
C1212 C1213 1.327 . S
C1213 H1207 0.950 . S
C1213 C1212 1.327 . S
C1213 C1217 1.429 . S
C1214 C1197 1.574 . S
C1214 H1208 0.949 . S
C1214 C1218 1.368 . S
C1215 C1196 1.429 . S
C1215 C1209 1.429 . S
C1215 C1216 1.523 . S
C1216 C1197 1.368 . S
C1216 C1210 1.368 . S
C1216 C1215 1.523 . S
C1217 C1201 1.429 . S
C1217 C1213 1.429 . S
C1217 C1218 1.523 . S
C1218 C1202 1.368 . S
C1218 C1214 1.368 . S
C1218 C1217 1.523 . S
H1219 C1194 0.950 . S
H1220 C1196 0.950 . S
H1221 C1197 0.949 . S
H1222 C1199 0.950 . S
H1223 C1201 0.950 . S
C1224 C1225 1.349 . S
C1224 C1226 1.327 1_554 S
C1224 H1249 0.950 1_554 S
C1225 C1224 1.349 . S
C1225 C1241 1.349 . S
C1226 C1224 1.327 1_556 S
C1226 C1245 1.429 1_556 S
C1226 H1250 0.950 . S
C1227 C1244 1.574 . S
C1227 C1246 1.368 . S
C1227 H1251 0.949 . S
H1228 C1232 0.949 . S
C1229 C1230 1.349 . S
C1229 C1231 1.327 . S
C1229 H1252 0.945 1_556 S
C1230 C1229 1.349 . S
C1230 C1242 1.349 . S
C1231 C1229 1.327 . S
C1231 C1247 1.429 . S
C1231 H1253 0.950 1_556 S
C1232 H1228 0.949 . S
C1232 C1240 1.574 . S
C1232 C1248 1.368 . S
H1233 C1241 0.950 . S
H1234 C1239 0.950 . S
H1235 C1240 0.949 . S
H1236 C1242 0.950 . S
H1237 C1243 0.950 . S
H1238 C1244 0.949 . S
C1239 H1234 0.950 . S
C1239 C1241 1.327 . S
C1239 C1245 1.429 . S
C1240 C1232 1.574 . S
C1240 H1235 0.949 . S
C1240 C1246 1.368 1_556 S
C1241 C1225 1.349 . S
C1241 H1233 0.950 . S
C1241 C1239 1.327 . S
C1242 C1230 1.349 . S
C1242 H1236 0.950 . S
C1242 C1243 1.327 . S
C1243 H1237 0.950 . S
C1243 C1242 1.327 . S
C1243 C1247 1.429 . S
C1244 C1227 1.574 . S
C1244 H1238 0.949 . S
C1244 C1248 1.368 1_554 S
C1245 C1226 1.429 1_554 S
C1245 C1239 1.429 . S
C1245 C1246 1.523 . S
C1246 C1227 1.368 . S
C1246 C1240 1.368 1_554 S
C1246 C1245 1.523 . S
C1247 C1231 1.429 . S
C1247 C1243 1.429 . S
C1247 C1248 1.523 . S
C1248 C1232 1.368 . S
C1248 C1244 1.368 1_556 S
C1248 C1247 1.523 . S
H1249 C1224 0.950 1_556 S
H1250 C1226 0.950 . S
H1251 C1227 0.949 . S
H1252 C1229 0.945 1_554 S
H1253 C1231 0.950 1_554 S
C1254 C1255 1.349 1_554 S
C1254 C1256 1.327 . S
C1254 H1279 0.950 . S
C1255 C1254 1.349 1_556 S
C1255 C1271 1.349 . S
C1256 C1254 1.327 . S
C1256 C1275 1.429 1_554 S
C1256 H1280 0.950 . S
C1257 C1274 1.574 . S
C1257 C1276 1.368 . S
C1257 H1281 0.949 . S
H1258 C1262 0.949 . S
C1259 C1260 1.349 1_556 S
C1259 C1261 1.327 . S
C1259 H1282 0.950 . S
C1260 C1259 1.349 1_554 S
C1260 C1272 1.349 . S
C1261 C1259 1.327 . S
C1261 C1277 1.429 1_556 S
C1261 H1283 0.950 . S
C1262 H1258 0.949 . S
C1262 C1270 1.574 . S
C1262 C1278 1.368 . S
H1263 C1271 0.950 . S
H1264 C1269 0.950 . S
H1265 C1270 0.949 . S
H1266 C1272 0.950 . S
H1267 C1273 0.950 . S
H1268 C1274 0.949 . S
C1269 H1264 0.950 . S
C1269 C1271 1.327 . S
C1269 C1275 1.429 . S
C1270 C1262 1.574 . S
C1270 H1265 0.949 . S
C1270 C1276 1.368 1_554 S
C1271 C1255 1.349 . S
C1271 H1263 0.950 . S
C1271 C1269 1.327 . S
C1272 C1260 1.349 . S
C1272 H1266 0.950 . S
C1272 C1273 1.327 . S
C1273 H1267 0.950 . S
C1273 C1272 1.327 . S
C1273 C1277 1.429 . S
C1274 C1257 1.574 . S
C1274 H1268 0.949 . S
C1274 C1278 1.368 1_556 S
C1275 C1256 1.429 1_556 S
C1275 C1269 1.429 . S
C1275 C1276 1.523 . S
C1276 C1257 1.368 . S
C1276 C1270 1.368 1_556 S
C1276 C1275 1.523 . S
C1277 C1261 1.429 1_554 S
C1277 C1273 1.429 . S
C1277 C1278 1.523 . S
C1278 C1262 1.368 . S
C1278 C1274 1.368 1_554 S
C1278 C1277 1.523 . S
H1279 C1254 0.950 . S
H1280 C1256 0.950 . S
H1281 C1257 0.949 . S
H1282 C1259 0.950 . S
H1283 C1261 0.950 . S
C1284 C1285 1.349 . S
C1284 C1286 1.327 . S
C1284 H1309 0.950 . S
C1285 C1284 1.349 . S
C1285 C1301 1.349 . S
C1286 C1284 1.327 . S
C1286 C1305 1.429 . S
C1286 H1310 0.950 . S
C1287 C1304 1.574 . S
C1287 C1306 1.368 . S
C1287 H1311 0.949 . S
H1288 C1292 0.949 . S
C1289 C1290 1.349 . S
C1289 C1291 1.327 . S
C1289 H1312 0.950 . S
C1290 C1289 1.349 . S
C1290 C1302 1.349 . S
C1291 C1289 1.327 . S
C1291 C1307 1.429 . S
C1291 H1313 0.950 . S
C1292 H1288 0.949 . S
C1292 C1300 1.574 . S
C1292 C1308 1.368 . S
H1293 C1301 0.950 . S
H1294 C1299 0.950 . S
H1295 C1300 0.949 . S
H1296 C1302 0.950 . S
H1297 C1303 0.950 . S
H1298 C1304 0.949 . S
C1299 H1294 0.950 . S
C1299 C1301 1.327 . S
C1299 C1305 1.429 . S
C1300 C1292 1.574 . S
C1300 H1295 0.949 . S
C1300 C1306 1.368 . S
C1301 C1285 1.349 . S
C1301 H1293 0.950 . S
C1301 C1299 1.327 . S
C1302 C1290 1.349 . S
C1302 H1296 0.950 . S
C1302 C1303 1.327 . S
C1303 H1297 0.950 . S
C1303 C1302 1.327 . S
C1303 C1307 1.429 . S
C1304 C1287 1.574 . S
C1304 H1298 0.949 . S
C1304 C1308 1.368 . S
C1305 C1286 1.429 . S
C1305 C1299 1.429 . S
C1305 C1306 1.523 . S
C1306 C1287 1.368 . S
C1306 C1300 1.368 . S
C1306 C1305 1.523 . S
C1307 C1291 1.429 . S
C1307 C1303 1.429 . S
C1307 C1308 1.523 1_556 S
C1308 C1292 1.368 . S
C1308 C1304 1.368 . S
C1308 C1307 1.523 1_554 S
H1309 C1284 0.950 . S
H1310 C1286 0.950 . S
H1311 C1287 0.949 . S
H1312 C1289 0.950 . S
H1313 C1291 0.950 . S
C1314 C1315 1.349 . S
C1314 C1316 1.327 . S
C1314 H1339 0.950 . S
C1315 C1314 1.349 . S
C1315 C1331 1.349 . S
C1316 C1314 1.327 . S
C1316 C1335 1.429 . S
C1316 H1340 0.950 . S
C1317 C1334 1.574 . S
C1317 C1336 1.368 . S
C1317 H1341 0.949 . S
H1318 C1322 0.949 . S
C1319 C1320 1.349 . S
C1319 C1321 1.327 . S
C1319 H1342 0.950 . S
C1320 C1319 1.349 . S
C1320 C1332 1.349 . S
C1321 C1319 1.327 . S
C1321 C1337 1.429 . S
C1321 H1343 0.950 . S
C1322 H1318 0.949 . S
C1322 C1330 1.574 . S
C1322 C1338 1.368 . S
H1323 C1331 0.950 . S
H1324 C1329 0.950 . S
H1325 C1330 0.949 . S
H1326 C1332 0.950 . S
H1327 C1333 0.950 . S
H1328 C1334 0.949 . S
C1329 H1324 0.950 . S
C1329 C1331 1.327 . S
C1329 C1335 1.429 . S
C1330 C1322 1.574 . S
C1330 H1325 0.949 . S
C1330 C1336 1.368 . S
C1331 C1315 1.349 . S
C1331 H1323 0.950 . S
C1331 C1329 1.327 . S
C1332 C1320 1.349 . S
C1332 H1326 0.950 . S
C1332 C1333 1.327 . S
C1333 H1327 0.950 . S
C1333 C1332 1.327 . S
C1333 C1337 1.429 . S
C1334 C1317 1.574 . S
C1334 H1328 0.949 . S
C1334 C1338 1.368 . S
C1335 C1316 1.429 . S
C1335 C1329 1.429 . S
C1335 C1336 1.523 . S
C1336 C1317 1.368 . S
C1336 C1330 1.368 . S
C1336 C1335 1.523 . S
C1337 C1321 1.429 . S
C1337 C1333 1.429 . S
C1337 C1338 1.523 . S
C1338 C1322 1.368 . S
C1338 C1334 1.368 . S
C1338 C1337 1.523 . S
H1339 C1314 0.950 . S
H1340 C1316 0.950 . S
H1341 C1317 0.949 . S
H1342 C1319 0.950 . S
H1343 C1321 0.950 . S
C1344 C1345 1.349 . S
C1344 C1346 1.327 . S
C1344 H1369 0.950 . S
C1345 C1344 1.349 . S
C1345 C1361 1.349 . S
C1346 C1344 1.327 . S
C1346 C1365 1.429 . S
C1346 H1370 0.950 . S
C1347 C1364 1.574 . S
C1347 C1366 1.368 . S
C1347 H1371 0.949 . S
H1348 C1352 0.949 . S
C1349 C1350 1.349 . S
C1349 C1351 1.327 . S
C1349 H1372 0.950 . S
C1350 C1349 1.349 . S
C1350 C1362 1.349 . S
C1351 C1349 1.327 . S
C1351 C1367 1.429 . S
C1351 H1373 0.950 . S
C1352 H1348 0.949 . S
C1352 C1360 1.574 . S
C1352 C1368 1.368 . S
H1353 C1361 0.950 . S
H1354 C1359 0.950 . S
H1355 C1360 0.949 . S
H1356 C1362 0.950 . S
H1357 C1363 0.950 . S
H1358 C1364 0.949 . S
C1359 H1354 0.950 . S
C1359 C1361 1.327 . S
C1359 C1365 1.429 . S
C1360 C1352 1.574 . S
C1360 H1355 0.949 . S
C1360 C1366 1.368 . S
C1361 C1345 1.349 . S
C1361 H1353 0.950 . S
C1361 C1359 1.327 . S
C1362 C1350 1.349 . S
C1362 H1356 0.950 . S
C1362 C1363 1.327 . S
C1363 H1357 0.950 . S
C1363 C1362 1.327 . S
C1363 C1367 1.429 . S
C1364 C1347 1.574 . S
C1364 H1358 0.949 . S
C1364 C1368 1.368 . S
C1365 C1346 1.429 . S
C1365 C1359 1.429 . S
C1365 C1366 1.523 . S
C1366 C1347 1.368 . S
C1366 C1360 1.368 . S
C1366 C1365 1.523 . S
C1367 C1351 1.429 . S
C1367 C1363 1.429 . S
C1367 C1368 1.523 . S
C1368 C1352 1.368 . S
C1368 C1364 1.368 . S
C1368 C1367 1.523 . S
H1369 C1344 0.950 . S
H1370 C1346 0.950 . S
H1371 C1347 0.949 . S
H1372 C1349 0.950 . S
H1373 C1351 0.950 . S
C1374 C1375 1.349 . S
C1374 C1376 1.327 . S
C1374 H1399 0.950 . S
C1375 C1374 1.349 . S
C1375 C1391 1.349 . S
C1376 C1374 1.327 . S
C1376 C1395 1.429 . S
C1376 H1400 0.950 . S
C1377 C1394 1.574 . S
C1377 C1396 1.368 . S
C1377 H1401 0.949 . S
H1378 C1382 0.949 . S
C1379 C1380 1.349 . S
C1379 C1381 1.327 . S
C1379 H1402 0.950 . S
C1380 C1379 1.349 . S
C1380 C1392 1.349 . S
C1381 C1379 1.327 . S
C1381 C1397 1.429 . S
C1381 H1403 0.950 . S
C1382 H1378 0.949 . S
C1382 C1390 1.574 . S
C1382 C1398 1.368 . S
H1383 C1391 0.950 . S
H1384 C1389 0.950 . S
H1385 C1390 0.949 . S
H1386 C1392 0.950 . S
H1387 C1393 0.950 . S
H1388 C1394 0.949 . S
C1389 H1384 0.950 . S
C1389 C1391 1.327 . S
C1389 C1395 1.429 . S
C1390 C1382 1.574 . S
C1390 H1385 0.949 . S
C1390 C1396 1.368 . S
C1391 C1375 1.349 . S
C1391 H1383 0.950 . S
C1391 C1389 1.327 . S
C1392 C1380 1.349 . S
C1392 H1386 0.950 . S
C1392 C1393 1.327 . S
C1393 H1387 0.950 . S
C1393 C1392 1.327 . S
C1393 C1397 1.429 . S
C1394 C1377 1.574 . S
C1394 H1388 0.949 . S
C1394 C1398 1.368 . S
C1395 C1376 1.429 . S
C1395 C1389 1.429 . S
C1395 C1396 1.523 . S
C1396 C1377 1.368 . S
C1396 C1390 1.368 . S
C1396 C1395 1.523 . S
C1397 C1381 1.429 . S
C1397 C1393 1.429 . S
C1397 C1398 1.523 . S
C1398 C1382 1.368 . S
C1398 C1394 1.368 . S
C1398 C1397 1.523 . S
H1399 C1374 0.950 . S
H1400 C1376 0.950 . S
H1401 C1377 0.949 . S
H1402 C1379 0.950 . S
H1403 C1381 0.950 . S
C1404 C1405 1.349 . S
C1404 C1406 1.327 . S
C1404 H1429 0.950 . S
C1405 C1404 1.349 . S
C1405 C1421 1.349 . S
C1406 C1404 1.327 . S
C1406 C1425 1.429 . S
C1406 H1430 0.950 . S
C1407 C1424 1.574 . S
C1407 C1426 1.368 . S
C1407 H1431 0.949 . S
H1408 C1412 0.949 . S
C1409 C1410 1.349 . S
C1409 C1411 1.327 . S
C1409 H1432 0.950 . S
C1410 C1409 1.349 . S
C1410 C1422 1.349 . S
C1411 C1409 1.327 . S
C1411 C1427 1.429 . S
C1411 H1433 0.950 . S
C1412 H1408 0.949 . S
C1412 C1420 1.574 . S
C1412 C1428 1.368 . S
H1413 C1421 0.950 . S
H1414 C1419 0.950 . S
H1415 C1420 0.949 . S
H1416 C1422 0.950 . S
H1417 C1423 0.950 . S
H1418 C1424 0.949 . S
C1419 H1414 0.950 . S
C1419 C1421 1.327 . S
C1419 C1425 1.429 . S
C1420 C1412 1.574 . S
C1420 H1415 0.949 . S
C1420 C1426 1.368 . S
C1421 C1405 1.349 . S
C1421 H1413 0.950 . S
C1421 C1419 1.327 . S
C1422 C1410 1.349 . S
C1422 H1416 0.950 . S
C1422 C1423 1.327 . S
C1423 H1417 0.950 . S
C1423 C1422 1.327 . S
C1423 C1427 1.429 . S
C1424 C1407 1.574 . S
C1424 H1418 0.949 . S
C1424 C1428 1.368 . S
C1425 C1406 1.429 . S
C1425 C1419 1.429 . S
C1425 C1426 1.523 . S
C1426 C1407 1.368 . S
C1426 C1420 1.368 . S
C1426 C1425 1.523 . S
C1427 C1411 1.429 . S
C1427 C1423 1.429 . S
C1427 C1428 1.523 . S
C1428 C1412 1.368 . S
C1428 C1424 1.368 . S
C1428 C1427 1.523 . S
H1429 C1404 0.950 . S
H1430 C1406 0.950 . S
H1431 C1407 0.949 . S
H1432 C1409 0.950 . S
H1433 C1411 0.950 . S
C1434 C1435 1.349 . S
C1434 C1436 1.327 . S
C1434 H1459 0.950 . S
C1435 C1434 1.349 . S
C1435 C1451 1.349 . S
C1436 C1434 1.327 . S
C1436 C1455 1.429 . S
C1436 H1460 0.950 . S
C1437 C1454 1.574 . S
C1437 C1456 1.368 . S
C1437 H1461 0.949 . S
H1438 C1442 0.949 . S
C1439 C1440 1.349 . S
C1439 C1441 1.327 . S
C1439 H1462 0.950 . S
C1440 C1439 1.349 . S
C1440 C1452 1.349 . S
C1441 C1439 1.327 . S
C1441 C1457 1.429 . S
C1441 H1463 0.950 . S
C1442 H1438 0.949 . S
C1442 C1450 1.574 . S
C1442 C1458 1.368 . S
H1443 C1451 0.950 . S
H1444 C1449 0.950 . S
H1445 C1450 0.949 . S
H1446 C1452 0.950 . S
H1447 C1453 0.950 . S
H1448 C1454 0.949 . S
C1449 H1444 0.950 . S
C1449 C1451 1.327 . S
C1449 C1455 1.429 . S
C1450 C1442 1.574 . S
C1450 H1445 0.949 . S
C1450 C1456 1.368 . S
C1451 C1435 1.349 . S
C1451 H1443 0.950 . S
C1451 C1449 1.327 . S
C1452 C1440 1.349 . S
C1452 H1446 0.950 . S
C1452 C1453 1.327 . S
C1453 H1447 0.950 . S
C1453 C1452 1.327 . S
C1453 C1457 1.429 . S
C1454 C1437 1.574 . S
C1454 H1448 0.949 . S
C1454 C1458 1.368 . S
C1455 C1436 1.429 . S
C1455 C1449 1.429 . S
C1455 C1456 1.523 . S
C1456 C1437 1.368 . S
C1456 C1450 1.368 . S
C1456 C1455 1.523 . S
C1457 C1441 1.429 . S
C1457 C1453 1.429 . S
C1457 C1458 1.523 . S
C1458 C1442 1.368 . S
C1458 C1454 1.368 . S
C1458 C1457 1.523 . S
H1459 C1434 0.950 . S
H1460 C1436 0.950 . S
H1461 C1437 0.949 . S
H1462 C1439 0.950 . S
H1463 C1441 0.950 . S
C1464 C1465 1.349 . S
C1464 C1466 1.327 . S
C1464 H1489 0.950 . S
C1465 C1464 1.349 . S
C1465 C1481 1.349 . S
C1466 C1464 1.327 . S
C1466 C1485 1.429 . S
C1466 H1490 0.950 . S
C1467 C1484 1.574 . S
C1467 C1486 1.368 . S
C1467 H1491 0.949 . S
H1468 C1472 0.949 . S
C1469 C1470 1.349 . S
C1469 C1471 1.327 . S
C1469 H1492 0.950 . S
C1470 C1469 1.349 . S
C1470 C1482 1.349 . S
C1471 C1469 1.327 . S
C1471 C1487 1.429 . S
C1471 H1493 0.950 . S
C1472 H1468 0.949 . S
C1472 C1480 1.574 . S
C1472 C1488 1.368 . S
H1473 C1481 0.950 . S
H1474 C1479 0.950 . S
H1475 C1480 0.949 . S
H1476 C1482 0.950 . S
H1477 C1483 0.950 . S
H1478 C1484 0.949 . S
C1479 H1474 0.950 . S
C1479 C1481 1.327 . S
C1479 C1485 1.429 . S
C1480 C1472 1.574 . S
C1480 H1475 0.949 . S
C1480 C1486 1.368 . S
C1481 C1465 1.349 . S
C1481 H1473 0.950 . S
C1481 C1479 1.327 . S
C1482 C1470 1.349 . S
C1482 H1476 0.950 . S
C1482 C1483 1.327 . S
C1483 H1477 0.950 . S
C1483 C1482 1.327 . S
C1483 C1487 1.429 . S
C1484 C1467 1.574 . S
C1484 H1478 0.949 . S
C1484 C1488 1.368 . S
C1485 C1466 1.429 . S
C1485 C1479 1.429 . S
C1485 C1486 1.523 . S
C1486 C1467 1.368 . S
C1486 C1480 1.368 . S
C1486 C1485 1.523 . S
C1487 C1471 1.429 . S
C1487 C1483 1.429 . S
C1487 C1488 1.523 . S
C1488 C1472 1.368 . S
C1488 C1484 1.368 . S
C1488 C1487 1.523 . S
H1489 C1464 0.950 . S
H1490 C1466 0.950 . S
H1491 C1467 0.949 . S
H1492 C1469 0.950 . S
H1493 C1471 0.950 . S
C1494 C1495 1.349 . S
C1494 C1496 1.327 . S
C1494 H1519 0.950 . S
C1495 C1494 1.349 . S
C1495 C1511 1.349 . S
C1496 C1494 1.327 . S
C1496 C1515 1.429 . S
C1496 H1520 0.950 . S
C1497 C1514 1.574 . S
C1497 C1516 1.368 . S
C1497 H1521 0.949 . S
H1498 C1502 0.949 . S
C1499 C1500 1.349 . S
C1499 C1501 1.327 . S
C1499 H1522 0.950 . S
C1500 C1499 1.349 . S
C1500 C1512 1.349 . S
C1501 C1499 1.327 . S
C1501 C1517 1.429 . S
C1501 H1523 0.950 . S
C1502 H1498 0.949 . S
C1502 C1510 1.574 . S
C1502 C1518 1.368 . S
H1503 C1511 0.950 . S
H1504 C1509 0.950 . S
H1505 C1510 0.949 . S
H1506 C1512 0.950 . S
H1507 C1513 0.950 . S
H1508 C1514 0.949 . S
C1509 H1504 0.950 . S
C1509 C1511 1.327 . S
C1509 C1515 1.429 . S
C1510 C1502 1.574 . S
C1510 H1505 0.949 . S
C1510 C1516 1.368 . S
C1511 C1495 1.349 . S
C1511 H1503 0.950 . S
C1511 C1509 1.327 . S
C1512 C1500 1.349 . S
C1512 H1506 0.950 . S
C1512 C1513 1.327 . S
C1513 H1507 0.950 . S
C1513 C1512 1.327 . S
C1513 C1517 1.429 . S
C1514 C1497 1.574 . S
C1514 H1508 0.949 . S
C1514 C1518 1.368 . S
C1515 C1496 1.429 . S
C1515 C1509 1.429 . S
C1515 C1516 1.523 . S
C1516 C1497 1.368 . S
C1516 C1510 1.368 . S
C1516 C1515 1.523 . S
C1517 C1501 1.429 . S
C1517 C1513 1.429 . S
C1517 C1518 1.523 . S
C1518 C1502 1.368 . S
C1518 C1514 1.368 . S
C1518 C1517 1.523 . S
H1519 C1494 0.950 . S
H1520 C1496 0.950 . S
H1521 C1497 0.949 . S
H1522 C1499 0.950 . S
H1523 C1501 0.950 . S
C1524 C1525 1.349 . S
C1524 C1526 1.327 . S
C1524 H1549 0.950 . S
C1525 C1524 1.349 . S
C1525 C1541 1.349 . S
C1526 C1524 1.327 . S
C1526 C1545 1.429 . S
C1526 H1550 0.950 . S
C1527 C1544 1.574 . S
C1527 C1546 1.368 . S
C1527 H1551 0.949 . S
H1528 C1532 0.949 . S
C1529 C1530 1.349 . S
C1529 C1531 1.327 . S
C1529 H1552 0.950 . S
C1530 C1529 1.349 . S
C1530 C1542 1.349 . S
C1531 C1529 1.327 . S
C1531 C1547 1.429 . S
C1531 H1553 0.950 . S
C1532 H1528 0.949 . S
C1532 C1540 1.574 . S
C1532 C1548 1.368 . S
H1533 C1541 0.950 . S
H1534 C1539 0.950 . S
H1535 C1540 0.949 . S
H1536 C1542 0.950 . S
H1537 C1543 0.950 . S
H1538 C1544 0.949 . S
C1539 H1534 0.950 . S
C1539 C1541 1.327 . S
C1539 C1545 1.429 . S
C1540 C1532 1.574 . S
C1540 H1535 0.949 . S
C1540 C1546 1.368 . S
C1541 C1525 1.349 . S
C1541 H1533 0.950 . S
C1541 C1539 1.327 . S
C1542 C1530 1.349 . S
C1542 H1536 0.950 . S
C1542 C1543 1.327 . S
C1543 H1537 0.950 . S
C1543 C1542 1.327 . S
C1543 C1547 1.429 . S
C1544 C1527 1.574 . S
C1544 H1538 0.949 . S
C1544 C1548 1.368 . S
C1545 C1526 1.429 . S
C1545 C1539 1.429 . S
C1545 C1546 1.523 . S
C1546 C1527 1.368 . S
C1546 C1540 1.368 . S
C1546 C1545 1.523 . S
C1547 C1531 1.429 . S
C1547 C1543 1.429 . S
C1547 C1548 1.523 . S
C1548 C1532 1.368 . S
C1548 C1544 1.368 . S
C1548 C1547 1.523 . S
H1549 C1524 0.950 . S
H1550 C1526 0.950 . S
H1551 C1527 0.949 . S
H1552 C1529 0.950 . S
H1553 C1531 0.950 . S
C1554 C1555 1.349 . S
C1554 C1556 1.327 . S
C1554 H1579 0.950 . S
C1555 C1554 1.349 . S
C1555 C1571 1.349 . S
C1556 C1554 1.327 . S
C1556 C1575 1.429 . S
C1556 H1580 0.950 . S
C1557 C1574 1.574 . S
C1557 C1576 1.368 . S
C1557 H1581 0.949 . S
H1558 C1562 0.949 . S
C1559 C1560 1.349 . S
C1559 C1561 1.327 . S
C1559 H1582 0.950 . S
C1560 C1559 1.349 . S
C1560 C1572 1.349 . S
C1561 C1559 1.327 . S
C1561 C1577 1.429 . S
C1561 H1583 0.950 . S
C1562 H1558 0.949 . S
C1562 C1570 1.574 . S
C1562 C1578 1.368 . S
H1563 C1571 0.950 . S
H1564 C1569 0.950 . S
H1565 C1570 0.949 . S
H1566 C1572 0.950 . S
H1567 C1573 0.950 . S
H1568 C1574 0.949 . S
C1569 H1564 0.950 . S
C1569 C1571 1.327 . S
C1569 C1575 1.429 . S
C1570 C1562 1.574 . S
C1570 H1565 0.949 . S
C1570 C1576 1.368 . S
C1571 C1555 1.349 . S
C1571 H1563 0.950 . S
C1571 C1569 1.327 . S
C1572 C1560 1.349 . S
C1572 H1566 0.950 . S
C1572 C1573 1.327 . S
C1573 H1567 0.950 . S
C1573 C1572 1.327 . S
C1573 C1577 1.429 . S
C1574 C1557 1.574 . S
C1574 H1568 0.949 . S
C1574 C1578 1.368 . S
C1575 C1556 1.429 . S
C1575 C1569 1.429 . S
C1575 C1576 1.523 . S
C1576 C1557 1.368 . S
C1576 C1570 1.368 . S
C1576 C1575 1.523 . S
C1577 C1561 1.429 . S
C1577 C1573 1.429 . S
C1577 C1578 1.523 . S
C1578 C1562 1.368 . S
C1578 C1574 1.368 . S
C1578 C1577 1.523 . S
H1579 C1554 0.950 . S
H1580 C1556 0.950 . S
H1581 C1557 0.949 . S
H1582 C1559 0.950 . S
H1583 C1561 0.950 . S
C1584 C1585 1.349 . S
C1584 C1586 1.327 . S
C1584 H1609 0.950 . S
C1585 C1584 1.349 . S
C1585 C1601 1.349 . S
C1586 C1584 1.327 . S
C1586 C1605 1.429 . S
C1586 H1610 0.950 . S
C1587 C1604 1.574 . S
C1587 C1606 1.368 . S
C1587 H1611 0.949 . S
H1588 C1592 0.949 . S
C1589 C1590 1.349 . S
C1589 C1591 1.327 . S
C1589 H1612 0.950 . S
C1590 C1589 1.349 . S
C1590 C1602 1.349 . S
C1591 C1589 1.327 . S
C1591 C1607 1.429 . S
C1591 H1613 0.950 . S
C1592 H1588 0.949 . S
C1592 C1600 1.574 . S
C1592 C1608 1.368 . S
H1593 C1601 0.950 . S
H1594 C1599 0.950 . S
H1595 C1600 0.949 . S
H1596 C1602 0.950 . S
H1597 C1603 0.950 . S
H1598 C1604 0.949 . S
C1599 H1594 0.950 . S
C1599 C1601 1.327 . S
C1599 C1605 1.429 . S
C1600 C1592 1.574 . S
C1600 H1595 0.949 . S
C1600 C1606 1.368 . S
C1601 C1585 1.349 . S
C1601 H1593 0.950 . S
C1601 C1599 1.327 . S
C1602 C1590 1.349 . S
C1602 H1596 0.950 . S
C1602 C1603 1.327 . S
C1603 H1597 0.950 . S
C1603 C1602 1.327 . S
C1603 C1607 1.429 . S
C1604 C1587 1.574 . S
C1604 H1598 0.949 . S
C1604 C1608 1.368 . S
C1605 C1586 1.429 . S
C1605 C1599 1.429 . S
C1605 C1606 1.523 . S
C1606 C1587 1.368 . S
C1606 C1600 1.368 . S
C1606 C1605 1.523 . S
C1607 C1591 1.429 . S
C1607 C1603 1.429 . S
C1607 C1608 1.523 . S
C1608 C1592 1.368 . S
C1608 C1604 1.368 . S
C1608 C1607 1.523 . S
H1609 C1584 0.950 . S
H1610 C1586 0.950 . S
H1611 C1587 0.949 . S
H1612 C1589 0.950 . S
H1613 C1591 0.950 . S
C1614 C1615 1.349 . S
C1614 C1616 1.327 . S
C1614 H1639 0.950 . S
C1615 C1614 1.349 . S
C1615 C1631 1.349 . S
C1616 C1614 1.327 . S
C1616 C1635 1.429 . S
C1616 H1640 0.950 . S
C1617 C1634 1.574 . S
C1617 C1636 1.368 . S
C1617 H1641 0.949 . S
H1618 C1622 0.949 . S
C1619 C1620 1.349 . S
C1619 C1621 1.327 . S
C1619 H1642 0.950 . S
C1620 C1619 1.349 . S
C1620 C1632 1.349 . S
C1621 C1619 1.327 . S
C1621 C1637 1.429 . S
C1621 H1643 0.950 . S
C1622 H1618 0.949 . S
C1622 C1630 1.574 . S
C1622 C1638 1.368 . S
H1623 C1631 0.950 . S
H1624 C1629 0.950 . S
H1625 C1630 0.949 . S
H1626 C1632 0.950 . S
H1627 C1633 0.950 . S
H1628 C1634 0.949 . S
C1629 H1624 0.950 . S
C1629 C1631 1.327 . S
C1629 C1635 1.429 . S
C1630 C1622 1.574 . S
C1630 H1625 0.949 . S
C1630 C1636 1.368 . S
C1631 C1615 1.349 . S
C1631 H1623 0.950 . S
C1631 C1629 1.327 . S
C1632 C1620 1.349 . S
C1632 H1626 0.950 . S
C1632 C1633 1.327 . S
C1633 H1627 0.950 . S
C1633 C1632 1.327 . S
C1633 C1637 1.429 . S
C1634 C1617 1.574 . S
C1634 H1628 0.949 . S
C1634 C1638 1.368 . S
C1635 C1616 1.429 . S
C1635 C1629 1.429 . S
C1635 C1636 1.523 . S
C1636 C1617 1.368 . S
C1636 C1630 1.368 . S
C1636 C1635 1.523 . S
C1637 C1621 1.429 . S
C1637 C1633 1.429 . S
C1637 C1638 1.523 . S
C1638 C1622 1.368 . S
C1638 C1634 1.368 . S
C1638 C1637 1.523 . S
H1639 C1614 0.950 . S
H1640 C1616 0.950 . S
H1641 C1617 0.949 . S
H1642 C1619 0.950 . S
H1643 C1621 0.950 . S
C1644 C1645 1.349 . S
C1644 C1646 1.327 . S
C1644 H1669 0.950 . S
C1645 C1644 1.349 . S
C1645 C1661 1.349 . S
C1646 C1644 1.327 . S
C1646 C1665 1.429 . S
C1646 H1670 0.950 . S
C1647 C1664 1.574 . S
C1647 C1666 1.368 . S
C1647 H1671 0.949 . S
H1648 C1652 0.949 . S
C1649 C1650 1.349 . S
C1649 C1651 1.327 . S
C1649 H1672 0.950 . S
C1650 C1649 1.349 . S
C1650 C1662 1.349 . S
C1651 C1649 1.327 . S
C1651 C1667 1.429 . S
C1651 H1673 0.950 . S
C1652 H1648 0.949 . S
C1652 C1660 1.574 . S
C1652 C1668 1.368 . S
H1653 C1661 0.950 . S
H1654 C1659 0.950 . S
H1655 C1660 0.949 . S
H1656 C1662 0.950 . S
H1657 C1663 0.950 . S
H1658 C1664 0.949 . S
C1659 H1654 0.950 . S
C1659 C1661 1.327 . S
C1659 C1665 1.429 . S
C1660 C1652 1.574 . S
C1660 H1655 0.949 . S
C1660 C1666 1.368 . S
C1661 C1645 1.349 . S
C1661 H1653 0.950 . S
C1661 C1659 1.327 . S
C1662 C1650 1.349 . S
C1662 H1656 0.950 . S
C1662 C1663 1.327 . S
C1663 H1657 0.950 . S
C1663 C1662 1.327 . S
C1663 C1667 1.429 . S
C1664 C1647 1.574 . S
C1664 H1658 0.949 . S
C1664 C1668 1.368 . S
C1665 C1646 1.429 . S
C1665 C1659 1.429 . S
C1665 C1666 1.523 . S
C1666 C1647 1.368 . S
C1666 C1660 1.368 . S
C1666 C1665 1.523 . S
C1667 C1651 1.429 . S
C1667 C1663 1.429 . S
C1667 C1668 1.523 . S
C1668 C1652 1.368 . S
C1668 C1664 1.368 . S
C1668 C1667 1.523 . S
H1669 C1644 0.950 . S
H1670 C1646 0.950 . S
H1671 C1647 0.949 . S
H1672 C1649 0.950 . S
H1673 C1651 0.950 . S
C1674 C1675 1.349 . S
C1674 C1676 1.327 . S
C1674 H1699 0.950 . S
C1675 C1674 1.349 . S
C1675 C1691 1.349 . S
C1676 C1674 1.327 . S
C1676 C1695 1.429 . S
C1676 H1700 0.950 . S
C1677 C1694 1.574 . S
C1677 C1696 1.368 . S
C1677 H1701 0.949 . S
H1678 C1682 0.949 . S
C1679 C1680 1.349 . S
C1679 C1681 1.327 . S
C1679 H1702 0.950 . S
C1680 C1679 1.349 . S
C1680 C1692 1.349 . S
C1681 C1679 1.327 . S
C1681 C1697 1.429 . S
C1681 H1703 0.950 . S
C1682 H1678 0.949 . S
C1682 C1690 1.574 . S
C1682 C1698 1.368 . S
H1683 C1691 0.950 . S
H1684 C1689 0.950 . S
H1685 C1690 0.949 . S
H1686 C1692 0.950 . S
H1687 C1693 0.950 . S
H1688 C1694 0.949 . S
C1689 H1684 0.950 . S
C1689 C1691 1.327 . S
C1689 C1695 1.429 . S
C1690 C1682 1.574 . S
C1690 H1685 0.949 . S
C1690 C1696 1.368 . S
C1691 C1675 1.349 . S
C1691 H1683 0.950 . S
C1691 C1689 1.327 . S
C1692 C1680 1.349 . S
C1692 H1686 0.950 . S
C1692 C1693 1.327 . S
C1693 H1687 0.950 . S
C1693 C1692 1.327 . S
C1693 C1697 1.429 . S
C1694 C1677 1.574 . S
C1694 H1688 0.949 . S
C1694 C1698 1.368 . S
C1695 C1676 1.429 . S
C1695 C1689 1.429 . S
C1695 C1696 1.523 . S
C1696 C1677 1.368 . S
C1696 C1690 1.368 . S
C1696 C1695 1.523 . S
C1697 C1681 1.429 . S
C1697 C1693 1.429 . S
C1697 C1698 1.523 . S
C1698 C1682 1.368 . S
C1698 C1694 1.368 . S
C1698 C1697 1.523 . S
H1699 C1674 0.950 . S
H1700 C1676 0.950 . S
H1701 C1677 0.949 . S
H1702 C1679 0.950 . S
H1703 C1681 0.950 . S
C1704 C1705 1.349 . S
C1704 C1706 1.327 . S
C1704 H1729 0.950 . S
C1705 C1704 1.349 . S
C1705 C1721 1.349 . S
C1706 C1704 1.327 . S
C1706 C1725 1.429 . S
C1706 H1730 0.950 . S
C1707 C1724 1.574 . S
C1707 C1726 1.368 . S
C1707 H1731 0.949 . S
H1708 C1712 0.949 . S
C1709 C1710 1.349 . S
C1709 C1711 1.327 . S
C1709 H1732 0.950 . S
C1710 C1709 1.349 . S
C1710 C1722 1.349 . S
C1711 C1709 1.327 . S
C1711 C1727 1.429 . S
C1711 H1733 0.950 . S
C1712 H1708 0.949 . S
C1712 C1720 1.574 . S
C1712 C1728 1.368 . S
H1713 C1721 0.950 . S
H1714 C1719 0.950 . S
H1715 C1720 0.949 . S
H1716 C1722 0.950 . S
H1717 C1723 0.950 . S
H1718 C1724 0.949 . S
C1719 H1714 0.950 . S
C1719 C1721 1.327 . S
C1719 C1725 1.429 . S
C1720 C1712 1.574 . S
C1720 H1715 0.949 . S
C1720 C1726 1.368 . S
C1721 C1705 1.349 . S
C1721 H1713 0.950 . S
C1721 C1719 1.327 . S
C1722 C1710 1.349 . S
C1722 H1716 0.950 . S
C1722 C1723 1.327 . S
C1723 H1717 0.950 . S
C1723 C1722 1.327 . S
C1723 C1727 1.429 . S
C1724 C1707 1.574 . S
C1724 H1718 0.949 . S
C1724 C1728 1.368 . S
C1725 C1706 1.429 . S
C1725 C1719 1.429 . S
C1725 C1726 1.523 . S
C1726 C1707 1.368 . S
C1726 C1720 1.368 . S
C1726 C1725 1.523 . S
C1727 C1711 1.429 . S
C1727 C1723 1.429 . S
C1727 C1728 1.523 . S
C1728 C1712 1.368 . S
C1728 C1724 1.368 . S
C1728 C1727 1.523 . S
H1729 C1704 0.950 . S
H1730 C1706 0.950 . S
H1731 C1707 0.949 . S
H1732 C1709 0.950 . S
H1733 C1711 0.950 . S
C1734 C1735 1.349 . S
C1734 C1736 1.327 . S
C1734 H1759 0.950 . S
C1735 C1734 1.349 . S
C1735 C1751 1.349 . S
C1736 C1734 1.327 . S
C1736 C1755 1.429 . S
C1736 H1760 0.950 . S
C1737 C1754 1.574 . S
C1737 C1756 1.368 . S
C1737 H1761 0.949 . S
H1738 C1742 0.949 . S
C1739 C1740 1.349 . S
C1739 C1741 1.327 . S
C1739 H1762 0.950 . S
C1740 C1739 1.349 . S
C1740 C1752 1.349 . S
C1741 C1739 1.327 . S
C1741 C1757 1.429 . S
C1741 H1763 0.950 . S
C1742 H1738 0.949 . S
C1742 C1750 1.574 . S
C1742 C1758 1.368 . S
H1743 C1751 0.950 . S
H1744 C1749 0.950 . S
H1745 C1750 0.949 . S
H1746 C1752 0.950 . S
H1747 C1753 0.950 . S
H1748 C1754 0.949 . S
C1749 H1744 0.950 . S
C1749 C1751 1.327 . S
C1749 C1755 1.429 . S
C1750 C1742 1.574 . S
C1750 H1745 0.949 . S
C1750 C1756 1.368 . S
C1751 C1735 1.349 . S
C1751 H1743 0.950 . S
C1751 C1749 1.327 . S
C1752 C1740 1.349 . S
C1752 H1746 0.950 . S
C1752 C1753 1.327 . S
C1753 H1747 0.950 . S
C1753 C1752 1.327 . S
C1753 C1757 1.429 . S
C1754 C1737 1.574 . S
C1754 H1748 0.949 . S
C1754 C1758 1.368 . S
C1755 C1736 1.429 . S
C1755 C1749 1.429 . S
C1755 C1756 1.523 . S
C1756 C1737 1.368 . S
C1756 C1750 1.368 . S
C1756 C1755 1.523 . S
C1757 C1741 1.429 . S
C1757 C1753 1.429 . S
C1757 C1758 1.523 . S
C1758 C1742 1.368 . S
C1758 C1754 1.368 . S
C1758 C1757 1.523 . S
H1759 C1734 0.950 . S
H1760 C1736 0.950 . S
H1761 C1737 0.949 . S
H1762 C1739 0.950 . S
H1763 C1741 0.950 . S
C1764 C1765 1.349 . S
C1764 C1766 1.327 . S
C1764 H1789 0.950 . S
C1765 C1764 1.349 . S
C1765 C1781 1.349 . S
C1766 C1764 1.327 . S
C1766 C1785 1.429 . S
C1766 H1790 0.950 . S
C1767 C1784 1.574 . S
C1767 C1786 1.368 . S
C1767 H1791 0.949 . S
H1768 C1772 0.949 . S
C1769 C1770 1.349 . S
C1769 C1771 1.327 . S
C1769 H1792 0.950 . S
C1770 C1769 1.349 . S
C1770 C1782 1.349 . S
C1771 C1769 1.327 . S
C1771 C1787 1.429 . S
C1771 H1793 0.950 . S
C1772 H1768 0.949 . S
C1772 C1780 1.574 . S
C1772 C1788 1.368 . S
H1773 C1781 0.950 . S
H1774 C1779 0.950 . S
H1775 C1780 0.949 . S
H1776 C1782 0.950 . S
H1777 C1783 0.950 . S
H1778 C1784 0.949 . S
C1779 H1774 0.950 . S
C1779 C1781 1.327 . S
C1779 C1785 1.429 . S
C1780 C1772 1.574 . S
C1780 H1775 0.949 . S
C1780 C1786 1.368 . S
C1781 C1765 1.349 . S
C1781 H1773 0.950 . S
C1781 C1779 1.327 . S
C1782 C1770 1.349 . S
C1782 H1776 0.950 . S
C1782 C1783 1.327 . S
C1783 H1777 0.950 . S
C1783 C1782 1.327 . S
C1783 C1787 1.429 . S
C1784 C1767 1.574 . S
C1784 H1778 0.949 . S
C1784 C1788 1.368 . S
C1785 C1766 1.429 . S
C1785 C1779 1.429 . S
C1785 C1786 1.523 . S
C1786 C1767 1.368 . S
C1786 C1780 1.368 . S
C1786 C1785 1.523 . S
C1787 C1771 1.429 . S
C1787 C1783 1.429 . S
C1787 C1788 1.523 . S
C1788 C1772 1.368 . S
C1788 C1784 1.368 . S
C1788 C1787 1.523 . S
H1789 C1764 0.950 . S
H1790 C1766 0.950 . S
H1791 C1767 0.949 . S
H1792 C1769 0.950 . S
H1793 C1771 0.950 . S
C1794 C1795 1.349 . S
C1794 C1796 1.327 . S
C1794 H1819 0.950 . S
C1795 C1794 1.349 . S
C1795 C1811 1.349 . S
C1796 C1794 1.327 . S
C1796 C1815 1.429 . S
C1796 H1820 0.950 . S
C1797 C1814 1.574 . S
C1797 C1816 1.368 . S
C1797 H1821 0.949 . S
H1798 C1802 0.949 . S
C1799 C1800 1.349 . S
C1799 C1801 1.327 . S
C1799 H1822 0.950 . S
C1800 C1799 1.349 . S
C1800 C1812 1.349 . S
C1801 C1799 1.327 . S
C1801 C1817 1.429 . S
C1801 H1823 0.950 . S
C1802 H1798 0.949 . S
C1802 C1810 1.574 . S
C1802 C1818 1.368 . S
H1803 C1811 0.950 . S
H1804 C1809 0.950 . S
H1805 C1810 0.949 . S
H1806 C1812 0.950 . S
H1807 C1813 0.950 . S
H1808 C1814 0.949 . S
C1809 H1804 0.950 . S
C1809 C1811 1.327 . S
C1809 C1815 1.429 . S
C1810 C1802 1.574 . S
C1810 H1805 0.949 . S
C1810 C1816 1.368 . S
C1811 C1795 1.349 . S
C1811 H1803 0.950 . S
C1811 C1809 1.327 . S
C1812 C1800 1.349 . S
C1812 H1806 0.950 . S
C1812 C1813 1.327 . S
C1813 H1807 0.950 . S
C1813 C1812 1.327 . S
C1813 C1817 1.429 . S
C1814 C1797 1.574 . S
C1814 H1808 0.949 . S
C1814 C1818 1.368 . S
C1815 C1796 1.429 . S
C1815 C1809 1.429 . S
C1815 C1816 1.523 . S
C1816 C1797 1.368 . S
C1816 C1810 1.368 . S
C1816 C1815 1.523 . S
C1817 C1801 1.429 . S
C1817 C1813 1.429 . S
C1817 C1818 1.523 . S
C1818 C1802 1.368 . S
C1818 C1814 1.368 . S
C1818 C1817 1.523 . S
H1819 C1794 0.950 . S
H1820 C1796 0.950 . S
H1821 C1797 0.949 . S
H1822 C1799 0.950 . S
H1823 C1801 0.950 . S
C1824 C1825 1.349 . S
C1824 C1826 1.327 . S
C1824 H1849 0.950 . S
C1825 C1824 1.349 . S
C1825 C1841 1.349 . S
C1826 C1824 1.327 . S
C1826 C1845 1.429 . S
C1826 H1850 0.950 . S
C1827 C1844 1.574 . S
C1827 C1846 1.368 . S
C1827 H1851 0.949 . S
H1828 C1832 0.949 . S
C1829 C1830 1.349 . S
C1829 C1831 1.327 . S
C1829 H1852 0.950 . S
C1830 C1829 1.349 . S
C1830 C1842 1.349 . S
C1831 C1829 1.327 . S
C1831 C1847 1.429 . S
C1831 H1853 0.950 . S
C1832 H1828 0.949 . S
C1832 C1840 1.574 . S
C1832 C1848 1.368 . S
H1833 C1841 0.950 . S
H1834 C1839 0.950 . S
H1835 C1840 0.949 . S
H1836 C1842 0.950 . S
H1837 C1843 0.950 . S
H1838 C1844 0.949 . S
C1839 H1834 0.950 . S
C1839 C1841 1.327 . S
C1839 C1845 1.429 . S
C1840 C1832 1.574 . S
C1840 H1835 0.949 . S
C1840 C1846 1.368 . S
C1841 C1825 1.349 . S
C1841 H1833 0.950 . S
C1841 C1839 1.327 . S
C1842 C1830 1.349 . S
C1842 H1836 0.950 . S
C1842 C1843 1.327 . S
C1843 H1837 0.950 . S
C1843 C1842 1.327 . S
C1843 C1847 1.429 . S
C1844 C1827 1.574 . S
C1844 H1838 0.949 . S
C1844 C1848 1.368 . S
C1845 C1826 1.429 . S
C1845 C1839 1.429 . S
C1845 C1846 1.523 . S
C1846 C1827 1.368 . S
C1846 C1840 1.368 . S
C1846 C1845 1.523 . S
C1847 C1831 1.429 . S
C1847 C1843 1.429 . S
C1847 C1848 1.523 . S
C1848 C1832 1.368 . S
C1848 C1844 1.368 . S
C1848 C1847 1.523 . S
H1849 C1824 0.950 . S
H1850 C1826 0.950 . S
H1851 C1827 0.949 . S
H1852 C1829 0.950 . S
H1853 C1831 0.950 . S
C1854 C1855 1.349 . S
C1854 C1856 1.327 . S
C1854 H1879 0.950 . S
C1855 C1854 1.349 . S
C1855 C1871 1.349 . S
C1856 C1854 1.327 . S
C1856 C1875 1.429 . S
C1856 H1880 0.950 . S
C1857 C1874 1.574 . S
C1857 C1876 1.368 . S
C1857 H1881 0.949 . S
H1858 C1862 0.949 . S
C1859 C1860 1.349 . S
C1859 C1861 1.327 . S
C1859 H1882 0.950 . S
C1860 C1859 1.349 . S
C1860 C1872 1.349 . S
C1861 C1859 1.327 . S
C1861 C1877 1.429 . S
C1861 H1883 0.950 . S
C1862 H1858 0.949 . S
C1862 C1870 1.574 . S
C1862 C1878 1.368 . S
H1863 C1871 0.950 . S
H1864 C1869 0.950 . S
H1865 C1870 0.949 . S
H1866 C1872 0.950 . S
H1867 C1873 0.950 . S
H1868 C1874 0.949 . S
C1869 H1864 0.950 . S
C1869 C1871 1.327 . S
C1869 C1875 1.429 . S
C1870 C1862 1.574 . S
C1870 H1865 0.949 . S
C1870 C1876 1.368 . S
C1871 C1855 1.349 . S
C1871 H1863 0.950 . S
C1871 C1869 1.327 . S
C1872 C1860 1.349 . S
C1872 H1866 0.950 . S
C1872 C1873 1.327 . S
C1873 H1867 0.950 . S
C1873 C1872 1.327 . S
C1873 C1877 1.429 . S
C1874 C1857 1.574 . S
C1874 H1868 0.949 . S
C1874 C1878 1.368 . S
C1875 C1856 1.429 . S
C1875 C1869 1.429 . S
C1875 C1876 1.523 . S
C1876 C1857 1.368 . S
C1876 C1870 1.368 . S
C1876 C1875 1.523 . S
C1877 C1861 1.429 . S
C1877 C1873 1.429 . S
C1877 C1878 1.523 . S
C1878 C1862 1.368 . S
C1878 C1874 1.368 . S
C1878 C1877 1.523 . S
H1879 C1854 0.950 . S
H1880 C1856 0.950 . S
H1881 C1857 0.949 . S
H1882 C1859 0.950 . S
H1883 C1861 0.950 . S
C1884 C1885 1.349 . S
C1884 C1886 1.327 . S
C1884 H1909 0.950 . S
C1885 C1884 1.349 . S
C1885 C1901 1.349 . S
C1886 C1884 1.327 . S
C1886 C1905 1.429 . S
C1886 H1910 0.950 . S
C1887 C1904 1.574 . S
C1887 C1906 1.368 . S
C1887 H1911 0.949 . S
H1888 C1892 0.949 . S
C1889 C1890 1.349 . S
C1889 C1891 1.327 . S
C1889 H1912 0.950 . S
C1890 C1889 1.349 . S
C1890 C1902 1.349 . S
C1891 C1889 1.327 . S
C1891 C1907 1.429 . S
C1891 H1913 0.950 . S
C1892 H1888 0.949 . S
C1892 C1900 1.574 . S
C1892 C1908 1.368 . S
H1893 C1901 0.950 . S
H1894 C1899 0.950 . S
H1895 C1900 0.949 . S
H1896 C1902 0.950 . S
H1897 C1903 0.950 . S
H1898 C1904 0.949 . S
C1899 H1894 0.950 . S
C1899 C1901 1.327 . S
C1899 C1905 1.429 . S
C1900 C1892 1.574 . S
C1900 H1895 0.949 . S
C1900 C1906 1.368 . S
C1901 C1885 1.349 . S
C1901 H1893 0.950 . S
C1901 C1899 1.327 . S
C1902 C1890 1.349 . S
C1902 H1896 0.950 . S
C1902 C1903 1.327 . S
C1903 H1897 0.950 . S
C1903 C1902 1.327 . S
C1903 C1907 1.429 . S
C1904 C1887 1.574 . S
C1904 H1898 0.949 . S
C1904 C1908 1.368 . S
C1905 C1886 1.429 . S
C1905 C1899 1.429 . S
C1905 C1906 1.523 . S
C1906 C1887 1.368 . S
C1906 C1900 1.368 . S
C1906 C1905 1.523 . S
C1907 C1891 1.429 . S
C1907 C1903 1.429 . S
C1907 C1908 1.523 . S
C1908 C1892 1.368 . S
C1908 C1904 1.368 . S
C1908 C1907 1.523 . S
H1909 C1884 0.950 . S
H1910 C1886 0.950 . S
H1911 C1887 0.949 . S
H1912 C1889 0.950 . S
H1913 C1891 0.950 . S
C1914 C1915 1.349 . S
C1914 C1916 1.327 . S
C1914 H1939 0.950 . S
C1915 C1914 1.349 . S
C1915 C1931 1.349 . S
C1916 C1914 1.327 . S
C1916 C1935 1.429 . S
C1916 H1940 0.950 . S
C1917 C1934 1.574 . S
C1917 C1936 1.368 . S
C1917 H1941 0.949 . S
H1918 C1922 0.949 . S
C1919 C1920 1.349 . S
C1919 C1921 1.327 . S
C1919 H1942 0.950 . S
C1920 C1919 1.349 . S
C1920 C1932 1.349 . S
C1921 C1919 1.327 . S
C1921 C1937 1.429 . S
C1921 H1943 0.950 . S
C1922 H1918 0.949 . S
C1922 C1930 1.574 . S
C1922 C1938 1.368 . S
H1923 C1931 0.950 . S
H1924 C1929 0.950 . S
H1925 C1930 0.949 . S
H1926 C1932 0.950 . S
H1927 C1933 0.950 . S
H1928 C1934 0.949 . S
C1929 H1924 0.950 . S
C1929 C1931 1.327 . S
C1929 C1935 1.429 . S
C1930 C1922 1.574 . S
C1930 H1925 0.949 . S
C1930 C1936 1.368 . S
C1931 C1915 1.349 . S
C1931 H1923 0.950 . S
C1931 C1929 1.327 . S
C1932 C1920 1.349 . S
C1932 H1926 0.950 . S
C1932 C1933 1.327 . S
C1933 H1927 0.950 . S
C1933 C1932 1.327 . S
C1933 C1937 1.429 . S
C1934 C1917 1.574 . S
C1934 H1928 0.949 . S
C1934 C1938 1.368 . S
C1935 C1916 1.429 . S
C1935 C1929 1.429 . S
C1935 C1936 1.523 . S
C1936 C1917 1.368 . S
C1936 C1930 1.368 . S
C1936 C1935 1.523 . S
C1937 C1921 1.429 . S
C1937 C1933 1.429 . S
C1937 C1938 1.523 . S
C1938 C1922 1.368 . S
C1938 C1934 1.368 . S
C1938 C1937 1.523 . S
H1939 C1914 0.950 . S
H1940 C1916 0.950 . S
H1941 C1917 0.949 . S
H1942 C1919 0.950 . S
H1943 C1921 0.950 . S
C1944 C1945 1.349 . S
C1944 C1946 1.327 . S
C1944 H1969 0.950 . S
C1945 C1944 1.349 . S
C1945 C1961 1.349 . S
C1946 C1944 1.327 . S
C1946 C1965 1.429 . S
C1946 H1970 0.950 . S
C1947 C1964 1.574 . S
C1947 C1966 1.368 . S
C1947 H1971 0.949 . S
H1948 C1952 0.949 . S
C1949 C1950 1.349 . S
C1949 C1951 1.327 . S
C1949 H1972 0.950 . S
C1950 C1949 1.349 . S
C1950 C1962 1.349 . S
C1951 C1949 1.327 . S
C1951 C1967 1.429 . S
C1951 H1973 0.950 . S
C1952 H1948 0.949 . S
C1952 C1960 1.574 . S
C1952 C1968 1.368 . S
H1953 C1961 0.950 . S
H1954 C1959 0.950 . S
H1955 C1960 0.949 . S
H1956 C1962 0.950 . S
H1957 C1963 0.950 . S
H1958 C1964 0.949 . S
C1959 H1954 0.950 . S
C1959 C1961 1.327 . S
C1959 C1965 1.429 . S
C1960 C1952 1.574 . S
C1960 H1955 0.949 . S
C1960 C1966 1.368 . S
C1961 C1945 1.349 . S
C1961 H1953 0.950 . S
C1961 C1959 1.327 . S
C1962 C1950 1.349 . S
C1962 H1956 0.950 . S
C1962 C1963 1.327 . S
C1963 H1957 0.950 . S
C1963 C1962 1.327 . S
C1963 C1967 1.429 . S
C1964 C1947 1.574 . S
C1964 H1958 0.949 . S
C1964 C1968 1.368 . S
C1965 C1946 1.429 . S
C1965 C1959 1.429 . S
C1965 C1966 1.523 . S
C1966 C1947 1.368 . S
C1966 C1960 1.368 . S
C1966 C1965 1.523 . S
C1967 C1951 1.429 . S
C1967 C1963 1.429 . S
C1967 C1968 1.523 . S
C1968 C1952 1.368 . S
C1968 C1964 1.368 . S
C1968 C1967 1.523 . S
H1969 C1944 0.950 . S
H1970 C1946 0.950 . S
H1971 C1947 0.949 . S
H1972 C1949 0.950 . S
H1973 C1951 0.950 . S
C1974 C1975 1.349 . S
C1974 C1976 1.327 . S
C1974 H1999 0.950 . S
C1975 C1974 1.349 . S
C1975 C1991 1.349 . S
C1976 C1974 1.327 . S
C1976 C1995 1.429 . S
C1976 H2000 0.950 . S
C1977 C1994 1.574 . S
C1977 C1996 1.368 . S
C1977 H2001 0.949 . S
H1978 C1982 0.949 . S
C1979 C1980 1.349 . S
C1979 C1981 1.327 . S
C1979 H2002 0.950 . S
C1980 C1979 1.349 . S
C1980 C1992 1.349 . S
C1981 C1979 1.327 . S
C1981 C1997 1.429 . S
C1981 H2003 0.950 . S
C1982 H1978 0.949 . S
C1982 C1990 1.574 . S
C1982 C1998 1.368 . S
H1983 C1991 0.950 . S
H1984 C1989 0.950 . S
H1985 C1990 0.949 . S
H1986 C1992 0.950 . S
H1987 C1993 0.950 . S
H1988 C1994 0.949 . S
C1989 H1984 0.950 . S
C1989 C1991 1.327 . S
C1989 C1995 1.429 . S
C1990 C1982 1.574 . S
C1990 H1985 0.949 . S
C1990 C1996 1.368 . S
C1991 C1975 1.349 . S
C1991 H1983 0.950 . S
C1991 C1989 1.327 . S
C1992 C1980 1.349 . S
C1992 H1986 0.950 . S
C1992 C1993 1.327 . S
C1993 H1987 0.950 . S
C1993 C1992 1.327 . S
C1993 C1997 1.429 . S
C1994 C1977 1.574 . S
C1994 H1988 0.949 . S
C1994 C1998 1.368 . S
C1995 C1976 1.429 . S
C1995 C1989 1.429 . S
C1995 C1996 1.523 . S
C1996 C1977 1.368 . S
C1996 C1990 1.368 . S
C1996 C1995 1.523 . S
C1997 C1981 1.429 . S
C1997 C1993 1.429 . S
C1997 C1998 1.523 . S
C1998 C1982 1.368 . S
C1998 C1994 1.368 . S
C1998 C1997 1.523 . S
H1999 C1974 0.950 . S
H2000 C1976 0.950 . S
H2001 C1977 0.949 . S
H2002 C1979 0.950 . S
H2003 C1981 0.950 . S
C2004 C2005 1.349 . S
C2004 C2006 1.327 . S
C2004 H2029 0.950 . S
C2005 C2004 1.349 . S
C2005 C2021 1.349 . S
C2006 C2004 1.327 . S
C2006 C2025 1.429 . S
C2006 H2030 0.950 . S
C2007 C2024 1.574 . S
C2007 C2026 1.368 . S
C2007 H2031 0.949 . S
H2008 C2012 0.949 . S
C2009 C2010 1.349 . S
C2009 C2011 1.327 . S
C2009 H2032 0.950 . S
C2010 C2009 1.349 . S
C2010 C2022 1.349 . S
C2011 C2009 1.327 . S
C2011 C2027 1.429 . S
C2011 H2033 0.950 . S
C2012 H2008 0.949 . S
C2012 C2020 1.574 . S
C2012 C2028 1.368 . S
H2013 C2021 0.950 . S
H2014 C2019 0.950 . S
H2015 C2020 0.949 . S
H2016 C2022 0.950 . S
H2017 C2023 0.950 . S
H2018 C2024 0.949 . S
C2019 H2014 0.950 . S
C2019 C2021 1.327 . S
C2019 C2025 1.429 . S
C2020 C2012 1.574 . S
C2020 H2015 0.949 . S
C2020 C2026 1.368 . S
C2021 C2005 1.349 . S
C2021 H2013 0.950 . S
C2021 C2019 1.327 . S
C2022 C2010 1.349 . S
C2022 H2016 0.950 . S
C2022 C2023 1.327 . S
C2023 H2017 0.950 . S
C2023 C2022 1.327 . S
C2023 C2027 1.429 . S
C2024 C2007 1.574 . S
C2024 H2018 0.949 . S
C2024 C2028 1.368 . S
C2025 C2006 1.429 . S
C2025 C2019 1.429 . S
C2025 C2026 1.523 . S
C2026 C2007 1.368 . S
C2026 C2020 1.368 . S
C2026 C2025 1.523 . S
C2027 C2011 1.429 . S
C2027 C2023 1.429 . S
C2027 C2028 1.523 . S
C2028 C2012 1.368 . S
C2028 C2024 1.368 . S
C2028 C2027 1.523 . S
H2029 C2004 0.950 . S
H2030 C2006 0.950 . S
H2031 C2007 0.949 . S
H2032 C2009 0.950 . S
H2033 C2011 0.950 . S
C2034 C2035 1.349 . S
C2034 C2036 1.327 . S
C2034 H2059 0.950 . S
C2035 C2034 1.349 . S
C2035 C2051 1.349 . S
C2036 C2034 1.327 . S
C2036 C2055 1.429 . S
C2036 H2060 0.950 . S
C2037 C2054 1.574 . S
C2037 C2056 1.368 . S
C2037 H2061 0.949 . S
H2038 C2042 0.949 . S
C2039 C2040 1.349 . S
C2039 C2041 1.327 . S
C2039 H2062 0.950 . S
C2040 C2039 1.349 . S
C2040 C2052 1.349 . S
C2041 C2039 1.327 . S
C2041 C2057 1.429 . S
C2041 H2063 0.950 . S
C2042 H2038 0.949 . S
C2042 C2050 1.574 . S
C2042 C2058 1.368 . S
H2043 C2051 0.950 . S
H2044 C2049 0.950 . S
H2045 C2050 0.949 . S
H2046 C2052 0.950 . S
H2047 C2053 0.950 . S
H2048 C2054 0.949 . S
C2049 H2044 0.950 . S
C2049 C2051 1.327 . S
C2049 C2055 1.429 . S
C2050 C2042 1.574 . S
C2050 H2045 0.949 . S
C2050 C2056 1.368 . S
C2051 C2035 1.349 . S
C2051 H2043 0.950 . S
C2051 C2049 1.327 . S
C2052 C2040 1.349 . S
C2052 H2046 0.950 . S
C2052 C2053 1.327 . S
C2053 H2047 0.950 . S
C2053 C2052 1.327 . S
C2053 C2057 1.429 . S
C2054 C2037 1.574 . S
C2054 H2048 0.949 . S
C2054 C2058 1.368 . S
C2055 C2036 1.429 . S
C2055 C2049 1.429 . S
C2055 C2056 1.523 . S
C2056 C2037 1.368 . S
C2056 C2050 1.368 . S
C2056 C2055 1.523 . S
C2057 C2041 1.429 . S
C2057 C2053 1.429 . S
C2057 C2058 1.523 . S
C2058 C2042 1.368 . S
C2058 C2054 1.368 . S
C2058 C2057 1.523 . S
H2059 C2034 0.950 . S
H2060 C2036 0.950 . S
H2061 C2037 0.949 . S
H2062 C2039 0.950 . S
H2063 C2041 0.950 . S
C2064 C2065 1.349 . S
C2064 C2066 1.327 . S
C2064 H2089 0.950 . S
C2065 C2064 1.349 . S
C2065 C2081 1.349 . S
C2066 C2064 1.327 . S
C2066 C2085 1.429 . S
C2066 H2090 0.950 . S
C2067 C2084 1.574 . S
C2067 C2086 1.368 . S
C2067 H2091 0.949 . S
H2068 C2072 0.949 . S
C2069 C2070 1.349 . S
C2069 C2071 1.327 . S
C2069 H2092 0.950 . S
C2070 C2069 1.349 . S
C2070 C2082 1.349 . S
C2071 C2069 1.327 . S
C2071 C2087 1.429 . S
C2071 H2093 0.950 . S
C2072 H2068 0.949 . S
C2072 C2080 1.574 . S
C2072 C2088 1.368 . S
H2073 C2081 0.950 . S
H2074 C2079 0.950 . S
H2075 C2080 0.949 . S
H2076 C2082 0.950 . S
H2077 C2083 0.950 . S
H2078 C2084 0.949 . S
C2079 H2074 0.950 . S
C2079 C2081 1.327 . S
C2079 C2085 1.429 . S
C2080 C2072 1.574 . S
C2080 H2075 0.949 . S
C2080 C2086 1.368 . S
C2081 C2065 1.349 . S
C2081 H2073 0.950 . S
C2081 C2079 1.327 . S
C2082 C2070 1.349 . S
C2082 H2076 0.950 . S
C2082 C2083 1.327 . S
C2083 H2077 0.950 . S
C2083 C2082 1.327 . S
C2083 C2087 1.429 . S
C2084 C2067 1.574 . S
C2084 H2078 0.949 . S
C2084 C2088 1.368 . S
C2085 C2066 1.429 . S
C2085 C2079 1.429 . S
C2085 C2086 1.523 . S
C2086 C2067 1.368 . S
C2086 C2080 1.368 . S
C2086 C2085 1.523 . S
C2087 C2071 1.429 . S
C2087 C2083 1.429 . S
C2087 C2088 1.523 . S
C2088 C2072 1.368 . S
C2088 C2084 1.368 . S
C2088 C2087 1.523 . S
H2089 C2064 0.950 . S
H2090 C2066 0.950 . S
H2091 C2067 0.949 . S
H2092 C2069 0.950 . S
H2093 C2071 0.950 . S
C2094 C2095 1.349 . S
C2094 C2096 1.327 . S
C2094 H2119 0.950 . S
C2095 C2094 1.349 . S
C2095 C2111 1.349 . S
C2096 C2094 1.327 . S
C2096 C2115 1.429 . S
C2096 H2120 0.950 . S
C2097 C2114 1.574 . S
C2097 C2116 1.368 . S
C2097 H2121 0.949 . S
H2098 C2102 0.949 . S
C2099 C2100 1.349 . S
C2099 C2101 1.327 . S
C2099 H2122 0.950 . S
C2100 C2099 1.349 . S
C2100 C2112 1.349 . S
C2101 C2099 1.327 . S
C2101 C2117 1.429 . S
C2101 H2123 0.950 . S
C2102 H2098 0.949 . S
C2102 C2110 1.574 . S
C2102 C2118 1.368 . S
H2103 C2111 0.950 . S
H2104 C2109 0.950 . S
H2105 C2110 0.949 . S
H2106 C2112 0.950 . S
H2107 C2113 0.950 . S
H2108 C2114 0.949 . S
C2109 H2104 0.950 . S
C2109 C2111 1.327 . S
C2109 C2115 1.429 . S
C2110 C2102 1.574 . S
C2110 H2105 0.949 . S
C2110 C2116 1.368 . S
C2111 C2095 1.349 . S
C2111 H2103 0.950 . S
C2111 C2109 1.327 . S
C2112 C2100 1.349 . S
C2112 H2106 0.950 . S
C2112 C2113 1.327 . S
C2113 H2107 0.950 . S
C2113 C2112 1.327 . S
C2113 C2117 1.429 . S
C2114 C2097 1.574 . S
C2114 H2108 0.949 . S
C2114 C2118 1.368 . S
C2115 C2096 1.429 . S
C2115 C2109 1.429 . S
C2115 C2116 1.523 . S
C2116 C2097 1.368 . S
C2116 C2110 1.368 . S
C2116 C2115 1.523 . S
C2117 C2101 1.429 . S
C2117 C2113 1.429 . S
C2117 C2118 1.523 . S
C2118 C2102 1.368 . S
C2118 C2114 1.368 . S
C2118 C2117 1.523 . S
H2119 C2094 0.950 . S
H2120 C2096 0.950 . S
H2121 C2097 0.949 . S
H2122 C2099 0.950 . S
H2123 C2101 0.950 . S
C2124 C2125 1.349 . S
C2124 C2126 1.327 . S
C2124 H2149 0.950 . S
C2125 C2124 1.349 . S
C2125 C2141 1.349 . S
C2126 C2124 1.327 . S
C2126 C2145 1.429 . S
C2126 H2150 0.950 . S
C2127 C2144 1.574 . S
C2127 C2146 1.368 . S
C2127 H2151 0.949 . S
H2128 C2132 0.949 . S
C2129 C2130 1.349 . S
C2129 C2131 1.327 . S
C2129 H2152 0.950 . S
C2130 C2129 1.349 . S
C2130 C2142 1.349 . S
C2131 C2129 1.327 . S
C2131 C2147 1.429 . S
C2131 H2153 0.950 . S
C2132 H2128 0.949 . S
C2132 C2140 1.574 . S
C2132 C2148 1.368 . S
H2133 C2141 0.950 . S
H2134 C2139 0.950 . S
H2135 C2140 0.949 . S
H2136 C2142 0.950 . S
H2137 C2143 0.950 . S
H2138 C2144 0.949 . S
C2139 H2134 0.950 . S
C2139 C2141 1.327 . S
C2139 C2145 1.429 . S
C2140 C2132 1.574 . S
C2140 H2135 0.949 . S
C2140 C2146 1.368 . S
C2141 C2125 1.349 . S
C2141 H2133 0.950 . S
C2141 C2139 1.327 . S
C2142 C2130 1.349 . S
C2142 H2136 0.950 . S
C2142 C2143 1.327 . S
C2143 H2137 0.950 . S
C2143 C2142 1.327 . S
C2143 C2147 1.429 . S
C2144 C2127 1.574 . S
C2144 H2138 0.949 . S
C2144 C2148 1.368 . S
C2145 C2126 1.429 . S
C2145 C2139 1.429 . S
C2145 C2146 1.523 . S
C2146 C2127 1.368 . S
C2146 C2140 1.368 . S
C2146 C2145 1.523 . S
C2147 C2131 1.429 . S
C2147 C2143 1.429 . S
C2147 C2148 1.523 . S
C2148 C2132 1.368 . S
C2148 C2144 1.368 . S
C2148 C2147 1.523 . S
H2149 C2124 0.950 . S
H2150 C2126 0.950 . S
H2151 C2127 0.949 . S
H2152 C2129 0.950 . S
H2153 C2131 0.950 . S
C2154 C2155 1.349 . S
C2154 C2156 1.327 . S
C2154 H2179 0.950 1_545 S
C2155 C2154 1.349 . S
C2155 C2171 1.349 . S
C2156 C2154 1.327 . S
C2156 C2175 1.429 . S
C2156 H2180 0.950 1_545 S
C2157 C2174 1.574 . S
C2157 C2176 1.368 . S
C2157 H2181 0.949 . S
H2158 C2162 0.949 . S
C2159 C2160 1.349 1_545 S
C2159 C2161 1.327 . S
C2159 H2182 0.950 . S
C2160 C2159 1.349 1_565 S
C2160 C2172 1.349 . S
C2161 C2159 1.327 . S
C2161 C2177 1.462 . S
C2161 H2183 0.950 . S
C2162 H2158 0.949 . S
C2162 C2170 1.574 . S
C2162 C2178 1.368 1_565 S
H2163 C2171 0.950 . S
H2164 C2169 0.950 . S
H2165 C2170 0.949 . S
H2166 C2172 0.950 . S
H2167 C2173 0.950 . S
H2168 C2174 0.949 . S
C2169 H2164 0.950 . S
C2169 C2171 1.327 . S
C2169 C2175 1.429 . S
C2170 C2162 1.574 . S
C2170 H2165 0.949 . S
C2170 C2176 1.368 1_565 S
C2171 C2155 1.349 . S
C2171 H2163 0.950 . S
C2171 C2169 1.327 . S
C2172 C2160 1.349 . S
C2172 H2166 0.950 . S
C2172 C2173 1.327 . S
C2173 H2167 0.950 . S
C2173 C2172 1.327 . S
C2173 C2177 1.387 1_565 S
C2174 C2157 1.574 . S
C2174 H2168 0.949 . S
C2174 C2178 1.368 . S
C2175 C2156 1.429 . S
C2175 C2169 1.429 . S
C2175 C2176 1.523 . S
C2176 C2157 1.368 . S
C2176 C2170 1.368 1_545 S
C2176 C2175 1.523 . S
C2177 C2161 1.462 . S
C2177 C2173 1.387 1_545 S
C2177 C2178 1.531 . S
C2178 C2162 1.368 1_545 S
C2178 C2174 1.368 . S
C2178 C2177 1.531 . S
H2179 C2154 0.950 1_565 S
H2180 C2156 0.950 1_565 S
H2181 C2157 0.949 . S
H2182 C2159 0.950 . S
H2183 C2161 0.950 . S
C2184 C2185 1.349 . S
C2184 C2186 1.327 . S
C2184 H2209 0.950 . S
C2185 C2184 1.349 . S
C2185 C2201 1.349 . S
C2186 C2184 1.327 . S
C2186 C2205 1.429 . S
C2186 H2210 0.950 . S
C2187 C2204 1.574 . S
C2187 C2206 1.368 1_655 S
C2187 H2211 0.949 . S
H2188 C2192 0.949 . S
C2189 C2190 1.349 . S
C2189 C2191 1.327 . S
C2189 H2212 0.950 . S
C2190 C2189 1.349 . S
C2190 C2202 1.349 1_655 S
C2191 C2189 1.327 . S
C2191 C2207 1.422 1_655 S
C2191 H2213 0.950 . S
C2192 H2188 0.949 . S
C2192 C2200 1.574 . S
C2192 C2208 1.368 . S
H2193 C2201 0.950 1_655 S
H2194 C2199 0.947 . S
H2195 C2200 0.949 . S
H2196 C2202 0.950 . S
H2197 C2203 0.950 . S
H2198 C2204 0.949 . S
C2199 H2194 0.947 . S
C2199 C2201 1.328 1_655 S
C2199 C2205 1.431 1_655 S
C2200 C2192 1.574 . S
C2200 H2195 0.949 . S
C2200 C2206 1.368 . S
C2201 C2185 1.349 . S
C2201 H2193 0.950 1_455 S
C2201 C2199 1.328 1_455 S
C2202 C2190 1.349 1_455 S
C2202 H2196 0.950 . S
C2202 C2203 1.327 . S
C2203 H2197 0.950 . S
C2203 C2202 1.327 . S
C2203 C2207 1.434 . S
C2204 C2187 1.574 . S
C2204 H2198 0.949 . S
C2204 C2208 1.368 1_655 S
C2205 C2186 1.429 . S
C2205 C2199 1.431 1_455 S
C2205 C2206 1.523 . S
C2206 C2187 1.368 1_455 S
C2206 C2200 1.368 . S
C2206 C2205 1.523 . S
C2207 C2191 1.422 1_455 S
C2207 C2203 1.434 . S
C2207 C2208 1.525 . S
C2208 C2192 1.368 . S
C2208 C2204 1.368 1_455 S
C2208 C2207 1.525 . S
H2209 C2184 0.950 . S
H2210 C2186 0.950 . S
H2211 C2187 0.949 . S
H2212 C2189 0.950 . S
H2213 C2191 0.950 . S
C2214 C2215 1.349 . S
C2214 C2216 1.327 . S
C2214 H2239 0.950 . S
C2215 C2214 1.349 . S
C2215 C2231 1.349 . S
C2216 C2214 1.327 . S
C2216 C2235 1.429 . S
C2216 H2240 0.950 . S
C2217 C2234 1.574 . S
C2217 C2236 1.368 . S
C2217 H2241 0.949 . S
H2218 C2222 0.949 . S
C2219 C2220 1.349 . S
C2219 C2221 1.327 . S
C2219 H2242 0.950 . S
C2220 C2219 1.349 . S
C2220 C2232 1.349 . S
C2221 C2219 1.327 . S
C2221 C2237 1.429 . S
C2221 H2243 0.950 . S
C2222 H2218 0.949 . S
C2222 C2230 1.574 . S
C2222 C2238 1.368 . S
H2223 C2231 0.950 . S
H2224 C2229 0.950 . S
H2225 C2230 0.949 . S
H2226 C2232 0.950 . S
H2227 C2233 0.950 . S
H2228 C2234 0.949 . S
C2229 H2224 0.950 . S
C2229 C2231 1.327 . S
C2229 C2235 1.429 . S
C2230 C2222 1.574 . S
C2230 H2225 0.949 . S
C2230 C2236 1.368 . S
C2231 C2215 1.349 . S
C2231 H2223 0.950 . S
C2231 C2229 1.327 . S
C2232 C2220 1.349 . S
C2232 H2226 0.950 . S
C2232 C2233 1.327 . S
C2233 H2227 0.950 . S
C2233 C2232 1.327 . S
C2233 C2237 1.429 . S
C2234 C2217 1.574 . S
C2234 H2228 0.949 . S
C2234 C2238 1.368 . S
C2235 C2216 1.429 . S
C2235 C2229 1.429 . S
C2235 C2236 1.523 . S
C2236 C2217 1.368 . S
C2236 C2230 1.368 . S
C2236 C2235 1.523 . S
C2237 C2221 1.429 . S
C2237 C2233 1.429 . S
C2237 C2238 1.523 . S
C2238 C2222 1.368 . S
C2238 C2234 1.368 . S
C2238 C2237 1.523 . S
H2239 C2214 0.950 . S
H2240 C2216 0.950 . S
H2241 C2217 0.949 . S
H2242 C2219 0.950 . S
H2243 C2221 0.950 . S
C2244 C2245 1.349 . S
C2244 C2246 1.327 . S
C2244 H2269 0.950 . S
C2245 C2244 1.349 . S
C2245 C2261 1.349 1_545 S
C2246 C2244 1.327 . S
C2246 C2265 1.429 . S
C2246 H2270 0.950 . S
C2247 C2264 1.574 . S
C2247 C2266 1.368 1_565 S
C2247 H2271 0.949 . S
H2248 C2252 0.949 . S
C2249 C2250 1.349 1_565 S
C2249 C2251 1.327 . S
C2249 H2272 0.950 . S
C2250 C2249 1.349 1_545 S
C2250 C2262 1.349 . S
C2251 C2249 1.327 . S
C2251 C2267 1.429 1_565 S
C2251 H2273 0.950 . S
C2252 H2248 0.949 . S
C2252 C2260 1.574 . S
C2252 C2268 1.368 . S
H2253 C2261 0.950 . S
H2254 C2259 0.950 . S
H2255 C2260 0.949 . S
H2256 C2262 0.950 . S
H2257 C2263 0.950 . S
H2258 C2264 0.949 . S
C2259 H2254 0.950 . S
C2259 C2261 1.327 . S
C2259 C2265 1.429 1_565 S
C2260 C2252 1.574 . S
C2260 H2255 0.949 . S
C2260 C2266 1.368 . S
C2261 C2245 1.349 1_565 S
C2261 H2253 0.950 . S
C2261 C2259 1.327 . S
C2262 C2250 1.349 . S
C2262 H2256 0.950 . S
C2262 C2263 1.327 . S
C2263 H2257 0.950 . S
C2263 C2262 1.327 . S
C2263 C2267 1.429 . S
C2264 C2247 1.574 . S
C2264 H2258 0.949 . S
C2264 C2268 1.368 1_565 S
C2265 C2246 1.429 . S
C2265 C2259 1.429 1_545 S
C2265 C2266 1.523 . S
C2266 C2247 1.368 1_545 S
C2266 C2260 1.368 . S
C2266 C2265 1.523 . S
C2267 C2251 1.429 1_545 S
C2267 C2263 1.429 . S
C2267 C2268 1.523 . S
C2268 C2252 1.368 . S
C2268 C2264 1.368 1_545 S
C2268 C2267 1.523 . S
H2269 C2244 0.950 . S
H2270 C2246 0.950 . S
H2271 C2247 0.949 . S
H2272 C2249 0.950 . S
H2273 C2251 0.950 . S
C2274 C2275 1.377 . S
C2274 C2276 1.321 1_655 S
C2274 H2299 0.934 . S
C2275 C2274 1.377 . S
C2275 C2291 1.349 . S
C2276 C2274 1.321 1_455 S
C2276 C2295 1.409 . S
C2276 H2300 0.985 . S
C2277 C2294 1.574 . S
C2277 C2296 1.368 . S
C2277 H2301 0.936 1_455 S
H2278 C2282 0.949 . S
C2279 C2280 1.349 . S
C2279 C2281 1.327 . S
C2279 H2302 0.950 . S
C2280 C2279 1.349 . S
C2280 C2292 1.349 . S
C2281 C2279 1.327 . S
C2281 C2297 1.429 . S
C2281 H2303 0.950 . S
C2282 H2278 0.949 . S
C2282 C2290 1.574 . S
C2282 C2298 1.368 . S
H2283 C2291 0.950 . S
H2284 C2289 0.950 . S
H2285 C2290 0.949 . S
H2286 C2292 0.950 . S
H2287 C2293 0.950 . S
H2288 C2294 0.949 . S
C2289 H2284 0.950 . S
C2289 C2291 1.327 . S
C2289 C2295 1.420 1_655 S
C2290 C2282 1.574 . S
C2290 H2285 0.949 . S
C2290 C2296 1.368 . S
C2291 C2275 1.349 . S
C2291 H2283 0.950 . S
C2291 C2289 1.327 . S
C2292 C2280 1.349 . S
C2292 H2286 0.950 . S
C2292 C2293 1.327 . S
C2293 H2287 0.950 . S
C2293 C2292 1.327 . S
C2293 C2297 1.429 . S
C2294 C2277 1.574 . S
C2294 H2288 0.949 . S
C2294 C2298 1.368 . S
C2295 C2276 1.409 . S
C2295 C2289 1.420 1_455 S
C2295 C2296 1.524 . S
C2296 C2277 1.368 . S
C2296 C2290 1.368 . S
C2296 C2295 1.524 . S
C2297 C2281 1.429 . S
C2297 C2293 1.429 . S
C2297 C2298 1.523 . S
C2298 C2282 1.368 . S
C2298 C2294 1.368 . S
C2298 C2297 1.523 . S
H2299 C2274 0.934 . S
H2300 C2276 0.985 . S
H2301 C2277 0.936 1_655 S
H2302 C2279 0.950 . S
H2303 C2281 0.950 . S
C2304 C2305 1.349 . S
C2304 C2306 1.327 . S
C2304 H2329 0.950 . S
C2305 C2304 1.349 . S
C2305 C2321 1.349 . S
C2306 C2304 1.327 . S
C2306 C2325 1.429 . S
C2306 H2330 0.950 . S
C2307 C2324 1.574 . S
C2307 C2326 1.368 . S
C2307 H2331 0.949 . S
H2308 C2312 0.949 . S
C2309 C2310 1.349 . S
C2309 C2311 1.327 . S
C2309 H2332 0.950 . S
C2310 C2309 1.349 . S
C2310 C2322 1.349 . S
C2311 C2309 1.327 . S
C2311 C2327 1.429 . S
C2311 H2333 0.950 . S
C2312 H2308 0.949 . S
C2312 C2320 1.574 . S
C2312 C2328 1.368 . S
H2313 C2321 0.950 . S
H2314 C2319 0.950 . S
H2315 C2320 0.949 . S
H2316 C2322 0.950 . S
H2317 C2323 0.950 . S
H2318 C2324 0.949 . S
C2319 H2314 0.950 . S
C2319 C2321 1.327 . S
C2319 C2325 1.429 . S
C2320 C2312 1.574 . S
C2320 H2315 0.949 . S
C2320 C2326 1.368 . S
C2321 C2305 1.349 . S
C2321 H2313 0.950 . S
C2321 C2319 1.327 . S
C2322 C2310 1.349 . S
C2322 H2316 0.950 . S
C2322 C2323 1.327 . S
C2323 H2317 0.950 . S
C2323 C2322 1.327 . S
C2323 C2327 1.429 . S
C2324 C2307 1.574 . S
C2324 H2318 0.949 . S
C2324 C2328 1.368 . S
C2325 C2306 1.429 . S
C2325 C2319 1.429 . S
C2325 C2326 1.523 . S
C2326 C2307 1.368 . S
C2326 C2320 1.368 . S
C2326 C2325 1.523 . S
C2327 C2311 1.429 . S
C2327 C2323 1.429 . S
C2327 C2328 1.523 . S
C2328 C2312 1.368 . S
C2328 C2324 1.368 . S
C2328 C2327 1.523 . S
H2329 C2304 0.950 . S
H2330 C2306 0.950 . S
H2331 C2307 0.949 . S
H2332 C2309 0.950 . S
H2333 C2311 0.950 . S
C2334 C2335 1.349 . S
C2334 C2336 1.327 . S
C2334 H2359 0.950 . S
C2335 C2334 1.349 . S
C2335 C2351 1.349 . S
C2336 C2334 1.327 . S
C2336 C2355 1.429 . S
C2336 H2360 0.950 . S
C2337 C2354 1.574 . S
C2337 C2356 1.368 . S
C2337 H2361 0.949 . S
H2338 C2342 0.949 . S
C2339 C2340 1.349 . S
C2339 C2341 1.327 . S
C2339 H2362 0.950 . S
C2340 C2339 1.349 . S
C2340 C2352 1.349 . S
C2341 C2339 1.327 . S
C2341 C2357 1.429 . S
C2341 H2363 0.950 . S
C2342 H2338 0.949 . S
C2342 C2350 1.574 . S
C2342 C2358 1.368 . S
H2343 C2351 0.950 . S
H2344 C2349 0.950 . S
H2345 C2350 0.949 . S
H2346 C2352 0.950 . S
H2347 C2353 0.950 . S
H2348 C2354 0.949 . S
C2349 H2344 0.950 . S
C2349 C2351 1.327 . S
C2349 C2355 1.429 . S
C2350 C2342 1.574 . S
C2350 H2345 0.949 . S
C2350 C2356 1.368 . S
C2351 C2335 1.349 . S
C2351 H2343 0.950 . S
C2351 C2349 1.327 . S
C2352 C2340 1.349 . S
C2352 H2346 0.950 . S
C2352 C2353 1.327 . S
C2353 H2347 0.950 . S
C2353 C2352 1.327 . S
C2353 C2357 1.429 . S
C2354 C2337 1.574 . S
C2354 H2348 0.949 . S
C2354 C2358 1.368 . S
C2355 C2336 1.429 . S
C2355 C2349 1.429 . S
C2355 C2356 1.523 . S
C2356 C2337 1.368 . S
C2356 C2350 1.368 . S
C2356 C2355 1.523 . S
C2357 C2341 1.429 . S
C2357 C2353 1.429 . S
C2357 C2358 1.523 . S
C2358 C2342 1.368 . S
C2358 C2354 1.368 . S
C2358 C2357 1.523 . S
H2359 C2334 0.950 . S
H2360 C2336 0.950 . S
H2361 C2337 0.949 . S
H2362 C2339 0.950 . S
H2363 C2341 0.950 . S
C2364 C2365 1.349 . S
C2364 C2366 1.327 . S
C2364 H2389 0.950 . S
C2365 C2364 1.349 . S
C2365 C2381 1.349 . S
C2366 C2364 1.327 . S
C2366 C2385 1.429 . S
C2366 H2390 0.950 . S
C2367 C2384 1.574 . S
C2367 C2386 1.368 . S
C2367 H2391 0.949 . S
H2368 C2372 0.949 . S
C2369 C2370 1.349 . S
C2369 C2371 1.327 . S
C2369 H2392 0.950 . S
C2370 C2369 1.349 . S
C2370 C2382 1.349 . S
C2371 C2369 1.327 . S
C2371 C2387 1.429 . S
C2371 H2393 0.950 . S
C2372 H2368 0.949 . S
C2372 C2380 1.574 . S
C2372 C2388 1.368 . S
H2373 C2381 0.950 . S
H2374 C2379 0.950 . S
H2375 C2380 0.949 . S
H2376 C2382 0.950 . S
H2377 C2383 0.950 . S
H2378 C2384 0.949 . S
C2379 H2374 0.950 . S
C2379 C2381 1.327 . S
C2379 C2385 1.429 . S
C2380 C2372 1.574 . S
C2380 H2375 0.949 . S
C2380 C2386 1.368 . S
C2381 C2365 1.349 . S
C2381 H2373 0.950 . S
C2381 C2379 1.327 . S
C2382 C2370 1.349 . S
C2382 H2376 0.950 . S
C2382 C2383 1.327 . S
C2383 H2377 0.950 . S
C2383 C2382 1.327 . S
C2383 C2387 1.429 . S
C2384 C2367 1.574 . S
C2384 H2378 0.949 . S
C2384 C2388 1.368 . S
C2385 C2366 1.429 . S
C2385 C2379 1.429 . S
C2385 C2386 1.523 . S
C2386 C2367 1.368 . S
C2386 C2380 1.368 . S
C2386 C2385 1.523 . S
C2387 C2371 1.429 . S
C2387 C2383 1.429 . S
C2387 C2388 1.523 . S
C2388 C2372 1.368 . S
C2388 C2384 1.368 . S
C2388 C2387 1.523 . S
H2389 C2364 0.950 . S
H2390 C2366 0.950 . S
H2391 C2367 0.949 . S
H2392 C2369 0.950 . S
H2393 C2371 0.950 . S
C2394 C2395 1.349 . S
C2394 C2396 1.327 . S
C2394 H2419 0.950 . S
C2395 C2394 1.349 . S
C2395 C2411 1.349 . S
C2396 C2394 1.327 . S
C2396 C2415 1.429 . S
C2396 H2420 0.950 . S
C2397 C2414 1.574 . S
C2397 C2416 1.368 . S
C2397 H2421 0.949 . S
H2398 C2402 0.949 . S
C2399 C2400 1.349 . S
C2399 C2401 1.366 . S
C2399 H2422 0.950 . S
C2400 C2399 1.349 . S
C2400 C2412 1.349 . S
C2401 C2399 1.366 . S
C2401 C2417 1.407 1_556 S
C2401 H2423 0.933 1_556 S
C2402 H2398 0.949 . S
C2402 C2410 1.574 . S
C2402 C2418 1.368 . S
H2403 C2411 0.950 . S
H2404 C2409 0.950 . S
H2405 C2410 0.949 . S
H2406 C2412 0.950 . S
H2407 C2413 0.950 . S
H2408 C2414 0.949 . S
C2409 H2404 0.950 . S
C2409 C2411 1.327 . S
C2409 C2415 1.429 . S
C2410 C2402 1.574 . S
C2410 H2405 0.949 . S
C2410 C2416 1.368 . S
C2411 C2395 1.349 . S
C2411 H2403 0.950 . S
C2411 C2409 1.327 . S
C2412 C2400 1.349 . S
C2412 H2406 0.950 . S
C2412 C2413 1.327 1_556 S
C2413 H2407 0.950 . S
C2413 C2412 1.327 1_554 S
C2413 C2417 1.429 . S
C2414 C2397 1.574 . S
C2414 H2408 0.949 . S
C2414 C2418 1.368 . S
C2415 C2396 1.429 . S
C2415 C2409 1.429 . S
C2415 C2416 1.523 . S
C2416 C2397 1.368 . S
C2416 C2410 1.368 . S
C2416 C2415 1.523 . S
C2417 C2401 1.407 1_554 S
C2417 C2413 1.429 . S
C2417 C2418 1.523 . S
C2418 C2402 1.368 . S
C2418 C2414 1.368 . S
C2418 C2417 1.523 . S
H2419 C2394 0.950 . S
H2420 C2396 0.950 . S
H2421 C2397 0.949 . S
H2422 C2399 0.950 . S
H2423 C2401 0.933 1_554 S
C2424 C2425 1.349 . S
C2424 C2426 1.327 . S
C2424 H2449 0.950 . S
C2425 C2424 1.349 . S
C2425 C2441 1.349 . S
C2426 C2424 1.327 . S
C2426 C2445 1.429 . S
C2426 H2450 0.950 . S
C2427 C2444 1.574 . S
C2427 C2446 1.368 . S
C2427 H2451 0.949 . S
H2428 C2432 0.949 . S
C2429 C2430 1.349 . S
C2429 C2431 1.327 1_556 S
C2429 H2452 0.950 . S
C2430 C2429 1.349 . S
C2430 C2442 1.349 . S
C2431 C2429 1.327 1_554 S
C2431 C2447 1.429 . S
C2431 H2453 0.950 . S
C2432 H2428 0.949 . S
C2432 C2440 1.574 . S
C2432 C2448 1.368 . S
H2433 C2441 0.950 . S
H2434 C2439 0.950 . S
H2435 C2440 0.949 . S
H2436 C2442 0.950 . S
H2437 C2443 0.950 . S
H2438 C2444 0.949 . S
C2439 H2434 0.950 . S
C2439 C2441 1.327 . S
C2439 C2445 1.429 . S
C2440 C2432 1.574 . S
C2440 H2435 0.949 . S
C2440 C2446 1.368 . S
C2441 C2425 1.349 . S
C2441 H2433 0.950 . S
C2441 C2439 1.327 . S
C2442 C2430 1.349 . S
C2442 H2436 0.950 . S
C2442 C2443 1.327 1_556 S
C2443 H2437 0.950 . S
C2443 C2442 1.327 1_554 S
C2443 C2447 1.429 . S
C2444 C2427 1.574 . S
C2444 H2438 0.949 . S
C2444 C2448 1.368 . S
C2445 C2426 1.429 . S
C2445 C2439 1.429 . S
C2445 C2446 1.523 . S
C2446 C2427 1.368 . S
C2446 C2440 1.368 . S
C2446 C2445 1.523 . S
C2447 C2431 1.429 . S
C2447 C2443 1.429 . S
C2447 C2448 1.523 . S
C2448 C2432 1.368 . S
C2448 C2444 1.368 . S
C2448 C2447 1.523 . S
H2449 C2424 0.950 . S
H2450 C2426 0.950 . S
H2451 C2427 0.949 . S
H2452 C2429 0.950 . S
H2453 C2431 0.950 . S
C2454 C2455 1.349 . S
C2454 C2456 1.327 . S
C2454 H2479 0.950 . S
C2455 C2454 1.349 . S
C2455 C2471 1.349 . S
C2456 C2454 1.327 . S
C2456 C2475 1.429 . S
C2456 H2480 0.950 . S
C2457 C2474 1.574 . S
C2457 C2476 1.368 . S
C2457 H2481 0.949 . S
H2458 C2462 0.949 . S
C2459 C2460 1.349 . S
C2459 C2461 1.327 1_556 S
C2459 H2482 0.950 . S
C2460 C2459 1.349 . S
C2460 C2472 1.349 . S
C2461 C2459 1.327 1_554 S
C2461 C2477 1.429 . S
C2461 H2483 0.950 . S
C2462 H2458 0.949 . S
C2462 C2470 1.574 . S
C2462 C2478 1.368 . S
H2463 C2471 0.950 . S
H2464 C2469 0.950 . S
H2465 C2470 0.949 . S
H2466 C2472 0.950 . S
H2467 C2473 0.950 . S
H2468 C2474 0.949 . S
C2469 H2464 0.950 . S
C2469 C2471 1.327 . S
C2469 C2475 1.429 . S
C2470 C2462 1.574 . S
C2470 H2465 0.949 . S
C2470 C2476 1.368 . S
C2471 C2455 1.349 . S
C2471 H2463 0.950 . S
C2471 C2469 1.327 . S
C2472 C2460 1.349 . S
C2472 H2466 0.950 . S
C2472 C2473 1.327 1_556 S
C2473 H2467 0.950 . S
C2473 C2472 1.327 1_554 S
C2473 C2477 1.429 . S
C2474 C2457 1.574 . S
C2474 H2468 0.949 . S
C2474 C2478 1.368 . S
C2475 C2456 1.429 . S
C2475 C2469 1.429 . S
C2475 C2476 1.523 . S
C2476 C2457 1.368 . S
C2476 C2470 1.368 . S
C2476 C2475 1.523 . S
C2477 C2461 1.429 . S
C2477 C2473 1.429 . S
C2477 C2478 1.523 . S
C2478 C2462 1.368 . S
C2478 C2474 1.368 . S
C2478 C2477 1.523 . S
H2479 C2454 0.950 . S
H2480 C2456 0.950 . S
H2481 C2457 0.949 . S
H2482 C2459 0.950 . S
H2483 C2461 0.950 . S
C2484 C2485 1.349 . S
C2484 C2486 1.327 . S
C2484 H2509 0.950 . S
C2485 C2484 1.349 . S
C2485 C2501 1.349 . S
C2486 C2484 1.327 . S
C2486 C2505 1.429 1_554 S
C2486 H2510 0.950 1_554 S
C2487 C2504 1.574 . S
C2487 C2506 1.368 . S
C2487 H2511 0.949 . S
H2488 C2492 0.949 . S
C2489 C2490 1.349 . S
C2489 C2491 1.327 . S
C2489 H2512 0.950 . S
C2490 C2489 1.349 . S
C2490 C2502 1.349 . S
C2491 C2489 1.327 . S
C2491 C2507 1.429 . S
C2491 H2513 0.950 . S
C2492 H2488 0.949 . S
C2492 C2500 1.574 . S
C2492 C2508 1.368 . S
H2493 C2501 0.950 . S
H2494 C2499 0.950 . S
H2495 C2500 0.949 . S
H2496 C2502 0.950 . S
H2497 C2503 0.950 . S
H2498 C2504 0.949 . S
C2499 H2494 0.950 . S
C2499 C2501 1.327 . S
C2499 C2505 1.429 1_554 S
C2500 C2492 1.574 . S
C2500 H2495 0.949 . S
C2500 C2506 1.368 . S
C2501 C2485 1.349 . S
C2501 H2493 0.950 . S
C2501 C2499 1.327 . S
C2502 C2490 1.349 . S
C2502 H2496 0.950 . S
C2502 C2503 1.327 . S
C2503 H2497 0.950 . S
C2503 C2502 1.327 . S
C2503 C2507 1.429 . S
C2504 C2487 1.574 . S
C2504 H2498 0.949 . S
C2504 C2508 1.368 . S
C2505 C2486 1.429 1_556 S
C2505 C2499 1.429 1_556 S
C2505 C2506 1.523 . S
C2506 C2487 1.368 . S
C2506 C2500 1.368 . S
C2506 C2505 1.523 . S
C2507 C2491 1.429 . S
C2507 C2503 1.429 . S
C2507 C2508 1.523 . S
C2508 C2492 1.368 . S
C2508 C2504 1.368 . S
C2508 C2507 1.523 . S
H2509 C2484 0.950 . S
H2510 C2486 0.950 1_556 S
H2511 C2487 0.949 . S
H2512 C2489 0.950 . S
H2513 C2491 0.950 . S
C2514 C2515 1.349 . S
C2514 C2516 1.327 1_554 S
C2514 H2539 0.950 . S
C2515 C2514 1.349 . S
C2515 C2531 1.349 . S
C2516 C2514 1.327 1_556 S
C2516 C2535 1.429 . S
C2516 H2540 0.950 . S
C2517 C2534 1.574 . S
C2517 C2536 1.368 . S
C2517 H2541 0.949 . S
H2518 C2522 0.949 . S
C2519 C2520 1.349 . S
C2519 C2521 1.327 . S
C2519 H2542 0.950 . S
C2520 C2519 1.349 . S
C2520 C2532 1.349 . S
C2521 C2519 1.327 . S
C2521 C2537 1.429 . S
C2521 H2543 0.950 . S
C2522 H2518 0.949 . S
C2522 C2530 1.574 . S
C2522 C2538 1.368 . S
H2523 C2531 0.950 . S
H2524 C2529 0.950 . S
H2525 C2530 0.949 . S
H2526 C2532 0.950 . S
H2527 C2533 0.950 . S
H2528 C2534 0.949 . S
C2529 H2524 0.950 . S
C2529 C2531 1.327 1_556 S
C2529 C2535 1.429 . S
C2530 C2522 1.574 . S
C2530 H2525 0.949 . S
C2530 C2536 1.368 . S
C2531 C2515 1.349 . S
C2531 H2523 0.950 . S
C2531 C2529 1.327 1_554 S
C2532 C2520 1.349 . S
C2532 H2526 0.950 . S
C2532 C2533 1.327 . S
C2533 H2527 0.950 . S
C2533 C2532 1.327 . S
C2533 C2537 1.429 . S
C2534 C2517 1.574 . S
C2534 H2528 0.949 . S
C2534 C2538 1.368 . S
C2535 C2516 1.429 . S
C2535 C2529 1.429 . S
C2535 C2536 1.523 . S
C2536 C2517 1.368 . S
C2536 C2530 1.368 . S
C2536 C2535 1.523 . S
C2537 C2521 1.429 . S
C2537 C2533 1.429 . S
C2537 C2538 1.523 . S
C2538 C2522 1.368 . S
C2538 C2534 1.368 . S
C2538 C2537 1.523 . S
H2539 C2514 0.950 . S
H2540 C2516 0.950 . S
H2541 C2517 0.949 . S
H2542 C2519 0.950 . S
H2543 C2521 0.950 . S
C2544 C2545 1.349 . S
C2544 C2546 1.327 1_554 S
C2544 H2569 0.950 . S
C2545 C2544 1.349 . S
C2545 C2561 1.349 . S
C2546 C2544 1.327 1_556 S
C2546 C2565 1.429 . S
C2546 H2570 0.950 . S
C2547 C2564 1.574 . S
C2547 C2566 1.368 . S
C2547 H2571 0.949 . S
H2548 C2552 0.949 . S
C2549 C2550 1.349 . S
C2549 C2551 1.327 . S
C2549 H2572 0.950 . S
C2550 C2549 1.349 . S
C2550 C2562 1.349 . S
C2551 C2549 1.327 . S
C2551 C2567 1.429 . S
C2551 H2573 0.950 . S
C2552 H2548 0.949 . S
C2552 C2560 1.574 . S
C2552 C2568 1.368 . S
H2553 C2561 0.950 . S
H2554 C2559 0.950 . S
H2555 C2560 0.949 . S
H2556 C2562 0.950 . S
H2557 C2563 0.950 . S
H2558 C2564 0.949 . S
C2559 H2554 0.950 . S
C2559 C2561 1.327 1_556 S
C2559 C2565 1.429 . S
C2560 C2552 1.574 . S
C2560 H2555 0.949 . S
C2560 C2566 1.368 . S
C2561 C2545 1.349 . S
C2561 H2553 0.950 . S
C2561 C2559 1.327 1_554 S
C2562 C2550 1.349 . S
C2562 H2556 0.950 . S
C2562 C2563 1.327 . S
C2563 H2557 0.950 . S
C2563 C2562 1.327 . S
C2563 C2567 1.429 . S
C2564 C2547 1.574 . S
C2564 H2558 0.949 . S
C2564 C2568 1.368 . S
C2565 C2546 1.429 . S
C2565 C2559 1.429 . S
C2565 C2566 1.523 . S
C2566 C2547 1.368 . S
C2566 C2560 1.368 . S
C2566 C2565 1.523 . S
C2567 C2551 1.429 . S
C2567 C2563 1.429 . S
C2567 C2568 1.523 . S
C2568 C2552 1.368 . S
C2568 C2564 1.368 . S
C2568 C2567 1.523 . S
H2569 C2544 0.950 . S
H2570 C2546 0.950 . S
H2571 C2547 0.949 . S
H2572 C2549 0.950 . S
H2573 C2551 0.950 . S
C2574 C2575 1.349 . S
C2574 C2576 1.327 . S
C2574 H2599 0.950 . S
C2575 C2574 1.349 . S
C2575 C2591 1.349 . S
C2576 C2574 1.327 . S
C2576 C2595 1.429 . S
C2576 H2600 0.950 . S
C2577 C2594 1.574 . S
C2577 C2596 1.368 . S
C2577 H2601 0.949 . S
H2578 C2582 0.949 . S
C2579 C2580 1.349 . S
C2579 C2581 1.327 . S
C2579 H2602 0.950 . S
C2580 C2579 1.349 . S
C2580 C2592 1.349 . S
C2581 C2579 1.327 . S
C2581 C2597 1.429 . S
C2581 H2603 0.950 . S
C2582 H2578 0.949 . S
C2582 C2590 1.574 . S
C2582 C2598 1.368 . S
H2583 C2591 0.950 . S
H2584 C2589 0.950 . S
H2585 C2590 0.949 . S
H2586 C2592 0.950 . S
H2587 C2593 0.950 . S
H2588 C2594 0.949 . S
C2589 H2584 0.950 . S
C2589 C2591 1.327 . S
C2589 C2595 1.429 . S
C2590 C2582 1.574 . S
C2590 H2585 0.949 . S
C2590 C2596 1.368 . S
C2591 C2575 1.349 . S
C2591 H2583 0.950 . S
C2591 C2589 1.327 . S
C2592 C2580 1.349 . S
C2592 H2586 0.950 . S
C2592 C2593 1.327 . S
C2593 H2587 0.950 . S
C2593 C2592 1.327 . S
C2593 C2597 1.429 . S
C2594 C2577 1.574 . S
C2594 H2588 0.949 . S
C2594 C2598 1.368 . S
C2595 C2576 1.429 . S
C2595 C2589 1.429 . S
C2595 C2596 1.523 . S
C2596 C2577 1.368 . S
C2596 C2590 1.368 . S
C2596 C2595 1.523 . S
C2597 C2581 1.429 . S
C2597 C2593 1.429 . S
C2597 C2598 1.523 . S
C2598 C2582 1.368 . S
C2598 C2594 1.368 . S
C2598 C2597 1.523 . S
H2599 C2574 0.950 . S
H2600 C2576 0.950 . S
H2601 C2577 0.949 . S
H2602 C2579 0.950 . S
H2603 C2581 0.950 . S
C2604 C2605 1.349 . S
C2604 C2606 1.327 . S
C2604 H2629 0.950 . S
C2605 C2604 1.349 . S
C2605 C2621 1.349 . S
C2606 C2604 1.327 . S
C2606 C2625 1.429 . S
C2606 H2630 0.950 . S
C2607 C2624 1.574 . S
C2607 C2626 1.368 . S
C2607 H2631 0.949 . S
H2608 C2612 0.949 . S
C2609 C2610 1.349 . S
C2609 C2611 1.327 . S
C2609 H2632 0.950 . S
C2610 C2609 1.349 . S
C2610 C2622 1.349 . S
C2611 C2609 1.327 . S
C2611 C2627 1.429 . S
C2611 H2633 0.950 . S
C2612 H2608 0.949 . S
C2612 C2620 1.574 . S
C2612 C2628 1.368 . S
H2613 C2621 0.950 . S
H2614 C2619 0.950 . S
H2615 C2620 0.949 . S
H2616 C2622 0.950 . S
H2617 C2623 0.950 . S
H2618 C2624 0.949 . S
C2619 H2614 0.950 . S
C2619 C2621 1.327 . S
C2619 C2625 1.429 . S
C2620 C2612 1.574 . S
C2620 H2615 0.949 . S
C2620 C2626 1.368 . S
C2621 C2605 1.349 . S
C2621 H2613 0.950 . S
C2621 C2619 1.327 . S
C2622 C2610 1.349 . S
C2622 H2616 0.950 . S
C2622 C2623 1.327 . S
C2623 H2617 0.950 . S
C2623 C2622 1.327 . S
C2623 C2627 1.429 . S
C2624 C2607 1.574 . S
C2624 H2618 0.949 . S
C2624 C2628 1.368 . S
C2625 C2606 1.429 . S
C2625 C2619 1.429 . S
C2625 C2626 1.523 . S
C2626 C2607 1.368 . S
C2626 C2620 1.368 . S
C2626 C2625 1.523 . S
C2627 C2611 1.429 . S
C2627 C2623 1.429 . S
C2627 C2628 1.523 . S
C2628 C2612 1.368 . S
C2628 C2624 1.368 . S
C2628 C2627 1.523 . S
H2629 C2604 0.950 . S
H2630 C2606 0.950 . S
H2631 C2607 0.949 . S
H2632 C2609 0.950 . S
H2633 C2611 0.950 . S
C2634 C2635 1.349 . S
C2634 C2636 1.327 . S
C2634 H2659 0.950 . S
C2635 C2634 1.349 . S
C2635 C2651 1.349 . S
C2636 C2634 1.327 . S
C2636 C2655 1.429 . S
C2636 H2660 0.950 . S
C2637 C2654 1.574 . S
C2637 C2656 1.368 . S
C2637 H2661 0.949 . S
H2638 C2642 0.949 . S
C2639 C2640 1.349 . S
C2639 C2641 1.327 . S
C2639 H2662 0.950 . S
C2640 C2639 1.349 . S
C2640 C2652 1.349 . S
C2641 C2639 1.327 . S
C2641 C2657 1.429 . S
C2641 H2663 0.950 . S
C2642 H2638 0.949 . S
C2642 C2650 1.574 . S
C2642 C2658 1.368 . S
H2643 C2651 0.950 . S
H2644 C2649 0.950 . S
H2645 C2650 0.949 . S
H2646 C2652 0.950 . S
H2647 C2653 0.950 . S
H2648 C2654 0.949 . S
C2649 H2644 0.950 . S
C2649 C2651 1.327 . S
C2649 C2655 1.429 . S
C2650 C2642 1.574 . S
C2650 H2645 0.949 . S
C2650 C2656 1.368 . S
C2651 C2635 1.349 . S
C2651 H2643 0.950 . S
C2651 C2649 1.327 . S
C2652 C2640 1.349 . S
C2652 H2646 0.950 . S
C2652 C2653 1.327 . S
C2653 H2647 0.950 . S
C2653 C2652 1.327 . S
C2653 C2657 1.429 . S
C2654 C2637 1.574 . S
C2654 H2648 0.949 . S
C2654 C2658 1.368 . S
C2655 C2636 1.429 . S
C2655 C2649 1.429 . S
C2655 C2656 1.523 . S
C2656 C2637 1.368 . S
C2656 C2650 1.368 . S
C2656 C2655 1.523 . S
C2657 C2641 1.429 . S
C2657 C2653 1.429 . S
C2657 C2658 1.523 . S
C2658 C2642 1.368 . S
C2658 C2654 1.368 . S
C2658 C2657 1.523 . S
H2659 C2634 0.950 . S
H2660 C2636 0.950 . S
H2661 C2637 0.949 . S
H2662 C2639 0.950 . S
H2663 C2641 0.950 . S
C505 C229 1.292 . S
C510 C5 1.296 . S
C535 C243 1.296 . S
C540 C19 1.292 1_556 S
C565 C39 1.383 1_556 S
C570 C221 1.383 . S
C595 C375 1.383 . S
C600 C53 1.383 . S
C625 C341 1.296 . S
C630 C61 1.292 . S
C655 C75 1.296 . S
C660 C355 1.292 . S
C685 C487 1.123 . S
C690 C95 1.125 1_554 S
C715 C501 1.125 . S
C720 C109 1.123 . S
C745 C473 1.122 . S
C750 C123 1.122 . S
C775 C291 1.122 . S
C780 C137 1.122 . S
C805 C151 1.123 . S
C810 C263 1.125 . S
C835 C277 1.123 . S
C840 C165 1.125 . S
C865 C397 1.292 . S
C870 C173 1.296 . S
C895 C187 1.292 . S
C900 C411 1.296 . S
C925 C389 1.383 . S
C930 C207 1.383 . S
C955 C459 1.122 . S
C960 C305 1.122 . S
C985 C431 1.125 . S
C990 C319 1.123 . S
C1015 C333 1.125 . S
C1020 C445 1.123 . S
C1045 C102 1.419 . S
C1050 C4 1.432 . S
C1075 C116 1.380 . S
C1080 C18 1.385 . S
C1105 C88 1.297 . S
C1110 C40 1.311 . S
C1135 C54 1.311 . S
C1140 C158 1.297 . S
C1165 C130 1.380 . S
C1170 C60 1.384 . S
C1195 C74 1.432 . S
C1200 C144 1.419 . S
C1225 C25 1.045 . S
C1230 C96 1.067 . S
C1255 C110 1.043 . S
C1260 C33 0.935 . S
C1285 C11 1.173 . S
C1290 C124 1.196 . S
C1315 C81 1.173 . S
C1320 C138 1.196 . S
C1345 C47 0.935 . S
C1350 C152 1.043 . S
C1375 C166 1.067 . S
C1380 C67 1.045 . S
C1405 C172 1.432 . S
C1410 C270 1.419 . S
C1435 C284 1.380 . S
C1440 C186 1.385 . S
C1465 C256 1.297 . S
C1470 C208 1.311 . S
C1495 C222 1.311 . S
C1500 C326 1.297 . S
C1525 C298 1.380 . S
C1530 C228 1.384 . S
C1555 C242 1.432 . S
C1560 C312 1.419 . S
C1585 C264 1.067 . S
C1590 C193 1.045 . S
C1615 C278 1.043 . S
C1620 C201 0.935 . S
C1645 C179 1.173 . S
C1650 C292 1.196 . S
C1675 C249 1.173 . S
C1680 C306 1.197 . S
C1705 C215 0.935 . S
C1710 C320 1.043 . S
C1735 C334 1.067 . S
C1740 C235 1.045 . S
C1765 C438 1.419 . S
C1770 C340 1.432 . S
C1795 C354 1.385 . S
C1800 C452 1.380 . S
C1825 C376 1.311 . S
C1830 C424 1.297 . S
C1855 C494 1.297 . S
C1860 C390 1.311 . S
C1885 C396 1.385 . S
C1890 C466 1.380 . S
C1915 C480 1.419 . S
C1920 C410 1.432 . S
C1945 C361 1.045 . S
C1950 C432 1.067 . S
C1975 C369 0.935 . S
C1980 C446 1.043 . S
C2005 C460 1.196 . S
C2010 C347 1.173 . S
C2035 C474 1.196 . S
C2040 C417 1.173 . S
C2065 C383 0.935 . S
C2070 C488 1.043 . S
C2095 C403 1.045 . S
C2100 C502 1.067 . S
C2125 C12 1.377 . S
C2130 C46 1.364 . S
C2155 C26 1.282 . S
C2160 C68 1.282 . S
C2185 C82 1.377 . S
C2190 C32 1.364 . S
C2215 C89 0.973 . S
C2220 C131 0.968 . S
C2245 C145 1.044 . S
C2250 C103 1.044 1_545 S
C2275 C159 0.973 . S
C2280 C117 0.968 . S
C2305 C180 1.377 . S
C2310 C214 1.364 . S
C2335 C194 1.282 . S
C2340 C236 1.282 . S
C2365 C250 1.377 . S
C2370 C200 1.364 . S
C2395 C257 0.973 . S
C2400 C299 0.968 . S
C2425 C271 1.044 . S
C2430 C313 1.044 . S
C2455 C285 0.968 . S
C2460 C327 0.973 . S
C2485 C382 1.364 . S
C2490 C348 1.377 . S
C2515 C404 1.282 . S
C2520 C362 1.282 . S
C2545 C418 1.377 . S
C2550 C368 1.364 . S
C2575 C425 0.973 . S
C2580 C467 0.968 . S
C2605 C481 1.044 . S
C2610 C439 1.044 . S
C2635 C495 0.973 . S
C2640 C453 0.968 . S
