# Generated by pormake.
# Topology sra, (4)-cn, num edge types: 1
# Building blocks:
#     Node 0, Type 0, BuildingBlock: CEKHIL_clean_sbu_0, # of connection points: 4
#     Node 1, Type 0, BuildingBlock: CEKHIL_clean_sbu_0, # of connection points: 4
#     Node 2, Type 0, BuildingBlock: CEKHIL_clean_sbu_0, # of connection points: 4
#     Node 3, Type 0, BuildingBlock: CEKHIL_clean_sbu_0, # of connection points: 4
#     Node 4, Type 0, BuildingBlock: CEKHIL_clean_sbu_0, # of connection points: 4
#     Node 5, Type 0, BuildingBlock: CEKHIL_clean_sbu_0, # of connection points: 4
#     Node 6, Type 0, BuildingBlock: CEKHIL_clean_sbu_0, # of connection points: 4
#     Node 7, Type 0, BuildingBlock: CEKHIL_clean_sbu_0, # of connection points: 4
#     Edge 8, Type (0, 0), BuildingBlock: OJICUG_clean_linker_0, # of connection points: 2
#     Edge 9, Type (0, 0), BuildingBlock: OJICUG_clean_linker_0, # of connection points: 2
#     Edge 10, Type (0, 0), BuildingBlock: OJICUG_clean_linker_0, # of connection points: 2
#     Edge 11, Type (0, 0), BuildingBlock: OJICUG_clean_linker_0, # of connection points: 2
#     Edge 12, Type (0, 0), BuildingBlock: OJICUG_clean_linker_0, # of connection points: 2
#     Edge 13, Type (0, 0), BuildingBlock: OJICUG_clean_linker_0, # of connection points: 2
#     Edge 14, Type (0, 0), BuildingBlock: OJICUG_clean_linker_0, # of connection points: 2
#     Edge 15, Type (0, 0), BuildingBlock: OJICUG_clean_linker_0, # of connection points: 2
#     Edge 16, Type (0, 0), BuildingBlock: OJICUG_clean_linker_0, # of connection points: 2
#     Edge 17, Type (0, 0), BuildingBlock: OJICUG_clean_linker_0, # of connection points: 2
#     Edge 18, Type (0, 0), BuildingBlock: OJICUG_clean_linker_0, # of connection points: 2
#     Edge 19, Type (0, 0), BuildingBlock: OJICUG_clean_linker_0, # of connection points: 2
#     Edge 20, Type (0, 0), BuildingBlock: OJICUG_clean_linker_0, # of connection points: 2
#     Edge 21, Type (0, 0), BuildingBlock: OJICUG_clean_linker_0, # of connection points: 2
#     Edge 22, Type (0, 0), BuildingBlock: OJICUG_clean_linker_0, # of connection points: 2
#     Edge 23, Type (0, 0), BuildingBlock: OJICUG_clean_linker_0, # of connection points: 2
# Relax obj value: 0.033
# Max RMSD: 0.069
# Mean RMSD: 0.069
data_MOF--net-sra--node1-CEKHIL_clean_sbu_0--edge1-OJICUG_clean_linker_0
_symmetry_space_group_name_H-M    P1
_symmetry_Int_Tables_number       1
_symmetry_cell_setting            triclinic
loop_
_symmetry_equiv_pos_as_xyz
'x, y, z'
_cell_length_a     19.639657
_cell_length_b     38.364157
_cell_length_c     22.860725
_cell_angle_alpha  89.996539
_cell_angle_beta   90.050011
_cell_angle_gamma 89.999204
loop_
_atom_site_label
_atom_site_type_symbol
_atom_site_fract_x
_atom_site_fract_y
_atom_site_fract_z
_atom_type_partial_charge
Co0 Co 0.02182 0.10965 0.15154 0.0
O1 O 0.02732 0.06016 0.13761 0.0
O2 O 0.9919 0.09877 0.07257 0.0
C3 C 0.12584 0.11461 0.19305 0.0
O4 O 0.01058 0.16284 0.15017 0.0
Co5 Co 0.0265 0.13742 0.27962 0.0
O6 O 0.02904 0.18369 0.24109 0.0
C7 C 0.90092 0.10491 0.23442 0.0
C8 C 0.005 0.06636 0.08527 0.0
C9 C 0.01709 0.1882 0.18682 0.0
O10 O 0.92635 0.10415 0.18252 0.0
O11 O 0.93499 0.11415 0.27964 0.0
O12 O 0.11942 0.11467 0.13646 0.0
O13 O 0.07068 0.10868 0.22188 0.0
Co14 Co 0.99019 0.41178 0.15426 0.0
O15 O 0.9905 0.46132 0.14044 0.0
O16 O 0.02146 0.42177 0.07537 0.0
C17 C 0.88592 0.41003 0.19523 0.0
O18 O 0.99451 0.35826 0.15317 0.0
Co19 Co 0.98118 0.38385 0.2821 0.0
O20 O 0.95929 0.33951 0.24152 0.0
C21 C 0.11083 0.41243 0.2377 0.0
C22 C 0.01183 0.45452 0.08806 0.0
C23 C 0.9756 0.33381 0.1884 0.0
O24 O 0.08579 0.41433 0.18572 0.0
O25 O 0.07576 0.40367 0.28258 0.0
O26 O 0.89232 0.40985 0.13866 0.0
O27 O 0.94156 0.41425 0.22429 0.0
Co28 Co 0.02419 0.91067 0.85072 0.0
O29 O 0.0283 0.96022 0.86445 0.0
O30 O 0.99334 0.92147 0.9294 0.0
C31 C 0.12858 0.90647 0.81008 0.0
O32 O 0.01425 0.8574 0.85225 0.0
Co33 Co 0.03117 0.88249 0.72289 0.0
O34 O 0.03516 0.83639 0.76186 0.0
C35 C 0.90412 0.91419 0.76667 0.0
C36 C 0.00582 0.95394 0.91668 0.0
C37 C 0.02231 0.83197 0.81598 0.0
O38 O 0.92899 0.91546 0.81879 0.0
O39 O 0.93888 0.90492 0.72191 0.0
O40 O 0.1218 0.90641 0.86663 0.0
O41 O 0.07349 0.91185 0.78082 0.0
Co42 Co 0.99271 0.60845 0.85098 0.0
O43 O 0.99148 0.559 0.8656 0.0
O44 O 0.02358 0.59866 0.93013 0.0
C45 C 0.88848 0.61094 0.80978 0.0
O46 O -0.00135 0.66194 0.85112 0.0
Co47 Co 0.98508 0.63545 0.72255 0.0
O48 O 0.96446 0.68026 0.76215 0.0
C49 C 0.11348 0.6059 0.76787 0.0
C50 C 0.01305 0.56593 0.91789 0.0
C51 C 0.98058 0.68624 0.81526 0.0
O52 O 0.0883 0.60483 0.81982 0.0
O53 O 0.0788 0.61456 0.72266 0.0
O54 O 0.89493 0.61134 0.86636 0.0
O55 O 0.94395 0.60597 0.78087 0.0
Co56 Co 0.5237 0.60906 0.65336 0.0
O57 O 0.52767 0.55954 0.6395 0.0
O58 O 0.49236 0.59839 0.57477 0.0
C59 C 0.62819 0.61326 0.69393 0.0
O60 O 0.51377 0.66232 0.65209 0.0
Co61 Co 0.53081 0.63682 0.78147 0.0
O62 O 0.53369 0.68305 0.74287 0.0
C63 C 0.40382 0.60525 0.73735 0.0
C64 C 0.50466 0.56588 0.58742 0.0
C65 C 0.52117 0.68762 0.6887 0.0
O66 O 0.42864 0.60424 0.68526 0.0
O67 O 0.4386 0.6143 0.78227 0.0
O68 O 0.62125 0.61335 0.63738 0.0
O69 O 0.5732 0.60777 0.72319 0.0
Co70 Co 0.49252 0.91104 0.65242 0.0
O71 O 0.49126 0.9604 0.63728 0.0
O72 O 0.52282 0.92051 0.573 0.0
C73 C 0.38845 0.9088 0.69385 0.0
O74 O 0.49827 0.85756 0.65285 0.0
Co75 Co 0.48528 0.88458 0.78119 0.0
O76 O 0.46413 0.8397 0.74204 0.0
C77 C 0.61368 0.9138 0.73538 0.0
C78 C 0.51226 0.95328 0.58493 0.0
C79 C 0.48005 0.83345 0.68899 0.0
O80 O 0.58835 0.91472 0.68341 0.0
O81 O 0.57906 0.90535 0.78069 0.0
O82 O 0.39465 0.90814 0.63728 0.0
O83 O 0.44407 0.91384 0.72259 0.0
Co84 Co 0.52194 0.41083 0.35262 0.0
O85 O 0.52257 0.46038 0.36623 0.0
O86 O 0.49114 0.42106 0.43155 0.0
C87 C 0.62613 0.40873 0.31154 0.0
O88 O 0.51644 0.35737 0.35399 0.0
Co89 Co 0.53065 0.38232 0.2252 0.0
O90 O 0.5515 0.33793 0.26602 0.0
C91 C 0.40135 0.4117 0.26928 0.0
C92 C 0.50142 0.45373 0.41872 0.0
C93 C 0.53477 0.33263 0.31914 0.0
O94 O 0.42638 0.41381 0.32123 0.0
O95 O 0.43631 0.40249 0.22457 0.0
O96 O 0.61977 0.4085 0.36811 0.0
O97 O 0.5705 0.413 0.28247 0.0
Co98 Co 0.49076 0.10842 0.34955 0.0
O99 O 0.48628 0.05876 0.36266 0.0
O100 O 0.52192 0.09723 0.42787 0.0
C101 C 0.38633 0.11335 0.30894 0.0
O102 O 0.50113 0.1616 0.35235 0.0
Co103 Co 0.48405 0.13812 0.22287 0.0
O104 O 0.47711 0.18372 0.26333 0.0
C105 C 0.61075 0.10537 0.26556 0.0
C106 C 0.50926 0.06483 0.41488 0.0
C107 C 0.49107 0.18747 0.3174 0.0
O108 O 0.58585 0.10358 0.31757 0.0
O109 O 0.57619 0.11546 0.22112 0.0
O110 O 0.39322 0.11287 0.36549 0.0
O111 O 0.44131 0.108 0.27953 0.0
C112 C 0.03811 0.28279 0.14527 0.0
C113 C 0.97867 0.29681 0.17033 0.0
H114 H 0.09745 0.23633 0.13063 0.0
C115 C 0.92758 0.27398 0.18974 0.0
H116 H 0.07869 0.29986 0.13082 0.0
C117 C 0.93797 0.238 0.18898 0.0
C118 C -0.00023 0.22406 0.16912 0.0
H119 H 0.88144 0.2841 0.20941 0.0
H120 H 0.89974 0.22117 0.20825 0.0
C121 C 0.04889 0.24652 0.14517 0.0
C122 C 0.05386 0.77368 0.8581 0.0
C123 C 0.00497 0.79609 0.83358 0.0
H124 H 0.08341 0.72037 0.87321 0.0
C125 C 0.9434 0.78211 0.81322 0.0
H126 H 0.10225 0.78392 0.87304 0.0
C127 C 0.933 0.74613 0.81263 0.0
C128 C 0.98382 0.72334 0.83275 0.0
H129 H 0.90538 0.79889 0.79349 0.0
H130 H 0.88703 0.73598 0.79264 0.0
C131 C 0.04304 0.73741 0.8582 0.0
C132 C 0.44279 0.73763 0.6929 0.0
C133 C 0.50363 0.72351 0.67132 0.0
H134 H 0.38718 0.78386 0.71412 0.0
C135 C 0.55179 0.74577 0.64546 0.0
H136 H 0.4053 0.72096 0.71357 0.0
C137 C 0.54112 0.78205 0.64529 0.0
C138 C 0.48279 0.79627 0.67191 0.0
H139 H 0.5996 0.73542 0.62949 0.0
H140 H 0.58105 0.799 0.62919 0.0
C141 C 0.43251 0.7736 0.69331 0.0
C142 C 0.46641 0.28214 0.35576 0.0
C143 C 0.52932 0.29581 0.33744 0.0
H144 H 0.40439 0.23608 0.36369 0.0
C145 C 0.58243 0.27275 0.32363 0.0
H146 H 0.4243 0.29943 0.36549 0.0
C147 C 0.57141 0.23677 0.32365 0.0
C148 C 0.50685 0.22321 0.33665 0.0
H149 H 0.6311 0.28267 0.30879 0.0
H150 H 0.61178 0.21969 0.30871 0.0
C151 C 0.45496 0.24598 0.35467 0.0
C152 C 0.3159 0.11906 0.21833 0.0
C153 C 0.31974 0.11756 0.27971 0.0
H154 H 0.25143 0.11966 0.14272 0.0
C155 C 0.25928 0.11797 0.31238 0.0
H156 H 0.36169 0.11901 0.19196 0.0
C157 C 0.19612 0.11823 0.28412 0.0
C158 C 0.1923 0.11825 0.22269 0.0
H159 H 0.26066 0.11696 0.35972 0.0
H160 H 0.15031 0.11747 0.31044 0.0
C161 C 0.25277 0.11949 0.19009 0.0
C162 C 0.69607 0.40518 0.22058 0.0
C163 C 0.69258 0.40576 0.28199 0.0
H164 H 0.76018 0.40584 0.14485 0.0
C165 C 0.75315 0.40536 0.31456 0.0
H166 H 0.65015 0.40527 0.19431 0.0
C167 C 0.81611 0.4058 0.2862 0.0
C168 C 0.81957 0.40651 0.22479 0.0
H169 H 0.75198 0.40567 0.36193 0.0
H170 H 0.86201 0.40636 0.31248 0.0
C171 C 0.75903 0.40548 0.19222 0.0
C172 C 0.25577 0.90387 0.81339 0.0
C173 C 0.19521 0.90334 0.78078 0.0
H174 H 0.36463 0.90606 0.81129 0.0
C175 C 0.19883 0.90211 0.71941 0.0
H176 H 0.25452 0.90476 0.86074 0.0
C177 C 0.2618 0.90276 0.69108 0.0
C178 C 0.32228 0.90482 0.72361 0.0
H179 H 0.15295 0.90149 0.6931 0.0
H180 H 0.26296 0.90262 0.64371 0.0
C181 C 0.31877 0.9047 0.78504 0.0
C182 C 0.75533 0.61631 0.69051 0.0
C183 C 0.69488 0.61643 0.72319 0.0
H184 H 0.86421 0.61445 0.69244 0.0
C185 C 0.69872 0.6173 0.78459 0.0
H186 H 0.75391 0.61572 0.64315 0.0
C187 C 0.7618 0.61667 0.81283 0.0
C188 C 0.82217 0.61498 0.78018 0.0
H189 H 0.65293 0.61761 0.81096 0.0
H190 H 0.76313 0.6165 0.8602 0.0
C191 C 0.81844 0.6155 0.71877 0.0
C192 C 0.73123 0.92037 0.6943 0.0
C193 C 0.68763 0.91981 0.74298 0.0
H194 H 0.83387 0.91932 0.66352 0.0
C195 C 0.7161 0.92195 0.79937 0.0
H196 H 0.71109 0.91901 0.65023 0.0
C197 C 0.78663 0.92227 0.80703 0.0
C198 C 0.83026 0.92024 0.75848 0.0
H199 H 0.68397 0.92205 0.83786 0.0
H200 H 0.80674 0.92238 0.85117 0.0
C201 C 0.80177 0.92048 0.70197 0.0
C202 C 0.30141 0.59866 0.80166 0.0
C203 C 0.32996 0.59922 0.74525 0.0
H204 H 0.21068 0.59995 0.85316 0.0
C205 C 0.28641 0.59756 0.69653 0.0
H206 H 0.33346 0.59952 0.84022 0.0
C207 C 0.21588 0.59796 0.70398 0.0
C208 C 0.18736 0.5998 0.76032 0.0
H209 H 0.3066 0.59768 0.65245 0.0
H210 H 0.18382 0.59817 0.66541 0.0
C211 C 0.23087 0.59884 0.80912 0.0
C212 C 0.72811 0.09621 0.3058 0.0
C213 C 0.68445 0.09883 0.25727 0.0
H214 H 0.83082 0.09576 0.33668 0.0
C215 C 0.71285 0.09864 0.20077 0.0
H216 H 0.70806 0.09602 0.34992 0.0
C217 C 0.7834 0.09834 0.19314 0.0
C218 C 0.82709 0.09846 0.24185 0.0
H219 H 0.68071 0.10021 0.16234 0.0
H220 H 0.80351 0.0999 0.14911 0.0
C221 C 0.79864 0.09614 0.29818 0.0
C222 C 0.21327 0.41905 0.30207 0.0
C223 C 0.18488 0.41769 0.24561 0.0
H224 H 0.30386 0.41868 0.35393 0.0
C225 C 0.22855 0.4184 0.19697 0.0
H226 H 0.18108 0.41896 0.34052 0.0
C227 C 0.29905 0.41809 0.20468 0.0
C228 C 0.32741 0.41731 0.26119 0.0
H229 H 0.20845 0.41759 0.15285 0.0
H230 H 0.3312 0.41723 0.16624 0.0
C231 C 0.28378 0.41899 0.30978 0.0
C232 C 0.99635 0.0448 0.98181 0.0
C233 C -0.00183 0.03774 0.04204 0.0
H234 H 0.99781 0.02377 0.89497 0.0
C235 C 0.99767 1.00278 0.06076 0.0
H236 H 0.99682 0.07143 0.96604 0.0
C237 C 0.99718 0.97546 0.02011 0.0
C238 C -0.00155 0.98253 0.95988 0.0
H239 H -0.00122 0.99649 0.10694 0.0
H240 H -0.00166 0.94884 0.03589 0.0
C241 C 0.99713 0.01748 0.94116 0.0
C242 C 0.02324 0.50264 0.94349 0.0
C243 C 0.021 0.53769 0.96165 0.0
H244 H 0.02338 0.44883 0.96911 0.0
C245 C 0.02129 0.54509 0.02177 0.0
H246 H 0.02337 0.49609 0.89739 0.0
C247 C 0.02042 0.51797 0.0628 0.0
C248 C 0.02035 0.48289 0.0446 0.0
H249 H 0.0194 0.57178 0.03712 0.0
H250 H 0.01828 0.52451 0.10885 0.0
C251 C 0.02346 0.47553 0.98453 0.0
C252 C 0.49185 0.51713 0.44356 0.0
C253 C 0.49408 0.48216 0.46215 0.0
H254 H 0.49224 0.57105 0.46852 0.0
C255 C 0.49464 0.47503 0.52236 0.0
H256 H 0.49115 0.52348 0.39739 0.0
C257 C 0.49628 0.50232 0.56304 0.0
C258 C 0.49622 0.5373 0.54438 0.0
H259 H 0.49657 0.4484 0.53804 0.0
H260 H 0.49892 0.49599 0.60917 0.0
C261 C 0.49232 0.54441 0.48426 0.0
C262 C 0.5171 0.97399 0.48072 0.0
C263 C 0.51942 0.98138 0.54084 0.0
H264 H 0.51145 0.99467 0.39371 0.0
C265 C 0.52324 0.01639 0.55893 0.0
H266 H 0.51386 0.94731 0.46547 0.0
C267 C 0.52274 0.04349 0.51792 0.0
C268 C 0.51721 0.03619 0.45794 0.0
H269 H 0.52532 0.02293 0.60499 0.0
H270 H 0.52422 0.07016 0.53339 0.0
C271 C 0.51541 1.00114 0.4397 0.0
loop_
_geom_bond_atom_site_label_1
_geom_bond_atom_site_label_2
_geom_bond_distance
_geom_bond_site_symmetry_2
_ccdc_geom_bond_type
Co0 O1 2.216 . S
Co0 O2 2.091 . S
Co0 O4 2.004 . S
Co0 O10 2.021 1_455 S
Co0 O12 2.137 . S
Co0 O13 2.244 . S
O1 Co0 2.216 . S
O1 C8 1.247 . S
O2 Co0 2.091 . S
O2 C8 1.261 . S
C3 O12 1.247 . S
C3 O13 1.272 . S
O4 Co0 2.004 . S
O4 C9 1.259 . S
Co5 O6 2.061 . S
Co5 O11 2.052 1_455 S
Co5 O13 2.135 . S
O6 Co5 2.061 . S
O6 C9 1.235 . S
C7 O10 1.238 . S
C7 O11 1.241 . S
C8 O1 1.247 . S
C8 O2 1.261 . S
C9 O4 1.259 . S
C9 O6 1.235 . S
O10 Co0 2.021 1_655 S
O10 C7 1.238 . S
O11 Co5 2.052 1_655 S
O11 C7 1.241 . S
O12 Co0 2.137 . S
O12 C3 1.247 . S
O13 Co0 2.244 . S
O13 C3 1.272 . S
O13 Co5 2.135 . S
Co14 O15 2.216 1_655 S
Co14 O16 2.091 1_655 S
Co14 O18 2.004 . S
Co14 O24 2.021 1_655 S
Co14 O26 2.137 . S
Co14 O27 2.244 . S
O15 Co14 2.216 1_455 S
O15 C22 1.247 . S
O16 Co14 2.091 1_455 S
O16 C22 1.261 . S
C17 O26 1.247 . S
C17 O27 1.272 . S
O18 Co14 2.004 . S
O18 C23 1.259 1_655 S
Co19 O20 2.061 . S
Co19 O25 2.052 . S
Co19 O27 2.135 1_455 S
O20 Co19 2.061 . S
O20 C23 1.235 . S
C21 O24 1.238 . S
C21 O25 1.241 . S
C22 O15 1.247 . S
C22 O16 1.261 . S
C23 O18 1.259 1_455 S
C23 O20 1.235 . S
O24 Co14 2.021 1_455 S
O24 C21 1.238 . S
O25 Co19 2.052 . S
O25 C21 1.241 . S
O26 Co14 2.137 . S
O26 C17 1.247 . S
O27 Co14 2.244 . S
O27 C17 1.272 . S
O27 Co19 2.135 1_655 S
Co28 O29 2.216 . S
Co28 O30 2.091 . S
Co28 O32 2.004 . S
Co28 O38 2.021 1_455 S
Co28 O40 2.137 . S
Co28 O41 2.244 . S
O29 Co28 2.216 . S
O29 C36 1.247 . S
O30 Co28 2.091 . S
O30 C36 1.261 . S
C31 O40 1.247 . S
C31 O41 1.272 . S
O32 Co28 2.004 . S
O32 C37 1.259 . S
Co33 O34 2.061 . S
Co33 O39 2.052 1_455 S
Co33 O41 2.135 . S
O34 Co33 2.061 . S
O34 C37 1.235 . S
C35 O38 1.238 . S
C35 O39 1.241 . S
C36 O29 1.247 . S
C36 O30 1.261 . S
C37 O32 1.259 . S
C37 O34 1.235 . S
O38 Co28 2.021 1_655 S
O38 C35 1.238 . S
O39 Co33 2.052 1_655 S
O39 C35 1.241 . S
O40 Co28 2.137 . S
O40 C31 1.247 . S
O41 Co28 2.244 . S
O41 C31 1.272 . S
O41 Co33 2.135 . S
Co42 O43 2.216 1_655 S
Co42 O44 2.091 1_655 S
Co42 O46 2.004 . S
Co42 O52 2.021 1_655 S
Co42 O54 2.137 . S
Co42 O55 2.244 . S
O43 Co42 2.216 1_455 S
O43 C50 1.247 . S
O44 Co42 2.091 1_455 S
O44 C50 1.261 . S
C45 O54 1.247 . S
C45 O55 1.272 . S
O46 Co42 2.004 . S
O46 C51 1.259 1_655 S
Co47 O48 2.061 . S
Co47 O53 2.052 . S
Co47 O55 2.135 1_455 S
O48 Co47 2.061 . S
O48 C51 1.235 . S
C49 O52 1.238 . S
C49 O53 1.241 . S
C50 O43 1.247 . S
C50 O44 1.261 . S
C51 O46 1.259 1_455 S
C51 O48 1.235 . S
O52 Co42 2.021 1_455 S
O52 C49 1.238 . S
O53 Co47 2.052 . S
O53 C49 1.241 . S
O54 Co42 2.137 . S
O54 C45 1.247 . S
O55 Co42 2.244 . S
O55 C45 1.272 . S
O55 Co47 2.135 1_655 S
Co56 O57 2.216 . S
Co56 O58 2.091 . S
Co56 O60 2.004 . S
Co56 O66 2.021 . S
Co56 O68 2.137 . S
Co56 O69 2.244 . S
O57 Co56 2.216 . S
O57 C64 1.247 . S
O58 Co56 2.091 . S
O58 C64 1.261 . S
C59 O68 1.247 . S
C59 O69 1.272 . S
O60 Co56 2.004 . S
O60 C65 1.259 . S
Co61 O62 2.061 . S
Co61 O67 2.052 . S
Co61 O69 2.135 . S
O62 Co61 2.061 . S
O62 C65 1.235 . S
C63 O66 1.238 . S
C63 O67 1.241 . S
C64 O57 1.247 . S
C64 O58 1.261 . S
C65 O60 1.259 . S
C65 O62 1.235 . S
O66 Co56 2.021 . S
O66 C63 1.238 . S
O67 Co61 2.052 . S
O67 C63 1.241 . S
O68 Co56 2.137 . S
O68 C59 1.247 . S
O69 Co56 2.244 . S
O69 C59 1.272 . S
O69 Co61 2.135 . S
Co70 O71 2.216 . S
Co70 O72 2.091 . S
Co70 O74 2.004 . S
Co70 O80 2.021 . S
Co70 O82 2.137 . S
Co70 O83 2.244 . S
O71 Co70 2.216 . S
O71 C78 1.247 . S
O72 Co70 2.091 . S
O72 C78 1.261 . S
C73 O82 1.247 . S
C73 O83 1.272 . S
O74 Co70 2.004 . S
O74 C79 1.259 . S
Co75 O76 2.061 . S
Co75 O81 2.052 . S
Co75 O83 2.135 . S
O76 Co75 2.061 . S
O76 C79 1.235 . S
C77 O80 1.238 . S
C77 O81 1.241 . S
C78 O71 1.247 . S
C78 O72 1.261 . S
C79 O74 1.259 . S
C79 O76 1.235 . S
O80 Co70 2.021 . S
O80 C77 1.238 . S
O81 Co75 2.052 . S
O81 C77 1.241 . S
O82 Co70 2.137 . S
O82 C73 1.247 . S
O83 Co70 2.244 . S
O83 C73 1.272 . S
O83 Co75 2.135 . S
Co84 O85 2.216 . S
Co84 O86 2.091 . S
Co84 O88 2.004 . S
Co84 O94 2.021 . S
Co84 O96 2.137 . S
Co84 O97 2.244 . S
O85 Co84 2.216 . S
O85 C92 1.247 . S
O86 Co84 2.091 . S
O86 C92 1.261 . S
C87 O96 1.247 . S
C87 O97 1.272 . S
O88 Co84 2.004 . S
O88 C93 1.259 . S
Co89 O90 2.061 . S
Co89 O95 2.052 . S
Co89 O97 2.135 . S
O90 Co89 2.061 . S
O90 C93 1.235 . S
C91 O94 1.238 . S
C91 O95 1.241 . S
C92 O85 1.247 . S
C92 O86 1.261 . S
C93 O88 1.259 . S
C93 O90 1.235 . S
O94 Co84 2.021 . S
O94 C91 1.238 . S
O95 Co89 2.052 . S
O95 C91 1.241 . S
O96 Co84 2.137 . S
O96 C87 1.247 . S
O97 Co84 2.244 . S
O97 C87 1.272 . S
O97 Co89 2.135 . S
Co98 O99 2.216 . S
Co98 O100 2.091 . S
Co98 O102 2.004 . S
Co98 O108 2.021 . S
Co98 O110 2.137 . S
Co98 O111 2.244 . S
O99 Co98 2.216 . S
O99 C106 1.247 . S
O100 Co98 2.091 . S
O100 C106 1.261 . S
C101 O110 1.247 . S
C101 O111 1.272 . S
O102 Co98 2.004 . S
O102 C107 1.259 . S
Co103 O104 2.061 . S
Co103 O109 2.052 . S
Co103 O111 2.135 . S
O104 Co103 2.061 . S
O104 C107 1.235 . S
C105 O108 1.238 . S
C105 O109 1.241 . S
C106 O99 1.247 . S
C106 O100 1.261 . S
C107 O102 1.259 . S
C107 O104 1.235 . S
O108 Co98 2.021 . S
O108 C105 1.238 . S
O109 Co103 2.052 . S
O109 C105 1.241 . S
O110 Co98 2.137 . S
O110 C101 1.247 . S
O111 Co98 2.244 . S
O111 C101 1.272 . S
O111 Co103 2.135 . S
C112 C113 1.387 . S
C112 H116 0.950 . S
C112 C121 1.390 . S
C113 C112 1.387 . S
C113 C115 1.387 . S
H114 C121 0.950 . S
C115 C113 1.387 . S
C115 C117 1.390 . S
C115 H119 0.950 . S
H116 C112 0.950 . S
C117 C115 1.390 . S
C117 C118 1.387 . S
C117 H120 0.950 . S
C118 C117 1.387 . S
C118 C121 1.387 . S
H119 C115 0.950 . S
H120 C117 0.950 . S
C121 C112 1.390 . S
C121 H114 0.950 . S
C121 C118 1.387 . S
C122 C123 1.387 . S
C122 H126 0.950 . S
C122 C131 1.390 . S
C123 C122 1.387 . S
C123 C125 1.387 . S
H124 C131 0.950 . S
C125 C123 1.387 . S
C125 C127 1.390 . S
C125 H129 0.950 . S
H126 C122 0.950 . S
C127 C125 1.390 . S
C127 C128 1.387 . S
C127 H130 0.950 . S
C128 C127 1.387 . S
C128 C131 1.387 . S
H129 C125 0.950 . S
H130 C127 0.950 . S
C131 C122 1.390 . S
C131 H124 0.950 . S
C131 C128 1.387 . S
C132 C133 1.387 . S
C132 H136 0.950 . S
C132 C141 1.390 . S
C133 C132 1.387 . S
C133 C135 1.387 . S
H134 C141 0.950 . S
C135 C133 1.387 . S
C135 C137 1.390 . S
C135 H139 0.950 . S
H136 C132 0.950 . S
C137 C135 1.390 . S
C137 C138 1.387 . S
C137 H140 0.950 . S
C138 C137 1.387 . S
C138 C141 1.387 . S
H139 C135 0.950 . S
H140 C137 0.950 . S
C141 C132 1.390 . S
C141 H134 0.950 . S
C141 C138 1.387 . S
C142 C143 1.387 . S
C142 H146 0.950 . S
C142 C151 1.390 . S
C143 C142 1.387 . S
C143 C145 1.387 . S
H144 C151 0.950 . S
C145 C143 1.387 . S
C145 C147 1.390 . S
C145 H149 0.950 . S
H146 C142 0.950 . S
C147 C145 1.390 . S
C147 C148 1.387 . S
C147 H150 0.950 . S
C148 C147 1.387 . S
C148 C151 1.387 . S
H149 C145 0.950 . S
H150 C147 0.950 . S
C151 C142 1.390 . S
C151 H144 0.950 . S
C151 C148 1.387 . S
C152 C153 1.387 . S
C152 H156 0.950 . S
C152 C161 1.390 . S
C153 C152 1.387 . S
C153 C155 1.387 . S
H154 C161 0.950 . S
C155 C153 1.387 . S
C155 C157 1.390 . S
C155 H159 0.950 . S
H156 C152 0.950 . S
C157 C155 1.390 . S
C157 C158 1.387 . S
C157 H160 0.950 . S
C158 C157 1.387 . S
C158 C161 1.387 . S
H159 C155 0.950 . S
H160 C157 0.950 . S
C161 C152 1.390 . S
C161 H154 0.950 . S
C161 C158 1.387 . S
C162 C163 1.387 . S
C162 H166 0.950 . S
C162 C171 1.390 . S
C163 C162 1.387 . S
C163 C165 1.387 . S
H164 C171 0.950 . S
C165 C163 1.387 . S
C165 C167 1.390 . S
C165 H169 0.950 . S
H166 C162 0.950 . S
C167 C165 1.390 . S
C167 C168 1.387 . S
C167 H170 0.950 . S
C168 C167 1.387 . S
C168 C171 1.387 . S
H169 C165 0.950 . S
H170 C167 0.950 . S
C171 C162 1.390 . S
C171 H164 0.950 . S
C171 C168 1.387 . S
C172 C173 1.387 . S
C172 H176 0.950 . S
C172 C181 1.390 . S
C173 C172 1.387 . S
C173 C175 1.387 . S
H174 C181 0.950 . S
C175 C173 1.387 . S
C175 C177 1.390 . S
C175 H179 0.950 . S
H176 C172 0.950 . S
C177 C175 1.390 . S
C177 C178 1.387 . S
C177 H180 0.950 . S
C178 C177 1.387 . S
C178 C181 1.387 . S
H179 C175 0.950 . S
H180 C177 0.950 . S
C181 C172 1.390 . S
C181 H174 0.950 . S
C181 C178 1.387 . S
C182 C183 1.387 . S
C182 H186 0.950 . S
C182 C191 1.390 . S
C183 C182 1.387 . S
C183 C185 1.387 . S
H184 C191 0.950 . S
C185 C183 1.387 . S
C185 C187 1.390 . S
C185 H189 0.950 . S
H186 C182 0.950 . S
C187 C185 1.390 . S
C187 C188 1.387 . S
C187 H190 0.950 . S
C188 C187 1.387 . S
C188 C191 1.387 . S
H189 C185 0.950 . S
H190 C187 0.950 . S
C191 C182 1.390 . S
C191 H184 0.950 . S
C191 C188 1.387 . S
C192 C193 1.387 . S
C192 H196 0.950 . S
C192 C201 1.390 . S
C193 C192 1.387 . S
C193 C195 1.387 . S
H194 C201 0.950 . S
C195 C193 1.387 . S
C195 C197 1.390 . S
C195 H199 0.950 . S
H196 C192 0.950 . S
C197 C195 1.390 . S
C197 C198 1.387 . S
C197 H200 0.950 . S
C198 C197 1.387 . S
C198 C201 1.387 . S
H199 C195 0.950 . S
H200 C197 0.950 . S
C201 C192 1.390 . S
C201 H194 0.950 . S
C201 C198 1.387 . S
C202 C203 1.387 . S
C202 H206 0.950 . S
C202 C211 1.390 . S
C203 C202 1.387 . S
C203 C205 1.387 . S
H204 C211 0.950 . S
C205 C203 1.387 . S
C205 C207 1.390 . S
C205 H209 0.950 . S
H206 C202 0.950 . S
C207 C205 1.390 . S
C207 C208 1.387 . S
C207 H210 0.950 . S
C208 C207 1.387 . S
C208 C211 1.387 . S
H209 C205 0.950 . S
H210 C207 0.950 . S
C211 C202 1.390 . S
C211 H204 0.950 . S
C211 C208 1.387 . S
C212 C213 1.387 . S
C212 H216 0.950 . S
C212 C221 1.390 . S
C213 C212 1.387 . S
C213 C215 1.387 . S
H214 C221 0.950 . S
C215 C213 1.387 . S
C215 C217 1.390 . S
C215 H219 0.950 . S
H216 C212 0.950 . S
C217 C215 1.390 . S
C217 C218 1.387 . S
C217 H220 0.950 . S
C218 C217 1.387 . S
C218 C221 1.387 . S
H219 C215 0.950 . S
H220 C217 0.950 . S
C221 C212 1.390 . S
C221 H214 0.950 . S
C221 C218 1.387 . S
C222 C223 1.387 . S
C222 H226 0.950 . S
C222 C231 1.390 . S
C223 C222 1.387 . S
C223 C225 1.387 . S
H224 C231 0.950 . S
C225 C223 1.387 . S
C225 C227 1.390 . S
C225 H229 0.950 . S
H226 C222 0.950 . S
C227 C225 1.390 . S
C227 C228 1.387 . S
C227 H230 0.950 . S
C228 C227 1.387 . S
C228 C231 1.387 . S
H229 C225 0.950 . S
H230 C227 0.950 . S
C231 C222 1.390 . S
C231 H224 0.950 . S
C231 C228 1.387 . S
C232 C233 1.387 1_655 S
C232 H236 0.950 . S
C232 C241 1.390 1_544 S
C233 C232 1.387 1_455 S
C233 C235 1.387 . S
H234 C241 0.950 . S
C235 C233 1.387 . S
C235 C237 1.390 1_544 S
C235 H239 0.950 . S
H236 C232 0.950 . S
C237 C235 1.390 1_566 S
C237 C238 1.387 . S
C237 H240 0.950 . S
C238 C237 1.387 . S
C238 C241 1.387 1_455 S
H239 C235 0.950 . S
H240 C237 0.950 . S
C241 C232 1.390 1_566 S
C241 H234 0.950 . S
C241 C238 1.387 1_655 S
C242 C243 1.387 . S
C242 H246 0.950 . S
C242 C251 1.390 1_556 S
C243 C242 1.387 . S
C243 C245 1.387 1_455 S
H244 C251 0.950 . S
C245 C243 1.387 1_655 S
C245 C247 1.390 1_556 S
C245 H249 0.950 . S
H246 C242 0.950 . S
C247 C245 1.390 1_554 S
C247 C248 1.387 1_655 S
C247 H250 0.950 . S
C248 C247 1.387 1_455 S
C248 C251 1.387 . S
H249 C245 0.950 . S
H250 C247 0.950 . S
C251 C242 1.390 1_554 S
C251 H244 0.950 . S
C251 C248 1.387 . S
C252 C253 1.387 . S
C252 H256 0.950 . S
C252 C261 1.390 . S
C253 C252 1.387 . S
C253 C255 1.387 . S
H254 C261 0.950 . S
C255 C253 1.387 . S
C255 C257 1.390 . S
C255 H259 0.950 . S
H256 C252 0.950 . S
C257 C255 1.390 . S
C257 C258 1.387 . S
C257 H260 0.950 . S
C258 C257 1.387 . S
C258 C261 1.387 . S
H259 C255 0.950 . S
H260 C257 0.950 . S
C261 C252 1.390 . S
C261 H254 0.950 . S
C261 C258 1.387 . S
C262 C263 1.387 . S
C262 H266 0.950 . S
C262 C271 1.390 1_565 S
C263 C262 1.387 . S
C263 C265 1.387 . S
H264 C271 0.950 . S
C265 C263 1.387 . S
C265 C267 1.390 1_565 S
C265 H269 0.950 . S
H266 C262 0.950 . S
C267 C265 1.390 1_545 S
C267 C268 1.387 . S
C267 H270 0.950 . S
C268 C267 1.387 . S
C268 C271 1.387 . S
H269 C265 0.950 . S
H270 C267 0.950 . S
C271 C262 1.390 1_545 S
C271 H264 0.950 . S
C271 C268 1.387 . S
C113 C23 1.436 . S
C118 C9 1.436 . S
C123 C37 1.436 . S
C128 C51 1.436 . S
C133 C65 1.436 . S
C138 C79 1.436 . S
C143 C93 1.436 . S
C148 C107 1.436 . S
C153 C101 1.457 . S
C158 C3 1.457 . S
C163 C87 1.457 . S
C168 C17 1.457 . S
C173 C31 1.458 . S
C178 C73 1.458 . S
C183 C59 1.458 . S
C188 C45 1.458 . S
C193 C77 1.401 . S
C198 C35 1.401 . S
C203 C63 1.401 . S
C208 C49 1.401 . S
C213 C105 1.402 . S
C218 C7 1.402 . S
C223 C21 1.402 . S
C228 C91 1.402 . S
C233 C8 1.410 . S
C238 C36 1.410 . S
C243 C50 1.411 . S
C248 C22 1.411 . S
C253 C92 1.411 . S
C258 C64 1.411 . S
C263 C78 1.411 . S
C268 C106 1.411 . S
