# Generated by pormake.
# Topology kag, (6)-cn, num edge types: 1
# Building blocks:
#     Node 0, Type 0, BuildingBlock: KUMBUR_clean_sbu_1, # of connection points: 6
#     Node 1, Type 0, BuildingBlock: KUMBUR_clean_sbu_1, # of connection points: 6
#     Node 2, Type 0, BuildingBlock: KUMBUR_clean_sbu_1, # of connection points: 6
#     Edge 3, Type (0, 0), BuildingBlock: XUDNAN_clean_linker_2, # of connection points: 2
#     Edge 4, Type (0, 0), BuildingBlock: XUDNAN_clean_linker_2, # of connection points: 2
#     Edge 5, Type (0, 0), BuildingBlock: XUDNAN_clean_linker_2, # of connection points: 2
#     Edge 6, Type (0, 0), BuildingBlock: XUDNAN_clean_linker_2, # of connection points: 2
#     Edge 7, Type (0, 0), BuildingBlock: XUDNAN_clean_linker_2, # of connection points: 2
#     Edge 8, Type (0, 0), BuildingBlock: XUDNAN_clean_linker_2, # of connection points: 2
#     Edge 9, Type (0, 0), BuildingBlock: XUDNAN_clean_linker_2, # of connection points: 2
#     Edge 10, Type (0, 0), BuildingBlock: XUDNAN_clean_linker_2, # of connection points: 2
#     Edge 11, Type (0, 0), BuildingBlock: XUDNAN_clean_linker_2, # of connection points: 2
# Relax obj value: 0.095
# Max RMSD: 0.183
# Mean RMSD: 0.126
data_MOF--net-kag--node1-KUMBUR_clean_sbu_1--edge1-XUDNAN_clean_linker_2
_symmetry_space_group_name_H-M    P1
_symmetry_Int_Tables_number       1
_symmetry_cell_setting            triclinic
loop_
_symmetry_equiv_pos_as_xyz
'x, y, z'
_cell_length_a     30.499354
_cell_length_b     40.571586
_cell_length_c     14.816937
_cell_angle_alpha  108.58904
_cell_angle_beta   97.457199
_cell_angle_gamma 98.26165
loop_
_atom_site_label
_atom_site_type_symbol
_atom_site_fract_x
_atom_site_fract_y
_atom_site_fract_z
_atom_type_partial_charge
Tb0 Tb 0.06648 0.55467 0.06812 0.0
C1 C 0.0915 0.39831 0.82097 0.0
N2 N 0.05608 0.41452 0.80921 0.0
C3 C 1.04174 0.3837 0.63758 0.0
C4 C 0.1029 0.37361 0.74094 0.0
C5 C 1.03094 0.4075 0.71928 0.0
C6 C 0.0778 0.36667 0.64844 0.0
C7 C 0.1512 0.38845 0.92931 0.0
C8 C 0.11532 0.4056 0.91436 0.0
C9 C 0.16235 0.36355 0.84971 0.0
C10 C 0.1384 0.35624 0.75586 0.0
Tb11 Tb 1.04095 0.4506 0.94952 0.0
N12 N 0.10402 0.43018 0.99009 0.0
C13 C 0.17499 0.39696 0.02376 0.0
C14 C 0.1279 0.43911 0.08197 0.0
C15 C 0.16355 0.42266 0.1002 0.0
H16 H 1.00243 0.42006 0.71115 0.0
H17 H 0.1825 0.43013 0.1731 0.0
H18 H 0.08152 0.58605 0.30991 0.0
H19 H 0.9415 0.56639 0.78929 0.0
H20 H 0.12152 0.46037 0.14029 0.0
H21 H 0.20272 0.38429 0.03822 0.0
H22 H 1.00265 0.54221 0.84995 0.0
H23 H 1.02206 0.37829 0.56639 0.0
H24 H 0.18962 0.34991 0.85992 0.0
H25 H 0.14748 0.33695 0.69529 0.0
H26 H 1.04691 0.62468 0.43348 0.0
H27 H 0.0857 0.34796 0.58506 0.0
H28 H 0.90674 0.60881 0.90405 0.0
N29 N 1.03526 0.58707 0.19055 0.0
C30 C 1.00103 0.60168 0.16174 0.0
C31 C 1.03323 0.61795 0.35737 0.0
C32 C 0.98126 0.62483 0.23023 0.0
C33 C 0.05204 0.5954 0.28703 0.0
C34 C 0.99757 0.63262 0.32891 0.0
N35 N 1.00473 0.57031 0.99876 0.0
C36 C 0.98903 0.5607 0.90155 0.0
C37 C 0.9499 0.60795 0.03102 0.0
C38 C 0.98562 0.59338 0.06306 0.0
C39 C 0.93414 0.59824 0.93147 0.0
C40 C 0.95364 0.57433 0.86655 0.0
H41 H 0.98335 0.65038 0.38366 0.0
H42 H 0.9309 0.65779 0.24995 0.0
H43 H 0.90358 0.64312 0.07564 0.0
O44 O 0.09289 0.59509 0.01792 0.0
O45 O 0.99717 0.52593 0.06367 0.0
O46 O 0.98664 0.47868 0.92266 0.0
O47 O 0.10825 0.60065 0.16797 0.0
O48 O 0.07929 0.53255 0.91986 0.0
O49 O 1.02782 0.47985 0.85252 0.0
O50 O 0.99456 0.42683 0.01577 0.0
O51 O 0.11078 0.47617 0.95822 0.0
O52 O 0.12818 0.53097 0.08016 0.0
O53 O 1.01077 0.39735 0.88019 0.0
O54 O 1.04225 0.47118 0.105 0.0
O55 O 0.08138 0.52955 0.17558 0.0
C56 C 0.96975 0.50007 0.99111 0.0
C57 C 0.16356 0.62801 0.1078 0.0
C58 C 0.222 0.67444 0.10471 0.0
C59 C 0.25452 0.65439 0.11785 0.0
C60 C 0.19637 0.60853 0.12339 0.0
C61 C 0.2415 0.6216 0.12733 0.0
C62 C 0.17643 0.66113 0.09931 0.0
C63 C 0.05887 0.50442 0.8451 0.0
C64 C 0.11611 0.61461 0.10316 0.0
C65 C 0.94629 0.6398 0.19835 0.0
C66 C 0.93082 0.63152 0.09908 0.0
C67 C 0.14046 0.50415 0.01698 0.0
C68 C 0.93913 0.38009 0.90285 0.0
C69 C 0.87684 0.33388 0.88886 0.0
C70 C 0.85155 0.34231 0.81623 0.0
C71 C 0.91543 0.38671 0.82485 0.0
C72 C 0.91999 0.35345 0.93387 0.0
C73 C 0.87108 0.36873 0.78393 0.0
C74 C 0.06088 0.49948 0.18055 0.0
C75 C 0.98598 0.39679 0.94377 0.0
H76 H 0.28991 0.66422 0.12145 0.0
H77 H 0.18735 0.58353 0.13371 0.0
H78 H 0.26631 0.60634 0.13787 0.0
H79 H 0.15108 0.67629 0.0874 0.0
H80 H 0.81774 0.32751 0.78201 0.0
H81 H 0.93177 0.40491 0.79412 0.0
H82 H 0.93932 0.34697 0.9906 0.0
H83 H 0.85247 0.37439 0.72514 0.0
Tb84 Tb 0.49028 0.98503 0.96189 0.0
C85 C 0.68459 0.97238 0.12852 0.0
N86 N 0.66083 0.99775 0.16613 0.0
C87 C 0.68513 0.99695 0.32581 0.0
C88 C 0.70872 0.95761 0.1884 0.0
C89 C 0.66156 0.01072 0.26363 0.0
C90 C 0.70855 0.9701 0.28802 0.0
C91 C 0.70584 0.93285 0.98705 0.0
C92 C 0.68298 0.96006 0.02878 0.0
C93 C 0.72979 0.91798 0.04648 0.0
C94 C 0.73124 0.93033 0.1468 0.0
Tb95 Tb 0.62147 0.01629 0.05637 0.0
N96 N 0.65771 0.97395 0.97261 0.0
C97 C 0.70396 0.92136 0.8868 0.0
C98 C 0.65913 0.96485 0.87602 0.0
C99 C 0.68117 0.93789 0.8314 0.0
H100 H 0.64528 0.03254 0.29381 0.0
H101 H 0.68118 0.93029 0.75441 0.0
H102 H 0.4735 0.98042 0.73266 0.0
H103 H 0.44235 0.07036 0.28302 0.0
H104 H 0.64497 0.97869 0.83241 0.0
H105 H 0.72097 0.90044 0.85189 0.0
H106 H 0.472 0.01967 0.19196 0.0
H107 H 0.68547 0.00721 0.40288 0.0
H108 H 0.74732 0.89689 0.01552 0.0
H109 H 0.7497 0.91845 0.19154 0.0
H110 H 0.43981 0.01337 0.63698 0.0
H111 H 0.72654 0.9593 0.33637 0.0
H112 H 0.4091 0.10738 0.19963 0.0
N113 N 0.45982 0.01281 0.86574 0.0
C114 C 0.43919 0.0394 0.91051 0.0
C115 C 0.43975 0.02117 0.71396 0.0
C116 C 0.41916 0.05877 0.85866 0.0
C117 C 0.45952 0.00293 0.76855 0.0
C118 C 0.41966 0.04934 0.75926 0.0
N119 N 0.46127 0.02962 0.05839 0.0
C120 C 0.46033 0.03638 0.15452 0.0
C121 C 0.42149 0.07706 0.05932 0.0
C122 C 0.44053 0.04841 0.01001 0.0
C123 C 0.4232 0.08546 0.15903 0.0
C124 C 0.44224 0.06478 0.2065 0.0
H125 H 0.4046 0.06361 0.71687 0.0
H126 H 0.38452 0.10246 0.86923 0.0
H127 H 0.38662 0.11853 0.04463 0.0
O128 O 0.43169 0.96018 0.99366 0.0
O129 O 0.52541 0.03733 0.96378 0.0
O130 O 0.57672 0.05348 0.10224 0.0
O131 O 0.44288 0.94802 0.84448 0.0
O132 O 0.51622 0.98143 0.10327 0.0
O133 O 0.57946 0.02591 0.16868 0.0
O134 O 0.65773 0.05401 0.00946 0.0
O135 O 0.59559 0.96027 0.03692 0.0
O136 O 0.52245 0.93906 0.94913 0.0
O137 O 0.68144 0.04818 0.14555 0.0
O138 O 0.59507 0.01351 0.90659 0.0
O139 O 0.53409 0.96767 0.85877 0.0
C140 C 0.5518 0.06241 0.03845 0.0
C141 C 0.37425 0.91634 0.86736 0.0
C142 C 0.32332 0.86812 0.88454 0.0
C143 C 0.2998 0.86031 0.79003 0.0
C144 C 0.35054 0.90859 0.77299 0.0
C145 C 0.31313 0.88082 0.73489 0.0
C146 C 0.3601 0.89644 0.92365 0.0
C147 C 0.54861 0.0012 0.1767 0.0
C148 C 0.41702 0.94165 0.90226 0.0
C149 C 0.40003 0.08719 0.90778 0.0
C150 C 0.40133 0.09638 0.00777 0.0
C151 C 0.56046 0.93441 0.99225 0.0
C152 C 0.69485 0.10539 0.13939 0.0
C153 C 0.73099 0.16351 0.1463 0.0
C154 C 0.71576 0.179 0.23274 0.0
C155 C 0.68019 0.12085 0.22656 0.0
C156 C 0.71951 0.12677 0.09918 0.0
C157 C 0.69031 0.15764 0.27242 0.0
C158 C 0.56421 0.98914 0.83796 0.0
C159 C 0.68675 0.06703 0.09068 0.0
H160 H 0.2713 0.83834 0.75909 0.0
H161 H 0.36147 0.92353 0.72823 0.0
H162 H 0.29504 0.87473 0.6619 0.0
H163 H 0.37906 0.90163 0.99564 0.0
H164 H 0.7243 0.20739 0.27053 0.0
H165 H 0.66097 0.1046 0.25899 0.0
H166 H 0.73018 0.11458 0.03124 0.0
H167 H 0.67885 0.16957 0.33931 0.0
Tb168 Tb 0.53603 0.44406 0.9575 0.0
C169 C 0.65376 0.59659 0.19934 0.0
N170 N 0.61105 0.58146 0.20011 0.0
C171 C 0.62397 0.6086 0.37339 0.0
C172 C 0.68343 0.61808 0.28603 0.0
C173 C 0.59532 0.58838 0.28535 0.0
C174 C 0.66833 0.62329 0.37387 0.0
C175 C 0.70981 0.60913 0.10607 0.0
C176 C 0.66712 0.59188 0.11069 0.0
C177 C 0.73955 0.63038 0.19235 0.0
C178 C 0.7266 0.63452 0.2821 0.0
Tb179 Tb 0.56798 0.5502 0.05017 0.0
N180 N 0.63788 0.57045 0.02865 0.0
C181 C 0.72098 0.60484 0.01477 0.0
C182 C 0.64762 0.56765 0.93944 0.0
C183 C 0.68962 0.58421 0.93112 0.0
H184 H 0.56036 0.57925 0.28602 0.0
H185 H 0.69747 0.58154 0.86027 0.0
H186 H 0.52765 0.41815 0.71528 0.0
H187 H 0.4163 0.43089 0.18749 0.0
H188 H 0.62283 0.55306 0.87492 0.0
H189 H 0.75339 0.61783 0.00806 0.0
H190 H 0.49078 0.4502 0.15367 0.0
H191 H 0.61149 0.61353 0.44067 0.0
H192 H 0.77258 0.64388 0.19046 0.0
H193 H 0.74986 0.65115 0.34796 0.0
H194 H 0.46764 0.38727 0.57292 0.0
H195 H 0.69018 0.6395 0.4421 0.0
H196 H 0.35258 0.39818 0.05183 0.0
N197 N 0.48454 0.4173 0.81752 0.0
C198 C 0.44274 0.40503 0.83067 0.0
C199 C 0.46012 0.39239 0.64499 0.0
C200 C 0.40778 0.3862 0.75073 0.0
C201 C 0.49392 0.41063 0.72629 0.0
C202 C 0.41686 0.38019 0.65716 0.0
N203 N 0.46873 0.43141 1.00098 0.0
C204 C 0.46297 0.43739 0.09416 0.0
C205 C 0.39181 0.39973 0.94096 0.0
C206 C 0.43475 0.41189 0.92506 0.0
C207 C 0.3851 0.40714 0.03657 0.0
C208 C 0.42091 0.42583 0.11341 0.0
H209 H 0.39084 0.36585 0.59387 0.0
H210 H 0.33772 0.35942 0.70597 0.0
H211 H 0.3238 0.37111 0.87211 0.0
O212 O 0.54782 0.40848 0.03282 0.0
O213 O 0.48361 0.47613 0.94173 0.0
O214 O 0.49874 0.53014 0.06567 0.0
O215 O 0.53909 0.3917 0.87793 0.0
O216 O 0.56975 0.47383 0.10723 0.0
O217 O 0.54264 0.52546 0.15086 0.0
O218 O 0.54786 0.57846 0.95967 0.0
O219 O 0.62771 0.52313 0.04479 0.0
O220 O 0.60732 0.46245 0.95465 0.0
O221 O 0.56075 0.60326 0.11427 0.0
O222 O 0.54212 0.5194 0.89419 0.0
O223 O 0.56604 0.46591 0.85788 0.0
C224 C 0.4697 0.50234 1.00324 0.0
C225 C 0.57398 0.35549 0.95111 0.0
C226 C 0.58458 0.29802 0.96436 0.0
C227 C 0.62214 0.29999 0.91948 0.0
C228 C 0.61259 0.35709 0.90935 0.0
C229 C 0.63638 0.32946 0.8936 0.0
C230 C 0.56041 0.32604 0.98024 0.0
C231 C 0.55877 0.50006 0.17298 0.0
C232 C 0.5447 0.38184 0.9532 0.0
C233 C 0.36497 0.37403 0.76657 0.0
C234 C 0.35704 0.38069 0.86128 0.0
C235 C 0.63807 0.492 1.00001 0.0
C236 C 0.52056 0.63194 0.0227 0.0
C237 C 0.50935 0.68964 0.01176 0.0
C238 C 0.46268 0.67822 1.00334 0.0
C239 C 0.47408 0.62146 0.01449 0.0
C240 C 0.53812 0.66603 0.02158 0.0
C241 C 0.44537 0.64454 1.00489 0.0
C242 C 0.55763 0.49364 0.83553 0.0
C243 C 0.55159 0.6079 0.0317 0.0
H244 H 0.64079 0.27871 0.90532 0.0
H245 H 0.62358 0.37923 0.88634 0.0
H246 H 0.66577 0.33069 0.86003 0.0
H247 H 0.53072 0.32454 0.01291 0.0
H248 H 0.43946 0.69561 0.99758 0.0
H249 H 0.46008 0.59549 0.01551 0.0
H250 H 0.57416 0.67394 0.0274 0.0
H251 H 0.40943 0.63635 0.99906 0.0
H252 H 1.04427 0.54891 0.74091 0.0
H253 H 0.10124 0.45679 0.73569 0.0
H254 H 0.10431 0.44359 0.56253 0.0
H255 H 0.97758 0.51673 0.50538 0.0
H256 H 0.99173 0.55729 0.48059 0.0
H257 H 0.99278 0.55871 0.60358 0.0
H258 H 0.07554 0.59282 0.6504 0.0
H259 H 0.07533 0.59098 0.52726 0.0
H260 H 0.11733 0.57385 0.58621 0.0
H261 H 0.08791 0.43514 0.3857 0.0
H262 H 0.07623 0.441 0.22508 0.0
H263 H 1.04142 0.54341 0.34935 0.0
C264 C 0.05699 0.52582 0.70324 0.0
C265 C 0.06859 0.50168 0.74861 0.0
C266 C 0.08823 0.47341 0.69901 0.0
C267 C 0.09086 0.46616 0.60136 0.0
C268 C 0.07585 0.48877 0.5562 0.0
C269 C 0.06104 0.51883 0.60617 0.0
C270 C 1.04989 0.53998 0.54146 0.0
C271 C 1.00003 0.54336 0.53222 0.0
C272 C 0.0814 0.57658 0.57856 0.0
C273 C 0.05958 0.51646 0.44687 0.0
C274 C 0.07371 0.4868 0.45691 0.0
C275 C 0.07959 0.45924 0.37782 0.0
C276 C 0.07333 0.46305 0.28675 0.0
C277 C 0.06345 0.49485 0.27615 0.0
C278 C 0.05436 0.521 0.35673 0.0
H279 H 0.57991 0.04787 0.36774 0.0
H280 H 0.51867 0.9384 0.19659 0.0
H281 H 0.5186 0.92406 0.34565 0.0
H282 H 0.65292 0.02774 0.55356 0.0
H283 H 0.64608 0.06556 0.65107 0.0
H284 H 0.64217 0.06709 0.53004 0.0
H285 H 0.56281 0.08318 0.53861 0.0
H286 H 0.56777 0.08105 0.6589 0.0
H287 H 0.51992 0.05446 0.56681 0.0
H288 H 0.52408 0.92062 0.50992 0.0
H289 H 0.53324 0.9286 0.68346 0.0
H290 H 0.59189 0.03995 0.75616 0.0
C291 C 0.56687 0.02086 0.36191 0.0
C292 C 0.5494 0.99421 0.26986 0.0
C293 C 0.53197 0.95935 0.26571 0.0
C294 C 0.532 0.95083 0.35017 0.0
C295 C 0.5496 0.97742 0.4393 0.0
C296 C 0.56674 0.01176 0.44636 0.0
C297 C 0.58309 0.03508 0.55243 0.0
C298 C 0.6341 0.04974 0.57292 0.0
C299 C 0.55675 0.06522 0.58072 0.0
C300 C 0.57206 0.00846 0.6033 0.0
C301 C 0.55291 0.97538 0.5359 0.0
C302 C 0.53917 0.94636 0.56347 0.0
C303 C 0.54459 0.95117 0.66246 0.0
C304 C 0.56347 0.98479 0.73379 0.0
C305 C 0.5779 0.0138 0.70349 0.0
H306 H 0.51017 0.5216 0.71202 0.0
H307 H 0.62076 0.46682 0.73878 0.0
H308 H 0.6341 0.46566 0.57778 0.0
H309 H 0.46939 0.47122 0.45497 0.0
H310 H 0.45294 0.50795 0.42505 0.0
H311 H 0.45242 0.50625 0.545 0.0
H312 H 0.505 0.56813 0.61887 0.0
H313 H 0.50576 0.56992 0.49906 0.0
H314 H 0.55799 0.57536 0.57964 0.0
H315 H 0.63567 0.46875 0.41554 0.0
H316 H 0.62378 0.474 0.25398 0.0
H317 H 0.51122 0.52591 0.32157 0.0
C318 C 0.53742 0.50972 0.68403 0.0
C319 C 0.56466 0.4944 0.73849 0.0
C320 C 0.59942 0.47856 0.69863 0.0
C321 C 0.60739 0.47789 0.60722 0.0
C322 C 0.58005 0.49288 0.55516 0.0
C323 C 0.54547 0.50827 0.5911 0.0
C324 C 0.51993 0.52066 0.51622 0.0
C325 C 0.47075 0.50032 0.4834 0.0
C326 C 0.52233 0.56092 0.55586 0.0
C327 C 0.54636 0.51051 0.43415 0.0
C328 C 0.58071 0.49441 0.45891 0.0
C329 C 0.60903 0.48145 0.39535 0.0
C330 C 0.60192 0.48454 0.30346 0.0
C331 C 0.56684 0.50059 0.27492 0.0
C332 C 0.53887 0.51412 0.34184 0.0
H333 H 0.22509 0.53664 0.15097 0.0
H334 H 0.16802 0.46793 0.85467 0.0
H335 H 0.24323 0.46086 0.82389 0.0
H336 H 0.32854 0.58114 0.1047 0.0
H337 H 0.36759 0.57911 0.20374 0.0
H338 H 0.31038 0.58113 0.21698 0.0
H339 H 0.29728 0.52407 0.25461 0.0
H340 H 0.35597 0.5227 0.25223 0.0
H341 H 0.31298 0.48494 0.17793 0.0
H342 H 0.32369 0.46085 0.81812 0.0
H343 H 0.40594 0.46729 0.84103 0.0
H344 H 0.41808 0.53422 0.14078 0.0
C345 C 0.22851 0.52085 0.07905 0.0
C346 C 0.18933 0.50345 1.00486 0.0
C347 C 0.1963 0.48194 0.9132 0.0
C348 C 0.2394 0.47768 0.89441 0.0
C349 C 0.27678 0.49499 0.96759 0.0
C350 C 0.27232 0.51615 0.0585 0.0
C351 C 0.3193 0.52958 0.12441 0.0
C352 C 0.33201 0.5702 0.16459 0.0
C353 C 0.32152 0.51441 0.20722 0.0
C354 C 0.35015 0.5143 0.05457 0.0
C355 C 0.32438 0.49402 0.96503 0.0
C356 C 0.34415 0.4768 0.88807 0.0
C357 C 0.3913 0.48055 0.90209 0.0
C358 C 0.41933 0.50116 0.99271 0.0
C359 C 0.39807 0.51846 0.07016 0.0
H360 H 0.72104 0.22736 0.13038 0.0
H361 H 0.8052 0.14808 0.06883 0.0
H362 H 0.85059 0.18244 0.99115 0.0
H363 H 0.72003 0.24721 0.91412 0.0
H364 H 0.72394 0.29418 0.97218 0.0
H365 H 0.69764 0.26342 0.02333 0.0
H366 H 0.75266 0.29632 0.18715 0.0
H367 H 0.77888 0.32732 0.13671 0.0
H368 H 0.81261 0.30281 0.18978 0.0
H369 H 0.88708 0.22537 0.92255 0.0
H370 H 0.91255 0.27515 0.86699 0.0
H371 H 0.80482 0.32598 0.97408 0.0
C372 C 0.7494 0.21751 0.10182 0.0
C373 C 0.75956 0.18511 0.10507 0.0
C374 C 0.79652 0.1727 0.06567 0.0
C375 C 0.82261 0.19204 0.02195 0.0
C376 C 0.81145 0.22377 0.01933 0.0
C377 C 0.77598 0.23655 0.0586 0.0
C378 C 0.77137 0.27153 0.04678 0.0
C379 C 0.7255 0.26888 0.98543 0.0
C380 C 0.77937 0.30125 0.14601 0.0
C381 C 0.80924 0.27608 0.99324 0.0
C382 C 0.8322 0.24837 0.97872 0.0
C383 C 0.86925 0.24712 0.93285 0.0
C384 C 0.8833 0.27523 0.90146 0.0
C385 C 0.85983 0.30356 0.91546 0.0
C386 C 0.8224 0.30401 0.96128 0.0
H387 H 0.50299 0.8692 0.88928 0.0
H388 H 0.62026 0.91832 0.11843 0.0
H389 H 0.62393 0.861 0.1381 0.0
H390 H 0.45118 0.81228 1.0052 0.0
H391 H 0.42934 0.7768 0.89126 0.0
H392 H 0.43895 0.82186 0.89466 0.0
H393 H 0.48782 0.80212 0.76231 0.0
H394 H 0.47922 0.7578 0.76659 0.0
H395 H 0.53564 0.78285 0.78778 0.0
H396 H 0.6131 0.79816 0.13897 0.0
H397 H 0.58603 0.73624 0.12668 0.0
H398 H 0.47353 0.72714 0.9024 0.0
C399 C 0.52994 0.86781 0.94242 0.0
C400 C 0.56265 0.89855 0.99948 0.0
C401 C 0.59634 0.89532 0.07005 0.0
C402 C 0.59832 0.86269 0.08282 0.0
C403 C 0.56592 0.83301 0.0253 0.0
C404 C 0.53221 0.83525 0.95674 0.0
C405 C 0.49994 0.7997 0.90883 0.0
C406 C 0.45201 0.80298 0.92637 0.0
C407 C 0.50073 0.78475 0.79991 0.0
C408 C 0.52023 0.77741 0.96232 0.0
C409 C 0.55869 0.79707 0.02833 0.0
C410 C 0.58309 0.78248 0.0871 0.0
C411 C 0.56754 0.74708 0.07918 0.0
C412 C 0.52755 0.72643 0.01364 0.0
C413 C 0.504 0.74204 0.95392 0.0
H414 H 0.9158 0.54139 0.10827 0.0
H415 H 0.9059 0.45375 0.84227 0.0
H416 H 0.82379 0.44079 0.82504 0.0
H417 H 0.81996 0.50975 0.19921 0.0
H418 H 0.79934 0.55068 0.23134 0.0
H419 H 0.85853 0.55153 0.23052 0.0
H420 H 0.85615 0.5863 0.11283 0.0
H421 H 0.79732 0.58563 0.114 0.0
H422 H 0.81592 0.56901 1.00031 0.0
H423 H 0.74292 0.43476 0.8379 0.0
H424 H 0.66652 0.44075 0.86476 0.0
H425 H 0.72118 0.53812 0.10862 0.0
C426 C 0.89639 0.51932 0.04672 0.0
C427 C 0.91866 0.49665 0.98008 0.0
C428 C 0.89098 0.46943 0.89869 0.0
C429 C 0.84374 0.46239 0.88707 0.0
C430 C 0.8231 0.48416 0.95459 0.0
C431 C 0.84817 0.51287 0.03122 0.0
C432 C 0.81602 0.53391 0.08644 0.0
C433 C 0.82396 0.5366 0.19325 0.0
C434 C 0.82167 0.57091 0.07764 0.0
C435 C 0.76944 0.51133 0.03186 0.0
C436 C 0.77498 0.48278 0.95614 0.0
C437 C 0.73814 0.45728 0.89624 0.0
C438 C 0.69446 0.4609 0.91277 0.0
C439 C 0.68664 0.49 0.9886 0.0
C440 C 0.72523 0.51573 0.04904 0.0
H441 H 0.27072 0.68636 0.97545 0.0
H442 H 0.20247 0.73825 0.20396 0.0
H443 H 0.22683 0.79572 0.18153 0.0
H444 H 0.36793 0.76007 0.02469 0.0
H445 H 0.36583 0.74515 0.89519 0.0
H446 H 0.34681 0.71413 0.95127 0.0
H447 H 0.27282 0.69879 0.8183 0.0
H448 H 0.29305 0.73466 0.77838 0.0
H449 H 0.24032 0.73279 0.82097 0.0
H450 H 0.25822 0.84666 0.13193 0.0
H451 H 0.28669 0.88648 0.04649 0.0
H452 H 0.33192 0.79982 0.84787 0.0
C453 C 0.2615 0.70999 0.02152 0.0
C454 C 0.2356 0.70849 0.09224 0.0
C455 C 0.22274 0.73939 0.14976 0.0
C456 C 0.2366 0.77196 0.13793 0.0
C457 C 0.26283 0.77266 0.06798 0.0
C458 C 0.27456 0.74238 0.01003 0.0
C459 C 0.3004 0.74944 0.93611 0.0
C460 C 0.34814 0.74188 0.95327 0.0
C461 C 0.27509 0.72764 0.83235 0.0
C462 C 0.30079 0.78856 0.95994 0.0
C463 C 0.27965 0.80161 0.03744 0.0
C464 C 0.27481 0.83685 0.07123 0.0
C465 C 0.29092 0.85916 0.02263 0.0
C466 C 0.31063 0.84571 0.94074 0.0
C467 C 0.31649 0.81032 0.91016 0.0
H468 H 0.54054 0.22931 0.85689 0.0
H469 H 0.60763 0.29704 0.14648 0.0
H470 H 0.604 0.24461 0.19869 0.0
H471 H 0.46479 0.1658 0.93795 0.0
H472 H 0.468 0.12866 0.8342 0.0
H473 H 0.47172 0.17218 0.82522 0.0
H474 H 0.5477 0.16598 0.76569 0.0
H475 H 0.54352 0.12313 0.77879 0.0
H476 H 0.59293 0.15716 0.84049 0.0
H477 H 0.59816 0.18398 0.21616 0.0
H478 H 0.5872 0.12072 0.20019 0.0
H479 H 0.52404 0.09123 0.89873 0.0
C480 C 0.5531 0.2331 0.93201 0.0
C481 C 0.57356 0.26741 0.99845 0.0
C482 C 0.59087 0.27121 0.0953 0.0
C483 C 0.5892 0.24149 0.1253 0.0
C484 C 0.56954 0.20795 0.05789 0.0
C485 C 0.55099 0.20363 0.96362 0.0
C486 C 0.53278 0.16451 0.90526 0.0
C487 C 0.48126 0.1574 0.87385 0.0
C488 C 0.5557 0.15201 0.81736 0.0
C489 C 0.54579 0.14738 0.97987 0.0
C490 C 0.56649 0.17301 0.06778 0.0
C491 C 0.58187 0.16379 0.14759 0.0
C492 C 0.57596 0.12765 0.13753 0.0
C493 C 0.55556 0.10071 0.04795 0.0
C494 C 0.53983 0.11099 0.96838 0.0
loop_
_geom_bond_atom_site_label_1
_geom_bond_atom_site_label_2
_geom_bond_distance
_geom_bond_site_symmetry_2
_ccdc_geom_bond_type
Tb0 N29 2.617 1_455 S
Tb0 N35 2.572 1_455 S
Tb0 O44 2.465 1_554 S
Tb0 O45 2.387 1_455 S
Tb0 O47 2.428 . S
Tb0 O48 2.308 1_454 S
Tb0 O52 2.349 . S
Tb0 O55 2.393 . S
Tb0 C64 2.802 . S
C1 N2 1.379 . S
C1 C4 1.416 . S
C1 C8 1.424 . S
N2 C1 1.379 . S
N2 C5 1.334 1_455 S
N2 Tb11 2.617 1_455 S
C3 C5 1.390 1_455 S
C3 C6 1.339 . S
C3 H23 0.930 . S
C4 C1 1.416 . S
C4 C6 1.416 . S
C4 C10 1.448 . S
C5 N2 1.334 1_655 S
C5 C3 1.390 1_655 S
C5 H16 0.930 . S
C6 C3 1.339 . S
C6 C4 1.416 . S
C6 H27 0.930 . S
C7 C8 1.413 . S
C7 C9 1.427 . S
C7 C13 1.416 1_556 S
C8 C1 1.424 . S
C8 C7 1.413 . S
C8 N12 1.361 . S
C9 C7 1.427 . S
C9 C10 1.328 . S
C9 H24 0.929 . S
C10 C4 1.448 . S
C10 C9 1.328 . S
C10 H25 0.930 . S
Tb11 N2 2.617 1_655 S
Tb11 N12 2.572 1_655 S
Tb11 O46 2.349 . S
Tb11 O49 2.393 . S
Tb11 O50 2.465 1_556 S
Tb11 O51 2.387 1_655 S
Tb11 O53 2.428 . S
Tb11 O54 2.308 1_656 S
Tb11 C75 2.802 . S
N12 C8 1.361 . S
N12 Tb11 2.572 1_455 S
N12 C14 1.340 1_556 S
C13 C7 1.416 1_554 S
C13 C15 1.332 . S
C13 H21 0.931 . S
C14 N12 1.340 1_554 S
C14 C15 1.407 . S
C14 H20 0.930 . S
C15 C13 1.332 . S
C15 C14 1.407 . S
C15 H17 0.929 . S
H16 C5 0.930 . S
H17 C15 0.929 . S
H18 C33 0.930 . S
H19 C40 0.929 . S
H20 C14 0.930 . S
H21 C13 0.931 . S
H22 C36 0.930 . S
H23 C3 0.930 . S
H24 C9 0.929 . S
H25 C10 0.930 . S
H26 C31 0.930 . S
H27 C6 0.930 . S
H28 C39 0.931 . S
N29 Tb0 2.617 1_655 S
N29 C30 1.379 . S
N29 C33 1.334 1_655 S
C30 N29 1.379 . S
C30 C32 1.416 . S
C30 C38 1.424 . S
C31 H26 0.930 . S
C31 C33 1.390 1_655 S
C31 C34 1.339 . S
C32 C30 1.416 . S
C32 C34 1.416 . S
C32 C65 1.448 . S
C33 H18 0.930 . S
C33 N29 1.334 1_455 S
C33 C31 1.390 1_455 S
C34 C31 1.339 . S
C34 C32 1.416 . S
C34 H41 0.930 . S
N35 Tb0 2.572 1_655 S
N35 C36 1.340 1_554 S
N35 C38 1.361 . S
C36 H22 0.930 . S
C36 N35 1.340 1_556 S
C36 C40 1.407 . S
C37 C38 1.413 . S
C37 C39 1.416 1_554 S
C37 C66 1.427 . S
C38 C30 1.424 . S
C38 N35 1.361 . S
C38 C37 1.413 . S
C39 H28 0.931 . S
C39 C37 1.416 1_556 S
C39 C40 1.332 . S
C40 H19 0.929 . S
C40 C36 1.407 . S
C40 C39 1.332 . S
H41 C34 0.930 . S
H42 C65 0.930 . S
H43 C66 0.929 . S
O44 Tb0 2.465 1_556 S
O44 C64 1.264 1_556 S
O45 Tb0 2.387 1_655 S
O45 C56 1.264 1_554 S
O46 Tb11 2.349 . S
O46 C56 1.243 . S
O47 Tb0 2.428 . S
O47 C64 1.256 . S
O48 Tb0 2.308 1_656 S
O48 C63 1.266 . S
O49 Tb11 2.393 . S
O49 C63 1.248 . S
O50 Tb11 2.465 1_554 S
O50 C75 1.264 1_554 S
O51 Tb11 2.387 1_455 S
O51 C67 1.264 1_556 S
O52 Tb0 2.349 . S
O52 C67 1.243 . S
O53 Tb11 2.428 . S
O53 C75 1.256 . S
O54 Tb11 2.308 1_454 S
O54 C74 1.266 . S
O55 Tb0 2.393 . S
O55 C74 1.248 . S
C56 O45 1.264 1_556 S
C56 O46 1.243 . S
C57 C60 1.399 . S
C57 C62 1.383 . S
C57 C64 1.496 . S
C58 C59 1.399 . S
C58 C62 1.389 . S
C59 C58 1.399 . S
C59 C61 1.380 . S
C59 H76 0.929 . S
C60 C57 1.399 . S
C60 C61 1.392 . S
C60 H77 0.929 . S
C61 C59 1.380 . S
C61 C60 1.392 . S
C61 H78 0.929 . S
C62 C57 1.383 . S
C62 C58 1.389 . S
C62 H79 0.931 1_554 S
C63 O48 1.266 . S
C63 O49 1.248 . S
C64 Tb0 2.802 . S
C64 O44 1.264 1_554 S
C64 O47 1.256 . S
C64 C57 1.496 . S
C65 C32 1.448 . S
C65 H42 0.930 . S
C65 C66 1.328 . S
C66 C37 1.427 . S
C66 H43 0.929 . S
C66 C65 1.328 . S
C67 O51 1.264 1_554 S
C67 O52 1.243 . S
C68 C71 1.399 . S
C68 C72 1.383 . S
C68 C75 1.496 . S
C69 C70 1.399 . S
C69 C72 1.389 . S
C70 C69 1.399 . S
C70 C73 1.380 . S
C70 H80 0.929 . S
C71 C68 1.399 . S
C71 C73 1.392 . S
C71 H81 0.929 . S
C72 C68 1.383 . S
C72 C69 1.389 . S
C72 H82 0.931 1_556 S
C73 C70 1.380 . S
C73 C71 1.392 . S
C73 H83 0.929 . S
C74 O54 1.266 . S
C74 O55 1.248 . S
C75 Tb11 2.802 . S
C75 O50 1.264 1_556 S
C75 O53 1.256 . S
C75 C68 1.496 . S
H76 C59 0.929 . S
H77 C60 0.929 . S
H78 C61 0.929 . S
H79 C62 0.931 1_556 S
H80 C70 0.929 . S
H81 C71 0.929 . S
H82 C72 0.931 1_554 S
H83 C73 0.929 . S
Tb84 N113 2.617 . S
Tb84 N119 2.572 1_566 S
Tb84 O128 2.465 1_556 S
Tb84 O129 2.387 1_565 S
Tb84 O131 2.428 . S
Tb84 O132 2.308 1_566 S
Tb84 O136 2.349 . S
Tb84 O139 2.393 . S
Tb84 C148 2.802 . S
C85 N86 1.379 1_565 S
C85 C88 1.416 . S
C85 C92 1.424 . S
N86 C85 1.379 1_545 S
N86 C89 1.334 . S
N86 Tb95 2.617 . S
C87 C89 1.390 . S
C87 C90 1.339 1_545 S
C87 H107 0.930 . S
C88 C85 1.416 . S
C88 C90 1.416 . S
C88 C94 1.448 . S
C89 N86 1.334 . S
C89 C87 1.390 . S
C89 H100 0.930 . S
C90 C87 1.339 1_565 S
C90 C88 1.416 . S
C90 H111 0.930 . S
C91 C92 1.413 1_556 S
C91 C93 1.427 1_556 S
C91 C97 1.416 . S
C92 C85 1.424 . S
C92 C91 1.413 1_554 S
C92 N96 1.361 1_554 S
C93 C91 1.427 1_554 S
C93 C94 1.328 . S
C93 H108 0.929 . S
C94 C88 1.448 . S
C94 C93 1.328 . S
C94 H109 0.930 . S
Tb95 N86 2.617 . S
Tb95 N96 2.572 1_544 S
Tb95 O130 2.349 . S
Tb95 O133 2.393 . S
Tb95 O134 2.465 1_554 S
Tb95 O135 2.387 1_545 S
Tb95 O137 2.428 . S
Tb95 O138 2.308 1_544 S
Tb95 C159 2.802 . S
N96 C92 1.361 1_556 S
N96 Tb95 2.572 1_566 S
N96 C98 1.340 . S
C97 C91 1.416 . S
C97 C99 1.332 . S
C97 H105 0.931 . S
C98 N96 1.340 . S
C98 C99 1.407 . S
C98 H104 0.930 . S
C99 C97 1.332 . S
C99 C98 1.407 . S
C99 H101 0.929 . S
H100 C89 0.930 . S
H101 C99 0.929 . S
H102 C117 0.930 . S
H103 C124 0.929 . S
H104 C98 0.930 . S
H105 C97 0.931 . S
H106 C120 0.930 . S
H107 C87 0.930 . S
H108 C93 0.929 . S
H109 C94 0.930 . S
H110 C115 0.930 . S
H111 C90 0.930 . S
H112 C123 0.931 . S
N113 Tb84 2.617 . S
N113 C114 1.379 1_565 S
N113 C117 1.334 . S
C114 N113 1.379 1_545 S
C114 C116 1.416 . S
C114 C122 1.424 . S
C115 H110 0.930 . S
C115 C117 1.390 . S
C115 C118 1.339 1_565 S
C116 C114 1.416 . S
C116 C118 1.416 . S
C116 C149 1.448 . S
C117 H102 0.930 . S
C117 N113 1.334 . S
C117 C115 1.390 . S
C118 C115 1.339 1_545 S
C118 C116 1.416 . S
C118 H125 0.930 . S
N119 Tb84 2.572 1_544 S
N119 C120 1.340 . S
N119 C122 1.361 1_554 S
C120 H106 0.930 . S
C120 N119 1.340 . S
C120 C124 1.407 . S
C121 C122 1.413 1_554 S
C121 C123 1.416 . S
C121 C150 1.427 1_554 S
C122 C114 1.424 . S
C122 N119 1.361 1_556 S
C122 C121 1.413 1_556 S
C123 H112 0.931 . S
C123 C121 1.416 . S
C123 C124 1.332 . S
C124 H103 0.929 . S
C124 C120 1.407 . S
C124 C123 1.332 . S
H125 C118 0.930 . S
H126 C149 0.930 . S
H127 C150 0.929 . S
O128 Tb84 2.465 1_554 S
O128 C148 1.264 1_554 S
O129 Tb84 2.387 1_545 S
O129 C140 1.264 1_556 S
O130 Tb95 2.349 . S
O130 C140 1.243 . S
O131 Tb84 2.428 . S
O131 C148 1.256 . S
O132 Tb84 2.308 1_544 S
O132 C147 1.266 . S
O133 Tb95 2.393 . S
O133 C147 1.248 . S
O134 Tb95 2.465 1_556 S
O134 C159 1.264 1_556 S
O135 Tb95 2.387 1_565 S
O135 C151 1.264 1_554 S
O136 Tb84 2.349 . S
O136 C151 1.243 . S
O137 Tb95 2.428 . S
O137 C159 1.256 . S
O138 Tb95 2.308 1_566 S
O138 C158 1.264 . S
O139 Tb84 2.393 . S
O139 C158 1.248 . S
C140 O129 1.264 1_554 S
C140 O130 1.243 . S
C141 C144 1.399 . S
C141 C146 1.383 1_556 S
C141 C148 1.496 . S
C142 C143 1.399 1_554 S
C142 C146 1.389 . S
C143 C142 1.399 1_556 S
C143 C145 1.380 . S
C143 H160 0.929 . S
C144 C141 1.399 . S
C144 C145 1.392 . S
C144 H161 0.929 . S
C145 C143 1.380 . S
C145 C144 1.392 . S
C145 H162 0.929 . S
C146 C141 1.383 1_554 S
C146 C142 1.389 . S
C146 H163 0.931 . S
C147 O132 1.266 . S
C147 O133 1.248 . S
C148 Tb84 2.802 . S
C148 O128 1.264 1_556 S
C148 O131 1.256 . S
C148 C141 1.496 . S
C149 C116 1.448 . S
C149 H126 0.930 . S
C149 C150 1.328 . S
C150 C121 1.427 1_556 S
C150 H127 0.929 . S
C150 C149 1.328 . S
C151 O135 1.264 1_556 S
C151 O136 1.243 . S
C152 C155 1.399 . S
C152 C156 1.383 1_554 S
C152 C159 1.496 . S
C153 C154 1.399 1_556 S
C153 C156 1.389 . S
C154 C153 1.399 1_554 S
C154 C157 1.380 . S
C154 H164 0.929 . S
C155 C152 1.399 . S
C155 C157 1.392 . S
C155 H165 0.929 . S
C156 C152 1.383 1_556 S
C156 C153 1.389 . S
C156 H166 0.931 . S
C157 C154 1.380 . S
C157 C155 1.392 . S
C157 H167 0.929 . S
C158 O138 1.264 . S
C158 O139 1.248 . S
C159 Tb95 2.802 . S
C159 O134 1.264 1_554 S
C159 O137 1.256 . S
C159 C152 1.496 . S
H160 C143 0.929 . S
H161 C144 0.929 . S
H162 C145 0.929 . S
H163 C146 0.931 . S
H164 C154 0.929 . S
H165 C155 0.929 . S
H166 C156 0.931 . S
H167 C157 0.929 . S
Tb168 N197 2.617 . S
Tb168 N203 2.572 . S
Tb168 O212 2.465 1_556 S
Tb168 O213 2.387 . S
Tb168 O215 2.428 . S
Tb168 O216 2.308 1_556 S
Tb168 O220 2.349 . S
Tb168 O223 2.393 . S
Tb168 C232 2.802 . S
C169 N170 1.379 . S
C169 C172 1.416 . S
C169 C176 1.424 . S
N170 C169 1.379 . S
N170 C173 1.334 . S
N170 Tb179 2.617 . S
C171 C173 1.390 . S
C171 C174 1.339 . S
C171 H191 0.930 . S
C172 C169 1.416 . S
C172 C174 1.416 . S
C172 C178 1.448 . S
C173 N170 1.334 . S
C173 C171 1.390 . S
C173 H184 0.930 . S
C174 C171 1.339 . S
C174 C172 1.416 . S
C174 H195 0.930 . S
C175 C176 1.413 . S
C175 C177 1.427 . S
C175 C181 1.415 1_554 S
C176 C169 1.424 . S
C176 C175 1.413 . S
C176 N180 1.361 . S
C177 C175 1.427 . S
C177 C178 1.328 . S
C177 H192 0.929 . S
C178 C172 1.448 . S
C178 C177 1.328 . S
C178 H193 0.930 . S
Tb179 N170 2.617 . S
Tb179 N180 2.572 . S
Tb179 O214 2.349 . S
Tb179 O217 2.393 . S
Tb179 O218 2.465 1_554 S
Tb179 O219 2.387 . S
Tb179 O221 2.428 . S
Tb179 O222 2.308 1_554 S
Tb179 C243 2.802 . S
N180 C176 1.361 . S
N180 Tb179 2.572 . S
N180 C182 1.340 1_554 S
C181 C175 1.415 1_556 S
C181 C183 1.333 . S
C181 H189 0.931 . S
C182 N180 1.340 1_556 S
C182 C183 1.407 . S
C182 H188 0.930 . S
C183 C181 1.333 . S
C183 C182 1.407 . S
C183 H185 0.929 . S
H184 C173 0.930 . S
H185 C183 0.929 . S
H186 C201 0.930 . S
H187 C208 0.929 . S
H188 C182 0.930 . S
H189 C181 0.931 . S
H190 C204 0.930 . S
H191 C171 0.930 . S
H192 C177 0.929 . S
H193 C178 0.930 . S
H194 C199 0.930 . S
H195 C174 0.930 . S
H196 C207 0.931 . S
N197 Tb168 2.617 . S
N197 C198 1.379 . S
N197 C201 1.334 . S
C198 N197 1.379 . S
C198 C200 1.416 . S
C198 C206 1.424 . S
C199 H194 0.930 . S
C199 C201 1.390 . S
C199 C202 1.339 . S
C200 C198 1.416 . S
C200 C202 1.416 . S
C200 C233 1.448 . S
C201 H186 0.930 . S
C201 N197 1.334 . S
C201 C199 1.390 . S
C202 C199 1.339 . S
C202 C200 1.416 . S
C202 H209 0.930 . S
N203 Tb168 2.572 . S
N203 C204 1.340 1_556 S
N203 C206 1.361 . S
C204 H190 0.930 . S
C204 N203 1.340 1_554 S
C204 C208 1.407 . S
C205 C206 1.413 . S
C205 C207 1.416 1_556 S
C205 C234 1.427 . S
C206 C198 1.424 . S
C206 N203 1.361 . S
C206 C205 1.413 . S
C207 H196 0.931 . S
C207 C205 1.416 1_554 S
C207 C208 1.332 . S
C208 H187 0.929 . S
C208 C204 1.407 . S
C208 C207 1.332 . S
H209 C202 0.930 . S
H210 C233 0.930 . S
H211 C234 0.929 . S
O212 Tb168 2.465 1_554 S
O212 C232 1.264 1_554 S
O213 Tb168 2.387 . S
O213 C224 1.264 . S
O214 Tb179 2.349 . S
O214 C224 1.243 1_554 S
O215 Tb168 2.428 . S
O215 C232 1.256 . S
O216 Tb168 2.308 1_554 S
O216 C231 1.266 . S
O217 Tb179 2.393 . S
O217 C231 1.248 . S
O218 Tb179 2.465 1_556 S
O218 C243 1.264 1_556 S
O219 Tb179 2.387 . S
O219 C235 1.264 . S
O220 Tb168 2.349 . S
O220 C235 1.243 1_556 S
O221 Tb179 2.428 . S
O221 C243 1.256 . S
O222 Tb179 2.308 1_556 S
O222 C242 1.266 . S
O223 Tb168 2.393 . S
O223 C242 1.248 . S
C224 O213 1.264 . S
C224 O214 1.243 1_556 S
C225 C228 1.399 . S
C225 C230 1.374 1_556 S
C225 C232 1.496 . S
C226 C227 1.399 . S
C226 C230 1.392 1_556 S
C227 C226 1.399 . S
C227 C229 1.380 . S
C227 H244 0.929 . S
C228 C225 1.399 . S
C228 C229 1.392 . S
C228 H245 0.929 . S
C229 C227 1.380 . S
C229 C228 1.392 . S
C229 H246 0.929 . S
C230 C225 1.374 1_554 S
C230 C226 1.392 1_554 S
C230 H247 0.938 . S
C231 O216 1.266 . S
C231 O217 1.248 . S
C232 Tb168 2.802 . S
C232 O212 1.264 1_556 S
C232 O215 1.256 . S
C232 C225 1.496 . S
C233 C200 1.448 . S
C233 H210 0.930 . S
C233 C234 1.328 . S
C234 C205 1.427 . S
C234 H211 0.929 . S
C234 C233 1.328 . S
C235 O219 1.264 . S
C235 O220 1.243 1_554 S
C236 C239 1.399 . S
C236 C240 1.388 . S
C236 C243 1.496 . S
C237 C238 1.399 . S
C237 C240 1.388 . S
C238 C237 1.399 . S
C238 C241 1.380 . S
C238 H248 0.929 . S
C239 C236 1.399 . S
C239 C241 1.392 . S
C239 H249 0.929 . S
C240 C236 1.388 . S
C240 C237 1.388 . S
C240 H250 0.927 1_554 S
C241 C238 1.380 . S
C241 C239 1.392 . S
C241 H251 0.929 . S
C242 O222 1.266 . S
C242 O223 1.248 . S
C243 Tb179 2.802 . S
C243 O218 1.264 1_554 S
C243 O221 1.256 . S
C243 C236 1.496 . S
H244 C227 0.929 . S
H245 C228 0.929 . S
H246 C229 0.929 . S
H247 C230 0.938 . S
H248 C238 0.929 . S
H249 C239 0.929 . S
H250 C240 0.927 1_556 S
H251 C241 0.929 . S
H252 C264 0.930 . S
H253 C266 0.930 . S
H254 C267 0.930 . S
H255 C271 0.959 . S
H256 C271 0.959 . S
H257 C271 0.961 . S
H258 C272 0.960 . S
H259 C272 0.961 . S
H260 C272 0.959 . S
H261 C275 0.929 . S
H262 C276 0.931 . S
H263 C278 0.930 . S
C264 H252 0.930 . S
C264 C265 1.399 . S
C264 C269 1.399 . S
C265 C264 1.399 . S
C265 C266 1.377 1_455 S
C266 H253 0.930 . S
C266 C265 1.377 1_655 S
C266 C267 1.388 . S
C267 H254 0.930 . S
C267 C266 1.388 . S
C267 C268 1.390 1_655 S
C268 C267 1.390 1_455 S
C268 C269 1.394 . S
C268 C274 1.465 . S
C269 C264 1.399 . S
C269 C268 1.394 . S
C269 C270 1.516 . S
C270 C269 1.516 . S
C270 C271 1.502 1_455 S
C270 C272 1.561 . S
C270 C273 1.526 . S
C271 H255 0.959 . S
C271 H256 0.959 . S
C271 H257 0.961 . S
C271 C270 1.502 1_655 S
C272 H258 0.960 . S
C272 H259 0.961 . S
C272 H260 0.959 . S
C272 C270 1.561 . S
C273 C270 1.526 . S
C273 C274 1.396 . S
C273 C278 1.390 . S
C274 C268 1.465 . S
C274 C273 1.396 . S
C274 C275 1.399 1_455 S
C275 H261 0.929 . S
C275 C274 1.399 1_655 S
C275 C276 1.385 . S
C276 H262 0.931 . S
C276 C275 1.385 . S
C276 C277 1.389 1_655 S
C277 C276 1.389 1_455 S
C277 C278 1.387 . S
C278 H263 0.930 . S
C278 C273 1.390 . S
C278 C277 1.387 . S
H279 C291 0.930 . S
H280 C293 0.930 . S
H281 C294 0.930 . S
H282 C298 0.959 . S
H283 C298 0.959 . S
H284 C298 0.961 . S
H285 C299 0.960 . S
H286 C299 0.961 . S
H287 C299 0.959 . S
H288 C302 0.929 . S
H289 C303 0.931 . S
H290 C305 0.930 . S
C291 H279 0.930 . S
C291 C292 1.399 . S
C291 C296 1.399 . S
C292 C291 1.399 . S
C292 C293 1.376 1_545 S
C293 H280 0.930 . S
C293 C292 1.376 1_565 S
C293 C294 1.388 . S
C294 H281 0.930 . S
C294 C293 1.388 . S
C294 C295 1.390 . S
C295 C294 1.390 . S
C295 C296 1.394 1_565 S
C295 C301 1.465 . S
C296 C291 1.399 . S
C296 C295 1.394 1_545 S
C296 C297 1.516 . S
C297 C296 1.516 . S
C297 C298 1.502 . S
C297 C299 1.561 . S
C297 C300 1.526 . S
C298 H282 0.959 . S
C298 H283 0.959 . S
C298 H284 0.961 . S
C298 C297 1.502 . S
C299 H285 0.960 . S
C299 H286 0.961 . S
C299 H287 0.959 . S
C299 C297 1.561 . S
C300 C297 1.526 . S
C300 C301 1.396 1_545 S
C300 C305 1.390 . S
C301 C295 1.465 . S
C301 C300 1.396 1_565 S
C301 C302 1.399 . S
C302 H288 0.929 . S
C302 C301 1.399 . S
C302 C303 1.385 . S
C303 H289 0.931 . S
C303 C302 1.385 . S
C303 C304 1.389 . S
C304 C303 1.389 . S
C304 C305 1.387 1_565 S
C305 H290 0.930 . S
C305 C300 1.390 . S
C305 C304 1.387 1_545 S
H306 C318 0.930 . S
H307 C320 0.930 . S
H308 C321 0.930 . S
H309 C325 0.959 . S
H310 C325 0.959 . S
H311 C325 0.961 . S
H312 C326 0.960 . S
H313 C326 0.961 . S
H314 C326 0.959 . S
H315 C329 0.929 . S
H316 C330 0.931 . S
H317 C332 0.930 . S
C318 H306 0.930 . S
C318 C319 1.399 . S
C318 C323 1.399 . S
C319 C318 1.399 . S
C319 C320 1.376 . S
C320 H307 0.930 . S
C320 C319 1.376 . S
C320 C321 1.388 . S
C321 H308 0.930 . S
C321 C320 1.388 . S
C321 C322 1.390 . S
C322 C321 1.390 . S
C322 C323 1.394 . S
C322 C328 1.465 . S
C323 C318 1.399 . S
C323 C322 1.394 . S
C323 C324 1.516 . S
C324 C323 1.516 . S
C324 C325 1.502 . S
C324 C326 1.561 . S
C324 C327 1.526 . S
C325 H309 0.959 . S
C325 H310 0.959 . S
C325 H311 0.961 . S
C325 C324 1.502 . S
C326 H312 0.960 . S
C326 H313 0.961 . S
C326 H314 0.959 . S
C326 C324 1.561 . S
C327 C324 1.526 . S
C327 C328 1.396 . S
C327 C332 1.390 . S
C328 C322 1.465 . S
C328 C327 1.396 . S
C328 C329 1.399 . S
C329 H315 0.929 . S
C329 C328 1.399 . S
C329 C330 1.385 . S
C330 H316 0.931 . S
C330 C329 1.385 . S
C330 C331 1.389 . S
C331 C330 1.389 . S
C331 C332 1.387 . S
C332 H317 0.930 . S
C332 C327 1.390 . S
C332 C331 1.387 . S
H333 C345 0.930 . S
H334 C347 0.930 . S
H335 C348 0.930 . S
H336 C352 0.959 . S
H337 C352 0.959 . S
H338 C352 0.961 . S
H339 C353 0.960 . S
H340 C353 0.961 . S
H341 C353 0.959 . S
H342 C356 0.929 . S
H343 C357 0.931 . S
H344 C359 0.930 . S
C345 H333 0.930 . S
C345 C346 1.399 . S
C345 C350 1.399 . S
C346 C345 1.399 . S
C346 C347 1.376 1_554 S
C347 H334 0.930 . S
C347 C346 1.376 1_556 S
C347 C348 1.388 . S
C348 H335 0.930 . S
C348 C347 1.388 . S
C348 C349 1.390 . S
C349 C348 1.390 . S
C349 C350 1.394 1_556 S
C349 C355 1.465 . S
C350 C345 1.399 . S
C350 C349 1.394 1_554 S
C350 C351 1.516 . S
C351 C350 1.516 . S
C351 C352 1.502 . S
C351 C353 1.561 . S
C351 C354 1.526 . S
C352 H336 0.959 . S
C352 H337 0.959 . S
C352 H338 0.961 . S
C352 C351 1.502 . S
C353 H339 0.960 . S
C353 H340 0.961 . S
C353 H341 0.959 . S
C353 C351 1.561 . S
C354 C351 1.526 . S
C354 C355 1.396 1_554 S
C354 C359 1.390 . S
C355 C349 1.465 . S
C355 C354 1.396 1_556 S
C355 C356 1.399 . S
C356 H342 0.929 . S
C356 C355 1.399 . S
C356 C357 1.385 . S
C357 H343 0.931 . S
C357 C356 1.385 . S
C357 C358 1.389 . S
C358 C357 1.389 . S
C358 C359 1.387 1_556 S
C359 H344 0.930 . S
C359 C354 1.390 . S
C359 C358 1.387 1_554 S
H360 C372 0.932 . S
H361 C374 0.930 . S
H362 C375 0.930 . S
H363 C379 0.959 1_556 S
H364 C379 0.959 . S
H365 C379 0.961 . S
H366 C380 0.960 . S
H367 C380 0.961 . S
H368 C380 0.959 . S
H369 C383 0.929 . S
H370 C384 0.931 . S
H371 C386 0.930 . S
C372 H360 0.932 . S
C372 C373 1.398 1_554 S
C372 C377 1.398 . S
C373 C372 1.398 1_556 S
C373 C374 1.376 . S
C374 H361 0.930 . S
C374 C373 1.376 . S
C374 C375 1.388 . S
C375 H362 0.930 . S
C375 C374 1.388 . S
C375 C376 1.390 . S
C376 C375 1.390 . S
C376 C377 1.394 1_556 S
C376 C382 1.465 . S
C377 C372 1.398 . S
C377 C376 1.394 1_554 S
C377 C378 1.516 . S
C378 C377 1.516 . S
C378 C379 1.502 . S
C378 C380 1.561 . S
C378 C381 1.526 . S
C379 H363 0.959 1_554 S
C379 H364 0.959 . S
C379 H365 0.961 . S
C379 C378 1.502 . S
C380 H366 0.960 . S
C380 H367 0.961 . S
C380 H368 0.959 . S
C380 C378 1.561 . S
C381 C378 1.526 . S
C381 C382 1.396 1_554 S
C381 C386 1.390 . S
C382 C376 1.465 . S
C382 C381 1.396 1_556 S
C382 C383 1.399 . S
C383 H369 0.929 . S
C383 C382 1.399 . S
C383 C384 1.385 . S
C384 H370 0.931 . S
C384 C383 1.385 . S
C384 C385 1.389 1_556 S
C385 C384 1.389 1_554 S
C385 C386 1.387 . S
C386 H371 0.930 . S
C386 C381 1.390 . S
C386 C385 1.387 . S
H387 C399 0.930 . S
H388 C401 0.930 . S
H389 C402 0.930 . S
H390 C406 0.959 . S
H391 C406 0.959 . S
H392 C406 0.961 . S
H393 C407 0.960 . S
H394 C407 0.961 . S
H395 C407 0.959 . S
H396 C410 0.929 . S
H397 C411 0.931 . S
H398 C413 0.930 . S
C399 H387 0.930 . S
C399 C400 1.399 . S
C399 C404 1.399 . S
C400 C399 1.399 . S
C400 C401 1.376 1_556 S
C401 H388 0.930 . S
C401 C400 1.376 1_554 S
C401 C402 1.388 . S
C402 H389 0.930 . S
C402 C401 1.388 . S
C402 C403 1.390 1_554 S
C403 C402 1.390 1_556 S
C403 C404 1.394 . S
C403 C409 1.464 1_556 S
C404 C399 1.399 . S
C404 C403 1.394 . S
C404 C405 1.516 . S
C405 C404 1.516 . S
C405 C406 1.502 . S
C405 C407 1.561 . S
C405 C408 1.526 . S
C406 H390 0.959 . S
C406 H391 0.959 . S
C406 H392 0.961 . S
C406 C405 1.502 . S
C407 H393 0.960 . S
C407 H394 0.961 . S
C407 H395 0.959 . S
C407 C405 1.561 . S
C408 C405 1.526 . S
C408 C409 1.395 1_556 S
C408 C413 1.390 . S
C409 C403 1.464 1_554 S
C409 C408 1.395 1_554 S
C409 C410 1.400 . S
C410 H396 0.929 . S
C410 C409 1.400 . S
C410 C411 1.385 . S
C411 H397 0.931 . S
C411 C410 1.385 . S
C411 C412 1.389 1_554 S
C412 C411 1.389 1_556 S
C412 C413 1.387 . S
C413 H398 0.930 . S
C413 C408 1.390 . S
C413 C412 1.387 . S
H414 C426 0.930 . S
H415 C428 0.930 . S
H416 C429 0.930 . S
H417 C433 0.959 . S
H418 C433 0.959 . S
H419 C433 0.961 . S
H420 C434 0.960 . S
H421 C434 0.961 . S
H422 C434 0.959 1_556 S
H423 C437 0.929 . S
H424 C438 0.931 . S
H425 C440 0.930 . S
C426 H414 0.930 . S
C426 C427 1.399 1_554 S
C426 C431 1.399 . S
C427 C426 1.399 1_556 S
C427 C428 1.376 . S
C428 H415 0.930 . S
C428 C427 1.376 . S
C428 C429 1.388 . S
C429 H416 0.930 . S
C429 C428 1.388 . S
C429 C430 1.390 . S
C430 C429 1.390 . S
C430 C431 1.394 1_556 S
C430 C436 1.465 . S
C431 C426 1.399 . S
C431 C430 1.394 1_554 S
C431 C432 1.516 . S
C432 C431 1.516 . S
C432 C433 1.502 . S
C432 C434 1.561 . S
C432 C435 1.526 . S
C433 H417 0.959 . S
C433 H418 0.959 . S
C433 H419 0.961 . S
C433 C432 1.502 . S
C434 H420 0.960 . S
C434 H421 0.961 . S
C434 H422 0.959 1_554 S
C434 C432 1.561 . S
C435 C432 1.526 . S
C435 C436 1.396 1_554 S
C435 C440 1.390 . S
C436 C430 1.465 . S
C436 C435 1.396 1_556 S
C436 C437 1.399 . S
C437 H423 0.929 . S
C437 C436 1.399 . S
C437 C438 1.385 . S
C438 H424 0.931 . S
C438 C437 1.385 . S
C438 C439 1.389 . S
C439 C438 1.389 . S
C439 C440 1.387 1_556 S
C440 H425 0.930 . S
C440 C435 1.390 . S
C440 C439 1.387 1_554 S
H441 C453 0.930 . S
H442 C455 0.930 . S
H443 C456 0.930 . S
H444 C460 0.959 . S
H445 C460 0.959 . S
H446 C460 0.961 . S
H447 C461 0.960 . S
H448 C461 0.961 . S
H449 C461 0.959 . S
H450 C464 0.929 . S
H451 C465 0.931 . S
H452 C467 0.930 . S
C453 H441 0.930 . S
C453 C454 1.399 . S
C453 C458 1.399 . S
C454 C453 1.399 . S
C454 C455 1.376 1_556 S
C455 H442 0.930 . S
C455 C454 1.376 1_554 S
C455 C456 1.388 . S
C456 H443 0.930 . S
C456 C455 1.388 . S
C456 C457 1.390 . S
C457 C456 1.390 . S
C457 C458 1.394 1_554 S
C457 C463 1.465 . S
C458 C453 1.399 . S
C458 C457 1.394 1_556 S
C458 C459 1.516 . S
C459 C458 1.516 . S
C459 C460 1.502 . S
C459 C461 1.561 . S
C459 C462 1.526 . S
C460 H444 0.959 . S
C460 H445 0.959 . S
C460 H446 0.961 . S
C460 C459 1.502 . S
C461 H447 0.960 . S
C461 H448 0.961 . S
C461 H449 0.959 . S
C461 C459 1.561 . S
C462 C459 1.526 . S
C462 C463 1.396 1_556 S
C462 C467 1.390 . S
C463 C457 1.465 . S
C463 C462 1.396 1_554 S
C463 C464 1.399 . S
C464 H450 0.929 . S
C464 C463 1.399 . S
C464 C465 1.385 . S
C465 H451 0.931 . S
C465 C464 1.385 . S
C465 C466 1.389 . S
C466 C465 1.389 . S
C466 C467 1.387 1_554 S
C467 H452 0.930 . S
C467 C462 1.390 . S
C467 C466 1.387 1_556 S
H468 C480 0.930 . S
H469 C482 0.930 . S
H470 C483 0.930 . S
H471 C487 0.959 . S
H472 C487 0.959 . S
H473 C487 0.961 . S
H474 C488 0.960 . S
H475 C488 0.961 . S
H476 C488 0.959 . S
H477 C491 0.929 . S
H478 C492 0.931 . S
H479 C494 0.930 . S
C480 H468 0.930 . S
C480 C481 1.399 1_556 S
C480 C485 1.399 . S
C481 C480 1.399 1_554 S
C481 C482 1.376 . S
C482 H469 0.930 . S
C482 C481 1.376 . S
C482 C483 1.388 . S
C483 H470 0.930 . S
C483 C482 1.388 . S
C483 C484 1.390 . S
C484 C483 1.390 . S
C484 C485 1.394 1_554 S
C484 C490 1.465 . S
C485 C480 1.399 . S
C485 C484 1.394 1_556 S
C485 C486 1.516 . S
C486 C485 1.516 . S
C486 C487 1.502 . S
C486 C488 1.561 . S
C486 C489 1.526 . S
C487 H471 0.959 . S
C487 H472 0.959 . S
C487 H473 0.961 . S
C487 C486 1.502 . S
C488 H474 0.960 . S
C488 H475 0.961 . S
C488 H476 0.959 . S
C488 C486 1.561 . S
C489 C486 1.526 . S
C489 C490 1.396 1_556 S
C489 C494 1.390 . S
C490 C484 1.465 . S
C490 C489 1.396 1_554 S
C490 C491 1.399 . S
C491 H477 0.929 . S
C491 C490 1.399 . S
C491 C492 1.385 . S
C492 H478 0.931 . S
C492 C491 1.385 . S
C492 C493 1.389 . S
C493 C492 1.389 . S
C493 C494 1.387 1_554 S
C494 H479 0.930 . S
C494 C489 1.390 . S
C494 C493 1.387 1_556 S
C265 C63 1.465 1_455 S
C277 C74 1.496 . S
C292 C147 1.538 . S
C304 C158 1.497 . S
C319 C242 1.459 . S
C331 C231 1.490 . S
C346 C67 2.295 . S
C358 C224 2.306 . S
C373 C153 0.817 . S
C385 C69 0.718 1_554 S
C400 C151 1.624 . S
C412 C237 1.434 1_556 S
C427 C56 2.304 . S
C439 C235 2.319 1_556 S
C454 C58 0.707 1_556 S
C466 C142 0.882 . S
C481 C226 1.535 1_554 S
C493 C140 1.619 . S
