# Generated by pormake.
# Topology bcu-k, (6)-cn, num edge types: 1
# Building blocks:
#     Node 0, Type 0, BuildingBlock: MIDCAF_clean_sbu_0, # of connection points: 6
#     Node 1, Type 0, BuildingBlock: MIDCAF_clean_sbu_0, # of connection points: 6
#     Node 2, Type 0, BuildingBlock: MIDCAF_clean_sbu_0, # of connection points: 6
#     Node 3, Type 0, BuildingBlock: MIDCAF_clean_sbu_0, # of connection points: 6
#     Node 4, Type 0, BuildingBlock: MIDCAF_clean_sbu_0, # of connection points: 6
#     Node 5, Type 0, BuildingBlock: MIDCAF_clean_sbu_0, # of connection points: 6
#     Node 6, Type 0, BuildingBlock: MIDCAF_clean_sbu_0, # of connection points: 6
#     Node 7, Type 0, BuildingBlock: MIDCAF_clean_sbu_0, # of connection points: 6
#     Node 8, Type 0, BuildingBlock: MIDCAF_clean_sbu_0, # of connection points: 6
#     Node 9, Type 0, BuildingBlock: MIDCAF_clean_sbu_0, # of connection points: 6
#     Node 10, Type 0, BuildingBlock: MIDCAF_clean_sbu_0, # of connection points: 6
#     Node 11, Type 0, BuildingBlock: MIDCAF_clean_sbu_0, # of connection points: 6
#     Node 12, Type 0, BuildingBlock: MIDCAF_clean_sbu_0, # of connection points: 6
#     Node 13, Type 0, BuildingBlock: MIDCAF_clean_sbu_0, # of connection points: 6
#     Node 14, Type 0, BuildingBlock: MIDCAF_clean_sbu_0, # of connection points: 6
#     Node 15, Type 0, BuildingBlock: MIDCAF_clean_sbu_0, # of connection points: 6
#     Node 16, Type 0, BuildingBlock: MIDCAF_clean_sbu_0, # of connection points: 6
#     Node 17, Type 0, BuildingBlock: MIDCAF_clean_sbu_0, # of connection points: 6
#     Node 18, Type 0, BuildingBlock: MIDCAF_clean_sbu_0, # of connection points: 6
#     Node 19, Type 0, BuildingBlock: MIDCAF_clean_sbu_0, # of connection points: 6
#     Node 20, Type 0, BuildingBlock: MIDCAF_clean_sbu_0, # of connection points: 6
#     Node 21, Type 0, BuildingBlock: MIDCAF_clean_sbu_0, # of connection points: 6
#     Node 22, Type 0, BuildingBlock: MIDCAF_clean_sbu_0, # of connection points: 6
#     Node 23, Type 0, BuildingBlock: MIDCAF_clean_sbu_0, # of connection points: 6
#     Node 24, Type 0, BuildingBlock: MIDCAF_clean_sbu_0, # of connection points: 6
#     Node 25, Type 0, BuildingBlock: MIDCAF_clean_sbu_0, # of connection points: 6
#     Node 26, Type 0, BuildingBlock: MIDCAF_clean_sbu_0, # of connection points: 6
#     Node 27, Type 0, BuildingBlock: MIDCAF_clean_sbu_0, # of connection points: 6
#     Node 28, Type 0, BuildingBlock: MIDCAF_clean_sbu_0, # of connection points: 6
#     Node 29, Type 0, BuildingBlock: MIDCAF_clean_sbu_0, # of connection points: 6
#     Node 30, Type 0, BuildingBlock: MIDCAF_clean_sbu_0, # of connection points: 6
#     Node 31, Type 0, BuildingBlock: MIDCAF_clean_sbu_0, # of connection points: 6
#     Node 32, Type 0, BuildingBlock: MIDCAF_clean_sbu_0, # of connection points: 6
#     Node 33, Type 0, BuildingBlock: MIDCAF_clean_sbu_0, # of connection points: 6
#     Node 34, Type 0, BuildingBlock: MIDCAF_clean_sbu_0, # of connection points: 6
#     Node 35, Type 0, BuildingBlock: MIDCAF_clean_sbu_0, # of connection points: 6
#     Node 36, Type 0, BuildingBlock: MIDCAF_clean_sbu_0, # of connection points: 6
#     Node 37, Type 0, BuildingBlock: MIDCAF_clean_sbu_0, # of connection points: 6
#     Node 38, Type 0, BuildingBlock: MIDCAF_clean_sbu_0, # of connection points: 6
#     Node 39, Type 0, BuildingBlock: MIDCAF_clean_sbu_0, # of connection points: 6
#     Node 40, Type 0, BuildingBlock: MIDCAF_clean_sbu_0, # of connection points: 6
#     Node 41, Type 0, BuildingBlock: MIDCAF_clean_sbu_0, # of connection points: 6
#     Node 42, Type 0, BuildingBlock: MIDCAF_clean_sbu_0, # of connection points: 6
#     Node 43, Type 0, BuildingBlock: MIDCAF_clean_sbu_0, # of connection points: 6
#     Node 44, Type 0, BuildingBlock: MIDCAF_clean_sbu_0, # of connection points: 6
#     Node 45, Type 0, BuildingBlock: MIDCAF_clean_sbu_0, # of connection points: 6
#     Node 46, Type 0, BuildingBlock: MIDCAF_clean_sbu_0, # of connection points: 6
#     Node 47, Type 0, BuildingBlock: MIDCAF_clean_sbu_0, # of connection points: 6
#     Edge 48, Type (0, 0), None
#     Edge 49, Type (0, 0), None
#     Edge 50, Type (0, 0), None
#     Edge 51, Type (0, 0), None
#     Edge 52, Type (0, 0), None
#     Edge 53, Type (0, 0), None
#     Edge 54, Type (0, 0), None
#     Edge 55, Type (0, 0), None
#     Edge 56, Type (0, 0), None
#     Edge 57, Type (0, 0), None
#     Edge 58, Type (0, 0), None
#     Edge 59, Type (0, 0), None
#     Edge 60, Type (0, 0), None
#     Edge 61, Type (0, 0), None
#     Edge 62, Type (0, 0), None
#     Edge 63, Type (0, 0), None
#     Edge 64, Type (0, 0), None
#     Edge 65, Type (0, 0), None
#     Edge 66, Type (0, 0), None
#     Edge 67, Type (0, 0), None
#     Edge 68, Type (0, 0), None
#     Edge 69, Type (0, 0), None
#     Edge 70, Type (0, 0), None
#     Edge 71, Type (0, 0), None
#     Edge 72, Type (0, 0), None
#     Edge 73, Type (0, 0), None
#     Edge 74, Type (0, 0), None
#     Edge 75, Type (0, 0), None
#     Edge 76, Type (0, 0), None
#     Edge 77, Type (0, 0), None
#     Edge 78, Type (0, 0), None
#     Edge 79, Type (0, 0), None
#     Edge 80, Type (0, 0), None
#     Edge 81, Type (0, 0), None
#     Edge 82, Type (0, 0), None
#     Edge 83, Type (0, 0), None
#     Edge 84, Type (0, 0), None
#     Edge 85, Type (0, 0), None
#     Edge 86, Type (0, 0), None
#     Edge 87, Type (0, 0), None
#     Edge 88, Type (0, 0), None
#     Edge 89, Type (0, 0), None
#     Edge 90, Type (0, 0), None
#     Edge 91, Type (0, 0), None
#     Edge 92, Type (0, 0), None
#     Edge 93, Type (0, 0), None
#     Edge 94, Type (0, 0), None
#     Edge 95, Type (0, 0), None
#     Edge 96, Type (0, 0), None
#     Edge 97, Type (0, 0), None
#     Edge 98, Type (0, 0), None
#     Edge 99, Type (0, 0), None
#     Edge 100, Type (0, 0), None
#     Edge 101, Type (0, 0), None
#     Edge 102, Type (0, 0), None
#     Edge 103, Type (0, 0), None
#     Edge 104, Type (0, 0), None
#     Edge 105, Type (0, 0), None
#     Edge 106, Type (0, 0), None
#     Edge 107, Type (0, 0), None
#     Edge 108, Type (0, 0), None
#     Edge 109, Type (0, 0), None
#     Edge 110, Type (0, 0), None
#     Edge 111, Type (0, 0), None
#     Edge 112, Type (0, 0), None
#     Edge 113, Type (0, 0), None
#     Edge 114, Type (0, 0), None
#     Edge 115, Type (0, 0), None
#     Edge 116, Type (0, 0), None
#     Edge 117, Type (0, 0), None
#     Edge 118, Type (0, 0), None
#     Edge 119, Type (0, 0), None
#     Edge 120, Type (0, 0), None
#     Edge 121, Type (0, 0), None
#     Edge 122, Type (0, 0), None
#     Edge 123, Type (0, 0), None
#     Edge 124, Type (0, 0), None
#     Edge 125, Type (0, 0), None
#     Edge 126, Type (0, 0), None
#     Edge 127, Type (0, 0), None
#     Edge 128, Type (0, 0), None
#     Edge 129, Type (0, 0), None
#     Edge 130, Type (0, 0), None
#     Edge 131, Type (0, 0), None
#     Edge 132, Type (0, 0), None
#     Edge 133, Type (0, 0), None
#     Edge 134, Type (0, 0), None
#     Edge 135, Type (0, 0), None
#     Edge 136, Type (0, 0), None
#     Edge 137, Type (0, 0), None
#     Edge 138, Type (0, 0), None
#     Edge 139, Type (0, 0), None
#     Edge 140, Type (0, 0), None
#     Edge 141, Type (0, 0), None
#     Edge 142, Type (0, 0), None
#     Edge 143, Type (0, 0), None
#     Edge 144, Type (0, 0), None
#     Edge 145, Type (0, 0), None
#     Edge 146, Type (0, 0), None
#     Edge 147, Type (0, 0), None
#     Edge 148, Type (0, 0), None
#     Edge 149, Type (0, 0), None
#     Edge 150, Type (0, 0), None
#     Edge 151, Type (0, 0), None
#     Edge 152, Type (0, 0), None
#     Edge 153, Type (0, 0), None
#     Edge 154, Type (0, 0), None
#     Edge 155, Type (0, 0), None
#     Edge 156, Type (0, 0), None
#     Edge 157, Type (0, 0), None
#     Edge 158, Type (0, 0), None
#     Edge 159, Type (0, 0), None
#     Edge 160, Type (0, 0), None
#     Edge 161, Type (0, 0), None
#     Edge 162, Type (0, 0), None
#     Edge 163, Type (0, 0), None
#     Edge 164, Type (0, 0), None
#     Edge 165, Type (0, 0), None
#     Edge 166, Type (0, 0), None
#     Edge 167, Type (0, 0), None
#     Edge 168, Type (0, 0), None
#     Edge 169, Type (0, 0), None
#     Edge 170, Type (0, 0), None
#     Edge 171, Type (0, 0), None
#     Edge 172, Type (0, 0), None
#     Edge 173, Type (0, 0), None
#     Edge 174, Type (0, 0), None
#     Edge 175, Type (0, 0), None
#     Edge 176, Type (0, 0), None
#     Edge 177, Type (0, 0), None
#     Edge 178, Type (0, 0), None
#     Edge 179, Type (0, 0), None
#     Edge 180, Type (0, 0), None
#     Edge 181, Type (0, 0), None
#     Edge 182, Type (0, 0), None
#     Edge 183, Type (0, 0), None
#     Edge 184, Type (0, 0), None
#     Edge 185, Type (0, 0), None
#     Edge 186, Type (0, 0), None
#     Edge 187, Type (0, 0), None
#     Edge 188, Type (0, 0), None
#     Edge 189, Type (0, 0), None
#     Edge 190, Type (0, 0), None
#     Edge 191, Type (0, 0), None
# Relax obj value: 0.623
# Max RMSD: 0.277
# Mean RMSD: 0.277
data_MOF--net-bcu-k--node1-MIDCAF_clean_sbu_0--edge1-none
_symmetry_space_group_name_H-M    P1
_symmetry_Int_Tables_number       1
_symmetry_cell_setting            triclinic
loop_
_symmetry_equiv_pos_as_xyz
'x, y, z'
_cell_length_a     28.003403
_cell_length_b     28.00339
_cell_length_c     28.003111
_cell_angle_alpha  90.000691
_cell_angle_beta   90.000515
_cell_angle_gamma 90.002757
loop_
_atom_site_label
_atom_site_type_symbol
_atom_site_fract_x
_atom_site_fract_y
_atom_site_fract_z
_atom_type_partial_charge
Zn0 Zn 0.15017 0.01774 0.26174 0.0
Zn1 Zn -0.00613 0.16559 0.25744 0.0
Zn2 Zn 0.08471 0.09685 0.26389 0.0
C3 C 0.0453 0.16104 0.17079 0.0
C4 C 0.08245 0.19281 0.31802 0.0
O5 O 0.06051 0.02291 0.28501 0.0
O6 O 0.12062 -0.0088 0.3222 0.0
C7 C 0.12161 0.05268 0.1772 0.0
O8 O 0.07306 0.1304 0.19127 0.0
O9 O 0.01119 0.18077 0.19289 0.0
O10 O 0.04072 0.20038 0.30207 0.0
O11 O 0.10539 0.15408 0.3091 0.0
O12 O 0.10563 0.01981 0.20297 0.0
O13 O 0.11003 0.09459 0.19043 0.0
O14 O 0.14886 0.1195 0.30223 0.0
O15 O 0.2013 0.0684 0.27127 0.0
C16 C 0.19233 0.10599 0.29481 0.0
O17 O 0.02247 0.06352 0.30006 0.0
O18 O -0.01233 0.09561 0.2414 0.0
C19 C 0.07908 -0.01377 0.30547 0.0
C20 C -0.01671 0.07206 0.27893 0.0
Zn21 Zn 0.90703 0.15017 0.26163 0.0
Zn22 Zn 0.75929 -0.00621 0.2573 0.0
Zn23 Zn 0.82791 0.08464 0.26378 0.0
C24 C 0.76377 0.04515 0.17065 0.0
C25 C 0.73197 0.08235 0.31788 0.0
O26 O 0.90183 0.06049 0.28497 0.0
O27 O 0.9335 0.1207 0.32215 0.0
C28 C 0.8721 0.1215 0.1771 0.0
O29 O 0.79438 0.07294 0.19114 0.0
O30 O 0.74406 0.01103 0.19276 0.0
O31 O 0.72444 0.0406 0.30194 0.0
O32 O 0.77068 0.10533 0.30895 0.0
O33 O 0.90496 0.10555 0.20291 0.0
O34 O 0.83019 0.10991 0.19031 0.0
O35 O 0.80526 0.14882 0.30208 0.0
O36 O 0.85634 0.20127 0.2711 0.0
C37 C 0.81877 0.19229 0.29467 0.0
O38 O 0.86119 0.02242 0.30005 0.0
O39 O 0.82929 -0.01242 0.24132 0.0
C40 C 0.93844 0.07914 0.30549 0.0
C41 C 0.85273 -0.01678 0.27892 0.0
Zn42 Zn 0.77441 0.90697 0.26175 0.0
Zn43 Zn 0.93075 0.7591 0.2574 0.0
Zn44 Zn 0.83991 0.82781 0.26387 0.0
C45 C 0.87933 0.76364 0.17075 0.0
C46 C 0.84218 0.73185 0.31799 0.0
O47 O 0.86409 0.90174 0.28502 0.0
O48 O 0.80395 0.93357 0.32218 0.0
C49 C 0.80299 0.87199 0.1772 0.0
O50 O 0.85156 0.79427 0.19124 0.0
O51 O 0.91343 0.74391 0.19286 0.0
O52 O 0.88392 0.72429 0.30204 0.0
O53 O 0.81922 0.77057 0.30906 0.0
O54 O 0.81896 0.90486 0.20299 0.0
O55 O 0.81459 0.83008 0.19041 0.0
O56 O 0.77575 0.80515 0.30219 0.0
O57 O 0.72331 0.85628 0.2713 0.0
C58 C 0.73229 0.81867 0.2948 0.0
O59 O 0.90215 0.86113 0.30006 0.0
O60 O 0.93696 0.82909 0.24138 0.0
C61 C 0.84553 0.93841 0.30552 0.0
C62 C 0.94133 0.85261 0.27892 0.0
Zn63 Zn 0.0176 0.77449 0.26163 0.0
Zn64 Zn 0.16541 0.93087 0.25733 0.0
Zn65 Zn 0.09671 0.84 0.2638 0.0
C66 C 0.16088 0.87949 0.17068 0.0
C67 C 0.19267 0.84228 0.3179 0.0
O68 O 0.02279 0.86417 0.28498 0.0
O69 O -0.00889 0.80396 0.32215 0.0
C70 C 0.05253 0.80315 0.17711 0.0
O71 O 0.13026 0.8517 0.19117 0.0
O72 O 0.18059 0.9136 0.19278 0.0
O73 O 0.20022 0.88402 0.30196 0.0
O74 O 0.15395 0.81931 0.30898 0.0
O75 O 0.01967 0.81911 0.20291 0.0
O76 O 0.09444 0.81473 0.19032 0.0
O77 O 0.11935 0.77582 0.30211 0.0
O78 O 0.06827 0.72338 0.27111 0.0
C79 C 0.10584 0.73236 0.29468 0.0
O80 O 0.06342 0.90222 0.30004 0.0
O81 O 0.09542 0.93707 0.24131 0.0
C82 C -0.01383 0.84553 0.30549 0.0
C83 C 0.07196 0.9414 0.2789 0.0
Zn84 Zn -0.00614 0.75907 0.66722 0.0
Zn85 Zn 0.15018 0.90691 0.66292 0.0
Zn86 Zn 0.08471 0.8278 0.66077 0.0
C87 C 0.19233 0.81866 0.62985 0.0
C88 C 0.12161 0.87197 0.74745 0.0
O89 O 0.02247 0.86112 0.62458 0.0
O90 O -0.01234 0.82905 0.68325 0.0
C91 C 0.08244 0.73184 0.60664 0.0
O92 O 0.14886 0.80514 0.62244 0.0
O93 O 0.2013 0.85625 0.65339 0.0
O94 O 0.10563 0.90484 0.72168 0.0
O95 O 0.11004 0.83006 0.73422 0.0
O96 O 0.0407 0.72427 0.62259 0.0
O97 O 0.10539 0.77056 0.61556 0.0
O98 O 0.07305 0.79425 0.73338 0.0
O99 O 0.01117 0.74389 0.73177 0.0
C100 C 0.04528 0.76362 0.75387 0.0
O101 O 0.06052 0.90173 0.63965 0.0
O102 O 0.12062 0.93345 0.60246 0.0
C103 C -0.01672 0.85259 0.64572 0.0
C104 C 0.07909 0.93841 0.61918 0.0
Zn105 Zn 0.01767 0.15013 0.66304 0.0
Zn106 Zn 0.16542 -0.00623 0.66736 0.0
Zn107 Zn 0.09673 0.08465 0.66087 0.0
C108 C 0.16089 0.04517 0.75401 0.0
C109 C 0.19269 0.08235 0.60677 0.0
O110 O 0.02281 0.06047 0.63971 0.0
O111 O -0.00874 0.12064 0.6025 0.0
C112 C 0.05255 0.1215 0.74757 0.0
O113 O 0.13028 0.07296 0.73351 0.0
O114 O 0.1806 0.01105 0.7319 0.0
O115 O 0.20023 0.04061 0.62272 0.0
O116 O 0.15397 0.10532 0.61569 0.0
O117 O 0.01969 0.10554 0.72178 0.0
O118 O 0.09446 0.10993 0.73434 0.0
O119 O 0.11939 0.14881 0.62255 0.0
O120 O 0.06834 0.20126 0.65359 0.0
C121 C 0.10589 0.19228 0.62999 0.0
O122 O 0.06344 0.02242 0.62462 0.0
O123 O 0.09543 -0.01243 0.68336 0.0
C124 C -0.01381 0.07912 0.61922 0.0
C125 C 0.07197 -0.01676 0.64576 0.0
Zn126 Zn 0.9308 0.16563 0.66721 0.0
Zn127 Zn 0.77447 0.01772 0.66291 0.0
Zn128 Zn 0.83993 0.09683 0.66077 0.0
C129 C 0.73232 0.10597 0.62984 0.0
C130 C 0.80304 0.05267 0.74745 0.0
O131 O 0.90217 0.06349 0.62461 0.0
O132 O 0.93696 0.09566 0.68329 0.0
C133 C 0.8422 0.1928 0.60663 0.0
O134 O 0.77578 0.11948 0.62243 0.0
O135 O 0.72334 0.06838 0.65339 0.0
O136 O 0.81902 0.01979 0.72168 0.0
O137 O 0.81461 0.09458 0.73422 0.0
O138 O 0.88393 0.20039 0.62259 0.0
O139 O 0.81926 0.15407 0.61555 0.0
O140 O 0.85159 0.13039 0.73338 0.0
O141 O 0.91346 0.18076 0.73176 0.0
C142 C 0.87935 0.16103 0.75387 0.0
O143 O 0.86413 0.0229 0.63964 0.0
O144 O 0.80402 -0.00881 0.60245 0.0
C145 C 0.94132 0.0721 0.64576 0.0
C146 C 0.84555 -0.01378 0.61918 0.0
Zn147 Zn 0.75922 0.93085 0.66732 0.0
Zn148 Zn 0.90701 0.77447 0.663 0.0
Zn149 Zn 0.82791 0.83998 0.66085 0.0
C150 C 0.81876 0.73235 0.62995 0.0
C151 C 0.87209 0.80313 0.74753 0.0
O152 O 0.8612 0.90221 0.6246 0.0
O153 O 0.8292 0.93705 0.68334 0.0
C154 C 0.73195 0.84227 0.60674 0.0
O155 O 0.80525 0.77581 0.62253 0.0
O156 O 0.85633 0.72336 0.65352 0.0
O157 O 0.90495 0.81909 0.72172 0.0
O158 O 0.83018 0.81471 0.73432 0.0
O159 O 0.7244 0.88401 0.62269 0.0
O160 O 0.77066 0.8193 0.61566 0.0
O161 O 0.79436 0.85167 0.73348 0.0
O162 O 0.74403 0.91357 0.73186 0.0
C163 C 0.76374 0.87946 0.75397 0.0
O164 O 0.90183 0.86415 0.63966 0.0
O165 O 0.9335 0.80395 0.60248 0.0
C166 C 0.85267 0.94138 0.64575 0.0
C167 C 0.93844 0.84551 0.61914 0.0
Zn168 Zn 0.26163 0.15009 0.01783 0.0
Zn169 Zn 0.25739 -0.00624 0.16569 0.0
Zn170 Zn 0.26383 0.08464 0.09689 0.0
C171 C 0.17075 0.04524 0.16113 0.0
C172 C 0.31799 0.08235 0.19286 0.0
O173 O 0.28491 0.06046 0.02293 0.0
O174 O 0.32208 0.12059 -0.00877 0.0
C175 C 0.17711 0.12153 0.05278 0.0
O176 O 0.19124 0.073 0.1305 0.0
O177 O 0.19284 0.01111 0.18084 0.0
O178 O 0.30201 0.04063 0.20046 0.0
O179 O 0.30908 0.10528 0.15411 0.0
O180 O 0.20286 0.10554 0.0199 0.0
O181 O 0.19038 0.10998 0.09469 0.0
O182 O 0.30222 0.14877 0.11952 0.0
O183 O 0.27118 0.20122 0.06848 0.0
C184 C 0.29478 0.19223 0.10603 0.0
O185 O 0.29993 0.02241 0.06349 0.0
O186 O 0.2413 -0.01231 0.09573 0.0
C187 C 0.30535 0.07906 -0.01375 0.0
C188 C 0.27878 -0.01674 0.07212 0.0
Zn189 Zn 0.93097 0.25728 0.16549 0.0
Zn190 Zn 0.77463 0.26148 0.01775 0.0
Zn191 Zn 0.84009 0.26373 0.09678 0.0
C192 C 0.73247 0.29462 0.1059 0.0
C193 C 0.80327 0.17698 0.05266 0.0
O194 O 0.90231 0.29993 0.06342 0.0
O195 O 0.93709 0.24125 0.0955 0.0
C196 C 0.84239 0.31787 0.19271 0.0
O197 O 0.77593 0.30209 0.11938 0.0
O198 O 0.72349 0.27094 0.0684 0.0
O199 O 0.81925 0.20275 0.01978 0.0
O200 O 0.81481 0.19026 0.09456 0.0
O201 O 0.88412 0.30191 0.20029 0.0
O202 O 0.81943 0.30895 0.15399 0.0
O203 O 0.85176 0.19114 0.13039 0.0
O204 O 0.91369 0.19273 0.1807 0.0
C205 C 0.87955 0.17064 0.16101 0.0
O206 O 0.86425 0.28484 0.02283 0.0
O207 O 0.80407 0.32203 -0.00871 0.0
C208 C 0.94149 0.2788 0.07198 0.0
C209 C 0.84558 0.30531 -0.01379 0.0
Zn210 Zn 0.663 0.77456 0.0178 0.0
Zn211 Zn 0.6672 0.93089 0.1657 0.0
Zn212 Zn 0.66079 0.84 0.09687 0.0
C213 C 0.75385 0.87942 0.16114 0.0
C214 C 0.60662 0.84228 0.19284 0.0
O215 O 0.63971 0.86419 0.02291 0.0
O216 O 0.60255 0.80406 -0.00879 0.0
C217 C 0.74751 0.80313 0.05277 0.0
O218 O 0.73336 0.85165 0.1305 0.0
O219 O 0.73175 0.91354 0.18085 0.0
O220 O 0.62259 0.884 0.20045 0.0
O221 O 0.61553 0.81935 0.15409 0.0
O222 O 0.72176 0.81913 0.01989 0.0
O223 O 0.73424 0.81467 0.09468 0.0
O224 O 0.6224 0.77587 0.1195 0.0
O225 O 0.65345 0.72343 0.06845 0.0
C226 C 0.62984 0.7324 0.106 0.0
O227 O 0.62469 0.90223 0.06347 0.0
O228 O 0.68332 0.93694 0.09574 0.0
C229 C 0.61927 0.84559 -0.01377 0.0
C230 C 0.64584 0.94138 0.07211 0.0
Zn231 Zn 0.14999 0.66318 0.01775 0.0
Zn232 Zn -0.00635 0.66739 0.16547 0.0
Zn233 Zn 0.08454 0.66092 0.09677 0.0
C234 C 0.04508 0.75401 0.16101 0.0
C235 C 0.08222 0.60679 0.19271 0.0
O236 O 0.06038 0.63982 0.02282 0.0
O237 O 0.12057 0.60262 -0.00871 0.0
C238 C 0.12135 0.74767 0.05266 0.0
O239 O 0.07287 0.73352 0.13039 0.0
O240 O 0.01094 0.73193 0.18069 0.0
O241 O 0.04049 0.62275 0.20028 0.0
O242 O 0.10518 0.6157 0.15399 0.0
O243 O 0.10538 0.7219 0.01978 0.0
O244 O 0.10982 0.73439 0.09456 0.0
O245 O 0.14869 0.62255 0.11938 0.0
O246 O 0.20113 0.65371 0.0684 0.0
C247 C 0.19216 0.63002 0.10589 0.0
O248 O 0.02232 0.62474 0.06341 0.0
O249 O -0.01246 0.68341 0.09549 0.0
C250 C 0.07905 0.61934 -0.0138 0.0
C251 C -0.01686 0.64587 0.07197 0.0
Zn252 Zn 0.2574 0.9309 0.75896 0.0
Zn253 Zn 0.26161 0.77458 0.90685 0.0
Zn254 Zn 0.26383 0.84002 0.82778 0.0
C255 C 0.29478 0.73242 0.81866 0.0
C256 C 0.1771 0.80313 0.87187 0.0
O257 O 0.29993 0.90225 0.86117 0.0
O258 O 0.2413 0.93698 0.82893 0.0
C259 C 0.31799 0.84231 0.73181 0.0
O260 O 0.30222 0.77589 0.80516 0.0
O261 O 0.27117 0.72345 0.8562 0.0
O262 O 0.20285 0.81913 0.90476 0.0
O263 O 0.19038 0.81467 0.82997 0.0
O264 O 0.30201 0.88402 0.72421 0.0
O265 O 0.30908 0.81938 0.77056 0.0
O266 O 0.19125 0.85165 0.79415 0.0
O267 O 0.19285 0.91355 0.74381 0.0
C268 C 0.17076 0.87942 0.76352 0.0
O269 O 0.2849 0.86421 0.90173 0.0
O270 O 0.32206 0.80409 0.93345 0.0
C271 C 0.27879 0.94141 0.85254 0.0
C272 C 0.30534 0.84562 0.93842 0.0
Zn273 Zn 0.15003 0.2615 0.9069 0.0
Zn274 Zn -0.00632 0.25727 0.75917 0.0
Zn275 Zn 0.08456 0.26374 0.82789 0.0
C276 C 0.04511 0.17064 0.76367 0.0
C277 C 0.08226 0.31787 0.73194 0.0
O278 O 0.0604 0.28486 0.90183 0.0
O279 O 0.1206 0.32205 0.93336 0.0
C280 C 0.12139 0.177 0.87201 0.0
O281 O 0.07289 0.19114 0.79428 0.0
O282 O 0.01096 0.19273 0.74397 0.0
O283 O 0.04053 0.3019 0.72437 0.0
O284 O 0.10521 0.30897 0.77067 0.0
O285 O 0.10541 0.20277 0.90489 0.0
O286 O 0.10985 0.19028 0.8301 0.0
O287 O 0.14872 0.30211 0.80527 0.0
O288 O 0.20117 0.27097 0.85625 0.0
C289 C 0.19218 0.29464 0.81875 0.0
O290 O 0.02235 0.29993 0.86124 0.0
O291 O -0.01243 0.24125 0.82916 0.0
C292 C 0.07908 0.30533 0.93846 0.0
C293 C -0.01683 0.2788 0.85268 0.0
Zn294 Zn 0.66725 -0.00627 0.75897 0.0
Zn295 Zn 0.66303 0.15006 0.90684 0.0
Zn296 Zn 0.66081 0.08462 0.82777 0.0
C297 C 0.62986 0.19221 0.81865 0.0
C298 C 0.74754 0.1215 0.87187 0.0
O299 O 0.6247 0.02238 0.86116 0.0
O300 O 0.68334 -0.01234 0.82893 0.0
C301 C 0.60666 0.08232 0.73181 0.0
O302 O 0.62243 0.14875 0.80515 0.0
O303 O 0.65347 0.20119 0.85619 0.0
O304 O 0.72179 0.10551 0.90475 0.0
O305 O 0.73426 0.10996 0.82997 0.0
O306 O 0.62263 0.04061 0.7242 0.0
O307 O 0.61556 0.10526 0.77055 0.0
O308 O 0.73339 0.07298 0.79415 0.0
O309 O 0.73181 0.01108 0.74381 0.0
C310 C 0.75389 0.04521 0.76352 0.0
O311 O 0.63974 0.06043 0.90172 0.0
O312 O 0.60258 0.12055 0.93343 0.0
C313 C 0.64585 -0.01678 0.85254 0.0
C314 C 0.6193 0.07902 0.9384 0.0
Zn315 Zn 0.77461 0.66315 0.90687 0.0
Zn316 Zn 0.93096 0.66735 0.75913 0.0
Zn317 Zn 0.84007 0.6609 0.82785 0.0
C318 C 0.87953 0.75399 0.76362 0.0
C319 C 0.84238 0.60676 0.7319 0.0
O320 O 0.86423 0.63979 0.9018 0.0
O321 O 0.80404 0.6026 0.93334 0.0
C322 C 0.80325 0.74764 0.87197 0.0
O323 O 0.85175 0.73349 0.79423 0.0
O324 O 0.91367 0.7319 0.74393 0.0
O325 O 0.88411 0.62272 0.72433 0.0
O326 O 0.81942 0.61567 0.77063 0.0
O327 O 0.81923 0.72188 0.90484 0.0
O328 O 0.81478 0.73437 0.83006 0.0
O329 O 0.77592 0.62253 0.80524 0.0
O330 O 0.72348 0.65367 0.85622 0.0
C331 C 0.73245 0.63 0.81871 0.0
O332 O 0.90229 0.62472 0.86121 0.0
O333 O 0.93707 0.68339 0.82911 0.0
C334 C 0.84556 0.61932 0.93843 0.0
C335 C 0.94147 0.64585 0.85265 0.0
Zn336 Zn 0.16564 0.2573 -0.00619 0.0
Zn337 Zn 0.01783 0.26162 0.15018 0.0
Zn338 Zn 0.09689 0.26378 0.08472 0.0
C339 C 0.10608 0.29472 0.1923 0.0
C340 C 0.05272 0.17709 0.12162 0.0
O341 O 0.06353 0.29991 0.02248 0.0
O342 O 0.09567 0.24124 -0.01236 0.0
C343 C 0.19287 0.31791 0.08239 0.0
O344 O 0.11957 0.30215 0.14883 0.0
O345 O 0.06851 0.27115 0.20129 0.0
O346 O 0.01978 0.20281 0.10568 0.0
O347 O 0.09463 0.19035 0.1101 0.0
O348 O 0.20044 0.30194 0.04066 0.0
O349 O 0.15414 0.309 0.10535 0.0
O350 O 0.13044 0.19118 0.0731 0.0
O351 O 0.18077 0.19275 0.01119 0.0
C352 C 0.16105 0.17068 0.04532 0.0
O353 O 0.02296 0.28489 0.06055 0.0
O354 O -0.00882 0.32207 0.1207 0.0
C355 C 0.07211 0.27877 -0.01668 0.0
C356 C -0.01369 0.30539 0.07914 0.0
Zn357 Zn 0.1656 0.66737 0.93085 0.0
Zn358 Zn 0.01781 0.66304 0.77448 0.0
Zn359 Zn 0.09687 0.66088 0.83994 0.0
C360 C 0.10606 0.62993 0.73237 0.0
C361 C 0.0527 0.74757 0.80304 0.0
O362 O 0.0635 0.62475 0.90217 0.0
O363 O 0.09563 0.68343 0.93701 0.0
C364 C 0.19284 0.60675 0.8423 0.0
O365 O 0.11954 0.6225 0.77584 0.0
O366 O 0.0685 0.65351 0.72337 0.0
O367 O 0.01976 0.72185 0.81898 0.0
O368 O 0.09461 0.73431 0.81456 0.0
O369 O 0.2004 0.62273 0.88402 0.0
O370 O 0.15412 0.61566 0.81933 0.0
O371 O 0.13043 0.73348 0.85156 0.0
O372 O 0.18074 0.73192 0.91348 0.0
C373 C 0.16104 0.75399 0.87933 0.0
O374 O 0.02293 0.63976 0.8641 0.0
O375 O -0.00883 0.60258 0.80394 0.0
C376 C 0.07207 0.6459 0.94134 0.0
C377 C -0.01371 0.61926 0.8455 0.0
Zn378 Zn 0.26148 0.01775 0.77453 0.0
Zn379 Zn 0.25713 0.16541 0.93093 0.0
Zn380 Zn 0.26366 0.09678 0.84002 0.0
C381 C 0.17052 0.16091 0.87947 0.0
C382 C 0.31776 0.19273 0.84239 0.0
O383 O 0.28481 0.02286 0.86416 0.0
O384 O 0.32201 -0.00876 0.80395 0.0
C385 C 0.17695 0.05259 0.80316 0.0
O386 O 0.19104 0.13033 0.85167 0.0
O387 O 0.19259 0.18059 0.91363 0.0
O388 O 0.30179 0.20026 0.88412 0.0
O389 O 0.30885 0.15403 0.81939 0.0
O390 O 0.2027 0.01966 0.81909 0.0
O391 O 0.19021 0.09451 0.81469 0.0
O392 O 0.30202 0.11944 0.77589 0.0
O393 O 0.27094 0.06844 0.72342 0.0
C394 C 0.29457 0.10597 0.73242 0.0
O395 O 0.29989 0.06347 0.90223 0.0
O396 O 0.24116 0.09541 0.93713 0.0
C397 C 0.30534 -0.01373 0.8455 0.0
C398 C 0.27875 0.07196 0.94143 0.0
Zn399 Zn 0.90683 0.26161 0.77448 0.0
Zn400 Zn 0.75903 0.25726 0.93085 0.0
Zn401 Zn 0.82777 0.26376 0.83994 0.0
C402 C 0.7636 0.17065 0.87933 0.0
C403 C 0.7318 0.31788 0.84229 0.0
O404 O 0.9017 0.28488 0.86411 0.0
O405 O 0.93348 0.32206 0.80396 0.0
C406 C 0.87194 0.17707 0.80303 0.0
O407 O 0.79421 0.19116 0.85156 0.0
O408 O 0.7439 0.19272 0.91347 0.0
O409 O 0.72424 0.30191 0.88401 0.0
O410 O 0.77052 0.30898 0.81932 0.0
O411 O 0.90488 0.20279 0.81897 0.0
O412 O 0.83003 0.19033 0.81456 0.0
O413 O 0.80509 0.30214 0.77583 0.0
O414 O 0.85615 0.27114 0.72337 0.0
C415 C 0.81859 0.29471 0.73236 0.0
O416 O 0.86112 0.29989 0.90218 0.0
O417 O 0.82901 0.24121 0.93702 0.0
C418 C 0.93835 0.30538 0.84552 0.0
C419 C 0.85256 0.27875 0.94135 0.0
Zn420 Zn 0.66752 0.75924 0.93089 0.0
Zn421 Zn 0.66315 0.90688 0.7745 0.0
Zn422 Zn 0.66097 0.82785 0.83999 0.0
C423 C 0.63006 0.81866 0.73239 0.0
C424 C 0.74768 0.87205 0.80313 0.0
O425 O 0.62474 0.86116 0.90221 0.0
O426 O 0.68348 0.82924 0.93713 0.0
C427 C 0.60687 0.73191 0.84237 0.0
O428 O 0.62262 0.80519 0.77586 0.0
O429 O 0.65369 0.8562 0.7234 0.0
O430 O 0.72194 0.90498 0.81905 0.0
O431 O 0.73442 0.83013 0.81466 0.0
O432 O 0.62284 0.72439 0.8841 0.0
O433 O 0.61578 0.77061 0.81936 0.0
O434 O 0.73359 0.79431 0.85164 0.0
O435 O 0.73205 0.74405 0.91359 0.0
C436 C 0.75412 0.76373 0.87943 0.0
O437 O 0.63983 0.90177 0.86413 0.0
O438 O 0.60262 0.9334 0.80393 0.0
C439 C 0.64587 0.85269 0.94141 0.0
C440 C 0.6193 0.93837 0.84548 0.0
Zn441 Zn 0.9068 0.66305 0.15015 0.0
Zn442 Zn 0.75901 0.66738 -0.00622 0.0
Zn443 Zn 0.82774 0.66089 0.08469 0.0
C444 C 0.76357 0.75399 0.04531 0.0
C445 C 0.73177 0.60675 0.08234 0.0
O446 O 0.90167 0.63978 0.06052 0.0
O447 O 0.93344 0.6026 0.12068 0.0
C448 C 0.87191 0.74759 0.12159 0.0
O449 O 0.79418 0.73348 0.07308 0.0
O450 O 0.74387 0.73192 0.01116 0.0
O451 O 0.72421 0.62272 0.04061 0.0
O452 O 0.7705 0.61566 0.10531 0.0
O453 O 0.90485 0.72187 0.10565 0.0
O454 O 0.83 0.73432 0.11007 0.0
O455 O 0.80507 0.6225 0.1488 0.0
O456 O 0.85612 0.65352 0.20126 0.0
C457 C 0.81856 0.62994 0.19227 0.0
O458 O 0.8611 0.62475 0.02245 0.0
O459 O 0.82898 0.68343 -0.0124 0.0
C460 C 0.93832 0.61928 0.07912 0.0
C461 C 0.85254 0.64589 -0.01672 0.0
Zn462 Zn 0.25709 0.75929 -0.00627 0.0
Zn463 Zn 0.26147 0.90691 0.15015 0.0
Zn464 Zn 0.26364 0.82789 0.08465 0.0
C465 C 0.29455 0.81869 0.19225 0.0
C466 C 0.17694 0.87208 0.12152 0.0
O467 O 0.29987 0.8612 0.02244 0.0
O468 O 0.24113 0.82928 -0.01248 0.0
C469 C 0.31773 0.73194 0.08226 0.0
O470 O 0.30199 0.80522 0.14878 0.0
O471 O 0.27093 0.85623 0.20125 0.0
O472 O 0.20269 0.90501 0.1056 0.0
O473 O 0.19019 0.83017 0.10998 0.0
O474 O 0.30176 0.72443 0.04052 0.0
O475 O 0.30882 0.77064 0.10527 0.0
O476 O 0.19101 0.79435 0.07299 0.0
O477 O 0.19255 0.74409 0.01103 0.0
C478 C 0.17049 0.76377 0.04519 0.0
O479 O 0.28479 0.90181 0.06052 0.0
O480 O 0.322 0.93343 0.12072 0.0
C481 C 0.27874 0.85273 -0.01676 0.0
C482 C 0.30533 0.9384 0.07917 0.0
Zn483 Zn 0.66754 0.16536 -0.00627 0.0
Zn484 Zn 0.66317 0.01773 0.15013 0.0
Zn485 Zn 0.66099 0.09675 0.08464 0.0
C486 C 0.63008 0.10594 0.19224 0.0
C487 C 0.74769 0.05256 0.12149 0.0
O488 O 0.62476 0.06344 0.02242 0.0
O489 O 0.6835 0.09536 -0.01249 0.0
C490 C 0.6069 0.1927 0.08225 0.0
O491 O 0.62264 0.11942 0.14877 0.0
O492 O 0.65371 0.06841 0.20123 0.0
O493 O 0.72195 0.01963 0.10557 0.0
O494 O 0.73444 0.09447 0.10996 0.0
O495 O 0.62287 0.20021 0.04052 0.0
O496 O 0.61581 0.154 0.10526 0.0
O497 O 0.73362 0.1303 0.07299 0.0
O498 O 0.73207 0.18056 0.01103 0.0
C499 C 0.75414 0.16088 0.04519 0.0
O500 O 0.63984 0.02283 0.0605 0.0
O501 O 0.60263 -0.00878 0.12071 0.0
C502 C 0.6459 0.07192 -0.01677 0.0
C503 C 0.61929 -0.01376 0.07916 0.0
Zn504 Zn 0.65017 0.51772 0.76171 0.0
Zn505 Zn 0.49386 0.66557 0.75743 0.0
Zn506 Zn 0.5847 0.59682 0.76387 0.0
C507 C 0.54528 0.66101 0.67077 0.0
C508 C 0.58244 0.69278 0.81802 0.0
O509 O 0.56051 0.52289 0.78499 0.0
O510 O 0.62062 0.49119 0.82218 0.0
C511 C 0.62159 0.55266 0.67718 0.0
O512 O 0.57304 0.63037 0.69125 0.0
O513 O 0.51117 0.68074 0.69288 0.0
O514 O 0.54071 0.70037 0.80206 0.0
O515 O 0.60539 0.65406 0.80908 0.0
O516 O 0.60562 0.51979 0.70295 0.0
O517 O 0.61002 0.59457 0.69041 0.0
O518 O 0.64885 0.61948 0.8022 0.0
O519 O 0.7013 0.56838 0.77123 0.0
C520 C 0.69232 0.60597 0.79477 0.0
O521 O 0.52246 0.56349 0.80005 0.0
O522 O 0.48767 0.5956 0.74139 0.0
C523 C 0.57909 0.48622 0.80546 0.0
C524 C 0.48328 0.57205 0.77892 0.0
Zn525 Zn 0.40702 0.65017 0.76163 0.0
Zn526 Zn 0.25926 0.4938 0.75731 0.0
Zn527 Zn 0.32791 0.58465 0.76379 0.0
C528 C 0.26374 0.54517 0.67066 0.0
C529 C 0.23197 0.58236 0.81791 0.0
O530 O 0.40182 0.56049 0.78497 0.0
O531 O 0.4335 0.62069 0.82215 0.0
C532 C 0.37209 0.62151 0.6771 0.0
O533 O 0.29436 0.57296 0.69116 0.0
O534 O 0.24404 0.51106 0.69277 0.0
O535 O 0.22442 0.54062 0.80196 0.0
O536 O 0.27067 0.60534 0.80897 0.0
O537 O 0.40495 0.60555 0.70291 0.0
O538 O 0.33018 0.60992 0.69032 0.0
O539 O 0.30526 0.64883 0.8021 0.0
O540 O 0.35635 0.70128 0.77111 0.0
C541 C 0.31877 0.69229 0.79468 0.0
O542 O 0.36119 0.52242 0.80005 0.0
O543 O 0.32926 0.48757 0.74134 0.0
C544 C 0.43844 0.57913 0.80549 0.0
C545 C 0.35272 0.48322 0.77893 0.0
Zn546 Zn 0.27445 0.40696 0.76174 0.0
Zn547 Zn 0.43078 0.25906 0.75745 0.0
Zn548 Zn 0.33994 0.32781 0.76388 0.0
C549 C 0.37936 0.26361 0.67079 0.0
C550 C 0.3422 0.23185 0.81803 0.0
O551 O 0.36413 0.40174 0.78504 0.0
O552 O 0.30397 0.43355 0.82219 0.0
C553 C 0.30304 0.37198 0.67721 0.0
O554 O 0.3516 0.29426 0.69127 0.0
O555 O 0.41346 0.24388 0.6929 0.0
O556 O 0.38393 0.22427 0.80208 0.0
O557 O 0.31925 0.27057 0.80909 0.0
O558 O 0.31901 0.40484 0.703 0.0
O559 O 0.31463 0.33007 0.69043 0.0
O560 O 0.27578 0.30515 0.80221 0.0
O561 O 0.22334 0.35628 0.77129 0.0
C562 C 0.23232 0.31867 0.79481 0.0
O563 O 0.40218 0.36114 0.80006 0.0
O564 O 0.43696 0.32903 0.74139 0.0
C565 C 0.34554 0.43841 0.80553 0.0
C566 C 0.44135 0.35259 0.77892 0.0
Zn567 Zn 0.51762 0.27447 0.76162 0.0
Zn568 Zn 0.66542 0.43085 0.75731 0.0
Zn569 Zn 0.59673 0.33998 0.76378 0.0
C570 C 0.66089 0.37945 0.67066 0.0
C571 C 0.69268 0.34228 0.8179 0.0
O572 O 0.52281 0.36415 0.78497 0.0
O573 O 0.49114 0.30394 0.82214 0.0
C574 C 0.55254 0.30312 0.6771 0.0
O575 O 0.63027 0.35167 0.69115 0.0
O576 O 0.6806 0.41357 0.69276 0.0
O577 O 0.70024 0.38401 0.80194 0.0
O578 O 0.65397 0.3193 0.80896 0.0
O579 O 0.51968 0.31907 0.7029 0.0
O580 O 0.59445 0.3147 0.69031 0.0
O581 O 0.61938 0.27581 0.8021 0.0
O582 O 0.5683 0.22336 0.7711 0.0
C583 C 0.60587 0.23234 0.79467 0.0
O584 O 0.56343 0.4022 0.80003 0.0
O585 O 0.59544 0.43705 0.7413 0.0
C586 C 0.4862 0.3455 0.80549 0.0
C587 C 0.57197 0.44138 0.77888 0.0
Zn588 Zn 0.49387 0.25899 0.16718 0.0
Zn589 Zn 0.65017 0.40689 0.1629 0.0
Zn590 Zn 0.58471 0.32778 0.16075 0.0
C591 C 0.69233 0.31864 0.12984 0.0
C592 C 0.62161 0.37195 0.24744 0.0
O593 O 0.52247 0.36112 0.1246 0.0
O594 O 0.4877 0.32896 0.18325 0.0
C595 C 0.58246 0.23181 0.1066 0.0
O596 O 0.64886 0.30513 0.12241 0.0
O597 O 0.70131 0.35624 0.15337 0.0
O598 O 0.60563 0.40482 0.22166 0.0
O599 O 0.61004 0.33004 0.2342 0.0
O600 O 0.54073 0.22422 0.12255 0.0
O601 O 0.6054 0.27055 0.11553 0.0
O602 O 0.57306 0.29422 0.23336 0.0
O603 O 0.5112 0.24384 0.23173 0.0
C604 C 0.5453 0.26358 0.25384 0.0
O605 O 0.56052 0.40171 0.13963 0.0
O606 O 0.62062 0.43343 0.10244 0.0
C607 C 0.4833 0.35254 0.14574 0.0
C608 C 0.57909 0.4384 0.11917 0.0
Zn609 Zn 0.66542 0.49376 0.16731 0.0
Zn610 Zn 0.51766 0.65011 0.16304 0.0
Zn611 Zn 0.59671 0.58463 0.16085 0.0
C612 C 0.60586 0.69227 0.12998 0.0
C613 C 0.55254 0.62147 0.24756 0.0
O614 O 0.56341 0.5224 0.12461 0.0
O615 O 0.59544 0.48756 0.18333 0.0
C616 C 0.69266 0.58234 0.10673 0.0
O617 O 0.61935 0.6488 0.12253 0.0
O618 O 0.56832 0.70124 0.15359 0.0
O619 O 0.51967 0.6055 0.22176 0.0
O620 O 0.59445 0.60991 0.23432 0.0
O621 O 0.70023 0.54061 0.12268 0.0
O622 O 0.65395 0.60531 0.11565 0.0
O623 O 0.63027 0.57294 0.23347 0.0
O624 O 0.6806 0.51104 0.23187 0.0
C625 C 0.66089 0.54516 0.25397 0.0
O626 O 0.52279 0.56045 0.13969 0.0
O627 O 0.49126 0.62063 0.10248 0.0
C628 C 0.57197 0.48323 0.14575 0.0
C629 C 0.48617 0.57911 0.1192 0.0
Zn630 Zn 0.43077 0.66567 0.16718 0.0
Zn631 Zn 0.27444 0.51773 0.16289 0.0
Zn632 Zn 0.3399 0.59685 0.16075 0.0
C633 C 0.23229 0.60599 0.12983 0.0
C634 C 0.30298 0.55269 0.24743 0.0
O635 O 0.40214 0.56351 0.1246 0.0
O636 O 0.43695 0.5957 0.18327 0.0
C637 C 0.34217 0.69282 0.1066 0.0
O638 O 0.27576 0.61951 0.12241 0.0
O639 O 0.22331 0.56839 0.15334 0.0
O640 O 0.31897 0.51982 0.22167 0.0
O641 O 0.31456 0.5946 0.2342 0.0
O642 O 0.38389 0.70042 0.12257 0.0
O643 O 0.31923 0.65409 0.11553 0.0
O644 O 0.35155 0.6304 0.23336 0.0
O645 O 0.41342 0.68078 0.23175 0.0
C646 C 0.37932 0.66104 0.25385 0.0
O647 O 0.36411 0.52292 0.13964 0.0
O648 O 0.30401 0.49116 0.10246 0.0
C649 C 0.4413 0.57213 0.14575 0.0
C650 C 0.34555 0.48622 0.11918 0.0
Zn651 Zn 0.25927 0.43087 0.16738 0.0
Zn652 Zn 0.40702 0.27448 0.16306 0.0
Zn653 Zn 0.32793 0.34 0.1609 0.0
C654 C 0.31877 0.23236 0.13002 0.0
C655 C 0.37212 0.30315 0.24758 0.0
O656 O 0.36122 0.40222 0.12463 0.0
O657 O 0.32926 0.43708 0.18337 0.0
C658 C 0.23199 0.3423 0.10679 0.0
O659 O 0.30528 0.27583 0.12259 0.0
O660 O 0.35633 0.22337 0.1536 0.0
O661 O 0.40498 0.3191 0.22177 0.0
O662 O 0.33021 0.31474 0.23437 0.0
O663 O 0.22444 0.38404 0.12274 0.0
O664 O 0.27069 0.31932 0.11572 0.0
O665 O 0.29439 0.3517 0.23353 0.0
O666 O 0.24408 0.41361 0.23193 0.0
C667 C 0.26378 0.37949 0.25403 0.0
O668 O 0.40185 0.36416 0.1397 0.0
O669 O 0.43347 0.30394 0.10252 0.0
C670 C 0.3527 0.4414 0.14577 0.0
C671 C 0.43845 0.34549 0.11917 0.0
Zn672 Zn 0.75738 0.49373 0.66566 0.0
Zn673 Zn 0.76159 0.65006 0.51779 0.0
Zn674 Zn 0.76381 0.58462 0.59685 0.0
C675 C 0.79475 0.69221 0.60598 0.0
C676 C 0.67708 0.62149 0.55275 0.0
O677 O 0.79992 0.52239 0.56346 0.0
O678 O 0.74129 0.48766 0.5957 0.0
C679 C 0.81798 0.58233 0.69281 0.0
O680 O 0.8022 0.64875 0.61947 0.0
O681 O 0.77113 0.70119 0.56844 0.0
O682 O 0.70283 0.6055 0.51986 0.0
O683 O 0.69036 0.60995 0.59465 0.0
O684 O 0.802 0.54061 0.70042 0.0
O685 O 0.80906 0.60526 0.65407 0.0
O686 O 0.69123 0.57298 0.63047 0.0
O687 O 0.69283 0.51108 0.68082 0.0
C688 C 0.67074 0.54521 0.66111 0.0
O689 O 0.78489 0.56043 0.5229 0.0
O690 O 0.82206 0.62057 0.49122 0.0
C691 C 0.77878 0.48323 0.57209 0.0
C692 C 0.80533 0.57904 0.48622 0.0
Zn693 Zn 0.43097 0.75729 0.66551 0.0
Zn694 Zn 0.27461 0.76149 0.51775 0.0
Zn695 Zn 0.34007 0.76373 0.59678 0.0
C696 C 0.23246 0.79463 0.60591 0.0
C697 C 0.30324 0.67699 0.55266 0.0
O698 O 0.40229 0.79991 0.56341 0.0
O699 O 0.43706 0.74124 0.59553 0.0
C700 C 0.34239 0.81788 0.69272 0.0
O701 O 0.27593 0.8021 0.61939 0.0
O702 O 0.22348 0.77096 0.56841 0.0
O703 O 0.31922 0.70276 0.51978 0.0
O704 O 0.31478 0.69026 0.59457 0.0
O705 O 0.38411 0.80191 0.7003 0.0
O706 O 0.31943 0.80896 0.654 0.0
O707 O 0.35175 0.69114 0.63039 0.0
O708 O 0.41367 0.69274 0.6807 0.0
C709 C 0.37953 0.67065 0.66101 0.0
O710 O 0.36423 0.78484 0.52283 0.0
O711 O 0.30405 0.82203 0.49129 0.0
C712 C 0.44146 0.77878 0.57199 0.0
C713 C 0.34556 0.80531 0.4862 0.0
Zn714 Zn 0.16304 0.27457 0.51782 0.0
Zn715 Zn 0.16725 0.43089 0.66569 0.0
Zn716 Zn 0.16083 0.34001 0.59689 0.0
C717 C 0.2539 0.37942 0.66114 0.0
C718 C 0.10665 0.3423 0.69284 0.0
O719 O 0.13975 0.36419 0.52293 0.0
O720 O 0.10258 0.30406 0.49124 0.0
C721 C 0.24755 0.30313 0.55278 0.0
O722 O 0.23341 0.35165 0.63051 0.0
O723 O 0.23181 0.41355 0.68085 0.0
O724 O 0.12263 0.38402 0.70045 0.0
O725 O 0.11557 0.31937 0.65411 0.0
O726 O 0.2218 0.31913 0.5199 0.0
O727 O 0.23428 0.31468 0.59469 0.0
O728 O 0.12244 0.27588 0.61951 0.0
O729 O 0.15349 0.22343 0.56847 0.0
C730 C 0.12989 0.23241 0.60602 0.0
O731 O 0.12472 0.40224 0.56349 0.0
O732 O 0.18334 0.43698 0.59573 0.0
C733 C 0.11931 0.34559 0.48625 0.0
C734 C 0.14585 0.4414 0.57212 0.0
Zn735 Zn 0.65003 0.16313 0.51774 0.0
Zn736 Zn 0.49367 0.16734 0.6655 0.0
Zn737 Zn 0.58456 0.16089 0.59677 0.0
C738 C 0.5451 0.25398 0.661 0.0
C739 C 0.58225 0.10674 0.69271 0.0
O740 O 0.5604 0.13978 0.52282 0.0
O741 O 0.62058 0.10258 0.49128 0.0
C742 C 0.62139 0.24763 0.55265 0.0
O743 O 0.57289 0.23348 0.63039 0.0
O744 O 0.51096 0.23189 0.68069 0.0
O745 O 0.54053 0.12271 0.70029 0.0
O746 O 0.60521 0.11566 0.65399 0.0
O747 O 0.60541 0.22185 0.51978 0.0
O748 O 0.60985 0.23436 0.59456 0.0
O749 O 0.64872 0.12253 0.61938 0.0
O750 O 0.70116 0.15365 0.56839 0.0
C751 C 0.69218 0.13 0.6059 0.0
O752 O 0.52235 0.1247 0.56341 0.0
O753 O 0.48758 0.18338 0.59551 0.0
C754 C 0.57907 0.1193 0.4862 0.0
C755 C 0.48317 0.14583 0.57199 0.0
Zn756 Zn 0.7574 0.43089 0.25894 0.0
Zn757 Zn 0.76161 0.27457 0.40682 0.0
Zn758 Zn 0.76383 0.34001 0.32777 0.0
C759 C 0.79477 0.23242 0.31863 0.0
C760 C 0.6771 0.30312 0.37187 0.0
O761 O 0.79992 0.40224 0.36117 0.0
O762 O 0.7413 0.43696 0.32891 0.0
C763 C 0.818 0.3423 0.23181 0.0
O764 O 0.80222 0.27588 0.30515 0.0
O765 O 0.77115 0.22344 0.35617 0.0
O766 O 0.70284 0.31912 0.40475 0.0
O767 O 0.69038 0.31467 0.32996 0.0
O768 O 0.80202 0.38402 0.22419 0.0
O769 O 0.80908 0.31937 0.27055 0.0
O770 O 0.69125 0.35164 0.29414 0.0
O771 O 0.69284 0.41353 0.24379 0.0
C772 C 0.67076 0.3794 0.26351 0.0
O773 O 0.7849 0.3642 0.40172 0.0
O774 O 0.82207 0.30407 0.43341 0.0
C775 C 0.77878 0.4414 0.35253 0.0
C776 C 0.80534 0.34559 0.4384 0.0
Zn777 Zn 0.65001 0.76148 0.40689 0.0
Zn778 Zn 0.49365 0.75723 0.25916 0.0
Zn779 Zn 0.58455 0.76371 0.32787 0.0
C780 C 0.54509 0.67061 0.26365 0.0
C781 C 0.58222 0.81785 0.23193 0.0
O782 O 0.56039 0.78482 0.40181 0.0
O783 O 0.62057 0.82202 0.43336 0.0
C784 C 0.62138 0.67697 0.37199 0.0
O785 O 0.57288 0.69111 0.29426 0.0
O786 O 0.51094 0.69269 0.24397 0.0
O787 O 0.5405 0.80187 0.22435 0.0
O788 O 0.60519 0.80894 0.27065 0.0
O789 O 0.60541 0.70274 0.40487 0.0
O790 O 0.60984 0.69025 0.33008 0.0
O791 O 0.64869 0.80209 0.30526 0.0
O792 O 0.70115 0.77096 0.35624 0.0
C793 C 0.69216 0.79462 0.31873 0.0
O794 O 0.52233 0.7999 0.36123 0.0
O795 O 0.48754 0.74122 0.32915 0.0
C796 C 0.57906 0.80529 0.43844 0.0
C797 C 0.48315 0.77877 0.35267 0.0
Zn798 Zn 0.16719 0.49374 0.25892 0.0
Zn799 Zn 0.163 0.65006 0.40683 0.0
Zn800 Zn 0.16078 0.58463 0.32777 0.0
C801 C 0.12984 0.69222 0.31865 0.0
C802 C 0.24751 0.6215 0.37187 0.0
O803 O 0.1247 0.52239 0.36118 0.0
O804 O 0.18331 0.48769 0.32888 0.0
C805 C 0.1066 0.58235 0.2318 0.0
O806 O 0.12238 0.64876 0.30516 0.0
O807 O 0.15346 0.7012 0.35619 0.0
O808 O 0.22176 0.6055 0.40475 0.0
O809 O 0.23423 0.60997 0.32996 0.0
O810 O 0.12258 0.54064 0.22418 0.0
O811 O 0.11552 0.60527 0.27055 0.0
O812 O 0.23335 0.573 0.29414 0.0
O813 O 0.23175 0.51112 0.24378 0.0
C814 C 0.25384 0.54524 0.2635 0.0
O815 O 0.13971 0.56043 0.40173 0.0
O816 O 0.10255 0.62056 0.43342 0.0
C817 C 0.14585 0.48324 0.35252 0.0
C818 C 0.11927 0.57903 0.43841 0.0
Zn819 Zn 0.43097 0.16737 0.25918 0.0
Zn820 Zn 0.27461 0.16315 0.40692 0.0
Zn821 Zn 0.34008 0.16091 0.32789 0.0
C822 C 0.23246 0.13002 0.31875 0.0
C823 C 0.30326 0.24765 0.37201 0.0
O824 O 0.40229 0.12471 0.36124 0.0
O825 O 0.43708 0.18339 0.32917 0.0
C826 C 0.34239 0.10677 0.23195 0.0
O827 O 0.27593 0.12255 0.30527 0.0
O828 O 0.22348 0.15368 0.35627 0.0
O829 O 0.31923 0.22188 0.40489 0.0
O830 O 0.3148 0.23438 0.33011 0.0
O831 O 0.38412 0.12274 0.22438 0.0
O832 O 0.31943 0.11569 0.27067 0.0
O833 O 0.35177 0.23351 0.29428 0.0
O834 O 0.4137 0.23192 0.24399 0.0
C835 C 0.37956 0.25401 0.26368 0.0
O836 O 0.36424 0.1398 0.40183 0.0
O837 O 0.30405 0.1026 0.43337 0.0
C838 C 0.44148 0.14584 0.35268 0.0
C839 C 0.34557 0.11932 0.43846 0.0
Zn840 Zn 0.5178 0.76159 0.65016 0.0
Zn841 Zn 0.6656 0.75725 0.49378 0.0
Zn842 Zn 0.59686 0.76374 0.5847 0.0
C843 C 0.66102 0.67063 0.54529 0.0
C844 C 0.69283 0.81788 0.58234 0.0
O845 O 0.52293 0.78486 0.56053 0.0
O846 O 0.49117 0.82204 0.62069 0.0
C847 C 0.55269 0.67705 0.6216 0.0
O848 O 0.63041 0.69114 0.57307 0.0
O849 O 0.68072 0.6927 0.51115 0.0
O850 O 0.7004 0.8019 0.54062 0.0
O851 O 0.65411 0.80896 0.60531 0.0
O852 O 0.51975 0.70277 0.60566 0.0
O853 O 0.5946 0.69031 0.61007 0.0
O854 O 0.61954 0.80212 0.6488 0.0
O855 O 0.56849 0.77111 0.70127 0.0
C856 C 0.60606 0.79468 0.69227 0.0
O857 O 0.5635 0.79987 0.52247 0.0
O858 O 0.59563 0.7412 0.48762 0.0
C859 C 0.48629 0.80536 0.57913 0.0
C860 C 0.57207 0.77873 0.4833 0.0
Zn861 Zn 0.66561 0.16736 0.43084 0.0
Zn862 Zn 0.51781 0.163 0.27446 0.0
Zn863 Zn 0.59688 0.16086 0.33993 0.0
C864 C 0.60607 0.12991 0.23236 0.0
C865 C 0.55271 0.24754 0.30301 0.0
O866 O 0.56353 0.12472 0.40217 0.0
O867 O 0.59564 0.1834 0.43702 0.0
C868 C 0.69285 0.10673 0.34228 0.0
O869 O 0.61956 0.12249 0.27583 0.0
O870 O 0.56849 0.15346 0.22336 0.0
O871 O 0.51977 0.22182 0.31895 0.0
O872 O 0.59462 0.23429 0.31455 0.0
O873 O 0.70041 0.12271 0.384 0.0
O874 O 0.65413 0.11564 0.31931 0.0
O875 O 0.63043 0.23347 0.35155 0.0
O876 O 0.68074 0.23191 0.41347 0.0
C877 C 0.66103 0.25398 0.37933 0.0
O878 O 0.52295 0.13975 0.3641 0.0
O879 O 0.49115 0.10257 0.30396 0.0
C880 C 0.57209 0.14587 0.44134 0.0
C881 C 0.48629 0.11925 0.34552 0.0
Zn882 Zn 0.76148 0.51774 0.2745 0.0
Zn883 Zn 0.75714 0.66542 0.4309 0.0
Zn884 Zn 0.76366 0.59677 0.33999 0.0
C885 C 0.67052 0.66089 0.37944 0.0
C886 C 0.81777 0.69272 0.34236 0.0
O887 O 0.78481 0.52285 0.36413 0.0
O888 O 0.82201 0.49122 0.30392 0.0
C889 C 0.67695 0.55257 0.30313 0.0
O890 O 0.69104 0.63031 0.35164 0.0
O891 O 0.69259 0.68058 0.41359 0.0
O892 O 0.8018 0.70026 0.38409 0.0
O893 O 0.80885 0.65402 0.31936 0.0
O894 O 0.7027 0.51965 0.31905 0.0
O895 O 0.69021 0.59449 0.31465 0.0
O896 O 0.80201 0.61944 0.27586 0.0
O897 O 0.77094 0.56843 0.22339 0.0
C898 C 0.79456 0.60596 0.23239 0.0
O899 O 0.79987 0.56345 0.4022 0.0
O900 O 0.74115 0.59543 0.4371 0.0
C901 C 0.80534 0.48625 0.34547 0.0
C902 C 0.77874 0.57196 0.44139 0.0
Zn903 Zn 0.40681 0.76161 0.27447 0.0
Zn904 Zn 0.25901 0.75726 0.43086 0.0
Zn905 Zn 0.32774 0.76375 0.33994 0.0
C906 C 0.26358 0.67064 0.37933 0.0
C907 C 0.23178 0.81789 0.3423 0.0
O908 O 0.40168 0.78486 0.36411 0.0
O909 O 0.43346 0.82205 0.30396 0.0
C910 C 0.37191 0.67707 0.30302 0.0
O911 O 0.29419 0.69116 0.35156 0.0
O912 O 0.24388 0.69271 0.41348 0.0
O913 O 0.22421 0.80191 0.38402 0.0
O914 O 0.2705 0.80898 0.31933 0.0
O915 O 0.40484 0.70279 0.31896 0.0
O916 O 0.33 0.69032 0.31456 0.0
O917 O 0.30507 0.80214 0.27584 0.0
O918 O 0.35612 0.77115 0.22337 0.0
C919 C 0.31856 0.79471 0.23237 0.0
O920 O 0.36111 0.79989 0.40217 0.0
O921 O 0.32898 0.74121 0.43702 0.0
C922 C 0.43833 0.80536 0.34552 0.0
C923 C 0.35254 0.77874 0.44135 0.0
Zn924 Zn 0.16751 0.25923 0.43093 0.0
Zn925 Zn 0.16318 0.40689 0.27454 0.0
Zn926 Zn 0.16099 0.32787 0.34002 0.0
C927 C 0.1301 0.31868 0.23242 0.0
C928 C 0.2477 0.37207 0.30319 0.0
O929 O 0.12477 0.36119 0.40224 0.0
O930 O 0.18349 0.32922 0.43713 0.0
C931 C 0.10687 0.23193 0.34239 0.0
O932 O 0.12263 0.30521 0.27589 0.0
O933 O 0.15374 0.3562 0.22343 0.0
O934 O 0.22196 0.405 0.31911 0.0
O935 O 0.23444 0.33015 0.3147 0.0
O936 O 0.12284 0.22439 0.38413 0.0
O937 O 0.11579 0.27063 0.3194 0.0
O938 O 0.23361 0.29433 0.35168 0.0
O939 O 0.23205 0.24405 0.41362 0.0
C940 C 0.25412 0.26374 0.37947 0.0
O941 O 0.13984 0.40179 0.36417 0.0
O942 O 0.10263 0.43338 0.30394 0.0
C943 C 0.1459 0.35269 0.44143 0.0
C944 C 0.1193 0.43838 0.34549 0.0
Zn945 Zn 0.25903 0.16737 0.49381 0.0
Zn946 Zn 0.40684 0.16303 0.65019 0.0
Zn947 Zn 0.32777 0.16088 0.58472 0.0
C948 C 0.31858 0.12994 0.6923 0.0
C949 C 0.37195 0.24757 0.62163 0.0
O950 O 0.36113 0.12474 0.52249 0.0
O951 O 0.32901 0.18342 0.48764 0.0
C952 C 0.2318 0.10674 0.58237 0.0
O953 O 0.30509 0.12251 0.64883 0.0
O954 O 0.35615 0.1535 0.70129 0.0
O955 O 0.40489 0.22184 0.60569 0.0
O956 O 0.33004 0.23431 0.61009 0.0
O957 O 0.22423 0.12272 0.54065 0.0
O958 O 0.27052 0.11566 0.60534 0.0
O959 O 0.29423 0.23348 0.5731 0.0
O960 O 0.2439 0.23192 0.51119 0.0
C961 C 0.26362 0.25399 0.54532 0.0
O962 O 0.4017 0.13976 0.56055 0.0
O963 O 0.43347 0.10258 0.6207 0.0
C964 C 0.35256 0.14588 0.48332 0.0
C965 C 0.43835 0.11925 0.57914 0.0
Zn966 Zn 0.75714 0.25921 0.49373 0.0
Zn967 Zn 0.76148 0.40689 0.65012 0.0
Zn968 Zn 0.76366 0.32786 0.58464 0.0
C969 C 0.79457 0.31868 0.69224 0.0
C970 C 0.67695 0.37204 0.6215 0.0
O971 O 0.79987 0.36118 0.52242 0.0
O972 O 0.74115 0.3292 0.48752 0.0
C973 C 0.81777 0.23192 0.58226 0.0
O974 O 0.80202 0.3052 0.64877 0.0
O975 O 0.77095 0.35621 0.70123 0.0
O976 O 0.70269 0.40497 0.60557 0.0
O977 O 0.69021 0.33012 0.60997 0.0
O978 O 0.8018 0.22438 0.54053 0.0
O979 O 0.80886 0.27062 0.60526 0.0
O980 O 0.69104 0.2943 0.57299 0.0
O981 O 0.69259 0.24403 0.51104 0.0
C982 C 0.67052 0.26371 0.54519 0.0
O983 O 0.7848 0.40178 0.56049 0.0
O984 O 0.822 0.43342 0.6207 0.0
C985 C 0.77874 0.35267 0.48323 0.0
C986 C 0.80533 0.43838 0.57914 0.0
Zn987 Zn 0.1675 0.66541 0.49374 0.0
Zn988 Zn 0.16315 0.51774 0.65013 0.0
Zn989 Zn 0.16097 0.59677 0.58465 0.0
C990 C 0.13007 0.60596 0.69225 0.0
C991 C 0.24767 0.55259 0.62151 0.0
O992 O 0.12474 0.56345 0.52243 0.0
O993 O 0.18347 0.59541 0.48752 0.0
C994 C 0.10685 0.69271 0.58227 0.0
O995 O 0.12261 0.61943 0.64877 0.0
O996 O 0.15369 0.56843 0.70124 0.0
O997 O 0.22194 0.51965 0.60558 0.0
O998 O 0.23442 0.5945 0.60998 0.0
O999 O 0.12283 0.70025 0.54054 0.0
O1000 O 0.11577 0.65402 0.60527 0.0
O1001 O 0.23358 0.63032 0.573 0.0
O1002 O 0.23204 0.68059 0.51104 0.0
C1003 C 0.25411 0.6609 0.5452 0.0
O1004 O 0.13982 0.52285 0.5605 0.0
O1005 O 0.10262 0.49122 0.62071 0.0
C1006 C 0.14587 0.57195 0.48323 0.0
C1007 C 0.11929 0.48625 0.57916 0.0
loop_
_geom_bond_atom_site_label_1
_geom_bond_atom_site_label_2
_geom_bond_distance
_geom_bond_site_symmetry_2
_ccdc_geom_bond_type
Zn0 O6 1.920 . S
Zn0 O12 1.898 . S
Zn0 O15 1.905 . S
Zn1 O9 1.905 . S
Zn1 O10 1.898 . S
Zn1 O18 1.920 1_455 S
Zn2 O5 2.080 . S
Zn2 O8 2.114 . S
Zn2 O11 2.120 . S
Zn2 O13 2.120 . S
Zn2 O14 2.114 . S
Zn2 O17 2.080 . S
C3 O8 1.166 . S
C3 O9 1.182 . S
C4 O10 1.167 . S
C4 O11 1.299 . S
O5 Zn2 2.080 . S
O5 C19 1.305 . S
O6 Zn0 1.920 . S
O6 C19 1.234 . S
C7 O12 1.167 . S
C7 O13 1.299 . S
O8 Zn2 2.114 . S
O8 C3 1.166 . S
O9 Zn1 1.905 . S
O9 C3 1.182 . S
O10 Zn1 1.898 . S
O10 C4 1.167 . S
O11 Zn2 2.120 . S
O11 C4 1.299 . S
O12 Zn0 1.898 . S
O12 C7 1.167 . S
O13 Zn2 2.120 . S
O13 C7 1.299 . S
O14 Zn2 2.114 . S
O14 C16 1.166 . S
O15 Zn0 1.905 . S
O15 C16 1.182 . S
C16 O14 1.166 . S
C16 O15 1.182 . S
O17 Zn2 2.080 . S
O17 C20 1.305 . S
O18 Zn1 1.920 1_655 S
O18 C20 1.234 1_655 S
C19 O5 1.305 . S
C19 O6 1.234 . S
C20 O17 1.305 . S
C20 O18 1.234 1_455 S
Zn21 O27 1.920 . S
Zn21 O33 1.898 . S
Zn21 O36 1.905 . S
Zn22 O30 1.905 . S
Zn22 O31 1.898 . S
Zn22 O39 1.920 1_545 S
Zn23 O26 2.080 . S
Zn23 O29 2.114 . S
Zn23 O32 2.120 . S
Zn23 O34 2.120 . S
Zn23 O35 2.114 . S
Zn23 O38 2.080 . S
C24 O29 1.166 . S
C24 O30 1.182 . S
C25 O31 1.167 . S
C25 O32 1.299 . S
O26 Zn23 2.080 . S
O26 C40 1.305 . S
O27 Zn21 1.920 . S
O27 C40 1.234 . S
C28 O33 1.167 . S
C28 O34 1.299 . S
O29 Zn23 2.114 . S
O29 C24 1.166 . S
O30 Zn22 1.905 . S
O30 C24 1.182 . S
O31 Zn22 1.898 . S
O31 C25 1.167 . S
O32 Zn23 2.120 . S
O32 C25 1.299 . S
O33 Zn21 1.898 . S
O33 C28 1.167 . S
O34 Zn23 2.120 . S
O34 C28 1.299 . S
O35 Zn23 2.114 . S
O35 C37 1.166 . S
O36 Zn21 1.905 . S
O36 C37 1.182 . S
C37 O35 1.166 . S
C37 O36 1.182 . S
O38 Zn23 2.080 . S
O38 C41 1.305 . S
O39 Zn22 1.920 1_565 S
O39 C41 1.234 1_565 S
C40 O26 1.305 . S
C40 O27 1.234 . S
C41 O38 1.305 . S
C41 O39 1.234 1_545 S
Zn42 O48 1.920 . S
Zn42 O54 1.898 . S
Zn42 O57 1.905 . S
Zn43 O51 1.905 . S
Zn43 O52 1.898 . S
Zn43 O60 1.920 1_655 S
Zn44 O47 2.080 . S
Zn44 O50 2.114 . S
Zn44 O53 2.120 . S
Zn44 O55 2.120 . S
Zn44 O56 2.114 . S
Zn44 O59 2.080 . S
C45 O50 1.166 . S
C45 O51 1.182 . S
C46 O52 1.167 . S
C46 O53 1.299 . S
O47 Zn44 2.080 . S
O47 C61 1.305 . S
O48 Zn42 1.920 . S
O48 C61 1.234 . S
C49 O54 1.167 . S
C49 O55 1.299 . S
O50 Zn44 2.114 . S
O50 C45 1.166 . S
O51 Zn43 1.905 . S
O51 C45 1.182 . S
O52 Zn43 1.898 . S
O52 C46 1.167 . S
O53 Zn44 2.120 . S
O53 C46 1.299 . S
O54 Zn42 1.898 . S
O54 C49 1.167 . S
O55 Zn44 2.120 . S
O55 C49 1.299 . S
O56 Zn44 2.114 . S
O56 C58 1.166 . S
O57 Zn42 1.905 . S
O57 C58 1.182 . S
C58 O56 1.166 . S
C58 O57 1.182 . S
O59 Zn44 2.080 . S
O59 C62 1.305 . S
O60 Zn43 1.920 1_455 S
O60 C62 1.234 1_455 S
C61 O47 1.305 . S
C61 O48 1.234 . S
C62 O59 1.305 . S
C62 O60 1.234 1_655 S
Zn63 O69 1.920 . S
Zn63 O75 1.898 . S
Zn63 O78 1.905 . S
Zn64 O72 1.905 . S
Zn64 O73 1.898 . S
Zn64 O81 1.920 1_565 S
Zn65 O68 2.080 . S
Zn65 O71 2.114 . S
Zn65 O74 2.120 . S
Zn65 O76 2.120 . S
Zn65 O77 2.114 . S
Zn65 O80 2.080 . S
C66 O71 1.166 . S
C66 O72 1.182 . S
C67 O73 1.167 . S
C67 O74 1.299 . S
O68 Zn65 2.080 . S
O68 C82 1.305 . S
O69 Zn63 1.920 . S
O69 C82 1.234 . S
C70 O75 1.167 . S
C70 O76 1.299 . S
O71 Zn65 2.114 . S
O71 C66 1.166 . S
O72 Zn64 1.905 . S
O72 C66 1.182 . S
O73 Zn64 1.898 . S
O73 C67 1.167 . S
O74 Zn65 2.120 . S
O74 C67 1.299 . S
O75 Zn63 1.898 . S
O75 C70 1.167 . S
O76 Zn65 2.120 . S
O76 C70 1.299 . S
O77 Zn65 2.114 . S
O77 C79 1.166 . S
O78 Zn63 1.905 . S
O78 C79 1.182 . S
C79 O77 1.166 . S
C79 O78 1.182 . S
O80 Zn65 2.080 . S
O80 C83 1.305 . S
O81 Zn64 1.920 1_545 S
O81 C83 1.234 1_545 S
C82 O68 1.305 . S
C82 O69 1.234 . S
C83 O80 1.305 . S
C83 O81 1.234 1_565 S
Zn84 O90 1.920 1_455 S
Zn84 O96 1.898 . S
Zn84 O99 1.905 . S
Zn85 O93 1.905 . S
Zn85 O94 1.898 . S
Zn85 O102 1.920 . S
Zn86 O89 2.080 . S
Zn86 O92 2.114 . S
Zn86 O95 2.120 . S
Zn86 O97 2.120 . S
Zn86 O98 2.114 . S
Zn86 O101 2.080 . S
C87 O92 1.166 . S
C87 O93 1.182 . S
C88 O94 1.167 . S
C88 O95 1.299 . S
O89 Zn86 2.080 . S
O89 C103 1.305 . S
O90 Zn84 1.920 1_655 S
O90 C103 1.234 1_655 S
C91 O96 1.167 . S
C91 O97 1.299 . S
O92 Zn86 2.114 . S
O92 C87 1.166 . S
O93 Zn85 1.905 . S
O93 C87 1.182 . S
O94 Zn85 1.898 . S
O94 C88 1.167 . S
O95 Zn86 2.120 . S
O95 C88 1.299 . S
O96 Zn84 1.898 . S
O96 C91 1.167 . S
O97 Zn86 2.120 . S
O97 C91 1.299 . S
O98 Zn86 2.114 . S
O98 C100 1.166 . S
O99 Zn84 1.905 . S
O99 C100 1.182 . S
C100 O98 1.166 . S
C100 O99 1.182 . S
O101 Zn86 2.080 . S
O101 C104 1.305 . S
O102 Zn85 1.920 . S
O102 C104 1.234 . S
C103 O89 1.305 . S
C103 O90 1.234 1_455 S
C104 O101 1.305 . S
C104 O102 1.234 . S
Zn105 O111 1.920 . S
Zn105 O117 1.898 . S
Zn105 O120 1.905 . S
Zn106 O114 1.905 . S
Zn106 O115 1.898 . S
Zn106 O123 1.920 1_545 S
Zn107 O110 2.080 . S
Zn107 O113 2.114 . S
Zn107 O116 2.120 . S
Zn107 O118 2.120 . S
Zn107 O119 2.114 . S
Zn107 O122 2.080 . S
C108 O113 1.166 . S
C108 O114 1.182 . S
C109 O115 1.167 . S
C109 O116 1.299 . S
O110 Zn107 2.080 . S
O110 C124 1.305 . S
O111 Zn105 1.920 . S
O111 C124 1.234 . S
C112 O117 1.167 . S
C112 O118 1.299 . S
O113 Zn107 2.114 . S
O113 C108 1.166 . S
O114 Zn106 1.905 . S
O114 C108 1.182 . S
O115 Zn106 1.898 . S
O115 C109 1.167 . S
O116 Zn107 2.120 . S
O116 C109 1.299 . S
O117 Zn105 1.898 . S
O117 C112 1.167 . S
O118 Zn107 2.120 . S
O118 C112 1.299 . S
O119 Zn107 2.114 . S
O119 C121 1.166 . S
O120 Zn105 1.905 . S
O120 C121 1.182 . S
C121 O119 1.166 . S
C121 O120 1.182 . S
O122 Zn107 2.080 . S
O122 C125 1.305 . S
O123 Zn106 1.920 1_565 S
O123 C125 1.234 1_565 S
C124 O110 1.305 . S
C124 O111 1.234 . S
C125 O122 1.305 . S
C125 O123 1.234 1_545 S
Zn126 O132 1.920 1_655 S
Zn126 O138 1.898 . S
Zn126 O141 1.905 . S
Zn127 O135 1.905 . S
Zn127 O136 1.898 . S
Zn127 O144 1.920 . S
Zn128 O131 2.080 . S
Zn128 O134 2.114 . S
Zn128 O137 2.120 . S
Zn128 O139 2.120 . S
Zn128 O140 2.114 . S
Zn128 O143 2.080 . S
C129 O134 1.166 . S
C129 O135 1.182 . S
C130 O136 1.167 . S
C130 O137 1.299 . S
O131 Zn128 2.080 . S
O131 C145 1.305 . S
O132 Zn126 1.920 1_455 S
O132 C145 1.234 1_455 S
C133 O138 1.167 . S
C133 O139 1.299 . S
O134 Zn128 2.114 . S
O134 C129 1.166 . S
O135 Zn127 1.905 . S
O135 C129 1.182 . S
O136 Zn127 1.898 . S
O136 C130 1.167 . S
O137 Zn128 2.120 . S
O137 C130 1.299 . S
O138 Zn126 1.898 . S
O138 C133 1.167 . S
O139 Zn128 2.120 . S
O139 C133 1.299 . S
O140 Zn128 2.114 . S
O140 C142 1.166 . S
O141 Zn126 1.905 . S
O141 C142 1.182 . S
C142 O140 1.166 . S
C142 O141 1.182 . S
O143 Zn128 2.080 . S
O143 C146 1.305 . S
O144 Zn127 1.920 . S
O144 C146 1.234 . S
C145 O131 1.305 . S
C145 O132 1.234 1_655 S
C146 O143 1.305 . S
C146 O144 1.234 . S
Zn147 O153 1.920 1_565 S
Zn147 O159 1.898 . S
Zn147 O162 1.905 . S
Zn148 O156 1.905 . S
Zn148 O157 1.898 . S
Zn148 O165 1.920 . S
Zn149 O152 2.080 . S
Zn149 O155 2.114 . S
Zn149 O158 2.120 . S
Zn149 O160 2.120 . S
Zn149 O161 2.114 . S
Zn149 O164 2.080 . S
C150 O155 1.166 . S
C150 O156 1.182 . S
C151 O157 1.167 . S
C151 O158 1.299 . S
O152 Zn149 2.080 . S
O152 C166 1.305 . S
O153 Zn147 1.920 1_545 S
O153 C166 1.234 1_545 S
C154 O159 1.167 . S
C154 O160 1.299 . S
O155 Zn149 2.114 . S
O155 C150 1.166 . S
O156 Zn148 1.905 . S
O156 C150 1.182 . S
O157 Zn148 1.898 . S
O157 C151 1.167 . S
O158 Zn149 2.120 . S
O158 C151 1.299 . S
O159 Zn147 1.898 . S
O159 C154 1.167 . S
O160 Zn149 2.120 . S
O160 C154 1.299 . S
O161 Zn149 2.114 . S
O161 C163 1.166 . S
O162 Zn147 1.905 . S
O162 C163 1.182 . S
C163 O161 1.166 . S
C163 O162 1.182 . S
O164 Zn149 2.080 . S
O164 C167 1.305 . S
O165 Zn148 1.920 . S
O165 C167 1.234 . S
C166 O152 1.305 . S
C166 O153 1.234 1_565 S
C167 O164 1.305 . S
C167 O165 1.234 . S
Zn168 O174 1.920 . S
Zn168 O180 1.898 . S
Zn168 O183 1.905 . S
Zn169 O177 1.905 . S
Zn169 O178 1.898 . S
Zn169 O186 1.920 1_545 S
Zn170 O173 2.080 . S
Zn170 O176 2.114 . S
Zn170 O179 2.120 . S
Zn170 O181 2.120 . S
Zn170 O182 2.114 . S
Zn170 O185 2.080 . S
C171 O176 1.166 . S
C171 O177 1.182 . S
C172 O178 1.167 . S
C172 O179 1.299 . S
O173 Zn170 2.080 . S
O173 C187 1.305 . S
O174 Zn168 1.920 . S
O174 C187 1.234 . S
C175 O180 1.167 . S
C175 O181 1.299 . S
O176 Zn170 2.114 . S
O176 C171 1.166 . S
O177 Zn169 1.905 . S
O177 C171 1.182 . S
O178 Zn169 1.898 . S
O178 C172 1.167 . S
O179 Zn170 2.120 . S
O179 C172 1.299 . S
O180 Zn168 1.898 . S
O180 C175 1.167 . S
O181 Zn170 2.120 . S
O181 C175 1.299 . S
O182 Zn170 2.114 . S
O182 C184 1.166 . S
O183 Zn168 1.905 . S
O183 C184 1.182 . S
C184 O182 1.166 . S
C184 O183 1.182 . S
O185 Zn170 2.080 . S
O185 C188 1.305 . S
O186 Zn169 1.920 1_565 S
O186 C188 1.234 1_565 S
C187 O173 1.305 . S
C187 O174 1.234 . S
C188 O185 1.305 . S
C188 O186 1.234 1_545 S
Zn189 O195 1.920 1_655 S
Zn189 O201 1.898 . S
Zn189 O204 1.905 . S
Zn190 O198 1.905 . S
Zn190 O199 1.898 . S
Zn190 O207 1.920 . S
Zn191 O194 2.080 . S
Zn191 O197 2.114 . S
Zn191 O200 2.120 . S
Zn191 O202 2.120 . S
Zn191 O203 2.114 . S
Zn191 O206 2.080 . S
C192 O197 1.166 . S
C192 O198 1.182 . S
C193 O199 1.167 . S
C193 O200 1.299 . S
O194 Zn191 2.080 . S
O194 C208 1.305 . S
O195 Zn189 1.920 1_455 S
O195 C208 1.234 1_455 S
C196 O201 1.167 . S
C196 O202 1.299 . S
O197 Zn191 2.114 . S
O197 C192 1.166 . S
O198 Zn190 1.905 . S
O198 C192 1.182 . S
O199 Zn190 1.898 . S
O199 C193 1.167 . S
O200 Zn191 2.120 . S
O200 C193 1.299 . S
O201 Zn189 1.898 . S
O201 C196 1.167 . S
O202 Zn191 2.120 . S
O202 C196 1.299 . S
O203 Zn191 2.114 . S
O203 C205 1.166 . S
O204 Zn189 1.905 . S
O204 C205 1.182 . S
C205 O203 1.166 . S
C205 O204 1.182 . S
O206 Zn191 2.080 . S
O206 C209 1.305 . S
O207 Zn190 1.920 . S
O207 C209 1.234 . S
C208 O194 1.305 . S
C208 O195 1.234 1_655 S
C209 O206 1.305 . S
C209 O207 1.234 . S
Zn210 O216 1.920 . S
Zn210 O222 1.898 . S
Zn210 O225 1.905 . S
Zn211 O219 1.905 . S
Zn211 O220 1.898 . S
Zn211 O228 1.920 1_565 S
Zn212 O215 2.080 . S
Zn212 O218 2.114 . S
Zn212 O221 2.120 . S
Zn212 O223 2.120 . S
Zn212 O224 2.114 . S
Zn212 O227 2.080 . S
C213 O218 1.166 . S
C213 O219 1.182 . S
C214 O220 1.167 . S
C214 O221 1.299 . S
O215 Zn212 2.080 . S
O215 C229 1.305 . S
O216 Zn210 1.920 . S
O216 C229 1.234 . S
C217 O222 1.167 . S
C217 O223 1.299 . S
O218 Zn212 2.114 . S
O218 C213 1.166 . S
O219 Zn211 1.905 . S
O219 C213 1.182 . S
O220 Zn211 1.898 . S
O220 C214 1.167 . S
O221 Zn212 2.120 . S
O221 C214 1.299 . S
O222 Zn210 1.898 . S
O222 C217 1.167 . S
O223 Zn212 2.120 . S
O223 C217 1.299 . S
O224 Zn212 2.114 . S
O224 C226 1.166 . S
O225 Zn210 1.905 . S
O225 C226 1.182 . S
C226 O224 1.166 . S
C226 O225 1.182 . S
O227 Zn212 2.080 . S
O227 C230 1.305 . S
O228 Zn211 1.920 1_545 S
O228 C230 1.234 1_545 S
C229 O215 1.305 . S
C229 O216 1.234 . S
C230 O227 1.305 . S
C230 O228 1.234 1_565 S
Zn231 O237 1.920 . S
Zn231 O243 1.898 . S
Zn231 O246 1.905 . S
Zn232 O240 1.905 . S
Zn232 O241 1.898 . S
Zn232 O249 1.920 1_455 S
Zn233 O236 2.080 . S
Zn233 O239 2.114 . S
Zn233 O242 2.120 . S
Zn233 O244 2.120 . S
Zn233 O245 2.114 . S
Zn233 O248 2.080 . S
C234 O239 1.166 . S
C234 O240 1.182 . S
C235 O241 1.167 . S
C235 O242 1.299 . S
O236 Zn233 2.080 . S
O236 C250 1.305 . S
O237 Zn231 1.920 . S
O237 C250 1.234 . S
C238 O243 1.167 . S
C238 O244 1.299 . S
O239 Zn233 2.114 . S
O239 C234 1.166 . S
O240 Zn232 1.905 . S
O240 C234 1.182 . S
O241 Zn232 1.898 . S
O241 C235 1.167 . S
O242 Zn233 2.120 . S
O242 C235 1.299 . S
O243 Zn231 1.898 . S
O243 C238 1.167 . S
O244 Zn233 2.120 . S
O244 C238 1.299 . S
O245 Zn233 2.114 . S
O245 C247 1.166 . S
O246 Zn231 1.905 . S
O246 C247 1.182 . S
C247 O245 1.166 . S
C247 O246 1.182 . S
O248 Zn233 2.080 . S
O248 C251 1.305 . S
O249 Zn232 1.920 1_655 S
O249 C251 1.234 1_655 S
C250 O236 1.305 . S
C250 O237 1.234 . S
C251 O248 1.305 . S
C251 O249 1.234 1_455 S
Zn252 O258 1.920 1_565 S
Zn252 O264 1.898 . S
Zn252 O267 1.905 . S
Zn253 O261 1.905 . S
Zn253 O262 1.898 . S
Zn253 O270 1.920 . S
Zn254 O257 2.080 . S
Zn254 O260 2.114 . S
Zn254 O263 2.120 . S
Zn254 O265 2.120 . S
Zn254 O266 2.114 . S
Zn254 O269 2.080 . S
C255 O260 1.166 . S
C255 O261 1.182 . S
C256 O262 1.167 . S
C256 O263 1.299 . S
O257 Zn254 2.080 . S
O257 C271 1.305 . S
O258 Zn252 1.920 1_545 S
O258 C271 1.234 1_545 S
C259 O264 1.167 . S
C259 O265 1.299 . S
O260 Zn254 2.114 . S
O260 C255 1.166 . S
O261 Zn253 1.905 . S
O261 C255 1.182 . S
O262 Zn253 1.898 . S
O262 C256 1.167 . S
O263 Zn254 2.120 . S
O263 C256 1.299 . S
O264 Zn252 1.898 . S
O264 C259 1.167 . S
O265 Zn254 2.120 . S
O265 C259 1.299 . S
O266 Zn254 2.114 . S
O266 C268 1.166 . S
O267 Zn252 1.905 . S
O267 C268 1.182 . S
C268 O266 1.166 . S
C268 O267 1.182 . S
O269 Zn254 2.080 . S
O269 C272 1.305 . S
O270 Zn253 1.920 . S
O270 C272 1.234 . S
C271 O257 1.305 . S
C271 O258 1.234 1_565 S
C272 O269 1.305 . S
C272 O270 1.234 . S
Zn273 O279 1.920 . S
Zn273 O285 1.898 . S
Zn273 O288 1.905 . S
Zn274 O282 1.905 . S
Zn274 O283 1.898 . S
Zn274 O291 1.920 1_455 S
Zn275 O278 2.080 . S
Zn275 O281 2.114 . S
Zn275 O284 2.120 . S
Zn275 O286 2.120 . S
Zn275 O287 2.114 . S
Zn275 O290 2.080 . S
C276 O281 1.166 . S
C276 O282 1.182 . S
C277 O283 1.167 . S
C277 O284 1.299 . S
O278 Zn275 2.080 . S
O278 C292 1.305 . S
O279 Zn273 1.920 . S
O279 C292 1.234 . S
C280 O285 1.167 . S
C280 O286 1.299 . S
O281 Zn275 2.114 . S
O281 C276 1.166 . S
O282 Zn274 1.905 . S
O282 C276 1.182 . S
O283 Zn274 1.898 . S
O283 C277 1.167 . S
O284 Zn275 2.120 . S
O284 C277 1.299 . S
O285 Zn273 1.898 . S
O285 C280 1.167 . S
O286 Zn275 2.120 . S
O286 C280 1.299 . S
O287 Zn275 2.114 . S
O287 C289 1.166 . S
O288 Zn273 1.905 . S
O288 C289 1.182 . S
C289 O287 1.166 . S
C289 O288 1.182 . S
O290 Zn275 2.080 . S
O290 C293 1.305 . S
O291 Zn274 1.920 1_655 S
O291 C293 1.234 1_655 S
C292 O278 1.305 . S
C292 O279 1.234 . S
C293 O290 1.305 . S
C293 O291 1.234 1_455 S
Zn294 O300 1.920 1_545 S
Zn294 O306 1.898 . S
Zn294 O309 1.905 . S
Zn295 O303 1.905 . S
Zn295 O304 1.898 . S
Zn295 O312 1.920 . S
Zn296 O299 2.080 . S
Zn296 O302 2.114 . S
Zn296 O305 2.120 . S
Zn296 O307 2.120 . S
Zn296 O308 2.114 . S
Zn296 O311 2.080 . S
C297 O302 1.166 . S
C297 O303 1.182 . S
C298 O304 1.167 . S
C298 O305 1.299 . S
O299 Zn296 2.080 . S
O299 C313 1.305 . S
O300 Zn294 1.920 1_565 S
O300 C313 1.234 1_565 S
C301 O306 1.167 . S
C301 O307 1.299 . S
O302 Zn296 2.114 . S
O302 C297 1.166 . S
O303 Zn295 1.905 . S
O303 C297 1.182 . S
O304 Zn295 1.898 . S
O304 C298 1.167 . S
O305 Zn296 2.120 . S
O305 C298 1.299 . S
O306 Zn294 1.898 . S
O306 C301 1.167 . S
O307 Zn296 2.120 . S
O307 C301 1.299 . S
O308 Zn296 2.114 . S
O308 C310 1.166 . S
O309 Zn294 1.905 . S
O309 C310 1.182 . S
C310 O308 1.166 . S
C310 O309 1.182 . S
O311 Zn296 2.080 . S
O311 C314 1.305 . S
O312 Zn295 1.920 . S
O312 C314 1.234 . S
C313 O299 1.305 . S
C313 O300 1.234 1_545 S
C314 O311 1.305 . S
C314 O312 1.234 . S
Zn315 O321 1.920 . S
Zn315 O327 1.898 . S
Zn315 O330 1.905 . S
Zn316 O324 1.905 . S
Zn316 O325 1.898 . S
Zn316 O333 1.920 1_655 S
Zn317 O320 2.080 . S
Zn317 O323 2.114 . S
Zn317 O326 2.120 . S
Zn317 O328 2.120 . S
Zn317 O329 2.114 . S
Zn317 O332 2.080 . S
C318 O323 1.166 . S
C318 O324 1.182 . S
C319 O325 1.167 . S
C319 O326 1.299 . S
O320 Zn317 2.080 . S
O320 C334 1.305 . S
O321 Zn315 1.920 . S
O321 C334 1.234 . S
C322 O327 1.167 . S
C322 O328 1.299 . S
O323 Zn317 2.114 . S
O323 C318 1.166 . S
O324 Zn316 1.905 . S
O324 C318 1.182 . S
O325 Zn316 1.898 . S
O325 C319 1.167 . S
O326 Zn317 2.120 . S
O326 C319 1.299 . S
O327 Zn315 1.898 . S
O327 C322 1.167 . S
O328 Zn317 2.120 . S
O328 C322 1.299 . S
O329 Zn317 2.114 . S
O329 C331 1.166 . S
O330 Zn315 1.905 . S
O330 C331 1.182 . S
C331 O329 1.166 . S
C331 O330 1.182 . S
O332 Zn317 2.080 . S
O332 C335 1.305 . S
O333 Zn316 1.920 1_455 S
O333 C335 1.234 1_455 S
C334 O320 1.305 . S
C334 O321 1.234 . S
C335 O332 1.305 . S
C335 O333 1.234 1_655 S
Zn336 O342 1.920 1_554 S
Zn336 O348 1.898 . S
Zn336 O351 1.905 . S
Zn337 O345 1.905 . S
Zn337 O346 1.898 . S
Zn337 O354 1.920 . S
Zn338 O341 2.080 . S
Zn338 O344 2.114 . S
Zn338 O347 2.120 . S
Zn338 O349 2.120 . S
Zn338 O350 2.114 . S
Zn338 O353 2.080 . S
C339 O344 1.166 . S
C339 O345 1.182 . S
C340 O346 1.167 . S
C340 O347 1.299 . S
O341 Zn338 2.080 . S
O341 C355 1.305 . S
O342 Zn336 1.920 1_556 S
O342 C355 1.234 1_556 S
C343 O348 1.167 . S
C343 O349 1.299 . S
O344 Zn338 2.114 . S
O344 C339 1.166 . S
O345 Zn337 1.905 . S
O345 C339 1.182 . S
O346 Zn337 1.898 . S
O346 C340 1.167 . S
O347 Zn338 2.120 . S
O347 C340 1.299 . S
O348 Zn336 1.898 . S
O348 C343 1.167 . S
O349 Zn338 2.120 . S
O349 C343 1.299 . S
O350 Zn338 2.114 . S
O350 C352 1.166 . S
O351 Zn336 1.905 . S
O351 C352 1.182 . S
C352 O350 1.166 . S
C352 O351 1.182 . S
O353 Zn338 2.080 . S
O353 C356 1.305 . S
O354 Zn337 1.920 . S
O354 C356 1.234 . S
C355 O341 1.305 . S
C355 O342 1.234 1_554 S
C356 O353 1.305 . S
C356 O354 1.234 . S
Zn357 O363 1.920 1_556 S
Zn357 O369 1.898 . S
Zn357 O372 1.905 . S
Zn358 O366 1.905 . S
Zn358 O367 1.898 . S
Zn358 O375 1.920 . S
Zn359 O362 2.080 . S
Zn359 O365 2.114 . S
Zn359 O368 2.120 . S
Zn359 O370 2.120 . S
Zn359 O371 2.114 . S
Zn359 O374 2.080 . S
C360 O365 1.166 . S
C360 O366 1.182 . S
C361 O367 1.167 . S
C361 O368 1.299 . S
O362 Zn359 2.080 . S
O362 C376 1.305 . S
O363 Zn357 1.920 1_554 S
O363 C376 1.234 1_554 S
C364 O369 1.167 . S
C364 O370 1.299 . S
O365 Zn359 2.114 . S
O365 C360 1.166 . S
O366 Zn358 1.905 . S
O366 C360 1.182 . S
O367 Zn358 1.898 . S
O367 C361 1.167 . S
O368 Zn359 2.120 . S
O368 C361 1.299 . S
O369 Zn357 1.898 . S
O369 C364 1.167 . S
O370 Zn359 2.120 . S
O370 C364 1.299 . S
O371 Zn359 2.114 . S
O371 C373 1.166 . S
O372 Zn357 1.905 . S
O372 C373 1.182 . S
C373 O371 1.166 . S
C373 O372 1.182 . S
O374 Zn359 2.080 . S
O374 C377 1.305 . S
O375 Zn358 1.920 . S
O375 C377 1.234 . S
C376 O362 1.305 . S
C376 O363 1.234 1_556 S
C377 O374 1.305 . S
C377 O375 1.234 . S
Zn378 O384 1.920 . S
Zn378 O390 1.898 . S
Zn378 O393 1.905 . S
Zn379 O387 1.905 . S
Zn379 O388 1.898 . S
Zn379 O396 1.920 1_556 S
Zn380 O383 2.080 . S
Zn380 O386 2.114 . S
Zn380 O389 2.120 . S
Zn380 O391 2.120 . S
Zn380 O392 2.114 . S
Zn380 O395 2.080 . S
C381 O386 1.166 . S
C381 O387 1.182 . S
C382 O388 1.167 . S
C382 O389 1.299 . S
O383 Zn380 2.080 . S
O383 C397 1.305 . S
O384 Zn378 1.920 . S
O384 C397 1.234 . S
C385 O390 1.167 . S
C385 O391 1.299 . S
O386 Zn380 2.114 . S
O386 C381 1.166 . S
O387 Zn379 1.905 . S
O387 C381 1.182 . S
O388 Zn379 1.898 . S
O388 C382 1.167 . S
O389 Zn380 2.120 . S
O389 C382 1.299 . S
O390 Zn378 1.898 . S
O390 C385 1.167 . S
O391 Zn380 2.120 . S
O391 C385 1.299 . S
O392 Zn380 2.114 . S
O392 C394 1.166 . S
O393 Zn378 1.905 . S
O393 C394 1.182 . S
C394 O392 1.166 . S
C394 O393 1.182 . S
O395 Zn380 2.080 . S
O395 C398 1.305 . S
O396 Zn379 1.920 1_554 S
O396 C398 1.234 1_554 S
C397 O383 1.305 . S
C397 O384 1.234 . S
C398 O395 1.305 . S
C398 O396 1.234 1_556 S
Zn399 O405 1.920 . S
Zn399 O411 1.898 . S
Zn399 O414 1.905 . S
Zn400 O408 1.905 . S
Zn400 O409 1.898 . S
Zn400 O417 1.920 1_556 S
Zn401 O404 2.080 . S
Zn401 O407 2.114 . S
Zn401 O410 2.120 . S
Zn401 O412 2.120 . S
Zn401 O413 2.114 . S
Zn401 O416 2.080 . S
C402 O407 1.166 . S
C402 O408 1.182 . S
C403 O409 1.167 . S
C403 O410 1.299 . S
O404 Zn401 2.080 . S
O404 C418 1.305 . S
O405 Zn399 1.920 . S
O405 C418 1.234 . S
C406 O411 1.167 . S
C406 O412 1.299 . S
O407 Zn401 2.114 . S
O407 C402 1.166 . S
O408 Zn400 1.905 . S
O408 C402 1.182 . S
O409 Zn400 1.898 . S
O409 C403 1.167 . S
O410 Zn401 2.120 . S
O410 C403 1.299 . S
O411 Zn399 1.898 . S
O411 C406 1.167 . S
O412 Zn401 2.120 . S
O412 C406 1.299 . S
O413 Zn401 2.114 . S
O413 C415 1.166 . S
O414 Zn399 1.905 . S
O414 C415 1.182 . S
C415 O413 1.166 . S
C415 O414 1.182 . S
O416 Zn401 2.080 . S
O416 C419 1.305 . S
O417 Zn400 1.920 1_554 S
O417 C419 1.234 1_554 S
C418 O404 1.305 . S
C418 O405 1.234 . S
C419 O416 1.305 . S
C419 O417 1.234 1_556 S
Zn420 O426 1.920 1_556 S
Zn420 O432 1.898 . S
Zn420 O435 1.905 . S
Zn421 O429 1.905 . S
Zn421 O430 1.898 . S
Zn421 O438 1.920 . S
Zn422 O425 2.080 . S
Zn422 O428 2.114 . S
Zn422 O431 2.120 . S
Zn422 O433 2.120 . S
Zn422 O434 2.114 . S
Zn422 O437 2.080 . S
C423 O428 1.166 . S
C423 O429 1.182 . S
C424 O430 1.167 . S
C424 O431 1.299 . S
O425 Zn422 2.080 . S
O425 C439 1.305 . S
O426 Zn420 1.920 1_554 S
O426 C439 1.234 1_554 S
C427 O432 1.167 . S
C427 O433 1.299 . S
O428 Zn422 2.114 . S
O428 C423 1.166 . S
O429 Zn421 1.905 . S
O429 C423 1.182 . S
O430 Zn421 1.898 . S
O430 C424 1.167 . S
O431 Zn422 2.120 . S
O431 C424 1.299 . S
O432 Zn420 1.898 . S
O432 C427 1.167 . S
O433 Zn422 2.120 . S
O433 C427 1.299 . S
O434 Zn422 2.114 . S
O434 C436 1.166 . S
O435 Zn420 1.905 . S
O435 C436 1.182 . S
C436 O434 1.166 . S
C436 O435 1.182 . S
O437 Zn422 2.080 . S
O437 C440 1.305 . S
O438 Zn421 1.920 . S
O438 C440 1.234 . S
C439 O425 1.305 . S
C439 O426 1.234 1_556 S
C440 O437 1.305 . S
C440 O438 1.234 . S
Zn441 O447 1.920 . S
Zn441 O453 1.898 . S
Zn441 O456 1.905 . S
Zn442 O450 1.905 . S
Zn442 O451 1.898 . S
Zn442 O459 1.920 1_554 S
Zn443 O446 2.080 . S
Zn443 O449 2.114 . S
Zn443 O452 2.120 . S
Zn443 O454 2.120 . S
Zn443 O455 2.114 . S
Zn443 O458 2.080 . S
C444 O449 1.166 . S
C444 O450 1.182 . S
C445 O451 1.167 . S
C445 O452 1.299 . S
O446 Zn443 2.080 . S
O446 C460 1.305 . S
O447 Zn441 1.920 . S
O447 C460 1.234 . S
C448 O453 1.167 . S
C448 O454 1.299 . S
O449 Zn443 2.114 . S
O449 C444 1.166 . S
O450 Zn442 1.905 . S
O450 C444 1.182 . S
O451 Zn442 1.898 . S
O451 C445 1.167 . S
O452 Zn443 2.120 . S
O452 C445 1.299 . S
O453 Zn441 1.898 . S
O453 C448 1.167 . S
O454 Zn443 2.120 . S
O454 C448 1.299 . S
O455 Zn443 2.114 . S
O455 C457 1.166 . S
O456 Zn441 1.905 . S
O456 C457 1.182 . S
C457 O455 1.166 . S
C457 O456 1.182 . S
O458 Zn443 2.080 . S
O458 C461 1.305 . S
O459 Zn442 1.920 1_556 S
O459 C461 1.234 1_556 S
C460 O446 1.305 . S
C460 O447 1.234 . S
C461 O458 1.305 . S
C461 O459 1.234 1_554 S
Zn462 O468 1.920 1_554 S
Zn462 O474 1.898 . S
Zn462 O477 1.905 . S
Zn463 O471 1.905 . S
Zn463 O472 1.898 . S
Zn463 O480 1.920 . S
Zn464 O467 2.080 . S
Zn464 O470 2.114 . S
Zn464 O473 2.120 . S
Zn464 O475 2.120 . S
Zn464 O476 2.114 . S
Zn464 O479 2.080 . S
C465 O470 1.166 . S
C465 O471 1.182 . S
C466 O472 1.167 . S
C466 O473 1.299 . S
O467 Zn464 2.080 . S
O467 C481 1.305 . S
O468 Zn462 1.920 1_556 S
O468 C481 1.234 1_556 S
C469 O474 1.167 . S
C469 O475 1.299 . S
O470 Zn464 2.114 . S
O470 C465 1.166 . S
O471 Zn463 1.905 . S
O471 C465 1.182 . S
O472 Zn463 1.898 . S
O472 C466 1.167 . S
O473 Zn464 2.120 . S
O473 C466 1.299 . S
O474 Zn462 1.898 . S
O474 C469 1.167 . S
O475 Zn464 2.120 . S
O475 C469 1.299 . S
O476 Zn464 2.114 . S
O476 C478 1.166 . S
O477 Zn462 1.905 . S
O477 C478 1.182 . S
C478 O476 1.166 . S
C478 O477 1.182 . S
O479 Zn464 2.080 . S
O479 C482 1.305 . S
O480 Zn463 1.920 . S
O480 C482 1.234 . S
C481 O467 1.305 . S
C481 O468 1.234 1_554 S
C482 O479 1.305 . S
C482 O480 1.234 . S
Zn483 O489 1.920 1_554 S
Zn483 O495 1.898 . S
Zn483 O498 1.905 . S
Zn484 O492 1.905 . S
Zn484 O493 1.898 . S
Zn484 O501 1.920 . S
Zn485 O488 2.080 . S
Zn485 O491 2.114 . S
Zn485 O494 2.120 . S
Zn485 O496 2.120 . S
Zn485 O497 2.114 . S
Zn485 O500 2.080 . S
C486 O491 1.166 . S
C486 O492 1.182 . S
C487 O493 1.167 . S
C487 O494 1.299 . S
O488 Zn485 2.080 . S
O488 C502 1.305 . S
O489 Zn483 1.920 1_556 S
O489 C502 1.234 1_556 S
C490 O495 1.167 . S
C490 O496 1.299 . S
O491 Zn485 2.114 . S
O491 C486 1.166 . S
O492 Zn484 1.905 . S
O492 C486 1.182 . S
O493 Zn484 1.898 . S
O493 C487 1.167 . S
O494 Zn485 2.120 . S
O494 C487 1.299 . S
O495 Zn483 1.898 . S
O495 C490 1.167 . S
O496 Zn485 2.120 . S
O496 C490 1.299 . S
O497 Zn485 2.114 . S
O497 C499 1.166 . S
O498 Zn483 1.905 . S
O498 C499 1.182 . S
C499 O497 1.166 . S
C499 O498 1.182 . S
O500 Zn485 2.080 . S
O500 C503 1.305 . S
O501 Zn484 1.920 . S
O501 C503 1.234 . S
C502 O488 1.305 . S
C502 O489 1.234 1_554 S
C503 O500 1.305 . S
C503 O501 1.234 . S
Zn504 O510 1.920 . S
Zn504 O516 1.898 . S
Zn504 O519 1.905 . S
Zn505 O513 1.905 . S
Zn505 O514 1.898 . S
Zn505 O522 1.920 . S
Zn506 O509 2.080 . S
Zn506 O512 2.114 . S
Zn506 O515 2.120 . S
Zn506 O517 2.120 . S
Zn506 O518 2.114 . S
Zn506 O521 2.080 . S
C507 O512 1.166 . S
C507 O513 1.182 . S
C508 O514 1.167 . S
C508 O515 1.299 . S
O509 Zn506 2.080 . S
O509 C523 1.305 . S
O510 Zn504 1.920 . S
O510 C523 1.234 . S
C511 O516 1.167 . S
C511 O517 1.299 . S
O512 Zn506 2.114 . S
O512 C507 1.166 . S
O513 Zn505 1.905 . S
O513 C507 1.182 . S
O514 Zn505 1.898 . S
O514 C508 1.167 . S
O515 Zn506 2.120 . S
O515 C508 1.299 . S
O516 Zn504 1.898 . S
O516 C511 1.167 . S
O517 Zn506 2.120 . S
O517 C511 1.299 . S
O518 Zn506 2.114 . S
O518 C520 1.166 . S
O519 Zn504 1.905 . S
O519 C520 1.182 . S
C520 O518 1.166 . S
C520 O519 1.182 . S
O521 Zn506 2.080 . S
O521 C524 1.305 . S
O522 Zn505 1.920 . S
O522 C524 1.234 . S
C523 O509 1.305 . S
C523 O510 1.234 . S
C524 O521 1.305 . S
C524 O522 1.234 . S
Zn525 O531 1.920 . S
Zn525 O537 1.898 . S
Zn525 O540 1.905 . S
Zn526 O534 1.905 . S
Zn526 O535 1.898 . S
Zn526 O543 1.920 . S
Zn527 O530 2.080 . S
Zn527 O533 2.114 . S
Zn527 O536 2.120 . S
Zn527 O538 2.120 . S
Zn527 O539 2.114 . S
Zn527 O542 2.080 . S
C528 O533 1.166 . S
C528 O534 1.182 . S
C529 O535 1.167 . S
C529 O536 1.299 . S
O530 Zn527 2.080 . S
O530 C544 1.305 . S
O531 Zn525 1.920 . S
O531 C544 1.234 . S
C532 O537 1.167 . S
C532 O538 1.299 . S
O533 Zn527 2.114 . S
O533 C528 1.166 . S
O534 Zn526 1.905 . S
O534 C528 1.182 . S
O535 Zn526 1.898 . S
O535 C529 1.167 . S
O536 Zn527 2.120 . S
O536 C529 1.299 . S
O537 Zn525 1.898 . S
O537 C532 1.167 . S
O538 Zn527 2.120 . S
O538 C532 1.299 . S
O539 Zn527 2.114 . S
O539 C541 1.166 . S
O540 Zn525 1.905 . S
O540 C541 1.182 . S
C541 O539 1.166 . S
C541 O540 1.182 . S
O542 Zn527 2.080 . S
O542 C545 1.305 . S
O543 Zn526 1.920 . S
O543 C545 1.234 . S
C544 O530 1.305 . S
C544 O531 1.234 . S
C545 O542 1.305 . S
C545 O543 1.234 . S
Zn546 O552 1.920 . S
Zn546 O558 1.898 . S
Zn546 O561 1.905 . S
Zn547 O555 1.905 . S
Zn547 O556 1.898 . S
Zn547 O564 1.920 . S
Zn548 O551 2.080 . S
Zn548 O554 2.114 . S
Zn548 O557 2.120 . S
Zn548 O559 2.120 . S
Zn548 O560 2.114 . S
Zn548 O563 2.080 . S
C549 O554 1.166 . S
C549 O555 1.182 . S
C550 O556 1.167 . S
C550 O557 1.299 . S
O551 Zn548 2.080 . S
O551 C565 1.305 . S
O552 Zn546 1.920 . S
O552 C565 1.234 . S
C553 O558 1.167 . S
C553 O559 1.299 . S
O554 Zn548 2.114 . S
O554 C549 1.166 . S
O555 Zn547 1.905 . S
O555 C549 1.182 . S
O556 Zn547 1.898 . S
O556 C550 1.167 . S
O557 Zn548 2.120 . S
O557 C550 1.299 . S
O558 Zn546 1.898 . S
O558 C553 1.167 . S
O559 Zn548 2.120 . S
O559 C553 1.299 . S
O560 Zn548 2.114 . S
O560 C562 1.166 . S
O561 Zn546 1.905 . S
O561 C562 1.182 . S
C562 O560 1.166 . S
C562 O561 1.182 . S
O563 Zn548 2.080 . S
O563 C566 1.305 . S
O564 Zn547 1.920 . S
O564 C566 1.234 . S
C565 O551 1.305 . S
C565 O552 1.234 . S
C566 O563 1.305 . S
C566 O564 1.234 . S
Zn567 O573 1.920 . S
Zn567 O579 1.898 . S
Zn567 O582 1.905 . S
Zn568 O576 1.905 . S
Zn568 O577 1.898 . S
Zn568 O585 1.920 . S
Zn569 O572 2.080 . S
Zn569 O575 2.114 . S
Zn569 O578 2.120 . S
Zn569 O580 2.120 . S
Zn569 O581 2.114 . S
Zn569 O584 2.080 . S
C570 O575 1.166 . S
C570 O576 1.182 . S
C571 O577 1.167 . S
C571 O578 1.299 . S
O572 Zn569 2.080 . S
O572 C586 1.305 . S
O573 Zn567 1.920 . S
O573 C586 1.234 . S
C574 O579 1.167 . S
C574 O580 1.299 . S
O575 Zn569 2.114 . S
O575 C570 1.166 . S
O576 Zn568 1.905 . S
O576 C570 1.182 . S
O577 Zn568 1.898 . S
O577 C571 1.167 . S
O578 Zn569 2.120 . S
O578 C571 1.299 . S
O579 Zn567 1.898 . S
O579 C574 1.167 . S
O580 Zn569 2.120 . S
O580 C574 1.299 . S
O581 Zn569 2.114 . S
O581 C583 1.166 . S
O582 Zn567 1.905 . S
O582 C583 1.182 . S
C583 O581 1.166 . S
C583 O582 1.182 . S
O584 Zn569 2.080 . S
O584 C587 1.305 . S
O585 Zn568 1.920 . S
O585 C587 1.234 . S
C586 O572 1.305 . S
C586 O573 1.234 . S
C587 O584 1.305 . S
C587 O585 1.234 . S
Zn588 O594 1.920 . S
Zn588 O600 1.898 . S
Zn588 O603 1.905 . S
Zn589 O597 1.905 . S
Zn589 O598 1.898 . S
Zn589 O606 1.920 . S
Zn590 O593 2.080 . S
Zn590 O596 2.114 . S
Zn590 O599 2.120 . S
Zn590 O601 2.120 . S
Zn590 O602 2.114 . S
Zn590 O605 2.080 . S
C591 O596 1.166 . S
C591 O597 1.182 . S
C592 O598 1.167 . S
C592 O599 1.299 . S
O593 Zn590 2.080 . S
O593 C607 1.305 . S
O594 Zn588 1.920 . S
O594 C607 1.234 . S
C595 O600 1.167 . S
C595 O601 1.299 . S
O596 Zn590 2.114 . S
O596 C591 1.166 . S
O597 Zn589 1.905 . S
O597 C591 1.182 . S
O598 Zn589 1.898 . S
O598 C592 1.167 . S
O599 Zn590 2.120 . S
O599 C592 1.299 . S
O600 Zn588 1.898 . S
O600 C595 1.167 . S
O601 Zn590 2.120 . S
O601 C595 1.299 . S
O602 Zn590 2.114 . S
O602 C604 1.166 . S
O603 Zn588 1.905 . S
O603 C604 1.182 . S
C604 O602 1.166 . S
C604 O603 1.182 . S
O605 Zn590 2.080 . S
O605 C608 1.305 . S
O606 Zn589 1.920 . S
O606 C608 1.234 . S
C607 O593 1.305 . S
C607 O594 1.234 . S
C608 O605 1.305 . S
C608 O606 1.234 . S
Zn609 O615 1.920 . S
Zn609 O621 1.898 . S
Zn609 O624 1.905 . S
Zn610 O618 1.905 . S
Zn610 O619 1.898 . S
Zn610 O627 1.920 . S
Zn611 O614 2.080 . S
Zn611 O617 2.114 . S
Zn611 O620 2.120 . S
Zn611 O622 2.120 . S
Zn611 O623 2.114 . S
Zn611 O626 2.080 . S
C612 O617 1.166 . S
C612 O618 1.182 . S
C613 O619 1.167 . S
C613 O620 1.299 . S
O614 Zn611 2.080 . S
O614 C628 1.305 . S
O615 Zn609 1.920 . S
O615 C628 1.234 . S
C616 O621 1.167 . S
C616 O622 1.299 . S
O617 Zn611 2.114 . S
O617 C612 1.166 . S
O618 Zn610 1.905 . S
O618 C612 1.182 . S
O619 Zn610 1.898 . S
O619 C613 1.167 . S
O620 Zn611 2.120 . S
O620 C613 1.299 . S
O621 Zn609 1.898 . S
O621 C616 1.167 . S
O622 Zn611 2.120 . S
O622 C616 1.299 . S
O623 Zn611 2.114 . S
O623 C625 1.166 . S
O624 Zn609 1.905 . S
O624 C625 1.182 . S
C625 O623 1.166 . S
C625 O624 1.182 . S
O626 Zn611 2.080 . S
O626 C629 1.305 . S
O627 Zn610 1.920 . S
O627 C629 1.234 . S
C628 O614 1.305 . S
C628 O615 1.234 . S
C629 O626 1.305 . S
C629 O627 1.234 . S
Zn630 O636 1.920 . S
Zn630 O642 1.898 . S
Zn630 O645 1.905 . S
Zn631 O639 1.905 . S
Zn631 O640 1.898 . S
Zn631 O648 1.920 . S
Zn632 O635 2.080 . S
Zn632 O638 2.114 . S
Zn632 O641 2.120 . S
Zn632 O643 2.120 . S
Zn632 O644 2.114 . S
Zn632 O647 2.080 . S
C633 O638 1.166 . S
C633 O639 1.182 . S
C634 O640 1.167 . S
C634 O641 1.299 . S
O635 Zn632 2.080 . S
O635 C649 1.305 . S
O636 Zn630 1.920 . S
O636 C649 1.234 . S
C637 O642 1.167 . S
C637 O643 1.299 . S
O638 Zn632 2.114 . S
O638 C633 1.166 . S
O639 Zn631 1.905 . S
O639 C633 1.182 . S
O640 Zn631 1.898 . S
O640 C634 1.167 . S
O641 Zn632 2.120 . S
O641 C634 1.299 . S
O642 Zn630 1.898 . S
O642 C637 1.167 . S
O643 Zn632 2.120 . S
O643 C637 1.299 . S
O644 Zn632 2.114 . S
O644 C646 1.166 . S
O645 Zn630 1.905 . S
O645 C646 1.182 . S
C646 O644 1.166 . S
C646 O645 1.182 . S
O647 Zn632 2.080 . S
O647 C650 1.305 . S
O648 Zn631 1.920 . S
O648 C650 1.234 . S
C649 O635 1.305 . S
C649 O636 1.234 . S
C650 O647 1.305 . S
C650 O648 1.234 . S
Zn651 O657 1.920 . S
Zn651 O663 1.898 . S
Zn651 O666 1.905 . S
Zn652 O660 1.905 . S
Zn652 O661 1.898 . S
Zn652 O669 1.920 . S
Zn653 O656 2.080 . S
Zn653 O659 2.114 . S
Zn653 O662 2.120 . S
Zn653 O664 2.120 . S
Zn653 O665 2.114 . S
Zn653 O668 2.080 . S
C654 O659 1.166 . S
C654 O660 1.182 . S
C655 O661 1.167 . S
C655 O662 1.299 . S
O656 Zn653 2.080 . S
O656 C670 1.305 . S
O657 Zn651 1.920 . S
O657 C670 1.234 . S
C658 O663 1.167 . S
C658 O664 1.299 . S
O659 Zn653 2.114 . S
O659 C654 1.166 . S
O660 Zn652 1.905 . S
O660 C654 1.182 . S
O661 Zn652 1.898 . S
O661 C655 1.167 . S
O662 Zn653 2.120 . S
O662 C655 1.299 . S
O663 Zn651 1.898 . S
O663 C658 1.167 . S
O664 Zn653 2.120 . S
O664 C658 1.299 . S
O665 Zn653 2.114 . S
O665 C667 1.166 . S
O666 Zn651 1.905 . S
O666 C667 1.182 . S
C667 O665 1.166 . S
C667 O666 1.182 . S
O668 Zn653 2.080 . S
O668 C671 1.305 . S
O669 Zn652 1.920 . S
O669 C671 1.234 . S
C670 O656 1.305 . S
C670 O657 1.234 . S
C671 O668 1.305 . S
C671 O669 1.234 . S
Zn672 O678 1.920 . S
Zn672 O684 1.898 . S
Zn672 O687 1.905 . S
Zn673 O681 1.905 . S
Zn673 O682 1.898 . S
Zn673 O690 1.920 . S
Zn674 O677 2.080 . S
Zn674 O680 2.114 . S
Zn674 O683 2.120 . S
Zn674 O685 2.120 . S
Zn674 O686 2.114 . S
Zn674 O689 2.080 . S
C675 O680 1.166 . S
C675 O681 1.182 . S
C676 O682 1.167 . S
C676 O683 1.299 . S
O677 Zn674 2.080 . S
O677 C691 1.305 . S
O678 Zn672 1.920 . S
O678 C691 1.234 . S
C679 O684 1.167 . S
C679 O685 1.299 . S
O680 Zn674 2.114 . S
O680 C675 1.166 . S
O681 Zn673 1.905 . S
O681 C675 1.182 . S
O682 Zn673 1.898 . S
O682 C676 1.167 . S
O683 Zn674 2.120 . S
O683 C676 1.299 . S
O684 Zn672 1.898 . S
O684 C679 1.167 . S
O685 Zn674 2.120 . S
O685 C679 1.299 . S
O686 Zn674 2.114 . S
O686 C688 1.166 . S
O687 Zn672 1.905 . S
O687 C688 1.182 . S
C688 O686 1.166 . S
C688 O687 1.182 . S
O689 Zn674 2.080 . S
O689 C692 1.305 . S
O690 Zn673 1.920 . S
O690 C692 1.234 . S
C691 O677 1.305 . S
C691 O678 1.234 . S
C692 O689 1.305 . S
C692 O690 1.234 . S
Zn693 O699 1.920 . S
Zn693 O705 1.898 . S
Zn693 O708 1.905 . S
Zn694 O702 1.905 . S
Zn694 O703 1.898 . S
Zn694 O711 1.920 . S
Zn695 O698 2.080 . S
Zn695 O701 2.114 . S
Zn695 O704 2.120 . S
Zn695 O706 2.120 . S
Zn695 O707 2.114 . S
Zn695 O710 2.080 . S
C696 O701 1.166 . S
C696 O702 1.182 . S
C697 O703 1.167 . S
C697 O704 1.299 . S
O698 Zn695 2.080 . S
O698 C712 1.305 . S
O699 Zn693 1.920 . S
O699 C712 1.234 . S
C700 O705 1.167 . S
C700 O706 1.299 . S
O701 Zn695 2.114 . S
O701 C696 1.166 . S
O702 Zn694 1.905 . S
O702 C696 1.182 . S
O703 Zn694 1.898 . S
O703 C697 1.167 . S
O704 Zn695 2.120 . S
O704 C697 1.299 . S
O705 Zn693 1.898 . S
O705 C700 1.167 . S
O706 Zn695 2.120 . S
O706 C700 1.299 . S
O707 Zn695 2.114 . S
O707 C709 1.166 . S
O708 Zn693 1.905 . S
O708 C709 1.182 . S
C709 O707 1.166 . S
C709 O708 1.182 . S
O710 Zn695 2.080 . S
O710 C713 1.305 . S
O711 Zn694 1.920 . S
O711 C713 1.234 . S
C712 O698 1.305 . S
C712 O699 1.234 . S
C713 O710 1.305 . S
C713 O711 1.234 . S
Zn714 O720 1.920 . S
Zn714 O726 1.898 . S
Zn714 O729 1.905 . S
Zn715 O723 1.905 . S
Zn715 O724 1.898 . S
Zn715 O732 1.920 . S
Zn716 O719 2.080 . S
Zn716 O722 2.114 . S
Zn716 O725 2.120 . S
Zn716 O727 2.120 . S
Zn716 O728 2.114 . S
Zn716 O731 2.080 . S
C717 O722 1.166 . S
C717 O723 1.182 . S
C718 O724 1.167 . S
C718 O725 1.299 . S
O719 Zn716 2.080 . S
O719 C733 1.305 . S
O720 Zn714 1.920 . S
O720 C733 1.234 . S
C721 O726 1.167 . S
C721 O727 1.299 . S
O722 Zn716 2.114 . S
O722 C717 1.166 . S
O723 Zn715 1.905 . S
O723 C717 1.182 . S
O724 Zn715 1.898 . S
O724 C718 1.167 . S
O725 Zn716 2.120 . S
O725 C718 1.299 . S
O726 Zn714 1.898 . S
O726 C721 1.167 . S
O727 Zn716 2.120 . S
O727 C721 1.299 . S
O728 Zn716 2.114 . S
O728 C730 1.166 . S
O729 Zn714 1.905 . S
O729 C730 1.182 . S
C730 O728 1.166 . S
C730 O729 1.182 . S
O731 Zn716 2.080 . S
O731 C734 1.305 . S
O732 Zn715 1.920 . S
O732 C734 1.234 . S
C733 O719 1.305 . S
C733 O720 1.234 . S
C734 O731 1.305 . S
C734 O732 1.234 . S
Zn735 O741 1.920 . S
Zn735 O747 1.898 . S
Zn735 O750 1.905 . S
Zn736 O744 1.905 . S
Zn736 O745 1.898 . S
Zn736 O753 1.920 . S
Zn737 O740 2.080 . S
Zn737 O743 2.114 . S
Zn737 O746 2.120 . S
Zn737 O748 2.120 . S
Zn737 O749 2.114 . S
Zn737 O752 2.080 . S
C738 O743 1.166 . S
C738 O744 1.182 . S
C739 O745 1.167 . S
C739 O746 1.299 . S
O740 Zn737 2.080 . S
O740 C754 1.305 . S
O741 Zn735 1.920 . S
O741 C754 1.234 . S
C742 O747 1.167 . S
C742 O748 1.299 . S
O743 Zn737 2.114 . S
O743 C738 1.166 . S
O744 Zn736 1.905 . S
O744 C738 1.182 . S
O745 Zn736 1.898 . S
O745 C739 1.167 . S
O746 Zn737 2.120 . S
O746 C739 1.299 . S
O747 Zn735 1.898 . S
O747 C742 1.167 . S
O748 Zn737 2.120 . S
O748 C742 1.299 . S
O749 Zn737 2.114 . S
O749 C751 1.166 . S
O750 Zn735 1.905 . S
O750 C751 1.182 . S
C751 O749 1.166 . S
C751 O750 1.182 . S
O752 Zn737 2.080 . S
O752 C755 1.305 . S
O753 Zn736 1.920 . S
O753 C755 1.234 . S
C754 O740 1.305 . S
C754 O741 1.234 . S
C755 O752 1.305 . S
C755 O753 1.234 . S
Zn756 O762 1.920 . S
Zn756 O768 1.898 . S
Zn756 O771 1.905 . S
Zn757 O765 1.905 . S
Zn757 O766 1.898 . S
Zn757 O774 1.920 . S
Zn758 O761 2.080 . S
Zn758 O764 2.114 . S
Zn758 O767 2.120 . S
Zn758 O769 2.120 . S
Zn758 O770 2.114 . S
Zn758 O773 2.080 . S
C759 O764 1.166 . S
C759 O765 1.182 . S
C760 O766 1.167 . S
C760 O767 1.299 . S
O761 Zn758 2.080 . S
O761 C775 1.305 . S
O762 Zn756 1.920 . S
O762 C775 1.234 . S
C763 O768 1.167 . S
C763 O769 1.299 . S
O764 Zn758 2.114 . S
O764 C759 1.166 . S
O765 Zn757 1.905 . S
O765 C759 1.182 . S
O766 Zn757 1.898 . S
O766 C760 1.167 . S
O767 Zn758 2.120 . S
O767 C760 1.299 . S
O768 Zn756 1.898 . S
O768 C763 1.167 . S
O769 Zn758 2.120 . S
O769 C763 1.299 . S
O770 Zn758 2.114 . S
O770 C772 1.166 . S
O771 Zn756 1.905 . S
O771 C772 1.182 . S
C772 O770 1.166 . S
C772 O771 1.182 . S
O773 Zn758 2.080 . S
O773 C776 1.305 . S
O774 Zn757 1.920 . S
O774 C776 1.234 . S
C775 O761 1.305 . S
C775 O762 1.234 . S
C776 O773 1.305 . S
C776 O774 1.234 . S
Zn777 O783 1.920 . S
Zn777 O789 1.898 . S
Zn777 O792 1.905 . S
Zn778 O786 1.905 . S
Zn778 O787 1.898 . S
Zn778 O795 1.920 . S
Zn779 O782 2.080 . S
Zn779 O785 2.114 . S
Zn779 O788 2.120 . S
Zn779 O790 2.120 . S
Zn779 O791 2.114 . S
Zn779 O794 2.080 . S
C780 O785 1.166 . S
C780 O786 1.182 . S
C781 O787 1.167 . S
C781 O788 1.299 . S
O782 Zn779 2.080 . S
O782 C796 1.305 . S
O783 Zn777 1.920 . S
O783 C796 1.234 . S
C784 O789 1.167 . S
C784 O790 1.299 . S
O785 Zn779 2.114 . S
O785 C780 1.166 . S
O786 Zn778 1.905 . S
O786 C780 1.182 . S
O787 Zn778 1.898 . S
O787 C781 1.167 . S
O788 Zn779 2.120 . S
O788 C781 1.299 . S
O789 Zn777 1.898 . S
O789 C784 1.167 . S
O790 Zn779 2.120 . S
O790 C784 1.299 . S
O791 Zn779 2.114 . S
O791 C793 1.166 . S
O792 Zn777 1.905 . S
O792 C793 1.182 . S
C793 O791 1.166 . S
C793 O792 1.182 . S
O794 Zn779 2.080 . S
O794 C797 1.305 . S
O795 Zn778 1.920 . S
O795 C797 1.234 . S
C796 O782 1.305 . S
C796 O783 1.234 . S
C797 O794 1.305 . S
C797 O795 1.234 . S
Zn798 O804 1.920 . S
Zn798 O810 1.898 . S
Zn798 O813 1.905 . S
Zn799 O807 1.905 . S
Zn799 O808 1.898 . S
Zn799 O816 1.920 . S
Zn800 O803 2.080 . S
Zn800 O806 2.114 . S
Zn800 O809 2.120 . S
Zn800 O811 2.120 . S
Zn800 O812 2.114 . S
Zn800 O815 2.080 . S
C801 O806 1.166 . S
C801 O807 1.182 . S
C802 O808 1.167 . S
C802 O809 1.299 . S
O803 Zn800 2.080 . S
O803 C817 1.305 . S
O804 Zn798 1.920 . S
O804 C817 1.234 . S
C805 O810 1.167 . S
C805 O811 1.299 . S
O806 Zn800 2.114 . S
O806 C801 1.166 . S
O807 Zn799 1.905 . S
O807 C801 1.182 . S
O808 Zn799 1.898 . S
O808 C802 1.167 . S
O809 Zn800 2.120 . S
O809 C802 1.299 . S
O810 Zn798 1.898 . S
O810 C805 1.167 . S
O811 Zn800 2.120 . S
O811 C805 1.299 . S
O812 Zn800 2.114 . S
O812 C814 1.166 . S
O813 Zn798 1.905 . S
O813 C814 1.182 . S
C814 O812 1.166 . S
C814 O813 1.182 . S
O815 Zn800 2.080 . S
O815 C818 1.305 . S
O816 Zn799 1.920 . S
O816 C818 1.234 . S
C817 O803 1.305 . S
C817 O804 1.234 . S
C818 O815 1.305 . S
C818 O816 1.234 . S
Zn819 O825 1.920 . S
Zn819 O831 1.898 . S
Zn819 O834 1.905 . S
Zn820 O828 1.905 . S
Zn820 O829 1.898 . S
Zn820 O837 1.920 . S
Zn821 O824 2.080 . S
Zn821 O827 2.114 . S
Zn821 O830 2.120 . S
Zn821 O832 2.120 . S
Zn821 O833 2.114 . S
Zn821 O836 2.080 . S
C822 O827 1.166 . S
C822 O828 1.182 . S
C823 O829 1.167 . S
C823 O830 1.299 . S
O824 Zn821 2.080 . S
O824 C838 1.305 . S
O825 Zn819 1.920 . S
O825 C838 1.234 . S
C826 O831 1.167 . S
C826 O832 1.299 . S
O827 Zn821 2.114 . S
O827 C822 1.166 . S
O828 Zn820 1.905 . S
O828 C822 1.182 . S
O829 Zn820 1.898 . S
O829 C823 1.167 . S
O830 Zn821 2.120 . S
O830 C823 1.299 . S
O831 Zn819 1.898 . S
O831 C826 1.167 . S
O832 Zn821 2.120 . S
O832 C826 1.299 . S
O833 Zn821 2.114 . S
O833 C835 1.166 . S
O834 Zn819 1.905 . S
O834 C835 1.182 . S
C835 O833 1.166 . S
C835 O834 1.182 . S
O836 Zn821 2.080 . S
O836 C839 1.305 . S
O837 Zn820 1.920 . S
O837 C839 1.234 . S
C838 O824 1.305 . S
C838 O825 1.234 . S
C839 O836 1.305 . S
C839 O837 1.234 . S
Zn840 O846 1.920 . S
Zn840 O852 1.898 . S
Zn840 O855 1.905 . S
Zn841 O849 1.905 . S
Zn841 O850 1.898 . S
Zn841 O858 1.920 . S
Zn842 O845 2.080 . S
Zn842 O848 2.114 . S
Zn842 O851 2.120 . S
Zn842 O853 2.120 . S
Zn842 O854 2.114 . S
Zn842 O857 2.080 . S
C843 O848 1.166 . S
C843 O849 1.182 . S
C844 O850 1.167 . S
C844 O851 1.299 . S
O845 Zn842 2.080 . S
O845 C859 1.305 . S
O846 Zn840 1.920 . S
O846 C859 1.234 . S
C847 O852 1.167 . S
C847 O853 1.299 . S
O848 Zn842 2.114 . S
O848 C843 1.166 . S
O849 Zn841 1.905 . S
O849 C843 1.182 . S
O850 Zn841 1.898 . S
O850 C844 1.167 . S
O851 Zn842 2.120 . S
O851 C844 1.299 . S
O852 Zn840 1.898 . S
O852 C847 1.167 . S
O853 Zn842 2.120 . S
O853 C847 1.299 . S
O854 Zn842 2.114 . S
O854 C856 1.166 . S
O855 Zn840 1.905 . S
O855 C856 1.182 . S
C856 O854 1.166 . S
C856 O855 1.182 . S
O857 Zn842 2.080 . S
O857 C860 1.305 . S
O858 Zn841 1.920 . S
O858 C860 1.234 . S
C859 O845 1.305 . S
C859 O846 1.234 . S
C860 O857 1.305 . S
C860 O858 1.234 . S
Zn861 O867 1.920 . S
Zn861 O873 1.898 . S
Zn861 O876 1.905 . S
Zn862 O870 1.905 . S
Zn862 O871 1.898 . S
Zn862 O879 1.920 . S
Zn863 O866 2.080 . S
Zn863 O869 2.114 . S
Zn863 O872 2.120 . S
Zn863 O874 2.120 . S
Zn863 O875 2.114 . S
Zn863 O878 2.080 . S
C864 O869 1.166 . S
C864 O870 1.182 . S
C865 O871 1.167 . S
C865 O872 1.299 . S
O866 Zn863 2.080 . S
O866 C880 1.305 . S
O867 Zn861 1.920 . S
O867 C880 1.234 . S
C868 O873 1.167 . S
C868 O874 1.299 . S
O869 Zn863 2.114 . S
O869 C864 1.166 . S
O870 Zn862 1.905 . S
O870 C864 1.182 . S
O871 Zn862 1.898 . S
O871 C865 1.167 . S
O872 Zn863 2.120 . S
O872 C865 1.299 . S
O873 Zn861 1.898 . S
O873 C868 1.167 . S
O874 Zn863 2.120 . S
O874 C868 1.299 . S
O875 Zn863 2.114 . S
O875 C877 1.166 . S
O876 Zn861 1.905 . S
O876 C877 1.182 . S
C877 O875 1.166 . S
C877 O876 1.182 . S
O878 Zn863 2.080 . S
O878 C881 1.305 . S
O879 Zn862 1.920 . S
O879 C881 1.234 . S
C880 O866 1.305 . S
C880 O867 1.234 . S
C881 O878 1.305 . S
C881 O879 1.234 . S
Zn882 O888 1.920 . S
Zn882 O894 1.898 . S
Zn882 O897 1.905 . S
Zn883 O891 1.905 . S
Zn883 O892 1.898 . S
Zn883 O900 1.920 . S
Zn884 O887 2.080 . S
Zn884 O890 2.114 . S
Zn884 O893 2.120 . S
Zn884 O895 2.120 . S
Zn884 O896 2.114 . S
Zn884 O899 2.080 . S
C885 O890 1.166 . S
C885 O891 1.182 . S
C886 O892 1.167 . S
C886 O893 1.299 . S
O887 Zn884 2.080 . S
O887 C901 1.305 . S
O888 Zn882 1.920 . S
O888 C901 1.234 . S
C889 O894 1.167 . S
C889 O895 1.299 . S
O890 Zn884 2.114 . S
O890 C885 1.166 . S
O891 Zn883 1.905 . S
O891 C885 1.182 . S
O892 Zn883 1.898 . S
O892 C886 1.167 . S
O893 Zn884 2.120 . S
O893 C886 1.299 . S
O894 Zn882 1.898 . S
O894 C889 1.167 . S
O895 Zn884 2.120 . S
O895 C889 1.299 . S
O896 Zn884 2.114 . S
O896 C898 1.166 . S
O897 Zn882 1.905 . S
O897 C898 1.182 . S
C898 O896 1.166 . S
C898 O897 1.182 . S
O899 Zn884 2.080 . S
O899 C902 1.305 . S
O900 Zn883 1.920 . S
O900 C902 1.234 . S
C901 O887 1.305 . S
C901 O888 1.234 . S
C902 O899 1.305 . S
C902 O900 1.234 . S
Zn903 O909 1.920 . S
Zn903 O915 1.898 . S
Zn903 O918 1.905 . S
Zn904 O912 1.905 . S
Zn904 O913 1.898 . S
Zn904 O921 1.920 . S
Zn905 O908 2.080 . S
Zn905 O911 2.114 . S
Zn905 O914 2.120 . S
Zn905 O916 2.120 . S
Zn905 O917 2.114 . S
Zn905 O920 2.080 . S
C906 O911 1.166 . S
C906 O912 1.182 . S
C907 O913 1.167 . S
C907 O914 1.299 . S
O908 Zn905 2.080 . S
O908 C922 1.305 . S
O909 Zn903 1.920 . S
O909 C922 1.234 . S
C910 O915 1.167 . S
C910 O916 1.299 . S
O911 Zn905 2.114 . S
O911 C906 1.166 . S
O912 Zn904 1.905 . S
O912 C906 1.182 . S
O913 Zn904 1.898 . S
O913 C907 1.167 . S
O914 Zn905 2.120 . S
O914 C907 1.299 . S
O915 Zn903 1.898 . S
O915 C910 1.167 . S
O916 Zn905 2.120 . S
O916 C910 1.299 . S
O917 Zn905 2.114 . S
O917 C919 1.166 . S
O918 Zn903 1.905 . S
O918 C919 1.182 . S
C919 O917 1.166 . S
C919 O918 1.182 . S
O920 Zn905 2.080 . S
O920 C923 1.305 . S
O921 Zn904 1.920 . S
O921 C923 1.234 . S
C922 O908 1.305 . S
C922 O909 1.234 . S
C923 O920 1.305 . S
C923 O921 1.234 . S
Zn924 O930 1.920 . S
Zn924 O936 1.898 . S
Zn924 O939 1.905 . S
Zn925 O933 1.905 . S
Zn925 O934 1.898 . S
Zn925 O942 1.920 . S
Zn926 O929 2.080 . S
Zn926 O932 2.114 . S
Zn926 O935 2.120 . S
Zn926 O937 2.120 . S
Zn926 O938 2.114 . S
Zn926 O941 2.080 . S
C927 O932 1.166 . S
C927 O933 1.182 . S
C928 O934 1.167 . S
C928 O935 1.299 . S
O929 Zn926 2.080 . S
O929 C943 1.305 . S
O930 Zn924 1.920 . S
O930 C943 1.234 . S
C931 O936 1.167 . S
C931 O937 1.299 . S
O932 Zn926 2.114 . S
O932 C927 1.166 . S
O933 Zn925 1.905 . S
O933 C927 1.182 . S
O934 Zn925 1.898 . S
O934 C928 1.167 . S
O935 Zn926 2.120 . S
O935 C928 1.299 . S
O936 Zn924 1.898 . S
O936 C931 1.167 . S
O937 Zn926 2.120 . S
O937 C931 1.299 . S
O938 Zn926 2.114 . S
O938 C940 1.166 . S
O939 Zn924 1.905 . S
O939 C940 1.182 . S
C940 O938 1.166 . S
C940 O939 1.182 . S
O941 Zn926 2.080 . S
O941 C944 1.305 . S
O942 Zn925 1.920 . S
O942 C944 1.234 . S
C943 O929 1.305 . S
C943 O930 1.234 . S
C944 O941 1.305 . S
C944 O942 1.234 . S
Zn945 O951 1.920 . S
Zn945 O957 1.898 . S
Zn945 O960 1.905 . S
Zn946 O954 1.905 . S
Zn946 O955 1.898 . S
Zn946 O963 1.920 . S
Zn947 O950 2.080 . S
Zn947 O953 2.114 . S
Zn947 O956 2.120 . S
Zn947 O958 2.120 . S
Zn947 O959 2.114 . S
Zn947 O962 2.080 . S
C948 O953 1.166 . S
C948 O954 1.182 . S
C949 O955 1.167 . S
C949 O956 1.299 . S
O950 Zn947 2.080 . S
O950 C964 1.305 . S
O951 Zn945 1.920 . S
O951 C964 1.234 . S
C952 O957 1.167 . S
C952 O958 1.299 . S
O953 Zn947 2.114 . S
O953 C948 1.166 . S
O954 Zn946 1.905 . S
O954 C948 1.182 . S
O955 Zn946 1.898 . S
O955 C949 1.167 . S
O956 Zn947 2.120 . S
O956 C949 1.299 . S
O957 Zn945 1.898 . S
O957 C952 1.167 . S
O958 Zn947 2.120 . S
O958 C952 1.299 . S
O959 Zn947 2.114 . S
O959 C961 1.166 . S
O960 Zn945 1.905 . S
O960 C961 1.182 . S
C961 O959 1.166 . S
C961 O960 1.182 . S
O962 Zn947 2.080 . S
O962 C965 1.305 . S
O963 Zn946 1.920 . S
O963 C965 1.234 . S
C964 O950 1.305 . S
C964 O951 1.234 . S
C965 O962 1.305 . S
C965 O963 1.234 . S
Zn966 O972 1.920 . S
Zn966 O978 1.898 . S
Zn966 O981 1.905 . S
Zn967 O975 1.905 . S
Zn967 O976 1.898 . S
Zn967 O984 1.920 . S
Zn968 O971 2.080 . S
Zn968 O974 2.114 . S
Zn968 O977 2.120 . S
Zn968 O979 2.120 . S
Zn968 O980 2.114 . S
Zn968 O983 2.080 . S
C969 O974 1.166 . S
C969 O975 1.182 . S
C970 O976 1.167 . S
C970 O977 1.299 . S
O971 Zn968 2.080 . S
O971 C985 1.305 . S
O972 Zn966 1.920 . S
O972 C985 1.234 . S
C973 O978 1.167 . S
C973 O979 1.299 . S
O974 Zn968 2.114 . S
O974 C969 1.166 . S
O975 Zn967 1.905 . S
O975 C969 1.182 . S
O976 Zn967 1.898 . S
O976 C970 1.167 . S
O977 Zn968 2.120 . S
O977 C970 1.299 . S
O978 Zn966 1.898 . S
O978 C973 1.167 . S
O979 Zn968 2.120 . S
O979 C973 1.299 . S
O980 Zn968 2.114 . S
O980 C982 1.166 . S
O981 Zn966 1.905 . S
O981 C982 1.182 . S
C982 O980 1.166 . S
C982 O981 1.182 . S
O983 Zn968 2.080 . S
O983 C986 1.305 . S
O984 Zn967 1.920 . S
O984 C986 1.234 . S
C985 O971 1.305 . S
C985 O972 1.234 . S
C986 O983 1.305 . S
C986 O984 1.234 . S
Zn987 O993 1.920 . S
Zn987 O999 1.898 . S
Zn987 O1002 1.905 . S
Zn988 O996 1.905 . S
Zn988 O997 1.898 . S
Zn988 O1005 1.920 . S
Zn989 O992 2.080 . S
Zn989 O995 2.114 . S
Zn989 O998 2.120 . S
Zn989 O1000 2.120 . S
Zn989 O1001 2.114 . S
Zn989 O1004 2.080 . S
C990 O995 1.166 . S
C990 O996 1.182 . S
C991 O997 1.167 . S
C991 O998 1.299 . S
O992 Zn989 2.080 . S
O992 C1006 1.305 . S
O993 Zn987 1.920 . S
O993 C1006 1.234 . S
C994 O999 1.167 . S
C994 O1000 1.299 . S
O995 Zn989 2.114 . S
O995 C990 1.166 . S
O996 Zn988 1.905 . S
O996 C990 1.182 . S
O997 Zn988 1.898 . S
O997 C991 1.167 . S
O998 Zn989 2.120 . S
O998 C991 1.299 . S
O999 Zn987 1.898 . S
O999 C994 1.167 . S
O1000 Zn989 2.120 . S
O1000 C994 1.299 . S
O1001 Zn989 2.114 . S
O1001 C1003 1.166 . S
O1002 Zn987 1.905 . S
O1002 C1003 1.182 . S
C1003 O1001 1.166 . S
C1003 O1002 1.182 . S
O1004 Zn989 2.080 . S
O1004 C1007 1.305 . S
O1005 Zn988 1.920 . S
O1005 C1007 1.234 . S
C1006 O992 1.305 . S
C1006 O993 1.234 . S
C1007 O1004 1.305 . S
C1007 O1005 1.234 . S
C19 C83 1.532 1_545 S
C20 C40 1.532 1_455 S
C41 C61 1.532 1_545 S
C62 C82 1.532 1_655 S
C104 C125 1.532 1_565 S
C124 C145 1.532 1_455 S
C146 C166 1.532 1_545 S
C167 C103 1.532 1_655 S
C187 C398 1.532 1_554 S
C419 C209 1.532 1_556 S
C439 C229 1.532 1_556 S
C376 C250 1.532 1_556 S
C272 C481 1.532 1_556 S
C292 C355 1.532 1_556 S
C314 C502 1.532 1_556 S
C334 C461 1.532 1_556 S
C208 C356 1.532 1_655 S
C377 C335 1.532 1_455 S
C397 C271 1.532 1_545 S
C418 C293 1.532 1_655 S
C440 C313 1.532 1_565 S
C251 C460 1.532 1_455 S
C482 C188 1.532 1_565 S
C503 C230 1.532 1_545 S
C587 C523 1.532 . S
C544 C524 1.532 . S
C545 C565 1.532 . S
C586 C566 1.532 . S
C608 C628 1.532 . S
C629 C649 1.532 . S
C650 C670 1.532 . S
C607 C671 1.532 . S
C902 C692 1.532 . S
C713 C923 1.532 . S
C943 C733 1.532 . S
C880 C754 1.532 . S
C776 C985 1.532 . S
C796 C860 1.532 . S
C1006 C818 1.532 . S
C839 C964 1.532 . S
C712 C859 1.532 . S
C838 C881 1.532 . S
C901 C775 1.532 . S
C922 C797 1.532 . S
C944 C817 1.532 . S
C965 C755 1.532 . S
C691 C986 1.532 . S
C1007 C734 1.532 . S
C3 C340 1.439 . S
C487 C24 1.439 . S
C45 C448 1.439 . S
C66 C466 1.439 . S
C100 C361 1.439 . S
C385 C108 1.439 . S
C142 C406 1.439 . S
C424 C163 1.439 . S
C171 C7 1.439 . S
C205 C28 1.439 . S
C213 C49 1.439 . S
C234 C70 1.439 . S
C88 C268 1.439 . S
C276 C112 1.439 . S
C310 C130 1.439 . S
C318 C151 1.439 . S
C175 C352 1.439 . S
C373 C256 1.439 . S
C381 C280 1.439 . S
C298 C402 1.439 . S
C322 C436 1.439 . S
C444 C217 1.439 . S
C478 C238 1.439 . S
C499 C193 1.439 . S
C847 C507 1.439 . S
C528 C991 1.439 . S
C549 C949 1.439 . S
C970 C570 1.439 . S
C865 C604 1.439 . S
C625 C889 1.439 . S
C910 C646 1.439 . S
C928 C667 1.439 . S
C511 C688 1.439 . S
C532 C709 1.439 . S
C553 C717 1.439 . S
C574 C738 1.439 . S
C592 C772 1.439 . S
C613 C780 1.439 . S
C634 C814 1.439 . S
C835 C655 1.439 . S
C843 C676 1.439 . S
C877 C760 1.439 . S
C885 C784 1.439 . S
C906 C802 1.439 . S
C940 C823 1.439 . S
C961 C721 1.439 . S
C982 C742 1.439 . S
C697 C1003 1.439 . S
C4 C931 1.361 . S
C868 C25 1.361 . S
C886 C46 1.361 . S
C67 C907 1.361 . S
C994 C91 1.361 . S
C952 C109 1.361 . S
C973 C133 1.361 . S
C154 C844 1.361 . S
C172 C826 1.361 . S
C763 C196 1.361 . S
C781 C214 1.361 . S
C805 C235 1.361 . S
C259 C700 1.361 . S
C277 C718 1.361 . S
C301 C739 1.361 . S
C679 C319 1.361 . S
C343 C658 1.361 . S
C364 C529 1.361 . S
C382 C550 1.361 . S
C403 C571 1.361 . S
C427 C508 1.361 . S
C616 C445 1.361 . S
C469 C637 1.361 . S
C490 C595 1.361 . S
C150 C675 0.832 . S
C696 C87 0.832 . S
C121 C730 0.832 . S
C129 C751 0.832 . S
C37 C759 0.832 . S
C793 C58 0.832 . S
C79 C801 0.832 . S
C16 C822 0.832 . S
C423 C856 0.832 . S
C990 C360 0.832 . S
C948 C394 0.832 . S
C415 C969 0.832 . S
C486 C864 0.832 . S
C457 C898 0.832 . S
C919 C465 0.832 . S
C927 C339 0.832 . S
C331 C520 0.832 . S
C192 C591 0.832 . S
C612 C226 0.832 . S
C247 C633 0.832 . S
C184 C654 0.832 . S
C289 C562 0.832 . S
C297 C583 0.832 . S
C541 C255 0.832 . S
