# Generated by pormake.
# Topology ske, (6)-cn, num edge types: 1
# Building blocks:
#     Node 0, Type 0, BuildingBlock: BETDIP_clean_sbu_0, # of connection points: 6
#     Node 1, Type 0, BuildingBlock: BETDIP_clean_sbu_0, # of connection points: 6
#     Node 2, Type 0, BuildingBlock: BETDIP_clean_sbu_0, # of connection points: 6
#     Node 3, Type 0, BuildingBlock: BETDIP_clean_sbu_0, # of connection points: 6
#     Node 4, Type 0, BuildingBlock: BETDIP_clean_sbu_0, # of connection points: 6
#     Node 5, Type 0, BuildingBlock: BETDIP_clean_sbu_0, # of connection points: 6
#     Node 6, Type 0, BuildingBlock: BETDIP_clean_sbu_0, # of connection points: 6
#     Node 7, Type 0, BuildingBlock: BETDIP_clean_sbu_0, # of connection points: 6
#     Edge 8, Type (0, 0), BuildingBlock: CIFDUS_clean_linker_0, # of connection points: 2
#     Edge 9, Type (0, 0), BuildingBlock: CIFDUS_clean_linker_0, # of connection points: 2
#     Edge 10, Type (0, 0), BuildingBlock: CIFDUS_clean_linker_0, # of connection points: 2
#     Edge 11, Type (0, 0), BuildingBlock: CIFDUS_clean_linker_0, # of connection points: 2
#     Edge 12, Type (0, 0), BuildingBlock: CIFDUS_clean_linker_0, # of connection points: 2
#     Edge 13, Type (0, 0), BuildingBlock: CIFDUS_clean_linker_0, # of connection points: 2
#     Edge 14, Type (0, 0), BuildingBlock: CIFDUS_clean_linker_0, # of connection points: 2
#     Edge 15, Type (0, 0), BuildingBlock: CIFDUS_clean_linker_0, # of connection points: 2
#     Edge 16, Type (0, 0), BuildingBlock: CIFDUS_clean_linker_0, # of connection points: 2
#     Edge 17, Type (0, 0), BuildingBlock: CIFDUS_clean_linker_0, # of connection points: 2
#     Edge 18, Type (0, 0), BuildingBlock: CIFDUS_clean_linker_0, # of connection points: 2
#     Edge 19, Type (0, 0), BuildingBlock: CIFDUS_clean_linker_0, # of connection points: 2
#     Edge 20, Type (0, 0), BuildingBlock: CIFDUS_clean_linker_0, # of connection points: 2
#     Edge 21, Type (0, 0), BuildingBlock: CIFDUS_clean_linker_0, # of connection points: 2
#     Edge 22, Type (0, 0), BuildingBlock: CIFDUS_clean_linker_0, # of connection points: 2
#     Edge 23, Type (0, 0), BuildingBlock: CIFDUS_clean_linker_0, # of connection points: 2
#     Edge 24, Type (0, 0), BuildingBlock: CIFDUS_clean_linker_0, # of connection points: 2
#     Edge 25, Type (0, 0), BuildingBlock: CIFDUS_clean_linker_0, # of connection points: 2
#     Edge 26, Type (0, 0), BuildingBlock: CIFDUS_clean_linker_0, # of connection points: 2
#     Edge 27, Type (0, 0), BuildingBlock: CIFDUS_clean_linker_0, # of connection points: 2
#     Edge 28, Type (0, 0), BuildingBlock: CIFDUS_clean_linker_0, # of connection points: 2
#     Edge 29, Type (0, 0), BuildingBlock: CIFDUS_clean_linker_0, # of connection points: 2
#     Edge 30, Type (0, 0), BuildingBlock: CIFDUS_clean_linker_0, # of connection points: 2
#     Edge 31, Type (0, 0), BuildingBlock: CIFDUS_clean_linker_0, # of connection points: 2
# Relax obj value: 0.222
# Max RMSD: 0.217
# Mean RMSD: 0.210
data_MOF--net-ske--node1-BETDIP_clean_sbu_0--edge1-CIFDUS_clean_linker_0
_symmetry_space_group_name_H-M    P1
_symmetry_Int_Tables_number       1
_symmetry_cell_setting            triclinic
loop_
_symmetry_equiv_pos_as_xyz
'x, y, z'
_cell_length_a     95.14276
_cell_length_b     25.479804
_cell_length_c     13.595011
_cell_angle_alpha  89.895074
_cell_angle_beta   89.923488
_cell_angle_gamma 90.030704
loop_
_atom_site_label
_atom_site_type_symbol
_atom_site_fract_x
_atom_site_fract_y
_atom_site_fract_z
_atom_type_partial_charge
Tb0 Tb 0.16122 0.25522 0.5257 0.0
Tb1 Tb 0.13077 0.24737 0.55403 0.0
C2 C 0.18707 0.27944 0.52716 0.0
C3 C 0.20019 0.27555 0.58604 0.0
C4 C 0.20922 0.31909 0.59075 0.0
C5 C 0.22249 0.31508 0.6349 0.0
C6 C 0.22714 0.26724 0.67548 0.0
C7 C 0.21789 0.22397 0.67315 0.0
C8 C 0.20459 0.22804 0.62891 0.0
C9 C 0.15133 0.15814 0.51424 0.0
C10 C 0.14873 0.24698 0.74374 0.0
C11 C 0.10501 0.22224 0.56045 0.0
C12 C 0.09052 0.22781 0.52107 0.0
C13 C 0.08238 0.18239 0.50833 0.0
C14 C 0.06793 0.18577 0.48918 0.0
C15 C 0.06118 0.23484 0.48215 0.0
C16 C 0.06949 0.28046 0.49101 0.0
C17 C 0.08398 0.27701 0.51052 0.0
C18 C 0.14068 0.34586 0.55437 0.0
C19 C 0.14334 0.25391 0.33501 0.0
O20 O 0.17709 0.31067 0.55828 0.0
O21 O 0.18203 0.23606 0.49026 0.0
O22 O 0.14754 0.19235 0.5762 0.0
O23 O 0.16143 0.17692 0.46145 0.0
O24 O 0.15921 0.26305 0.68698 0.0
O25 O 0.13702 0.22922 0.70413 0.0
O26 O 0.11441 0.19608 0.51011 0.0
O27 O 0.11048 0.26211 0.6069 0.0
O28 O 0.14435 0.30889 0.49869 0.0
O29 O 0.13053 0.32862 0.60856 0.0
O30 O 0.13268 0.23931 0.39224 0.0
O31 O 0.15519 0.27115 0.3741 0.0
H32 H 0.20613 0.35611 0.55793 0.0
H33 H 0.22915 0.34955 0.63676 0.0
H34 H 0.22108 0.18635 0.70275 0.0
H35 H 0.19793 0.19361 0.62601 0.0
H36 H 0.08707 0.14397 0.51773 0.0
H37 H 0.06197 0.14967 0.48436 0.0
H38 H 0.06478 0.31897 0.48447 0.0
H39 H 0.08993 0.31283 0.52053 0.0
Tb40 Tb 0.87629 0.25418 0.5415 0.0
Tb41 Tb 0.90716 0.25842 0.56862 0.0
C42 C 0.85042 0.23088 0.53947 0.0
C43 C 0.83698 0.23364 0.59477 0.0
C44 C 0.82707 0.19341 0.58204 0.0
C45 C 0.81352 0.19761 0.62193 0.0
C46 C 0.8095 0.24231 0.67586 0.0
C47 C 0.81964 0.2819 0.69131 0.0
C48 C 0.83322 0.27766 0.65112 0.0
C49 C 0.88713 0.35014 0.54041 0.0
C50 C 0.88908 0.25712 0.75932 0.0
C51 C 0.933 0.28169 0.57642 0.0
C52 C 0.9476 0.27802 0.53745 0.0
C53 C 0.955 0.3246 0.51784 0.0
C54 C 0.96957 0.32396 0.50296 0.0
C55 C 0.9772 0.27666 0.50747 0.0
C56 C 0.96966 0.22958 0.52111 0.0
C57 C 0.95505 0.23025 0.53644 0.0
C58 C 0.89627 0.16195 0.56367 0.0
C59 C 0.89431 0.25672 0.35018 0.0
O60 O 0.86022 0.19906 0.57125 0.0
O61 O 0.85561 0.27493 0.50603 0.0
O62 O 0.89058 0.313 0.59677 0.0
O63 O 0.87666 0.33497 0.48713 0.0
O64 O 0.87835 0.24353 0.70252 0.0
O65 O 0.90097 0.27376 0.71996 0.0
O66 O 0.92366 0.3105 0.53062 0.0
O67 O 0.92744 0.24011 0.61728 0.0
O68 O 0.89291 0.20045 0.51096 0.0
O69 O 0.90682 0.1761 0.61709 0.0
O70 O 0.90516 0.26914 0.40725 0.0
O71 O 0.88231 0.24069 0.38913 0.0
H72 H 0.82965 0.15933 0.53802 0.0
H73 H 0.80605 0.1666 0.60701 0.0
H74 H 0.81706 0.31653 0.73367 0.0
H75 H 0.84064 0.30935 0.66205 0.0
H76 H 0.94961 0.36205 0.51916 0.0
H77 H 0.97496 0.3609 0.49108 0.0
H78 H 0.97516 0.19245 0.52556 0.0
H79 H 0.94972 0.19362 0.55231 0.0
Tb80 Tb 0.16225 0.7485 0.53174 0.0
Tb81 Tb 0.13173 0.76054 0.53498 0.0
C82 C 0.18757 0.71988 0.51118 0.0
C83 C 0.2007 0.72589 0.4534 0.0
C84 C 0.20997 0.68319 0.44823 0.0
C85 C 0.22339 0.68901 0.40731 0.0
C86 C 0.2279 0.73782 0.3703 0.0
C87 C 0.21837 0.78019 0.372 0.0
C88 C 0.20492 0.77437 0.41355 0.0
C89 C 0.15385 0.84674 0.56298 0.0
C90 C 0.14619 0.76731 0.33006 0.0
C91 C 0.10623 0.78797 0.55254 0.0
C92 C 0.0917 0.77158 0.57737 0.0
C93 C 0.08206 0.81021 0.60621 0.0
C94 C 0.06767 0.7989 0.61254 0.0
C95 C 0.06254 0.74844 0.59022 0.0
C96 C 0.07236 0.70905 0.56566 0.0
C97 C 0.08678 0.72053 0.55902 0.0
C98 C 0.14046 0.66036 0.51722 0.0
C99 C 0.1482 0.74797 0.73703 0.0
O100 O 0.17694 0.69513 0.47153 0.0
O101 O 0.18354 0.75993 0.56385 0.0
O102 O 0.14838 0.8148 0.50324 0.0
O103 O 0.16486 0.82527 0.60077 0.0
O104 O 0.1573 0.74591 0.37275 0.0
O105 O 0.13594 0.78642 0.38474 0.0
O106 O 0.1155 0.79325 0.62269 0.0
O107 O 0.11171 0.76782 0.47329 0.0
O108 O 0.14558 0.69595 0.56981 0.0
O109 O 0.12917 0.67966 0.47924 0.0
O110 O 0.1373 0.77035 0.69269 0.0
O111 O 0.15817 0.7258 0.68357 0.0
H112 H 0.20698 0.6455 0.47886 0.0
H113 H 0.23031 0.65529 0.40565 0.0
H114 H 0.2215 0.81838 0.34452 0.0
H115 H 0.19801 0.80807 0.41723 0.0
H116 H 0.08557 0.85006 0.6193 0.0
H117 H 0.06053 0.83056 0.63026 0.0
H118 H 0.06888 0.66954 0.54948 0.0
H119 H 0.094 0.69004 0.53606 0.0
Tb120 Tb 0.87587 0.75504 0.51967 0.0
Tb121 Tb 0.90681 0.75805 0.5288 0.0
C122 C 0.85 0.77421 0.49543 0.0
C123 C 0.83708 0.77105 0.43382 0.0
C124 C 0.83259 0.81518 0.38018 0.0
C125 C 0.81904 0.81725 0.33998 0.0
C126 C 0.80952 0.77541 0.35289 0.0
C127 C 0.81428 0.73008 0.40195 0.0
C128 C 0.82785 0.72803 0.44228 0.0
C129 C 0.88772 0.66154 0.54336 0.0
C130 C 0.89386 0.75189 0.31872 0.0
C131 C 0.93285 0.75059 0.55731 0.0
C132 C 0.94829 0.74889 0.57514 0.0
C133 C 0.95607 0.70237 0.56351 0.0
C134 C 0.97073 0.70218 0.57736 0.0
C135 C 0.97791 0.74848 0.6036 0.0
C136 C 0.97005 0.79484 0.61498 0.0
C137 C 0.95549 0.79504 0.601 0.0
C138 C 0.89432 0.85089 0.50707 0.0
C139 C 0.88911 0.75705 0.72731 0.0
O140 O 0.86008 0.80662 0.47003 0.0
O141 O 0.85485 0.73126 0.53574 0.0
O142 O 0.89207 0.69816 0.48858 0.0
O143 O 0.87593 0.67601 0.58209 0.0
O144 O 0.88143 0.75942 0.36134 0.0
O145 O 0.90536 0.74496 0.3716 0.0
O146 O 0.92513 0.70996 0.53344 0.0
O147 O 0.92577 0.79414 0.56703 0.0
O148 O 0.89057 0.8138 0.56248 0.0
O149 O 0.90548 0.83594 0.46046 0.0
O150 O 0.90088 0.74176 0.68354 0.0
O151 O 0.87839 0.77384 0.67432 0.0
H152 H 0.83931 0.84931 0.37316 0.0
H153 H 0.81588 0.85245 0.30117 0.0
H154 H 0.80726 0.69722 0.41407 0.0
H155 H 0.83082 0.69369 0.48444 0.0
H156 H 0.95085 0.66619 0.54324 0.0
H157 H 0.9764 0.66566 0.56859 0.0
H158 H 0.97519 0.83148 0.63328 0.0
H159 H 0.94988 0.83173 0.60972 0.0
Tb160 Tb 0.66254 0.75622 0.03056 0.0
Tb161 Tb 0.63191 0.75079 0.05912 0.0
C162 C 0.6884 0.77962 0.02872 0.0
C163 C 0.70179 0.77489 0.08398 0.0
C164 C 0.71147 0.81637 0.07955 0.0
C165 C 0.725 0.81088 0.11886 0.0
C166 C 0.72923 0.7636 0.16377 0.0
C167 C 0.7193 0.72263 0.17116 0.0
C168 C 0.70574 0.72818 0.13166 0.0
C169 C 0.65206 0.65972 1.02684 0.0
C170 C 0.64998 0.751 0.24883 0.0
C171 C 0.60605 0.72762 0.06738 0.0
C172 C 0.59147 0.73553 0.03061 0.0
C173 C 0.58449 0.69388 0.98391 0.0
C174 C 0.56993 0.69557 0.96857 0.0
C175 C 0.5619 0.73883 1.00028 0.0
C176 C 0.56901 0.78183 0.04194 0.0
C177 C 0.5836 0.78015 0.05722 0.0
C178 C 0.64237 0.84821 0.05349 0.0
C179 C 0.64456 0.75378 0.84009 0.0
O180 O 0.67863 0.81065 0.06348 0.0
O181 O 0.68317 0.73668 0.9913 0.0
O182 O 0.64852 0.69589 0.08503 0.0
O183 O 0.6624 0.67615 0.97342 0.0
O184 O 0.66056 0.7661 0.19176 0.0
O185 O 0.63824 0.73334 0.2094 0.0
O186 O 0.61516 0.70187 1.01361 0.0
O187 O 0.61192 0.7656 0.11698 0.0
O188 O 0.64586 0.80992 1.00085 0.0
O189 O 0.63194 0.83315 0.10738 0.0
O190 O 0.63385 0.74004 0.89767 0.0
O191 O 0.65643 0.77104 0.87881 0.0
H192 H 0.70874 0.85259 0.04231 0.0
H193 H 0.73232 0.84312 0.11036 0.0
H194 H 0.72204 0.68594 0.20653 0.0
H195 H 0.69848 0.69547 0.13614 0.0
H196 H 0.59018 0.65871 0.96355 0.0
H197 H 0.56489 0.66209 0.93458 0.0
H198 H 0.56322 0.81566 0.06796 0.0
H199 H 0.58856 0.81277 0.09456 0.0
Tb200 Tb 0.3758 0.75074 0.05218 0.0
Tb201 Tb 0.40646 0.7512 0.04438 0.0
C202 C 0.35002 0.72965 0.07717 0.0
C203 C 0.3372 0.73455 0.13943 0.0
C204 C 0.33205 0.69019 0.18938 0.0
C205 C 0.31877 0.69077 0.23399 0.0
C206 C 0.31018 0.73573 0.22963 0.0
C207 C 0.3155 0.7807 0.18201 0.0
C208 C 0.32882 0.7801 0.13728 0.0
C209 C 0.3868 0.84617 1.02465 0.0
C210 C 0.39331 0.75829 0.25394 0.0
C211 C 0.43247 0.76218 1.01811 0.0
C212 C 0.44787 0.76756 1.00174 0.0
C213 C 0.4551 0.81303 0.03111 0.0
C214 C 0.4698 0.81602 1.02344 0.0
C215 C 0.47766 0.77359 0.98614 0.0
C216 C 0.47034 0.72862 0.95466 0.0
C217 C 0.45567 0.72562 0.96253 0.0
C218 C 0.39503 0.65731 0.07682 0.0
C219 C 0.38913 0.74727 0.84578 0.0
O220 O 0.36028 0.69946 0.10744 0.0
O221 O 0.35464 0.7712 0.03079 0.0
O222 O 0.39137 0.81065 0.0811 0.0
O223 O 0.37528 0.82925 0.98573 0.0
O224 O 0.38101 0.74909 0.21112 0.0
O225 O 0.4048 0.76581 0.20109 0.0
O226 O 0.42441 0.80051 0.04861 0.0
O227 O 0.42573 0.71867 0.99934 0.0
O228 O 0.39084 0.69136 1.01594 0.0
O229 O 0.406 0.6756 0.12108 0.0
O230 O 0.40055 0.76584 0.88933 0.0
O231 O 0.37868 0.72877 0.89938 0.0
H232 H 0.33806 0.65409 0.19054 0.0
H233 H 0.31502 0.65507 0.26847 0.0
H234 H 0.3093 0.81627 0.17815 0.0
H235 H 0.33233 0.81483 0.09833 0.0
H236 H 0.44943 0.8459 0.06232 0.0
H237 H 0.47502 0.85111 0.04945 0.0
H238 H 0.47594 0.6955 0.92386 0.0
H239 H 0.45045 0.68999 0.9391 0.0
Tb240 Tb 0.66218 0.25189 1.00364 0.0
Tb241 Tb 0.63153 0.25658 0.97545 0.0
C242 C 0.68818 0.23028 1.00506 0.0
C243 C 0.70156 0.23185 0.94763 0.0
C244 C 0.70564 0.18934 0.88823 0.0
C245 C 0.71922 0.18698 0.84792 0.0
C246 C 0.72916 0.22683 0.86644 0.0
C247 C 0.72487 0.27028 0.92278 0.0
C248 C 0.7113 0.27264 0.96307 0.0
C249 C 0.65146 0.34801 1.00994 0.0
C250 C 0.6497 0.25746 0.78602 0.0
C251 C 0.60562 0.27892 0.96606 0.0
C252 C 0.59096 0.26611 0.99521 0.0
C253 C 0.58159 0.30742 1.01428 0.0
C254 C 0.56709 0.29824 1.02157 0.0
C255 C 0.56154 0.24737 1.00967 0.0
C256 C 0.57105 0.20558 0.99563 0.0
C257 C 0.58557 0.21482 0.98833 0.0
C258 C 0.64208 0.15924 0.98096 0.0
C259 C 0.64422 0.25444 0.19445 0.0
O260 O 0.67837 0.19686 0.97965 0.0
O261 O 0.68289 0.27488 0.03452 0.0
O262 O 0.64803 0.31219 0.95061 0.0
O263 O 0.66169 0.33128 0.06384 0.0
O264 O 0.66017 0.24134 0.84274 0.0
O265 O 0.63808 0.27588 0.82612 0.0
O266 O 0.61419 0.30016 0.02993 0.0
O267 O 0.61204 0.24598 0.90792 0.0
O268 O 0.64556 0.19767 0.03313 0.0
O269 O 0.63152 0.17399 0.92838 0.0
O270 O 0.63351 0.26802 0.13686 0.0
O271 O 0.65614 0.23749 0.15573 0.0
H272 H 0.69851 0.15691 0.8755 0.0
H273 H 0.72201 0.15327 0.80365 0.0
H274 H 0.73221 0.30146 0.9398 0.0
H275 H 0.70864 0.30555 1.00984 0.0
H276 H 0.58541 0.34742 1.01843 0.0
H277 H 0.56017 0.33157 0.03136 0.0
H278 H 0.56724 0.16575 0.98783 0.0
H279 H 0.59251 0.18211 0.97324 0.0
Tb280 Tb 0.37457 0.25432 1.00245 0.0
Tb281 Tb 0.405 0.25767 0.97763 0.0
C282 C 0.3483 0.27126 0.99809 0.0
C283 C 0.33537 0.27003 0.93601 0.0
C284 C 0.33037 0.31629 0.89158 0.0
C285 C 0.31719 0.31754 0.84542 0.0
C286 C 0.30854 0.27265 0.84282 0.0
C287 C 0.31367 0.22606 0.88562 0.0
C288 C 0.32687 0.2248 0.93174 0.0
C289 C 0.38672 0.16031 1.01573 0.0
C290 C 0.38798 0.2521 0.78432 0.0
C291 C 0.43138 0.25185 0.98722 0.0
C292 C 0.44702 0.25155 0.99378 0.0
C293 C 0.45484 0.20491 0.98562 0.0
C294 C 0.46957 0.20549 0.99604 0.0
C295 C 0.4768 0.25274 1.01503 0.0
C296 C 0.46891 0.29936 1.02093 0.0
C297 C 0.45428 0.29875 1.0107 0.0
C298 C 0.39235 0.3503 0.96174 0.0
C299 C 0.39179 0.2551 0.19304 0.0
O300 O 0.35783 0.30699 0.97943 0.0
O301 O 0.35396 0.22668 1.02425 0.0
O302 O 0.38979 0.19639 0.95521 0.0
O303 O 0.37623 0.1762 0.06848 0.0
O304 O 0.37677 0.25979 0.84083 0.0
O305 O 0.40053 0.24443 0.82314 0.0
O306 O 0.42362 0.21165 0.96153 0.0
O307 O 0.42421 0.29416 1.0071 0.0
O308 O 0.38975 0.31525 1.02523 0.0
O309 O 0.40231 0.33361 0.90514 0.0
O310 O 0.40231 0.24022 0.13561 0.0
O311 O 0.37989 0.27154 0.15416 0.0
H312 H 0.33644 0.3522 0.89525 0.0
H313 H 0.31358 0.35439 0.81477 0.0
H314 H 0.30743 0.19051 0.88416 0.0
H315 H 0.33024 0.18864 0.9664 0.0
H316 H 0.44957 0.16788 0.97266 0.0
H317 H 0.47525 0.16875 0.9915 0.0
H318 H 0.47405 0.3367 0.0332 0.0
H319 H 0.44865 0.33554 1.01654 0.0
H320 H 0.25174 0.31053 0.60766 0.0
H321 H 0.23533 0.21257 0.8403 0.0
H322 H 0.25886 0.20414 0.91005 0.0
H323 H 0.28412 0.22641 0.90806 0.0
H324 H 0.30043 0.32454 0.67526 0.0
H325 H 0.27696 0.33188 0.60449 0.0
C326 C 0.25324 0.28773 0.67422 0.0
C327 C 0.24163 0.26237 0.71841 0.0
C328 C 0.26685 0.28323 0.71454 0.0
C329 C 0.24398 0.23214 0.80366 0.0
C330 C 0.25747 0.2275 0.84409 0.0
C331 C 0.2826 0.24891 0.84117 0.0
C332 C 0.29416 0.27502 0.79764 0.0
C333 C 0.269 0.25293 0.80031 0.0
C334 C 0.29181 0.30461 0.71162 0.0
C335 C 0.27835 0.30864 0.67061 0.0
H336 H 0.74691 0.30347 0.79524 0.0
H337 H 0.74535 0.13799 0.86302 0.0
H338 H 0.76977 0.12837 0.81198 0.0
H339 H 0.79181 0.16666 0.75023 0.0
H340 H 0.79345 0.33194 0.68092 0.0
H341 H 0.76906 0.3419 0.73328 0.0
C342 C 0.75191 0.26531 0.79942 0.0
C343 C 0.74412 0.22149 0.8325 0.0
C344 C 0.76611 0.25999 0.7706 0.0
C345 C 0.75086 0.17233 0.83617 0.0
C346 C 0.76493 0.1668 0.80775 0.0
C347 C 0.78684 0.20488 0.74576 0.0
C348 C 0.79463 0.24845 0.71161 0.0
C349 C 0.77267 0.21031 0.77479 0.0
C350 C 0.78793 0.29773 0.70828 0.0
C351 C 0.77388 0.30344 0.73747 0.0
H352 H 0.28611 0.7797 0.15405 0.0
H353 H 0.3013 0.68912 0.40065 0.0
H354 H 0.27743 0.6818 0.46471 0.0
H355 H 0.25215 0.69979 0.45042 0.0
H356 H 0.23681 0.79132 0.20596 0.0
H357 H 0.2608 0.80057 0.14308 0.0
C358 C 0.28426 0.75898 0.22257 0.0
C359 C 0.2956 0.73469 0.27176 0.0
C360 C 0.27043 0.75507 0.25966 0.0
C361 C 0.29284 0.70747 0.35993 0.0
C362 C 0.27916 0.70344 0.39707 0.0
C363 C 0.25402 0.72148 0.38295 0.0
C364 C 0.2426 0.74446 0.33275 0.0
C365 C 0.26785 0.72662 0.34714 0.0
C366 C 0.24534 0.77341 0.24657 0.0
C367 C 0.25908 0.77853 0.21028 0.0
H368 H 0.74636 0.83554 0.25397 0.0
H369 H 0.74579 0.67555 0.15032 0.0
H370 H 0.77027 0.66467 0.19992 0.0
H371 H 0.79223 0.7013 0.26864 0.0
H372 H 0.79267 0.86175 0.36993 0.0
H373 H 0.76812 0.87185 0.32294 0.0
C374 C 0.75158 0.79833 0.24147 0.0
C375 C 0.74409 0.75649 0.19831 0.0
C376 C 0.76578 0.79247 0.26886 0.0
C377 C 0.7511 0.70834 0.18467 0.0
C378 C 0.76519 0.70216 0.21228 0.0
C379 C 0.78695 0.73842 0.28085 0.0
C380 C 0.79446 0.78083 0.32198 0.0
C381 C 0.77269 0.74403 0.25405 0.0
C382 C 0.78736 0.82869 0.33652 0.0
C383 C 0.77323 0.83443 0.31041 0.0
H384 H 0.145 0.91641 0.42101 0.0
H385 H 0.15641 0.90532 0.72681 0.0
H386 H 0.15458 1.00061 0.74396 0.0
H387 H 0.15219 0.08856 0.66793 0.0
H388 H 0.14351 0.10014 0.35804 0.0
H389 H 0.14164 0.00447 0.34644 0.0
C390 C 0.1468 0.93491 0.49167 0.0
C391 C 0.15076 0.90377 0.57272 0.0
C392 C 0.14629 0.9903 0.50006 0.0
C393 C 0.15334 0.92842 0.66337 0.0
C394 C 0.15232 0.98301 0.67321 0.0
C395 C 0.14952 0.07003 0.59865 0.0
C396 C 0.14775 0.10137 0.51425 0.0
C397 C 0.14913 0.01461 0.59161 0.0
C398 C 0.14475 0.0768 0.4242 0.0
C399 C 0.14376 0.02203 0.41743 0.0
H400 H 0.89118 0.42632 0.40454 0.0
H401 H 0.88931 0.39956 0.71724 0.0
H402 H 0.89016 0.49443 0.74682 0.0
H403 H 0.88907 0.58536 0.68205 0.0
H404 H 0.89308 0.61189 0.3702 0.0
H405 H 0.89395 0.51701 0.34151 0.0
C406 C 0.89122 0.44142 0.4791 0.0
C407 C 0.89006 0.40629 0.55864 0.0
C408 C 0.89203 0.49593 0.49544 0.0
C409 C 0.89023 0.42597 0.655 0.0
C410 C 0.89064 0.48019 0.67183 0.0
C411 C 0.89044 0.57019 0.60813 0.0
C412 C 0.89093 0.60533 0.52826 0.0
C413 C 0.8912 0.5156 0.59251 0.0
C414 C 0.89275 0.58552 0.43278 0.0
C415 C 0.89315 0.53128 0.41636 0.0
H416 H 0.89424 0.93417 0.38171 0.0
H417 H 0.88951 0.89297 0.68759 0.0
H418 H 0.88933 0.98585 0.7326 0.0
H419 H 0.89241 0.07909 0.68596 0.0
H420 H 0.89485 0.12094 0.37928 0.0
H421 H 0.89393 0.02806 0.33328 0.0
C422 C 0.89293 0.94574 0.45792 0.0
C423 C 0.89198 0.90687 0.53125 0.0
C424 C 0.89253 0.9994 0.48312 0.0
C425 C 0.89021 0.92218 0.62976 0.0
C426 C 0.89019 0.97531 0.65563 0.0
C427 C 0.89253 0.0677 0.60911 0.0
C428 C 0.89382 0.10655 0.53612 0.0
C429 C 0.89163 0.01427 0.58318 0.0
C430 C 0.89385 0.09162 0.43669 0.0
C431 C 0.89338 0.03852 0.41042 0.0
H432 H 0.14179 0.57877 0.38738 0.0
H433 H 0.14235 0.61418 0.6971 0.0
H434 H 0.14263 0.52035 0.73644 0.0
H435 H 0.14156 0.42753 0.68278 0.0
H436 H 0.14345 0.3917 0.37352 0.0
H437 H 0.14351 0.48562 0.33384 0.0
C438 C 0.14211 0.56577 0.46335 0.0
C439 C 0.14194 0.60338 0.53925 0.0
C440 C 0.14269 0.5115 0.48545 0.0
C441 C 0.14249 0.58607 0.63739 0.0
C442 C 0.1426 0.53235 0.65992 0.0
C443 C 0.14214 0.44041 0.6068 0.0
C444 C 0.14241 0.40267 0.53121 0.0
C445 C 0.14254 0.49463 0.58466 0.0
C446 C 0.14329 0.41989 0.43309 0.0
C447 C 0.14324 0.47367 0.41036 0.0
H448 H 0.64934 0.58625 0.88495 0.0
H449 H 0.64838 0.60656 0.19941 0.0
H450 H 0.64736 0.5111 0.22223 0.0
H451 H 0.64902 0.42159 0.15209 0.0
H452 H 0.64791 0.40141 0.83761 0.0
H453 H 0.64729 0.49689 0.81489 0.0
C454 C 0.64866 0.56963 0.95833 0.0
C455 C 0.64906 0.60316 0.04048 0.0
C456 C 0.64779 0.51479 0.97064 0.0
C457 C 0.64805 0.58146 0.1352 0.0
C458 C 0.64756 0.5269 0.14818 0.0
C459 C 0.64839 0.43825 0.07873 0.0
C460 C 0.64863 0.40472 0.99654 0.0
C461 C 0.64775 0.49315 0.06647 0.0
C462 C 0.64769 0.42649 0.90187 0.0
C463 C 0.64743 0.48107 0.88893 0.0
H464 H 0.38733 0.92207 0.88315 0.0
H465 H 0.39202 0.89881 0.19532 0.0
H466 H 0.39296 0.994 0.2203 0.0
H467 H 0.39054 0.08449 0.15424 0.0
H468 H 0.38816 0.10791 0.84085 0.0
H469 H 0.38839 0.01267 0.81507 0.0
C470 C 0.38879 0.93796 0.95639 0.0
C471 C 0.38952 0.90337 0.03737 0.0
C472 C 0.38967 0.99293 0.96989 0.0
C473 C 0.39149 0.92446 0.13179 0.0
C474 C 0.39195 0.97898 0.14612 0.0
C475 C 0.39034 0.06864 0.08026 0.0
C476 C 0.38928 0.10327 0.99956 0.0
C477 C 0.39079 0.01368 0.06596 0.0
C478 C 0.38906 0.08222 0.90411 0.0
C479 C 0.3891 0.02767 0.88944 0.0
H480 H 0.39213 0.41037 0.12891 0.0
H481 H 0.38664 0.41863 0.81496 0.0
H482 H 0.38514 0.51449 0.82312 0.0
H483 H 0.38774 0.59701 0.91763 0.0
H484 H 0.39597 0.58868 0.2287 0.0
H485 H 0.39396 0.49291 0.22427 0.0
C486 C 0.39028 0.43321 0.06279 0.0
C487 C 0.38929 0.40736 0.97152 0.0
C488 C 0.39008 0.48873 0.06758 0.0
C489 C 0.38729 0.43758 0.8861 0.0
C490 C 0.38651 0.49248 0.89072 0.0
C491 C 0.38881 0.5742 0.98463 0.0
C492 C 0.39188 0.60003 0.07365 0.0
C493 C 0.38821 0.5187 0.98071 0.0
C494 C 0.39354 0.56979 0.15942 0.0
C495 C 0.39243 0.51493 0.15684 0.0
H496 H 0.64406 0.07433 0.86148 0.0
H497 H 0.64449 0.11991 0.1665 0.0
H498 H 0.6449 0.02755 0.21664 0.0
H499 H 0.64358 0.93323 0.17335 0.0
H500 H 0.64546 0.88774 0.8685 0.0
H501 H 0.64583 0.98009 0.81851 0.0
C502 C 0.64443 0.06385 0.93881 0.0
C503 C 0.64414 0.10372 1.01021 0.0
C504 C 0.64502 0.0106 0.96704 0.0
C505 C 0.64474 0.08987 0.11021 0.0
C506 C 0.64491 0.03705 0.1389 0.0
C507 C 0.64425 0.94372 0.09612 0.0
C508 C 0.64438 0.90385 1.02469 0.0
C509 C 0.64482 0.99701 0.06801 0.0
C510 C 0.64538 0.91775 0.92485 0.0
C511 C 0.64553 0.97058 0.89621 0.0
H512 H 0.16347 0.27449 0.19608 0.0
H513 H 0.12019 0.22626 0.22679 0.0
H514 H 0.11814 0.21881 0.04822 0.0
H515 H 0.1286 0.22582 0.88261 0.0
H516 H 0.17189 0.27408 0.85213 0.0
H517 H 0.17393 0.28131 0.03067 0.0
C518 C 0.15355 0.26255 0.16395 0.0
C519 C 0.14198 0.25117 0.22562 0.0
C520 C 0.15245 0.25803 0.06077 0.0
C521 C 0.12927 0.23545 0.18184 0.0
C522 C 0.12809 0.23106 0.0794 0.0
C523 C 0.13852 0.23767 0.91482 0.0
C524 C 0.15008 0.24921 0.85319 0.0
C525 C 0.13962 0.2421 1.01804 0.0
C526 C 0.1628 0.26483 0.89704 0.0
C527 C 0.16398 0.26909 0.99947 0.0
H528 H 0.87417 0.23538 0.21257 0.0
H529 H 0.91752 0.28323 0.24069 0.0
H530 H 0.91963 0.28805 0.0617 0.0
H531 H 0.90922 0.27879 0.89684 0.0
H532 H 0.86588 0.23088 0.86887 0.0
H533 H 0.86376 0.22618 0.04784 0.0
C534 C 0.88412 0.24678 0.17984 0.0
C535 C 0.89569 0.25882 0.24081 0.0
C536 C 0.88526 0.24962 0.07653 0.0
C537 C 0.90844 0.27365 0.19625 0.0
C538 C 0.90965 0.27648 0.09361 0.0
C539 C 0.89928 0.26745 0.92963 0.0
C540 C 0.88771 0.25531 0.8687 0.0
C541 C 0.89813 0.26463 0.03296 0.0
C542 C 0.87496 0.24051 0.91329 0.0
C543 C 0.87374 0.23775 1.01591 0.0
H544 H 0.16341 0.72308 0.19027 0.0
H545 H 0.12614 0.81804 0.22145 0.0
H546 H 0.12327 0.82021 0.0432 0.0
H547 H 0.13114 0.79446 0.87636 0.0
H548 H 0.16834 0.6989 0.84635 0.0
H549 H 0.17131 0.6977 1.02414 0.0
C550 C 0.15471 0.74455 0.15822 0.0
C551 C 0.14506 0.77045 0.22024 0.0
C552 C 0.15301 0.74536 0.05483 0.0
C553 C 0.13379 0.79772 0.17642 0.0
C554 C 0.1321 0.79894 0.07397 0.0
C555 C 0.13987 0.77321 0.90864 0.0
C556 C 0.14945 0.74674 0.84691 0.0
C557 C 0.14159 0.77268 1.01215 0.0
C558 C 0.16074 0.71968 0.891 0.0
C559 C 0.16249 0.71897 0.99326 0.0
H560 H 0.90939 0.73521 0.86521 0.0
H561 H 0.86579 0.77934 0.83667 0.0
H562 H 0.86329 0.78097 1.01493 0.0
H563 H 0.87343 0.77084 0.18057 0.0
H564 H 0.91712 0.72784 0.20935 0.0
H565 H 0.91953 0.72487 0.03106 0.0
C566 C 0.89934 0.74509 0.89789 0.0
C567 C 0.88783 0.75717 0.83678 0.0
C568 C 0.89794 0.74626 1.00133 0.0
C569 C 0.87489 0.76997 0.88115 0.0
C570 C 0.87341 0.77091 0.98355 0.0
C571 C 0.88348 0.76069 0.148 0.0
C572 C 0.89505 0.74962 0.20921 0.0
C573 C 0.88486 0.75926 0.04459 0.0
C574 C 0.90799 0.73669 0.16486 0.0
C575 C 0.90941 0.73493 0.06243 0.0
H576 H 0.62993 0.72808 0.38708 0.0
H577 H 0.67302 0.77902 0.35788 0.0
H578 H 0.67504 0.78486 0.53669 0.0
H579 H 0.66461 0.77601 0.70174 0.0
H580 H 0.62152 0.72514 0.73127 0.0
H581 H 0.6195 0.71903 0.5524 0.0
C582 C 0.6398 0.74028 0.41959 0.0
C583 C 0.65132 0.75296 0.35828 0.0
C584 C 0.64088 0.74382 0.52291 0.0
C585 C 0.66397 0.76892 0.40254 0.0
C586 C 0.66514 0.77236 0.5051 0.0
C587 C 0.65474 0.76371 0.66933 0.0
C588 C 0.64321 0.75121 0.7307 0.0
C589 C 0.65366 0.76007 0.56607 0.0
C590 C 0.63056 0.73514 0.68654 0.0
C591 C 0.6294 0.73155 0.58395 0.0
H592 H 0.40869 0.77689 0.70726 0.0
H593 H 0.36647 0.71678 0.73677 0.0
H594 H 0.36384 0.71601 0.55857 0.0
H595 H 0.3735 0.73155 0.39255 0.0
H596 H 0.41585 0.79033 0.3629 0.0
H597 H 0.41834 0.79247 0.54119 0.0
C598 C 0.39891 0.76362 0.67483 0.0
C599 C 0.38783 0.74688 0.73624 0.0
C600 C 0.39744 0.76304 0.5714 0.0
C601 C 0.37524 0.72981 0.6921 0.0
C602 C 0.37369 0.72938 0.58972 0.0
C603 C 0.38325 0.74507 0.42497 0.0
C604 C 0.39444 0.76077 0.36349 0.0
C605 C 0.38471 0.74585 0.5284 0.0
C606 C 0.40703 0.77786 0.40762 0.0
C607 C 0.40849 0.77913 0.51004 0.0
H608 H 0.66421 0.23181 0.33269 0.0
H609 H 0.62126 0.28404 0.30379 0.0
H610 H 0.61928 0.29046 0.48274 0.0
H611 H 0.62969 0.28121 0.64808 0.0
H612 H 0.67263 0.22868 0.67634 0.0
H613 H 0.67462 0.22273 0.49752 0.0
C614 C 0.65438 0.2445 0.36522 0.0
C615 C 0.64289 0.25728 0.30396 0.0
C616 C 0.65331 0.24828 0.46853 0.0
C617 C 0.63028 0.2738 0.34838 0.0
C618 C 0.62914 0.27758 0.45102 0.0
C619 C 0.63953 0.26865 0.61534 0.0
C620 C 0.65101 0.25556 0.67645 0.0
C621 C 0.64059 0.265 0.51193 0.0
C622 C 0.66361 0.23912 0.63189 0.0
C623 C 0.66476 0.23561 0.5293 0.0
H624 H 0.37158 0.27074 0.3334 0.0
H625 H 0.41553 0.233 0.29883 0.0
H626 H 0.4182 0.22816 0.47722 0.0
H627 H 0.40815 0.23507 0.64384 0.0
H628 H 0.36412 0.27181 0.6781 0.0
H629 H 0.36145 0.27634 0.49985 0.0
C630 C 0.38176 0.26153 0.36471 0.0
C631 C 0.39334 0.25242 0.30211 0.0
C632 C 0.38323 0.25847 0.4678 0.0
C633 C 0.40641 0.24023 0.34465 0.0
C634 C 0.40797 0.23744 0.44697 0.0
C635 C 0.39795 0.24395 0.61253 0.0
C636 C 0.38637 0.25309 0.67512 0.0
C637 C 0.39646 0.2465 0.50938 0.0
C638 C 0.37325 0.26449 0.63243 0.0
C639 C 0.3717 0.2672 0.53014 0.0
H640 H 0.04291 0.30522 0.5658 0.0
H641 H 0.04388 0.17108 0.37246 0.0
H642 H 1.01827 0.17179 0.36316 0.0
H643 H 0.99534 0.20949 0.41232 0.0
H644 H 0.99463 0.3448 0.60263 0.0
H645 H 0.02023 0.3452 0.60845 0.0
C646 C 0.03759 0.27662 0.52012 0.0
C647 C 0.04549 0.23797 0.47045 0.0
C648 C 0.02278 0.27744 0.51428 0.0
C649 C 0.03821 0.20082 0.4131 0.0
C650 C 0.0235 0.20132 0.40724 0.0
C651 C 1.00079 0.23907 0.45503 0.0
C652 C 0.99296 0.27721 0.50652 0.0
C653 C 1.01564 0.23913 0.45827 0.0
C654 C 1.00028 0.31543 0.56087 0.0
C655 C 1.01498 0.31552 0.56486 0.0
H656 H 0.99846 0.69895 0.49578 0.0
H657 H 0.99258 0.79975 0.74725 0.0
H658 H 1.01796 0.80682 0.76768 0.0
H659 H 0.04192 0.78686 0.71185 0.0
H660 H 0.04796 0.68762 0.45835 0.0
H661 H 0.02259 0.6762 0.44355 0.0
C662 C 1.00271 0.72189 0.55588 0.0
C663 C 0.99351 0.74917 0.6192 0.0
C664 C 1.01743 0.72594 0.56738 0.0
C665 C 0.99932 0.77907 0.69611 0.0
C666 C 1.01388 0.78295 0.70829 0.0
C667 C 0.03773 0.76283 0.65305 0.0
C668 C 0.047 0.73831 0.58631 0.0
C669 C 0.02305 0.75713 0.64367 0.0
C670 C 0.04123 0.70651 0.51188 0.0
C671 C 0.02665 0.70029 0.50268 0.0
H672 H 0.54335 0.81837 0.95534 0.0
H673 H 0.54484 0.65529 0.04139 0.0
H674 H 0.51927 0.65152 0.04291 0.0
H675 H 0.49637 0.69463 1.0249 0.0
H676 H 0.49458 0.85751 0.93829 0.0
H677 H 0.52024 0.86137 0.93449 0.0
C678 C 0.5381 0.78202 0.97463 0.0
C679 C 0.54615 0.73708 0.99734 0.0
C680 C 0.52326 0.7801 0.97623 0.0
C681 C 0.53904 0.69028 1.02149 0.0
C682 C 0.52435 0.68814 1.02326 0.0
C683 C 0.50154 0.73088 1.00385 0.0
C684 C 0.49341 0.77569 0.98193 0.0
C685 C 0.51634 0.73278 1.00099 0.0
C686 C 0.50046 0.8225 0.95687 0.0
C687 C 0.51518 0.82468 0.95405 0.0
H688 H 0.49739 0.1978 0.91667 0.0
H689 H 0.4915 0.3106 0.14956 0.0
H690 H 0.51686 0.3178 0.17024 0.0
H691 H 0.54087 0.29403 0.12027 0.0
H692 H 0.54692 0.18165 0.88695 0.0
H693 H 0.52153 0.17137 0.87091 0.0
C694 C 0.50163 0.22349 0.97277 0.0
C695 C 0.49241 0.25406 0.0305 0.0
C696 C 0.51635 0.22743 0.98479 0.0
C697 C 0.49823 0.28738 0.10236 0.0
C698 C 0.51279 0.29133 0.11482 0.0
C699 C 0.53667 0.26734 0.06567 0.0
C700 C 0.54594 0.23874 1.00505 0.0
C701 C 0.52197 0.26202 0.05578 0.0
C702 C 0.54017 0.20373 0.93586 0.0
C703 C 0.52558 0.19811 0.92593 0.0
loop_
_geom_bond_atom_site_label_1
_geom_bond_atom_site_label_2
_geom_bond_distance
_geom_bond_site_symmetry_2
_ccdc_geom_bond_type
Tb0 C2 2.809 . S
Tb0 O20 2.484 . S
Tb0 O21 2.440 . S
Tb0 O22 2.658 . S
Tb0 O23 2.409 . S
Tb0 O24 2.378 . S
Tb0 O28 2.325 . S
Tb0 O31 2.341 . S
Tb1 C11 2.809 . S
Tb1 O22 2.325 . S
Tb1 O25 2.341 . S
Tb1 O26 2.484 . S
Tb1 O27 2.440 . S
Tb1 O28 2.658 . S
Tb1 O29 2.409 . S
Tb1 O30 2.378 . S
C2 Tb0 2.809 . S
C2 C3 1.514 . S
C2 O20 1.248 . S
C2 O21 1.266 . S
C3 C2 1.514 . S
C3 C4 1.359 . S
C3 C8 1.348 . S
C4 C3 1.359 . S
C4 C5 1.380 . S
C4 H32 0.929 . S
C5 C4 1.380 . S
C5 C6 1.347 . S
C5 H33 0.931 . S
C6 C5 1.347 . S
C6 C7 1.369 . S
C7 C6 1.369 . S
C7 C8 1.408 . S
C7 H34 0.930 . S
C8 C3 1.348 . S
C8 C7 1.408 . S
C8 H35 0.930 . S
C9 O22 1.281 . S
C9 O23 1.254 . S
C10 O24 1.236 . S
C10 O25 1.266 . S
C11 Tb1 2.809 . S
C11 C12 1.514 . S
C11 O26 1.248 . S
C11 O27 1.266 . S
C12 C11 1.514 . S
C12 C13 1.359 . S
C12 C17 1.348 . S
C13 C12 1.359 . S
C13 C14 1.380 . S
C13 H36 0.929 . S
C14 C13 1.380 . S
C14 C15 1.347 . S
C14 H37 0.931 . S
C15 C14 1.347 . S
C15 C16 1.369 . S
C16 C15 1.369 . S
C16 C17 1.408 . S
C16 H38 0.930 . S
C17 C12 1.348 . S
C17 C16 1.408 . S
C17 H39 0.930 . S
C18 O28 1.281 . S
C18 O29 1.254 . S
C19 O30 1.236 . S
C19 O31 1.266 . S
O20 Tb0 2.484 . S
O20 C2 1.248 . S
O21 Tb0 2.440 . S
O21 C2 1.266 . S
O22 Tb0 2.658 . S
O22 Tb1 2.325 . S
O22 C9 1.281 . S
O23 Tb0 2.409 . S
O23 C9 1.254 . S
O24 Tb0 2.378 . S
O24 C10 1.236 . S
O25 Tb1 2.341 . S
O25 C10 1.266 . S
O26 Tb1 2.484 . S
O26 C11 1.248 . S
O27 Tb1 2.440 . S
O27 C11 1.266 . S
O28 Tb0 2.325 . S
O28 Tb1 2.658 . S
O28 C18 1.281 . S
O29 Tb1 2.409 . S
O29 C18 1.254 . S
O30 Tb1 2.378 . S
O30 C19 1.236 . S
O31 Tb0 2.341 . S
O31 C19 1.266 . S
H32 C4 0.929 . S
H33 C5 0.931 . S
H34 C7 0.930 . S
H35 C8 0.930 . S
H36 C13 0.929 . S
H37 C14 0.931 . S
H38 C16 0.930 . S
H39 C17 0.930 . S
Tb40 C42 2.809 . S
Tb40 O60 2.484 . S
Tb40 O61 2.440 . S
Tb40 O62 2.658 . S
Tb40 O63 2.409 . S
Tb40 O64 2.378 . S
Tb40 O68 2.325 . S
Tb40 O71 2.341 . S
Tb41 C51 2.809 . S
Tb41 O62 2.325 . S
Tb41 O65 2.341 . S
Tb41 O66 2.484 . S
Tb41 O67 2.440 . S
Tb41 O68 2.658 . S
Tb41 O69 2.409 . S
Tb41 O70 2.378 . S
C42 Tb40 2.809 . S
C42 C43 1.514 . S
C42 O60 1.248 . S
C42 O61 1.266 . S
C43 C42 1.514 . S
C43 C44 1.359 . S
C43 C48 1.348 . S
C44 C43 1.359 . S
C44 C45 1.380 . S
C44 H72 0.929 . S
C45 C44 1.380 . S
C45 C46 1.347 . S
C45 H73 0.931 . S
C46 C45 1.347 . S
C46 C47 1.369 . S
C47 C46 1.369 . S
C47 C48 1.408 . S
C47 H74 0.930 . S
C48 C43 1.348 . S
C48 C47 1.408 . S
C48 H75 0.930 . S
C49 O62 1.281 . S
C49 O63 1.254 . S
C50 O64 1.236 . S
C50 O65 1.266 . S
C51 Tb41 2.809 . S
C51 C52 1.514 . S
C51 O66 1.248 . S
C51 O67 1.266 . S
C52 C51 1.514 . S
C52 C53 1.359 . S
C52 C57 1.348 . S
C53 C52 1.359 . S
C53 C54 1.380 . S
C53 H76 0.929 . S
C54 C53 1.380 . S
C54 C55 1.347 . S
C54 H77 0.931 . S
C55 C54 1.347 . S
C55 C56 1.369 . S
C56 C55 1.369 . S
C56 C57 1.408 . S
C56 H78 0.930 . S
C57 C52 1.348 . S
C57 C56 1.408 . S
C57 H79 0.930 . S
C58 O68 1.281 . S
C58 O69 1.254 . S
C59 O70 1.236 . S
C59 O71 1.266 . S
O60 Tb40 2.484 . S
O60 C42 1.248 . S
O61 Tb40 2.440 . S
O61 C42 1.266 . S
O62 Tb40 2.658 . S
O62 Tb41 2.325 . S
O62 C49 1.281 . S
O63 Tb40 2.409 . S
O63 C49 1.254 . S
O64 Tb40 2.378 . S
O64 C50 1.236 . S
O65 Tb41 2.341 . S
O65 C50 1.266 . S
O66 Tb41 2.484 . S
O66 C51 1.248 . S
O67 Tb41 2.440 . S
O67 C51 1.266 . S
O68 Tb40 2.325 . S
O68 Tb41 2.658 . S
O68 C58 1.281 . S
O69 Tb41 2.409 . S
O69 C58 1.254 . S
O70 Tb41 2.378 . S
O70 C59 1.236 . S
O71 Tb40 2.341 . S
O71 C59 1.266 . S
H72 C44 0.929 . S
H73 C45 0.931 . S
H74 C47 0.930 . S
H75 C48 0.930 . S
H76 C53 0.929 . S
H77 C54 0.931 . S
H78 C56 0.930 . S
H79 C57 0.930 . S
Tb80 C82 2.809 . S
Tb80 O100 2.484 . S
Tb80 O101 2.440 . S
Tb80 O102 2.658 . S
Tb80 O103 2.409 . S
Tb80 O104 2.378 . S
Tb80 O108 2.325 . S
Tb80 O111 2.341 . S
Tb81 C91 2.809 . S
Tb81 O102 2.325 . S
Tb81 O105 2.341 . S
Tb81 O106 2.484 . S
Tb81 O107 2.440 . S
Tb81 O108 2.658 . S
Tb81 O109 2.409 . S
Tb81 O110 2.378 . S
C82 Tb80 2.809 . S
C82 C83 1.514 . S
C82 O100 1.248 . S
C82 O101 1.266 . S
C83 C82 1.514 . S
C83 C84 1.359 . S
C83 C88 1.348 . S
C84 C83 1.359 . S
C84 C85 1.380 . S
C84 H112 0.929 . S
C85 C84 1.380 . S
C85 C86 1.347 . S
C85 H113 0.931 . S
C86 C85 1.347 . S
C86 C87 1.369 . S
C87 C86 1.369 . S
C87 C88 1.408 . S
C87 H114 0.930 . S
C88 C83 1.348 . S
C88 C87 1.408 . S
C88 H115 0.930 . S
C89 O102 1.281 . S
C89 O103 1.254 . S
C90 O104 1.236 . S
C90 O105 1.266 . S
C91 Tb81 2.809 . S
C91 C92 1.514 . S
C91 O106 1.248 . S
C91 O107 1.266 . S
C92 C91 1.514 . S
C92 C93 1.359 . S
C92 C97 1.348 . S
C93 C92 1.359 . S
C93 C94 1.380 . S
C93 H116 0.929 . S
C94 C93 1.380 . S
C94 C95 1.347 . S
C94 H117 0.931 . S
C95 C94 1.347 . S
C95 C96 1.369 . S
C96 C95 1.369 . S
C96 C97 1.408 . S
C96 H118 0.930 . S
C97 C92 1.348 . S
C97 C96 1.408 . S
C97 H119 0.930 . S
C98 O108 1.281 . S
C98 O109 1.254 . S
C99 O110 1.236 . S
C99 O111 1.266 . S
O100 Tb80 2.484 . S
O100 C82 1.248 . S
O101 Tb80 2.440 . S
O101 C82 1.266 . S
O102 Tb80 2.658 . S
O102 Tb81 2.325 . S
O102 C89 1.281 . S
O103 Tb80 2.409 . S
O103 C89 1.254 . S
O104 Tb80 2.378 . S
O104 C90 1.236 . S
O105 Tb81 2.341 . S
O105 C90 1.266 . S
O106 Tb81 2.484 . S
O106 C91 1.248 . S
O107 Tb81 2.440 . S
O107 C91 1.266 . S
O108 Tb80 2.325 . S
O108 Tb81 2.658 . S
O108 C98 1.281 . S
O109 Tb81 2.409 . S
O109 C98 1.254 . S
O110 Tb81 2.378 . S
O110 C99 1.236 . S
O111 Tb80 2.341 . S
O111 C99 1.266 . S
H112 C84 0.929 . S
H113 C85 0.931 . S
H114 C87 0.930 . S
H115 C88 0.930 . S
H116 C93 0.929 . S
H117 C94 0.931 . S
H118 C96 0.930 . S
H119 C97 0.930 . S
Tb120 C122 2.809 . S
Tb120 O140 2.484 . S
Tb120 O141 2.440 . S
Tb120 O142 2.658 . S
Tb120 O143 2.409 . S
Tb120 O144 2.378 . S
Tb120 O148 2.325 . S
Tb120 O151 2.341 . S
Tb121 C131 2.809 . S
Tb121 O142 2.325 . S
Tb121 O145 2.341 . S
Tb121 O146 2.484 . S
Tb121 O147 2.440 . S
Tb121 O148 2.658 . S
Tb121 O149 2.409 . S
Tb121 O150 2.378 . S
C122 Tb120 2.809 . S
C122 C123 1.514 . S
C122 O140 1.248 . S
C122 O141 1.266 . S
C123 C122 1.514 . S
C123 C124 1.359 . S
C123 C128 1.348 . S
C124 C123 1.359 . S
C124 C125 1.380 . S
C124 H152 0.929 . S
C125 C124 1.380 . S
C125 C126 1.347 . S
C125 H153 0.931 . S
C126 C125 1.347 . S
C126 C127 1.369 . S
C127 C126 1.369 . S
C127 C128 1.408 . S
C127 H154 0.930 . S
C128 C123 1.348 . S
C128 C127 1.408 . S
C128 H155 0.930 . S
C129 O142 1.281 . S
C129 O143 1.254 . S
C130 O144 1.236 . S
C130 O145 1.266 . S
C131 Tb121 2.809 . S
C131 C132 1.514 . S
C131 O146 1.248 . S
C131 O147 1.266 . S
C132 C131 1.514 . S
C132 C133 1.359 . S
C132 C137 1.348 . S
C133 C132 1.359 . S
C133 C134 1.380 . S
C133 H156 0.929 . S
C134 C133 1.380 . S
C134 C135 1.347 . S
C134 H157 0.931 . S
C135 C134 1.347 . S
C135 C136 1.369 . S
C136 C135 1.369 . S
C136 C137 1.408 . S
C136 H158 0.930 . S
C137 C132 1.348 . S
C137 C136 1.408 . S
C137 H159 0.930 . S
C138 O148 1.281 . S
C138 O149 1.254 . S
C139 O150 1.236 . S
C139 O151 1.266 . S
O140 Tb120 2.484 . S
O140 C122 1.248 . S
O141 Tb120 2.440 . S
O141 C122 1.266 . S
O142 Tb120 2.658 . S
O142 Tb121 2.325 . S
O142 C129 1.281 . S
O143 Tb120 2.409 . S
O143 C129 1.254 . S
O144 Tb120 2.378 . S
O144 C130 1.236 . S
O145 Tb121 2.341 . S
O145 C130 1.266 . S
O146 Tb121 2.484 . S
O146 C131 1.248 . S
O147 Tb121 2.440 . S
O147 C131 1.266 . S
O148 Tb120 2.325 . S
O148 Tb121 2.658 . S
O148 C138 1.281 . S
O149 Tb121 2.409 . S
O149 C138 1.254 . S
O150 Tb121 2.378 . S
O150 C139 1.236 . S
O151 Tb120 2.341 . S
O151 C139 1.266 . S
H152 C124 0.929 . S
H153 C125 0.931 . S
H154 C127 0.930 . S
H155 C128 0.930 . S
H156 C133 0.929 . S
H157 C134 0.931 . S
H158 C136 0.930 . S
H159 C137 0.930 . S
Tb160 C162 2.809 1_556 S
Tb160 O180 2.484 1_556 S
Tb160 O181 2.440 1_556 S
Tb160 O182 2.658 . S
Tb160 O183 2.409 . S
Tb160 O184 2.378 1_556 S
Tb160 O188 2.325 1_556 S
Tb160 O191 2.341 . S
Tb161 C171 2.809 1_554 S
Tb161 O182 2.325 1_554 S
Tb161 O185 2.341 . S
Tb161 O186 2.484 1_554 S
Tb161 O187 2.440 1_554 S
Tb161 O188 2.658 . S
Tb161 O189 2.409 . S
Tb161 O190 2.378 1_554 S
C162 Tb160 2.809 1_554 S
C162 C163 1.514 . S
C162 O180 1.248 . S
C162 O181 1.266 . S
C163 C162 1.514 . S
C163 C164 1.359 . S
C163 C168 1.348 . S
C164 C163 1.359 . S
C164 C165 1.380 . S
C164 H192 0.929 . S
C165 C164 1.380 . S
C165 C166 1.347 . S
C165 H193 0.931 . S
C166 C165 1.347 . S
C166 C167 1.369 . S
C167 C166 1.369 . S
C167 C168 1.408 . S
C167 H194 0.930 . S
C168 C163 1.348 . S
C168 C167 1.408 . S
C168 H195 0.930 . S
C169 O182 1.281 . S
C169 O183 1.254 . S
C170 O184 1.236 . S
C170 O185 1.266 . S
C171 Tb161 2.809 1_556 S
C171 C172 1.514 . S
C171 O186 1.248 . S
C171 O187 1.266 . S
C172 C171 1.514 . S
C172 C173 1.359 . S
C172 C177 1.348 . S
C173 C172 1.359 . S
C173 C174 1.380 . S
C173 H196 0.929 . S
C174 C173 1.380 . S
C174 C175 1.347 . S
C174 H197 0.931 . S
C175 C174 1.347 . S
C175 C176 1.369 . S
C176 C175 1.369 . S
C176 C177 1.408 . S
C176 H198 0.930 . S
C177 C172 1.348 . S
C177 C176 1.408 . S
C177 H199 0.930 . S
C178 O188 1.281 . S
C178 O189 1.254 . S
C179 O190 1.236 . S
C179 O191 1.266 . S
O180 Tb160 2.484 1_554 S
O180 C162 1.248 . S
O181 Tb160 2.440 1_554 S
O181 C162 1.266 . S
O182 Tb160 2.658 . S
O182 Tb161 2.325 1_556 S
O182 C169 1.281 . S
O183 Tb160 2.409 . S
O183 C169 1.254 . S
O184 Tb160 2.378 1_554 S
O184 C170 1.236 . S
O185 Tb161 2.341 . S
O185 C170 1.266 . S
O186 Tb161 2.484 1_556 S
O186 C171 1.248 . S
O187 Tb161 2.440 1_556 S
O187 C171 1.266 . S
O188 Tb160 2.325 1_554 S
O188 Tb161 2.658 . S
O188 C178 1.281 . S
O189 Tb161 2.409 . S
O189 C178 1.254 . S
O190 Tb161 2.378 1_556 S
O190 C179 1.236 . S
O191 Tb160 2.341 . S
O191 C179 1.266 . S
H192 C164 0.929 . S
H193 C165 0.931 . S
H194 C167 0.930 . S
H195 C168 0.930 . S
H196 C173 0.929 . S
H197 C174 0.931 . S
H198 C176 0.930 . S
H199 C177 0.930 . S
Tb200 C202 2.809 1_556 S
Tb200 O220 2.484 1_556 S
Tb200 O221 2.440 1_556 S
Tb200 O222 2.658 . S
Tb200 O223 2.409 . S
Tb200 O224 2.378 1_556 S
Tb200 O228 2.325 1_556 S
Tb200 O231 2.341 . S
Tb201 C211 2.809 1_554 S
Tb201 O222 2.325 1_554 S
Tb201 O225 2.341 . S
Tb201 O226 2.484 1_554 S
Tb201 O227 2.440 1_554 S
Tb201 O228 2.658 . S
Tb201 O229 2.409 . S
Tb201 O230 2.378 1_554 S
C202 Tb200 2.809 1_554 S
C202 C203 1.514 . S
C202 O220 1.248 . S
C202 O221 1.266 . S
C203 C202 1.514 . S
C203 C204 1.359 . S
C203 C208 1.348 . S
C204 C203 1.359 . S
C204 C205 1.380 . S
C204 H232 0.929 . S
C205 C204 1.380 . S
C205 C206 1.347 . S
C205 H233 0.931 . S
C206 C205 1.347 . S
C206 C207 1.369 . S
C207 C206 1.369 . S
C207 C208 1.408 . S
C207 H234 0.930 . S
C208 C203 1.348 . S
C208 C207 1.408 . S
C208 H235 0.930 . S
C209 O222 1.281 . S
C209 O223 1.254 . S
C210 O224 1.236 . S
C210 O225 1.266 . S
C211 Tb201 2.809 1_556 S
C211 C212 1.514 . S
C211 O226 1.248 . S
C211 O227 1.266 . S
C212 C211 1.514 . S
C212 C213 1.359 . S
C212 C217 1.348 . S
C213 C212 1.359 . S
C213 C214 1.380 . S
C213 H236 0.929 . S
C214 C213 1.380 . S
C214 C215 1.347 . S
C214 H237 0.931 . S
C215 C214 1.347 . S
C215 C216 1.369 . S
C216 C215 1.369 . S
C216 C217 1.408 . S
C216 H238 0.930 . S
C217 C212 1.348 . S
C217 C216 1.408 . S
C217 H239 0.930 . S
C218 O228 1.281 . S
C218 O229 1.254 . S
C219 O230 1.236 . S
C219 O231 1.266 . S
O220 Tb200 2.484 1_554 S
O220 C202 1.248 . S
O221 Tb200 2.440 1_554 S
O221 C202 1.266 . S
O222 Tb200 2.658 . S
O222 Tb201 2.325 1_556 S
O222 C209 1.281 . S
O223 Tb200 2.409 . S
O223 C209 1.254 . S
O224 Tb200 2.378 1_554 S
O224 C210 1.236 . S
O225 Tb201 2.341 . S
O225 C210 1.266 . S
O226 Tb201 2.484 1_556 S
O226 C211 1.248 . S
O227 Tb201 2.440 1_556 S
O227 C211 1.266 . S
O228 Tb200 2.325 1_554 S
O228 Tb201 2.658 . S
O228 C218 1.281 . S
O229 Tb201 2.409 . S
O229 C218 1.254 . S
O230 Tb201 2.378 1_556 S
O230 C219 1.236 . S
O231 Tb200 2.341 . S
O231 C219 1.266 . S
H232 C204 0.929 . S
H233 C205 0.931 . S
H234 C207 0.930 . S
H235 C208 0.930 . S
H236 C213 0.929 . S
H237 C214 0.931 . S
H238 C216 0.930 . S
H239 C217 0.930 . S
Tb240 C242 2.809 1_554 S
Tb240 O260 2.484 1_554 S
Tb240 O261 2.440 1_554 S
Tb240 O262 2.658 . S
Tb240 O263 2.409 . S
Tb240 O264 2.378 1_554 S
Tb240 O268 2.325 1_554 S
Tb240 O271 2.341 . S
Tb241 C251 2.809 1_556 S
Tb241 O262 2.325 1_556 S
Tb241 O265 2.341 . S
Tb241 O266 2.484 1_556 S
Tb241 O267 2.440 1_556 S
Tb241 O268 2.658 . S
Tb241 O269 2.409 . S
Tb241 O270 2.378 1_556 S
C242 Tb240 2.809 1_556 S
C242 C243 1.514 . S
C242 O260 1.248 . S
C242 O261 1.266 . S
C243 C242 1.514 . S
C243 C244 1.359 . S
C243 C248 1.348 . S
C244 C243 1.359 . S
C244 C245 1.380 . S
C244 H272 0.929 . S
C245 C244 1.380 . S
C245 C246 1.347 . S
C245 H273 0.931 . S
C246 C245 1.347 . S
C246 C247 1.369 . S
C247 C246 1.369 . S
C247 C248 1.408 . S
C247 H274 0.930 . S
C248 C243 1.348 . S
C248 C247 1.408 . S
C248 H275 0.930 . S
C249 O262 1.281 . S
C249 O263 1.254 . S
C250 O264 1.236 . S
C250 O265 1.266 . S
C251 Tb241 2.809 1_554 S
C251 C252 1.514 . S
C251 O266 1.248 . S
C251 O267 1.266 . S
C252 C251 1.514 . S
C252 C253 1.359 . S
C252 C257 1.348 . S
C253 C252 1.359 . S
C253 C254 1.380 . S
C253 H276 0.929 . S
C254 C253 1.380 . S
C254 C255 1.347 . S
C254 H277 0.931 . S
C255 C254 1.347 . S
C255 C256 1.369 . S
C256 C255 1.369 . S
C256 C257 1.408 . S
C256 H278 0.930 . S
C257 C252 1.348 . S
C257 C256 1.408 . S
C257 H279 0.930 . S
C258 O268 1.281 . S
C258 O269 1.254 . S
C259 O270 1.236 . S
C259 O271 1.266 . S
O260 Tb240 2.484 1_556 S
O260 C242 1.248 . S
O261 Tb240 2.440 1_556 S
O261 C242 1.266 . S
O262 Tb240 2.658 . S
O262 Tb241 2.325 1_554 S
O262 C249 1.281 . S
O263 Tb240 2.409 . S
O263 C249 1.254 . S
O264 Tb240 2.378 1_556 S
O264 C250 1.236 . S
O265 Tb241 2.341 . S
O265 C250 1.266 . S
O266 Tb241 2.484 1_554 S
O266 C251 1.248 . S
O267 Tb241 2.440 1_554 S
O267 C251 1.266 . S
O268 Tb240 2.325 1_556 S
O268 Tb241 2.658 . S
O268 C258 1.281 . S
O269 Tb241 2.409 . S
O269 C258 1.254 . S
O270 Tb241 2.378 1_554 S
O270 C259 1.236 . S
O271 Tb240 2.341 . S
O271 C259 1.266 . S
H272 C244 0.929 . S
H273 C245 0.931 . S
H274 C247 0.930 . S
H275 C248 0.930 . S
H276 C253 0.929 . S
H277 C254 0.931 . S
H278 C256 0.930 . S
H279 C257 0.930 . S
Tb280 C282 2.809 1_554 S
Tb280 O300 2.484 1_554 S
Tb280 O301 2.440 1_554 S
Tb280 O302 2.658 . S
Tb280 O303 2.409 . S
Tb280 O304 2.378 1_554 S
Tb280 O308 2.325 1_554 S
Tb280 O311 2.341 . S
Tb281 C291 2.809 1_556 S
Tb281 O302 2.325 1_556 S
Tb281 O305 2.341 . S
Tb281 O306 2.484 1_556 S
Tb281 O307 2.440 1_556 S
Tb281 O308 2.658 . S
Tb281 O309 2.409 . S
Tb281 O310 2.378 1_556 S
C282 Tb280 2.809 1_556 S
C282 C283 1.514 . S
C282 O300 1.248 . S
C282 O301 1.266 . S
C283 C282 1.514 . S
C283 C284 1.359 . S
C283 C288 1.348 . S
C284 C283 1.359 . S
C284 C285 1.380 . S
C284 H312 0.929 . S
C285 C284 1.380 . S
C285 C286 1.347 . S
C285 H313 0.931 . S
C286 C285 1.347 . S
C286 C287 1.369 . S
C287 C286 1.369 . S
C287 C288 1.408 . S
C287 H314 0.930 . S
C288 C283 1.348 . S
C288 C287 1.408 . S
C288 H315 0.930 . S
C289 O302 1.281 . S
C289 O303 1.254 . S
C290 O304 1.236 . S
C290 O305 1.266 . S
C291 Tb281 2.809 1_554 S
C291 C292 1.514 . S
C291 O306 1.248 . S
C291 O307 1.266 . S
C292 C291 1.514 . S
C292 C293 1.359 . S
C292 C297 1.348 . S
C293 C292 1.359 . S
C293 C294 1.380 . S
C293 H316 0.929 . S
C294 C293 1.380 . S
C294 C295 1.347 . S
C294 H317 0.931 . S
C295 C294 1.347 . S
C295 C296 1.369 . S
C296 C295 1.369 . S
C296 C297 1.408 . S
C296 H318 0.930 . S
C297 C292 1.348 . S
C297 C296 1.408 . S
C297 H319 0.930 . S
C298 O308 1.281 . S
C298 O309 1.254 . S
C299 O310 1.236 . S
C299 O311 1.266 . S
O300 Tb280 2.484 1_556 S
O300 C282 1.248 . S
O301 Tb280 2.440 1_556 S
O301 C282 1.266 . S
O302 Tb280 2.658 . S
O302 Tb281 2.325 1_554 S
O302 C289 1.281 . S
O303 Tb280 2.409 . S
O303 C289 1.254 . S
O304 Tb280 2.378 1_556 S
O304 C290 1.236 . S
O305 Tb281 2.341 . S
O305 C290 1.266 . S
O306 Tb281 2.484 1_554 S
O306 C291 1.248 . S
O307 Tb281 2.440 1_554 S
O307 C291 1.266 . S
O308 Tb280 2.325 1_556 S
O308 Tb281 2.658 . S
O308 C298 1.281 . S
O309 Tb281 2.409 . S
O309 C298 1.254 . S
O310 Tb281 2.378 1_554 S
O310 C299 1.236 . S
O311 Tb280 2.341 . S
O311 C299 1.266 . S
H312 C284 0.929 . S
H313 C285 0.931 . S
H314 C287 0.930 . S
H315 C288 0.930 . S
H316 C293 0.929 . S
H317 C294 0.931 . S
H318 C296 0.930 . S
H319 C297 0.930 . S
H320 C326 0.930 . S
H321 C329 0.930 . S
H322 C330 0.930 . S
H323 C331 0.930 . S
H324 C334 0.930 . S
H325 C335 0.930 . S
C326 H320 0.930 . S
C326 C327 1.355 . S
C326 C328 1.415 . S
C327 C326 1.355 . S
C327 C329 1.419 . S
C328 C326 1.415 . S
C328 C333 1.425 . S
C328 C335 1.409 . S
C329 H321 0.930 . S
C329 C327 1.419 . S
C329 C330 1.362 . S
C330 H322 0.930 . S
C330 C329 1.362 . S
C330 C333 1.409 . S
C331 H323 0.930 . S
C331 C332 1.355 . S
C331 C333 1.415 . S
C332 C331 1.355 . S
C332 C334 1.419 . S
C333 C328 1.425 . S
C333 C330 1.409 . S
C333 C331 1.415 . S
C334 H324 0.930 . S
C334 C332 1.419 . S
C334 C335 1.362 . S
C335 H325 0.930 . S
C335 C328 1.409 . S
C335 C334 1.362 . S
H336 C342 0.930 . S
H337 C345 0.930 . S
H338 C346 0.930 . S
H339 C347 0.930 . S
H340 C350 0.930 . S
H341 C351 0.930 . S
C342 H336 0.930 . S
C342 C343 1.355 . S
C342 C344 1.415 . S
C343 C342 1.355 . S
C343 C345 1.419 . S
C344 C342 1.415 . S
C344 C349 1.425 . S
C344 C351 1.409 . S
C345 H337 0.930 . S
C345 C343 1.419 . S
C345 C346 1.362 . S
C346 H338 0.930 . S
C346 C345 1.362 . S
C346 C349 1.409 . S
C347 H339 0.930 . S
C347 C348 1.355 . S
C347 C349 1.415 . S
C348 C347 1.355 . S
C348 C350 1.419 . S
C349 C344 1.425 . S
C349 C346 1.409 . S
C349 C347 1.415 . S
C350 H340 0.930 . S
C350 C348 1.419 . S
C350 C351 1.362 . S
C351 H341 0.930 . S
C351 C344 1.409 . S
C351 C350 1.362 . S
H352 C358 0.930 . S
H353 C361 0.930 . S
H354 C362 0.930 . S
H355 C363 0.930 . S
H356 C366 0.930 . S
H357 C367 0.930 . S
C358 H352 0.930 . S
C358 C359 1.355 . S
C358 C360 1.415 . S
C359 C358 1.355 . S
C359 C361 1.419 . S
C360 C358 1.415 . S
C360 C365 1.425 . S
C360 C367 1.409 . S
C361 H353 0.930 . S
C361 C359 1.419 . S
C361 C362 1.362 . S
C362 H354 0.930 . S
C362 C361 1.362 . S
C362 C365 1.409 . S
C363 H355 0.930 . S
C363 C364 1.355 . S
C363 C365 1.415 . S
C364 C363 1.355 . S
C364 C366 1.419 . S
C365 C360 1.425 . S
C365 C362 1.409 . S
C365 C363 1.415 . S
C366 H356 0.930 . S
C366 C364 1.419 . S
C366 C367 1.362 . S
C367 H357 0.930 . S
C367 C360 1.409 . S
C367 C366 1.362 . S
H368 C374 0.930 . S
H369 C377 0.930 . S
H370 C378 0.930 . S
H371 C379 0.930 . S
H372 C382 0.930 . S
H373 C383 0.930 . S
C374 H368 0.930 . S
C374 C375 1.355 . S
C374 C376 1.415 . S
C375 C374 1.355 . S
C375 C377 1.419 . S
C376 C374 1.415 . S
C376 C381 1.425 . S
C376 C383 1.409 . S
C377 H369 0.930 . S
C377 C375 1.419 . S
C377 C378 1.362 . S
C378 H370 0.930 . S
C378 C377 1.362 . S
C378 C381 1.409 . S
C379 H371 0.930 . S
C379 C380 1.355 . S
C379 C381 1.415 . S
C380 C379 1.355 . S
C380 C382 1.419 . S
C381 C376 1.425 . S
C381 C378 1.409 . S
C381 C379 1.415 . S
C382 H372 0.930 . S
C382 C380 1.419 . S
C382 C383 1.362 . S
C383 H373 0.930 . S
C383 C376 1.409 . S
C383 C382 1.362 . S
H384 C390 0.930 . S
H385 C393 0.930 . S
H386 C394 0.930 . S
H387 C395 0.930 . S
H388 C398 0.930 . S
H389 C399 0.930 . S
C390 H384 0.930 . S
C390 C391 1.355 . S
C390 C392 1.415 . S
C391 C390 1.355 . S
C391 C393 1.419 . S
C392 C390 1.415 . S
C392 C397 1.425 1_565 S
C392 C399 1.409 1_565 S
C393 H385 0.930 . S
C393 C391 1.419 . S
C393 C394 1.362 . S
C394 H386 0.930 . S
C394 C393 1.362 . S
C394 C397 1.409 1_565 S
C395 H387 0.930 . S
C395 C396 1.355 . S
C395 C397 1.415 . S
C396 C395 1.355 . S
C396 C398 1.419 . S
C397 C392 1.425 1_545 S
C397 C394 1.409 1_545 S
C397 C395 1.415 . S
C398 H388 0.930 . S
C398 C396 1.419 . S
C398 C399 1.362 . S
C399 H389 0.930 . S
C399 C392 1.409 1_545 S
C399 C398 1.362 . S
H400 C406 0.930 . S
H401 C409 0.930 . S
H402 C410 0.930 . S
H403 C411 0.930 . S
H404 C414 0.930 . S
H405 C415 0.930 . S
C406 H400 0.930 . S
C406 C407 1.355 . S
C406 C408 1.415 . S
C407 C406 1.355 . S
C407 C409 1.419 . S
C408 C406 1.415 . S
C408 C413 1.425 . S
C408 C415 1.409 . S
C409 H401 0.930 . S
C409 C407 1.419 . S
C409 C410 1.362 . S
C410 H402 0.930 . S
C410 C409 1.362 . S
C410 C413 1.409 . S
C411 H403 0.930 . S
C411 C412 1.355 . S
C411 C413 1.415 . S
C412 C411 1.355 . S
C412 C414 1.419 . S
C413 C408 1.425 . S
C413 C410 1.409 . S
C413 C411 1.415 . S
C414 H404 0.930 . S
C414 C412 1.419 . S
C414 C415 1.362 . S
C415 H405 0.930 . S
C415 C408 1.409 . S
C415 C414 1.362 . S
H416 C422 0.930 . S
H417 C425 0.930 . S
H418 C426 0.930 1_545 S
H419 C427 0.930 . S
H420 C430 0.930 . S
H421 C431 0.930 1_565 S
C422 H416 0.930 . S
C422 C423 1.355 . S
C422 C424 1.415 . S
C423 C422 1.355 . S
C423 C425 1.419 . S
C424 C422 1.415 . S
C424 C429 1.425 1_565 S
C424 C431 1.409 1_565 S
C425 H417 0.930 . S
C425 C423 1.419 . S
C425 C426 1.362 . S
C426 H418 0.930 1_565 S
C426 C425 1.362 . S
C426 C429 1.409 1_565 S
C427 H419 0.930 . S
C427 C428 1.355 . S
C427 C429 1.415 . S
C428 C427 1.355 . S
C428 C430 1.419 . S
C429 C424 1.425 1_545 S
C429 C426 1.409 1_545 S
C429 C427 1.415 . S
C430 H420 0.930 . S
C430 C428 1.419 . S
C430 C431 1.362 . S
C431 H421 0.930 1_545 S
C431 C424 1.409 1_545 S
C431 C430 1.362 . S
H432 C438 0.930 . S
H433 C441 0.930 . S
H434 C442 0.930 . S
H435 C443 0.930 . S
H436 C446 0.930 . S
H437 C447 0.930 . S
C438 H432 0.930 . S
C438 C439 1.355 . S
C438 C440 1.415 . S
C439 C438 1.355 . S
C439 C441 1.419 . S
C440 C438 1.415 . S
C440 C445 1.425 . S
C440 C447 1.409 . S
C441 H433 0.930 . S
C441 C439 1.419 . S
C441 C442 1.362 . S
C442 H434 0.930 . S
C442 C441 1.362 . S
C442 C445 1.409 . S
C443 H435 0.930 . S
C443 C444 1.355 . S
C443 C445 1.415 . S
C444 C443 1.355 . S
C444 C446 1.419 . S
C445 C440 1.425 . S
C445 C442 1.409 . S
C445 C443 1.415 . S
C446 H436 0.930 . S
C446 C444 1.419 . S
C446 C447 1.362 . S
C447 H437 0.930 . S
C447 C440 1.409 . S
C447 C446 1.362 . S
H448 C454 0.930 . S
H449 C457 0.930 . S
H450 C458 0.930 . S
H451 C459 0.930 . S
H452 C462 0.930 . S
H453 C463 0.930 . S
C454 H448 0.930 . S
C454 C455 1.355 . S
C454 C456 1.415 1_554 S
C455 C454 1.355 . S
C455 C457 1.419 . S
C456 C454 1.415 1_556 S
C456 C461 1.425 1_556 S
C456 C463 1.409 . S
C457 H449 0.930 . S
C457 C455 1.419 . S
C457 C458 1.362 . S
C458 H450 0.930 . S
C458 C457 1.362 . S
C458 C461 1.409 . S
C459 H451 0.930 . S
C459 C460 1.355 . S
C459 C461 1.415 1_556 S
C460 C459 1.355 . S
C460 C462 1.419 . S
C461 C456 1.425 1_554 S
C461 C458 1.409 . S
C461 C459 1.415 1_554 S
C462 H452 0.930 . S
C462 C460 1.419 . S
C462 C463 1.362 . S
C463 H453 0.930 . S
C463 C456 1.409 . S
C463 C462 1.362 . S
H464 C470 0.930 . S
H465 C473 0.930 . S
H466 C474 0.930 . S
H467 C475 0.930 . S
H468 C478 0.930 . S
H469 C479 0.930 . S
C470 H464 0.930 . S
C470 C471 1.355 1_556 S
C470 C472 1.415 . S
C471 C470 1.355 1_554 S
C471 C473 1.419 . S
C472 C470 1.415 . S
C472 C477 1.425 1_566 S
C472 C479 1.409 1_565 S
C473 H465 0.930 . S
C473 C471 1.419 . S
C473 C474 1.362 . S
C474 H466 0.930 . S
C474 C473 1.362 . S
C474 C477 1.409 1_565 S
C475 H467 0.930 . S
C475 C476 1.355 1_554 S
C475 C477 1.415 . S
C476 C475 1.355 1_556 S
C476 C478 1.419 . S
C477 C472 1.425 1_544 S
C477 C474 1.409 1_545 S
C477 C475 1.415 . S
C478 H468 0.930 . S
C478 C476 1.419 . S
C478 C479 1.362 . S
C479 H469 0.930 . S
C479 C472 1.409 1_545 S
C479 C478 1.362 . S
H480 C486 0.930 . S
H481 C489 0.930 . S
H482 C490 0.930 . S
H483 C491 0.930 . S
H484 C494 0.930 . S
H485 C495 0.930 . S
C486 H480 0.930 . S
C486 C487 1.355 1_554 S
C486 C488 1.415 . S
C487 C486 1.355 1_556 S
C487 C489 1.419 . S
C488 C486 1.415 . S
C488 C493 1.425 1_554 S
C488 C495 1.409 . S
C489 H481 0.930 . S
C489 C487 1.419 . S
C489 C490 1.362 . S
C490 H482 0.930 . S
C490 C489 1.362 . S
C490 C493 1.409 . S
C491 H483 0.930 . S
C491 C492 1.355 1_556 S
C491 C493 1.415 . S
C492 C491 1.355 1_554 S
C492 C494 1.419 . S
C493 C488 1.425 1_556 S
C493 C490 1.409 . S
C493 C491 1.415 . S
C494 H484 0.930 . S
C494 C492 1.419 . S
C494 C495 1.362 . S
C495 H485 0.930 . S
C495 C488 1.409 . S
C495 C494 1.362 . S
H496 C502 0.930 . S
H497 C505 0.930 . S
H498 C506 0.930 . S
H499 C507 0.930 . S
H500 C510 0.930 . S
H501 C511 0.930 . S
C502 H496 0.930 . S
C502 C503 1.355 1_556 S
C502 C504 1.415 . S
C503 C502 1.355 1_554 S
C503 C505 1.419 . S
C504 C502 1.415 . S
C504 C509 1.425 1_546 S
C504 C511 1.409 1_545 S
C505 H497 0.930 . S
C505 C503 1.419 . S
C505 C506 1.362 . S
C506 H498 0.930 . S
C506 C505 1.362 . S
C506 C509 1.409 1_545 S
C507 H499 0.930 . S
C507 C508 1.355 1_554 S
C507 C509 1.415 . S
C508 C507 1.355 1_556 S
C508 C510 1.419 . S
C509 C504 1.425 1_564 S
C509 C506 1.409 1_565 S
C509 C507 1.415 . S
C510 H500 0.930 . S
C510 C508 1.419 . S
C510 C511 1.362 . S
C511 H501 0.930 . S
C511 C504 1.409 1_565 S
C511 C510 1.362 . S
H512 C518 0.930 . S
H513 C521 0.930 . S
H514 C522 0.930 . S
H515 C523 0.930 . S
H516 C526 0.930 . S
H517 C527 0.930 . S
C518 H512 0.930 . S
C518 C519 1.355 . S
C518 C520 1.415 1_554 S
C519 C518 1.355 . S
C519 C521 1.419 . S
C520 C518 1.415 1_556 S
C520 C525 1.425 . S
C520 C527 1.409 . S
C521 H513 0.930 . S
C521 C519 1.419 . S
C521 C522 1.362 1_554 S
C522 H514 0.930 . S
C522 C521 1.362 1_556 S
C522 C525 1.409 . S
C523 H515 0.930 . S
C523 C524 1.355 . S
C523 C525 1.415 . S
C524 C523 1.355 . S
C524 C526 1.419 . S
C525 C520 1.425 . S
C525 C522 1.409 . S
C525 C523 1.415 . S
C526 H516 0.930 . S
C526 C524 1.419 . S
C526 C527 1.362 . S
C527 H517 0.930 . S
C527 C520 1.409 . S
C527 C526 1.362 . S
H528 C534 0.930 . S
H529 C537 0.930 . S
H530 C538 0.930 . S
H531 C539 0.930 . S
H532 C542 0.930 . S
H533 C543 0.930 . S
C534 H528 0.930 . S
C534 C535 1.355 . S
C534 C536 1.415 1_554 S
C535 C534 1.355 . S
C535 C537 1.419 . S
C536 C534 1.415 1_556 S
C536 C541 1.425 . S
C536 C543 1.409 . S
C537 H529 0.930 . S
C537 C535 1.419 . S
C537 C538 1.362 1_554 S
C538 H530 0.930 . S
C538 C537 1.362 1_556 S
C538 C541 1.409 . S
C539 H531 0.930 . S
C539 C540 1.355 . S
C539 C541 1.415 . S
C540 C539 1.355 . S
C540 C542 1.419 . S
C541 C536 1.425 . S
C541 C538 1.409 . S
C541 C539 1.415 . S
C542 H532 0.930 . S
C542 C540 1.419 . S
C542 C543 1.362 . S
C543 H533 0.930 . S
C543 C536 1.409 . S
C543 C542 1.362 . S
H544 C550 0.930 . S
H545 C553 0.930 . S
H546 C554 0.930 . S
H547 C555 0.930 . S
H548 C558 0.930 . S
H549 C559 0.930 . S
C550 H544 0.930 . S
C550 C551 1.355 . S
C550 C552 1.415 . S
C551 C550 1.355 . S
C551 C553 1.419 . S
C552 C550 1.415 . S
C552 C557 1.425 . S
C552 C559 1.409 . S
C553 H545 0.930 . S
C553 C551 1.419 . S
C553 C554 1.362 . S
C554 H546 0.930 . S
C554 C553 1.362 . S
C554 C557 1.409 . S
C555 H547 0.930 . S
C555 C556 1.355 . S
C555 C557 1.415 1_556 S
C556 C555 1.355 . S
C556 C558 1.419 . S
C557 C552 1.425 . S
C557 C554 1.409 . S
C557 C555 1.415 1_554 S
C558 H548 0.930 . S
C558 C556 1.419 . S
C558 C559 1.362 1_556 S
C559 H549 0.930 . S
C559 C552 1.409 . S
C559 C558 1.362 1_554 S
H560 C566 0.930 . S
H561 C569 0.930 . S
H562 C570 0.930 . S
H563 C571 0.930 . S
H564 C574 0.930 . S
H565 C575 0.930 . S
C566 H560 0.930 . S
C566 C567 1.355 . S
C566 C568 1.415 1_556 S
C567 C566 1.355 . S
C567 C569 1.419 . S
C568 C566 1.415 1_554 S
C568 C573 1.425 . S
C568 C575 1.409 . S
C569 H561 0.930 . S
C569 C567 1.419 . S
C569 C570 1.362 1_556 S
C570 H562 0.930 . S
C570 C569 1.362 1_554 S
C570 C573 1.409 . S
C571 H563 0.930 . S
C571 C572 1.355 . S
C571 C573 1.415 . S
C572 C571 1.355 . S
C572 C574 1.419 . S
C573 C568 1.425 . S
C573 C570 1.409 . S
C573 C571 1.415 . S
C574 H564 0.930 . S
C574 C572 1.419 . S
C574 C575 1.362 . S
C575 H565 0.930 . S
C575 C568 1.409 . S
C575 C574 1.362 . S
H576 C582 0.930 . S
H577 C585 0.930 . S
H578 C586 0.930 . S
H579 C587 0.930 . S
H580 C590 0.930 . S
H581 C591 0.930 . S
C582 H576 0.930 . S
C582 C583 1.355 . S
C582 C584 1.415 . S
C583 C582 1.355 . S
C583 C585 1.419 . S
C584 C582 1.415 . S
C584 C589 1.425 . S
C584 C591 1.409 . S
C585 H577 0.930 . S
C585 C583 1.419 . S
C585 C586 1.362 . S
C586 H578 0.930 . S
C586 C585 1.362 . S
C586 C589 1.409 . S
C587 H579 0.930 . S
C587 C588 1.355 . S
C587 C589 1.415 . S
C588 C587 1.355 . S
C588 C590 1.419 . S
C589 C584 1.425 . S
C589 C586 1.409 . S
C589 C587 1.415 . S
C590 H580 0.930 . S
C590 C588 1.419 . S
C590 C591 1.362 . S
C591 H581 0.930 . S
C591 C584 1.409 . S
C591 C590 1.362 . S
H592 C598 0.930 . S
H593 C601 0.930 . S
H594 C602 0.930 . S
H595 C603 0.930 . S
H596 C606 0.930 . S
H597 C607 0.930 . S
C598 H592 0.930 . S
C598 C599 1.355 . S
C598 C600 1.415 . S
C599 C598 1.355 . S
C599 C601 1.419 . S
C600 C598 1.415 . S
C600 C605 1.425 . S
C600 C607 1.409 . S
C601 H593 0.930 . S
C601 C599 1.419 . S
C601 C602 1.362 . S
C602 H594 0.930 . S
C602 C601 1.362 . S
C602 C605 1.409 . S
C603 H595 0.930 . S
C603 C604 1.355 . S
C603 C605 1.415 . S
C604 C603 1.355 . S
C604 C606 1.419 . S
C605 C600 1.425 . S
C605 C602 1.409 . S
C605 C603 1.415 . S
C606 H596 0.930 . S
C606 C604 1.419 . S
C606 C607 1.362 . S
C607 H597 0.930 . S
C607 C600 1.409 . S
C607 C606 1.362 . S
H608 C614 0.930 . S
H609 C617 0.930 . S
H610 C618 0.930 . S
H611 C619 0.930 . S
H612 C622 0.930 . S
H613 C623 0.930 . S
C614 H608 0.930 . S
C614 C615 1.355 . S
C614 C616 1.415 . S
C615 C614 1.355 . S
C615 C617 1.419 . S
C616 C614 1.415 . S
C616 C621 1.425 . S
C616 C623 1.409 . S
C617 H609 0.930 . S
C617 C615 1.419 . S
C617 C618 1.362 . S
C618 H610 0.930 . S
C618 C617 1.362 . S
C618 C621 1.409 . S
C619 H611 0.930 . S
C619 C620 1.355 . S
C619 C621 1.415 . S
C620 C619 1.355 . S
C620 C622 1.419 . S
C621 C616 1.425 . S
C621 C618 1.409 . S
C621 C619 1.415 . S
C622 H612 0.930 . S
C622 C620 1.419 . S
C622 C623 1.362 . S
C623 H613 0.930 . S
C623 C616 1.409 . S
C623 C622 1.362 . S
H624 C630 0.930 . S
H625 C633 0.930 . S
H626 C634 0.930 . S
H627 C635 0.930 . S
H628 C638 0.930 . S
H629 C639 0.930 . S
C630 H624 0.930 . S
C630 C631 1.355 . S
C630 C632 1.415 . S
C631 C630 1.355 . S
C631 C633 1.419 . S
C632 C630 1.415 . S
C632 C637 1.425 . S
C632 C639 1.409 . S
C633 H625 0.930 . S
C633 C631 1.419 . S
C633 C634 1.362 . S
C634 H626 0.930 . S
C634 C633 1.362 . S
C634 C637 1.409 . S
C635 H627 0.930 . S
C635 C636 1.355 . S
C635 C637 1.415 . S
C636 C635 1.355 . S
C636 C638 1.419 . S
C637 C632 1.425 . S
C637 C634 1.409 . S
C637 C635 1.415 . S
C638 H628 0.930 . S
C638 C636 1.419 . S
C638 C639 1.362 . S
C639 H629 0.930 . S
C639 C632 1.409 . S
C639 C638 1.362 . S
H640 C646 0.930 . S
H641 C649 0.930 . S
H642 C650 0.930 . S
H643 C651 0.930 . S
H644 C654 0.930 . S
H645 C655 0.930 . S
C646 H640 0.930 . S
C646 C647 1.355 . S
C646 C648 1.415 . S
C647 C646 1.355 . S
C647 C649 1.419 . S
C648 C646 1.415 . S
C648 C653 1.425 1_455 S
C648 C655 1.409 1_455 S
C649 H641 0.930 . S
C649 C647 1.419 . S
C649 C650 1.362 . S
C650 H642 0.930 . S
C650 C649 1.362 . S
C650 C653 1.409 1_455 S
C651 H643 0.930 . S
C651 C652 1.355 . S
C651 C653 1.415 . S
C652 C651 1.355 . S
C652 C654 1.419 . S
C653 C648 1.425 1_655 S
C653 C650 1.409 1_655 S
C653 C651 1.415 . S
C654 H644 0.930 . S
C654 C652 1.419 . S
C654 C655 1.362 . S
C655 H645 0.930 . S
C655 C648 1.409 1_655 S
C655 C654 1.362 . S
H656 C662 0.930 . S
H657 C665 0.930 . S
H658 C666 0.930 . S
H659 C667 0.930 . S
H660 C670 0.930 . S
H661 C671 0.930 . S
C662 H656 0.930 . S
C662 C663 1.355 . S
C662 C664 1.415 . S
C663 C662 1.355 . S
C663 C665 1.419 . S
C664 C662 1.415 . S
C664 C669 1.425 1_655 S
C664 C671 1.409 1_655 S
C665 H657 0.930 . S
C665 C663 1.419 . S
C665 C666 1.362 . S
C666 H658 0.930 . S
C666 C665 1.362 . S
C666 C669 1.409 1_655 S
C667 H659 0.930 . S
C667 C668 1.355 . S
C667 C669 1.415 . S
C668 C667 1.355 . S
C668 C670 1.419 . S
C669 C664 1.425 1_455 S
C669 C666 1.409 1_455 S
C669 C667 1.415 . S
C670 H660 0.930 . S
C670 C668 1.419 . S
C670 C671 1.362 . S
C671 H661 0.930 . S
C671 C664 1.409 1_455 S
C671 C670 1.362 . S
H672 C678 0.930 . S
H673 C681 0.930 . S
H674 C682 0.930 . S
H675 C683 0.930 . S
H676 C686 0.930 . S
H677 C687 0.930 . S
C678 H672 0.930 . S
C678 C679 1.355 . S
C678 C680 1.415 . S
C679 C678 1.355 . S
C679 C681 1.419 . S
C680 C678 1.415 . S
C680 C685 1.425 . S
C680 C687 1.409 . S
C681 H673 0.930 . S
C681 C679 1.419 . S
C681 C682 1.362 . S
C682 H674 0.930 . S
C682 C681 1.362 . S
C682 C685 1.409 . S
C683 H675 0.930 . S
C683 C684 1.355 . S
C683 C685 1.415 . S
C684 C683 1.355 . S
C684 C686 1.419 . S
C685 C680 1.425 . S
C685 C682 1.409 . S
C685 C683 1.415 . S
C686 H676 0.930 . S
C686 C684 1.419 . S
C686 C687 1.362 . S
C687 H677 0.930 . S
C687 C680 1.409 . S
C687 C686 1.362 . S
H688 C694 0.930 . S
H689 C697 0.930 . S
H690 C698 0.930 . S
H691 C699 0.930 . S
H692 C702 0.930 . S
H693 C703 0.930 . S
C694 H688 0.930 . S
C694 C695 1.355 . S
C694 C696 1.415 . S
C695 C694 1.355 . S
C695 C697 1.419 . S
C696 C694 1.415 . S
C696 C701 1.425 . S
C696 C703 1.409 . S
C697 H689 0.930 . S
C697 C695 1.419 . S
C697 C698 1.362 . S
C698 H690 0.930 . S
C698 C697 1.362 . S
C698 C701 1.409 . S
C699 H691 0.930 . S
C699 C700 1.355 . S
C699 C701 1.415 . S
C700 C699 1.355 . S
C700 C702 1.419 . S
C701 C696 1.425 . S
C701 C698 1.409 . S
C701 C699 1.415 . S
C702 H692 0.930 . S
C702 C700 1.419 . S
C702 C703 1.362 . S
C703 H693 0.930 . S
C703 C696 1.409 . S
C703 C702 1.362 . S
C327 C6 1.693 . S
C332 C286 1.702 . S
C343 C246 1.703 . S
C348 C46 1.694 . S
C359 C206 1.717 . S
C364 C86 1.711 . S
C375 C166 1.679 . S
C380 C126 1.680 . S
C391 C89 1.808 . S
C396 C9 1.864 . S
C407 C49 1.862 . S
C412 C129 1.807 . S
C423 C138 1.318 . S
C428 C58 1.368 . S
C439 C98 1.304 . S
C444 C18 1.368 . S
C455 C169 1.660 1_554 S
C460 C249 1.717 1_556 S
C471 C209 1.696 1_554 S
C476 C289 1.694 1_556 S
C487 C298 1.192 . S
C492 C218 1.124 . S
C503 C258 1.136 1_554 S
C508 C178 1.214 1_556 S
C519 C19 2.093 . S
C524 C10 2.093 . S
C535 C59 2.090 . S
C540 C50 2.090 . S
C551 C90 2.053 . S
C556 C99 2.053 . S
C567 C139 2.088 . S
C572 C130 2.088 . S
C583 C170 2.096 . S
C588 C179 2.096 . S
C599 C219 2.056 . S
C604 C210 2.056 . S
C615 C259 2.096 . S
C620 C250 2.096 . S
C631 C299 2.078 . S
C636 C290 2.078 . S
C647 C15 2.329 . S
C652 C55 2.301 . S
C663 C135 2.316 . S
C668 C95 2.294 . S
C679 C175 2.300 . S
C684 C215 2.331 . S
C695 C295 2.328 . S
C700 C255 2.291 . S
