# Generated by pormake.
# Topology ske, (6)-cn, num edge types: 1
# Building blocks:
#     Node 0, Type 0, BuildingBlock: BETFEN_clean_sbu_0, # of connection points: 6
#     Node 1, Type 0, BuildingBlock: BETFEN_clean_sbu_0, # of connection points: 6
#     Node 2, Type 0, BuildingBlock: BETFEN_clean_sbu_0, # of connection points: 6
#     Node 3, Type 0, BuildingBlock: BETFEN_clean_sbu_0, # of connection points: 6
#     Node 4, Type 0, BuildingBlock: BETFEN_clean_sbu_0, # of connection points: 6
#     Node 5, Type 0, BuildingBlock: BETFEN_clean_sbu_0, # of connection points: 6
#     Node 6, Type 0, BuildingBlock: BETFEN_clean_sbu_0, # of connection points: 6
#     Node 7, Type 0, BuildingBlock: BETFEN_clean_sbu_0, # of connection points: 6
#     Edge 8, Type (0, 0), BuildingBlock: OJICUG_clean_linker_0, # of connection points: 2
#     Edge 9, Type (0, 0), BuildingBlock: OJICUG_clean_linker_0, # of connection points: 2
#     Edge 10, Type (0, 0), BuildingBlock: OJICUG_clean_linker_0, # of connection points: 2
#     Edge 11, Type (0, 0), BuildingBlock: OJICUG_clean_linker_0, # of connection points: 2
#     Edge 12, Type (0, 0), BuildingBlock: OJICUG_clean_linker_0, # of connection points: 2
#     Edge 13, Type (0, 0), BuildingBlock: OJICUG_clean_linker_0, # of connection points: 2
#     Edge 14, Type (0, 0), BuildingBlock: OJICUG_clean_linker_0, # of connection points: 2
#     Edge 15, Type (0, 0), BuildingBlock: OJICUG_clean_linker_0, # of connection points: 2
#     Edge 16, Type (0, 0), BuildingBlock: OJICUG_clean_linker_0, # of connection points: 2
#     Edge 17, Type (0, 0), BuildingBlock: OJICUG_clean_linker_0, # of connection points: 2
#     Edge 18, Type (0, 0), BuildingBlock: OJICUG_clean_linker_0, # of connection points: 2
#     Edge 19, Type (0, 0), BuildingBlock: OJICUG_clean_linker_0, # of connection points: 2
#     Edge 20, Type (0, 0), BuildingBlock: OJICUG_clean_linker_0, # of connection points: 2
#     Edge 21, Type (0, 0), BuildingBlock: OJICUG_clean_linker_0, # of connection points: 2
#     Edge 22, Type (0, 0), BuildingBlock: OJICUG_clean_linker_0, # of connection points: 2
#     Edge 23, Type (0, 0), BuildingBlock: OJICUG_clean_linker_0, # of connection points: 2
#     Edge 24, Type (0, 0), BuildingBlock: OJICUG_clean_linker_0, # of connection points: 2
#     Edge 25, Type (0, 0), BuildingBlock: OJICUG_clean_linker_0, # of connection points: 2
#     Edge 26, Type (0, 0), BuildingBlock: OJICUG_clean_linker_0, # of connection points: 2
#     Edge 27, Type (0, 0), BuildingBlock: OJICUG_clean_linker_0, # of connection points: 2
#     Edge 28, Type (0, 0), BuildingBlock: OJICUG_clean_linker_0, # of connection points: 2
#     Edge 29, Type (0, 0), BuildingBlock: OJICUG_clean_linker_0, # of connection points: 2
#     Edge 30, Type (0, 0), BuildingBlock: OJICUG_clean_linker_0, # of connection points: 2
#     Edge 31, Type (0, 0), BuildingBlock: OJICUG_clean_linker_0, # of connection points: 2
# Relax obj value: 0.203
# Max RMSD: 0.211
# Mean RMSD: 0.204
data_MOF--net-ske--node1-BETFEN_clean_sbu_0--edge1-OJICUG_clean_linker_0
_symmetry_space_group_name_H-M    P1
_symmetry_Int_Tables_number       1
_symmetry_cell_setting            triclinic
loop_
_symmetry_equiv_pos_as_xyz
'x, y, z'
_cell_length_a     88.714717
_cell_length_b     21.214244
_cell_length_c     11.627838
_cell_angle_alpha  89.993006
_cell_angle_beta   89.998958
_cell_angle_gamma 84.425246
loop_
_atom_site_label
_atom_site_type_symbol
_atom_site_fract_x
_atom_site_fract_y
_atom_site_fract_z
_atom_type_partial_charge
Pr0 Pr 0.15929 0.25586 0.54343 0.0
Pr1 Pr 0.12461 0.25216 0.54628 0.0
C2 C 0.18823 0.28463 0.56285 0.0
C3 C 0.20308 0.27244 0.62156 0.0
C4 C 0.21179 0.21356 0.61365 0.0
C5 C 0.2265 0.20554 0.65884 0.0
C6 C 0.23287 0.25616 0.71284 0.0
C7 C 0.22397 0.31452 0.72303 0.0
C8 C 0.20928 0.32254 0.6777 0.0
C9 C 0.15021 0.13279 0.53609 0.0
C10 C 0.14193 0.2508 0.7955 0.0
C11 C 0.09561 0.22328 0.53194 0.0
C12 C 0.07934 0.24037 0.50649 0.0
C13 C 0.07051 0.28468 0.57446 0.0
C14 C 0.05472 0.29179 0.56381 0.0
C15 C 0.04735 0.25486 0.48496 0.0
C16 C 0.05624 0.21291 0.41295 0.0
C17 C 0.07205 0.20554 0.42406 0.0
C18 C 0.13363 0.37579 0.5467 0.0
C19 C 0.14239 0.25172 0.2955 0.0
O20 O 0.17697 0.31459 0.61949 0.0
O21 O 0.18398 0.24165 0.49236 0.0
O22 O 0.14397 0.17766 0.59576 0.0
O23 O 0.16255 0.14857 0.48883 0.0
O24 O 0.13043 0.2301 0.73967 0.0
O25 O 0.15347 0.27097 0.73938 0.0
O26 O 0.10532 0.21251 0.44779 0.0
O27 O 0.10141 0.24794 0.62282 0.0
O28 O 0.13984 0.3297 0.49012 0.0
O29 O 0.12132 0.36062 0.59519 0.0
O30 O 0.15348 0.27632 0.35015 0.0
O31 O 0.13118 0.22949 0.35305 0.0
H32 H 0.20737 0.17398 0.57066 0.0
H33 H 0.23293 0.15966 0.65088 0.0
H34 H 0.22852 0.35481 0.76266 0.0
H35 H 0.20291 0.36865 0.68373 0.0
H36 H 0.07573 0.31223 0.63907 0.0
H37 H 0.04823 0.32527 0.61933 0.0
H38 H 0.05095 0.18344 0.35189 0.0
H39 H 0.07854 0.17047 0.37158 0.0
Pr40 Pr 0.86965 0.25979 0.54324 0.0
Pr41 Pr 0.90432 0.2635 0.54606 0.0
C42 C 0.8407 0.23108 0.56273 0.0
C43 C 0.82585 0.24339 0.6214 0.0
C44 C 0.817 0.30181 0.61105 0.0
C45 C 0.80228 0.30981 0.65622 0.0
C46 C 0.79605 0.25961 0.71263 0.0
C47 C 0.80509 0.20173 0.72524 0.0
C48 C 0.81978 0.19373 0.67992 0.0
C49 C 0.87872 0.38287 0.53581 0.0
C50 C 0.88701 0.26484 0.7953 0.0
C51 C 0.93332 0.29238 0.5316 0.0
C52 C 0.9496 0.2752 0.50645 0.0
C53 C 0.95843 0.2314 0.57542 0.0
C54 C 0.97423 0.22428 0.56485 0.0
C55 C 0.98159 0.26069 0.4851 0.0
C56 C 0.9727 0.3021 0.41215 0.0
C57 C 0.95689 0.30949 0.42318 0.0
C58 C 0.8953 0.13986 0.54659 0.0
C59 C 0.88654 0.26396 0.29532 0.0
O60 O 0.85196 0.20118 0.61951 0.0
O61 O 0.84496 0.27393 0.49199 0.0
O62 O 0.88496 0.338 0.59549 0.0
O63 O 0.86639 0.36709 0.48859 0.0
O64 O 0.89851 0.28552 0.73946 0.0
O65 O 0.87547 0.24468 0.7392 0.0
O66 O 0.92363 0.30284 0.44726 0.0
O67 O 0.92751 0.26804 0.62273 0.0
O68 O 0.88909 0.18595 0.48998 0.0
O69 O 0.90762 0.15504 0.59502 0.0
O70 O 0.87546 0.23929 0.34998 0.0
O71 O 0.89773 0.28626 0.35287 0.0
H72 H 0.8213 0.34104 0.56615 0.0
H73 H 0.79575 0.35533 0.64633 0.0
H74 H 0.80065 0.16175 0.76679 0.0
H75 H 0.82626 0.14794 0.68787 0.0
H76 H 0.95322 0.20428 0.64071 0.0
H77 H 0.98072 0.19121 0.62112 0.0
H78 H 0.97799 0.33117 0.35037 0.0
H79 H 0.9504 0.34417 0.3699 0.0
Pr80 Pr 0.12457 0.75167 0.51738 0.0
Pr81 Pr 0.15922 0.75658 0.52036 0.0
C82 C 0.09565 0.72181 0.5314 0.0
C83 C 0.07935 0.73908 0.55581 0.0
C84 C 0.07059 0.78312 0.48683 0.0
C85 C 0.05479 0.79048 0.49696 0.0
C86 C 0.04736 0.75408 0.57629 0.0
C87 C 0.05618 0.71236 0.64915 0.0
C88 C 0.072 0.70474 0.63856 0.0
C89 C 0.13331 0.87568 0.51802 0.0
C90 C 0.14234 0.75126 0.76812 0.0
C91 C 0.18801 0.78734 0.50279 0.0
C92 C 0.20291 0.77863 0.44426 0.0
C93 C 0.21205 0.72065 0.44759 0.0
C94 C 0.22681 0.71593 0.40312 0.0
C95 C 0.23278 0.76905 0.35451 0.0
C96 C 0.22345 0.82654 0.34902 0.0
C97 C 0.20873 0.83124 0.39355 0.0
C98 C 0.15034 0.63316 0.52788 0.0
C99 C 0.14192 0.7507 0.26806 0.0
O100 O 0.10528 0.71223 0.61629 0.0
O101 O 0.10149 0.74564 0.4399 0.0
O102 O 0.13965 0.82958 0.5739 0.0
O103 O 0.12104 0.86024 0.46936 0.0
O104 O 0.15336 0.77639 0.71363 0.0
O105 O 0.13119 0.72865 0.71046 0.0
O106 O 0.17662 0.81797 0.44855 0.0
O107 O 0.184 0.74198 0.56908 0.0
O108 O 0.1441 0.67789 0.46783 0.0
O109 O 0.1626 0.64934 0.57569 0.0
O110 O 0.13041 0.7301 0.32391 0.0
O111 O 0.15347 0.77087 0.32409 0.0
H112 H 0.07587 0.81029 0.42194 0.0
H113 H 0.04836 0.82377 0.44077 0.0
H114 H 0.05083 0.68328 0.71059 0.0
H115 H 0.07843 0.66988 0.69182 0.0
H116 H 0.20793 0.67922 0.48648 0.0
H117 H 0.23359 0.67068 0.40738 0.0
H118 H 0.22768 0.86865 0.31372 0.0
H119 H 0.20202 0.87672 0.39129 0.0
Pr120 Pr 0.90437 0.76398 0.51727 0.0
Pr121 Pr 0.86972 0.75907 0.52029 0.0
C122 C 0.93329 0.79383 0.53129 0.0
C123 C 0.94958 0.77657 0.55574 0.0
C124 C 0.95834 0.73247 0.48689 0.0
C125 C 0.97414 0.7251 0.49704 0.0
C126 C 0.98158 0.76155 0.57627 0.0
C127 C 0.97275 0.80333 0.64902 0.0
C128 C 0.95694 0.81096 0.6384 0.0
C129 C 0.89562 0.63998 0.51787 0.0
C130 C 0.8866 0.76434 0.76803 0.0
C131 C 0.84092 0.7284 0.50266 0.0
C132 C 0.82601 0.73727 0.44412 0.0
C133 C 0.81673 0.79481 0.45011 0.0
C134 C 0.80197 0.7995 0.40565 0.0
C135 C 0.79615 0.7468 0.3544 0.0
C136 C 0.80562 0.68978 0.34625 0.0
C137 C 0.82034 0.68509 0.39078 0.0
C138 C 0.8786 0.88249 0.52779 0.0
C139 C 0.88702 0.76495 0.26797 0.0
O140 O 0.92365 0.80345 0.61615 0.0
O141 O 0.92745 0.76998 0.43981 0.0
O142 O 0.88928 0.68605 0.57379 0.0
O143 O 0.9079 0.65543 0.46922 0.0
O144 O 0.87558 0.73921 0.71354 0.0
O145 O 0.89774 0.78695 0.71036 0.0
O146 O 0.85231 0.69782 0.44831 0.0
O147 O 0.84494 0.77363 0.56918 0.0
O148 O 0.88484 0.83778 0.46773 0.0
O149 O 0.86634 0.86631 0.57562 0.0
O150 O 0.89852 0.78557 0.3238 0.0
O151 O 0.87547 0.74476 0.32402 0.0
H152 H 0.95307 0.70526 0.42208 0.0
H153 H 0.98058 0.69176 0.44095 0.0
H154 H 0.9781 0.83245 0.71037 0.0
H155 H 0.95051 0.84586 0.69156 0.0
H156 H 0.82073 0.83588 0.4911 0.0
H157 H 0.79508 0.8444 0.41202 0.0
H158 H 0.8015 0.64797 0.30885 0.0
H159 H 0.82716 0.63992 0.38646 0.0
Pr160 Pr 0.65973 0.7584 1.01899 0.0
Pr161 Pr 0.62604 0.76563 0.02921 0.0
C162 C 0.68962 0.77348 0.03427 0.0
C163 C 0.70408 0.76572 0.09953 0.0
C164 C 0.71347 0.70836 0.09634 0.0
C165 C 0.72807 0.70426 0.14338 0.0
C166 C 0.73369 0.75744 0.19433 0.0
C167 C 0.7241 0.81421 0.20072 0.0
C168 C 0.70951 0.81834 0.15352 0.0
C169 C 0.64844 0.63992 1.00273 0.0
C170 C 0.64299 0.75476 0.27448 0.0
C171 C 0.59592 0.75889 1.01677 0.0
C172 C 0.57925 0.75724 1.01404 0.0
C173 C 0.57003 0.79544 0.09 0.0
C174 C 0.55429 0.79515 0.08783 0.0
C175 C 0.5473 0.7568 1.00939 0.0
C176 C 0.55651 0.71866 0.93295 0.0
C177 C 0.57233 0.71872 0.93553 0.0
C178 C 0.63735 0.88473 0.03655 0.0
C179 C 0.64273 0.76435 0.77303 0.0
O180 O 0.67896 0.81651 0.06763 0.0
O181 O 0.68437 0.72345 0.98959 0.0
O182 O 0.6438 0.68245 0.07403 0.0
O183 O 0.65926 0.65733 0.93882 0.0
O184 O 0.63114 0.73704 0.21944 0.0
O185 O 0.65469 0.77266 0.21705 0.0
O186 O 0.60548 0.71991 0.95915 0.0
O187 O 0.60214 0.80023 0.0797 0.0
O188 O 0.64208 0.84012 0.97015 0.0
O189 O 0.62625 0.86917 0.09921 0.0
O190 O 0.65467 0.78217 0.82685 0.0
O191 O 0.63093 0.74816 0.83147 0.0
H192 H 0.70973 0.667 0.05453 0.0
H193 H 0.73504 0.65951 0.13843 0.0
H194 H 0.72808 0.85633 0.23807 0.0
H195 H 0.70268 0.86352 0.15571 0.0
H196 H 0.57498 0.82583 0.15143 0.0
H197 H 0.54756 0.82576 0.14685 0.0
H198 H 0.55151 0.68812 0.87214 0.0
H199 H 0.57913 0.68883 0.87585 0.0
Pr200 Pr 0.36919 0.757 1.01893 0.0
Pr201 Pr 0.40288 0.74979 0.02913 0.0
C202 C 0.3393 0.74184 0.03424 0.0
C203 C 0.32485 0.74946 0.09959 0.0
C204 C 0.31562 0.80726 0.09917 0.0
C205 C 0.30102 0.81141 0.14628 0.0
C206 C 0.29525 0.75783 0.19453 0.0
C207 C 0.30468 0.70056 0.19817 0.0
C208 C 0.31926 0.6964 0.15091 0.0
C209 C 0.38047 0.87549 1.00262 0.0
C210 C 0.38593 0.76065 0.27441 0.0
C211 C 0.43299 0.75654 1.0167 0.0
C212 C 0.44967 0.75819 1.01398 0.0
C213 C 0.45888 0.72001 0.08998 0.0
C214 C 0.47463 0.72029 0.08782 0.0
C215 C 0.48162 0.75865 1.00936 0.0
C216 C 0.47241 0.79678 0.93288 0.0
C217 C 0.45659 0.79671 0.93545 0.0
C218 C 0.39157 0.63068 0.03647 0.0
C219 C 0.38618 0.75111 0.77296 0.0
O220 O 0.34997 0.69876 0.06738 0.0
O221 O 0.34454 0.79195 0.98981 0.0
O222 O 0.38511 0.83296 0.07393 0.0
O223 O 0.36965 0.85808 0.93874 0.0
O224 O 0.39777 0.77838 0.21935 0.0
O225 O 0.37423 0.74274 0.21699 0.0
O226 O 0.42343 0.79551 0.95904 0.0
O227 O 0.42677 0.7152 0.07966 0.0
O228 O 0.38683 0.6753 0.97008 0.0
O229 O 0.40266 0.64624 0.09913 0.0
O230 O 0.37424 0.73331 0.82677 0.0
O231 O 0.39799 0.76727 0.83139 0.0
H232 H 0.31949 0.84899 0.05951 0.0
H233 H 0.29418 0.85652 0.1435 0.0
H234 H 0.30058 0.65815 0.23337 0.0
H235 H 0.32597 0.65091 0.1509 0.0
H236 H 0.45394 0.68962 0.15142 0.0
H237 H 0.48135 0.6897 0.14687 0.0
H238 H 0.47741 0.82732 0.87206 0.0
H239 H 0.44979 0.8266 0.87575 0.0
Pr240 Pr 0.62396 0.25957 1.02066 0.0
Pr241 Pr 0.66056 0.26912 1.02201 0.0
C242 C 0.59557 0.22876 0.05719 0.0
C243 C 0.57923 0.2317 0.03213 0.0
C244 C 0.57204 0.27519 0.95381 0.0
C245 C 0.5562 0.27993 0.94099 0.0
C246 C 0.54738 0.24184 1.00749 0.0
C247 C 0.55476 0.1972 0.083 0.0
C248 C 0.5705 0.19215 0.09488 0.0
C249 C 0.63348 0.38069 0.99787 0.0
C250 C 0.64298 0.25921 0.27071 0.0
C251 C 0.68819 0.31179 1.01309 0.0
C252 C 0.70348 0.3008 0.96104 0.0
C253 C 0.71236 0.24247 0.97188 0.0
C254 C 0.72722 0.235 0.92932 0.0
C255 C 0.73353 0.28559 0.87473 0.0
C256 C 0.72449 0.34349 0.86228 0.0
C257 C 0.70967 0.35097 0.90515 0.0
C258 C 0.65388 0.1418 1.01158 0.0
C259 C 0.64175 0.25988 0.7715 0.0
O260 O 0.60085 0.27871 0.10237 0.0
O261 O 0.60518 0.19576 0.98967 0.0
O262 O 0.63939 0.3378 0.06367 0.0
O263 O 0.62171 0.36278 0.94453 0.0
O264 O 0.65471 0.28016 0.21761 0.0
O265 O 0.63126 0.24065 0.21367 0.0
O266 O 0.67695 0.33373 0.94627 0.0
O267 O 0.68433 0.27117 0.09028 0.0
O268 O 0.64496 0.19128 1.01523 0.0
O269 O 0.66769 0.15743 1.01021 0.0
O270 O 0.62967 0.24258 0.82588 0.0
O271 O 0.65361 0.27882 0.8267 0.0
H272 H 0.57861 0.30629 0.90486 0.0
H273 H 0.55082 0.31494 0.88252 0.0
H274 H 0.54832 0.16669 0.13433 0.0
H275 H 0.57583 0.15826 0.15569 0.0
H276 H 0.70791 0.20278 1.01436 0.0
H277 H 0.73375 0.18948 0.93902 0.0
H278 H 0.72899 0.38371 0.82205 0.0
H279 H 0.70312 0.39657 0.89651 0.0
Pr280 Pr 0.40496 0.25582 1.02047 0.0
Pr281 Pr 0.36836 0.24629 1.02188 0.0
C282 C 0.43336 0.28658 0.05676 0.0
C283 C 0.44969 0.28384 0.03121 0.0
C284 C 0.45694 0.23922 0.95524 0.0
C285 C 0.47278 0.23464 0.94241 0.0
C286 C 0.48154 0.27405 1.00661 0.0
C287 C 0.47408 0.31982 0.07963 0.0
C288 C 0.45835 0.3247 0.09148 0.0
C289 C 0.39543 0.13473 0.99771 0.0
C290 C 0.38595 0.25612 0.27058 0.0
C291 C 0.34073 0.20356 1.01306 0.0
C292 C 0.32545 0.21449 0.96102 0.0
C293 C 0.3167 0.27326 0.96939 0.0
C294 C 0.30185 0.28077 0.92685 0.0
C295 C 0.2954 0.22977 0.87474 0.0
C296 C 0.30431 0.1714 0.86474 0.0
C297 C 0.31913 0.16388 0.90758 0.0
C298 C 0.37505 0.3736 1.01141 0.0
C299 C 0.38717 0.25553 0.77134 0.0
O300 O 0.42811 0.23637 0.10125 0.0
O301 O 0.4237 0.31995 0.99012 0.0
O302 O 0.38952 0.17761 0.06354 0.0
O303 O 0.4072 0.15264 0.94425 0.0
O304 O 0.37421 0.23529 0.21749 0.0
O305 O 0.39768 0.27458 0.21355 0.0
O306 O 0.35197 0.18161 0.94628 0.0
O307 O 0.34458 0.24427 0.0901 0.0
O308 O 0.38396 0.32412 1.01505 0.0
O309 O 0.36123 0.35798 1.01005 0.0
O310 O 0.39925 0.2728 0.8257 0.0
O311 O 0.37531 0.23662 0.82656 0.0
H312 H 0.45043 0.20709 0.90824 0.0
H313 H 0.47821 0.19875 0.88591 0.0
H314 H 0.48047 0.35134 0.12915 0.0
H315 H 0.45296 0.35946 0.15049 0.0
H316 H 0.32126 0.31327 1.00992 0.0
H317 H 0.29541 0.32664 0.9346 0.0
H318 H 0.2997 0.13087 0.82647 0.0
H319 H 0.32558 0.11796 0.90085 0.0
C320 C 0.25288 0.27737 0.8586 0.0
C321 C 0.24887 0.24884 0.75518 0.0
H322 H 0.27053 0.29323 0.97786 0.0
C323 C 0.26034 0.21429 0.69119 0.0
H324 H 0.24435 0.30362 0.911 0.0
C325 C 0.27538 0.20839 0.72952 0.0
C326 C 0.27939 0.23692 0.83291 0.0
H327 H 0.25775 0.19267 0.61009 0.0
H328 H 0.28391 0.18219 0.67706 0.0
C329 C 0.26793 0.27151 0.8969 0.0
C330 C 0.75347 0.30582 0.72809 0.0
C331 C 0.74954 0.27854 0.83287 0.0
H332 H 0.77103 0.32065 0.60755 0.0
C333 C 0.76107 0.24528 0.89815 0.0
H334 H 0.74488 0.33096 0.67464 0.0
C335 C 0.77612 0.23951 0.85977 0.0
C336 C 0.78005 0.26681 0.75498 0.0
H337 H 0.75853 0.22455 0.98016 0.0
H338 H 0.78471 0.21432 0.91317 0.0
C339 C 0.76851 0.30003 0.68968 0.0
C340 C 0.26753 0.79523 0.17467 0.0
C341 C 0.27927 0.76093 0.23634 0.0
H342 H 0.24376 0.8236 0.16167 0.0
C343 C 0.27554 0.72861 0.3365 0.0
H344 H 0.26991 0.81965 0.09591 0.0
C345 C 0.26049 0.73076 0.37418 0.0
C346 C 0.24876 0.76525 0.31266 0.0
H347 H 0.28429 0.70231 0.38691 0.0
H348 H 0.2581 0.70634 0.4529 0.0
C349 C 0.2525 0.79736 0.21228 0.0
C350 C 0.76147 0.72168 0.1729 0.0
C351 C 0.74967 0.75451 0.23611 0.0
H352 H 0.78529 0.69462 0.15879 0.0
C353 C 0.75332 0.78552 0.33788 0.0
H354 H 0.75915 0.69833 0.09293 0.0
C355 C 0.76836 0.78351 0.37562 0.0
C356 C 0.78016 0.75047 0.31255 0.0
H357 H 0.74452 0.81065 0.38948 0.0
H358 H 0.7707 0.80687 0.45555 0.0
C359 C 0.7765 0.71969 0.21056 0.0
C360 C 0.12647 0.99357 0.51661 0.0
C361 C 0.13752 0.9416 0.5267 0.0
H362 H 0.12179 0.09504 0.51615 0.0
C363 C 0.15268 0.95322 0.54387 0.0
H364 H 0.11468 0.98609 0.50401 0.0
C365 C 0.1568 0.0154 0.5463 0.0
C366 C 0.14575 0.06728 0.53691 0.0
H367 H 0.16141 0.91424 0.55297 0.0
H368 H 0.16863 0.02295 0.5567 0.0
C369 C 0.13051 0.05584 0.52399 0.0
C370 C 0.89842 0.45981 0.52381 0.0
C371 C 0.88319 0.44838 0.53663 0.0
H372 H 0.91426 0.52957 0.50397 0.0
C373 C 0.87213 0.50026 0.54594 0.0
H374 H 0.90714 0.42061 0.51603 0.0
C375 C 0.87625 0.56243 0.54355 0.0
C376 C 0.89141 0.57406 0.52651 0.0
H377 H 0.86031 0.49271 0.55626 0.0
H378 H 0.86752 0.60142 0.55258 0.0
C379 C 0.90246 0.52208 0.51648 0.0
C380 C 0.87184 0.99992 0.52175 0.0
C381 C 0.88298 0.94815 0.52699 0.0
H382 H 0.86709 0.10113 0.51885 0.0
C383 C 0.89825 0.95981 0.53584 0.0
H384 H 0.85998 0.99221 0.51459 0.0
C385 C 0.90226 0.02212 0.54333 0.0
C386 C 0.89111 0.07397 0.53739 0.0
H387 H 0.90705 0.92072 0.54045 0.0
H388 H 0.91409 0.02975 0.55278 0.0
C389 C 0.8759 0.0622 0.52433 0.0
C390 C 0.1571 0.51573 0.52168 0.0
C391 C 0.14596 0.5675 0.52708 0.0
H392 H 0.16184 0.41452 0.51865 0.0
C393 C 0.13069 0.55585 0.53608 0.0
H394 H 0.16895 0.52344 0.5144 0.0
C395 C 0.12668 0.49354 0.54355 0.0
C396 C 0.13783 0.44169 0.53747 0.0
H397 H 0.1219 0.59494 0.5408 0.0
H398 H 0.11485 0.48591 0.55313 0.0
C399 C 0.15304 0.45346 0.52426 0.0
C400 C 0.64387 0.5397 0.10567 0.0
C401 C 0.64405 0.5745 1.00306 0.0
H402 H 0.64096 0.44977 0.18365 0.0
C403 C 0.6408 0.54514 0.89889 0.0
H404 H 0.64649 0.56122 0.18685 0.0
C405 C 0.63715 0.48232 0.89748 0.0
C406 C 0.63734 0.44695 0.99958 0.0
H407 H 0.64094 0.57107 0.81866 0.0
H408 H 0.63447 0.46095 0.81631 0.0
C409 C 0.64084 0.476 0.10365 0.0
C410 C 0.3881 0.97029 0.89876 0.0
C411 C 0.38486 0.94091 1.00293 0.0
H412 H 0.39444 0.05448 0.81615 0.0
C413 C 0.38503 0.97571 0.10554 0.0
H414 H 0.38797 0.94436 0.81853 0.0
C415 C 0.38807 0.03941 0.1035 0.0
C416 C 0.39156 0.06846 0.99943 0.0
H417 H 0.38242 0.95418 0.18672 0.0
H418 H 0.38795 0.06563 0.1835 0.0
C419 C 0.39176 0.0331 0.89733 0.0
C420 C 0.39354 0.45166 0.05818 0.0
C421 C 0.37943 0.43915 1.01367 0.0
H422 H 0.40828 0.52222 0.10251 0.0
C423 C 0.36936 0.49004 0.97511 0.0
H424 H 0.40147 0.41338 0.0893 0.0
C425 C 0.37339 0.55233 0.98027 0.0
C426 C 0.38737 0.56494 0.0272 0.0
H427 H 0.3584 0.48164 0.94046 0.0
H428 H 0.36546 0.59068 0.94951 0.0
C429 C 0.39739 0.51398 0.06627 0.0
C430 C 0.65956 0.02537 0.97534 0.0
C431 C 0.64949 0.07626 1.01382 0.0
H432 H 0.66347 0.92473 0.94977 0.0
C433 C 0.63537 0.06374 0.05822 0.0
H434 H 0.67053 0.03377 0.94077 0.0
C435 C 0.63152 1.00142 0.06628 0.0
C436 C 0.64155 0.95046 0.02729 0.0
H437 H 0.62744 0.10202 0.08927 0.0
H438 H 0.62063 0.99318 0.10245 0.0
C439 C 0.65554 0.96308 0.98047 0.0
C440 C 0.13031 0.22749 0.10664 0.0
C441 C 0.14231 0.25071 0.16757 0.0
H442 H 0.12074 0.2093 0.94214 0.0
C443 C 0.15421 0.27346 0.10487 0.0
H444 H 0.12094 0.2096 0.15193 0.0
C445 C 0.1541 0.27321 0.98448 0.0
C446 C 0.14208 0.25028 0.92346 0.0
H447 H 0.16365 0.29166 0.14868 0.0
H448 H 0.16346 0.29129 0.93935 0.0
C449 C 0.13019 0.22734 0.9861 0.0
C450 C 0.87473 0.24218 0.10469 0.0
C451 C 0.88663 0.26497 0.16739 0.0
H452 H 0.86548 0.22431 0.93918 0.0
C453 C 0.89862 0.28821 0.10644 0.0
H454 H 0.86529 0.22395 0.14851 0.0
C455 C 0.89875 0.28834 0.9859 0.0
C456 C 0.88686 0.26536 0.92326 0.0
H457 H 0.90799 0.30613 0.15173 0.0
H458 H 0.90819 0.3064 0.94193 0.0
C459 C 0.87483 0.24241 0.9843 0.0
C460 C 0.13019 0.72683 0.07763 0.0
C461 C 0.14207 0.75001 0.14012 0.0
H462 H 0.12095 0.70882 0.91189 0.0
C463 C 0.15407 0.773 0.07896 0.0
H464 H 0.12076 0.70872 0.12171 0.0
C465 C 0.15417 0.77314 0.95858 0.0
C466 C 0.14227 0.75019 0.89603 0.0
H467 H 0.16342 0.79125 0.12395 0.0
H468 H 0.16359 0.79144 0.91466 0.0
C469 C 0.1303 0.72685 0.95709 0.0
C470 C 0.87478 0.74245 0.95851 0.0
C471 C 0.88667 0.76541 0.89594 0.0
H472 H 0.86553 0.72434 0.1239 0.0
C473 C 0.89864 0.78877 0.95698 0.0
H474 H 0.86536 0.72413 0.91461 0.0
C475 C 0.89874 0.78881 0.07752 0.0
C476 C 0.88687 0.76563 0.14003 0.0
H477 H 0.90799 0.80681 0.91177 0.0
H478 H 0.90818 0.80694 0.12159 0.0
C479 C 0.87487 0.7426 0.07889 0.0
C480 C 0.6554 0.77607 0.46257 0.0
C481 C 0.64303 0.75582 0.40211 0.0
H482 H 0.66499 0.79493 0.62626 0.0
C483 C 0.63052 0.73838 0.46483 0.0
H484 H 0.66522 0.78999 0.41718 0.0
C485 C 0.63037 0.74139 0.58511 0.0
C486 C 0.64272 0.76193 0.64547 0.0
H487 H 0.62078 0.72266 0.42111 0.0
H488 H 0.62056 0.72757 0.63063 0.0
C489 C 0.65525 0.77908 0.58271 0.0
C490 C 0.39855 0.77405 0.58502 0.0
C491 C 0.38619 0.75353 0.6454 0.0
H492 H 0.40814 0.79275 0.42101 0.0
C493 C 0.37366 0.73638 0.58265 0.0
H494 H 0.40836 0.78786 0.63053 0.0
C495 C 0.37351 0.73937 0.4625 0.0
C496 C 0.38588 0.75961 0.40203 0.0
H497 H 0.36392 0.72055 0.62621 0.0
H498 H 0.3637 0.72547 0.41713 0.0
C499 C 0.3984 0.77704 0.46474 0.0
C500 C 0.65494 0.27764 0.4626 0.0
C501 C 0.64276 0.25797 0.39887 0.0
H502 H 0.6642 0.29371 0.62868 0.0
C503 C 0.63026 0.23829 0.45906 0.0
H504 H 0.66476 0.29314 0.41961 0.0
C505 C 0.62992 0.2387 0.57966 0.0
C506 C 0.64207 0.25876 0.64332 0.0
H507 H 0.62066 0.22284 0.41315 0.0
H508 H 0.62009 0.22343 0.62281 0.0
C509 C 0.65461 0.27801 0.58301 0.0
C510 C 0.39867 0.27701 0.45892 0.0
C511 C 0.38617 0.25737 0.39873 0.0
H512 H 0.40884 0.29185 0.62266 0.0
C513 C 0.37398 0.23777 0.46246 0.0
H514 H 0.40828 0.29241 0.413 0.0
C515 C 0.37431 0.23743 0.58287 0.0
C516 C 0.38684 0.25663 0.64317 0.0
H517 H 0.36415 0.22231 0.41947 0.0
H518 H 0.3647 0.22178 0.62854 0.0
C519 C 0.399 0.27662 0.5795 0.0
C520 C 0.0224 0.25688 0.37933 0.0
C521 C 0.03048 0.25713 0.48344 0.0
H522 H 1.00065 0.25778 0.29787 0.0
C523 C 0.02235 0.25793 0.58735 0.0
H524 H 0.0283 0.25648 0.2978 0.0
C525 C 1.00658 0.25841 0.5874 0.0
C526 C 0.99846 0.25845 0.48353 0.0
H527 H 0.02821 0.25727 0.66913 0.0
H528 H 1.00072 0.25965 0.66919 0.0
C529 C 1.00655 0.25797 0.37937 0.0
C530 C 1.00658 0.75821 0.47381 0.0
C531 C 0.99845 0.75887 0.57772 0.0
H532 H 0.02823 0.7562 0.39204 0.0
C533 C 1.00654 0.75858 0.68184 0.0
H534 H 1.00071 0.75928 0.39203 0.0
C535 C 0.02239 0.75712 0.68185 0.0
C536 C 0.03049 0.75675 0.57772 0.0
H537 H 1.00063 0.75885 0.76338 0.0
H538 H 0.0283 0.75691 0.76338 0.0
C539 C 0.02236 0.75733 0.47382 0.0
C540 C 0.52238 0.75707 0.90435 0.0
C541 C 0.53048 0.75669 1.00845 0.0
H542 H 0.50066 0.75819 0.82275 0.0
C543 C 0.52235 0.75725 0.11237 0.0
H544 H 0.52826 0.75724 0.82277 0.0
C545 C 0.50656 0.75821 0.11237 0.0
C546 C 0.49844 0.75876 1.00843 0.0
H547 H 0.52821 0.75637 0.19416 0.0
H548 H 0.5007 0.75909 0.19415 0.0
C549 C 0.50654 0.75837 0.90434 0.0
C550 C 0.50652 0.26051 0.90005 0.0
C551 C 0.4984 0.26545 1.0042 0.0
H552 H 0.52843 0.25019 0.819 0.0
C553 C 0.50653 0.26273 0.10812 0.0
H554 H 0.50055 0.26272 0.81865 0.0
C555 C 0.52234 0.25517 0.10833 0.0
C556 C 0.53051 0.25064 1.00461 0.0
H557 H 0.50063 0.26584 0.18981 0.0
H558 H 0.52821 0.25343 0.19014 0.0
C559 C 0.52244 0.25382 0.90023 0.0
loop_
_geom_bond_atom_site_label_1
_geom_bond_atom_site_label_2
_geom_bond_distance
_geom_bond_site_symmetry_2
_ccdc_geom_bond_type
Pr0 C2 2.880 . S
Pr0 O20 2.562 . S
Pr0 O21 2.490 . S
Pr0 O22 2.695 . S
Pr0 O23 2.512 . S
Pr0 O25 2.437 . S
Pr0 O28 2.436 . S
Pr0 O30 2.438 . S
Pr1 C11 2.880 . S
Pr1 O22 2.436 . S
Pr1 O24 2.438 . S
Pr1 O26 2.562 . S
Pr1 O27 2.490 . S
Pr1 O28 2.695 . S
Pr1 O29 2.512 . S
Pr1 O31 2.437 . S
C2 Pr0 2.880 . S
C2 C3 1.491 . S
C2 O20 1.254 . S
C2 O21 1.225 . S
C3 C2 1.491 . S
C3 C4 1.392 . S
C3 C8 1.356 . S
C4 C3 1.392 . S
C4 C5 1.368 . S
C4 H32 0.929 . S
C5 C4 1.368 . S
C5 C6 1.386 . S
C5 H33 0.929 . S
C6 C5 1.386 . S
C6 C7 1.373 . S
C7 C6 1.373 . S
C7 C8 1.409 . S
C7 H34 0.931 . S
C8 C3 1.356 . S
C8 C7 1.409 . S
C8 H35 0.930 . S
C9 O22 1.270 . S
C9 O23 1.248 . S
C10 O24 1.267 . S
C10 O25 1.278 . S
C11 Pr1 2.880 . S
C11 C12 1.491 . S
C11 O26 1.254 . S
C11 O27 1.225 . S
C12 C11 1.491 . S
C12 C13 1.392 . S
C12 C17 1.356 . S
C13 C12 1.392 . S
C13 C14 1.368 . S
C13 H36 0.929 . S
C14 C13 1.368 . S
C14 C15 1.386 . S
C14 H37 0.929 . S
C15 C14 1.386 . S
C15 C16 1.373 . S
C16 C15 1.373 . S
C16 C17 1.409 . S
C16 H38 0.931 . S
C17 C12 1.356 . S
C17 C16 1.409 . S
C17 H39 0.930 . S
C18 O28 1.270 . S
C18 O29 1.248 . S
C19 O30 1.267 . S
C19 O31 1.278 . S
O20 Pr0 2.562 . S
O20 C2 1.254 . S
O21 Pr0 2.490 . S
O21 C2 1.225 . S
O22 Pr0 2.695 . S
O22 Pr1 2.436 . S
O22 C9 1.270 . S
O23 Pr0 2.512 . S
O23 C9 1.248 . S
O24 Pr1 2.438 . S
O24 C10 1.267 . S
O25 Pr0 2.437 . S
O25 C10 1.278 . S
O26 Pr1 2.562 . S
O26 C11 1.254 . S
O27 Pr1 2.490 . S
O27 C11 1.225 . S
O28 Pr0 2.436 . S
O28 Pr1 2.695 . S
O28 C18 1.270 . S
O29 Pr1 2.512 . S
O29 C18 1.248 . S
O30 Pr0 2.438 . S
O30 C19 1.267 . S
O31 Pr1 2.437 . S
O31 C19 1.278 . S
H32 C4 0.929 . S
H33 C5 0.929 . S
H34 C7 0.931 . S
H35 C8 0.930 . S
H36 C13 0.929 . S
H37 C14 0.929 . S
H38 C16 0.931 . S
H39 C17 0.930 . S
Pr40 C42 2.880 . S
Pr40 O60 2.562 . S
Pr40 O61 2.490 . S
Pr40 O62 2.695 . S
Pr40 O63 2.512 . S
Pr40 O65 2.437 . S
Pr40 O68 2.436 . S
Pr40 O70 2.438 . S
Pr41 C51 2.880 . S
Pr41 O62 2.436 . S
Pr41 O64 2.438 . S
Pr41 O66 2.562 . S
Pr41 O67 2.490 . S
Pr41 O68 2.695 . S
Pr41 O69 2.512 . S
Pr41 O71 2.437 . S
C42 Pr40 2.880 . S
C42 C43 1.491 . S
C42 O60 1.254 . S
C42 O61 1.225 . S
C43 C42 1.491 . S
C43 C44 1.392 . S
C43 C48 1.356 . S
C44 C43 1.392 . S
C44 C45 1.368 . S
C44 H72 0.929 . S
C45 C44 1.368 . S
C45 C46 1.386 . S
C45 H73 0.929 . S
C46 C45 1.386 . S
C46 C47 1.373 . S
C47 C46 1.373 . S
C47 C48 1.409 . S
C47 H74 0.931 . S
C48 C43 1.356 . S
C48 C47 1.409 . S
C48 H75 0.930 . S
C49 O62 1.270 . S
C49 O63 1.248 . S
C50 O64 1.267 . S
C50 O65 1.278 . S
C51 Pr41 2.880 . S
C51 C52 1.491 . S
C51 O66 1.254 . S
C51 O67 1.225 . S
C52 C51 1.491 . S
C52 C53 1.392 . S
C52 C57 1.356 . S
C53 C52 1.392 . S
C53 C54 1.368 . S
C53 H76 0.929 . S
C54 C53 1.368 . S
C54 C55 1.386 . S
C54 H77 0.929 . S
C55 C54 1.386 . S
C55 C56 1.373 . S
C56 C55 1.373 . S
C56 C57 1.409 . S
C56 H78 0.931 . S
C57 C52 1.356 . S
C57 C56 1.409 . S
C57 H79 0.930 . S
C58 O68 1.270 . S
C58 O69 1.248 . S
C59 O70 1.267 . S
C59 O71 1.278 . S
O60 Pr40 2.562 . S
O60 C42 1.254 . S
O61 Pr40 2.490 . S
O61 C42 1.225 . S
O62 Pr40 2.695 . S
O62 Pr41 2.436 . S
O62 C49 1.270 . S
O63 Pr40 2.512 . S
O63 C49 1.248 . S
O64 Pr41 2.438 . S
O64 C50 1.267 . S
O65 Pr40 2.437 . S
O65 C50 1.278 . S
O66 Pr41 2.562 . S
O66 C51 1.254 . S
O67 Pr41 2.490 . S
O67 C51 1.225 . S
O68 Pr40 2.436 . S
O68 Pr41 2.695 . S
O68 C58 1.270 . S
O69 Pr41 2.512 . S
O69 C58 1.248 . S
O70 Pr40 2.438 . S
O70 C59 1.267 . S
O71 Pr41 2.437 . S
O71 C59 1.278 . S
H72 C44 0.929 . S
H73 C45 0.929 . S
H74 C47 0.931 . S
H75 C48 0.930 . S
H76 C53 0.929 . S
H77 C54 0.929 . S
H78 C56 0.931 . S
H79 C57 0.930 . S
Pr80 C82 2.880 . S
Pr80 O100 2.562 . S
Pr80 O101 2.490 . S
Pr80 O102 2.695 . S
Pr80 O103 2.512 . S
Pr80 O105 2.437 . S
Pr80 O108 2.436 . S
Pr80 O110 2.438 . S
Pr81 C91 2.880 . S
Pr81 O102 2.436 . S
Pr81 O104 2.438 . S
Pr81 O106 2.562 . S
Pr81 O107 2.490 . S
Pr81 O108 2.695 . S
Pr81 O109 2.512 . S
Pr81 O111 2.437 . S
C82 Pr80 2.880 . S
C82 C83 1.491 . S
C82 O100 1.254 . S
C82 O101 1.225 . S
C83 C82 1.491 . S
C83 C84 1.392 . S
C83 C88 1.356 . S
C84 C83 1.392 . S
C84 C85 1.368 . S
C84 H112 0.929 . S
C85 C84 1.368 . S
C85 C86 1.386 . S
C85 H113 0.929 . S
C86 C85 1.386 . S
C86 C87 1.373 . S
C87 C86 1.373 . S
C87 C88 1.409 . S
C87 H114 0.931 . S
C88 C83 1.356 . S
C88 C87 1.409 . S
C88 H115 0.930 . S
C89 O102 1.270 . S
C89 O103 1.248 . S
C90 O104 1.267 . S
C90 O105 1.278 . S
C91 Pr81 2.880 . S
C91 C92 1.491 . S
C91 O106 1.254 . S
C91 O107 1.225 . S
C92 C91 1.491 . S
C92 C93 1.392 . S
C92 C97 1.356 . S
C93 C92 1.392 . S
C93 C94 1.368 . S
C93 H116 0.929 . S
C94 C93 1.368 . S
C94 C95 1.386 . S
C94 H117 0.929 . S
C95 C94 1.386 . S
C95 C96 1.373 . S
C96 C95 1.373 . S
C96 C97 1.409 . S
C96 H118 0.931 . S
C97 C92 1.356 . S
C97 C96 1.409 . S
C97 H119 0.930 . S
C98 O108 1.270 . S
C98 O109 1.248 . S
C99 O110 1.267 . S
C99 O111 1.278 . S
O100 Pr80 2.562 . S
O100 C82 1.254 . S
O101 Pr80 2.490 . S
O101 C82 1.225 . S
O102 Pr80 2.695 . S
O102 Pr81 2.436 . S
O102 C89 1.270 . S
O103 Pr80 2.512 . S
O103 C89 1.248 . S
O104 Pr81 2.438 . S
O104 C90 1.267 . S
O105 Pr80 2.437 . S
O105 C90 1.278 . S
O106 Pr81 2.562 . S
O106 C91 1.254 . S
O107 Pr81 2.490 . S
O107 C91 1.225 . S
O108 Pr80 2.436 . S
O108 Pr81 2.695 . S
O108 C98 1.270 . S
O109 Pr81 2.512 . S
O109 C98 1.248 . S
O110 Pr80 2.438 . S
O110 C99 1.267 . S
O111 Pr81 2.437 . S
O111 C99 1.278 . S
H112 C84 0.929 . S
H113 C85 0.929 . S
H114 C87 0.931 . S
H115 C88 0.930 . S
H116 C93 0.929 . S
H117 C94 0.929 . S
H118 C96 0.931 . S
H119 C97 0.930 . S
Pr120 C122 2.880 . S
Pr120 O140 2.562 . S
Pr120 O141 2.490 . S
Pr120 O142 2.695 . S
Pr120 O143 2.512 . S
Pr120 O145 2.437 . S
Pr120 O148 2.436 . S
Pr120 O150 2.438 . S
Pr121 C131 2.880 . S
Pr121 O142 2.436 . S
Pr121 O144 2.438 . S
Pr121 O146 2.562 . S
Pr121 O147 2.490 . S
Pr121 O148 2.695 . S
Pr121 O149 2.512 . S
Pr121 O151 2.437 . S
C122 Pr120 2.880 . S
C122 C123 1.491 . S
C122 O140 1.254 . S
C122 O141 1.225 . S
C123 C122 1.491 . S
C123 C124 1.392 . S
C123 C128 1.356 . S
C124 C123 1.392 . S
C124 C125 1.368 . S
C124 H152 0.929 . S
C125 C124 1.368 . S
C125 C126 1.386 . S
C125 H153 0.929 . S
C126 C125 1.386 . S
C126 C127 1.373 . S
C127 C126 1.373 . S
C127 C128 1.409 . S
C127 H154 0.931 . S
C128 C123 1.356 . S
C128 C127 1.409 . S
C128 H155 0.930 . S
C129 O142 1.270 . S
C129 O143 1.248 . S
C130 O144 1.267 . S
C130 O145 1.278 . S
C131 Pr121 2.880 . S
C131 C132 1.491 . S
C131 O146 1.254 . S
C131 O147 1.225 . S
C132 C131 1.491 . S
C132 C133 1.392 . S
C132 C137 1.356 . S
C133 C132 1.392 . S
C133 C134 1.368 . S
C133 H156 0.929 . S
C134 C133 1.368 . S
C134 C135 1.386 . S
C134 H157 0.929 . S
C135 C134 1.386 . S
C135 C136 1.373 . S
C136 C135 1.373 . S
C136 C137 1.409 . S
C136 H158 0.931 . S
C137 C132 1.356 . S
C137 C136 1.409 . S
C137 H159 0.930 . S
C138 O148 1.270 . S
C138 O149 1.248 . S
C139 O150 1.267 . S
C139 O151 1.278 . S
O140 Pr120 2.562 . S
O140 C122 1.254 . S
O141 Pr120 2.490 . S
O141 C122 1.225 . S
O142 Pr120 2.695 . S
O142 Pr121 2.436 . S
O142 C129 1.270 . S
O143 Pr120 2.512 . S
O143 C129 1.248 . S
O144 Pr121 2.438 . S
O144 C130 1.267 . S
O145 Pr120 2.437 . S
O145 C130 1.278 . S
O146 Pr121 2.562 . S
O146 C131 1.254 . S
O147 Pr121 2.490 . S
O147 C131 1.225 . S
O148 Pr120 2.436 . S
O148 Pr121 2.695 . S
O148 C138 1.270 . S
O149 Pr121 2.512 . S
O149 C138 1.248 . S
O150 Pr120 2.438 . S
O150 C139 1.267 . S
O151 Pr121 2.437 . S
O151 C139 1.278 . S
H152 C124 0.929 . S
H153 C125 0.929 . S
H154 C127 0.931 . S
H155 C128 0.930 . S
H156 C133 0.929 . S
H157 C134 0.929 . S
H158 C136 0.931 . S
H159 C137 0.930 . S
Pr160 C162 2.880 1_556 S
Pr160 O180 2.562 1_556 S
Pr160 O181 2.490 1_556 S
Pr160 O182 2.695 . S
Pr160 O183 2.512 . S
Pr160 O185 2.437 1_556 S
Pr160 O188 2.436 1_556 S
Pr160 O190 2.438 . S
Pr161 C171 2.880 1_554 S
Pr161 O182 2.436 1_554 S
Pr161 O184 2.438 . S
Pr161 O186 2.562 1_554 S
Pr161 O187 2.490 1_554 S
Pr161 O188 2.695 . S
Pr161 O189 2.512 . S
Pr161 O191 2.437 1_554 S
C162 Pr160 2.880 1_554 S
C162 C163 1.491 . S
C162 O180 1.254 . S
C162 O181 1.225 . S
C163 C162 1.491 . S
C163 C164 1.392 . S
C163 C168 1.356 . S
C164 C163 1.392 . S
C164 C165 1.368 . S
C164 H192 0.929 . S
C165 C164 1.368 . S
C165 C166 1.386 . S
C165 H193 0.929 . S
C166 C165 1.386 . S
C166 C167 1.373 . S
C167 C166 1.373 . S
C167 C168 1.409 . S
C167 H194 0.931 . S
C168 C163 1.356 . S
C168 C167 1.409 . S
C168 H195 0.930 . S
C169 O182 1.270 . S
C169 O183 1.248 . S
C170 O184 1.267 . S
C170 O185 1.278 . S
C171 Pr161 2.880 1_556 S
C171 C172 1.491 . S
C171 O186 1.254 . S
C171 O187 1.225 . S
C172 C171 1.491 . S
C172 C173 1.392 . S
C172 C177 1.356 . S
C173 C172 1.392 . S
C173 C174 1.368 . S
C173 H196 0.929 . S
C174 C173 1.368 . S
C174 C175 1.386 . S
C174 H197 0.929 . S
C175 C174 1.386 . S
C175 C176 1.373 . S
C176 C175 1.373 . S
C176 C177 1.409 . S
C176 H198 0.931 . S
C177 C172 1.356 . S
C177 C176 1.409 . S
C177 H199 0.930 . S
C178 O188 1.270 . S
C178 O189 1.248 . S
C179 O190 1.267 . S
C179 O191 1.278 . S
O180 Pr160 2.562 1_554 S
O180 C162 1.254 . S
O181 Pr160 2.490 1_554 S
O181 C162 1.225 . S
O182 Pr160 2.695 . S
O182 Pr161 2.436 1_556 S
O182 C169 1.270 . S
O183 Pr160 2.512 . S
O183 C169 1.248 . S
O184 Pr161 2.438 . S
O184 C170 1.267 . S
O185 Pr160 2.437 1_554 S
O185 C170 1.278 . S
O186 Pr161 2.562 1_556 S
O186 C171 1.254 . S
O187 Pr161 2.490 1_556 S
O187 C171 1.225 . S
O188 Pr160 2.436 1_554 S
O188 Pr161 2.695 . S
O188 C178 1.270 . S
O189 Pr161 2.512 . S
O189 C178 1.248 . S
O190 Pr160 2.438 . S
O190 C179 1.267 . S
O191 Pr161 2.437 1_556 S
O191 C179 1.278 . S
H192 C164 0.929 . S
H193 C165 0.929 . S
H194 C167 0.931 . S
H195 C168 0.930 . S
H196 C173 0.929 . S
H197 C174 0.929 . S
H198 C176 0.931 . S
H199 C177 0.930 . S
Pr200 C202 2.880 1_556 S
Pr200 O220 2.562 1_556 S
Pr200 O221 2.490 1_556 S
Pr200 O222 2.695 . S
Pr200 O223 2.512 . S
Pr200 O225 2.437 1_556 S
Pr200 O228 2.436 1_556 S
Pr200 O230 2.438 . S
Pr201 C211 2.880 1_554 S
Pr201 O222 2.436 1_554 S
Pr201 O224 2.438 . S
Pr201 O226 2.562 1_554 S
Pr201 O227 2.490 1_554 S
Pr201 O228 2.695 . S
Pr201 O229 2.512 . S
Pr201 O231 2.437 1_554 S
C202 Pr200 2.880 1_554 S
C202 C203 1.491 . S
C202 O220 1.254 . S
C202 O221 1.225 . S
C203 C202 1.491 . S
C203 C204 1.392 . S
C203 C208 1.356 . S
C204 C203 1.392 . S
C204 C205 1.368 . S
C204 H232 0.929 . S
C205 C204 1.368 . S
C205 C206 1.386 . S
C205 H233 0.929 . S
C206 C205 1.386 . S
C206 C207 1.373 . S
C207 C206 1.373 . S
C207 C208 1.409 . S
C207 H234 0.931 . S
C208 C203 1.356 . S
C208 C207 1.409 . S
C208 H235 0.930 . S
C209 O222 1.270 . S
C209 O223 1.248 . S
C210 O224 1.267 . S
C210 O225 1.278 . S
C211 Pr201 2.880 1_556 S
C211 C212 1.491 . S
C211 O226 1.254 . S
C211 O227 1.225 . S
C212 C211 1.491 . S
C212 C213 1.392 . S
C212 C217 1.356 . S
C213 C212 1.392 . S
C213 C214 1.368 . S
C213 H236 0.929 . S
C214 C213 1.368 . S
C214 C215 1.386 . S
C214 H237 0.929 . S
C215 C214 1.386 . S
C215 C216 1.373 . S
C216 C215 1.373 . S
C216 C217 1.409 . S
C216 H238 0.931 . S
C217 C212 1.356 . S
C217 C216 1.409 . S
C217 H239 0.930 . S
C218 O228 1.270 . S
C218 O229 1.248 . S
C219 O230 1.267 . S
C219 O231 1.278 . S
O220 Pr200 2.562 1_554 S
O220 C202 1.254 . S
O221 Pr200 2.490 1_554 S
O221 C202 1.225 . S
O222 Pr200 2.695 . S
O222 Pr201 2.436 1_556 S
O222 C209 1.270 . S
O223 Pr200 2.512 . S
O223 C209 1.248 . S
O224 Pr201 2.438 . S
O224 C210 1.267 . S
O225 Pr200 2.437 1_554 S
O225 C210 1.278 . S
O226 Pr201 2.562 1_556 S
O226 C211 1.254 . S
O227 Pr201 2.490 1_556 S
O227 C211 1.225 . S
O228 Pr200 2.436 1_554 S
O228 Pr201 2.695 . S
O228 C218 1.270 . S
O229 Pr201 2.512 . S
O229 C218 1.248 . S
O230 Pr200 2.438 . S
O230 C219 1.267 . S
O231 Pr201 2.437 1_556 S
O231 C219 1.278 . S
H232 C204 0.929 . S
H233 C205 0.929 . S
H234 C207 0.931 . S
H235 C208 0.930 . S
H236 C213 0.929 . S
H237 C214 0.929 . S
H238 C216 0.931 . S
H239 C217 0.930 . S
Pr240 C242 2.880 1_556 S
Pr240 O260 2.562 1_556 S
Pr240 O261 2.490 1_556 S
Pr240 O262 2.695 . S
Pr240 O263 2.512 . S
Pr240 O265 2.437 1_556 S
Pr240 O268 2.436 1_556 S
Pr240 O270 2.438 . S
Pr241 C251 2.880 1_554 S
Pr241 O262 2.436 1_554 S
Pr241 O264 2.438 . S
Pr241 O266 2.562 1_554 S
Pr241 O267 2.490 1_554 S
Pr241 O268 2.695 . S
Pr241 O269 2.512 . S
Pr241 O271 2.437 1_554 S
C242 Pr240 2.880 1_554 S
C242 C243 1.491 . S
C242 O260 1.254 . S
C242 O261 1.225 . S
C243 C242 1.491 . S
C243 C244 1.392 . S
C243 C248 1.356 . S
C244 C243 1.392 . S
C244 C245 1.368 . S
C244 H272 0.929 . S
C245 C244 1.368 . S
C245 C246 1.386 . S
C245 H273 0.929 . S
C246 C245 1.386 . S
C246 C247 1.373 . S
C247 C246 1.373 . S
C247 C248 1.409 . S
C247 H274 0.931 . S
C248 C243 1.356 . S
C248 C247 1.409 . S
C248 H275 0.930 . S
C249 O262 1.270 . S
C249 O263 1.248 . S
C250 O264 1.267 . S
C250 O265 1.278 . S
C251 Pr241 2.880 1_556 S
C251 C252 1.491 . S
C251 O266 1.254 . S
C251 O267 1.225 . S
C252 C251 1.491 . S
C252 C253 1.392 . S
C252 C257 1.356 . S
C253 C252 1.392 . S
C253 C254 1.368 . S
C253 H276 0.929 . S
C254 C253 1.368 . S
C254 C255 1.386 . S
C254 H277 0.929 . S
C255 C254 1.386 . S
C255 C256 1.373 . S
C256 C255 1.373 . S
C256 C257 1.409 . S
C256 H278 0.931 . S
C257 C252 1.356 . S
C257 C256 1.409 . S
C257 H279 0.930 . S
C258 O268 1.270 . S
C258 O269 1.248 . S
C259 O270 1.267 . S
C259 O271 1.278 . S
O260 Pr240 2.562 1_554 S
O260 C242 1.254 . S
O261 Pr240 2.490 1_554 S
O261 C242 1.225 . S
O262 Pr240 2.695 . S
O262 Pr241 2.436 1_556 S
O262 C249 1.270 . S
O263 Pr240 2.512 . S
O263 C249 1.248 . S
O264 Pr241 2.438 . S
O264 C250 1.267 . S
O265 Pr240 2.437 1_554 S
O265 C250 1.278 . S
O266 Pr241 2.562 1_556 S
O266 C251 1.254 . S
O267 Pr241 2.490 1_556 S
O267 C251 1.225 . S
O268 Pr240 2.436 1_554 S
O268 Pr241 2.695 . S
O268 C258 1.270 . S
O269 Pr241 2.512 . S
O269 C258 1.248 . S
O270 Pr240 2.438 . S
O270 C259 1.267 . S
O271 Pr241 2.437 1_556 S
O271 C259 1.278 . S
H272 C244 0.929 . S
H273 C245 0.929 . S
H274 C247 0.931 . S
H275 C248 0.930 . S
H276 C253 0.929 . S
H277 C254 0.929 . S
H278 C256 0.931 . S
H279 C257 0.930 . S
Pr280 C282 2.880 1_556 S
Pr280 O300 2.562 1_556 S
Pr280 O301 2.490 1_556 S
Pr280 O302 2.695 . S
Pr280 O303 2.512 . S
Pr280 O305 2.437 1_556 S
Pr280 O308 2.436 1_556 S
Pr280 O310 2.438 . S
Pr281 C291 2.880 1_554 S
Pr281 O302 2.436 1_554 S
Pr281 O304 2.438 . S
Pr281 O306 2.562 1_554 S
Pr281 O307 2.490 1_554 S
Pr281 O308 2.695 . S
Pr281 O309 2.512 . S
Pr281 O311 2.437 1_554 S
C282 Pr280 2.880 1_554 S
C282 C283 1.491 . S
C282 O300 1.254 . S
C282 O301 1.225 . S
C283 C282 1.491 . S
C283 C284 1.392 . S
C283 C288 1.356 . S
C284 C283 1.392 . S
C284 C285 1.368 . S
C284 H312 0.929 . S
C285 C284 1.368 . S
C285 C286 1.386 . S
C285 H313 0.929 . S
C286 C285 1.386 . S
C286 C287 1.373 . S
C287 C286 1.373 . S
C287 C288 1.409 . S
C287 H314 0.931 . S
C288 C283 1.356 . S
C288 C287 1.409 . S
C288 H315 0.930 . S
C289 O302 1.270 . S
C289 O303 1.248 . S
C290 O304 1.267 . S
C290 O305 1.278 . S
C291 Pr281 2.880 1_556 S
C291 C292 1.491 . S
C291 O306 1.254 . S
C291 O307 1.225 . S
C292 C291 1.491 . S
C292 C293 1.392 . S
C292 C297 1.356 . S
C293 C292 1.392 . S
C293 C294 1.368 . S
C293 H316 0.929 . S
C294 C293 1.368 . S
C294 C295 1.386 . S
C294 H317 0.929 . S
C295 C294 1.386 . S
C295 C296 1.373 . S
C296 C295 1.373 . S
C296 C297 1.409 . S
C296 H318 0.931 . S
C297 C292 1.356 . S
C297 C296 1.409 . S
C297 H319 0.930 . S
C298 O308 1.270 . S
C298 O309 1.248 . S
C299 O310 1.267 . S
C299 O311 1.278 . S
O300 Pr280 2.562 1_554 S
O300 C282 1.254 . S
O301 Pr280 2.490 1_554 S
O301 C282 1.225 . S
O302 Pr280 2.695 . S
O302 Pr281 2.436 1_556 S
O302 C289 1.270 . S
O303 Pr280 2.512 . S
O303 C289 1.248 . S
O304 Pr281 2.438 . S
O304 C290 1.267 . S
O305 Pr280 2.437 1_554 S
O305 C290 1.278 . S
O306 Pr281 2.562 1_556 S
O306 C291 1.254 . S
O307 Pr281 2.490 1_556 S
O307 C291 1.225 . S
O308 Pr280 2.436 1_554 S
O308 Pr281 2.695 . S
O308 C298 1.270 . S
O309 Pr281 2.512 . S
O309 C298 1.248 . S
O310 Pr280 2.438 . S
O310 C299 1.267 . S
O311 Pr281 2.437 1_556 S
O311 C299 1.278 . S
H312 C284 0.929 . S
H313 C285 0.929 . S
H314 C287 0.931 . S
H315 C288 0.930 . S
H316 C293 0.929 . S
H317 C294 0.929 . S
H318 C296 0.931 . S
H319 C297 0.930 . S
C320 C321 1.387 . S
C320 H324 0.950 . S
C320 C329 1.390 . S
C321 C320 1.387 . S
C321 C323 1.387 . S
H322 C329 0.950 . S
C323 C321 1.387 . S
C323 C325 1.390 . S
C323 H327 0.950 . S
H324 C320 0.950 . S
C325 C323 1.390 . S
C325 C326 1.387 . S
C325 H328 0.950 . S
C326 C325 1.387 . S
C326 C329 1.387 . S
H327 C323 0.950 . S
H328 C325 0.950 . S
C329 C320 1.390 . S
C329 H322 0.950 . S
C329 C326 1.387 . S
C330 C331 1.387 . S
C330 H334 0.950 . S
C330 C339 1.390 . S
C331 C330 1.387 . S
C331 C333 1.387 . S
H332 C339 0.950 . S
C333 C331 1.387 . S
C333 C335 1.390 . S
C333 H337 0.950 . S
H334 C330 0.950 . S
C335 C333 1.390 . S
C335 C336 1.387 . S
C335 H338 0.950 . S
C336 C335 1.387 . S
C336 C339 1.387 . S
H337 C333 0.950 . S
H338 C335 0.950 . S
C339 C330 1.390 . S
C339 H332 0.950 . S
C339 C336 1.387 . S
C340 C341 1.387 . S
C340 H344 0.950 . S
C340 C349 1.390 . S
C341 C340 1.387 . S
C341 C343 1.387 . S
H342 C349 0.950 . S
C343 C341 1.387 . S
C343 C345 1.390 . S
C343 H347 0.950 . S
H344 C340 0.950 . S
C345 C343 1.390 . S
C345 C346 1.387 . S
C345 H348 0.950 . S
C346 C345 1.387 . S
C346 C349 1.387 . S
H347 C343 0.950 . S
H348 C345 0.950 . S
C349 C340 1.390 . S
C349 H342 0.950 . S
C349 C346 1.387 . S
C350 C351 1.387 . S
C350 H354 0.950 . S
C350 C359 1.390 . S
C351 C350 1.387 . S
C351 C353 1.387 . S
H352 C359 0.950 . S
C353 C351 1.387 . S
C353 C355 1.390 . S
C353 H357 0.950 . S
H354 C350 0.950 . S
C355 C353 1.390 . S
C355 C356 1.387 . S
C355 H358 0.950 . S
C356 C355 1.387 . S
C356 C359 1.387 . S
H357 C353 0.950 . S
H358 C355 0.950 . S
C359 C350 1.390 . S
C359 H352 0.950 . S
C359 C356 1.387 . S
C360 C361 1.387 . S
C360 H364 0.950 . S
C360 C369 1.390 1_565 S
C361 C360 1.387 . S
C361 C363 1.387 . S
H362 C369 0.950 . S
C363 C361 1.387 . S
C363 C365 1.390 1_565 S
C363 H367 0.950 . S
H364 C360 0.950 . S
C365 C363 1.390 1_545 S
C365 C366 1.387 . S
C365 H368 0.950 . S
C366 C365 1.387 . S
C366 C369 1.387 . S
H367 C363 0.950 . S
H368 C365 0.950 . S
C369 C360 1.390 1_545 S
C369 H362 0.950 . S
C369 C366 1.387 . S
C370 C371 1.387 . S
C370 H374 0.950 . S
C370 C379 1.390 . S
C371 C370 1.387 . S
C371 C373 1.387 . S
H372 C379 0.950 . S
C373 C371 1.387 . S
C373 C375 1.390 . S
C373 H377 0.950 . S
H374 C370 0.950 . S
C375 C373 1.390 . S
C375 C376 1.387 . S
C375 H378 0.950 . S
C376 C375 1.387 . S
C376 C379 1.387 . S
H377 C373 0.950 . S
H378 C375 0.950 . S
C379 C370 1.390 . S
C379 H372 0.950 . S
C379 C376 1.387 . S
C380 C381 1.387 . S
C380 H384 0.950 . S
C380 C389 1.390 1_565 S
C381 C380 1.387 . S
C381 C383 1.387 . S
H382 C389 0.950 . S
C383 C381 1.387 . S
C383 C385 1.390 1_565 S
C383 H387 0.950 . S
H384 C380 0.950 . S
C385 C383 1.390 1_545 S
C385 C386 1.387 . S
C385 H388 0.950 . S
C386 C385 1.387 . S
C386 C389 1.387 . S
H387 C383 0.950 . S
H388 C385 0.950 . S
C389 C380 1.390 1_545 S
C389 H382 0.950 . S
C389 C386 1.387 . S
C390 C391 1.387 . S
C390 H394 0.950 . S
C390 C399 1.390 . S
C391 C390 1.387 . S
C391 C393 1.387 . S
H392 C399 0.950 . S
C393 C391 1.387 . S
C393 C395 1.390 . S
C393 H397 0.950 . S
H394 C390 0.950 . S
C395 C393 1.390 . S
C395 C396 1.387 . S
C395 H398 0.950 . S
C396 C395 1.387 . S
C396 C399 1.387 . S
H397 C393 0.950 . S
H398 C395 0.950 . S
C399 C390 1.390 . S
C399 H392 0.950 . S
C399 C396 1.387 . S
C400 C401 1.387 1_554 S
C400 H404 0.950 . S
C400 C409 1.390 . S
C401 C400 1.387 1_556 S
C401 C403 1.387 . S
H402 C409 0.950 . S
C403 C401 1.387 . S
C403 C405 1.390 . S
C403 H407 0.950 . S
H404 C400 0.950 . S
C405 C403 1.390 . S
C405 C406 1.387 . S
C405 H408 0.950 . S
C406 C405 1.387 . S
C406 C409 1.387 1_556 S
H407 C403 0.950 . S
H408 C405 0.950 . S
C409 C400 1.390 . S
C409 H402 0.950 . S
C409 C406 1.387 1_554 S
C410 C411 1.387 . S
C410 H414 0.950 . S
C410 C419 1.390 1_565 S
C411 C410 1.387 . S
C411 C413 1.387 1_556 S
H412 C419 0.950 . S
C413 C411 1.387 1_554 S
C413 C415 1.390 1_565 S
C413 H417 0.950 . S
H414 C410 0.950 . S
C415 C413 1.390 1_545 S
C415 C416 1.387 1_554 S
C415 H418 0.950 . S
C416 C415 1.387 1_556 S
C416 C419 1.387 . S
H417 C413 0.950 . S
H418 C415 0.950 . S
C419 C410 1.390 1_545 S
C419 H412 0.950 . S
C419 C416 1.387 . S
C420 C421 1.387 . S
C420 H424 0.950 . S
C420 C429 1.390 . S
C421 C420 1.387 . S
C421 C423 1.387 1_554 S
H422 C429 0.950 . S
C423 C421 1.387 1_556 S
C423 C425 1.390 . S
C423 H427 0.950 . S
H424 C420 0.950 . S
C425 C423 1.390 . S
C425 C426 1.387 1_556 S
C425 H428 0.950 . S
C426 C425 1.387 1_554 S
C426 C429 1.387 . S
H427 C423 0.950 . S
H428 C425 0.950 . S
C429 C420 1.390 . S
C429 H422 0.950 . S
C429 C426 1.387 . S
C430 C431 1.387 1_556 S
C430 H434 0.950 . S
C430 C439 1.390 1_545 S
C431 C430 1.387 1_554 S
C431 C433 1.387 . S
H432 C439 0.950 . S
C433 C431 1.387 . S
C433 C435 1.390 1_545 S
C433 H437 0.950 . S
H434 C430 0.950 . S
C435 C433 1.390 1_565 S
C435 C436 1.387 . S
C435 H438 0.950 . S
C436 C435 1.387 . S
C436 C439 1.387 1_554 S
H437 C433 0.950 . S
H438 C435 0.950 . S
C439 C430 1.390 1_565 S
C439 H432 0.950 . S
C439 C436 1.387 1_556 S
C440 C441 1.387 1_556 S
C440 H444 0.950 1_556 S
C440 C449 1.390 . S
C441 C440 1.387 1_554 S
C441 C443 1.387 1_554 S
H442 C449 0.950 . S
C443 C441 1.387 1_556 S
C443 C445 1.390 . S
C443 H447 0.950 1_556 S
H444 C440 0.950 1_554 S
C445 C443 1.390 . S
C445 C446 1.387 . S
C445 H448 0.950 . S
C446 C445 1.387 . S
C446 C449 1.387 . S
H447 C443 0.950 1_554 S
H448 C445 0.950 . S
C449 C440 1.390 . S
C449 H442 0.950 . S
C449 C446 1.387 . S
C450 C451 1.387 1_556 S
C450 H454 0.950 1_556 S
C450 C459 1.390 . S
C451 C450 1.387 1_554 S
C451 C453 1.387 1_554 S
H452 C459 0.950 . S
C453 C451 1.387 1_556 S
C453 C455 1.390 . S
C453 H457 0.950 1_556 S
H454 C450 0.950 1_554 S
C455 C453 1.390 . S
C455 C456 1.387 . S
C455 H458 0.950 . S
C456 C455 1.387 . S
C456 C459 1.387 . S
H457 C453 0.950 1_554 S
H458 C455 0.950 . S
C459 C450 1.390 . S
C459 H452 0.950 . S
C459 C456 1.387 . S
C460 C461 1.387 . S
C460 H464 0.950 . S
C460 C469 1.390 . S
C461 C460 1.387 . S
C461 C463 1.387 . S
H462 C469 0.950 1_556 S
C463 C461 1.387 . S
C463 C465 1.390 . S
C463 H467 0.950 . S
H464 C460 0.950 . S
C465 C463 1.390 . S
C465 C466 1.387 1_554 S
C465 H468 0.950 1_554 S
C466 C465 1.387 1_556 S
C466 C469 1.387 1_556 S
H467 C463 0.950 . S
H468 C465 0.950 1_556 S
C469 C460 1.390 . S
C469 H462 0.950 1_554 S
C469 C466 1.387 1_554 S
C470 C471 1.387 1_554 S
C470 H474 0.950 1_554 S
C470 C479 1.390 . S
C471 C470 1.387 1_556 S
C471 C473 1.387 1_556 S
H472 C479 0.950 . S
C473 C471 1.387 1_554 S
C473 C475 1.390 . S
C473 H477 0.950 1_554 S
H474 C470 0.950 1_556 S
C475 C473 1.390 . S
C475 C476 1.387 . S
C475 H478 0.950 . S
C476 C475 1.387 . S
C476 C479 1.387 . S
H477 C473 0.950 1_556 S
H478 C475 0.950 . S
C479 C470 1.390 . S
C479 H472 0.950 . S
C479 C476 1.387 . S
C480 C481 1.387 . S
C480 H484 0.950 . S
C480 C489 1.390 . S
C481 C480 1.387 . S
C481 C483 1.387 . S
H482 C489 0.950 . S
C483 C481 1.387 . S
C483 C485 1.390 . S
C483 H487 0.950 . S
H484 C480 0.950 . S
C485 C483 1.390 . S
C485 C486 1.387 . S
C485 H488 0.950 . S
C486 C485 1.387 . S
C486 C489 1.387 . S
H487 C483 0.950 . S
H488 C485 0.950 . S
C489 C480 1.390 . S
C489 H482 0.950 . S
C489 C486 1.387 . S
C490 C491 1.387 . S
C490 H494 0.950 . S
C490 C499 1.390 . S
C491 C490 1.387 . S
C491 C493 1.387 . S
H492 C499 0.950 . S
C493 C491 1.387 . S
C493 C495 1.390 . S
C493 H497 0.950 . S
H494 C490 0.950 . S
C495 C493 1.390 . S
C495 C496 1.387 . S
C495 H498 0.950 . S
C496 C495 1.387 . S
C496 C499 1.387 . S
H497 C493 0.950 . S
H498 C495 0.950 . S
C499 C490 1.390 . S
C499 H492 0.950 . S
C499 C496 1.387 . S
C500 C501 1.387 . S
C500 H504 0.950 . S
C500 C509 1.390 . S
C501 C500 1.387 . S
C501 C503 1.387 . S
H502 C509 0.950 . S
C503 C501 1.387 . S
C503 C505 1.390 . S
C503 H507 0.950 . S
H504 C500 0.950 . S
C505 C503 1.390 . S
C505 C506 1.387 . S
C505 H508 0.950 . S
C506 C505 1.387 . S
C506 C509 1.387 . S
H507 C503 0.950 . S
H508 C505 0.950 . S
C509 C500 1.390 . S
C509 H502 0.950 . S
C509 C506 1.387 . S
C510 C511 1.387 . S
C510 H514 0.950 . S
C510 C519 1.390 . S
C511 C510 1.387 . S
C511 C513 1.387 . S
H512 C519 0.950 . S
C513 C511 1.387 . S
C513 C515 1.390 . S
C513 H517 0.950 . S
H514 C510 0.950 . S
C515 C513 1.390 . S
C515 C516 1.387 . S
C515 H518 0.950 . S
C516 C515 1.387 . S
C516 C519 1.387 . S
H517 C513 0.950 . S
H518 C515 0.950 . S
C519 C510 1.390 . S
C519 H512 0.950 . S
C519 C516 1.387 . S
C520 C521 1.387 . S
C520 H524 0.950 1_554 S
C520 C529 1.390 1_455 S
C521 C520 1.387 . S
C521 C523 1.387 . S
H522 C529 0.950 1_556 S
C523 C521 1.387 . S
C523 C525 1.390 1_455 S
C523 H527 0.950 . S
H524 C520 0.950 1_556 S
C525 C523 1.390 1_655 S
C525 C526 1.387 . S
C525 H528 0.950 . S
C526 C525 1.387 . S
C526 C529 1.387 . S
H527 C523 0.950 . S
H528 C525 0.950 . S
C529 C520 1.390 1_655 S
C529 H522 0.950 1_554 S
C529 C526 1.387 . S
C530 C531 1.387 . S
C530 H534 0.950 . S
C530 C539 1.390 1_655 S
C531 C530 1.387 . S
C531 C533 1.387 . S
H532 C539 0.950 . S
C533 C531 1.387 . S
C533 C535 1.390 1_655 S
C533 H537 0.950 1_556 S
H534 C530 0.950 . S
C535 C533 1.390 1_455 S
C535 C536 1.387 . S
C535 H538 0.950 1_556 S
C536 C535 1.387 . S
C536 C539 1.387 . S
H537 C533 0.950 1_554 S
H538 C535 0.950 1_554 S
C539 C530 1.390 1_455 S
C539 H532 0.950 . S
C539 C536 1.387 . S
C540 C541 1.387 . S
C540 H544 0.950 . S
C540 C549 1.390 . S
C541 C540 1.387 . S
C541 C543 1.387 . S
H542 C549 0.950 . S
C543 C541 1.387 . S
C543 C545 1.390 . S
C543 H547 0.950 . S
H544 C540 0.950 . S
C545 C543 1.390 . S
C545 C546 1.387 . S
C545 H548 0.950 . S
C546 C545 1.387 . S
C546 C549 1.387 . S
H547 C543 0.950 . S
H548 C545 0.950 . S
C549 C540 1.390 . S
C549 H542 0.950 . S
C549 C546 1.387 . S
C550 C551 1.387 . S
C550 H554 0.950 . S
C550 C559 1.390 . S
C551 C550 1.387 . S
C551 C553 1.387 . S
H552 C559 0.950 . S
C553 C551 1.387 . S
C553 C555 1.390 . S
C553 H557 0.950 . S
H554 C550 0.950 . S
C555 C553 1.390 . S
C555 C556 1.387 . S
C555 H558 0.950 . S
C556 C555 1.387 . S
C556 C559 1.387 . S
H557 C553 0.950 . S
H558 C555 0.950 . S
C559 C550 1.390 . S
C559 H552 0.950 . S
C559 C556 1.387 . S
C321 C6 1.703 . S
C326 C295 1.703 . S
C331 C255 1.704 . S
C336 C46 1.703 . S
C341 C206 1.704 . S
C346 C95 1.704 . S
C351 C166 1.703 . S
C356 C135 1.703 . S
C361 C89 1.604 . S
C366 C9 1.640 . S
C371 C49 1.641 . S
C376 C129 1.605 . S
C381 C138 1.640 . S
C386 C58 1.604 . S
C391 C98 1.641 . S
C396 C18 1.605 . S
C401 C169 1.436 . S
C406 C249 1.436 . S
C411 C209 1.439 . S
C416 C289 1.439 . S
C421 C298 1.436 . S
C426 C218 1.436 . S
C431 C258 1.439 . S
C436 C178 1.439 . S
C441 C19 2.067 . S
C446 C10 2.067 . S
C451 C59 2.066 . S
C456 C50 2.066 . S
C461 C99 2.066 . S
C466 C90 2.066 . S
C471 C130 2.064 . S
C476 C139 2.064 . S
C481 C170 2.066 . S
C486 C179 2.066 . S
C491 C219 2.063 . S
C496 C210 2.063 . S
C501 C250 2.063 . S
C506 C259 2.063 . S
C511 C290 2.066 . S
C516 C299 2.066 . S
C521 C15 2.244 . S
C526 C55 2.244 . S
C531 C126 2.244 . S
C536 C86 2.244 . S
C541 C175 2.246 . S
C546 C215 2.246 . S
C551 C286 2.246 . S
C556 C246 2.246 . S
