# Generated by pormake.
# Topology umu, (4)-cn, num edge types: 1
# Building blocks:
#     Node 0, Type 0, BuildingBlock: GALJAG_clean_sbu_0, # of connection points: 4
#     Node 1, Type 0, BuildingBlock: GALJAG_clean_sbu_0, # of connection points: 4
#     Node 2, Type 0, BuildingBlock: GALJAG_clean_sbu_0, # of connection points: 4
#     Node 3, Type 0, BuildingBlock: GALJAG_clean_sbu_0, # of connection points: 4
#     Node 4, Type 0, BuildingBlock: GALJAG_clean_sbu_0, # of connection points: 4
#     Node 5, Type 0, BuildingBlock: GALJAG_clean_sbu_0, # of connection points: 4
#     Node 6, Type 0, BuildingBlock: GALJAG_clean_sbu_0, # of connection points: 4
#     Node 7, Type 0, BuildingBlock: GALJAG_clean_sbu_0, # of connection points: 4
#     Node 8, Type 0, BuildingBlock: GALJAG_clean_sbu_0, # of connection points: 4
#     Node 9, Type 0, BuildingBlock: GALJAG_clean_sbu_0, # of connection points: 4
#     Node 10, Type 0, BuildingBlock: GALJAG_clean_sbu_0, # of connection points: 4
#     Node 11, Type 0, BuildingBlock: GALJAG_clean_sbu_0, # of connection points: 4
#     Node 12, Type 0, BuildingBlock: GALJAG_clean_sbu_0, # of connection points: 4
#     Node 13, Type 0, BuildingBlock: GALJAG_clean_sbu_0, # of connection points: 4
#     Node 14, Type 0, BuildingBlock: GALJAG_clean_sbu_0, # of connection points: 4
#     Node 15, Type 0, BuildingBlock: GALJAG_clean_sbu_0, # of connection points: 4
#     Node 16, Type 0, BuildingBlock: GALJAG_clean_sbu_0, # of connection points: 4
#     Node 17, Type 0, BuildingBlock: GALJAG_clean_sbu_0, # of connection points: 4
#     Node 18, Type 0, BuildingBlock: GALJAG_clean_sbu_0, # of connection points: 4
#     Node 19, Type 0, BuildingBlock: GALJAG_clean_sbu_0, # of connection points: 4
#     Node 20, Type 0, BuildingBlock: GALJAG_clean_sbu_0, # of connection points: 4
#     Node 21, Type 0, BuildingBlock: GALJAG_clean_sbu_0, # of connection points: 4
#     Node 22, Type 0, BuildingBlock: GALJAG_clean_sbu_0, # of connection points: 4
#     Node 23, Type 0, BuildingBlock: GALJAG_clean_sbu_0, # of connection points: 4
#     Node 24, Type 0, BuildingBlock: GALJAG_clean_sbu_0, # of connection points: 4
#     Node 25, Type 0, BuildingBlock: GALJAG_clean_sbu_0, # of connection points: 4
#     Node 26, Type 0, BuildingBlock: GALJAG_clean_sbu_0, # of connection points: 4
#     Node 27, Type 0, BuildingBlock: GALJAG_clean_sbu_0, # of connection points: 4
#     Node 28, Type 0, BuildingBlock: GALJAG_clean_sbu_0, # of connection points: 4
#     Node 29, Type 0, BuildingBlock: GALJAG_clean_sbu_0, # of connection points: 4
#     Node 30, Type 0, BuildingBlock: GALJAG_clean_sbu_0, # of connection points: 4
#     Node 31, Type 0, BuildingBlock: GALJAG_clean_sbu_0, # of connection points: 4
#     Edge 32, Type (0, 0), BuildingBlock: UVAHIK_clean_linker_0, # of connection points: 2
#     Edge 33, Type (0, 0), BuildingBlock: UVAHIK_clean_linker_0, # of connection points: 2
#     Edge 34, Type (0, 0), BuildingBlock: UVAHIK_clean_linker_0, # of connection points: 2
#     Edge 35, Type (0, 0), BuildingBlock: UVAHIK_clean_linker_0, # of connection points: 2
#     Edge 36, Type (0, 0), BuildingBlock: UVAHIK_clean_linker_0, # of connection points: 2
#     Edge 37, Type (0, 0), BuildingBlock: UVAHIK_clean_linker_0, # of connection points: 2
#     Edge 38, Type (0, 0), BuildingBlock: UVAHIK_clean_linker_0, # of connection points: 2
#     Edge 39, Type (0, 0), BuildingBlock: UVAHIK_clean_linker_0, # of connection points: 2
#     Edge 40, Type (0, 0), BuildingBlock: UVAHIK_clean_linker_0, # of connection points: 2
#     Edge 41, Type (0, 0), BuildingBlock: UVAHIK_clean_linker_0, # of connection points: 2
#     Edge 42, Type (0, 0), BuildingBlock: UVAHIK_clean_linker_0, # of connection points: 2
#     Edge 43, Type (0, 0), BuildingBlock: UVAHIK_clean_linker_0, # of connection points: 2
#     Edge 44, Type (0, 0), BuildingBlock: UVAHIK_clean_linker_0, # of connection points: 2
#     Edge 45, Type (0, 0), BuildingBlock: UVAHIK_clean_linker_0, # of connection points: 2
#     Edge 46, Type (0, 0), BuildingBlock: UVAHIK_clean_linker_0, # of connection points: 2
#     Edge 47, Type (0, 0), BuildingBlock: UVAHIK_clean_linker_0, # of connection points: 2
#     Edge 48, Type (0, 0), BuildingBlock: UVAHIK_clean_linker_0, # of connection points: 2
#     Edge 49, Type (0, 0), BuildingBlock: UVAHIK_clean_linker_0, # of connection points: 2
#     Edge 50, Type (0, 0), BuildingBlock: UVAHIK_clean_linker_0, # of connection points: 2
#     Edge 51, Type (0, 0), BuildingBlock: UVAHIK_clean_linker_0, # of connection points: 2
#     Edge 52, Type (0, 0), BuildingBlock: UVAHIK_clean_linker_0, # of connection points: 2
#     Edge 53, Type (0, 0), BuildingBlock: UVAHIK_clean_linker_0, # of connection points: 2
#     Edge 54, Type (0, 0), BuildingBlock: UVAHIK_clean_linker_0, # of connection points: 2
#     Edge 55, Type (0, 0), BuildingBlock: UVAHIK_clean_linker_0, # of connection points: 2
#     Edge 56, Type (0, 0), BuildingBlock: UVAHIK_clean_linker_0, # of connection points: 2
#     Edge 57, Type (0, 0), BuildingBlock: UVAHIK_clean_linker_0, # of connection points: 2
#     Edge 58, Type (0, 0), BuildingBlock: UVAHIK_clean_linker_0, # of connection points: 2
#     Edge 59, Type (0, 0), BuildingBlock: UVAHIK_clean_linker_0, # of connection points: 2
#     Edge 60, Type (0, 0), BuildingBlock: UVAHIK_clean_linker_0, # of connection points: 2
#     Edge 61, Type (0, 0), BuildingBlock: UVAHIK_clean_linker_0, # of connection points: 2
#     Edge 62, Type (0, 0), BuildingBlock: UVAHIK_clean_linker_0, # of connection points: 2
#     Edge 63, Type (0, 0), BuildingBlock: UVAHIK_clean_linker_0, # of connection points: 2
#     Edge 64, Type (0, 0), BuildingBlock: UVAHIK_clean_linker_0, # of connection points: 2
#     Edge 65, Type (0, 0), BuildingBlock: UVAHIK_clean_linker_0, # of connection points: 2
#     Edge 66, Type (0, 0), BuildingBlock: UVAHIK_clean_linker_0, # of connection points: 2
#     Edge 67, Type (0, 0), BuildingBlock: UVAHIK_clean_linker_0, # of connection points: 2
#     Edge 68, Type (0, 0), BuildingBlock: UVAHIK_clean_linker_0, # of connection points: 2
#     Edge 69, Type (0, 0), BuildingBlock: UVAHIK_clean_linker_0, # of connection points: 2
#     Edge 70, Type (0, 0), BuildingBlock: UVAHIK_clean_linker_0, # of connection points: 2
#     Edge 71, Type (0, 0), BuildingBlock: UVAHIK_clean_linker_0, # of connection points: 2
#     Edge 72, Type (0, 0), BuildingBlock: UVAHIK_clean_linker_0, # of connection points: 2
#     Edge 73, Type (0, 0), BuildingBlock: UVAHIK_clean_linker_0, # of connection points: 2
#     Edge 74, Type (0, 0), BuildingBlock: UVAHIK_clean_linker_0, # of connection points: 2
#     Edge 75, Type (0, 0), BuildingBlock: UVAHIK_clean_linker_0, # of connection points: 2
#     Edge 76, Type (0, 0), BuildingBlock: UVAHIK_clean_linker_0, # of connection points: 2
#     Edge 77, Type (0, 0), BuildingBlock: UVAHIK_clean_linker_0, # of connection points: 2
#     Edge 78, Type (0, 0), BuildingBlock: UVAHIK_clean_linker_0, # of connection points: 2
#     Edge 79, Type (0, 0), BuildingBlock: UVAHIK_clean_linker_0, # of connection points: 2
#     Edge 80, Type (0, 0), BuildingBlock: UVAHIK_clean_linker_0, # of connection points: 2
#     Edge 81, Type (0, 0), BuildingBlock: UVAHIK_clean_linker_0, # of connection points: 2
#     Edge 82, Type (0, 0), BuildingBlock: UVAHIK_clean_linker_0, # of connection points: 2
#     Edge 83, Type (0, 0), BuildingBlock: UVAHIK_clean_linker_0, # of connection points: 2
#     Edge 84, Type (0, 0), BuildingBlock: UVAHIK_clean_linker_0, # of connection points: 2
#     Edge 85, Type (0, 0), BuildingBlock: UVAHIK_clean_linker_0, # of connection points: 2
#     Edge 86, Type (0, 0), BuildingBlock: UVAHIK_clean_linker_0, # of connection points: 2
#     Edge 87, Type (0, 0), BuildingBlock: UVAHIK_clean_linker_0, # of connection points: 2
#     Edge 88, Type (0, 0), BuildingBlock: UVAHIK_clean_linker_0, # of connection points: 2
#     Edge 89, Type (0, 0), BuildingBlock: UVAHIK_clean_linker_0, # of connection points: 2
#     Edge 90, Type (0, 0), BuildingBlock: UVAHIK_clean_linker_0, # of connection points: 2
#     Edge 91, Type (0, 0), BuildingBlock: UVAHIK_clean_linker_0, # of connection points: 2
#     Edge 92, Type (0, 0), BuildingBlock: UVAHIK_clean_linker_0, # of connection points: 2
#     Edge 93, Type (0, 0), BuildingBlock: UVAHIK_clean_linker_0, # of connection points: 2
#     Edge 94, Type (0, 0), BuildingBlock: UVAHIK_clean_linker_0, # of connection points: 2
#     Edge 95, Type (0, 0), BuildingBlock: UVAHIK_clean_linker_0, # of connection points: 2
# Relax obj value: 0.103
# Max RMSD: 0.078
# Mean RMSD: 0.078
data_MOF--net-umu--node1-GALJAG_clean_sbu_0--edge1-UVAHIK_clean_linker_0
_symmetry_space_group_name_H-M    P1
_symmetry_Int_Tables_number       1
_symmetry_cell_setting            triclinic
loop_
_symmetry_equiv_pos_as_xyz
'x, y, z'
_cell_length_a     102.91566
_cell_length_b     102.78385
_cell_length_c     35.29294
_cell_angle_alpha  90.003577
_cell_angle_beta   89.995229
_cell_angle_gamma 89.987057
loop_
_atom_site_label
_atom_site_type_symbol
_atom_site_fract_x
_atom_site_fract_y
_atom_site_fract_z
_atom_type_partial_charge
In0 In 0.21108 0.15469 0.07795 0.0
O1 O 0.21795 0.16436 0.0235 0.0
O2 O 0.22576 0.1458 0.03653 0.0
C3 C 0.22024 0.14476 0.14341 0.0
C4 C 0.19123 0.14037 0.05095 0.0
C5 C 0.20712 0.17928 0.10138 0.0
O6 O 0.22758 0.14791 0.11626 0.0
O7 O 0.20828 0.14651 0.13736 0.0
O8 O 0.19786 0.17148 0.09538 0.0
O9 O 0.21831 0.17461 0.09585 0.0
C10 C 0.22527 0.15516 0.01349 0.0
O11 O 0.19096 0.15263 0.05129 0.0
O12 O 0.20128 0.13539 0.0653 0.0
In13 In 0.09197 0.96 0.3195 0.0
O14 O 0.09347 0.97726 0.27888 0.0
O15 O 0.08683 0.95918 0.25693 0.0
C16 C 0.10286 0.9706 0.38184 0.0
C17 C 0.10858 0.94101 0.29957 0.0
C18 C 0.06682 0.95732 0.33964 0.0
O19 O 0.10171 0.97672 0.35106 0.0
O20 O 0.09869 0.95906 0.38102 0.0
O21 O 0.07439 0.94773 0.33662 0.0
O22 O 0.07196 0.96819 0.33275 0.0
C23 C 0.08967 0.9709 0.25035 0.0
O24 O 0.09728 0.93863 0.31163 0.0
O25 O 0.11162 0.95291 0.29914 0.0
In26 In 0.28766 0.84104 0.56867 0.0
O27 O 0.30831 0.84376 0.54608 0.0
O28 O 0.29743 0.86061 0.5604 0.0
C29 C 0.29066 0.81642 0.593 0.0
C30 C 0.27533 0.84055 0.50113 0.0
C31 C 0.27653 0.85075 0.63162 0.0
O32 O 0.30016 0.82411 0.58937 0.0
O33 O 0.27975 0.82119 0.58444 0.0
O34 O 0.27015 0.84831 0.6019 0.0
O35 O 0.28854 0.84841 0.62942 0.0
C36 C 0.30783 0.85601 0.54715 0.0
O37 O 0.27366 0.84956 0.52489 0.0
O38 O 0.28291 0.83166 0.51185 0.0
In39 In 0.40471 0.04021 0.81696 0.0
O40 O 0.40119 0.0228 0.77762 0.0
O41 O 0.40715 0.04067 0.75297 0.0
C42 C 0.39332 0.03022 0.8794 0.0
C43 C 0.39126 0.06186 0.79979 0.0
C44 C 0.43011 0.04042 0.83631 0.0
O45 O 0.3931 0.02451 0.84775 0.0
O46 O 0.39906 0.04106 0.87933 0.0
O47 O 0.42291 0.05027 0.83962 0.0
O48 O 0.4245 0.03048 0.82335 0.0
C49 C 0.40393 0.02899 0.74777 0.0
O50 O 0.4035 0.06155 0.80095 0.0
O51 O 0.38573 0.0513 0.80846 0.0
In52 In 0.20982 0.84185 0.05922 0.0
O53 O 0.22041 0.83208 0.10839 0.0
O54 O 0.222 0.85257 0.10356 0.0
C55 C 0.21924 0.85191 0.99424 0.0
C56 C 0.18922 0.85506 0.08612 0.0
C57 C 0.20524 0.8173 0.03626 0.0
O58 O 0.22639 0.84943 0.02237 0.0
O59 O 0.20735 0.84947 -0.00087 0.0
O60 O 0.19617 0.82503 0.04492 0.0
O61 O 0.21652 0.82201 0.03903 0.0
C62 C 0.22482 0.84249 0.12211 0.0
O63 O 0.19079 0.84307 0.09223 0.0
O64 O 0.19782 0.86023 0.0656 0.0
In65 In 0.40061 0.96234 0.30445 0.0
O66 O 0.39588 0.94095 0.31387 0.0
O67 O 0.38104 0.95491 0.3246 0.0
C68 C 0.42604 0.9602 0.28706 0.0
C69 C 0.40174 0.97386 0.37302 0.0
C70 C 0.39041 0.97176 0.23956 0.0
O71 O 0.4188 0.9504 0.29105 0.0
O72 O 0.42041 0.97099 0.29134 0.0
O73 O 0.39223 0.97875 0.26846 0.0
O74 O 0.39352 0.95998 0.24361 0.0
C75 C 0.38446 0.94312 0.32539 0.0
O76 O 0.39701 0.97954 0.34443 0.0
O77 O 0.40603 0.96258 0.36673 0.0
In78 In 0.28686 0.15675 0.56672 0.0
O79 O 0.30478 0.15777 0.60411 0.0
O80 O 0.30244 0.14098 0.56957 0.0
C81 C 0.28953 0.18126 0.54064 0.0
C82 C 0.27296 0.15503 0.63134 0.0
C83 C 0.27638 0.1448 0.50586 0.0
O84 O 0.29912 0.1738 0.54561 0.0
O85 O 0.27865 0.17633 0.54861 0.0
O86 O 0.27003 0.14691 0.5358 0.0
O87 O 0.28807 0.14844 0.50698 0.0
C88 C 0.30912 0.1468 0.59434 0.0
O89 O 0.27702 0.14512 0.61387 0.0
O90 O 0.27548 0.16572 0.61543 0.0
In91 In 0.09445 0.03751 0.80755 0.0
O92 O 0.09959 0.05881 0.81759 0.0
O93 O 0.11409 0.04446 0.82807 0.0
C94 C 0.06909 0.03943 0.78918 0.0
C95 C 0.09262 0.02578 0.87564 0.0
C96 C 0.10496 0.02853 0.74269 0.0
O97 O 0.07607 0.04933 0.79498 0.0
O98 O 0.07495 0.02872 0.79218 0.0
O99 O 0.10358 0.02148 0.7717 0.0
O100 O 0.10124 0.04015 0.74664 0.0
C101 C 0.11097 0.05634 0.82903 0.0
O102 O 0.09715 0.02 0.84694 0.0
O103 O 0.08893 0.0373 0.86972 0.0
In104 In 0.78472 0.84127 0.06231 0.0
O105 O 0.7727 0.85062 0.10939 0.0
O106 O 0.77722 0.83058 0.1146 0.0
C107 C 0.77324 0.85222 0.00159 0.0
C108 C 0.80548 0.85472 0.08728 0.0
C109 C 0.78847 0.81721 0.03445 0.0
O110 O 0.76702 0.84916 0.03108 0.0
O111 O 0.78527 0.84988 0.00292 0.0
O112 O 0.79776 0.82503 0.03983 0.0
O113 O 0.77738 0.82159 0.04293 0.0
C114 C 0.77193 0.84044 0.12912 0.0
O115 O 0.80482 0.84249 0.08954 0.0
O116 O 0.79596 0.86002 0.07092 0.0
In117 In 0.90458 0.03655 0.80896 0.0
O118 O 0.90132 0.01873 0.84676 0.0
O119 O 0.90898 0.03588 0.87188 0.0
C120 C 0.89468 0.02782 0.74303 0.0
C121 C 0.888 0.05547 0.82954 0.0
C122 C 0.93007 0.03855 0.79216 0.0
O123 O 0.89563 0.02073 0.77209 0.0
O124 O 0.89857 0.03936 0.74738 0.0
O125 O 0.92291 0.04842 0.79634 0.0
O126 O 0.92434 0.02781 0.79614 0.0
C127 C 0.90527 0.02431 0.87648 0.0
O128 O 0.89982 0.0577 0.82242 0.0
O129 O 0.8845 0.04381 0.82485 0.0
In130 In 0.70851 0.15459 0.56042 0.0
O131 O 0.72623 0.15225 0.59913 0.0
O132 O 0.70882 0.15989 0.62271 0.0
C133 C 0.71755 0.14454 0.49504 0.0
C134 C 0.69034 0.13743 0.58238 0.0
C135 C 0.70582 0.17993 0.54237 0.0
O136 O 0.7246 0.14591 0.52405 0.0
O137 O 0.70589 0.14806 0.49923 0.0
O138 O 0.69614 0.17264 0.548 0.0
O139 O 0.71669 0.17439 0.54538 0.0
C140 C 0.72043 0.15649 0.62816 0.0
O141 O 0.68753 0.14895 0.57299 0.0
O142 O 0.70219 0.13447 0.579 0.0
In143 In 0.5905 0.95665 0.3136 0.0
O144 O 0.59447 0.97367 0.35373 0.0
O145 O 0.58618 0.95645 0.37668 0.0
C146 C 0.6007 0.96598 0.24883 0.0
C147 C 0.60667 0.93694 0.33001 0.0
C148 C 0.56497 0.95585 0.2965 0.0
O149 O 0.59969 0.9728 0.27842 0.0
O150 O 0.59667 0.95445 0.25203 0.0
O151 O 0.57166 0.94565 0.30057 0.0
O152 O 0.57118 0.9663 0.30082 0.0
C153 C 0.59032 0.9678 0.38272 0.0
O154 O 0.59478 0.93512 0.32282 0.0
O155 O 0.61038 0.94862 0.3279 0.0
In156 In 0.78681 0.15484 0.07108 0.0
O157 O 0.80788 0.14953 0.05857 0.0
O158 O 0.7936 0.13464 0.05431 0.0
C159 C 0.78972 0.17993 0.09186 0.0
C160 C 0.77577 0.15714 0.00216 0.0
C161 C 0.7761 0.14443 0.13387 0.0
O162 O 0.79919 0.17214 0.09028 0.0
O163 O 0.7789 0.17502 0.08318 0.0
O164 O 0.76997 0.14556 0.10308 0.0
O165 O 0.78772 0.14833 0.13279 0.0
C166 C 0.80536 0.13785 0.05034 0.0
O167 O 0.76948 0.15326 0.03074 0.0
O168 O 0.78746 0.16003 0.0086 0.0
In169 In 0.5935 0.03481 0.82523 0.0
O170 O 0.59777 0.05607 0.81201 0.0
O171 O 0.61355 0.04269 0.81137 0.0
C172 C 0.56815 0.03686 0.84377 0.0
C173 C 0.59241 0.02346 0.75649 0.0
C174 C 0.60379 0.02451 0.8887 0.0
O175 O 0.57575 0.04649 0.84455 0.0
O176 O 0.57336 0.0263 0.83391 0.0
O177 O 0.60343 0.01844 0.85765 0.0
O178 O 0.59915 0.03586 0.88757 0.0
C179 C 0.60973 0.05422 0.80613 0.0
O180 O 0.59571 0.01727 0.78587 0.0
O181 O 0.58955 0.03524 0.76198 0.0
In182 In 0.7104 0.84152 0.57494 0.0
O183 O 0.72577 0.84946 0.53433 0.0
O184 O 0.71762 0.83097 0.52222 0.0
C185 C 0.7184 0.8528 0.63981 0.0
C186 C 0.69099 0.85517 0.54274 0.0
C187 C 0.70664 0.81723 0.60102 0.0
O188 O 0.72617 0.84921 0.61421 0.0
O189 O 0.70656 0.85084 0.63247 0.0
O190 O 0.69731 0.82479 0.59342 0.0
O191 O 0.7178 0.82199 0.59569 0.0
C192 C 0.72528 0.83987 0.51213 0.0
O193 O 0.69014 0.84311 0.54885 0.0
O194 O 0.70138 0.86034 0.55418 0.0
In195 In 0.90366 0.95792 0.31982 0.0
O196 O 0.89874 0.93647 0.31185 0.0
O197 O 0.88362 0.95038 0.30472 0.0
C198 C 0.92899 0.95573 0.33846 0.0
C199 C 0.90487 0.96846 0.24995 0.0
C200 C 0.89356 0.96899 0.38252 0.0
O201 O 0.92151 0.94603 0.33711 0.0
O202 O 0.92369 0.96644 0.33052 0.0
O203 O 0.89437 0.97489 0.35128 0.0
O204 O 0.89766 0.95743 0.38199 0.0
C205 C 0.887 0.93858 0.3035 0.0
O206 O 0.90124 0.97487 0.27856 0.0
O207 O 0.90805 0.95684 0.25672 0.0
In208 In 0.71122 0.65675 0.57045 0.0
O209 O 0.69173 0.65567 0.53963 0.0
O210 O 0.69952 0.63825 0.5627 0.0
C211 C 0.70708 0.68086 0.59751 0.0
C212 C 0.725 0.65743 0.50529 0.0
C213 C 0.72202 0.64572 0.6321 0.0
O214 O 0.69785 0.67313 0.59031 0.0
O215 O 0.71828 0.67636 0.59126 0.0
O216 O 0.72847 0.64831 0.60263 0.0
O217 O 0.71012 0.64857 0.63028 0.0
C218 C 0.69058 0.64353 0.54372 0.0
O219 O 0.72308 0.64708 0.52354 0.0
O220 O 0.72036 0.66749 0.5205 0.0
In221 In 0.59198 0.46122 0.82627 0.0
O222 O 0.59491 0.47859 0.78663 0.0
O223 O 0.58502 0.46198 0.76527 0.0
C224 C 0.60328 0.47062 0.88965 0.0
C225 C 0.60805 0.44239 0.80183 0.0
C226 C 0.56705 0.45814 0.84816 0.0
O227 O 0.60032 0.47776 0.8619 0.0
O228 O 0.60075 0.45872 0.88517 0.0
O229 O 0.57451 0.44863 0.84213 0.0
O230 O 0.5722 0.46915 0.84339 0.0
C231 C 0.5894 0.47321 0.75875 0.0
O232 O 0.59715 0.43992 0.81659 0.0
O233 O 0.61102 0.4543 0.80089 0.0
In234 In 0.78721 0.34254 0.06769 0.0
O235 O 0.77328 0.35155 0.02462 0.0
O236 O 0.78342 0.33443 0.0087 0.0
C237 C 0.77559 0.35155 0.1308 0.0
C238 C 0.80765 0.35755 0.0487 0.0
C239 C 0.78986 0.31754 0.08893 0.0
O240 O 0.7694 0.34901 0.10084 0.0
O241 O 0.78769 0.34966 0.12881 0.0
O242 O 0.79934 0.32534 0.08839 0.0
O243 O 0.77913 0.32239 0.07891 0.0
C244 C 0.77556 0.34324 -0.0008 0.0
O245 O 0.80819 0.34529 0.04812 0.0
O246 O 0.79702 0.36215 0.06032 0.0
In247 In 0.90411 0.53995 0.32106 0.0
O248 O 0.90053 0.52262 0.28159 0.0
O249 O 0.90839 0.53993 0.25798 0.0
C250 C 0.89403 0.53084 0.38631 0.0
C251 C 0.88795 0.55957 0.30365 0.0
C252 C 0.92964 0.54115 0.33784 0.0
O253 O 0.89483 0.52397 0.35676 0.0
O254 O 0.89816 0.54233 0.38277 0.0
O255 O 0.92282 0.55123 0.33324 0.0
O256 O 0.92355 0.53059 0.33425 0.0
C257 C 0.90455 0.52846 0.25237 0.0
O258 O 0.8998 0.56142 0.31126 0.0
O259 O 0.88423 0.54789 0.30593 0.0
In260 In 0.70894 0.34431 0.56025 0.0
O261 O 0.69008 0.34492 0.59416 0.0
O262 O 0.69554 0.36182 0.5633 0.0
C263 C 0.70595 0.31905 0.54214 0.0
C264 C 0.72426 0.34673 0.62215 0.0
C265 C 0.71763 0.35386 0.49377 0.0
O266 O 0.69642 0.32619 0.55092 0.0
O267 O 0.71681 0.32472 0.54209 0.0
O268 O 0.72478 0.35293 0.52267 0.0
O269 O 0.70606 0.35017 0.49863 0.0
C270 C 0.68752 0.35655 0.58555 0.0
O271 O 0.72121 0.3359 0.60807 0.0
O272 O 0.71986 0.35643 0.60453 0.0
In273 In 0.90412 0.46161 0.80967 0.0
O274 O 0.8991 0.44033 0.82027 0.0
O275 O 0.88423 0.45446 0.82801 0.0
C276 C 0.92927 0.45877 0.78965 0.0
C277 C 0.90611 0.47283 0.87848 0.0
C278 C 0.89353 0.47218 0.74691 0.0
O279 O 0.92155 0.44926 0.79165 0.0
O280 O 0.92428 0.46963 0.79752 0.0
O281 O 0.89466 0.47834 0.77763 0.0
O282 O 0.89755 0.4606 0.74799 0.0
C283 C 0.88754 0.44267 0.83015 0.0
O284 O 0.90234 0.47903 0.84962 0.0
O285 O 0.90908 0.46111 0.8724 0.0
In286 In 0.78587 0.65675 0.05792 0.0
O287 O 0.80649 0.65433 0.08102 0.0
O288 O 0.79432 0.63766 0.07846 0.0
C289 C 0.78936 0.68099 0.03111 0.0
C290 C 0.77202 0.65897 0.12252 0.0
C291 C 0.77711 0.64543 0.994 0.0
O292 O 0.79877 0.67344 0.0379 0.0
O293 O 0.77827 0.67624 0.03765 0.0
O294 O 0.76962 0.64919 0.02011 0.0
O295 O 0.78904 0.64724 0.00036 0.0
C296 C 0.80514 0.64237 0.08802 0.0
O297 O 0.77037 0.64972 0.09952 0.0
O298 O 0.78034 0.66725 0.11235 0.0
In299 In 0.59359 0.5385 0.31385 0.0
O300 O 0.59867 0.55995 0.32048 0.0
O301 O 0.61354 0.54595 0.3303 0.0
C302 C 0.56821 0.54087 0.29607 0.0
C303 C 0.59197 0.52775 0.38342 0.0
C304 C 0.60393 0.52803 0.25054 0.0
O305 O 0.57563 0.55058 0.29905 0.0
O306 O 0.57361 0.53005 0.30186 0.0
O307 O 0.6038 0.52211 0.28185 0.0
O308 O 0.599 0.53926 0.25135 0.0
C309 C 0.61029 0.55779 0.33007 0.0
O310 O 0.59484 0.52116 0.3544 0.0
O311 O 0.58982 0.53963 0.37721 0.0
In312 In 0.28642 0.34283 0.55884 0.0
O313 O 0.27146 0.35035 0.60152 0.0
O314 O 0.28191 0.33319 0.61529 0.0
C315 C 0.27674 0.35311 0.4946 0.0
C316 C 0.30613 0.35785 0.58337 0.0
C317 C 0.28942 0.31824 0.53441 0.0
O318 O 0.26962 0.34988 0.52215 0.0
O319 O 0.28874 0.3513 0.49969 0.0
O320 O 0.29898 0.32577 0.53948 0.0
O321 O 0.27846 0.32317 0.54144 0.0
C322 C 0.27359 0.34147 0.6254 0.0
O323 O 0.3073 0.3457 0.57935 0.0
O324 O 0.29521 0.36236 0.57393 0.0
In325 In 0.40459 0.53853 0.31189 0.0
O326 O 0.403 0.52106 0.35187 0.0
O327 O 0.40776 0.53946 0.37555 0.0
C328 C 0.39454 0.52811 0.2482 0.0
C329 C 0.388 0.55797 0.32778 0.0
C330 C 0.43003 0.54085 0.29473 0.0
O331 O 0.39444 0.52222 0.27957 0.0
O332 O 0.39957 0.53929 0.2491 0.0
O333 O 0.42252 0.55053 0.29622 0.0
O334 O 0.4247 0.53007 0.3017 0.0
C335 C 0.40559 0.52756 0.38128 0.0
O336 O 0.39991 0.55993 0.32142 0.0
O337 O 0.38443 0.54627 0.32496 0.0
In338 In 0.20988 0.65622 0.06149 0.0
O339 O 0.19067 0.65481 0.09353 0.0
O340 O 0.19779 0.63783 0.06617 0.0
C341 C 0.20528 0.68056 0.03675 0.0
C342 C 0.22385 0.65625 0.12636 0.0
C343 C 0.22083 0.64564 -0.00066 0.0
O344 O 0.19619 0.67275 0.04465 0.0
O345 O 0.21658 0.67602 0.04106 0.0
O346 O 0.22716 0.64785 0.02926 0.0
O347 O 0.20896 0.64866 0.00092 0.0
C348 C 0.18916 0.64285 0.08693 0.0
O349 O 0.2211 0.64597 0.10869 0.0
O350 O 0.21994 0.66654 0.11072 0.0
In351 In 0.09229 0.45893 0.81179 0.0
O352 O 0.09415 0.47612 0.85249 0.0
O353 O 0.08784 0.458 0.87487 0.0
C354 C 0.10286 0.46962 0.74914 0.0
C355 C 0.10891 0.43964 0.82897 0.0
C356 C 0.06701 0.4567 0.79262 0.0
O357 O 0.10213 0.4756 0.78027 0.0
O358 O 0.09842 0.45818 0.74975 0.0
O359 O 0.0744 0.44696 0.79553 0.0
O360 O 0.07238 0.46747 0.79927 0.0
C361 C 0.09067 0.46973 0.88128 0.0
O362 O 0.09733 0.43747 0.81896 0.0
O363 O 0.11216 0.45147 0.82904 0.0
In364 In 0.28561 0.65515 0.57304 0.0
O365 O 0.27 0.64821 0.53162 0.0
O366 O 0.28044 0.66539 0.51793 0.0
C367 C 0.27669 0.64426 0.63742 0.0
C368 C 0.30476 0.64044 0.54365 0.0
C369 C 0.28918 0.67956 0.59841 0.0
O370 O 0.26926 0.64789 0.611 0.0
O371 O 0.28863 0.64597 0.63113 0.0
O372 O 0.29856 0.6719 0.59237 0.0
O373 O 0.27808 0.67484 0.59193 0.0
C374 C 0.27193 0.65725 0.50813 0.0
O375 O 0.30629 0.65236 0.55088 0.0
O376 O 0.29381 0.63591 0.55269 0.0
In377 In 0.09405 0.53697 0.32356 0.0
O378 O 0.0992 0.55835 0.31547 0.0
O379 O 0.11368 0.54414 0.30332 0.0
C380 C 0.06862 0.53904 0.34094 0.0
C381 C 0.09267 0.52518 0.25545 0.0
C382 C 0.10436 0.52788 0.3886 0.0
O383 O 0.07565 0.54887 0.33469 0.0
O384 O 0.07446 0.52829 0.33881 0.0
O385 O 0.10298 0.52085 0.35955 0.0
O386 O 0.10071 0.53951 0.38463 0.0
C387 C 0.11056 0.55602 0.30376 0.0
O388 O 0.09708 0.51946 0.2844 0.0
O389 O 0.08888 0.53668 0.26109 0.0
In390 In 0.20967 0.34072 0.06992 0.0
O391 O 0.19047 0.34163 0.03757 0.0
O392 O 0.19728 0.35887 0.0642 0.0
C393 C 0.20589 0.31623 0.09457 0.0
C394 C 0.22389 0.34119 0.00555 0.0
C395 C 0.22011 0.35139 0.13265 0.0
O396 O 0.19654 0.32385 0.08773 0.0
O397 O 0.21703 0.32102 0.08915 0.0
O398 O 0.22662 0.34934 0.10295 0.0
O399 O 0.2083 0.34818 0.13056 0.0
C400 C 0.18877 0.35361 0.04356 0.0
O401 O 0.22123 0.35132 0.02411 0.0
O402 O 0.21972 0.3308 0.01999 0.0
In403 In 0.40471 0.46038 0.8235 0.0
O404 O 0.39978 0.43924 0.81046 0.0
O405 O 0.38495 0.45348 0.80344 0.0
C406 C 0.42967 0.45745 0.84514 0.0
C407 C 0.40683 0.47225 0.75565 0.0
C408 C 0.39401 0.46993 0.88746 0.0
O409 O 0.42213 0.44789 0.84081 0.0
O410 O 0.4246 0.46839 0.8387 0.0
O411 O 0.39652 0.47697 0.85909 0.0
O412 O 0.3967 0.45804 0.88331 0.0
C413 C 0.38826 0.4417 0.8004 0.0
O414 O 0.4017 0.47776 0.78392 0.0
O415 O 0.41107 0.46094 0.76192 0.0
C416 C 0.11531 0.07925 0.8496 0.0
C417 C 0.11937 0.06623 0.84678 0.0
C418 C 0.12246 0.08815 0.87115 0.0
C419 C 0.14409 0.08872 0.95285 0.0
H420 H 0.15395 0.12326 0.91941 0.0
C421 C 0.18259 0.11887 0.0304 0.0
C422 C 0.18118 0.13243 0.03216 0.0
C423 C 0.1739 0.11137 0.00939 0.0
C424 C 0.15107 0.11373 0.92943 0.0
H425 H 0.13438 0.05245 0.8627 0.0
H426 H 0.1468 0.06796 0.90026 0.0
H427 H 0.14131 0.10922 0.87732 0.0
H428 H 0.16935 0.14879 0.01441 0.0
H429 H 0.15397 0.13563 0.97809 0.0
H430 H 0.15372 0.09314 0.00489 0.0
C431 C 0.13804 0.07125 0.88617 0.0
C432 C 0.14389 0.10569 0.90525 0.0
C433 C 0.13098 0.06241 0.86444 0.0
C434 C 0.17067 0.13834 0.0135 0.0
C435 C 0.16193 0.13082 0.99247 0.0
C436 C 0.15114 0.09677 0.97708 0.0
C437 C 0.13369 0.08411 0.89046 0.0
C438 C 0.14058 0.09302 0.91651 0.0
C439 C 0.16357 0.11727 0.98977 0.0
C440 C 0.15494 0.10927 0.9654 0.0
H441 H 0.10638 0.08245 0.83626 0.0
H442 H 0.11891 0.09803 0.87402 0.0
H443 H 0.14141 0.07909 0.96252 0.0
H444 H 0.19063 0.11404 0.04436 0.0
H445 H 0.17557 0.10099 0.00748 0.0
C446 C 0.12799 0.93463 0.26182 0.0
C447 C 0.11693 0.93094 0.28251 0.0
C448 C 0.13489 0.92545 0.24087 0.0
C449 C 0.14231 0.8911 0.22997 0.0
H450 H 0.14838 0.9004 0.1249 0.0
C451 C 0.16957 0.85673 0.12764 0.0
C452 C 0.17885 0.86274 0.1043 0.0
C453 C 0.16059 0.86424 0.14782 0.0
C454 C 0.14687 0.89768 0.15422 0.0
H455 H 0.10481 0.91466 0.29919 0.0
H456 H 0.11715 0.89847 0.263 0.0
H457 H 0.13616 0.91509 0.16568 0.0
H458 H 0.18584 0.88124 0.08294 0.0
H459 H 0.17046 0.89431 0.11854 0.0
H460 H 0.15345 0.87393 0.21902 0.0
C461 C 0.12034 0.90852 0.26282 0.0
C462 C 0.13985 0.90609 0.1775 0.0
C463 C 0.1133 0.91776 0.28346 0.0
C464 C 0.17875 0.87633 0.10058 0.0
C465 C 0.16987 0.88382 0.12087 0.0
C466 C 0.14949 0.88274 0.20676 0.0
C467 C 0.13097 0.91237 0.24057 0.0
C468 C 0.1377 0.90298 0.2157 0.0
C469 C 0.16078 0.8779 0.14513 0.0
C470 C 0.15205 0.88605 0.16877 0.0
H471 H 0.13102 0.94472 0.26055 0.0
H472 H 0.14318 0.92861 0.22434 0.0
H473 H 0.14077 0.88852 0.25939 0.0
H474 H 0.1694 0.84626 0.13094 0.0
H475 H 0.1536 0.85936 0.16581 0.0
C476 C 0.38089 0.9201 0.34594 0.0
C477 C 0.37641 0.93299 0.34337 0.0
C478 C 0.37419 0.91099 0.36795 0.0
C479 C 0.35309 0.90972 0.45092 0.0
H480 H 0.34463 0.87473 0.41822 0.0
C481 C 0.31612 0.87792 0.52925 0.0
C482 C 0.3179 0.86439 0.53017 0.0
C483 C 0.3246 0.88581 0.50878 0.0
C484 C 0.34714 0.88439 0.42806 0.0
H485 H 0.36111 0.94631 0.36022 0.0
H486 H 0.34944 0.93042 0.39856 0.0
H487 H 0.35634 0.88928 0.37542 0.0
H488 H 0.33031 0.84853 0.51195 0.0
H489 H 0.34535 0.86238 0.47666 0.0
H490 H 0.34399 0.90493 0.50349 0.0
C491 C 0.35819 0.9274 0.38393 0.0
C492 C 0.35378 0.89272 0.40345 0.0
C493 C 0.36481 0.93645 0.36174 0.0
C494 C 0.32869 0.85894 0.51165 0.0
C495 C 0.33722 0.86686 0.49119 0.0
C496 C 0.34657 0.90138 0.47559 0.0
C497 C 0.36298 0.91468 0.38798 0.0
C498 C 0.35658 0.90554 0.41443 0.0
C499 C 0.33511 0.88035 0.4889 0.0
C500 C 0.34329 0.8887 0.46421 0.0
H501 H 0.38981 0.91717 0.33208 0.0
H502 H 0.37807 0.90124 0.37062 0.0
H503 H 0.35539 0.91948 0.46038 0.0
H504 H 0.30786 0.88239 0.54316 0.0
H505 H 0.32257 0.89613 0.50726 0.0
C506 C 0.39078 0.08334 0.76697 0.0
C507 C 0.38408 0.07322 0.78523 0.0
C508 C 0.38396 0.09325 0.74864 0.0
C509 C 0.35233 0.10949 0.74151 0.0
H510 H 0.36139 0.11456 0.63577 0.0
C511 C 0.32532 0.14618 0.64684 0.0
C512 C 0.32027 0.14067 0.61351 0.0
C513 C 0.33464 0.13953 0.66806 0.0
C514 C 0.35883 0.11329 0.66531 0.0
H515 H 0.36504 0.06584 0.80038 0.0
H516 H 0.3531 0.08332 0.76883 0.0
H517 H 0.37457 0.10011 0.67525 0.0
H518 H 0.32148 0.12426 0.57509 0.0
H519 H 0.33795 0.1127 0.61196 0.0
H520 H 0.33642 0.12246 0.73138 0.0
C521 C 0.36363 0.08353 0.76858 0.0
C522 C 0.36639 0.10512 0.68793 0.0
C523 C 0.37045 0.07352 0.78649 0.0
C524 C 0.32521 0.12872 0.6007 0.0
C525 C 0.33465 0.12214 0.6217 0.0
C526 C 0.34486 0.1178 0.71903 0.0
C527 C 0.37033 0.09331 0.74873 0.0
C528 C 0.36307 0.10297 0.72604 0.0
C529 C 0.3392 0.12733 0.65605 0.0
C530 C 0.34791 0.11959 0.68057 0.0
H531 H 0.4013 0.08334 0.76553 0.0
H532 H 0.38934 0.10074 0.73379 0.0
H533 H 0.3496 0.10802 0.77085 0.0
H534 H 0.3217 0.15539 0.65738 0.0
H535 H 0.33809 0.14378 0.69428 0.0
C536 C 0.82587 0.85618 0.12576 0.0
C537 C 0.81556 0.86237 0.10682 0.0
C538 C 0.83427 0.86337 0.14884 0.0
C539 C 0.83412 0.89237 0.20748 0.0
H540 H 0.87172 0.89144 0.20157 0.0
C541 C 0.86593 0.93162 0.27536 0.0
C542 C 0.87829 0.92832 0.28915 0.0
C543 C 0.85829 0.92235 0.25713 0.0
C544 C 0.86123 0.89161 0.20416 0.0
H545 H 0.80631 0.88096 0.09573 0.0
H546 H 0.8209 0.89343 0.13619 0.0
H547 H 0.85882 0.87755 0.15973 0.0
H548 H 0.89211 0.91259 0.29637 0.0
H549 H 0.87857 0.89624 0.26522 0.0
H550 H 0.83639 0.9063 0.25188 0.0
C551 C 0.82243 0.88304 0.13337 0.0
C552 C 0.85388 0.88372 0.18004 0.0
C553 C 0.81415 0.87592 0.11003 0.0
C554 C 0.88262 0.91541 0.28589 0.0
C555 C 0.87492 0.90608 0.26778 0.0
C556 C 0.84144 0.90013 0.23185 0.0
C557 C 0.83237 0.8768 0.15363 0.0
C558 C 0.84027 0.88428 0.18093 0.0
C559 C 0.86277 0.90952 0.25251 0.0
C560 C 0.85508 0.90008 0.22987 0.0
H561 H 0.82717 0.84575 0.12377 0.0
H562 H 0.84189 0.85836 0.16417 0.0
H563 H 0.82361 0.89277 0.20919 0.0
H564 H 0.86236 0.94151 0.27732 0.0
H565 H 0.84908 0.92541 0.24526 0.0
C566 C 0.88405 0.07764 0.85643 0.0
C567 C 0.87929 0.06531 0.84626 0.0
C568 C 0.87625 0.0863 0.87681 0.0
C569 C 0.84222 0.09287 0.90513 0.0
H570 H 0.85804 0.10961 0.99218 0.0
C571 C 0.81121 0.11663 0.0207 0.0
C572 C 0.81495 0.12912 0.03248 0.0
C573 C 0.81955 0.10906 -0.00135 0.0
C574 C 0.85352 0.1051 0.96778 0.0
H575 H 0.86251 0.05258 0.84802 0.0
H576 H 0.84894 0.06762 0.88362 0.0
H577 H 0.87145 0.09664 0.94936 0.0
H578 H 0.83058 0.14327 0.03202 0.0
H579 H 0.84519 0.13002 0.99347 0.0
H580 H 0.82428 0.10119 0.92374 0.0
C581 C 0.85864 0.07067 0.87569 0.0
C582 C 0.8612 0.09772 0.94316 0.0
C583 C 0.86643 0.06202 0.8554 0.0
C584 C 0.82745 0.13366 0.02339 0.0
C585 C 0.83581 0.12607 0.00135 0.0
C586 C 0.83456 0.10021 0.92975 0.0
C587 C 0.86354 0.0828 0.88727 0.0
C588 C 0.8556 0.09142 0.91178 0.0
C589 C 0.83181 0.11384 0.98795 0.0
C590 C 0.84009 0.10628 0.96156 0.0
H591 H 0.89394 0.08043 0.84971 0.0
H592 H 0.88023 0.09565 0.88485 0.0
H593 H 0.83766 0.08831 0.88087 0.0
H594 H 0.80166 0.11285 0.0274 0.0
H595 H 0.81631 0.09956 0.98939 0.0
C596 C 0.68497 0.1163 0.61323 0.0
C597 C 0.68094 0.12863 0.60077 0.0
C598 C 0.67681 0.10871 0.63575 0.0
C599 C 0.64299 0.10415 0.66696 0.0
H600 H 0.6593 0.08835 0.75476 0.0
C601 C 0.61316 0.07644 0.77915 0.0
C602 C 0.61824 0.06428 0.78974 0.0
C603 C 0.62076 0.08525 0.75869 0.0
C604 C 0.65461 0.09263 0.73026 0.0
H605 H 0.66501 0.14244 0.60047 0.0
H606 H 0.65071 0.12912 0.63985 0.0
H607 H 0.67232 0.10131 0.71119 0.0
H608 H 0.6354 0.05204 0.78879 0.0
H609 H 0.64862 0.06734 0.75303 0.0
H610 H 0.6253 0.09532 0.6858 0.0
C611 C 0.66017 0.12533 0.63215 0.0
C612 C 0.66207 0.10002 0.70525 0.0
C613 C 0.66835 0.13296 0.60963 0.0
C614 C 0.63123 0.06134 0.78107 0.0
C615 C 0.63882 0.07014 0.76068 0.0
C616 C 0.63552 0.09672 0.69196 0.0
C617 C 0.66446 0.11329 0.64624 0.0
C618 C 0.65637 0.10573 0.67311 0.0
C619 C 0.63358 0.08207 0.74855 0.0
C620 C 0.64129 0.09077 0.72367 0.0
H621 H 0.6946 0.11269 0.6067 0.0
H622 H 0.68028 0.09935 0.64554 0.0
H623 H 0.63835 0.10838 0.64231 0.0
H624 H 0.60318 0.07897 0.78551 0.0
H625 H 0.61653 0.09445 0.75024 0.0
C626 C 0.61056 0.91389 0.34991 0.0
C627 C 0.61535 0.92649 0.3433 0.0
C628 C 0.61848 0.90446 0.36672 0.0
C629 C 0.65281 0.89708 0.39135 0.0
H630 H 0.63764 0.878 0.47526 0.0
C631 C 0.68384 0.87533 0.50974 0.0
C632 C 0.68126 0.86246 0.52066 0.0
C633 C 0.67536 0.88191 0.48563 0.0
C634 C 0.64195 0.88313 0.45158 0.0
H635 H 0.63227 0.93896 0.34759 0.0
H636 H 0.646 0.92265 0.37716 0.0
H637 H 0.62375 0.89141 0.43492 0.0
H638 H 0.6676 0.84648 0.51597 0.0
H639 H 0.65259 0.85812 0.47408 0.0
H640 H 0.67107 0.88917 0.40891 0.0
C641 C 0.63621 0.91994 0.36906 0.0
C642 C 0.63402 0.89076 0.42838 0.0
C643 C 0.62832 0.92933 0.35231 0.0
C644 C 0.66981 0.85641 0.50801 0.0
C645 C 0.66123 0.86305 0.48409 0.0
C646 C 0.66073 0.88954 0.41467 0.0
C647 C 0.63133 0.90747 0.37711 0.0
C648 C 0.63941 0.89805 0.39853 0.0
C649 C 0.66407 0.87578 0.47216 0.0
C650 C 0.65543 0.88273 0.4455 0.0
H651 H 0.60059 0.91143 0.34315 0.0
H652 H 0.6145 0.89489 0.37214 0.0
H653 H 0.65722 0.90236 0.36812 0.0
H654 H 0.69258 0.88025 0.51905 0.0
H655 H 0.67765 0.8918 0.4774 0.0
C656 C 0.67093 0.642 0.50214 0.0
C657 C 0.68065 0.63585 0.52362 0.0
C658 C 0.66271 0.63466 0.47887 0.0
C659 C 0.66287 0.60466 0.42476 0.0
H660 H 0.62526 0.60656 0.426 0.0
C661 C 0.6311 0.56485 0.35961 0.0
C662 C 0.619 0.56813 0.34397 0.0
C663 C 0.6387 0.57431 0.37719 0.0
C664 C 0.63576 0.6061 0.42469 0.0
H665 H 0.68907 0.61722 0.5389 0.0
H666 H 0.67483 0.60448 0.49808 0.0
H667 H 0.63791 0.62092 0.46707 0.0
H668 H 0.60562 0.58396 0.33274 0.0
H669 H 0.61909 0.60062 0.36269 0.0
H670 H 0.66087 0.58996 0.3824 0.0
C671 C 0.67361 0.61495 0.4991 0.0
C672 C 0.64297 0.61427 0.44837 0.0
C673 C 0.68168 0.62223 0.52264 0.0
C674 C 0.6149 0.58116 0.34472 0.0
C675 C 0.62256 0.59067 0.36213 0.0
C676 C 0.6557 0.59663 0.40079 0.0
C677 C 0.66425 0.62112 0.47642 0.0
C678 C 0.65656 0.61337 0.44924 0.0
C679 C 0.63444 0.5873 0.37924 0.0
C680 C 0.64205 0.597 0.40115 0.0
H681 H 0.66994 0.65249 0.50237 0.0
H682 H 0.65554 0.63961 0.46165 0.0
H683 H 0.67338 0.60399 0.42443 0.0
H684 H 0.63449 0.55488 0.35961 0.0
H685 H 0.64769 0.5713 0.39054 0.0
C686 C 0.61282 0.41911 0.7863 0.0
C687 C 0.61599 0.43236 0.78302 0.0
C688 C 0.61948 0.4098 0.76491 0.0
C689 C 0.63679 0.4065 0.67569 0.0
H690 H 0.65294 0.37589 0.71929 0.0
C691 C 0.67568 0.37733 0.59676 0.0
C692 C 0.6768 0.3639 0.60314 0.0
C693 C 0.66664 0.38469 0.6169 0.0
C694 C 0.64825 0.38423 0.70648 0.0
H695 H 0.62882 0.44624 0.75571 0.0
H696 H 0.64032 0.43 0.71815 0.0
H697 H 0.64054 0.39063 0.75981 0.0
H698 H 0.66891 0.3475 0.63415 0.0
H699 H 0.65283 0.36033 0.66877 0.0
H700 H 0.64435 0.40018 0.62241 0.0
C701 C 0.63268 0.42683 0.73716 0.0
C702 C 0.64122 0.39269 0.72977 0.0
C703 C 0.62617 0.4361 0.75887 0.0
C704 C 0.66829 0.35786 0.6288 0.0
C705 C 0.65916 0.36523 0.64882 0.0
C706 C 0.64365 0.39798 0.65235 0.0
C707 C 0.62926 0.41364 0.73953 0.0
C708 C 0.63571 0.40405 0.71468 0.0
C709 C 0.65842 0.37878 0.64367 0.0
C710 C 0.64975 0.38691 0.6676 0.0
H711 H 0.605 0.41598 0.80471 0.0
H712 H 0.61669 0.39966 0.7672 0.0
H713 H 0.6324 0.41509 0.66331 0.0
H714 H 0.68214 0.38227 0.57725 0.0
H715 H 0.66651 0.39512 0.61256 0.0
C716 C 0.8673 0.43644 0.86432 0.0
C717 C 0.87917 0.43275 0.84791 0.0
C718 C 0.86029 0.42764 0.88637 0.0
C719 C 0.85555 0.39316 0.90844 0.0
H720 H 0.84406 0.40642 0.00577 0.0
C721 C 0.82906 0.36036 0.01616 0.0
C722 C 0.81793 0.36588 0.03266 0.0
C723 C 0.83785 0.36816 0.99624 0.0
C724 C 0.84712 0.40259 0.97861 0.0
H725 H 0.89269 0.41679 0.83993 0.0
H726 H 0.88029 0.40132 0.87823 0.0
H727 H 0.85609 0.42056 0.96292 0.0
H728 H 0.80752 0.3839 0.0427 0.0
H729 H 0.82267 0.39743 0.00767 0.0
H730 H 0.84627 0.37529 0.92365 0.0
C731 C 0.87648 0.41104 0.87413 0.0
C732 C 0.85399 0.41069 0.95408 0.0
C733 C 0.88356 0.41989 0.85225 0.0
C734 C 0.81604 0.37938 0.03036 0.0
C735 C 0.82477 0.38715 0.0104 0.0
C736 C 0.84856 0.38507 0.93289 0.0
C737 C 0.86497 0.41496 0.89223 0.0
C738 C 0.85811 0.40611 0.91856 0.0
C739 C 0.83564 0.3816 0.99243 0.0
C740 C 0.84411 0.38975 0.96804 0.0
H741 H 0.86366 0.44628 0.86139 0.0
H742 H 0.85132 0.43084 0.89948 0.0
H743 H 0.8586 0.38942 0.88116 0.0
H744 H 0.83077 0.34998 0.01757 0.0
H745 H 0.84624 0.36363 0.98324 0.0
C746 C 0.8119 0.62194 0.12028 0.0
C747 C 0.81482 0.63474 0.10933 0.0
C748 C 0.82028 0.6151 0.14406 0.0
C749 C 0.8537 0.61307 0.17825 0.0
H750 H 0.83788 0.59432 0.26177 0.0
C751 C 0.88427 0.58252 0.28257 0.0
C752 C 0.87938 0.56998 0.28951 0.0
C753 C 0.87652 0.59189 0.26487 0.0
C754 C 0.84244 0.59946 0.23851 0.0
H755 H 0.82899 0.65028 0.1135 0.0
H756 H 0.84379 0.63818 0.15492 0.0
H757 H 0.82438 0.60765 0.22039 0.0
H758 H 0.86243 0.55757 0.28486 0.0
H759 H 0.84897 0.57381 0.2538 0.0
H760 H 0.87172 0.60455 0.19565 0.0
C761 C 0.83497 0.63351 0.14513 0.0
C762 C 0.83471 0.60708 0.21484 0.0
C763 C 0.82652 0.64041 0.12148 0.0
C764 C 0.86645 0.56715 0.27991 0.0
C765 C 0.85872 0.5765 0.26229 0.0
C766 C 0.86144 0.60537 0.20185 0.0
C767 C 0.83178 0.62088 0.15724 0.0
C768 C 0.84022 0.61373 0.18402 0.0
C769 C 0.86373 0.58889 0.25393 0.0
C770 C 0.85584 0.59827 0.23177 0.0
H771 H 0.80297 0.61729 0.1113 0.0
H772 H 0.8177 0.60529 0.15238 0.0
H773 H 0.85818 0.61807 0.1546 0.0
H774 H 0.89421 0.58497 0.28975 0.0
H775 H 0.8806 0.60141 0.25923 0.0
C776 C 0.31398 0.3794 0.60595 0.0
C777 C 0.31623 0.36604 0.60086 0.0
C778 C 0.32284 0.38702 0.6259 0.0
C779 C 0.34827 0.38458 0.69856 0.0
H780 H 0.35479 0.4204 0.66976 0.0
C781 C 0.38422 0.41913 0.77653 0.0
C782 C 0.37983 0.43193 0.78223 0.0
C783 C 0.3769 0.4104 0.75491 0.0
C784 C 0.35298 0.41044 0.67828 0.0
H785 H 0.32971 0.35025 0.61151 0.0
H786 H 0.34536 0.36367 0.64608 0.0
H787 H 0.342 0.40648 0.62822 0.0
H788 H 0.36409 0.44546 0.7713 0.0
H789 H 0.35132 0.43023 0.73377 0.0
H790 H 0.3593 0.38863 0.74873 0.0
C791 C 0.33663 0.36818 0.63507 0.0
C792 C 0.34567 0.40246 0.65449 0.0
C793 C 0.32773 0.36053 0.61506 0.0
C794 C 0.36775 0.43568 0.76728 0.0
C795 C 0.36049 0.427 0.74555 0.0
C796 C 0.35567 0.39256 0.72231 0.0
C797 C 0.33418 0.38148 0.64115 0.0
C798 C 0.34303 0.38952 0.66466 0.0
C799 C 0.36513 0.41437 0.73845 0.0
C800 C 0.35788 0.40563 0.71268 0.0
H801 H 0.30518 0.38391 0.59543 0.0
H802 H 0.32055 0.39719 0.6305 0.0
H803 H 0.34628 0.37469 0.70741 0.0
H804 H 0.39351 0.41599 0.78772 0.0
H805 H 0.3807 0.40073 0.74982 0.0
C806 C 0.3262 0.63821 0.51071 0.0
C807 C 0.31439 0.63267 0.52257 0.0
C808 C 0.33461 0.63123 0.48714 0.0
C809 C 0.33422 0.6048 0.41727 0.0
H810 H 0.37124 0.60237 0.43629 0.0
C811 C 0.36632 0.5653 0.35087 0.0
C812 C 0.37924 0.56828 0.34162 0.0
C813 C 0.35846 0.57451 0.36865 0.0
C814 C 0.36096 0.60316 0.43014 0.0
H815 H 0.30233 0.61539 0.52019 0.0
H816 H 0.31702 0.60323 0.47932 0.0
H817 H 0.35769 0.61575 0.4776 0.0
H818 H 0.39391 0.58342 0.34197 0.0
H819 H 0.38009 0.59962 0.37267 0.0
H820 H 0.33742 0.59215 0.37009 0.0
C821 C 0.31969 0.613 0.48777 0.0
C822 C 0.35321 0.61078 0.45389 0.0
C823 C 0.31134 0.61992 0.51144 0.0
C824 C 0.38398 0.58085 0.34891 0.0
C825 C 0.37611 0.59008 0.36672 0.0
C826 C 0.34197 0.59725 0.39344 0.0
C827 C 0.3313 0.61865 0.47486 0.0
C828 C 0.33973 0.61144 0.44814 0.0
C829 C 0.36334 0.58692 0.3775 0.0
C830 C 0.35538 0.59613 0.40006 0.0
H831 H 0.32877 0.64804 0.51881 0.0
H832 H 0.3435 0.63581 0.47756 0.0
H833 H 0.32389 0.60537 0.41172 0.0
H834 H 0.3624 0.55568 0.34565 0.0
H835 H 0.34872 0.5717 0.37695 0.0
C836 C 0.13067 0.56269 0.2697 0.0
C837 C 0.11909 0.5662 0.28802 0.0
C838 C 0.13805 0.57202 0.25083 0.0
C839 C 0.13506 0.60433 0.20602 0.0
H840 H 0.17255 0.60124 0.1998 0.0
C841 C 0.16987 0.6408 0.1297 0.0
C842 C 0.17921 0.63494 0.1062 0.0
C843 C 0.16174 0.63314 0.15232 0.0
C844 C 0.16207 0.60217 0.20122 0.0
H845 H 0.1064 0.5823 0.30243 0.0
H846 H 0.11954 0.59874 0.27028 0.0
H847 H 0.16049 0.58699 0.24221 0.0
H848 H 0.18699 0.61651 0.08654 0.0
H849 H 0.1729 0.6032 0.12629 0.0
H850 H 0.13681 0.6197 0.16517 0.0
C851 C 0.12275 0.58871 0.26973 0.0
C852 C 0.15515 0.59401 0.22542 0.0
C853 C 0.11529 0.57932 0.28841 0.0
C854 C 0.1799 0.62131 0.10442 0.0
C855 C 0.17191 0.61369 0.12732 0.0
C856 C 0.14203 0.61263 0.18212 0.0
C857 C 0.13411 0.58512 0.25016 0.0
C858 C 0.14153 0.59478 0.22752 0.0
C859 C 0.16299 0.61954 0.15209 0.0
C860 C 0.15556 0.61142 0.17896 0.0
H861 H 0.1338 0.55263 0.26873 0.0
H862 H 0.14662 0.56884 0.23558 0.0
H863 H 0.12457 0.6051 0.20659 0.0
H864 H 0.16914 0.65129 0.13159 0.0
H865 H 0.15491 0.63786 0.17122 0.0
C866 C 0.12947 0.43269 0.86012 0.0
C867 C 0.11755 0.42934 0.84345 0.0
C868 C 0.137 0.42327 0.87812 0.0
C869 C 0.13406 0.39118 0.92422 0.0
H870 H 0.17163 0.39386 0.927 0.0
C871 C 0.16941 0.35515 0.0008 0.0
C872 C 0.17875 0.36128 0.02374 0.0
C873 C 0.16119 0.36257 0.97777 0.0
C874 C 0.16114 0.39303 0.92648 0.0
H875 H 0.10442 0.41342 0.83095 0.0
H876 H 0.11779 0.39682 0.86157 0.0
H877 H 0.15929 0.40796 0.88479 0.0
H878 H 0.18645 0.37992 0.04188 0.0
H879 H 0.17221 0.39279 0.00138 0.0
H880 H 0.13608 0.37608 0.96583 0.0
C881 C 0.12116 0.40679 0.86151 0.0
C882 C 0.15406 0.40111 0.90242 0.0
C883 C 0.11356 0.41627 0.84371 0.0
C884 C 0.17935 0.37492 0.02448 0.0
C885 C 0.17128 0.38229 0.00114 0.0
C886 C 0.14119 0.38295 0.94795 0.0
C887 C 0.13286 0.41023 0.87956 0.0
C888 C 0.14041 0.40053 0.90167 0.0
C889 C 0.16234 0.37617 0.97701 0.0
C890 C 0.15475 0.38404 0.9499 0.0
H891 H 0.13276 0.4427 0.86055 0.0
H892 H 0.14582 0.42634 0.89222 0.0
H893 H 0.12356 0.39055 0.92469 0.0
H894 H 0.16875 0.34464 -0.00029 0.0
H895 H 0.15433 0.35766 0.95938 0.0
C896 C 0.23181 0.16619 0.95351 0.0
C897 C 0.23185 0.155 0.97635 0.0
C898 C 0.23698 0.16581 0.91697 0.0
C899 C 0.24332 0.14331 0.83887 0.0
H900 H 0.26413 0.17167 0.79937 0.0
C901 C 0.26658 0.14252 0.68924 0.0
C902 C 0.26695 0.15433 0.66926 0.0
C903 C 0.26228 0.14218 0.72681 0.0
C904 C 0.25819 0.16374 0.8098 0.0
H905 H 0.23756 0.13472 0.97928 0.0
H906 H 0.24659 0.13406 0.91514 0.0
H907 H 0.25744 0.17188 0.86558 0.0
H908 H 0.2626 0.17494 0.67227 0.0
H909 H 0.25479 0.17431 0.73739 0.0
H910 H 0.24387 0.13527 0.78293 0.0
C911 C 0.2425 0.14309 0.92554 0.0
C912 C 0.25442 0.16385 0.84778 0.0
C913 C 0.23743 0.1435 0.96229 0.0
C914 C 0.26248 0.1657 0.68703 0.0
C915 C 0.25813 0.16536 0.72447 0.0
C916 C 0.24704 0.14323 0.80077 0.0
C917 C 0.2422 0.15421 0.90238 0.0
C918 C 0.24686 0.15369 0.86265 0.0
C919 C 0.25821 0.15365 0.74507 0.0
C920 C 0.25442 0.15352 0.78571 0.0
H921 H 0.22756 0.17518 0.96359 0.0
H922 H 0.2365 0.1745 0.89968 0.0
H923 H 0.23735 0.13542 0.84945 0.0
H924 H 0.27003 0.13361 0.67629 0.0
H925 H 0.26255 0.13301 0.74191 0.0
C926 C 0.08793 0.96827 0.18025 0.0
C927 C 0.08914 0.97648 0.21188 0.0
C928 C 0.088 0.97342 0.14365 0.0
C929 C 0.08128 0.0028 0.08941 0.0
H930 H 0.10492 0.98824 0.01504 0.0
C931 C 0.08973 0.02761 0.9455 0.0
C932 C 0.09192 0.01979 0.91354 0.0
C933 C 0.08921 0.02212 0.98161 0.0
C934 C 0.0981 0.99229 0.03519 0.0
H935 H 0.09113 0.99651 0.23017 0.0
H936 H 0.09097 0.00556 0.16598 0.0
H937 H 0.10407 0.97902 0.07866 0.0
H938 H 0.09514 6e-05 0.89408 0.0
H939 H 0.09375 0.99033 0.95708 0.0
H940 H 0.07501 0.01585 0.04603 0.0
C941 C 0.09005 0.99514 0.16964 0.0
C942 C 0.09767 0.98704 0.07168 0.0
C943 C 0.09018 0.98997 0.20628 0.0
C944 C 0.0935 0.00632 0.91831 0.0
C945 C 0.09279 0.00078 0.95445 0.0
C946 C 0.08156 0.00793 0.05278 0.0
C947 C 0.08908 0.98689 0.13801 0.0
C948 C 0.08933 0.99231 0.09917 0.0
C949 C 0.09066 0.00862 0.98661 0.0
C950 C 0.09005 0.00283 0.02525 0.0
H951 H 0.08715 0.95783 0.18374 0.0
H952 H 0.08714 0.96687 0.11972 0.0
H953 H 0.07465 0.00692 0.11 0.0
H954 H 0.08861 0.03805 0.94271 0.0
H955 H 0.08785 0.02852 0.00565 0.0
C956 C 0.23326 0.85471 0.17812 0.0
C957 C 0.23176 0.84289 0.15863 0.0
C958 C 0.23859 0.8549 0.21454 0.0
C959 C 0.25881 0.83646 0.28106 0.0
H960 H 0.23894 0.85419 0.35888 0.0
C961 C 0.2706 0.82985 0.43916 0.0
C962 C 0.2696 0.84078 0.46283 0.0
C963 C 0.266 0.83032 0.40198 0.0
C964 C 0.24473 0.84936 0.33747 0.0
H965 H 0.23508 0.82208 0.16118 0.0
H966 H 0.24462 0.82244 0.22457 0.0
H967 H 0.2317 0.85506 0.29315 0.0
H968 H 0.26292 0.86074 0.46641 0.0
H969 H 0.25517 0.8617 0.40121 0.0
H970 H 0.27196 0.8309 0.32501 0.0
C971 C 0.24162 0.83154 0.21177 0.0
C972 C 0.24056 0.84985 0.29983 0.0
C973 C 0.23613 0.83133 0.17558 0.0
C974 C 0.26374 0.85213 0.44884 0.0
C975 C 0.25925 0.85266 0.41149 0.0
C976 C 0.26308 0.83609 0.31861 0.0
C977 C 0.24267 0.84329 0.23185 0.0
C978 C 0.2475 0.84332 0.27135 0.0
C979 C 0.26043 0.84179 0.38748 0.0
C980 C 0.25602 0.84243 0.34737 0.0
H981 H 0.22994 0.86377 0.16574 0.0
H982 H 0.23941 0.8641 0.22932 0.0
H983 H 0.26441 0.83145 0.25954 0.0
H984 H 0.27503 0.82094 0.44929 0.0
H985 H 0.26681 0.82167 0.38462 0.0
C986 C 0.40369 0.03119 0.67741 0.0
C987 C 0.40335 0.02316 0.70961 0.0
C988 C 0.40315 0.0258 0.64114 0.0
C989 C 0.41073 0.99645 0.58817 0.0
H990 H 0.38659 0.00994 0.51348 0.0
C991 C 0.40433 0.9718 0.44296 0.0
C992 C 0.40193 0.97968 0.41124 0.0
C993 C 0.40429 0.9771 0.47935 0.0
C994 C 0.39354 0.00618 0.53374 0.0
H995 H 0.40223 0.00322 0.72925 0.0
H996 H 0.40156 0.99374 0.66556 0.0
H997 H 0.38691 0.01918 0.57714 0.0
H998 H 0.39774 -0.0007 0.39253 0.0
H999 H 0.39817 0.00873 0.45602 0.0
H1000 H 0.4177 0.98375 0.54482 0.0
C1001 C 0.40216 0.00421 0.66854 0.0
C1002 C 0.39365 0.01143 0.57027 0.0
C1003 C 0.4025 0.00962 0.70489 0.0
C1004 C 0.39957 0.993 0.41654 0.0
C1005 C 0.39972 0.99836 0.45298 0.0
C1006 C 0.41076 0.99132 0.55152 0.0
C1007 C 0.40246 0.01226 0.63636 0.0
C1008 C 0.40222 0.00658 0.59782 0.0
C1009 C 0.40205 0.99046 0.4849 0.0
C1010 C 0.40213 0.99608 0.52382 0.0
H1011 H 0.40431 0.04167 0.68021 0.0
H1012 H 0.40349 0.03221 0.61679 0.0
H1013 H 0.41755 0.99267 0.60878 0.0
H1014 H 0.40605 0.96146 0.43974 0.0
H1015 H 0.40584 0.97064 0.50316 0.0
C1016 C 0.76387 0.85205 0.1866 0.0
C1017 C 0.76633 0.84032 0.16757 0.0
C1018 C 0.75976 0.85198 0.22431 0.0
C1019 C 0.75894 0.83068 0.30933 0.0
H1020 H 0.73492 0.85678 0.34659 0.0
C1021 C 0.73255 0.82807 0.45404 0.0
C1022 C 0.7321 0.83959 0.4754 0.0
C1023 C 0.73771 0.82812 0.41745 0.0
C1024 C 0.74174 0.84952 0.33662 0.0
H1025 H 0.76601 0.81931 0.17244 0.0
H1026 H 0.75833 0.81913 0.23777 0.0
H1027 H 0.74108 0.85677 0.27993 0.0
H1028 H 0.73701 0.86011 0.47581 0.0
H1029 H 0.74589 0.86021 0.41151 0.0
H1030 H 0.75921 0.82321 0.36606 0.0
C1031 C 0.75996 0.82842 0.22409 0.0
C1032 C 0.7453 0.84951 0.29844 0.0
C1033 C 0.76423 0.8285 0.18652 0.0
C1034 C 0.73727 0.85108 0.45999 0.0
C1035 C 0.74226 0.85117 0.42318 0.0
C1036 C 0.75524 0.83058 0.34742 0.0
C1037 C 0.75786 0.84016 0.24367 0.0
C1038 C 0.75396 0.8401 0.28428 0.0
C1039 C 0.74235 0.83973 0.4014 0.0
C1040 C 0.74663 0.84002 0.36139 0.0
H1041 H 0.76552 0.86131 0.17275 0.0
H1042 H 0.75843 0.86122 0.23855 0.0
H1043 H 0.76584 0.82344 0.29969 0.0
H1044 H 0.72863 0.81908 0.46527 0.0
H1045 H 0.73762 0.81919 0.40116 0.0
C1046 C 0.90348 0.00456 0.91774 0.0
C1047 C 0.9052 0.01805 0.91407 0.0
C1048 C 0.90335 0.99878 0.95364 0.0
C1049 C 0.89651 0.00577 0.053 0.0
H1050 H 0.91888 0.97639 0.07523 0.0
C1051 C 0.90369 0.98739 0.20566 0.0
C1052 C 0.90505 0.97396 0.21136 0.0
C1053 C 0.90365 0.99254 0.16901 0.0
C1054 C 0.91241 0.98445 0.06941 0.0
H1055 H 0.90803 0.03611 0.94482 0.0
H1056 H 0.90757 0.02604 0.0074 0.0
H1057 H 0.91854 0.98552 0.01142 0.0
H1058 H 0.90732 0.95532 0.18338 0.0
H1059 H 0.90684 0.9642 0.11945 0.0
H1060 H 0.89013 0.00462 0.11048 0.0
C1061 C 0.90638 0.01994 0.98261 0.0
C1062 C 0.91226 0.98969 0.03287 0.0
C1063 C 0.90672 0.02567 0.94681 0.0
C1064 C 0.90636 0.96574 0.1798 0.0
C1065 C 0.90615 0.97085 0.14315 0.0
C1066 C 0.89652 0.00043 0.08937 0.0
C1067 C 0.90471 0.00645 0.98637 0.0
C1068 C 0.90441 0.00047 0.02448 0.0
C1069 C 0.9048 0.98432 0.13725 0.0
C1070 C 0.90456 0.98978 0.09819 0.0
H1071 H 0.9023 0.99847 0.89293 0.0
H1072 H 0.90199 0.98836 0.95587 0.0
H1073 H 0.89025 0.014 0.04706 0.0
H1074 H 0.90273 0.99395 0.22952 0.0
H1075 H 0.90285 0.00298 0.16567 0.0
C1076 C 0.75665 0.15669 0.95837 0.0
C1077 C 0.77011 0.1578 0.96382 0.0
C1078 C 0.75142 0.15704 0.92182 0.0
C1079 C 0.75941 0.15027 0.82322 0.0
H1080 H 0.73048 0.17301 0.79956 0.0
C1081 C 0.73996 0.15567 0.67044 0.0
C1082 C 0.72649 0.15709 0.66597 0.0
C1083 C 0.74555 0.15617 0.70655 0.0
C1084 C 0.73843 0.16645 0.80575 0.0
H1085 H 0.78869 0.16009 0.93552 0.0
H1086 H 0.77954 0.16048 0.87167 0.0
H1087 H 0.73946 0.17285 0.86347 0.0
H1088 H 0.70826 0.15995 0.69558 0.0
H1089 H 0.71786 0.16035 0.75842 0.0
H1090 H 0.7582 0.14353 0.76604 0.0
C1091 C 0.77305 0.1594 0.89564 0.0
C1092 C 0.74359 0.16642 0.84234 0.0
C1093 C 0.77826 0.15925 0.93215 0.0
C1094 C 0.7187 0.15895 0.69816 0.0
C1095 C 0.72424 0.15927 0.73421 0.0
C1096 C 0.75414 0.15015 0.78675 0.0
C1097 C 0.75959 0.15829 0.89014 0.0
C1098 C 0.75412 0.15833 0.85138 0.0
C1099 C 0.73774 0.15793 0.73893 0.0
C1100 C 0.74356 0.15824 0.77753 0.0
H1101 H 0.75016 0.15555 0.98231 0.0
H1102 H 0.741 0.15609 0.91826 0.0
H1103 H 0.76746 0.14384 0.82963 0.0
H1104 H 0.7462 0.15428 0.64604 0.0
H1105 H 0.756 0.15531 0.70899 0.0
C1106 C 0.59286 0.004 0.71389 0.0
C1107 C 0.59215 0.01756 0.71844 0.0
C1108 C 0.59263 0.99851 0.67765 0.0
C1109 C 0.60006 0.00556 0.57871 0.0
H1110 H 0.57593 0.9777 0.55572 0.0
C1111 C 0.59271 0.98693 0.42599 0.0
C1112 C 0.59049 0.97357 0.42096 0.0
C1113 C 0.59286 0.99231 0.46237 0.0
C1114 C 0.58288 0.98533 0.56174 0.0
H1115 H 0.59076 0.036 0.68888 0.0
H1116 H 0.59058 0.0264 0.6256 0.0
H1117 H 0.57661 0.98679 0.6195 0.0
H1118 H 0.58688 0.95531 0.44984 0.0
H1119 H 0.5876 0.96456 0.51323 0.0
H1120 H 0.6066 0.00396 0.52145 0.0
C1121 C 0.59126 0.02004 0.65001 0.0
C1122 C 0.58321 0.99055 0.59826 0.0
C1123 C 0.59129 0.02552 0.68619 0.0
C1124 C 0.58851 0.96567 0.45289 0.0
C1125 C 0.58884 0.97101 0.48924 0.0
C1126 C 0.59986 0.00022 0.54233 0.0
C1127 C 0.5919 0.0065 0.64541 0.0
C1128 C 0.59176 0.00075 0.607 0.0
C1129 C 0.59096 0.9844 0.49449 0.0
C1130 C 0.59123 0.99007 0.5333 0.0
H1131 H 0.59353 0.99765 0.7383 0.0
H1132 H 0.5932 0.98803 0.67478 0.0
H1133 H 0.60683 0.01334 0.5849 0.0
H1134 H 0.5942 0.99324 0.40181 0.0
H1135 H 0.5943 0.0027 0.46522 0.0
C1136 C 0.73274 0.64599 0.44713 0.0
C1137 C 0.7311 0.65761 0.4675 0.0
C1138 C 0.73721 0.64626 0.40978 0.0
C1139 C 0.75533 0.66567 0.3411 0.0
H1140 H 0.73499 0.64719 0.26585 0.0
C1141 C 0.76653 0.67075 0.18221 0.0
C1142 C 0.7657 0.65946 0.15996 0.0
C1143 C 0.76172 0.67083 0.2192 0.0
C1144 C 0.74089 0.65227 0.2865 0.0
H1145 H 0.73328 0.67858 0.46542 0.0
H1146 H 0.74139 0.67902 0.40029 0.0
H1147 H 0.7286 0.64633 0.33234 0.0
H1148 H 0.75896 0.6395 0.15849 0.0
H1149 H 0.7509 0.63948 0.22338 0.0
H1150 H 0.76785 0.67135 0.29575 0.0
C1151 C 0.73912 0.66973 0.41318 0.0
C1152 C 0.7372 0.65178 0.32456 0.0
C1153 C 0.73446 0.66947 0.45035 0.0
C1154 C 0.75965 0.64837 0.17496 0.0
C1155 C 0.75499 0.64839 0.21215 0.0
C1156 C 0.75913 0.66602 0.30313 0.0
C1157 C 0.74031 0.65814 0.39235 0.0
C1158 C 0.74438 0.6585 0.35217 0.0
C1159 C 0.75613 0.65957 0.23494 0.0
C1160 C 0.75194 0.65935 0.27529 0.0
H1161 H 0.73018 0.63671 0.45963 0.0
H1162 H 0.73817 0.63719 0.39441 0.0
H1163 H 0.76109 0.67084 0.36194 0.0
H1164 H 0.77108 0.67947 0.17123 0.0
H1165 H 0.76249 0.67971 0.23555 0.0
C1166 C 0.591 0.50861 0.42716 0.0
C1167 C 0.59136 0.52213 0.42184 0.0
C1168 C 0.5904 0.50337 0.46369 0.0
C1169 C 0.58302 0.5124 0.56381 0.0
H1170 H 0.60114 0.48018 0.58563 0.0
C1171 C 0.59189 0.49237 0.71547 0.0
C1172 C 0.58878 0.47919 0.72078 0.0
C1173 C 0.59178 0.49779 0.67912 0.0
C1174 C 0.59598 0.48915 0.57983 0.0
H1175 H 0.59158 0.5408 0.45039 0.0
H1176 H 0.59104 0.53173 0.51401 0.0
H1177 H 0.60202 0.48928 0.52193 0.0
H1178 H 0.58309 0.46135 0.69241 0.0
H1179 H 0.58314 0.47079 0.62892 0.0
H1180 H 0.57735 0.51238 0.62227 0.0
C1181 C 0.5908 0.52511 0.49016 0.0
C1182 C 0.59641 0.49435 0.54328 0.0
C1183 C 0.5912 0.53032 0.45366 0.0
C1184 C 0.5855 0.47155 0.68918 0.0
C1185 C 0.58559 0.47691 0.65285 0.0
C1186 C 0.58276 0.5073 0.6005 0.0
C1187 C 0.59035 0.51156 0.49571 0.0
C1188 C 0.58989 0.50602 0.53471 0.0
C1189 C 0.58879 0.49006 0.64746 0.0
C1190 C 0.58919 0.4956 0.60877 0.0
H1191 H 0.59104 0.50207 0.40308 0.0
H1192 H 0.58983 0.49291 0.46674 0.0
H1193 H 0.57768 0.52127 0.55821 0.0
H1194 H 0.59446 0.49847 0.73936 0.0
H1195 H 0.59434 0.50794 0.67563 0.0
C1196 C 0.73767 0.33685 0.67347 0.0
C1197 C 0.73148 0.34782 0.65807 0.0
C1198 C 0.74344 0.33747 0.70919 0.0
C1199 C 0.74055 0.35438 0.7992 0.0
H1200 H 0.77403 0.33878 0.82094 0.0
C1201 C 0.76337 0.35533 0.94901 0.0
C1202 C 0.77013 0.34415 0.96062 0.0
C1203 C 0.75903 0.35653 0.91165 0.0
C1204 C 0.76459 0.34304 0.81544 0.0
H1205 H 0.72674 0.36812 0.6674 0.0
H1206 H 0.73674 0.36916 0.73027 0.0
H1207 H 0.76629 0.33979 0.7557 0.0
H1208 H 0.77736 0.32532 0.94269 0.0
H1209 H 0.76945 0.32721 0.87791 0.0
H1210 H 0.73861 0.35728 0.85893 0.0
C1211 C 0.73711 0.36011 0.71459 0.0
C1212 C 0.76021 0.34368 0.77805 0.0
C1213 C 0.73147 0.35953 0.67859 0.0
C1214 C 0.77222 0.33408 0.93447 0.0
C1215 C 0.7678 0.33523 0.89724 0.0
C1216 C 0.74487 0.35364 0.83666 0.0
C1217 C 0.74301 0.34903 0.73039 0.0
C1218 C 0.7481 0.34925 0.76961 0.0
C1219 C 0.76128 0.34653 0.88523 0.0
C1220 C 0.75688 0.34783 0.84528 0.0
H1221 H 0.73781 0.3277 0.65824 0.0
H1222 H 0.74783 0.32876 0.72081 0.0
H1223 H 0.73109 0.35858 0.79351 0.0
H1224 H 0.7617 0.36328 0.96855 0.0
H1225 H 0.75416 0.36542 0.9033 0.0
C1226 C 0.90296 0.50903 0.20981 0.0
C1227 C 0.90462 0.5225 0.21437 0.0
C1228 C 0.90317 0.50348 0.17362 0.0
C1229 C 0.89742 0.51094 0.07393 0.0
H1230 H 0.91996 0.48156 0.05318 0.0
C1231 C 0.90522 0.49206 0.92182 0.0
C1232 C 0.90647 0.47858 0.91673 0.0
C1233 C 0.90519 0.4974 0.95825 0.0
C1234 C 0.91345 0.48963 0.05855 0.0
H1235 H 0.90763 0.54076 0.18484 0.0
H1236 H 0.90775 0.53109 0.12166 0.0
H1237 H 0.91903 0.49062 0.11699 0.0
H1238 H 0.90858 0.46008 0.94558 0.0
H1239 H 0.90809 0.46929 0.00904 0.0
H1240 H 0.89154 0.50984 0.01597 0.0
C1241 C 0.90636 0.52483 0.14602 0.0
C1242 C 0.91297 0.49483 0.0951 0.0
C1243 C 0.90635 0.53034 0.18216 0.0
C1244 C 0.90771 0.47054 0.94866 0.0
C1245 C 0.9075 0.47584 0.98507 0.0
C1246 C 0.89775 0.50564 0.03751 0.0
C1247 C 0.90482 0.51136 0.14142 0.0
C1248 C 0.90501 0.50558 0.10304 0.0
C1249 C 0.90622 0.48934 0.99039 0.0
C1250 C 0.90583 0.49496 0.02926 0.0
H1251 H 0.90161 0.50277 0.23419 0.0
H1252 H 0.90189 0.49307 0.17074 0.0
H1253 H 0.8911 0.51915 0.07948 0.0
H1254 H 0.90431 0.49849 0.89765 0.0
H1255 H 0.90443 0.50786 0.96115 0.0
C1256 C 0.26879 0.33017 0.68631 0.0
C1257 C 0.26757 0.34123 0.66329 0.0
C1258 C 0.264 0.33022 0.72331 0.0
C1259 C 0.24219 0.34832 0.78875 0.0
H1260 H 0.26238 0.3305 0.86574 0.0
C1261 C 0.23165 0.35339 0.94872 0.0
C1262 C 0.23039 0.34157 0.96835 0.0
C1263 C 0.23663 0.35359 0.91191 0.0
C1264 C 0.25663 0.33547 0.84447 0.0
H1265 H 0.26025 0.36098 0.66057 0.0
H1266 H 0.25221 0.36124 0.72555 0.0
H1267 H 0.26982 0.33037 0.80016 0.0
H1268 H 0.23374 0.32077 0.96555 0.0
H1269 H 0.24271 0.32116 0.9014 0.0
H1270 H 0.22916 0.35362 0.83353 0.0
C1271 C 0.25659 0.3524 0.71487 0.0
C1272 C 0.26083 0.33534 0.80685 0.0
C1273 C 0.26124 0.35228 0.67766 0.0
C1274 C 0.23461 0.33002 0.95104 0.0
C1275 C 0.23977 0.33024 0.91444 0.0
C1276 C 0.23809 0.34858 0.82648 0.0
C1277 C 0.25804 0.34141 0.73831 0.0
C1278 C 0.25361 0.34168 0.77844 0.0
C1279 C 0.24061 0.342 0.89431 0.0
C1280 C 0.24523 0.3421 0.85462 0.0
H1281 H 0.27355 0.32148 0.67584 0.0
H1282 H 0.26502 0.32148 0.74017 0.0
H1283 H 0.23627 0.35314 0.76762 0.0
H1284 H 0.22843 0.36244 0.96135 0.0
H1285 H 0.2373 0.3628 0.89708 0.0
C1286 C 0.40589 0.52994 0.4516 0.0
C1287 C 0.40588 0.52182 0.41958 0.0
C1288 C 0.40603 0.52461 0.48798 0.0
C1289 C 0.4158 0.49593 0.54122 0.0
H1290 H 0.39088 0.50779 0.61607 0.0
C1291 C 0.41041 0.4706 0.68595 0.0
C1292 C 0.40735 0.47824 0.7177 0.0
C1293 C 0.41039 0.47603 0.64971 0.0
C1294 C 0.39806 0.50451 0.59578 0.0
H1295 H 0.4061 0.50179 0.40035 0.0
H1296 H 0.40662 0.49246 0.46421 0.0
H1297 H 0.39055 0.51703 0.55246 0.0
H1298 H 0.40213 0.49759 0.73668 0.0
H1299 H 0.40256 0.50724 0.67351 0.0
H1300 H 0.42359 0.48367 0.5845 0.0
C1301 C 0.40645 0.50294 0.46101 0.0
C1302 C 0.3978 0.50976 0.55928 0.0
C1303 C 0.4061 0.50827 0.42457 0.0
C1304 C 0.40447 0.49147 0.71263 0.0
C1305 C 0.40462 0.49695 0.67638 0.0
C1306 C 0.41619 0.4908 0.57786 0.0
C1307 C 0.40636 0.51107 0.49302 0.0
C1308 C 0.40663 0.50548 0.53165 0.0
C1309 C 0.40749 0.48928 0.64439 0.0
C1310 C 0.40728 0.49498 0.6056 0.0
H1311 H 0.40569 0.54043 0.44858 0.0
H1312 H 0.40605 0.53109 0.5122 0.0
H1313 H 0.42283 0.49259 0.52052 0.0
H1314 H 0.41257 0.46034 0.68898 0.0
H1315 H 0.4124 0.46974 0.6258 0.0
C1316 C 0.26688 0.66881 0.44775 0.0
C1317 C 0.26563 0.65771 0.47063 0.0
C1318 C 0.26206 0.66884 0.41079 0.0
C1319 C 0.24034 0.65082 0.3448 0.0
H1320 H 0.26116 0.66808 0.26817 0.0
C1321 C 0.23107 0.64455 0.18465 0.0
C1322 C 0.23008 0.65618 0.16398 0.0
C1323 C 0.23572 0.64467 0.22183 0.0
C1324 C 0.25523 0.66328 0.28933 0.0
H1325 H 0.25815 0.63803 0.47323 0.0
H1326 H 0.25002 0.63791 0.40838 0.0
H1327 H 0.26815 0.66854 0.33415 0.0
H1328 H 0.23357 0.67698 0.16534 0.0
H1329 H 0.24195 0.67713 0.23017 0.0
H1330 H 0.22761 0.64532 0.29954 0.0
C1331 C 0.25447 0.64672 0.41911 0.0
C1332 C 0.25917 0.6636 0.32719 0.0
C1333 C 0.25916 0.64675 0.45626 0.0
C1334 C 0.23425 0.66787 0.18065 0.0
C1335 C 0.23906 0.66796 0.21766 0.0
C1336 C 0.2365 0.65037 0.30687 0.0
C1337 C 0.25602 0.6577 0.39571 0.0
C1338 C 0.25174 0.65742 0.35545 0.0
C1339 C 0.23962 0.65639 0.23879 0.0
C1340 C 0.24389 0.65663 0.27882 0.0
H1341 H 0.27176 0.67743 0.45823 0.0
H1342 H 0.26315 0.67757 0.39395 0.0
H1343 H 0.23427 0.64612 0.36581 0.0
H1344 H 0.2279 0.63541 0.17252 0.0
H1345 H 0.23619 0.6356 0.23743 0.0
C1346 C 0.09012 0.52687 0.1854 0.0
C1347 C 0.09227 0.51912 0.21758 0.0
C1348 C 0.08999 0.52132 0.14934 0.0
C1349 C 0.084 0.49113 0.09858 0.0
H1350 H 0.10486 0.50671 0.01911 0.0
C1351 C 0.08941 0.46719 0.95151 0.0
C1352 C 0.09036 0.47535 0.91972 0.0
C1353 C 0.08961 0.47241 0.98804 0.0
C1354 C 0.09881 0.50235 0.04074 0.0
H1355 H 0.09581 0.49949 0.23744 0.0
H1356 H 0.09532 0.48969 0.1741 0.0
H1357 H 0.10521 0.516 0.08261 0.0
H1358 H 0.092 0.49535 0.90104 0.0
H1359 H 0.09186 0.50455 0.96471 0.0
H1360 H 0.07727 0.47771 0.05672 0.0
C1361 C 0.09381 0.50008 0.17695 0.0
C1362 C 0.09909 0.50764 0.07717 0.0
C1363 C 0.09414 0.50568 0.21308 0.0
C1364 C 0.09132 0.48884 0.92509 0.0
C1365 C 0.09135 0.49408 0.96162 0.0
C1366 C 0.08358 0.48594 0.06201 0.0
C1367 C 0.09183 0.50788 0.14477 0.0
C1368 C 0.09169 0.50208 0.1064 0.0
C1369 C 0.0906 0.48593 0.99361 0.0
C1370 C 0.09098 0.49148 0.03258 0.0
H1371 H 0.08867 0.53727 0.18803 0.0
H1372 H 0.08833 0.52752 0.12499 0.0
H1373 H 0.0781 0.48676 0.12059 0.0
H1374 H 0.08876 0.45673 0.9482 0.0
H1375 H 0.08925 0.46579 0.01189 0.0
C1376 C 0.2158 0.20108 0.11928 0.0
C1377 C 0.20508 0.19303 0.11192 0.0
C1378 C 0.21406 0.21433 0.12616 0.0
C1379 C 0.19172 0.24083 0.10385 0.0
H1380 H 0.21354 0.26017 0.17352 0.0
C1381 C 0.1916 0.29698 0.10734 0.0
C1382 C 0.20405 0.30257 0.1062 0.0
C1383 C 0.19009 0.28374 0.1154 0.0
C1384 C 0.20737 0.2549 0.15395 0.0
H1385 H 0.18409 0.19239 0.10733 0.0
H1386 H 0.18102 0.21563 0.11938 0.0
H1387 H 0.2138 0.23643 0.17476 0.0
H1388 H 0.22462 0.29884 0.11396 0.0
H1389 H 0.22201 0.27581 0.12771 0.0
H1390 H 0.18564 0.25928 0.08209 0.0
C1391 C 0.19078 0.21169 0.11954 0.0
C1392 C 0.20752 0.24132 0.15466 0.0
C1393 C 0.19253 0.19839 0.11281 0.0
C1394 C 0.2149 0.2948 0.11458 0.0
C1395 C 0.21339 0.28162 0.12277 0.0
C1396 C 0.19158 0.25442 0.10312 0.0
C1397 C 0.20155 0.21983 0.12573 0.0
C1398 C 0.19996 0.23414 0.12891 0.0
C1399 C 0.20099 0.27588 0.12269 0.0
C1400 C 0.19968 0.2616 0.12744 0.0
H1401 H 0.2256 0.19722 0.11881 0.0
H1402 H 0.22257 0.22036 0.13032 0.0
H1403 H 0.18589 0.23559 0.08338 0.0
H1404 H 0.18306 0.30276 0.1011 0.0
H1405 H 0.1804 0.27962 0.11547 0.0
C1406 C 0.04501 0.96707 0.35152 0.0
C1407 C 0.05291 0.95597 0.34889 0.0
C1408 C 0.03169 0.96585 0.35787 0.0
C1409 C 0.00488 0.94296 0.34381 0.0
H1410 H 0.98581 0.96796 0.40453 0.0
C1411 C 0.94882 0.94249 0.35287 0.0
C1412 C 0.94295 0.95469 0.34747 0.0
C1413 C 0.96219 0.94158 0.35934 0.0
C1414 C 0.991 0.96092 0.38744 0.0
H1415 H 0.05317 0.9349 0.35197 0.0
H1416 H 0.02982 0.93277 0.36326 0.0
H1417 H 0.00951 0.96823 0.40501 0.0
H1418 H 0.94636 0.9755 0.34554 0.0
H1419 H 0.96965 0.97391 0.35653 0.0
H1420 H 0.98637 0.93588 0.32545 0.0
C1421 C 0.03393 0.9424 0.36003 0.0
C1422 C 0.00457 0.96107 0.3877 0.0
C1423 C 0.04729 0.94363 0.35373 0.0
C1424 C 0.95062 0.96596 0.34959 0.0
C1425 C 0.96395 0.96506 0.35619 0.0
C1426 C 0.99131 0.9428 0.34358 0.0
C1427 C 0.02597 0.95351 0.36172 0.0
C1428 C 0.01165 0.9523 0.36519 0.0
C1429 C 0.96991 0.95285 0.36072 0.0
C1430 C 0.98423 0.95198 0.3647 0.0
H1431 H 0.04907 0.97671 0.34789 0.0
H1432 H 0.0258 0.97459 0.35846 0.0
H1433 H 0.01004 0.93617 0.32583 0.0
H1434 H 0.94312 0.93364 0.35149 0.0
H1435 H 0.96651 0.93205 0.36305 0.0
C1436 C 0.30454 0.79717 0.60919 0.0
C1437 C 0.29216 0.80273 0.60477 0.0
C1438 C 0.30583 0.78393 0.61756 0.0
C1439 C 0.28762 0.75509 0.65178 0.0
H1440 H 0.31092 0.73579 0.58623 0.0
C1441 C 0.28014 0.70127 0.61572 0.0
C1442 C 0.29099 0.69325 0.60987 0.0
C1443 C 0.28172 0.71449 0.62321 0.0
C1444 C 0.30456 0.74102 0.60537 0.0
H1445 H 0.27144 0.79895 0.60699 0.0
H1446 H 0.27368 0.77591 0.62136 0.0
H1447 H 0.31117 0.75947 0.58499 0.0
H1448 H 0.31205 0.69264 0.60882 0.0
H1449 H 0.31483 0.71582 0.6221 0.0
H1450 H 0.28072 0.73662 0.67126 0.0
C1451 C 0.2824 0.78175 0.6187 0.0
C1452 C 0.3047 0.75461 0.60464 0.0
C1453 C 0.28111 0.79493 0.61015 0.0
C1454 C 0.3035 0.69861 0.61305 0.0
C1455 C 0.30509 0.71188 0.62048 0.0
C1456 C 0.28749 0.7415 0.65256 0.0
C1457 C 0.29477 0.77605 0.62193 0.0
C1458 C 0.29597 0.76178 0.62704 0.0
C1459 C 0.2942 0.72001 0.625 0.0
C1460 C 0.2957 0.73432 0.62856 0.0
H1461 H 0.31322 0.80298 0.6053 0.0
H1462 H 0.31548 0.77983 0.62018 0.0
H1463 H 0.28093 0.76036 0.66985 0.0
H1464 H 0.27037 0.6974 0.61348 0.0
H1465 H 0.27312 0.7205 0.62601 0.0
C1466 C 0.45151 0.02921 0.84256 0.0
C1467 C 0.44407 0.04061 0.84572 0.0
C1468 C 0.46485 0.02948 0.84967 0.0
C1469 C 0.49262 0.05162 0.8481 0.0
H1470 H 0.51021 0.02316 0.89885 0.0
C1471 C 0.5485 0.04991 0.86139 0.0
C1472 C 0.55415 0.03787 0.85223 0.0
C1473 C 0.53508 0.05089 0.86706 0.0
C1474 C 0.50544 0.03116 0.8845 0.0
H1475 H 0.44464 0.06115 0.85964 0.0
H1476 H 0.468 0.06161 0.87203 0.0
H1477 H 0.48651 0.02367 0.89699 0.0
H1478 H 0.5503 0.01738 0.84277 0.0
H1479 H 0.52696 0.01911 0.85212 0.0
H1480 H 0.51152 0.05892 0.83455 0.0
C1481 C 0.46352 0.0525 0.86382 0.0
C1482 C 0.49188 0.03145 0.88347 0.0
C1483 C 0.45016 0.05222 0.85687 0.0
C1484 C 0.54622 0.02679 0.84982 0.0
C1485 C 0.53284 0.02777 0.85547 0.0
C1486 C 0.50618 0.05132 0.84904 0.0
C1487 C 0.47102 0.04115 0.85996 0.0
C1488 C 0.48534 0.04155 0.8646 0.0
C1489 C 0.52709 0.03984 0.86372 0.0
C1490 C 0.51274 0.04094 0.86657 0.0
H1491 H 0.44708 0.02012 0.83402 0.0
H1492 H 0.4704 0.02061 0.84597 0.0
H1493 H 0.48786 0.05946 0.83299 0.0
H1494 H 0.5544 0.0586 0.86358 0.0
H1495 H 0.53095 0.0603 0.87379 0.0
C1496 C 0.19047 0.79818 0.02726 0.0
C1497 C 0.20298 0.80361 0.02556 0.0
C1498 C 0.1886 0.78493 0.02004 0.0
C1499 C 0.20454 0.7557 0.97919 0.0
H1500 H 0.18469 0.73701 0.05506 0.0
C1501 C 0.21352 0.70214 0.01538 0.0
C1502 C 0.20299 0.69419 0.02548 0.0
C1503 C 0.21164 0.71533 0.00789 0.0
C1504 C 0.19004 0.74208 0.03314 0.0
H1505 H 0.22326 0.79959 0.01366 0.0
H1506 H 0.22004 0.77654 0.00139 0.0
H1507 H 0.18471 0.7607 0.05526 0.0
H1508 H 0.18215 0.69366 0.03431 0.0
H1509 H 0.17885 0.71681 0.02124 0.0
H1510 H 0.21026 0.73704 0.95798 0.0
C1511 C 0.21164 0.78248 0.00789 0.0
C1512 C 0.19006 0.75567 0.03325 0.0
C1513 C 0.2135 0.79568 0.01523 0.0
C1514 C 0.19045 0.69958 0.02669 0.0
C1515 C 0.18857 0.71282 0.01936 0.0
C1516 C 0.20454 0.74211 0.97909 0.0
C1517 C 0.1992 0.7769 0.0108 0.0
C1518 C 0.19761 0.76262 0.00695 0.0
C1519 C 0.19919 0.72087 0.01045 0.0
C1520 C 0.19759 0.73516 0.00674 0.0
H1521 H 0.18217 0.80409 0.03504 0.0
H1522 H 0.17889 0.78093 0.02217 0.0
H1523 H 0.21026 0.76079 0.95812 0.0
H1524 H 0.2233 0.69825 0.01417 0.0
H1525 H 0.22005 0.72129 0.00161 0.0
C1526 C 0.44643 0.94708 0.28078 0.0
C1527 C 0.44016 0.95922 0.2804 0.0
C1528 C 0.45997 0.94634 0.27802 0.0
C1529 C 0.48887 0.9662 0.29734 0.0
H1530 H 0.5073 0.93972 0.24037 0.0
C1531 C 0.54422 0.96747 0.28347 0.0
C1532 C 0.55088 0.9557 0.28893 0.0
C1533 C 0.53077 0.96757 0.27891 0.0
C1534 C 0.50227 0.9471 0.25664 0.0
H1535 H 0.44301 0.98004 0.27502 0.0
H1536 H 0.46656 0.97875 0.26972 0.0
H1537 H 0.48354 0.94052 0.23816 0.0
H1538 H 0.54878 0.93476 0.29273 0.0
H1539 H 0.52514 0.93494 0.28518 0.0
H1540 H 0.50746 0.97273 0.31618 0.0
C1541 C 0.46109 0.96982 0.2729 0.0
C1542 C 0.48868 0.94756 0.25536 0.0
C1543 C 0.44759 0.97055 0.27573 0.0
C1544 C 0.54387 0.94398 0.28859 0.0
C1545 C 0.53037 0.94408 0.28409 0.0
C1546 C 0.50239 0.96574 0.29862 0.0
C1547 C 0.46745 0.95774 0.27483 0.0
C1548 C 0.48185 0.95716 0.27559 0.0
C1549 C 0.52366 0.95591 0.27986 0.0
C1550 C 0.50926 0.95624 0.27818 0.0
H1551 H 0.44093 0.93818 0.28435 0.0
H1552 H 0.4646 0.9369 0.27982 0.0
H1553 H 0.48389 0.97352 0.31398 0.0
H1554 H 0.54937 0.97666 0.28327 0.0
H1555 H 0.52591 0.97683 0.27498 0.0
C1556 C 0.30329 0.20045 0.52346 0.0
C1557 C 0.29093 0.19491 0.52839 0.0
C1558 C 0.30456 0.21367 0.51494 0.0
C1559 C 0.28624 0.24266 0.482 0.0
H1560 H 0.31028 0.26165 0.54603 0.0
C1561 C 0.27987 0.29665 0.51828 0.0
C1562 C 0.29091 0.30449 0.5232 0.0
C1563 C 0.28117 0.28338 0.51087 0.0
C1564 C 0.30371 0.2565 0.52731 0.0
H1565 H 0.27021 0.1987 0.52687 0.0
H1566 H 0.27241 0.22175 0.51234 0.0
H1567 H 0.31025 0.23798 0.54722 0.0
H1568 H 0.31198 0.30473 0.5227 0.0
H1569 H 0.31425 0.28148 0.50956 0.0
H1570 H 0.27942 0.26122 0.46303 0.0
C1571 C 0.28113 0.2159 0.51466 0.0
C1572 C 0.30369 0.24292 0.52801 0.0
C1573 C 0.27986 0.20271 0.52328 0.0
C1574 C 0.30329 0.2989 0.51921 0.0
C1575 C 0.3046 0.28559 0.51185 0.0
C1576 C 0.28627 0.25625 0.48127 0.0
C1577 C 0.29349 0.22158 0.51104 0.0
C1578 C 0.29473 0.23586 0.50612 0.0
C1579 C 0.29354 0.27765 0.50822 0.0
C1580 C 0.29477 0.26332 0.50469 0.0
H1581 H 0.31199 0.19465 0.52707 0.0
H1582 H 0.31421 0.21776 0.51194 0.0
H1583 H 0.27937 0.23748 0.46432 0.0
H1584 H 0.2702 0.30069 0.52116 0.0
H1585 H 0.27245 0.27752 0.50876 0.0
C1586 C 0.95066 0.05139 0.78589 0.0
C1587 C 0.94417 0.03937 0.78506 0.0
C1588 C 0.96418 0.05192 0.78212 0.0
C1589 C 0.99297 0.0313 0.79659 0.0
H1590 H 0.01118 0.05796 0.73978 0.0
C1591 C 0.04793 0.02868 0.77533 0.0
C1592 C 0.05499 0.04015 0.78194 0.0
C1593 C 0.03444 0.02904 0.77201 0.0
C1594 C 0.00621 0.05052 0.75597 0.0
H1595 H 0.94663 0.01856 0.77793 0.0
H1596 H 0.97012 0.01949 0.7708 0.0
H1597 H 0.98738 0.05776 0.74062 0.0
H1598 H 0.05354 0.06106 0.78877 0.0
H1599 H 0.02985 0.06168 0.78327 0.0
H1600 H 0.01166 0.02408 0.8122 0.0
C1601 C 0.96484 0.02848 0.77517 0.0
C1602 C 0.9926 0.05041 0.75646 0.0
C1603 C 0.95137 0.02796 0.77905 0.0
C1604 C 0.04834 0.05207 0.7837 0.0
C1605 C 0.03479 0.05243 0.78041 0.0
C1606 C 0.0065 0.0314 0.79605 0.0
C1607 C 0.97143 0.04043 0.77741 0.0
C1608 C 0.98585 0.04074 0.77664 0.0
C1609 C 0.02769 0.04087 0.77534 0.0
C1610 C 0.01328 0.04095 0.77558 0.0
H1611 H 0.94533 0.06035 0.79048 0.0
H1612 H 0.96899 0.06126 0.7842 0.0
H1613 H 0.98807 0.02391 0.81317 0.0
H1614 H 0.0528 0.01936 0.77351 0.0
H1615 H 0.02927 0.02001 0.76737 0.0
C1616 C 0.80359 0.70003 0.01567 0.0
C1617 C 0.79111 0.69458 0.01868 0.0
C1618 C 0.8051 0.71324 0.00732 0.0
C1619 C 0.78742 0.74247 0.97263 0.0
H1620 H 0.81028 0.76107 0.04112 0.0
C1621 C 0.77959 0.79571 0.01455 0.0
C1622 C 0.79039 0.80372 0.02133 0.0
C1623 C 0.78126 0.78262 0.00543 0.0
C1624 C 0.80406 0.75604 0.02117 0.0
H1625 H 0.77048 0.6985 0.01374 0.0
H1626 H 0.77309 0.7215 -0.00038 0.0
H1627 H 0.81043 0.7374 0.04063 0.0
H1628 H 0.81144 0.80447 0.02236 0.0
H1629 H 0.81439 0.78148 0.00644 0.0
H1630 H 0.78069 0.76115 0.95432 0.0
C1631 C 0.78173 0.71561 0.00327 0.0
C1632 C 0.80415 0.74245 0.02088 0.0
C1633 C 0.78022 0.70244 0.01168 0.0
C1634 C 0.80293 0.7985 0.01742 0.0
C1635 C 0.80462 0.78535 0.00845 0.0
C1636 C 0.78733 0.75606 0.97295 0.0
C1637 C 0.79417 0.72122 0.00169 0.0
C1638 C 0.79555 0.73552 0.99743 0.0
C1639 C 0.79379 0.77722 0.003 0.0
C1640 C 0.79537 0.76298 -0.00196 0.0
H1641 H 0.81216 0.69417 0.02076 0.0
H1642 H 0.81482 0.71726 0.00592 0.0
H1643 H 0.78086 0.7374 0.95373 0.0
H1644 H 0.7698 0.79947 0.01727 0.0
H1645 H 0.77272 0.77659 0.00191 0.0
C1646 C 0.71588 0.20129 0.52691 0.0
C1647 C 0.7047 0.19402 0.53518 0.0
C1648 C 0.71521 0.21478 0.52356 0.0
C1649 C 0.69295 0.24269 0.51099 0.0
H1650 H 0.72069 0.26134 0.56177 0.0
C1651 C 0.69281 0.29852 0.53971 0.0
C1652 C 0.70475 0.30496 0.53502 0.0
C1653 C 0.6921 0.28496 0.53644 0.0
C1654 C 0.71295 0.25629 0.54705 0.0
H1655 H 0.68393 0.19508 0.54501 0.0
H1656 H 0.68278 0.2188 0.53964 0.0
H1657 H 0.72068 0.23772 0.56194 0.0
H1658 H 0.72514 0.30239 0.52144 0.0
H1659 H 0.72389 0.27885 0.51545 0.0
H1660 H 0.68518 0.26142 0.49654 0.0
C1661 C 0.69204 0.21402 0.53541 0.0
C1662 C 0.71295 0.24274 0.54712 0.0
C1663 C 0.69271 0.20046 0.53863 0.0
C1664 C 0.71583 0.29769 0.52554 0.0
C1665 C 0.71512 0.28419 0.5223 0.0
C1666 C 0.69293 0.25631 0.51099 0.0
C1667 C 0.70336 0.22134 0.52865 0.0
C1668 C 0.70304 0.23577 0.52878 0.0
C1669 C 0.70333 0.27766 0.52852 0.0
C1670 C 0.70302 0.26323 0.52873 0.0
H1671 H 0.72524 0.19659 0.52372 0.0
H1672 H 0.72405 0.22011 0.51749 0.0
H1673 H 0.6852 0.23758 0.49649 0.0
H1674 H 0.68411 0.3039 0.547 0.0
H1675 H 0.68289 0.28018 0.54153 0.0
C1676 C 0.78013 0.29573 0.10113 0.0
C1677 C 0.7912 0.30367 0.09909 0.0
C1678 C 0.78132 0.28246 0.10856 0.0
C1679 C 0.80417 0.25553 0.09792 0.0
H1680 H 0.77878 0.23705 0.15873 0.0
C1681 C 0.80345 0.19937 0.10719 0.0
C1682 C 0.79113 0.19382 0.1016 0.0
C1683 C 0.80469 0.21272 0.11394 0.0
C1684 C 0.78594 0.24208 0.14164 0.0
H1685 H 0.81219 0.30406 0.10414 0.0
H1686 H 0.81429 0.28075 0.11706 0.0
H1687 H 0.77875 0.26079 0.15803 0.0
H1688 H 0.77044 0.19777 0.09977 0.0
H1689 H 0.77259 0.22099 0.1112 0.0
H1690 H 0.81107 0.23682 0.0805 0.0
C1691 C 0.8047 0.28482 0.11272 0.0
C1692 C 0.78593 0.25566 0.14125 0.0
C1693 C 0.80349 0.29814 0.10548 0.0
C1694 C 0.78007 0.20177 0.10396 0.0
C1695 C 0.7813 0.21507 0.11081 0.0
C1696 C 0.80417 0.24193 0.09827 0.0
C1697 C 0.79363 0.27682 0.11398 0.0
C1698 C 0.79482 0.26252 0.1186 0.0
C1699 C 0.79363 0.22074 0.11542 0.0
C1700 C 0.79483 0.23506 0.11933 0.0
H1701 H 0.77052 0.29972 0.09635 0.0
H1702 H 0.77262 0.27653 0.10879 0.0
H1703 H 0.81107 0.26054 0.07992 0.0
H1704 H 0.81214 0.19344 0.10562 0.0
H1705 H 0.81431 0.2168 0.11768 0.0
C1706 C 0.71572 0.7023 0.61873 0.0
C1707 C 0.70501 0.69438 0.61017 0.0
C1708 C 0.71398 0.71542 0.62742 0.0
C1709 C 0.6917 0.74218 0.60787 0.0
H1710 H 0.7138 0.76069 0.67872 0.0
C1711 C 0.69219 0.79818 0.6143 0.0
C1712 C 0.70471 0.80362 0.61297 0.0
C1713 C 0.69054 0.78495 0.62218 0.0
C1714 C 0.70754 0.75565 0.65886 0.0
H1715 H 0.68401 0.69381 0.60549 0.0
H1716 H 0.68095 0.71684 0.62073 0.0
H1717 H 0.71383 0.73694 0.67817 0.0
H1718 H 0.72524 0.79966 0.6204 0.0
H1719 H 0.72239 0.77662 0.63379 0.0
H1720 H 0.68578 0.76086 0.58755 0.0
C1721 C 0.69071 0.71289 0.62041 0.0
C1722 C 0.70756 0.74206 0.65855 0.0
C1723 C 0.69245 0.69972 0.61184 0.0
C1724 C 0.71548 0.79573 0.62117 0.0
C1725 C 0.71383 0.78254 0.62914 0.0
C1726 C 0.69169 0.75577 0.60818 0.0
C1727 C 0.70148 0.72093 0.62766 0.0
C1728 C 0.69993 0.73519 0.63229 0.0
C1729 C 0.70137 0.77694 0.62903 0.0
C1730 C 0.69989 0.76265 0.63292 0.0
H1731 H 0.72552 0.69845 0.61774 0.0
H1732 H 0.7225 0.72137 0.63235 0.0
H1733 H 0.68582 0.73718 0.58701 0.0
H1734 H 0.6837 0.80405 0.60825 0.0
H1735 H 0.68081 0.78094 0.62227 0.0
C1736 C 0.54538 0.46759 0.86383 0.0
C1737 C 0.55322 0.45658 0.85813 0.0
C1738 C 0.53209 0.46623 0.8705 0.0
C1739 C 0.50522 0.44387 0.85144 0.0
H1740 H 0.48624 0.46723 0.91766 0.0
C1741 C 0.4492 0.44365 0.85847 0.0
C1742 C 0.44349 0.45602 0.85542 0.0
C1743 C 0.4625 0.44242 0.86564 0.0
C1744 C 0.49141 0.46064 0.89905 0.0
H1745 H 0.55342 0.4355 0.85626 0.0
H1746 H 0.53014 0.43311 0.86812 0.0
H1747 H 0.50995 0.46735 0.91834 0.0
H1748 H 0.44709 0.47678 0.85868 0.0
H1749 H 0.47026 0.47464 0.87089 0.0
H1750 H 0.4867 0.43744 0.83134 0.0
C1751 C 0.53427 0.4428 0.86702 0.0
C1752 C 0.50498 0.46072 0.89942 0.0
C1753 C 0.54759 0.44416 0.86039 0.0
C1754 C 0.45122 0.46711 0.86084 0.0
C1755 C 0.46449 0.46588 0.86813 0.0
C1756 C 0.49165 0.44379 0.8511 0.0
C1757 C 0.52635 0.45383 0.8716 0.0
C1758 C 0.51203 0.45256 0.87494 0.0
C1759 C 0.47031 0.45354 0.87009 0.0
C1760 C 0.48461 0.45241 0.87422 0.0
H1761 H 0.54946 0.47729 0.86225 0.0
H1762 H 0.52624 0.47494 0.87338 0.0
H1763 H 0.51036 0.43758 0.83192 0.0
H1764 H 0.44344 0.43493 0.85454 0.0
H1765 H 0.46671 0.43277 0.86732 0.0
C1766 C 0.95058 0.52993 0.35142 0.0
C1767 C 0.94375 0.54155 0.34502 0.0
C1768 C 0.96406 0.53006 0.35547 0.0
C1769 C 0.9924 0.55126 0.37395 0.0
H1770 H 0.01084 0.52431 0.3189 0.0
C1771 C 0.04801 0.55189 0.34599 0.0
C1772 C 0.05452 0.53989 0.34796 0.0
C1773 C 0.03448 0.55243 0.34942 0.0
C1774 C 0.00584 0.53179 0.33488 0.0
H1775 H 0.94556 0.56246 0.33903 0.0
H1776 H 0.96921 0.56267 0.34559 0.0
H1777 H 0.98724 0.52467 0.31804 0.0
H1778 H 0.0521 0.51915 0.35675 0.0
H1779 H 0.02856 0.52011 0.36313 0.0
H1780 H 0.01114 0.55845 0.39032 0.0
C1781 C 0.96412 0.55348 0.34787 0.0
C1782 C 0.99231 0.532 0.33439 0.0
C1783 C 0.9506 0.55336 0.34393 0.0
C1784 C 0.04733 0.52853 0.3548 0.0
C1785 C 0.03385 0.52907 0.35825 0.0
C1786 C 0.00599 0.55106 0.37439 0.0
C1787 C 0.97101 0.5418 0.35302 0.0
C1788 C 0.98542 0.54169 0.35402 0.0
C1789 C 0.02725 0.54098 0.35485 0.0
C1790 C 0.01285 0.54128 0.35496 0.0
H1791 H 0.94555 0.52069 0.35274 0.0
H1792 H 0.96905 0.52093 0.36015 0.0
H1793 H 0.98736 0.55879 0.38957 0.0
H1794 H 0.05333 0.56081 0.34075 0.0
H1795 H 0.02966 0.56174 0.34645 0.0
C1796 C 0.9487 0.44493 0.77559 0.0
C1797 C 0.94317 0.45731 0.78043 0.0
C1798 C 0.96206 0.4436 0.7694 0.0
C1799 C 0.99155 0.46198 0.74167 0.0
H1800 H 0.00955 0.43703 0.80525 0.0
C1801 C 0.04546 0.46691 0.78015 0.0
C1802 C 0.05307 0.45563 0.78334 0.0
C1803 C 0.03214 0.466 0.77333 0.0
C1804 C 0.00468 0.44387 0.78674 0.0
H1805 H 0.94715 0.47802 0.78146 0.0
H1806 H 0.97041 0.47573 0.77094 0.0
H1807 H 0.98588 0.43739 0.80443 0.0
H1808 H 0.05283 0.43456 0.78091 0.0
H1809 H 0.02948 0.43295 0.76886 0.0
H1810 H 0.01036 0.4687 0.72479 0.0
C1811 C 0.96446 0.46704 0.77154 0.0
C1812 C 0.9911 0.44408 0.78627 0.0
C1813 C 0.95115 0.46835 0.77785 0.0
C1814 C 0.04718 0.44341 0.77872 0.0
C1815 C 0.03382 0.44249 0.77197 0.0
C1816 C 0.00512 0.46177 0.74211 0.0
C1817 C 0.9701 0.45465 0.76774 0.0
C1818 C 0.98441 0.45334 0.76443 0.0
C1819 C 0.02614 0.45378 0.76957 0.0
C1820 C 0.01182 0.45292 0.76536 0.0
H1821 H 0.94277 0.43625 0.77733 0.0
H1822 H 0.96612 0.43394 0.76624 0.0
H1823 H 0.98666 0.46907 0.72403 0.0
H1824 H 0.04973 0.47647 0.78359 0.0
H1825 H 0.02648 0.47487 0.77221 0.0
C1826 C 0.44989 0.55425 0.28233 0.0
C1827 C 0.44405 0.54199 0.28671 0.0
C1828 C 0.46331 0.55526 0.2768 0.0
C1829 C 0.49239 0.53627 0.24924 0.0
H1830 H 0.51092 0.56091 0.31251 0.0
C1831 C 0.54651 0.5308 0.28493 0.0
C1832 C 0.55421 0.54203 0.28776 0.0
C1833 C 0.53314 0.53181 0.27905 0.0
C1834 C 0.50589 0.55414 0.29411 0.0
H1835 H 0.44756 0.52119 0.28787 0.0
H1836 H 0.47092 0.52295 0.27848 0.0
H1837 H 0.48724 0.5609 0.31226 0.0
H1838 H 0.55407 0.56311 0.28572 0.0
H1839 H 0.53064 0.56488 0.27524 0.0
H1840 H 0.51105 0.5293 0.23179 0.0
C1841 C 0.46517 0.53178 0.27891 0.0
C1842 C 0.49232 0.55414 0.29398 0.0
C1843 C 0.45179 0.53077 0.28457 0.0
C1844 C 0.54834 0.55429 0.28377 0.0
C1845 C 0.53494 0.5553 0.27794 0.0
C1846 C 0.50595 0.53628 0.24935 0.0
C1847 C 0.4711 0.54403 0.27536 0.0
C1848 C 0.48543 0.54501 0.27216 0.0
C1849 C 0.52719 0.54406 0.27587 0.0
C1850 C 0.51285 0.54503 0.27242 0.0
H1851 H 0.44414 0.56306 0.28376 0.0
H1852 H 0.4676 0.56483 0.27382 0.0
H1853 H 0.48734 0.52928 0.23163 0.0
H1854 H 0.55076 0.52121 0.28792 0.0
H1855 H 0.52742 0.52297 0.27815 0.0
C1856 C 0.23873 0.13946 0.18666 0.0
C1857 C 0.22528 0.14021 0.18025 0.0
C1858 C 0.24351 0.13639 0.2226 0.0
C1859 C 0.23405 0.13891 0.32229 0.0
H1860 H 0.26588 0.11958 0.33937 0.0
C1861 C 0.25699 0.13671 0.47023 0.0
C1862 C 0.27031 0.13968 0.47103 0.0
C1863 C 0.2509 0.13357 0.43605 0.0
C1864 C 0.25697 0.125 0.33504 0.0
H1865 H 0.20629 0.13771 0.20584 0.0
H1866 H 0.21465 0.13223 0.26855 0.0
H1867 H 0.25615 0.11991 0.27622 0.0
H1868 H 0.28785 0.14097 0.43719 0.0
H1869 H 0.27721 0.13567 0.37755 0.0
H1870 H 0.23506 0.1444 0.38057 0.0
C1871 C 0.22149 0.13421 0.24597 0.0
C1872 C 0.25141 0.1252 0.2989 0.0
C1873 C 0.21671 0.13729 0.21003 0.0
C1874 C 0.27756 0.13875 0.43742 0.0
C1875 C 0.27147 0.13563 0.40326 0.0
C1876 C 0.2396 0.13872 0.35835 0.0
C1877 C 0.23495 0.134 0.25286 0.0
C1878 C 0.24003 0.13239 0.29196 0.0
C1879 C 0.258 0.13334 0.40201 0.0
C1880 C 0.25128 0.13201 0.36497 0.0
H1881 H 0.24557 0.14165 0.16423 0.0
H1882 H 0.25392 0.13645 0.22703 0.0
H1883 H 0.22539 0.14471 0.31784 0.0
H1884 H 0.25118 0.13726 0.49576 0.0
H1885 H 0.24055 0.13165 0.43611 0.0
C1886 C 0.11098 0.99003 0.41723 0.0
C1887 C 0.10775 0.97675 0.41683 0.0
C1888 C 0.11416 0.99621 0.45124 0.0
C1889 C 0.12315 0.99056 0.55169 0.0
H1890 H 0.10348 0.02217 0.56914 0.0
C1891 C 0.11098 0.00989 0.70075 0.0
C1892 C 0.10954 0.02335 0.70604 0.0
C1893 C 0.11372 0.00487 0.66484 0.0
C1894 C 0.1093 0.01353 0.56462 0.0
H1895 H 0.10598 0.95937 0.45125 0.0
H1896 H 0.11147 0.97017 0.51067 0.0
H1897 H 0.10319 0.01213 0.50692 0.0
H1898 H 0.11066 0.04218 0.67859 0.0
H1899 H 0.11574 0.03345 0.61607 0.0
H1900 H 0.12903 0.99184 0.60978 0.0
C1901 C 0.11162 0.9758 0.48472 0.0
C1902 C 0.10911 0.00775 0.52886 0.0
C1903 C 0.10839 0.96963 0.45073 0.0
C1904 C 0.11159 0.03174 0.67524 0.0
C1905 C 0.11443 0.02673 0.63939 0.0
C1906 C 0.12341 0.99639 0.5875 0.0
C1907 C 0.11423 0.98922 0.48548 0.0
C1908 C 0.11581 0.99607 0.52219 0.0
C1909 C 0.11516 0.01322 0.63353 0.0
C1910 C 0.11626 0.0078 0.59458 0.0
H1911 H 0.11064 0.99575 0.39147 0.0
H1912 H 0.11629 0.00653 0.45089 0.0
H1913 H 0.12854 0.98164 0.54723 0.0
H1914 H 0.10945 0.00318 0.72401 0.0
H1915 H 0.11407 0.99441 0.66135 0.0
C1916 C 0.21604 0.85876 0.92702 0.0
C1917 C 0.22446 0.85634 0.95752 0.0
C1918 C 0.221 0.86151 0.89109 0.0
C1919 C 0.25105 0.87022 0.83848 0.0
H1920 H 0.23534 0.84961 0.75869 0.0
C1921 C 0.27756 0.85639 0.7004 0.0
C1922 C 0.27028 0.85519 0.66695 0.0
C1923 C 0.27144 0.85931 0.73468 0.0
C1924 C 0.23971 0.85565 0.78036 0.0
H1925 H 0.24464 0.85554 0.9749 0.0
H1926 H 0.25334 0.86014 0.91205 0.0
H1927 H 0.22551 0.84992 0.82118 0.0
H1928 H 0.251 0.8568 0.64262 0.0
H1929 H 0.24031 0.86206 0.7024 0.0
H1930 H 0.26549 0.87562 0.79767 0.0
C1931 C 0.2429 0.86006 0.9159 0.0
C1932 C 0.23406 0.85583 0.81627 0.0
C1933 C 0.23792 0.85734 0.95187 0.0
C1934 C 0.25685 0.85755 0.66805 0.0
C1935 C 0.25072 0.86051 0.7023 0.0
C1936 C 0.25671 0.87005 0.80246 0.0
C1937 C 0.23449 0.86186 0.88492 0.0
C1938 C 0.23978 0.86293 0.84592 0.0
C1939 C 0.25791 0.86113 0.73614 0.0
C1940 C 0.25122 0.86257 0.77319 0.0
H1941 H 0.2056 0.85816 0.93063 0.0
H1942 H 0.21428 0.86306 0.86792 0.0
H1943 H 0.2556 0.87592 0.86063 0.0
H1944 H 0.28794 0.85463 0.70038 0.0
H1945 H 0.27724 0.85957 0.76026 0.0
C1946 C 0.38405 0.01123 0.91449 0.0
C1947 C 0.38826 0.02423 0.91443 0.0
C1948 C 0.38077 0.00508 0.9485 0.0
C1949 C 0.37304 0.01076 0.0497 0.0
H1950 H 0.39109 0.97809 0.06517 0.0
C1951 C 0.38518 0.99066 0.19773 0.0
C1952 C 0.38601 0.97715 0.20297 0.0
C1953 C 0.38252 0.99582 0.16194 0.0
C1954 C 0.38571 0.98704 0.06122 0.0
H1955 H 0.39167 0.0412 0.94951 0.0
H1956 H 0.38595 0.03049 0.00885 0.0
H1957 H 0.39138 0.98825 0.00306 0.0
H1958 H 0.38392 0.9584 0.1755 0.0
H1959 H 0.37894 0.96738 0.11319 0.0
H1960 H 0.36756 0.00967 0.10814 0.0
C1961 C 0.38513 0.02504 0.98267 0.0
C1962 C 0.38591 0.99288 0.02554 0.0
C1963 C 0.38849 0.03116 0.94872 0.0
C1964 C 0.38346 0.96887 0.1722 0.0
C1965 C 0.38069 0.97402 0.13646 0.0
C1966 C 0.37276 0.00487 0.0854 0.0
C1967 C 0.38155 0.01185 0.98304 0.0
C1968 C 0.37982 0.00494 0.0196 0.0
C1969 C 0.38052 0.98757 0.13067 0.0
C1970 C 0.37935 0.99308 0.09182 0.0
H1971 H 0.38372 0.00566 0.88845 0.0
H1972 H 0.37791 0.99494 0.94791 0.0
H1973 H 0.36813 0.01999 0.0458 0.0
H1974 H 0.38712 0.99728 0.22094 0.0
H1975 H 0.38263 0.00629 0.15853 0.0
C1976 C 0.75336 0.85949 0.96682 0.0
C1977 C 0.76682 0.85727 0.96724 0.0
C1978 C 0.74709 0.86292 0.93316 0.0
C1979 C 0.75278 0.87364 0.83365 0.0
H1980 H 0.72215 0.85284 0.81315 0.0
C1981 C 0.73621 0.85928 0.68397 0.0
C1982 C 0.72287 0.8579 0.67663 0.0
C1983 C 0.74054 0.86261 0.72017 0.0
C1984 C 0.73052 0.85896 0.81859 0.0
H1985 H 0.78439 0.85752 0.93334 0.0
H1986 H 0.77345 0.86325 0.87452 0.0
H1987 H 0.73166 0.85261 0.87608 0.0
H1988 H 0.70357 0.85966 0.70072 0.0
H1989 H 0.71115 0.86553 0.76403 0.0
H1990 H 0.7519 0.87952 0.77547 0.0
C1991 C 0.76772 0.86253 0.90018 0.0
C1992 C 0.73598 0.85883 0.85476 0.0
C1993 C 0.77399 0.85915 0.93384 0.0
C1994 C 0.71392 0.86056 0.70565 0.0
C1995 C 0.71825 0.86388 0.7419 0.0
C1996 C 0.74733 0.87374 0.79739 0.0
C1997 C 0.75416 0.86416 0.89925 0.0
C1998 C 0.74737 0.8659 0.86247 0.0
C1999 C 0.73162 0.86461 0.74977 0.0
C2000 C 0.73632 0.86614 0.78925 0.0
H2001 H 0.7476 0.85822 0.99224 0.0
H2002 H 0.73666 0.8643 0.9335 0.0
H2003 H 0.76143 0.87936 0.83888 0.0
H2004 H 0.74333 0.85731 0.66211 0.0
H2005 H 0.75091 0.86296 0.72538 0.0
C2006 C 0.88826 0.00936 0.70098 0.0
C2007 C 0.89023 0.02276 0.70612 0.0
C2008 C 0.88539 0.0044 0.66511 0.0
C2009 C 0.88997 0.01262 0.56456 0.0
H2010 H 0.86919 0.98163 0.54848 0.0
C2011 C 0.88638 0.98882 0.41776 0.0
C2012 C 0.88914 0.97544 0.41759 0.0
C2013 C 0.88367 0.99523 0.45175 0.0
C2014 C 0.875 0.9903 0.55258 0.0
H2015 H 0.89001 0.04157 0.67835 0.0
H2016 H 0.8847 0.03295 0.61585 0.0
H2017 H 0.86939 0.99201 0.61078 0.0
H2018 H 0.89057 0.95813 0.45246 0.0
H2019 H 0.88587 0.96933 0.51184 0.0
H2020 H 0.89578 0.01079 0.50667 0.0
C2021 C 0.88569 0.02623 0.63929 0.0
C2022 C 0.87515 0.99623 0.58824 0.0
C2023 C 0.88866 0.03118 0.67512 0.0
C2024 C 0.88851 0.96846 0.45176 0.0
C2025 C 0.88574 0.97486 0.48572 0.0
C2026 C 0.88975 0.00675 0.52892 0.0
C2027 C 0.88433 0.01274 0.63366 0.0
C2028 C 0.88286 0.0073 0.59486 0.0
C2029 C 0.8836 0.98837 0.48619 0.0
C2030 C 0.88248 0.99538 0.52275 0.0
H2031 H 0.88941 0.00264 0.72438 0.0
H2032 H 0.88457 0.99396 0.6618 0.0
H2033 H 0.8962 0.02099 0.56871 0.0
H2034 H 0.88673 0.99444 0.3918 0.0
H2035 H 0.88192 0.00562 0.45122 0.0
C2036 C 0.75652 0.13698 0.16969 0.0
C2037 C 0.76985 0.1399 0.16913 0.0
C2038 C 0.75027 0.13419 0.20386 0.0
C2039 C 0.75565 0.1257 0.30476 0.0
H2040 H 0.72446 0.14611 0.321 0.0
C2041 C 0.73621 0.13856 0.45321 0.0
C2042 C 0.72277 0.14011 0.45828 0.0
C2043 C 0.74128 0.1358 0.41739 0.0
C2044 C 0.73298 0.1401 0.31682 0.0
H2045 H 0.78724 0.14151 0.2035 0.0
H2046 H 0.77631 0.1367 0.26321 0.0
H2047 H 0.7346 0.14592 0.2589 0.0
H2048 H 0.70402 0.13925 0.43041 0.0
H2049 H 0.71283 0.13414 0.36801 0.0
H2050 H 0.75415 0.12009 0.36303 0.0
C2051 C 0.77069 0.1365 0.23726 0.0
C2052 C 0.73881 0.14001 0.28115 0.0
C2053 C 0.77694 0.13933 0.20309 0.0
C2054 C 0.71444 0.13823 0.42726 0.0
C2055 C 0.7195 0.13537 0.39148 0.0
C2056 C 0.74977 0.12573 0.34048 0.0
C2057 C 0.75723 0.13421 0.23812 0.0
C2058 C 0.75034 0.13301 0.27489 0.0
C2059 C 0.733 0.13444 0.38591 0.0
C2060 C 0.7385 0.13314 0.34712 0.0
H2061 H 0.75082 0.13727 0.1439 0.0
H2062 H 0.73991 0.1323 0.2036 0.0
H2063 H 0.76445 0.12009 0.30062 0.0
H2064 H 0.74287 0.13997 0.47663 0.0
H2065 H 0.75173 0.13531 0.41412 0.0
C2066 C 0.60775 0.963 0.18171 0.0
C2067 C 0.60546 0.97129 0.21258 0.0
C2068 C 0.61106 0.96811 0.14635 0.0
C2069 C 0.62104 0.99858 0.09666 0.0
H2070 H 0.60225 0.98308 0.01282 0.0
C2071 C 0.60819 0.0255 0.95826 0.0
C2072 C 0.60828 0.01842 0.92422 0.0
C2073 C 0.61091 0.01933 0.99261 0.0
C2074 C 0.60777 0.98739 0.03574 0.0
H2075 H 0.60531 0.99138 0.23122 0.0
H2076 H 0.61068 0.00036 0.16932 0.0
H2077 H 0.60137 0.97292 0.07482 0.0
H2078 H 0.61199 -0.00047 0.89908 0.0
H2079 H 0.61672 0.98874 0.95915 0.0
H2080 H 0.62691 0.0134 0.05749 0.0
C2081 C 0.6102 0.98989 0.17241 0.0
C2082 C 0.60729 0.98155 0.07136 0.0
C2083 C 0.60703 0.98476 0.20787 0.0
C2084 C 0.61177 0.00522 0.92492 0.0
C2085 C 0.61443 -0.00097 0.95928 0.0
C2086 C 0.62143 0.00449 0.06098 0.0
C2087 C 0.61199 0.98164 0.14102 0.0
C2088 C 0.61374 0.98718 0.10244 0.0
C2089 C 0.61372 0.00596 0.99356 0.0
C2090 C 0.61463 -0.00095 0.03032 0.0
H2091 H 0.60675 0.95256 0.18467 0.0
H2092 H 0.61263 0.96146 0.123 0.0
H2093 H 0.62629 0.00306 0.11983 0.0
H2094 H 0.60556 0.03571 0.95855 0.0
H2095 H 0.61018 0.0249 0.01859 0.0
C2096 C 0.78097 0.63701 0.92853 0.0
C2097 C 0.77226 0.6403 0.95763 0.0
C2098 C 0.77635 0.63366 0.89262 0.0
C2099 C 0.74664 0.62491 0.83837 0.0
H2100 H 0.76334 0.64443 0.75797 0.0
C2101 C 0.72081 0.63949 0.70037 0.0
C2102 C 0.72811 0.64064 0.66694 0.0
C2103 C 0.72685 0.63612 0.73441 0.0
C2104 C 0.75871 0.63865 0.77979 0.0
H2105 H 0.7519 0.64196 0.97269 0.0
H2106 H 0.74384 0.63628 0.90995 0.0
H2107 H 0.77287 0.64428 0.82084 0.0
H2108 H 0.74728 0.63842 0.64229 0.0
H2109 H 0.75782 0.63236 0.70167 0.0
H2110 H 0.73222 0.61966 0.79737 0.0
C2111 C 0.75422 0.63616 0.91486 0.0
C2112 C 0.76419 0.63858 0.81593 0.0
C2113 C 0.75884 0.63951 0.95076 0.0
C2114 C 0.74143 0.63772 0.66774 0.0
C2115 C 0.74747 0.6343 0.70176 0.0
C2116 C 0.74116 0.62497 0.80212 0.0
C2117 C 0.76294 0.63353 0.88514 0.0
C2118 C 0.75805 0.63197 0.84584 0.0
C2119 C 0.74031 0.63379 0.73566 0.0
C2120 C 0.74697 0.63211 0.77266 0.0
H2121 H 0.79137 0.63744 0.93312 0.0
H2122 H 0.78329 0.6315 0.87043 0.0
H2123 H 0.74179 0.61958 0.86074 0.0
H2124 H 0.71051 0.64167 0.70059 0.0
H2125 H 0.72106 0.63597 0.76003 0.0
C2126 C 0.60838 0.52904 0.18105 0.0
C2127 C 0.60861 0.52199 0.21513 0.0
C2128 C 0.61149 0.52297 0.14683 0.0
C2129 C 0.61033 0.49084 0.10325 0.0
H2130 H 0.62783 0.50806 0.01986 0.0
C2131 C 0.61155 0.46752 0.95563 0.0
C2132 C 0.60827 0.47591 0.92572 0.0
C2133 C 0.61479 0.47253 0.99119 0.0
C2134 C 0.6229 0.50313 0.04286 0.0
H2135 H 0.61288 0.50326 0.24047 0.0
H2136 H 0.61833 0.49264 0.18058 0.0
H2137 H 0.62781 0.51811 0.08261 0.0
H2138 H 0.60641 0.49611 0.90895 0.0
H2139 H 0.61178 0.50486 0.9711 0.0
H2140 H 0.60493 0.47615 0.0635 0.0
C2141 C 0.61562 0.50282 0.18032 0.0
C2142 C 0.62291 0.50888 0.07877 0.0
C2143 C 0.61255 0.50891 0.21459 0.0
C2144 C 0.60889 0.48941 0.93151 0.0
C2145 C 0.61206 0.49442 0.96711 0.0
C2146 C 0.61027 0.48513 0.06738 0.0
C2147 C 0.61486 0.50972 0.14598 0.0
C2148 C 0.61638 0.50292 0.10916 0.0
C2149 C 0.61474 0.48604 0.99763 0.0
C2150 C 0.61631 0.49134 0.03655 0.0
H2151 H 0.6054 0.53914 0.18062 0.0
H2152 H 0.61067 0.52852 0.12085 0.0
H2153 H 0.60505 0.48609 0.12591 0.0
H2154 H 0.61126 0.45706 0.95188 0.0
H2155 H 0.61704 0.46581 0.0139 0.0
C2156 C 0.71419 0.35888 0.42528 0.0
C2157 C 0.72262 0.35792 0.45643 0.0
C2158 C 0.7191 0.36125 0.38905 0.0
C2159 C 0.74865 0.37135 0.33591 0.0
H2160 H 0.73477 0.34833 0.25887 0.0
C2161 C 0.77627 0.35754 0.19941 0.0
C2162 C 0.76908 0.35569 0.16603 0.0
C2163 C 0.76996 0.36031 0.23353 0.0
C2164 C 0.73861 0.35501 0.27978 0.0
H2165 H 0.7427 0.35931 0.47452 0.0
H2166 H 0.75131 0.36321 0.4112 0.0
H2167 H 0.72478 0.34889 0.32116 0.0
H2168 H 0.74973 0.35588 0.14171 0.0
H2169 H 0.73872 0.36081 0.20123 0.0
H2170 H 0.76277 0.37713 0.29457 0.0
C2171 C 0.7409 0.3623 0.41472 0.0
C2172 C 0.73286 0.35535 0.31555 0.0
C2173 C 0.73598 0.35999 0.45099 0.0
C2174 C 0.75552 0.35717 0.16707 0.0
C2175 C 0.74921 0.35993 0.20116 0.0
C2176 C 0.75443 0.371 0.30006 0.0
C2177 C 0.73254 0.36265 0.3832 0.0
C2178 C 0.73793 0.36337 0.34423 0.0
C2179 C 0.75634 0.36127 0.23491 0.0
C2180 C 0.74958 0.36267 0.2718 0.0
H2181 H 0.70383 0.35744 0.4287 0.0
H2182 H 0.71238 0.3617 0.36546 0.0
H2183 H 0.75267 0.37777 0.35724 0.0
H2184 H 0.78674 0.35647 0.19944 0.0
H2185 H 0.77572 0.36115 0.25909 0.0
C2186 C 0.88836 0.47128 0.67775 0.0
C2187 C 0.88892 0.47839 0.71169 0.0
C2188 C 0.88549 0.47752 0.64358 0.0
C2189 C 0.88915 0.50937 0.59978 0.0
H2190 H 0.86914 0.49424 0.5178 0.0
C2191 C 0.88776 0.53391 0.45407 0.0
C2192 C 0.8895 0.5256 0.42292 0.0
C2193 C 0.8848 0.52883 0.48973 0.0
C2194 C 0.8748 0.49856 0.54037 0.0
H2195 H 0.88623 0.49745 0.7369 0.0
H2196 H 0.88123 0.50834 0.67719 0.0
H2197 H 0.86905 0.48389 0.58016 0.0
H2198 H 0.88899 0.50553 0.40416 0.0
H2199 H 0.88419 0.49661 0.46654 0.0
H2200 H 0.8954 0.52369 0.56003 0.0
C2201 C 0.88313 0.49797 0.67696 0.0
C2202 C 0.87472 0.49265 0.57607 0.0
C2203 C 0.88595 0.49173 0.71112 0.0
C2204 C 0.8877 0.51217 0.42771 0.0
C2205 C 0.88485 0.50707 0.46345 0.0
C2206 C 0.88931 0.51521 0.56414 0.0
C2207 C 0.88318 0.49099 0.64272 0.0
C2208 C 0.88205 0.49789 0.60597 0.0
C2209 C 0.88365 0.51532 0.49508 0.0
C2210 C 0.88231 0.50978 0.5338 0.0
H2211 H 0.89058 0.46098 0.67736 0.0
H2212 H 0.88571 0.47189 0.61763 0.0
H2213 H 0.89509 0.51352 0.62206 0.0
H2214 H 0.88896 0.54433 0.4511 0.0
H2215 H 0.88367 0.53549 0.5133 0.0
C2216 C 0.21874 0.35692 0.20145 0.0
C2217 C 0.22605 0.35628 0.16791 0.0
C2218 C 0.2247 0.36017 0.23571 0.0
C2219 C 0.25665 0.35827 0.28083 0.0
H2220 H 0.23951 0.37678 0.36251 0.0
C2221 C 0.27978 0.36099 0.42826 0.0
C2222 C 0.27141 0.35772 0.45821 0.0
C2223 C 0.27478 0.36394 0.3925 0.0
C2224 C 0.24441 0.37159 0.33995 0.0
H2225 H 0.24514 0.35929 0.14339 0.0
H2226 H 0.25552 0.36512 0.20317 0.0
H2227 H 0.22968 0.37647 0.29946 0.0
H2228 H 0.25125 0.35562 0.47486 0.0
H2229 H 0.2425 0.36056 0.41231 0.0
H2230 H 0.27113 0.35301 0.32132 0.0
C2231 C 0.24524 0.36287 0.20314 0.0
C2232 C 0.23879 0.37141 0.30388 0.0
C2233 C 0.23929 0.35959 0.1689 0.0
C2234 C 0.25793 0.35808 0.45225 0.0
C2235 C 0.25292 0.361 0.41647 0.0
C2236 C 0.26225 0.35845 0.31679 0.0
C2237 C 0.23809 0.36288 0.23708 0.0
C2238 C 0.24472 0.36452 0.27412 0.0
C2239 C 0.26131 0.36365 0.38597 0.0
C2240 C 0.25607 0.36489 0.34695 0.0
H2241 H 0.20851 0.35444 0.20151 0.0
H2242 H 0.21893 0.35994 0.26137 0.0
H2243 H 0.26137 0.35268 0.25875 0.0
H2244 H 0.29023 0.36091 0.43213 0.0
H2245 H 0.28148 0.36615 0.36972 0.0
C2246 C 0.38875 0.48886 0.9291 0.0
C2247 C 0.38933 0.47534 0.9237 0.0
C2248 C 0.38584 0.49401 0.96472 0.0
C2249 C 0.38814 0.48504 0.06527 0.0
H2250 H 0.37078 0.51813 0.08028 0.0
C2251 C 0.38591 0.50902 0.2122 0.0
C2252 C 0.38996 0.52207 0.2127 0.0
C2253 C 0.38288 0.50292 0.17794 0.0
C2254 C 0.37563 0.50887 0.07649 0.0
H2255 H 0.38655 0.45659 0.95062 0.0
H2256 H 0.38119 0.46557 0.01268 0.0
H2257 H 0.3705 0.50792 0.01777 0.0
H2258 H 0.39341 0.53915 0.17808 0.0
H2259 H 0.38818 0.52849 0.1183 0.0
H2260 H 0.39352 0.48611 0.12366 0.0
C2261 C 0.38328 0.47221 0.98965 0.0
C2262 C 0.3755 0.50303 0.04071 0.0
C2263 C 0.38629 0.46706 0.95407 0.0
C2264 C 0.39035 0.52907 0.17855 0.0
C2265 C 0.38726 0.52299 0.14433 0.0
C2266 C 0.38821 0.49083 0.10101 0.0
C2267 C 0.38336 0.48574 0.99565 0.0
C2268 C 0.38201 0.49118 0.03448 0.0
C2269 C 0.38377 0.50977 0.14357 0.0
C2270 C 0.38221 0.50294 0.10683 0.0
H2271 H 0.39106 0.49548 0.90618 0.0
H2272 H 0.38614 0.50446 0.96836 0.0
H2273 H 0.39344 0.47603 0.06144 0.0
H2274 H 0.38546 0.5034 0.23814 0.0
H2275 H 0.38008 0.49276 0.17826 0.0
C2276 C 0.21976 0.6397 0.93081 0.0
C2277 C 0.22699 0.64072 0.96441 0.0
C2278 C 0.22585 0.63636 0.89682 0.0
C2279 C 0.25779 0.6386 0.85179 0.0
H2280 H 0.24092 0.61937 0.77106 0.0
C2281 C 0.28036 0.63624 0.70341 0.0
C2282 C 0.27173 0.63938 0.67398 0.0
C2283 C 0.27565 0.63311 0.7394 0.0
C2284 C 0.24576 0.62475 0.79336 0.0
H2285 H 0.2461 0.63834 0.98934 0.0
H2286 H 0.25673 0.63235 0.93001 0.0
H2287 H 0.23122 0.61971 0.83425 0.0
H2288 H 0.25141 0.64105 0.65847 0.0
H2289 H 0.24319 0.63578 0.72133 0.0
H2290 H 0.27207 0.64401 0.81083 0.0
C2291 C 0.24639 0.63435 0.92979 0.0
C2292 C 0.2402 0.62495 0.82951 0.0
C2293 C 0.2403 0.63774 0.96377 0.0
C2294 C 0.2583 0.6387 0.68066 0.0
C2295 C 0.25359 0.63558 0.71663 0.0
C2296 C 0.26334 0.63838 0.81574 0.0
C2297 C 0.23929 0.63393 0.89577 0.0
C2298 C 0.246 0.63214 0.85889 0.0
C2299 C 0.26222 0.63308 0.74664 0.0
C2300 C 0.25723 0.63171 0.78589 0.0
H2301 H 0.20947 0.64193 0.93046 0.0
H2302 H 0.22012 0.63627 0.8711 0.0
H2303 H 0.26242 0.64439 0.87357 0.0
H2304 H 0.29077 0.63659 0.69899 0.0
H2305 H 0.28254 0.63105 0.76181 0.0
C2306 C 0.11098 0.53106 0.45606 0.0
C2307 C 0.10889 0.52267 0.42525 0.0
C2308 C 0.11385 0.52603 0.49186 0.0
C2309 C 0.12292 0.49565 0.54342 0.0
H2310 H 0.10292 0.51135 0.62454 0.0
C2311 C 0.10806 0.46877 0.68003 0.0
C2312 C 0.10762 0.47583 0.71409 0.0
C2313 C 0.11122 0.47499 0.64606 0.0
C2314 C 0.10878 0.50699 0.60243 0.0
H2315 H 0.10874 0.50252 0.40721 0.0
H2316 H 0.11341 0.49371 0.4698 0.0
H2317 H 0.10308 0.52145 0.56238 0.0
H2318 H 0.11076 0.49474 0.73971 0.0
H2319 H 0.11625 0.50561 0.68029 0.0
H2320 H 0.12811 0.48085 0.58345 0.0
C2321 C 0.11307 0.50417 0.46635 0.0
C2322 C 0.10889 0.5128 0.56671 0.0
C2323 C 0.1103 0.50921 0.43048 0.0
C2324 C 0.11095 0.48908 0.71383 0.0
C2325 C 0.11405 0.49531 0.67983 0.0
C2326 C 0.12274 0.48979 0.57917 0.0
C2327 C 0.11458 0.51251 0.49766 0.0
C2328 C 0.11577 0.50708 0.53656 0.0
C2329 C 0.11394 0.48839 0.64548 0.0
C2330 C 0.11547 0.49528 0.60885 0.0
H2331 H 0.11007 0.54149 0.45275 0.0
H2332 H 0.11521 0.53274 0.51519 0.0
H2333 H 0.12849 0.49111 0.52099 0.0
H2334 H 0.10557 0.45854 0.6794 0.0
H2335 H 0.11093 0.46942 0.62001 0.0
loop_
_geom_bond_atom_site_label_1
_geom_bond_atom_site_label_2
_geom_bond_distance
_geom_bond_site_symmetry_2
_ccdc_geom_bond_type
In0 O1 2.294 . S
In0 O2 2.326 1_554 S
In0 O6 2.266 . S
In0 O7 2.326 . S
In0 O8 2.266 . S
In0 O9 2.326 . S
In0 O11 2.294 . S
In0 O12 2.326 . S
O1 In0 2.294 . S
O1 C10 1.240 1_554 S
O2 In0 2.326 1_556 S
O2 C10 1.252 . S
C3 O6 1.252 . S
C3 O7 1.260 . S
C4 O11 1.240 . S
C4 O12 1.252 . S
C5 O8 1.252 . S
C5 O9 1.260 . S
O6 In0 2.266 . S
O6 C3 1.252 . S
O7 In0 2.326 . S
O7 C3 1.260 . S
O8 In0 2.266 . S
O8 C5 1.252 . S
O9 In0 2.326 . S
O9 C5 1.260 . S
C10 O1 1.240 1_556 S
C10 O2 1.252 . S
O11 In0 2.294 . S
O11 C4 1.240 . S
O12 In0 2.326 . S
O12 C4 1.252 . S
In13 O14 2.294 . S
In13 O15 2.326 . S
In13 O19 2.266 . S
In13 O20 2.326 . S
In13 O21 2.266 . S
In13 O22 2.326 . S
In13 O24 2.294 . S
In13 O25 2.326 . S
O14 In13 2.294 . S
O14 C23 1.240 . S
O15 In13 2.326 . S
O15 C23 1.252 . S
C16 O19 1.252 . S
C16 O20 1.260 . S
C17 O24 1.240 . S
C17 O25 1.252 . S
C18 O21 1.252 . S
C18 O22 1.260 . S
O19 In13 2.266 . S
O19 C16 1.252 . S
O20 In13 2.326 . S
O20 C16 1.260 . S
O21 In13 2.266 . S
O21 C18 1.252 . S
O22 In13 2.326 . S
O22 C18 1.260 . S
C23 O14 1.240 . S
C23 O15 1.252 . S
O24 In13 2.294 . S
O24 C17 1.240 . S
O25 In13 2.326 . S
O25 C17 1.252 . S
In26 O27 2.294 . S
In26 O28 2.326 . S
In26 O32 2.266 . S
In26 O33 2.326 . S
In26 O34 2.266 . S
In26 O35 2.326 . S
In26 O37 2.294 . S
In26 O38 2.326 . S
O27 In26 2.294 . S
O27 C36 1.240 . S
O28 In26 2.326 . S
O28 C36 1.252 . S
C29 O32 1.252 . S
C29 O33 1.260 . S
C30 O37 1.240 . S
C30 O38 1.252 . S
C31 O34 1.252 . S
C31 O35 1.260 . S
O32 In26 2.266 . S
O32 C29 1.252 . S
O33 In26 2.326 . S
O33 C29 1.260 . S
O34 In26 2.266 . S
O34 C31 1.252 . S
O35 In26 2.326 . S
O35 C31 1.260 . S
C36 O27 1.240 . S
C36 O28 1.252 . S
O37 In26 2.294 . S
O37 C30 1.240 . S
O38 In26 2.326 . S
O38 C30 1.252 . S
In39 O40 2.294 . S
In39 O41 2.326 . S
In39 O45 2.266 . S
In39 O46 2.326 . S
In39 O47 2.266 . S
In39 O48 2.326 . S
In39 O50 2.294 . S
In39 O51 2.326 . S
O40 In39 2.294 . S
O40 C49 1.240 . S
O41 In39 2.326 . S
O41 C49 1.252 . S
C42 O45 1.252 . S
C42 O46 1.260 . S
C43 O50 1.240 . S
C43 O51 1.252 . S
C44 O47 1.252 . S
C44 O48 1.260 . S
O45 In39 2.266 . S
O45 C42 1.252 . S
O46 In39 2.326 . S
O46 C42 1.260 . S
O47 In39 2.266 . S
O47 C44 1.252 . S
O48 In39 2.326 . S
O48 C44 1.260 . S
C49 O40 1.240 . S
C49 O41 1.252 . S
O50 In39 2.294 . S
O50 C43 1.240 . S
O51 In39 2.326 . S
O51 C43 1.252 . S
In52 O53 2.294 . S
In52 O54 2.326 . S
In52 O58 2.266 . S
In52 O59 2.326 . S
In52 O60 2.266 . S
In52 O61 2.326 . S
In52 O63 2.294 . S
In52 O64 2.326 . S
O53 In52 2.294 . S
O53 C62 1.240 . S
O54 In52 2.326 . S
O54 C62 1.252 . S
C55 O58 1.252 . S
C55 O59 1.260 . S
C56 O63 1.240 . S
C56 O64 1.252 . S
C57 O60 1.252 . S
C57 O61 1.260 . S
O58 In52 2.266 . S
O58 C55 1.252 . S
O59 In52 2.326 . S
O59 C55 1.260 . S
O60 In52 2.266 . S
O60 C57 1.252 . S
O61 In52 2.326 . S
O61 C57 1.260 . S
C62 O53 1.240 . S
C62 O54 1.252 . S
O63 In52 2.294 . S
O63 C56 1.240 . S
O64 In52 2.326 . S
O64 C56 1.252 . S
In65 O66 2.294 . S
In65 O67 2.326 . S
In65 O71 2.266 . S
In65 O72 2.326 . S
In65 O73 2.266 . S
In65 O74 2.326 . S
In65 O76 2.294 . S
In65 O77 2.326 . S
O66 In65 2.294 . S
O66 C75 1.240 . S
O67 In65 2.326 . S
O67 C75 1.252 . S
C68 O71 1.252 . S
C68 O72 1.260 . S
C69 O76 1.240 . S
C69 O77 1.252 . S
C70 O73 1.252 . S
C70 O74 1.260 . S
O71 In65 2.266 . S
O71 C68 1.252 . S
O72 In65 2.326 . S
O72 C68 1.260 . S
O73 In65 2.266 . S
O73 C70 1.252 . S
O74 In65 2.326 . S
O74 C70 1.260 . S
C75 O66 1.240 . S
C75 O67 1.252 . S
O76 In65 2.294 . S
O76 C69 1.240 . S
O77 In65 2.326 . S
O77 C69 1.252 . S
In78 O79 2.294 . S
In78 O80 2.326 . S
In78 O84 2.266 . S
In78 O85 2.326 . S
In78 O86 2.266 . S
In78 O87 2.326 . S
In78 O89 2.294 . S
In78 O90 2.326 . S
O79 In78 2.294 . S
O79 C88 1.240 . S
O80 In78 2.326 . S
O80 C88 1.252 . S
C81 O84 1.252 . S
C81 O85 1.260 . S
C82 O89 1.240 . S
C82 O90 1.252 . S
C83 O86 1.252 . S
C83 O87 1.260 . S
O84 In78 2.266 . S
O84 C81 1.252 . S
O85 In78 2.326 . S
O85 C81 1.260 . S
O86 In78 2.266 . S
O86 C83 1.252 . S
O87 In78 2.326 . S
O87 C83 1.260 . S
C88 O79 1.240 . S
C88 O80 1.252 . S
O89 In78 2.294 . S
O89 C82 1.240 . S
O90 In78 2.326 . S
O90 C82 1.252 . S
In91 O92 2.294 . S
In91 O93 2.326 . S
In91 O97 2.266 . S
In91 O98 2.326 . S
In91 O99 2.266 . S
In91 O100 2.326 . S
In91 O102 2.294 . S
In91 O103 2.326 . S
O92 In91 2.294 . S
O92 C101 1.240 . S
O93 In91 2.326 . S
O93 C101 1.252 . S
C94 O97 1.252 . S
C94 O98 1.260 . S
C95 O102 1.240 . S
C95 O103 1.252 . S
C96 O99 1.252 . S
C96 O100 1.260 . S
O97 In91 2.266 . S
O97 C94 1.252 . S
O98 In91 2.326 . S
O98 C94 1.260 . S
O99 In91 2.266 . S
O99 C96 1.252 . S
O100 In91 2.326 . S
O100 C96 1.260 . S
C101 O92 1.240 . S
C101 O93 1.252 . S
O102 In91 2.294 . S
O102 C95 1.240 . S
O103 In91 2.326 . S
O103 C95 1.252 . S
In104 O105 2.294 . S
In104 O106 2.326 . S
In104 O110 2.266 . S
In104 O111 2.326 . S
In104 O112 2.266 . S
In104 O113 2.326 . S
In104 O115 2.294 . S
In104 O116 2.326 . S
O105 In104 2.294 . S
O105 C114 1.240 . S
O106 In104 2.326 . S
O106 C114 1.252 . S
C107 O110 1.252 . S
C107 O111 1.260 . S
C108 O115 1.240 . S
C108 O116 1.252 . S
C109 O112 1.252 . S
C109 O113 1.260 . S
O110 In104 2.266 . S
O110 C107 1.252 . S
O111 In104 2.326 . S
O111 C107 1.260 . S
O112 In104 2.266 . S
O112 C109 1.252 . S
O113 In104 2.326 . S
O113 C109 1.260 . S
C114 O105 1.240 . S
C114 O106 1.252 . S
O115 In104 2.294 . S
O115 C108 1.240 . S
O116 In104 2.326 . S
O116 C108 1.252 . S
In117 O118 2.294 . S
In117 O119 2.326 . S
In117 O123 2.266 . S
In117 O124 2.326 . S
In117 O125 2.266 . S
In117 O126 2.326 . S
In117 O128 2.294 . S
In117 O129 2.326 . S
O118 In117 2.294 . S
O118 C127 1.240 . S
O119 In117 2.326 . S
O119 C127 1.252 . S
C120 O123 1.252 . S
C120 O124 1.260 . S
C121 O128 1.240 . S
C121 O129 1.252 . S
C122 O125 1.252 . S
C122 O126 1.260 . S
O123 In117 2.266 . S
O123 C120 1.252 . S
O124 In117 2.326 . S
O124 C120 1.260 . S
O125 In117 2.266 . S
O125 C122 1.252 . S
O126 In117 2.326 . S
O126 C122 1.260 . S
C127 O118 1.240 . S
C127 O119 1.252 . S
O128 In117 2.294 . S
O128 C121 1.240 . S
O129 In117 2.326 . S
O129 C121 1.252 . S
In130 O131 2.294 . S
In130 O132 2.326 . S
In130 O136 2.266 . S
In130 O137 2.326 . S
In130 O138 2.266 . S
In130 O139 2.326 . S
In130 O141 2.294 . S
In130 O142 2.326 . S
O131 In130 2.294 . S
O131 C140 1.240 . S
O132 In130 2.326 . S
O132 C140 1.252 . S
C133 O136 1.252 . S
C133 O137 1.260 . S
C134 O141 1.240 . S
C134 O142 1.252 . S
C135 O138 1.252 . S
C135 O139 1.260 . S
O136 In130 2.266 . S
O136 C133 1.252 . S
O137 In130 2.326 . S
O137 C133 1.260 . S
O138 In130 2.266 . S
O138 C135 1.252 . S
O139 In130 2.326 . S
O139 C135 1.260 . S
C140 O131 1.240 . S
C140 O132 1.252 . S
O141 In130 2.294 . S
O141 C134 1.240 . S
O142 In130 2.326 . S
O142 C134 1.252 . S
In143 O144 2.294 . S
In143 O145 2.326 . S
In143 O149 2.266 . S
In143 O150 2.326 . S
In143 O151 2.266 . S
In143 O152 2.326 . S
In143 O154 2.294 . S
In143 O155 2.326 . S
O144 In143 2.294 . S
O144 C153 1.240 . S
O145 In143 2.326 . S
O145 C153 1.252 . S
C146 O149 1.252 . S
C146 O150 1.260 . S
C147 O154 1.240 . S
C147 O155 1.252 . S
C148 O151 1.252 . S
C148 O152 1.260 . S
O149 In143 2.266 . S
O149 C146 1.252 . S
O150 In143 2.326 . S
O150 C146 1.260 . S
O151 In143 2.266 . S
O151 C148 1.252 . S
O152 In143 2.326 . S
O152 C148 1.260 . S
C153 O144 1.240 . S
C153 O145 1.252 . S
O154 In143 2.294 . S
O154 C147 1.240 . S
O155 In143 2.326 . S
O155 C147 1.252 . S
In156 O157 2.294 . S
In156 O158 2.326 . S
In156 O162 2.266 . S
In156 O163 2.326 . S
In156 O164 2.266 . S
In156 O165 2.326 . S
In156 O167 2.294 . S
In156 O168 2.326 1_554 S
O157 In156 2.294 . S
O157 C166 1.240 . S
O158 In156 2.326 . S
O158 C166 1.252 . S
C159 O162 1.252 . S
C159 O163 1.260 . S
C160 O167 1.240 1_556 S
C160 O168 1.252 . S
C161 O164 1.252 . S
C161 O165 1.260 . S
O162 In156 2.266 . S
O162 C159 1.252 . S
O163 In156 2.326 . S
O163 C159 1.260 . S
O164 In156 2.266 . S
O164 C161 1.252 . S
O165 In156 2.326 . S
O165 C161 1.260 . S
C166 O157 1.240 . S
C166 O158 1.252 . S
O167 In156 2.294 . S
O167 C160 1.240 1_554 S
O168 In156 2.326 1_556 S
O168 C160 1.252 . S
In169 O170 2.294 . S
In169 O171 2.326 . S
In169 O175 2.266 . S
In169 O176 2.326 . S
In169 O177 2.266 . S
In169 O178 2.326 . S
In169 O180 2.294 . S
In169 O181 2.326 . S
O170 In169 2.294 . S
O170 C179 1.240 . S
O171 In169 2.326 . S
O171 C179 1.252 . S
C172 O175 1.252 . S
C172 O176 1.260 . S
C173 O180 1.240 . S
C173 O181 1.252 . S
C174 O177 1.252 . S
C174 O178 1.260 . S
O175 In169 2.266 . S
O175 C172 1.252 . S
O176 In169 2.326 . S
O176 C172 1.260 . S
O177 In169 2.266 . S
O177 C174 1.252 . S
O178 In169 2.326 . S
O178 C174 1.260 . S
C179 O170 1.240 . S
C179 O171 1.252 . S
O180 In169 2.294 . S
O180 C173 1.240 . S
O181 In169 2.326 . S
O181 C173 1.252 . S
In182 O183 2.294 . S
In182 O184 2.326 . S
In182 O188 2.266 . S
In182 O189 2.326 . S
In182 O190 2.266 . S
In182 O191 2.326 . S
In182 O193 2.294 . S
In182 O194 2.326 . S
O183 In182 2.294 . S
O183 C192 1.240 . S
O184 In182 2.326 . S
O184 C192 1.252 . S
C185 O188 1.252 . S
C185 O189 1.260 . S
C186 O193 1.240 . S
C186 O194 1.252 . S
C187 O190 1.252 . S
C187 O191 1.260 . S
O188 In182 2.266 . S
O188 C185 1.252 . S
O189 In182 2.326 . S
O189 C185 1.260 . S
O190 In182 2.266 . S
O190 C187 1.252 . S
O191 In182 2.326 . S
O191 C187 1.260 . S
C192 O183 1.240 . S
C192 O184 1.252 . S
O193 In182 2.294 . S
O193 C186 1.240 . S
O194 In182 2.326 . S
O194 C186 1.252 . S
In195 O196 2.294 . S
In195 O197 2.326 . S
In195 O201 2.266 . S
In195 O202 2.326 . S
In195 O203 2.266 . S
In195 O204 2.326 . S
In195 O206 2.294 . S
In195 O207 2.326 . S
O196 In195 2.294 . S
O196 C205 1.240 . S
O197 In195 2.326 . S
O197 C205 1.252 . S
C198 O201 1.252 . S
C198 O202 1.260 . S
C199 O206 1.240 . S
C199 O207 1.252 . S
C200 O203 1.252 . S
C200 O204 1.260 . S
O201 In195 2.266 . S
O201 C198 1.252 . S
O202 In195 2.326 . S
O202 C198 1.260 . S
O203 In195 2.266 . S
O203 C200 1.252 . S
O204 In195 2.326 . S
O204 C200 1.260 . S
C205 O196 1.240 . S
C205 O197 1.252 . S
O206 In195 2.294 . S
O206 C199 1.240 . S
O207 In195 2.326 . S
O207 C199 1.252 . S
In208 O209 2.294 . S
In208 O210 2.326 . S
In208 O214 2.266 . S
In208 O215 2.326 . S
In208 O216 2.266 . S
In208 O217 2.326 . S
In208 O219 2.294 . S
In208 O220 2.326 . S
O209 In208 2.294 . S
O209 C218 1.240 . S
O210 In208 2.326 . S
O210 C218 1.252 . S
C211 O214 1.252 . S
C211 O215 1.260 . S
C212 O219 1.240 . S
C212 O220 1.252 . S
C213 O216 1.252 . S
C213 O217 1.260 . S
O214 In208 2.266 . S
O214 C211 1.252 . S
O215 In208 2.326 . S
O215 C211 1.260 . S
O216 In208 2.266 . S
O216 C213 1.252 . S
O217 In208 2.326 . S
O217 C213 1.260 . S
C218 O209 1.240 . S
C218 O210 1.252 . S
O219 In208 2.294 . S
O219 C212 1.240 . S
O220 In208 2.326 . S
O220 C212 1.252 . S
In221 O222 2.294 . S
In221 O223 2.326 . S
In221 O227 2.266 . S
In221 O228 2.326 . S
In221 O229 2.266 . S
In221 O230 2.326 . S
In221 O232 2.294 . S
In221 O233 2.326 . S
O222 In221 2.294 . S
O222 C231 1.240 . S
O223 In221 2.326 . S
O223 C231 1.252 . S
C224 O227 1.252 . S
C224 O228 1.260 . S
C225 O232 1.240 . S
C225 O233 1.252 . S
C226 O229 1.252 . S
C226 O230 1.260 . S
O227 In221 2.266 . S
O227 C224 1.252 . S
O228 In221 2.326 . S
O228 C224 1.260 . S
O229 In221 2.266 . S
O229 C226 1.252 . S
O230 In221 2.326 . S
O230 C226 1.260 . S
C231 O222 1.240 . S
C231 O223 1.252 . S
O232 In221 2.294 . S
O232 C225 1.240 . S
O233 In221 2.326 . S
O233 C225 1.252 . S
In234 O235 2.294 . S
In234 O236 2.326 1_554 S
In234 O240 2.266 . S
In234 O241 2.326 . S
In234 O242 2.266 . S
In234 O243 2.326 . S
In234 O245 2.294 . S
In234 O246 2.326 . S
O235 In234 2.294 . S
O235 C244 1.240 1_554 S
O236 In234 2.326 1_556 S
O236 C244 1.252 . S
C237 O240 1.252 . S
C237 O241 1.260 . S
C238 O245 1.240 . S
C238 O246 1.252 . S
C239 O242 1.252 . S
C239 O243 1.260 . S
O240 In234 2.266 . S
O240 C237 1.252 . S
O241 In234 2.326 . S
O241 C237 1.260 . S
O242 In234 2.266 . S
O242 C239 1.252 . S
O243 In234 2.326 . S
O243 C239 1.260 . S
C244 O235 1.240 1_556 S
C244 O236 1.252 . S
O245 In234 2.294 . S
O245 C238 1.240 . S
O246 In234 2.326 . S
O246 C238 1.252 . S
In247 O248 2.294 . S
In247 O249 2.326 . S
In247 O253 2.266 . S
In247 O254 2.326 . S
In247 O255 2.266 . S
In247 O256 2.326 . S
In247 O258 2.294 . S
In247 O259 2.326 . S
O248 In247 2.294 . S
O248 C257 1.240 . S
O249 In247 2.326 . S
O249 C257 1.252 . S
C250 O253 1.252 . S
C250 O254 1.260 . S
C251 O258 1.240 . S
C251 O259 1.252 . S
C252 O255 1.252 . S
C252 O256 1.260 . S
O253 In247 2.266 . S
O253 C250 1.252 . S
O254 In247 2.326 . S
O254 C250 1.260 . S
O255 In247 2.266 . S
O255 C252 1.252 . S
O256 In247 2.326 . S
O256 C252 1.260 . S
C257 O248 1.240 . S
C257 O249 1.252 . S
O258 In247 2.294 . S
O258 C251 1.240 . S
O259 In247 2.326 . S
O259 C251 1.252 . S
In260 O261 2.294 . S
In260 O262 2.326 . S
In260 O266 2.266 . S
In260 O267 2.326 . S
In260 O268 2.266 . S
In260 O269 2.326 . S
In260 O271 2.294 . S
In260 O272 2.326 . S
O261 In260 2.294 . S
O261 C270 1.240 . S
O262 In260 2.326 . S
O262 C270 1.252 . S
C263 O266 1.252 . S
C263 O267 1.260 . S
C264 O271 1.240 . S
C264 O272 1.252 . S
C265 O268 1.252 . S
C265 O269 1.260 . S
O266 In260 2.266 . S
O266 C263 1.252 . S
O267 In260 2.326 . S
O267 C263 1.260 . S
O268 In260 2.266 . S
O268 C265 1.252 . S
O269 In260 2.326 . S
O269 C265 1.260 . S
C270 O261 1.240 . S
C270 O262 1.252 . S
O271 In260 2.294 . S
O271 C264 1.240 . S
O272 In260 2.326 . S
O272 C264 1.252 . S
In273 O274 2.294 . S
In273 O275 2.326 . S
In273 O279 2.266 . S
In273 O280 2.326 . S
In273 O281 2.266 . S
In273 O282 2.326 . S
In273 O284 2.294 . S
In273 O285 2.326 . S
O274 In273 2.294 . S
O274 C283 1.240 . S
O275 In273 2.326 . S
O275 C283 1.252 . S
C276 O279 1.252 . S
C276 O280 1.260 . S
C277 O284 1.240 . S
C277 O285 1.252 . S
C278 O281 1.252 . S
C278 O282 1.260 . S
O279 In273 2.266 . S
O279 C276 1.252 . S
O280 In273 2.326 . S
O280 C276 1.260 . S
O281 In273 2.266 . S
O281 C278 1.252 . S
O282 In273 2.326 . S
O282 C278 1.260 . S
C283 O274 1.240 . S
C283 O275 1.252 . S
O284 In273 2.294 . S
O284 C277 1.240 . S
O285 In273 2.326 . S
O285 C277 1.252 . S
In286 O287 2.294 . S
In286 O288 2.326 . S
In286 O292 2.266 . S
In286 O293 2.326 . S
In286 O294 2.266 . S
In286 O295 2.326 . S
In286 O297 2.294 . S
In286 O298 2.326 . S
O287 In286 2.294 . S
O287 C296 1.240 . S
O288 In286 2.326 . S
O288 C296 1.252 . S
C289 O292 1.252 . S
C289 O293 1.260 . S
C290 O297 1.240 . S
C290 O298 1.252 . S
C291 O294 1.252 . S
C291 O295 1.260 . S
O292 In286 2.266 . S
O292 C289 1.252 . S
O293 In286 2.326 . S
O293 C289 1.260 . S
O294 In286 2.266 . S
O294 C291 1.252 . S
O295 In286 2.326 . S
O295 C291 1.260 . S
C296 O287 1.240 . S
C296 O288 1.252 . S
O297 In286 2.294 . S
O297 C290 1.240 . S
O298 In286 2.326 . S
O298 C290 1.252 . S
In299 O300 2.294 . S
In299 O301 2.326 . S
In299 O305 2.266 . S
In299 O306 2.326 . S
In299 O307 2.266 . S
In299 O308 2.326 . S
In299 O310 2.294 . S
In299 O311 2.326 . S
O300 In299 2.294 . S
O300 C309 1.240 . S
O301 In299 2.326 . S
O301 C309 1.252 . S
C302 O305 1.252 . S
C302 O306 1.260 . S
C303 O310 1.240 . S
C303 O311 1.252 . S
C304 O307 1.252 . S
C304 O308 1.260 . S
O305 In299 2.266 . S
O305 C302 1.252 . S
O306 In299 2.326 . S
O306 C302 1.260 . S
O307 In299 2.266 . S
O307 C304 1.252 . S
O308 In299 2.326 . S
O308 C304 1.260 . S
C309 O300 1.240 . S
C309 O301 1.252 . S
O310 In299 2.294 . S
O310 C303 1.240 . S
O311 In299 2.326 . S
O311 C303 1.252 . S
In312 O313 2.294 . S
In312 O314 2.326 . S
In312 O318 2.266 . S
In312 O319 2.326 . S
In312 O320 2.266 . S
In312 O321 2.326 . S
In312 O323 2.294 . S
In312 O324 2.326 . S
O313 In312 2.294 . S
O313 C322 1.240 . S
O314 In312 2.326 . S
O314 C322 1.252 . S
C315 O318 1.252 . S
C315 O319 1.260 . S
C316 O323 1.240 . S
C316 O324 1.252 . S
C317 O320 1.252 . S
C317 O321 1.260 . S
O318 In312 2.266 . S
O318 C315 1.252 . S
O319 In312 2.326 . S
O319 C315 1.260 . S
O320 In312 2.266 . S
O320 C317 1.252 . S
O321 In312 2.326 . S
O321 C317 1.260 . S
C322 O313 1.240 . S
C322 O314 1.252 . S
O323 In312 2.294 . S
O323 C316 1.240 . S
O324 In312 2.326 . S
O324 C316 1.252 . S
In325 O326 2.294 . S
In325 O327 2.326 . S
In325 O331 2.266 . S
In325 O332 2.326 . S
In325 O333 2.266 . S
In325 O334 2.326 . S
In325 O336 2.294 . S
In325 O337 2.326 . S
O326 In325 2.294 . S
O326 C335 1.240 . S
O327 In325 2.326 . S
O327 C335 1.252 . S
C328 O331 1.252 . S
C328 O332 1.260 . S
C329 O336 1.240 . S
C329 O337 1.252 . S
C330 O333 1.252 . S
C330 O334 1.260 . S
O331 In325 2.266 . S
O331 C328 1.252 . S
O332 In325 2.326 . S
O332 C328 1.260 . S
O333 In325 2.266 . S
O333 C330 1.252 . S
O334 In325 2.326 . S
O334 C330 1.260 . S
C335 O326 1.240 . S
C335 O327 1.252 . S
O336 In325 2.294 . S
O336 C329 1.240 . S
O337 In325 2.326 . S
O337 C329 1.252 . S
In338 O339 2.294 . S
In338 O340 2.326 . S
In338 O344 2.266 . S
In338 O345 2.326 . S
In338 O346 2.266 . S
In338 O347 2.326 . S
In338 O349 2.294 . S
In338 O350 2.326 . S
O339 In338 2.294 . S
O339 C348 1.240 . S
O340 In338 2.326 . S
O340 C348 1.252 . S
C341 O344 1.252 . S
C341 O345 1.260 . S
C342 O349 1.240 . S
C342 O350 1.252 . S
C343 O346 1.252 . S
C343 O347 1.260 . S
O344 In338 2.266 . S
O344 C341 1.252 . S
O345 In338 2.326 . S
O345 C341 1.260 . S
O346 In338 2.266 . S
O346 C343 1.252 . S
O347 In338 2.326 . S
O347 C343 1.260 . S
C348 O339 1.240 . S
C348 O340 1.252 . S
O349 In338 2.294 . S
O349 C342 1.240 . S
O350 In338 2.326 . S
O350 C342 1.252 . S
In351 O352 2.294 . S
In351 O353 2.326 . S
In351 O357 2.266 . S
In351 O358 2.326 . S
In351 O359 2.266 . S
In351 O360 2.326 . S
In351 O362 2.294 . S
In351 O363 2.326 . S
O352 In351 2.294 . S
O352 C361 1.240 . S
O353 In351 2.326 . S
O353 C361 1.252 . S
C354 O357 1.252 . S
C354 O358 1.260 . S
C355 O362 1.240 . S
C355 O363 1.252 . S
C356 O359 1.252 . S
C356 O360 1.260 . S
O357 In351 2.266 . S
O357 C354 1.252 . S
O358 In351 2.326 . S
O358 C354 1.260 . S
O359 In351 2.266 . S
O359 C356 1.252 . S
O360 In351 2.326 . S
O360 C356 1.260 . S
C361 O352 1.240 . S
C361 O353 1.252 . S
O362 In351 2.294 . S
O362 C355 1.240 . S
O363 In351 2.326 . S
O363 C355 1.252 . S
In364 O365 2.294 . S
In364 O366 2.326 . S
In364 O370 2.266 . S
In364 O371 2.326 . S
In364 O372 2.266 . S
In364 O373 2.326 . S
In364 O375 2.294 . S
In364 O376 2.326 . S
O365 In364 2.294 . S
O365 C374 1.240 . S
O366 In364 2.326 . S
O366 C374 1.252 . S
C367 O370 1.252 . S
C367 O371 1.260 . S
C368 O375 1.240 . S
C368 O376 1.252 . S
C369 O372 1.252 . S
C369 O373 1.260 . S
O370 In364 2.266 . S
O370 C367 1.252 . S
O371 In364 2.326 . S
O371 C367 1.260 . S
O372 In364 2.266 . S
O372 C369 1.252 . S
O373 In364 2.326 . S
O373 C369 1.260 . S
C374 O365 1.240 . S
C374 O366 1.252 . S
O375 In364 2.294 . S
O375 C368 1.240 . S
O376 In364 2.326 . S
O376 C368 1.252 . S
In377 O378 2.294 . S
In377 O379 2.326 . S
In377 O383 2.266 . S
In377 O384 2.326 . S
In377 O385 2.266 . S
In377 O386 2.326 . S
In377 O388 2.294 . S
In377 O389 2.326 . S
O378 In377 2.294 . S
O378 C387 1.240 . S
O379 In377 2.326 . S
O379 C387 1.252 . S
C380 O383 1.252 . S
C380 O384 1.260 . S
C381 O388 1.240 . S
C381 O389 1.252 . S
C382 O385 1.252 . S
C382 O386 1.260 . S
O383 In377 2.266 . S
O383 C380 1.252 . S
O384 In377 2.326 . S
O384 C380 1.260 . S
O385 In377 2.266 . S
O385 C382 1.252 . S
O386 In377 2.326 . S
O386 C382 1.260 . S
C387 O378 1.240 . S
C387 O379 1.252 . S
O388 In377 2.294 . S
O388 C381 1.240 . S
O389 In377 2.326 . S
O389 C381 1.252 . S
In390 O391 2.294 . S
In390 O392 2.326 . S
In390 O396 2.266 . S
In390 O397 2.326 . S
In390 O398 2.266 . S
In390 O399 2.326 . S
In390 O401 2.294 . S
In390 O402 2.326 1_554 S
O391 In390 2.294 . S
O391 C400 1.240 . S
O392 In390 2.326 . S
O392 C400 1.252 . S
C393 O396 1.252 . S
C393 O397 1.260 . S
C394 O401 1.240 1_556 S
C394 O402 1.252 . S
C395 O398 1.252 . S
C395 O399 1.260 . S
O396 In390 2.266 . S
O396 C393 1.252 . S
O397 In390 2.326 . S
O397 C393 1.260 . S
O398 In390 2.266 . S
O398 C395 1.252 . S
O399 In390 2.326 . S
O399 C395 1.260 . S
C400 O391 1.240 . S
C400 O392 1.252 . S
O401 In390 2.294 . S
O401 C394 1.240 1_554 S
O402 In390 2.326 1_556 S
O402 C394 1.252 . S
In403 O404 2.294 . S
In403 O405 2.326 . S
In403 O409 2.266 . S
In403 O410 2.326 . S
In403 O411 2.266 . S
In403 O412 2.326 . S
In403 O414 2.294 . S
In403 O415 2.326 . S
O404 In403 2.294 . S
O404 C413 1.240 . S
O405 In403 2.326 . S
O405 C413 1.252 . S
C406 O409 1.252 . S
C406 O410 1.260 . S
C407 O414 1.240 . S
C407 O415 1.252 . S
C408 O411 1.252 . S
C408 O412 1.260 . S
O409 In403 2.266 . S
O409 C406 1.252 . S
O410 In403 2.326 . S
O410 C406 1.260 . S
O411 In403 2.266 . S
O411 C408 1.252 . S
O412 In403 2.326 . S
O412 C408 1.260 . S
C413 O404 1.240 . S
C413 O405 1.252 . S
O414 In403 2.294 . S
O414 C407 1.240 . S
O415 In403 2.326 . S
O415 C407 1.252 . S
C416 C417 1.349 . S
C416 C418 1.327 . S
C416 H441 0.950 . S
C417 C416 1.349 . S
C417 C433 1.349 . S
C418 C416 1.327 . S
C418 C437 1.429 . S
C418 H442 0.950 . S
C419 C436 1.574 . S
C419 C438 1.368 . S
C419 H443 0.949 . S
H420 C424 0.949 . S
C421 C422 1.349 . S
C421 C423 1.327 . S
C421 H444 0.950 . S
C422 C421 1.349 . S
C422 C434 1.349 1_554 S
C423 C421 1.327 . S
C423 C439 1.429 1_554 S
C423 H445 0.950 . S
C424 H420 0.949 . S
C424 C432 1.574 . S
C424 C440 1.368 . S
H425 C433 0.950 . S
H426 C431 0.950 . S
H427 C432 0.949 . S
H428 C434 0.950 . S
H429 C435 0.950 . S
H430 C436 0.949 . S
C431 H426 0.950 . S
C431 C433 1.327 . S
C431 C437 1.429 . S
C432 C424 1.574 . S
C432 H427 0.949 . S
C432 C438 1.368 . S
C433 C417 1.349 . S
C433 H425 0.950 . S
C433 C431 1.327 . S
C434 C422 1.349 1_556 S
C434 H428 0.950 . S
C434 C435 1.327 . S
C435 H429 0.950 . S
C435 C434 1.327 . S
C435 C439 1.429 . S
C436 C419 1.574 . S
C436 H430 0.949 . S
C436 C440 1.368 . S
C437 C418 1.429 . S
C437 C431 1.429 . S
C437 C438 1.523 . S
C438 C419 1.368 . S
C438 C432 1.368 . S
C438 C437 1.523 . S
C439 C423 1.429 1_556 S
C439 C435 1.429 . S
C439 C440 1.523 . S
C440 C424 1.368 . S
C440 C436 1.368 . S
C440 C439 1.523 . S
H441 C416 0.950 . S
H442 C418 0.950 . S
H443 C419 0.949 . S
H444 C421 0.950 . S
H445 C423 0.950 . S
C446 C447 1.349 . S
C446 C448 1.327 . S
C446 H471 0.950 . S
C447 C446 1.349 . S
C447 C463 1.349 . S
C448 C446 1.327 . S
C448 C467 1.429 . S
C448 H472 0.950 . S
C449 C466 1.574 . S
C449 C468 1.368 . S
C449 H473 0.949 . S
H450 C454 0.949 . S
C451 C452 1.349 . S
C451 C453 1.327 . S
C451 H474 0.950 . S
C452 C451 1.349 . S
C452 C464 1.349 . S
C453 C451 1.327 . S
C453 C469 1.429 . S
C453 H475 0.950 . S
C454 H450 0.949 . S
C454 C462 1.574 . S
C454 C470 1.368 . S
H455 C463 0.950 . S
H456 C461 0.950 . S
H457 C462 0.949 . S
H458 C464 0.950 . S
H459 C465 0.950 . S
H460 C466 0.949 . S
C461 H456 0.950 . S
C461 C463 1.327 . S
C461 C467 1.429 . S
C462 C454 1.574 . S
C462 H457 0.949 . S
C462 C468 1.368 . S
C463 C447 1.349 . S
C463 H455 0.950 . S
C463 C461 1.327 . S
C464 C452 1.349 . S
C464 H458 0.950 . S
C464 C465 1.327 . S
C465 H459 0.950 . S
C465 C464 1.327 . S
C465 C469 1.429 . S
C466 C449 1.574 . S
C466 H460 0.949 . S
C466 C470 1.368 . S
C467 C448 1.429 . S
C467 C461 1.429 . S
C467 C468 1.523 . S
C468 C449 1.368 . S
C468 C462 1.368 . S
C468 C467 1.523 . S
C469 C453 1.429 . S
C469 C465 1.429 . S
C469 C470 1.523 . S
C470 C454 1.368 . S
C470 C466 1.368 . S
C470 C469 1.523 . S
H471 C446 0.950 . S
H472 C448 0.950 . S
H473 C449 0.949 . S
H474 C451 0.950 . S
H475 C453 0.950 . S
C476 C477 1.349 . S
C476 C478 1.327 . S
C476 H501 0.950 . S
C477 C476 1.349 . S
C477 C493 1.349 . S
C478 C476 1.327 . S
C478 C497 1.429 . S
C478 H502 0.950 . S
C479 C496 1.574 . S
C479 C498 1.368 . S
C479 H503 0.949 . S
H480 C484 0.949 . S
C481 C482 1.349 . S
C481 C483 1.327 . S
C481 H504 0.950 . S
C482 C481 1.349 . S
C482 C494 1.349 . S
C483 C481 1.327 . S
C483 C499 1.429 . S
C483 H505 0.950 . S
C484 H480 0.949 . S
C484 C492 1.574 . S
C484 C500 1.368 . S
H485 C493 0.950 . S
H486 C491 0.950 . S
H487 C492 0.949 . S
H488 C494 0.950 . S
H489 C495 0.950 . S
H490 C496 0.949 . S
C491 H486 0.950 . S
C491 C493 1.327 . S
C491 C497 1.429 . S
C492 C484 1.574 . S
C492 H487 0.949 . S
C492 C498 1.368 . S
C493 C477 1.349 . S
C493 H485 0.950 . S
C493 C491 1.327 . S
C494 C482 1.349 . S
C494 H488 0.950 . S
C494 C495 1.327 . S
C495 H489 0.950 . S
C495 C494 1.327 . S
C495 C499 1.429 . S
C496 C479 1.574 . S
C496 H490 0.949 . S
C496 C500 1.368 . S
C497 C478 1.429 . S
C497 C491 1.429 . S
C497 C498 1.523 . S
C498 C479 1.368 . S
C498 C492 1.368 . S
C498 C497 1.523 . S
C499 C483 1.429 . S
C499 C495 1.429 . S
C499 C500 1.523 . S
C500 C484 1.368 . S
C500 C496 1.368 . S
C500 C499 1.523 . S
H501 C476 0.950 . S
H502 C478 0.950 . S
H503 C479 0.949 . S
H504 C481 0.950 . S
H505 C483 0.950 . S
C506 C507 1.349 . S
C506 C508 1.327 . S
C506 H531 0.950 . S
C507 C506 1.349 . S
C507 C523 1.349 . S
C508 C506 1.327 . S
C508 C527 1.429 . S
C508 H532 0.950 . S
C509 C526 1.574 . S
C509 C528 1.368 . S
C509 H533 0.949 . S
H510 C514 0.949 . S
C511 C512 1.349 . S
C511 C513 1.327 . S
C511 H534 0.950 . S
C512 C511 1.349 . S
C512 C524 1.349 . S
C513 C511 1.327 . S
C513 C529 1.429 . S
C513 H535 0.950 . S
C514 H510 0.949 . S
C514 C522 1.574 . S
C514 C530 1.368 . S
H515 C523 0.950 . S
H516 C521 0.950 . S
H517 C522 0.949 . S
H518 C524 0.950 . S
H519 C525 0.950 . S
H520 C526 0.949 . S
C521 H516 0.950 . S
C521 C523 1.327 . S
C521 C527 1.429 . S
C522 C514 1.574 . S
C522 H517 0.949 . S
C522 C528 1.368 . S
C523 C507 1.349 . S
C523 H515 0.950 . S
C523 C521 1.327 . S
C524 C512 1.349 . S
C524 H518 0.950 . S
C524 C525 1.327 . S
C525 H519 0.950 . S
C525 C524 1.327 . S
C525 C529 1.429 . S
C526 C509 1.574 . S
C526 H520 0.949 . S
C526 C530 1.368 . S
C527 C508 1.429 . S
C527 C521 1.429 . S
C527 C528 1.523 . S
C528 C509 1.368 . S
C528 C522 1.368 . S
C528 C527 1.523 . S
C529 C513 1.429 . S
C529 C525 1.429 . S
C529 C530 1.523 . S
C530 C514 1.368 . S
C530 C526 1.368 . S
C530 C529 1.523 . S
H531 C506 0.950 . S
H532 C508 0.950 . S
H533 C509 0.949 . S
H534 C511 0.950 . S
H535 C513 0.950 . S
C536 C537 1.349 . S
C536 C538 1.327 . S
C536 H561 0.950 . S
C537 C536 1.349 . S
C537 C553 1.349 . S
C538 C536 1.327 . S
C538 C557 1.429 . S
C538 H562 0.950 . S
C539 C556 1.574 . S
C539 C558 1.368 . S
C539 H563 0.949 . S
H540 C544 0.949 . S
C541 C542 1.349 . S
C541 C543 1.327 . S
C541 H564 0.950 . S
C542 C541 1.349 . S
C542 C554 1.349 . S
C543 C541 1.327 . S
C543 C559 1.429 . S
C543 H565 0.950 . S
C544 H540 0.949 . S
C544 C552 1.574 . S
C544 C560 1.368 . S
H545 C553 0.950 . S
H546 C551 0.950 . S
H547 C552 0.949 . S
H548 C554 0.950 . S
H549 C555 0.950 . S
H550 C556 0.949 . S
C551 H546 0.950 . S
C551 C553 1.327 . S
C551 C557 1.429 . S
C552 C544 1.574 . S
C552 H547 0.949 . S
C552 C558 1.368 . S
C553 C537 1.349 . S
C553 H545 0.950 . S
C553 C551 1.327 . S
C554 C542 1.349 . S
C554 H548 0.950 . S
C554 C555 1.327 . S
C555 H549 0.950 . S
C555 C554 1.327 . S
C555 C559 1.429 . S
C556 C539 1.574 . S
C556 H550 0.949 . S
C556 C560 1.368 . S
C557 C538 1.429 . S
C557 C551 1.429 . S
C557 C558 1.523 . S
C558 C539 1.368 . S
C558 C552 1.368 . S
C558 C557 1.523 . S
C559 C543 1.429 . S
C559 C555 1.429 . S
C559 C560 1.523 . S
C560 C544 1.368 . S
C560 C556 1.368 . S
C560 C559 1.523 . S
H561 C536 0.950 . S
H562 C538 0.950 . S
H563 C539 0.949 . S
H564 C541 0.950 . S
H565 C543 0.950 . S
C566 C567 1.349 . S
C566 C568 1.327 . S
C566 H591 0.950 . S
C567 C566 1.349 . S
C567 C583 1.349 . S
C568 C566 1.327 . S
C568 C587 1.429 . S
C568 H592 0.950 . S
C569 C586 1.574 . S
C569 C588 1.368 . S
C569 H593 0.949 . S
H570 C574 0.949 1_554 S
C571 C572 1.349 1_556 S
C571 C573 1.327 . S
C571 H594 0.950 . S
C572 C571 1.349 1_554 S
C572 C584 1.349 . S
C573 C571 1.327 . S
C573 C589 1.429 . S
C573 H595 0.950 . S
C574 H570 0.949 1_556 S
C574 C582 1.574 . S
C574 C590 1.368 . S
H575 C583 0.950 . S
H576 C581 0.950 . S
H577 C582 0.949 . S
H578 C584 0.950 . S
H579 C585 0.950 . S
H580 C586 0.949 . S
C581 H576 0.950 . S
C581 C583 1.327 . S
C581 C587 1.429 . S
C582 C574 1.574 . S
C582 H577 0.949 . S
C582 C588 1.368 . S
C583 C567 1.349 . S
C583 H575 0.950 . S
C583 C581 1.327 . S
C584 C572 1.349 . S
C584 H578 0.950 . S
C584 C585 1.327 . S
C585 H579 0.950 . S
C585 C584 1.327 . S
C585 C589 1.429 1_554 S
C586 C569 1.574 . S
C586 H580 0.949 . S
C586 C590 1.368 . S
C587 C568 1.429 . S
C587 C581 1.429 . S
C587 C588 1.523 . S
C588 C569 1.368 . S
C588 C582 1.368 . S
C588 C587 1.523 . S
C589 C573 1.429 . S
C589 C585 1.429 1_556 S
C589 C590 1.523 . S
C590 C574 1.368 . S
C590 C586 1.368 . S
C590 C589 1.523 . S
H591 C566 0.950 . S
H592 C568 0.950 . S
H593 C569 0.949 . S
H594 C571 0.950 . S
H595 C573 0.950 . S
C596 C597 1.349 . S
C596 C598 1.327 . S
C596 H621 0.950 . S
C597 C596 1.349 . S
C597 C613 1.349 . S
C598 C596 1.327 . S
C598 C617 1.429 . S
C598 H622 0.950 . S
C599 C616 1.574 . S
C599 C618 1.368 . S
C599 H623 0.949 . S
H600 C604 0.949 . S
C601 C602 1.349 . S
C601 C603 1.327 . S
C601 H624 0.950 . S
C602 C601 1.349 . S
C602 C614 1.349 . S
C603 C601 1.327 . S
C603 C619 1.429 . S
C603 H625 0.950 . S
C604 H600 0.949 . S
C604 C612 1.574 . S
C604 C620 1.368 . S
H605 C613 0.950 . S
H606 C611 0.950 . S
H607 C612 0.949 . S
H608 C614 0.950 . S
H609 C615 0.950 . S
H610 C616 0.949 . S
C611 H606 0.950 . S
C611 C613 1.327 . S
C611 C617 1.429 . S
C612 C604 1.574 . S
C612 H607 0.949 . S
C612 C618 1.368 . S
C613 C597 1.349 . S
C613 H605 0.950 . S
C613 C611 1.327 . S
C614 C602 1.349 . S
C614 H608 0.950 . S
C614 C615 1.327 . S
C615 H609 0.950 . S
C615 C614 1.327 . S
C615 C619 1.429 . S
C616 C599 1.574 . S
C616 H610 0.949 . S
C616 C620 1.368 . S
C617 C598 1.429 . S
C617 C611 1.429 . S
C617 C618 1.523 . S
C618 C599 1.368 . S
C618 C612 1.368 . S
C618 C617 1.523 . S
C619 C603 1.429 . S
C619 C615 1.429 . S
C619 C620 1.523 . S
C620 C604 1.368 . S
C620 C616 1.368 . S
C620 C619 1.523 . S
H621 C596 0.950 . S
H622 C598 0.950 . S
H623 C599 0.949 . S
H624 C601 0.950 . S
H625 C603 0.950 . S
C626 C627 1.349 . S
C626 C628 1.327 . S
C626 H651 0.950 . S
C627 C626 1.349 . S
C627 C643 1.349 . S
C628 C626 1.327 . S
C628 C647 1.429 . S
C628 H652 0.950 . S
C629 C646 1.574 . S
C629 C648 1.368 . S
C629 H653 0.949 . S
H630 C634 0.949 . S
C631 C632 1.349 . S
C631 C633 1.327 . S
C631 H654 0.950 . S
C632 C631 1.349 . S
C632 C644 1.349 . S
C633 C631 1.327 . S
C633 C649 1.429 . S
C633 H655 0.950 . S
C634 H630 0.949 . S
C634 C642 1.574 . S
C634 C650 1.368 . S
H635 C643 0.950 . S
H636 C641 0.950 . S
H637 C642 0.949 . S
H638 C644 0.950 . S
H639 C645 0.950 . S
H640 C646 0.949 . S
C641 H636 0.950 . S
C641 C643 1.327 . S
C641 C647 1.429 . S
C642 C634 1.574 . S
C642 H637 0.949 . S
C642 C648 1.368 . S
C643 C627 1.349 . S
C643 H635 0.950 . S
C643 C641 1.327 . S
C644 C632 1.349 . S
C644 H638 0.950 . S
C644 C645 1.327 . S
C645 H639 0.950 . S
C645 C644 1.327 . S
C645 C649 1.429 . S
C646 C629 1.574 . S
C646 H640 0.949 . S
C646 C650 1.368 . S
C647 C628 1.429 . S
C647 C641 1.429 . S
C647 C648 1.523 . S
C648 C629 1.368 . S
C648 C642 1.368 . S
C648 C647 1.523 . S
C649 C633 1.429 . S
C649 C645 1.429 . S
C649 C650 1.523 . S
C650 C634 1.368 . S
C650 C646 1.368 . S
C650 C649 1.523 . S
H651 C626 0.950 . S
H652 C628 0.950 . S
H653 C629 0.949 . S
H654 C631 0.950 . S
H655 C633 0.950 . S
C656 C657 1.349 . S
C656 C658 1.327 . S
C656 H681 0.950 . S
C657 C656 1.349 . S
C657 C673 1.349 . S
C658 C656 1.327 . S
C658 C677 1.429 . S
C658 H682 0.950 . S
C659 C676 1.574 . S
C659 C678 1.368 . S
C659 H683 0.949 . S
H660 C664 0.949 . S
C661 C662 1.349 . S
C661 C663 1.327 . S
C661 H684 0.950 . S
C662 C661 1.349 . S
C662 C674 1.349 . S
C663 C661 1.327 . S
C663 C679 1.429 . S
C663 H685 0.950 . S
C664 H660 0.949 . S
C664 C672 1.574 . S
C664 C680 1.368 . S
H665 C673 0.950 . S
H666 C671 0.950 . S
H667 C672 0.949 . S
H668 C674 0.950 . S
H669 C675 0.950 . S
H670 C676 0.949 . S
C671 H666 0.950 . S
C671 C673 1.327 . S
C671 C677 1.429 . S
C672 C664 1.574 . S
C672 H667 0.949 . S
C672 C678 1.368 . S
C673 C657 1.349 . S
C673 H665 0.950 . S
C673 C671 1.327 . S
C674 C662 1.349 . S
C674 H668 0.950 . S
C674 C675 1.327 . S
C675 H669 0.950 . S
C675 C674 1.327 . S
C675 C679 1.429 . S
C676 C659 1.574 . S
C676 H670 0.949 . S
C676 C680 1.368 . S
C677 C658 1.429 . S
C677 C671 1.429 . S
C677 C678 1.523 . S
C678 C659 1.368 . S
C678 C672 1.368 . S
C678 C677 1.523 . S
C679 C663 1.429 . S
C679 C675 1.429 . S
C679 C680 1.523 . S
C680 C664 1.368 . S
C680 C676 1.368 . S
C680 C679 1.523 . S
H681 C656 0.950 . S
H682 C658 0.950 . S
H683 C659 0.949 . S
H684 C661 0.950 . S
H685 C663 0.950 . S
C686 C687 1.349 . S
C686 C688 1.327 . S
C686 H711 0.950 . S
C687 C686 1.349 . S
C687 C703 1.349 . S
C688 C686 1.327 . S
C688 C707 1.429 . S
C688 H712 0.950 . S
C689 C706 1.574 . S
C689 C708 1.368 . S
C689 H713 0.949 . S
H690 C694 0.949 . S
C691 C692 1.349 . S
C691 C693 1.327 . S
C691 H714 0.950 . S
C692 C691 1.349 . S
C692 C704 1.349 . S
C693 C691 1.327 . S
C693 C709 1.429 . S
C693 H715 0.950 . S
C694 H690 0.949 . S
C694 C702 1.574 . S
C694 C710 1.368 . S
H695 C703 0.950 . S
H696 C701 0.950 . S
H697 C702 0.949 . S
H698 C704 0.950 . S
H699 C705 0.950 . S
H700 C706 0.949 . S
C701 H696 0.950 . S
C701 C703 1.327 . S
C701 C707 1.429 . S
C702 C694 1.574 . S
C702 H697 0.949 . S
C702 C708 1.368 . S
C703 C687 1.349 . S
C703 H695 0.950 . S
C703 C701 1.327 . S
C704 C692 1.349 . S
C704 H698 0.950 . S
C704 C705 1.327 . S
C705 H699 0.950 . S
C705 C704 1.327 . S
C705 C709 1.429 . S
C706 C689 1.574 . S
C706 H700 0.949 . S
C706 C710 1.368 . S
C707 C688 1.429 . S
C707 C701 1.429 . S
C707 C708 1.523 . S
C708 C689 1.368 . S
C708 C702 1.368 . S
C708 C707 1.523 . S
C709 C693 1.429 . S
C709 C705 1.429 . S
C709 C710 1.523 . S
C710 C694 1.368 . S
C710 C706 1.368 . S
C710 C709 1.523 . S
H711 C686 0.950 . S
H712 C688 0.950 . S
H713 C689 0.949 . S
H714 C691 0.950 . S
H715 C693 0.950 . S
C716 C717 1.349 . S
C716 C718 1.327 . S
C716 H741 0.950 . S
C717 C716 1.349 . S
C717 C733 1.349 . S
C718 C716 1.327 . S
C718 C737 1.429 . S
C718 H742 0.950 . S
C719 C736 1.574 . S
C719 C738 1.368 . S
C719 H743 0.949 . S
H720 C724 0.949 . S
C721 C722 1.349 1_556 S
C721 C723 1.327 . S
C721 H744 0.950 . S
C722 C721 1.349 1_554 S
C722 C734 1.349 . S
C723 C721 1.327 . S
C723 C739 1.429 . S
C723 H745 0.950 . S
C724 H720 0.949 . S
C724 C732 1.574 . S
C724 C740 1.368 . S
H725 C733 0.950 . S
H726 C731 0.950 . S
H727 C732 0.949 . S
H728 C734 0.950 . S
H729 C735 0.950 . S
H730 C736 0.949 . S
C731 H726 0.950 . S
C731 C733 1.327 . S
C731 C737 1.429 . S
C732 C724 1.574 . S
C732 H727 0.949 . S
C732 C738 1.368 . S
C733 C717 1.349 . S
C733 H725 0.950 . S
C733 C731 1.327 . S
C734 C722 1.349 . S
C734 H728 0.950 . S
C734 C735 1.327 . S
C735 H729 0.950 . S
C735 C734 1.327 . S
C735 C739 1.429 1_554 S
C736 C719 1.574 . S
C736 H730 0.949 . S
C736 C740 1.368 . S
C737 C718 1.429 . S
C737 C731 1.429 . S
C737 C738 1.523 . S
C738 C719 1.368 . S
C738 C732 1.368 . S
C738 C737 1.523 . S
C739 C723 1.429 . S
C739 C735 1.429 1_556 S
C739 C740 1.523 . S
C740 C724 1.368 . S
C740 C736 1.368 . S
C740 C739 1.523 . S
H741 C716 0.950 . S
H742 C718 0.950 . S
H743 C719 0.949 . S
H744 C721 0.950 . S
H745 C723 0.950 . S
C746 C747 1.349 . S
C746 C748 1.327 . S
C746 H771 0.950 . S
C747 C746 1.349 . S
C747 C763 1.349 . S
C748 C746 1.327 . S
C748 C767 1.429 . S
C748 H772 0.950 . S
C749 C766 1.574 . S
C749 C768 1.368 . S
C749 H773 0.949 . S
H750 C754 0.949 . S
C751 C752 1.349 . S
C751 C753 1.327 . S
C751 H774 0.950 . S
C752 C751 1.349 . S
C752 C764 1.349 . S
C753 C751 1.327 . S
C753 C769 1.429 . S
C753 H775 0.950 . S
C754 H750 0.949 . S
C754 C762 1.574 . S
C754 C770 1.368 . S
H755 C763 0.950 . S
H756 C761 0.950 . S
H757 C762 0.949 . S
H758 C764 0.950 . S
H759 C765 0.950 . S
H760 C766 0.949 . S
C761 H756 0.950 . S
C761 C763 1.327 . S
C761 C767 1.429 . S
C762 C754 1.574 . S
C762 H757 0.949 . S
C762 C768 1.368 . S
C763 C747 1.349 . S
C763 H755 0.950 . S
C763 C761 1.327 . S
C764 C752 1.349 . S
C764 H758 0.950 . S
C764 C765 1.327 . S
C765 H759 0.950 . S
C765 C764 1.327 . S
C765 C769 1.429 . S
C766 C749 1.574 . S
C766 H760 0.949 . S
C766 C770 1.368 . S
C767 C748 1.429 . S
C767 C761 1.429 . S
C767 C768 1.523 . S
C768 C749 1.368 . S
C768 C762 1.368 . S
C768 C767 1.523 . S
C769 C753 1.429 . S
C769 C765 1.429 . S
C769 C770 1.523 . S
C770 C754 1.368 . S
C770 C766 1.368 . S
C770 C769 1.523 . S
H771 C746 0.950 . S
H772 C748 0.950 . S
H773 C749 0.949 . S
H774 C751 0.950 . S
H775 C753 0.950 . S
C776 C777 1.349 . S
C776 C778 1.327 . S
C776 H801 0.950 . S
C777 C776 1.349 . S
C777 C793 1.349 . S
C778 C776 1.327 . S
C778 C797 1.429 . S
C778 H802 0.950 . S
C779 C796 1.574 . S
C779 C798 1.368 . S
C779 H803 0.949 . S
H780 C784 0.949 . S
C781 C782 1.349 . S
C781 C783 1.327 . S
C781 H804 0.950 . S
C782 C781 1.349 . S
C782 C794 1.349 . S
C783 C781 1.327 . S
C783 C799 1.429 . S
C783 H805 0.950 . S
C784 H780 0.949 . S
C784 C792 1.574 . S
C784 C800 1.368 . S
H785 C793 0.950 . S
H786 C791 0.950 . S
H787 C792 0.949 . S
H788 C794 0.950 . S
H789 C795 0.950 . S
H790 C796 0.949 . S
C791 H786 0.950 . S
C791 C793 1.327 . S
C791 C797 1.429 . S
C792 C784 1.574 . S
C792 H787 0.949 . S
C792 C798 1.368 . S
C793 C777 1.349 . S
C793 H785 0.950 . S
C793 C791 1.327 . S
C794 C782 1.349 . S
C794 H788 0.950 . S
C794 C795 1.327 . S
C795 H789 0.950 . S
C795 C794 1.327 . S
C795 C799 1.429 . S
C796 C779 1.574 . S
C796 H790 0.949 . S
C796 C800 1.368 . S
C797 C778 1.429 . S
C797 C791 1.429 . S
C797 C798 1.523 . S
C798 C779 1.368 . S
C798 C792 1.368 . S
C798 C797 1.523 . S
C799 C783 1.429 . S
C799 C795 1.429 . S
C799 C800 1.523 . S
C800 C784 1.368 . S
C800 C796 1.368 . S
C800 C799 1.523 . S
H801 C776 0.950 . S
H802 C778 0.950 . S
H803 C779 0.949 . S
H804 C781 0.950 . S
H805 C783 0.950 . S
C806 C807 1.349 . S
C806 C808 1.327 . S
C806 H831 0.950 . S
C807 C806 1.349 . S
C807 C823 1.349 . S
C808 C806 1.327 . S
C808 C827 1.429 . S
C808 H832 0.950 . S
C809 C826 1.574 . S
C809 C828 1.368 . S
C809 H833 0.949 . S
H810 C814 0.949 . S
C811 C812 1.349 . S
C811 C813 1.327 . S
C811 H834 0.950 . S
C812 C811 1.349 . S
C812 C824 1.349 . S
C813 C811 1.327 . S
C813 C829 1.429 . S
C813 H835 0.950 . S
C814 H810 0.949 . S
C814 C822 1.574 . S
C814 C830 1.368 . S
H815 C823 0.950 . S
H816 C821 0.950 . S
H817 C822 0.949 . S
H818 C824 0.950 . S
H819 C825 0.950 . S
H820 C826 0.949 . S
C821 H816 0.950 . S
C821 C823 1.327 . S
C821 C827 1.429 . S
C822 C814 1.574 . S
C822 H817 0.949 . S
C822 C828 1.368 . S
C823 C807 1.349 . S
C823 H815 0.950 . S
C823 C821 1.327 . S
C824 C812 1.349 . S
C824 H818 0.950 . S
C824 C825 1.327 . S
C825 H819 0.950 . S
C825 C824 1.327 . S
C825 C829 1.429 . S
C826 C809 1.574 . S
C826 H820 0.949 . S
C826 C830 1.368 . S
C827 C808 1.429 . S
C827 C821 1.429 . S
C827 C828 1.523 . S
C828 C809 1.368 . S
C828 C822 1.368 . S
C828 C827 1.523 . S
C829 C813 1.429 . S
C829 C825 1.429 . S
C829 C830 1.523 . S
C830 C814 1.368 . S
C830 C826 1.368 . S
C830 C829 1.523 . S
H831 C806 0.950 . S
H832 C808 0.950 . S
H833 C809 0.949 . S
H834 C811 0.950 . S
H835 C813 0.950 . S
C836 C837 1.349 . S
C836 C838 1.327 . S
C836 H861 0.950 . S
C837 C836 1.349 . S
C837 C853 1.349 . S
C838 C836 1.327 . S
C838 C857 1.429 . S
C838 H862 0.950 . S
C839 C856 1.574 . S
C839 C858 1.368 . S
C839 H863 0.949 . S
H840 C844 0.949 . S
C841 C842 1.349 . S
C841 C843 1.327 . S
C841 H864 0.950 . S
C842 C841 1.349 . S
C842 C854 1.349 . S
C843 C841 1.327 . S
C843 C859 1.429 . S
C843 H865 0.950 . S
C844 H840 0.949 . S
C844 C852 1.574 . S
C844 C860 1.368 . S
H845 C853 0.950 . S
H846 C851 0.950 . S
H847 C852 0.949 . S
H848 C854 0.950 . S
H849 C855 0.950 . S
H850 C856 0.949 . S
C851 H846 0.950 . S
C851 C853 1.327 . S
C851 C857 1.429 . S
C852 C844 1.574 . S
C852 H847 0.949 . S
C852 C858 1.368 . S
C853 C837 1.349 . S
C853 H845 0.950 . S
C853 C851 1.327 . S
C854 C842 1.349 . S
C854 H848 0.950 . S
C854 C855 1.327 . S
C855 H849 0.950 . S
C855 C854 1.327 . S
C855 C859 1.429 . S
C856 C839 1.574 . S
C856 H850 0.949 . S
C856 C860 1.368 . S
C857 C838 1.429 . S
C857 C851 1.429 . S
C857 C858 1.523 . S
C858 C839 1.368 . S
C858 C852 1.368 . S
C858 C857 1.523 . S
C859 C843 1.429 . S
C859 C855 1.429 . S
C859 C860 1.523 . S
C860 C844 1.368 . S
C860 C856 1.368 . S
C860 C859 1.523 . S
H861 C836 0.950 . S
H862 C838 0.950 . S
H863 C839 0.949 . S
H864 C841 0.950 . S
H865 C843 0.950 . S
C866 C867 1.349 . S
C866 C868 1.327 . S
C866 H891 0.950 . S
C867 C866 1.349 . S
C867 C883 1.349 . S
C868 C866 1.327 . S
C868 C887 1.429 . S
C868 H892 0.950 . S
C869 C886 1.574 . S
C869 C888 1.368 . S
C869 H893 0.949 . S
H870 C874 0.949 . S
C871 C872 1.349 . S
C871 C873 1.327 . S
C871 H894 0.950 . S
C872 C871 1.349 . S
C872 C884 1.349 1_554 S
C873 C871 1.327 . S
C873 C889 1.429 1_554 S
C873 H895 0.950 . S
C874 H870 0.949 . S
C874 C882 1.574 . S
C874 C890 1.368 . S
H875 C883 0.950 . S
H876 C881 0.950 . S
H877 C882 0.949 . S
H878 C884 0.950 . S
H879 C885 0.950 . S
H880 C886 0.949 . S
C881 H876 0.950 . S
C881 C883 1.327 . S
C881 C887 1.429 . S
C882 C874 1.574 . S
C882 H877 0.949 . S
C882 C888 1.368 . S
C883 C867 1.349 . S
C883 H875 0.950 . S
C883 C881 1.327 . S
C884 C872 1.349 1_556 S
C884 H878 0.950 . S
C884 C885 1.327 . S
C885 H879 0.950 . S
C885 C884 1.327 . S
C885 C889 1.429 . S
C886 C869 1.574 . S
C886 H880 0.949 . S
C886 C890 1.368 . S
C887 C868 1.429 . S
C887 C881 1.429 . S
C887 C888 1.523 . S
C888 C869 1.368 . S
C888 C882 1.368 . S
C888 C887 1.523 . S
C889 C873 1.429 1_556 S
C889 C885 1.429 . S
C889 C890 1.523 . S
C890 C874 1.368 . S
C890 C886 1.368 . S
C890 C889 1.523 . S
H891 C866 0.950 . S
H892 C868 0.950 . S
H893 C869 0.949 . S
H894 C871 0.950 . S
H895 C873 0.950 . S
C896 C897 1.349 . S
C896 C898 1.327 . S
C896 H921 0.950 . S
C897 C896 1.349 . S
C897 C913 1.349 . S
C898 C896 1.327 . S
C898 C917 1.429 . S
C898 H922 0.950 . S
C899 C916 1.574 . S
C899 C918 1.368 . S
C899 H923 0.949 . S
H900 C904 0.949 . S
C901 C902 1.349 . S
C901 C903 1.327 . S
C901 H924 0.950 . S
C902 C901 1.349 . S
C902 C914 1.349 . S
C903 C901 1.327 . S
C903 C919 1.429 . S
C903 H925 0.950 . S
C904 H900 0.949 . S
C904 C912 1.574 . S
C904 C920 1.368 . S
H905 C913 0.950 . S
H906 C911 0.950 . S
H907 C912 0.949 . S
H908 C914 0.950 . S
H909 C915 0.950 . S
H910 C916 0.949 . S
C911 H906 0.950 . S
C911 C913 1.327 . S
C911 C917 1.429 . S
C912 C904 1.574 . S
C912 H907 0.949 . S
C912 C918 1.368 . S
C913 C897 1.349 . S
C913 H905 0.950 . S
C913 C911 1.327 . S
C914 C902 1.349 . S
C914 H908 0.950 . S
C914 C915 1.327 . S
C915 H909 0.950 . S
C915 C914 1.327 . S
C915 C919 1.429 . S
C916 C899 1.574 . S
C916 H910 0.949 . S
C916 C920 1.368 . S
C917 C898 1.429 . S
C917 C911 1.429 . S
C917 C918 1.523 . S
C918 C899 1.368 . S
C918 C912 1.368 . S
C918 C917 1.523 . S
C919 C903 1.429 . S
C919 C915 1.429 . S
C919 C920 1.523 . S
C920 C904 1.368 . S
C920 C916 1.368 . S
C920 C919 1.523 . S
H921 C896 0.950 . S
H922 C898 0.950 . S
H923 C899 0.949 . S
H924 C901 0.950 . S
H925 C903 0.950 . S
C926 C927 1.349 . S
C926 C928 1.327 . S
C926 H951 0.950 . S
C927 C926 1.349 . S
C927 C943 1.349 . S
C928 C926 1.327 . S
C928 C947 1.429 . S
C928 H952 0.950 . S
C929 C946 1.574 . S
C929 C948 1.368 1_545 S
C929 H953 0.949 . S
H930 C934 0.949 . S
C931 C932 1.349 . S
C931 C933 1.327 . S
C931 H954 0.950 . S
C932 C931 1.349 . S
C932 C944 1.349 . S
C933 C931 1.327 . S
C933 C949 1.429 . S
C933 H955 0.950 . S
C934 H930 0.949 . S
C934 C942 1.574 . S
C934 C950 1.368 1_565 S
H935 C943 0.950 . S
H936 C941 0.940 1_545 S
H937 C942 0.949 . S
H938 C944 0.950 . S
H939 C945 0.940 1_565 S
H940 C946 0.949 . S
C941 H936 0.940 1_565 S
C941 C943 1.327 . S
C941 C947 1.429 . S
C942 C934 1.574 . S
C942 H937 0.949 . S
C942 C948 1.368 . S
C943 C927 1.349 . S
C943 H935 0.950 . S
C943 C941 1.327 . S
C944 C932 1.349 . S
C944 H938 0.950 . S
C944 C945 1.327 . S
C945 H939 0.940 1_545 S
C945 C944 1.327 . S
C945 C949 1.429 . S
C946 C929 1.574 . S
C946 H940 0.949 . S
C946 C950 1.368 . S
C947 C928 1.429 . S
C947 C941 1.429 . S
C947 C948 1.523 . S
C948 C929 1.368 1_565 S
C948 C942 1.368 . S
C948 C947 1.523 . S
C949 C933 1.429 . S
C949 C945 1.429 . S
C949 C950 1.523 1_556 S
C950 C934 1.368 1_545 S
C950 C946 1.368 . S
C950 C949 1.523 1_554 S
H951 C926 0.950 . S
H952 C928 0.950 . S
H953 C929 0.949 . S
H954 C931 0.950 . S
H955 C933 0.950 . S
C956 C957 1.349 . S
C956 C958 1.327 . S
C956 H981 0.950 . S
C957 C956 1.349 . S
C957 C973 1.349 . S
C958 C956 1.327 . S
C958 C977 1.429 . S
C958 H982 0.950 . S
C959 C976 1.574 . S
C959 C978 1.368 . S
C959 H983 0.949 . S
H960 C964 0.949 . S
C961 C962 1.349 . S
C961 C963 1.327 . S
C961 H984 0.950 . S
C962 C961 1.349 . S
C962 C974 1.349 . S
C963 C961 1.327 . S
C963 C979 1.429 . S
C963 H985 0.950 . S
C964 H960 0.949 . S
C964 C972 1.574 . S
C964 C980 1.368 . S
H965 C973 0.950 . S
H966 C971 0.950 . S
H967 C972 0.949 . S
H968 C974 0.950 . S
H969 C975 0.950 . S
H970 C976 0.949 . S
C971 H966 0.950 . S
C971 C973 1.327 . S
C971 C977 1.429 . S
C972 C964 1.574 . S
C972 H967 0.949 . S
C972 C978 1.368 . S
C973 C957 1.349 . S
C973 H965 0.950 . S
C973 C971 1.327 . S
C974 C962 1.349 . S
C974 H968 0.950 . S
C974 C975 1.327 . S
C975 H969 0.950 . S
C975 C974 1.327 . S
C975 C979 1.429 . S
C976 C959 1.574 . S
C976 H970 0.949 . S
C976 C980 1.368 . S
C977 C958 1.429 . S
C977 C971 1.429 . S
C977 C978 1.523 . S
C978 C959 1.368 . S
C978 C972 1.368 . S
C978 C977 1.523 . S
C979 C963 1.429 . S
C979 C975 1.429 . S
C979 C980 1.523 . S
C980 C964 1.368 . S
C980 C976 1.368 . S
C980 C979 1.523 . S
H981 C956 0.950 . S
H982 C958 0.950 . S
H983 C959 0.949 . S
H984 C961 0.950 . S
H985 C963 0.950 . S
C986 C987 1.349 . S
C986 C988 1.327 . S
C986 H1011 0.950 . S
C987 C986 1.349 . S
C987 C1003 1.349 . S
C988 C986 1.327 . S
C988 C1007 1.429 . S
C988 H1012 0.950 . S
C989 C1006 1.574 . S
C989 C1008 1.368 1_565 S
C989 H1013 0.949 . S
H990 C994 0.949 . S
C991 C992 1.349 . S
C991 C993 1.327 . S
C991 H1014 0.950 . S
C992 C991 1.349 . S
C992 C1004 1.349 . S
C993 C991 1.327 . S
C993 C1009 1.429 . S
C993 H1015 0.950 . S
C994 H990 0.949 . S
C994 C1002 1.574 . S
C994 C1010 1.368 1_545 S
H995 C1003 0.950 . S
H996 C1001 0.950 1_565 S
H997 C1002 0.949 . S
H998 C1004 0.950 . S
H999 C1005 0.950 1_545 S
H1000 C1006 0.949 . S
C1001 H996 0.950 1_545 S
C1001 C1003 1.327 . S
C1001 C1007 1.429 . S
C1002 C994 1.574 . S
C1002 H997 0.949 . S
C1002 C1008 1.368 . S
C1003 C987 1.349 . S
C1003 H995 0.950 . S
C1003 C1001 1.327 . S
C1004 C992 1.349 . S
C1004 H998 0.950 . S
C1004 C1005 1.327 . S
C1005 H999 0.950 1_565 S
C1005 C1004 1.327 . S
C1005 C1009 1.429 . S
C1006 C989 1.574 . S
C1006 H1000 0.949 . S
C1006 C1010 1.368 . S
C1007 C988 1.429 . S
C1007 C1001 1.429 . S
C1007 C1008 1.523 . S
C1008 C989 1.368 1_545 S
C1008 C1002 1.368 . S
C1008 C1007 1.523 . S
C1009 C993 1.429 . S
C1009 C1005 1.429 . S
C1009 C1010 1.523 . S
C1010 C994 1.368 1_565 S
C1010 C1006 1.368 . S
C1010 C1009 1.523 . S
H1011 C986 0.950 . S
H1012 C988 0.950 . S
H1013 C989 0.949 . S
H1014 C991 0.950 . S
H1015 C993 0.950 . S
C1016 C1017 1.349 . S
C1016 C1018 1.327 . S
C1016 H1041 0.950 . S
C1017 C1016 1.349 . S
C1017 C1033 1.349 . S
C1018 C1016 1.327 . S
C1018 C1037 1.429 . S
C1018 H1042 0.950 . S
C1019 C1036 1.574 . S
C1019 C1038 1.368 . S
C1019 H1043 0.949 . S
H1020 C1024 0.949 . S
C1021 C1022 1.349 . S
C1021 C1023 1.327 . S
C1021 H1044 0.950 . S
C1022 C1021 1.349 . S
C1022 C1034 1.349 . S
C1023 C1021 1.327 . S
C1023 C1039 1.429 . S
C1023 H1045 0.950 . S
C1024 H1020 0.949 . S
C1024 C1032 1.574 . S
C1024 C1040 1.368 . S
H1025 C1033 0.950 . S
H1026 C1031 0.950 . S
H1027 C1032 0.949 . S
H1028 C1034 0.950 . S
H1029 C1035 0.950 . S
H1030 C1036 0.949 . S
C1031 H1026 0.950 . S
C1031 C1033 1.327 . S
C1031 C1037 1.429 . S
C1032 C1024 1.574 . S
C1032 H1027 0.949 . S
C1032 C1038 1.368 . S
C1033 C1017 1.349 . S
C1033 H1025 0.950 . S
C1033 C1031 1.327 . S
C1034 C1022 1.349 . S
C1034 H1028 0.950 . S
C1034 C1035 1.327 . S
C1035 H1029 0.950 . S
C1035 C1034 1.327 . S
C1035 C1039 1.429 . S
C1036 C1019 1.574 . S
C1036 H1030 0.949 . S
C1036 C1040 1.368 . S
C1037 C1018 1.429 . S
C1037 C1031 1.429 . S
C1037 C1038 1.523 . S
C1038 C1019 1.368 . S
C1038 C1032 1.368 . S
C1038 C1037 1.523 . S
C1039 C1023 1.429 . S
C1039 C1035 1.429 . S
C1039 C1040 1.523 . S
C1040 C1024 1.368 . S
C1040 C1036 1.368 . S
C1040 C1039 1.523 . S
H1041 C1016 0.950 . S
H1042 C1018 0.950 . S
H1043 C1019 0.949 . S
H1044 C1021 0.950 . S
H1045 C1023 0.950 . S
C1046 C1047 1.349 . S
C1046 C1048 1.334 . S
C1046 H1071 0.950 1_545 S
C1047 C1046 1.349 . S
C1047 C1063 1.349 . S
C1048 C1046 1.334 . S
C1048 C1067 1.441 . S
C1048 H1072 0.930 1_545 S
C1049 C1066 1.574 . S
C1049 C1068 1.368 . S
C1049 H1073 0.949 . S
H1050 C1054 0.949 . S
C1051 C1052 1.349 . S
C1051 C1053 1.334 . S
C1051 H1074 0.950 1_565 S
C1052 C1051 1.349 . S
C1052 C1064 1.349 . S
C1053 C1051 1.334 . S
C1053 C1069 1.441 . S
C1053 H1075 0.930 1_565 S
C1054 H1050 0.949 . S
C1054 C1062 1.574 . S
C1054 C1070 1.368 . S
H1055 C1063 0.950 . S
H1056 C1061 0.950 . S
H1057 C1062 0.949 . S
H1058 C1064 0.950 . S
H1059 C1065 0.950 . S
H1060 C1066 0.949 . S
C1061 H1056 0.950 . S
C1061 C1063 1.327 . S
C1061 C1067 1.429 . S
C1062 C1054 1.574 . S
C1062 H1057 0.949 . S
C1062 C1068 1.368 1_565 S
C1063 C1047 1.349 . S
C1063 H1055 0.950 . S
C1063 C1061 1.327 . S
C1064 C1052 1.349 . S
C1064 H1058 0.950 . S
C1064 C1065 1.327 . S
C1065 H1059 0.950 . S
C1065 C1064 1.327 . S
C1065 C1069 1.429 . S
C1066 C1049 1.574 . S
C1066 H1060 0.949 . S
C1066 C1070 1.368 1_545 S
C1067 C1048 1.441 . S
C1067 C1061 1.429 . S
C1067 C1068 1.523 1_556 S
C1068 C1049 1.368 . S
C1068 C1062 1.368 1_545 S
C1068 C1067 1.523 1_554 S
C1069 C1053 1.441 . S
C1069 C1065 1.429 . S
C1069 C1070 1.523 . S
C1070 C1054 1.368 . S
C1070 C1066 1.368 1_565 S
C1070 C1069 1.523 . S
H1071 C1046 0.950 1_565 S
H1072 C1048 0.930 1_565 S
H1073 C1049 0.949 . S
H1074 C1051 0.950 1_545 S
H1075 C1053 0.930 1_545 S
C1076 C1077 1.349 . S
C1076 C1078 1.327 . S
C1076 H1101 0.950 . S
C1077 C1076 1.349 . S
C1077 C1093 1.349 . S
C1078 C1076 1.327 . S
C1078 C1097 1.429 . S
C1078 H1102 0.950 . S
C1079 C1096 1.574 . S
C1079 C1098 1.368 . S
C1079 H1103 0.949 . S
H1080 C1084 0.949 . S
C1081 C1082 1.349 . S
C1081 C1083 1.327 . S
C1081 H1104 0.950 . S
C1082 C1081 1.349 . S
C1082 C1094 1.349 . S
C1083 C1081 1.327 . S
C1083 C1099 1.429 . S
C1083 H1105 0.950 . S
C1084 H1080 0.949 . S
C1084 C1092 1.574 . S
C1084 C1100 1.368 . S
H1085 C1093 0.950 . S
H1086 C1091 0.950 . S
H1087 C1092 0.949 . S
H1088 C1094 0.950 . S
H1089 C1095 0.950 . S
H1090 C1096 0.949 . S
C1091 H1086 0.950 . S
C1091 C1093 1.327 . S
C1091 C1097 1.429 . S
C1092 C1084 1.574 . S
C1092 H1087 0.949 . S
C1092 C1098 1.368 . S
C1093 C1077 1.349 . S
C1093 H1085 0.950 . S
C1093 C1091 1.327 . S
C1094 C1082 1.349 . S
C1094 H1088 0.950 . S
C1094 C1095 1.327 . S
C1095 H1089 0.950 . S
C1095 C1094 1.327 . S
C1095 C1099 1.429 . S
C1096 C1079 1.574 . S
C1096 H1090 0.949 . S
C1096 C1100 1.368 . S
C1097 C1078 1.429 . S
C1097 C1091 1.429 . S
C1097 C1098 1.523 . S
C1098 C1079 1.368 . S
C1098 C1092 1.368 . S
C1098 C1097 1.523 . S
C1099 C1083 1.429 . S
C1099 C1095 1.429 . S
C1099 C1100 1.523 . S
C1100 C1084 1.368 . S
C1100 C1096 1.368 . S
C1100 C1099 1.523 . S
H1101 C1076 0.950 . S
H1102 C1078 0.950 . S
H1103 C1079 0.949 . S
H1104 C1081 0.950 . S
H1105 C1083 0.950 . S
C1106 C1107 1.349 . S
C1106 C1108 1.327 . S
C1106 H1131 0.995 . S
C1107 C1106 1.349 . S
C1107 C1123 1.349 . S
C1108 C1106 1.327 . S
C1108 C1127 1.429 . S
C1108 H1132 0.950 1_545 S
C1109 C1126 1.574 . S
C1109 C1128 1.368 . S
C1109 H1133 0.949 . S
H1110 C1114 0.949 . S
C1111 C1112 1.349 . S
C1111 C1113 1.327 . S
C1111 H1134 0.996 . S
C1112 C1111 1.349 . S
C1112 C1124 1.349 . S
C1113 C1111 1.327 . S
C1113 C1129 1.429 . S
C1113 H1135 0.950 1_565 S
C1114 H1110 0.949 . S
C1114 C1122 1.574 . S
C1114 C1130 1.368 . S
H1115 C1123 0.950 . S
H1116 C1121 0.950 . S
H1117 C1122 0.949 . S
H1118 C1124 0.950 . S
H1119 C1125 0.950 . S
H1120 C1126 0.949 . S
C1121 H1116 0.950 . S
C1121 C1123 1.327 . S
C1121 C1127 1.429 . S
C1122 C1114 1.574 . S
C1122 H1117 0.949 . S
C1122 C1128 1.368 1_565 S
C1123 C1107 1.349 . S
C1123 H1115 0.950 . S
C1123 C1121 1.327 . S
C1124 C1112 1.349 . S
C1124 H1118 0.950 . S
C1124 C1125 1.327 . S
C1125 H1119 0.950 . S
C1125 C1124 1.327 . S
C1125 C1129 1.429 . S
C1126 C1109 1.574 . S
C1126 H1120 0.949 . S
C1126 C1130 1.368 1_545 S
C1127 C1108 1.429 . S
C1127 C1121 1.429 . S
C1127 C1128 1.523 . S
C1128 C1109 1.368 . S
C1128 C1122 1.368 1_545 S
C1128 C1127 1.523 . S
C1129 C1113 1.429 . S
C1129 C1125 1.429 . S
C1129 C1130 1.523 . S
C1130 C1114 1.368 . S
C1130 C1126 1.368 1_565 S
C1130 C1129 1.523 . S
H1131 C1106 0.995 . S
H1132 C1108 0.950 1_565 S
H1133 C1109 0.949 . S
H1134 C1111 0.996 . S
H1135 C1113 0.950 1_545 S
C1136 C1137 1.349 . S
C1136 C1138 1.327 . S
C1136 H1161 0.950 . S
C1137 C1136 1.349 . S
C1137 C1153 1.349 . S
C1138 C1136 1.327 . S
C1138 C1157 1.429 . S
C1138 H1162 0.950 . S
C1139 C1156 1.574 . S
C1139 C1158 1.368 . S
C1139 H1163 0.949 . S
H1140 C1144 0.949 . S
C1141 C1142 1.349 . S
C1141 C1143 1.327 . S
C1141 H1164 0.950 . S
C1142 C1141 1.349 . S
C1142 C1154 1.349 . S
C1143 C1141 1.327 . S
C1143 C1159 1.429 . S
C1143 H1165 0.950 . S
C1144 H1140 0.949 . S
C1144 C1152 1.574 . S
C1144 C1160 1.368 . S
H1145 C1153 0.950 . S
H1146 C1151 0.950 . S
H1147 C1152 0.949 . S
H1148 C1154 0.950 . S
H1149 C1155 0.950 . S
H1150 C1156 0.949 . S
C1151 H1146 0.950 . S
C1151 C1153 1.327 . S
C1151 C1157 1.429 . S
C1152 C1144 1.574 . S
C1152 H1147 0.949 . S
C1152 C1158 1.368 . S
C1153 C1137 1.349 . S
C1153 H1145 0.950 . S
C1153 C1151 1.327 . S
C1154 C1142 1.349 . S
C1154 H1148 0.950 . S
C1154 C1155 1.327 . S
C1155 H1149 0.950 . S
C1155 C1154 1.327 . S
C1155 C1159 1.429 . S
C1156 C1139 1.574 . S
C1156 H1150 0.949 . S
C1156 C1160 1.368 . S
C1157 C1138 1.429 . S
C1157 C1151 1.429 . S
C1157 C1158 1.523 . S
C1158 C1139 1.368 . S
C1158 C1152 1.368 . S
C1158 C1157 1.523 . S
C1159 C1143 1.429 . S
C1159 C1155 1.429 . S
C1159 C1160 1.523 . S
C1160 C1144 1.368 . S
C1160 C1156 1.368 . S
C1160 C1159 1.523 . S
H1161 C1136 0.950 . S
H1162 C1138 0.950 . S
H1163 C1139 0.949 . S
H1164 C1141 0.950 . S
H1165 C1143 0.950 . S
C1166 C1167 1.349 . S
C1166 C1168 1.327 . S
C1166 H1191 0.950 . S
C1167 C1166 1.349 . S
C1167 C1183 1.349 . S
C1168 C1166 1.327 . S
C1168 C1187 1.429 . S
C1168 H1192 0.950 . S
C1169 C1186 1.574 . S
C1169 C1188 1.368 . S
C1169 H1193 0.949 . S
H1170 C1174 0.949 . S
C1171 C1172 1.349 . S
C1171 C1173 1.327 . S
C1171 H1194 0.950 . S
C1172 C1171 1.349 . S
C1172 C1184 1.349 . S
C1173 C1171 1.327 . S
C1173 C1189 1.429 . S
C1173 H1195 0.950 . S
C1174 H1170 0.949 . S
C1174 C1182 1.574 . S
C1174 C1190 1.368 . S
H1175 C1183 0.950 . S
H1176 C1181 0.950 . S
H1177 C1182 0.949 . S
H1178 C1184 0.950 . S
H1179 C1185 0.950 . S
H1180 C1186 0.949 . S
C1181 H1176 0.950 . S
C1181 C1183 1.327 . S
C1181 C1187 1.429 . S
C1182 C1174 1.574 . S
C1182 H1177 0.949 . S
C1182 C1188 1.368 . S
C1183 C1167 1.349 . S
C1183 H1175 0.950 . S
C1183 C1181 1.327 . S
C1184 C1172 1.349 . S
C1184 H1178 0.950 . S
C1184 C1185 1.327 . S
C1185 H1179 0.950 . S
C1185 C1184 1.327 . S
C1185 C1189 1.429 . S
C1186 C1169 1.574 . S
C1186 H1180 0.949 . S
C1186 C1190 1.368 . S
C1187 C1168 1.429 . S
C1187 C1181 1.429 . S
C1187 C1188 1.523 . S
C1188 C1169 1.368 . S
C1188 C1182 1.368 . S
C1188 C1187 1.523 . S
C1189 C1173 1.429 . S
C1189 C1185 1.429 . S
C1189 C1190 1.523 . S
C1190 C1174 1.368 . S
C1190 C1186 1.368 . S
C1190 C1189 1.523 . S
H1191 C1166 0.950 . S
H1192 C1168 0.950 . S
H1193 C1169 0.949 . S
H1194 C1171 0.950 . S
H1195 C1173 0.950 . S
C1196 C1197 1.349 . S
C1196 C1198 1.327 . S
C1196 H1221 0.950 . S
C1197 C1196 1.349 . S
C1197 C1213 1.349 . S
C1198 C1196 1.327 . S
C1198 C1217 1.429 . S
C1198 H1222 0.950 . S
C1199 C1216 1.574 . S
C1199 C1218 1.368 . S
C1199 H1223 0.949 . S
H1200 C1204 0.949 . S
C1201 C1202 1.349 . S
C1201 C1203 1.327 . S
C1201 H1224 0.950 . S
C1202 C1201 1.349 . S
C1202 C1214 1.349 . S
C1203 C1201 1.327 . S
C1203 C1219 1.429 . S
C1203 H1225 0.950 . S
C1204 H1200 0.949 . S
C1204 C1212 1.574 . S
C1204 C1220 1.368 . S
H1205 C1213 0.950 . S
H1206 C1211 0.950 . S
H1207 C1212 0.949 . S
H1208 C1214 0.950 . S
H1209 C1215 0.950 . S
H1210 C1216 0.949 . S
C1211 H1206 0.950 . S
C1211 C1213 1.327 . S
C1211 C1217 1.429 . S
C1212 C1204 1.574 . S
C1212 H1207 0.949 . S
C1212 C1218 1.368 . S
C1213 C1197 1.349 . S
C1213 H1205 0.950 . S
C1213 C1211 1.327 . S
C1214 C1202 1.349 . S
C1214 H1208 0.950 . S
C1214 C1215 1.327 . S
C1215 H1209 0.950 . S
C1215 C1214 1.327 . S
C1215 C1219 1.429 . S
C1216 C1199 1.574 . S
C1216 H1210 0.949 . S
C1216 C1220 1.368 . S
C1217 C1198 1.429 . S
C1217 C1211 1.429 . S
C1217 C1218 1.523 . S
C1218 C1199 1.368 . S
C1218 C1212 1.368 . S
C1218 C1217 1.523 . S
C1219 C1203 1.429 . S
C1219 C1215 1.429 . S
C1219 C1220 1.523 . S
C1220 C1204 1.368 . S
C1220 C1216 1.368 . S
C1220 C1219 1.523 . S
H1221 C1196 0.950 . S
H1222 C1198 0.950 . S
H1223 C1199 0.949 . S
H1224 C1201 0.950 . S
H1225 C1203 0.950 . S
C1226 C1227 1.349 . S
C1226 C1228 1.327 . S
C1226 H1251 0.950 . S
C1227 C1226 1.349 . S
C1227 C1243 1.349 . S
C1228 C1226 1.327 . S
C1228 C1247 1.429 . S
C1228 H1252 0.950 . S
C1229 C1246 1.574 . S
C1229 C1248 1.368 . S
C1229 H1253 0.949 . S
H1230 C1234 0.949 . S
C1231 C1232 1.349 . S
C1231 C1233 1.327 . S
C1231 H1254 0.950 . S
C1232 C1231 1.349 . S
C1232 C1244 1.349 . S
C1233 C1231 1.327 . S
C1233 C1249 1.429 . S
C1233 H1255 0.950 . S
C1234 H1230 0.949 . S
C1234 C1242 1.574 . S
C1234 C1250 1.368 . S
H1235 C1243 0.950 . S
H1236 C1241 0.950 . S
H1237 C1242 0.949 . S
H1238 C1244 0.950 . S
H1239 C1245 0.950 . S
H1240 C1246 0.949 . S
C1241 H1236 0.950 . S
C1241 C1243 1.327 . S
C1241 C1247 1.429 . S
C1242 C1234 1.574 . S
C1242 H1237 0.949 . S
C1242 C1248 1.368 . S
C1243 C1227 1.349 . S
C1243 H1235 0.950 . S
C1243 C1241 1.327 . S
C1244 C1232 1.349 . S
C1244 H1238 0.950 . S
C1244 C1245 1.327 . S
C1245 H1239 0.950 . S
C1245 C1244 1.327 . S
C1245 C1249 1.429 . S
C1246 C1229 1.574 . S
C1246 H1240 0.949 . S
C1246 C1250 1.368 . S
C1247 C1228 1.429 . S
C1247 C1241 1.429 . S
C1247 C1248 1.523 . S
C1248 C1229 1.368 . S
C1248 C1242 1.368 . S
C1248 C1247 1.523 . S
C1249 C1233 1.429 . S
C1249 C1245 1.429 . S
C1249 C1250 1.523 1_556 S
C1250 C1234 1.368 . S
C1250 C1246 1.368 . S
C1250 C1249 1.523 1_554 S
H1251 C1226 0.950 . S
H1252 C1228 0.950 . S
H1253 C1229 0.949 . S
H1254 C1231 0.950 . S
H1255 C1233 0.950 . S
C1256 C1257 1.349 . S
C1256 C1258 1.327 . S
C1256 H1281 0.950 . S
C1257 C1256 1.349 . S
C1257 C1273 1.349 . S
C1258 C1256 1.327 . S
C1258 C1277 1.429 . S
C1258 H1282 0.950 . S
C1259 C1276 1.574 . S
C1259 C1278 1.368 . S
C1259 H1283 0.949 . S
H1260 C1264 0.949 . S
C1261 C1262 1.349 . S
C1261 C1263 1.327 . S
C1261 H1284 0.950 . S
C1262 C1261 1.349 . S
C1262 C1274 1.349 . S
C1263 C1261 1.327 . S
C1263 C1279 1.429 . S
C1263 H1285 0.950 . S
C1264 H1260 0.949 . S
C1264 C1272 1.574 . S
C1264 C1280 1.368 . S
H1265 C1273 0.950 . S
H1266 C1271 0.950 . S
H1267 C1272 0.949 . S
H1268 C1274 0.950 . S
H1269 C1275 0.950 . S
H1270 C1276 0.949 . S
C1271 H1266 0.950 . S
C1271 C1273 1.327 . S
C1271 C1277 1.429 . S
C1272 C1264 1.574 . S
C1272 H1267 0.949 . S
C1272 C1278 1.368 . S
C1273 C1257 1.349 . S
C1273 H1265 0.950 . S
C1273 C1271 1.327 . S
C1274 C1262 1.349 . S
C1274 H1268 0.950 . S
C1274 C1275 1.327 . S
C1275 H1269 0.950 . S
C1275 C1274 1.327 . S
C1275 C1279 1.429 . S
C1276 C1259 1.574 . S
C1276 H1270 0.949 . S
C1276 C1280 1.368 . S
C1277 C1258 1.429 . S
C1277 C1271 1.429 . S
C1277 C1278 1.523 . S
C1278 C1259 1.368 . S
C1278 C1272 1.368 . S
C1278 C1277 1.523 . S
C1279 C1263 1.429 . S
C1279 C1275 1.429 . S
C1279 C1280 1.523 . S
C1280 C1264 1.368 . S
C1280 C1276 1.368 . S
C1280 C1279 1.523 . S
H1281 C1256 0.950 . S
H1282 C1258 0.950 . S
H1283 C1259 0.949 . S
H1284 C1261 0.950 . S
H1285 C1263 0.950 . S
C1286 C1287 1.349 . S
C1286 C1288 1.327 . S
C1286 H1311 0.950 . S
C1287 C1286 1.349 . S
C1287 C1303 1.349 . S
C1288 C1286 1.327 . S
C1288 C1307 1.429 . S
C1288 H1312 0.950 . S
C1289 C1306 1.574 . S
C1289 C1308 1.368 . S
C1289 H1313 0.949 . S
H1290 C1294 0.949 . S
C1291 C1292 1.349 . S
C1291 C1293 1.327 . S
C1291 H1314 0.950 . S
C1292 C1291 1.349 . S
C1292 C1304 1.349 . S
C1293 C1291 1.327 . S
C1293 C1309 1.429 . S
C1293 H1315 0.950 . S
C1294 H1290 0.949 . S
C1294 C1302 1.574 . S
C1294 C1310 1.368 . S
H1295 C1303 0.950 . S
H1296 C1301 0.950 . S
H1297 C1302 0.949 . S
H1298 C1304 0.950 . S
H1299 C1305 0.950 . S
H1300 C1306 0.949 . S
C1301 H1296 0.950 . S
C1301 C1303 1.327 . S
C1301 C1307 1.429 . S
C1302 C1294 1.574 . S
C1302 H1297 0.949 . S
C1302 C1308 1.368 . S
C1303 C1287 1.349 . S
C1303 H1295 0.950 . S
C1303 C1301 1.327 . S
C1304 C1292 1.349 . S
C1304 H1298 0.950 . S
C1304 C1305 1.327 . S
C1305 H1299 0.950 . S
C1305 C1304 1.327 . S
C1305 C1309 1.429 . S
C1306 C1289 1.574 . S
C1306 H1300 0.949 . S
C1306 C1310 1.368 . S
C1307 C1288 1.429 . S
C1307 C1301 1.429 . S
C1307 C1308 1.523 . S
C1308 C1289 1.368 . S
C1308 C1302 1.368 . S
C1308 C1307 1.523 . S
C1309 C1293 1.429 . S
C1309 C1305 1.429 . S
C1309 C1310 1.523 . S
C1310 C1294 1.368 . S
C1310 C1306 1.368 . S
C1310 C1309 1.523 . S
H1311 C1286 0.950 . S
H1312 C1288 0.950 . S
H1313 C1289 0.949 . S
H1314 C1291 0.950 . S
H1315 C1293 0.950 . S
C1316 C1317 1.349 . S
C1316 C1318 1.327 . S
C1316 H1341 0.950 . S
C1317 C1316 1.349 . S
C1317 C1333 1.349 . S
C1318 C1316 1.327 . S
C1318 C1337 1.429 . S
C1318 H1342 0.950 . S
C1319 C1336 1.574 . S
C1319 C1338 1.368 . S
C1319 H1343 0.949 . S
H1320 C1324 0.949 . S
C1321 C1322 1.349 . S
C1321 C1323 1.327 . S
C1321 H1344 0.950 . S
C1322 C1321 1.349 . S
C1322 C1334 1.349 . S
C1323 C1321 1.327 . S
C1323 C1339 1.429 . S
C1323 H1345 0.950 . S
C1324 H1320 0.949 . S
C1324 C1332 1.574 . S
C1324 C1340 1.368 . S
H1325 C1333 0.950 . S
H1326 C1331 0.950 . S
H1327 C1332 0.949 . S
H1328 C1334 0.950 . S
H1329 C1335 0.950 . S
H1330 C1336 0.949 . S
C1331 H1326 0.950 . S
C1331 C1333 1.327 . S
C1331 C1337 1.429 . S
C1332 C1324 1.574 . S
C1332 H1327 0.949 . S
C1332 C1338 1.368 . S
C1333 C1317 1.349 . S
C1333 H1325 0.950 . S
C1333 C1331 1.327 . S
C1334 C1322 1.349 . S
C1334 H1328 0.950 . S
C1334 C1335 1.327 . S
C1335 H1329 0.950 . S
C1335 C1334 1.327 . S
C1335 C1339 1.429 . S
C1336 C1319 1.574 . S
C1336 H1330 0.949 . S
C1336 C1340 1.368 . S
C1337 C1318 1.429 . S
C1337 C1331 1.429 . S
C1337 C1338 1.523 . S
C1338 C1319 1.368 . S
C1338 C1332 1.368 . S
C1338 C1337 1.523 . S
C1339 C1323 1.429 . S
C1339 C1335 1.429 . S
C1339 C1340 1.523 . S
C1340 C1324 1.368 . S
C1340 C1336 1.368 . S
C1340 C1339 1.523 . S
H1341 C1316 0.950 . S
H1342 C1318 0.950 . S
H1343 C1319 0.949 . S
H1344 C1321 0.950 . S
H1345 C1323 0.950 . S
C1346 C1347 1.349 . S
C1346 C1348 1.327 . S
C1346 H1371 0.950 . S
C1347 C1346 1.349 . S
C1347 C1363 1.349 . S
C1348 C1346 1.327 . S
C1348 C1367 1.429 . S
C1348 H1372 0.950 . S
C1349 C1366 1.574 . S
C1349 C1368 1.368 . S
C1349 H1373 0.949 . S
H1350 C1354 0.949 . S
C1351 C1352 1.349 . S
C1351 C1353 1.327 . S
C1351 H1374 0.950 . S
C1352 C1351 1.349 . S
C1352 C1364 1.349 . S
C1353 C1351 1.327 . S
C1353 C1369 1.429 . S
C1353 H1375 0.950 . S
C1354 H1350 0.949 . S
C1354 C1362 1.574 . S
C1354 C1370 1.368 . S
H1355 C1363 0.950 . S
H1356 C1361 0.950 . S
H1357 C1362 0.949 . S
H1358 C1364 0.950 . S
H1359 C1365 0.950 . S
H1360 C1366 0.949 . S
C1361 H1356 0.950 . S
C1361 C1363 1.327 . S
C1361 C1367 1.429 . S
C1362 C1354 1.574 . S
C1362 H1357 0.949 . S
C1362 C1368 1.368 . S
C1363 C1347 1.349 . S
C1363 H1355 0.950 . S
C1363 C1361 1.327 . S
C1364 C1352 1.349 . S
C1364 H1358 0.950 . S
C1364 C1365 1.327 . S
C1365 H1359 0.950 . S
C1365 C1364 1.327 . S
C1365 C1369 1.429 . S
C1366 C1349 1.574 . S
C1366 H1360 0.949 . S
C1366 C1370 1.368 . S
C1367 C1348 1.429 . S
C1367 C1361 1.429 . S
C1367 C1368 1.523 . S
C1368 C1349 1.368 . S
C1368 C1362 1.368 . S
C1368 C1367 1.523 . S
C1369 C1353 1.429 . S
C1369 C1365 1.429 . S
C1369 C1370 1.523 1_556 S
C1370 C1354 1.368 . S
C1370 C1366 1.368 . S
C1370 C1369 1.523 1_554 S
H1371 C1346 0.950 . S
H1372 C1348 0.950 . S
H1373 C1349 0.949 . S
H1374 C1351 0.950 . S
H1375 C1353 0.950 . S
C1376 C1377 1.349 . S
C1376 C1378 1.327 . S
C1376 H1401 0.950 . S
C1377 C1376 1.349 . S
C1377 C1393 1.349 . S
C1378 C1376 1.327 . S
C1378 C1397 1.429 . S
C1378 H1402 0.950 . S
C1379 C1396 1.574 . S
C1379 C1398 1.368 . S
C1379 H1403 0.949 . S
H1380 C1384 0.949 . S
C1381 C1382 1.349 . S
C1381 C1383 1.327 . S
C1381 H1404 0.950 . S
C1382 C1381 1.349 . S
C1382 C1394 1.349 . S
C1383 C1381 1.327 . S
C1383 C1399 1.429 . S
C1383 H1405 0.950 . S
C1384 H1380 0.949 . S
C1384 C1392 1.574 . S
C1384 C1400 1.368 . S
H1385 C1393 0.950 . S
H1386 C1391 0.950 . S
H1387 C1392 0.949 . S
H1388 C1394 0.950 . S
H1389 C1395 0.950 . S
H1390 C1396 0.949 . S
C1391 H1386 0.950 . S
C1391 C1393 1.327 . S
C1391 C1397 1.429 . S
C1392 C1384 1.574 . S
C1392 H1387 0.949 . S
C1392 C1398 1.368 . S
C1393 C1377 1.349 . S
C1393 H1385 0.950 . S
C1393 C1391 1.327 . S
C1394 C1382 1.349 . S
C1394 H1388 0.950 . S
C1394 C1395 1.327 . S
C1395 H1389 0.950 . S
C1395 C1394 1.327 . S
C1395 C1399 1.429 . S
C1396 C1379 1.574 . S
C1396 H1390 0.949 . S
C1396 C1400 1.368 . S
C1397 C1378 1.429 . S
C1397 C1391 1.429 . S
C1397 C1398 1.523 . S
C1398 C1379 1.368 . S
C1398 C1392 1.368 . S
C1398 C1397 1.523 . S
C1399 C1383 1.429 . S
C1399 C1395 1.429 . S
C1399 C1400 1.523 . S
C1400 C1384 1.368 . S
C1400 C1396 1.368 . S
C1400 C1399 1.523 . S
H1401 C1376 0.950 . S
H1402 C1378 0.950 . S
H1403 C1379 0.949 . S
H1404 C1381 0.950 . S
H1405 C1383 0.950 . S
C1406 C1407 1.349 . S
C1406 C1408 1.327 . S
C1406 H1431 0.950 . S
C1407 C1406 1.349 . S
C1407 C1423 1.349 . S
C1408 C1406 1.327 . S
C1408 C1427 1.429 . S
C1408 H1432 0.950 . S
C1409 C1426 1.574 1_455 S
C1409 C1428 1.368 . S
C1409 H1433 0.949 . S
H1410 C1414 0.949 . S
C1411 C1412 1.349 . S
C1411 C1413 1.327 . S
C1411 H1434 0.950 . S
C1412 C1411 1.349 . S
C1412 C1424 1.349 . S
C1413 C1411 1.327 . S
C1413 C1429 1.429 . S
C1413 H1435 0.950 . S
C1414 H1410 0.949 . S
C1414 C1422 1.574 1_655 S
C1414 C1430 1.368 . S
H1415 C1423 0.950 . S
H1416 C1421 0.950 . S
H1417 C1422 0.949 . S
H1418 C1424 0.950 . S
H1419 C1425 0.950 . S
H1420 C1426 0.949 . S
C1421 H1416 0.950 . S
C1421 C1423 1.327 . S
C1421 C1427 1.429 . S
C1422 C1414 1.574 1_455 S
C1422 H1417 0.949 . S
C1422 C1428 1.368 . S
C1423 C1407 1.349 . S
C1423 H1415 0.950 . S
C1423 C1421 1.327 . S
C1424 C1412 1.349 . S
C1424 H1418 0.950 . S
C1424 C1425 1.327 . S
C1425 H1419 0.950 . S
C1425 C1424 1.327 . S
C1425 C1429 1.429 . S
C1426 C1409 1.574 1_655 S
C1426 H1420 0.949 . S
C1426 C1430 1.368 . S
C1427 C1408 1.429 . S
C1427 C1421 1.429 . S
C1427 C1428 1.523 . S
C1428 C1409 1.368 . S
C1428 C1422 1.368 . S
C1428 C1427 1.523 . S
C1429 C1413 1.429 . S
C1429 C1425 1.429 . S
C1429 C1430 1.523 . S
C1430 C1414 1.368 . S
C1430 C1426 1.368 . S
C1430 C1429 1.523 . S
H1431 C1406 0.950 . S
H1432 C1408 0.950 . S
H1433 C1409 0.949 . S
H1434 C1411 0.950 . S
H1435 C1413 0.950 . S
C1436 C1437 1.349 . S
C1436 C1438 1.327 . S
C1436 H1461 0.950 . S
C1437 C1436 1.349 . S
C1437 C1453 1.349 . S
C1438 C1436 1.327 . S
C1438 C1457 1.429 . S
C1438 H1462 0.950 . S
C1439 C1456 1.574 . S
C1439 C1458 1.368 . S
C1439 H1463 0.949 . S
H1440 C1444 0.949 . S
C1441 C1442 1.349 . S
C1441 C1443 1.327 . S
C1441 H1464 0.950 . S
C1442 C1441 1.349 . S
C1442 C1454 1.349 . S
C1443 C1441 1.327 . S
C1443 C1459 1.429 . S
C1443 H1465 0.950 . S
C1444 H1440 0.949 . S
C1444 C1452 1.574 . S
C1444 C1460 1.368 . S
H1445 C1453 0.950 . S
H1446 C1451 0.950 . S
H1447 C1452 0.949 . S
H1448 C1454 0.950 . S
H1449 C1455 0.950 . S
H1450 C1456 0.949 . S
C1451 H1446 0.950 . S
C1451 C1453 1.327 . S
C1451 C1457 1.429 . S
C1452 C1444 1.574 . S
C1452 H1447 0.949 . S
C1452 C1458 1.368 . S
C1453 C1437 1.349 . S
C1453 H1445 0.950 . S
C1453 C1451 1.327 . S
C1454 C1442 1.349 . S
C1454 H1448 0.950 . S
C1454 C1455 1.327 . S
C1455 H1449 0.950 . S
C1455 C1454 1.327 . S
C1455 C1459 1.429 . S
C1456 C1439 1.574 . S
C1456 H1450 0.949 . S
C1456 C1460 1.368 . S
C1457 C1438 1.429 . S
C1457 C1451 1.429 . S
C1457 C1458 1.523 . S
C1458 C1439 1.368 . S
C1458 C1452 1.368 . S
C1458 C1457 1.523 . S
C1459 C1443 1.429 . S
C1459 C1455 1.429 . S
C1459 C1460 1.523 . S
C1460 C1444 1.368 . S
C1460 C1456 1.368 . S
C1460 C1459 1.523 . S
H1461 C1436 0.950 . S
H1462 C1438 0.950 . S
H1463 C1439 0.949 . S
H1464 C1441 0.950 . S
H1465 C1443 0.950 . S
C1466 C1467 1.349 . S
C1466 C1468 1.327 . S
C1466 H1491 0.950 . S
C1467 C1466 1.349 . S
C1467 C1483 1.349 . S
C1468 C1466 1.327 . S
C1468 C1487 1.429 . S
C1468 H1492 0.950 . S
C1469 C1486 1.574 . S
C1469 C1488 1.368 . S
C1469 H1493 0.949 . S
H1470 C1474 0.949 . S
C1471 C1472 1.349 . S
C1471 C1473 1.327 . S
C1471 H1494 0.950 . S
C1472 C1471 1.349 . S
C1472 C1484 1.349 . S
C1473 C1471 1.327 . S
C1473 C1489 1.429 . S
C1473 H1495 0.950 . S
C1474 H1470 0.949 . S
C1474 C1482 1.574 . S
C1474 C1490 1.368 . S
H1475 C1483 0.950 . S
H1476 C1481 0.950 . S
H1477 C1482 0.949 . S
H1478 C1484 0.950 . S
H1479 C1485 0.950 . S
H1480 C1486 0.949 . S
C1481 H1476 0.950 . S
C1481 C1483 1.327 . S
C1481 C1487 1.429 . S
C1482 C1474 1.574 . S
C1482 H1477 0.949 . S
C1482 C1488 1.368 . S
C1483 C1467 1.349 . S
C1483 H1475 0.950 . S
C1483 C1481 1.327 . S
C1484 C1472 1.349 . S
C1484 H1478 0.950 . S
C1484 C1485 1.327 . S
C1485 H1479 0.950 . S
C1485 C1484 1.327 . S
C1485 C1489 1.429 . S
C1486 C1469 1.574 . S
C1486 H1480 0.949 . S
C1486 C1490 1.368 . S
C1487 C1468 1.429 . S
C1487 C1481 1.429 . S
C1487 C1488 1.523 . S
C1488 C1469 1.368 . S
C1488 C1482 1.368 . S
C1488 C1487 1.523 . S
C1489 C1473 1.429 . S
C1489 C1485 1.429 . S
C1489 C1490 1.523 . S
C1490 C1474 1.368 . S
C1490 C1486 1.368 . S
C1490 C1489 1.523 . S
H1491 C1466 0.950 . S
H1492 C1468 0.950 . S
H1493 C1469 0.949 . S
H1494 C1471 0.950 . S
H1495 C1473 0.950 . S
C1496 C1497 1.349 . S
C1496 C1498 1.327 . S
C1496 H1521 0.950 . S
C1497 C1496 1.349 . S
C1497 C1513 1.349 . S
C1498 C1496 1.327 . S
C1498 C1517 1.429 . S
C1498 H1522 0.950 . S
C1499 C1516 1.574 . S
C1499 C1518 1.368 . S
C1499 H1523 0.949 . S
H1500 C1504 0.949 . S
C1501 C1502 1.349 . S
C1501 C1503 1.327 . S
C1501 H1524 0.950 . S
C1502 C1501 1.349 . S
C1502 C1514 1.349 . S
C1503 C1501 1.327 . S
C1503 C1519 1.429 . S
C1503 H1525 0.950 . S
C1504 H1500 0.949 . S
C1504 C1512 1.574 . S
C1504 C1520 1.368 . S
H1505 C1513 0.950 . S
H1506 C1511 0.950 . S
H1507 C1512 0.949 . S
H1508 C1514 0.950 . S
H1509 C1515 0.950 . S
H1510 C1516 0.949 . S
C1511 H1506 0.950 . S
C1511 C1513 1.327 . S
C1511 C1517 1.429 . S
C1512 C1504 1.574 . S
C1512 H1507 0.949 . S
C1512 C1518 1.368 . S
C1513 C1497 1.349 . S
C1513 H1505 0.950 . S
C1513 C1511 1.327 . S
C1514 C1502 1.349 . S
C1514 H1508 0.950 . S
C1514 C1515 1.327 . S
C1515 H1509 0.950 . S
C1515 C1514 1.327 . S
C1515 C1519 1.429 . S
C1516 C1499 1.574 . S
C1516 H1510 0.949 . S
C1516 C1520 1.368 . S
C1517 C1498 1.429 . S
C1517 C1511 1.429 . S
C1517 C1518 1.523 . S
C1518 C1499 1.368 . S
C1518 C1512 1.368 . S
C1518 C1517 1.523 . S
C1519 C1503 1.429 . S
C1519 C1515 1.429 . S
C1519 C1520 1.523 . S
C1520 C1504 1.368 . S
C1520 C1516 1.368 . S
C1520 C1519 1.523 . S
H1521 C1496 0.950 . S
H1522 C1498 0.950 . S
H1523 C1499 0.949 . S
H1524 C1501 0.950 . S
H1525 C1503 0.950 . S
C1526 C1527 1.349 . S
C1526 C1528 1.327 . S
C1526 H1551 0.950 . S
C1527 C1526 1.349 . S
C1527 C1543 1.349 . S
C1528 C1526 1.327 . S
C1528 C1547 1.429 . S
C1528 H1552 0.950 . S
C1529 C1546 1.574 . S
C1529 C1548 1.368 . S
C1529 H1553 0.949 . S
H1530 C1534 0.949 . S
C1531 C1532 1.349 . S
C1531 C1533 1.327 . S
C1531 H1554 0.950 . S
C1532 C1531 1.349 . S
C1532 C1544 1.349 . S
C1533 C1531 1.327 . S
C1533 C1549 1.429 . S
C1533 H1555 0.950 . S
C1534 H1530 0.949 . S
C1534 C1542 1.574 . S
C1534 C1550 1.368 . S
H1535 C1543 0.950 . S
H1536 C1541 0.950 . S
H1537 C1542 0.949 . S
H1538 C1544 0.950 . S
H1539 C1545 0.950 . S
H1540 C1546 0.949 . S
C1541 H1536 0.950 . S
C1541 C1543 1.327 . S
C1541 C1547 1.429 . S
C1542 C1534 1.574 . S
C1542 H1537 0.949 . S
C1542 C1548 1.368 . S
C1543 C1527 1.349 . S
C1543 H1535 0.950 . S
C1543 C1541 1.327 . S
C1544 C1532 1.349 . S
C1544 H1538 0.950 . S
C1544 C1545 1.327 . S
C1545 H1539 0.950 . S
C1545 C1544 1.327 . S
C1545 C1549 1.429 . S
C1546 C1529 1.574 . S
C1546 H1540 0.949 . S
C1546 C1550 1.368 . S
C1547 C1528 1.429 . S
C1547 C1541 1.429 . S
C1547 C1548 1.523 . S
C1548 C1529 1.368 . S
C1548 C1542 1.368 . S
C1548 C1547 1.523 . S
C1549 C1533 1.429 . S
C1549 C1545 1.429 . S
C1549 C1550 1.523 . S
C1550 C1534 1.368 . S
C1550 C1546 1.368 . S
C1550 C1549 1.523 . S
H1551 C1526 0.950 . S
H1552 C1528 0.950 . S
H1553 C1529 0.949 . S
H1554 C1531 0.950 . S
H1555 C1533 0.950 . S
C1556 C1557 1.349 . S
C1556 C1558 1.327 . S
C1556 H1581 0.950 . S
C1557 C1556 1.349 . S
C1557 C1573 1.349 . S
C1558 C1556 1.327 . S
C1558 C1577 1.429 . S
C1558 H1582 0.950 . S
C1559 C1576 1.574 . S
C1559 C1578 1.368 . S
C1559 H1583 0.949 . S
H1560 C1564 0.949 . S
C1561 C1562 1.349 . S
C1561 C1563 1.327 . S
C1561 H1584 0.950 . S
C1562 C1561 1.349 . S
C1562 C1574 1.349 . S
C1563 C1561 1.327 . S
C1563 C1579 1.429 . S
C1563 H1585 0.950 . S
C1564 H1560 0.949 . S
C1564 C1572 1.574 . S
C1564 C1580 1.368 . S
H1565 C1573 0.950 . S
H1566 C1571 0.950 . S
H1567 C1572 0.949 . S
H1568 C1574 0.950 . S
H1569 C1575 0.950 . S
H1570 C1576 0.949 . S
C1571 H1566 0.950 . S
C1571 C1573 1.327 . S
C1571 C1577 1.429 . S
C1572 C1564 1.574 . S
C1572 H1567 0.949 . S
C1572 C1578 1.368 . S
C1573 C1557 1.349 . S
C1573 H1565 0.950 . S
C1573 C1571 1.327 . S
C1574 C1562 1.349 . S
C1574 H1568 0.950 . S
C1574 C1575 1.327 . S
C1575 H1569 0.950 . S
C1575 C1574 1.327 . S
C1575 C1579 1.429 . S
C1576 C1559 1.574 . S
C1576 H1570 0.949 . S
C1576 C1580 1.368 . S
C1577 C1558 1.429 . S
C1577 C1571 1.429 . S
C1577 C1578 1.523 . S
C1578 C1559 1.368 . S
C1578 C1572 1.368 . S
C1578 C1577 1.523 . S
C1579 C1563 1.429 . S
C1579 C1575 1.429 . S
C1579 C1580 1.523 . S
C1580 C1564 1.368 . S
C1580 C1576 1.368 . S
C1580 C1579 1.523 . S
H1581 C1556 0.950 . S
H1582 C1558 0.950 . S
H1583 C1559 0.949 . S
H1584 C1561 0.950 . S
H1585 C1563 0.950 . S
C1586 C1587 1.349 . S
C1586 C1588 1.327 . S
C1586 H1611 0.950 . S
C1587 C1586 1.349 . S
C1587 C1603 1.349 . S
C1588 C1586 1.327 . S
C1588 C1607 1.429 . S
C1588 H1612 0.950 . S
C1589 C1606 1.574 1_655 S
C1589 C1608 1.368 . S
C1589 H1613 0.949 . S
H1590 C1594 0.949 . S
C1591 C1592 1.349 . S
C1591 C1593 1.327 . S
C1591 H1614 0.950 . S
C1592 C1591 1.349 . S
C1592 C1604 1.349 . S
C1593 C1591 1.327 . S
C1593 C1609 1.429 . S
C1593 H1615 0.950 . S
C1594 H1590 0.949 . S
C1594 C1602 1.574 1_455 S
C1594 C1610 1.368 . S
H1595 C1603 0.950 . S
H1596 C1601 0.950 . S
H1597 C1602 0.949 . S
H1598 C1604 0.950 . S
H1599 C1605 0.950 . S
H1600 C1606 0.949 . S
C1601 H1596 0.950 . S
C1601 C1603 1.327 . S
C1601 C1607 1.429 . S
C1602 C1594 1.574 1_655 S
C1602 H1597 0.949 . S
C1602 C1608 1.368 . S
C1603 C1587 1.349 . S
C1603 H1595 0.950 . S
C1603 C1601 1.327 . S
C1604 C1592 1.349 . S
C1604 H1598 0.950 . S
C1604 C1605 1.327 . S
C1605 H1599 0.950 . S
C1605 C1604 1.327 . S
C1605 C1609 1.429 . S
C1606 C1589 1.574 1_455 S
C1606 H1600 0.949 . S
C1606 C1610 1.368 . S
C1607 C1588 1.429 . S
C1607 C1601 1.429 . S
C1607 C1608 1.523 . S
C1608 C1589 1.368 . S
C1608 C1602 1.368 . S
C1608 C1607 1.523 . S
C1609 C1593 1.429 . S
C1609 C1605 1.429 . S
C1609 C1610 1.523 . S
C1610 C1594 1.368 . S
C1610 C1606 1.368 . S
C1610 C1609 1.523 . S
H1611 C1586 0.950 . S
H1612 C1588 0.950 . S
H1613 C1589 0.949 . S
H1614 C1591 0.950 . S
H1615 C1593 0.950 . S
C1616 C1617 1.349 . S
C1616 C1618 1.327 . S
C1616 H1641 0.950 . S
C1617 C1616 1.349 . S
C1617 C1633 1.349 . S
C1618 C1616 1.327 . S
C1618 C1637 1.429 . S
C1618 H1642 0.950 . S
C1619 C1636 1.574 . S
C1619 C1638 1.368 . S
C1619 H1643 0.949 . S
H1620 C1624 0.949 . S
C1621 C1622 1.349 . S
C1621 C1623 1.327 . S
C1621 H1644 0.950 . S
C1622 C1621 1.349 . S
C1622 C1634 1.349 . S
C1623 C1621 1.327 . S
C1623 C1639 1.429 . S
C1623 H1645 0.950 . S
C1624 H1620 0.949 . S
C1624 C1632 1.574 . S
C1624 C1640 1.368 . S
H1625 C1633 0.950 . S
H1626 C1631 0.950 . S
H1627 C1632 0.949 . S
H1628 C1634 0.950 . S
H1629 C1635 0.950 . S
H1630 C1636 0.949 . S
C1631 H1626 0.950 . S
C1631 C1633 1.327 . S
C1631 C1637 1.429 . S
C1632 C1624 1.574 . S
C1632 H1627 0.949 . S
C1632 C1638 1.368 . S
C1633 C1617 1.349 . S
C1633 H1625 0.950 . S
C1633 C1631 1.327 . S
C1634 C1622 1.349 . S
C1634 H1628 0.950 . S
C1634 C1635 1.327 . S
C1635 H1629 0.950 . S
C1635 C1634 1.327 . S
C1635 C1639 1.429 . S
C1636 C1619 1.574 . S
C1636 H1630 0.949 . S
C1636 C1640 1.368 . S
C1637 C1618 1.429 . S
C1637 C1631 1.429 . S
C1637 C1638 1.523 . S
C1638 C1619 1.368 . S
C1638 C1632 1.368 . S
C1638 C1637 1.523 . S
C1639 C1623 1.429 . S
C1639 C1635 1.429 . S
C1639 C1640 1.523 . S
C1640 C1624 1.368 . S
C1640 C1636 1.368 . S
C1640 C1639 1.523 . S
H1641 C1616 0.950 . S
H1642 C1618 0.950 . S
H1643 C1619 0.949 . S
H1644 C1621 0.950 . S
H1645 C1623 0.950 . S
C1646 C1647 1.349 . S
C1646 C1648 1.327 . S
C1646 H1671 0.950 . S
C1647 C1646 1.349 . S
C1647 C1663 1.349 . S
C1648 C1646 1.327 . S
C1648 C1667 1.429 . S
C1648 H1672 0.950 . S
C1649 C1666 1.574 . S
C1649 C1668 1.368 . S
C1649 H1673 0.949 . S
H1650 C1654 0.949 . S
C1651 C1652 1.349 . S
C1651 C1653 1.327 . S
C1651 H1674 0.950 . S
C1652 C1651 1.349 . S
C1652 C1664 1.349 . S
C1653 C1651 1.327 . S
C1653 C1669 1.429 . S
C1653 H1675 0.950 . S
C1654 H1650 0.949 . S
C1654 C1662 1.574 . S
C1654 C1670 1.368 . S
H1655 C1663 0.950 . S
H1656 C1661 0.950 . S
H1657 C1662 0.949 . S
H1658 C1664 0.950 . S
H1659 C1665 0.950 . S
H1660 C1666 0.949 . S
C1661 H1656 0.950 . S
C1661 C1663 1.327 . S
C1661 C1667 1.429 . S
C1662 C1654 1.574 . S
C1662 H1657 0.949 . S
C1662 C1668 1.368 . S
C1663 C1647 1.349 . S
C1663 H1655 0.950 . S
C1663 C1661 1.327 . S
C1664 C1652 1.349 . S
C1664 H1658 0.950 . S
C1664 C1665 1.327 . S
C1665 H1659 0.950 . S
C1665 C1664 1.327 . S
C1665 C1669 1.429 . S
C1666 C1649 1.574 . S
C1666 H1660 0.949 . S
C1666 C1670 1.368 . S
C1667 C1648 1.429 . S
C1667 C1661 1.429 . S
C1667 C1668 1.523 . S
C1668 C1649 1.368 . S
C1668 C1662 1.368 . S
C1668 C1667 1.523 . S
C1669 C1653 1.429 . S
C1669 C1665 1.429 . S
C1669 C1670 1.523 . S
C1670 C1654 1.368 . S
C1670 C1666 1.368 . S
C1670 C1669 1.523 . S
H1671 C1646 0.950 . S
H1672 C1648 0.950 . S
H1673 C1649 0.949 . S
H1674 C1651 0.950 . S
H1675 C1653 0.950 . S
C1676 C1677 1.349 . S
C1676 C1678 1.327 . S
C1676 H1701 0.950 . S
C1677 C1676 1.349 . S
C1677 C1693 1.349 . S
C1678 C1676 1.327 . S
C1678 C1697 1.429 . S
C1678 H1702 0.950 . S
C1679 C1696 1.574 . S
C1679 C1698 1.368 . S
C1679 H1703 0.949 . S
H1680 C1684 0.949 . S
C1681 C1682 1.349 . S
C1681 C1683 1.327 . S
C1681 H1704 0.950 . S
C1682 C1681 1.349 . S
C1682 C1694 1.349 . S
C1683 C1681 1.327 . S
C1683 C1699 1.429 . S
C1683 H1705 0.950 . S
C1684 H1680 0.949 . S
C1684 C1692 1.574 . S
C1684 C1700 1.368 . S
H1685 C1693 0.950 . S
H1686 C1691 0.950 . S
H1687 C1692 0.949 . S
H1688 C1694 0.950 . S
H1689 C1695 0.950 . S
H1690 C1696 0.949 . S
C1691 H1686 0.950 . S
C1691 C1693 1.327 . S
C1691 C1697 1.429 . S
C1692 C1684 1.574 . S
C1692 H1687 0.949 . S
C1692 C1698 1.368 . S
C1693 C1677 1.349 . S
C1693 H1685 0.950 . S
C1693 C1691 1.327 . S
C1694 C1682 1.349 . S
C1694 H1688 0.950 . S
C1694 C1695 1.327 . S
C1695 H1689 0.950 . S
C1695 C1694 1.327 . S
C1695 C1699 1.429 . S
C1696 C1679 1.574 . S
C1696 H1690 0.949 . S
C1696 C1700 1.368 . S
C1697 C1678 1.429 . S
C1697 C1691 1.429 . S
C1697 C1698 1.523 . S
C1698 C1679 1.368 . S
C1698 C1692 1.368 . S
C1698 C1697 1.523 . S
C1699 C1683 1.429 . S
C1699 C1695 1.429 . S
C1699 C1700 1.523 . S
C1700 C1684 1.368 . S
C1700 C1696 1.368 . S
C1700 C1699 1.523 . S
H1701 C1676 0.950 . S
H1702 C1678 0.950 . S
H1703 C1679 0.949 . S
H1704 C1681 0.950 . S
H1705 C1683 0.950 . S
C1706 C1707 1.349 . S
C1706 C1708 1.327 . S
C1706 H1731 0.950 . S
C1707 C1706 1.349 . S
C1707 C1723 1.349 . S
C1708 C1706 1.327 . S
C1708 C1727 1.429 . S
C1708 H1732 0.950 . S
C1709 C1726 1.574 . S
C1709 C1728 1.368 . S
C1709 H1733 0.949 . S
H1710 C1714 0.949 . S
C1711 C1712 1.349 . S
C1711 C1713 1.327 . S
C1711 H1734 0.950 . S
C1712 C1711 1.349 . S
C1712 C1724 1.349 . S
C1713 C1711 1.327 . S
C1713 C1729 1.429 . S
C1713 H1735 0.950 . S
C1714 H1710 0.949 . S
C1714 C1722 1.574 . S
C1714 C1730 1.368 . S
H1715 C1723 0.950 . S
H1716 C1721 0.950 . S
H1717 C1722 0.949 . S
H1718 C1724 0.950 . S
H1719 C1725 0.950 . S
H1720 C1726 0.949 . S
C1721 H1716 0.950 . S
C1721 C1723 1.327 . S
C1721 C1727 1.429 . S
C1722 C1714 1.574 . S
C1722 H1717 0.949 . S
C1722 C1728 1.368 . S
C1723 C1707 1.349 . S
C1723 H1715 0.950 . S
C1723 C1721 1.327 . S
C1724 C1712 1.349 . S
C1724 H1718 0.950 . S
C1724 C1725 1.327 . S
C1725 H1719 0.950 . S
C1725 C1724 1.327 . S
C1725 C1729 1.429 . S
C1726 C1709 1.574 . S
C1726 H1720 0.949 . S
C1726 C1730 1.368 . S
C1727 C1708 1.429 . S
C1727 C1721 1.429 . S
C1727 C1728 1.523 . S
C1728 C1709 1.368 . S
C1728 C1722 1.368 . S
C1728 C1727 1.523 . S
C1729 C1713 1.429 . S
C1729 C1725 1.429 . S
C1729 C1730 1.523 . S
C1730 C1714 1.368 . S
C1730 C1726 1.368 . S
C1730 C1729 1.523 . S
H1731 C1706 0.950 . S
H1732 C1708 0.950 . S
H1733 C1709 0.949 . S
H1734 C1711 0.950 . S
H1735 C1713 0.950 . S
C1736 C1737 1.349 . S
C1736 C1738 1.327 . S
C1736 H1761 0.950 . S
C1737 C1736 1.349 . S
C1737 C1753 1.349 . S
C1738 C1736 1.327 . S
C1738 C1757 1.429 . S
C1738 H1762 0.950 . S
C1739 C1756 1.574 . S
C1739 C1758 1.368 . S
C1739 H1763 0.949 . S
H1740 C1744 0.949 . S
C1741 C1742 1.349 . S
C1741 C1743 1.327 . S
C1741 H1764 0.950 . S
C1742 C1741 1.349 . S
C1742 C1754 1.349 . S
C1743 C1741 1.327 . S
C1743 C1759 1.429 . S
C1743 H1765 0.950 . S
C1744 H1740 0.949 . S
C1744 C1752 1.574 . S
C1744 C1760 1.368 . S
H1745 C1753 0.950 . S
H1746 C1751 0.950 . S
H1747 C1752 0.949 . S
H1748 C1754 0.950 . S
H1749 C1755 0.950 . S
H1750 C1756 0.949 . S
C1751 H1746 0.950 . S
C1751 C1753 1.327 . S
C1751 C1757 1.429 . S
C1752 C1744 1.574 . S
C1752 H1747 0.949 . S
C1752 C1758 1.368 . S
C1753 C1737 1.349 . S
C1753 H1745 0.950 . S
C1753 C1751 1.327 . S
C1754 C1742 1.349 . S
C1754 H1748 0.950 . S
C1754 C1755 1.327 . S
C1755 H1749 0.950 . S
C1755 C1754 1.327 . S
C1755 C1759 1.429 . S
C1756 C1739 1.574 . S
C1756 H1750 0.949 . S
C1756 C1760 1.368 . S
C1757 C1738 1.429 . S
C1757 C1751 1.429 . S
C1757 C1758 1.523 . S
C1758 C1739 1.368 . S
C1758 C1752 1.368 . S
C1758 C1757 1.523 . S
C1759 C1743 1.429 . S
C1759 C1755 1.429 . S
C1759 C1760 1.523 . S
C1760 C1744 1.368 . S
C1760 C1756 1.368 . S
C1760 C1759 1.523 . S
H1761 C1736 0.950 . S
H1762 C1738 0.950 . S
H1763 C1739 0.949 . S
H1764 C1741 0.950 . S
H1765 C1743 0.950 . S
C1766 C1767 1.349 . S
C1766 C1768 1.327 . S
C1766 H1791 0.950 . S
C1767 C1766 1.349 . S
C1767 C1783 1.349 . S
C1768 C1766 1.327 . S
C1768 C1787 1.429 . S
C1768 H1792 0.950 . S
C1769 C1786 1.574 1_655 S
C1769 C1788 1.368 . S
C1769 H1793 0.949 . S
H1770 C1774 0.949 . S
C1771 C1772 1.349 . S
C1771 C1773 1.327 . S
C1771 H1794 0.950 . S
C1772 C1771 1.349 . S
C1772 C1784 1.349 . S
C1773 C1771 1.327 . S
C1773 C1789 1.429 . S
C1773 H1795 0.950 . S
C1774 H1770 0.949 . S
C1774 C1782 1.574 1_455 S
C1774 C1790 1.368 . S
H1775 C1783 0.950 . S
H1776 C1781 0.950 . S
H1777 C1782 0.949 . S
H1778 C1784 0.950 . S
H1779 C1785 0.950 . S
H1780 C1786 0.949 . S
C1781 H1776 0.950 . S
C1781 C1783 1.327 . S
C1781 C1787 1.429 . S
C1782 C1774 1.574 1_655 S
C1782 H1777 0.949 . S
C1782 C1788 1.368 . S
C1783 C1767 1.349 . S
C1783 H1775 0.950 . S
C1783 C1781 1.327 . S
C1784 C1772 1.349 . S
C1784 H1778 0.950 . S
C1784 C1785 1.327 . S
C1785 H1779 0.950 . S
C1785 C1784 1.327 . S
C1785 C1789 1.429 . S
C1786 C1769 1.574 1_455 S
C1786 H1780 0.949 . S
C1786 C1790 1.368 . S
C1787 C1768 1.429 . S
C1787 C1781 1.429 . S
C1787 C1788 1.523 . S
C1788 C1769 1.368 . S
C1788 C1782 1.368 . S
C1788 C1787 1.523 . S
C1789 C1773 1.429 . S
C1789 C1785 1.429 . S
C1789 C1790 1.523 . S
C1790 C1774 1.368 . S
C1790 C1786 1.368 . S
C1790 C1789 1.523 . S
H1791 C1766 0.950 . S
H1792 C1768 0.950 . S
H1793 C1769 0.949 . S
H1794 C1771 0.950 . S
H1795 C1773 0.950 . S
C1796 C1797 1.349 . S
C1796 C1798 1.327 . S
C1796 H1821 0.950 . S
C1797 C1796 1.349 . S
C1797 C1813 1.349 . S
C1798 C1796 1.327 . S
C1798 C1817 1.429 . S
C1798 H1822 0.950 . S
C1799 C1816 1.574 1_655 S
C1799 C1818 1.368 . S
C1799 H1823 0.949 . S
H1800 C1804 0.949 . S
C1801 C1802 1.349 . S
C1801 C1803 1.327 . S
C1801 H1824 0.950 . S
C1802 C1801 1.349 . S
C1802 C1814 1.349 . S
C1803 C1801 1.327 . S
C1803 C1819 1.429 . S
C1803 H1825 0.950 . S
C1804 H1800 0.949 . S
C1804 C1812 1.574 1_455 S
C1804 C1820 1.368 . S
H1805 C1813 0.950 . S
H1806 C1811 0.950 . S
H1807 C1812 0.949 . S
H1808 C1814 0.950 . S
H1809 C1815 0.950 . S
H1810 C1816 0.949 . S
C1811 H1806 0.950 . S
C1811 C1813 1.327 . S
C1811 C1817 1.429 . S
C1812 C1804 1.574 1_655 S
C1812 H1807 0.949 . S
C1812 C1818 1.368 . S
C1813 C1797 1.349 . S
C1813 H1805 0.950 . S
C1813 C1811 1.327 . S
C1814 C1802 1.349 . S
C1814 H1808 0.950 . S
C1814 C1815 1.327 . S
C1815 H1809 0.950 . S
C1815 C1814 1.327 . S
C1815 C1819 1.429 . S
C1816 C1799 1.574 1_455 S
C1816 H1810 0.949 . S
C1816 C1820 1.368 . S
C1817 C1798 1.429 . S
C1817 C1811 1.429 . S
C1817 C1818 1.523 . S
C1818 C1799 1.368 . S
C1818 C1812 1.368 . S
C1818 C1817 1.523 . S
C1819 C1803 1.429 . S
C1819 C1815 1.429 . S
C1819 C1820 1.523 . S
C1820 C1804 1.368 . S
C1820 C1816 1.368 . S
C1820 C1819 1.523 . S
H1821 C1796 0.950 . S
H1822 C1798 0.950 . S
H1823 C1799 0.949 . S
H1824 C1801 0.950 . S
H1825 C1803 0.950 . S
C1826 C1827 1.349 . S
C1826 C1828 1.327 . S
C1826 H1851 0.950 . S
C1827 C1826 1.349 . S
C1827 C1843 1.349 . S
C1828 C1826 1.327 . S
C1828 C1847 1.429 . S
C1828 H1852 0.950 . S
C1829 C1846 1.574 . S
C1829 C1848 1.368 . S
C1829 H1853 0.949 . S
H1830 C1834 0.949 . S
C1831 C1832 1.349 . S
C1831 C1833 1.327 . S
C1831 H1854 0.950 . S
C1832 C1831 1.349 . S
C1832 C1844 1.349 . S
C1833 C1831 1.327 . S
C1833 C1849 1.429 . S
C1833 H1855 0.950 . S
C1834 H1830 0.949 . S
C1834 C1842 1.574 . S
C1834 C1850 1.368 . S
H1835 C1843 0.950 . S
H1836 C1841 0.950 . S
H1837 C1842 0.949 . S
H1838 C1844 0.950 . S
H1839 C1845 0.950 . S
H1840 C1846 0.949 . S
C1841 H1836 0.950 . S
C1841 C1843 1.327 . S
C1841 C1847 1.429 . S
C1842 C1834 1.574 . S
C1842 H1837 0.949 . S
C1842 C1848 1.368 . S
C1843 C1827 1.349 . S
C1843 H1835 0.950 . S
C1843 C1841 1.327 . S
C1844 C1832 1.349 . S
C1844 H1838 0.950 . S
C1844 C1845 1.327 . S
C1845 H1839 0.950 . S
C1845 C1844 1.327 . S
C1845 C1849 1.429 . S
C1846 C1829 1.574 . S
C1846 H1840 0.949 . S
C1846 C1850 1.368 . S
C1847 C1828 1.429 . S
C1847 C1841 1.429 . S
C1847 C1848 1.523 . S
C1848 C1829 1.368 . S
C1848 C1842 1.368 . S
C1848 C1847 1.523 . S
C1849 C1833 1.429 . S
C1849 C1845 1.429 . S
C1849 C1850 1.523 . S
C1850 C1834 1.368 . S
C1850 C1846 1.368 . S
C1850 C1849 1.523 . S
H1851 C1826 0.950 . S
H1852 C1828 0.950 . S
H1853 C1829 0.949 . S
H1854 C1831 0.950 . S
H1855 C1833 0.950 . S
C1856 C1857 1.349 . S
C1856 C1858 1.327 . S
C1856 H1881 0.950 . S
C1857 C1856 1.349 . S
C1857 C1873 1.349 . S
C1858 C1856 1.327 . S
C1858 C1877 1.429 . S
C1858 H1882 0.950 . S
C1859 C1876 1.574 . S
C1859 C1878 1.368 . S
C1859 H1883 0.949 . S
H1860 C1864 0.949 . S
C1861 C1862 1.349 . S
C1861 C1863 1.327 . S
C1861 H1884 0.950 . S
C1862 C1861 1.349 . S
C1862 C1874 1.349 . S
C1863 C1861 1.327 . S
C1863 C1879 1.429 . S
C1863 H1885 0.950 . S
C1864 H1860 0.949 . S
C1864 C1872 1.574 . S
C1864 C1880 1.368 . S
H1865 C1873 0.950 . S
H1866 C1871 0.950 . S
H1867 C1872 0.949 . S
H1868 C1874 0.950 . S
H1869 C1875 0.950 . S
H1870 C1876 0.949 . S
C1871 H1866 0.950 . S
C1871 C1873 1.327 . S
C1871 C1877 1.429 . S
C1872 C1864 1.574 . S
C1872 H1867 0.949 . S
C1872 C1878 1.368 . S
C1873 C1857 1.349 . S
C1873 H1865 0.950 . S
C1873 C1871 1.327 . S
C1874 C1862 1.349 . S
C1874 H1868 0.950 . S
C1874 C1875 1.327 . S
C1875 H1869 0.950 . S
C1875 C1874 1.327 . S
C1875 C1879 1.429 . S
C1876 C1859 1.574 . S
C1876 H1870 0.949 . S
C1876 C1880 1.368 . S
C1877 C1858 1.429 . S
C1877 C1871 1.429 . S
C1877 C1878 1.523 . S
C1878 C1859 1.368 . S
C1878 C1872 1.368 . S
C1878 C1877 1.523 . S
C1879 C1863 1.429 . S
C1879 C1875 1.429 . S
C1879 C1880 1.523 . S
C1880 C1864 1.368 . S
C1880 C1876 1.368 . S
C1880 C1879 1.523 . S
H1881 C1856 0.950 . S
H1882 C1858 0.950 . S
H1883 C1859 0.949 . S
H1884 C1861 0.950 . S
H1885 C1863 0.950 . S
C1886 C1887 1.349 . S
C1886 C1888 1.327 . S
C1886 H1911 0.950 . S
C1887 C1886 1.349 . S
C1887 C1903 1.349 . S
C1888 C1886 1.327 . S
C1888 C1907 1.429 . S
C1888 H1912 0.970 . S
C1889 C1906 1.574 . S
C1889 C1908 1.368 . S
C1889 H1913 0.949 . S
H1890 C1894 0.949 . S
C1891 C1892 1.349 . S
C1891 C1893 1.327 . S
C1891 H1914 0.950 . S
C1892 C1891 1.349 . S
C1892 C1904 1.349 . S
C1893 C1891 1.327 . S
C1893 C1909 1.429 . S
C1893 H1915 0.970 . S
C1894 H1890 0.949 . S
C1894 C1902 1.574 . S
C1894 C1910 1.368 . S
H1895 C1903 0.950 . S
H1896 C1901 0.950 . S
H1897 C1902 0.949 . S
H1898 C1904 0.950 . S
H1899 C1905 0.950 . S
H1900 C1906 0.949 . S
C1901 H1896 0.950 . S
C1901 C1903 1.327 . S
C1901 C1907 1.429 . S
C1902 C1894 1.574 . S
C1902 H1897 0.949 . S
C1902 C1908 1.368 1_545 S
C1903 C1887 1.349 . S
C1903 H1895 0.950 . S
C1903 C1901 1.327 . S
C1904 C1892 1.349 . S
C1904 H1898 0.950 . S
C1904 C1905 1.327 . S
C1905 H1899 0.950 . S
C1905 C1904 1.327 . S
C1905 C1909 1.429 . S
C1906 C1889 1.574 . S
C1906 H1900 0.949 . S
C1906 C1910 1.368 1_565 S
C1907 C1888 1.429 . S
C1907 C1901 1.429 . S
C1907 C1908 1.523 . S
C1908 C1889 1.368 . S
C1908 C1902 1.368 1_565 S
C1908 C1907 1.523 . S
C1909 C1893 1.429 . S
C1909 C1905 1.429 . S
C1909 C1910 1.523 . S
C1910 C1894 1.368 . S
C1910 C1906 1.368 1_545 S
C1910 C1909 1.523 . S
H1911 C1886 0.950 . S
H1912 C1888 0.970 . S
H1913 C1889 0.949 . S
H1914 C1891 0.950 . S
H1915 C1893 0.970 . S
C1916 C1917 1.349 . S
C1916 C1918 1.327 . S
C1916 H1941 0.950 . S
C1917 C1916 1.349 . S
C1917 C1933 1.349 . S
C1918 C1916 1.327 . S
C1918 C1937 1.429 . S
C1918 H1942 0.950 . S
C1919 C1936 1.574 . S
C1919 C1938 1.368 . S
C1919 H1943 0.949 . S
H1920 C1924 0.949 . S
C1921 C1922 1.349 . S
C1921 C1923 1.327 . S
C1921 H1944 0.950 . S
C1922 C1921 1.349 . S
C1922 C1934 1.349 . S
C1923 C1921 1.327 . S
C1923 C1939 1.429 . S
C1923 H1945 0.950 . S
C1924 H1920 0.949 . S
C1924 C1932 1.574 . S
C1924 C1940 1.368 . S
H1925 C1933 0.950 . S
H1926 C1931 0.950 . S
H1927 C1932 0.949 . S
H1928 C1934 0.950 . S
H1929 C1935 0.950 . S
H1930 C1936 0.949 . S
C1931 H1926 0.950 . S
C1931 C1933 1.327 . S
C1931 C1937 1.429 . S
C1932 C1924 1.574 . S
C1932 H1927 0.949 . S
C1932 C1938 1.368 . S
C1933 C1917 1.349 . S
C1933 H1925 0.950 . S
C1933 C1931 1.327 . S
C1934 C1922 1.349 . S
C1934 H1928 0.950 . S
C1934 C1935 1.327 . S
C1935 H1929 0.950 . S
C1935 C1934 1.327 . S
C1935 C1939 1.429 . S
C1936 C1919 1.574 . S
C1936 H1930 0.949 . S
C1936 C1940 1.368 . S
C1937 C1918 1.429 . S
C1937 C1931 1.429 . S
C1937 C1938 1.523 . S
C1938 C1919 1.368 . S
C1938 C1932 1.368 . S
C1938 C1937 1.523 . S
C1939 C1923 1.429 . S
C1939 C1935 1.429 . S
C1939 C1940 1.523 . S
C1940 C1924 1.368 . S
C1940 C1936 1.368 . S
C1940 C1939 1.523 . S
H1941 C1916 0.950 . S
H1942 C1918 0.950 . S
H1943 C1919 0.949 . S
H1944 C1921 0.950 . S
H1945 C1923 0.950 . S
C1946 C1947 1.349 . S
C1946 C1948 1.361 . S
C1946 H1971 0.941 1_545 S
C1947 C1946 1.349 . S
C1947 C1963 1.349 . S
C1948 C1946 1.361 . S
C1948 C1967 1.483 . S
C1948 H1972 0.864 1_545 S
C1949 C1966 1.574 . S
C1949 C1968 1.368 . S
C1949 H1973 0.949 . S
H1950 C1954 0.949 . S
C1951 C1952 1.349 . S
C1951 C1953 1.361 . S
C1951 H1974 0.941 1_565 S
C1952 C1951 1.349 . S
C1952 C1964 1.349 . S
C1953 C1951 1.361 . S
C1953 C1969 1.483 . S
C1953 H1975 0.863 1_565 S
C1954 H1950 0.949 . S
C1954 C1962 1.574 . S
C1954 C1970 1.368 . S
H1955 C1963 0.950 . S
H1956 C1961 0.950 1_554 S
H1957 C1962 0.949 . S
H1958 C1964 0.950 . S
H1959 C1965 0.950 . S
H1960 C1966 0.949 . S
C1961 H1956 0.950 1_556 S
C1961 C1963 1.327 . S
C1961 C1967 1.429 . S
C1962 C1954 1.574 . S
C1962 H1957 0.949 . S
C1962 C1968 1.368 1_565 S
C1963 C1947 1.349 . S
C1963 H1955 0.950 . S
C1963 C1961 1.327 . S
C1964 C1952 1.349 . S
C1964 H1958 0.950 . S
C1964 C1965 1.327 . S
C1965 H1959 0.950 . S
C1965 C1964 1.327 . S
C1965 C1969 1.429 . S
C1966 C1949 1.574 . S
C1966 H1960 0.949 . S
C1966 C1970 1.368 1_545 S
C1967 C1948 1.483 . S
C1967 C1961 1.429 . S
C1967 C1968 1.523 1_556 S
C1968 C1949 1.368 . S
C1968 C1962 1.368 1_545 S
C1968 C1967 1.523 1_554 S
C1969 C1953 1.483 . S
C1969 C1965 1.429 . S
C1969 C1970 1.523 . S
C1970 C1954 1.368 . S
C1970 C1966 1.368 1_565 S
C1970 C1969 1.523 . S
H1971 C1946 0.941 1_565 S
H1972 C1948 0.864 1_565 S
H1973 C1949 0.949 . S
H1974 C1951 0.941 1_545 S
H1975 C1953 0.863 1_545 S
C1976 C1977 1.349 . S
C1976 C1978 1.327 . S
C1976 H2001 0.950 . S
C1977 C1976 1.349 . S
C1977 C1993 1.349 . S
C1978 C1976 1.327 . S
C1978 C1997 1.429 . S
C1978 H2002 0.950 . S
C1979 C1996 1.574 . S
C1979 C1998 1.368 . S
C1979 H2003 0.949 . S
H1980 C1984 0.949 . S
C1981 C1982 1.349 . S
C1981 C1983 1.327 . S
C1981 H2004 0.950 . S
C1982 C1981 1.349 . S
C1982 C1994 1.349 . S
C1983 C1981 1.327 . S
C1983 C1999 1.429 . S
C1983 H2005 0.950 . S
C1984 H1980 0.949 . S
C1984 C1992 1.574 . S
C1984 C2000 1.368 . S
H1985 C1993 0.950 . S
H1986 C1991 0.950 . S
H1987 C1992 0.949 . S
H1988 C1994 0.950 . S
H1989 C1995 0.950 . S
H1990 C1996 0.949 . S
C1991 H1986 0.950 . S
C1991 C1993 1.327 . S
C1991 C1997 1.429 . S
C1992 C1984 1.574 . S
C1992 H1987 0.949 . S
C1992 C1998 1.368 . S
C1993 C1977 1.349 . S
C1993 H1985 0.950 . S
C1993 C1991 1.327 . S
C1994 C1982 1.349 . S
C1994 H1988 0.950 . S
C1994 C1995 1.327 . S
C1995 H1989 0.950 . S
C1995 C1994 1.327 . S
C1995 C1999 1.429 . S
C1996 C1979 1.574 . S
C1996 H1990 0.949 . S
C1996 C2000 1.368 . S
C1997 C1978 1.429 . S
C1997 C1991 1.429 . S
C1997 C1998 1.523 . S
C1998 C1979 1.368 . S
C1998 C1992 1.368 . S
C1998 C1997 1.523 . S
C1999 C1983 1.429 . S
C1999 C1995 1.429 . S
C1999 C2000 1.523 . S
C2000 C1984 1.368 . S
C2000 C1996 1.368 . S
C2000 C1999 1.523 . S
H2001 C1976 0.950 . S
H2002 C1978 0.950 . S
H2003 C1979 0.949 . S
H2004 C1981 0.950 . S
H2005 C1983 0.950 . S
C2006 C2007 1.349 . S
C2006 C2008 1.327 . S
C2006 H2031 0.950 . S
C2007 C2006 1.349 . S
C2007 C2023 1.349 . S
C2008 C2006 1.327 . S
C2008 C2027 1.429 . S
C2008 H2032 0.950 1_545 S
C2009 C2026 1.574 . S
C2009 C2028 1.368 . S
C2009 H2033 0.949 . S
H2010 C2014 0.949 . S
C2011 C2012 1.349 . S
C2011 C2013 1.327 . S
C2011 H2034 0.950 . S
C2012 C2011 1.349 . S
C2012 C2024 1.349 . S
C2013 C2011 1.327 . S
C2013 C2029 1.429 . S
C2013 H2035 0.950 1_565 S
C2014 H2010 0.949 . S
C2014 C2022 1.574 . S
C2014 C2030 1.368 . S
H2015 C2023 0.950 . S
H2016 C2021 0.950 . S
H2017 C2022 0.949 . S
H2018 C2024 0.950 . S
H2019 C2025 0.950 . S
H2020 C2026 0.949 . S
C2021 H2016 0.950 . S
C2021 C2023 1.327 . S
C2021 C2027 1.429 . S
C2022 C2014 1.574 . S
C2022 H2017 0.949 . S
C2022 C2028 1.368 1_565 S
C2023 C2007 1.349 . S
C2023 H2015 0.950 . S
C2023 C2021 1.327 . S
C2024 C2012 1.349 . S
C2024 H2018 0.950 . S
C2024 C2025 1.327 . S
C2025 H2019 0.950 . S
C2025 C2024 1.327 . S
C2025 C2029 1.429 . S
C2026 C2009 1.574 . S
C2026 H2020 0.949 . S
C2026 C2030 1.368 1_545 S
C2027 C2008 1.429 . S
C2027 C2021 1.429 . S
C2027 C2028 1.523 . S
C2028 C2009 1.368 . S
C2028 C2022 1.368 1_545 S
C2028 C2027 1.523 . S
C2029 C2013 1.429 . S
C2029 C2025 1.429 . S
C2029 C2030 1.523 . S
C2030 C2014 1.368 . S
C2030 C2026 1.368 1_565 S
C2030 C2029 1.523 . S
H2031 C2006 0.950 . S
H2032 C2008 0.950 1_565 S
H2033 C2009 0.949 . S
H2034 C2011 0.950 . S
H2035 C2013 0.950 1_545 S
C2036 C2037 1.349 . S
C2036 C2038 1.327 . S
C2036 H2061 0.950 . S
C2037 C2036 1.349 . S
C2037 C2053 1.349 . S
C2038 C2036 1.327 . S
C2038 C2057 1.429 . S
C2038 H2062 0.950 . S
C2039 C2056 1.574 . S
C2039 C2058 1.368 . S
C2039 H2063 0.949 . S
H2040 C2044 0.949 . S
C2041 C2042 1.349 . S
C2041 C2043 1.327 . S
C2041 H2064 0.950 . S
C2042 C2041 1.349 . S
C2042 C2054 1.349 . S
C2043 C2041 1.327 . S
C2043 C2059 1.429 . S
C2043 H2065 0.950 . S
C2044 H2040 0.949 . S
C2044 C2052 1.574 . S
C2044 C2060 1.368 . S
H2045 C2053 0.950 . S
H2046 C2051 0.950 . S
H2047 C2052 0.949 . S
H2048 C2054 0.950 . S
H2049 C2055 0.950 . S
H2050 C2056 0.949 . S
C2051 H2046 0.950 . S
C2051 C2053 1.327 . S
C2051 C2057 1.429 . S
C2052 C2044 1.574 . S
C2052 H2047 0.949 . S
C2052 C2058 1.368 . S
C2053 C2037 1.349 . S
C2053 H2045 0.950 . S
C2053 C2051 1.327 . S
C2054 C2042 1.349 . S
C2054 H2048 0.950 . S
C2054 C2055 1.327 . S
C2055 H2049 0.950 . S
C2055 C2054 1.327 . S
C2055 C2059 1.429 . S
C2056 C2039 1.574 . S
C2056 H2050 0.949 . S
C2056 C2060 1.368 . S
C2057 C2038 1.429 . S
C2057 C2051 1.429 . S
C2057 C2058 1.523 . S
C2058 C2039 1.368 . S
C2058 C2052 1.368 . S
C2058 C2057 1.523 . S
C2059 C2043 1.429 . S
C2059 C2055 1.429 . S
C2059 C2060 1.523 . S
C2060 C2044 1.368 . S
C2060 C2056 1.368 . S
C2060 C2059 1.523 . S
H2061 C2036 0.950 . S
H2062 C2038 0.950 . S
H2063 C2039 0.949 . S
H2064 C2041 0.950 . S
H2065 C2043 0.950 . S
C2066 C2067 1.349 . S
C2066 C2068 1.327 . S
C2066 H2091 0.950 . S
C2067 C2066 1.349 . S
C2067 C2083 1.349 . S
C2068 C2066 1.327 . S
C2068 C2087 1.429 . S
C2068 H2092 0.950 . S
C2069 C2086 1.574 . S
C2069 C2088 1.368 1_545 S
C2069 H2093 0.949 . S
H2070 C2074 0.949 . S
C2071 C2072 1.349 . S
C2071 C2073 1.327 . S
C2071 H2094 0.950 . S
C2072 C2071 1.349 . S
C2072 C2084 1.349 . S
C2073 C2071 1.327 . S
C2073 C2089 1.429 . S
C2073 H2095 0.950 . S
C2074 H2070 0.949 . S
C2074 C2082 1.574 . S
C2074 C2090 1.368 1_565 S
H2075 C2083 0.950 . S
H2076 C2081 0.950 1_545 S
H2077 C2082 0.949 . S
H2078 C2084 0.950 . S
H2079 C2085 0.950 1_565 S
H2080 C2086 0.949 . S
C2081 H2076 0.950 1_565 S
C2081 C2083 1.327 . S
C2081 C2087 1.429 . S
C2082 C2074 1.574 . S
C2082 H2077 0.949 . S
C2082 C2088 1.368 . S
C2083 C2067 1.349 . S
C2083 H2075 0.950 . S
C2083 C2081 1.327 . S
C2084 C2072 1.349 . S
C2084 H2078 0.950 . S
C2084 C2085 1.327 . S
C2085 H2079 0.950 1_545 S
C2085 C2084 1.327 . S
C2085 C2089 1.429 . S
C2086 C2069 1.574 . S
C2086 H2080 0.949 . S
C2086 C2090 1.368 . S
C2087 C2068 1.429 . S
C2087 C2081 1.429 . S
C2087 C2088 1.523 . S
C2088 C2069 1.368 1_565 S
C2088 C2082 1.368 . S
C2088 C2087 1.523 . S
C2089 C2073 1.429 . S
C2089 C2085 1.429 . S
C2089 C2090 1.523 1_556 S
C2090 C2074 1.368 1_545 S
C2090 C2086 1.368 . S
C2090 C2089 1.523 1_554 S
H2091 C2066 0.950 . S
H2092 C2068 0.950 . S
H2093 C2069 0.949 . S
H2094 C2071 0.950 . S
H2095 C2073 0.950 . S
C2096 C2097 1.349 . S
C2096 C2098 1.327 . S
C2096 H2121 0.950 . S
C2097 C2096 1.349 . S
C2097 C2113 1.349 . S
C2098 C2096 1.327 . S
C2098 C2117 1.429 . S
C2098 H2122 0.950 . S
C2099 C2116 1.574 . S
C2099 C2118 1.368 . S
C2099 H2123 0.949 . S
H2100 C2104 0.949 . S
C2101 C2102 1.349 . S
C2101 C2103 1.327 . S
C2101 H2124 0.950 . S
C2102 C2101 1.349 . S
C2102 C2114 1.349 . S
C2103 C2101 1.327 . S
C2103 C2119 1.429 . S
C2103 H2125 0.950 . S
C2104 H2100 0.949 . S
C2104 C2112 1.574 . S
C2104 C2120 1.368 . S
H2105 C2113 0.950 . S
H2106 C2111 0.950 . S
H2107 C2112 0.949 . S
H2108 C2114 0.950 . S
H2109 C2115 0.950 . S
H2110 C2116 0.949 . S
C2111 H2106 0.950 . S
C2111 C2113 1.327 . S
C2111 C2117 1.429 . S
C2112 C2104 1.574 . S
C2112 H2107 0.949 . S
C2112 C2118 1.368 . S
C2113 C2097 1.349 . S
C2113 H2105 0.950 . S
C2113 C2111 1.327 . S
C2114 C2102 1.349 . S
C2114 H2108 0.950 . S
C2114 C2115 1.327 . S
C2115 H2109 0.950 . S
C2115 C2114 1.327 . S
C2115 C2119 1.429 . S
C2116 C2099 1.574 . S
C2116 H2110 0.949 . S
C2116 C2120 1.368 . S
C2117 C2098 1.429 . S
C2117 C2111 1.429 . S
C2117 C2118 1.523 . S
C2118 C2099 1.368 . S
C2118 C2112 1.368 . S
C2118 C2117 1.523 . S
C2119 C2103 1.429 . S
C2119 C2115 1.429 . S
C2119 C2120 1.523 . S
C2120 C2104 1.368 . S
C2120 C2116 1.368 . S
C2120 C2119 1.523 . S
H2121 C2096 0.950 . S
H2122 C2098 0.950 . S
H2123 C2099 0.949 . S
H2124 C2101 0.950 . S
H2125 C2103 0.950 . S
C2126 C2127 1.349 . S
C2126 C2128 1.327 . S
C2126 H2151 0.950 . S
C2127 C2126 1.349 . S
C2127 C2143 1.349 . S
C2128 C2126 1.327 . S
C2128 C2147 1.429 . S
C2128 H2152 0.950 . S
C2129 C2146 1.574 . S
C2129 C2148 1.368 . S
C2129 H2153 0.949 . S
H2130 C2134 0.949 . S
C2131 C2132 1.349 . S
C2131 C2133 1.327 . S
C2131 H2154 0.950 . S
C2132 C2131 1.349 . S
C2132 C2144 1.349 . S
C2133 C2131 1.327 . S
C2133 C2149 1.429 . S
C2133 H2155 0.950 . S
C2134 H2130 0.949 . S
C2134 C2142 1.574 . S
C2134 C2150 1.368 . S
H2135 C2143 0.950 . S
H2136 C2141 0.950 . S
H2137 C2142 0.949 . S
H2138 C2144 0.950 . S
H2139 C2145 0.950 . S
H2140 C2146 0.949 . S
C2141 H2136 0.950 . S
C2141 C2143 1.327 . S
C2141 C2147 1.429 . S
C2142 C2134 1.574 . S
C2142 H2137 0.949 . S
C2142 C2148 1.368 . S
C2143 C2127 1.349 . S
C2143 H2135 0.950 . S
C2143 C2141 1.327 . S
C2144 C2132 1.349 . S
C2144 H2138 0.950 . S
C2144 C2145 1.327 . S
C2145 H2139 0.950 . S
C2145 C2144 1.327 . S
C2145 C2149 1.429 . S
C2146 C2129 1.574 . S
C2146 H2140 0.949 . S
C2146 C2150 1.368 . S
C2147 C2128 1.429 . S
C2147 C2141 1.429 . S
C2147 C2148 1.523 . S
C2148 C2129 1.368 . S
C2148 C2142 1.368 . S
C2148 C2147 1.523 . S
C2149 C2133 1.429 . S
C2149 C2145 1.429 . S
C2149 C2150 1.523 1_556 S
C2150 C2134 1.368 . S
C2150 C2146 1.368 . S
C2150 C2149 1.523 1_554 S
H2151 C2126 0.950 . S
H2152 C2128 0.950 . S
H2153 C2129 0.949 . S
H2154 C2131 0.950 . S
H2155 C2133 0.950 . S
C2156 C2157 1.349 . S
C2156 C2158 1.327 . S
C2156 H2181 0.950 . S
C2157 C2156 1.349 . S
C2157 C2173 1.349 . S
C2158 C2156 1.327 . S
C2158 C2177 1.429 . S
C2158 H2182 0.950 . S
C2159 C2176 1.574 . S
C2159 C2178 1.368 . S
C2159 H2183 0.949 . S
H2160 C2164 0.949 . S
C2161 C2162 1.349 . S
C2161 C2163 1.327 . S
C2161 H2184 0.950 . S
C2162 C2161 1.349 . S
C2162 C2174 1.349 . S
C2163 C2161 1.327 . S
C2163 C2179 1.429 . S
C2163 H2185 0.950 . S
C2164 H2160 0.949 . S
C2164 C2172 1.574 . S
C2164 C2180 1.368 . S
H2165 C2173 0.950 . S
H2166 C2171 0.950 . S
H2167 C2172 0.949 . S
H2168 C2174 0.950 . S
H2169 C2175 0.950 . S
H2170 C2176 0.949 . S
C2171 H2166 0.950 . S
C2171 C2173 1.327 . S
C2171 C2177 1.429 . S
C2172 C2164 1.574 . S
C2172 H2167 0.949 . S
C2172 C2178 1.368 . S
C2173 C2157 1.349 . S
C2173 H2165 0.950 . S
C2173 C2171 1.327 . S
C2174 C2162 1.349 . S
C2174 H2168 0.950 . S
C2174 C2175 1.327 . S
C2175 H2169 0.950 . S
C2175 C2174 1.327 . S
C2175 C2179 1.429 . S
C2176 C2159 1.574 . S
C2176 H2170 0.949 . S
C2176 C2180 1.368 . S
C2177 C2158 1.429 . S
C2177 C2171 1.429 . S
C2177 C2178 1.523 . S
C2178 C2159 1.368 . S
C2178 C2172 1.368 . S
C2178 C2177 1.523 . S
C2179 C2163 1.429 . S
C2179 C2175 1.429 . S
C2179 C2180 1.523 . S
C2180 C2164 1.368 . S
C2180 C2176 1.368 . S
C2180 C2179 1.523 . S
H2181 C2156 0.950 . S
H2182 C2158 0.950 . S
H2183 C2159 0.949 . S
H2184 C2161 0.950 . S
H2185 C2163 0.950 . S
C2186 C2187 1.349 . S
C2186 C2188 1.327 . S
C2186 H2211 0.950 . S
C2187 C2186 1.349 . S
C2187 C2203 1.349 . S
C2188 C2186 1.327 . S
C2188 C2207 1.429 . S
C2188 H2212 0.950 . S
C2189 C2206 1.574 . S
C2189 C2208 1.368 . S
C2189 H2213 0.949 . S
H2190 C2194 0.949 . S
C2191 C2192 1.349 . S
C2191 C2193 1.327 . S
C2191 H2214 0.950 . S
C2192 C2191 1.349 . S
C2192 C2204 1.349 . S
C2193 C2191 1.327 . S
C2193 C2209 1.429 . S
C2193 H2215 0.950 . S
C2194 H2190 0.949 . S
C2194 C2202 1.574 . S
C2194 C2210 1.368 . S
H2195 C2203 0.950 . S
H2196 C2201 0.950 . S
H2197 C2202 0.949 . S
H2198 C2204 0.950 . S
H2199 C2205 0.950 . S
H2200 C2206 0.949 . S
C2201 H2196 0.950 . S
C2201 C2203 1.327 . S
C2201 C2207 1.429 . S
C2202 C2194 1.574 . S
C2202 H2197 0.949 . S
C2202 C2208 1.368 . S
C2203 C2187 1.349 . S
C2203 H2195 0.950 . S
C2203 C2201 1.327 . S
C2204 C2192 1.349 . S
C2204 H2198 0.950 . S
C2204 C2205 1.327 . S
C2205 H2199 0.950 . S
C2205 C2204 1.327 . S
C2205 C2209 1.429 . S
C2206 C2189 1.574 . S
C2206 H2200 0.949 . S
C2206 C2210 1.368 . S
C2207 C2188 1.429 . S
C2207 C2201 1.429 . S
C2207 C2208 1.523 . S
C2208 C2189 1.368 . S
C2208 C2202 1.368 . S
C2208 C2207 1.523 . S
C2209 C2193 1.429 . S
C2209 C2205 1.429 . S
C2209 C2210 1.523 . S
C2210 C2194 1.368 . S
C2210 C2206 1.368 . S
C2210 C2209 1.523 . S
H2211 C2186 0.950 . S
H2212 C2188 0.950 . S
H2213 C2189 0.949 . S
H2214 C2191 0.950 . S
H2215 C2193 0.950 . S
C2216 C2217 1.349 . S
C2216 C2218 1.327 . S
C2216 H2241 0.950 . S
C2217 C2216 1.349 . S
C2217 C2233 1.349 . S
C2218 C2216 1.327 . S
C2218 C2237 1.429 . S
C2218 H2242 0.950 . S
C2219 C2236 1.574 . S
C2219 C2238 1.368 . S
C2219 H2243 0.949 . S
H2220 C2224 0.949 . S
C2221 C2222 1.349 . S
C2221 C2223 1.327 . S
C2221 H2244 0.950 . S
C2222 C2221 1.349 . S
C2222 C2234 1.349 . S
C2223 C2221 1.327 . S
C2223 C2239 1.429 . S
C2223 H2245 0.950 . S
C2224 H2220 0.949 . S
C2224 C2232 1.574 . S
C2224 C2240 1.368 . S
H2225 C2233 0.950 . S
H2226 C2231 0.950 . S
H2227 C2232 0.949 . S
H2228 C2234 0.950 . S
H2229 C2235 0.950 . S
H2230 C2236 0.949 . S
C2231 H2226 0.950 . S
C2231 C2233 1.327 . S
C2231 C2237 1.429 . S
C2232 C2224 1.574 . S
C2232 H2227 0.949 . S
C2232 C2238 1.368 . S
C2233 C2217 1.349 . S
C2233 H2225 0.950 . S
C2233 C2231 1.327 . S
C2234 C2222 1.349 . S
C2234 H2228 0.950 . S
C2234 C2235 1.327 . S
C2235 H2229 0.950 . S
C2235 C2234 1.327 . S
C2235 C2239 1.429 . S
C2236 C2219 1.574 . S
C2236 H2230 0.949 . S
C2236 C2240 1.368 . S
C2237 C2218 1.429 . S
C2237 C2231 1.429 . S
C2237 C2238 1.523 . S
C2238 C2219 1.368 . S
C2238 C2232 1.368 . S
C2238 C2237 1.523 . S
C2239 C2223 1.429 . S
C2239 C2235 1.429 . S
C2239 C2240 1.523 . S
C2240 C2224 1.368 . S
C2240 C2236 1.368 . S
C2240 C2239 1.523 . S
H2241 C2216 0.950 . S
H2242 C2218 0.950 . S
H2243 C2219 0.949 . S
H2244 C2221 0.950 . S
H2245 C2223 0.950 . S
C2246 C2247 1.349 . S
C2246 C2248 1.327 . S
C2246 H2271 0.950 . S
C2247 C2246 1.349 . S
C2247 C2263 1.349 . S
C2248 C2246 1.327 . S
C2248 C2267 1.429 . S
C2248 H2272 0.950 . S
C2249 C2266 1.574 . S
C2249 C2268 1.368 . S
C2249 H2273 0.949 . S
H2250 C2254 0.949 . S
C2251 C2252 1.349 . S
C2251 C2253 1.327 . S
C2251 H2274 0.950 . S
C2252 C2251 1.349 . S
C2252 C2264 1.349 . S
C2253 C2251 1.327 . S
C2253 C2269 1.429 . S
C2253 H2275 0.950 . S
C2254 H2250 0.949 . S
C2254 C2262 1.574 . S
C2254 C2270 1.368 . S
H2255 C2263 0.950 . S
H2256 C2261 0.952 1_554 S
H2257 C2262 0.949 . S
H2258 C2264 0.950 . S
H2259 C2265 0.950 . S
H2260 C2266 0.949 . S
C2261 H2256 0.952 1_556 S
C2261 C2263 1.327 . S
C2261 C2267 1.429 . S
C2262 C2254 1.574 . S
C2262 H2257 0.949 . S
C2262 C2268 1.368 . S
C2263 C2247 1.349 . S
C2263 H2255 0.950 . S
C2263 C2261 1.327 . S
C2264 C2252 1.349 . S
C2264 H2258 0.950 . S
C2264 C2265 1.327 . S
C2265 H2259 0.950 . S
C2265 C2264 1.327 . S
C2265 C2269 1.429 . S
C2266 C2249 1.574 . S
C2266 H2260 0.949 . S
C2266 C2270 1.368 . S
C2267 C2248 1.429 . S
C2267 C2261 1.429 . S
C2267 C2268 1.523 1_556 S
C2268 C2249 1.368 . S
C2268 C2262 1.368 . S
C2268 C2267 1.523 1_554 S
C2269 C2253 1.429 . S
C2269 C2265 1.429 . S
C2269 C2270 1.523 . S
C2270 C2254 1.368 . S
C2270 C2266 1.368 . S
C2270 C2269 1.523 . S
H2271 C2246 0.950 . S
H2272 C2248 0.950 . S
H2273 C2249 0.949 . S
H2274 C2251 0.950 . S
H2275 C2253 0.950 . S
C2276 C2277 1.349 . S
C2276 C2278 1.327 . S
C2276 H2301 0.950 . S
C2277 C2276 1.349 . S
C2277 C2293 1.349 . S
C2278 C2276 1.327 . S
C2278 C2297 1.429 . S
C2278 H2302 0.950 . S
C2279 C2296 1.574 . S
C2279 C2298 1.368 . S
C2279 H2303 0.949 . S
H2280 C2284 0.949 . S
C2281 C2282 1.349 . S
C2281 C2283 1.327 . S
C2281 H2304 0.950 . S
C2282 C2281 1.349 . S
C2282 C2294 1.349 . S
C2283 C2281 1.327 . S
C2283 C2299 1.429 . S
C2283 H2305 0.950 . S
C2284 H2280 0.949 . S
C2284 C2292 1.574 . S
C2284 C2300 1.368 . S
H2285 C2293 0.950 . S
H2286 C2291 0.950 . S
H2287 C2292 0.949 . S
H2288 C2294 0.950 . S
H2289 C2295 0.950 . S
H2290 C2296 0.949 . S
C2291 H2286 0.950 . S
C2291 C2293 1.327 . S
C2291 C2297 1.429 . S
C2292 C2284 1.574 . S
C2292 H2287 0.949 . S
C2292 C2298 1.368 . S
C2293 C2277 1.349 . S
C2293 H2285 0.950 . S
C2293 C2291 1.327 . S
C2294 C2282 1.349 . S
C2294 H2288 0.950 . S
C2294 C2295 1.327 . S
C2295 H2289 0.950 . S
C2295 C2294 1.327 . S
C2295 C2299 1.429 . S
C2296 C2279 1.574 . S
C2296 H2290 0.949 . S
C2296 C2300 1.368 . S
C2297 C2278 1.429 . S
C2297 C2291 1.429 . S
C2297 C2298 1.523 . S
C2298 C2279 1.368 . S
C2298 C2292 1.368 . S
C2298 C2297 1.523 . S
C2299 C2283 1.429 . S
C2299 C2295 1.429 . S
C2299 C2300 1.523 . S
C2300 C2284 1.368 . S
C2300 C2296 1.368 . S
C2300 C2299 1.523 . S
H2301 C2276 0.950 . S
H2302 C2278 0.950 . S
H2303 C2279 0.949 . S
H2304 C2281 0.950 . S
H2305 C2283 0.950 . S
C2306 C2307 1.349 . S
C2306 C2308 1.327 . S
C2306 H2331 0.950 . S
C2307 C2306 1.349 . S
C2307 C2323 1.349 . S
C2308 C2306 1.327 . S
C2308 C2327 1.429 . S
C2308 H2332 0.950 . S
C2309 C2326 1.574 . S
C2309 C2328 1.368 . S
C2309 H2333 0.949 . S
H2310 C2314 0.949 . S
C2311 C2312 1.349 . S
C2311 C2313 1.327 . S
C2311 H2334 0.950 . S
C2312 C2311 1.349 . S
C2312 C2324 1.349 . S
C2313 C2311 1.327 . S
C2313 C2329 1.429 . S
C2313 H2335 0.950 . S
C2314 H2310 0.949 . S
C2314 C2322 1.574 . S
C2314 C2330 1.368 . S
H2315 C2323 0.950 . S
H2316 C2321 0.950 . S
H2317 C2322 0.949 . S
H2318 C2324 0.950 . S
H2319 C2325 0.950 . S
H2320 C2326 0.949 . S
C2321 H2316 0.950 . S
C2321 C2323 1.327 . S
C2321 C2327 1.429 . S
C2322 C2314 1.574 . S
C2322 H2317 0.949 . S
C2322 C2328 1.368 . S
C2323 C2307 1.349 . S
C2323 H2315 0.950 . S
C2323 C2321 1.327 . S
C2324 C2312 1.349 . S
C2324 H2318 0.950 . S
C2324 C2325 1.327 . S
C2325 H2319 0.950 . S
C2325 C2324 1.327 . S
C2325 C2329 1.429 . S
C2326 C2309 1.574 . S
C2326 H2320 0.949 . S
C2326 C2330 1.368 . S
C2327 C2308 1.429 . S
C2327 C2321 1.429 . S
C2327 C2328 1.523 . S
C2328 C2309 1.368 . S
C2328 C2322 1.368 . S
C2328 C2327 1.523 . S
C2329 C2313 1.429 . S
C2329 C2325 1.429 . S
C2329 C2330 1.523 . S
C2330 C2314 1.368 . S
C2330 C2326 1.368 . S
C2330 C2329 1.523 . S
H2331 C2306 0.950 . S
H2332 C2308 0.950 . S
H2333 C2309 0.949 . S
H2334 C2311 0.950 . S
H2335 C2313 0.950 . S
C417 C101 1.600 . S
C422 C4 1.600 . S
C447 C17 1.600 . S
C452 C56 1.600 . S
C477 C75 1.600 . S
C482 C36 1.600 . S
C507 C43 1.600 . S
C512 C88 1.600 . S
C537 C108 1.600 . S
C542 C205 1.600 . S
C567 C121 1.600 . S
C572 C166 1.600 . S
C597 C134 1.600 . S
C602 C179 1.600 . S
C627 C147 1.600 . S
C632 C186 1.600 . S
C657 C218 1.600 . S
C662 C309 1.600 . S
C687 C225 1.600 . S
C692 C270 1.600 . S
C717 C283 1.600 . S
C722 C238 1.600 . S
C747 C296 1.600 . S
C752 C251 1.600 . S
C777 C316 1.600 . S
C782 C413 1.600 . S
C807 C368 1.600 . S
C812 C329 1.600 . S
C837 C387 1.600 . S
C842 C348 1.600 . S
C867 C355 1.600 . S
C872 C400 1.600 . S
C897 C10 0.669 . S
C902 C82 0.669 . S
C927 C23 0.669 . S
C932 C95 0.669 . S
C957 C62 0.669 . S
C962 C30 0.669 . S
C987 C49 0.669 . S
C992 C69 0.669 . S
C1017 C114 0.669 . S
C1022 C192 0.669 . S
C1047 C127 0.669 . S
C1052 C199 0.669 . S
C1077 C160 0.669 . S
C1082 C140 0.669 . S
C1107 C173 0.669 . S
C1112 C153 0.669 . S
C1137 C212 0.669 . S
C1142 C290 0.669 . S
C1167 C303 0.669 . S
C1172 C231 0.669 . S
C1197 C264 0.669 . S
C1202 C244 0.669 . S
C1227 C257 0.669 . S
C1232 C277 0.669 . S
C1257 C322 0.669 . S
C1262 C394 0.669 . S
C1287 C335 0.669 . S
C1292 C407 0.669 . S
C1317 C374 0.669 . S
C1322 C342 0.669 . S
C1347 C381 0.669 . S
C1352 C361 0.669 . S
C1377 C5 1.648 . S
C1382 C393 1.648 . S
C1407 C18 1.647 . S
C1412 C198 1.647 . S
C1437 C29 1.647 . S
C1442 C369 1.647 . S
C1467 C44 1.648 . S
C1472 C172 1.648 . S
C1497 C57 1.647 . S
C1502 C341 1.647 . S
C1527 C68 1.648 . S
C1532 C148 1.648 . S
C1557 C81 1.648 . S
C1562 C317 1.648 . S
C1587 C122 1.647 . S
C1592 C94 1.647 . S
C1617 C289 1.647 . S
C1622 C109 1.647 . S
C1647 C135 1.648 . S
C1652 C263 1.648 . S
C1677 C239 1.648 . S
C1682 C159 1.648 . S
C1707 C211 1.647 . S
C1712 C187 1.647 . S
C1737 C226 1.648 . S
C1742 C406 1.648 . S
C1767 C252 1.648 . S
C1772 C380 1.648 . S
C1797 C276 1.648 . S
C1802 C356 1.648 . S
C1827 C330 1.648 . S
C1832 C302 1.648 . S
C1857 C3 1.496 . S
C1862 C83 1.496 . S
C1887 C16 1.495 . S
C1892 C96 1.495 . S
C1917 C55 1.496 1_556 S
C1922 C31 1.496 . S
C1947 C42 1.496 . S
C1952 C70 1.496 . S
C1977 C107 1.496 1_556 S
C1982 C185 1.496 . S
C2007 C120 1.495 . S
C2012 C200 1.495 . S
C2037 C161 1.496 . S
C2042 C133 1.496 . S
C2067 C146 1.496 . S
C2072 C174 1.496 . S
C2097 C291 1.496 1_556 S
C2102 C213 1.496 . S
C2127 C304 1.496 . S
C2132 C224 1.496 . S
C2157 C265 1.496 . S
C2162 C237 1.496 . S
C2187 C278 1.496 . S
C2192 C250 1.496 . S
C2217 C395 1.496 . S
C2222 C315 1.496 . S
C2247 C408 1.496 . S
C2252 C328 1.496 . S
C2277 C343 1.496 1_556 S
C2282 C367 1.496 . S
C2307 C382 1.496 . S
C2312 C354 1.496 . S
