# Generated by pormake.
# Topology kfi, (4)-cn, num edge types: 1
# Building blocks:
#     Node 0, Type 0, BuildingBlock: AZAVOO_clean_sbu_0, # of connection points: 4
#     Node 1, Type 0, BuildingBlock: AZAVOO_clean_sbu_0, # of connection points: 4
#     Node 2, Type 0, BuildingBlock: AZAVOO_clean_sbu_0, # of connection points: 4
#     Node 3, Type 0, BuildingBlock: AZAVOO_clean_sbu_0, # of connection points: 4
#     Node 4, Type 0, BuildingBlock: AZAVOO_clean_sbu_0, # of connection points: 4
#     Node 5, Type 0, BuildingBlock: AZAVOO_clean_sbu_0, # of connection points: 4
#     Node 6, Type 0, BuildingBlock: AZAVOO_clean_sbu_0, # of connection points: 4
#     Node 7, Type 0, BuildingBlock: AZAVOO_clean_sbu_0, # of connection points: 4
#     Node 8, Type 0, BuildingBlock: AZAVOO_clean_sbu_0, # of connection points: 4
#     Node 9, Type 0, BuildingBlock: AZAVOO_clean_sbu_0, # of connection points: 4
#     Node 10, Type 0, BuildingBlock: AZAVOO_clean_sbu_0, # of connection points: 4
#     Node 11, Type 0, BuildingBlock: AZAVOO_clean_sbu_0, # of connection points: 4
#     Node 12, Type 0, BuildingBlock: AZAVOO_clean_sbu_0, # of connection points: 4
#     Node 13, Type 0, BuildingBlock: AZAVOO_clean_sbu_0, # of connection points: 4
#     Node 14, Type 0, BuildingBlock: AZAVOO_clean_sbu_0, # of connection points: 4
#     Node 15, Type 0, BuildingBlock: AZAVOO_clean_sbu_0, # of connection points: 4
#     Node 16, Type 0, BuildingBlock: AZAVOO_clean_sbu_0, # of connection points: 4
#     Node 17, Type 0, BuildingBlock: AZAVOO_clean_sbu_0, # of connection points: 4
#     Node 18, Type 0, BuildingBlock: AZAVOO_clean_sbu_0, # of connection points: 4
#     Node 19, Type 0, BuildingBlock: AZAVOO_clean_sbu_0, # of connection points: 4
#     Node 20, Type 0, BuildingBlock: AZAVOO_clean_sbu_0, # of connection points: 4
#     Node 21, Type 0, BuildingBlock: AZAVOO_clean_sbu_0, # of connection points: 4
#     Node 22, Type 0, BuildingBlock: AZAVOO_clean_sbu_0, # of connection points: 4
#     Node 23, Type 0, BuildingBlock: AZAVOO_clean_sbu_0, # of connection points: 4
#     Node 24, Type 0, BuildingBlock: AZAVOO_clean_sbu_0, # of connection points: 4
#     Node 25, Type 0, BuildingBlock: AZAVOO_clean_sbu_0, # of connection points: 4
#     Node 26, Type 0, BuildingBlock: AZAVOO_clean_sbu_0, # of connection points: 4
#     Node 27, Type 0, BuildingBlock: AZAVOO_clean_sbu_0, # of connection points: 4
#     Node 28, Type 0, BuildingBlock: AZAVOO_clean_sbu_0, # of connection points: 4
#     Node 29, Type 0, BuildingBlock: AZAVOO_clean_sbu_0, # of connection points: 4
#     Node 30, Type 0, BuildingBlock: AZAVOO_clean_sbu_0, # of connection points: 4
#     Node 31, Type 0, BuildingBlock: AZAVOO_clean_sbu_0, # of connection points: 4
#     Node 32, Type 0, BuildingBlock: AZAVOO_clean_sbu_0, # of connection points: 4
#     Node 33, Type 0, BuildingBlock: AZAVOO_clean_sbu_0, # of connection points: 4
#     Node 34, Type 0, BuildingBlock: AZAVOO_clean_sbu_0, # of connection points: 4
#     Node 35, Type 0, BuildingBlock: AZAVOO_clean_sbu_0, # of connection points: 4
#     Node 36, Type 0, BuildingBlock: AZAVOO_clean_sbu_0, # of connection points: 4
#     Node 37, Type 0, BuildingBlock: AZAVOO_clean_sbu_0, # of connection points: 4
#     Node 38, Type 0, BuildingBlock: AZAVOO_clean_sbu_0, # of connection points: 4
#     Node 39, Type 0, BuildingBlock: AZAVOO_clean_sbu_0, # of connection points: 4
#     Node 40, Type 0, BuildingBlock: AZAVOO_clean_sbu_0, # of connection points: 4
#     Node 41, Type 0, BuildingBlock: AZAVOO_clean_sbu_0, # of connection points: 4
#     Node 42, Type 0, BuildingBlock: AZAVOO_clean_sbu_0, # of connection points: 4
#     Node 43, Type 0, BuildingBlock: AZAVOO_clean_sbu_0, # of connection points: 4
#     Node 44, Type 0, BuildingBlock: AZAVOO_clean_sbu_0, # of connection points: 4
#     Node 45, Type 0, BuildingBlock: AZAVOO_clean_sbu_0, # of connection points: 4
#     Node 46, Type 0, BuildingBlock: AZAVOO_clean_sbu_0, # of connection points: 4
#     Node 47, Type 0, BuildingBlock: AZAVOO_clean_sbu_0, # of connection points: 4
#     Node 48, Type 0, BuildingBlock: AZAVOO_clean_sbu_0, # of connection points: 4
#     Node 49, Type 0, BuildingBlock: AZAVOO_clean_sbu_0, # of connection points: 4
#     Node 50, Type 0, BuildingBlock: AZAVOO_clean_sbu_0, # of connection points: 4
#     Node 51, Type 0, BuildingBlock: AZAVOO_clean_sbu_0, # of connection points: 4
#     Node 52, Type 0, BuildingBlock: AZAVOO_clean_sbu_0, # of connection points: 4
#     Node 53, Type 0, BuildingBlock: AZAVOO_clean_sbu_0, # of connection points: 4
#     Node 54, Type 0, BuildingBlock: AZAVOO_clean_sbu_0, # of connection points: 4
#     Node 55, Type 0, BuildingBlock: AZAVOO_clean_sbu_0, # of connection points: 4
#     Node 56, Type 0, BuildingBlock: AZAVOO_clean_sbu_0, # of connection points: 4
#     Node 57, Type 0, BuildingBlock: AZAVOO_clean_sbu_0, # of connection points: 4
#     Node 58, Type 0, BuildingBlock: AZAVOO_clean_sbu_0, # of connection points: 4
#     Node 59, Type 0, BuildingBlock: AZAVOO_clean_sbu_0, # of connection points: 4
#     Node 60, Type 0, BuildingBlock: AZAVOO_clean_sbu_0, # of connection points: 4
#     Node 61, Type 0, BuildingBlock: AZAVOO_clean_sbu_0, # of connection points: 4
#     Node 62, Type 0, BuildingBlock: AZAVOO_clean_sbu_0, # of connection points: 4
#     Node 63, Type 0, BuildingBlock: AZAVOO_clean_sbu_0, # of connection points: 4
#     Node 64, Type 0, BuildingBlock: AZAVOO_clean_sbu_0, # of connection points: 4
#     Node 65, Type 0, BuildingBlock: AZAVOO_clean_sbu_0, # of connection points: 4
#     Node 66, Type 0, BuildingBlock: AZAVOO_clean_sbu_0, # of connection points: 4
#     Node 67, Type 0, BuildingBlock: AZAVOO_clean_sbu_0, # of connection points: 4
#     Node 68, Type 0, BuildingBlock: AZAVOO_clean_sbu_0, # of connection points: 4
#     Node 69, Type 0, BuildingBlock: AZAVOO_clean_sbu_0, # of connection points: 4
#     Node 70, Type 0, BuildingBlock: AZAVOO_clean_sbu_0, # of connection points: 4
#     Node 71, Type 0, BuildingBlock: AZAVOO_clean_sbu_0, # of connection points: 4
#     Node 72, Type 0, BuildingBlock: AZAVOO_clean_sbu_0, # of connection points: 4
#     Node 73, Type 0, BuildingBlock: AZAVOO_clean_sbu_0, # of connection points: 4
#     Node 74, Type 0, BuildingBlock: AZAVOO_clean_sbu_0, # of connection points: 4
#     Node 75, Type 0, BuildingBlock: AZAVOO_clean_sbu_0, # of connection points: 4
#     Node 76, Type 0, BuildingBlock: AZAVOO_clean_sbu_0, # of connection points: 4
#     Node 77, Type 0, BuildingBlock: AZAVOO_clean_sbu_0, # of connection points: 4
#     Node 78, Type 0, BuildingBlock: AZAVOO_clean_sbu_0, # of connection points: 4
#     Node 79, Type 0, BuildingBlock: AZAVOO_clean_sbu_0, # of connection points: 4
#     Node 80, Type 0, BuildingBlock: AZAVOO_clean_sbu_0, # of connection points: 4
#     Node 81, Type 0, BuildingBlock: AZAVOO_clean_sbu_0, # of connection points: 4
#     Node 82, Type 0, BuildingBlock: AZAVOO_clean_sbu_0, # of connection points: 4
#     Node 83, Type 0, BuildingBlock: AZAVOO_clean_sbu_0, # of connection points: 4
#     Node 84, Type 0, BuildingBlock: AZAVOO_clean_sbu_0, # of connection points: 4
#     Node 85, Type 0, BuildingBlock: AZAVOO_clean_sbu_0, # of connection points: 4
#     Node 86, Type 0, BuildingBlock: AZAVOO_clean_sbu_0, # of connection points: 4
#     Node 87, Type 0, BuildingBlock: AZAVOO_clean_sbu_0, # of connection points: 4
#     Node 88, Type 0, BuildingBlock: AZAVOO_clean_sbu_0, # of connection points: 4
#     Node 89, Type 0, BuildingBlock: AZAVOO_clean_sbu_0, # of connection points: 4
#     Node 90, Type 0, BuildingBlock: AZAVOO_clean_sbu_0, # of connection points: 4
#     Node 91, Type 0, BuildingBlock: AZAVOO_clean_sbu_0, # of connection points: 4
#     Node 92, Type 0, BuildingBlock: AZAVOO_clean_sbu_0, # of connection points: 4
#     Node 93, Type 0, BuildingBlock: AZAVOO_clean_sbu_0, # of connection points: 4
#     Node 94, Type 0, BuildingBlock: AZAVOO_clean_sbu_0, # of connection points: 4
#     Node 95, Type 0, BuildingBlock: AZAVOO_clean_sbu_0, # of connection points: 4
#     Edge 96, Type (0, 0), BuildingBlock: OJICUG_clean_linker_0, # of connection points: 2
#     Edge 97, Type (0, 0), BuildingBlock: OJICUG_clean_linker_0, # of connection points: 2
#     Edge 98, Type (0, 0), BuildingBlock: OJICUG_clean_linker_0, # of connection points: 2
#     Edge 99, Type (0, 0), BuildingBlock: OJICUG_clean_linker_0, # of connection points: 2
#     Edge 100, Type (0, 0), BuildingBlock: OJICUG_clean_linker_0, # of connection points: 2
#     Edge 101, Type (0, 0), BuildingBlock: OJICUG_clean_linker_0, # of connection points: 2
#     Edge 102, Type (0, 0), BuildingBlock: OJICUG_clean_linker_0, # of connection points: 2
#     Edge 103, Type (0, 0), BuildingBlock: OJICUG_clean_linker_0, # of connection points: 2
#     Edge 104, Type (0, 0), BuildingBlock: OJICUG_clean_linker_0, # of connection points: 2
#     Edge 105, Type (0, 0), BuildingBlock: OJICUG_clean_linker_0, # of connection points: 2
#     Edge 106, Type (0, 0), BuildingBlock: OJICUG_clean_linker_0, # of connection points: 2
#     Edge 107, Type (0, 0), BuildingBlock: OJICUG_clean_linker_0, # of connection points: 2
#     Edge 108, Type (0, 0), BuildingBlock: OJICUG_clean_linker_0, # of connection points: 2
#     Edge 109, Type (0, 0), BuildingBlock: OJICUG_clean_linker_0, # of connection points: 2
#     Edge 110, Type (0, 0), BuildingBlock: OJICUG_clean_linker_0, # of connection points: 2
#     Edge 111, Type (0, 0), BuildingBlock: OJICUG_clean_linker_0, # of connection points: 2
#     Edge 112, Type (0, 0), BuildingBlock: OJICUG_clean_linker_0, # of connection points: 2
#     Edge 113, Type (0, 0), BuildingBlock: OJICUG_clean_linker_0, # of connection points: 2
#     Edge 114, Type (0, 0), BuildingBlock: OJICUG_clean_linker_0, # of connection points: 2
#     Edge 115, Type (0, 0), BuildingBlock: OJICUG_clean_linker_0, # of connection points: 2
#     Edge 116, Type (0, 0), BuildingBlock: OJICUG_clean_linker_0, # of connection points: 2
#     Edge 117, Type (0, 0), BuildingBlock: OJICUG_clean_linker_0, # of connection points: 2
#     Edge 118, Type (0, 0), BuildingBlock: OJICUG_clean_linker_0, # of connection points: 2
#     Edge 119, Type (0, 0), BuildingBlock: OJICUG_clean_linker_0, # of connection points: 2
#     Edge 120, Type (0, 0), BuildingBlock: OJICUG_clean_linker_0, # of connection points: 2
#     Edge 121, Type (0, 0), BuildingBlock: OJICUG_clean_linker_0, # of connection points: 2
#     Edge 122, Type (0, 0), BuildingBlock: OJICUG_clean_linker_0, # of connection points: 2
#     Edge 123, Type (0, 0), BuildingBlock: OJICUG_clean_linker_0, # of connection points: 2
#     Edge 124, Type (0, 0), BuildingBlock: OJICUG_clean_linker_0, # of connection points: 2
#     Edge 125, Type (0, 0), BuildingBlock: OJICUG_clean_linker_0, # of connection points: 2
#     Edge 126, Type (0, 0), BuildingBlock: OJICUG_clean_linker_0, # of connection points: 2
#     Edge 127, Type (0, 0), BuildingBlock: OJICUG_clean_linker_0, # of connection points: 2
#     Edge 128, Type (0, 0), BuildingBlock: OJICUG_clean_linker_0, # of connection points: 2
#     Edge 129, Type (0, 0), BuildingBlock: OJICUG_clean_linker_0, # of connection points: 2
#     Edge 130, Type (0, 0), BuildingBlock: OJICUG_clean_linker_0, # of connection points: 2
#     Edge 131, Type (0, 0), BuildingBlock: OJICUG_clean_linker_0, # of connection points: 2
#     Edge 132, Type (0, 0), BuildingBlock: OJICUG_clean_linker_0, # of connection points: 2
#     Edge 133, Type (0, 0), BuildingBlock: OJICUG_clean_linker_0, # of connection points: 2
#     Edge 134, Type (0, 0), BuildingBlock: OJICUG_clean_linker_0, # of connection points: 2
#     Edge 135, Type (0, 0), BuildingBlock: OJICUG_clean_linker_0, # of connection points: 2
#     Edge 136, Type (0, 0), BuildingBlock: OJICUG_clean_linker_0, # of connection points: 2
#     Edge 137, Type (0, 0), BuildingBlock: OJICUG_clean_linker_0, # of connection points: 2
#     Edge 138, Type (0, 0), BuildingBlock: OJICUG_clean_linker_0, # of connection points: 2
#     Edge 139, Type (0, 0), BuildingBlock: OJICUG_clean_linker_0, # of connection points: 2
#     Edge 140, Type (0, 0), BuildingBlock: OJICUG_clean_linker_0, # of connection points: 2
#     Edge 141, Type (0, 0), BuildingBlock: OJICUG_clean_linker_0, # of connection points: 2
#     Edge 142, Type (0, 0), BuildingBlock: OJICUG_clean_linker_0, # of connection points: 2
#     Edge 143, Type (0, 0), BuildingBlock: OJICUG_clean_linker_0, # of connection points: 2
#     Edge 144, Type (0, 0), BuildingBlock: OJICUG_clean_linker_0, # of connection points: 2
#     Edge 145, Type (0, 0), BuildingBlock: OJICUG_clean_linker_0, # of connection points: 2
#     Edge 146, Type (0, 0), BuildingBlock: OJICUG_clean_linker_0, # of connection points: 2
#     Edge 147, Type (0, 0), BuildingBlock: OJICUG_clean_linker_0, # of connection points: 2
#     Edge 148, Type (0, 0), BuildingBlock: OJICUG_clean_linker_0, # of connection points: 2
#     Edge 149, Type (0, 0), BuildingBlock: OJICUG_clean_linker_0, # of connection points: 2
#     Edge 150, Type (0, 0), BuildingBlock: OJICUG_clean_linker_0, # of connection points: 2
#     Edge 151, Type (0, 0), BuildingBlock: OJICUG_clean_linker_0, # of connection points: 2
#     Edge 152, Type (0, 0), BuildingBlock: OJICUG_clean_linker_0, # of connection points: 2
#     Edge 153, Type (0, 0), BuildingBlock: OJICUG_clean_linker_0, # of connection points: 2
#     Edge 154, Type (0, 0), BuildingBlock: OJICUG_clean_linker_0, # of connection points: 2
#     Edge 155, Type (0, 0), BuildingBlock: OJICUG_clean_linker_0, # of connection points: 2
#     Edge 156, Type (0, 0), BuildingBlock: OJICUG_clean_linker_0, # of connection points: 2
#     Edge 157, Type (0, 0), BuildingBlock: OJICUG_clean_linker_0, # of connection points: 2
#     Edge 158, Type (0, 0), BuildingBlock: OJICUG_clean_linker_0, # of connection points: 2
#     Edge 159, Type (0, 0), BuildingBlock: OJICUG_clean_linker_0, # of connection points: 2
#     Edge 160, Type (0, 0), BuildingBlock: OJICUG_clean_linker_0, # of connection points: 2
#     Edge 161, Type (0, 0), BuildingBlock: OJICUG_clean_linker_0, # of connection points: 2
#     Edge 162, Type (0, 0), BuildingBlock: OJICUG_clean_linker_0, # of connection points: 2
#     Edge 163, Type (0, 0), BuildingBlock: OJICUG_clean_linker_0, # of connection points: 2
#     Edge 164, Type (0, 0), BuildingBlock: OJICUG_clean_linker_0, # of connection points: 2
#     Edge 165, Type (0, 0), BuildingBlock: OJICUG_clean_linker_0, # of connection points: 2
#     Edge 166, Type (0, 0), BuildingBlock: OJICUG_clean_linker_0, # of connection points: 2
#     Edge 167, Type (0, 0), BuildingBlock: OJICUG_clean_linker_0, # of connection points: 2
#     Edge 168, Type (0, 0), BuildingBlock: OJICUG_clean_linker_0, # of connection points: 2
#     Edge 169, Type (0, 0), BuildingBlock: OJICUG_clean_linker_0, # of connection points: 2
#     Edge 170, Type (0, 0), BuildingBlock: OJICUG_clean_linker_0, # of connection points: 2
#     Edge 171, Type (0, 0), BuildingBlock: OJICUG_clean_linker_0, # of connection points: 2
#     Edge 172, Type (0, 0), BuildingBlock: OJICUG_clean_linker_0, # of connection points: 2
#     Edge 173, Type (0, 0), BuildingBlock: OJICUG_clean_linker_0, # of connection points: 2
#     Edge 174, Type (0, 0), BuildingBlock: OJICUG_clean_linker_0, # of connection points: 2
#     Edge 175, Type (0, 0), BuildingBlock: OJICUG_clean_linker_0, # of connection points: 2
#     Edge 176, Type (0, 0), BuildingBlock: OJICUG_clean_linker_0, # of connection points: 2
#     Edge 177, Type (0, 0), BuildingBlock: OJICUG_clean_linker_0, # of connection points: 2
#     Edge 178, Type (0, 0), BuildingBlock: OJICUG_clean_linker_0, # of connection points: 2
#     Edge 179, Type (0, 0), BuildingBlock: OJICUG_clean_linker_0, # of connection points: 2
#     Edge 180, Type (0, 0), BuildingBlock: OJICUG_clean_linker_0, # of connection points: 2
#     Edge 181, Type (0, 0), BuildingBlock: OJICUG_clean_linker_0, # of connection points: 2
#     Edge 182, Type (0, 0), BuildingBlock: OJICUG_clean_linker_0, # of connection points: 2
#     Edge 183, Type (0, 0), BuildingBlock: OJICUG_clean_linker_0, # of connection points: 2
#     Edge 184, Type (0, 0), BuildingBlock: OJICUG_clean_linker_0, # of connection points: 2
#     Edge 185, Type (0, 0), BuildingBlock: OJICUG_clean_linker_0, # of connection points: 2
#     Edge 186, Type (0, 0), BuildingBlock: OJICUG_clean_linker_0, # of connection points: 2
#     Edge 187, Type (0, 0), BuildingBlock: OJICUG_clean_linker_0, # of connection points: 2
#     Edge 188, Type (0, 0), BuildingBlock: OJICUG_clean_linker_0, # of connection points: 2
#     Edge 189, Type (0, 0), BuildingBlock: OJICUG_clean_linker_0, # of connection points: 2
#     Edge 190, Type (0, 0), BuildingBlock: OJICUG_clean_linker_0, # of connection points: 2
#     Edge 191, Type (0, 0), BuildingBlock: OJICUG_clean_linker_0, # of connection points: 2
#     Edge 192, Type (0, 0), BuildingBlock: OJICUG_clean_linker_0, # of connection points: 2
#     Edge 193, Type (0, 0), BuildingBlock: OJICUG_clean_linker_0, # of connection points: 2
#     Edge 194, Type (0, 0), BuildingBlock: OJICUG_clean_linker_0, # of connection points: 2
#     Edge 195, Type (0, 0), BuildingBlock: OJICUG_clean_linker_0, # of connection points: 2
#     Edge 196, Type (0, 0), BuildingBlock: OJICUG_clean_linker_0, # of connection points: 2
#     Edge 197, Type (0, 0), BuildingBlock: OJICUG_clean_linker_0, # of connection points: 2
#     Edge 198, Type (0, 0), BuildingBlock: OJICUG_clean_linker_0, # of connection points: 2
#     Edge 199, Type (0, 0), BuildingBlock: OJICUG_clean_linker_0, # of connection points: 2
#     Edge 200, Type (0, 0), BuildingBlock: OJICUG_clean_linker_0, # of connection points: 2
#     Edge 201, Type (0, 0), BuildingBlock: OJICUG_clean_linker_0, # of connection points: 2
#     Edge 202, Type (0, 0), BuildingBlock: OJICUG_clean_linker_0, # of connection points: 2
#     Edge 203, Type (0, 0), BuildingBlock: OJICUG_clean_linker_0, # of connection points: 2
#     Edge 204, Type (0, 0), BuildingBlock: OJICUG_clean_linker_0, # of connection points: 2
#     Edge 205, Type (0, 0), BuildingBlock: OJICUG_clean_linker_0, # of connection points: 2
#     Edge 206, Type (0, 0), BuildingBlock: OJICUG_clean_linker_0, # of connection points: 2
#     Edge 207, Type (0, 0), BuildingBlock: OJICUG_clean_linker_0, # of connection points: 2
#     Edge 208, Type (0, 0), BuildingBlock: OJICUG_clean_linker_0, # of connection points: 2
#     Edge 209, Type (0, 0), BuildingBlock: OJICUG_clean_linker_0, # of connection points: 2
#     Edge 210, Type (0, 0), BuildingBlock: OJICUG_clean_linker_0, # of connection points: 2
#     Edge 211, Type (0, 0), BuildingBlock: OJICUG_clean_linker_0, # of connection points: 2
#     Edge 212, Type (0, 0), BuildingBlock: OJICUG_clean_linker_0, # of connection points: 2
#     Edge 213, Type (0, 0), BuildingBlock: OJICUG_clean_linker_0, # of connection points: 2
#     Edge 214, Type (0, 0), BuildingBlock: OJICUG_clean_linker_0, # of connection points: 2
#     Edge 215, Type (0, 0), BuildingBlock: OJICUG_clean_linker_0, # of connection points: 2
#     Edge 216, Type (0, 0), BuildingBlock: OJICUG_clean_linker_0, # of connection points: 2
#     Edge 217, Type (0, 0), BuildingBlock: OJICUG_clean_linker_0, # of connection points: 2
#     Edge 218, Type (0, 0), BuildingBlock: OJICUG_clean_linker_0, # of connection points: 2
#     Edge 219, Type (0, 0), BuildingBlock: OJICUG_clean_linker_0, # of connection points: 2
#     Edge 220, Type (0, 0), BuildingBlock: OJICUG_clean_linker_0, # of connection points: 2
#     Edge 221, Type (0, 0), BuildingBlock: OJICUG_clean_linker_0, # of connection points: 2
#     Edge 222, Type (0, 0), BuildingBlock: OJICUG_clean_linker_0, # of connection points: 2
#     Edge 223, Type (0, 0), BuildingBlock: OJICUG_clean_linker_0, # of connection points: 2
#     Edge 224, Type (0, 0), BuildingBlock: OJICUG_clean_linker_0, # of connection points: 2
#     Edge 225, Type (0, 0), BuildingBlock: OJICUG_clean_linker_0, # of connection points: 2
#     Edge 226, Type (0, 0), BuildingBlock: OJICUG_clean_linker_0, # of connection points: 2
#     Edge 227, Type (0, 0), BuildingBlock: OJICUG_clean_linker_0, # of connection points: 2
#     Edge 228, Type (0, 0), BuildingBlock: OJICUG_clean_linker_0, # of connection points: 2
#     Edge 229, Type (0, 0), BuildingBlock: OJICUG_clean_linker_0, # of connection points: 2
#     Edge 230, Type (0, 0), BuildingBlock: OJICUG_clean_linker_0, # of connection points: 2
#     Edge 231, Type (0, 0), BuildingBlock: OJICUG_clean_linker_0, # of connection points: 2
#     Edge 232, Type (0, 0), BuildingBlock: OJICUG_clean_linker_0, # of connection points: 2
#     Edge 233, Type (0, 0), BuildingBlock: OJICUG_clean_linker_0, # of connection points: 2
#     Edge 234, Type (0, 0), BuildingBlock: OJICUG_clean_linker_0, # of connection points: 2
#     Edge 235, Type (0, 0), BuildingBlock: OJICUG_clean_linker_0, # of connection points: 2
#     Edge 236, Type (0, 0), BuildingBlock: OJICUG_clean_linker_0, # of connection points: 2
#     Edge 237, Type (0, 0), BuildingBlock: OJICUG_clean_linker_0, # of connection points: 2
#     Edge 238, Type (0, 0), BuildingBlock: OJICUG_clean_linker_0, # of connection points: 2
#     Edge 239, Type (0, 0), BuildingBlock: OJICUG_clean_linker_0, # of connection points: 2
#     Edge 240, Type (0, 0), BuildingBlock: OJICUG_clean_linker_0, # of connection points: 2
#     Edge 241, Type (0, 0), BuildingBlock: OJICUG_clean_linker_0, # of connection points: 2
#     Edge 242, Type (0, 0), BuildingBlock: OJICUG_clean_linker_0, # of connection points: 2
#     Edge 243, Type (0, 0), BuildingBlock: OJICUG_clean_linker_0, # of connection points: 2
#     Edge 244, Type (0, 0), BuildingBlock: OJICUG_clean_linker_0, # of connection points: 2
#     Edge 245, Type (0, 0), BuildingBlock: OJICUG_clean_linker_0, # of connection points: 2
#     Edge 246, Type (0, 0), BuildingBlock: OJICUG_clean_linker_0, # of connection points: 2
#     Edge 247, Type (0, 0), BuildingBlock: OJICUG_clean_linker_0, # of connection points: 2
#     Edge 248, Type (0, 0), BuildingBlock: OJICUG_clean_linker_0, # of connection points: 2
#     Edge 249, Type (0, 0), BuildingBlock: OJICUG_clean_linker_0, # of connection points: 2
#     Edge 250, Type (0, 0), BuildingBlock: OJICUG_clean_linker_0, # of connection points: 2
#     Edge 251, Type (0, 0), BuildingBlock: OJICUG_clean_linker_0, # of connection points: 2
#     Edge 252, Type (0, 0), BuildingBlock: OJICUG_clean_linker_0, # of connection points: 2
#     Edge 253, Type (0, 0), BuildingBlock: OJICUG_clean_linker_0, # of connection points: 2
#     Edge 254, Type (0, 0), BuildingBlock: OJICUG_clean_linker_0, # of connection points: 2
#     Edge 255, Type (0, 0), BuildingBlock: OJICUG_clean_linker_0, # of connection points: 2
#     Edge 256, Type (0, 0), BuildingBlock: OJICUG_clean_linker_0, # of connection points: 2
#     Edge 257, Type (0, 0), BuildingBlock: OJICUG_clean_linker_0, # of connection points: 2
#     Edge 258, Type (0, 0), BuildingBlock: OJICUG_clean_linker_0, # of connection points: 2
#     Edge 259, Type (0, 0), BuildingBlock: OJICUG_clean_linker_0, # of connection points: 2
#     Edge 260, Type (0, 0), BuildingBlock: OJICUG_clean_linker_0, # of connection points: 2
#     Edge 261, Type (0, 0), BuildingBlock: OJICUG_clean_linker_0, # of connection points: 2
#     Edge 262, Type (0, 0), BuildingBlock: OJICUG_clean_linker_0, # of connection points: 2
#     Edge 263, Type (0, 0), BuildingBlock: OJICUG_clean_linker_0, # of connection points: 2
#     Edge 264, Type (0, 0), BuildingBlock: OJICUG_clean_linker_0, # of connection points: 2
#     Edge 265, Type (0, 0), BuildingBlock: OJICUG_clean_linker_0, # of connection points: 2
#     Edge 266, Type (0, 0), BuildingBlock: OJICUG_clean_linker_0, # of connection points: 2
#     Edge 267, Type (0, 0), BuildingBlock: OJICUG_clean_linker_0, # of connection points: 2
#     Edge 268, Type (0, 0), BuildingBlock: OJICUG_clean_linker_0, # of connection points: 2
#     Edge 269, Type (0, 0), BuildingBlock: OJICUG_clean_linker_0, # of connection points: 2
#     Edge 270, Type (0, 0), BuildingBlock: OJICUG_clean_linker_0, # of connection points: 2
#     Edge 271, Type (0, 0), BuildingBlock: OJICUG_clean_linker_0, # of connection points: 2
#     Edge 272, Type (0, 0), BuildingBlock: OJICUG_clean_linker_0, # of connection points: 2
#     Edge 273, Type (0, 0), BuildingBlock: OJICUG_clean_linker_0, # of connection points: 2
#     Edge 274, Type (0, 0), BuildingBlock: OJICUG_clean_linker_0, # of connection points: 2
#     Edge 275, Type (0, 0), BuildingBlock: OJICUG_clean_linker_0, # of connection points: 2
#     Edge 276, Type (0, 0), BuildingBlock: OJICUG_clean_linker_0, # of connection points: 2
#     Edge 277, Type (0, 0), BuildingBlock: OJICUG_clean_linker_0, # of connection points: 2
#     Edge 278, Type (0, 0), BuildingBlock: OJICUG_clean_linker_0, # of connection points: 2
#     Edge 279, Type (0, 0), BuildingBlock: OJICUG_clean_linker_0, # of connection points: 2
#     Edge 280, Type (0, 0), BuildingBlock: OJICUG_clean_linker_0, # of connection points: 2
#     Edge 281, Type (0, 0), BuildingBlock: OJICUG_clean_linker_0, # of connection points: 2
#     Edge 282, Type (0, 0), BuildingBlock: OJICUG_clean_linker_0, # of connection points: 2
#     Edge 283, Type (0, 0), BuildingBlock: OJICUG_clean_linker_0, # of connection points: 2
#     Edge 284, Type (0, 0), BuildingBlock: OJICUG_clean_linker_0, # of connection points: 2
#     Edge 285, Type (0, 0), BuildingBlock: OJICUG_clean_linker_0, # of connection points: 2
#     Edge 286, Type (0, 0), BuildingBlock: OJICUG_clean_linker_0, # of connection points: 2
#     Edge 287, Type (0, 0), BuildingBlock: OJICUG_clean_linker_0, # of connection points: 2
# Relax obj value: 0.175
# Max RMSD: 0.159
# Mean RMSD: 0.159
data_MOF--net-kfi--node1-AZAVOO_clean_sbu_0--edge1-OJICUG_clean_linker_0
_symmetry_space_group_name_H-M    P1
_symmetry_Int_Tables_number       1
_symmetry_cell_setting            triclinic
loop_
_symmetry_equiv_pos_as_xyz
'x, y, z'
_cell_length_a     65.144317
_cell_length_b     65.069842
_cell_length_c     65.068585
_cell_angle_alpha  89.993422
_cell_angle_beta   89.993149
_cell_angle_gamma 90.000878
loop_
_atom_site_label
_atom_site_type_symbol
_atom_site_fract_x
_atom_site_fract_y
_atom_site_fract_z
_atom_type_partial_charge
Mg0 Mg 0.07821 0.19627 0.32687 0.0
O1 O 0.08856 0.22175 0.3046 0.0
O2 O 0.12104 0.22987 0.31188 0.0
Mg3 Mg 0.13208 0.20834 0.33718 0.0
C4 C 0.10468 0.23247 0.30142 0.0
C5 C 0.04066 0.17501 0.30661 0.0
O6 O 0.05038 0.15878 0.31367 0.0
O7 O 0.09494 0.17208 0.30772 0.0
O8 O 0.12717 0.18139 0.3152 0.0
O9 O 0.07073 0.22028 0.35038 0.0
O10 O 0.10061 0.20431 0.34818 0.0
C11 C 0.11431 0.16999 0.30572 0.0
C12 C 0.08939 0.21802 0.35682 0.0
O13 O 0.04885 0.19259 0.30869 0.0
Mg14 Mg 0.79586 0.08399 0.31677 0.0
O15 O 0.76952 0.09108 0.29383 0.0
O16 O 0.7644 0.12504 0.29537 0.0
Mg17 Mg 0.78691 0.13963 0.3176 0.0
C18 C 0.75986 0.10732 0.28832 0.0
C19 C 0.81639 0.04274 0.30622 0.0
O20 O 0.83205 0.05326 0.31339 0.0
O21 O 0.82017 0.09623 0.29434 0.0
O22 O 0.81315 0.12968 0.29703 0.0
O23 O 0.77294 0.08092 0.34239 0.0
O24 O 0.78801 0.11004 0.33358 0.0
C25 C 0.82356 0.11492 0.28948 0.0
C26 C 0.77451 0.10062 0.34452 0.0
O27 O 0.7991 0.05159 0.30451 0.0
Mg28 Mg 0.91906 0.79667 0.32812 0.0
O29 O 0.90705 0.7735 0.30413 0.0
O30 O 0.87379 0.76828 0.3106 0.0
Mg31 Mg 0.86414 0.78915 0.337 0.0
C32 C 0.89 0.76462 0.3002 0.0
C33 C 0.95776 0.81686 0.30968 0.0
O34 O 0.9486 0.83292 0.3178 0.0
O35 O 0.90487 0.82337 0.31025 0.0
O36 O 0.87176 0.81686 0.31673 0.0
O37 O 0.92406 0.77065 0.3501 0.0
O38 O 0.89563 0.78913 0.34861 0.0
C39 C 0.88586 0.82748 0.30815 0.0
C40 C 0.90549 0.77392 0.35638 0.0
O41 O 0.94897 0.79946 0.31062 0.0
Mg42 Mg 0.1954 0.91209 0.31693 0.0
O43 O 0.22274 0.90433 0.29549 0.0
O44 O 0.22768 0.87039 0.29768 0.0
Mg45 Mg 0.20355 0.85646 0.31859 0.0
C46 C 0.2326 0.88802 0.29064 0.0
C47 C 0.17652 0.95365 0.30374 0.0
O48 O 0.15993 0.94377 0.30961 0.0
O49 O 0.17241 0.9002 0.29307 0.0
O50 O 0.17893 0.86665 0.29597 0.0
O51 O 0.21675 0.91519 0.34376 0.0
O52 O 0.20197 0.88606 0.33465 0.0
C53 C 0.16926 0.8816 0.28779 0.0
C54 C 0.21481 0.89557 0.34632 0.0
O55 O 0.19364 0.94431 0.30397 0.0
Mg56 Mg 0.07576 0.79987 0.67538 0.0
O57 O 0.08494 0.7736 0.69757 0.0
O58 O 0.11858 0.76822 0.69332 0.0
Mg59 Mg 0.13109 0.79084 0.66985 0.0
C60 C 0.10148 0.7639 0.70187 0.0
C61 C 0.03532 0.81964 0.6912 0.0
O62 O 0.04476 0.8361 0.68431 0.0
O63 O 0.08979 0.82392 0.69714 0.0
O64 O 0.12286 0.81658 0.69183 0.0
O65 O 0.07072 0.77702 0.64992 0.0
O66 O 0.10035 0.79218 0.65637 0.0
C67 C 0.10881 0.82692 0.70072 0.0
C68 C 0.09014 0.77869 0.64615 0.0
O69 O 0.04457 0.80246 0.69058 0.0
Mg70 Mg 0.19825 0.07861 0.66953 0.0
O71 O 0.22428 0.08832 0.69145 0.0
O72 O 0.23221 0.121 0.68473 0.0
Mg73 Mg 0.21012 0.13279 0.66029 0.0
C74 C 0.2351 0.10437 0.6947 0.0
C75 C 0.17722 0.04059 0.68907 0.0
O76 O 0.16101 0.05057 0.68238 0.0
O77 O 0.17449 0.09495 0.68958 0.0
O78 O 0.18361 0.12738 0.68267 0.0
O79 O 0.22171 0.07171 0.64531 0.0
O80 O 0.20585 0.10157 0.6486 0.0
C81 C 0.1724 0.11429 0.69206 0.0
C82 C 0.21936 0.09056 0.63941 0.0
O83 O 0.19482 0.04874 0.68702 0.0
Mg84 Mg 0.91549 0.19691 0.66785 0.0
O85 O 0.90489 0.22195 0.69064 0.0
O86 O 0.87174 0.22816 0.68457 0.0
Mg87 Mg 0.86064 0.20598 0.6599 0.0
C88 C 0.88832 0.2318 0.69435 0.0
C89 C 0.95449 0.17676 0.68568 0.0
O90 O 0.94478 0.16058 0.67851 0.0
O91 O 0.90091 0.17182 0.68761 0.0
O92 O 0.86792 0.17926 0.68155 0.0
O93 O 0.92073 0.22131 0.64413 0.0
O94 O 0.89178 0.20391 0.64754 0.0
C95 C 0.88181 0.1686 0.69042 0.0
C96 C 0.90192 0.21822 0.63852 0.0
O97 O 0.94584 0.19423 0.68459 0.0
Mg98 Mg 0.79688 0.91402 0.67763 0.0
O99 O 0.76884 0.90594 0.69785 0.0
O100 O 0.76163 0.87283 0.69245 0.0
Mg101 Mg 0.78578 0.85939 0.67109 0.0
C102 C 0.75774 0.89004 0.70099 0.0
C103 C 0.81684 0.95384 0.69303 0.0
O104 O 0.8329 0.94365 0.6863 0.0
O105 O 0.81877 0.89925 0.70067 0.0
O106 O 0.81048 0.86634 0.69527 0.0
O107 O 0.77582 0.91973 0.65122 0.0
O108 O 0.79058 0.8898 0.65756 0.0
C109 C 0.82079 0.88017 0.70466 0.0
C110 C 0.77803 0.90049 0.64669 0.0
O111 O 0.79944 0.94505 0.69296 0.0
Mg112 Mg 0.32109 0.084 0.1963 0.0
O113 O 0.29721 0.09232 0.22133 0.0
O114 O 0.29887 0.12638 0.22556 0.0
Mg115 Mg 0.32241 0.13987 0.20363 0.0
C116 C 0.29144 0.10886 0.23027 0.0
C117 C 0.30753 0.04307 0.17614 0.0
O118 O 0.31366 0.05326 0.15982 0.0
O119 O 0.30009 0.09588 0.17064 0.0
O120 O 0.30289 0.12951 0.17674 0.0
O121 O 0.34547 0.08127 0.2206 0.0
O122 O 0.33795 0.11 0.20412 0.0
C123 C 0.29564 0.1145 0.16645 0.0
C124 C 0.34798 0.10088 0.21851 0.0
O125 O 0.30796 0.05191 0.19354 0.0
Mg126 Mg 0.91622 0.32004 0.19591 0.0
O127 O 0.90601 0.29824 0.22187 0.0
O128 O 0.87285 0.30407 0.22822 0.0
Mg129 Mg 0.86148 0.32783 0.20516 0.0
C130 C 0.88961 0.29466 0.23202 0.0
C131 C 0.9549 0.30019 0.17646 0.0
O132 O 0.94522 0.30592 0.15969 0.0
O133 O 0.90162 0.29917 0.17188 0.0
O134 O 0.86857 0.30498 0.1792 0.0
O135 O 0.92191 0.34458 0.21916 0.0
O136 O 0.89253 0.34061 0.20261 0.0
C137 C 0.88258 0.29588 0.16887 0.0
C138 C 0.90302 0.35009 0.21641 0.0
O139 O 0.94641 0.30309 0.19378 0.0
Mg140 Mg 0.67507 0.90754 0.19574 0.0
O141 O 0.70045 0.90023 0.21949 0.0
O142 O 0.70044 0.8661 0.22347 0.0
Mg143 Mg 0.67629 0.85165 0.20294 0.0
C144 C 0.70746 0.88387 0.22785 0.0
C145 C 0.68519 0.94965 0.1758 0.0
O146 O 0.67842 0.93968 0.1596 0.0
O147 O 0.6954 0.89664 0.16912 0.0
O148 O 0.69411 0.86285 0.17501 0.0
O149 O 0.6516 0.90922 0.2209 0.0
O150 O 0.65962 0.8808 0.20416 0.0
C151 C 0.7003 0.87822 0.16453 0.0
C152 C 0.64964 0.88955 0.2188 0.0
O153 O 0.68657 0.94023 0.19283 0.0
Mg154 Mg 0.07521 0.6626 0.19375 0.0
O155 O 0.08617 0.68805 0.21599 0.0
O156 O 0.12021 0.68464 0.21891 0.0
Mg157 Mg 0.13111 0.65813 0.19899 0.0
C158 C 0.10344 0.69373 0.22344 0.0
C159 C 0.03461 0.67838 0.17429 0.0
O160 O 0.04362 0.67091 0.15784 0.0
O161 O 0.08717 0.68116 0.16629 0.0
O162 O 0.12086 0.6768 0.17122 0.0
O163 O 0.07217 0.64034 0.22003 0.0
O164 O 0.10048 0.64477 0.20191 0.0
C165 C 0.1058 0.6843 0.16118 0.0
C166 C 0.09144 0.63638 0.21735 0.0
O167 O 0.04398 0.6777 0.19139 0.0
Mg168 Mg 0.32435 0.91343 0.7953 0.0
O169 O 0.30077 0.9031 0.77108 0.0
O170 O 0.30688 0.87024 0.76345 0.0
Mg171 Mg 0.33295 0.85905 0.78396 0.0
C172 C 0.29673 0.88681 0.7609 0.0
C173 C 0.30585 0.952 0.81653 0.0
O174 O 0.3132 0.94246 0.83274 0.0
O175 O 0.30616 0.89757 0.82084 0.0
O176 O 0.31268 0.86498 0.812 0.0
O177 O 0.34686 0.91993 0.77011 0.0
O178 O 0.3448 0.89038 0.78679 0.0
C179 C 0.30405 0.87827 0.82359 0.0
C180 C 0.35305 0.90118 0.7725 0.0
O181 O 0.30705 0.94333 0.79909 0.0
Mg182 Mg 0.07879 0.32097 0.79888 0.0
O183 O 0.08837 0.29748 0.77389 0.0
O184 O 0.12242 0.30012 0.77038 0.0
Mg185 Mg 0.13474 0.32365 0.793 0.0
C186 C 0.10523 0.29224 0.76525 0.0
C187 C 0.03768 0.30628 0.81784 0.0
O188 O 0.04729 0.31256 0.83444 0.0
O189 O 0.09042 0.29982 0.82459 0.0
O190 O 0.12408 0.30336 0.81926 0.0
O191 O 0.07617 0.34561 0.77479 0.0
O192 O 0.10462 0.33857 0.79186 0.0
C193 C 0.109 0.29562 0.82907 0.0
C194 C 0.09563 0.3486 0.77738 0.0
O195 O 0.04692 0.30705 0.80066 0.0
Mg196 Mg 0.67196 0.08452 0.79706 0.0
O197 O 0.69591 0.09247 0.77202 0.0
O198 O 0.69355 0.12634 0.76667 0.0
Mg199 Mg 0.66939 0.1401 0.78765 0.0
C200 C 0.70153 0.10887 0.76274 0.0
C201 C 0.68511 0.04378 0.81813 0.0
O202 O 0.67815 0.05394 0.83413 0.0
O203 O 0.693 0.09772 0.82211 0.0
O204 O 0.68954 0.13104 0.8146 0.0
O205 O 0.64756 0.08059 0.77286 0.0
O206 O 0.65465 0.10995 0.78833 0.0
C207 C 0.69725 0.11658 0.82535 0.0
C208 C 0.6447 0.10021 0.77432 0.0
O209 O 0.6855 0.05264 0.80073 0.0
Mg210 Mg 0.91272 0.66224 0.79544 0.0
O211 O 0.90241 0.68587 0.77127 0.0
O212 O 0.86991 0.67894 0.76287 0.0
Mg213 Mg 0.85886 0.65245 0.78288 0.0
C214 C 0.88623 0.68962 0.76085 0.0
C215 C 0.95016 0.68161 0.81777 0.0
O216 O 0.94044 0.67379 0.83365 0.0
O217 O 0.89591 0.68034 0.82043 0.0
O218 O 0.8637 0.67338 0.81065 0.0
O219 O 0.92021 0.63998 0.7702 0.0
O220 O 0.89033 0.64135 0.78624 0.0
C221 C 0.87654 0.68237 0.82246 0.0
C222 C 0.90155 0.63343 0.7721 0.0
O223 O 0.94206 0.68023 0.80008 0.0
Mg224 Mg 0.19513 0.31613 0.08305 0.0
O225 O 0.22208 0.29407 0.09039 0.0
O226 O 0.22829 0.29699 0.12407 0.0
Mg227 Mg 0.20559 0.3193 0.13829 0.0
C228 C 0.23232 0.28929 0.10648 0.0
C229 C 0.17436 0.30342 0.04247 0.0
O230 O 0.15851 0.3104 0.05283 0.0
O231 O 0.17197 0.29332 0.09669 0.0
O232 O 0.18001 0.29727 0.1298 0.0
O233 O 0.21721 0.34221 0.07832 0.0
O234 O 0.20323 0.33419 0.10819 0.0
C235 C 0.16948 0.28882 0.11561 0.0
C236 C 0.21611 0.34515 0.09794 0.0
O237 O 0.19172 0.30254 0.05129 0.0
Mg238 Mg 0.19697 0.67472 0.907 0.0
O239 O 0.2229 0.69809 0.89989 0.0
O240 O 0.22739 0.69737 0.86581 0.0
Mg241 Mg 0.20473 0.6753 0.85121 0.0
C242 C 0.23221 0.70405 0.88361 0.0
C243 C 0.17694 0.68475 0.94854 0.0
O244 O 0.16112 0.67802 0.93797 0.0
O245 O 0.17215 0.69705 0.89581 0.0
O246 O 0.17837 0.69526 0.86215 0.0
O247 O 0.22021 0.64938 0.90909 0.0
O248 O 0.20449 0.65857 0.88043 0.0
C249 C 0.1682 0.70229 0.87735 0.0
C250 C 0.21829 0.64759 0.88939 0.0
O251 O 0.19422 0.68631 0.93964 0.0
Mg252 Mg 0.31781 0.19695 0.90905 0.0
O253 O 0.29415 0.22231 0.90134 0.0
O254 O 0.29681 0.22828 0.8676 0.0
Mg255 Mg 0.32088 0.20723 0.85374 0.0
C256 C 0.28873 0.23196 0.88509 0.0
C257 C 0.30379 0.17549 0.94921 0.0
O258 O 0.31042 0.15944 0.93889 0.0
O259 O 0.2968 0.17225 0.89531 0.0
O260 O 0.30058 0.18012 0.86212 0.0
O261 O 0.34232 0.22078 0.91376 0.0
O262 O 0.33548 0.20595 0.884 0.0
C263 C 0.29273 0.1692 0.87638 0.0
C264 C 0.34547 0.21963 0.89417 0.0
O265 O 0.30388 0.19299 0.94059 0.0
Mg266 Mg 0.79488 0.32471 0.91505 0.0
O267 O 0.76842 0.303 0.9059 0.0
O268 O 0.76013 0.30965 0.87329 0.0
Mg269 Mg 0.7822 0.33386 0.86101 0.0
C270 C 0.75739 0.29975 0.88999 0.0
C271 C 0.816 0.30704 0.95385 0.0
O272 O 0.8319 0.31489 0.94422 0.0
O273 O 0.81804 0.30412 0.89838 0.0
O274 O 0.80843 0.31106 0.86609 0.0
O275 O 0.772 0.34946 0.92222 0.0
O276 O 0.78714 0.34566 0.89207 0.0
C277 C 0.81971 0.30151 0.879 0.0
C278 C 0.77409 0.35525 0.90331 0.0
O279 O 0.79855 0.30755 0.94516 0.0
Mg280 Mg 0.66764 0.79297 0.90815 0.0
O281 O 0.69039 0.76733 0.89911 0.0
O282 O 0.68482 0.75979 0.86612 0.0
Mg283 Mg 0.66044 0.78147 0.8536 0.0
C284 C 0.69426 0.75675 0.88303 0.0
C285 C 0.68376 0.8144 0.94716 0.0
O286 O 0.67623 0.83013 0.93699 0.0
O287 O 0.68748 0.81746 0.89263 0.0
O288 O 0.68167 0.80873 0.85989 0.0
O289 O 0.64382 0.7689 0.91416 0.0
O290 O 0.64773 0.78506 0.88449 0.0
C291 C 0.69032 0.82005 0.87339 0.0
C292 C 0.63852 0.77126 0.89514 0.0
O293 O 0.68375 0.79681 0.9387 0.0
Mg294 Mg 0.7959 0.67356 0.07978 0.0
O295 O 0.76957 0.69611 0.0876 0.0
O296 O 0.7639 0.6934 0.12139 0.0
Mg297 Mg 0.78637 0.67064 0.13528 0.0
C298 C 0.75976 0.70118 0.10387 0.0
C299 C 0.81538 0.68642 0.03815 0.0
O300 O 0.83175 0.67936 0.0476 0.0
O301 O 0.81964 0.69616 0.09289 0.0
O302 O 0.81204 0.69241 0.12617 0.0
O303 O 0.77329 0.64777 0.07577 0.0
O304 O 0.78807 0.6557 0.10524 0.0
C305 C 0.82243 0.7007 0.11177 0.0
C306 C 0.7748 0.64489 0.09537 0.0
O307 O 0.79848 0.68713 0.04784 0.0
Mg308 Mg 0.3178 0.79427 0.08181 0.0
O309 O 0.29337 0.77009 0.09047 0.0
O310 O 0.29744 0.76311 0.12382 0.0
Mg311 Mg 0.32294 0.78309 0.13678 0.0
C312 C 0.28831 0.76027 0.10671 0.0
C313 C 0.30468 0.81555 0.04145 0.0
O314 O 0.31286 0.8311 0.05139 0.0
O315 O 0.29885 0.82006 0.09652 0.0
O316 O 0.30368 0.81142 0.12946 0.0
O317 O 0.34067 0.76899 0.07681 0.0
O318 O 0.33647 0.78554 0.10621 0.0
C319 C 0.29588 0.82304 0.1157 0.0
C320 C 0.34543 0.77129 0.09598 0.0
O321 O 0.30302 0.79838 0.05057 0.0
Mg322 Mg 0.66613 0.19691 0.08075 0.0
O323 O 0.69076 0.21989 0.09122 0.0
O324 O 0.68539 0.22694 0.12435 0.0
Mg325 Mg 0.65875 0.20723 0.13554 0.0
C326 C 0.69541 0.22947 0.10769 0.0
C327 C 0.68474 0.17581 0.04197 0.0
O328 O 0.67773 0.1594 0.05141 0.0
O329 O 0.68363 0.17038 0.09575 0.0
O330 O 0.678 0.17875 0.12864 0.0
O331 O 0.64462 0.22324 0.0753 0.0
O332 O 0.6464 0.20565 0.10434 0.0
C333 C 0.68602 0.16719 0.11496 0.0
C334 C 0.63868 0.22061 0.09409 0.0
O335 O 0.68305 0.1932 0.05064 0.0
Mg336 Mg 0.90675 0.79805 0.681 0.0
O337 O 0.89914 0.77062 0.70244 0.0
O338 O 0.86538 0.76504 0.69949 0.0
Mg339 Mg 0.85133 0.78861 0.67799 0.0
C340 C 0.88293 0.76043 0.70691 0.0
C341 C 0.94747 0.81832 0.69446 0.0
O342 O 0.93715 0.83445 0.68808 0.0
O343 O 0.89356 0.82118 0.70419 0.0
O344 O 0.86035 0.81382 0.70024 0.0
O345 O 0.91093 0.77626 0.65456 0.0
O346 O 0.88137 0.79063 0.66293 0.0
C347 C 0.87472 0.82404 0.70874 0.0
C348 C 0.89132 0.77764 0.65181 0.0
O349 O 0.93866 0.8009 0.69456 0.0
Mg350 Mg 0.19405 0.91291 0.67616 0.0
O351 O 0.22 0.90293 0.69814 0.0
O352 O 0.22573 0.8695 0.69299 0.0
Mg353 Mg 0.20246 0.85774 0.66969 0.0
C354 C 0.22992 0.88642 0.70196 0.0
C355 C 0.17514 0.95306 0.6929 0.0
O356 O 0.15857 0.94347 0.68651 0.0
O357 O 0.16967 0.89914 0.69729 0.0
O358 O 0.17646 0.86587 0.69201 0.0
O359 O 0.21737 0.91748 0.65141 0.0
O360 O 0.20027 0.88853 0.65627 0.0
C361 C 0.16626 0.88016 0.7008 0.0
C362 C 0.21421 0.89848 0.64646 0.0
O363 O 0.1923 0.94387 0.69191 0.0
Mg364 Mg 0.08093 0.19821 0.67062 0.0
O365 O 0.09007 0.22313 0.69396 0.0
O366 O 0.1229 0.23119 0.68842 0.0
Mg367 Mg 0.13521 0.21054 0.66302 0.0
C368 C 0.10609 0.23361 0.69818 0.0
C369 C 0.04198 0.17666 0.68746 0.0
O370 O 0.05181 0.16072 0.67993 0.0
O371 O 0.09688 0.17361 0.69004 0.0
O372 O 0.12938 0.18307 0.68409 0.0
O373 O 0.07449 0.22271 0.64728 0.0
O374 O 0.1043 0.20679 0.65053 0.0
C375 C 0.11616 0.17146 0.6928 0.0
C376 C 0.09342 0.22061 0.64163 0.0
O377 O 0.05065 0.19414 0.68712 0.0
Mg378 Mg 0.79561 0.08062 0.66876 0.0
O379 O 0.7717 0.09024 0.69316 0.0
O380 O 0.76676 0.12404 0.68943 0.0
Mg381 Mg 0.78693 0.13609 0.66365 0.0
C382 C 0.76292 0.10702 0.69839 0.0
C383 C 0.81666 0.04128 0.68633 0.0
O384 O 0.83311 0.05108 0.67999 0.0
O385 O 0.82153 0.09453 0.68815 0.0
O386 O 0.81447 0.1278 0.68338 0.0
O387 O 0.77043 0.07577 0.64557 0.0
O388 O 0.78663 0.1052 0.6504 0.0
C389 C 0.82522 0.1135 0.69139 0.0
C390 C 0.77207 0.09517 0.64159 0.0
O391 O 0.7992 0.04973 0.68431 0.0
Mg392 Mg 0.91403 0.1944 0.32019 0.0
O393 O 0.90477 0.22078 0.2984 0.0
O394 O 0.87162 0.22766 0.30374 0.0
Mg395 Mg 0.85929 0.2046 0.32698 0.0
C396 C 0.88861 0.23126 0.29466 0.0
C397 C 0.95339 0.17433 0.30285 0.0
O398 O 0.94341 0.15795 0.30917 0.0
O399 O 0.89945 0.17082 0.29874 0.0
O400 O 0.86647 0.1788 0.30402 0.0
O401 O 0.91956 0.21733 0.34509 0.0
O402 O 0.89 0.20136 0.34028 0.0
C403 C 0.88041 0.16827 0.29506 0.0
C404 C 0.9005 0.21488 0.35013 0.0
O405 O 0.94473 0.19177 0.30419 0.0
Mg406 Mg 0.79698 0.91395 0.32587 0.0
O407 O 0.77478 0.90414 0.29988 0.0
O408 O 0.77095 0.8701 0.30261 0.0
Mg409 Mg 0.78967 0.85808 0.32945 0.0
C410 C 0.76704 0.88715 0.29374 0.0
C411 C 0.81748 0.95485 0.31197 0.0
O412 O 0.83353 0.94552 0.31988 0.0
O413 O 0.82447 0.90121 0.30778 0.0
O414 O 0.81816 0.86767 0.31181 0.0
O415 O 0.77046 0.91733 0.34786 0.0
O416 O 0.78796 0.88865 0.34311 0.0
C417 C 0.82896 0.88238 0.30468 0.0
C418 C 0.77272 0.89792 0.35152 0.0
O419 O 0.80038 0.94548 0.31149 0.0
Mg420 Mg 0.08635 0.79737 0.31001 0.0
O421 O 0.09291 0.77133 0.28671 0.0
O422 O 0.12682 0.76607 0.28742 0.0
Mg423 Mg 0.14182 0.78812 0.30983 0.0
C424 C 0.10896 0.76177 0.28062 0.0
C425 C 0.0449 0.81779 0.29934 0.0
O426 O 0.05534 0.83384 0.30572 0.0
O427 O 0.09824 0.82181 0.28764 0.0
O428 O 0.13174 0.81491 0.28968 0.0
O429 O 0.08346 0.7744 0.33546 0.0
O430 O 0.11261 0.78924 0.32648 0.0
C431 C 0.1168 0.82538 0.28252 0.0
C432 C 0.10314 0.77588 0.33759 0.0
O433 O 0.05389 0.80052 0.29816 0.0
Mg434 Mg 0.2006 0.07981 0.32669 0.0
O435 O 0.22455 0.09006 0.3028 0.0
O436 O 0.23174 0.12308 0.30872 0.0
Mg437 Mg 0.21149 0.13439 0.33486 0.0
C438 C 0.23438 0.10651 0.29858 0.0
C439 C 0.17904 0.0413 0.30903 0.0
O440 O 0.16319 0.05114 0.31671 0.0
O441 O 0.17516 0.0954 0.30812 0.0
O442 O 0.18384 0.12812 0.31423 0.0
O443 O 0.22593 0.07375 0.34926 0.0
O444 O 0.20906 0.10313 0.34685 0.0
C445 C 0.17246 0.11466 0.3056 0.0
C446 C 0.22343 0.09256 0.3552 0.0
O447 O 0.19662 0.04969 0.30978 0.0
Mg448 Mg 0.66479 0.91759 0.79589 0.0
O449 O 0.68679 0.90818 0.76974 0.0
O450 O 0.67927 0.87594 0.76073 0.0
Mg451 Mg 0.65431 0.86407 0.78214 0.0
C452 C 0.68977 0.89235 0.7585 0.0
C453 C 0.68205 0.95602 0.81772 0.0
O454 O 0.67307 0.94662 0.83318 0.0
O455 O 0.68453 0.90003 0.81912 0.0
O456 O 0.6769 0.86814 0.8087 0.0
O457 O 0.64081 0.92584 0.77258 0.0
O458 O 0.64341 0.89537 0.78734 0.0
C459 C 0.68663 0.88057 0.82036 0.0
C460 C 0.63448 0.90706 0.77422 0.0
O461 O 0.68255 0.94718 0.80033 0.0
Mg462 Mg 0.07718 0.67156 0.79845 0.0
O463 O 0.08609 0.6946 0.77305 0.0
O464 O 0.11932 0.68988 0.76611 0.0
Mg465 Mg 0.13205 0.66598 0.7882 0.0
C466 C 0.10226 0.69892 0.76282 0.0
C467 C 0.03739 0.68704 0.81905 0.0
O468 O 0.04741 0.68004 0.83512 0.0
O469 O 0.09133 0.69241 0.82287 0.0
O470 O 0.12438 0.68795 0.81464 0.0
O471 O 0.0722 0.64758 0.77438 0.0
O472 O 0.10157 0.65216 0.79077 0.0
C473 C 0.11033 0.69635 0.82547 0.0
C474 C 0.09133 0.64279 0.77673 0.0
O475 O 0.04617 0.68686 0.80163 0.0
Mg476 Mg 0.32177 0.07875 0.796 0.0
O477 O 0.30023 0.08824 0.76948 0.0
O478 O 0.30587 0.12142 0.76279 0.0
Mg479 Mg 0.3289 0.1336 0.78609 0.0
C480 C 0.29672 0.1045 0.75903 0.0
C481 C 0.30425 0.03954 0.81599 0.0
O482 O 0.31061 0.04963 0.83228 0.0
O483 O 0.30026 0.09335 0.81951 0.0
O484 O 0.30585 0.12636 0.81167 0.0
O485 O 0.34689 0.07342 0.77317 0.0
O486 O 0.3419 0.10279 0.78949 0.0
C487 C 0.29673 0.11244 0.82211 0.0
C488 C 0.35189 0.09246 0.77597 0.0
O489 O 0.30566 0.04804 0.79847 0.0
Mg490 Mg 0.9108 0.32041 0.79483 0.0
O491 O 0.90197 0.29796 0.76884 0.0
O492 O 0.86927 0.30399 0.76059 0.0
Mg493 Mg 0.8567 0.32853 0.78212 0.0
C494 C 0.88609 0.29432 0.75791 0.0
C495 C 0.9499 0.30463 0.81632 0.0
O496 O 0.93999 0.31278 0.83191 0.0
O497 O 0.89449 0.30047 0.8188 0.0
O498 O 0.86212 0.30695 0.80929 0.0
O499 O 0.91763 0.34449 0.7712 0.0
O500 O 0.8876 0.34079 0.78664 0.0
C501 C 0.87516 0.29793 0.82086 0.0
C502 C 0.89868 0.3501 0.77325 0.0
O503 O 0.94115 0.30396 0.7989 0.0
Mg504 Mg 0.66139 0.07601 0.20022 0.0
O505 O 0.68584 0.0866 0.22354 0.0
O506 O 0.68008 0.11979 0.23008 0.0
Mg507 Mg 0.65371 0.13086 0.21 0.0
C508 C 0.69023 0.10326 0.23294 0.0
C509 C 0.67808 0.03724 0.17871 0.0
O510 O 0.66978 0.04701 0.16311 0.0
O511 O 0.67959 0.0909 0.17409 0.0
O512 O 0.6739 0.12385 0.18217 0.0
O513 O 0.63934 0.07063 0.22619 0.0
O514 O 0.64156 0.09964 0.20864 0.0
C515 C 0.68222 0.11007 0.17095 0.0
C516 C 0.63349 0.08945 0.22347 0.0
O517 O 0.67801 0.04572 0.19629 0.0
Mg518 Mg 0.90652 0.67769 0.19676 0.0
O519 O 0.89969 0.70054 0.22312 0.0
O520 O 0.86607 0.69852 0.22952 0.0
Mg521 Mg 0.8514 0.67593 0.2073 0.0
C522 C 0.88379 0.70595 0.23331 0.0
C523 C 0.9473 0.68829 0.17596 0.0
O524 O 0.93653 0.68105 0.1605 0.0
O525 O 0.89359 0.69978 0.17275 0.0
O526 O 0.86025 0.6968 0.18034 0.0
O527 O 0.91007 0.65221 0.21951 0.0
O528 O 0.88087 0.6601 0.2042 0.0
C529 C 0.87482 0.70439 0.16959 0.0
C530 C 0.89058 0.64899 0.21733 0.0
O531 O 0.93865 0.69033 0.19333 0.0
Mg532 Mg 0.32635 0.9161 0.1967 0.0
O533 O 0.30365 0.90639 0.22209 0.0
O534 O 0.30979 0.87345 0.22948 0.0
Mg535 Mg 0.33446 0.86161 0.20773 0.0
C536 C 0.29995 0.89015 0.23248 0.0
C537 C 0.30933 0.95527 0.17598 0.0
O538 O 0.31702 0.9457 0.15995 0.0
O539 O 0.3063 0.90059 0.17238 0.0
O540 O 0.31234 0.86787 0.18112 0.0
O541 O 0.35005 0.92238 0.22076 0.0
O542 O 0.34675 0.89269 0.20459 0.0
C543 C 0.30335 0.88135 0.17004 0.0
C544 C 0.3557 0.90345 0.2185 0.0
O545 O 0.30967 0.94639 0.19335 0.0
Mg546 Mg 0.08112 0.31595 0.19705 0.0
O547 O 0.09029 0.29499 0.22411 0.0
O548 O 0.12341 0.30056 0.23092 0.0
Mg549 Mg 0.1358 0.32307 0.20719 0.0
C550 C 0.10641 0.29162 0.23478 0.0
C551 C 0.0422 0.29753 0.17727 0.0
O552 O 0.05238 0.30315 0.16077 0.0
O553 O 0.09581 0.29403 0.17405 0.0
O554 O 0.12877 0.29963 0.1818 0.0
O555 O 0.07549 0.34146 0.21927 0.0
O556 O 0.10507 0.33622 0.20342 0.0
C557 C 0.11486 0.29041 0.17146 0.0
C558 C 0.09456 0.34642 0.21666 0.0
O559 O 0.05055 0.29975 0.19476 0.0
Mg560 Mg 0.7893 0.66415 0.9122 0.0
O561 O 0.76495 0.68774 0.90173 0.0
O562 O 0.75792 0.68134 0.86876 0.0
Mg563 Mg 0.77875 0.65559 0.8576 0.0
C564 C 0.75498 0.69155 0.88524 0.0
C565 C 0.81106 0.68136 0.95052 0.0
O566 O 0.82655 0.67324 0.94044 0.0
O567 O 0.81477 0.68264 0.89662 0.0
O568 O 0.80639 0.67622 0.86389 0.0
O569 O 0.76411 0.6414 0.91824 0.0
O570 O 0.78115 0.64386 0.88894 0.0
C571 C 0.81769 0.68492 0.87736 0.0
C572 C 0.76677 0.63545 0.89945 0.0
O573 O 0.79336 0.68114 0.94233 0.0
Mg574 Mg 0.79783 0.31547 0.08299 0.0
O575 O 0.77244 0.29213 0.09189 0.0
O576 O 0.76806 0.29483 0.12589 0.0
Mg577 Mg 0.79016 0.31848 0.13883 0.0
C578 C 0.76339 0.28691 0.10856 0.0
C579 C 0.81745 0.3024 0.04167 0.0
O580 O 0.83369 0.30921 0.05153 0.0
O581 O 0.82301 0.29411 0.09555 0.0
O582 O 0.81648 0.29807 0.129 0.0
O583 O 0.77404 0.34033 0.07961 0.0
O584 O 0.79021 0.33312 0.10856 0.0
C585 C 0.82676 0.29008 0.11437 0.0
C586 C 0.77611 0.34327 0.09915 0.0
O587 O 0.80032 0.30186 0.05099 0.0
Mg588 Mg 0.66777 0.79753 0.07591 0.0
O589 O 0.69113 0.77239 0.08519 0.0
O590 O 0.68813 0.76823 0.11918 0.0
Mg591 Mg 0.66436 0.79047 0.13172 0.0
C592 C 0.69627 0.76352 0.10197 0.0
C593 C 0.68293 0.8168 0.03495 0.0
O594 O 0.67676 0.83347 0.04452 0.0
O595 O 0.6892 0.82263 0.08823 0.0
O596 O 0.68537 0.81665 0.12184 0.0
O597 O 0.64302 0.77371 0.07252 0.0
O598 O 0.64988 0.79007 0.10144 0.0
C599 C 0.69337 0.82659 0.10695 0.0
C600 C 0.63984 0.7759 0.09202 0.0
O601 O 0.68194 0.79964 0.0442 0.0
Mg602 Mg 0.19479 0.66583 0.07797 0.0
O603 O 0.21738 0.69149 0.08784 0.0
O604 O 0.22022 0.68951 0.12203 0.0
Mg605 Mg 0.19978 0.66391 0.13409 0.0
C606 C 0.225 0.69772 0.10487 0.0
C607 C 0.17557 0.67904 0.03646 0.0
O608 O 0.15927 0.6716 0.04576 0.0
O609 O 0.16717 0.68471 0.08902 0.0
O610 O 0.17198 0.68176 0.12288 0.0
O611 O 0.22088 0.64332 0.07597 0.0
O612 O 0.20269 0.64907 0.10404 0.0
C613 C 0.16191 0.68853 0.1075 0.0
C614 C 0.21809 0.64021 0.09541 0.0
O615 O 0.19256 0.67943 0.04602 0.0
Mg616 Mg 0.32568 0.19566 0.0759 0.0
O617 O 0.30244 0.22021 0.08642 0.0
O618 O 0.30819 0.22623 0.11972 0.0
Mg619 Mg 0.33291 0.20425 0.13092 0.0
C620 C 0.29849 0.22985 0.10307 0.0
C621 C 0.30819 0.17546 0.03677 0.0
O622 O 0.31551 0.15929 0.04639 0.0
O623 O 0.30587 0.17039 0.09001 0.0
O624 O 0.31115 0.17769 0.12319 0.0
O625 O 0.34885 0.22054 0.07093 0.0
O626 O 0.34565 0.20303 0.09987 0.0
C627 C 0.30255 0.16715 0.10903 0.0
C628 C 0.35427 0.21769 0.08985 0.0
O629 O 0.30921 0.19291 0.04545 0.0
Mg630 Mg 0.19351 0.32472 0.91419 0.0
O631 O 0.21792 0.30074 0.90455 0.0
O632 O 0.2216 0.30369 0.8705 0.0
Mg633 Mg 0.19984 0.32804 0.85832 0.0
C634 C 0.22636 0.29538 0.88762 0.0
C635 C 0.17388 0.30936 0.95476 0.0
O636 O 0.15743 0.31595 0.94511 0.0
O637 O 0.16785 0.30393 0.90212 0.0
O638 O 0.17333 0.30748 0.86841 0.0
O639 O 0.21795 0.34886 0.91742 0.0
O640 O 0.20115 0.34249 0.88864 0.0
C641 C 0.1635 0.29972 0.8835 0.0
C642 C 0.21566 0.35215 0.89795 0.0
O643 O 0.19116 0.31036 0.94578 0.0
Mg644 Mg 0.67115 0.19787 0.91565 0.0
O645 O 0.69293 0.22429 0.90627 0.0
O646 O 0.68716 0.23106 0.87314 0.0
Mg647 Mg 0.66386 0.20806 0.86091 0.0
C648 C 0.6964 0.23477 0.89002 0.0
C649 C 0.68829 0.17727 0.95455 0.0
O650 O 0.68167 0.16124 0.94422 0.0
O651 O 0.6922 0.1741 0.90083 0.0
O652 O 0.68648 0.18198 0.86787 0.0
O653 O 0.64637 0.22093 0.92131 0.0
O654 O 0.65097 0.20476 0.89177 0.0
C655 C 0.6955 0.17138 0.88172 0.0
C656 C 0.64122 0.21833 0.90227 0.0
O657 O 0.68729 0.19491 0.94625 0.0
Mg658 Mg 0.32935 0.79339 0.91507 0.0
O659 O 0.30552 0.76953 0.90438 0.0
O660 O 0.3116 0.7629 0.87127 0.0
Mg661 Mg 0.33763 0.78347 0.86029 0.0
C662 C 0.3014 0.75994 0.88776 0.0
C663 C 0.31155 0.81441 0.9539 0.0
O664 O 0.3194 0.83037 0.94434 0.0
O665 O 0.31066 0.81906 0.89989 0.0
O666 O 0.31679 0.81086 0.86704 0.0
O667 O 0.35201 0.76792 0.92061 0.0
O668 O 0.34955 0.78535 0.89158 0.0
C669 C 0.30811 0.822 0.88067 0.0
C670 C 0.35792 0.77075 0.90183 0.0
O671 O 0.31234 0.79691 0.94529 0.0
Mg672 Mg 0.5829 0.6988 0.81023 0.0
O673 O 0.59083 0.72712 0.79048 0.0
O674 O 0.62327 0.73584 0.79718 0.0
Mg675 Mg 0.63657 0.71242 0.81951 0.0
C676 C 0.60631 0.73889 0.78787 0.0
C677 C 0.54399 0.67801 0.79305 0.0
O678 O 0.55405 0.66196 0.80005 0.0
O679 O 0.59987 0.67746 0.78807 0.0
O680 O 0.63198 0.68715 0.79548 0.0
O681 O 0.57522 0.71956 0.83648 0.0
O682 O 0.60584 0.70581 0.83138 0.0
C683 C 0.61924 0.67612 0.78539 0.0
C684 C 0.59424 0.71779 0.84193 0.0
O685 O 0.55269 0.69547 0.79344 0.0
Mg686 Mg 0.29772 0.58537 0.81315 0.0
O687 O 0.27232 0.59315 0.78943 0.0
O688 O 0.26704 0.62704 0.79163 0.0
Mg689 Mg 0.28842 0.64093 0.81539 0.0
C690 C 0.26291 0.6095 0.78388 0.0
C691 C 0.31819 0.54408 0.80253 0.0
O692 O 0.33373 0.55416 0.81054 0.0
O693 O 0.32285 0.59839 0.79212 0.0
O694 O 0.31563 0.63174 0.7957 0.0
O695 O 0.27392 0.58143 0.83777 0.0
O696 O 0.2892 0.61085 0.83042 0.0
C697 C 0.32642 0.61726 0.7881 0.0
C698 C 0.2754 0.60104 0.84061 0.0
O699 O 0.30121 0.55335 0.80012 0.0
Mg700 Mg 0.41141 0.3001 0.82223 0.0
O701 O 0.40279 0.27502 0.79845 0.0
O702 O 0.36872 0.27114 0.80027 0.0
Mg703 Mg 0.35551 0.29356 0.82352 0.0
C704 C 0.38616 0.26618 0.79282 0.0
C705 C 0.4528 0.3195 0.80914 0.0
O706 O 0.443 0.3359 0.81567 0.0
O707 O 0.39999 0.3258 0.80095 0.0
O708 O 0.36632 0.32011 0.80365 0.0
O709 O 0.41378 0.27595 0.84678 0.0
O710 O 0.38527 0.29269 0.83918 0.0
C711 C 0.38147 0.33013 0.79635 0.0
C712 C 0.39422 0.27825 0.84931 0.0
O713 O 0.44355 0.30231 0.80913 0.0
Mg714 Mg 0.69784 0.41694 0.82653 0.0
O715 O 0.72309 0.4057 0.80439 0.0
O716 O 0.7303 0.37307 0.81218 0.0
Mg717 Mg 0.70838 0.36275 0.83741 0.0
C718 C 0.73341 0.38924 0.80153 0.0
C719 C 0.67695 0.45435 0.80565 0.0
O720 O 0.66078 0.44464 0.81283 0.0
O721 O 0.67326 0.40057 0.80752 0.0
O722 O 0.6817 0.36814 0.81526 0.0
O723 O 0.7221 0.42391 0.85001 0.0
O724 O 0.70532 0.39446 0.84806 0.0
C725 C 0.67068 0.38123 0.80565 0.0
C726 C 0.71939 0.40532 0.85655 0.0
O727 O 0.69458 0.44633 0.808 0.0
Mg728 Mg 0.58056 0.2964 0.17553 0.0
O729 O 0.58882 0.26961 0.19716 0.0
O730 O 0.62187 0.26202 0.19228 0.0
Mg731 Mg 0.63506 0.28494 0.16937 0.0
C732 C 0.60467 0.25872 0.20105 0.0
C733 C 0.54134 0.31703 0.19217 0.0
O734 O 0.55162 0.33324 0.18592 0.0
O735 O 0.59539 0.31951 0.19726 0.0
O736 O 0.62825 0.31095 0.19222 0.0
O737 O 0.57473 0.27393 0.15034 0.0
O738 O 0.60463 0.28914 0.15567 0.0
C739 C 0.61445 0.32174 0.20107 0.0
C740 C 0.59389 0.27603 0.14551 0.0
O741 O 0.54981 0.29949 0.19115 0.0
Mg742 Mg 0.69433 0.57711 0.16591 0.0
O743 O 0.71699 0.58723 0.19139 0.0
O744 O 0.71994 0.62139 0.18902 0.0
Mg745 Mg 0.69953 0.63321 0.16329 0.0
C746 C 0.72464 0.60431 0.19744 0.0
C747 C 0.6752 0.53566 0.17986 0.0
O748 O 0.65878 0.54478 0.17249 0.0
O749 O 0.66686 0.58848 0.18488 0.0
O750 O 0.67185 0.62229 0.18149 0.0
O751 O 0.72033 0.57484 0.14325 0.0
O752 O 0.70222 0.60299 0.14881 0.0
C753 C 0.66175 0.60705 0.18853 0.0
C754 C 0.71754 0.59425 0.13993 0.0
O755 O 0.69216 0.5453 0.17991 0.0
Mg756 Mg 0.40755 0.69883 0.17826 0.0
O757 O 0.40035 0.72535 0.20078 0.0
O758 O 0.3668 0.73185 0.19818 0.0
Mg759 Mg 0.3525 0.7094 0.17555 0.0
C760 C 0.38441 0.73562 0.20588 0.0
C761 C 0.44784 0.67792 0.19034 0.0
O762 O 0.43693 0.66232 0.18363 0.0
O763 O 0.39429 0.67513 0.20044 0.0
O764 O 0.361 0.68278 0.197 0.0
O765 O 0.41143 0.72139 0.15264 0.0
O766 O 0.38217 0.70598 0.16018 0.0
C767 C 0.37546 0.67213 0.20492 0.0
C768 C 0.39202 0.71902 0.14909 0.0
O769 O 0.43945 0.6955 0.19147 0.0
Mg770 Mg 0.29666 0.41231 0.1683 0.0
O771 O 0.27245 0.4028 0.19263 0.0
O772 O 0.26885 0.36871 0.18998 0.0
Mg773 Mg 0.29021 0.35637 0.16532 0.0
C774 C 0.26405 0.38588 0.19814 0.0
C775 C 0.31673 0.45292 0.18243 0.0
O776 O 0.3328 0.44305 0.17525 0.0
O777 O 0.32288 0.4002 0.1885 0.0
O778 O 0.3171 0.36659 0.1848 0.0
O779 O 0.2717 0.4153 0.14453 0.0
O780 O 0.28887 0.38671 0.15085 0.0
C781 C 0.32726 0.38151 0.19238 0.0
C782 C 0.27408 0.39581 0.14143 0.0
O783 O 0.29938 0.44402 0.18237 0.0
Mg784 Mg 0.82521 0.5731 0.69382 0.0
O785 O 0.80351 0.58396 0.71961 0.0
O786 O 0.8106 0.61683 0.72641 0.0
Mg787 Mg 0.83469 0.62763 0.70344 0.0
C788 C 0.80054 0.60038 0.72995 0.0
C789 C 0.80504 0.53463 0.6742 0.0
O790 O 0.81166 0.54395 0.65755 0.0
O791 O 0.80494 0.58845 0.66967 0.0
O792 O 0.81172 0.62123 0.67754 0.0
O793 O 0.84926 0.5668 0.71748 0.0
O794 O 0.84634 0.59622 0.70074 0.0
C795 C 0.80225 0.60766 0.66698 0.0
C796 C 0.85522 0.58559 0.7148 0.0
O797 O 0.80747 0.54332 0.69151 0.0
Mg798 Mg 0.41099 0.82163 0.69564 0.0
O799 O 0.40293 0.79998 0.72252 0.0
O800 O 0.37043 0.80603 0.73155 0.0
Mg801 Mg 0.35717 0.82974 0.70951 0.0
C802 C 0.3874 0.79654 0.73401 0.0
C803 C 0.44982 0.80529 0.67387 0.0
O804 O 0.43965 0.81283 0.65814 0.0
O805 O 0.39434 0.80067 0.67288 0.0
O806 O 0.36217 0.80709 0.68312 0.0
O807 O 0.41825 0.84652 0.71823 0.0
O808 O 0.38783 0.84214 0.7038 0.0
C809 C 0.37501 0.79776 0.67156 0.0
C810 C 0.3992 0.85194 0.71658 0.0
O811 O 0.4413 0.80519 0.69142 0.0
Mg812 Mg 0.17148 0.41058 0.69713 0.0
O813 O 0.1954 0.40311 0.72234 0.0
O814 O 0.1932 0.3693 0.72812 0.0
Mg815 Mg 0.16919 0.35517 0.7072 0.0
C816 C 0.2011 0.38686 0.73184 0.0
C817 C 0.18413 0.4511 0.67572 0.0
O818 O 0.17707 0.44074 0.65989 0.0
O819 O 0.19266 0.39723 0.67232 0.0
O820 O 0.18934 0.36396 0.68014 0.0
O821 O 0.1469 0.41476 0.72105 0.0
O822 O 0.15423 0.38521 0.70605 0.0
C823 C 0.197 0.37835 0.66926 0.0
C824 C 0.14405 0.39513 0.71978 0.0
O825 O 0.18483 0.44239 0.69317 0.0
Mg826 Mg 0.58091 0.17555 0.69496 0.0
O827 O 0.58965 0.19888 0.7204 0.0
O828 O 0.62369 0.19678 0.72433 0.0
Mg829 Mg 0.63675 0.1738 0.70156 0.0
C830 C 0.6063 0.20429 0.72934 0.0
C831 C 0.53947 0.18901 0.67582 0.0
O832 O 0.54917 0.18263 0.6593 0.0
O833 O 0.59251 0.19715 0.66961 0.0
O834 O 0.62617 0.19418 0.67522 0.0
O835 O 0.57823 0.15059 0.71863 0.0
O836 O 0.6069 0.15822 0.70219 0.0
C837 C 0.61105 0.20171 0.66531 0.0
C838 C 0.59777 0.14784 0.71635 0.0
O839 O 0.54883 0.18885 0.69294 0.0
Mg840 Mg 0.83025 0.41559 0.29473 0.0
O841 O 0.80603 0.40452 0.27145 0.0
O842 O 0.81217 0.37135 0.26514 0.0
Mg843 Mg 0.83843 0.36068 0.28557 0.0
C844 C 0.80191 0.38778 0.26206 0.0
C845 C 0.8127 0.45456 0.31562 0.0
O846 O 0.82093 0.44521 0.33151 0.0
O847 O 0.8123 0.40083 0.32115 0.0
O848 O 0.81832 0.36786 0.31339 0.0
O849 O 0.85216 0.42075 0.26857 0.0
O850 O 0.8503 0.39202 0.2866 0.0
C851 C 0.80993 0.38166 0.32453 0.0
C852 C 0.85812 0.40201 0.27152 0.0
O853 O 0.8132 0.44578 0.29819 0.0
Mg854 Mg 0.58647 0.81257 0.29741 0.0
O855 O 0.59309 0.78883 0.27176 0.0
O856 O 0.62703 0.78935 0.26666 0.0
Mg857 Mg 0.64203 0.81201 0.28846 0.0
C858 C 0.60917 0.78253 0.26238 0.0
C859 C 0.545 0.80223 0.31799 0.0
O860 O 0.55554 0.80865 0.33396 0.0
O861 O 0.59814 0.79044 0.32219 0.0
O862 O 0.63169 0.79214 0.31536 0.0
O863 O 0.58389 0.83771 0.27402 0.0
O864 O 0.61288 0.82873 0.28915 0.0
C865 C 0.61665 0.78519 0.32584 0.0
C866 C 0.60359 0.83968 0.27555 0.0
O867 O 0.55389 0.80096 0.30067 0.0
Mg868 Mg 0.16792 0.57604 0.29823 0.0
O869 O 0.1914 0.58555 0.27327 0.0
O870 O 0.18789 0.61946 0.26893 0.0
Mg871 Mg 0.16368 0.63173 0.29083 0.0
C872 C 0.19637 0.60237 0.26438 0.0
C873 C 0.18394 0.53567 0.31801 0.0
O874 O 0.17754 0.54526 0.33458 0.0
O875 O 0.18884 0.58884 0.32346 0.0
O876 O 0.18456 0.62237 0.31734 0.0
O877 O 0.14349 0.57208 0.27418 0.0
O878 O 0.14968 0.60121 0.29044 0.0
C879 C 0.19267 0.60763 0.32741 0.0
C880 C 0.13994 0.59153 0.27623 0.0
O881 O 0.18269 0.54468 0.30074 0.0
Mg882 Mg 0.40738 0.17922 0.29808 0.0
O883 O 0.39958 0.20171 0.27169 0.0
O884 O 0.36586 0.19899 0.26583 0.0
Mg885 Mg 0.35206 0.17611 0.28826 0.0
C886 C 0.38339 0.20671 0.26172 0.0
C887 C 0.44778 0.19375 0.31868 0.0
O888 O 0.43754 0.18774 0.33501 0.0
O889 O 0.39392 0.20127 0.32205 0.0
O890 O 0.36074 0.19732 0.31451 0.0
O891 O 0.41188 0.15371 0.2753 0.0
O892 O 0.38222 0.16124 0.28995 0.0
C893 C 0.37504 0.2055 0.32509 0.0
C894 C 0.39231 0.15067 0.27662 0.0
O895 O 0.43902 0.19314 0.30126 0.0
Mg896 Mg 0.70041 0.82793 0.58055 0.0
O897 O 0.72322 0.80307 0.59108 0.0
O898 O 0.72975 0.80838 0.62434 0.0
Mg899 Mg 0.71022 0.83514 0.63548 0.0
C900 C 0.73249 0.79835 0.60772 0.0
C901 C 0.67899 0.81101 0.54157 0.0
O902 O 0.66316 0.81897 0.55123 0.0
O903 O 0.67379 0.8104 0.59535 0.0
O904 O 0.6818 0.81592 0.62834 0.0
O905 O 0.7268 0.84947 0.57534 0.0
O906 O 0.70909 0.84748 0.60428 0.0
C907 C 0.6704 0.80793 0.61451 0.0
C908 C 0.72407 0.85529 0.59416 0.0
O909 O 0.69647 0.8114 0.5502 0.0
Mg910 Mg 0.69552 0.17581 0.40866 0.0
O911 O 0.72088 0.19948 0.40062 0.0
O912 O 0.72557 0.19759 0.36662 0.0
Mg913 Mg 0.70367 0.17419 0.35292 0.0
C914 C 0.73006 0.20512 0.38416 0.0
C915 C 0.67506 0.18802 0.44962 0.0
O916 O 0.65911 0.18132 0.43923 0.0
O917 O 0.67032 0.19713 0.39635 0.0
O918 O 0.67684 0.19405 0.36282 0.0
O919 O 0.71932 0.15105 0.4119 0.0
O920 O 0.70353 0.15875 0.38284 0.0
C921 C 0.66643 0.20151 0.37764 0.0
C922 C 0.71749 0.14842 0.39228 0.0
O923 O 0.69243 0.18874 0.44079 0.0
Mg924 Mg 0.82685 0.69659 0.41659 0.0
O925 O 0.8041 0.72192 0.40683 0.0
O926 O 0.81002 0.72903 0.37379 0.0
Mg927 Mg 0.83463 0.70721 0.36193 0.0
C928 C 0.80028 0.73216 0.39052 0.0
C929 C 0.81021 0.67622 0.45613 0.0
O930 O 0.81798 0.66015 0.44668 0.0
O931 O 0.80663 0.67217 0.40139 0.0
O932 O 0.81254 0.6807 0.36858 0.0
O933 O 0.85069 0.72069 0.42243 0.0
O934 O 0.84709 0.70423 0.39294 0.0
C935 C 0.80359 0.66972 0.38217 0.0
C936 C 0.85619 0.7182 0.40348 0.0
O937 O 0.81039 0.6935 0.44707 0.0
Mg938 Mg 0.29547 0.8264 0.4147 0.0
O939 O 0.2734 0.80037 0.40481 0.0
O940 O 0.26963 0.80305 0.37077 0.0
Mg941 Mg 0.28814 0.83008 0.35883 0.0
C942 C 0.26573 0.79417 0.38781 0.0
C943 C 0.31558 0.81187 0.45584 0.0
O944 O 0.33196 0.81953 0.44686 0.0
O945 O 0.32312 0.80853 0.4019 0.0
O946 O 0.31681 0.81267 0.36836 0.0
O947 O 0.26883 0.84825 0.41805 0.0
O948 O 0.28647 0.84372 0.38942 0.0
C949 C 0.32767 0.80557 0.38305 0.0
C950 C 0.27116 0.85202 0.39867 0.0
O951 O 0.29865 0.81182 0.44618 0.0
Mg952 Mg 0.16833 0.2946 0.4151 0.0
O953 O 0.18987 0.26816 0.40576 0.0
O954 O 0.18297 0.25952 0.3733 0.0
Mg955 Mg 0.15867 0.28164 0.36128 0.0
C956 C 0.193 0.25696 0.38995 0.0
C957 C 0.18815 0.31582 0.45293 0.0
O958 O 0.18145 0.33211 0.44304 0.0
O959 O 0.18862 0.31771 0.39821 0.0
O960 O 0.18147 0.30795 0.36602 0.0
O961 O 0.14388 0.27166 0.42271 0.0
O962 O 0.14717 0.28677 0.39245 0.0
C963 C 0.19108 0.3193 0.37883 0.0
C964 C 0.13785 0.27366 0.40386 0.0
O965 O 0.18605 0.29825 0.44472 0.0
Mg966 Mg 0.29497 0.17048 0.58056 0.0
O967 O 0.26893 0.19234 0.59026 0.0
O968 O 0.26091 0.1857 0.62292 0.0
Mg969 Mg 0.28291 0.16112 0.63464 0.0
C970 C 0.2581 0.19566 0.60627 0.0
C971 C 0.31581 0.19044 0.54251 0.0
O972 O 0.33222 0.18398 0.55233 0.0
O973 O 0.31866 0.19047 0.59699 0.0
O974 O 0.30955 0.18343 0.6294 0.0
O975 O 0.27168 0.14622 0.57341 0.0
O976 O 0.28731 0.14943 0.6034 0.0
C977 C 0.32078 0.19285 0.61634 0.0
C978 C 0.27396 0.14018 0.59222 0.0
O979 O 0.29833 0.18812 0.55081 0.0
Mg980 Mg 0.82049 0.2933 0.58007 0.0
O981 O 0.79837 0.26699 0.58855 0.0
O982 O 0.80447 0.25843 0.62121 0.0
Mg983 Mg 0.82876 0.27998 0.63409 0.0
C984 C 0.79475 0.25594 0.60437 0.0
C985 C 0.80475 0.31499 0.54105 0.0
O986 O 0.81272 0.33054 0.55116 0.0
O987 O 0.79973 0.31636 0.59661 0.0
O988 O 0.80619 0.30633 0.62888 0.0
O989 O 0.84514 0.27029 0.57303 0.0
O990 O 0.84095 0.28516 0.60328 0.0
C991 C 0.79683 0.31778 0.61597 0.0
C992 C 0.85065 0.27219 0.59204 0.0
O993 O 0.80414 0.29749 0.54968 0.0
Mg994 Mg 0.16036 0.69789 0.57878 0.0
O995 O 0.18519 0.72159 0.58833 0.0
O996 O 0.18273 0.72506 0.62243 0.0
Mg997 Mg 0.15776 0.70403 0.63477 0.0
C998 C 0.19095 0.72977 0.60526 0.0
C999 C 0.17389 0.67795 0.53788 0.0
O1000 O 0.16635 0.66191 0.54756 0.0
O1001 O 0.1802 0.67123 0.59062 0.0
O1002 O 0.17683 0.67681 0.62433 0.0
O1003 O 0.13695 0.72323 0.57609 0.0
O1004 O 0.14317 0.70579 0.60454 0.0
C1005 C 0.18413 0.66664 0.60926 0.0
C1006 C 0.13386 0.72074 0.59557 0.0
O1007 O 0.17423 0.69521 0.54698 0.0
Mg1008 Mg 0.41585 0.29695 0.16593 0.0
O1009 O 0.40441 0.27355 0.18982 0.0
O1010 O 0.37108 0.26801 0.18403 0.0
Mg1011 Mg 0.36083 0.28924 0.15819 0.0
C1012 C 0.38755 0.26446 0.19404 0.0
C1013 C 0.45427 0.31707 0.18547 0.0
O1014 O 0.44475 0.33354 0.17871 0.0
O1015 O 0.40194 0.32314 0.18457 0.0
O1016 O 0.3687 0.31649 0.17909 0.0
O1017 O 0.42069 0.27121 0.14371 0.0
O1018 O 0.39209 0.2894 0.14581 0.0
C1019 C 0.383 0.32698 0.18749 0.0
C1020 C 0.40196 0.27428 0.13782 0.0
O1021 O 0.44588 0.29961 0.18312 0.0
Mg1022 Mg 0.69804 0.40671 0.17601 0.0
O1023 O 0.72443 0.39969 0.1989 0.0
O1024 O 0.72979 0.36576 0.19733 0.0
Mg1025 Mg 0.70724 0.35113 0.17518 0.0
C1026 C 0.73417 0.38351 0.20443 0.0
C1027 C 0.67737 0.44782 0.18647 0.0
O1028 O 0.66177 0.43711 0.17947 0.0
O1029 O 0.67403 0.39441 0.19874 0.0
O1030 O 0.68129 0.361 0.19614 0.0
O1031 O 0.72076 0.40991 0.15022 0.0
O1032 O 0.70596 0.3807 0.15914 0.0
C1033 C 0.6709 0.37573 0.2038 0.0
C1034 C 0.71928 0.39021 0.14804 0.0
O1035 O 0.69473 0.43911 0.18819 0.0
Mg1036 Mg 0.57565 0.69419 0.1645 0.0
O1037 O 0.58664 0.71664 0.18973 0.0
O1038 O 0.62066 0.71963 0.18624 0.0
Mg1039 Mg 0.63151 0.6995 0.15985 0.0
C1040 C 0.60389 0.7242 0.19531 0.0
C1041 C 0.53511 0.675 0.18115 0.0
O1042 O 0.54402 0.65825 0.17424 0.0
O1043 O 0.58771 0.6668 0.18311 0.0
O1044 O 0.62138 0.67174 0.17862 0.0
O1045 O 0.57249 0.72029 0.14208 0.0
O1046 O 0.60085 0.70223 0.1465 0.0
C1047 C 0.60635 0.66169 0.18618 0.0
C1048 C 0.59174 0.71759 0.13804 0.0
O1049 O 0.54451 0.69204 0.17979 0.0
Mg1050 Mg 0.29717 0.58181 0.17516 0.0
O1051 O 0.27055 0.58901 0.19763 0.0
O1052 O 0.26428 0.6227 0.19484 0.0
Mg1053 Mg 0.28652 0.63707 0.17219 0.0
C1054 C 0.26041 0.60511 0.20262 0.0
C1055 C 0.31775 0.54078 0.18714 0.0
O1056 O 0.33356 0.5508 0.1796 0.0
O1057 O 0.32051 0.59541 0.19783 0.0
O1058 O 0.3123 0.62853 0.19406 0.0
O1059 O 0.2748 0.57725 0.14929 0.0
O1060 O 0.28886 0.60707 0.1573 0.0
C1061 C 0.32293 0.61432 0.20239 0.0
C1062 C 0.27588 0.59688 0.14643 0.0
O1063 O 0.30061 0.54996 0.18858 0.0
Mg1064 Mg 0.4183 0.69667 0.82059 0.0
O1065 O 0.40741 0.72295 0.79944 0.0
O1066 O 0.37439 0.72905 0.80633 0.0
Mg1067 Mg 0.36362 0.70543 0.82981 0.0
C1068 C 0.39087 0.7331 0.79653 0.0
C1069 C 0.45677 0.6776 0.80004 0.0
O1070 O 0.44729 0.66086 0.80617 0.0
O1071 O 0.40334 0.67293 0.79952 0.0
O1072 O 0.37043 0.68015 0.80623 0.0
O1073 O 0.42411 0.71968 0.84549 0.0
O1074 O 0.39493 0.70279 0.84172 0.0
C1075 C 0.38422 0.67003 0.79659 0.0
C1076 C 0.40534 0.7166 0.85123 0.0
O1077 O 0.44828 0.69492 0.80299 0.0
Mg1078 Mg 0.29676 0.41583 0.82432 0.0
O1079 O 0.27253 0.40636 0.80006 0.0
O1080 O 0.26885 0.3723 0.80293 0.0
Mg1081 Mg 0.29024 0.35995 0.8275 0.0
C1082 C 0.26414 0.38943 0.79461 0.0
C1083 C 0.31689 0.45635 0.8098 0.0
O1084 O 0.33299 0.44654 0.81701 0.0
O1085 O 0.32268 0.40366 0.80384 0.0
O1086 O 0.31706 0.36997 0.80737 0.0
O1087 O 0.27202 0.41902 0.84821 0.0
O1088 O 0.28885 0.39025 0.84192 0.0
C1089 C 0.32705 0.38502 0.79974 0.0
C1090 C 0.27422 0.39953 0.85142 0.0
O1091 O 0.29952 0.44749 0.8101 0.0
Mg1092 Mg 0.57962 0.29609 0.82578 0.0
O1093 O 0.58914 0.2718 0.80184 0.0
O1094 O 0.62208 0.26416 0.80744 0.0
Mg1095 Mg 0.63404 0.28434 0.83336 0.0
C1096 C 0.60537 0.26168 0.7975 0.0
C1097 C 0.54057 0.31785 0.81012 0.0
O1098 O 0.55041 0.33336 0.81851 0.0
O1099 O 0.59534 0.32133 0.80697 0.0
O1100 O 0.62794 0.31217 0.81288 0.0
O1101 O 0.57341 0.271 0.84857 0.0
O1102 O 0.60302 0.28737 0.8457 0.0
C1103 C 0.61461 0.32379 0.80436 0.0
C1104 C 0.5923 0.27324 0.8543 0.0
O1105 O 0.54927 0.3004 0.80944 0.0
Mg1106 Mg 0.69512 0.58111 0.8129 0.0
O1107 O 0.72374 0.58865 0.79348 0.0
O1108 O 0.73301 0.62095 0.80034 0.0
Mg1109 Mg 0.70967 0.63458 0.82252 0.0
C1110 C 0.73576 0.60396 0.79095 0.0
C1111 C 0.67461 0.54151 0.79694 0.0
O1112 O 0.65873 0.55115 0.80483 0.0
O1113 O 0.6746 0.5985 0.79023 0.0
O1114 O 0.68502 0.63038 0.79785 0.0
O1115 O 0.71525 0.57312 0.83961 0.0
O1116 O 0.70217 0.60398 0.83419 0.0
C1117 C 0.67395 0.61792 0.78746 0.0
C1118 C 0.71368 0.59219 0.84504 0.0
O1119 O 0.69175 0.55077 0.79619 0.0
Mg1120 Mg 0.17047 0.40927 0.29358 0.0
O1121 O 0.19401 0.40055 0.26867 0.0
O1122 O 0.1888 0.3676 0.26068 0.0
Mg1123 Mg 0.16357 0.35487 0.2812 0.0
C1124 C 0.19838 0.38453 0.25822 0.0
C1125 C 0.18629 0.44804 0.31579 0.0
O1126 O 0.17863 0.43772 0.33136 0.0
O1127 O 0.18995 0.39348 0.31818 0.0
O1128 O 0.18444 0.36087 0.30875 0.0
O1129 O 0.14721 0.41554 0.26899 0.0
O1130 O 0.1508 0.38568 0.28485 0.0
C1131 C 0.19294 0.37422 0.32037 0.0
C1132 C 0.14186 0.39649 0.27101 0.0
O1133 O 0.18644 0.43975 0.29812 0.0
Mg1134 Mg 0.57408 0.16998 0.29914 0.0
O1135 O 0.58476 0.19158 0.27312 0.0
O1136 O 0.6178 0.18491 0.26685 0.0
Mg1137 Mg 0.62875 0.16112 0.29003 0.0
C1138 C 0.60127 0.19472 0.26299 0.0
C1139 C 0.53527 0.18888 0.3187 0.0
O1140 O 0.54479 0.18201 0.33513 0.0
O1141 O 0.58898 0.19086 0.32306 0.0
O1142 O 0.62188 0.18439 0.31558 0.0
O1143 O 0.56819 0.14542 0.27588 0.0
O1144 O 0.59751 0.14908 0.2926 0.0
C1145 C 0.60811 0.19387 0.32586 0.0
C1146 C 0.58702 0.13973 0.27873 0.0
O1147 O 0.54397 0.18716 0.30132 0.0
Mg1148 Mg 0.81736 0.58233 0.29437 0.0
O1149 O 0.79261 0.59061 0.27034 0.0
O1150 O 0.79624 0.62403 0.2634 0.0
Mg1151 Mg 0.82178 0.63734 0.28306 0.0
C1152 C 0.7873 0.60681 0.26059 0.0
C1153 C 0.80503 0.54203 0.31613 0.0
O1154 O 0.81337 0.5522 0.33145 0.0
O1155 O 0.79855 0.59692 0.3203 0.0
O1156 O 0.80298 0.62991 0.31171 0.0
O1157 O 0.84004 0.57734 0.26896 0.0
O1158 O 0.83558 0.60688 0.28518 0.0
C1159 C 0.79546 0.61605 0.3234 0.0
C1160 C 0.84448 0.59661 0.27092 0.0
O1161 O 0.80299 0.55097 0.2989 0.0
Mg1162 Mg 0.41863 0.82948 0.29796 0.0
O1163 O 0.40679 0.8056 0.27457 0.0
O1164 O 0.3736 0.81215 0.26903 0.0
Mg1165 Mg 0.36376 0.83836 0.29004 0.0
C1166 C 0.38984 0.80177 0.26545 0.0
C1167 C 0.45766 0.81149 0.31802 0.0
O1168 O 0.44865 0.81978 0.33407 0.0
O1169 O 0.40427 0.81151 0.32454 0.0
O1170 O 0.37122 0.81801 0.31773 0.0
O1171 O 0.4238 0.85146 0.272 0.0
O1172 O 0.39524 0.84997 0.2903 0.0
C1173 C 0.3852 0.80941 0.32847 0.0
C1174 C 0.40519 0.8577 0.27512 0.0
O1175 O 0.4486 0.81206 0.30074 0.0
Mg1176 Mg 0.1641 0.57857 0.69616 0.0
O1177 O 0.18955 0.58941 0.7182 0.0
O1178 O 0.18486 0.62297 0.72359 0.0
Mg1179 Mg 0.15807 0.63389 0.70398 0.0
C1180 C 0.19466 0.6063 0.72681 0.0
C1181 C 0.17974 0.5388 0.67548 0.0
O1182 O 0.1715 0.54823 0.65964 0.0
O1183 O 0.18148 0.59195 0.66871 0.0
O1184 O 0.17682 0.62533 0.67552 0.0
O1185 O 0.14308 0.57454 0.72312 0.0
O1186 O 0.14505 0.60293 0.70456 0.0
C1187 C 0.18434 0.61088 0.66456 0.0
C1188 C 0.13749 0.59339 0.72008 0.0
O1189 O 0.17998 0.54783 0.69278 0.0
Mg1190 Mg 0.4129 0.17097 0.69979 0.0
O1191 O 0.40348 0.19432 0.72469 0.0
O1192 O 0.37064 0.18838 0.73251 0.0
Mg1193 Mg 0.35863 0.16283 0.71192 0.0
C1194 C 0.38731 0.19837 0.73503 0.0
C1195 C 0.45172 0.18735 0.67805 0.0
O1196 O 0.44181 0.17925 0.66244 0.0
O1197 O 0.39682 0.19033 0.67519 0.0
O1198 O 0.36437 0.18404 0.68459 0.0
O1199 O 0.41943 0.14759 0.72429 0.0
O1200 O 0.38967 0.15073 0.70827 0.0
C1201 C 0.37751 0.19293 0.67305 0.0
C1202 C 0.40055 0.14181 0.72208 0.0
O1203 O 0.44315 0.18756 0.69558 0.0
Mg1204 Mg 0.81879 0.4091 0.69803 0.0
O1205 O 0.79749 0.40086 0.72508 0.0
O1206 O 0.80356 0.36824 0.73374 0.0
Mg1207 Mg 0.82701 0.35514 0.71134 0.0
C1208 C 0.79417 0.38522 0.73648 0.0
C1209 C 0.80089 0.44733 0.67632 0.0
O1210 O 0.80753 0.43687 0.66037 0.0
O1211 O 0.79778 0.39258 0.67534 0.0
O1212 O 0.80428 0.36024 0.68501 0.0
O1213 O 0.84384 0.41629 0.72041 0.0
O1214 O 0.83938 0.38593 0.70579 0.0
C1215 C 0.79492 0.37326 0.67367 0.0
C1216 C 0.84928 0.39725 0.71855 0.0
O1217 O 0.80211 0.43929 0.69405 0.0
Mg1218 Mg 0.57451 0.83229 0.69486 0.0
O1219 O 0.58568 0.80976 0.71979 0.0
O1220 O 0.61812 0.81759 0.72759 0.0
Mg1221 Mg 0.62843 0.8433 0.70618 0.0
C1222 C 0.602 0.80676 0.73025 0.0
C1223 C 0.53697 0.81186 0.67372 0.0
O1224 O 0.54633 0.81951 0.65755 0.0
O1225 O 0.59113 0.81365 0.67017 0.0
O1226 O 0.62338 0.82138 0.67921 0.0
O1227 O 0.56712 0.85525 0.71945 0.0
O1228 O 0.59675 0.85382 0.70295 0.0
C1229 C 0.6105 0.81185 0.66789 0.0
C1230 C 0.58568 0.86195 0.7171 0.0
O1231 O 0.54533 0.8137 0.69126 0.0
Mg1232 Mg 0.29677 0.17357 0.41601 0.0
O1233 O 0.26948 0.19404 0.40643 0.0
O1234 O 0.26279 0.18781 0.37335 0.0
Mg1235 Mg 0.28693 0.1656 0.3613 0.0
C1236 C 0.2588 0.19698 0.39022 0.0
C1237 C 0.31612 0.19226 0.45507 0.0
O1238 O 0.33267 0.18641 0.44511 0.0
O1239 O 0.31938 0.19582 0.40114 0.0
O1240 O 0.3116 0.18978 0.36821 0.0
O1241 O 0.27489 0.14779 0.4218 0.0
O1242 O 0.29078 0.15293 0.39221 0.0
C1243 C 0.32173 0.19938 0.38202 0.0
C1244 C 0.27761 0.14269 0.40277 0.0
O1245 O 0.29873 0.1901 0.44651 0.0
Mg1246 Mg 0.28954 0.82079 0.58297 0.0
O1247 O 0.26411 0.79742 0.59108 0.0
O1248 O 0.25665 0.80205 0.62426 0.0
Mg1249 Mg 0.27769 0.82646 0.63765 0.0
C1250 C 0.25373 0.79294 0.60714 0.0
C1251 C 0.31166 0.80744 0.54358 0.0
O1252 O 0.32673 0.81553 0.55429 0.0
O1253 O 0.3139 0.80044 0.59811 0.0
O1254 O 0.30488 0.80534 0.63092 0.0
O1255 O 0.26543 0.84476 0.57747 0.0
O1256 O 0.28123 0.83997 0.60716 0.0
C1257 C 0.31624 0.79698 0.61728 0.0
C1258 C 0.26757 0.84953 0.59666 0.0
O1259 O 0.29405 0.80591 0.55183 0.0
Mg1260 Mg 0.17112 0.29626 0.57929 0.0
O1261 O 0.19303 0.27029 0.58938 0.0
O1262 O 0.18705 0.26377 0.62254 0.0
Mg1263 Mg 0.16338 0.28676 0.63411 0.0
C1264 C 0.1965 0.26003 0.60577 0.0
C1265 C 0.18948 0.31619 0.54033 0.0
O1266 O 0.18311 0.3326 0.55022 0.0
O1267 O 0.1918 0.32043 0.59397 0.0
O1268 O 0.18592 0.31284 0.62698 0.0
O1269 O 0.14669 0.27279 0.57377 0.0
O1270 O 0.15075 0.28951 0.60307 0.0
C1271 C 0.19497 0.32335 0.61308 0.0
C1272 C 0.14132 0.27562 0.59271 0.0
O1273 O 0.18774 0.29873 0.54888 0.0
Mg1274 Mg 0.69206 0.17025 0.57891 0.0
O1275 O 0.71828 0.19265 0.58773 0.0
O1276 O 0.72246 0.19005 0.62176 0.0
Mg1277 Mg 0.69888 0.16785 0.63475 0.0
C1278 C 0.72756 0.19756 0.60436 0.0
C1279 C 0.67333 0.18469 0.5376 0.0
O1280 O 0.65667 0.17848 0.54715 0.0
O1281 O 0.66772 0.19285 0.59077 0.0
O1282 O 0.6736 0.18963 0.62441 0.0
O1283 O 0.7149 0.1446 0.57591 0.0
O1284 O 0.69888 0.1525 0.60476 0.0
C1285 C 0.66393 0.19765 0.60938 0.0
C1286 C 0.71273 0.14186 0.59547 0.0
O1287 O 0.69042 0.18395 0.54698 0.0
Mg1288 Mg 0.82033 0.69714 0.58498 0.0
O1289 O 0.79605 0.72178 0.59335 0.0
O1290 O 0.79773 0.72603 0.62741 0.0
Mg1291 Mg 0.82178 0.70466 0.64084 0.0
C1292 C 0.79013 0.73057 0.60992 0.0
C1293 C 0.80745 0.67672 0.54399 0.0
O1294 O 0.81398 0.66058 0.55422 0.0
O1295 O 0.79971 0.67122 0.59707 0.0
O1296 O 0.80258 0.67744 0.63068 0.0
O1297 O 0.84438 0.72178 0.58209 0.0
O1298 O 0.83714 0.70529 0.61089 0.0
C1299 C 0.79539 0.66703 0.61573 0.0
C1300 C 0.84698 0.71977 0.6017 0.0
O1301 O 0.80726 0.69411 0.55287 0.0
Mg1302 Mg 0.69628 0.8174 0.41237 0.0
O1303 O 0.72329 0.7955 0.40465 0.0
O1304 O 0.72814 0.79753 0.37068 0.0
Mg1305 Mg 0.70438 0.81884 0.3567 0.0
C1306 C 0.73302 0.79046 0.38832 0.0
C1307 C 0.6771 0.80498 0.45392 0.0
O1308 O 0.66072 0.8112 0.4439 0.0
O1309 O 0.67283 0.79395 0.40053 0.0
O1310 O 0.6793 0.79677 0.36695 0.0
O1311 O 0.71806 0.8439 0.41537 0.0
O1312 O 0.7031 0.83489 0.3863 0.0
C1313 C 0.6695 0.78878 0.38193 0.0
C1314 C 0.71614 0.84639 0.39574 0.0
O1315 O 0.69425 0.80464 0.44465 0.0
Mg1316 Mg 0.17297 0.6967 0.40773 0.0
O1317 O 0.19861 0.72035 0.40076 0.0
O1318 O 0.19913 0.72406 0.36659 0.0
Mg1319 Mg 0.17515 0.70363 0.35181 0.0
C1320 C 0.20591 0.72854 0.38444 0.0
C1321 C 0.18117 0.67681 0.45002 0.0
O1322 O 0.17399 0.66097 0.43976 0.0
O1323 O 0.19347 0.67002 0.39731 0.0
O1324 O 0.19275 0.67578 0.36348 0.0
O1325 O 0.14952 0.72193 0.40886 0.0
O1326 O 0.1581 0.70503 0.38069 0.0
C1327 C 0.1987 0.66538 0.379 0.0
C1328 C 0.14798 0.71973 0.38916 0.0
O1329 O 0.18364 0.69377 0.44069 0.0
Mg1330 Mg 0.82761 0.29424 0.41457 0.0
O1331 O 0.80281 0.27155 0.40367 0.0
O1332 O 0.80843 0.26504 0.37046 0.0
Mg1333 Mg 0.83528 0.28466 0.35966 0.0
C1334 C 0.79824 0.26229 0.38699 0.0
C1335 C 0.80985 0.31542 0.45355 0.0
O1336 O 0.81767 0.33149 0.44414 0.0
O1337 O 0.81032 0.32108 0.39978 0.0
O1338 O 0.81608 0.31312 0.36681 0.0
O1339 O 0.84895 0.26764 0.41976 0.0
O1340 O 0.84739 0.28558 0.39095 0.0
C1341 C 0.80803 0.32452 0.38061 0.0
C1342 C 0.85498 0.27043 0.40102 0.0
O1343 O 0.8107 0.29799 0.44479 0.0
C1344 C 0.11235 0.22488 0.38645 0.0
C1345 C 0.09883 0.23237 0.3714 0.0
H1346 H 0.13495 0.23236 0.40924 0.0
C1347 C 0.09661 0.25361 0.3687 0.0
H1348 H 0.11434 0.20849 0.38862 0.0
C1349 C 0.10883 0.26716 0.38 0.0
C1350 C 0.12286 0.25964 0.39457 0.0
H1351 H 0.08647 0.25965 0.35697 0.0
H1352 H 0.10779 0.28349 0.3769 0.0
C1353 C 0.12405 0.23846 0.39824 0.0
C1354 C 0.73905 0.14288 0.36145 0.0
C1355 C 0.73232 0.13594 0.38065 0.0
H1356 H 0.7566 0.1368 0.33477 0.0
C1357 C 0.73959 0.11706 0.38819 0.0
H1358 H 0.73436 0.15757 0.35546 0.0
C1359 C 0.75314 0.10517 0.37634 0.0
C1360 C 0.75978 0.11231 0.35706 0.0
H1361 H 0.73459 0.11139 0.40303 0.0
H1362 H 0.75861 0.09063 0.3823 0.0
C1363 C 0.75243 0.13115 0.34974 0.0
C1364 C 0.86943 0.75353 0.39686 0.0
C1365 C 0.87056 0.73232 0.39328 0.0
H1366 H 0.87952 0.78346 0.38745 0.0
C1367 C 0.88438 0.72476 0.37852 0.0
H1368 H 0.85872 0.75968 0.40802 0.0
C1369 C 0.89672 0.73826 0.36726 0.0
C1370 C 0.89483 0.75953 0.37012 0.0
H1371 H 0.8854 0.70842 0.37549 0.0
H1372 H 0.90695 0.73215 0.35564 0.0
C1373 C 0.88123 0.76707 0.38509 0.0
C1374 C 0.23384 0.8639 0.35642 0.0
C1375 C 0.2283 0.88428 0.36067 0.0
H1376 H 0.25142 0.83778 0.36531 0.0
C1377 C 0.23619 0.89379 0.37842 0.0
H1378 H 0.22847 0.85615 0.34285 0.0
C1379 C 0.24952 0.88304 0.39152 0.0
C1380 C 0.25543 0.86287 0.38671 0.0
H1381 H 0.23213 0.90951 0.3821 0.0
H1382 H 0.25575 0.89068 0.40493 0.0
C1383 C 0.24729 0.85338 0.36922 0.0
C1384 C 0.10346 0.74385 0.60127 0.0
C1385 C 0.12247 0.73599 0.60778 0.0
H1386 H 0.07787 0.76348 0.60872 0.0
C1387 C 0.13055 0.74239 0.62664 0.0
H1388 H 0.09691 0.7391 0.58672 0.0
C1389 C 0.11983 0.75601 0.63903 0.0
C1390 C 0.10084 0.76389 0.63279 0.0
H1391 H 0.14535 0.73715 0.63185 0.0
H1392 H 0.12635 0.75993 0.65372 0.0
C1393 C 0.09256 0.7576 0.61385 0.0
C1394 C 0.26798 0.11097 0.61606 0.0
C1395 C 0.26017 0.12506 0.60168 0.0
H1396 H 0.26096 0.08824 0.63891 0.0
C1397 C 0.23897 0.12602 0.59822 0.0
H1398 H 0.28433 0.11009 0.61899 0.0
C1399 C 0.22565 0.11401 0.61 0.0
C1400 C 0.23343 0.10038 0.62482 0.0
H1401 H 0.23265 0.13694 0.58736 0.0
H1402 H 0.20924 0.1158 0.60799 0.0
C1403 C 0.2547 0.09844 0.62734 0.0
C1404 C 0.88004 0.26658 0.61567 0.0
C1405 C 0.86588 0.25854 0.60151 0.0
H1406 H 0.90328 0.25993 0.63809 0.0
C1407 C 0.86506 0.23728 0.59821 0.0
H1408 H 0.8808 0.28297 0.61848 0.0
C1409 C 0.87741 0.22413 0.60986 0.0
C1410 C 0.89123 0.23215 0.62437 0.0
H1411 H 0.85407 0.23079 0.58753 0.0
H1412 H 0.87583 0.20767 0.6079 0.0
C1413 C 0.89291 0.25348 0.62678 0.0
C1414 C 0.74472 0.89708 0.62817 0.0
C1415 C 0.76496 0.89042 0.63125 0.0
H1416 H 0.7157 0.8907 0.61398 0.0
C1417 C 0.77222 0.87319 0.62043 0.0
H1418 H 0.73874 0.91022 0.63646 0.0
C1419 C 0.75925 0.86248 0.60707 0.0
C1420 C 0.73875 0.86856 0.60486 0.0
H1421 H 0.78781 0.86779 0.62259 0.0
H1422 H 0.7649 0.84883 0.59937 0.0
C1423 C 0.73159 0.88598 0.61534 0.0
C1424 C 0.35153 0.13168 0.24051 0.0
C1425 C 0.35959 0.11295 0.2337 0.0
H1426 H 0.35588 0.15849 0.25837 0.0
C1427 C 0.3787 0.10635 0.24123 0.0
H1428 H 0.33664 0.13692 0.23562 0.0
C1429 C 0.38971 0.11872 0.25507 0.0
C1430 C 0.38146 0.13754 0.26175 0.0
H1431 H 0.38522 0.09189 0.23618 0.0
H1432 H 0.40447 0.11351 0.2607 0.0
C1433 C 0.36238 0.14387 0.25418 0.0
C1434 C 0.89852 0.36626 0.25085 0.0
C1435 C 0.89302 0.36511 0.23005 0.0
H1436 H 0.89132 0.37884 0.28045 0.0
C1437 C 0.87706 0.37761 0.22261 0.0
H1438 H 0.91067 0.35667 0.25696 0.0
C1439 C 0.8665 0.39081 0.23589 0.0
C1440 C 0.87136 0.39115 0.25686 0.0
H1441 H 0.87258 0.37696 0.20659 0.0
H1442 H 0.85386 0.39989 0.23 0.0
C1443 C 0.8875 0.37891 0.26423 0.0
C1444 C 0.64566 0.85834 0.24042 0.0
C1445 C 0.63789 0.87725 0.23369 0.0
H1446 H 0.64078 0.83154 0.2585 0.0
C1447 C 0.61873 0.88396 0.24094 0.0
H1448 H 0.66055 0.85298 0.23548 0.0
C1449 C 0.60731 0.87159 0.25438 0.0
C1450 C 0.61521 0.85266 0.26111 0.0
H1451 H 0.61243 0.89853 0.23591 0.0
H1452 H 0.59248 0.87692 0.2597 0.0
C1453 C 0.63446 0.84619 0.254 0.0
C1454 C 0.12231 0.63249 0.23934 0.0
C1455 C 0.10333 0.62483 0.23273 0.0
H1456 H 0.14877 0.62785 0.25794 0.0
C1457 C 0.0962 0.60606 0.24065 0.0
H1458 H 0.12802 0.64707 0.23384 0.0
C1459 C 0.10824 0.59491 0.25463 0.0
C1460 C 0.12721 0.60275 0.26127 0.0
H1461 H 0.08158 0.59985 0.23571 0.0
H1462 H 0.10264 0.58035 0.26045 0.0
C1463 C 0.13408 0.62162 0.25349 0.0
C1464 C 0.36372 0.8929 0.73675 0.0
C1465 C 0.3671 0.89128 0.75794 0.0
H1466 H 0.37124 0.88114 0.7069 0.0
C1467 C 0.3825 0.8781 0.76531 0.0
H1468 H 0.35171 0.90278 0.73082 0.0
C1469 C 0.39406 0.86624 0.75167 0.0
C1470 C 0.38981 0.8669 0.73058 0.0
H1471 H 0.3852 0.87658 0.78168 0.0
H1472 H 0.40543 0.85568 0.7577 0.0
C1473 C 0.37478 0.8805 0.72316 0.0
C1474 C 0.11218 0.3912 0.74113 0.0
C1475 C 0.13156 0.384 0.73497 0.0
H1476 H 0.08518 0.38524 0.75929 0.0
C1477 C 0.13891 0.36546 0.74301 0.0
H1478 H 0.10619 0.4055 0.73507 0.0
C1479 C 0.12708 0.35404 0.75658 0.0
C1480 C 0.10767 0.36096 0.76272 0.0
H1481 H 0.15395 0.35978 0.73907 0.0
H1482 H 0.13308 0.33953 0.76179 0.0
C1483 C 0.10016 0.37959 0.75479 0.0
C1484 C 0.60148 0.11679 0.73899 0.0
C1485 C 0.60957 0.13512 0.73091 0.0
H1486 H 0.60662 0.09087 0.75895 0.0
C1487 C 0.62922 0.14143 0.73696 0.0
H1488 H 0.58632 0.11159 0.73455 0.0
C1489 C 0.64062 0.12978 0.75073 0.0
C1490 C 0.63265 0.11156 0.75893 0.0
H1491 H 0.63572 0.15566 0.73158 0.0
H1492 H 0.6558 0.13504 0.75473 0.0
C1493 C 0.61308 0.10492 0.75277 0.0
C1494 C 0.89454 0.62244 0.73609 0.0
C1495 C 0.89226 0.61921 0.75726 0.0
H1496 H 0.88406 0.61437 0.7059 0.0
C1497 C 0.87912 0.60361 0.76429 0.0
H1498 H 0.90441 0.63458 0.7304 0.0
C1499 C 0.868 0.59168 0.75034 0.0
C1500 C 0.86935 0.59571 0.72922 0.0
H1501 H 0.87709 0.60099 0.78061 0.0
H1502 H 0.85751 0.58013 0.75613 0.0
C1503 C 0.88287 0.61098 0.72216 0.0
C1504 C 0.23718 0.37747 0.10019 0.0
C1505 C 0.2308 0.35862 0.10863 0.0
H1506 H 0.25584 0.40453 0.10432 0.0
C1507 C 0.23858 0.35253 0.12772 0.0
H1508 H 0.23139 0.3825 0.08542 0.0
C1509 C 0.25218 0.36496 0.13837 0.0
C1510 C 0.25874 0.38368 0.1301 0.0
H1511 H 0.23466 0.33791 0.13437 0.0
H1512 H 0.25728 0.35985 0.15325 0.0
C1513 C 0.25097 0.39008 0.111 0.0
C1514 C 0.24028 0.61631 0.88444 0.0
C1515 C 0.23285 0.63528 0.87725 0.0
H1516 H 0.2595 0.59016 0.87808 0.0
C1517 C 0.23939 0.64254 0.85809 0.0
H1518 H 0.23544 0.61039 0.89923 0.0
C1519 C 0.25285 0.63112 0.84616 0.0
C1520 C 0.26039 0.61226 0.8532 0.0
H1521 H 0.23457 0.65728 0.85235 0.0
H1522 H 0.25705 0.63705 0.83128 0.0
C1523 C 0.25385 0.60473 0.87234 0.0
C1524 C 0.363 0.2569 0.85372 0.0
C1525 C 0.38211 0.2633 0.86122 0.0
H1526 H 0.33629 0.23889 0.85858 0.0
C1527 C 0.38925 0.25533 0.87998 0.0
H1528 H 0.3573 0.26215 0.83911 0.0
C1529 C 0.37716 0.24138 0.89114 0.0
C1530 C 0.35808 0.23497 0.88337 0.0
H1531 H 0.40399 0.26004 0.88607 0.0
H1532 H 0.38285 0.23533 0.90557 0.0
C1533 C 0.35111 0.24302 0.8647 0.0
C1534 C 0.75487 0.39672 0.86777 0.0
C1535 C 0.73364 0.39546 0.87097 0.0
H1536 H 0.78441 0.38442 0.87548 0.0
C1537 C 0.72595 0.38238 0.88633 0.0
H1538 H 0.76105 0.40648 0.85578 0.0
C1539 C 0.73929 0.37024 0.89798 0.0
C1540 C 0.7604 0.37051 0.89385 0.0
H1541 H 0.70956 0.38109 0.88887 0.0
H1542 H 0.733 0.35975 0.90927 0.0
C1543 C 0.76814 0.38406 0.87892 0.0
C1544 C 0.61932 0.72305 0.87023 0.0
C1545 C 0.60327 0.73076 0.85803 0.0
H1546 H 0.64272 0.72998 0.89239 0.0
C1547 C 0.59738 0.75138 0.86001 0.0
H1548 H 0.62411 0.70716 0.86887 0.0
C1549 C 0.60834 0.76446 0.87302 0.0
C1550 C 0.62476 0.75687 0.88473 0.0
H1551 H 0.58518 0.75766 0.8506 0.0
H1552 H 0.60445 0.78065 0.87344 0.0
C1553 C 0.62983 0.73598 0.88374 0.0
C1554 C 0.75436 0.61234 0.09857 0.0
C1555 C 0.76025 0.63157 0.10645 0.0
H1556 H 0.73637 0.58499 0.10341 0.0
C1557 C 0.75217 0.63811 0.12529 0.0
H1558 H 0.76041 0.60697 0.08402 0.0
C1559 C 0.7386 0.62574 0.13618 0.0
C1560 C 0.73264 0.60657 0.12847 0.0
H1561 H 0.75587 0.653 0.13151 0.0
H1562 H 0.73305 0.63119 0.15082 0.0
C1563 C 0.74079 0.59976 0.10967 0.0
C1564 C 0.37779 0.76322 0.1142 0.0
C1565 C 0.35864 0.75674 0.1068 0.0
H1566 H 0.40369 0.75608 0.13322 0.0
C1567 C 0.35094 0.73749 0.11251 0.0
H1568 H 0.38372 0.77825 0.11019 0.0
C1569 C 0.36202 0.72508 0.12606 0.0
C1570 C 0.38107 0.73167 0.13384 0.0
H1571 H 0.33597 0.73249 0.10725 0.0
H1572 H 0.35553 0.71047 0.1307 0.0
C1573 C 0.3891 0.75063 0.12741 0.0
C1574 C 0.63097 0.25624 0.10555 0.0
C1575 C 0.62547 0.23545 0.10467 0.0
H1576 H 0.62535 0.28544 0.11976 0.0
C1577 C 0.60872 0.22834 0.11621 0.0
H1578 H 0.64408 0.26188 0.097 0.0
C1579 C 0.59771 0.24182 0.12875 0.0
C1580 C 0.60383 0.26241 0.13048 0.0
H1581 H 0.60443 0.21225 0.11586 0.0
H1582 H 0.58508 0.23593 0.13785 0.0
C1583 C 0.62039 0.26959 0.11864 0.0
C1584 C 0.88864 0.75636 0.61964 0.0
C1585 C 0.88032 0.76306 0.63843 0.0
H1586 H 0.88425 0.73746 0.5928 0.0
C1587 C 0.86114 0.75559 0.6446 0.0
H1588 H 0.90348 0.76189 0.61455 0.0
C1589 C 0.8503 0.74197 0.63233 0.0
C1590 C 0.85848 0.73509 0.61369 0.0
H1591 H 0.85454 0.75973 0.65917 0.0
H1592 H 0.83537 0.73708 0.63749 0.0
C1593 C 0.87765 0.74257 0.6072 0.0
C1594 C 0.21945 0.87229 0.61906 0.0
C1595 C 0.22759 0.88766 0.63186 0.0
H1596 H 0.2259 0.84849 0.5971 0.0
C1597 C 0.24877 0.89149 0.63165 0.0
H1598 H 0.20313 0.86908 0.61905 0.0
C1599 C 0.26175 0.87936 0.61962 0.0
C1600 C 0.25363 0.8638 0.60708 0.0
H1601 H 0.25538 0.90313 0.64154 0.0
H1602 H 0.27818 0.88185 0.62038 0.0
C1603 C 0.23237 0.86064 0.60647 0.0
C1604 C 0.10137 0.25612 0.62982 0.0
C1605 C 0.10324 0.23484 0.62718 0.0
H1606 H 0.11254 0.28586 0.62101 0.0
C1607 C 0.11642 0.22711 0.61195 0.0
H1608 H 0.09148 0.26234 0.64168 0.0
C1609 C 0.12793 0.24049 0.59975 0.0
C1610 C 0.12694 0.26173 0.60316 0.0
H1611 H 0.11814 0.21068 0.60981 0.0
H1612 H 0.13841 0.2342 0.58845 0.0
C1613 C 0.11343 0.26949 0.61811 0.0
C1614 C 0.74929 0.09901 0.61068 0.0
C1615 C 0.75623 0.10618 0.62982 0.0
H1616 H 0.73013 0.10507 0.5844 0.0
C1617 C 0.74839 0.12462 0.6376 0.0
H1618 H 0.75518 0.08477 0.60437 0.0
C1619 C 0.73424 0.136 0.62643 0.0
C1620 C 0.72743 0.1292 0.60718 0.0
H1621 H 0.75305 0.13032 0.65245 0.0
H1622 H 0.72921 0.15043 0.63274 0.0
C1623 C 0.73513 0.11062 0.59927 0.0
C1624 C 0.89582 0.24945 0.36594 0.0
C1625 C 0.89034 0.22864 0.36492 0.0
H1626 H 0.88843 0.27915 0.37814 0.0
C1627 C 0.87418 0.22131 0.37722 0.0
H1628 H 0.90811 0.25546 0.35648 0.0
C1629 C 0.86341 0.23471 0.39013 0.0
C1630 C 0.86827 0.25569 0.39034 0.0
H1631 H 0.8697 0.20528 0.37664 0.0
H1632 H 0.85065 0.2289 0.3991 0.0
C1633 C 0.8846 0.26295 0.37829 0.0
C1634 C 0.75064 0.89147 0.38241 0.0
C1635 C 0.75706 0.88601 0.36255 0.0
H1636 H 0.73275 0.8828 0.40881 0.0
C1637 C 0.74941 0.86804 0.35356 0.0
H1638 H 0.75647 0.90528 0.38965 0.0
C1639 C 0.73596 0.85541 0.36429 0.0
C1640 C 0.72984 0.86039 0.38433 0.0
H1641 H 0.75386 0.86363 0.3382 0.0
H1642 H 0.73102 0.84141 0.357 0.0
C1643 C 0.73727 0.87858 0.39335 0.0
C1644 C 0.14501 0.74145 0.35794 0.0
C1645 C 0.13659 0.73459 0.37652 0.0
H1646 H 0.14095 0.75946 0.33099 0.0
C1647 C 0.11711 0.7416 0.38251 0.0
H1648 H 0.16016 0.73669 0.35316 0.0
C1649 C 0.10601 0.75488 0.3697 0.0
C1650 C 0.11452 0.7617 0.35106 0.0
H1651 H 0.11031 0.73646 0.39681 0.0
H1652 H 0.0909 0.75998 0.37445 0.0
C1653 C 0.13412 0.75488 0.34537 0.0
C1654 C 0.23006 0.11469 0.38548 0.0
C1655 C 0.23777 0.10271 0.36929 0.0
H1656 H 0.23691 0.13635 0.40935 0.0
C1657 C 0.2589 0.10265 0.36524 0.0
H1658 H 0.21374 0.11505 0.38867 0.0
C1659 C 0.27201 0.11533 0.37658 0.0
C1660 C 0.26423 0.12767 0.39251 0.0
H1661 H 0.26505 0.09373 0.3526 0.0
H1662 H 0.28816 0.11582 0.37264 0.0
C1663 C 0.24326 0.12681 0.39727 0.0
C1664 C 0.60532 0.88354 0.76692 0.0
C1665 C 0.61952 0.89819 0.75985 0.0
H1666 H 0.58274 0.86098 0.75873 0.0
C1667 C 0.62079 0.90243 0.73878 0.0
H1668 H 0.6042 0.88001 0.78316 0.0
C1669 C 0.60899 0.89115 0.72484 0.0
C1670 C 0.59528 0.87603 0.73187 0.0
H1671 H 0.6318 0.9135 0.73301 0.0
H1672 H 0.61104 0.89377 0.70852 0.0
C1673 C 0.59302 0.87276 0.75303 0.0
C1674 C 0.10916 0.61785 0.72756 0.0
C1675 C 0.12446 0.60449 0.7348 0.0
H1676 H 0.0861 0.64006 0.73538 0.0
C1677 C 0.1281 0.603 0.75598 0.0
H1678 H 0.1062 0.61925 0.71123 0.0
C1679 C 0.11711 0.61539 0.76969 0.0
C1680 C 0.10186 0.62882 0.76243 0.0
H1681 H 0.13999 0.59294 0.76184 0.0
H1682 H 0.12061 0.61457 0.78595 0.0
C1683 C 0.09766 0.62966 0.74131 0.0
C1684 C 0.37944 0.1184 0.77051 0.0
C1685 C 0.36658 0.10302 0.76248 0.0
H1686 H 0.40105 0.14242 0.76383 0.0
C1687 C 0.36652 0.09925 0.74127 0.0
H1688 H 0.37962 0.12157 0.78685 0.0
C1689 C 0.37825 0.11153 0.72815 0.0
C1690 C 0.39074 0.1272 0.73614 0.0
H1691 H 0.35656 0.08762 0.73476 0.0
H1692 H 0.3772 0.10914 0.7117 0.0
C1693 C 0.39172 0.13021 0.75743 0.0
C1694 C 0.89062 0.36178 0.73781 0.0
C1695 C 0.88893 0.36461 0.75908 0.0
H1696 H 0.87879 0.36991 0.70816 0.0
C1697 C 0.87565 0.37974 0.76683 0.0
H1698 H 0.90056 0.34996 0.7316 0.0
C1699 C 0.86371 0.39154 0.75347 0.0
C1700 C 0.86441 0.38778 0.73228 0.0
H1701 H 0.87406 0.38198 0.78325 0.0
H1702 H 0.85303 0.40265 0.75976 0.0
C1703 C 0.87815 0.37307 0.7245 0.0
C1704 C 0.60425 0.11286 0.23042 0.0
C1705 C 0.61982 0.1 0.23797 0.0
H1706 H 0.58109 0.13514 0.23764 0.0
C1707 C 0.62354 0.09914 0.25916 0.0
H1708 H 0.60127 0.11382 0.21406 0.0
C1709 C 0.61249 0.11182 0.27254 0.0
C1710 C 0.59714 0.12496 0.26494 0.0
H1711 H 0.63569 0.08951 0.26523 0.0
H1712 H 0.61616 0.11162 0.28878 0.0
C1713 C 0.59272 0.12499 0.24385 0.0
C1714 C 0.85928 0.62829 0.22518 0.0
C1715 C 0.87945 0.63409 0.23029 0.0
H1716 H 0.83247 0.61131 0.2341 0.0
C1717 C 0.88858 0.62587 0.24804 0.0
H1718 H 0.85189 0.63425 0.21151 0.0
C1719 C 0.87741 0.61278 0.26089 0.0
C1720 C 0.85718 0.60743 0.25592 0.0
H1721 H 0.90408 0.63007 0.25235 0.0
H1722 H 0.88436 0.60728 0.27499 0.0
C1723 C 0.84823 0.61503 0.23791 0.0
C1724 C 0.369 0.89761 0.25394 0.0
C1725 C 0.37009 0.89356 0.23281 0.0
H1726 H 0.37918 0.8889 0.28405 0.0
C1727 C 0.38396 0.87871 0.22554 0.0
H1728 H 0.35825 0.90886 0.25987 0.0
C1729 C 0.39637 0.86781 0.23926 0.0
C1730 C 0.39452 0.87114 0.26046 0.0
H1731 H 0.38496 0.87533 0.20927 0.0
H1732 H 0.40663 0.85609 0.23339 0.0
C1733 C 0.38088 0.8862 0.26771 0.0
C1734 C 0.1322 0.38621 0.23553 0.0
C1735 C 0.12782 0.38644 0.2566 0.0
H1736 H 0.12512 0.37281 0.20627 0.0
C1737 C 0.11143 0.3747 0.26423 0.0
H1738 H 0.14502 0.39493 0.22946 0.0
C1739 C 0.09974 0.36254 0.25098 0.0
C1740 C 0.10481 0.36141 0.23007 0.0
H1741 H 0.10802 0.37456 0.28053 0.0
H1742 H 0.08748 0.3532 0.25726 0.0
C1743 C 0.12095 0.37351 0.22237 0.0
C1744 C 0.75956 0.60499 0.87781 0.0
C1745 C 0.75219 0.62192 0.88895 0.0
H1746 H 0.75277 0.58173 0.85547 0.0
C1747 C 0.7316 0.62777 0.88705 0.0
H1748 H 0.77554 0.6005 0.8789 0.0
C1749 C 0.71882 0.61753 0.87318 0.0
C1750 C 0.72636 0.601 0.86151 0.0
H1751 H 0.72579 0.64107 0.89523 0.0
H1752 H 0.70322 0.62292 0.87113 0.0
C1753 C 0.74661 0.59433 0.86443 0.0
C1754 C 0.75433 0.3748 0.10402 0.0
C1755 C 0.76118 0.35551 0.1109 0.0
H1756 H 0.73573 0.40133 0.11076 0.0
C1757 C 0.754 0.34791 0.12968 0.0
H1758 H 0.75967 0.38096 0.08951 0.0
C1759 C 0.74071 0.35941 0.1417 0.0
C1760 C 0.73383 0.37867 0.1351 0.0
H1761 H 0.75835 0.33291 0.13513 0.0
H1762 H 0.73629 0.35322 0.15638 0.0
C1763 C 0.74083 0.38644 0.11618 0.0
C1764 C 0.63431 0.75342 0.12237 0.0
C1765 C 0.6272 0.76109 0.10356 0.0
H1766 H 0.62853 0.734 0.14807 0.0
C1767 C 0.60808 0.7545 0.09605 0.0
H1768 H 0.64913 0.75781 0.12834 0.0
C1769 C 0.59614 0.74065 0.10749 0.0
C1770 C 0.60352 0.73284 0.12621 0.0
H1771 H 0.60228 0.76024 0.08154 0.0
H1772 H 0.5814 0.73575 0.10154 0.0
C1773 C 0.62264 0.73942 0.13353 0.0
C1774 C 0.25548 0.59955 0.11382 0.0
C1775 C 0.26115 0.60761 0.13303 0.0
H1776 H 0.23752 0.60396 0.08639 0.0
C1777 C 0.25271 0.62632 0.13948 0.0
H1778 H 0.26182 0.5851 0.10852 0.0
C1779 C 0.23901 0.63691 0.12703 0.0
C1780 C 0.23326 0.62902 0.10786 0.0
H1781 H 0.25624 0.63266 0.15437 0.0
H1782 H 0.2332 0.65147 0.1324 0.0
C1783 C 0.24177 0.61034 0.10116 0.0
C1784 C 0.38209 0.2248 0.11509 0.0
C1785 C 0.36792 0.23214 0.10057 0.0
H1786 H 0.40461 0.23255 0.13789 0.0
C1787 C 0.36586 0.25338 0.09757 0.0
H1788 H 0.38383 0.20844 0.11768 0.0
C1789 C 0.37721 0.26711 0.10957 0.0
C1790 C 0.39129 0.25977 0.12418 0.0
H1791 H 0.35485 0.25935 0.08661 0.0
H1792 H 0.37487 0.28347 0.10756 0.0
C1793 C 0.39398 0.23852 0.12656 0.0
C1794 C 0.25184 0.36897 0.85602 0.0
C1795 C 0.25908 0.38782 0.86349 0.0
H1796 H 0.23277 0.34292 0.86114 0.0
C1797 C 0.25186 0.3951 0.88249 0.0
H1798 H 0.25675 0.36316 0.84128 0.0
C1799 C 0.23792 0.38336 0.894 0.0
C1800 C 0.23061 0.36455 0.88633 0.0
H1801 H 0.25726 0.40963 0.88855 0.0
H1802 H 0.23263 0.38909 0.90871 0.0
C1803 C 0.23772 0.35751 0.86726 0.0
C1804 C 0.61361 0.22434 0.87653 0.0
C1805 C 0.62659 0.23206 0.89196 0.0
H1806 H 0.5918 0.2315 0.85284 0.0
C1807 C 0.62673 0.2532 0.89612 0.0
H1808 H 0.61335 0.20806 0.87307 0.0
C1809 C 0.61494 0.26656 0.88418 0.0
C1810 C 0.6023 0.25889 0.86849 0.0
H1811 H 0.63678 0.25948 0.90781 0.0
H1812 H 0.61602 0.28296 0.8869 0.0
C1813 C 0.60126 0.23766 0.86508 0.0
C1814 C 0.38744 0.76442 0.87855 0.0
C1815 C 0.37196 0.75654 0.89135 0.0
H1816 H 0.41072 0.75773 0.85622 0.0
C1817 C 0.36862 0.73528 0.89208 0.0
H1818 H 0.39013 0.78084 0.87769 0.0
C1819 C 0.3799 0.72217 0.87932 0.0
C1820 C 0.39512 0.73011 0.86621 0.0
H1821 H 0.35655 0.72895 0.90164 0.0
H1822 H 0.37648 0.70588 0.8794 0.0
C1823 C 0.39921 0.75126 0.86634 0.0
C1824 C 0.08725 0.2512 0.27239 0.0
C1825 C 0.10469 0.24805 0.28476 0.0
H1826 H 0.07404 0.2674 0.24695 0.0
C1827 C 0.12245 0.25965 0.28076 0.0
H1828 H 0.07329 0.24255 0.27504 0.0
C1829 C 0.12289 0.27383 0.26466 0.0
C1830 C 0.10557 0.27683 0.25212 0.0
H1831 H 0.13617 0.25771 0.28995 0.0
H1832 H 0.13692 0.28236 0.26203 0.0
C1833 C 0.08767 0.26546 0.25627 0.0
C1834 C 0.73656 0.08708 0.26479 0.0
C1835 C 0.74227 0.10584 0.2739 0.0
H1836 H 0.71563 0.07145 0.24469 0.0
C1837 C 0.73063 0.1235 0.26947 0.0
H1838 H 0.74516 0.07317 0.2679 0.0
C1839 C 0.71376 0.1225 0.25637 0.0
C1840 C 0.70801 0.10383 0.24719 0.0
H1841 H 0.73443 0.13823 0.27622 0.0
H1842 H 0.70527 0.1365 0.25341 0.0
C1843 C 0.71962 0.08609 0.25153 0.0
C1844 C 0.90467 0.73032 0.25509 0.0
C1845 C 0.88573 0.7211 0.25027 0.0
H1846 H 0.92095 0.7513 0.27459 0.0
C1847 C 0.86838 0.72637 0.26201 0.0
H1848 H 0.91834 0.72662 0.24638 0.0
C1849 C 0.86987 0.74041 0.27813 0.0
C1850 C 0.88875 0.74966 0.283 0.0
H1851 H 0.85352 0.71961 0.25883 0.0
H1852 H 0.85611 0.744 0.28676 0.0
C1853 C 0.90616 0.74447 0.27127 0.0
C1854 C 0.25499 0.90742 0.26564 0.0
C1855 C 0.25028 0.88923 0.27632 0.0
H1856 H 0.27437 0.92207 0.24337 0.0
C1857 C 0.26252 0.87174 0.27297 0.0
H1858 H 0.24591 0.92118 0.26788 0.0
C1859 C 0.27877 0.87225 0.25906 0.0
C1860 C 0.28328 0.89026 0.24802 0.0
H1861 H 0.2595 0.85748 0.281 0.0
H1862 H 0.28765 0.85836 0.25682 0.0
C1863 C 0.27131 0.90792 0.25159 0.0
C1864 C 0.08346 0.72646 0.74305 0.0
C1865 C 0.10153 0.71522 0.74688 0.0
H1866 H 0.06918 0.75068 0.72584 0.0
C1867 C 0.11927 0.71994 0.73554 0.0
H1868 H 0.06951 0.72322 0.75151 0.0
C1869 C 0.11908 0.7356 0.72094 0.0
C1870 C 0.10115 0.74703 0.71721 0.0
H1871 H 0.13346 0.71161 0.73798 0.0
H1872 H 0.13314 0.73875 0.71263 0.0
C1873 C 0.08327 0.74221 0.72835 0.0
C1874 C 0.27804 0.12156 0.73003 0.0
C1875 C 0.28135 0.104 0.74219 0.0
H1876 H 0.26108 0.13543 0.70564 0.0
C1877 C 0.26962 0.08627 0.73825 0.0
H1878 H 0.28681 0.13548 0.73252 0.0
C1879 C 0.25473 0.08625 0.72272 0.0
C1880 C 0.25127 0.10394 0.71077 0.0
H1881 H 0.27177 0.07247 0.7473 0.0
H1882 H 0.24583 0.07242 0.72022 0.0
C1883 C 0.26323 0.12153 0.71455 0.0
C1884 C 0.86957 0.27425 0.72954 0.0
C1885 C 0.887 0.27838 0.74159 0.0
H1886 H 0.85632 0.25653 0.70535 0.0
C1887 C 0.90507 0.26713 0.73786 0.0
H1888 H 0.85537 0.28259 0.73189 0.0
C1889 C 0.90562 0.25205 0.72249 0.0
C1890 C 0.8881 0.24789 0.71053 0.0
H1891 H 0.91879 0.26991 0.74683 0.0
H1892 H 0.91974 0.24362 0.72005 0.0
C1893 C 0.87011 0.25923 0.71425 0.0
C1894 C 0.71016 0.87498 0.73091 0.0
C1895 C 0.70652 0.8925 0.74301 0.0
H1896 H 0.72895 0.8605 0.70831 0.0
C1897 C 0.71951 0.90963 0.74067 0.0
H1898 H 0.70048 0.86151 0.73219 0.0
C1899 C 0.73599 0.90904 0.72683 0.0
C1900 C 0.73986 0.8913 0.7151 0.0
H1901 H 0.71715 0.92339 0.74973 0.0
H1902 H 0.74587 0.92237 0.72558 0.0
C1903 C 0.72659 0.87438 0.71718 0.0
C1904 C 0.25827 0.12526 0.2751 0.0
C1905 C 0.24892 0.10673 0.28103 0.0
H1906 H 0.27868 0.14047 0.25455 0.0
C1907 C 0.25341 0.08875 0.26987 0.0
H1908 H 0.25516 0.13944 0.28324 0.0
C1909 C 0.26707 0.08933 0.25322 0.0
C1910 C 0.27641 0.10792 0.24737 0.0
H1911 H 0.24644 0.07421 0.27401 0.0
H1912 H 0.27033 0.07523 0.24502 0.0
C1913 C 0.27176 0.12586 0.2585 0.0
C1914 C 0.87192 0.27498 0.25997 0.0
C1915 C 0.88978 0.27885 0.24847 0.0
H1916 H 0.85757 0.25715 0.28345 0.0
C1917 C 0.90752 0.26723 0.25264 0.0
H1918 H 0.85798 0.28363 0.25727 0.0
C1919 C 0.90728 0.25192 0.26777 0.0
C1920 C 0.8893 0.24789 0.27906 0.0
H1921 H 0.92155 0.26981 0.2441 0.0
H1922 H 0.92114 0.24313 0.27046 0.0
C1923 C 0.87169 0.25972 0.27504 0.0
C1924 C 0.74609 0.86791 0.26809 0.0
C1925 C 0.75274 0.88685 0.27602 0.0
H1926 H 0.72695 0.85215 0.2468 0.0
C1927 C 0.74513 0.90509 0.26723 0.0
H1928 H 0.75171 0.85352 0.2743 0.0
C1929 C 0.73072 0.90429 0.25123 0.0
C1930 C 0.72371 0.88525 0.24375 0.0
H1931 H 0.74999 0.91994 0.27295 0.0
H1932 H 0.7248 0.91856 0.24503 0.0
C1933 C 0.73182 0.86712 0.25221 0.0
C1934 C 0.1235 0.71796 0.24535 0.0
C1935 C 0.10439 0.71141 0.23778 0.0
H1936 H 0.1399 0.73879 0.26448 0.0
C1937 C 0.08657 0.72187 0.24413 0.0
H1938 H 0.13759 0.71038 0.2408 0.0
C1939 C 0.08791 0.7384 0.25791 0.0
C1940 C 0.10709 0.74476 0.26556 0.0
H1941 H 0.0716 0.71724 0.23858 0.0
H1942 H 0.07393 0.74606 0.26266 0.0
C1943 C 0.12483 0.73437 0.25899 0.0
C1944 C 0.25859 0.86891 0.72072 0.0
C1945 C 0.24697 0.88676 0.7171 0.0
H1946 H 0.28325 0.85493 0.73717 0.0
C1947 C 0.25192 0.90477 0.72799 0.0
H1948 H 0.25529 0.85475 0.71262 0.0
C1949 C 0.26808 0.90487 0.74219 0.0
C1950 C 0.27966 0.88697 0.74579 0.0
H1951 H 0.24332 0.91881 0.72558 0.0
H1952 H 0.27147 0.91898 0.75034 0.0
C1953 C 0.2747 0.86901 0.73484 0.0
C1954 C 0.12347 0.25907 0.72109 0.0
C1955 C 0.10548 0.2487 0.71526 0.0
H1956 H 0.13752 0.28066 0.74129 0.0
C1957 C 0.08721 0.25269 0.72612 0.0
H1958 H 0.13784 0.2564 0.71316 0.0
C1959 C 0.087 0.26677 0.74242 0.0
C1960 C 0.10508 0.27706 0.74824 0.0
H1961 H 0.07306 0.24496 0.72204 0.0
H1962 H 0.07271 0.26956 0.75045 0.0
C1963 C 0.12329 0.273 0.73735 0.0
C1964 C 0.7269 0.08928 0.74091 0.0
C1965 C 0.71761 0.10794 0.74665 0.0
H1966 H 0.74857 0.07424 0.72113 0.0
C1967 C 0.72364 0.12609 0.73661 0.0
H1968 H 0.72261 0.07501 0.74835 0.0
C1969 C 0.73837 0.12565 0.72115 0.0
C1970 C 0.74758 0.10705 0.71522 0.0
H1971 H 0.7169 0.14078 0.74057 0.0
H1972 H 0.74244 0.14002 0.71379 0.0
C1973 C 0.74176 0.08883 0.72533 0.0
C1974 C 0.86775 0.71251 0.73617 0.0
C1975 C 0.88592 0.70742 0.74661 0.0
H1976 H 0.85256 0.73304 0.7157 0.0
C1977 C 0.90337 0.71987 0.74376 0.0
H1978 H 0.85399 0.70333 0.73795 0.0
C1979 C 0.90256 0.73711 0.73085 0.0
C1980 C 0.88425 0.74227 0.72063 0.0
H1981 H 0.91763 0.7164 0.75158 0.0
H1982 H 0.91621 0.74643 0.729 0.0
C1983 C 0.86691 0.72968 0.72341 0.0
C1984 C 0.26154 0.27028 0.1225 0.0
C1985 C 0.24947 0.27437 0.10506 0.0
H1986 H 0.28631 0.25331 0.13553 0.0
C1987 C 0.25395 0.26398 0.08664 0.0
H1988 H 0.25868 0.27803 0.13695 0.0
C1989 C 0.26999 0.24963 0.08582 0.0
C1990 C 0.28187 0.24542 0.1034 0.0
H1991 H 0.24498 0.26678 0.07291 0.0
H1992 H 0.27295 0.24173 0.07147 0.0
C1993 C 0.27749 0.25605 0.12168 0.0
C1994 C 0.25542 0.72759 0.9039 0.0
C1995 C 0.24974 0.71854 0.88511 0.0
H1996 H 0.2762 0.74781 0.91956 0.0
C1997 C 0.26135 0.72307 0.86745 0.0
H1998 H 0.24685 0.72439 0.9178 0.0
C1999 C 0.27814 0.73628 0.86848 0.0
C2000 C 0.28382 0.74546 0.88717 0.0
H2001 H 0.25757 0.71634 0.85271 0.0
H2002 H 0.28659 0.73936 0.85448 0.0
C2003 C 0.27226 0.74098 0.90491 0.0
C2004 C 0.24803 0.26866 0.90553 0.0
C2005 C 0.24225 0.27907 0.88748 0.0
H2006 H 0.26725 0.24551 0.91904 0.0
C2007 C 0.25188 0.27378 0.86888 0.0
H2008 H 0.24092 0.27235 0.92012 0.0
C2009 C 0.26684 0.25854 0.86827 0.0
C2010 C 0.27268 0.24807 0.88623 0.0
H2011 H 0.24791 0.28144 0.85465 0.0
H2012 H 0.27383 0.25502 0.85358 0.0
C2013 C 0.26311 0.25328 0.90491 0.0
C2014 C 0.71465 0.26407 0.87303 0.0
C2015 C 0.71165 0.25173 0.89052 0.0
H2016 H 0.73115 0.28878 0.85919 0.0
C2017 C 0.72347 0.25571 0.90818 0.0
H2018 H 0.70579 0.26158 0.85917 0.0
C2019 C 0.73815 0.27146 0.90819 0.0
C2020 C 0.74131 0.28358 0.89055 0.0
H2021 H 0.72154 0.24654 0.92193 0.0
H2022 H 0.74716 0.27397 0.92195 0.0
C2023 C 0.72924 0.27976 0.87305 0.0
C2024 C 0.71395 0.72824 0.86634 0.0
C2025 C 0.70996 0.74023 0.88387 0.0
H2026 H 0.73106 0.70368 0.85303 0.0
C2027 C 0.72096 0.73607 0.90201 0.0
H2028 H 0.7058 0.73092 0.85208 0.0
C2029 C 0.73559 0.72028 0.90257 0.0
C2030 C 0.73952 0.70832 0.88498 0.0
H2031 H 0.71826 0.74498 0.91581 0.0
H2032 H 0.74379 0.71747 0.91677 0.0
C2033 C 0.7285 0.71253 0.86689 0.0
C2034 C 0.7385 0.72709 0.08433 0.0
C2035 C 0.74319 0.71677 0.10276 0.0
H2036 H 0.71998 0.75001 0.06953 0.0
C2037 C 0.73203 0.72171 0.12057 0.0
H2038 H 0.74679 0.72364 0.07032 0.0
C2039 C 0.71681 0.73671 0.12012 0.0
C2040 C 0.71223 0.74726 0.10184 0.0
H2041 H 0.73509 0.71407 0.13504 0.0
H2042 H 0.70869 0.74005 0.13426 0.0
C2043 C 0.72315 0.7422 0.08388 0.0
C2044 C 0.24703 0.72399 0.08672 0.0
C2045 C 0.24049 0.71444 0.10499 0.0
H2046 H 0.26725 0.74602 0.07284 0.0
C2047 C 0.24941 0.72059 0.12369 0.0
H2048 H 0.24048 0.71964 0.07205 0.0
C2049 C 0.26469 0.73555 0.12413 0.0
C2050 C 0.27151 0.7449 0.1059 0.0
H2051 H 0.24479 0.71367 0.1381 0.0
H2052 H 0.27124 0.73966 0.13886 0.0
C2053 C 0.26237 0.73911 0.08717 0.0
C2054 C 0.71914 0.25348 0.12599 0.0
C2055 C 0.71302 0.2439 0.10764 0.0
H2056 H 0.73968 0.27427 0.14067 0.0
C2057 C 0.7239 0.2483 0.08946 0.0
H2058 H 0.71121 0.25046 0.1403 0.0
C2059 C 0.7404 0.26212 0.08965 0.0
C2060 C 0.74639 0.27175 0.10804 0.0
H2061 H 0.71961 0.24118 0.07504 0.0
H2062 H 0.74837 0.26531 0.07539 0.0
C2063 C 0.73559 0.26716 0.12619 0.0
C2064 C 0.62044 0.78636 0.75718 0.0
C2065 C 0.60261 0.78981 0.74551 0.0
H2066 H 0.63558 0.76777 0.77956 0.0
C2067 C 0.58572 0.77661 0.74824 0.0
H2068 H 0.63375 0.79621 0.75557 0.0
C2069 C 0.58679 0.76016 0.7621 0.0
C2070 C 0.60476 0.75656 0.77352 0.0
H2071 H 0.57173 0.77881 0.73952 0.0
H2072 H 0.57358 0.75018 0.76369 0.0
C2073 C 0.62151 0.76997 0.77098 0.0
C2074 C 0.21899 0.62558 0.74938 0.0
C2075 C 0.21251 0.60679 0.74096 0.0
H2076 H 0.23983 0.64116 0.76919 0.0
C2077 C 0.22319 0.58875 0.7463 0.0
H2078 H 0.21125 0.63982 0.74559 0.0
C2079 C 0.23979 0.58952 0.76001 0.0
C2080 C 0.24604 0.60835 0.76859 0.0
H2081 H 0.21864 0.57401 0.74006 0.0
H2082 H 0.24755 0.57536 0.76402 0.0
C2083 C 0.2355 0.62635 0.76296 0.0
C2084 C 0.4055 0.22682 0.75409 0.0
C2085 C 0.38747 0.21562 0.74994 0.0
H2086 H 0.41932 0.25161 0.77088 0.0
C2087 C 0.36921 0.22133 0.75992 0.0
H2088 H 0.41984 0.22284 0.74666 0.0
C2089 C 0.3689 0.2378 0.77359 0.0
C2090 C 0.38685 0.24903 0.77781 0.0
H2091 H 0.355 0.21316 0.75711 0.0
H2092 H 0.35447 0.24161 0.78095 0.0
C2093 C 0.40521 0.24333 0.76794 0.0
C2094 C 0.76087 0.37067 0.78199 0.0
C2095 C 0.74927 0.38862 0.78516 0.0
H2096 H 0.78399 0.35554 0.76436 0.0
C2097 C 0.75281 0.40568 0.77234 0.0
H2098 H 0.75864 0.35724 0.79157 0.0
C2099 C 0.76746 0.40469 0.75661 0.0
C2100 C 0.77889 0.38663 0.75335 0.0
H2101 H 0.74417 0.41976 0.77433 0.0
H2102 H 0.76971 0.41805 0.74693 0.0
C2103 C 0.77546 0.36969 0.76632 0.0
C2104 C 0.5843 0.22283 0.24247 0.0
C2105 C 0.60162 0.2106 0.24661 0.0
H2106 H 0.57159 0.2476 0.22487 0.0
C2107 C 0.61966 0.214 0.23522 0.0
H2108 H 0.57014 0.22062 0.25092 0.0
C2109 C 0.62049 0.22943 0.22036 0.0
C2110 C 0.60331 0.2419 0.21642 0.0
H2111 H 0.6333 0.20487 0.23789 0.0
H2112 H 0.63474 0.23164 0.21206 0.0
C2113 C 0.58513 0.23832 0.22753 0.0
C2114 C 0.76357 0.62398 0.23582 0.0
C2115 C 0.77056 0.60582 0.24517 0.0
H2116 H 0.74375 0.63776 0.21375 0.0
C2117 C 0.76175 0.58699 0.23921 0.0
H2118 H 0.76987 0.6388 0.24005 0.0
C2119 C 0.7466 0.58637 0.22391 0.0
C2120 C 0.73994 0.60458 0.21433 0.0
H2121 H 0.76677 0.5727 0.24612 0.0
H2122 H 0.74032 0.57163 0.21942 0.0
C2123 C 0.7485 0.62338 0.22066 0.0
C2124 C 0.36878 0.7643 0.22619 0.0
C2125 C 0.38615 0.7525 0.22115 0.0
H2126 H 0.3563 0.78888 0.2439 0.0
C2127 C 0.40492 0.75706 0.23083 0.0
H2128 H 0.35405 0.76131 0.21906 0.0
C2129 C 0.40622 0.77303 0.24524 0.0
C2130 C 0.38878 0.78479 0.25024 0.0
H2131 H 0.41861 0.74829 0.22733 0.0
H2132 H 0.42088 0.77615 0.25243 0.0
C2133 C 0.37007 0.7802 0.24049 0.0
C2134 C 0.23717 0.36754 0.21846 0.0
C2135 C 0.2476 0.38591 0.2139 0.0
H2136 H 0.21364 0.35274 0.23572 0.0
C2137 C 0.24172 0.40402 0.22415 0.0
H2138 H 0.24116 0.35327 0.21087 0.0
C2139 C 0.22575 0.40369 0.23859 0.0
C2140 C 0.21529 0.38527 0.24298 0.0
H2141 H 0.2494 0.41844 0.22099 0.0
H2142 H 0.22156 0.41787 0.24623 0.0
C2143 C 0.22125 0.36723 0.23274 0.0
C2144 C 0.75602 0.58453 0.7643 0.0
C2145 C 0.753 0.60239 0.77611 0.0
H2146 H 0.77337 0.56981 0.7405 0.0
C2147 C 0.76627 0.61917 0.77311 0.0
H2148 H 0.74612 0.57129 0.76621 0.0
C2149 C 0.78183 0.61833 0.7584 0.0
C2150 C 0.7846 0.60068 0.74625 0.0
H2151 H 0.76452 0.63316 0.78196 0.0
H2152 H 0.79156 0.63169 0.75642 0.0
C2153 C 0.77165 0.58368 0.74954 0.0
C2154 C 0.40681 0.76923 0.75341 0.0
C2155 C 0.38879 0.78079 0.75046 0.0
H2156 H 0.42168 0.74515 0.77025 0.0
C2157 C 0.37179 0.77688 0.7632 0.0
H2158 H 0.42021 0.77184 0.74391 0.0
C2159 C 0.37262 0.76162 0.77824 0.0
C2160 C 0.39049 0.74982 0.78101 0.0
H2161 H 0.35767 0.7855 0.76147 0.0
H2162 H 0.35912 0.759 0.78759 0.0
C2163 C 0.40765 0.75392 0.76853 0.0
C2164 C 0.24201 0.40741 0.76828 0.0
C2165 C 0.24821 0.38929 0.77833 0.0
H2166 H 0.22223 0.42097 0.74563 0.0
C2167 C 0.23884 0.37062 0.77284 0.0
H2168 H 0.24891 0.42205 0.77215 0.0
C2169 C 0.22368 0.37001 0.7578 0.0
C2170 C 0.21737 0.38804 0.74773 0.0
H2171 H 0.24314 0.35632 0.78019 0.0
H2172 H 0.2169 0.35526 0.75413 0.0
C2173 C 0.22673 0.40679 0.7531 0.0
C2174 C 0.5871 0.24279 0.76901 0.0
C2175 C 0.60519 0.24695 0.7801 0.0
H2176 H 0.57316 0.22606 0.74424 0.0
C2177 C 0.62345 0.23708 0.77421 0.0
H2178 H 0.57276 0.25014 0.77312 0.0
C2179 C 0.62369 0.22346 0.75769 0.0
C2180 C 0.60567 0.21921 0.74658 0.0
H2181 H 0.6377 0.23989 0.78231 0.0
H2182 H 0.63812 0.21618 0.75374 0.0
C2183 C 0.58733 0.229 0.75244 0.0
C2184 C 0.773 0.40479 0.24265 0.0
C2185 C 0.78457 0.38711 0.2473 0.0
H2186 H 0.74798 0.41763 0.22545 0.0
C2187 C 0.77935 0.36847 0.23775 0.0
H2188 H 0.77661 0.41941 0.24973 0.0
C2189 C 0.76301 0.36745 0.22399 0.0
C2190 C 0.75139 0.38505 0.21928 0.0
H2191 H 0.78785 0.35452 0.24091 0.0
H2192 H 0.75957 0.35274 0.21699 0.0
C2193 C 0.75659 0.40378 0.22874 0.0
C2194 C 0.62515 0.7604 0.23545 0.0
C2195 C 0.60736 0.76717 0.24564 0.0
H2196 H 0.638 0.74176 0.21185 0.0
C2197 C 0.5882 0.75942 0.23933 0.0
H2198 H 0.6402 0.76596 0.23983 0.0
C2199 C 0.58693 0.74534 0.22306 0.0
C2200 C 0.60479 0.73879 0.21279 0.0
H2201 H 0.5742 0.76432 0.24684 0.0
H2202 H 0.57197 0.73972 0.21846 0.0
C2203 C 0.62388 0.74645 0.21929 0.0
C2204 C 0.23929 0.5853 0.22846 0.0
C2205 C 0.24373 0.60375 0.21808 0.0
H2206 H 0.22081 0.57028 0.2513 0.0
C2207 C 0.2322 0.62138 0.22282 0.0
H2208 H 0.24787 0.57143 0.22517 0.0
C2209 C 0.21685 0.62073 0.23767 0.0
C2210 C 0.21249 0.60243 0.24828 0.0
H2211 H 0.23505 0.63586 0.21513 0.0
H2212 H 0.20843 0.63473 0.24085 0.0
C2213 C 0.22379 0.58464 0.24343 0.0
C2214 C 0.40347 0.23114 0.23936 0.0
C2215 C 0.38479 0.2216 0.24452 0.0
H2216 H 0.41907 0.25216 0.21937 0.0
C2217 C 0.36721 0.22622 0.23285 0.0
H2218 H 0.41731 0.22792 0.248 0.0
C2219 C 0.36822 0.23999 0.21648 0.0
C2220 C 0.38683 0.2496 0.2113 0.0
H2221 H 0.35255 0.21915 0.23629 0.0
H2222 H 0.35431 0.24311 0.20793 0.0
C2223 C 0.40448 0.24502 0.22293 0.0
C2224 C 0.76922 0.75775 0.62717 0.0
C2225 C 0.77468 0.7473 0.60905 0.0
H2226 H 0.75187 0.78186 0.64094 0.0
C2227 C 0.76581 0.75355 0.59036 0.0
H2228 H 0.77571 0.75343 0.64187 0.0
C2229 C 0.75196 0.77003 0.58983 0.0
C2230 C 0.7468 0.78063 0.60798 0.0
H2231 H 0.76968 0.74585 0.57612 0.0
H2232 H 0.74548 0.77458 0.5752 0.0
C2233 C 0.75553 0.77418 0.62663 0.0
C2234 C 0.76954 0.24311 0.40457 0.0
C2235 C 0.78053 0.24798 0.38657 0.0
H2236 H 0.74495 0.22577 0.41802 0.0
C2237 C 0.77444 0.23898 0.36792 0.0
H2238 H 0.77381 0.24979 0.4192 0.0
C2239 C 0.75794 0.22537 0.36724 0.0
C2240 C 0.74705 0.22028 0.3852 0.0
H2241 H 0.78244 0.24238 0.35373 0.0
H2242 H 0.75388 0.21871 0.35254 0.0
C2243 C 0.75299 0.22936 0.40389 0.0
C2244 C 0.77176 0.75146 0.40831 0.0
C2245 C 0.78357 0.74767 0.39059 0.0
H2246 H 0.74651 0.76797 0.4216 0.0
C2247 C 0.77889 0.75846 0.37248 0.0
H2248 H 0.77495 0.74343 0.42253 0.0
C2249 C 0.76264 0.77238 0.37194 0.0
C2250 C 0.75059 0.77599 0.3895 0.0
H2251 H 0.78764 0.75604 0.35853 0.0
H2252 H 0.75951 0.78024 0.3576 0.0
C2253 C 0.75545 0.76552 0.40778 0.0
C2254 C 0.22901 0.75201 0.40495 0.0
C2255 C 0.22226 0.74432 0.38589 0.0
H2256 H 0.24814 0.77384 0.42061 0.0
C2257 C 0.23074 0.75248 0.36778 0.0
H2258 H 0.22282 0.74604 0.41919 0.0
C2259 C 0.24509 0.76829 0.36859 0.0
C2260 C 0.25146 0.77644 0.38753 0.0
H2261 H 0.2261 0.74689 0.35281 0.0
H2262 H 0.25098 0.77427 0.35422 0.0
C2263 C 0.24352 0.76793 0.40576 0.0
C2264 C 0.23738 0.22369 0.40825 0.0
C2265 C 0.24143 0.21174 0.3907 0.0
H2266 H 0.21894 0.24732 0.42185 0.0
C2267 C 0.22892 0.2143 0.37327 0.0
H2268 H 0.24667 0.2221 0.42196 0.0
C2269 C 0.21304 0.22869 0.37322 0.0
C2270 C 0.20922 0.24096 0.39058 0.0
H2271 H 0.23147 0.20531 0.3595 0.0
H2272 H 0.20392 0.23033 0.3594 0.0
C2273 C 0.22146 0.23816 0.40819 0.0
C2274 C 0.22373 0.23919 0.58785 0.0
C2275 C 0.21201 0.24332 0.60553 0.0
H2276 H 0.24744 0.22095 0.57414 0.0
C2277 C 0.21535 0.23137 0.62323 0.0
H2278 H 0.22155 0.24806 0.57393 0.0
C2279 C 0.23013 0.21585 0.62334 0.0
C2280 C 0.24203 0.21183 0.60577 0.0
H2281 H 0.20659 0.23402 0.63713 0.0
H2282 H 0.23229 0.20708 0.63733 0.0
C2283 C 0.23858 0.22362 0.58797 0.0
C2284 C 0.76636 0.23718 0.58582 0.0
C2285 C 0.77811 0.24037 0.6037 0.0
H2286 H 0.74113 0.22116 0.57191 0.0
C2287 C 0.77334 0.22901 0.62143 0.0
H2288 H 0.76962 0.24567 0.57188 0.0
C2289 C 0.75704 0.21515 0.62148 0.0
C2290 C 0.74505 0.21214 0.60376 0.0
H2291 H 0.78203 0.23097 0.63549 0.0
H2292 H 0.75384 0.20682 0.63553 0.0
C2293 C 0.75001 0.22316 0.58584 0.0
C2294 C 0.23285 0.76667 0.58766 0.0
C2295 C 0.23785 0.77661 0.60621 0.0
H2296 H 0.21409 0.74404 0.57269 0.0
C2297 C 0.22747 0.77081 0.62423 0.0
H2298 H 0.24055 0.77076 0.57349 0.0
C2299 C 0.21248 0.75557 0.62379 0.0
C2300 C 0.20731 0.74565 0.6053 0.0
H2301 H 0.23089 0.77804 0.63883 0.0
H2302 H 0.20485 0.75168 0.63806 0.0
C2303 C 0.21768 0.75135 0.5872 0.0
C2304 C 0.00797 0.15511 0.30327 0.0
C2305 C 0.01884 0.17358 0.3006 0.0
H2306 H 0.97853 0.14078 0.30582 0.0
C2307 C 0.00803 0.19137 0.29488 0.0
H2308 H 0.01588 0.14107 0.30744 0.0
C2309 C 0.98664 0.19121 0.29395 0.0
C2310 C 0.97566 0.17325 0.29873 0.0
H2311 H 0.01599 0.20578 0.29237 0.0
H2312 H 0.97872 0.20549 0.29076 0.0
C2313 C 0.98654 0.15495 0.30234 0.0
C2314 C 0.83627 0.98838 0.31066 0.0
C2315 C 0.81837 0.97696 0.30683 0.0
H2316 H 0.84977 0.01824 0.31324 0.0
C2317 C 0.80068 0.98726 0.29997 0.0
H2318 H 0.85021 0.98089 0.31577 0.0
C2319 C 0.80043 0.00865 0.29851 0.0
C2320 C 0.81785 0.02019 0.30388 0.0
H2321 H 0.7867 0.97888 0.29665 0.0
H2322 H 0.78625 0.01617 0.29414 0.0
C2323 C 0.83602 0.00981 0.3092 0.0
C2324 C 0.99045 0.83659 0.30551 0.0
C2325 C 0.97937 0.81824 0.30292 0.0
H2326 H 0.01999 0.85092 0.30615 0.0
C2327 C 0.98972 0.80062 0.29596 0.0
H2328 H 0.98289 0.8505 0.31064 0.0
C2329 C 0.01098 0.80088 0.29336 0.0
C2330 C 0.02229 0.81875 0.29769 0.0
H2331 H 0.98157 0.78631 0.29355 0.0
H2332 H 0.01862 0.78674 0.28904 0.0
C2333 C 0.01174 0.83684 0.30292 0.0
C2334 C 0.1587 0.00879 0.30626 0.0
C2335 C 0.17728 0.01937 0.30337 0.0
H2336 H 0.1438 0.97957 0.30841 0.0
C2337 C 0.1948 0.00827 0.29739 0.0
H2338 H 0.14487 0.01692 0.31066 0.0
C2339 C 0.19419 0.98688 0.29612 0.0
C2340 C 0.17605 0.97616 0.30078 0.0
H2341 H 0.2093 0.01599 0.29478 0.0
H2342 H 0.20823 0.97871 0.29256 0.0
C2343 C 0.15808 0.98736 0.30497 0.0
C2344 C 0.00269 0.8022 0.7015 0.0
C2345 C 0.01316 0.82029 0.69606 0.0
H2346 H 0.97365 0.78744 0.70553 0.0
C2347 C 0.00185 0.83845 0.6931 0.0
H2348 H 0.01096 0.788 0.70413 0.0
C2349 C 0.98041 0.83812 0.69392 0.0
C2350 C 0.9699 0.81964 0.6977 0.0
H2351 H 0.00946 0.85269 0.68909 0.0
H2352 H 0.9721 0.85213 0.69051 0.0
C2353 C 0.98128 0.80188 0.70231 0.0
C2354 C 0.15697 0.0081 0.69254 0.0
C2355 C 0.17564 0.01867 0.69483 0.0
H2356 H 0.14209 0.97888 0.69039 0.0
C2357 C 0.19337 0.00754 0.7001 0.0
H2358 H 0.14299 0.01625 0.68872 0.0
C2359 C 0.19285 0.98613 0.70107 0.0
C2360 C 0.17461 0.97544 0.69678 0.0
H2361 H 0.20794 0.01526 0.70228 0.0
H2362 H 0.20705 0.97795 0.70396 0.0
C2363 C 0.15646 0.98665 0.6935 0.0
C2364 C 0.98734 0.19319 0.69678 0.0
C2365 C 0.97653 0.17546 0.69089 0.0
H2366 H 0.01665 0.20739 0.70069 0.0
C2367 C 0.98747 0.15716 0.68748 0.0
H2368 H 0.97934 0.20747 0.69983 0.0
C2369 C 0.00891 0.15711 0.68795 0.0
C2370 C 0.01976 0.17536 0.69187 0.0
H2371 H 0.97958 0.14316 0.68316 0.0
H2372 H 0.01694 0.14309 0.68397 0.0
C2373 C 0.00875 0.19314 0.69729 0.0
C2374 C 0.83621 0.00837 0.68992 0.0
C2375 C 0.81786 0.01944 0.69241 0.0
H2376 H 0.85036 0.97874 0.68846 0.0
C2377 C 0.80006 0.00894 0.69859 0.0
H2378 H 0.85025 0.01605 0.6854 0.0
C2379 C 0.80013 0.98758 0.7004 0.0
C2380 C 0.818 0.97632 0.69601 0.0
H2381 H 0.78575 0.01707 0.70097 0.0
H2382 H 0.78586 0.97985 0.70405 0.0
C2383 C 0.83627 0.98697 0.6917 0.0
C2384 C 0.30794 0.98845 0.15659 0.0
C2385 C 0.30446 0.97743 0.17483 0.0
H2386 H 0.31145 0.01801 0.14263 0.0
C2387 C 0.2988 0.98821 0.19267 0.0
H2388 H 0.31212 0.98059 0.14253 0.0
C2389 C 0.29847 0.00965 0.19274 0.0
C2390 C 0.30374 0.02072 0.17496 0.0
H2391 H 0.29575 0.98016 0.20692 0.0
H2392 H 0.29513 0.01752 0.20702 0.0
C2393 C 0.30757 0.00992 0.15665 0.0
C2394 C 0.98794 0.29646 0.15724 0.0
C2395 C 0.97683 0.29453 0.17565 0.0
H2396 H 0.01756 0.29867 0.14325 0.0
C2397 C 0.98741 0.28979 0.19386 0.0
H2398 H 0.9802 0.29985 0.14291 0.0
C2399 C 0.0088 0.28909 0.19406 0.0
C2400 C 0.02 0.29314 0.17605 0.0
H2401 H 0.97926 0.28785 0.20825 0.0
H2402 H 0.01654 0.28666 0.20859 0.0
C2403 C 0.00937 0.29577 0.15744 0.0
C2404 C 0.6821 0.98336 0.15755 0.0
C2405 C 0.68743 0.97225 0.17527 0.0
H2406 H 0.67516 0.0128 0.14466 0.0
C2407 C 0.69267 0.98305 0.19323 0.0
H2408 H 0.67818 0.97551 0.14341 0.0
C2409 C 0.69092 0.00441 0.19395 0.0
C2410 C 0.68391 0.01538 0.17673 0.0
H2411 H 0.6971 0.97496 0.20709 0.0
H2412 H 0.69405 0.01217 0.20834 0.0
C2413 C 0.68036 0.00475 0.15827 0.0
C2414 C 0.00118 0.68178 0.15566 0.0
C2415 C 0.01282 0.68463 0.17361 0.0
H2416 H 0.97123 0.68098 0.14223 0.0
C2417 C 0.00298 0.69168 0.19149 0.0
H2418 H 0.00835 0.67656 0.14157 0.0
C2419 C 0.98172 0.69428 0.19186 0.0
C2420 C 0.96988 0.68981 0.17436 0.0
H2421 H 0.01155 0.69429 0.20551 0.0
H2422 H 0.97449 0.69874 0.20617 0.0
C2423 C 0.9799 0.68434 0.15603 0.0
C2424 C 0.29504 0.98476 0.7997 0.0
C2425 C 0.30052 0.97405 0.81764 0.0
H2426 H 0.29163 0.01401 0.78517 0.0
C2427 C 0.30359 0.98513 0.83592 0.0
H2428 H 0.29226 0.97667 0.78542 0.0
C2429 C 0.30319 0.0066 0.83577 0.0
C2430 C 0.29976 0.01732 0.81734 0.0
H2431 H 0.30759 0.97731 0.85006 0.0
H2432 H 0.3069 0.01473 0.84981 0.0
C2433 C 0.29468 0.0062 0.79955 0.0
C2434 C 0.00495 0.29611 0.8005 0.0
C2435 C 0.01545 0.30172 0.81851 0.0
H2436 H 0.9759 0.29225 0.78575 0.0
C2437 C 0.00417 0.30503 0.83662 0.0
H2438 H 0.01322 0.29318 0.78635 0.0
C2439 C 0.98273 0.30452 0.83628 0.0
C2440 C 0.9722 0.30064 0.81783 0.0
H2441 H 0.01181 0.30915 0.85081 0.0
H2442 H 0.97445 0.30829 0.85021 0.0
C2443 C 0.98354 0.29554 0.80017 0.0
C2444 C 0.69469 0.01031 0.80187 0.0
C2445 C 0.68869 0.02138 0.81942 0.0
H2446 H 0.69765 0.98085 0.78766 0.0
C2447 C 0.6838 0.01054 0.83745 0.0
H2448 H 0.69883 0.0182 0.78781 0.0
C2449 C 0.6831 0.98907 0.83737 0.0
C2450 C 0.68731 0.97807 0.81926 0.0
H2451 H 0.67932 0.01861 0.8513 0.0
H2452 H 0.6781 0.9812 0.85115 0.0
C2453 C 0.69403 0.98887 0.8018 0.0
C2454 C 0.98265 0.69463 0.80212 0.0
C2455 C 0.97189 0.68786 0.81957 0.0
H2456 H 0.01193 0.70003 0.78836 0.0
C2457 C 0.98273 0.6845 0.83793 0.0
H2458 H 0.97471 0.69768 0.78781 0.0
C2459 C 0.00414 0.68586 0.83825 0.0
C2460 C 0.01502 0.6906 0.82021 0.0
H2461 H 0.97486 0.67951 0.85172 0.0
H2462 H 0.01216 0.68188 0.85227 0.0
C2463 C 0.00402 0.696 0.80244 0.0
C2464 C 0.15482 0.30541 0.00943 0.0
C2465 C 0.17307 0.30077 0.01996 0.0
H2466 H 0.1407 0.31162 0.98041 0.0
C2467 C 0.19079 0.29604 0.00858 0.0
H2468 H 0.14086 0.30894 0.01775 0.0
C2469 C 0.19072 0.29763 0.9872 0.0
C2470 C 0.17291 0.30394 0.97678 0.0
H2471 H 0.20505 0.29216 0.01621 0.0
H2472 H 0.2049 0.29489 0.97895 0.0
C2473 C 0.15473 0.30697 0.98801 0.0
C2474 C 0.15727 0.68202 0.98145 0.0
C2475 C 0.17556 0.68693 0.9711 0.0
H2476 H 0.14286 0.67582 0.01033 0.0
C2477 C 0.19312 0.69182 0.98265 0.0
H2478 H 0.14343 0.67834 0.97299 0.0
C2479 C 0.1928 0.69035 0.00404 0.0
C2480 C 0.17491 0.68398 0.01431 0.0
H2481 H 0.2074 0.69586 0.97515 0.0
H2482 H 0.20684 0.69334 0.01244 0.0
C2483 C 0.15695 0.68056 0.00286 0.0
C2484 C 0.29622 0.19185 0.00421 0.0
C2485 C 0.3026 0.17416 0.01481 0.0
H2486 H 0.29125 0.20605 0.97504 0.0
C2487 C 0.30597 0.15593 0.00373 0.0
H2488 H 0.29319 0.20606 0.01233 0.0
C2489 C 0.30487 0.15592 0.98229 0.0
C2490 C 0.30036 0.17414 0.9716 0.0
H2491 H 0.31067 0.14197 0.01148 0.0
H2492 H 0.30877 0.14197 0.9741 0.0
C2493 C 0.2951 0.19183 0.98281 0.0
C2494 C 0.79984 0.29559 0.98681 0.0
C2495 C 0.81747 0.30157 0.97587 0.0
H2496 H 0.78607 0.2909 0.01626 0.0
C2497 C 0.83589 0.30466 0.98668 0.0
H2498 H 0.78545 0.29286 0.97894 0.0
C2499 C 0.83624 0.30353 0.00813 0.0
C2500 C 0.81818 0.2993 0.01916 0.0
H2501 H 0.8498 0.30907 0.9787 0.0
H2502 H 0.85042 0.30711 0.01606 0.0
C2503 C 0.80019 0.29447 0.00824 0.0
C2504 C 0.68406 0.83531 0.00125 0.0
C2505 C 0.68743 0.81731 0.01269 0.0
H2506 H 0.6805 0.84859 0.97139 0.0
C2507 C 0.69289 0.79918 0.00231 0.0
H2508 H 0.68004 0.84959 0.00881 0.0
C2509 C 0.69319 0.79861 0.98088 0.0
C2510 C 0.688 0.81616 0.96941 0.0
H2511 H 0.69587 0.78511 0.0107 0.0
H2512 H 0.69636 0.78411 0.97335 0.0
C2513 C 0.68433 0.83474 0.97979 0.0
C2514 C 0.83312 0.68475 0.00407 0.0
C2515 C 0.81552 0.68946 0.01562 0.0
H2516 H 0.84559 0.67872 0.97426 0.0
C2517 C 0.79731 0.69466 0.00526 0.0
H2518 H 0.84745 0.68089 0.01157 0.0
C2519 C 0.79623 0.6934 0.98387 0.0
C2520 C 0.81335 0.68693 0.97243 0.0
H2521 H 0.78353 0.69861 0.01369 0.0
H2522 H 0.78167 0.69641 0.97643 0.0
C2523 C 0.83205 0.68351 0.98265 0.0
C2524 C 0.29666 0.79887 0.00776 0.0
C2525 C 0.30187 0.81662 0.01892 0.0
H2526 H 0.29546 0.78429 0.97834 0.0
C2527 C 0.30706 0.83459 0.00812 0.0
H2528 H 0.29236 0.78482 0.01559 0.0
C2529 C 0.30881 0.83429 0.98671 0.0
C2530 C 0.30545 0.81599 0.97574 0.0
H2531 H 0.31094 0.8486 0.01624 0.0
H2532 H 0.31397 0.84807 0.97894 0.0
C2533 C 0.29847 0.79855 0.98638 0.0
C2534 C 0.69737 0.19322 0.98824 0.0
C2535 C 0.69237 0.1756 0.97682 0.0
H2536 H 0.69918 0.20702 0.01797 0.0
C2537 C 0.6885 0.15709 0.98726 0.0
H2538 H 0.70074 0.20766 0.98066 0.0
C2539 C 0.68758 0.15673 0.00871 0.0
C2540 C 0.69053 0.17487 0.02004 0.0
H2541 H 0.68485 0.14318 0.97889 0.0
H2542 H 0.68325 0.14255 0.01628 0.0
C2543 C 0.69646 0.19286 0.00965 0.0
C2544 C 0.48962 0.65828 0.79515 0.0
C2545 C 0.47848 0.6767 0.79349 0.0
H2546 H 0.51926 0.64416 0.79602 0.0
C2547 C 0.48889 0.69478 0.78792 0.0
H2548 H 0.48202 0.64403 0.79917 0.0
C2549 C 0.51023 0.69483 0.78602 0.0
C2550 C 0.52157 0.67683 0.78975 0.0
H2551 H 0.4807 0.70916 0.78619 0.0
H2552 H 0.51788 0.70929 0.78295 0.0
C2553 C 0.51099 0.65835 0.79332 0.0
C2554 C 0.33694 0.51069 0.80592 0.0
C2555 C 0.31908 0.52148 0.80043 0.0
H2556 H 0.35033 0.48153 0.81303 0.0
C2557 C 0.30131 0.51033 0.79531 0.0
H2558 H 0.35094 0.51882 0.80977 0.0
C2559 C 0.30094 0.48898 0.79727 0.0
C2560 C 0.31834 0.47833 0.80429 0.0
H2561 H 0.28733 0.51815 0.79083 0.0
H2562 H 0.28671 0.48093 0.79416 0.0
C2563 C 0.33659 0.48931 0.80781 0.0
C2564 C 0.50778 0.33787 0.80967 0.0
C2565 C 0.5184 0.31951 0.8056 0.0
H2566 H 0.47858 0.35233 0.81379 0.0
C2567 C 0.50721 0.30203 0.79964 0.0
H2568 H 0.51596 0.35166 0.8141 0.0
C2569 C 0.48579 0.3024 0.79952 0.0
C2570 C 0.47514 0.32027 0.8053 0.0
H2571 H 0.51493 0.2877 0.79616 0.0
H2572 H 0.47761 0.28836 0.79591 0.0
C2573 C 0.48633 0.33825 0.8095 0.0
C2574 C 0.65657 0.48659 0.80078 0.0
C2575 C 0.67521 0.47591 0.79866 0.0
H2576 H 0.64167 0.51587 0.80158 0.0
C2577 C 0.69274 0.48672 0.79221 0.0
H2578 H 0.64272 0.47867 0.80547 0.0
C2579 C 0.69211 0.50804 0.78988 0.0
C2580 C 0.67397 0.51897 0.79405 0.0
H2581 H 0.70727 0.47889 0.79012 0.0
H2582 H 0.70621 0.51604 0.78613 0.0
C2583 C 0.65596 0.50794 0.79852 0.0
C2584 C 0.48637 0.30038 0.1981 0.0
C2585 C 0.47593 0.31826 0.19201 0.0
H2586 H 0.51539 0.28606 0.20335 0.0
C2587 C 0.487 0.33666 0.18979 0.0
H2588 H 0.47822 0.28603 0.20029 0.0
C2589 C 0.50837 0.33668 0.19155 0.0
C2590 C 0.51897 0.3183 0.19556 0.0
H2591 H 0.47936 0.35077 0.18538 0.0
H2592 H 0.51661 0.35079 0.1884 0.0
C2593 C 0.50769 0.30041 0.19988 0.0
C2594 C 0.65737 0.48052 0.18352 0.0
C2595 C 0.67575 0.47038 0.18855 0.0
H2596 H 0.64272 0.5092 0.17698 0.0
C2597 C 0.69319 0.48215 0.19335 0.0
H2598 H 0.64361 0.4719 0.17992 0.0
C2599 C 0.69269 0.50353 0.19163 0.0
C2600 C 0.67473 0.51356 0.18511 0.0
H2601 H 0.70755 0.47483 0.19747 0.0
H2602 H 0.70665 0.51209 0.19453 0.0
C2603 C 0.65686 0.50192 0.18182 0.0
C2604 C 0.50364 0.69286 0.19391 0.0
C2605 C 0.51332 0.67468 0.18742 0.0
H2606 H 0.47528 0.70807 0.20029 0.0
C2607 C 0.50151 0.65677 0.18505 0.0
H2608 H 0.51235 0.70686 0.19617 0.0
C2609 C 0.48021 0.65746 0.18743 0.0
C2610 C 0.47036 0.67607 0.19224 0.0
H2611 H 0.50855 0.64246 0.18028 0.0
H2612 H 0.47141 0.64367 0.18439 0.0
C2613 C 0.48237 0.69354 0.19632 0.0
C2614 C 0.30063 0.48582 0.19399 0.0
C2615 C 0.31812 0.47503 0.18742 0.0
H2616 H 0.28689 0.51514 0.19939 0.0
C2617 C 0.33637 0.48595 0.18374 0.0
H2618 H 0.2864 0.47784 0.19721 0.0
C2619 C 0.33665 0.50738 0.18497 0.0
C2620 C 0.3187 0.51827 0.18995 0.0
H2621 H 0.35018 0.47806 0.17886 0.0
H2622 H 0.35066 0.51543 0.18098 0.0
C2623 C 0.30093 0.50723 0.19526 0.0
C2624 C 0.79314 0.50257 0.69158 0.0
C2625 C 0.79895 0.51278 0.67346 0.0
H2626 H 0.7888 0.47371 0.70661 0.0
C2627 C 0.80153 0.50131 0.65534 0.0
H2628 H 0.79069 0.511 0.70573 0.0
C2629 C 0.80045 0.47987 0.65585 0.0
C2630 C 0.79677 0.46958 0.67448 0.0
H2631 H 0.80575 0.50876 0.64107 0.0
H2632 H 0.80389 0.47139 0.64195 0.0
C2633 C 0.79204 0.48117 0.69208 0.0
C2634 C 0.50414 0.80819 0.6541 0.0
C2635 C 0.51531 0.80523 0.67234 0.0
H2636 H 0.47446 0.81025 0.64018 0.0
C2637 C 0.50491 0.79845 0.69001 0.0
H2638 H 0.51173 0.81316 0.64014 0.0
C2639 C 0.48356 0.79674 0.69001 0.0
C2640 C 0.4722 0.80181 0.67236 0.0
H2641 H 0.51311 0.79569 0.70422 0.0
H2642 H 0.47592 0.79275 0.70425 0.0
C2643 C 0.48275 0.80651 0.65411 0.0
C2644 C 0.19193 0.50622 0.69173 0.0
C2645 C 0.18507 0.51677 0.67419 0.0
H2646 H 0.1973 0.47709 0.70589 0.0
C2647 C 0.18109 0.5056 0.65614 0.0
H2648 H 0.19539 0.5144 0.70581 0.0
C2649 C 0.18219 0.48416 0.65618 0.0
C2650 C 0.18728 0.47354 0.67428 0.0
H2651 H 0.176 0.5133 0.64229 0.0
H2652 H 0.1779 0.47592 0.64237 0.0
C2653 C 0.19302 0.48481 0.69178 0.0
C2654 C 0.48437 0.18841 0.65782 0.0
C2655 C 0.47385 0.19209 0.67631 0.0
H2656 H 0.5135 0.18476 0.64308 0.0
C2657 C 0.48511 0.19785 0.69381 0.0
H2658 H 0.47613 0.18415 0.644 0.0
C2659 C 0.50653 0.19816 0.69329 0.0
C2660 C 0.5171 0.19276 0.67525 0.0
H2661 H 0.47747 0.20102 0.70825 0.0
H2662 H 0.51478 0.2016 0.70733 0.0
C2663 C 0.50581 0.18876 0.65729 0.0
C2664 C 0.81008 0.48752 0.33525 0.0
C2665 C 0.80646 0.47635 0.31712 0.0
H2666 H 0.8122 0.51718 0.34926 0.0
C2667 C 0.79904 0.48677 0.29972 0.0
H2668 H 0.81558 0.47992 0.349 0.0
C2669 C 0.79703 0.50813 0.29989 0.0
C2670 C 0.80248 0.51948 0.31744 0.0
H2671 H 0.79583 0.47857 0.2856 0.0
H2672 H 0.79238 0.51579 0.28586 0.0
C2673 C 0.80812 0.5089 0.3354 0.0
C2674 C 0.51094 0.79593 0.30143 0.0
C2675 C 0.52241 0.80044 0.31916 0.0
H2676 H 0.48137 0.79566 0.28721 0.0
C2677 C 0.51198 0.80559 0.33736 0.0
H2678 H 0.51849 0.79167 0.28722 0.0
C2679 C 0.49066 0.80788 0.33735 0.0
C2680 C 0.47939 0.80506 0.31915 0.0
H2681 H 0.52036 0.80895 0.35134 0.0
H2682 H 0.48319 0.81293 0.35133 0.0
C2683 C 0.48964 0.79822 0.30142 0.0
C2684 C 0.18605 0.48063 0.33618 0.0
C2685 C 0.19032 0.4703 0.3177 0.0
H2686 H 0.18086 0.50959 0.35085 0.0
C2687 C 0.19581 0.48183 0.30028 0.0
H2688 H 0.18198 0.47219 0.34993 0.0
C2689 C 0.19511 0.50325 0.30079 0.0
C2690 C 0.18897 0.51355 0.31875 0.0
H2691 H 0.19948 0.47434 0.28587 0.0
H2692 H 0.19831 0.51166 0.28679 0.0
C2693 C 0.18539 0.50209 0.3367 0.0
C2694 C 0.50275 0.20021 0.30181 0.0
C2695 C 0.51336 0.19463 0.31977 0.0
H2696 H 0.47359 0.20462 0.28746 0.0
C2697 C 0.50231 0.19217 0.33815 0.0
H2698 H 0.51084 0.20251 0.28745 0.0
C2699 C 0.48089 0.19337 0.33816 0.0
C2700 C 0.47019 0.19706 0.31978 0.0
H2701 H 0.51006 0.1881 0.3523 0.0
H2702 H 0.47273 0.19018 0.35231 0.0
C2703 C 0.48137 0.20142 0.30182 0.0
C2704 C 0.65845 0.80688 0.48748 0.0
C2705 C 0.67643 0.8023 0.47646 0.0
H2706 H 0.64508 0.81305 0.51687 0.0
C2707 C 0.69442 0.7975 0.48736 0.0
H2708 H 0.64427 0.81045 0.47954 0.0
C2709 C 0.69488 0.79898 0.50875 0.0
C2710 C 0.67736 0.8053 0.51965 0.0
H2711 H 0.70848 0.79365 0.47934 0.0
H2712 H 0.70928 0.79623 0.51661 0.0
C2713 C 0.65891 0.80838 0.50889 0.0
C2714 C 0.69137 0.1956 0.48356 0.0
C2715 C 0.67367 0.19103 0.47209 0.0
H2716 H 0.7051 0.19738 0.51333 0.0
C2717 C 0.65518 0.18713 0.48252 0.0
H2718 H 0.70582 0.19889 0.476 0.0
C2719 C 0.65477 0.18628 0.50397 0.0
C2720 C 0.67284 0.18927 0.51537 0.0
H2721 H 0.64123 0.18374 0.47413 0.0
H2722 H 0.64051 0.18226 0.51153 0.0
C2723 C 0.69096 0.19472 0.50498 0.0
C2724 C 0.79878 0.69318 0.51037 0.0
C2725 C 0.80399 0.67547 0.52158 0.0
H2726 H 0.79636 0.70724 0.48079 0.0
C2727 C 0.8081 0.65716 0.51089 0.0
H2728 H 0.79527 0.70748 0.51815 0.0
C2729 C 0.80872 0.65702 0.48943 0.0
C2730 C 0.80525 0.67519 0.47828 0.0
H2731 H 0.81194 0.64318 0.51907 0.0
H2732 H 0.81306 0.64295 0.48166 0.0
C2733 C 0.79939 0.69304 0.48893 0.0
C2734 C 0.29793 0.79984 0.48777 0.0
C2735 C 0.3159 0.8067 0.47796 0.0
H2736 H 0.28257 0.79437 0.51628 0.0
C2737 C 0.33343 0.81067 0.4899 0.0
H2738 H 0.28422 0.79638 0.479 0.0
C2739 C 0.33248 0.8095 0.51132 0.0
C2740 C 0.31399 0.80433 0.52119 0.0
H2741 H 0.34758 0.81577 0.48279 0.0
H2742 H 0.34593 0.81375 0.52014 0.0
C2743 C 0.29699 0.79865 0.50917 0.0
C2744 C 0.19074 0.33563 0.48577 0.0
C2745 C 0.19364 0.31719 0.47491 0.0
H2746 H 0.1874 0.34985 0.51522 0.0
C2747 C 0.19899 0.29934 0.48582 0.0
H2748 H 0.18684 0.34971 0.47779 0.0
C2749 C 0.19929 0.29941 0.50725 0.0
C2750 C 0.19426 0.31735 0.51817 0.0
H2751 H 0.20167 0.28495 0.47789 0.0
H2752 H 0.20219 0.28509 0.51523 0.0
C2753 C 0.19105 0.3357 0.50724 0.0
C2754 C 0.29906 0.20098 0.50965 0.0
C2755 C 0.31702 0.19599 0.52053 0.0
H2756 H 0.28475 0.20402 0.48027 0.0
C2757 C 0.33549 0.19358 0.50964 0.0
H2758 H 0.28463 0.20327 0.51761 0.0
C2759 C 0.33556 0.19403 0.48817 0.0
C2760 C 0.31715 0.19689 0.47727 0.0
H2761 H 0.34965 0.18998 0.51759 0.0
H2762 H 0.34977 0.19077 0.48017 0.0
C2763 C 0.29912 0.20141 0.48822 0.0
C2764 C 0.79712 0.29907 0.4859 0.0
C2765 C 0.80392 0.31671 0.47544 0.0
H2766 H 0.79166 0.2848 0.51496 0.0
C2767 C 0.8074 0.33483 0.48666 0.0
H2768 H 0.794 0.28494 0.47767 0.0
C2769 C 0.80606 0.33475 0.50809 0.0
C2770 C 0.8012 0.31655 0.51866 0.0
H2771 H 0.81241 0.34875 0.47903 0.0
H2772 H 0.8101 0.3486 0.51638 0.0
C2773 C 0.79575 0.299 0.5073 0.0
C2774 C 0.17552 0.65841 0.50479 0.0
C2775 C 0.17911 0.67663 0.51582 0.0
H2776 H 0.17356 0.6441 0.47526 0.0
C2777 C 0.18601 0.69411 0.50519 0.0
H2778 H 0.17038 0.64461 0.51256 0.0
C2779 C 0.18788 0.6938 0.48382 0.0
C2780 C 0.18285 0.67601 0.47266 0.0
H2781 H 0.18914 0.70833 0.51326 0.0
H2782 H 0.19236 0.70781 0.47602 0.0
C2783 C 0.17736 0.65811 0.4834 0.0
C2784 C 0.13474 0.11768 0.30381 0.0
C2785 C 0.15399 0.1225 0.29537 0.0
H2786 H 0.10566 0.12988 0.31316 0.0
C2787 C 0.15603 0.14022 0.28326 0.0
H2788 H 0.13285 0.10408 0.31323 0.0
C2789 C 0.14052 0.15495 0.28323 0.0
C2790 C 0.12293 0.15197 0.2953 0.0
H2791 H 0.17073 0.14412 0.27649 0.0
H2792 H 0.14366 0.16985 0.27648 0.0
C2793 C 0.11914 0.13249 0.30376 0.0
C2794 C 0.87655 0.13083 0.29113 0.0
C2795 C 0.87334 0.15056 0.28302 0.0
H2796 H 0.86223 0.10218 0.29852 0.0
C2797 C 0.85721 0.15366 0.2691 0.0
H2798 H 0.889 0.12808 0.30182 0.0
C2799 C 0.84204 0.13869 0.26694 0.0
C2800 C 0.84273 0.12094 0.2792 0.0
H2801 H 0.8546 0.16873 0.2625 0.0
H2802 H 0.82806 0.14275 0.25887 0.0
C2803 C 0.86121 0.11589 0.28912 0.0
C2804 C 0.86372 0.84479 0.2831 0.0
C2805 C 0.87921 0.84642 0.29795 0.0
H2806 H 0.83503 0.85674 0.27269 0.0
C2807 C 0.88178 0.86507 0.30848 0.0
H2808 H 0.86152 0.83052 0.2748 0.0
C2809 C 0.86649 0.88015 0.30732 0.0
C2810 C 0.84872 0.8764 0.2957 0.0
H2811 H 0.89363 0.86659 0.32007 0.0
H2812 H 0.86693 0.8928 0.31813 0.0
C2813 C 0.84857 0.85986 0.28185 0.0
C2814 C 0.11729 0.86312 0.28242 0.0
C2815 C 0.12239 0.84474 0.27231 0.0
H2816 H 0.12934 0.89108 0.29486 0.0
C2817 C 0.13964 0.84447 0.25938 0.0
H2818 H 0.10392 0.86381 0.29231 0.0
C2819 C 0.15421 0.86011 0.26084 0.0
C2820 C 0.15144 0.87597 0.27519 0.0
H2821 H 0.1437 0.83057 0.25114 0.0
H2822 H 0.16907 0.85778 0.25371 0.0
C2823 C 0.13192 0.87882 0.28388 0.0
C2824 C 0.14894 0.85653 0.72463 0.0
C2825 C 0.1476 0.87373 0.71171 0.0
H2826 H 0.13572 0.82752 0.73229 0.0
C2827 C 0.12854 0.87878 0.70297 0.0
H2828 H 0.16346 0.85246 0.73169 0.0
C2829 C 0.11259 0.86435 0.70322 0.0
C2830 C 0.11588 0.845 0.71219 0.0
H2831 H 0.12713 0.89205 0.693 0.0
H2832 H 0.09946 0.86687 0.69332 0.0
C2833 C 0.13298 0.84226 0.72504 0.0
C2834 C 0.13488 0.11843 0.69474 0.0
C2835 C 0.15444 0.12264 0.7028 0.0
H2836 H 0.10609 0.13155 0.68572 0.0
C2837 C 0.15727 0.14035 0.71475 0.0
H2838 H 0.13237 0.10483 0.68546 0.0
C2839 C 0.14225 0.15559 0.71493 0.0
C2840 C 0.12439 0.15317 0.70312 0.0
H2841 H 0.17221 0.14381 0.72121 0.0
H2842 H 0.146 0.1704 0.72156 0.0
C2843 C 0.1198 0.13376 0.6949 0.0
C2844 C 0.87825 0.13101 0.69152 0.0
C2845 C 0.87471 0.15005 0.70104 0.0
H2846 H 0.8643 0.10292 0.68153 0.0
C2847 C 0.85803 0.15209 0.71451 0.0
H2848 H 0.89106 0.12912 0.68106 0.0
C2849 C 0.84279 0.13706 0.71487 0.0
C2850 C 0.84416 0.12009 0.70163 0.0
H2851 H 0.8551 0.16663 0.72209 0.0
H2852 H 0.82851 0.14045 0.72271 0.0
C2853 C 0.86289 0.11595 0.69181 0.0
C2854 C 0.87318 0.86163 0.71135 0.0
C2855 C 0.86812 0.84249 0.71997 0.0
H2856 H 0.861 0.88999 0.69997 0.0
C2857 C 0.85007 0.84085 0.73166 0.0
H2858 H 0.88714 0.86339 0.70246 0.0
C2859 C 0.83495 0.85593 0.72996 0.0
C2860 C 0.83817 0.87289 0.71706 0.0
H2861 H 0.84601 0.82634 0.73877 0.0
H2862 H 0.81976 0.85269 0.73593 0.0
C2863 C 0.8581 0.87689 0.70984 0.0
C2864 C 0.27598 0.15215 0.13115 0.0
C2865 C 0.29076 0.14918 0.11576 0.0
H2866 H 0.26467 0.14147 0.16002 0.0
C2867 C 0.29962 0.12967 0.11334 0.0
H2868 H 0.26885 0.16706 0.13315 0.0
C2869 C 0.29723 0.11494 0.12884 0.0
C2870 C 0.28622 0.11999 0.14671 0.0
H2871 H 0.31102 0.12706 0.1015 0.0
H2872 H 0.30703 0.10148 0.12855 0.0
C2873 C 0.27351 0.13741 0.1465 0.0
C2874 C 0.87929 0.29234 0.13131 0.0
C2875 C 0.87576 0.28407 0.15092 0.0
H2876 H 0.8655 0.29966 0.10237 0.0
C2877 C 0.85973 0.26995 0.15362 0.0
H2878 H 0.89166 0.30321 0.12889 0.0
C2879 C 0.84499 0.26758 0.13826 0.0
C2880 C 0.84591 0.27993 0.12057 0.0
H2881 H 0.85686 0.26325 0.1686 0.0
H2882 H 0.83103 0.2593 0.14195 0.0
C2883 C 0.86433 0.29017 0.11601 0.0
C2884 C 0.69747 0.87836 0.12691 0.0
C2885 C 0.70915 0.87333 0.14435 0.0
H2886 H 0.68356 0.86639 0.0996 0.0
C2887 C 0.72266 0.85656 0.14331 0.0
H2888 H 0.68704 0.89133 0.12727 0.0
C2889 C 0.72066 0.84227 0.12746 0.0
C2890 C 0.70525 0.84487 0.11263 0.0
H2891 H 0.73201 0.85254 0.15649 0.0
H2892 H 0.72852 0.82766 0.12889 0.0
C2893 C 0.69547 0.86402 0.11099 0.0
C2894 C 0.12451 0.68489 0.10865 0.0
C2895 C 0.14174 0.69735 0.11225 0.0
H2896 H 0.09795 0.67123 0.12243 0.0
C2897 C 0.14094 0.71191 0.12813 0.0
H2898 H 0.12477 0.67357 0.09644 0.0
C2899 C 0.1256 0.71056 0.14302 0.0
C2900 C 0.11102 0.69474 0.14192 0.0
H2901 H 0.15403 0.72177 0.1311 0.0
H2902 H 0.12727 0.71946 0.157 0.0
C2903 C 0.10911 0.68352 0.1236 0.0
C2904 C 0.30469 0.87474 0.86128 0.0
C2905 C 0.2949 0.87027 0.84257 0.0
H2906 H 0.31624 0.862 0.88937 0.0
C2907 C 0.28278 0.85252 0.84107 0.0
H2908 H 0.31416 0.88835 0.86274 0.0
C2909 C 0.28396 0.83749 0.85628 0.0
C2910 C 0.29723 0.84019 0.87303 0.0
H2911 H 0.27504 0.84883 0.82679 0.0
H2912 H 0.27705 0.82262 0.85334 0.0
C2913 C 0.30589 0.85962 0.87655 0.0
C2914 C 0.12587 0.29807 0.88155 0.0
C2915 C 0.1448 0.28831 0.87828 0.0
H2916 H 0.09761 0.30709 0.86745 0.0
C2917 C 0.14631 0.27334 0.86284 0.0
H2918 H 0.12433 0.3096 0.89347 0.0
C2919 C 0.13092 0.27178 0.84802 0.0
C2920 C 0.11427 0.28546 0.8485 0.0
H2921 H 0.16073 0.26547 0.86018 0.0
H2922 H 0.13401 0.26286 0.83429 0.0
C2923 C 0.11046 0.29655 0.86662 0.0
C2924 C 0.69788 0.13381 0.87833 0.0
C2925 C 0.70666 0.15316 0.87454 0.0
H2926 H 0.68866 0.10536 0.86463 0.0
C2927 C 0.71992 0.15552 0.85774 0.0
H2928 H 0.68764 0.13164 0.89128 0.0
C2929 C 0.72071 0.14037 0.84262 0.0
C2930 C 0.70791 0.12307 0.84414 0.0
H2931 H 0.72699 0.17028 0.85465 0.0
H2932 H 0.72832 0.14392 0.82824 0.0
C2933 C 0.69852 0.11868 0.86305 0.0
C2934 C 0.87111 0.68449 0.85994 0.0
C2935 C 0.86782 0.69291 0.84036 0.0
H2936 H 0.85688 0.67598 0.88838 0.0
C2937 C 0.85071 0.70558 0.8371 0.0
H2938 H 0.88422 0.67461 0.86274 0.0
C2939 C 0.83512 0.70638 0.85173 0.0
C2940 C 0.83658 0.69446 0.86962 0.0
H2941 H 0.84796 0.7123 0.8221 0.0
H2942 H 0.82072 0.71366 0.84762 0.0
C2943 C 0.85544 0.6853 0.87465 0.0
C2944 C 0.13203 0.28581 0.11834 0.0
C2945 C 0.15138 0.2773 0.12256 0.0
H2946 H 0.10388 0.29629 0.1317 0.0
C2947 C 0.15376 0.26511 0.14022 0.0
H2948 H 0.12974 0.2951 0.10471 0.0
C2949 C 0.13911 0.26606 0.15581 0.0
C2950 C 0.12188 0.27876 0.15347 0.0
H2951 H 0.16847 0.25812 0.14363 0.0
H2952 H 0.14286 0.25966 0.17072 0.0
C2953 C 0.1172 0.28656 0.1339 0.0
C2954 C 0.14847 0.72491 0.85467 0.0
C2955 C 0.14862 0.71219 0.87211 0.0
H2956 H 0.13492 0.7298 0.82517 0.0
C2957 C 0.13056 0.70165 0.87743 0.0
H2958 H 0.16212 0.73345 0.85044 0.0
C2959 C 0.11486 0.69958 0.86288 0.0
C2960 C 0.11728 0.70827 0.84329 0.0
H2961 H 0.1302 0.6919 0.89093 0.0
H2962 H 0.10282 0.68844 0.86569 0.0
C2963 C 0.13291 0.72276 0.84012 0.0
C2964 C 0.27021 0.15152 0.85194 0.0
C2965 C 0.28247 0.15027 0.86964 0.0
H2966 H 0.26493 0.13914 0.822 0.0
C2967 C 0.29186 0.13147 0.87452 0.0
H2968 H 0.2626 0.16581 0.84802 0.0
C2969 C 0.29311 0.11605 0.85956 0.0
C2970 C 0.28492 0.1196 0.83992 0.0
H2971 H 0.30129 0.13009 0.88817 0.0
H2972 H 0.3034 0.10323 0.86218 0.0
C2973 C 0.27157 0.13624 0.83699 0.0
C2974 C 0.8483 0.27711 0.83729 0.0
C2975 C 0.86673 0.28807 0.83935 0.0
H2976 H 0.81824 0.27234 0.84953 0.0
C2977 C 0.87194 0.29627 0.85863 0.0
H2978 H 0.84404 0.27052 0.8226 0.0
C2979 C 0.85707 0.29732 0.87416 0.0
C2980 C 0.83712 0.29012 0.8703 0.0
H2981 H 0.8861 0.30479 0.86058 0.0
H2982 H 0.86021 0.30659 0.88762 0.0
C2983 C 0.8335 0.27816 0.85273 0.0
C2984 C 0.70997 0.85382 0.83308 0.0
C2985 C 0.69795 0.87118 0.83745 0.0
H2986 H 0.71767 0.82328 0.84229 0.0
C2987 C 0.69064 0.8741 0.85753 0.0
H2988 H 0.71586 0.85135 0.8177 0.0
C2989 C 0.6917 0.85793 0.87171 0.0
C2990 C 0.69999 0.83894 0.86567 0.0
H2991 H 0.6813 0.88738 0.86121 0.0
H2992 H 0.68314 0.85923 0.88593 0.0
C2993 C 0.71101 0.83774 0.84718 0.0
C2994 C 0.85976 0.70405 0.11572 0.0
C2995 C 0.84025 0.71281 0.11841 0.0
H2996 H 0.88748 0.69512 0.13095 0.0
C2997 C 0.83717 0.72653 0.13478 0.0
H2998 H 0.86255 0.69351 0.10313 0.0
C2999 C 0.85133 0.72728 0.15083 0.0
C3000 C 0.86868 0.71452 0.15036 0.0
H3001 H 0.8223 0.73366 0.13701 0.0
H3002 H 0.84701 0.73504 0.16492 0.0
C3003 C 0.87407 0.70494 0.13177 0.0
C3004 C 0.27562 0.84185 0.14133 0.0
C3005 C 0.28723 0.8425 0.12317 0.0
H3006 H 0.27151 0.85487 0.17119 0.0
C3007 C 0.29738 0.86081 0.1179 0.0
H3008 H 0.26754 0.82793 0.14562 0.0
C3009 C 0.29964 0.87635 0.13263 0.0
C3010 C 0.29163 0.8735 0.15246 0.0
H3011 H 0.30643 0.86167 0.10395 0.0
H3012 H 0.31027 0.88878 0.12957 0.0
C3013 C 0.27793 0.85726 0.15601 0.0
C3014 C 0.70773 0.149 0.13977 0.0
C3015 C 0.69498 0.14792 0.12244 0.0
H3016 H 0.71403 0.13648 0.16945 0.0
C3017 C 0.68453 0.12952 0.11822 0.0
H3018 H 0.71598 0.16305 0.14324 0.0
C3019 C 0.68339 0.11423 0.13332 0.0
C3020 C 0.69276 0.11744 0.15247 0.0
H3021 H 0.67456 0.1284 0.10493 0.0
H3022 H 0.6726 0.10172 0.13124 0.0
C3023 C 0.70659 0.13379 0.15479 0.0
C3024 C 0.64706 0.66136 0.76447 0.0
C3025 C 0.62806 0.65855 0.77425 0.0
H3026 H 0.67728 0.64932 0.76039 0.0
C3027 C 0.62226 0.63864 0.78029 0.0
H3028 H 0.65174 0.67653 0.75944 0.0
C3029 C 0.63699 0.62296 0.78085 0.0
C3030 C 0.65737 0.62731 0.77534 0.0
H3031 H 0.60762 0.63605 0.78776 0.0
H3032 H 0.63324 0.60879 0.78875 0.0
C3033 C 0.6617 0.64575 0.76501 0.0
C3034 C 0.36408 0.61812 0.78922 0.0
C3035 C 0.34599 0.62365 0.77886 0.0
H3036 H 0.39175 0.62954 0.80289 0.0
C3037 C 0.34584 0.64177 0.76713 0.0
H3038 H 0.36464 0.60415 0.79827 0.0
C3039 C 0.3612 0.65641 0.77 0.0
C3040 C 0.37699 0.65268 0.78416 0.0
H3041 H 0.33213 0.64623 0.75881 0.0
H3042 H 0.359 0.67167 0.7637 0.0
C3043 C 0.37962 0.63274 0.79196 0.0
C3044 C 0.35981 0.34929 0.77237 0.0
C3045 C 0.37625 0.34965 0.78631 0.0
H3046 H 0.33024 0.36172 0.76551 0.0
C3047 C 0.37999 0.36772 0.79751 0.0
H3048 H 0.35677 0.3356 0.76339 0.0
C3049 C 0.36469 0.38279 0.79874 0.0
C3050 C 0.34591 0.3797 0.78862 0.0
H3051 H 0.39268 0.36843 0.80825 0.0
H3052 H 0.36612 0.39468 0.81032 0.0
C3053 C 0.34454 0.36426 0.77364 0.0
C3054 C 0.64042 0.34024 0.78235 0.0
C3055 C 0.62267 0.34234 0.79438 0.0
H3056 H 0.67028 0.35225 0.77602 0.0
C3057 C 0.61812 0.36153 0.80313 0.0
H3058 H 0.64414 0.32558 0.77536 0.0
C3059 C 0.63316 0.37691 0.80346 0.0
C3060 C 0.65261 0.37297 0.79505 0.0
H3061 H 0.60451 0.36347 0.8125 0.0
H3062 H 0.63071 0.39028 0.81308 0.0
C3063 C 0.65539 0.35552 0.78271 0.0
C3064 C 0.65349 0.35208 0.22731 0.0
C3065 C 0.65216 0.36962 0.21478 0.0
H3066 H 0.6414 0.32203 0.23275 0.0
C3067 C 0.63328 0.37435 0.2055 0.0
H3068 H 0.66781 0.3483 0.2349 0.0
C3069 C 0.61799 0.35927 0.20439 0.0
C3070 C 0.62171 0.33968 0.21266 0.0
H3071 H 0.63179 0.3879 0.19593 0.0
H3072 H 0.60511 0.36175 0.19415 0.0
C3073 C 0.63838 0.33696 0.22601 0.0
C3074 C 0.62658 0.64296 0.21173 0.0
C3075 C 0.61158 0.64225 0.19629 0.0
H3076 H 0.65505 0.63046 0.22213 0.0
C3077 C 0.6091 0.62408 0.18494 0.0
H3078 H 0.62869 0.65683 0.22072 0.0
C3079 C 0.62429 0.60888 0.18575 0.0
C3080 C 0.64187 0.61206 0.19783 0.0
H3081 H 0.5976 0.62322 0.17293 0.0
H3082 H 0.62407 0.5968 0.17429 0.0
C3083 C 0.64169 0.6278 0.21256 0.0
C3084 C 0.37458 0.63434 0.20638 0.0
C3085 C 0.36918 0.65317 0.21546 0.0
H3086 H 0.3631 0.60545 0.19563 0.0
C3087 C 0.35176 0.65401 0.22811 0.0
H3088 H 0.38806 0.63326 0.19668 0.0
C3089 C 0.33757 0.63797 0.22769 0.0
C3090 C 0.3407 0.62127 0.21439 0.0
H3091 H 0.34744 0.6683 0.23549 0.0
H3092 H 0.32267 0.64041 0.23469 0.0
C3093 C 0.36026 0.6183 0.20583 0.0
C3094 C 0.36119 0.34356 0.21338 0.0
C3095 C 0.37665 0.34554 0.19854 0.0
H3096 H 0.33276 0.3556 0.22436 0.0
C3097 C 0.37971 0.36464 0.189 0.0
H3098 H 0.35869 0.32897 0.22102 0.0
C3099 C 0.36474 0.37996 0.19089 0.0
C3100 C 0.34677 0.3759 0.2021 0.0
H3101 H 0.39163 0.36648 0.17753 0.0
H3102 H 0.36545 0.39306 0.18062 0.0
C3103 C 0.3464 0.35891 0.2154 0.0
C3104 C 0.7966 0.6293 0.61555 0.0
C3105 C 0.78608 0.64724 0.62131 0.0
H3106 H 0.80983 0.60123 0.62653 0.0
C3107 C 0.77375 0.64685 0.63901 0.0
H3108 H 0.80612 0.62919 0.60189 0.0
C3109 C 0.77605 0.63096 0.6532 0.0
C3110 C 0.79031 0.61527 0.64947 0.0
H3111 H 0.76531 0.66044 0.64362 0.0
H3112 H 0.76924 0.63269 0.6683 0.0
C3113 C 0.7988 0.61327 0.62974 0.0
C3114 C 0.35399 0.79452 0.6196 0.0
C3115 C 0.3347 0.7865 0.62493 0.0
H3116 H 0.38335 0.80384 0.63112 0.0
C3117 C 0.33284 0.77475 0.64292 0.0
H3118 H 0.3558 0.80359 0.60575 0.0
C3119 C 0.34858 0.7749 0.65742 0.0
C3120 C 0.36621 0.78677 0.65394 0.0
H3121 H 0.31814 0.76823 0.64721 0.0
H3122 H 0.34557 0.76854 0.67252 0.0
C3123 C 0.36982 0.79464 0.63417 0.0
C3124 C 0.21948 0.33924 0.6369 0.0
C3125 C 0.20615 0.34158 0.62015 0.0
H3126 H 0.228 0.3509 0.66635 0.0
C3127 C 0.19739 0.36093 0.61634 0.0
H3128 H 0.22653 0.32448 0.64001 0.0
C3129 C 0.19812 0.37611 0.63158 0.0
C3130 C 0.20758 0.37175 0.65047 0.0
H3131 H 0.1871 0.36308 0.60343 0.0
H3132 H 0.18829 0.38945 0.62999 0.0
C3133 C 0.22035 0.35443 0.65198 0.0
C3134 C 0.62646 0.20017 0.61202 0.0
C3135 C 0.64563 0.20962 0.61484 0.0
H3136 H 0.59867 0.19098 0.62698 0.0
C3137 C 0.6478 0.22424 0.63055 0.0
H3138 H 0.62437 0.18894 0.59991 0.0
C3139 C 0.63307 0.22542 0.64607 0.0
C3140 C 0.61626 0.21193 0.64586 0.0
H3141 H 0.66239 0.2319 0.63286 0.0
H3142 H 0.63677 0.23395 0.65989 0.0
C3143 C 0.61167 0.20136 0.62761 0.0
C3144 C 0.80924 0.36221 0.37724 0.0
C3145 C 0.79882 0.34374 0.3733 0.0
H3146 H 0.82049 0.39016 0.36395 0.0
C3147 C 0.78559 0.34257 0.35633 0.0
H3148 H 0.81958 0.36339 0.39023 0.0
C3149 C 0.78611 0.35785 0.34134 0.0
C3150 C 0.79984 0.37433 0.34329 0.0
H3151 H 0.77738 0.32845 0.35306 0.0
H3152 H 0.77828 0.35511 0.32689 0.0
C3153 C 0.80976 0.37757 0.36217 0.0
C3154 C 0.65362 0.76236 0.36038 0.0
C3155 C 0.65131 0.7767 0.37632 0.0
H3156 H 0.64277 0.75314 0.33081 0.0
C3157 C 0.63207 0.78596 0.37927 0.0
H3158 H 0.66825 0.75481 0.35798 0.0
C3159 C 0.61737 0.78503 0.36359 0.0
C3160 C 0.62211 0.77484 0.34516 0.0
H3161 H 0.62985 0.79694 0.39159 0.0
H3162 H 0.6043 0.7953 0.36437 0.0
C3163 C 0.63898 0.76142 0.34476 0.0
C3164 C 0.22144 0.64423 0.35771 0.0
C3165 C 0.20772 0.64522 0.37432 0.0
H3166 H 0.22765 0.62986 0.32885 0.0
C3167 C 0.19605 0.62774 0.37922 0.0
H3168 H 0.2308 0.65744 0.3538 0.0
C3169 C 0.19426 0.61183 0.36484 0.0
C3170 C 0.20426 0.61351 0.34581 0.0
H3171 H 0.18546 0.62807 0.39206 0.0
H3172 H 0.18238 0.60038 0.36708 0.0
C3173 C 0.21963 0.6284 0.34338 0.0
C3174 C 0.33539 0.22527 0.3582 0.0
C3175 C 0.33896 0.21195 0.37476 0.0
H3176 H 0.34591 0.23496 0.3287 0.0
C3177 C 0.35895 0.20467 0.37822 0.0
H3178 H 0.32011 0.23124 0.35539 0.0
C3179 C 0.37379 0.20671 0.36278 0.0
C3180 C 0.3684 0.21589 0.344 0.0
H3181 H 0.36207 0.19445 0.391 0.0
H3182 H 0.38782 0.19787 0.36408 0.0
C3183 C 0.35024 0.22747 0.34293 0.0
C3184 C 0.63258 0.80856 0.61629 0.0
C3185 C 0.65106 0.7989 0.62173 0.0
H3186 H 0.60379 0.81987 0.62753 0.0
C3187 C 0.65174 0.78677 0.63955 0.0
H3188 H 0.63175 0.81803 0.60261 0.0
C3189 C 0.63579 0.78783 0.65377 0.0
C3190 C 0.6191 0.80096 0.65017 0.0
H3191 H 0.66583 0.7791 0.64396 0.0
H3192 H 0.638 0.78097 0.66879 0.0
C3193 C 0.61654 0.80961 0.63058 0.0
C3194 C 0.6311 0.22044 0.33949 0.0
C3195 C 0.61538 0.20621 0.34325 0.0
H3196 H 0.66036 0.23141 0.34934 0.0
C3197 C 0.61302 0.19817 0.36312 0.0
H3198 H 0.63308 0.22694 0.32428 0.0
C3199 C 0.62878 0.20069 0.37754 0.0
C3200 C 0.64683 0.21103 0.37183 0.0
H3201 H 0.60092 0.1872 0.36635 0.0
H3202 H 0.62841 0.19143 0.39138 0.0
C3203 C 0.6467 0.22307 0.35392 0.0
C3204 C 0.79749 0.61786 0.36117 0.0
C3205 C 0.7871 0.62334 0.34306 0.0
H3206 H 0.81068 0.6292 0.38914 0.0
C3207 C 0.77541 0.64146 0.3428 0.0
H3208 H 0.8066 0.60394 0.36173 0.0
C3209 C 0.7778 0.65591 0.35842 0.0
C3210 C 0.79172 0.65219 0.37444 0.0
H3211 H 0.76716 0.64591 0.32904 0.0
H3212 H 0.77128 0.67109 0.35632 0.0
C3213 C 0.79986 0.63237 0.37689 0.0
C3214 C 0.36286 0.78434 0.34552 0.0
C3215 C 0.37834 0.7992 0.34734 0.0
H3216 H 0.33406 0.77385 0.35716 0.0
C3217 C 0.38067 0.80972 0.36603 0.0
H3218 H 0.36082 0.77607 0.33121 0.0
C3219 C 0.36522 0.80849 0.38096 0.0
C3220 C 0.34753 0.79682 0.37703 0.0
H3221 H 0.39248 0.82133 0.36769 0.0
H3222 H 0.36552 0.81927 0.39365 0.0
C3223 C 0.34755 0.78305 0.36043 0.0
C3224 C 0.19505 0.37141 0.35814 0.0
C3225 C 0.2031 0.36616 0.33882 0.0
H3226 H 0.18539 0.35973 0.38737 0.0
C3227 C 0.21453 0.34799 0.33682 0.0
H3228 H 0.18621 0.38539 0.36004 0.0
C3229 C 0.21403 0.33332 0.35241 0.0
C3230 C 0.20217 0.33684 0.37005 0.0
H3231 H 0.22106 0.34375 0.32209 0.0
H3232 H 0.22015 0.31815 0.34929 0.0
C3233 C 0.19459 0.35669 0.37382 0.0
C3234 C 0.37357 0.19538 0.63541 0.0
C3235 C 0.36918 0.20345 0.65493 0.0
H3236 H 0.36073 0.18621 0.60652 0.0
C3237 C 0.35136 0.21527 0.65761 0.0
H3238 H 0.38725 0.18621 0.633 0.0
C3239 C 0.33618 0.21522 0.64253 0.0
C3240 C 0.33884 0.20342 0.62469 0.0
H3241 H 0.34776 0.22178 0.67252 0.0
H3242 H 0.32129 0.22167 0.64619 0.0
C3243 C 0.35835 0.19538 0.62022 0.0
C3244 C 0.79175 0.37006 0.63604 0.0
C3245 C 0.78434 0.36481 0.65562 0.0
H3246 H 0.80114 0.35831 0.60675 0.0
C3247 C 0.77346 0.34637 0.65809 0.0
H3248 H 0.80013 0.38427 0.63376 0.0
C3249 C 0.77398 0.33156 0.64263 0.0
C3250 C 0.78542 0.33516 0.62471 0.0
H3251 H 0.76742 0.34211 0.67302 0.0
H3252 H 0.76831 0.31628 0.64606 0.0
C3253 C 0.79232 0.35516 0.62052 0.0
C3254 C 0.18275 0.61397 0.62691 0.0
C3255 C 0.19385 0.61714 0.64512 0.0
H3256 H 0.17165 0.62817 0.59939 0.0
C3257 C 0.20847 0.63295 0.64585 0.0
H3258 H 0.17138 0.60184 0.62605 0.0
C3259 C 0.20874 0.64791 0.63052 0.0
C3260 C 0.19419 0.64722 0.61464 0.0
H3261 H 0.21727 0.63558 0.65974 0.0
H3262 H 0.21765 0.66175 0.6331 0.0
C3263 C 0.18296 0.62906 0.61157 0.0
loop_
_geom_bond_atom_site_label_1
_geom_bond_atom_site_label_2
_geom_bond_distance
_geom_bond_site_symmetry_2
_ccdc_geom_bond_type
Mg0 O1 2.028 . S
Mg0 O7 1.986 . S
Mg0 O9 2.114 . S
Mg0 O10 2.251 . S
Mg0 O13 2.010 . S
O1 Mg0 2.028 . S
O1 C4 1.250 . S
O2 Mg3 2.028 . S
O2 C4 1.248 . S
Mg3 O2 2.028 . S
Mg3 O8 2.032 . S
Mg3 O10 2.079 . S
C4 O1 1.250 . S
C4 O2 1.248 . S
C5 O6 1.264 . S
C5 O13 1.249 . S
O6 C5 1.264 . S
O7 Mg0 1.986 . S
O7 C11 1.246 . S
O8 Mg3 2.032 . S
O8 C11 1.259 . S
O9 Mg0 2.114 . S
O9 C12 1.252 . S
O10 Mg0 2.251 . S
O10 Mg3 2.079 . S
O10 C12 1.273 . S
C11 O7 1.246 . S
C11 O8 1.259 . S
C12 O9 1.252 . S
C12 O10 1.273 . S
O13 Mg0 2.010 . S
O13 C5 1.249 . S
Mg14 O15 2.028 . S
Mg14 O21 1.986 . S
Mg14 O23 2.114 . S
Mg14 O24 2.251 . S
Mg14 O27 2.010 . S
O15 Mg14 2.028 . S
O15 C18 1.250 . S
O16 Mg17 2.028 . S
O16 C18 1.248 . S
Mg17 O16 2.028 . S
Mg17 O22 2.032 . S
Mg17 O24 2.079 . S
C18 O15 1.250 . S
C18 O16 1.248 . S
C19 O20 1.264 . S
C19 O27 1.249 . S
O20 C19 1.264 . S
O21 Mg14 1.986 . S
O21 C25 1.246 . S
O22 Mg17 2.032 . S
O22 C25 1.259 . S
O23 Mg14 2.114 . S
O23 C26 1.252 . S
O24 Mg14 2.251 . S
O24 Mg17 2.079 . S
O24 C26 1.273 . S
C25 O21 1.246 . S
C25 O22 1.259 . S
C26 O23 1.252 . S
C26 O24 1.273 . S
O27 Mg14 2.010 . S
O27 C19 1.249 . S
Mg28 O29 2.028 . S
Mg28 O35 1.986 . S
Mg28 O37 2.114 . S
Mg28 O38 2.251 . S
Mg28 O41 2.010 . S
O29 Mg28 2.028 . S
O29 C32 1.250 . S
O30 Mg31 2.028 . S
O30 C32 1.248 . S
Mg31 O30 2.028 . S
Mg31 O36 2.032 . S
Mg31 O38 2.079 . S
C32 O29 1.250 . S
C32 O30 1.248 . S
C33 O34 1.264 . S
C33 O41 1.249 . S
O34 C33 1.264 . S
O35 Mg28 1.986 . S
O35 C39 1.246 . S
O36 Mg31 2.032 . S
O36 C39 1.259 . S
O37 Mg28 2.114 . S
O37 C40 1.252 . S
O38 Mg28 2.251 . S
O38 Mg31 2.079 . S
O38 C40 1.273 . S
C39 O35 1.246 . S
C39 O36 1.259 . S
C40 O37 1.252 . S
C40 O38 1.273 . S
O41 Mg28 2.010 . S
O41 C33 1.249 . S
Mg42 O43 2.028 . S
Mg42 O49 1.986 . S
Mg42 O51 2.114 . S
Mg42 O52 2.251 . S
Mg42 O55 2.010 . S
O43 Mg42 2.028 . S
O43 C46 1.250 . S
O44 Mg45 2.028 . S
O44 C46 1.248 . S
Mg45 O44 2.028 . S
Mg45 O50 2.032 . S
Mg45 O52 2.079 . S
C46 O43 1.250 . S
C46 O44 1.248 . S
C47 O48 1.264 . S
C47 O55 1.249 . S
O48 C47 1.264 . S
O49 Mg42 1.986 . S
O49 C53 1.246 . S
O50 Mg45 2.032 . S
O50 C53 1.259 . S
O51 Mg42 2.114 . S
O51 C54 1.252 . S
O52 Mg42 2.251 . S
O52 Mg45 2.079 . S
O52 C54 1.273 . S
C53 O49 1.246 . S
C53 O50 1.259 . S
C54 O51 1.252 . S
C54 O52 1.273 . S
O55 Mg42 2.010 . S
O55 C47 1.249 . S
Mg56 O57 2.028 . S
Mg56 O63 1.986 . S
Mg56 O65 2.114 . S
Mg56 O66 2.251 . S
Mg56 O69 2.010 . S
O57 Mg56 2.028 . S
O57 C60 1.250 . S
O58 Mg59 2.028 . S
O58 C60 1.248 . S
Mg59 O58 2.028 . S
Mg59 O64 2.032 . S
Mg59 O66 2.079 . S
C60 O57 1.250 . S
C60 O58 1.248 . S
C61 O62 1.264 . S
C61 O69 1.249 . S
O62 C61 1.264 . S
O63 Mg56 1.986 . S
O63 C67 1.246 . S
O64 Mg59 2.032 . S
O64 C67 1.259 . S
O65 Mg56 2.114 . S
O65 C68 1.252 . S
O66 Mg56 2.251 . S
O66 Mg59 2.079 . S
O66 C68 1.273 . S
C67 O63 1.246 . S
C67 O64 1.259 . S
C68 O65 1.252 . S
C68 O66 1.273 . S
O69 Mg56 2.010 . S
O69 C61 1.249 . S
Mg70 O71 2.028 . S
Mg70 O77 1.986 . S
Mg70 O79 2.114 . S
Mg70 O80 2.251 . S
Mg70 O83 2.010 . S
O71 Mg70 2.028 . S
O71 C74 1.250 . S
O72 Mg73 2.028 . S
O72 C74 1.248 . S
Mg73 O72 2.028 . S
Mg73 O78 2.032 . S
Mg73 O80 2.079 . S
C74 O71 1.250 . S
C74 O72 1.248 . S
C75 O76 1.264 . S
C75 O83 1.249 . S
O76 C75 1.264 . S
O77 Mg70 1.986 . S
O77 C81 1.246 . S
O78 Mg73 2.032 . S
O78 C81 1.259 . S
O79 Mg70 2.114 . S
O79 C82 1.252 . S
O80 Mg70 2.251 . S
O80 Mg73 2.079 . S
O80 C82 1.273 . S
C81 O77 1.246 . S
C81 O78 1.259 . S
C82 O79 1.252 . S
C82 O80 1.273 . S
O83 Mg70 2.010 . S
O83 C75 1.249 . S
Mg84 O85 2.028 . S
Mg84 O91 1.986 . S
Mg84 O93 2.114 . S
Mg84 O94 2.251 . S
Mg84 O97 2.010 . S
O85 Mg84 2.028 . S
O85 C88 1.250 . S
O86 Mg87 2.028 . S
O86 C88 1.248 . S
Mg87 O86 2.028 . S
Mg87 O92 2.032 . S
Mg87 O94 2.079 . S
C88 O85 1.250 . S
C88 O86 1.248 . S
C89 O90 1.264 . S
C89 O97 1.249 . S
O90 C89 1.264 . S
O91 Mg84 1.986 . S
O91 C95 1.246 . S
O92 Mg87 2.032 . S
O92 C95 1.259 . S
O93 Mg84 2.114 . S
O93 C96 1.252 . S
O94 Mg84 2.251 . S
O94 Mg87 2.079 . S
O94 C96 1.273 . S
C95 O91 1.246 . S
C95 O92 1.259 . S
C96 O93 1.252 . S
C96 O94 1.273 . S
O97 Mg84 2.010 . S
O97 C89 1.249 . S
Mg98 O99 2.028 . S
Mg98 O105 1.986 . S
Mg98 O107 2.114 . S
Mg98 O108 2.251 . S
Mg98 O111 2.010 . S
O99 Mg98 2.028 . S
O99 C102 1.250 . S
O100 Mg101 2.028 . S
O100 C102 1.248 . S
Mg101 O100 2.028 . S
Mg101 O106 2.032 . S
Mg101 O108 2.079 . S
C102 O99 1.250 . S
C102 O100 1.248 . S
C103 O104 1.264 . S
C103 O111 1.249 . S
O104 C103 1.264 . S
O105 Mg98 1.986 . S
O105 C109 1.246 . S
O106 Mg101 2.032 . S
O106 C109 1.259 . S
O107 Mg98 2.114 . S
O107 C110 1.252 . S
O108 Mg98 2.251 . S
O108 Mg101 2.079 . S
O108 C110 1.273 . S
C109 O105 1.246 . S
C109 O106 1.259 . S
C110 O107 1.252 . S
C110 O108 1.273 . S
O111 Mg98 2.010 . S
O111 C103 1.249 . S
Mg112 O113 2.028 . S
Mg112 O119 1.986 . S
Mg112 O121 2.114 . S
Mg112 O122 2.251 . S
Mg112 O125 2.010 . S
O113 Mg112 2.028 . S
O113 C116 1.250 . S
O114 Mg115 2.028 . S
O114 C116 1.248 . S
Mg115 O114 2.028 . S
Mg115 O120 2.032 . S
Mg115 O122 2.079 . S
C116 O113 1.250 . S
C116 O114 1.248 . S
C117 O118 1.264 . S
C117 O125 1.249 . S
O118 C117 1.264 . S
O119 Mg112 1.986 . S
O119 C123 1.246 . S
O120 Mg115 2.032 . S
O120 C123 1.259 . S
O121 Mg112 2.114 . S
O121 C124 1.252 . S
O122 Mg112 2.251 . S
O122 Mg115 2.079 . S
O122 C124 1.273 . S
C123 O119 1.246 . S
C123 O120 1.259 . S
C124 O121 1.252 . S
C124 O122 1.273 . S
O125 Mg112 2.010 . S
O125 C117 1.249 . S
Mg126 O127 2.028 . S
Mg126 O133 1.986 . S
Mg126 O135 2.114 . S
Mg126 O136 2.251 . S
Mg126 O139 2.010 . S
O127 Mg126 2.028 . S
O127 C130 1.250 . S
O128 Mg129 2.028 . S
O128 C130 1.248 . S
Mg129 O128 2.028 . S
Mg129 O134 2.032 . S
Mg129 O136 2.079 . S
C130 O127 1.250 . S
C130 O128 1.248 . S
C131 O132 1.264 . S
C131 O139 1.249 . S
O132 C131 1.264 . S
O133 Mg126 1.986 . S
O133 C137 1.246 . S
O134 Mg129 2.032 . S
O134 C137 1.259 . S
O135 Mg126 2.114 . S
O135 C138 1.252 . S
O136 Mg126 2.251 . S
O136 Mg129 2.079 . S
O136 C138 1.273 . S
C137 O133 1.246 . S
C137 O134 1.259 . S
C138 O135 1.252 . S
C138 O136 1.273 . S
O139 Mg126 2.010 . S
O139 C131 1.249 . S
Mg140 O141 2.028 . S
Mg140 O147 1.986 . S
Mg140 O149 2.114 . S
Mg140 O150 2.251 . S
Mg140 O153 2.010 . S
O141 Mg140 2.028 . S
O141 C144 1.250 . S
O142 Mg143 2.028 . S
O142 C144 1.248 . S
Mg143 O142 2.028 . S
Mg143 O148 2.032 . S
Mg143 O150 2.079 . S
C144 O141 1.250 . S
C144 O142 1.248 . S
C145 O146 1.264 . S
C145 O153 1.249 . S
O146 C145 1.264 . S
O147 Mg140 1.986 . S
O147 C151 1.246 . S
O148 Mg143 2.032 . S
O148 C151 1.259 . S
O149 Mg140 2.114 . S
O149 C152 1.252 . S
O150 Mg140 2.251 . S
O150 Mg143 2.079 . S
O150 C152 1.273 . S
C151 O147 1.246 . S
C151 O148 1.259 . S
C152 O149 1.252 . S
C152 O150 1.273 . S
O153 Mg140 2.010 . S
O153 C145 1.249 . S
Mg154 O155 2.028 . S
Mg154 O161 1.986 . S
Mg154 O163 2.114 . S
Mg154 O164 2.251 . S
Mg154 O167 2.010 . S
O155 Mg154 2.028 . S
O155 C158 1.250 . S
O156 Mg157 2.028 . S
O156 C158 1.248 . S
Mg157 O156 2.028 . S
Mg157 O162 2.032 . S
Mg157 O164 2.079 . S
C158 O155 1.250 . S
C158 O156 1.248 . S
C159 O160 1.264 . S
C159 O167 1.249 . S
O160 C159 1.264 . S
O161 Mg154 1.986 . S
O161 C165 1.246 . S
O162 Mg157 2.032 . S
O162 C165 1.259 . S
O163 Mg154 2.114 . S
O163 C166 1.252 . S
O164 Mg154 2.251 . S
O164 Mg157 2.079 . S
O164 C166 1.273 . S
C165 O161 1.246 . S
C165 O162 1.259 . S
C166 O163 1.252 . S
C166 O164 1.273 . S
O167 Mg154 2.010 . S
O167 C159 1.249 . S
Mg168 O169 2.028 . S
Mg168 O175 1.986 . S
Mg168 O177 2.114 . S
Mg168 O178 2.251 . S
Mg168 O181 2.010 . S
O169 Mg168 2.028 . S
O169 C172 1.250 . S
O170 Mg171 2.028 . S
O170 C172 1.248 . S
Mg171 O170 2.028 . S
Mg171 O176 2.032 . S
Mg171 O178 2.079 . S
C172 O169 1.250 . S
C172 O170 1.248 . S
C173 O174 1.264 . S
C173 O181 1.249 . S
O174 C173 1.264 . S
O175 Mg168 1.986 . S
O175 C179 1.246 . S
O176 Mg171 2.032 . S
O176 C179 1.259 . S
O177 Mg168 2.114 . S
O177 C180 1.252 . S
O178 Mg168 2.251 . S
O178 Mg171 2.079 . S
O178 C180 1.273 . S
C179 O175 1.246 . S
C179 O176 1.259 . S
C180 O177 1.252 . S
C180 O178 1.273 . S
O181 Mg168 2.010 . S
O181 C173 1.249 . S
Mg182 O183 2.028 . S
Mg182 O189 1.986 . S
Mg182 O191 2.114 . S
Mg182 O192 2.251 . S
Mg182 O195 2.010 . S
O183 Mg182 2.028 . S
O183 C186 1.250 . S
O184 Mg185 2.028 . S
O184 C186 1.248 . S
Mg185 O184 2.028 . S
Mg185 O190 2.032 . S
Mg185 O192 2.079 . S
C186 O183 1.250 . S
C186 O184 1.248 . S
C187 O188 1.264 . S
C187 O195 1.249 . S
O188 C187 1.264 . S
O189 Mg182 1.986 . S
O189 C193 1.246 . S
O190 Mg185 2.032 . S
O190 C193 1.259 . S
O191 Mg182 2.114 . S
O191 C194 1.252 . S
O192 Mg182 2.251 . S
O192 Mg185 2.079 . S
O192 C194 1.273 . S
C193 O189 1.246 . S
C193 O190 1.259 . S
C194 O191 1.252 . S
C194 O192 1.273 . S
O195 Mg182 2.010 . S
O195 C187 1.249 . S
Mg196 O197 2.028 . S
Mg196 O203 1.986 . S
Mg196 O205 2.114 . S
Mg196 O206 2.251 . S
Mg196 O209 2.010 . S
O197 Mg196 2.028 . S
O197 C200 1.250 . S
O198 Mg199 2.028 . S
O198 C200 1.248 . S
Mg199 O198 2.028 . S
Mg199 O204 2.032 . S
Mg199 O206 2.079 . S
C200 O197 1.250 . S
C200 O198 1.248 . S
C201 O202 1.264 . S
C201 O209 1.249 . S
O202 C201 1.264 . S
O203 Mg196 1.986 . S
O203 C207 1.246 . S
O204 Mg199 2.032 . S
O204 C207 1.259 . S
O205 Mg196 2.114 . S
O205 C208 1.252 . S
O206 Mg196 2.251 . S
O206 Mg199 2.079 . S
O206 C208 1.273 . S
C207 O203 1.246 . S
C207 O204 1.259 . S
C208 O205 1.252 . S
C208 O206 1.273 . S
O209 Mg196 2.010 . S
O209 C201 1.249 . S
Mg210 O211 2.028 . S
Mg210 O217 1.986 . S
Mg210 O219 2.114 . S
Mg210 O220 2.251 . S
Mg210 O223 2.010 . S
O211 Mg210 2.028 . S
O211 C214 1.250 . S
O212 Mg213 2.028 . S
O212 C214 1.248 . S
Mg213 O212 2.028 . S
Mg213 O218 2.032 . S
Mg213 O220 2.079 . S
C214 O211 1.250 . S
C214 O212 1.248 . S
C215 O216 1.264 . S
C215 O223 1.249 . S
O216 C215 1.264 . S
O217 Mg210 1.986 . S
O217 C221 1.246 . S
O218 Mg213 2.032 . S
O218 C221 1.259 . S
O219 Mg210 2.114 . S
O219 C222 1.252 . S
O220 Mg210 2.251 . S
O220 Mg213 2.079 . S
O220 C222 1.273 . S
C221 O217 1.246 . S
C221 O218 1.259 . S
C222 O219 1.252 . S
C222 O220 1.273 . S
O223 Mg210 2.010 . S
O223 C215 1.249 . S
Mg224 O225 2.028 . S
Mg224 O231 1.986 . S
Mg224 O233 2.114 . S
Mg224 O234 2.251 . S
Mg224 O237 2.010 . S
O225 Mg224 2.028 . S
O225 C228 1.250 . S
O226 Mg227 2.028 . S
O226 C228 1.248 . S
Mg227 O226 2.028 . S
Mg227 O232 2.032 . S
Mg227 O234 2.079 . S
C228 O225 1.250 . S
C228 O226 1.248 . S
C229 O230 1.264 . S
C229 O237 1.249 . S
O230 C229 1.264 . S
O231 Mg224 1.986 . S
O231 C235 1.246 . S
O232 Mg227 2.032 . S
O232 C235 1.259 . S
O233 Mg224 2.114 . S
O233 C236 1.252 . S
O234 Mg224 2.251 . S
O234 Mg227 2.079 . S
O234 C236 1.273 . S
C235 O231 1.246 . S
C235 O232 1.259 . S
C236 O233 1.252 . S
C236 O234 1.273 . S
O237 Mg224 2.010 . S
O237 C229 1.249 . S
Mg238 O239 2.028 . S
Mg238 O245 1.986 . S
Mg238 O247 2.114 . S
Mg238 O248 2.251 . S
Mg238 O251 2.010 . S
O239 Mg238 2.028 . S
O239 C242 1.250 . S
O240 Mg241 2.028 . S
O240 C242 1.248 . S
Mg241 O240 2.028 . S
Mg241 O246 2.032 . S
Mg241 O248 2.079 . S
C242 O239 1.250 . S
C242 O240 1.248 . S
C243 O244 1.264 . S
C243 O251 1.249 . S
O244 C243 1.264 . S
O245 Mg238 1.986 . S
O245 C249 1.246 . S
O246 Mg241 2.032 . S
O246 C249 1.259 . S
O247 Mg238 2.114 . S
O247 C250 1.252 . S
O248 Mg238 2.251 . S
O248 Mg241 2.079 . S
O248 C250 1.273 . S
C249 O245 1.246 . S
C249 O246 1.259 . S
C250 O247 1.252 . S
C250 O248 1.273 . S
O251 Mg238 2.010 . S
O251 C243 1.249 . S
Mg252 O253 2.028 . S
Mg252 O259 1.986 . S
Mg252 O261 2.114 . S
Mg252 O262 2.251 . S
Mg252 O265 2.010 . S
O253 Mg252 2.028 . S
O253 C256 1.250 . S
O254 Mg255 2.028 . S
O254 C256 1.248 . S
Mg255 O254 2.028 . S
Mg255 O260 2.032 . S
Mg255 O262 2.079 . S
C256 O253 1.250 . S
C256 O254 1.248 . S
C257 O258 1.264 . S
C257 O265 1.249 . S
O258 C257 1.264 . S
O259 Mg252 1.986 . S
O259 C263 1.246 . S
O260 Mg255 2.032 . S
O260 C263 1.259 . S
O261 Mg252 2.114 . S
O261 C264 1.252 . S
O262 Mg252 2.251 . S
O262 Mg255 2.079 . S
O262 C264 1.273 . S
C263 O259 1.246 . S
C263 O260 1.259 . S
C264 O261 1.252 . S
C264 O262 1.273 . S
O265 Mg252 2.010 . S
O265 C257 1.249 . S
Mg266 O267 2.028 . S
Mg266 O273 1.986 . S
Mg266 O275 2.114 . S
Mg266 O276 2.251 . S
Mg266 O279 2.010 . S
O267 Mg266 2.028 . S
O267 C270 1.250 . S
O268 Mg269 2.028 . S
O268 C270 1.248 . S
Mg269 O268 2.028 . S
Mg269 O274 2.032 . S
Mg269 O276 2.079 . S
C270 O267 1.250 . S
C270 O268 1.248 . S
C271 O272 1.264 . S
C271 O279 1.249 . S
O272 C271 1.264 . S
O273 Mg266 1.986 . S
O273 C277 1.246 . S
O274 Mg269 2.032 . S
O274 C277 1.259 . S
O275 Mg266 2.114 . S
O275 C278 1.252 . S
O276 Mg266 2.251 . S
O276 Mg269 2.079 . S
O276 C278 1.273 . S
C277 O273 1.246 . S
C277 O274 1.259 . S
C278 O275 1.252 . S
C278 O276 1.273 . S
O279 Mg266 2.010 . S
O279 C271 1.249 . S
Mg280 O281 2.028 . S
Mg280 O287 1.986 . S
Mg280 O289 2.114 . S
Mg280 O290 2.251 . S
Mg280 O293 2.010 . S
O281 Mg280 2.028 . S
O281 C284 1.250 . S
O282 Mg283 2.028 . S
O282 C284 1.248 . S
Mg283 O282 2.028 . S
Mg283 O288 2.032 . S
Mg283 O290 2.079 . S
C284 O281 1.250 . S
C284 O282 1.248 . S
C285 O286 1.264 . S
C285 O293 1.249 . S
O286 C285 1.264 . S
O287 Mg280 1.986 . S
O287 C291 1.246 . S
O288 Mg283 2.032 . S
O288 C291 1.259 . S
O289 Mg280 2.114 . S
O289 C292 1.252 . S
O290 Mg280 2.251 . S
O290 Mg283 2.079 . S
O290 C292 1.273 . S
C291 O287 1.246 . S
C291 O288 1.259 . S
C292 O289 1.252 . S
C292 O290 1.273 . S
O293 Mg280 2.010 . S
O293 C285 1.249 . S
Mg294 O295 2.028 . S
Mg294 O301 1.986 . S
Mg294 O303 2.114 . S
Mg294 O304 2.251 . S
Mg294 O307 2.010 . S
O295 Mg294 2.028 . S
O295 C298 1.250 . S
O296 Mg297 2.028 . S
O296 C298 1.248 . S
Mg297 O296 2.028 . S
Mg297 O302 2.032 . S
Mg297 O304 2.079 . S
C298 O295 1.250 . S
C298 O296 1.248 . S
C299 O300 1.264 . S
C299 O307 1.249 . S
O300 C299 1.264 . S
O301 Mg294 1.986 . S
O301 C305 1.246 . S
O302 Mg297 2.032 . S
O302 C305 1.259 . S
O303 Mg294 2.114 . S
O303 C306 1.252 . S
O304 Mg294 2.251 . S
O304 Mg297 2.079 . S
O304 C306 1.273 . S
C305 O301 1.246 . S
C305 O302 1.259 . S
C306 O303 1.252 . S
C306 O304 1.273 . S
O307 Mg294 2.010 . S
O307 C299 1.249 . S
Mg308 O309 2.028 . S
Mg308 O315 1.986 . S
Mg308 O317 2.114 . S
Mg308 O318 2.251 . S
Mg308 O321 2.010 . S
O309 Mg308 2.028 . S
O309 C312 1.250 . S
O310 Mg311 2.028 . S
O310 C312 1.248 . S
Mg311 O310 2.028 . S
Mg311 O316 2.032 . S
Mg311 O318 2.079 . S
C312 O309 1.250 . S
C312 O310 1.248 . S
C313 O314 1.264 . S
C313 O321 1.249 . S
O314 C313 1.264 . S
O315 Mg308 1.986 . S
O315 C319 1.246 . S
O316 Mg311 2.032 . S
O316 C319 1.259 . S
O317 Mg308 2.114 . S
O317 C320 1.252 . S
O318 Mg308 2.251 . S
O318 Mg311 2.079 . S
O318 C320 1.273 . S
C319 O315 1.246 . S
C319 O316 1.259 . S
C320 O317 1.252 . S
C320 O318 1.273 . S
O321 Mg308 2.010 . S
O321 C313 1.249 . S
Mg322 O323 2.028 . S
Mg322 O329 1.986 . S
Mg322 O331 2.114 . S
Mg322 O332 2.251 . S
Mg322 O335 2.010 . S
O323 Mg322 2.028 . S
O323 C326 1.250 . S
O324 Mg325 2.028 . S
O324 C326 1.248 . S
Mg325 O324 2.028 . S
Mg325 O330 2.032 . S
Mg325 O332 2.079 . S
C326 O323 1.250 . S
C326 O324 1.248 . S
C327 O328 1.264 . S
C327 O335 1.249 . S
O328 C327 1.264 . S
O329 Mg322 1.986 . S
O329 C333 1.246 . S
O330 Mg325 2.032 . S
O330 C333 1.259 . S
O331 Mg322 2.114 . S
O331 C334 1.252 . S
O332 Mg322 2.251 . S
O332 Mg325 2.079 . S
O332 C334 1.273 . S
C333 O329 1.246 . S
C333 O330 1.259 . S
C334 O331 1.252 . S
C334 O332 1.273 . S
O335 Mg322 2.010 . S
O335 C327 1.249 . S
Mg336 O337 2.028 . S
Mg336 O343 1.986 . S
Mg336 O345 2.114 . S
Mg336 O346 2.251 . S
Mg336 O349 2.010 . S
O337 Mg336 2.028 . S
O337 C340 1.250 . S
O338 Mg339 2.028 . S
O338 C340 1.248 . S
Mg339 O338 2.028 . S
Mg339 O344 2.032 . S
Mg339 O346 2.079 . S
C340 O337 1.250 . S
C340 O338 1.248 . S
C341 O342 1.264 . S
C341 O349 1.249 . S
O342 C341 1.264 . S
O343 Mg336 1.986 . S
O343 C347 1.246 . S
O344 Mg339 2.032 . S
O344 C347 1.259 . S
O345 Mg336 2.114 . S
O345 C348 1.252 . S
O346 Mg336 2.251 . S
O346 Mg339 2.079 . S
O346 C348 1.273 . S
C347 O343 1.246 . S
C347 O344 1.259 . S
C348 O345 1.252 . S
C348 O346 1.273 . S
O349 Mg336 2.010 . S
O349 C341 1.249 . S
Mg350 O351 2.028 . S
Mg350 O357 1.986 . S
Mg350 O359 2.114 . S
Mg350 O360 2.251 . S
Mg350 O363 2.010 . S
O351 Mg350 2.028 . S
O351 C354 1.250 . S
O352 Mg353 2.028 . S
O352 C354 1.248 . S
Mg353 O352 2.028 . S
Mg353 O358 2.032 . S
Mg353 O360 2.079 . S
C354 O351 1.250 . S
C354 O352 1.248 . S
C355 O356 1.264 . S
C355 O363 1.249 . S
O356 C355 1.264 . S
O357 Mg350 1.986 . S
O357 C361 1.246 . S
O358 Mg353 2.032 . S
O358 C361 1.259 . S
O359 Mg350 2.114 . S
O359 C362 1.252 . S
O360 Mg350 2.251 . S
O360 Mg353 2.079 . S
O360 C362 1.273 . S
C361 O357 1.246 . S
C361 O358 1.259 . S
C362 O359 1.252 . S
C362 O360 1.273 . S
O363 Mg350 2.010 . S
O363 C355 1.249 . S
Mg364 O365 2.028 . S
Mg364 O371 1.986 . S
Mg364 O373 2.114 . S
Mg364 O374 2.251 . S
Mg364 O377 2.010 . S
O365 Mg364 2.028 . S
O365 C368 1.250 . S
O366 Mg367 2.028 . S
O366 C368 1.248 . S
Mg367 O366 2.028 . S
Mg367 O372 2.032 . S
Mg367 O374 2.079 . S
C368 O365 1.250 . S
C368 O366 1.248 . S
C369 O370 1.264 . S
C369 O377 1.249 . S
O370 C369 1.264 . S
O371 Mg364 1.986 . S
O371 C375 1.246 . S
O372 Mg367 2.032 . S
O372 C375 1.259 . S
O373 Mg364 2.114 . S
O373 C376 1.252 . S
O374 Mg364 2.251 . S
O374 Mg367 2.079 . S
O374 C376 1.273 . S
C375 O371 1.246 . S
C375 O372 1.259 . S
C376 O373 1.252 . S
C376 O374 1.273 . S
O377 Mg364 2.010 . S
O377 C369 1.249 . S
Mg378 O379 2.028 . S
Mg378 O385 1.986 . S
Mg378 O387 2.114 . S
Mg378 O388 2.251 . S
Mg378 O391 2.010 . S
O379 Mg378 2.028 . S
O379 C382 1.250 . S
O380 Mg381 2.028 . S
O380 C382 1.248 . S
Mg381 O380 2.028 . S
Mg381 O386 2.032 . S
Mg381 O388 2.079 . S
C382 O379 1.250 . S
C382 O380 1.248 . S
C383 O384 1.264 . S
C383 O391 1.249 . S
O384 C383 1.264 . S
O385 Mg378 1.986 . S
O385 C389 1.246 . S
O386 Mg381 2.032 . S
O386 C389 1.259 . S
O387 Mg378 2.114 . S
O387 C390 1.252 . S
O388 Mg378 2.251 . S
O388 Mg381 2.079 . S
O388 C390 1.273 . S
C389 O385 1.246 . S
C389 O386 1.259 . S
C390 O387 1.252 . S
C390 O388 1.273 . S
O391 Mg378 2.010 . S
O391 C383 1.249 . S
Mg392 O393 2.028 . S
Mg392 O399 1.986 . S
Mg392 O401 2.114 . S
Mg392 O402 2.251 . S
Mg392 O405 2.010 . S
O393 Mg392 2.028 . S
O393 C396 1.250 . S
O394 Mg395 2.028 . S
O394 C396 1.248 . S
Mg395 O394 2.028 . S
Mg395 O400 2.032 . S
Mg395 O402 2.079 . S
C396 O393 1.250 . S
C396 O394 1.248 . S
C397 O398 1.264 . S
C397 O405 1.249 . S
O398 C397 1.264 . S
O399 Mg392 1.986 . S
O399 C403 1.246 . S
O400 Mg395 2.032 . S
O400 C403 1.259 . S
O401 Mg392 2.114 . S
O401 C404 1.252 . S
O402 Mg392 2.251 . S
O402 Mg395 2.079 . S
O402 C404 1.273 . S
C403 O399 1.246 . S
C403 O400 1.259 . S
C404 O401 1.252 . S
C404 O402 1.273 . S
O405 Mg392 2.010 . S
O405 C397 1.249 . S
Mg406 O407 2.028 . S
Mg406 O413 1.986 . S
Mg406 O415 2.114 . S
Mg406 O416 2.251 . S
Mg406 O419 2.010 . S
O407 Mg406 2.028 . S
O407 C410 1.250 . S
O408 Mg409 2.028 . S
O408 C410 1.248 . S
Mg409 O408 2.028 . S
Mg409 O414 2.032 . S
Mg409 O416 2.079 . S
C410 O407 1.250 . S
C410 O408 1.248 . S
C411 O412 1.264 . S
C411 O419 1.249 . S
O412 C411 1.264 . S
O413 Mg406 1.986 . S
O413 C417 1.246 . S
O414 Mg409 2.032 . S
O414 C417 1.259 . S
O415 Mg406 2.114 . S
O415 C418 1.252 . S
O416 Mg406 2.251 . S
O416 Mg409 2.079 . S
O416 C418 1.273 . S
C417 O413 1.246 . S
C417 O414 1.259 . S
C418 O415 1.252 . S
C418 O416 1.273 . S
O419 Mg406 2.010 . S
O419 C411 1.249 . S
Mg420 O421 2.028 . S
Mg420 O427 1.986 . S
Mg420 O429 2.114 . S
Mg420 O430 2.251 . S
Mg420 O433 2.010 . S
O421 Mg420 2.028 . S
O421 C424 1.250 . S
O422 Mg423 2.028 . S
O422 C424 1.248 . S
Mg423 O422 2.028 . S
Mg423 O428 2.032 . S
Mg423 O430 2.079 . S
C424 O421 1.250 . S
C424 O422 1.248 . S
C425 O426 1.264 . S
C425 O433 1.249 . S
O426 C425 1.264 . S
O427 Mg420 1.986 . S
O427 C431 1.246 . S
O428 Mg423 2.032 . S
O428 C431 1.259 . S
O429 Mg420 2.114 . S
O429 C432 1.252 . S
O430 Mg420 2.251 . S
O430 Mg423 2.079 . S
O430 C432 1.273 . S
C431 O427 1.246 . S
C431 O428 1.259 . S
C432 O429 1.252 . S
C432 O430 1.273 . S
O433 Mg420 2.010 . S
O433 C425 1.249 . S
Mg434 O435 2.028 . S
Mg434 O441 1.986 . S
Mg434 O443 2.114 . S
Mg434 O444 2.251 . S
Mg434 O447 2.010 . S
O435 Mg434 2.028 . S
O435 C438 1.250 . S
O436 Mg437 2.028 . S
O436 C438 1.248 . S
Mg437 O436 2.028 . S
Mg437 O442 2.032 . S
Mg437 O444 2.079 . S
C438 O435 1.250 . S
C438 O436 1.248 . S
C439 O440 1.264 . S
C439 O447 1.249 . S
O440 C439 1.264 . S
O441 Mg434 1.986 . S
O441 C445 1.246 . S
O442 Mg437 2.032 . S
O442 C445 1.259 . S
O443 Mg434 2.114 . S
O443 C446 1.252 . S
O444 Mg434 2.251 . S
O444 Mg437 2.079 . S
O444 C446 1.273 . S
C445 O441 1.246 . S
C445 O442 1.259 . S
C446 O443 1.252 . S
C446 O444 1.273 . S
O447 Mg434 2.010 . S
O447 C439 1.249 . S
Mg448 O449 2.028 . S
Mg448 O455 1.986 . S
Mg448 O457 2.114 . S
Mg448 O458 2.251 . S
Mg448 O461 2.010 . S
O449 Mg448 2.028 . S
O449 C452 1.250 . S
O450 Mg451 2.028 . S
O450 C452 1.248 . S
Mg451 O450 2.028 . S
Mg451 O456 2.032 . S
Mg451 O458 2.079 . S
C452 O449 1.250 . S
C452 O450 1.248 . S
C453 O454 1.264 . S
C453 O461 1.249 . S
O454 C453 1.264 . S
O455 Mg448 1.986 . S
O455 C459 1.246 . S
O456 Mg451 2.032 . S
O456 C459 1.259 . S
O457 Mg448 2.114 . S
O457 C460 1.252 . S
O458 Mg448 2.251 . S
O458 Mg451 2.079 . S
O458 C460 1.273 . S
C459 O455 1.246 . S
C459 O456 1.259 . S
C460 O457 1.252 . S
C460 O458 1.273 . S
O461 Mg448 2.010 . S
O461 C453 1.249 . S
Mg462 O463 2.028 . S
Mg462 O469 1.986 . S
Mg462 O471 2.114 . S
Mg462 O472 2.251 . S
Mg462 O475 2.010 . S
O463 Mg462 2.028 . S
O463 C466 1.250 . S
O464 Mg465 2.028 . S
O464 C466 1.248 . S
Mg465 O464 2.028 . S
Mg465 O470 2.032 . S
Mg465 O472 2.079 . S
C466 O463 1.250 . S
C466 O464 1.248 . S
C467 O468 1.264 . S
C467 O475 1.249 . S
O468 C467 1.264 . S
O469 Mg462 1.986 . S
O469 C473 1.246 . S
O470 Mg465 2.032 . S
O470 C473 1.259 . S
O471 Mg462 2.114 . S
O471 C474 1.252 . S
O472 Mg462 2.251 . S
O472 Mg465 2.079 . S
O472 C474 1.273 . S
C473 O469 1.246 . S
C473 O470 1.259 . S
C474 O471 1.252 . S
C474 O472 1.273 . S
O475 Mg462 2.010 . S
O475 C467 1.249 . S
Mg476 O477 2.028 . S
Mg476 O483 1.986 . S
Mg476 O485 2.114 . S
Mg476 O486 2.251 . S
Mg476 O489 2.010 . S
O477 Mg476 2.028 . S
O477 C480 1.250 . S
O478 Mg479 2.028 . S
O478 C480 1.248 . S
Mg479 O478 2.028 . S
Mg479 O484 2.032 . S
Mg479 O486 2.079 . S
C480 O477 1.250 . S
C480 O478 1.248 . S
C481 O482 1.264 . S
C481 O489 1.249 . S
O482 C481 1.264 . S
O483 Mg476 1.986 . S
O483 C487 1.246 . S
O484 Mg479 2.032 . S
O484 C487 1.259 . S
O485 Mg476 2.114 . S
O485 C488 1.252 . S
O486 Mg476 2.251 . S
O486 Mg479 2.079 . S
O486 C488 1.273 . S
C487 O483 1.246 . S
C487 O484 1.259 . S
C488 O485 1.252 . S
C488 O486 1.273 . S
O489 Mg476 2.010 . S
O489 C481 1.249 . S
Mg490 O491 2.028 . S
Mg490 O497 1.986 . S
Mg490 O499 2.114 . S
Mg490 O500 2.251 . S
Mg490 O503 2.010 . S
O491 Mg490 2.028 . S
O491 C494 1.250 . S
O492 Mg493 2.028 . S
O492 C494 1.248 . S
Mg493 O492 2.028 . S
Mg493 O498 2.032 . S
Mg493 O500 2.079 . S
C494 O491 1.250 . S
C494 O492 1.248 . S
C495 O496 1.264 . S
C495 O503 1.249 . S
O496 C495 1.264 . S
O497 Mg490 1.986 . S
O497 C501 1.246 . S
O498 Mg493 2.032 . S
O498 C501 1.259 . S
O499 Mg490 2.114 . S
O499 C502 1.252 . S
O500 Mg490 2.251 . S
O500 Mg493 2.079 . S
O500 C502 1.273 . S
C501 O497 1.246 . S
C501 O498 1.259 . S
C502 O499 1.252 . S
C502 O500 1.273 . S
O503 Mg490 2.010 . S
O503 C495 1.249 . S
Mg504 O505 2.028 . S
Mg504 O511 1.986 . S
Mg504 O513 2.114 . S
Mg504 O514 2.251 . S
Mg504 O517 2.010 . S
O505 Mg504 2.028 . S
O505 C508 1.250 . S
O506 Mg507 2.028 . S
O506 C508 1.248 . S
Mg507 O506 2.028 . S
Mg507 O512 2.032 . S
Mg507 O514 2.079 . S
C508 O505 1.250 . S
C508 O506 1.248 . S
C509 O510 1.264 . S
C509 O517 1.249 . S
O510 C509 1.264 . S
O511 Mg504 1.986 . S
O511 C515 1.246 . S
O512 Mg507 2.032 . S
O512 C515 1.259 . S
O513 Mg504 2.114 . S
O513 C516 1.252 . S
O514 Mg504 2.251 . S
O514 Mg507 2.079 . S
O514 C516 1.273 . S
C515 O511 1.246 . S
C515 O512 1.259 . S
C516 O513 1.252 . S
C516 O514 1.273 . S
O517 Mg504 2.010 . S
O517 C509 1.249 . S
Mg518 O519 2.028 . S
Mg518 O525 1.986 . S
Mg518 O527 2.114 . S
Mg518 O528 2.251 . S
Mg518 O531 2.010 . S
O519 Mg518 2.028 . S
O519 C522 1.250 . S
O520 Mg521 2.028 . S
O520 C522 1.248 . S
Mg521 O520 2.028 . S
Mg521 O526 2.032 . S
Mg521 O528 2.079 . S
C522 O519 1.250 . S
C522 O520 1.248 . S
C523 O524 1.264 . S
C523 O531 1.249 . S
O524 C523 1.264 . S
O525 Mg518 1.986 . S
O525 C529 1.246 . S
O526 Mg521 2.032 . S
O526 C529 1.259 . S
O527 Mg518 2.114 . S
O527 C530 1.252 . S
O528 Mg518 2.251 . S
O528 Mg521 2.079 . S
O528 C530 1.273 . S
C529 O525 1.246 . S
C529 O526 1.259 . S
C530 O527 1.252 . S
C530 O528 1.273 . S
O531 Mg518 2.010 . S
O531 C523 1.249 . S
Mg532 O533 2.028 . S
Mg532 O539 1.986 . S
Mg532 O541 2.114 . S
Mg532 O542 2.251 . S
Mg532 O545 2.010 . S
O533 Mg532 2.028 . S
O533 C536 1.250 . S
O534 Mg535 2.028 . S
O534 C536 1.248 . S
Mg535 O534 2.028 . S
Mg535 O540 2.032 . S
Mg535 O542 2.079 . S
C536 O533 1.250 . S
C536 O534 1.248 . S
C537 O538 1.264 . S
C537 O545 1.249 . S
O538 C537 1.264 . S
O539 Mg532 1.986 . S
O539 C543 1.246 . S
O540 Mg535 2.032 . S
O540 C543 1.259 . S
O541 Mg532 2.114 . S
O541 C544 1.252 . S
O542 Mg532 2.251 . S
O542 Mg535 2.079 . S
O542 C544 1.273 . S
C543 O539 1.246 . S
C543 O540 1.259 . S
C544 O541 1.252 . S
C544 O542 1.273 . S
O545 Mg532 2.010 . S
O545 C537 1.249 . S
Mg546 O547 2.028 . S
Mg546 O553 1.986 . S
Mg546 O555 2.114 . S
Mg546 O556 2.251 . S
Mg546 O559 2.010 . S
O547 Mg546 2.028 . S
O547 C550 1.250 . S
O548 Mg549 2.028 . S
O548 C550 1.248 . S
Mg549 O548 2.028 . S
Mg549 O554 2.032 . S
Mg549 O556 2.079 . S
C550 O547 1.250 . S
C550 O548 1.248 . S
C551 O552 1.264 . S
C551 O559 1.249 . S
O552 C551 1.264 . S
O553 Mg546 1.986 . S
O553 C557 1.246 . S
O554 Mg549 2.032 . S
O554 C557 1.259 . S
O555 Mg546 2.114 . S
O555 C558 1.252 . S
O556 Mg546 2.251 . S
O556 Mg549 2.079 . S
O556 C558 1.273 . S
C557 O553 1.246 . S
C557 O554 1.259 . S
C558 O555 1.252 . S
C558 O556 1.273 . S
O559 Mg546 2.010 . S
O559 C551 1.249 . S
Mg560 O561 2.028 . S
Mg560 O567 1.986 . S
Mg560 O569 2.114 . S
Mg560 O570 2.251 . S
Mg560 O573 2.010 . S
O561 Mg560 2.028 . S
O561 C564 1.250 . S
O562 Mg563 2.028 . S
O562 C564 1.248 . S
Mg563 O562 2.028 . S
Mg563 O568 2.032 . S
Mg563 O570 2.079 . S
C564 O561 1.250 . S
C564 O562 1.248 . S
C565 O566 1.264 . S
C565 O573 1.249 . S
O566 C565 1.264 . S
O567 Mg560 1.986 . S
O567 C571 1.246 . S
O568 Mg563 2.032 . S
O568 C571 1.259 . S
O569 Mg560 2.114 . S
O569 C572 1.252 . S
O570 Mg560 2.251 . S
O570 Mg563 2.079 . S
O570 C572 1.273 . S
C571 O567 1.246 . S
C571 O568 1.259 . S
C572 O569 1.252 . S
C572 O570 1.273 . S
O573 Mg560 2.010 . S
O573 C565 1.249 . S
Mg574 O575 2.028 . S
Mg574 O581 1.986 . S
Mg574 O583 2.114 . S
Mg574 O584 2.251 . S
Mg574 O587 2.010 . S
O575 Mg574 2.028 . S
O575 C578 1.250 . S
O576 Mg577 2.028 . S
O576 C578 1.248 . S
Mg577 O576 2.028 . S
Mg577 O582 2.032 . S
Mg577 O584 2.079 . S
C578 O575 1.250 . S
C578 O576 1.248 . S
C579 O580 1.264 . S
C579 O587 1.249 . S
O580 C579 1.264 . S
O581 Mg574 1.986 . S
O581 C585 1.246 . S
O582 Mg577 2.032 . S
O582 C585 1.259 . S
O583 Mg574 2.114 . S
O583 C586 1.252 . S
O584 Mg574 2.251 . S
O584 Mg577 2.079 . S
O584 C586 1.273 . S
C585 O581 1.246 . S
C585 O582 1.259 . S
C586 O583 1.252 . S
C586 O584 1.273 . S
O587 Mg574 2.010 . S
O587 C579 1.249 . S
Mg588 O589 2.028 . S
Mg588 O595 1.986 . S
Mg588 O597 2.114 . S
Mg588 O598 2.251 . S
Mg588 O601 2.010 . S
O589 Mg588 2.028 . S
O589 C592 1.250 . S
O590 Mg591 2.028 . S
O590 C592 1.248 . S
Mg591 O590 2.028 . S
Mg591 O596 2.032 . S
Mg591 O598 2.079 . S
C592 O589 1.250 . S
C592 O590 1.248 . S
C593 O594 1.264 . S
C593 O601 1.249 . S
O594 C593 1.264 . S
O595 Mg588 1.986 . S
O595 C599 1.246 . S
O596 Mg591 2.032 . S
O596 C599 1.259 . S
O597 Mg588 2.114 . S
O597 C600 1.252 . S
O598 Mg588 2.251 . S
O598 Mg591 2.079 . S
O598 C600 1.273 . S
C599 O595 1.246 . S
C599 O596 1.259 . S
C600 O597 1.252 . S
C600 O598 1.273 . S
O601 Mg588 2.010 . S
O601 C593 1.249 . S
Mg602 O603 2.028 . S
Mg602 O609 1.986 . S
Mg602 O611 2.114 . S
Mg602 O612 2.251 . S
Mg602 O615 2.010 . S
O603 Mg602 2.028 . S
O603 C606 1.250 . S
O604 Mg605 2.028 . S
O604 C606 1.248 . S
Mg605 O604 2.028 . S
Mg605 O610 2.032 . S
Mg605 O612 2.079 . S
C606 O603 1.250 . S
C606 O604 1.248 . S
C607 O608 1.264 . S
C607 O615 1.249 . S
O608 C607 1.264 . S
O609 Mg602 1.986 . S
O609 C613 1.246 . S
O610 Mg605 2.032 . S
O610 C613 1.259 . S
O611 Mg602 2.114 . S
O611 C614 1.252 . S
O612 Mg602 2.251 . S
O612 Mg605 2.079 . S
O612 C614 1.273 . S
C613 O609 1.246 . S
C613 O610 1.259 . S
C614 O611 1.252 . S
C614 O612 1.273 . S
O615 Mg602 2.010 . S
O615 C607 1.249 . S
Mg616 O617 2.028 . S
Mg616 O623 1.986 . S
Mg616 O625 2.114 . S
Mg616 O626 2.251 . S
Mg616 O629 2.010 . S
O617 Mg616 2.028 . S
O617 C620 1.250 . S
O618 Mg619 2.028 . S
O618 C620 1.248 . S
Mg619 O618 2.028 . S
Mg619 O624 2.032 . S
Mg619 O626 2.079 . S
C620 O617 1.250 . S
C620 O618 1.248 . S
C621 O622 1.264 . S
C621 O629 1.249 . S
O622 C621 1.264 . S
O623 Mg616 1.986 . S
O623 C627 1.246 . S
O624 Mg619 2.032 . S
O624 C627 1.259 . S
O625 Mg616 2.114 . S
O625 C628 1.252 . S
O626 Mg616 2.251 . S
O626 Mg619 2.079 . S
O626 C628 1.273 . S
C627 O623 1.246 . S
C627 O624 1.259 . S
C628 O625 1.252 . S
C628 O626 1.273 . S
O629 Mg616 2.010 . S
O629 C621 1.249 . S
Mg630 O631 2.028 . S
Mg630 O637 1.986 . S
Mg630 O639 2.114 . S
Mg630 O640 2.251 . S
Mg630 O643 2.010 . S
O631 Mg630 2.028 . S
O631 C634 1.250 . S
O632 Mg633 2.028 . S
O632 C634 1.248 . S
Mg633 O632 2.028 . S
Mg633 O638 2.032 . S
Mg633 O640 2.079 . S
C634 O631 1.250 . S
C634 O632 1.248 . S
C635 O636 1.264 . S
C635 O643 1.249 . S
O636 C635 1.264 . S
O637 Mg630 1.986 . S
O637 C641 1.246 . S
O638 Mg633 2.032 . S
O638 C641 1.259 . S
O639 Mg630 2.114 . S
O639 C642 1.252 . S
O640 Mg630 2.251 . S
O640 Mg633 2.079 . S
O640 C642 1.273 . S
C641 O637 1.246 . S
C641 O638 1.259 . S
C642 O639 1.252 . S
C642 O640 1.273 . S
O643 Mg630 2.010 . S
O643 C635 1.249 . S
Mg644 O645 2.028 . S
Mg644 O651 1.986 . S
Mg644 O653 2.114 . S
Mg644 O654 2.251 . S
Mg644 O657 2.010 . S
O645 Mg644 2.028 . S
O645 C648 1.250 . S
O646 Mg647 2.028 . S
O646 C648 1.248 . S
Mg647 O646 2.028 . S
Mg647 O652 2.032 . S
Mg647 O654 2.079 . S
C648 O645 1.250 . S
C648 O646 1.248 . S
C649 O650 1.264 . S
C649 O657 1.249 . S
O650 C649 1.264 . S
O651 Mg644 1.986 . S
O651 C655 1.246 . S
O652 Mg647 2.032 . S
O652 C655 1.259 . S
O653 Mg644 2.114 . S
O653 C656 1.252 . S
O654 Mg644 2.251 . S
O654 Mg647 2.079 . S
O654 C656 1.273 . S
C655 O651 1.246 . S
C655 O652 1.259 . S
C656 O653 1.252 . S
C656 O654 1.273 . S
O657 Mg644 2.010 . S
O657 C649 1.249 . S
Mg658 O659 2.028 . S
Mg658 O665 1.986 . S
Mg658 O667 2.114 . S
Mg658 O668 2.251 . S
Mg658 O671 2.010 . S
O659 Mg658 2.028 . S
O659 C662 1.250 . S
O660 Mg661 2.028 . S
O660 C662 1.248 . S
Mg661 O660 2.028 . S
Mg661 O666 2.032 . S
Mg661 O668 2.079 . S
C662 O659 1.250 . S
C662 O660 1.248 . S
C663 O664 1.264 . S
C663 O671 1.249 . S
O664 C663 1.264 . S
O665 Mg658 1.986 . S
O665 C669 1.246 . S
O666 Mg661 2.032 . S
O666 C669 1.259 . S
O667 Mg658 2.114 . S
O667 C670 1.252 . S
O668 Mg658 2.251 . S
O668 Mg661 2.079 . S
O668 C670 1.273 . S
C669 O665 1.246 . S
C669 O666 1.259 . S
C670 O667 1.252 . S
C670 O668 1.273 . S
O671 Mg658 2.010 . S
O671 C663 1.249 . S
Mg672 O673 2.028 . S
Mg672 O679 1.986 . S
Mg672 O681 2.114 . S
Mg672 O682 2.251 . S
Mg672 O685 2.010 . S
O673 Mg672 2.028 . S
O673 C676 1.250 . S
O674 Mg675 2.028 . S
O674 C676 1.248 . S
Mg675 O674 2.028 . S
Mg675 O680 2.032 . S
Mg675 O682 2.079 . S
C676 O673 1.250 . S
C676 O674 1.248 . S
C677 O678 1.264 . S
C677 O685 1.249 . S
O678 C677 1.264 . S
O679 Mg672 1.986 . S
O679 C683 1.246 . S
O680 Mg675 2.032 . S
O680 C683 1.259 . S
O681 Mg672 2.114 . S
O681 C684 1.252 . S
O682 Mg672 2.251 . S
O682 Mg675 2.079 . S
O682 C684 1.273 . S
C683 O679 1.246 . S
C683 O680 1.259 . S
C684 O681 1.252 . S
C684 O682 1.273 . S
O685 Mg672 2.010 . S
O685 C677 1.249 . S
Mg686 O687 2.028 . S
Mg686 O693 1.986 . S
Mg686 O695 2.114 . S
Mg686 O696 2.251 . S
Mg686 O699 2.010 . S
O687 Mg686 2.028 . S
O687 C690 1.250 . S
O688 Mg689 2.028 . S
O688 C690 1.248 . S
Mg689 O688 2.028 . S
Mg689 O694 2.032 . S
Mg689 O696 2.079 . S
C690 O687 1.250 . S
C690 O688 1.248 . S
C691 O692 1.264 . S
C691 O699 1.249 . S
O692 C691 1.264 . S
O693 Mg686 1.986 . S
O693 C697 1.246 . S
O694 Mg689 2.032 . S
O694 C697 1.259 . S
O695 Mg686 2.114 . S
O695 C698 1.252 . S
O696 Mg686 2.251 . S
O696 Mg689 2.079 . S
O696 C698 1.273 . S
C697 O693 1.246 . S
C697 O694 1.259 . S
C698 O695 1.252 . S
C698 O696 1.273 . S
O699 Mg686 2.010 . S
O699 C691 1.249 . S
Mg700 O701 2.028 . S
Mg700 O707 1.986 . S
Mg700 O709 2.114 . S
Mg700 O710 2.251 . S
Mg700 O713 2.010 . S
O701 Mg700 2.028 . S
O701 C704 1.250 . S
O702 Mg703 2.028 . S
O702 C704 1.248 . S
Mg703 O702 2.028 . S
Mg703 O708 2.032 . S
Mg703 O710 2.079 . S
C704 O701 1.250 . S
C704 O702 1.248 . S
C705 O706 1.264 . S
C705 O713 1.249 . S
O706 C705 1.264 . S
O707 Mg700 1.986 . S
O707 C711 1.246 . S
O708 Mg703 2.032 . S
O708 C711 1.259 . S
O709 Mg700 2.114 . S
O709 C712 1.252 . S
O710 Mg700 2.251 . S
O710 Mg703 2.079 . S
O710 C712 1.273 . S
C711 O707 1.246 . S
C711 O708 1.259 . S
C712 O709 1.252 . S
C712 O710 1.273 . S
O713 Mg700 2.010 . S
O713 C705 1.249 . S
Mg714 O715 2.028 . S
Mg714 O721 1.986 . S
Mg714 O723 2.114 . S
Mg714 O724 2.251 . S
Mg714 O727 2.010 . S
O715 Mg714 2.028 . S
O715 C718 1.250 . S
O716 Mg717 2.028 . S
O716 C718 1.248 . S
Mg717 O716 2.028 . S
Mg717 O722 2.032 . S
Mg717 O724 2.079 . S
C718 O715 1.250 . S
C718 O716 1.248 . S
C719 O720 1.264 . S
C719 O727 1.249 . S
O720 C719 1.264 . S
O721 Mg714 1.986 . S
O721 C725 1.246 . S
O722 Mg717 2.032 . S
O722 C725 1.259 . S
O723 Mg714 2.114 . S
O723 C726 1.252 . S
O724 Mg714 2.251 . S
O724 Mg717 2.079 . S
O724 C726 1.273 . S
C725 O721 1.246 . S
C725 O722 1.259 . S
C726 O723 1.252 . S
C726 O724 1.273 . S
O727 Mg714 2.010 . S
O727 C719 1.249 . S
Mg728 O729 2.028 . S
Mg728 O735 1.986 . S
Mg728 O737 2.114 . S
Mg728 O738 2.251 . S
Mg728 O741 2.010 . S
O729 Mg728 2.028 . S
O729 C732 1.250 . S
O730 Mg731 2.028 . S
O730 C732 1.248 . S
Mg731 O730 2.028 . S
Mg731 O736 2.032 . S
Mg731 O738 2.079 . S
C732 O729 1.250 . S
C732 O730 1.248 . S
C733 O734 1.264 . S
C733 O741 1.249 . S
O734 C733 1.264 . S
O735 Mg728 1.986 . S
O735 C739 1.246 . S
O736 Mg731 2.032 . S
O736 C739 1.259 . S
O737 Mg728 2.114 . S
O737 C740 1.252 . S
O738 Mg728 2.251 . S
O738 Mg731 2.079 . S
O738 C740 1.273 . S
C739 O735 1.246 . S
C739 O736 1.259 . S
C740 O737 1.252 . S
C740 O738 1.273 . S
O741 Mg728 2.010 . S
O741 C733 1.249 . S
Mg742 O743 2.028 . S
Mg742 O749 1.986 . S
Mg742 O751 2.114 . S
Mg742 O752 2.251 . S
Mg742 O755 2.010 . S
O743 Mg742 2.028 . S
O743 C746 1.250 . S
O744 Mg745 2.028 . S
O744 C746 1.248 . S
Mg745 O744 2.028 . S
Mg745 O750 2.032 . S
Mg745 O752 2.079 . S
C746 O743 1.250 . S
C746 O744 1.248 . S
C747 O748 1.264 . S
C747 O755 1.249 . S
O748 C747 1.264 . S
O749 Mg742 1.986 . S
O749 C753 1.246 . S
O750 Mg745 2.032 . S
O750 C753 1.259 . S
O751 Mg742 2.114 . S
O751 C754 1.252 . S
O752 Mg742 2.251 . S
O752 Mg745 2.079 . S
O752 C754 1.273 . S
C753 O749 1.246 . S
C753 O750 1.259 . S
C754 O751 1.252 . S
C754 O752 1.273 . S
O755 Mg742 2.010 . S
O755 C747 1.249 . S
Mg756 O757 2.028 . S
Mg756 O763 1.986 . S
Mg756 O765 2.114 . S
Mg756 O766 2.251 . S
Mg756 O769 2.010 . S
O757 Mg756 2.028 . S
O757 C760 1.250 . S
O758 Mg759 2.028 . S
O758 C760 1.248 . S
Mg759 O758 2.028 . S
Mg759 O764 2.032 . S
Mg759 O766 2.079 . S
C760 O757 1.250 . S
C760 O758 1.248 . S
C761 O762 1.264 . S
C761 O769 1.249 . S
O762 C761 1.264 . S
O763 Mg756 1.986 . S
O763 C767 1.246 . S
O764 Mg759 2.032 . S
O764 C767 1.259 . S
O765 Mg756 2.114 . S
O765 C768 1.252 . S
O766 Mg756 2.251 . S
O766 Mg759 2.079 . S
O766 C768 1.273 . S
C767 O763 1.246 . S
C767 O764 1.259 . S
C768 O765 1.252 . S
C768 O766 1.273 . S
O769 Mg756 2.010 . S
O769 C761 1.249 . S
Mg770 O771 2.028 . S
Mg770 O777 1.986 . S
Mg770 O779 2.114 . S
Mg770 O780 2.251 . S
Mg770 O783 2.010 . S
O771 Mg770 2.028 . S
O771 C774 1.250 . S
O772 Mg773 2.028 . S
O772 C774 1.248 . S
Mg773 O772 2.028 . S
Mg773 O778 2.032 . S
Mg773 O780 2.079 . S
C774 O771 1.250 . S
C774 O772 1.248 . S
C775 O776 1.264 . S
C775 O783 1.249 . S
O776 C775 1.264 . S
O777 Mg770 1.986 . S
O777 C781 1.246 . S
O778 Mg773 2.032 . S
O778 C781 1.259 . S
O779 Mg770 2.114 . S
O779 C782 1.252 . S
O780 Mg770 2.251 . S
O780 Mg773 2.079 . S
O780 C782 1.273 . S
C781 O777 1.246 . S
C781 O778 1.259 . S
C782 O779 1.252 . S
C782 O780 1.273 . S
O783 Mg770 2.010 . S
O783 C775 1.249 . S
Mg784 O785 2.028 . S
Mg784 O791 1.986 . S
Mg784 O793 2.114 . S
Mg784 O794 2.251 . S
Mg784 O797 2.010 . S
O785 Mg784 2.028 . S
O785 C788 1.250 . S
O786 Mg787 2.028 . S
O786 C788 1.248 . S
Mg787 O786 2.028 . S
Mg787 O792 2.032 . S
Mg787 O794 2.079 . S
C788 O785 1.250 . S
C788 O786 1.248 . S
C789 O790 1.264 . S
C789 O797 1.249 . S
O790 C789 1.264 . S
O791 Mg784 1.986 . S
O791 C795 1.246 . S
O792 Mg787 2.032 . S
O792 C795 1.259 . S
O793 Mg784 2.114 . S
O793 C796 1.252 . S
O794 Mg784 2.251 . S
O794 Mg787 2.079 . S
O794 C796 1.273 . S
C795 O791 1.246 . S
C795 O792 1.259 . S
C796 O793 1.252 . S
C796 O794 1.273 . S
O797 Mg784 2.010 . S
O797 C789 1.249 . S
Mg798 O799 2.028 . S
Mg798 O805 1.986 . S
Mg798 O807 2.114 . S
Mg798 O808 2.251 . S
Mg798 O811 2.010 . S
O799 Mg798 2.028 . S
O799 C802 1.250 . S
O800 Mg801 2.028 . S
O800 C802 1.248 . S
Mg801 O800 2.028 . S
Mg801 O806 2.032 . S
Mg801 O808 2.079 . S
C802 O799 1.250 . S
C802 O800 1.248 . S
C803 O804 1.264 . S
C803 O811 1.249 . S
O804 C803 1.264 . S
O805 Mg798 1.986 . S
O805 C809 1.246 . S
O806 Mg801 2.032 . S
O806 C809 1.259 . S
O807 Mg798 2.114 . S
O807 C810 1.252 . S
O808 Mg798 2.251 . S
O808 Mg801 2.079 . S
O808 C810 1.273 . S
C809 O805 1.246 . S
C809 O806 1.259 . S
C810 O807 1.252 . S
C810 O808 1.273 . S
O811 Mg798 2.010 . S
O811 C803 1.249 . S
Mg812 O813 2.028 . S
Mg812 O819 1.986 . S
Mg812 O821 2.114 . S
Mg812 O822 2.251 . S
Mg812 O825 2.010 . S
O813 Mg812 2.028 . S
O813 C816 1.250 . S
O814 Mg815 2.028 . S
O814 C816 1.248 . S
Mg815 O814 2.028 . S
Mg815 O820 2.032 . S
Mg815 O822 2.079 . S
C816 O813 1.250 . S
C816 O814 1.248 . S
C817 O818 1.264 . S
C817 O825 1.249 . S
O818 C817 1.264 . S
O819 Mg812 1.986 . S
O819 C823 1.246 . S
O820 Mg815 2.032 . S
O820 C823 1.259 . S
O821 Mg812 2.114 . S
O821 C824 1.252 . S
O822 Mg812 2.251 . S
O822 Mg815 2.079 . S
O822 C824 1.273 . S
C823 O819 1.246 . S
C823 O820 1.259 . S
C824 O821 1.252 . S
C824 O822 1.273 . S
O825 Mg812 2.010 . S
O825 C817 1.249 . S
Mg826 O827 2.028 . S
Mg826 O833 1.986 . S
Mg826 O835 2.114 . S
Mg826 O836 2.251 . S
Mg826 O839 2.010 . S
O827 Mg826 2.028 . S
O827 C830 1.250 . S
O828 Mg829 2.028 . S
O828 C830 1.248 . S
Mg829 O828 2.028 . S
Mg829 O834 2.032 . S
Mg829 O836 2.079 . S
C830 O827 1.250 . S
C830 O828 1.248 . S
C831 O832 1.264 . S
C831 O839 1.249 . S
O832 C831 1.264 . S
O833 Mg826 1.986 . S
O833 C837 1.246 . S
O834 Mg829 2.032 . S
O834 C837 1.259 . S
O835 Mg826 2.114 . S
O835 C838 1.252 . S
O836 Mg826 2.251 . S
O836 Mg829 2.079 . S
O836 C838 1.273 . S
C837 O833 1.246 . S
C837 O834 1.259 . S
C838 O835 1.252 . S
C838 O836 1.273 . S
O839 Mg826 2.010 . S
O839 C831 1.249 . S
Mg840 O841 2.028 . S
Mg840 O847 1.986 . S
Mg840 O849 2.114 . S
Mg840 O850 2.251 . S
Mg840 O853 2.010 . S
O841 Mg840 2.028 . S
O841 C844 1.250 . S
O842 Mg843 2.028 . S
O842 C844 1.248 . S
Mg843 O842 2.028 . S
Mg843 O848 2.032 . S
Mg843 O850 2.079 . S
C844 O841 1.250 . S
C844 O842 1.248 . S
C845 O846 1.264 . S
C845 O853 1.249 . S
O846 C845 1.264 . S
O847 Mg840 1.986 . S
O847 C851 1.246 . S
O848 Mg843 2.032 . S
O848 C851 1.259 . S
O849 Mg840 2.114 . S
O849 C852 1.252 . S
O850 Mg840 2.251 . S
O850 Mg843 2.079 . S
O850 C852 1.273 . S
C851 O847 1.246 . S
C851 O848 1.259 . S
C852 O849 1.252 . S
C852 O850 1.273 . S
O853 Mg840 2.010 . S
O853 C845 1.249 . S
Mg854 O855 2.028 . S
Mg854 O861 1.986 . S
Mg854 O863 2.114 . S
Mg854 O864 2.251 . S
Mg854 O867 2.010 . S
O855 Mg854 2.028 . S
O855 C858 1.250 . S
O856 Mg857 2.028 . S
O856 C858 1.248 . S
Mg857 O856 2.028 . S
Mg857 O862 2.032 . S
Mg857 O864 2.079 . S
C858 O855 1.250 . S
C858 O856 1.248 . S
C859 O860 1.264 . S
C859 O867 1.249 . S
O860 C859 1.264 . S
O861 Mg854 1.986 . S
O861 C865 1.246 . S
O862 Mg857 2.032 . S
O862 C865 1.259 . S
O863 Mg854 2.114 . S
O863 C866 1.252 . S
O864 Mg854 2.251 . S
O864 Mg857 2.079 . S
O864 C866 1.273 . S
C865 O861 1.246 . S
C865 O862 1.259 . S
C866 O863 1.252 . S
C866 O864 1.273 . S
O867 Mg854 2.010 . S
O867 C859 1.249 . S
Mg868 O869 2.028 . S
Mg868 O875 1.986 . S
Mg868 O877 2.114 . S
Mg868 O878 2.251 . S
Mg868 O881 2.010 . S
O869 Mg868 2.028 . S
O869 C872 1.250 . S
O870 Mg871 2.028 . S
O870 C872 1.248 . S
Mg871 O870 2.028 . S
Mg871 O876 2.032 . S
Mg871 O878 2.079 . S
C872 O869 1.250 . S
C872 O870 1.248 . S
C873 O874 1.264 . S
C873 O881 1.249 . S
O874 C873 1.264 . S
O875 Mg868 1.986 . S
O875 C879 1.246 . S
O876 Mg871 2.032 . S
O876 C879 1.259 . S
O877 Mg868 2.114 . S
O877 C880 1.252 . S
O878 Mg868 2.251 . S
O878 Mg871 2.079 . S
O878 C880 1.273 . S
C879 O875 1.246 . S
C879 O876 1.259 . S
C880 O877 1.252 . S
C880 O878 1.273 . S
O881 Mg868 2.010 . S
O881 C873 1.249 . S
Mg882 O883 2.028 . S
Mg882 O889 1.986 . S
Mg882 O891 2.114 . S
Mg882 O892 2.251 . S
Mg882 O895 2.010 . S
O883 Mg882 2.028 . S
O883 C886 1.250 . S
O884 Mg885 2.028 . S
O884 C886 1.248 . S
Mg885 O884 2.028 . S
Mg885 O890 2.032 . S
Mg885 O892 2.079 . S
C886 O883 1.250 . S
C886 O884 1.248 . S
C887 O888 1.264 . S
C887 O895 1.249 . S
O888 C887 1.264 . S
O889 Mg882 1.986 . S
O889 C893 1.246 . S
O890 Mg885 2.032 . S
O890 C893 1.259 . S
O891 Mg882 2.114 . S
O891 C894 1.252 . S
O892 Mg882 2.251 . S
O892 Mg885 2.079 . S
O892 C894 1.273 . S
C893 O889 1.246 . S
C893 O890 1.259 . S
C894 O891 1.252 . S
C894 O892 1.273 . S
O895 Mg882 2.010 . S
O895 C887 1.249 . S
Mg896 O897 2.028 . S
Mg896 O903 1.986 . S
Mg896 O905 2.114 . S
Mg896 O906 2.251 . S
Mg896 O909 2.010 . S
O897 Mg896 2.028 . S
O897 C900 1.250 . S
O898 Mg899 2.028 . S
O898 C900 1.248 . S
Mg899 O898 2.028 . S
Mg899 O904 2.032 . S
Mg899 O906 2.079 . S
C900 O897 1.250 . S
C900 O898 1.248 . S
C901 O902 1.264 . S
C901 O909 1.249 . S
O902 C901 1.264 . S
O903 Mg896 1.986 . S
O903 C907 1.246 . S
O904 Mg899 2.032 . S
O904 C907 1.259 . S
O905 Mg896 2.114 . S
O905 C908 1.252 . S
O906 Mg896 2.251 . S
O906 Mg899 2.079 . S
O906 C908 1.273 . S
C907 O903 1.246 . S
C907 O904 1.259 . S
C908 O905 1.252 . S
C908 O906 1.273 . S
O909 Mg896 2.010 . S
O909 C901 1.249 . S
Mg910 O911 2.028 . S
Mg910 O917 1.986 . S
Mg910 O919 2.114 . S
Mg910 O920 2.251 . S
Mg910 O923 2.010 . S
O911 Mg910 2.028 . S
O911 C914 1.250 . S
O912 Mg913 2.028 . S
O912 C914 1.248 . S
Mg913 O912 2.028 . S
Mg913 O918 2.032 . S
Mg913 O920 2.079 . S
C914 O911 1.250 . S
C914 O912 1.248 . S
C915 O916 1.264 . S
C915 O923 1.249 . S
O916 C915 1.264 . S
O917 Mg910 1.986 . S
O917 C921 1.246 . S
O918 Mg913 2.032 . S
O918 C921 1.259 . S
O919 Mg910 2.114 . S
O919 C922 1.252 . S
O920 Mg910 2.251 . S
O920 Mg913 2.079 . S
O920 C922 1.273 . S
C921 O917 1.246 . S
C921 O918 1.259 . S
C922 O919 1.252 . S
C922 O920 1.273 . S
O923 Mg910 2.010 . S
O923 C915 1.249 . S
Mg924 O925 2.028 . S
Mg924 O931 1.986 . S
Mg924 O933 2.114 . S
Mg924 O934 2.251 . S
Mg924 O937 2.010 . S
O925 Mg924 2.028 . S
O925 C928 1.250 . S
O926 Mg927 2.028 . S
O926 C928 1.248 . S
Mg927 O926 2.028 . S
Mg927 O932 2.032 . S
Mg927 O934 2.079 . S
C928 O925 1.250 . S
C928 O926 1.248 . S
C929 O930 1.264 . S
C929 O937 1.249 . S
O930 C929 1.264 . S
O931 Mg924 1.986 . S
O931 C935 1.246 . S
O932 Mg927 2.032 . S
O932 C935 1.259 . S
O933 Mg924 2.114 . S
O933 C936 1.252 . S
O934 Mg924 2.251 . S
O934 Mg927 2.079 . S
O934 C936 1.273 . S
C935 O931 1.246 . S
C935 O932 1.259 . S
C936 O933 1.252 . S
C936 O934 1.273 . S
O937 Mg924 2.010 . S
O937 C929 1.249 . S
Mg938 O939 2.028 . S
Mg938 O945 1.986 . S
Mg938 O947 2.114 . S
Mg938 O948 2.251 . S
Mg938 O951 2.010 . S
O939 Mg938 2.028 . S
O939 C942 1.250 . S
O940 Mg941 2.028 . S
O940 C942 1.248 . S
Mg941 O940 2.028 . S
Mg941 O946 2.032 . S
Mg941 O948 2.079 . S
C942 O939 1.250 . S
C942 O940 1.248 . S
C943 O944 1.264 . S
C943 O951 1.249 . S
O944 C943 1.264 . S
O945 Mg938 1.986 . S
O945 C949 1.246 . S
O946 Mg941 2.032 . S
O946 C949 1.259 . S
O947 Mg938 2.114 . S
O947 C950 1.252 . S
O948 Mg938 2.251 . S
O948 Mg941 2.079 . S
O948 C950 1.273 . S
C949 O945 1.246 . S
C949 O946 1.259 . S
C950 O947 1.252 . S
C950 O948 1.273 . S
O951 Mg938 2.010 . S
O951 C943 1.249 . S
Mg952 O953 2.028 . S
Mg952 O959 1.986 . S
Mg952 O961 2.114 . S
Mg952 O962 2.251 . S
Mg952 O965 2.010 . S
O953 Mg952 2.028 . S
O953 C956 1.250 . S
O954 Mg955 2.028 . S
O954 C956 1.248 . S
Mg955 O954 2.028 . S
Mg955 O960 2.032 . S
Mg955 O962 2.079 . S
C956 O953 1.250 . S
C956 O954 1.248 . S
C957 O958 1.264 . S
C957 O965 1.249 . S
O958 C957 1.264 . S
O959 Mg952 1.986 . S
O959 C963 1.246 . S
O960 Mg955 2.032 . S
O960 C963 1.259 . S
O961 Mg952 2.114 . S
O961 C964 1.252 . S
O962 Mg952 2.251 . S
O962 Mg955 2.079 . S
O962 C964 1.273 . S
C963 O959 1.246 . S
C963 O960 1.259 . S
C964 O961 1.252 . S
C964 O962 1.273 . S
O965 Mg952 2.010 . S
O965 C957 1.249 . S
Mg966 O967 2.028 . S
Mg966 O973 1.986 . S
Mg966 O975 2.114 . S
Mg966 O976 2.251 . S
Mg966 O979 2.010 . S
O967 Mg966 2.028 . S
O967 C970 1.250 . S
O968 Mg969 2.028 . S
O968 C970 1.248 . S
Mg969 O968 2.028 . S
Mg969 O974 2.032 . S
Mg969 O976 2.079 . S
C970 O967 1.250 . S
C970 O968 1.248 . S
C971 O972 1.264 . S
C971 O979 1.249 . S
O972 C971 1.264 . S
O973 Mg966 1.986 . S
O973 C977 1.246 . S
O974 Mg969 2.032 . S
O974 C977 1.259 . S
O975 Mg966 2.114 . S
O975 C978 1.252 . S
O976 Mg966 2.251 . S
O976 Mg969 2.079 . S
O976 C978 1.273 . S
C977 O973 1.246 . S
C977 O974 1.259 . S
C978 O975 1.252 . S
C978 O976 1.273 . S
O979 Mg966 2.010 . S
O979 C971 1.249 . S
Mg980 O981 2.028 . S
Mg980 O987 1.986 . S
Mg980 O989 2.114 . S
Mg980 O990 2.251 . S
Mg980 O993 2.010 . S
O981 Mg980 2.028 . S
O981 C984 1.250 . S
O982 Mg983 2.028 . S
O982 C984 1.248 . S
Mg983 O982 2.028 . S
Mg983 O988 2.032 . S
Mg983 O990 2.079 . S
C984 O981 1.250 . S
C984 O982 1.248 . S
C985 O986 1.264 . S
C985 O993 1.249 . S
O986 C985 1.264 . S
O987 Mg980 1.986 . S
O987 C991 1.246 . S
O988 Mg983 2.032 . S
O988 C991 1.259 . S
O989 Mg980 2.114 . S
O989 C992 1.252 . S
O990 Mg980 2.251 . S
O990 Mg983 2.079 . S
O990 C992 1.273 . S
C991 O987 1.246 . S
C991 O988 1.259 . S
C992 O989 1.252 . S
C992 O990 1.273 . S
O993 Mg980 2.010 . S
O993 C985 1.249 . S
Mg994 O995 2.028 . S
Mg994 O1001 1.986 . S
Mg994 O1003 2.114 . S
Mg994 O1004 2.251 . S
Mg994 O1007 2.010 . S
O995 Mg994 2.028 . S
O995 C998 1.250 . S
O996 Mg997 2.028 . S
O996 C998 1.248 . S
Mg997 O996 2.028 . S
Mg997 O1002 2.032 . S
Mg997 O1004 2.079 . S
C998 O995 1.250 . S
C998 O996 1.248 . S
C999 O1000 1.264 . S
C999 O1007 1.249 . S
O1000 C999 1.264 . S
O1001 Mg994 1.986 . S
O1001 C1005 1.246 . S
O1002 Mg997 2.032 . S
O1002 C1005 1.259 . S
O1003 Mg994 2.114 . S
O1003 C1006 1.252 . S
O1004 Mg994 2.251 . S
O1004 Mg997 2.079 . S
O1004 C1006 1.273 . S
C1005 O1001 1.246 . S
C1005 O1002 1.259 . S
C1006 O1003 1.252 . S
C1006 O1004 1.273 . S
O1007 Mg994 2.010 . S
O1007 C999 1.249 . S
Mg1008 O1009 2.028 . S
Mg1008 O1015 1.986 . S
Mg1008 O1017 2.114 . S
Mg1008 O1018 2.251 . S
Mg1008 O1021 2.010 . S
O1009 Mg1008 2.028 . S
O1009 C1012 1.250 . S
O1010 Mg1011 2.028 . S
O1010 C1012 1.248 . S
Mg1011 O1010 2.028 . S
Mg1011 O1016 2.032 . S
Mg1011 O1018 2.079 . S
C1012 O1009 1.250 . S
C1012 O1010 1.248 . S
C1013 O1014 1.264 . S
C1013 O1021 1.249 . S
O1014 C1013 1.264 . S
O1015 Mg1008 1.986 . S
O1015 C1019 1.246 . S
O1016 Mg1011 2.032 . S
O1016 C1019 1.259 . S
O1017 Mg1008 2.114 . S
O1017 C1020 1.252 . S
O1018 Mg1008 2.251 . S
O1018 Mg1011 2.079 . S
O1018 C1020 1.273 . S
C1019 O1015 1.246 . S
C1019 O1016 1.259 . S
C1020 O1017 1.252 . S
C1020 O1018 1.273 . S
O1021 Mg1008 2.010 . S
O1021 C1013 1.249 . S
Mg1022 O1023 2.028 . S
Mg1022 O1029 1.986 . S
Mg1022 O1031 2.114 . S
Mg1022 O1032 2.251 . S
Mg1022 O1035 2.010 . S
O1023 Mg1022 2.028 . S
O1023 C1026 1.250 . S
O1024 Mg1025 2.028 . S
O1024 C1026 1.248 . S
Mg1025 O1024 2.028 . S
Mg1025 O1030 2.032 . S
Mg1025 O1032 2.079 . S
C1026 O1023 1.250 . S
C1026 O1024 1.248 . S
C1027 O1028 1.264 . S
C1027 O1035 1.249 . S
O1028 C1027 1.264 . S
O1029 Mg1022 1.986 . S
O1029 C1033 1.246 . S
O1030 Mg1025 2.032 . S
O1030 C1033 1.259 . S
O1031 Mg1022 2.114 . S
O1031 C1034 1.252 . S
O1032 Mg1022 2.251 . S
O1032 Mg1025 2.079 . S
O1032 C1034 1.273 . S
C1033 O1029 1.246 . S
C1033 O1030 1.259 . S
C1034 O1031 1.252 . S
C1034 O1032 1.273 . S
O1035 Mg1022 2.010 . S
O1035 C1027 1.249 . S
Mg1036 O1037 2.028 . S
Mg1036 O1043 1.986 . S
Mg1036 O1045 2.114 . S
Mg1036 O1046 2.251 . S
Mg1036 O1049 2.010 . S
O1037 Mg1036 2.028 . S
O1037 C1040 1.250 . S
O1038 Mg1039 2.028 . S
O1038 C1040 1.248 . S
Mg1039 O1038 2.028 . S
Mg1039 O1044 2.032 . S
Mg1039 O1046 2.079 . S
C1040 O1037 1.250 . S
C1040 O1038 1.248 . S
C1041 O1042 1.264 . S
C1041 O1049 1.249 . S
O1042 C1041 1.264 . S
O1043 Mg1036 1.986 . S
O1043 C1047 1.246 . S
O1044 Mg1039 2.032 . S
O1044 C1047 1.259 . S
O1045 Mg1036 2.114 . S
O1045 C1048 1.252 . S
O1046 Mg1036 2.251 . S
O1046 Mg1039 2.079 . S
O1046 C1048 1.273 . S
C1047 O1043 1.246 . S
C1047 O1044 1.259 . S
C1048 O1045 1.252 . S
C1048 O1046 1.273 . S
O1049 Mg1036 2.010 . S
O1049 C1041 1.249 . S
Mg1050 O1051 2.028 . S
Mg1050 O1057 1.986 . S
Mg1050 O1059 2.114 . S
Mg1050 O1060 2.251 . S
Mg1050 O1063 2.010 . S
O1051 Mg1050 2.028 . S
O1051 C1054 1.250 . S
O1052 Mg1053 2.028 . S
O1052 C1054 1.248 . S
Mg1053 O1052 2.028 . S
Mg1053 O1058 2.032 . S
Mg1053 O1060 2.079 . S
C1054 O1051 1.250 . S
C1054 O1052 1.248 . S
C1055 O1056 1.264 . S
C1055 O1063 1.249 . S
O1056 C1055 1.264 . S
O1057 Mg1050 1.986 . S
O1057 C1061 1.246 . S
O1058 Mg1053 2.032 . S
O1058 C1061 1.259 . S
O1059 Mg1050 2.114 . S
O1059 C1062 1.252 . S
O1060 Mg1050 2.251 . S
O1060 Mg1053 2.079 . S
O1060 C1062 1.273 . S
C1061 O1057 1.246 . S
C1061 O1058 1.259 . S
C1062 O1059 1.252 . S
C1062 O1060 1.273 . S
O1063 Mg1050 2.010 . S
O1063 C1055 1.249 . S
Mg1064 O1065 2.028 . S
Mg1064 O1071 1.986 . S
Mg1064 O1073 2.114 . S
Mg1064 O1074 2.251 . S
Mg1064 O1077 2.010 . S
O1065 Mg1064 2.028 . S
O1065 C1068 1.250 . S
O1066 Mg1067 2.028 . S
O1066 C1068 1.248 . S
Mg1067 O1066 2.028 . S
Mg1067 O1072 2.032 . S
Mg1067 O1074 2.079 . S
C1068 O1065 1.250 . S
C1068 O1066 1.248 . S
C1069 O1070 1.264 . S
C1069 O1077 1.249 . S
O1070 C1069 1.264 . S
O1071 Mg1064 1.986 . S
O1071 C1075 1.246 . S
O1072 Mg1067 2.032 . S
O1072 C1075 1.259 . S
O1073 Mg1064 2.114 . S
O1073 C1076 1.252 . S
O1074 Mg1064 2.251 . S
O1074 Mg1067 2.079 . S
O1074 C1076 1.273 . S
C1075 O1071 1.246 . S
C1075 O1072 1.259 . S
C1076 O1073 1.252 . S
C1076 O1074 1.273 . S
O1077 Mg1064 2.010 . S
O1077 C1069 1.249 . S
Mg1078 O1079 2.028 . S
Mg1078 O1085 1.986 . S
Mg1078 O1087 2.114 . S
Mg1078 O1088 2.251 . S
Mg1078 O1091 2.010 . S
O1079 Mg1078 2.028 . S
O1079 C1082 1.250 . S
O1080 Mg1081 2.028 . S
O1080 C1082 1.248 . S
Mg1081 O1080 2.028 . S
Mg1081 O1086 2.032 . S
Mg1081 O1088 2.079 . S
C1082 O1079 1.250 . S
C1082 O1080 1.248 . S
C1083 O1084 1.264 . S
C1083 O1091 1.249 . S
O1084 C1083 1.264 . S
O1085 Mg1078 1.986 . S
O1085 C1089 1.246 . S
O1086 Mg1081 2.032 . S
O1086 C1089 1.259 . S
O1087 Mg1078 2.114 . S
O1087 C1090 1.252 . S
O1088 Mg1078 2.251 . S
O1088 Mg1081 2.079 . S
O1088 C1090 1.273 . S
C1089 O1085 1.246 . S
C1089 O1086 1.259 . S
C1090 O1087 1.252 . S
C1090 O1088 1.273 . S
O1091 Mg1078 2.010 . S
O1091 C1083 1.249 . S
Mg1092 O1093 2.028 . S
Mg1092 O1099 1.986 . S
Mg1092 O1101 2.114 . S
Mg1092 O1102 2.251 . S
Mg1092 O1105 2.010 . S
O1093 Mg1092 2.028 . S
O1093 C1096 1.250 . S
O1094 Mg1095 2.028 . S
O1094 C1096 1.248 . S
Mg1095 O1094 2.028 . S
Mg1095 O1100 2.032 . S
Mg1095 O1102 2.079 . S
C1096 O1093 1.250 . S
C1096 O1094 1.248 . S
C1097 O1098 1.264 . S
C1097 O1105 1.249 . S
O1098 C1097 1.264 . S
O1099 Mg1092 1.986 . S
O1099 C1103 1.246 . S
O1100 Mg1095 2.032 . S
O1100 C1103 1.259 . S
O1101 Mg1092 2.114 . S
O1101 C1104 1.252 . S
O1102 Mg1092 2.251 . S
O1102 Mg1095 2.079 . S
O1102 C1104 1.273 . S
C1103 O1099 1.246 . S
C1103 O1100 1.259 . S
C1104 O1101 1.252 . S
C1104 O1102 1.273 . S
O1105 Mg1092 2.010 . S
O1105 C1097 1.249 . S
Mg1106 O1107 2.028 . S
Mg1106 O1113 1.986 . S
Mg1106 O1115 2.114 . S
Mg1106 O1116 2.251 . S
Mg1106 O1119 2.010 . S
O1107 Mg1106 2.028 . S
O1107 C1110 1.250 . S
O1108 Mg1109 2.028 . S
O1108 C1110 1.248 . S
Mg1109 O1108 2.028 . S
Mg1109 O1114 2.032 . S
Mg1109 O1116 2.079 . S
C1110 O1107 1.250 . S
C1110 O1108 1.248 . S
C1111 O1112 1.264 . S
C1111 O1119 1.249 . S
O1112 C1111 1.264 . S
O1113 Mg1106 1.986 . S
O1113 C1117 1.246 . S
O1114 Mg1109 2.032 . S
O1114 C1117 1.259 . S
O1115 Mg1106 2.114 . S
O1115 C1118 1.252 . S
O1116 Mg1106 2.251 . S
O1116 Mg1109 2.079 . S
O1116 C1118 1.273 . S
C1117 O1113 1.246 . S
C1117 O1114 1.259 . S
C1118 O1115 1.252 . S
C1118 O1116 1.273 . S
O1119 Mg1106 2.010 . S
O1119 C1111 1.249 . S
Mg1120 O1121 2.028 . S
Mg1120 O1127 1.986 . S
Mg1120 O1129 2.114 . S
Mg1120 O1130 2.251 . S
Mg1120 O1133 2.010 . S
O1121 Mg1120 2.028 . S
O1121 C1124 1.250 . S
O1122 Mg1123 2.028 . S
O1122 C1124 1.248 . S
Mg1123 O1122 2.028 . S
Mg1123 O1128 2.032 . S
Mg1123 O1130 2.079 . S
C1124 O1121 1.250 . S
C1124 O1122 1.248 . S
C1125 O1126 1.264 . S
C1125 O1133 1.249 . S
O1126 C1125 1.264 . S
O1127 Mg1120 1.986 . S
O1127 C1131 1.246 . S
O1128 Mg1123 2.032 . S
O1128 C1131 1.259 . S
O1129 Mg1120 2.114 . S
O1129 C1132 1.252 . S
O1130 Mg1120 2.251 . S
O1130 Mg1123 2.079 . S
O1130 C1132 1.273 . S
C1131 O1127 1.246 . S
C1131 O1128 1.259 . S
C1132 O1129 1.252 . S
C1132 O1130 1.273 . S
O1133 Mg1120 2.010 . S
O1133 C1125 1.249 . S
Mg1134 O1135 2.028 . S
Mg1134 O1141 1.986 . S
Mg1134 O1143 2.114 . S
Mg1134 O1144 2.251 . S
Mg1134 O1147 2.010 . S
O1135 Mg1134 2.028 . S
O1135 C1138 1.250 . S
O1136 Mg1137 2.028 . S
O1136 C1138 1.248 . S
Mg1137 O1136 2.028 . S
Mg1137 O1142 2.032 . S
Mg1137 O1144 2.079 . S
C1138 O1135 1.250 . S
C1138 O1136 1.248 . S
C1139 O1140 1.264 . S
C1139 O1147 1.249 . S
O1140 C1139 1.264 . S
O1141 Mg1134 1.986 . S
O1141 C1145 1.246 . S
O1142 Mg1137 2.032 . S
O1142 C1145 1.259 . S
O1143 Mg1134 2.114 . S
O1143 C1146 1.252 . S
O1144 Mg1134 2.251 . S
O1144 Mg1137 2.079 . S
O1144 C1146 1.273 . S
C1145 O1141 1.246 . S
C1145 O1142 1.259 . S
C1146 O1143 1.252 . S
C1146 O1144 1.273 . S
O1147 Mg1134 2.010 . S
O1147 C1139 1.249 . S
Mg1148 O1149 2.028 . S
Mg1148 O1155 1.986 . S
Mg1148 O1157 2.114 . S
Mg1148 O1158 2.251 . S
Mg1148 O1161 2.010 . S
O1149 Mg1148 2.028 . S
O1149 C1152 1.250 . S
O1150 Mg1151 2.028 . S
O1150 C1152 1.248 . S
Mg1151 O1150 2.028 . S
Mg1151 O1156 2.032 . S
Mg1151 O1158 2.079 . S
C1152 O1149 1.250 . S
C1152 O1150 1.248 . S
C1153 O1154 1.264 . S
C1153 O1161 1.249 . S
O1154 C1153 1.264 . S
O1155 Mg1148 1.986 . S
O1155 C1159 1.246 . S
O1156 Mg1151 2.032 . S
O1156 C1159 1.259 . S
O1157 Mg1148 2.114 . S
O1157 C1160 1.252 . S
O1158 Mg1148 2.251 . S
O1158 Mg1151 2.079 . S
O1158 C1160 1.273 . S
C1159 O1155 1.246 . S
C1159 O1156 1.259 . S
C1160 O1157 1.252 . S
C1160 O1158 1.273 . S
O1161 Mg1148 2.010 . S
O1161 C1153 1.249 . S
Mg1162 O1163 2.028 . S
Mg1162 O1169 1.986 . S
Mg1162 O1171 2.114 . S
Mg1162 O1172 2.251 . S
Mg1162 O1175 2.010 . S
O1163 Mg1162 2.028 . S
O1163 C1166 1.250 . S
O1164 Mg1165 2.028 . S
O1164 C1166 1.248 . S
Mg1165 O1164 2.028 . S
Mg1165 O1170 2.032 . S
Mg1165 O1172 2.079 . S
C1166 O1163 1.250 . S
C1166 O1164 1.248 . S
C1167 O1168 1.264 . S
C1167 O1175 1.249 . S
O1168 C1167 1.264 . S
O1169 Mg1162 1.986 . S
O1169 C1173 1.246 . S
O1170 Mg1165 2.032 . S
O1170 C1173 1.259 . S
O1171 Mg1162 2.114 . S
O1171 C1174 1.252 . S
O1172 Mg1162 2.251 . S
O1172 Mg1165 2.079 . S
O1172 C1174 1.273 . S
C1173 O1169 1.246 . S
C1173 O1170 1.259 . S
C1174 O1171 1.252 . S
C1174 O1172 1.273 . S
O1175 Mg1162 2.010 . S
O1175 C1167 1.249 . S
Mg1176 O1177 2.028 . S
Mg1176 O1183 1.986 . S
Mg1176 O1185 2.114 . S
Mg1176 O1186 2.251 . S
Mg1176 O1189 2.010 . S
O1177 Mg1176 2.028 . S
O1177 C1180 1.250 . S
O1178 Mg1179 2.028 . S
O1178 C1180 1.248 . S
Mg1179 O1178 2.028 . S
Mg1179 O1184 2.032 . S
Mg1179 O1186 2.079 . S
C1180 O1177 1.250 . S
C1180 O1178 1.248 . S
C1181 O1182 1.264 . S
C1181 O1189 1.249 . S
O1182 C1181 1.264 . S
O1183 Mg1176 1.986 . S
O1183 C1187 1.246 . S
O1184 Mg1179 2.032 . S
O1184 C1187 1.259 . S
O1185 Mg1176 2.114 . S
O1185 C1188 1.252 . S
O1186 Mg1176 2.251 . S
O1186 Mg1179 2.079 . S
O1186 C1188 1.273 . S
C1187 O1183 1.246 . S
C1187 O1184 1.259 . S
C1188 O1185 1.252 . S
C1188 O1186 1.273 . S
O1189 Mg1176 2.010 . S
O1189 C1181 1.249 . S
Mg1190 O1191 2.028 . S
Mg1190 O1197 1.986 . S
Mg1190 O1199 2.114 . S
Mg1190 O1200 2.251 . S
Mg1190 O1203 2.010 . S
O1191 Mg1190 2.028 . S
O1191 C1194 1.250 . S
O1192 Mg1193 2.028 . S
O1192 C1194 1.248 . S
Mg1193 O1192 2.028 . S
Mg1193 O1198 2.032 . S
Mg1193 O1200 2.079 . S
C1194 O1191 1.250 . S
C1194 O1192 1.248 . S
C1195 O1196 1.264 . S
C1195 O1203 1.249 . S
O1196 C1195 1.264 . S
O1197 Mg1190 1.986 . S
O1197 C1201 1.246 . S
O1198 Mg1193 2.032 . S
O1198 C1201 1.259 . S
O1199 Mg1190 2.114 . S
O1199 C1202 1.252 . S
O1200 Mg1190 2.251 . S
O1200 Mg1193 2.079 . S
O1200 C1202 1.273 . S
C1201 O1197 1.246 . S
C1201 O1198 1.259 . S
C1202 O1199 1.252 . S
C1202 O1200 1.273 . S
O1203 Mg1190 2.010 . S
O1203 C1195 1.249 . S
Mg1204 O1205 2.028 . S
Mg1204 O1211 1.986 . S
Mg1204 O1213 2.114 . S
Mg1204 O1214 2.251 . S
Mg1204 O1217 2.010 . S
O1205 Mg1204 2.028 . S
O1205 C1208 1.250 . S
O1206 Mg1207 2.028 . S
O1206 C1208 1.248 . S
Mg1207 O1206 2.028 . S
Mg1207 O1212 2.032 . S
Mg1207 O1214 2.079 . S
C1208 O1205 1.250 . S
C1208 O1206 1.248 . S
C1209 O1210 1.264 . S
C1209 O1217 1.249 . S
O1210 C1209 1.264 . S
O1211 Mg1204 1.986 . S
O1211 C1215 1.246 . S
O1212 Mg1207 2.032 . S
O1212 C1215 1.259 . S
O1213 Mg1204 2.114 . S
O1213 C1216 1.252 . S
O1214 Mg1204 2.251 . S
O1214 Mg1207 2.079 . S
O1214 C1216 1.273 . S
C1215 O1211 1.246 . S
C1215 O1212 1.259 . S
C1216 O1213 1.252 . S
C1216 O1214 1.273 . S
O1217 Mg1204 2.010 . S
O1217 C1209 1.249 . S
Mg1218 O1219 2.028 . S
Mg1218 O1225 1.986 . S
Mg1218 O1227 2.114 . S
Mg1218 O1228 2.251 . S
Mg1218 O1231 2.010 . S
O1219 Mg1218 2.028 . S
O1219 C1222 1.250 . S
O1220 Mg1221 2.028 . S
O1220 C1222 1.248 . S
Mg1221 O1220 2.028 . S
Mg1221 O1226 2.032 . S
Mg1221 O1228 2.079 . S
C1222 O1219 1.250 . S
C1222 O1220 1.248 . S
C1223 O1224 1.264 . S
C1223 O1231 1.249 . S
O1224 C1223 1.264 . S
O1225 Mg1218 1.986 . S
O1225 C1229 1.246 . S
O1226 Mg1221 2.032 . S
O1226 C1229 1.259 . S
O1227 Mg1218 2.114 . S
O1227 C1230 1.252 . S
O1228 Mg1218 2.251 . S
O1228 Mg1221 2.079 . S
O1228 C1230 1.273 . S
C1229 O1225 1.246 . S
C1229 O1226 1.259 . S
C1230 O1227 1.252 . S
C1230 O1228 1.273 . S
O1231 Mg1218 2.010 . S
O1231 C1223 1.249 . S
Mg1232 O1233 2.028 . S
Mg1232 O1239 1.986 . S
Mg1232 O1241 2.114 . S
Mg1232 O1242 2.251 . S
Mg1232 O1245 2.010 . S
O1233 Mg1232 2.028 . S
O1233 C1236 1.250 . S
O1234 Mg1235 2.028 . S
O1234 C1236 1.248 . S
Mg1235 O1234 2.028 . S
Mg1235 O1240 2.032 . S
Mg1235 O1242 2.079 . S
C1236 O1233 1.250 . S
C1236 O1234 1.248 . S
C1237 O1238 1.264 . S
C1237 O1245 1.249 . S
O1238 C1237 1.264 . S
O1239 Mg1232 1.986 . S
O1239 C1243 1.246 . S
O1240 Mg1235 2.032 . S
O1240 C1243 1.259 . S
O1241 Mg1232 2.114 . S
O1241 C1244 1.252 . S
O1242 Mg1232 2.251 . S
O1242 Mg1235 2.079 . S
O1242 C1244 1.273 . S
C1243 O1239 1.246 . S
C1243 O1240 1.259 . S
C1244 O1241 1.252 . S
C1244 O1242 1.273 . S
O1245 Mg1232 2.010 . S
O1245 C1237 1.249 . S
Mg1246 O1247 2.028 . S
Mg1246 O1253 1.986 . S
Mg1246 O1255 2.114 . S
Mg1246 O1256 2.251 . S
Mg1246 O1259 2.010 . S
O1247 Mg1246 2.028 . S
O1247 C1250 1.250 . S
O1248 Mg1249 2.028 . S
O1248 C1250 1.248 . S
Mg1249 O1248 2.028 . S
Mg1249 O1254 2.032 . S
Mg1249 O1256 2.079 . S
C1250 O1247 1.250 . S
C1250 O1248 1.248 . S
C1251 O1252 1.264 . S
C1251 O1259 1.249 . S
O1252 C1251 1.264 . S
O1253 Mg1246 1.986 . S
O1253 C1257 1.246 . S
O1254 Mg1249 2.032 . S
O1254 C1257 1.259 . S
O1255 Mg1246 2.114 . S
O1255 C1258 1.252 . S
O1256 Mg1246 2.251 . S
O1256 Mg1249 2.079 . S
O1256 C1258 1.273 . S
C1257 O1253 1.246 . S
C1257 O1254 1.259 . S
C1258 O1255 1.252 . S
C1258 O1256 1.273 . S
O1259 Mg1246 2.010 . S
O1259 C1251 1.249 . S
Mg1260 O1261 2.028 . S
Mg1260 O1267 1.986 . S
Mg1260 O1269 2.114 . S
Mg1260 O1270 2.251 . S
Mg1260 O1273 2.010 . S
O1261 Mg1260 2.028 . S
O1261 C1264 1.250 . S
O1262 Mg1263 2.028 . S
O1262 C1264 1.248 . S
Mg1263 O1262 2.028 . S
Mg1263 O1268 2.032 . S
Mg1263 O1270 2.079 . S
C1264 O1261 1.250 . S
C1264 O1262 1.248 . S
C1265 O1266 1.264 . S
C1265 O1273 1.249 . S
O1266 C1265 1.264 . S
O1267 Mg1260 1.986 . S
O1267 C1271 1.246 . S
O1268 Mg1263 2.032 . S
O1268 C1271 1.259 . S
O1269 Mg1260 2.114 . S
O1269 C1272 1.252 . S
O1270 Mg1260 2.251 . S
O1270 Mg1263 2.079 . S
O1270 C1272 1.273 . S
C1271 O1267 1.246 . S
C1271 O1268 1.259 . S
C1272 O1269 1.252 . S
C1272 O1270 1.273 . S
O1273 Mg1260 2.010 . S
O1273 C1265 1.249 . S
Mg1274 O1275 2.028 . S
Mg1274 O1281 1.986 . S
Mg1274 O1283 2.114 . S
Mg1274 O1284 2.251 . S
Mg1274 O1287 2.010 . S
O1275 Mg1274 2.028 . S
O1275 C1278 1.250 . S
O1276 Mg1277 2.028 . S
O1276 C1278 1.248 . S
Mg1277 O1276 2.028 . S
Mg1277 O1282 2.032 . S
Mg1277 O1284 2.079 . S
C1278 O1275 1.250 . S
C1278 O1276 1.248 . S
C1279 O1280 1.264 . S
C1279 O1287 1.249 . S
O1280 C1279 1.264 . S
O1281 Mg1274 1.986 . S
O1281 C1285 1.246 . S
O1282 Mg1277 2.032 . S
O1282 C1285 1.259 . S
O1283 Mg1274 2.114 . S
O1283 C1286 1.252 . S
O1284 Mg1274 2.251 . S
O1284 Mg1277 2.079 . S
O1284 C1286 1.273 . S
C1285 O1281 1.246 . S
C1285 O1282 1.259 . S
C1286 O1283 1.252 . S
C1286 O1284 1.273 . S
O1287 Mg1274 2.010 . S
O1287 C1279 1.249 . S
Mg1288 O1289 2.028 . S
Mg1288 O1295 1.986 . S
Mg1288 O1297 2.114 . S
Mg1288 O1298 2.251 . S
Mg1288 O1301 2.010 . S
O1289 Mg1288 2.028 . S
O1289 C1292 1.250 . S
O1290 Mg1291 2.028 . S
O1290 C1292 1.248 . S
Mg1291 O1290 2.028 . S
Mg1291 O1296 2.032 . S
Mg1291 O1298 2.079 . S
C1292 O1289 1.250 . S
C1292 O1290 1.248 . S
C1293 O1294 1.264 . S
C1293 O1301 1.249 . S
O1294 C1293 1.264 . S
O1295 Mg1288 1.986 . S
O1295 C1299 1.246 . S
O1296 Mg1291 2.032 . S
O1296 C1299 1.259 . S
O1297 Mg1288 2.114 . S
O1297 C1300 1.252 . S
O1298 Mg1288 2.251 . S
O1298 Mg1291 2.079 . S
O1298 C1300 1.273 . S
C1299 O1295 1.246 . S
C1299 O1296 1.259 . S
C1300 O1297 1.252 . S
C1300 O1298 1.273 . S
O1301 Mg1288 2.010 . S
O1301 C1293 1.249 . S
Mg1302 O1303 2.028 . S
Mg1302 O1309 1.986 . S
Mg1302 O1311 2.114 . S
Mg1302 O1312 2.251 . S
Mg1302 O1315 2.010 . S
O1303 Mg1302 2.028 . S
O1303 C1306 1.250 . S
O1304 Mg1305 2.028 . S
O1304 C1306 1.248 . S
Mg1305 O1304 2.028 . S
Mg1305 O1310 2.032 . S
Mg1305 O1312 2.079 . S
C1306 O1303 1.250 . S
C1306 O1304 1.248 . S
C1307 O1308 1.264 . S
C1307 O1315 1.249 . S
O1308 C1307 1.264 . S
O1309 Mg1302 1.986 . S
O1309 C1313 1.246 . S
O1310 Mg1305 2.032 . S
O1310 C1313 1.259 . S
O1311 Mg1302 2.114 . S
O1311 C1314 1.252 . S
O1312 Mg1302 2.251 . S
O1312 Mg1305 2.079 . S
O1312 C1314 1.273 . S
C1313 O1309 1.246 . S
C1313 O1310 1.259 . S
C1314 O1311 1.252 . S
C1314 O1312 1.273 . S
O1315 Mg1302 2.010 . S
O1315 C1307 1.249 . S
Mg1316 O1317 2.028 . S
Mg1316 O1323 1.986 . S
Mg1316 O1325 2.114 . S
Mg1316 O1326 2.251 . S
Mg1316 O1329 2.010 . S
O1317 Mg1316 2.028 . S
O1317 C1320 1.250 . S
O1318 Mg1319 2.028 . S
O1318 C1320 1.248 . S
Mg1319 O1318 2.028 . S
Mg1319 O1324 2.032 . S
Mg1319 O1326 2.079 . S
C1320 O1317 1.250 . S
C1320 O1318 1.248 . S
C1321 O1322 1.264 . S
C1321 O1329 1.249 . S
O1322 C1321 1.264 . S
O1323 Mg1316 1.986 . S
O1323 C1327 1.246 . S
O1324 Mg1319 2.032 . S
O1324 C1327 1.259 . S
O1325 Mg1316 2.114 . S
O1325 C1328 1.252 . S
O1326 Mg1316 2.251 . S
O1326 Mg1319 2.079 . S
O1326 C1328 1.273 . S
C1327 O1323 1.246 . S
C1327 O1324 1.259 . S
C1328 O1325 1.252 . S
C1328 O1326 1.273 . S
O1329 Mg1316 2.010 . S
O1329 C1321 1.249 . S
Mg1330 O1331 2.028 . S
Mg1330 O1337 1.986 . S
Mg1330 O1339 2.114 . S
Mg1330 O1340 2.251 . S
Mg1330 O1343 2.010 . S
O1331 Mg1330 2.028 . S
O1331 C1334 1.250 . S
O1332 Mg1333 2.028 . S
O1332 C1334 1.248 . S
Mg1333 O1332 2.028 . S
Mg1333 O1338 2.032 . S
Mg1333 O1340 2.079 . S
C1334 O1331 1.250 . S
C1334 O1332 1.248 . S
C1335 O1336 1.264 . S
C1335 O1343 1.249 . S
O1336 C1335 1.264 . S
O1337 Mg1330 1.986 . S
O1337 C1341 1.246 . S
O1338 Mg1333 2.032 . S
O1338 C1341 1.259 . S
O1339 Mg1330 2.114 . S
O1339 C1342 1.252 . S
O1340 Mg1330 2.251 . S
O1340 Mg1333 2.079 . S
O1340 C1342 1.273 . S
C1341 O1337 1.246 . S
C1341 O1338 1.259 . S
C1342 O1339 1.252 . S
C1342 O1340 1.273 . S
O1343 Mg1330 2.010 . S
O1343 C1335 1.249 . S
C1344 C1345 1.387 . S
C1344 H1348 0.950 . S
C1344 C1353 1.390 . S
C1345 C1344 1.387 . S
C1345 C1347 1.387 . S
H1346 C1353 0.950 . S
C1347 C1345 1.387 . S
C1347 C1349 1.390 . S
C1347 H1351 0.950 . S
H1348 C1344 0.950 . S
C1349 C1347 1.390 . S
C1349 C1350 1.387 . S
C1349 H1352 0.950 . S
C1350 C1349 1.387 . S
C1350 C1353 1.387 . S
H1351 C1347 0.950 . S
H1352 C1349 0.950 . S
C1353 C1344 1.390 . S
C1353 H1346 0.950 . S
C1353 C1350 1.387 . S
C1354 C1355 1.387 . S
C1354 H1358 0.950 . S
C1354 C1363 1.390 . S
C1355 C1354 1.387 . S
C1355 C1357 1.387 . S
H1356 C1363 0.950 . S
C1357 C1355 1.387 . S
C1357 C1359 1.390 . S
C1357 H1361 0.950 . S
H1358 C1354 0.950 . S
C1359 C1357 1.390 . S
C1359 C1360 1.387 . S
C1359 H1362 0.950 . S
C1360 C1359 1.387 . S
C1360 C1363 1.387 . S
H1361 C1357 0.950 . S
H1362 C1359 0.950 . S
C1363 C1354 1.390 . S
C1363 H1356 0.950 . S
C1363 C1360 1.387 . S
C1364 C1365 1.387 . S
C1364 H1368 0.950 . S
C1364 C1373 1.390 . S
C1365 C1364 1.387 . S
C1365 C1367 1.387 . S
H1366 C1373 0.950 . S
C1367 C1365 1.387 . S
C1367 C1369 1.390 . S
C1367 H1371 0.950 . S
H1368 C1364 0.950 . S
C1369 C1367 1.390 . S
C1369 C1370 1.387 . S
C1369 H1372 0.950 . S
C1370 C1369 1.387 . S
C1370 C1373 1.387 . S
H1371 C1367 0.950 . S
H1372 C1369 0.950 . S
C1373 C1364 1.390 . S
C1373 H1366 0.950 . S
C1373 C1370 1.387 . S
C1374 C1375 1.387 . S
C1374 H1378 0.950 . S
C1374 C1383 1.390 . S
C1375 C1374 1.387 . S
C1375 C1377 1.387 . S
H1376 C1383 0.950 . S
C1377 C1375 1.387 . S
C1377 C1379 1.390 . S
C1377 H1381 0.950 . S
H1378 C1374 0.950 . S
C1379 C1377 1.390 . S
C1379 C1380 1.387 . S
C1379 H1382 0.950 . S
C1380 C1379 1.387 . S
C1380 C1383 1.387 . S
H1381 C1377 0.950 . S
H1382 C1379 0.950 . S
C1383 C1374 1.390 . S
C1383 H1376 0.950 . S
C1383 C1380 1.387 . S
C1384 C1385 1.387 . S
C1384 H1388 0.950 . S
C1384 C1393 1.390 . S
C1385 C1384 1.387 . S
C1385 C1387 1.387 . S
H1386 C1393 0.950 . S
C1387 C1385 1.387 . S
C1387 C1389 1.390 . S
C1387 H1391 0.950 . S
H1388 C1384 0.950 . S
C1389 C1387 1.390 . S
C1389 C1390 1.387 . S
C1389 H1392 0.950 . S
C1390 C1389 1.387 . S
C1390 C1393 1.387 . S
H1391 C1387 0.950 . S
H1392 C1389 0.950 . S
C1393 C1384 1.390 . S
C1393 H1386 0.950 . S
C1393 C1390 1.387 . S
C1394 C1395 1.387 . S
C1394 H1398 0.950 . S
C1394 C1403 1.390 . S
C1395 C1394 1.387 . S
C1395 C1397 1.387 . S
H1396 C1403 0.950 . S
C1397 C1395 1.387 . S
C1397 C1399 1.390 . S
C1397 H1401 0.950 . S
H1398 C1394 0.950 . S
C1399 C1397 1.390 . S
C1399 C1400 1.387 . S
C1399 H1402 0.950 . S
C1400 C1399 1.387 . S
C1400 C1403 1.387 . S
H1401 C1397 0.950 . S
H1402 C1399 0.950 . S
C1403 C1394 1.390 . S
C1403 H1396 0.950 . S
C1403 C1400 1.387 . S
C1404 C1405 1.387 . S
C1404 H1408 0.950 . S
C1404 C1413 1.390 . S
C1405 C1404 1.387 . S
C1405 C1407 1.387 . S
H1406 C1413 0.950 . S
C1407 C1405 1.387 . S
C1407 C1409 1.390 . S
C1407 H1411 0.950 . S
H1408 C1404 0.950 . S
C1409 C1407 1.390 . S
C1409 C1410 1.387 . S
C1409 H1412 0.950 . S
C1410 C1409 1.387 . S
C1410 C1413 1.387 . S
H1411 C1407 0.950 . S
H1412 C1409 0.950 . S
C1413 C1404 1.390 . S
C1413 H1406 0.950 . S
C1413 C1410 1.387 . S
C1414 C1415 1.387 . S
C1414 H1418 0.950 . S
C1414 C1423 1.390 . S
C1415 C1414 1.387 . S
C1415 C1417 1.387 . S
H1416 C1423 0.950 . S
C1417 C1415 1.387 . S
C1417 C1419 1.390 . S
C1417 H1421 0.950 . S
H1418 C1414 0.950 . S
C1419 C1417 1.390 . S
C1419 C1420 1.387 . S
C1419 H1422 0.950 . S
C1420 C1419 1.387 . S
C1420 C1423 1.387 . S
H1421 C1417 0.950 . S
H1422 C1419 0.950 . S
C1423 C1414 1.390 . S
C1423 H1416 0.950 . S
C1423 C1420 1.387 . S
C1424 C1425 1.387 . S
C1424 H1428 0.950 . S
C1424 C1433 1.390 . S
C1425 C1424 1.387 . S
C1425 C1427 1.387 . S
H1426 C1433 0.950 . S
C1427 C1425 1.387 . S
C1427 C1429 1.390 . S
C1427 H1431 0.950 . S
H1428 C1424 0.950 . S
C1429 C1427 1.390 . S
C1429 C1430 1.387 . S
C1429 H1432 0.950 . S
C1430 C1429 1.387 . S
C1430 C1433 1.387 . S
H1431 C1427 0.950 . S
H1432 C1429 0.950 . S
C1433 C1424 1.390 . S
C1433 H1426 0.950 . S
C1433 C1430 1.387 . S
C1434 C1435 1.387 . S
C1434 H1438 0.950 . S
C1434 C1443 1.390 . S
C1435 C1434 1.387 . S
C1435 C1437 1.387 . S
H1436 C1443 0.950 . S
C1437 C1435 1.387 . S
C1437 C1439 1.390 . S
C1437 H1441 0.950 . S
H1438 C1434 0.950 . S
C1439 C1437 1.390 . S
C1439 C1440 1.387 . S
C1439 H1442 0.950 . S
C1440 C1439 1.387 . S
C1440 C1443 1.387 . S
H1441 C1437 0.950 . S
H1442 C1439 0.950 . S
C1443 C1434 1.390 . S
C1443 H1436 0.950 . S
C1443 C1440 1.387 . S
C1444 C1445 1.387 . S
C1444 H1448 0.950 . S
C1444 C1453 1.390 . S
C1445 C1444 1.387 . S
C1445 C1447 1.387 . S
H1446 C1453 0.950 . S
C1447 C1445 1.387 . S
C1447 C1449 1.390 . S
C1447 H1451 0.950 . S
H1448 C1444 0.950 . S
C1449 C1447 1.390 . S
C1449 C1450 1.387 . S
C1449 H1452 0.950 . S
C1450 C1449 1.387 . S
C1450 C1453 1.387 . S
H1451 C1447 0.950 . S
H1452 C1449 0.950 . S
C1453 C1444 1.390 . S
C1453 H1446 0.950 . S
C1453 C1450 1.387 . S
C1454 C1455 1.387 . S
C1454 H1458 0.950 . S
C1454 C1463 1.390 . S
C1455 C1454 1.387 . S
C1455 C1457 1.387 . S
H1456 C1463 0.950 . S
C1457 C1455 1.387 . S
C1457 C1459 1.390 . S
C1457 H1461 0.950 . S
H1458 C1454 0.950 . S
C1459 C1457 1.390 . S
C1459 C1460 1.387 . S
C1459 H1462 0.950 . S
C1460 C1459 1.387 . S
C1460 C1463 1.387 . S
H1461 C1457 0.950 . S
H1462 C1459 0.950 . S
C1463 C1454 1.390 . S
C1463 H1456 0.950 . S
C1463 C1460 1.387 . S
C1464 C1465 1.387 . S
C1464 H1468 0.950 . S
C1464 C1473 1.390 . S
C1465 C1464 1.387 . S
C1465 C1467 1.387 . S
H1466 C1473 0.950 . S
C1467 C1465 1.387 . S
C1467 C1469 1.390 . S
C1467 H1471 0.950 . S
H1468 C1464 0.950 . S
C1469 C1467 1.390 . S
C1469 C1470 1.387 . S
C1469 H1472 0.950 . S
C1470 C1469 1.387 . S
C1470 C1473 1.387 . S
H1471 C1467 0.950 . S
H1472 C1469 0.950 . S
C1473 C1464 1.390 . S
C1473 H1466 0.950 . S
C1473 C1470 1.387 . S
C1474 C1475 1.387 . S
C1474 H1478 0.950 . S
C1474 C1483 1.390 . S
C1475 C1474 1.387 . S
C1475 C1477 1.387 . S
H1476 C1483 0.950 . S
C1477 C1475 1.387 . S
C1477 C1479 1.390 . S
C1477 H1481 0.950 . S
H1478 C1474 0.950 . S
C1479 C1477 1.390 . S
C1479 C1480 1.387 . S
C1479 H1482 0.950 . S
C1480 C1479 1.387 . S
C1480 C1483 1.387 . S
H1481 C1477 0.950 . S
H1482 C1479 0.950 . S
C1483 C1474 1.390 . S
C1483 H1476 0.950 . S
C1483 C1480 1.387 . S
C1484 C1485 1.387 . S
C1484 H1488 0.950 . S
C1484 C1493 1.390 . S
C1485 C1484 1.387 . S
C1485 C1487 1.387 . S
H1486 C1493 0.950 . S
C1487 C1485 1.387 . S
C1487 C1489 1.390 . S
C1487 H1491 0.950 . S
H1488 C1484 0.950 . S
C1489 C1487 1.390 . S
C1489 C1490 1.387 . S
C1489 H1492 0.950 . S
C1490 C1489 1.387 . S
C1490 C1493 1.387 . S
H1491 C1487 0.950 . S
H1492 C1489 0.950 . S
C1493 C1484 1.390 . S
C1493 H1486 0.950 . S
C1493 C1490 1.387 . S
C1494 C1495 1.387 . S
C1494 H1498 0.950 . S
C1494 C1503 1.390 . S
C1495 C1494 1.387 . S
C1495 C1497 1.387 . S
H1496 C1503 0.950 . S
C1497 C1495 1.387 . S
C1497 C1499 1.390 . S
C1497 H1501 0.950 . S
H1498 C1494 0.950 . S
C1499 C1497 1.390 . S
C1499 C1500 1.387 . S
C1499 H1502 0.950 . S
C1500 C1499 1.387 . S
C1500 C1503 1.387 . S
H1501 C1497 0.950 . S
H1502 C1499 0.950 . S
C1503 C1494 1.390 . S
C1503 H1496 0.950 . S
C1503 C1500 1.387 . S
C1504 C1505 1.387 . S
C1504 H1508 0.950 . S
C1504 C1513 1.390 . S
C1505 C1504 1.387 . S
C1505 C1507 1.387 . S
H1506 C1513 0.950 . S
C1507 C1505 1.387 . S
C1507 C1509 1.390 . S
C1507 H1511 0.950 . S
H1508 C1504 0.950 . S
C1509 C1507 1.390 . S
C1509 C1510 1.387 . S
C1509 H1512 0.950 . S
C1510 C1509 1.387 . S
C1510 C1513 1.387 . S
H1511 C1507 0.950 . S
H1512 C1509 0.950 . S
C1513 C1504 1.390 . S
C1513 H1506 0.950 . S
C1513 C1510 1.387 . S
C1514 C1515 1.387 . S
C1514 H1518 0.950 . S
C1514 C1523 1.390 . S
C1515 C1514 1.387 . S
C1515 C1517 1.387 . S
H1516 C1523 0.950 . S
C1517 C1515 1.387 . S
C1517 C1519 1.390 . S
C1517 H1521 0.950 . S
H1518 C1514 0.950 . S
C1519 C1517 1.390 . S
C1519 C1520 1.387 . S
C1519 H1522 0.950 . S
C1520 C1519 1.387 . S
C1520 C1523 1.387 . S
H1521 C1517 0.950 . S
H1522 C1519 0.950 . S
C1523 C1514 1.390 . S
C1523 H1516 0.950 . S
C1523 C1520 1.387 . S
C1524 C1525 1.387 . S
C1524 H1528 0.950 . S
C1524 C1533 1.390 . S
C1525 C1524 1.387 . S
C1525 C1527 1.387 . S
H1526 C1533 0.950 . S
C1527 C1525 1.387 . S
C1527 C1529 1.390 . S
C1527 H1531 0.950 . S
H1528 C1524 0.950 . S
C1529 C1527 1.390 . S
C1529 C1530 1.387 . S
C1529 H1532 0.950 . S
C1530 C1529 1.387 . S
C1530 C1533 1.387 . S
H1531 C1527 0.950 . S
H1532 C1529 0.950 . S
C1533 C1524 1.390 . S
C1533 H1526 0.950 . S
C1533 C1530 1.387 . S
C1534 C1535 1.387 . S
C1534 H1538 0.950 . S
C1534 C1543 1.390 . S
C1535 C1534 1.387 . S
C1535 C1537 1.387 . S
H1536 C1543 0.950 . S
C1537 C1535 1.387 . S
C1537 C1539 1.390 . S
C1537 H1541 0.950 . S
H1538 C1534 0.950 . S
C1539 C1537 1.390 . S
C1539 C1540 1.387 . S
C1539 H1542 0.950 . S
C1540 C1539 1.387 . S
C1540 C1543 1.387 . S
H1541 C1537 0.950 . S
H1542 C1539 0.950 . S
C1543 C1534 1.390 . S
C1543 H1536 0.950 . S
C1543 C1540 1.387 . S
C1544 C1545 1.387 . S
C1544 H1548 0.950 . S
C1544 C1553 1.390 . S
C1545 C1544 1.387 . S
C1545 C1547 1.387 . S
H1546 C1553 0.950 . S
C1547 C1545 1.387 . S
C1547 C1549 1.390 . S
C1547 H1551 0.950 . S
H1548 C1544 0.950 . S
C1549 C1547 1.390 . S
C1549 C1550 1.387 . S
C1549 H1552 0.950 . S
C1550 C1549 1.387 . S
C1550 C1553 1.387 . S
H1551 C1547 0.950 . S
H1552 C1549 0.950 . S
C1553 C1544 1.390 . S
C1553 H1546 0.950 . S
C1553 C1550 1.387 . S
C1554 C1555 1.387 . S
C1554 H1558 0.950 . S
C1554 C1563 1.390 . S
C1555 C1554 1.387 . S
C1555 C1557 1.387 . S
H1556 C1563 0.950 . S
C1557 C1555 1.387 . S
C1557 C1559 1.390 . S
C1557 H1561 0.950 . S
H1558 C1554 0.950 . S
C1559 C1557 1.390 . S
C1559 C1560 1.387 . S
C1559 H1562 0.950 . S
C1560 C1559 1.387 . S
C1560 C1563 1.387 . S
H1561 C1557 0.950 . S
H1562 C1559 0.950 . S
C1563 C1554 1.390 . S
C1563 H1556 0.950 . S
C1563 C1560 1.387 . S
C1564 C1565 1.387 . S
C1564 H1568 0.950 . S
C1564 C1573 1.390 . S
C1565 C1564 1.387 . S
C1565 C1567 1.387 . S
H1566 C1573 0.950 . S
C1567 C1565 1.387 . S
C1567 C1569 1.390 . S
C1567 H1571 0.950 . S
H1568 C1564 0.950 . S
C1569 C1567 1.390 . S
C1569 C1570 1.387 . S
C1569 H1572 0.950 . S
C1570 C1569 1.387 . S
C1570 C1573 1.387 . S
H1571 C1567 0.950 . S
H1572 C1569 0.950 . S
C1573 C1564 1.390 . S
C1573 H1566 0.950 . S
C1573 C1570 1.387 . S
C1574 C1575 1.387 . S
C1574 H1578 0.950 . S
C1574 C1583 1.390 . S
C1575 C1574 1.387 . S
C1575 C1577 1.387 . S
H1576 C1583 0.950 . S
C1577 C1575 1.387 . S
C1577 C1579 1.390 . S
C1577 H1581 0.950 . S
H1578 C1574 0.950 . S
C1579 C1577 1.390 . S
C1579 C1580 1.387 . S
C1579 H1582 0.950 . S
C1580 C1579 1.387 . S
C1580 C1583 1.387 . S
H1581 C1577 0.950 . S
H1582 C1579 0.950 . S
C1583 C1574 1.390 . S
C1583 H1576 0.950 . S
C1583 C1580 1.387 . S
C1584 C1585 1.387 . S
C1584 H1588 0.950 . S
C1584 C1593 1.390 . S
C1585 C1584 1.387 . S
C1585 C1587 1.387 . S
H1586 C1593 0.950 . S
C1587 C1585 1.387 . S
C1587 C1589 1.390 . S
C1587 H1591 0.950 . S
H1588 C1584 0.950 . S
C1589 C1587 1.390 . S
C1589 C1590 1.387 . S
C1589 H1592 0.950 . S
C1590 C1589 1.387 . S
C1590 C1593 1.387 . S
H1591 C1587 0.950 . S
H1592 C1589 0.950 . S
C1593 C1584 1.390 . S
C1593 H1586 0.950 . S
C1593 C1590 1.387 . S
C1594 C1595 1.387 . S
C1594 H1598 0.950 . S
C1594 C1603 1.390 . S
C1595 C1594 1.387 . S
C1595 C1597 1.387 . S
H1596 C1603 0.950 . S
C1597 C1595 1.387 . S
C1597 C1599 1.390 . S
C1597 H1601 0.950 . S
H1598 C1594 0.950 . S
C1599 C1597 1.390 . S
C1599 C1600 1.387 . S
C1599 H1602 0.950 . S
C1600 C1599 1.387 . S
C1600 C1603 1.387 . S
H1601 C1597 0.950 . S
H1602 C1599 0.950 . S
C1603 C1594 1.390 . S
C1603 H1596 0.950 . S
C1603 C1600 1.387 . S
C1604 C1605 1.387 . S
C1604 H1608 0.950 . S
C1604 C1613 1.390 . S
C1605 C1604 1.387 . S
C1605 C1607 1.387 . S
H1606 C1613 0.950 . S
C1607 C1605 1.387 . S
C1607 C1609 1.390 . S
C1607 H1611 0.950 . S
H1608 C1604 0.950 . S
C1609 C1607 1.390 . S
C1609 C1610 1.387 . S
C1609 H1612 0.950 . S
C1610 C1609 1.387 . S
C1610 C1613 1.387 . S
H1611 C1607 0.950 . S
H1612 C1609 0.950 . S
C1613 C1604 1.390 . S
C1613 H1606 0.950 . S
C1613 C1610 1.387 . S
C1614 C1615 1.387 . S
C1614 H1618 0.950 . S
C1614 C1623 1.390 . S
C1615 C1614 1.387 . S
C1615 C1617 1.387 . S
H1616 C1623 0.950 . S
C1617 C1615 1.387 . S
C1617 C1619 1.390 . S
C1617 H1621 0.950 . S
H1618 C1614 0.950 . S
C1619 C1617 1.390 . S
C1619 C1620 1.387 . S
C1619 H1622 0.950 . S
C1620 C1619 1.387 . S
C1620 C1623 1.387 . S
H1621 C1617 0.950 . S
H1622 C1619 0.950 . S
C1623 C1614 1.390 . S
C1623 H1616 0.950 . S
C1623 C1620 1.387 . S
C1624 C1625 1.387 . S
C1624 H1628 0.950 . S
C1624 C1633 1.390 . S
C1625 C1624 1.387 . S
C1625 C1627 1.387 . S
H1626 C1633 0.950 . S
C1627 C1625 1.387 . S
C1627 C1629 1.390 . S
C1627 H1631 0.950 . S
H1628 C1624 0.950 . S
C1629 C1627 1.390 . S
C1629 C1630 1.387 . S
C1629 H1632 0.950 . S
C1630 C1629 1.387 . S
C1630 C1633 1.387 . S
H1631 C1627 0.950 . S
H1632 C1629 0.950 . S
C1633 C1624 1.390 . S
C1633 H1626 0.950 . S
C1633 C1630 1.387 . S
C1634 C1635 1.387 . S
C1634 H1638 0.950 . S
C1634 C1643 1.390 . S
C1635 C1634 1.387 . S
C1635 C1637 1.387 . S
H1636 C1643 0.950 . S
C1637 C1635 1.387 . S
C1637 C1639 1.390 . S
C1637 H1641 0.950 . S
H1638 C1634 0.950 . S
C1639 C1637 1.390 . S
C1639 C1640 1.387 . S
C1639 H1642 0.950 . S
C1640 C1639 1.387 . S
C1640 C1643 1.387 . S
H1641 C1637 0.950 . S
H1642 C1639 0.950 . S
C1643 C1634 1.390 . S
C1643 H1636 0.950 . S
C1643 C1640 1.387 . S
C1644 C1645 1.387 . S
C1644 H1648 0.950 . S
C1644 C1653 1.390 . S
C1645 C1644 1.387 . S
C1645 C1647 1.387 . S
H1646 C1653 0.950 . S
C1647 C1645 1.387 . S
C1647 C1649 1.390 . S
C1647 H1651 0.950 . S
H1648 C1644 0.950 . S
C1649 C1647 1.390 . S
C1649 C1650 1.387 . S
C1649 H1652 0.950 . S
C1650 C1649 1.387 . S
C1650 C1653 1.387 . S
H1651 C1647 0.950 . S
H1652 C1649 0.950 . S
C1653 C1644 1.390 . S
C1653 H1646 0.950 . S
C1653 C1650 1.387 . S
C1654 C1655 1.387 . S
C1654 H1658 0.950 . S
C1654 C1663 1.390 . S
C1655 C1654 1.387 . S
C1655 C1657 1.387 . S
H1656 C1663 0.950 . S
C1657 C1655 1.387 . S
C1657 C1659 1.390 . S
C1657 H1661 0.950 . S
H1658 C1654 0.950 . S
C1659 C1657 1.390 . S
C1659 C1660 1.387 . S
C1659 H1662 0.950 . S
C1660 C1659 1.387 . S
C1660 C1663 1.387 . S
H1661 C1657 0.950 . S
H1662 C1659 0.950 . S
C1663 C1654 1.390 . S
C1663 H1656 0.950 . S
C1663 C1660 1.387 . S
C1664 C1665 1.387 . S
C1664 H1668 0.950 . S
C1664 C1673 1.390 . S
C1665 C1664 1.387 . S
C1665 C1667 1.387 . S
H1666 C1673 0.950 . S
C1667 C1665 1.387 . S
C1667 C1669 1.390 . S
C1667 H1671 0.950 . S
H1668 C1664 0.950 . S
C1669 C1667 1.390 . S
C1669 C1670 1.387 . S
C1669 H1672 0.950 . S
C1670 C1669 1.387 . S
C1670 C1673 1.387 . S
H1671 C1667 0.950 . S
H1672 C1669 0.950 . S
C1673 C1664 1.390 . S
C1673 H1666 0.950 . S
C1673 C1670 1.387 . S
C1674 C1675 1.387 . S
C1674 H1678 0.950 . S
C1674 C1683 1.390 . S
C1675 C1674 1.387 . S
C1675 C1677 1.387 . S
H1676 C1683 0.950 . S
C1677 C1675 1.387 . S
C1677 C1679 1.390 . S
C1677 H1681 0.950 . S
H1678 C1674 0.950 . S
C1679 C1677 1.390 . S
C1679 C1680 1.387 . S
C1679 H1682 0.950 . S
C1680 C1679 1.387 . S
C1680 C1683 1.387 . S
H1681 C1677 0.950 . S
H1682 C1679 0.950 . S
C1683 C1674 1.390 . S
C1683 H1676 0.950 . S
C1683 C1680 1.387 . S
C1684 C1685 1.387 . S
C1684 H1688 0.950 . S
C1684 C1693 1.390 . S
C1685 C1684 1.387 . S
C1685 C1687 1.387 . S
H1686 C1693 0.950 . S
C1687 C1685 1.387 . S
C1687 C1689 1.390 . S
C1687 H1691 0.950 . S
H1688 C1684 0.950 . S
C1689 C1687 1.390 . S
C1689 C1690 1.387 . S
C1689 H1692 0.950 . S
C1690 C1689 1.387 . S
C1690 C1693 1.387 . S
H1691 C1687 0.950 . S
H1692 C1689 0.950 . S
C1693 C1684 1.390 . S
C1693 H1686 0.950 . S
C1693 C1690 1.387 . S
C1694 C1695 1.387 . S
C1694 H1698 0.950 . S
C1694 C1703 1.390 . S
C1695 C1694 1.387 . S
C1695 C1697 1.387 . S
H1696 C1703 0.950 . S
C1697 C1695 1.387 . S
C1697 C1699 1.390 . S
C1697 H1701 0.950 . S
H1698 C1694 0.950 . S
C1699 C1697 1.390 . S
C1699 C1700 1.387 . S
C1699 H1702 0.950 . S
C1700 C1699 1.387 . S
C1700 C1703 1.387 . S
H1701 C1697 0.950 . S
H1702 C1699 0.950 . S
C1703 C1694 1.390 . S
C1703 H1696 0.950 . S
C1703 C1700 1.387 . S
C1704 C1705 1.387 . S
C1704 H1708 0.950 . S
C1704 C1713 1.390 . S
C1705 C1704 1.387 . S
C1705 C1707 1.387 . S
H1706 C1713 0.950 . S
C1707 C1705 1.387 . S
C1707 C1709 1.390 . S
C1707 H1711 0.950 . S
H1708 C1704 0.950 . S
C1709 C1707 1.390 . S
C1709 C1710 1.387 . S
C1709 H1712 0.950 . S
C1710 C1709 1.387 . S
C1710 C1713 1.387 . S
H1711 C1707 0.950 . S
H1712 C1709 0.950 . S
C1713 C1704 1.390 . S
C1713 H1706 0.950 . S
C1713 C1710 1.387 . S
C1714 C1715 1.387 . S
C1714 H1718 0.950 . S
C1714 C1723 1.390 . S
C1715 C1714 1.387 . S
C1715 C1717 1.387 . S
H1716 C1723 0.950 . S
C1717 C1715 1.387 . S
C1717 C1719 1.390 . S
C1717 H1721 0.950 . S
H1718 C1714 0.950 . S
C1719 C1717 1.390 . S
C1719 C1720 1.387 . S
C1719 H1722 0.950 . S
C1720 C1719 1.387 . S
C1720 C1723 1.387 . S
H1721 C1717 0.950 . S
H1722 C1719 0.950 . S
C1723 C1714 1.390 . S
C1723 H1716 0.950 . S
C1723 C1720 1.387 . S
C1724 C1725 1.387 . S
C1724 H1728 0.950 . S
C1724 C1733 1.390 . S
C1725 C1724 1.387 . S
C1725 C1727 1.387 . S
H1726 C1733 0.950 . S
C1727 C1725 1.387 . S
C1727 C1729 1.390 . S
C1727 H1731 0.950 . S
H1728 C1724 0.950 . S
C1729 C1727 1.390 . S
C1729 C1730 1.387 . S
C1729 H1732 0.950 . S
C1730 C1729 1.387 . S
C1730 C1733 1.387 . S
H1731 C1727 0.950 . S
H1732 C1729 0.950 . S
C1733 C1724 1.390 . S
C1733 H1726 0.950 . S
C1733 C1730 1.387 . S
C1734 C1735 1.387 . S
C1734 H1738 0.950 . S
C1734 C1743 1.390 . S
C1735 C1734 1.387 . S
C1735 C1737 1.387 . S
H1736 C1743 0.950 . S
C1737 C1735 1.387 . S
C1737 C1739 1.390 . S
C1737 H1741 0.950 . S
H1738 C1734 0.950 . S
C1739 C1737 1.390 . S
C1739 C1740 1.387 . S
C1739 H1742 0.950 . S
C1740 C1739 1.387 . S
C1740 C1743 1.387 . S
H1741 C1737 0.950 . S
H1742 C1739 0.950 . S
C1743 C1734 1.390 . S
C1743 H1736 0.950 . S
C1743 C1740 1.387 . S
C1744 C1745 1.387 . S
C1744 H1748 0.950 . S
C1744 C1753 1.390 . S
C1745 C1744 1.387 . S
C1745 C1747 1.387 . S
H1746 C1753 0.950 . S
C1747 C1745 1.387 . S
C1747 C1749 1.390 . S
C1747 H1751 0.950 . S
H1748 C1744 0.950 . S
C1749 C1747 1.390 . S
C1749 C1750 1.387 . S
C1749 H1752 0.950 . S
C1750 C1749 1.387 . S
C1750 C1753 1.387 . S
H1751 C1747 0.950 . S
H1752 C1749 0.950 . S
C1753 C1744 1.390 . S
C1753 H1746 0.950 . S
C1753 C1750 1.387 . S
C1754 C1755 1.387 . S
C1754 H1758 0.950 . S
C1754 C1763 1.390 . S
C1755 C1754 1.387 . S
C1755 C1757 1.387 . S
H1756 C1763 0.950 . S
C1757 C1755 1.387 . S
C1757 C1759 1.390 . S
C1757 H1761 0.950 . S
H1758 C1754 0.950 . S
C1759 C1757 1.390 . S
C1759 C1760 1.387 . S
C1759 H1762 0.950 . S
C1760 C1759 1.387 . S
C1760 C1763 1.387 . S
H1761 C1757 0.950 . S
H1762 C1759 0.950 . S
C1763 C1754 1.390 . S
C1763 H1756 0.950 . S
C1763 C1760 1.387 . S
C1764 C1765 1.387 . S
C1764 H1768 0.950 . S
C1764 C1773 1.390 . S
C1765 C1764 1.387 . S
C1765 C1767 1.387 . S
H1766 C1773 0.950 . S
C1767 C1765 1.387 . S
C1767 C1769 1.390 . S
C1767 H1771 0.950 . S
H1768 C1764 0.950 . S
C1769 C1767 1.390 . S
C1769 C1770 1.387 . S
C1769 H1772 0.950 . S
C1770 C1769 1.387 . S
C1770 C1773 1.387 . S
H1771 C1767 0.950 . S
H1772 C1769 0.950 . S
C1773 C1764 1.390 . S
C1773 H1766 0.950 . S
C1773 C1770 1.387 . S
C1774 C1775 1.387 . S
C1774 H1778 0.950 . S
C1774 C1783 1.390 . S
C1775 C1774 1.387 . S
C1775 C1777 1.387 . S
H1776 C1783 0.950 . S
C1777 C1775 1.387 . S
C1777 C1779 1.390 . S
C1777 H1781 0.950 . S
H1778 C1774 0.950 . S
C1779 C1777 1.390 . S
C1779 C1780 1.387 . S
C1779 H1782 0.950 . S
C1780 C1779 1.387 . S
C1780 C1783 1.387 . S
H1781 C1777 0.950 . S
H1782 C1779 0.950 . S
C1783 C1774 1.390 . S
C1783 H1776 0.950 . S
C1783 C1780 1.387 . S
C1784 C1785 1.387 . S
C1784 H1788 0.950 . S
C1784 C1793 1.390 . S
C1785 C1784 1.387 . S
C1785 C1787 1.387 . S
H1786 C1793 0.950 . S
C1787 C1785 1.387 . S
C1787 C1789 1.390 . S
C1787 H1791 0.950 . S
H1788 C1784 0.950 . S
C1789 C1787 1.390 . S
C1789 C1790 1.387 . S
C1789 H1792 0.950 . S
C1790 C1789 1.387 . S
C1790 C1793 1.387 . S
H1791 C1787 0.950 . S
H1792 C1789 0.950 . S
C1793 C1784 1.390 . S
C1793 H1786 0.950 . S
C1793 C1790 1.387 . S
C1794 C1795 1.387 . S
C1794 H1798 0.950 . S
C1794 C1803 1.390 . S
C1795 C1794 1.387 . S
C1795 C1797 1.387 . S
H1796 C1803 0.950 . S
C1797 C1795 1.387 . S
C1797 C1799 1.390 . S
C1797 H1801 0.950 . S
H1798 C1794 0.950 . S
C1799 C1797 1.390 . S
C1799 C1800 1.387 . S
C1799 H1802 0.950 . S
C1800 C1799 1.387 . S
C1800 C1803 1.387 . S
H1801 C1797 0.950 . S
H1802 C1799 0.950 . S
C1803 C1794 1.390 . S
C1803 H1796 0.950 . S
C1803 C1800 1.387 . S
C1804 C1805 1.387 . S
C1804 H1808 0.950 . S
C1804 C1813 1.390 . S
C1805 C1804 1.387 . S
C1805 C1807 1.387 . S
H1806 C1813 0.950 . S
C1807 C1805 1.387 . S
C1807 C1809 1.390 . S
C1807 H1811 0.950 . S
H1808 C1804 0.950 . S
C1809 C1807 1.390 . S
C1809 C1810 1.387 . S
C1809 H1812 0.950 . S
C1810 C1809 1.387 . S
C1810 C1813 1.387 . S
H1811 C1807 0.950 . S
H1812 C1809 0.950 . S
C1813 C1804 1.390 . S
C1813 H1806 0.950 . S
C1813 C1810 1.387 . S
C1814 C1815 1.387 . S
C1814 H1818 0.950 . S
C1814 C1823 1.390 . S
C1815 C1814 1.387 . S
C1815 C1817 1.387 . S
H1816 C1823 0.950 . S
C1817 C1815 1.387 . S
C1817 C1819 1.390 . S
C1817 H1821 0.950 . S
H1818 C1814 0.950 . S
C1819 C1817 1.390 . S
C1819 C1820 1.387 . S
C1819 H1822 0.950 . S
C1820 C1819 1.387 . S
C1820 C1823 1.387 . S
H1821 C1817 0.950 . S
H1822 C1819 0.950 . S
C1823 C1814 1.390 . S
C1823 H1816 0.950 . S
C1823 C1820 1.387 . S
C1824 C1825 1.387 . S
C1824 H1828 0.950 . S
C1824 C1833 1.390 . S
C1825 C1824 1.387 . S
C1825 C1827 1.387 . S
H1826 C1833 0.950 . S
C1827 C1825 1.387 . S
C1827 C1829 1.390 . S
C1827 H1831 0.950 . S
H1828 C1824 0.950 . S
C1829 C1827 1.390 . S
C1829 C1830 1.387 . S
C1829 H1832 0.950 . S
C1830 C1829 1.387 . S
C1830 C1833 1.387 . S
H1831 C1827 0.950 . S
H1832 C1829 0.950 . S
C1833 C1824 1.390 . S
C1833 H1826 0.950 . S
C1833 C1830 1.387 . S
C1834 C1835 1.387 . S
C1834 H1838 0.950 . S
C1834 C1843 1.390 . S
C1835 C1834 1.387 . S
C1835 C1837 1.387 . S
H1836 C1843 0.950 . S
C1837 C1835 1.387 . S
C1837 C1839 1.390 . S
C1837 H1841 0.950 . S
H1838 C1834 0.950 . S
C1839 C1837 1.390 . S
C1839 C1840 1.387 . S
C1839 H1842 0.950 . S
C1840 C1839 1.387 . S
C1840 C1843 1.387 . S
H1841 C1837 0.950 . S
H1842 C1839 0.950 . S
C1843 C1834 1.390 . S
C1843 H1836 0.950 . S
C1843 C1840 1.387 . S
C1844 C1845 1.387 . S
C1844 H1848 0.950 . S
C1844 C1853 1.390 . S
C1845 C1844 1.387 . S
C1845 C1847 1.387 . S
H1846 C1853 0.950 . S
C1847 C1845 1.387 . S
C1847 C1849 1.390 . S
C1847 H1851 0.950 . S
H1848 C1844 0.950 . S
C1849 C1847 1.390 . S
C1849 C1850 1.387 . S
C1849 H1852 0.950 . S
C1850 C1849 1.387 . S
C1850 C1853 1.387 . S
H1851 C1847 0.950 . S
H1852 C1849 0.950 . S
C1853 C1844 1.390 . S
C1853 H1846 0.950 . S
C1853 C1850 1.387 . S
C1854 C1855 1.387 . S
C1854 H1858 0.950 . S
C1854 C1863 1.390 . S
C1855 C1854 1.387 . S
C1855 C1857 1.387 . S
H1856 C1863 0.950 . S
C1857 C1855 1.387 . S
C1857 C1859 1.390 . S
C1857 H1861 0.950 . S
H1858 C1854 0.950 . S
C1859 C1857 1.390 . S
C1859 C1860 1.387 . S
C1859 H1862 0.950 . S
C1860 C1859 1.387 . S
C1860 C1863 1.387 . S
H1861 C1857 0.950 . S
H1862 C1859 0.950 . S
C1863 C1854 1.390 . S
C1863 H1856 0.950 . S
C1863 C1860 1.387 . S
C1864 C1865 1.387 . S
C1864 H1868 0.950 . S
C1864 C1873 1.390 . S
C1865 C1864 1.387 . S
C1865 C1867 1.387 . S
H1866 C1873 0.950 . S
C1867 C1865 1.387 . S
C1867 C1869 1.390 . S
C1867 H1871 0.950 . S
H1868 C1864 0.950 . S
C1869 C1867 1.390 . S
C1869 C1870 1.387 . S
C1869 H1872 0.950 . S
C1870 C1869 1.387 . S
C1870 C1873 1.387 . S
H1871 C1867 0.950 . S
H1872 C1869 0.950 . S
C1873 C1864 1.390 . S
C1873 H1866 0.950 . S
C1873 C1870 1.387 . S
C1874 C1875 1.387 . S
C1874 H1878 0.950 . S
C1874 C1883 1.390 . S
C1875 C1874 1.387 . S
C1875 C1877 1.387 . S
H1876 C1883 0.950 . S
C1877 C1875 1.387 . S
C1877 C1879 1.390 . S
C1877 H1881 0.950 . S
H1878 C1874 0.950 . S
C1879 C1877 1.390 . S
C1879 C1880 1.387 . S
C1879 H1882 0.950 . S
C1880 C1879 1.387 . S
C1880 C1883 1.387 . S
H1881 C1877 0.950 . S
H1882 C1879 0.950 . S
C1883 C1874 1.390 . S
C1883 H1876 0.950 . S
C1883 C1880 1.387 . S
C1884 C1885 1.387 . S
C1884 H1888 0.950 . S
C1884 C1893 1.390 . S
C1885 C1884 1.387 . S
C1885 C1887 1.387 . S
H1886 C1893 0.950 . S
C1887 C1885 1.387 . S
C1887 C1889 1.390 . S
C1887 H1891 0.950 . S
H1888 C1884 0.950 . S
C1889 C1887 1.390 . S
C1889 C1890 1.387 . S
C1889 H1892 0.950 . S
C1890 C1889 1.387 . S
C1890 C1893 1.387 . S
H1891 C1887 0.950 . S
H1892 C1889 0.950 . S
C1893 C1884 1.390 . S
C1893 H1886 0.950 . S
C1893 C1890 1.387 . S
C1894 C1895 1.387 . S
C1894 H1898 0.950 . S
C1894 C1903 1.390 . S
C1895 C1894 1.387 . S
C1895 C1897 1.387 . S
H1896 C1903 0.950 . S
C1897 C1895 1.387 . S
C1897 C1899 1.390 . S
C1897 H1901 0.950 . S
H1898 C1894 0.950 . S
C1899 C1897 1.390 . S
C1899 C1900 1.387 . S
C1899 H1902 0.950 . S
C1900 C1899 1.387 . S
C1900 C1903 1.387 . S
H1901 C1897 0.950 . S
H1902 C1899 0.950 . S
C1903 C1894 1.390 . S
C1903 H1896 0.950 . S
C1903 C1900 1.387 . S
C1904 C1905 1.387 . S
C1904 H1908 0.950 . S
C1904 C1913 1.390 . S
C1905 C1904 1.387 . S
C1905 C1907 1.387 . S
H1906 C1913 0.950 . S
C1907 C1905 1.387 . S
C1907 C1909 1.390 . S
C1907 H1911 0.950 . S
H1908 C1904 0.950 . S
C1909 C1907 1.390 . S
C1909 C1910 1.387 . S
C1909 H1912 0.950 . S
C1910 C1909 1.387 . S
C1910 C1913 1.387 . S
H1911 C1907 0.950 . S
H1912 C1909 0.950 . S
C1913 C1904 1.390 . S
C1913 H1906 0.950 . S
C1913 C1910 1.387 . S
C1914 C1915 1.387 . S
C1914 H1918 0.950 . S
C1914 C1923 1.390 . S
C1915 C1914 1.387 . S
C1915 C1917 1.387 . S
H1916 C1923 0.950 . S
C1917 C1915 1.387 . S
C1917 C1919 1.390 . S
C1917 H1921 0.950 . S
H1918 C1914 0.950 . S
C1919 C1917 1.390 . S
C1919 C1920 1.387 . S
C1919 H1922 0.950 . S
C1920 C1919 1.387 . S
C1920 C1923 1.387 . S
H1921 C1917 0.950 . S
H1922 C1919 0.950 . S
C1923 C1914 1.390 . S
C1923 H1916 0.950 . S
C1923 C1920 1.387 . S
C1924 C1925 1.387 . S
C1924 H1928 0.950 . S
C1924 C1933 1.390 . S
C1925 C1924 1.387 . S
C1925 C1927 1.387 . S
H1926 C1933 0.950 . S
C1927 C1925 1.387 . S
C1927 C1929 1.390 . S
C1927 H1931 0.950 . S
H1928 C1924 0.950 . S
C1929 C1927 1.390 . S
C1929 C1930 1.387 . S
C1929 H1932 0.950 . S
C1930 C1929 1.387 . S
C1930 C1933 1.387 . S
H1931 C1927 0.950 . S
H1932 C1929 0.950 . S
C1933 C1924 1.390 . S
C1933 H1926 0.950 . S
C1933 C1930 1.387 . S
C1934 C1935 1.387 . S
C1934 H1938 0.950 . S
C1934 C1943 1.390 . S
C1935 C1934 1.387 . S
C1935 C1937 1.387 . S
H1936 C1943 0.950 . S
C1937 C1935 1.387 . S
C1937 C1939 1.390 . S
C1937 H1941 0.950 . S
H1938 C1934 0.950 . S
C1939 C1937 1.390 . S
C1939 C1940 1.387 . S
C1939 H1942 0.950 . S
C1940 C1939 1.387 . S
C1940 C1943 1.387 . S
H1941 C1937 0.950 . S
H1942 C1939 0.950 . S
C1943 C1934 1.390 . S
C1943 H1936 0.950 . S
C1943 C1940 1.387 . S
C1944 C1945 1.387 . S
C1944 H1948 0.950 . S
C1944 C1953 1.390 . S
C1945 C1944 1.387 . S
C1945 C1947 1.387 . S
H1946 C1953 0.950 . S
C1947 C1945 1.387 . S
C1947 C1949 1.390 . S
C1947 H1951 0.950 . S
H1948 C1944 0.950 . S
C1949 C1947 1.390 . S
C1949 C1950 1.387 . S
C1949 H1952 0.950 . S
C1950 C1949 1.387 . S
C1950 C1953 1.387 . S
H1951 C1947 0.950 . S
H1952 C1949 0.950 . S
C1953 C1944 1.390 . S
C1953 H1946 0.950 . S
C1953 C1950 1.387 . S
C1954 C1955 1.387 . S
C1954 H1958 0.950 . S
C1954 C1963 1.390 . S
C1955 C1954 1.387 . S
C1955 C1957 1.387 . S
H1956 C1963 0.950 . S
C1957 C1955 1.387 . S
C1957 C1959 1.390 . S
C1957 H1961 0.950 . S
H1958 C1954 0.950 . S
C1959 C1957 1.390 . S
C1959 C1960 1.387 . S
C1959 H1962 0.950 . S
C1960 C1959 1.387 . S
C1960 C1963 1.387 . S
H1961 C1957 0.950 . S
H1962 C1959 0.950 . S
C1963 C1954 1.390 . S
C1963 H1956 0.950 . S
C1963 C1960 1.387 . S
C1964 C1965 1.387 . S
C1964 H1968 0.950 . S
C1964 C1973 1.390 . S
C1965 C1964 1.387 . S
C1965 C1967 1.387 . S
H1966 C1973 0.950 . S
C1967 C1965 1.387 . S
C1967 C1969 1.390 . S
C1967 H1971 0.950 . S
H1968 C1964 0.950 . S
C1969 C1967 1.390 . S
C1969 C1970 1.387 . S
C1969 H1972 0.950 . S
C1970 C1969 1.387 . S
C1970 C1973 1.387 . S
H1971 C1967 0.950 . S
H1972 C1969 0.950 . S
C1973 C1964 1.390 . S
C1973 H1966 0.950 . S
C1973 C1970 1.387 . S
C1974 C1975 1.387 . S
C1974 H1978 0.950 . S
C1974 C1983 1.390 . S
C1975 C1974 1.387 . S
C1975 C1977 1.387 . S
H1976 C1983 0.950 . S
C1977 C1975 1.387 . S
C1977 C1979 1.390 . S
C1977 H1981 0.950 . S
H1978 C1974 0.950 . S
C1979 C1977 1.390 . S
C1979 C1980 1.387 . S
C1979 H1982 0.950 . S
C1980 C1979 1.387 . S
C1980 C1983 1.387 . S
H1981 C1977 0.950 . S
H1982 C1979 0.950 . S
C1983 C1974 1.390 . S
C1983 H1976 0.950 . S
C1983 C1980 1.387 . S
C1984 C1985 1.387 . S
C1984 H1988 0.950 . S
C1984 C1993 1.390 . S
C1985 C1984 1.387 . S
C1985 C1987 1.387 . S
H1986 C1993 0.950 . S
C1987 C1985 1.387 . S
C1987 C1989 1.390 . S
C1987 H1991 0.950 . S
H1988 C1984 0.950 . S
C1989 C1987 1.390 . S
C1989 C1990 1.387 . S
C1989 H1992 0.950 . S
C1990 C1989 1.387 . S
C1990 C1993 1.387 . S
H1991 C1987 0.950 . S
H1992 C1989 0.950 . S
C1993 C1984 1.390 . S
C1993 H1986 0.950 . S
C1993 C1990 1.387 . S
C1994 C1995 1.387 . S
C1994 H1998 0.950 . S
C1994 C2003 1.390 . S
C1995 C1994 1.387 . S
C1995 C1997 1.387 . S
H1996 C2003 0.950 . S
C1997 C1995 1.387 . S
C1997 C1999 1.390 . S
C1997 H2001 0.950 . S
H1998 C1994 0.950 . S
C1999 C1997 1.390 . S
C1999 C2000 1.387 . S
C1999 H2002 0.950 . S
C2000 C1999 1.387 . S
C2000 C2003 1.387 . S
H2001 C1997 0.950 . S
H2002 C1999 0.950 . S
C2003 C1994 1.390 . S
C2003 H1996 0.950 . S
C2003 C2000 1.387 . S
C2004 C2005 1.387 . S
C2004 H2008 0.950 . S
C2004 C2013 1.390 . S
C2005 C2004 1.387 . S
C2005 C2007 1.387 . S
H2006 C2013 0.950 . S
C2007 C2005 1.387 . S
C2007 C2009 1.390 . S
C2007 H2011 0.950 . S
H2008 C2004 0.950 . S
C2009 C2007 1.390 . S
C2009 C2010 1.387 . S
C2009 H2012 0.950 . S
C2010 C2009 1.387 . S
C2010 C2013 1.387 . S
H2011 C2007 0.950 . S
H2012 C2009 0.950 . S
C2013 C2004 1.390 . S
C2013 H2006 0.950 . S
C2013 C2010 1.387 . S
C2014 C2015 1.387 . S
C2014 H2018 0.950 . S
C2014 C2023 1.390 . S
C2015 C2014 1.387 . S
C2015 C2017 1.387 . S
H2016 C2023 0.950 . S
C2017 C2015 1.387 . S
C2017 C2019 1.390 . S
C2017 H2021 0.950 . S
H2018 C2014 0.950 . S
C2019 C2017 1.390 . S
C2019 C2020 1.387 . S
C2019 H2022 0.950 . S
C2020 C2019 1.387 . S
C2020 C2023 1.387 . S
H2021 C2017 0.950 . S
H2022 C2019 0.950 . S
C2023 C2014 1.390 . S
C2023 H2016 0.950 . S
C2023 C2020 1.387 . S
C2024 C2025 1.387 . S
C2024 H2028 0.950 . S
C2024 C2033 1.390 . S
C2025 C2024 1.387 . S
C2025 C2027 1.387 . S
H2026 C2033 0.950 . S
C2027 C2025 1.387 . S
C2027 C2029 1.390 . S
C2027 H2031 0.950 . S
H2028 C2024 0.950 . S
C2029 C2027 1.390 . S
C2029 C2030 1.387 . S
C2029 H2032 0.950 . S
C2030 C2029 1.387 . S
C2030 C2033 1.387 . S
H2031 C2027 0.950 . S
H2032 C2029 0.950 . S
C2033 C2024 1.390 . S
C2033 H2026 0.950 . S
C2033 C2030 1.387 . S
C2034 C2035 1.387 . S
C2034 H2038 0.950 . S
C2034 C2043 1.390 . S
C2035 C2034 1.387 . S
C2035 C2037 1.387 . S
H2036 C2043 0.950 . S
C2037 C2035 1.387 . S
C2037 C2039 1.390 . S
C2037 H2041 0.950 . S
H2038 C2034 0.950 . S
C2039 C2037 1.390 . S
C2039 C2040 1.387 . S
C2039 H2042 0.950 . S
C2040 C2039 1.387 . S
C2040 C2043 1.387 . S
H2041 C2037 0.950 . S
H2042 C2039 0.950 . S
C2043 C2034 1.390 . S
C2043 H2036 0.950 . S
C2043 C2040 1.387 . S
C2044 C2045 1.387 . S
C2044 H2048 0.950 . S
C2044 C2053 1.390 . S
C2045 C2044 1.387 . S
C2045 C2047 1.387 . S
H2046 C2053 0.950 . S
C2047 C2045 1.387 . S
C2047 C2049 1.390 . S
C2047 H2051 0.950 . S
H2048 C2044 0.950 . S
C2049 C2047 1.390 . S
C2049 C2050 1.387 . S
C2049 H2052 0.950 . S
C2050 C2049 1.387 . S
C2050 C2053 1.387 . S
H2051 C2047 0.950 . S
H2052 C2049 0.950 . S
C2053 C2044 1.390 . S
C2053 H2046 0.950 . S
C2053 C2050 1.387 . S
C2054 C2055 1.387 . S
C2054 H2058 0.950 . S
C2054 C2063 1.390 . S
C2055 C2054 1.387 . S
C2055 C2057 1.387 . S
H2056 C2063 0.950 . S
C2057 C2055 1.387 . S
C2057 C2059 1.390 . S
C2057 H2061 0.950 . S
H2058 C2054 0.950 . S
C2059 C2057 1.390 . S
C2059 C2060 1.387 . S
C2059 H2062 0.950 . S
C2060 C2059 1.387 . S
C2060 C2063 1.387 . S
H2061 C2057 0.950 . S
H2062 C2059 0.950 . S
C2063 C2054 1.390 . S
C2063 H2056 0.950 . S
C2063 C2060 1.387 . S
C2064 C2065 1.387 . S
C2064 H2068 0.950 . S
C2064 C2073 1.390 . S
C2065 C2064 1.387 . S
C2065 C2067 1.387 . S
H2066 C2073 0.950 . S
C2067 C2065 1.387 . S
C2067 C2069 1.390 . S
C2067 H2071 0.950 . S
H2068 C2064 0.950 . S
C2069 C2067 1.390 . S
C2069 C2070 1.387 . S
C2069 H2072 0.950 . S
C2070 C2069 1.387 . S
C2070 C2073 1.387 . S
H2071 C2067 0.950 . S
H2072 C2069 0.950 . S
C2073 C2064 1.390 . S
C2073 H2066 0.950 . S
C2073 C2070 1.387 . S
C2074 C2075 1.387 . S
C2074 H2078 0.950 . S
C2074 C2083 1.390 . S
C2075 C2074 1.387 . S
C2075 C2077 1.387 . S
H2076 C2083 0.950 . S
C2077 C2075 1.387 . S
C2077 C2079 1.390 . S
C2077 H2081 0.950 . S
H2078 C2074 0.950 . S
C2079 C2077 1.390 . S
C2079 C2080 1.387 . S
C2079 H2082 0.950 . S
C2080 C2079 1.387 . S
C2080 C2083 1.387 . S
H2081 C2077 0.950 . S
H2082 C2079 0.950 . S
C2083 C2074 1.390 . S
C2083 H2076 0.950 . S
C2083 C2080 1.387 . S
C2084 C2085 1.387 . S
C2084 H2088 0.950 . S
C2084 C2093 1.390 . S
C2085 C2084 1.387 . S
C2085 C2087 1.387 . S
H2086 C2093 0.950 . S
C2087 C2085 1.387 . S
C2087 C2089 1.390 . S
C2087 H2091 0.950 . S
H2088 C2084 0.950 . S
C2089 C2087 1.390 . S
C2089 C2090 1.387 . S
C2089 H2092 0.950 . S
C2090 C2089 1.387 . S
C2090 C2093 1.387 . S
H2091 C2087 0.950 . S
H2092 C2089 0.950 . S
C2093 C2084 1.390 . S
C2093 H2086 0.950 . S
C2093 C2090 1.387 . S
C2094 C2095 1.387 . S
C2094 H2098 0.950 . S
C2094 C2103 1.390 . S
C2095 C2094 1.387 . S
C2095 C2097 1.387 . S
H2096 C2103 0.950 . S
C2097 C2095 1.387 . S
C2097 C2099 1.390 . S
C2097 H2101 0.950 . S
H2098 C2094 0.950 . S
C2099 C2097 1.390 . S
C2099 C2100 1.387 . S
C2099 H2102 0.950 . S
C2100 C2099 1.387 . S
C2100 C2103 1.387 . S
H2101 C2097 0.950 . S
H2102 C2099 0.950 . S
C2103 C2094 1.390 . S
C2103 H2096 0.950 . S
C2103 C2100 1.387 . S
C2104 C2105 1.387 . S
C2104 H2108 0.950 . S
C2104 C2113 1.390 . S
C2105 C2104 1.387 . S
C2105 C2107 1.387 . S
H2106 C2113 0.950 . S
C2107 C2105 1.387 . S
C2107 C2109 1.390 . S
C2107 H2111 0.950 . S
H2108 C2104 0.950 . S
C2109 C2107 1.390 . S
C2109 C2110 1.387 . S
C2109 H2112 0.950 . S
C2110 C2109 1.387 . S
C2110 C2113 1.387 . S
H2111 C2107 0.950 . S
H2112 C2109 0.950 . S
C2113 C2104 1.390 . S
C2113 H2106 0.950 . S
C2113 C2110 1.387 . S
C2114 C2115 1.387 . S
C2114 H2118 0.950 . S
C2114 C2123 1.390 . S
C2115 C2114 1.387 . S
C2115 C2117 1.387 . S
H2116 C2123 0.950 . S
C2117 C2115 1.387 . S
C2117 C2119 1.390 . S
C2117 H2121 0.950 . S
H2118 C2114 0.950 . S
C2119 C2117 1.390 . S
C2119 C2120 1.387 . S
C2119 H2122 0.950 . S
C2120 C2119 1.387 . S
C2120 C2123 1.387 . S
H2121 C2117 0.950 . S
H2122 C2119 0.950 . S
C2123 C2114 1.390 . S
C2123 H2116 0.950 . S
C2123 C2120 1.387 . S
C2124 C2125 1.387 . S
C2124 H2128 0.950 . S
C2124 C2133 1.390 . S
C2125 C2124 1.387 . S
C2125 C2127 1.387 . S
H2126 C2133 0.950 . S
C2127 C2125 1.387 . S
C2127 C2129 1.390 . S
C2127 H2131 0.950 . S
H2128 C2124 0.950 . S
C2129 C2127 1.390 . S
C2129 C2130 1.387 . S
C2129 H2132 0.950 . S
C2130 C2129 1.387 . S
C2130 C2133 1.387 . S
H2131 C2127 0.950 . S
H2132 C2129 0.950 . S
C2133 C2124 1.390 . S
C2133 H2126 0.950 . S
C2133 C2130 1.387 . S
C2134 C2135 1.387 . S
C2134 H2138 0.950 . S
C2134 C2143 1.390 . S
C2135 C2134 1.387 . S
C2135 C2137 1.387 . S
H2136 C2143 0.950 . S
C2137 C2135 1.387 . S
C2137 C2139 1.390 . S
C2137 H2141 0.950 . S
H2138 C2134 0.950 . S
C2139 C2137 1.390 . S
C2139 C2140 1.387 . S
C2139 H2142 0.950 . S
C2140 C2139 1.387 . S
C2140 C2143 1.387 . S
H2141 C2137 0.950 . S
H2142 C2139 0.950 . S
C2143 C2134 1.390 . S
C2143 H2136 0.950 . S
C2143 C2140 1.387 . S
C2144 C2145 1.387 . S
C2144 H2148 0.950 . S
C2144 C2153 1.390 . S
C2145 C2144 1.387 . S
C2145 C2147 1.387 . S
H2146 C2153 0.950 . S
C2147 C2145 1.387 . S
C2147 C2149 1.390 . S
C2147 H2151 0.950 . S
H2148 C2144 0.950 . S
C2149 C2147 1.390 . S
C2149 C2150 1.387 . S
C2149 H2152 0.950 . S
C2150 C2149 1.387 . S
C2150 C2153 1.387 . S
H2151 C2147 0.950 . S
H2152 C2149 0.950 . S
C2153 C2144 1.390 . S
C2153 H2146 0.950 . S
C2153 C2150 1.387 . S
C2154 C2155 1.387 . S
C2154 H2158 0.950 . S
C2154 C2163 1.390 . S
C2155 C2154 1.387 . S
C2155 C2157 1.387 . S
H2156 C2163 0.950 . S
C2157 C2155 1.387 . S
C2157 C2159 1.390 . S
C2157 H2161 0.950 . S
H2158 C2154 0.950 . S
C2159 C2157 1.390 . S
C2159 C2160 1.387 . S
C2159 H2162 0.950 . S
C2160 C2159 1.387 . S
C2160 C2163 1.387 . S
H2161 C2157 0.950 . S
H2162 C2159 0.950 . S
C2163 C2154 1.390 . S
C2163 H2156 0.950 . S
C2163 C2160 1.387 . S
C2164 C2165 1.387 . S
C2164 H2168 0.950 . S
C2164 C2173 1.390 . S
C2165 C2164 1.387 . S
C2165 C2167 1.387 . S
H2166 C2173 0.950 . S
C2167 C2165 1.387 . S
C2167 C2169 1.390 . S
C2167 H2171 0.950 . S
H2168 C2164 0.950 . S
C2169 C2167 1.390 . S
C2169 C2170 1.387 . S
C2169 H2172 0.950 . S
C2170 C2169 1.387 . S
C2170 C2173 1.387 . S
H2171 C2167 0.950 . S
H2172 C2169 0.950 . S
C2173 C2164 1.390 . S
C2173 H2166 0.950 . S
C2173 C2170 1.387 . S
C2174 C2175 1.387 . S
C2174 H2178 0.950 . S
C2174 C2183 1.390 . S
C2175 C2174 1.387 . S
C2175 C2177 1.387 . S
H2176 C2183 0.950 . S
C2177 C2175 1.387 . S
C2177 C2179 1.390 . S
C2177 H2181 0.950 . S
H2178 C2174 0.950 . S
C2179 C2177 1.390 . S
C2179 C2180 1.387 . S
C2179 H2182 0.950 . S
C2180 C2179 1.387 . S
C2180 C2183 1.387 . S
H2181 C2177 0.950 . S
H2182 C2179 0.950 . S
C2183 C2174 1.390 . S
C2183 H2176 0.950 . S
C2183 C2180 1.387 . S
C2184 C2185 1.387 . S
C2184 H2188 0.950 . S
C2184 C2193 1.390 . S
C2185 C2184 1.387 . S
C2185 C2187 1.387 . S
H2186 C2193 0.950 . S
C2187 C2185 1.387 . S
C2187 C2189 1.390 . S
C2187 H2191 0.950 . S
H2188 C2184 0.950 . S
C2189 C2187 1.390 . S
C2189 C2190 1.387 . S
C2189 H2192 0.950 . S
C2190 C2189 1.387 . S
C2190 C2193 1.387 . S
H2191 C2187 0.950 . S
H2192 C2189 0.950 . S
C2193 C2184 1.390 . S
C2193 H2186 0.950 . S
C2193 C2190 1.387 . S
C2194 C2195 1.387 . S
C2194 H2198 0.950 . S
C2194 C2203 1.390 . S
C2195 C2194 1.387 . S
C2195 C2197 1.387 . S
H2196 C2203 0.950 . S
C2197 C2195 1.387 . S
C2197 C2199 1.390 . S
C2197 H2201 0.950 . S
H2198 C2194 0.950 . S
C2199 C2197 1.390 . S
C2199 C2200 1.387 . S
C2199 H2202 0.950 . S
C2200 C2199 1.387 . S
C2200 C2203 1.387 . S
H2201 C2197 0.950 . S
H2202 C2199 0.950 . S
C2203 C2194 1.390 . S
C2203 H2196 0.950 . S
C2203 C2200 1.387 . S
C2204 C2205 1.387 . S
C2204 H2208 0.950 . S
C2204 C2213 1.390 . S
C2205 C2204 1.387 . S
C2205 C2207 1.387 . S
H2206 C2213 0.950 . S
C2207 C2205 1.387 . S
C2207 C2209 1.390 . S
C2207 H2211 0.950 . S
H2208 C2204 0.950 . S
C2209 C2207 1.390 . S
C2209 C2210 1.387 . S
C2209 H2212 0.950 . S
C2210 C2209 1.387 . S
C2210 C2213 1.387 . S
H2211 C2207 0.950 . S
H2212 C2209 0.950 . S
C2213 C2204 1.390 . S
C2213 H2206 0.950 . S
C2213 C2210 1.387 . S
C2214 C2215 1.387 . S
C2214 H2218 0.950 . S
C2214 C2223 1.390 . S
C2215 C2214 1.387 . S
C2215 C2217 1.387 . S
H2216 C2223 0.950 . S
C2217 C2215 1.387 . S
C2217 C2219 1.390 . S
C2217 H2221 0.950 . S
H2218 C2214 0.950 . S
C2219 C2217 1.390 . S
C2219 C2220 1.387 . S
C2219 H2222 0.950 . S
C2220 C2219 1.387 . S
C2220 C2223 1.387 . S
H2221 C2217 0.950 . S
H2222 C2219 0.950 . S
C2223 C2214 1.390 . S
C2223 H2216 0.950 . S
C2223 C2220 1.387 . S
C2224 C2225 1.387 . S
C2224 H2228 0.950 . S
C2224 C2233 1.390 . S
C2225 C2224 1.387 . S
C2225 C2227 1.387 . S
H2226 C2233 0.950 . S
C2227 C2225 1.387 . S
C2227 C2229 1.390 . S
C2227 H2231 0.950 . S
H2228 C2224 0.950 . S
C2229 C2227 1.390 . S
C2229 C2230 1.387 . S
C2229 H2232 0.950 . S
C2230 C2229 1.387 . S
C2230 C2233 1.387 . S
H2231 C2227 0.950 . S
H2232 C2229 0.950 . S
C2233 C2224 1.390 . S
C2233 H2226 0.950 . S
C2233 C2230 1.387 . S
C2234 C2235 1.387 . S
C2234 H2238 0.950 . S
C2234 C2243 1.390 . S
C2235 C2234 1.387 . S
C2235 C2237 1.387 . S
H2236 C2243 0.950 . S
C2237 C2235 1.387 . S
C2237 C2239 1.390 . S
C2237 H2241 0.950 . S
H2238 C2234 0.950 . S
C2239 C2237 1.390 . S
C2239 C2240 1.387 . S
C2239 H2242 0.950 . S
C2240 C2239 1.387 . S
C2240 C2243 1.387 . S
H2241 C2237 0.950 . S
H2242 C2239 0.950 . S
C2243 C2234 1.390 . S
C2243 H2236 0.950 . S
C2243 C2240 1.387 . S
C2244 C2245 1.387 . S
C2244 H2248 0.950 . S
C2244 C2253 1.390 . S
C2245 C2244 1.387 . S
C2245 C2247 1.387 . S
H2246 C2253 0.950 . S
C2247 C2245 1.387 . S
C2247 C2249 1.390 . S
C2247 H2251 0.950 . S
H2248 C2244 0.950 . S
C2249 C2247 1.390 . S
C2249 C2250 1.387 . S
C2249 H2252 0.950 . S
C2250 C2249 1.387 . S
C2250 C2253 1.387 . S
H2251 C2247 0.950 . S
H2252 C2249 0.950 . S
C2253 C2244 1.390 . S
C2253 H2246 0.950 . S
C2253 C2250 1.387 . S
C2254 C2255 1.387 . S
C2254 H2258 0.950 . S
C2254 C2263 1.390 . S
C2255 C2254 1.387 . S
C2255 C2257 1.387 . S
H2256 C2263 0.950 . S
C2257 C2255 1.387 . S
C2257 C2259 1.390 . S
C2257 H2261 0.950 . S
H2258 C2254 0.950 . S
C2259 C2257 1.390 . S
C2259 C2260 1.387 . S
C2259 H2262 0.950 . S
C2260 C2259 1.387 . S
C2260 C2263 1.387 . S
H2261 C2257 0.950 . S
H2262 C2259 0.950 . S
C2263 C2254 1.390 . S
C2263 H2256 0.950 . S
C2263 C2260 1.387 . S
C2264 C2265 1.387 . S
C2264 H2268 0.950 . S
C2264 C2273 1.390 . S
C2265 C2264 1.387 . S
C2265 C2267 1.387 . S
H2266 C2273 0.950 . S
C2267 C2265 1.387 . S
C2267 C2269 1.390 . S
C2267 H2271 0.950 . S
H2268 C2264 0.950 . S
C2269 C2267 1.390 . S
C2269 C2270 1.387 . S
C2269 H2272 0.950 . S
C2270 C2269 1.387 . S
C2270 C2273 1.387 . S
H2271 C2267 0.950 . S
H2272 C2269 0.950 . S
C2273 C2264 1.390 . S
C2273 H2266 0.950 . S
C2273 C2270 1.387 . S
C2274 C2275 1.387 . S
C2274 H2278 0.950 . S
C2274 C2283 1.390 . S
C2275 C2274 1.387 . S
C2275 C2277 1.387 . S
H2276 C2283 0.950 . S
C2277 C2275 1.387 . S
C2277 C2279 1.390 . S
C2277 H2281 0.950 . S
H2278 C2274 0.950 . S
C2279 C2277 1.390 . S
C2279 C2280 1.387 . S
C2279 H2282 0.950 . S
C2280 C2279 1.387 . S
C2280 C2283 1.387 . S
H2281 C2277 0.950 . S
H2282 C2279 0.950 . S
C2283 C2274 1.390 . S
C2283 H2276 0.950 . S
C2283 C2280 1.387 . S
C2284 C2285 1.387 . S
C2284 H2288 0.950 . S
C2284 C2293 1.390 . S
C2285 C2284 1.387 . S
C2285 C2287 1.387 . S
H2286 C2293 0.950 . S
C2287 C2285 1.387 . S
C2287 C2289 1.390 . S
C2287 H2291 0.950 . S
H2288 C2284 0.950 . S
C2289 C2287 1.390 . S
C2289 C2290 1.387 . S
C2289 H2292 0.950 . S
C2290 C2289 1.387 . S
C2290 C2293 1.387 . S
H2291 C2287 0.950 . S
H2292 C2289 0.950 . S
C2293 C2284 1.390 . S
C2293 H2286 0.950 . S
C2293 C2290 1.387 . S
C2294 C2295 1.387 . S
C2294 H2298 0.950 . S
C2294 C2303 1.390 . S
C2295 C2294 1.387 . S
C2295 C2297 1.387 . S
H2296 C2303 0.950 . S
C2297 C2295 1.387 . S
C2297 C2299 1.390 . S
C2297 H2301 0.950 . S
H2298 C2294 0.950 . S
C2299 C2297 1.390 . S
C2299 C2300 1.387 . S
C2299 H2302 0.950 . S
C2300 C2299 1.387 . S
C2300 C2303 1.387 . S
H2301 C2297 0.950 . S
H2302 C2299 0.950 . S
C2303 C2294 1.390 . S
C2303 H2296 0.950 . S
C2303 C2300 1.387 . S
C2304 C2305 1.387 . S
C2304 H2308 0.950 . S
C2304 C2313 1.390 1_455 S
C2305 C2304 1.387 . S
C2305 C2307 1.387 . S
H2306 C2313 0.950 . S
C2307 C2305 1.387 . S
C2307 C2309 1.390 1_455 S
C2307 H2311 0.950 . S
H2308 C2304 0.950 . S
C2309 C2307 1.390 1_655 S
C2309 C2310 1.387 . S
C2309 H2312 0.950 . S
C2310 C2309 1.387 . S
C2310 C2313 1.387 . S
H2311 C2307 0.950 . S
H2312 C2309 0.950 . S
C2313 C2304 1.390 1_655 S
C2313 H2306 0.950 . S
C2313 C2310 1.387 . S
C2314 C2315 1.387 . S
C2314 H2318 0.950 . S
C2314 C2323 1.390 1_565 S
C2315 C2314 1.387 . S
C2315 C2317 1.387 . S
H2316 C2323 0.950 . S
C2317 C2315 1.387 . S
C2317 C2319 1.390 1_565 S
C2317 H2321 0.950 . S
H2318 C2314 0.950 . S
C2319 C2317 1.390 1_545 S
C2319 C2320 1.387 . S
C2319 H2322 0.950 . S
C2320 C2319 1.387 . S
C2320 C2323 1.387 . S
H2321 C2317 0.950 . S
H2322 C2319 0.950 . S
C2323 C2314 1.390 1_545 S
C2323 H2316 0.950 . S
C2323 C2320 1.387 . S
C2324 C2325 1.387 . S
C2324 H2328 0.950 . S
C2324 C2333 1.390 1_655 S
C2325 C2324 1.387 . S
C2325 C2327 1.387 . S
H2326 C2333 0.950 . S
C2327 C2325 1.387 . S
C2327 C2329 1.390 1_655 S
C2327 H2331 0.950 . S
H2328 C2324 0.950 . S
C2329 C2327 1.390 1_455 S
C2329 C2330 1.387 . S
C2329 H2332 0.950 . S
C2330 C2329 1.387 . S
C2330 C2333 1.387 . S
H2331 C2327 0.950 . S
H2332 C2329 0.950 . S
C2333 C2324 1.390 1_455 S
C2333 H2326 0.950 . S
C2333 C2330 1.387 . S
C2334 C2335 1.387 . S
C2334 H2338 0.950 . S
C2334 C2343 1.390 1_545 S
C2335 C2334 1.387 . S
C2335 C2337 1.387 . S
H2336 C2343 0.950 . S
C2337 C2335 1.387 . S
C2337 C2339 1.390 1_545 S
C2337 H2341 0.950 . S
H2338 C2334 0.950 . S
C2339 C2337 1.390 1_565 S
C2339 C2340 1.387 . S
C2339 H2342 0.950 . S
C2340 C2339 1.387 . S
C2340 C2343 1.387 . S
H2341 C2337 0.950 . S
H2342 C2339 0.950 . S
C2343 C2334 1.390 1_565 S
C2343 H2336 0.950 . S
C2343 C2340 1.387 . S
C2344 C2345 1.387 . S
C2344 H2348 0.950 . S
C2344 C2353 1.390 1_455 S
C2345 C2344 1.387 . S
C2345 C2347 1.387 . S
H2346 C2353 0.950 . S
C2347 C2345 1.387 . S
C2347 C2349 1.390 1_455 S
C2347 H2351 0.950 . S
H2348 C2344 0.950 . S
C2349 C2347 1.390 1_655 S
C2349 C2350 1.387 . S
C2349 H2352 0.950 . S
C2350 C2349 1.387 . S
C2350 C2353 1.387 . S
H2351 C2347 0.950 . S
H2352 C2349 0.950 . S
C2353 C2344 1.390 1_655 S
C2353 H2346 0.950 . S
C2353 C2350 1.387 . S
C2354 C2355 1.387 . S
C2354 H2358 0.950 . S
C2354 C2363 1.390 1_545 S
C2355 C2354 1.387 . S
C2355 C2357 1.387 . S
H2356 C2363 0.950 . S
C2357 C2355 1.387 . S
C2357 C2359 1.390 1_545 S
C2357 H2361 0.950 . S
H2358 C2354 0.950 . S
C2359 C2357 1.390 1_565 S
C2359 C2360 1.387 . S
C2359 H2362 0.950 . S
C2360 C2359 1.387 . S
C2360 C2363 1.387 . S
H2361 C2357 0.950 . S
H2362 C2359 0.950 . S
C2363 C2354 1.390 1_565 S
C2363 H2356 0.950 . S
C2363 C2360 1.387 . S
C2364 C2365 1.387 . S
C2364 H2368 0.950 . S
C2364 C2373 1.390 1_655 S
C2365 C2364 1.387 . S
C2365 C2367 1.387 . S
H2366 C2373 0.950 . S
C2367 C2365 1.387 . S
C2367 C2369 1.390 1_655 S
C2367 H2371 0.950 . S
H2368 C2364 0.950 . S
C2369 C2367 1.390 1_455 S
C2369 C2370 1.387 . S
C2369 H2372 0.950 . S
C2370 C2369 1.387 . S
C2370 C2373 1.387 . S
H2371 C2367 0.950 . S
H2372 C2369 0.950 . S
C2373 C2364 1.390 1_455 S
C2373 H2366 0.950 . S
C2373 C2370 1.387 . S
C2374 C2375 1.387 . S
C2374 H2378 0.950 . S
C2374 C2383 1.390 1_545 S
C2375 C2374 1.387 . S
C2375 C2377 1.387 . S
H2376 C2383 0.950 . S
C2377 C2375 1.387 . S
C2377 C2379 1.390 1_545 S
C2377 H2381 0.950 . S
H2378 C2374 0.950 . S
C2379 C2377 1.390 1_565 S
C2379 C2380 1.387 . S
C2379 H2382 0.950 . S
C2380 C2379 1.387 . S
C2380 C2383 1.387 . S
H2381 C2377 0.950 . S
H2382 C2379 0.950 . S
C2383 C2374 1.390 1_565 S
C2383 H2376 0.950 . S
C2383 C2380 1.387 . S
C2384 C2385 1.387 . S
C2384 H2388 0.950 . S
C2384 C2393 1.390 1_565 S
C2385 C2384 1.387 . S
C2385 C2387 1.387 . S
H2386 C2393 0.950 . S
C2387 C2385 1.387 . S
C2387 C2389 1.390 1_565 S
C2387 H2391 0.950 . S
H2388 C2384 0.950 . S
C2389 C2387 1.390 1_545 S
C2389 C2390 1.387 . S
C2389 H2392 0.950 . S
C2390 C2389 1.387 . S
C2390 C2393 1.387 . S
H2391 C2387 0.950 . S
H2392 C2389 0.950 . S
C2393 C2384 1.390 1_545 S
C2393 H2386 0.950 . S
C2393 C2390 1.387 . S
C2394 C2395 1.387 . S
C2394 H2398 0.950 . S
C2394 C2403 1.390 1_655 S
C2395 C2394 1.387 . S
C2395 C2397 1.387 . S
H2396 C2403 0.950 . S
C2397 C2395 1.387 . S
C2397 C2399 1.390 1_655 S
C2397 H2401 0.950 . S
H2398 C2394 0.950 . S
C2399 C2397 1.390 1_455 S
C2399 C2400 1.387 . S
C2399 H2402 0.950 . S
C2400 C2399 1.387 . S
C2400 C2403 1.387 . S
H2401 C2397 0.950 . S
H2402 C2399 0.950 . S
C2403 C2394 1.390 1_455 S
C2403 H2396 0.950 . S
C2403 C2400 1.387 . S
C2404 C2405 1.387 . S
C2404 H2408 0.950 . S
C2404 C2413 1.390 1_565 S
C2405 C2404 1.387 . S
C2405 C2407 1.387 . S
H2406 C2413 0.950 . S
C2407 C2405 1.387 . S
C2407 C2409 1.390 1_565 S
C2407 H2411 0.950 . S
H2408 C2404 0.950 . S
C2409 C2407 1.390 1_545 S
C2409 C2410 1.387 . S
C2409 H2412 0.950 . S
C2410 C2409 1.387 . S
C2410 C2413 1.387 . S
H2411 C2407 0.950 . S
H2412 C2409 0.950 . S
C2413 C2404 1.390 1_545 S
C2413 H2406 0.950 . S
C2413 C2410 1.387 . S
C2414 C2415 1.387 . S
C2414 H2418 0.950 . S
C2414 C2423 1.390 1_455 S
C2415 C2414 1.387 . S
C2415 C2417 1.387 . S
H2416 C2423 0.950 . S
C2417 C2415 1.387 . S
C2417 C2419 1.390 1_455 S
C2417 H2421 0.950 . S
H2418 C2414 0.950 . S
C2419 C2417 1.390 1_655 S
C2419 C2420 1.387 . S
C2419 H2422 0.950 . S
C2420 C2419 1.387 . S
C2420 C2423 1.387 . S
H2421 C2417 0.950 . S
H2422 C2419 0.950 . S
C2423 C2414 1.390 1_655 S
C2423 H2416 0.950 . S
C2423 C2420 1.387 . S
C2424 C2425 1.387 . S
C2424 H2428 0.950 . S
C2424 C2433 1.390 1_565 S
C2425 C2424 1.387 . S
C2425 C2427 1.387 . S
H2426 C2433 0.950 . S
C2427 C2425 1.387 . S
C2427 C2429 1.390 1_565 S
C2427 H2431 0.950 . S
H2428 C2424 0.950 . S
C2429 C2427 1.390 1_545 S
C2429 C2430 1.387 . S
C2429 H2432 0.950 . S
C2430 C2429 1.387 . S
C2430 C2433 1.387 . S
H2431 C2427 0.950 . S
H2432 C2429 0.950 . S
C2433 C2424 1.390 1_545 S
C2433 H2426 0.950 . S
C2433 C2430 1.387 . S
C2434 C2435 1.387 . S
C2434 H2438 0.950 . S
C2434 C2443 1.390 1_455 S
C2435 C2434 1.387 . S
C2435 C2437 1.387 . S
H2436 C2443 0.950 . S
C2437 C2435 1.387 . S
C2437 C2439 1.390 1_455 S
C2437 H2441 0.950 . S
H2438 C2434 0.950 . S
C2439 C2437 1.390 1_655 S
C2439 C2440 1.387 . S
C2439 H2442 0.950 . S
C2440 C2439 1.387 . S
C2440 C2443 1.387 . S
H2441 C2437 0.950 . S
H2442 C2439 0.950 . S
C2443 C2434 1.390 1_655 S
C2443 H2436 0.950 . S
C2443 C2440 1.387 . S
C2444 C2445 1.387 . S
C2444 H2448 0.950 . S
C2444 C2453 1.390 1_545 S
C2445 C2444 1.387 . S
C2445 C2447 1.387 . S
H2446 C2453 0.950 . S
C2447 C2445 1.387 . S
C2447 C2449 1.390 1_545 S
C2447 H2451 0.950 . S
H2448 C2444 0.950 . S
C2449 C2447 1.390 1_565 S
C2449 C2450 1.387 . S
C2449 H2452 0.950 . S
C2450 C2449 1.387 . S
C2450 C2453 1.387 . S
H2451 C2447 0.950 . S
H2452 C2449 0.950 . S
C2453 C2444 1.390 1_565 S
C2453 H2446 0.950 . S
C2453 C2450 1.387 . S
C2454 C2455 1.387 . S
C2454 H2458 0.950 . S
C2454 C2463 1.390 1_655 S
C2455 C2454 1.387 . S
C2455 C2457 1.387 . S
H2456 C2463 0.950 . S
C2457 C2455 1.387 . S
C2457 C2459 1.390 1_655 S
C2457 H2461 0.950 . S
H2458 C2454 0.950 . S
C2459 C2457 1.390 1_455 S
C2459 C2460 1.387 . S
C2459 H2462 0.950 . S
C2460 C2459 1.387 . S
C2460 C2463 1.387 . S
H2461 C2457 0.950 . S
H2462 C2459 0.950 . S
C2463 C2454 1.390 1_455 S
C2463 H2456 0.950 . S
C2463 C2460 1.387 . S
C2464 C2465 1.387 . S
C2464 H2468 0.950 . S
C2464 C2473 1.390 1_554 S
C2465 C2464 1.387 . S
C2465 C2467 1.387 . S
H2466 C2473 0.950 . S
C2467 C2465 1.387 . S
C2467 C2469 1.390 1_554 S
C2467 H2471 0.950 . S
H2468 C2464 0.950 . S
C2469 C2467 1.390 1_556 S
C2469 C2470 1.387 . S
C2469 H2472 0.950 . S
C2470 C2469 1.387 . S
C2470 C2473 1.387 . S
H2471 C2467 0.950 . S
H2472 C2469 0.950 . S
C2473 C2464 1.390 1_556 S
C2473 H2466 0.950 . S
C2473 C2470 1.387 . S
C2474 C2475 1.387 . S
C2474 H2478 0.950 . S
C2474 C2483 1.390 1_556 S
C2475 C2474 1.387 . S
C2475 C2477 1.387 . S
H2476 C2483 0.950 . S
C2477 C2475 1.387 . S
C2477 C2479 1.390 1_556 S
C2477 H2481 0.950 . S
H2478 C2474 0.950 . S
C2479 C2477 1.390 1_554 S
C2479 C2480 1.387 . S
C2479 H2482 0.950 . S
C2480 C2479 1.387 . S
C2480 C2483 1.387 . S
H2481 C2477 0.950 . S
H2482 C2479 0.950 . S
C2483 C2474 1.390 1_554 S
C2483 H2476 0.950 . S
C2483 C2480 1.387 . S
C2484 C2485 1.387 . S
C2484 H2488 0.950 . S
C2484 C2493 1.390 1_554 S
C2485 C2484 1.387 . S
C2485 C2487 1.387 . S
H2486 C2493 0.950 . S
C2487 C2485 1.387 . S
C2487 C2489 1.390 1_554 S
C2487 H2491 0.950 . S
H2488 C2484 0.950 . S
C2489 C2487 1.390 1_556 S
C2489 C2490 1.387 . S
C2489 H2492 0.950 . S
C2490 C2489 1.387 . S
C2490 C2493 1.387 . S
H2491 C2487 0.950 . S
H2492 C2489 0.950 . S
C2493 C2484 1.390 1_556 S
C2493 H2486 0.950 . S
C2493 C2490 1.387 . S
C2494 C2495 1.387 . S
C2494 H2498 0.950 . S
C2494 C2503 1.390 1_556 S
C2495 C2494 1.387 . S
C2495 C2497 1.387 . S
H2496 C2503 0.950 . S
C2497 C2495 1.387 . S
C2497 C2499 1.390 1_556 S
C2497 H2501 0.950 . S
H2498 C2494 0.950 . S
C2499 C2497 1.390 1_554 S
C2499 C2500 1.387 . S
C2499 H2502 0.950 . S
C2500 C2499 1.387 . S
C2500 C2503 1.387 . S
H2501 C2497 0.950 . S
H2502 C2499 0.950 . S
C2503 C2494 1.390 1_554 S
C2503 H2496 0.950 . S
C2503 C2500 1.387 . S
C2504 C2505 1.387 . S
C2504 H2508 0.950 . S
C2504 C2513 1.390 1_554 S
C2505 C2504 1.387 . S
C2505 C2507 1.387 . S
H2506 C2513 0.950 . S
C2507 C2505 1.387 . S
C2507 C2509 1.390 1_554 S
C2507 H2511 0.950 . S
H2508 C2504 0.950 . S
C2509 C2507 1.390 1_556 S
C2509 C2510 1.387 . S
C2509 H2512 0.950 . S
C2510 C2509 1.387 . S
C2510 C2513 1.387 . S
H2511 C2507 0.950 . S
H2512 C2509 0.950 . S
C2513 C2504 1.390 1_556 S
C2513 H2506 0.950 . S
C2513 C2510 1.387 . S
C2514 C2515 1.387 . S
C2514 H2518 0.950 . S
C2514 C2523 1.390 1_554 S
C2515 C2514 1.387 . S
C2515 C2517 1.387 . S
H2516 C2523 0.950 . S
C2517 C2515 1.387 . S
C2517 C2519 1.390 1_554 S
C2517 H2521 0.950 . S
H2518 C2514 0.950 . S
C2519 C2517 1.390 1_556 S
C2519 C2520 1.387 . S
C2519 H2522 0.950 . S
C2520 C2519 1.387 . S
C2520 C2523 1.387 . S
H2521 C2517 0.950 . S
H2522 C2519 0.950 . S
C2523 C2514 1.390 1_556 S
C2523 H2516 0.950 . S
C2523 C2520 1.387 . S
C2524 C2525 1.387 . S
C2524 H2528 0.950 . S
C2524 C2533 1.390 1_554 S
C2525 C2524 1.387 . S
C2525 C2527 1.387 . S
H2526 C2533 0.950 . S
C2527 C2525 1.387 . S
C2527 C2529 1.390 1_554 S
C2527 H2531 0.950 . S
H2528 C2524 0.950 . S
C2529 C2527 1.390 1_556 S
C2529 C2530 1.387 . S
C2529 H2532 0.950 . S
C2530 C2529 1.387 . S
C2530 C2533 1.387 . S
H2531 C2527 0.950 . S
H2532 C2529 0.950 . S
C2533 C2524 1.390 1_556 S
C2533 H2526 0.950 . S
C2533 C2530 1.387 . S
C2534 C2535 1.387 . S
C2534 H2538 0.950 . S
C2534 C2543 1.390 1_556 S
C2535 C2534 1.387 . S
C2535 C2537 1.387 . S
H2536 C2543 0.950 . S
C2537 C2535 1.387 . S
C2537 C2539 1.390 1_556 S
C2537 H2541 0.950 . S
H2538 C2534 0.950 . S
C2539 C2537 1.390 1_554 S
C2539 C2540 1.387 . S
C2539 H2542 0.950 . S
C2540 C2539 1.387 . S
C2540 C2543 1.387 . S
H2541 C2537 0.950 . S
H2542 C2539 0.950 . S
C2543 C2534 1.390 1_554 S
C2543 H2536 0.950 . S
C2543 C2540 1.387 . S
C2544 C2545 1.387 . S
C2544 H2548 0.950 . S
C2544 C2553 1.390 . S
C2545 C2544 1.387 . S
C2545 C2547 1.387 . S
H2546 C2553 0.950 . S
C2547 C2545 1.387 . S
C2547 C2549 1.390 . S
C2547 H2551 0.950 . S
H2548 C2544 0.950 . S
C2549 C2547 1.390 . S
C2549 C2550 1.387 . S
C2549 H2552 0.950 . S
C2550 C2549 1.387 . S
C2550 C2553 1.387 . S
H2551 C2547 0.950 . S
H2552 C2549 0.950 . S
C2553 C2544 1.390 . S
C2553 H2546 0.950 . S
C2553 C2550 1.387 . S
C2554 C2555 1.387 . S
C2554 H2558 0.950 . S
C2554 C2563 1.390 . S
C2555 C2554 1.387 . S
C2555 C2557 1.387 . S
H2556 C2563 0.950 . S
C2557 C2555 1.387 . S
C2557 C2559 1.390 . S
C2557 H2561 0.950 . S
H2558 C2554 0.950 . S
C2559 C2557 1.390 . S
C2559 C2560 1.387 . S
C2559 H2562 0.950 . S
C2560 C2559 1.387 . S
C2560 C2563 1.387 . S
H2561 C2557 0.950 . S
H2562 C2559 0.950 . S
C2563 C2554 1.390 . S
C2563 H2556 0.950 . S
C2563 C2560 1.387 . S
C2564 C2565 1.387 . S
C2564 H2568 0.950 . S
C2564 C2573 1.390 . S
C2565 C2564 1.387 . S
C2565 C2567 1.387 . S
H2566 C2573 0.950 . S
C2567 C2565 1.387 . S
C2567 C2569 1.390 . S
C2567 H2571 0.950 . S
H2568 C2564 0.950 . S
C2569 C2567 1.390 . S
C2569 C2570 1.387 . S
C2569 H2572 0.950 . S
C2570 C2569 1.387 . S
C2570 C2573 1.387 . S
H2571 C2567 0.950 . S
H2572 C2569 0.950 . S
C2573 C2564 1.390 . S
C2573 H2566 0.950 . S
C2573 C2570 1.387 . S
C2574 C2575 1.387 . S
C2574 H2578 0.950 . S
C2574 C2583 1.390 . S
C2575 C2574 1.387 . S
C2575 C2577 1.387 . S
H2576 C2583 0.950 . S
C2577 C2575 1.387 . S
C2577 C2579 1.390 . S
C2577 H2581 0.950 . S
H2578 C2574 0.950 . S
C2579 C2577 1.390 . S
C2579 C2580 1.387 . S
C2579 H2582 0.950 . S
C2580 C2579 1.387 . S
C2580 C2583 1.387 . S
H2581 C2577 0.950 . S
H2582 C2579 0.950 . S
C2583 C2574 1.390 . S
C2583 H2576 0.950 . S
C2583 C2580 1.387 . S
C2584 C2585 1.387 . S
C2584 H2588 0.950 . S
C2584 C2593 1.390 . S
C2585 C2584 1.387 . S
C2585 C2587 1.387 . S
H2586 C2593 0.950 . S
C2587 C2585 1.387 . S
C2587 C2589 1.390 . S
C2587 H2591 0.950 . S
H2588 C2584 0.950 . S
C2589 C2587 1.390 . S
C2589 C2590 1.387 . S
C2589 H2592 0.950 . S
C2590 C2589 1.387 . S
C2590 C2593 1.387 . S
H2591 C2587 0.950 . S
H2592 C2589 0.950 . S
C2593 C2584 1.390 . S
C2593 H2586 0.950 . S
C2593 C2590 1.387 . S
C2594 C2595 1.387 . S
C2594 H2598 0.950 . S
C2594 C2603 1.390 . S
C2595 C2594 1.387 . S
C2595 C2597 1.387 . S
H2596 C2603 0.950 . S
C2597 C2595 1.387 . S
C2597 C2599 1.390 . S
C2597 H2601 0.950 . S
H2598 C2594 0.950 . S
C2599 C2597 1.390 . S
C2599 C2600 1.387 . S
C2599 H2602 0.950 . S
C2600 C2599 1.387 . S
C2600 C2603 1.387 . S
H2601 C2597 0.950 . S
H2602 C2599 0.950 . S
C2603 C2594 1.390 . S
C2603 H2596 0.950 . S
C2603 C2600 1.387 . S
C2604 C2605 1.387 . S
C2604 H2608 0.950 . S
C2604 C2613 1.390 . S
C2605 C2604 1.387 . S
C2605 C2607 1.387 . S
H2606 C2613 0.950 . S
C2607 C2605 1.387 . S
C2607 C2609 1.390 . S
C2607 H2611 0.950 . S
H2608 C2604 0.950 . S
C2609 C2607 1.390 . S
C2609 C2610 1.387 . S
C2609 H2612 0.950 . S
C2610 C2609 1.387 . S
C2610 C2613 1.387 . S
H2611 C2607 0.950 . S
H2612 C2609 0.950 . S
C2613 C2604 1.390 . S
C2613 H2606 0.950 . S
C2613 C2610 1.387 . S
C2614 C2615 1.387 . S
C2614 H2618 0.950 . S
C2614 C2623 1.390 . S
C2615 C2614 1.387 . S
C2615 C2617 1.387 . S
H2616 C2623 0.950 . S
C2617 C2615 1.387 . S
C2617 C2619 1.390 . S
C2617 H2621 0.950 . S
H2618 C2614 0.950 . S
C2619 C2617 1.390 . S
C2619 C2620 1.387 . S
C2619 H2622 0.950 . S
C2620 C2619 1.387 . S
C2620 C2623 1.387 . S
H2621 C2617 0.950 . S
H2622 C2619 0.950 . S
C2623 C2614 1.390 . S
C2623 H2616 0.950 . S
C2623 C2620 1.387 . S
C2624 C2625 1.387 . S
C2624 H2628 0.950 . S
C2624 C2633 1.390 . S
C2625 C2624 1.387 . S
C2625 C2627 1.387 . S
H2626 C2633 0.950 . S
C2627 C2625 1.387 . S
C2627 C2629 1.390 . S
C2627 H2631 0.950 . S
H2628 C2624 0.950 . S
C2629 C2627 1.390 . S
C2629 C2630 1.387 . S
C2629 H2632 0.950 . S
C2630 C2629 1.387 . S
C2630 C2633 1.387 . S
H2631 C2627 0.950 . S
H2632 C2629 0.950 . S
C2633 C2624 1.390 . S
C2633 H2626 0.950 . S
C2633 C2630 1.387 . S
C2634 C2635 1.387 . S
C2634 H2638 0.950 . S
C2634 C2643 1.390 . S
C2635 C2634 1.387 . S
C2635 C2637 1.387 . S
H2636 C2643 0.950 . S
C2637 C2635 1.387 . S
C2637 C2639 1.390 . S
C2637 H2641 0.950 . S
H2638 C2634 0.950 . S
C2639 C2637 1.390 . S
C2639 C2640 1.387 . S
C2639 H2642 0.950 . S
C2640 C2639 1.387 . S
C2640 C2643 1.387 . S
H2641 C2637 0.950 . S
H2642 C2639 0.950 . S
C2643 C2634 1.390 . S
C2643 H2636 0.950 . S
C2643 C2640 1.387 . S
C2644 C2645 1.387 . S
C2644 H2648 0.950 . S
C2644 C2653 1.390 . S
C2645 C2644 1.387 . S
C2645 C2647 1.387 . S
H2646 C2653 0.950 . S
C2647 C2645 1.387 . S
C2647 C2649 1.390 . S
C2647 H2651 0.950 . S
H2648 C2644 0.950 . S
C2649 C2647 1.390 . S
C2649 C2650 1.387 . S
C2649 H2652 0.950 . S
C2650 C2649 1.387 . S
C2650 C2653 1.387 . S
H2651 C2647 0.950 . S
H2652 C2649 0.950 . S
C2653 C2644 1.390 . S
C2653 H2646 0.950 . S
C2653 C2650 1.387 . S
C2654 C2655 1.387 . S
C2654 H2658 0.950 . S
C2654 C2663 1.390 . S
C2655 C2654 1.387 . S
C2655 C2657 1.387 . S
H2656 C2663 0.950 . S
C2657 C2655 1.387 . S
C2657 C2659 1.390 . S
C2657 H2661 0.950 . S
H2658 C2654 0.950 . S
C2659 C2657 1.390 . S
C2659 C2660 1.387 . S
C2659 H2662 0.950 . S
C2660 C2659 1.387 . S
C2660 C2663 1.387 . S
H2661 C2657 0.950 . S
H2662 C2659 0.950 . S
C2663 C2654 1.390 . S
C2663 H2656 0.950 . S
C2663 C2660 1.387 . S
C2664 C2665 1.387 . S
C2664 H2668 0.950 . S
C2664 C2673 1.390 . S
C2665 C2664 1.387 . S
C2665 C2667 1.387 . S
H2666 C2673 0.950 . S
C2667 C2665 1.387 . S
C2667 C2669 1.390 . S
C2667 H2671 0.950 . S
H2668 C2664 0.950 . S
C2669 C2667 1.390 . S
C2669 C2670 1.387 . S
C2669 H2672 0.950 . S
C2670 C2669 1.387 . S
C2670 C2673 1.387 . S
H2671 C2667 0.950 . S
H2672 C2669 0.950 . S
C2673 C2664 1.390 . S
C2673 H2666 0.950 . S
C2673 C2670 1.387 . S
C2674 C2675 1.387 . S
C2674 H2678 0.950 . S
C2674 C2683 1.390 . S
C2675 C2674 1.387 . S
C2675 C2677 1.387 . S
H2676 C2683 0.950 . S
C2677 C2675 1.387 . S
C2677 C2679 1.390 . S
C2677 H2681 0.950 . S
H2678 C2674 0.950 . S
C2679 C2677 1.390 . S
C2679 C2680 1.387 . S
C2679 H2682 0.950 . S
C2680 C2679 1.387 . S
C2680 C2683 1.387 . S
H2681 C2677 0.950 . S
H2682 C2679 0.950 . S
C2683 C2674 1.390 . S
C2683 H2676 0.950 . S
C2683 C2680 1.387 . S
C2684 C2685 1.387 . S
C2684 H2688 0.950 . S
C2684 C2693 1.390 . S
C2685 C2684 1.387 . S
C2685 C2687 1.387 . S
H2686 C2693 0.950 . S
C2687 C2685 1.387 . S
C2687 C2689 1.390 . S
C2687 H2691 0.950 . S
H2688 C2684 0.950 . S
C2689 C2687 1.390 . S
C2689 C2690 1.387 . S
C2689 H2692 0.950 . S
C2690 C2689 1.387 . S
C2690 C2693 1.387 . S
H2691 C2687 0.950 . S
H2692 C2689 0.950 . S
C2693 C2684 1.390 . S
C2693 H2686 0.950 . S
C2693 C2690 1.387 . S
C2694 C2695 1.387 . S
C2694 H2698 0.950 . S
C2694 C2703 1.390 . S
C2695 C2694 1.387 . S
C2695 C2697 1.387 . S
H2696 C2703 0.950 . S
C2697 C2695 1.387 . S
C2697 C2699 1.390 . S
C2697 H2701 0.950 . S
H2698 C2694 0.950 . S
C2699 C2697 1.390 . S
C2699 C2700 1.387 . S
C2699 H2702 0.950 . S
C2700 C2699 1.387 . S
C2700 C2703 1.387 . S
H2701 C2697 0.950 . S
H2702 C2699 0.950 . S
C2703 C2694 1.390 . S
C2703 H2696 0.950 . S
C2703 C2700 1.387 . S
C2704 C2705 1.387 . S
C2704 H2708 0.950 . S
C2704 C2713 1.390 . S
C2705 C2704 1.387 . S
C2705 C2707 1.387 . S
H2706 C2713 0.950 . S
C2707 C2705 1.387 . S
C2707 C2709 1.390 . S
C2707 H2711 0.950 . S
H2708 C2704 0.950 . S
C2709 C2707 1.390 . S
C2709 C2710 1.387 . S
C2709 H2712 0.950 . S
C2710 C2709 1.387 . S
C2710 C2713 1.387 . S
H2711 C2707 0.950 . S
H2712 C2709 0.950 . S
C2713 C2704 1.390 . S
C2713 H2706 0.950 . S
C2713 C2710 1.387 . S
C2714 C2715 1.387 . S
C2714 H2718 0.950 . S
C2714 C2723 1.390 . S
C2715 C2714 1.387 . S
C2715 C2717 1.387 . S
H2716 C2723 0.950 . S
C2717 C2715 1.387 . S
C2717 C2719 1.390 . S
C2717 H2721 0.950 . S
H2718 C2714 0.950 . S
C2719 C2717 1.390 . S
C2719 C2720 1.387 . S
C2719 H2722 0.950 . S
C2720 C2719 1.387 . S
C2720 C2723 1.387 . S
H2721 C2717 0.950 . S
H2722 C2719 0.950 . S
C2723 C2714 1.390 . S
C2723 H2716 0.950 . S
C2723 C2720 1.387 . S
C2724 C2725 1.387 . S
C2724 H2728 0.950 . S
C2724 C2733 1.390 . S
C2725 C2724 1.387 . S
C2725 C2727 1.387 . S
H2726 C2733 0.950 . S
C2727 C2725 1.387 . S
C2727 C2729 1.390 . S
C2727 H2731 0.950 . S
H2728 C2724 0.950 . S
C2729 C2727 1.390 . S
C2729 C2730 1.387 . S
C2729 H2732 0.950 . S
C2730 C2729 1.387 . S
C2730 C2733 1.387 . S
H2731 C2727 0.950 . S
H2732 C2729 0.950 . S
C2733 C2724 1.390 . S
C2733 H2726 0.950 . S
C2733 C2730 1.387 . S
C2734 C2735 1.387 . S
C2734 H2738 0.950 . S
C2734 C2743 1.390 . S
C2735 C2734 1.387 . S
C2735 C2737 1.387 . S
H2736 C2743 0.950 . S
C2737 C2735 1.387 . S
C2737 C2739 1.390 . S
C2737 H2741 0.950 . S
H2738 C2734 0.950 . S
C2739 C2737 1.390 . S
C2739 C2740 1.387 . S
C2739 H2742 0.950 . S
C2740 C2739 1.387 . S
C2740 C2743 1.387 . S
H2741 C2737 0.950 . S
H2742 C2739 0.950 . S
C2743 C2734 1.390 . S
C2743 H2736 0.950 . S
C2743 C2740 1.387 . S
C2744 C2745 1.387 . S
C2744 H2748 0.950 . S
C2744 C2753 1.390 . S
C2745 C2744 1.387 . S
C2745 C2747 1.387 . S
H2746 C2753 0.950 . S
C2747 C2745 1.387 . S
C2747 C2749 1.390 . S
C2747 H2751 0.950 . S
H2748 C2744 0.950 . S
C2749 C2747 1.390 . S
C2749 C2750 1.387 . S
C2749 H2752 0.950 . S
C2750 C2749 1.387 . S
C2750 C2753 1.387 . S
H2751 C2747 0.950 . S
H2752 C2749 0.950 . S
C2753 C2744 1.390 . S
C2753 H2746 0.950 . S
C2753 C2750 1.387 . S
C2754 C2755 1.387 . S
C2754 H2758 0.950 . S
C2754 C2763 1.390 . S
C2755 C2754 1.387 . S
C2755 C2757 1.387 . S
H2756 C2763 0.950 . S
C2757 C2755 1.387 . S
C2757 C2759 1.390 . S
C2757 H2761 0.950 . S
H2758 C2754 0.950 . S
C2759 C2757 1.390 . S
C2759 C2760 1.387 . S
C2759 H2762 0.950 . S
C2760 C2759 1.387 . S
C2760 C2763 1.387 . S
H2761 C2757 0.950 . S
H2762 C2759 0.950 . S
C2763 C2754 1.390 . S
C2763 H2756 0.950 . S
C2763 C2760 1.387 . S
C2764 C2765 1.387 . S
C2764 H2768 0.950 . S
C2764 C2773 1.390 . S
C2765 C2764 1.387 . S
C2765 C2767 1.387 . S
H2766 C2773 0.950 . S
C2767 C2765 1.387 . S
C2767 C2769 1.390 . S
C2767 H2771 0.950 . S
H2768 C2764 0.950 . S
C2769 C2767 1.390 . S
C2769 C2770 1.387 . S
C2769 H2772 0.950 . S
C2770 C2769 1.387 . S
C2770 C2773 1.387 . S
H2771 C2767 0.950 . S
H2772 C2769 0.950 . S
C2773 C2764 1.390 . S
C2773 H2766 0.950 . S
C2773 C2770 1.387 . S
C2774 C2775 1.387 . S
C2774 H2778 0.950 . S
C2774 C2783 1.390 . S
C2775 C2774 1.387 . S
C2775 C2777 1.387 . S
H2776 C2783 0.950 . S
C2777 C2775 1.387 . S
C2777 C2779 1.390 . S
C2777 H2781 0.950 . S
H2778 C2774 0.950 . S
C2779 C2777 1.390 . S
C2779 C2780 1.387 . S
C2779 H2782 0.950 . S
C2780 C2779 1.387 . S
C2780 C2783 1.387 . S
H2781 C2777 0.950 . S
H2782 C2779 0.950 . S
C2783 C2774 1.390 . S
C2783 H2776 0.950 . S
C2783 C2780 1.387 . S
C2784 C2785 1.387 . S
C2784 H2788 0.950 . S
C2784 C2793 1.390 . S
C2785 C2784 1.387 . S
C2785 C2787 1.387 . S
H2786 C2793 0.950 . S
C2787 C2785 1.387 . S
C2787 C2789 1.390 . S
C2787 H2791 0.950 . S
H2788 C2784 0.950 . S
C2789 C2787 1.390 . S
C2789 C2790 1.387 . S
C2789 H2792 0.950 . S
C2790 C2789 1.387 . S
C2790 C2793 1.387 . S
H2791 C2787 0.950 . S
H2792 C2789 0.950 . S
C2793 C2784 1.390 . S
C2793 H2786 0.950 . S
C2793 C2790 1.387 . S
C2794 C2795 1.387 . S
C2794 H2798 0.950 . S
C2794 C2803 1.390 . S
C2795 C2794 1.387 . S
C2795 C2797 1.387 . S
H2796 C2803 0.950 . S
C2797 C2795 1.387 . S
C2797 C2799 1.390 . S
C2797 H2801 0.950 . S
H2798 C2794 0.950 . S
C2799 C2797 1.390 . S
C2799 C2800 1.387 . S
C2799 H2802 0.950 . S
C2800 C2799 1.387 . S
C2800 C2803 1.387 . S
H2801 C2797 0.950 . S
H2802 C2799 0.950 . S
C2803 C2794 1.390 . S
C2803 H2796 0.950 . S
C2803 C2800 1.387 . S
C2804 C2805 1.387 . S
C2804 H2808 0.950 . S
C2804 C2813 1.390 . S
C2805 C2804 1.387 . S
C2805 C2807 1.387 . S
H2806 C2813 0.950 . S
C2807 C2805 1.387 . S
C2807 C2809 1.390 . S
C2807 H2811 0.950 . S
H2808 C2804 0.950 . S
C2809 C2807 1.390 . S
C2809 C2810 1.387 . S
C2809 H2812 0.950 . S
C2810 C2809 1.387 . S
C2810 C2813 1.387 . S
H2811 C2807 0.950 . S
H2812 C2809 0.950 . S
C2813 C2804 1.390 . S
C2813 H2806 0.950 . S
C2813 C2810 1.387 . S
C2814 C2815 1.387 . S
C2814 H2818 0.950 . S
C2814 C2823 1.390 . S
C2815 C2814 1.387 . S
C2815 C2817 1.387 . S
H2816 C2823 0.950 . S
C2817 C2815 1.387 . S
C2817 C2819 1.390 . S
C2817 H2821 0.950 . S
H2818 C2814 0.950 . S
C2819 C2817 1.390 . S
C2819 C2820 1.387 . S
C2819 H2822 0.950 . S
C2820 C2819 1.387 . S
C2820 C2823 1.387 . S
H2821 C2817 0.950 . S
H2822 C2819 0.950 . S
C2823 C2814 1.390 . S
C2823 H2816 0.950 . S
C2823 C2820 1.387 . S
C2824 C2825 1.387 . S
C2824 H2828 0.950 . S
C2824 C2833 1.390 . S
C2825 C2824 1.387 . S
C2825 C2827 1.387 . S
H2826 C2833 0.950 . S
C2827 C2825 1.387 . S
C2827 C2829 1.390 . S
C2827 H2831 0.950 . S
H2828 C2824 0.950 . S
C2829 C2827 1.390 . S
C2829 C2830 1.387 . S
C2829 H2832 0.950 . S
C2830 C2829 1.387 . S
C2830 C2833 1.387 . S
H2831 C2827 0.950 . S
H2832 C2829 0.950 . S
C2833 C2824 1.390 . S
C2833 H2826 0.950 . S
C2833 C2830 1.387 . S
C2834 C2835 1.387 . S
C2834 H2838 0.950 . S
C2834 C2843 1.390 . S
C2835 C2834 1.387 . S
C2835 C2837 1.387 . S
H2836 C2843 0.950 . S
C2837 C2835 1.387 . S
C2837 C2839 1.390 . S
C2837 H2841 0.950 . S
H2838 C2834 0.950 . S
C2839 C2837 1.390 . S
C2839 C2840 1.387 . S
C2839 H2842 0.950 . S
C2840 C2839 1.387 . S
C2840 C2843 1.387 . S
H2841 C2837 0.950 . S
H2842 C2839 0.950 . S
C2843 C2834 1.390 . S
C2843 H2836 0.950 . S
C2843 C2840 1.387 . S
C2844 C2845 1.387 . S
C2844 H2848 0.950 . S
C2844 C2853 1.390 . S
C2845 C2844 1.387 . S
C2845 C2847 1.387 . S
H2846 C2853 0.950 . S
C2847 C2845 1.387 . S
C2847 C2849 1.390 . S
C2847 H2851 0.950 . S
H2848 C2844 0.950 . S
C2849 C2847 1.390 . S
C2849 C2850 1.387 . S
C2849 H2852 0.950 . S
C2850 C2849 1.387 . S
C2850 C2853 1.387 . S
H2851 C2847 0.950 . S
H2852 C2849 0.950 . S
C2853 C2844 1.390 . S
C2853 H2846 0.950 . S
C2853 C2850 1.387 . S
C2854 C2855 1.387 . S
C2854 H2858 0.950 . S
C2854 C2863 1.390 . S
C2855 C2854 1.387 . S
C2855 C2857 1.387 . S
H2856 C2863 0.950 . S
C2857 C2855 1.387 . S
C2857 C2859 1.390 . S
C2857 H2861 0.950 . S
H2858 C2854 0.950 . S
C2859 C2857 1.390 . S
C2859 C2860 1.387 . S
C2859 H2862 0.950 . S
C2860 C2859 1.387 . S
C2860 C2863 1.387 . S
H2861 C2857 0.950 . S
H2862 C2859 0.950 . S
C2863 C2854 1.390 . S
C2863 H2856 0.950 . S
C2863 C2860 1.387 . S
C2864 C2865 1.387 . S
C2864 H2868 0.950 . S
C2864 C2873 1.390 . S
C2865 C2864 1.387 . S
C2865 C2867 1.387 . S
H2866 C2873 0.950 . S
C2867 C2865 1.387 . S
C2867 C2869 1.390 . S
C2867 H2871 0.950 . S
H2868 C2864 0.950 . S
C2869 C2867 1.390 . S
C2869 C2870 1.387 . S
C2869 H2872 0.950 . S
C2870 C2869 1.387 . S
C2870 C2873 1.387 . S
H2871 C2867 0.950 . S
H2872 C2869 0.950 . S
C2873 C2864 1.390 . S
C2873 H2866 0.950 . S
C2873 C2870 1.387 . S
C2874 C2875 1.387 . S
C2874 H2878 0.950 . S
C2874 C2883 1.390 . S
C2875 C2874 1.387 . S
C2875 C2877 1.387 . S
H2876 C2883 0.950 . S
C2877 C2875 1.387 . S
C2877 C2879 1.390 . S
C2877 H2881 0.950 . S
H2878 C2874 0.950 . S
C2879 C2877 1.390 . S
C2879 C2880 1.387 . S
C2879 H2882 0.950 . S
C2880 C2879 1.387 . S
C2880 C2883 1.387 . S
H2881 C2877 0.950 . S
H2882 C2879 0.950 . S
C2883 C2874 1.390 . S
C2883 H2876 0.950 . S
C2883 C2880 1.387 . S
C2884 C2885 1.387 . S
C2884 H2888 0.950 . S
C2884 C2893 1.390 . S
C2885 C2884 1.387 . S
C2885 C2887 1.387 . S
H2886 C2893 0.950 . S
C2887 C2885 1.387 . S
C2887 C2889 1.390 . S
C2887 H2891 0.950 . S
H2888 C2884 0.950 . S
C2889 C2887 1.390 . S
C2889 C2890 1.387 . S
C2889 H2892 0.950 . S
C2890 C2889 1.387 . S
C2890 C2893 1.387 . S
H2891 C2887 0.950 . S
H2892 C2889 0.950 . S
C2893 C2884 1.390 . S
C2893 H2886 0.950 . S
C2893 C2890 1.387 . S
C2894 C2895 1.387 . S
C2894 H2898 0.950 . S
C2894 C2903 1.390 . S
C2895 C2894 1.387 . S
C2895 C2897 1.387 . S
H2896 C2903 0.950 . S
C2897 C2895 1.387 . S
C2897 C2899 1.390 . S
C2897 H2901 0.950 . S
H2898 C2894 0.950 . S
C2899 C2897 1.390 . S
C2899 C2900 1.387 . S
C2899 H2902 0.950 . S
C2900 C2899 1.387 . S
C2900 C2903 1.387 . S
H2901 C2897 0.950 . S
H2902 C2899 0.950 . S
C2903 C2894 1.390 . S
C2903 H2896 0.950 . S
C2903 C2900 1.387 . S
C2904 C2905 1.387 . S
C2904 H2908 0.950 . S
C2904 C2913 1.390 . S
C2905 C2904 1.387 . S
C2905 C2907 1.387 . S
H2906 C2913 0.950 . S
C2907 C2905 1.387 . S
C2907 C2909 1.390 . S
C2907 H2911 0.950 . S
H2908 C2904 0.950 . S
C2909 C2907 1.390 . S
C2909 C2910 1.387 . S
C2909 H2912 0.950 . S
C2910 C2909 1.387 . S
C2910 C2913 1.387 . S
H2911 C2907 0.950 . S
H2912 C2909 0.950 . S
C2913 C2904 1.390 . S
C2913 H2906 0.950 . S
C2913 C2910 1.387 . S
C2914 C2915 1.387 . S
C2914 H2918 0.950 . S
C2914 C2923 1.390 . S
C2915 C2914 1.387 . S
C2915 C2917 1.387 . S
H2916 C2923 0.950 . S
C2917 C2915 1.387 . S
C2917 C2919 1.390 . S
C2917 H2921 0.950 . S
H2918 C2914 0.950 . S
C2919 C2917 1.390 . S
C2919 C2920 1.387 . S
C2919 H2922 0.950 . S
C2920 C2919 1.387 . S
C2920 C2923 1.387 . S
H2921 C2917 0.950 . S
H2922 C2919 0.950 . S
C2923 C2914 1.390 . S
C2923 H2916 0.950 . S
C2923 C2920 1.387 . S
C2924 C2925 1.387 . S
C2924 H2928 0.950 . S
C2924 C2933 1.390 . S
C2925 C2924 1.387 . S
C2925 C2927 1.387 . S
H2926 C2933 0.950 . S
C2927 C2925 1.387 . S
C2927 C2929 1.390 . S
C2927 H2931 0.950 . S
H2928 C2924 0.950 . S
C2929 C2927 1.390 . S
C2929 C2930 1.387 . S
C2929 H2932 0.950 . S
C2930 C2929 1.387 . S
C2930 C2933 1.387 . S
H2931 C2927 0.950 . S
H2932 C2929 0.950 . S
C2933 C2924 1.390 . S
C2933 H2926 0.950 . S
C2933 C2930 1.387 . S
C2934 C2935 1.387 . S
C2934 H2938 0.950 . S
C2934 C2943 1.390 . S
C2935 C2934 1.387 . S
C2935 C2937 1.387 . S
H2936 C2943 0.950 . S
C2937 C2935 1.387 . S
C2937 C2939 1.390 . S
C2937 H2941 0.950 . S
H2938 C2934 0.950 . S
C2939 C2937 1.390 . S
C2939 C2940 1.387 . S
C2939 H2942 0.950 . S
C2940 C2939 1.387 . S
C2940 C2943 1.387 . S
H2941 C2937 0.950 . S
H2942 C2939 0.950 . S
C2943 C2934 1.390 . S
C2943 H2936 0.950 . S
C2943 C2940 1.387 . S
C2944 C2945 1.387 . S
C2944 H2948 0.950 . S
C2944 C2953 1.390 . S
C2945 C2944 1.387 . S
C2945 C2947 1.387 . S
H2946 C2953 0.950 . S
C2947 C2945 1.387 . S
C2947 C2949 1.390 . S
C2947 H2951 0.950 . S
H2948 C2944 0.950 . S
C2949 C2947 1.390 . S
C2949 C2950 1.387 . S
C2949 H2952 0.950 . S
C2950 C2949 1.387 . S
C2950 C2953 1.387 . S
H2951 C2947 0.950 . S
H2952 C2949 0.950 . S
C2953 C2944 1.390 . S
C2953 H2946 0.950 . S
C2953 C2950 1.387 . S
C2954 C2955 1.387 . S
C2954 H2958 0.950 . S
C2954 C2963 1.390 . S
C2955 C2954 1.387 . S
C2955 C2957 1.387 . S
H2956 C2963 0.950 . S
C2957 C2955 1.387 . S
C2957 C2959 1.390 . S
C2957 H2961 0.950 . S
H2958 C2954 0.950 . S
C2959 C2957 1.390 . S
C2959 C2960 1.387 . S
C2959 H2962 0.950 . S
C2960 C2959 1.387 . S
C2960 C2963 1.387 . S
H2961 C2957 0.950 . S
H2962 C2959 0.950 . S
C2963 C2954 1.390 . S
C2963 H2956 0.950 . S
C2963 C2960 1.387 . S
C2964 C2965 1.387 . S
C2964 H2968 0.950 . S
C2964 C2973 1.390 . S
C2965 C2964 1.387 . S
C2965 C2967 1.387 . S
H2966 C2973 0.950 . S
C2967 C2965 1.387 . S
C2967 C2969 1.390 . S
C2967 H2971 0.950 . S
H2968 C2964 0.950 . S
C2969 C2967 1.390 . S
C2969 C2970 1.387 . S
C2969 H2972 0.950 . S
C2970 C2969 1.387 . S
C2970 C2973 1.387 . S
H2971 C2967 0.950 . S
H2972 C2969 0.950 . S
C2973 C2964 1.390 . S
C2973 H2966 0.950 . S
C2973 C2970 1.387 . S
C2974 C2975 1.387 . S
C2974 H2978 0.950 . S
C2974 C2983 1.390 . S
C2975 C2974 1.387 . S
C2975 C2977 1.387 . S
H2976 C2983 0.950 . S
C2977 C2975 1.387 . S
C2977 C2979 1.390 . S
C2977 H2981 0.950 . S
H2978 C2974 0.950 . S
C2979 C2977 1.390 . S
C2979 C2980 1.387 . S
C2979 H2982 0.950 . S
C2980 C2979 1.387 . S
C2980 C2983 1.387 . S
H2981 C2977 0.950 . S
H2982 C2979 0.950 . S
C2983 C2974 1.390 . S
C2983 H2976 0.950 . S
C2983 C2980 1.387 . S
C2984 C2985 1.387 . S
C2984 H2988 0.950 . S
C2984 C2993 1.390 . S
C2985 C2984 1.387 . S
C2985 C2987 1.387 . S
H2986 C2993 0.950 . S
C2987 C2985 1.387 . S
C2987 C2989 1.390 . S
C2987 H2991 0.950 . S
H2988 C2984 0.950 . S
C2989 C2987 1.390 . S
C2989 C2990 1.387 . S
C2989 H2992 0.950 . S
C2990 C2989 1.387 . S
C2990 C2993 1.387 . S
H2991 C2987 0.950 . S
H2992 C2989 0.950 . S
C2993 C2984 1.390 . S
C2993 H2986 0.950 . S
C2993 C2990 1.387 . S
C2994 C2995 1.387 . S
C2994 H2998 0.950 . S
C2994 C3003 1.390 . S
C2995 C2994 1.387 . S
C2995 C2997 1.387 . S
H2996 C3003 0.950 . S
C2997 C2995 1.387 . S
C2997 C2999 1.390 . S
C2997 H3001 0.950 . S
H2998 C2994 0.950 . S
C2999 C2997 1.390 . S
C2999 C3000 1.387 . S
C2999 H3002 0.950 . S
C3000 C2999 1.387 . S
C3000 C3003 1.387 . S
H3001 C2997 0.950 . S
H3002 C2999 0.950 . S
C3003 C2994 1.390 . S
C3003 H2996 0.950 . S
C3003 C3000 1.387 . S
C3004 C3005 1.387 . S
C3004 H3008 0.950 . S
C3004 C3013 1.390 . S
C3005 C3004 1.387 . S
C3005 C3007 1.387 . S
H3006 C3013 0.950 . S
C3007 C3005 1.387 . S
C3007 C3009 1.390 . S
C3007 H3011 0.950 . S
H3008 C3004 0.950 . S
C3009 C3007 1.390 . S
C3009 C3010 1.387 . S
C3009 H3012 0.950 . S
C3010 C3009 1.387 . S
C3010 C3013 1.387 . S
H3011 C3007 0.950 . S
H3012 C3009 0.950 . S
C3013 C3004 1.390 . S
C3013 H3006 0.950 . S
C3013 C3010 1.387 . S
C3014 C3015 1.387 . S
C3014 H3018 0.950 . S
C3014 C3023 1.390 . S
C3015 C3014 1.387 . S
C3015 C3017 1.387 . S
H3016 C3023 0.950 . S
C3017 C3015 1.387 . S
C3017 C3019 1.390 . S
C3017 H3021 0.950 . S
H3018 C3014 0.950 . S
C3019 C3017 1.390 . S
C3019 C3020 1.387 . S
C3019 H3022 0.950 . S
C3020 C3019 1.387 . S
C3020 C3023 1.387 . S
H3021 C3017 0.950 . S
H3022 C3019 0.950 . S
C3023 C3014 1.390 . S
C3023 H3016 0.950 . S
C3023 C3020 1.387 . S
C3024 C3025 1.387 . S
C3024 H3028 0.950 . S
C3024 C3033 1.390 . S
C3025 C3024 1.387 . S
C3025 C3027 1.387 . S
H3026 C3033 0.950 . S
C3027 C3025 1.387 . S
C3027 C3029 1.390 . S
C3027 H3031 0.950 . S
H3028 C3024 0.950 . S
C3029 C3027 1.390 . S
C3029 C3030 1.387 . S
C3029 H3032 0.950 . S
C3030 C3029 1.387 . S
C3030 C3033 1.387 . S
H3031 C3027 0.950 . S
H3032 C3029 0.950 . S
C3033 C3024 1.390 . S
C3033 H3026 0.950 . S
C3033 C3030 1.387 . S
C3034 C3035 1.387 . S
C3034 H3038 0.950 . S
C3034 C3043 1.390 . S
C3035 C3034 1.387 . S
C3035 C3037 1.387 . S
H3036 C3043 0.950 . S
C3037 C3035 1.387 . S
C3037 C3039 1.390 . S
C3037 H3041 0.950 . S
H3038 C3034 0.950 . S
C3039 C3037 1.390 . S
C3039 C3040 1.387 . S
C3039 H3042 0.950 . S
C3040 C3039 1.387 . S
C3040 C3043 1.387 . S
H3041 C3037 0.950 . S
H3042 C3039 0.950 . S
C3043 C3034 1.390 . S
C3043 H3036 0.950 . S
C3043 C3040 1.387 . S
C3044 C3045 1.387 . S
C3044 H3048 0.950 . S
C3044 C3053 1.390 . S
C3045 C3044 1.387 . S
C3045 C3047 1.387 . S
H3046 C3053 0.950 . S
C3047 C3045 1.387 . S
C3047 C3049 1.390 . S
C3047 H3051 0.950 . S
H3048 C3044 0.950 . S
C3049 C3047 1.390 . S
C3049 C3050 1.387 . S
C3049 H3052 0.950 . S
C3050 C3049 1.387 . S
C3050 C3053 1.387 . S
H3051 C3047 0.950 . S
H3052 C3049 0.950 . S
C3053 C3044 1.390 . S
C3053 H3046 0.950 . S
C3053 C3050 1.387 . S
C3054 C3055 1.387 . S
C3054 H3058 0.950 . S
C3054 C3063 1.390 . S
C3055 C3054 1.387 . S
C3055 C3057 1.387 . S
H3056 C3063 0.950 . S
C3057 C3055 1.387 . S
C3057 C3059 1.390 . S
C3057 H3061 0.950 . S
H3058 C3054 0.950 . S
C3059 C3057 1.390 . S
C3059 C3060 1.387 . S
C3059 H3062 0.950 . S
C3060 C3059 1.387 . S
C3060 C3063 1.387 . S
H3061 C3057 0.950 . S
H3062 C3059 0.950 . S
C3063 C3054 1.390 . S
C3063 H3056 0.950 . S
C3063 C3060 1.387 . S
C3064 C3065 1.387 . S
C3064 H3068 0.950 . S
C3064 C3073 1.390 . S
C3065 C3064 1.387 . S
C3065 C3067 1.387 . S
H3066 C3073 0.950 . S
C3067 C3065 1.387 . S
C3067 C3069 1.390 . S
C3067 H3071 0.950 . S
H3068 C3064 0.950 . S
C3069 C3067 1.390 . S
C3069 C3070 1.387 . S
C3069 H3072 0.950 . S
C3070 C3069 1.387 . S
C3070 C3073 1.387 . S
H3071 C3067 0.950 . S
H3072 C3069 0.950 . S
C3073 C3064 1.390 . S
C3073 H3066 0.950 . S
C3073 C3070 1.387 . S
C3074 C3075 1.387 . S
C3074 H3078 0.950 . S
C3074 C3083 1.390 . S
C3075 C3074 1.387 . S
C3075 C3077 1.387 . S
H3076 C3083 0.950 . S
C3077 C3075 1.387 . S
C3077 C3079 1.390 . S
C3077 H3081 0.950 . S
H3078 C3074 0.950 . S
C3079 C3077 1.390 . S
C3079 C3080 1.387 . S
C3079 H3082 0.950 . S
C3080 C3079 1.387 . S
C3080 C3083 1.387 . S
H3081 C3077 0.950 . S
H3082 C3079 0.950 . S
C3083 C3074 1.390 . S
C3083 H3076 0.950 . S
C3083 C3080 1.387 . S
C3084 C3085 1.387 . S
C3084 H3088 0.950 . S
C3084 C3093 1.390 . S
C3085 C3084 1.387 . S
C3085 C3087 1.387 . S
H3086 C3093 0.950 . S
C3087 C3085 1.387 . S
C3087 C3089 1.390 . S
C3087 H3091 0.950 . S
H3088 C3084 0.950 . S
C3089 C3087 1.390 . S
C3089 C3090 1.387 . S
C3089 H3092 0.950 . S
C3090 C3089 1.387 . S
C3090 C3093 1.387 . S
H3091 C3087 0.950 . S
H3092 C3089 0.950 . S
C3093 C3084 1.390 . S
C3093 H3086 0.950 . S
C3093 C3090 1.387 . S
C3094 C3095 1.387 . S
C3094 H3098 0.950 . S
C3094 C3103 1.390 . S
C3095 C3094 1.387 . S
C3095 C3097 1.387 . S
H3096 C3103 0.950 . S
C3097 C3095 1.387 . S
C3097 C3099 1.390 . S
C3097 H3101 0.950 . S
H3098 C3094 0.950 . S
C3099 C3097 1.390 . S
C3099 C3100 1.387 . S
C3099 H3102 0.950 . S
C3100 C3099 1.387 . S
C3100 C3103 1.387 . S
H3101 C3097 0.950 . S
H3102 C3099 0.950 . S
C3103 C3094 1.390 . S
C3103 H3096 0.950 . S
C3103 C3100 1.387 . S
C3104 C3105 1.387 . S
C3104 H3108 0.950 . S
C3104 C3113 1.390 . S
C3105 C3104 1.387 . S
C3105 C3107 1.387 . S
H3106 C3113 0.950 . S
C3107 C3105 1.387 . S
C3107 C3109 1.390 . S
C3107 H3111 0.950 . S
H3108 C3104 0.950 . S
C3109 C3107 1.390 . S
C3109 C3110 1.387 . S
C3109 H3112 0.950 . S
C3110 C3109 1.387 . S
C3110 C3113 1.387 . S
H3111 C3107 0.950 . S
H3112 C3109 0.950 . S
C3113 C3104 1.390 . S
C3113 H3106 0.950 . S
C3113 C3110 1.387 . S
C3114 C3115 1.387 . S
C3114 H3118 0.950 . S
C3114 C3123 1.390 . S
C3115 C3114 1.387 . S
C3115 C3117 1.387 . S
H3116 C3123 0.950 . S
C3117 C3115 1.387 . S
C3117 C3119 1.390 . S
C3117 H3121 0.950 . S
H3118 C3114 0.950 . S
C3119 C3117 1.390 . S
C3119 C3120 1.387 . S
C3119 H3122 0.950 . S
C3120 C3119 1.387 . S
C3120 C3123 1.387 . S
H3121 C3117 0.950 . S
H3122 C3119 0.950 . S
C3123 C3114 1.390 . S
C3123 H3116 0.950 . S
C3123 C3120 1.387 . S
C3124 C3125 1.387 . S
C3124 H3128 0.950 . S
C3124 C3133 1.390 . S
C3125 C3124 1.387 . S
C3125 C3127 1.387 . S
H3126 C3133 0.950 . S
C3127 C3125 1.387 . S
C3127 C3129 1.390 . S
C3127 H3131 0.950 . S
H3128 C3124 0.950 . S
C3129 C3127 1.390 . S
C3129 C3130 1.387 . S
C3129 H3132 0.950 . S
C3130 C3129 1.387 . S
C3130 C3133 1.387 . S
H3131 C3127 0.950 . S
H3132 C3129 0.950 . S
C3133 C3124 1.390 . S
C3133 H3126 0.950 . S
C3133 C3130 1.387 . S
C3134 C3135 1.387 . S
C3134 H3138 0.950 . S
C3134 C3143 1.390 . S
C3135 C3134 1.387 . S
C3135 C3137 1.387 . S
H3136 C3143 0.950 . S
C3137 C3135 1.387 . S
C3137 C3139 1.390 . S
C3137 H3141 0.950 . S
H3138 C3134 0.950 . S
C3139 C3137 1.390 . S
C3139 C3140 1.387 . S
C3139 H3142 0.950 . S
C3140 C3139 1.387 . S
C3140 C3143 1.387 . S
H3141 C3137 0.950 . S
H3142 C3139 0.950 . S
C3143 C3134 1.390 . S
C3143 H3136 0.950 . S
C3143 C3140 1.387 . S
C3144 C3145 1.387 . S
C3144 H3148 0.950 . S
C3144 C3153 1.390 . S
C3145 C3144 1.387 . S
C3145 C3147 1.387 . S
H3146 C3153 0.950 . S
C3147 C3145 1.387 . S
C3147 C3149 1.390 . S
C3147 H3151 0.950 . S
H3148 C3144 0.950 . S
C3149 C3147 1.390 . S
C3149 C3150 1.387 . S
C3149 H3152 0.950 . S
C3150 C3149 1.387 . S
C3150 C3153 1.387 . S
H3151 C3147 0.950 . S
H3152 C3149 0.950 . S
C3153 C3144 1.390 . S
C3153 H3146 0.950 . S
C3153 C3150 1.387 . S
C3154 C3155 1.387 . S
C3154 H3158 0.950 . S
C3154 C3163 1.390 . S
C3155 C3154 1.387 . S
C3155 C3157 1.387 . S
H3156 C3163 0.950 . S
C3157 C3155 1.387 . S
C3157 C3159 1.390 . S
C3157 H3161 0.950 . S
H3158 C3154 0.950 . S
C3159 C3157 1.390 . S
C3159 C3160 1.387 . S
C3159 H3162 0.950 . S
C3160 C3159 1.387 . S
C3160 C3163 1.387 . S
H3161 C3157 0.950 . S
H3162 C3159 0.950 . S
C3163 C3154 1.390 . S
C3163 H3156 0.950 . S
C3163 C3160 1.387 . S
C3164 C3165 1.387 . S
C3164 H3168 0.950 . S
C3164 C3173 1.390 . S
C3165 C3164 1.387 . S
C3165 C3167 1.387 . S
H3166 C3173 0.950 . S
C3167 C3165 1.387 . S
C3167 C3169 1.390 . S
C3167 H3171 0.950 . S
H3168 C3164 0.950 . S
C3169 C3167 1.390 . S
C3169 C3170 1.387 . S
C3169 H3172 0.950 . S
C3170 C3169 1.387 . S
C3170 C3173 1.387 . S
H3171 C3167 0.950 . S
H3172 C3169 0.950 . S
C3173 C3164 1.390 . S
C3173 H3166 0.950 . S
C3173 C3170 1.387 . S
C3174 C3175 1.387 . S
C3174 H3178 0.950 . S
C3174 C3183 1.390 . S
C3175 C3174 1.387 . S
C3175 C3177 1.387 . S
H3176 C3183 0.950 . S
C3177 C3175 1.387 . S
C3177 C3179 1.390 . S
C3177 H3181 0.950 . S
H3178 C3174 0.950 . S
C3179 C3177 1.390 . S
C3179 C3180 1.387 . S
C3179 H3182 0.950 . S
C3180 C3179 1.387 . S
C3180 C3183 1.387 . S
H3181 C3177 0.950 . S
H3182 C3179 0.950 . S
C3183 C3174 1.390 . S
C3183 H3176 0.950 . S
C3183 C3180 1.387 . S
C3184 C3185 1.387 . S
C3184 H3188 0.950 . S
C3184 C3193 1.390 . S
C3185 C3184 1.387 . S
C3185 C3187 1.387 . S
H3186 C3193 0.950 . S
C3187 C3185 1.387 . S
C3187 C3189 1.390 . S
C3187 H3191 0.950 . S
H3188 C3184 0.950 . S
C3189 C3187 1.390 . S
C3189 C3190 1.387 . S
C3189 H3192 0.950 . S
C3190 C3189 1.387 . S
C3190 C3193 1.387 . S
H3191 C3187 0.950 . S
H3192 C3189 0.950 . S
C3193 C3184 1.390 . S
C3193 H3186 0.950 . S
C3193 C3190 1.387 . S
C3194 C3195 1.387 . S
C3194 H3198 0.950 . S
C3194 C3203 1.390 . S
C3195 C3194 1.387 . S
C3195 C3197 1.387 . S
H3196 C3203 0.950 . S
C3197 C3195 1.387 . S
C3197 C3199 1.390 . S
C3197 H3201 0.950 . S
H3198 C3194 0.950 . S
C3199 C3197 1.390 . S
C3199 C3200 1.387 . S
C3199 H3202 0.950 . S
C3200 C3199 1.387 . S
C3200 C3203 1.387 . S
H3201 C3197 0.950 . S
H3202 C3199 0.950 . S
C3203 C3194 1.390 . S
C3203 H3196 0.950 . S
C3203 C3200 1.387 . S
C3204 C3205 1.387 . S
C3204 H3208 0.950 . S
C3204 C3213 1.390 . S
C3205 C3204 1.387 . S
C3205 C3207 1.387 . S
H3206 C3213 0.950 . S
C3207 C3205 1.387 . S
C3207 C3209 1.390 . S
C3207 H3211 0.950 . S
H3208 C3204 0.950 . S
C3209 C3207 1.390 . S
C3209 C3210 1.387 . S
C3209 H3212 0.950 . S
C3210 C3209 1.387 . S
C3210 C3213 1.387 . S
H3211 C3207 0.950 . S
H3212 C3209 0.950 . S
C3213 C3204 1.390 . S
C3213 H3206 0.950 . S
C3213 C3210 1.387 . S
C3214 C3215 1.387 . S
C3214 H3218 0.950 . S
C3214 C3223 1.390 . S
C3215 C3214 1.387 . S
C3215 C3217 1.387 . S
H3216 C3223 0.950 . S
C3217 C3215 1.387 . S
C3217 C3219 1.390 . S
C3217 H3221 0.950 . S
H3218 C3214 0.950 . S
C3219 C3217 1.390 . S
C3219 C3220 1.387 . S
C3219 H3222 0.950 . S
C3220 C3219 1.387 . S
C3220 C3223 1.387 . S
H3221 C3217 0.950 . S
H3222 C3219 0.950 . S
C3223 C3214 1.390 . S
C3223 H3216 0.950 . S
C3223 C3220 1.387 . S
C3224 C3225 1.387 . S
C3224 H3228 0.950 . S
C3224 C3233 1.390 . S
C3225 C3224 1.387 . S
C3225 C3227 1.387 . S
H3226 C3233 0.950 . S
C3227 C3225 1.387 . S
C3227 C3229 1.390 . S
C3227 H3231 0.950 . S
H3228 C3224 0.950 . S
C3229 C3227 1.390 . S
C3229 C3230 1.387 . S
C3229 H3232 0.950 . S
C3230 C3229 1.387 . S
C3230 C3233 1.387 . S
H3231 C3227 0.950 . S
H3232 C3229 0.950 . S
C3233 C3224 1.390 . S
C3233 H3226 0.950 . S
C3233 C3230 1.387 . S
C3234 C3235 1.387 . S
C3234 H3238 0.950 . S
C3234 C3243 1.390 . S
C3235 C3234 1.387 . S
C3235 C3237 1.387 . S
H3236 C3243 0.950 . S
C3237 C3235 1.387 . S
C3237 C3239 1.390 . S
C3237 H3241 0.950 . S
H3238 C3234 0.950 . S
C3239 C3237 1.390 . S
C3239 C3240 1.387 . S
C3239 H3242 0.950 . S
C3240 C3239 1.387 . S
C3240 C3243 1.387 . S
H3241 C3237 0.950 . S
H3242 C3239 0.950 . S
C3243 C3234 1.390 . S
C3243 H3236 0.950 . S
C3243 C3240 1.387 . S
C3244 C3245 1.387 . S
C3244 H3248 0.950 . S
C3244 C3253 1.390 . S
C3245 C3244 1.387 . S
C3245 C3247 1.387 . S
H3246 C3253 0.950 . S
C3247 C3245 1.387 . S
C3247 C3249 1.390 . S
C3247 H3251 0.950 . S
H3248 C3244 0.950 . S
C3249 C3247 1.390 . S
C3249 C3250 1.387 . S
C3249 H3252 0.950 . S
C3250 C3249 1.387 . S
C3250 C3253 1.387 . S
H3251 C3247 0.950 . S
H3252 C3249 0.950 . S
C3253 C3244 1.390 . S
C3253 H3246 0.950 . S
C3253 C3250 1.387 . S
C3254 C3255 1.387 . S
C3254 H3258 0.950 . S
C3254 C3263 1.390 . S
C3255 C3254 1.387 . S
C3255 C3257 1.387 . S
H3256 C3263 0.950 . S
C3257 C3255 1.387 . S
C3257 C3259 1.390 . S
C3257 H3261 0.950 . S
H3258 C3254 0.950 . S
C3259 C3257 1.390 . S
C3259 C3260 1.387 . S
C3259 H3262 0.950 . S
C3260 C3259 1.387 . S
C3260 C3263 1.387 . S
H3261 C3257 0.950 . S
H3262 C3259 0.950 . S
C3263 C3254 1.390 . S
C3263 H3256 0.950 . S
C3263 C3260 1.387 . S
C1345 C12 1.448 . S
C1350 C964 1.446 . S
C1355 C922 1.447 . S
C1360 C26 1.447 . S
C1365 C936 1.446 . S
C1370 C40 1.447 . S
C1375 C54 1.447 . S
C1380 C950 1.447 . S
C1385 C1006 1.447 . S
C1390 C68 1.447 . S
C1395 C978 1.447 . S
C1400 C82 1.447 . S
C1405 C992 1.447 . S
C1410 C96 1.447 . S
C1415 C110 1.447 . S
C1420 C908 1.447 . S
C1425 C124 1.447 . S
C1430 C894 1.447 . S
C1435 C138 1.446 . S
C1440 C852 1.448 . S
C1445 C152 1.447 . S
C1450 C866 1.447 . S
C1455 C166 1.447 . S
C1460 C880 1.447 . S
C1465 C180 1.447 . S
C1470 C810 1.447 . S
C1475 C824 1.447 . S
C1480 C194 1.447 . S
C1485 C838 1.447 . S
C1490 C208 1.447 . S
C1495 C222 1.447 . S
C1500 C796 1.447 . S
C1505 C236 1.447 . S
C1510 C782 1.447 . S
C1515 C250 1.447 . S
C1520 C698 1.447 . S
C1525 C712 1.447 . S
C1530 C264 1.447 . S
C1535 C726 1.446 . S
C1540 C278 1.447 . S
C1545 C684 1.447 . S
C1550 C292 1.447 . S
C1555 C306 1.447 . S
C1560 C754 1.447 . S
C1565 C320 1.447 . S
C1570 C768 1.447 . S
C1575 C334 1.446 . S
C1580 C740 1.448 . S
C1585 C348 1.447 . S
C1590 C1300 1.447 . S
C1595 C362 1.447 . S
C1600 C1258 1.447 . S
C1605 C376 1.447 . S
C1610 C1272 1.446 . S
C1615 C390 1.447 . S
C1620 C1286 1.447 . S
C1625 C404 1.447 . S
C1630 C1342 1.447 . S
C1635 C418 1.447 . S
C1640 C1314 1.447 . S
C1645 C1328 1.447 . S
C1650 C432 1.447 . S
C1655 C446 1.446 . S
C1660 C1244 1.447 . S
C1665 C460 1.447 . S
C1670 C1230 1.447 . S
C1675 C1188 1.447 . S
C1680 C474 1.447 . S
C1685 C488 1.447 . S
C1690 C1202 1.447 . S
C1695 C502 1.447 . S
C1700 C1216 1.446 . S
C1705 C516 1.446 . S
C1710 C1146 1.447 . S
C1715 C530 1.447 . S
C1720 C1160 1.447 . S
C1725 C544 1.447 . S
C1730 C1174 1.447 . S
C1735 C1132 1.448 . S
C1740 C558 1.446 . S
C1745 C572 1.447 . S
C1750 C1118 1.447 . S
C1755 C586 1.447 . S
C1760 C1034 1.447 . S
C1765 C600 1.447 . S
C1770 C1048 1.447 . S
C1775 C1062 1.447 . S
C1780 C614 1.447 . S
C1785 C628 1.446 . S
C1790 C1020 1.447 . S
C1795 C1090 1.447 . S
C1800 C642 1.447 . S
C1805 C656 1.446 . S
C1810 C1104 1.447 . S
C1815 C670 1.446 . S
C1820 C1076 1.447 . S
C1825 C4 1.559 . S
C1830 C550 1.558 . S
C1835 C18 1.559 . S
C1840 C508 1.558 . S
C1845 C522 1.558 . S
C1850 C32 1.559 . S
C1855 C46 1.559 . S
C1860 C536 1.558 . S
C1865 C466 1.558 . S
C1870 C60 1.559 . S
C1875 C480 1.559 . S
C1880 C74 1.558 . S
C1885 C494 1.559 . S
C1890 C88 1.558 . S
C1895 C452 1.559 . S
C1900 C102 1.558 . S
C1905 C438 1.559 . S
C1910 C116 1.558 . S
C1915 C130 1.558 . S
C1920 C396 1.559 . S
C1925 C410 1.559 . S
C1930 C144 1.558 . S
C1935 C158 1.558 . S
C1940 C424 1.559 . S
C1945 C354 1.559 . S
C1950 C172 1.558 . S
C1955 C368 1.559 . S
C1960 C186 1.558 . S
C1965 C200 1.559 . S
C1970 C382 1.558 . S
C1975 C214 1.558 . S
C1980 C340 1.559 . S
C1985 C228 1.558 . S
C1990 C620 1.559 . S
C1995 C242 1.559 . S
C2000 C662 1.558 . S
C2005 C634 1.558 . S
C2010 C256 1.559 . S
C2015 C648 1.559 . S
C2020 C270 1.558 . S
C2025 C284 1.558 . S
C2030 C564 1.559 . S
C2035 C298 1.559 . S
C2040 C592 1.558 . S
C2045 C606 1.558 . S
C2050 C312 1.559 . S
C2055 C326 1.558 . S
C2060 C578 1.559 . S
C2065 C1222 1.559 . S
C2070 C676 1.558 . S
C2075 C1180 1.559 . S
C2080 C690 1.558 . S
C2085 C1194 1.558 . S
C2090 C704 1.559 . S
C2095 C718 1.558 . S
C2100 C1208 1.559 . S
C2105 C1138 1.558 . S
C2110 C732 1.559 . S
C2115 C1152 1.559 . S
C2120 C746 1.558 . S
C2125 C760 1.558 . S
C2130 C1166 1.559 . S
C2135 C774 1.558 . S
C2140 C1124 1.559 . S
C2145 C1110 1.558 . S
C2150 C788 1.559 . S
C2155 C802 1.559 . S
C2160 C1068 1.558 . S
C2165 C1082 1.558 . S
C2170 C816 1.559 . S
C2175 C1096 1.558 . S
C2180 C830 1.559 . S
C2185 C844 1.559 . S
C2190 C1026 1.558 . S
C2195 C858 1.558 . S
C2200 C1040 1.559 . S
C2205 C1054 1.558 . S
C2210 C872 1.559 . S
C2215 C886 1.559 . S
C2220 C1012 1.558 . S
C2225 C1292 1.559 . S
C2230 C900 1.558 . S
C2235 C1334 1.558 . S
C2240 C914 1.559 . S
C2245 C928 1.559 . S
C2250 C1306 1.558 . S
C2255 C1320 1.558 . S
C2260 C942 1.559 . S
C2265 C1236 1.558 . S
C2270 C956 1.559 . S
C2275 C1264 1.558 . S
C2280 C970 1.559 . S
C2285 C984 1.559 . S
C2290 C1278 1.558 . S
C2295 C1250 1.558 . S
C2300 C998 1.559 . S
C2305 C5 1.159 . S
C2310 C397 1.159 . S
C2315 C411 1.160 . S
C2320 C19 1.158 . S
C2325 C33 1.156 . S
C2330 C425 1.162 . S
C2335 C439 1.160 . S
C2340 C47 1.158 . S
C2345 C61 1.159 . S
C2350 C341 1.159 . S
C2355 C75 1.156 . S
C2360 C355 1.162 . S
C2365 C89 1.162 . S
C2370 C369 1.156 . S
C2375 C383 1.160 . S
C2380 C103 1.158 . S
C2385 C537 1.157 . S
C2390 C117 1.162 . S
C2395 C131 1.162 . S
C2400 C551 1.157 . S
C2405 C145 1.162 . S
C2410 C509 1.156 . S
C2415 C159 1.156 . S
C2420 C523 1.162 . S
C2425 C173 1.156 . S
C2430 C481 1.162 . S
C2435 C187 1.162 . S
C2440 C495 1.156 . S
C2445 C201 1.157 . S
C2450 C453 1.162 . S
C2455 C215 1.157 . S
C2460 C467 1.161 . S
C2465 C229 1.159 . S
C2470 C635 1.159 . S
C2475 C243 1.160 . S
C2480 C607 1.159 . S
C2485 C621 1.162 . S
C2490 C257 1.157 . S
C2495 C271 1.162 . S
C2500 C579 1.157 . S
C2505 C593 1.162 . S
C2510 C285 1.156 . S
C2515 C299 1.158 . S
C2520 C565 1.161 . S
C2525 C313 1.162 . S
C2530 C663 1.156 . S
C2535 C649 1.162 . S
C2540 C327 1.156 . S
C2545 C1069 1.158 . S
C2550 C677 1.160 . S
C2555 C691 1.158 . S
C2560 C1083 1.161 . S
C2565 C1097 1.162 . S
C2570 C705 1.156 . S
C2575 C719 1.160 . S
C2580 C1111 1.159 . S
C2585 C1013 1.159 . S
C2590 C733 1.159 . S
C2595 C1027 1.161 . S
C2600 C747 1.158 . S
C2605 C1041 1.157 . S
C2610 C761 1.162 . S
C2615 C775 1.161 . S
C2620 C1055 1.158 . S
C2625 C789 1.156 . S
C2630 C1209 1.162 . S
C2635 C1223 1.158 . S
C2640 C803 1.161 . S
C2645 C1181 1.156 . S
C2650 C817 1.162 . S
C2655 C1195 1.162 . S
C2660 C831 1.156 . S
C2665 C845 1.156 . S
C2670 C1153 1.162 . S
C2675 C859 1.162 . S
C2680 C1167 1.156 . S
C2685 C1125 1.156 . S
C2690 C873 1.162 . S
C2695 C1139 1.160 . S
C2700 C887 1.158 . S
C2705 C1307 1.159 . S
C2710 C901 1.159 . S
C2715 C915 1.162 . S
C2720 C1279 1.156 . S
C2725 C1293 1.156 . S
C2730 C929 1.162 . S
C2735 C943 1.159 . S
C2740 C1251 1.160 . S
C2745 C957 1.161 . S
C2750 C1265 1.157 . S
C2755 C971 1.158 . S
C2760 C1237 1.160 . S
C2765 C1335 1.156 . S
C2770 C985 1.162 . S
C2775 C999 1.156 . S
C2780 C1321 1.162 . S
C2785 C445 1.102 . S
C2790 C11 1.098 . S
C2795 C403 1.102 . S
C2800 C25 1.098 . S
C2805 C39 1.102 . S
C2810 C417 1.098 . S
C2815 C431 1.102 . S
C2820 C53 1.098 . S
C2825 C361 1.098 . S
C2830 C67 1.102 . S
C2835 C81 1.098 . S
C2840 C375 1.102 . S
C2845 C95 1.098 . S
C2850 C389 1.102 . S
C2855 C347 1.102 . S
C2860 C109 1.098 . S
C2865 C627 1.098 . S
C2870 C123 1.102 . S
C2875 C137 1.098 . S
C2880 C585 1.102 . S
C2885 C151 1.098 . S
C2890 C599 1.102 . S
C2895 C613 1.102 . S
C2900 C165 1.098 . S
C2905 C179 1.098 . S
C2910 C669 1.102 . S
C2915 C641 1.102 . S
C2920 C193 1.098 . S
C2925 C655 1.102 . S
C2930 C207 1.098 . S
C2935 C221 1.098 . S
C2940 C571 1.102 . S
C2945 C235 1.098 . S
C2950 C557 1.102 . S
C2955 C249 1.102 . S
C2960 C473 1.098 . S
C2965 C263 1.102 . S
C2970 C487 1.098 . S
C2975 C501 1.098 . S
C2980 C277 1.102 . S
C2985 C459 1.098 . S
C2990 C291 1.102 . S
C2995 C305 1.098 . S
C3000 C529 1.102 . S
C3005 C319 1.102 . S
C3010 C543 1.098 . S
C3015 C333 1.102 . S
C3020 C515 1.098 . S
C3025 C683 1.102 . S
C3030 C1117 1.098 . S
C3035 C697 1.098 . S
C3040 C1075 1.102 . S
C3045 C711 1.102 . S
C3050 C1089 1.098 . S
C3055 C1103 1.098 . S
C3060 C725 1.102 . S
C3065 C1033 1.098 . S
C3070 C739 1.102 . S
C3075 C1047 1.098 . S
C3080 C753 1.102 . S
C3085 C767 1.098 . S
C3090 C1061 1.102 . S
C3095 C1019 1.098 . S
C3100 C781 1.102 . S
C3105 C1299 1.102 . S
C3110 C795 1.098 . S
C3115 C1257 1.102 . S
C3120 C809 1.098 . S
C3125 C1271 1.098 . S
C3130 C823 1.102 . S
C3135 C1285 1.102 . S
C3140 C837 1.098 . S
C3145 C1341 1.102 . S
C3150 C851 1.098 . S
C3155 C1313 1.098 . S
C3160 C865 1.102 . S
C3165 C1327 1.098 . S
C3170 C879 1.102 . S
C3175 C1243 1.098 . S
C3180 C893 1.102 . S
C3185 C907 1.098 . S
C3190 C1229 1.102 . S
C3195 C1145 1.098 . S
C3200 C921 1.102 . S
C3205 C1159 1.102 . S
C3210 C935 1.098 . S
C3215 C1173 1.098 . S
C3220 C949 1.102 . S
C3225 C1131 1.102 . S
C3230 C963 1.098 . S
C3235 C1201 1.102 . S
C3240 C977 1.098 . S
C3245 C1215 1.102 . S
C3250 C991 1.098 . S
C3255 C1187 1.102 . S
C3260 C1005 1.098 . S
