# Generated by pormake.
# Topology wiu, (6)-cn, num edge types: 1
# Building blocks:
#     Node 0, Type 0, BuildingBlock: UKALOJ_clean_sbu_0, # of connection points: 6
#     Node 1, Type 0, BuildingBlock: UKALOJ_clean_sbu_0, # of connection points: 6
#     Node 2, Type 0, BuildingBlock: UKALOJ_clean_sbu_0, # of connection points: 6
#     Node 3, Type 0, BuildingBlock: UKALOJ_clean_sbu_0, # of connection points: 6
#     Node 4, Type 0, BuildingBlock: UKALOJ_clean_sbu_0, # of connection points: 6
#     Node 5, Type 0, BuildingBlock: UKALOJ_clean_sbu_0, # of connection points: 6
#     Node 6, Type 0, BuildingBlock: UKALOJ_clean_sbu_0, # of connection points: 6
#     Node 7, Type 0, BuildingBlock: UKALOJ_clean_sbu_0, # of connection points: 6
#     Node 8, Type 0, BuildingBlock: UKALOJ_clean_sbu_0, # of connection points: 6
#     Node 9, Type 0, BuildingBlock: UKALOJ_clean_sbu_0, # of connection points: 6
#     Node 10, Type 0, BuildingBlock: UKALOJ_clean_sbu_0, # of connection points: 6
#     Node 11, Type 0, BuildingBlock: UKALOJ_clean_sbu_0, # of connection points: 6
#     Node 12, Type 0, BuildingBlock: UKALOJ_clean_sbu_0, # of connection points: 6
#     Node 13, Type 0, BuildingBlock: UKALOJ_clean_sbu_0, # of connection points: 6
#     Node 14, Type 0, BuildingBlock: UKALOJ_clean_sbu_0, # of connection points: 6
#     Node 15, Type 0, BuildingBlock: UKALOJ_clean_sbu_0, # of connection points: 6
#     Edge 16, Type (0, 0), BuildingBlock: CIFDUS_clean_linker_0, # of connection points: 2
#     Edge 17, Type (0, 0), BuildingBlock: CIFDUS_clean_linker_0, # of connection points: 2
#     Edge 18, Type (0, 0), BuildingBlock: CIFDUS_clean_linker_0, # of connection points: 2
#     Edge 19, Type (0, 0), BuildingBlock: CIFDUS_clean_linker_0, # of connection points: 2
#     Edge 20, Type (0, 0), BuildingBlock: CIFDUS_clean_linker_0, # of connection points: 2
#     Edge 21, Type (0, 0), BuildingBlock: CIFDUS_clean_linker_0, # of connection points: 2
#     Edge 22, Type (0, 0), BuildingBlock: CIFDUS_clean_linker_0, # of connection points: 2
#     Edge 23, Type (0, 0), BuildingBlock: CIFDUS_clean_linker_0, # of connection points: 2
#     Edge 24, Type (0, 0), BuildingBlock: CIFDUS_clean_linker_0, # of connection points: 2
#     Edge 25, Type (0, 0), BuildingBlock: CIFDUS_clean_linker_0, # of connection points: 2
#     Edge 26, Type (0, 0), BuildingBlock: CIFDUS_clean_linker_0, # of connection points: 2
#     Edge 27, Type (0, 0), BuildingBlock: CIFDUS_clean_linker_0, # of connection points: 2
#     Edge 28, Type (0, 0), BuildingBlock: CIFDUS_clean_linker_0, # of connection points: 2
#     Edge 29, Type (0, 0), BuildingBlock: CIFDUS_clean_linker_0, # of connection points: 2
#     Edge 30, Type (0, 0), BuildingBlock: CIFDUS_clean_linker_0, # of connection points: 2
#     Edge 31, Type (0, 0), BuildingBlock: CIFDUS_clean_linker_0, # of connection points: 2
#     Edge 32, Type (0, 0), BuildingBlock: CIFDUS_clean_linker_0, # of connection points: 2
#     Edge 33, Type (0, 0), BuildingBlock: CIFDUS_clean_linker_0, # of connection points: 2
#     Edge 34, Type (0, 0), BuildingBlock: CIFDUS_clean_linker_0, # of connection points: 2
#     Edge 35, Type (0, 0), BuildingBlock: CIFDUS_clean_linker_0, # of connection points: 2
#     Edge 36, Type (0, 0), BuildingBlock: CIFDUS_clean_linker_0, # of connection points: 2
#     Edge 37, Type (0, 0), BuildingBlock: CIFDUS_clean_linker_0, # of connection points: 2
#     Edge 38, Type (0, 0), BuildingBlock: CIFDUS_clean_linker_0, # of connection points: 2
#     Edge 39, Type (0, 0), BuildingBlock: CIFDUS_clean_linker_0, # of connection points: 2
#     Edge 40, Type (0, 0), BuildingBlock: CIFDUS_clean_linker_0, # of connection points: 2
#     Edge 41, Type (0, 0), BuildingBlock: CIFDUS_clean_linker_0, # of connection points: 2
#     Edge 42, Type (0, 0), BuildingBlock: CIFDUS_clean_linker_0, # of connection points: 2
#     Edge 43, Type (0, 0), BuildingBlock: CIFDUS_clean_linker_0, # of connection points: 2
#     Edge 44, Type (0, 0), BuildingBlock: CIFDUS_clean_linker_0, # of connection points: 2
#     Edge 45, Type (0, 0), BuildingBlock: CIFDUS_clean_linker_0, # of connection points: 2
#     Edge 46, Type (0, 0), BuildingBlock: CIFDUS_clean_linker_0, # of connection points: 2
#     Edge 47, Type (0, 0), BuildingBlock: CIFDUS_clean_linker_0, # of connection points: 2
#     Edge 48, Type (0, 0), BuildingBlock: CIFDUS_clean_linker_0, # of connection points: 2
#     Edge 49, Type (0, 0), BuildingBlock: CIFDUS_clean_linker_0, # of connection points: 2
#     Edge 50, Type (0, 0), BuildingBlock: CIFDUS_clean_linker_0, # of connection points: 2
#     Edge 51, Type (0, 0), BuildingBlock: CIFDUS_clean_linker_0, # of connection points: 2
#     Edge 52, Type (0, 0), BuildingBlock: CIFDUS_clean_linker_0, # of connection points: 2
#     Edge 53, Type (0, 0), BuildingBlock: CIFDUS_clean_linker_0, # of connection points: 2
#     Edge 54, Type (0, 0), BuildingBlock: CIFDUS_clean_linker_0, # of connection points: 2
#     Edge 55, Type (0, 0), BuildingBlock: CIFDUS_clean_linker_0, # of connection points: 2
#     Edge 56, Type (0, 0), BuildingBlock: CIFDUS_clean_linker_0, # of connection points: 2
#     Edge 57, Type (0, 0), BuildingBlock: CIFDUS_clean_linker_0, # of connection points: 2
#     Edge 58, Type (0, 0), BuildingBlock: CIFDUS_clean_linker_0, # of connection points: 2
#     Edge 59, Type (0, 0), BuildingBlock: CIFDUS_clean_linker_0, # of connection points: 2
#     Edge 60, Type (0, 0), BuildingBlock: CIFDUS_clean_linker_0, # of connection points: 2
#     Edge 61, Type (0, 0), BuildingBlock: CIFDUS_clean_linker_0, # of connection points: 2
#     Edge 62, Type (0, 0), BuildingBlock: CIFDUS_clean_linker_0, # of connection points: 2
#     Edge 63, Type (0, 0), BuildingBlock: CIFDUS_clean_linker_0, # of connection points: 2
# Relax obj value: 0.364
# Max RMSD: 0.200
# Mean RMSD: 0.200
data_MOF--net-wiu--node1-UKALOJ_clean_sbu_0--edge1-CIFDUS_clean_linker_0
_symmetry_space_group_name_H-M    P1
_symmetry_Int_Tables_number       1
_symmetry_cell_setting            triclinic
loop_
_symmetry_equiv_pos_as_xyz
'x, y, z'
_cell_length_a     23.315252
_cell_length_b     23.294924
_cell_length_c     63.413593
_cell_angle_alpha  90.145965
_cell_angle_beta   89.964416
_cell_angle_gamma 90.114645
loop_
_atom_site_label
_atom_site_type_symbol
_atom_site_fract_x
_atom_site_fract_y
_atom_site_fract_z
_atom_type_partial_charge
Zn0 Zn 0.37474 0.1407 0.09239 0.0
O1 O 0.34169 0.21532 0.10874 0.0
C2 C 0.26122 0.08785 0.10338 0.0
Zn3 Zn 0.30951 0.15861 0.06769 0.0
C4 C 0.30158 0.24764 0.10223 0.0
O5 O 0.27744 0.23494 0.0847 0.0
C6 C 0.39773 0.0625 0.05619 0.0
O7 O 0.36621 0.20691 0.05127 0.0
O8 O 0.43274 0.18881 0.07496 0.0
N9 N 0.25116 0.16857 0.04354 0.0
C10 C 0.24625 0.21005 0.02881 0.0
C11 C 0.19192 0.14115 0.01938 0.0
N12 N 0.21686 0.12603 0.03772 0.0
N13 N 0.20985 0.19364 1.01333 0.0
C14 C 0.45447 0.16498 0.13046 0.0
C15 C 0.47314 0.08042 0.1409 0.0
N16 N 0.43255 0.12833 0.11607 0.0
N17 N 0.44501 0.07577 0.12244 0.0
N18 N 0.47947 0.13602 0.14638 0.0
H19 H 0.45197 0.24201 0.11169 0.0
H20 H 0.49358 0.24736 0.13579 0.0
H21 H 0.41695 0.24711 0.13693 0.0
C22 C 0.4543 0.22907 0.12848 0.0
C23 C 0.27493 0.26766 0.03003 0.0
H24 H 0.2812 0.28073 0.04669 0.0
H25 H 0.24886 0.30049 0.02179 0.0
H26 H 0.31749 0.26562 0.02226 0.0
O27 O 0.35087 0.08603 0.05001 0.0
O28 O 0.4123 0.06983 0.07536 0.0
C29 C 0.41772 0.20864 0.05716 0.0
O30 O 0.31309 0.09076 0.10964 0.0
O31 O 0.24876 0.10794 0.08529 0.0
Zn32 Zn 0.65839 0.59157 0.32337 0.0
O33 O 0.60759 0.65701 0.3129 0.0
C34 C 0.75336 0.67345 0.3072 0.0
Zn35 Zn 0.69426 0.64647 0.3487 0.0
C36 C 0.61363 0.70527 0.32171 0.0
O37 O 0.64121 0.70971 0.33878 0.0
C38 C 0.74346 0.5292 0.35126 0.0
O39 O 0.62869 0.61318 0.36932 0.0
O40 O 0.58961 0.56178 0.34424 0.0
N41 N 0.72133 0.70137 0.37159 0.0
C42 C 0.71759 0.69758 0.39267 0.0
C43 C 0.74463 0.78294 0.38554 0.0
N44 N 0.73837 0.75435 0.36714 0.0
N45 N 0.73087 0.74825 0.40168 0.0
C46 C 0.60831 0.55233 0.28015 0.0
C47 C 0.58994 0.46395 0.28562 0.0
N48 N 0.6261 0.54007 0.29989 0.0
N49 N 0.61446 0.48517 0.30325 0.0
N50 N 0.58469 0.50545 0.27098 0.0
H51 H 0.65005 0.63542 0.2769 0.0
H52 H 0.57562 0.63395 0.27048 0.0
H53 H 0.62733 0.60336 0.25261 0.0
C54 C 0.6162 0.60937 0.26948 0.0
C55 C 0.70285 0.64403 0.40461 0.0
H56 H 0.65654 0.64452 0.4086 0.0
H57 H 0.72733 0.64218 0.4196 0.0
H58 H 0.71234 0.60519 0.39522 0.0
O59 O 0.74894 0.579 0.35938 0.0
O60 O 0.7118 0.52273 0.33503 0.0
C61 C 0.58931 0.57905 0.36332 0.0
O62 O 0.72471 0.62858 0.30198 0.0
O63 O 0.75576 0.68594 0.32678 0.0
Zn64 Zn 0.21558 0.90147 0.58168 0.0
O65 O 0.24935 0.82679 0.59576 0.0
C66 C 0.32279 0.96566 0.59476 0.0
Zn67 Zn 0.28517 0.89265 0.55785 0.0
C68 C 0.29504 0.80085 0.59081 0.0
O69 O 0.32391 0.8198 0.57516 0.0
C70 C 0.18899 0.98318 0.54672 0.0
O71 O 0.23758 0.83551 0.54026 0.0
O72 O 0.16541 0.85021 0.56213 0.0
N73 N 0.34926 0.88674 0.5357 0.0
C74 C 0.34825 0.8783 0.51463 0.0
C75 C 0.43556 0.8736 0.52438 0.0
N76 N 0.40357 0.88379 0.54169 0.0
N77 N 0.40192 0.86914 0.50718 0.0
C78 C 0.1642 0.9032 0.62663 0.0
C79 C 0.07385 0.90865 0.62207 0.0
N80 N 0.15501 0.90307 0.60559 0.0
N81 N 0.09873 0.90606 0.60279 0.0
N82 N 0.11425 0.90737 0.63725 0.0
H83 H 0.21789 0.87442 0.65231 0.0
H84 H 0.23887 0.94139 0.64055 0.0
H85 H 0.25366 0.87551 0.62746 0.0
C86 C 0.2218 0.89789 0.63717 0.0
C87 C 0.29503 0.88145 0.50138 0.0
H88 H 0.26185 0.90815 0.50897 0.0
H89 H 0.27713 0.83765 0.49929 0.0
H90 H 0.30483 0.89962 0.48562 0.0
O91 O 0.23706 0.96225 0.54033 0.0
O92 O 0.17402 0.97281 0.56572 0.0
C93 C 0.18564 0.8287 0.54518 0.0
O94 O 0.27224 0.95369 0.60094 0.0
O95 O 0.33764 0.95093 0.57621 0.0
Zn96 Zn 0.8975 0.43983 0.84771 0.0
O97 O 0.96859 0.4804 0.86302 0.0
C98 C 0.82601 0.54463 0.85713 0.0
Zn99 Zn 0.90687 0.5077 0.82382 0.0
C100 C 0.99101 0.52811 0.85795 0.0
O101 O 0.97093 0.55472 0.842 0.0
C102 C 0.82319 0.40504 0.81157 0.0
O103 O 0.97298 0.46561 0.8102 0.0
O104 O 0.95421 0.39057 0.82991 0.0
N105 N 0.91194 0.5653 0.79962 0.0
C106 C 0.91286 0.55517 0.77868 0.0
C107 C 0.92531 0.64517 0.78305 0.0
N108 N 0.91978 0.6212 0.80233 0.0
N109 N 0.92064 0.60457 0.76799 0.0
C110 C 0.90037 0.38544 0.89238 0.0
C111 C 0.88177 0.29733 0.88632 0.0
N112 N 0.89525 0.37952 0.8713 0.0
N113 N 0.88406 0.3246 0.86756 0.0
N114 N 0.89288 0.33455 0.90207 0.0
H115 H 0.94835 0.44145 0.91262 0.0
H116 H 0.87232 0.44606 0.91575 0.0
H117 H 0.90652 0.47884 0.89339 0.0
C118 C 0.90714 0.44145 0.90392 0.0
C119 C 0.90977 0.4967 0.76847 0.0
H120 H 0.92103 0.46138 0.77905 0.0
H121 H 0.93879 0.49441 0.75463 0.0
H122 H 0.86531 0.48875 0.76305 0.0
O123 O 0.84516 0.45243 0.80518 0.0
O124 O 0.83009 0.39237 0.83095 0.0
C125 C 0.98075 0.41377 0.81459 0.0
O126 O 0.8401 0.49639 0.86507 0.0
O127 O 0.84148 0.55618 0.83839 0.0
Zn128 Zn 0.70355 0.90766 0.94591 0.0
O129 O 0.74095 0.83855 0.92971 0.0
C130 C 0.80425 0.97816 0.93179 0.0
Zn131 Zn 0.7751 0.9024 0.96885 0.0
C132 C 0.78736 0.81391 0.93467 0.0
O133 O 0.8152 0.83257 0.95064 0.0
C134 C 0.67522 0.98529 0.98187 0.0
O135 O 0.73499 0.84207 0.98663 0.0
O136 O 0.65959 0.85113 0.96602 0.0
N137 N 0.84129 0.89996 0.99008 0.0
C138 C 0.84055 0.88969 1.011 0.0
C139 C 0.92818 0.88999 1.00133 0.0
N140 N 0.89578 0.90019 0.98411 0.0
N141 N 0.89436 0.88216 0.01831 0.0
C142 C 0.62056 0.87047 0.91003 0.0
C143 C 0.59328 0.95211 0.8991 0.0
N144 N 0.63931 0.90999 0.92401 0.0
N145 N 0.62136 0.96059 0.91735 0.0
N146 N 0.59257 0.89592 0.89388 0.0
H147 H 0.62332 0.79719 0.9306 0.0
H148 H 0.58704 0.78512 0.90563 0.0
H149 H 0.66367 0.78949 0.90675 0.0
C150 C 0.62368 0.80691 0.91348 0.0
C151 C 0.78752 0.88924 0.02452 0.0
H152 H 0.75253 0.9144 0.01751 0.0
H153 H 0.77216 0.84445 0.02641 0.0
H154 H 0.79685 0.90707 0.0404 0.0
O155 O 0.72515 0.968 0.98758 0.0
O156 O 0.65977 0.97454 0.96303 0.0
C157 C 0.68365 0.83062 0.98243 0.0
O158 O 0.7541 0.96357 0.92582 0.0
O159 O 0.82096 0.96393 0.95014 0.0
Zn160 Zn 0.41997 0.51138 0.7118 0.0
O161 O 0.48033 0.46908 0.72928 0.0
C162 C 0.32967 0.41523 0.72218 0.0
Zn163 Zn 0.4134 0.44298 0.68814 0.0
C164 C 0.48518 0.4164 0.72545 0.0
O165 O 0.46156 0.39445 0.70926 0.0
C166 C 0.34819 0.54585 0.67412 0.0
O167 O 0.48997 0.47572 0.67459 0.0
O168 O 0.49006 0.55261 0.69435 0.0
N169 N 0.41547 0.37703 0.66686 0.0
C170 C 0.42794 0.37644 0.64611 0.0
C171 C 0.40707 0.29058 0.65484 0.0
N172 N 0.403 0.32354 0.6723 0.0
N173 N 0.4238 0.32268 0.6383 0.0
C174 C 0.43702 0.57492 0.75401 0.0
C175 C 0.43827 0.66286 0.74472 0.0
N176 N 0.42314 0.57648 0.73341 0.0
N177 N 0.42366 0.6312 0.72767 0.0
N178 N 0.44767 0.62818 0.76128 0.0
H179 H 0.4843 0.50633 0.76822 0.0
H180 H 0.42496 0.5314 0.78363 0.0
H181 H 0.41218 0.48718 0.76075 0.0
C182 C 0.43938 0.52173 0.76732 0.0
C183 C 0.43923 0.42879 0.63292 0.0
H184 H 0.48354 0.42703 0.62663 0.0
H185 H 0.40956 0.42931 0.61924 0.0
H186 H 0.43445 0.46915 0.64179 0.0
O187 O 0.36417 0.49701 0.66724 0.0
O188 O 0.35902 0.55913 0.69321 0.0
C189 C 0.51292 0.52321 0.67956 0.0
O190 O 0.35316 0.46039 0.73004 0.0
O191 O 0.33918 0.40446 0.70276 0.0
Zn192 Zn 0.88381 0.1669 0.43841 0.0
O193 O 0.84442 0.23847 0.42387 0.0
C194 C 0.77667 0.10017 0.42747 0.0
Zn195 Zn 0.81668 0.17717 0.46295 0.0
C196 C 0.79863 0.26356 0.42937 0.0
O197 O 0.77247 0.24569 0.44581 0.0
C198 C 0.91728 0.08936 0.47359 0.0
O199 O 0.86329 0.23989 0.47821 0.0
O200 O 0.93446 0.2213 0.45666 0.0
N201 N 0.7581 0.18121 0.48733 0.0
C202 C 0.76592 0.18282 0.50846 0.0
C203 C 0.67694 0.19621 0.50273 0.0
N204 N 0.70276 0.18937 0.48386 0.0
N205 N 0.71542 0.1923 0.51855 0.0
C206 C 0.93488 0.1752 0.39377 0.0
C207 C 1.02304 0.19459 0.39938 0.0
N208 N 0.94361 0.17066 0.4147 0.0
N209 N 0.99846 0.18262 0.41817 0.0
N210 N 0.98366 0.19087 0.38394 0.0
H211 H 0.84351 0.18536 0.38982 0.0
H212 H 0.88093 0.17002 0.36566 0.0
H213 H 0.87056 0.1146 0.38459 0.0
C214 C 0.87946 0.16109 0.38278 0.0
C215 C 0.82338 0.17755 0.51909 0.0
H216 H 0.85975 0.18379 0.50835 0.0
H217 H 0.82729 0.209 0.53217 0.0
H218 H 0.82791 0.1335 0.52544 0.0
O219 O 0.86998 0.11107 0.48032 0.0
O220 O 0.93035 0.09795 0.45429 0.0
C221 C 0.91486 0.24646 0.4729 0.0
O222 O 0.82637 0.11223 0.42029 0.0
O223 O 0.7642 0.11522 0.44627 0.0
Zn224 Zn 0.18172 0.62053 0.19333 0.0
O225 O 0.10743 0.58765 0.17771 0.0
C226 C 0.24084 0.50743 0.18464 0.0
Zn227 Zn 0.16106 0.55719 0.21783 0.0
C228 C 0.07717 0.54494 0.18331 0.0
O229 O 0.09177 0.51749 0.19987 0.0
C230 C 0.2541 0.65143 0.22966 0.0
O231 O 0.10008 0.60995 0.23103 0.0
O232 O 0.13074 0.67759 0.20977 0.0
N233 N 0.14919 0.5018 0.24253 0.0
C234 C 0.15077 0.51247 0.26344 0.0
C235 C 0.13208 0.42339 0.25959 0.0
N236 N 0.13731 0.44649 0.24016 0.0
N237 N 0.1408 0.46392 0.27444 0.0
C238 C 0.19612 0.67105 0.14905 0.0
C239 C 0.20194 0.76119 0.1548 0.0
N240 N 0.19103 0.67888 0.16995 0.0
N241 N 0.19423 0.73493 0.17354 0.0
N242 N 0.20313 0.7217 0.13931 0.0
H243 H 0.17747 0.61895 0.12167 0.0
H244 H 0.23888 0.59722 0.13669 0.0
H245 H 0.16783 0.58258 0.14641 0.0
C246 C 0.19455 0.61412 0.1379 0.0
C247 C 0.15976 0.57074 0.2733 0.0
H248 H 0.14754 0.6064 0.26299 0.0
H249 H 0.13473 0.57484 0.28811 0.0
H250 H 0.20583 0.57636 0.27703 0.0
O251 O 0.22748 0.60682 0.23637 0.0
O252 O 0.25173 0.6617 0.20997 0.0
C253 C 0.10066 0.66167 0.22537 0.0
O254 O 0.2338 0.55713 0.17665 0.0
O255 O 0.22144 0.49823 0.20315 0.0
Zn256 Zn 0.88648 0.65854 0.59349 0.0
O257 O 0.84846 0.73013 0.60848 0.0
C258 C 0.78262 0.58533 0.60438 0.0
Zn259 Zn 0.81675 0.66466 0.57031 0.0
C260 C 0.7997 0.75106 0.60441 0.0
O261 O 0.77144 0.73 0.58899 0.0
C262 C 0.91764 0.58184 0.55767 0.0
O263 O 0.86125 0.7273 0.55462 0.0
O264 O 0.93555 0.71414 0.57535 0.0
N265 N 0.75576 0.66739 0.54753 0.0
C266 C 0.73817 0.71121 0.53535 0.0
C267 C 0.69982 0.63502 0.52326 0.0
N268 N 0.73115 0.62013 0.54022 0.0
N269 N 0.70352 0.692 0.51986 0.0
C270 C 0.93679 0.65522 0.63808 0.0
C271 C 1.02749 0.6538 0.63357 0.0
N272 N 0.94625 0.65741 0.61714 0.0
N273 N 1.00264 0.657 0.61433 0.0
N274 N 0.98685 0.65229 0.64865 0.0
H275 H 0.88102 0.67915 0.66397 0.0
H276 H 0.86361 0.61207 0.65137 0.0
H277 H 0.84557 0.67766 0.6391 0.0
C278 C 0.87865 0.65657 0.64857 0.0
C279 C 0.75411 0.77314 0.53856 0.0
H280 H 0.75957 0.78311 0.5555 0.0
H281 H 0.72062 0.80154 0.53185 0.0
H282 H 0.7951 0.78264 0.53041 0.0
O283 O 0.86952 0.60232 0.55132 0.0
O284 O 0.93154 0.59057 0.57688 0.0
C285 C 0.91273 0.73738 0.55929 0.0
O286 O 0.83102 0.60139 0.61159 0.0
O287 O 0.76847 0.60042 0.58592 0.0
Zn288 Zn 0.14472 0.05968 0.81521 0.0
O289 O 0.08141 0.09906 0.7993 0.0
C290 C 0.22958 0.16517 0.80552 0.0
Zn291 Zn 0.15072 0.1291 0.83911 0.0
C292 C 0.07247 0.15097 0.80324 0.0
O293 O 0.09569 0.17524 0.81916 0.0
C294 C 0.22209 1.02885 0.85139 0.0
O295 O 0.07888 0.08751 0.85257 0.0
O296 O 0.07749 1.01133 0.83239 0.0
N297 N 0.14515 0.1893 0.86309 0.0
C298 C 0.13777 0.1815 0.88404 0.0
C299 C 0.14709 0.27148 0.87911 0.0
N300 N 0.15071 0.24536 0.86007 0.0
N301 N 0.13816 0.23217 0.89428 0.0
C302 C 0.14213 1.0088 0.76995 0.0
C303 C 0.15645 0.91929 0.77445 0.0
N304 N 0.14792 1.00028 0.79092 0.0
N305 N 0.15667 0.94457 0.79367 0.0
N306 N 0.14717 0.95881 0.75938 0.0
H307 H 0.07888 0.07042 0.76094 0.0
H308 H 0.13683 0.0667 0.74288 0.0
H309 H 0.14706 0.10163 0.76771 0.0
C310 C 0.12604 0.06497 0.75982 0.0
C311 C 0.13525 0.12465 0.89518 0.0
H312 H 0.09701 0.12327 0.90557 0.0
H313 H 0.17342 0.12055 0.90552 0.0
H314 H 0.13371 0.08754 0.88444 0.0
O315 O 0.20663 0.07819 0.85787 0.0
O316 O 0.20846 1.01343 0.83276 0.0
C317 C 0.05646 1.03955 0.84792 0.0
O318 O 0.20848 0.11854 0.79783 0.0
O319 O 0.21962 0.17592 0.82487 0.0
Zn320 Zn 0.6906 0.4634 0.09676 0.0
O321 O 0.71982 0.38408 0.1107 0.0
C322 C 0.80282 0.51784 0.10702 0.0
Zn323 Zn 0.75322 0.44628 0.07144 0.0
C324 C 0.7628 0.35498 0.10461 0.0
O325 O 0.7903 0.37256 0.08841 0.0
C326 C 0.6637 0.54271 0.06166 0.0
O327 O 0.6996 0.39361 0.05527 0.0
O328 O 0.63256 0.41969 0.07776 0.0
N329 N 0.8122 0.43934 0.04771 0.0
C330 C 0.82416 0.3963 0.03414 0.0
C331 C 0.87616 0.46774 0.02549 0.0
N332 N 0.84487 0.48354 0.04239 0.0
N333 N 0.86393 0.41319 0.01994 0.0
C334 C 0.63393 0.45457 0.14085 0.0
C335 C 0.54697 0.47761 0.13493 0.0
N336 N 0.63025 0.46857 0.12027 0.0
N337 N 0.57612 0.48275 0.11661 0.0
N338 N 0.58223 0.45896 0.15024 0.0
H339 H 0.68759 0.39583 0.1578 0.0
H340 H 0.69215 0.46853 0.16659 0.0
H341 H 0.72702 0.44655 0.14257 0.0
C342 C 0.68854 0.44088 0.15237 0.0
C343 C 0.79903 0.33709 0.03545 0.0
H344 H 0.78991 0.32546 0.05204 0.0
H345 H 0.82871 0.30498 0.02852 0.0
H346 H 0.75809 0.33573 0.02656 0.0
O347 O 0.70651 0.51529 0.05391 0.0
O348 O 0.65517 0.53887 0.08153 0.0
C349 C 0.64753 0.39647 0.06048 0.0
O350 O 0.75363 0.50961 0.11522 0.0
O351 O 0.81131 0.5019 0.08808 0.0
Zn352 Zn 0.41984 0.9617 0.33559 0.0
O353 O 0.49353 0.99904 0.34954 0.0
C354 C 0.34827 0.05833 0.35277 0.0
Zn355 Zn 0.41937 1.03629 0.31398 0.0
C356 C 0.51425 0.0484 0.34611 0.0
O357 O 0.49037 0.07932 0.33192 0.0
C358 C 0.33706 0.93263 0.30199 0.0
O359 O 0.47839 1.00189 0.29427 0.0
O360 O 0.4712 0.92151 0.31224 0.0
N361 N 0.41399 0.10429 0.29338 0.0
C362 C 0.42112 0.10556 0.27227 0.0
C363 C 0.41525 0.19247 0.28267 0.0
N364 N 0.4101 0.15839 0.2998 0.0
N365 N 0.42288 0.16007 0.26531 0.0
C366 C 0.43672 0.89508 0.37753 0.0
C367 C 0.42479 0.80775 0.36844 0.0
N368 N 0.42848 0.89442 0.35643 0.0
N369 N 0.42161 0.84001 0.35081 0.0
N370 N 0.43502 0.84127 0.38538 0.0
H371 H 0.48007 0.9482 0.40035 0.0
H372 H 0.40354 0.94898 0.40218 0.0
H373 H 0.44026 0.98824 0.3818 0.0
C374 C 0.4401 0.94834 0.39097 0.0
C375 C 0.42558 0.05384 0.25815 0.0
H376 H 0.47147 0.04338 0.2556 0.0
H377 H 0.40624 0.0629 0.24252 0.0
H378 H 0.40394 1.01608 0.26499 0.0
O379 O 0.35353 0.9828 0.29598 0.0
O380 O 0.3499 0.91742 0.32067 0.0
C381 C 0.48788 0.94915 0.29596 0.0
O382 O 0.36635 1.00872 0.35792 0.0
O383 O 0.35845 0.07669 0.33429 0.0
Zn384 Zn 0.21703 0.40797 0.44859 0.0
O385 O 0.25218 0.33447 0.43385 0.0
C386 C 0.32032 0.47697 0.43455 0.0
Zn387 Zn 0.28875 0.39962 0.47115 0.0
C388 C 0.299 0.30955 0.43796 0.0
O389 O 0.32928 0.32914 0.45314 0.0
C390 C 0.19063 0.48696 0.48376 0.0
O391 O 0.24431 0.34123 0.48938 0.0
O392 O 0.17039 0.35437 0.46839 0.0
N393 N 0.35305 0.39928 0.49291 0.0
C394 C 0.37201 0.35718 0.50566 0.0
C395 C 0.41499 0.43411 0.51467 0.0
N396 N 0.38033 0.44694 0.49836 0.0
N397 N 0.41053 0.37802 0.5196 0.0
C398 C 0.15893 0.40648 0.40508 0.0
C399 C 0.06945 0.41189 0.41182 0.0
N400 N 0.15342 0.40712 0.42623 0.0
N401 N 0.09774 0.40992 0.43042 0.0
N402 N 0.10711 0.41001 0.39573 0.0
H403 H 0.20898 0.3771 0.37847 0.0
H404 H 0.22974 0.44568 0.38894 0.0
H405 H 0.24956 0.38255 0.40234 0.0
C406 C 0.21485 0.40217 0.39322 0.0
C407 C 0.35438 0.29527 0.50408 0.0
H408 H 0.34581 0.28298 0.48753 0.0
H409 H 0.38832 0.267 0.51055 0.0
H410 H 0.31452 0.28812 0.51326 0.0
O411 O 0.23926 0.46655 0.4897 0.0
O412 O 0.17494 0.47713 0.46485 0.0
C413 C 0.19235 0.33275 0.48493 0.0
O414 O 0.26944 0.46408 0.42885 0.0
O415 O 0.33738 0.45985 0.45251 0.0
Zn416 Zn 0.90742 0.04362 0.21407 0.0
O417 O 0.97012 0.99377 0.22698 0.0
C418 C 0.82007 0.94963 0.23035 0.0
Zn419 Zn 0.88224 0.97697 0.19072 0.0
C420 C 0.97134 0.94207 0.22128 0.0
O421 O 0.94016 0.9244 0.20621 0.0
C422 C 0.81902 0.08652 0.18245 0.0
O423 O 0.94929 1.01097 0.17176 0.0
O424 O 0.97239 0.08077 0.19328 0.0
N425 N 0.87154 0.91412 0.16844 0.0
C426 C 0.88004 0.91584 0.14742 0.0
C427 C 0.86797 0.82801 0.15576 0.0
N428 N 0.86397 0.85952 0.17359 0.0
N429 N 0.87915 0.86234 0.1392 0.0
C430 C 0.94636 0.09922 0.25615 0.0
C431 C 0.94928 0.18837 0.2487 0.0
N432 N 0.92603 0.10494 0.23636 0.0
N433 N 0.92783 0.1604 0.23177 0.0
N434 N 0.96223 0.15071 0.26404 0.0
H435 H 0.91683 1.01248 0.26224 0.0
H436 H 0.99179 1.02462 0.26663 0.0
H437 H 0.93993 0.05135 0.28519 0.0
C438 C 0.94847 0.04376 0.26819 0.0
C439 C 0.8867 0.96992 0.13476 0.0
H440 H 0.93292 0.97892 0.13225 0.0
H441 H 0.866 0.96514 0.1191 0.0
H442 H 0.86768 1.00724 0.14283 0.0
O443 O 0.82362 1.03557 0.17519 0.0
O444 O 0.84386 0.09905 0.19977 0.0
C445 C 0.98076 0.05375 0.17606 0.0
O446 O 0.84575 0.99657 0.23543 0.0
O447 O 0.81899 0.93603 0.21085 0.0
Zn448 Zn 0.30762 0.68855 0.96227 0.0
O449 O 0.35804 0.75457 0.97194 0.0
C450 C 0.40386 0.60184 0.97719 0.0
Zn451 Zn 0.36836 0.66062 0.93783 0.0
C452 C 0.40945 0.75268 0.96602 0.0
O453 O 0.42451 0.71841 0.95147 0.0
C454 C 0.26015 0.59606 0.93326 0.0
O455 O 0.33042 0.72487 0.9192 0.0
O456 O 0.26343 0.74862 0.94173 0.0
N457 N 0.42391 0.64537 0.91372 0.0
C458 C 0.44261 0.68149 0.8986 0.0
C459 C 0.45757 0.59646 0.88771 0.0
N460 N 0.43421 0.5925 0.90708 0.0
N461 N 0.46286 0.65188 0.88191 0.0
C462 C 0.25728 0.72855 1.00527 0.0
C463 C 0.17027 0.70077 1.00305 0.0
N464 N 0.25037 0.70503 0.98599 0.0
N465 N 0.19613 0.68836 0.98457 0.0
N466 N 0.20778 0.72604 1.01626 0.0
H467 H 0.31873 0.79664 1.00342 0.0
H468 H 0.30896 0.77187 0.02941 0.0
H469 H 0.34841 0.72793 1.01088 0.0
C470 C 0.31136 0.7573 1.01283 0.0
C471 C 0.44285 0.7459 0.90018 0.0
H472 H 0.44777 0.76012 0.91672 0.0
H473 H 0.47848 0.76388 0.89061 0.0
H474 H 0.4023 0.76377 0.89396 0.0
O475 O 0.30818 0.60267 0.92407 0.0
O476 O 0.25185 0.62058 0.95097 0.0
C477 C 0.2875 0.75552 0.92388 0.0
O478 O 0.36157 0.63227 0.9838 0.0
O479 O 0.41054 0.59735 0.95726 0.0
Zn480 Zn 0.65744 0.10513 0.69786 0.0
O481 O 0.58805 0.07007 0.68043 0.0
C482 C 0.72482 0.99681 0.68928 0.0
Zn483 Zn 0.64097 1.03699 0.72172 0.0
C484 C 0.56074 1.02455 0.68475 0.0
O485 O 0.57451 0.99723 0.70146 0.0
C486 C 0.72801 0.13302 0.73619 0.0
O487 O 0.57875 0.08673 0.73549 0.0
O488 O 0.60069 0.15761 0.71397 0.0
N489 N 0.62684 0.97555 0.74449 0.0
C490 C 0.60926 0.98043 0.7647 0.0
C491 C 0.61348 0.891 0.75765 0.0
N492 N 0.62948 0.91991 0.74018 0.0
N493 N 0.59979 0.92813 0.77316 0.0
C494 C 0.67705 0.15279 0.65303 0.0
C495 C 0.68379 0.24335 0.65708 0.0
N496 N 0.66896 0.16364 0.67375 0.0
N497 N 0.67272 0.2201 0.67621 0.0
N498 N 0.68667 0.2017 0.64236 0.0
H499 H 0.66044 0.09751 0.6263 0.0
H500 H 0.72061 0.07733 0.64222 0.0
H501 H 0.64906 0.06362 0.65122 0.0
C502 C 0.67628 0.09448 0.64276 0.0
C503 C 0.60406 1.03607 0.77655 0.0
H504 H 0.63313 0.06913 0.77007 0.0
H505 H 0.55932 0.05187 0.77535 0.0
H506 H 0.61425 1.02993 0.79349 0.0
O507 O 0.70454 0.08557 0.74198 0.0
O508 O 0.72315 0.1473 0.71684 0.0
C509 C 0.57356 0.13827 0.72988 0.0
O510 O 0.71493 0.04678 0.68216 0.0
O511 O 0.70416 0.98282 0.7071 0.0
H512 H 0.41528 0.31203 0.03995 0.0
H513 H 0.51353 0.15634 0.04322 0.0
H514 H 0.60012 0.20734 0.03264 0.0
H515 H 0.64923 0.29727 0.03971 0.0
H516 H 0.55041 0.45103 0.0493 0.0
H517 H 0.4643 0.4033 0.03651 0.0
C518 C 0.45542 0.28949 0.03733 0.0
C519 C 0.46021 0.23222 0.04318 0.0
C520 C 0.50561 0.3203 0.03392 0.0
C521 C 0.51074 0.2015 0.03943 0.0
C522 C 0.55998 0.23069 0.03346 0.0
C523 C 0.60906 0.32038 0.03806 0.0
C524 C 0.6042 0.37573 0.04616 0.0
C525 C 0.55892 0.2907 0.03337 0.0
C526 C 0.55351 0.40721 0.04368 0.0
C527 C 0.50445 0.3799 0.03645 0.0
H528 H 0.53743 0.72292 0.29045 0.0
H529 H 0.68107 0.79883 0.32325 0.0
H530 H 0.67055 0.88684 0.30343 0.0
H531 H 0.59985 0.94956 0.28839 0.0
H532 H 0.44142 0.88052 0.26548 0.0
H533 H 0.47961 0.78332 0.26692 0.0
C534 C 0.56655 0.7587 0.29295 0.0
C535 C 0.6074 0.75637 0.309 0.0
C536 C 0.55798 0.8104 0.28249 0.0
C537 C 0.64689 0.80147 0.31173 0.0
C538 C 0.6418 0.85131 0.30011 0.0
C539 C 0.57556 0.91303 0.2825 0.0
C540 C 0.51718 0.91948 0.27903 0.0
C541 C 0.59445 0.85789 0.28696 0.0
C542 C 0.48612 0.87464 0.26962 0.0
C543 C 0.50732 0.81901 0.27109 0.0
H544 H 0.10152 0.88368 0.52638 0.0
H545 H 0.18201 0.71828 0.53102 0.0
H546 H 0.08942 0.67093 0.52616 0.0
H547 H 0.99094 0.6804 0.53822 0.0
H548 H 0.91411 0.84735 0.54457 0.0
H549 H 0.99769 0.89147 0.52754 0.0
C550 C 0.09848 0.83726 0.52513 0.0
C551 C 0.14628 0.8038 0.53012 0.0
C552 C 0.04482 0.81135 0.52536 0.0
C553 C 0.14448 0.74417 0.52779 0.0
C554 C 0.09148 0.71738 0.52539 0.0
C555 C 0.99209 0.72614 0.53505 0.0
C556 C 0.94944 0.76167 0.54333 0.0
C557 C 0.04162 0.75077 0.527 0.0
C558 C 0.94847 0.82029 0.53879 0.0
C559 C 0.996 0.84515 0.52908 0.0
H560 H 0.12524 0.22978 0.78096 0.0
H561 H 0.96157 0.14819 0.78956 0.0
H562 H 0.91269 0.23815 0.78176 0.0
H563 H 0.92233 0.33683 0.79344 0.0
H564 H 0.08901 0.41522 0.79817 0.0
H565 H 0.13202 0.3334 0.77969 0.0
C566 C 0.07883 0.23183 0.77989 0.0
C567 C 0.04625 0.1856 0.78713 0.0
C568 C 0.05237 0.28491 0.77881 0.0
C569 C 0.98669 0.1852 0.78487 0.0
C570 C 0.95909 0.23676 0.78069 0.0
C571 C 0.96774 0.33624 0.78968 0.0
C572 C 1.00398 0.37793 0.79823 0.0
C573 C 0.99186 0.28734 0.78105 0.0
C574 C 0.06177 0.38072 0.79253 0.0
C575 C 0.08589 0.33437 0.7819 0.0
H576 H 0.60638 0.88022 1.00687 0.0
H577 H 0.6829 0.71717 0.9925 0.0
H578 H 0.58908 0.67106 0.99344 0.0
H579 H 0.49367 0.68948 0.98029 0.0
H580 H 0.41797 0.85737 0.98563 0.0
H581 H 0.50247 0.89144 1.00518 0.0
C582 C 0.60207 0.83399 1.00523 0.0
C583 C 0.64898 0.80208 0.99809 0.0
C584 C 0.54784 0.81044 1.00247 0.0
C585 C 0.64588 0.74228 0.99713 0.0
C586 C 0.59216 0.71642 0.99716 0.0
C587 C 0.49508 0.73303 0.98633 0.0
C588 C 0.45278 0.77239 0.98058 0.0
C589 C 0.54358 0.7518 0.99677 0.0
C590 C 0.45255 0.82785 0.98907 0.0
C591 C 0.50018 0.84681 1.00041 0.0
H592 H 0.62749 0.22135 0.74978 0.0
H593 H 0.46134 0.14366 0.74177 0.0
H594 H 0.41495 0.23432 0.75123 0.0
H595 H 0.42558 0.3362 0.74447 0.0
H596 H 0.59307 0.41353 0.74202 0.0
H597 H 0.63619 0.32447 0.75482 0.0
C598 C 0.58116 0.22424 0.75111 0.0
C599 C 0.54708 0.17856 0.74416 0.0
C600 C 0.55576 0.27735 0.75427 0.0
C601 C 0.48754 0.17994 0.74649 0.0
C602 C 0.46137 0.23169 0.75174 0.0
C603 C 0.47109 0.33391 0.74788 0.0
C604 C 0.50705 0.37871 0.74156 0.0
C605 C 0.49524 0.28148 0.75302 0.0
C606 C 0.56553 0.3779 0.74631 0.0
C607 C 0.58991 0.32703 0.75345 0.0
H608 H 0.11099 0.38566 0.50619 0.0
H609 H 0.18886 0.22046 0.49664 0.0
H610 H 0.09586 0.17356 0.50103 0.0
H611 H 0.99625 0.18603 0.49075 0.0
H612 H 0.9208 0.35447 0.48972 0.0
H613 H 1.00712 0.39488 0.5062 0.0
C614 C 0.10741 0.33916 0.5063 0.0
C615 C 0.15457 0.30608 0.50013 0.0
C616 C 0.05333 0.31404 0.50581 0.0
C617 C 0.15191 0.2462 0.50088 0.0
C618 C 0.09865 0.21974 0.50296 0.0
C619 C 0.99843 0.23121 0.49488 0.0
C620 C 0.955 0.26834 0.4883 0.0
C621 C 0.04916 0.25394 0.50271 0.0
C622 C 0.95555 0.32618 0.49417 0.0
C623 C 1.00465 0.34894 0.50356 0.0
H624 H 0.14483 0.75883 0.23959 0.0
H625 H 0.98957 0.65839 0.23819 0.0
H626 H 0.93254 0.74466 0.24491 0.0
H627 H 0.92805 0.84725 0.23754 0.0
H628 H 0.08329 0.94704 0.23297 0.0
H629 H 0.14026 0.86301 0.24285 0.0
C630 C 0.09864 0.75605 0.2416 0.0
C631 C 0.07027 0.70437 0.23747 0.0
C632 C 0.06671 0.8058 0.24395 0.0
C633 C 1.01124 0.69897 0.24081 0.0
C634 C 0.97892 0.74812 0.24447 0.0
C635 C 0.97424 0.85054 0.23943 0.0
C636 C 1.00269 0.9009 0.23363 0.0
C637 C 1.00608 0.80188 0.2439 0.0
C638 C 0.06167 0.9072 0.23683 0.0
C639 C 0.09389 0.8594 0.2424 0.0
H640 H 0.51456 0.04394 0.06162 0.0
H641 H 0.38278 1.03521 1.01404 0.0
H642 H 0.45563 1.01445 0.98723 0.0
H643 H 0.55776 1.00057 0.97668 0.0
H644 H 0.68975 1.01147 0.02414 0.0
H645 H 0.61672 1.03052 0.05104 0.0
C646 C 0.50127 1.03645 0.04547 0.0
C647 C 0.4419 1.04043 0.04027 0.0
C648 C 0.54419 1.02622 0.02977 0.0
C649 C 0.42715 1.03186 0.01893 0.0
C650 C 0.46926 1.02053 1.00342 0.0
C651 C 0.57104 1.0081 0.99283 0.0
C652 C 0.63055 1.0054 0.99795 0.0
C653 C 0.52814 1.01835 1.00852 0.0
C654 C 0.6453 1.01403 0.01929 0.0
C655 C 0.60309 1.02446 0.03485 0.0
H656 H 0.78411 0.78882 0.31198 0.0
H657 H 0.75997 0.65967 0.26398 0.0
H658 H 0.77457 0.73215 0.23661 0.0
H659 H 0.79253 0.83357 0.22566 0.0
H660 H 0.81408 0.96326 0.27365 0.0
H661 H 0.80085 0.8905 0.30104 0.0
C662 C 0.78276 0.77602 0.29555 0.0
C663 C 0.77147 0.71738 0.29046 0.0
C664 C 0.78952 0.81896 0.27958 0.0
C665 C 0.76916 0.70336 0.2688 0.0
C666 C 0.77702 0.74534 0.25298 0.0
C667 C 0.79339 0.84648 0.24209 0.0
C668 C 0.8035 0.90534 0.24718 0.0
C669 C 0.78653 0.80358 0.25807 0.0
C670 C 0.80566 0.91942 0.26883 0.0
C671 C 0.79859 0.87729 0.28467 0.0
H672 H 0.07142 1.00148 0.55157 0.0
H673 H 0.20672 1.01992 0.50571 0.0
H674 H 0.13641 0.05026 0.47929 0.0
H675 H 1.03521 0.0713 0.46852 0.0
H676 H 0.90021 0.05255 0.51448 0.0
H677 H 0.97055 1.02236 0.54084 0.0
C678 C 0.08605 1.01302 0.53591 0.0
C679 C 0.14576 1.00904 0.53114 0.0
C680 C 0.04458 1.0296 0.52039 0.0
C681 C 0.16211 1.02303 0.51034 0.0
C682 C 0.12142 1.04007 0.49502 0.0
C683 C 1.02072 0.05973 0.48419 0.0
C684 C 0.96102 0.06371 0.48902 0.0
C685 C 0.06227 0.04312 0.4997 0.0
C686 C 0.9448 0.04964 0.50983 0.0
C687 C 0.9855 1.0326 0.52511 0.0
H688 H 0.8065 0.28662 0.81613 0.0
H689 H 0.78822 0.42225 0.77054 0.0
H690 H 0.76219 0.35181 0.74352 0.0
H691 H 0.74485 0.25078 0.73211 0.0
H692 H 0.75994 0.11483 0.77773 0.0
H693 H 0.78711 0.18516 0.80481 0.0
C694 C 0.79592 0.30117 0.80039 0.0
C695 C 0.79927 0.36103 0.7958 0.0
C696 C 0.78113 0.2596 0.78455 0.0
C697 C 0.78628 0.37745 0.77494 0.0
C698 C 0.77148 0.33672 0.7593 0.0
C699 C 0.75494 0.23605 0.74788 0.0
C700 C 0.75116 0.17621 0.7524 0.0
C701 C 0.76927 0.27748 0.76376 0.0
C702 C 0.76305 0.15962 0.77333 0.0
C703 C 0.77827 0.20029 0.789 0.0
H704 H 0.33912 0.39434 0.76552 0.0
H705 H 0.25902 0.3275 0.70935 0.0
H706 H 0.22542 0.24366 0.72892 0.0
H707 H 0.21925 0.18645 0.76216 0.0
H708 H 0.29947 0.25335 0.8183 0.0
H709 H 0.33281 0.33728 0.79875 0.0
C710 C 0.31326 0.36218 0.75759 0.0
C711 C 0.30121 0.36896 0.73574 0.0
C712 C 0.29494 0.3123 0.76897 0.0
C713 C 0.26881 0.32494 0.72601 0.0
C714 C 0.24985 0.27618 0.73724 0.0
C715 C 0.24491 0.21874 0.7701 0.0
C716 C 0.25714 0.21192 0.79193 0.0
C717 C 0.26316 0.26866 0.75872 0.0
C718 C 0.28947 0.25599 0.80166 0.0
C719 C 0.30832 0.30478 0.79043 0.0
H720 H 0.3255 0.81483 0.30737 0.0
H721 H 0.3026 0.94633 0.26042 0.0
H722 H 0.27911 0.87253 0.23412 0.0
H723 H 0.26571 0.76941 0.22389 0.0
H724 H 0.28882 0.63849 0.27101 0.0
H725 H 0.31199 0.71233 0.29723 0.0
C726 C 0.31452 0.82785 0.29148 0.0
C727 C 0.31508 0.88744 0.28634 0.0
C728 C 0.30197 0.78453 0.27612 0.0
C729 C 0.30185 0.90182 0.2653 0.0
C730 C 0.28883 0.85916 0.25007 0.0
C731 C 0.27681 0.75666 0.23979 0.0
C732 C 0.27607 0.69714 0.24507 0.0
C733 C 0.28924 0.80016 0.25516 0.0
C734 C 0.28917 0.68297 0.26612 0.0
C735 C 0.30226 0.72563 0.28127 0.0
H736 H 0.07335 0.5027 0.47907 0.0
H737 H 0.20814 0.52187 0.52508 0.0
H738 H 0.13697 0.54883 0.5518 0.0
H739 H 1.03537 0.5664 0.56266 0.0
H740 H 0.90097 0.54693 0.5165 0.0
H741 H 0.97219 0.5201 0.48987 0.0
C742 C 0.08766 0.51366 0.49484 0.0
C743 C 0.14733 0.51094 0.49962 0.0
C744 C 0.04584 0.52815 0.51046 0.0
C745 C 0.16346 0.52412 0.52051 0.0
C746 C 0.12233 0.53917 0.53597 0.0
C747 C 1.02124 0.55537 0.54688 0.0
C748 C 0.96158 0.55804 0.54202 0.0
C749 C 0.06318 0.54085 0.53126 0.0
C750 C 0.94562 0.5448 0.52112 0.0
C751 C 0.98677 0.5298 0.50571 0.0
H752 H 0.63629 0.5121 0.02048 0.0
H753 H 0.57859 0.62098 0.0712 0.0
H754 H 0.49271 0.6458 0.0509 0.0
H755 H 0.43126 0.63558 0.01859 0.0
H756 H 0.48873 0.52393 0.96856 0.0
H757 H 0.5748 0.50079 0.98869 0.0
C758 C 0.60572 0.54233 0.027 0.0
C759 C 0.61576 0.56542 0.04748 0.0
C760 C 0.55458 0.55493 1.01543 0.0
C761 C 0.57359 0.60296 0.05555 0.0
C762 C 0.52368 0.61678 0.04393 0.0
C763 C 0.46187 0.60518 1.01221 0.0
C764 C 0.45173 0.58107 0.99186 0.0
C765 C 0.51296 0.59246 0.02392 0.0
C766 C 0.4938 0.543 0.98404 0.0
C767 C 0.54386 0.53002 0.99556 0.0
H768 H 0.32063 0.26972 0.1443 0.0
H769 H 0.24655 0.34532 0.08866 0.0
H770 H 0.22608 0.4334 0.10852 0.0
H771 H 0.22808 0.48923 0.14199 0.0
H772 H 0.29835 0.41155 0.19788 0.0
H773 H 0.32278 0.3253 0.17761 0.0
C774 C 0.30055 0.3056 0.13638 0.0
C775 C 0.28578 0.30048 0.11477 0.0
C776 C 0.28874 0.35638 0.14799 0.0
C777 C 0.25832 0.34738 0.10516 0.0
C778 C 0.24691 0.39813 0.11654 0.0
C779 C 0.24986 0.45401 0.14967 0.0
C780 C 0.26241 0.45794 0.1715 0.0
C781 C 0.26208 0.40335 0.13797 0.0
C782 C 0.28882 0.41052 0.18116 0.0
C783 C 0.30247 0.36084 0.16956 0.0
H784 H 0.47307 0.56344 0.35725 0.0
H785 H 0.6054 0.55162 0.40445 0.0
H786 H 0.53446 0.52292 0.43078 0.0
H787 H 0.43496 0.49878 0.44048 0.0
H788 H 0.30101 0.51491 0.39402 0.0
H789 H 0.37161 0.54457 0.36768 0.0
C790 C 0.4863 0.55427 0.37328 0.0
C791 C 0.54481 0.55952 0.37878 0.0
C792 C 0.44469 0.53879 0.38862 0.0
C793 C 0.56087 0.54835 0.39975 0.0
C794 C 0.52019 0.53181 0.41486 0.0
C795 C 0.42085 0.50945 0.42468 0.0
C796 C 0.36219 0.50378 0.41938 0.0
C797 C 0.46192 0.52688 0.40953 0.0
C798 C 0.34549 0.51803 0.39869 0.0
C799 C 0.3861 0.53502 0.38352 0.0
H800 H 0.25066 0.76604 0.6284 0.0
H801 H 0.37693 0.71822 0.58184 0.0
H802 H 0.40015 0.63205 0.6024 0.0
H803 H 0.38595 0.57119 0.63432 0.0
H804 H 0.26457 0.62479 0.6817 0.0
H805 H 0.23742 0.7071 0.65998 0.0
C806 C 0.28343 0.737 0.62264 0.0
C807 C 0.31201 0.74911 0.60344 0.0
C808 C 0.29692 0.68798 0.63467 0.0
C809 C 0.35438 0.71055 0.5965 0.0
C810 C 0.36745 0.661 0.60825 0.0
C811 C 0.35269 0.60027 0.63966 0.0
C812 C 0.3263 0.59094 0.65948 0.0
C813 C 0.33898 0.64918 0.62739 0.0
C814 C 0.28481 0.63028 0.66645 0.0
C815 C 0.26961 0.67764 0.65407 0.0
H816 H 1.02757 0.4949 0.89698 0.0
H817 H 0.07182 0.60703 0.84544 0.0
H818 H 0.16113 0.63343 0.86339 0.0
H819 H 0.22715 0.62446 0.89378 0.0
H820 H 0.17859 0.51944 0.9467 0.0
H821 H 0.09099 0.48963 0.92811 0.0
C822 C 0.05645 0.52545 0.8897 0.0
C823 C 0.04261 0.54889 0.86978 0.0
C824 C 0.10752 0.54093 0.90027 0.0
C825 C 0.08083 0.58858 0.86074 0.0
C826 C 0.13223 0.60336 0.87096 0.0
C827 C 0.19783 0.59419 0.90106 0.0
C828 C 0.21022 0.57271 0.92136 0.0
C829 C 0.14627 0.57947 0.89065 0.0
C830 C 0.17068 0.53549 0.93095 0.0
C831 C 0.1204 0.51887 0.92036 0.0
H832 H 0.8543 0.5686 0.89808 0.0
H833 H 0.75537 0.63188 0.84566 0.0
H834 H 0.73843 0.72196 0.86452 0.0
H835 H 0.75672 0.78504 0.89476 0.0
H836 H 0.85495 0.72344 0.94759 0.0
H837 H 0.86995 0.63161 0.92927 0.0
C838 C 0.82765 0.60141 0.89104 0.0
C839 C 0.80502 0.59276 0.87059 0.0
C840 C 0.81983 0.65422 0.90174 0.0
C841 C 0.77235 0.63682 0.86146 0.0
C842 C 0.76331 0.68869 0.87215 0.0
C843 C 0.78079 0.75132 0.90246 0.0
C844 C 0.80402 0.76113 0.92271 0.0
C845 C 0.78775 0.69827 0.89209 0.0
C846 C 0.8369 0.71747 0.932 0.0
C847 C 0.84481 0.66462 0.92162 0.0
H848 H 0.56261 0.47349 0.64519 0.0
H849 H 0.58531 0.61362 0.68901 0.0
H850 H 0.67479 0.64053 0.67116 0.0
H851 H 0.74489 0.62642 0.64205 0.0
H852 H 0.71649 0.49115 0.59678 0.0
H853 H 0.63156 0.4595 0.61639 0.0
C854 C 0.58682 0.51011 0.65088 0.0
C855 C 0.56662 0.54161 0.66845 0.0
C856 C 0.63784 0.52568 0.64037 0.0
C857 C 0.59924 0.58876 0.6755 0.0
C858 C 0.65068 0.60399 0.66533 0.0
C859 C 0.72091 0.58906 0.63685 0.0
C860 C 0.73798 0.55999 0.6183 0.0
C861 C 0.6704 0.57285 0.64771 0.0
C862 C 0.70505 0.51327 0.61123 0.0
C863 C 0.65616 0.4956 0.62234 0.0
H864 H 0.83162 0.29438 0.38968 0.0
H865 H 0.72362 0.34893 0.44123 0.0
H866 H 0.70032 0.43715 0.42205 0.0
H867 H 0.71163 0.49956 0.39073 0.0
H868 H 0.81382 0.44174 0.33825 0.0
H869 H 0.83903 0.35424 0.35773 0.0
C870 C 0.80264 0.32531 0.39674 0.0
C871 C 0.7795 0.31475 0.41702 0.0
C872 C 0.7891 0.37575 0.38551 0.0
C873 C 0.74182 0.35548 0.4257 0.0
C874 C 0.72881 0.4062 0.41476 0.0
C875 C 0.74017 0.46815 0.38372 0.0
C876 C 0.7623 0.47784 0.36329 0.0
C877 C 0.75262 0.41706 0.39475 0.0
C878 C 0.79725 0.43575 0.35405 0.0
C879 C 0.81132 0.38564 0.36517 0.0
H880 H 0.83124 0.48006 0.14632 0.0
H881 H 0.88972 0.5906 0.09632 0.0
H882 H 0.97965 0.60781 0.1153 0.0
H883 H 0.04324 0.58876 0.14543 0.0
H884 H 0.98803 0.47335 0.19456 0.0
H885 H 0.89607 0.45979 0.17647 0.0
C886 C 0.86316 0.50896 0.13984 0.0
C887 C 0.85304 0.53527 0.12013 0.0
C888 C 0.91601 0.51667 0.15048 0.0
C889 C 0.89588 0.57077 0.11159 0.0
C890 C 0.94755 0.58016 0.12237 0.0
C891 C 1.01131 0.56035 0.15221 0.0
C892 C 1.02306 0.53199 0.17143 0.0
C893 C 0.95847 0.55272 0.14168 0.0
C894 C 0.98077 0.49537 0.17978 0.0
C895 C 0.92784 0.48797 0.16949 0.0
H896 H 0.839 0.78468 0.64297 0.0
H897 H 0.7125 0.82737 0.59594 0.0
H898 H 0.68168 0.9096 0.61739 0.0
H899 H 0.68988 0.96851 0.64983 0.0
H900 H 0.8112 0.92099 0.69787 0.0
H901 H 0.84518 0.84146 0.67568 0.0
C902 C 0.8045 0.81173 0.63735 0.0
C903 C 0.77815 0.79956 0.61774 0.0
C904 C 0.78653 0.8584 0.64992 0.0
C905 C 0.73337 0.83529 0.61093 0.0
C906 C 0.71596 0.88254 0.62317 0.0
C907 C 0.72466 0.94154 0.65522 0.0
C908 C 0.74933 0.95179 0.67523 0.0
C909 C 0.74234 0.89462 0.64267 0.0
C910 C 0.7924 0.91472 0.68242 0.0
C911 C 0.81152 0.86909 0.66976 0.0
H912 H 0.8341 0.93539 0.89316 0.0
H913 H 0.87423 0.07065 0.93725 0.0
H914 H 0.95447 0.10136 0.91499 0.0
H915 H 1.01532 0.08767 0.88397 0.0
H916 H 0.9821 0.94806 0.84084 0.0
H917 H 0.89748 0.92077 0.86176 0.0
C918 C 0.85971 0.97241 0.89759 0.0
C919 C 0.84711 1.00183 0.91661 0.0
C920 C 0.90764 0.98825 0.88508 0.0
C921 C 0.88213 0.04818 0.92256 0.0
C922 C 0.92834 0.06537 0.90989 0.0
C923 C 0.99002 0.05096 0.87906 0.0
C924 C 1.00581 1.01986 0.86074 0.0
C925 C 0.94198 1.03527 0.8913 0.0
C926 C 0.97165 0.97266 0.85483 0.0
C927 C 0.92297 0.95724 0.86679 0.0
H928 H 0.85637 0.11996 0.14366 0.0
H929 H 0.73348 0.16289 0.19188 0.0
H930 H 0.70421 0.24791 0.17178 0.0
H931 H 0.71587 0.31195 0.14107 0.0
H932 H 0.84509 0.27443 0.09439 0.0
H933 H 0.8695 0.18586 0.11316 0.0
C934 C 0.82235 0.14736 0.14954 0.0
C935 C 0.79596 0.13402 0.16904 0.0
C936 C 0.80753 0.19776 0.13826 0.0
C937 C 0.75359 0.17132 0.1768 0.0
C938 C 0.73719 0.22023 0.16533 0.0
C939 C 0.74978 0.28491 0.13502 0.0
C940 C 0.77882 0.30089 0.11627 0.0
C941 C 0.76434 0.23435 0.14617 0.0
C942 C 0.82209 0.26407 0.10874 0.0
C943 C 0.83598 0.2131 0.11948 0.0
H944 H 0.74259 0.14575 0.38977 0.0
H945 H 0.70235 1.01092 0.43377 0.0
H946 H 0.61901 0.9834 0.41241 0.0
H947 H 0.55628 0.9989 0.38182 0.0
H948 H 0.59007 0.13867 0.33912 0.0
H949 H 0.67676 0.1633 0.35934 0.0
C950 C 0.71622 0.10958 0.39442 0.0
C951 C 0.72994 0.07925 0.41312 0.0
C952 C 0.66662 0.09555 0.38243 0.0
C953 C 0.69373 1.03412 0.41934 0.0
C954 C 0.64576 1.0187 0.40716 0.0
C955 C 0.58216 1.03507 0.37688 0.0
C956 C 0.56591 0.06686 0.3588 0.0
C957 C 0.63145 0.0494 0.38879 0.0
C958 C 0.60077 0.1135 0.3529 0.0
C959 C 0.65067 0.12739 0.36446 0.0
H960 H 0.24593 0.26914 0.40269 0.0
H961 H 0.38827 0.23284 0.44397 0.0
H962 H 0.41168 0.14767 0.4227 0.0
H963 H 0.39375 0.08546 0.39127 0.0
H964 H 0.25511 0.12756 0.34918 0.0
H965 H 0.22749 0.20764 0.37208 0.0
C966 C 0.2822 0.24279 0.40717 0.0
C967 C 0.31541 0.25801 0.42502 0.0
C968 C 0.29556 0.19424 0.39478 0.0
C969 C 0.36213 0.22279 0.43034 0.0
C970 C 0.37533 0.17381 0.41819 0.0
C971 C 0.35655 0.11127 0.38745 0.0
C972 C 0.32547 0.09946 0.36876 0.0
C973 C 0.34244 0.15911 0.40031 0.0
C974 C 0.27888 0.13485 0.36362 0.0
C975 C 0.26348 0.18103 0.37663 0.0
H976 H 0.09615 0.04222 0.18156 0.0
H977 H 0.96892 0.09345 0.13623 0.0
H978 H 0.04336 0.10443 0.10922 0.0
H979 H 0.14486 0.09893 0.09834 0.0
H980 H 0.27223 0.04462 0.14339 0.0
H981 H 0.19794 1.03422 0.17032 0.0
C982 C 0.08513 0.05703 0.16588 0.0
C983 C 1.02735 0.0689 0.16107 0.0
C984 C 0.12816 0.0614 0.15019 0.0
C985 C 1.01325 0.08566 0.14045 0.0
C986 C 0.05578 0.09129 0.12495 0.0
C987 C 0.15643 0.0839 0.11394 0.0
C988 C 0.21451 0.07221 0.11862 0.0
C989 C 0.11339 0.07883 0.12956 0.0
C990 C 0.22816 0.05349 0.13912 0.0
C991 C 0.18562 0.04804 0.15466 0.0
H992 H 0.23794 0.91361 0.84529 0.0
H993 H 0.25108 0.04583 0.89284 0.0
H994 H 0.26685 0.97303 0.91986 0.0
H995 H 0.27427 0.8707 0.9304 0.0
H996 H 0.26542 0.73955 0.88251 0.0
H997 H 0.24951 0.81246 0.85544 0.0
C998 C 0.2453 0.92675 0.86148 0.0
C999 C 0.2434 0.98553 0.86687 0.0
C1000 C 0.25362 0.88446 0.87708 0.0
C1001 C 0.25255 1.00118 0.88808 0.0
C1002 C 0.26103 0.95941 0.90365 0.0
C1003 C 0.26756 0.85825 0.91409 0.0
C1004 C 0.26918 0.79973 0.90853 0.0
C1005 C 0.26058 0.90079 0.89843 0.0
C1006 C 0.26289 0.78424 0.88722 0.0
C1007 C 0.25443 0.82597 0.87171 0.0
H1008 H 0.53627 0.06482 0.64533 0.0
H1009 H 0.47623 0.9435 0.69171 0.0
H1010 H 0.39534 0.91824 0.66872 0.0
H1011 H 0.34244 0.92946 0.63506 0.0
H1012 H 0.40595 0.04667 0.58805 0.0
H1013 H 0.48443 0.07493 0.61167 0.0
C1014 C 0.50564 1.03271 0.6505 0.0
C1015 C 0.51273 1.00619 0.67041 0.0
C1016 C 0.45941 1.01808 0.63708 0.0
C1017 C 0.47239 0.9645 0.67656 0.0
C1018 C 0.42585 0.95025 0.66341 0.0
C1019 C 0.37251 0.96229 0.63018 0.0
C1020 C 0.36701 0.98725 0.60996 0.0
C1021 C 0.41876 0.97688 0.64365 0.0
C1022 C 0.40836 1.02759 0.60359 0.0
C1023 C 0.45348 0.04347 0.61708 0.0
H1024 H 0.11205 0.19974 0.99116 0.0
H1025 H 0.2931 0.23576 0.98801 0.0
H1026 H 0.28451 0.26147 0.95096 0.0
H1027 H 0.22804 0.26036 0.91812 0.0
H1028 H 0.04857 0.21859 0.92037 0.0
H1029 H 0.05314 0.20916 0.95889 0.0
C1030 C 0.14917 0.21451 0.98239 0.0
C1031 C 0.20281 0.21709 0.99247 0.0
C1032 C 0.14413 0.2277 0.96082 0.0
C1033 C 0.25096 0.23543 0.98092 0.0
C1034 C 0.24622 0.24933 0.95959 0.0
C1035 C 0.1898 0.25112 0.92726 0.0
C1036 C 0.13803 0.24046 0.91671 0.0
C1037 C 0.19339 0.24413 0.94923 0.0
C1038 C 0.08864 0.2273 0.9284 0.0
C1039 C 0.09147 0.22143 0.95032 0.0
H1040 H 0.52873 0.53342 0.17572 0.0
H1041 H 0.60443 0.36521 0.17371 0.0
H1042 H 0.6069 0.36188 0.21225 0.0
H1043 H 0.60219 0.41438 0.24598 0.0
H1044 H 0.51785 0.57855 0.24839 0.0
H1045 H 0.50321 0.57602 0.21027 0.0
C1046 C 0.54422 0.49556 0.18382 0.0
C1047 C 0.56911 0.45089 0.17215 0.0
C1048 C 0.54498 0.49387 0.20595 0.0
C1049 C 0.5879 0.40129 0.18259 0.0
C1050 C 0.58895 0.39925 0.20456 0.0
C1051 C 0.57957 0.44897 0.23819 0.0
C1052 C 0.56458 0.49831 0.24967 0.0
C1053 C 0.57022 0.44655 0.21636 0.0
C1054 C 0.53341 0.54195 0.23959 0.0
C1055 C 0.52433 0.54018 0.21785 0.0
H1056 H 0.35056 0.80341 0.47722 0.0
H1057 H 0.50007 0.90707 0.48973 0.0
H1058 H 0.53086 0.89619 0.45306 0.0
H1059 H 0.5087 0.86755 0.41659 0.0
H1060 H 0.35123 0.77813 0.40315 0.0
H1061 H 0.3304 0.77138 0.44097 0.0
C1062 C 0.38906 0.82482 0.47184 0.0
C1063 C 0.42148 0.85848 0.48594 0.0
C1064 C 0.40515 0.82037 0.45056 0.0
C1065 C 0.47371 0.8821 0.47904 0.0
C1066 C 0.49128 0.87593 0.45809 0.0
C1067 C 0.46968 0.84704 0.42202 0.0
C1068 C 0.4304 0.82533 0.40722 0.0
C1069 C 0.45629 0.84689 0.44358 0.0
C1070 C 0.38171 0.79561 0.41434 0.0
C1071 C 0.36953 0.79244 0.4359 0.0
H1072 H 0.93434 0.57242 0.67113 0.0
H1073 H 0.05531 0.71124 0.67594 0.0
H1074 H 0.04777 0.70818 0.71479 0.0
H1075 H 0.99786 0.67029 0.74709 0.0
H1076 H 0.8526 0.55798 0.73832 0.0
H1077 H 0.8742 0.5492 0.701 0.0
C1078 C 0.95814 0.60285 0.68068 0.0
C1079 C 0.99367 0.64311 0.67087 0.0
C1080 C 0.94755 0.60625 0.70221 0.0
C1081 C 1.0273 0.68003 0.68331 0.0
C1082 C 1.02204 0.679 0.70538 0.0
C1083 C 0.97067 0.64473 0.73687 0.0
C1084 C 0.92612 0.61141 0.74558 0.0
C1085 C 0.98059 0.64354 0.71496 0.0
C1086 C 0.88959 0.58039 0.73216 0.0
C1087 C 0.90167 0.57567 0.71083 0.0
H1088 H 0.96125 0.89939 0.11266 0.0
H1089 H 0.81714 0.78437 0.11758 0.0
H1090 H 0.81848 0.76951 0.07929 0.0
H1091 H 0.84949 0.80324 0.04441 0.0
H1092 H 0.98094 0.93254 0.03957 0.0
H1093 H 0.99715 0.92761 0.07773 0.0
C1094 C 0.92984 0.8716 0.10528 0.0
C1095 C 0.88724 0.84525 0.11763 0.0
C1096 C 0.92871 0.86633 0.0833 0.0
C1097 C 0.84938 0.80602 0.1082 0.0
C1098 C 0.84998 0.79789 0.08637 0.0
C1099 C 0.88136 0.83053 0.05179 0.0
C1100 C 0.9121 0.87024 0.03953 0.0
C1101 C 0.88748 0.83016 0.07374 0.0
C1102 C 0.95604 0.90262 0.04889 0.0
C1103 C 0.96491 0.90007 0.07066 0.0
H1104 H 0.53921 0.62044 0.85273 0.0
H1105 H 0.38574 0.71972 0.86237 0.0
H1106 H 0.3746 0.73212 0.82465 0.0
H1107 H 0.39736 0.69806 0.78891 0.0
H1108 H 0.5454 0.59171 0.77899 0.0
H1109 H 0.57033 0.59853 0.81644 0.0
C1110 C 0.50458 0.64627 0.84645 0.0
C1111 C 0.46434 0.67018 0.86032 0.0
C1112 C 0.49674 0.65074 0.82459 0.0
C1113 C 0.41878 0.70285 0.85215 0.0
C1114 C 0.41164 0.709 0.83047 0.0
C1115 C 0.43593 0.67811 0.79499 0.0
C1116 C 0.46904 0.64368 0.78165 0.0
C1117 C 0.44883 0.68096 0.81656 0.0
C1118 C 0.51902 0.6176 0.78934 0.0
C1119 C 0.5331 0.62141 0.81067 0.0
H1120 H 0.63328 0.2569 0.61058 0.0
H1121 H 0.7806 0.15418 0.62599 0.0
H1122 H 0.80009 0.13803 0.58864 0.0
H1123 H 0.76832 0.14386 0.55238 0.0
H1124 H 0.63197 0.25931 0.53525 0.0
H1125 H 0.61191 0.27668 0.57266 0.0
C1126 C 0.67053 0.2326 0.6056 0.0
C1127 C 0.70514 0.20593 0.62082 0.0
C1128 C 0.68199 0.22423 0.58397 0.0
C1129 C 0.75327 0.17436 0.61438 0.0
C1130 C 0.76407 0.1648 0.5931 0.0
C1131 C 0.73655 0.17553 0.55646 0.0
C1132 C 0.70366 0.20206 0.54071 0.0
C1133 C 0.72785 0.18828 0.5778 0.0
C1134 C 0.65857 0.2386 0.54696 0.0
C1135 C 0.64738 0.24903 0.56836 0.0
H1136 H 0.15778 0.48785 0.37169 0.0
H1137 H 1.03049 0.35421 0.37049 0.0
H1138 H 1.02679 0.36011 0.3316 0.0
H1139 H 0.06765 0.39951 0.29783 0.0
H1140 H 0.21788 0.50726 0.30176 0.0
H1141 H 0.20863 0.51254 0.33977 0.0
C1142 C 0.13051 0.45871 0.36291 0.0
C1143 C 0.09626 0.41925 0.37371 0.0
C1144 C 0.1339 0.45738 0.34103 0.0
C1145 C 0.05771 0.38464 0.36233 0.0
C1146 C 0.05639 0.38739 0.34019 0.0
C1147 C 0.09848 0.42353 0.30712 0.0
C1148 C 0.14083 0.45672 0.29695 0.0
C1149 C 0.09573 0.42255 0.32932 0.0
C1150 C 0.1822 0.48546 0.30912 0.0
C1151 C 0.17735 0.48794 0.33087 0.0
H1152 H 0.63989 0.73798 0.42676 0.0
H1153 H 0.81725 0.78886 0.4253 0.0
H1154 H 0.82115 0.78639 0.46394 0.0
H1155 H 0.77998 0.74858 0.49644 0.0
H1156 H 0.60481 0.69 0.49797 0.0
H1157 H 0.59358 0.71535 0.46064 0.0
C1158 C 0.67879 0.74973 0.4351 0.0
C1159 C 0.72866 0.76224 0.42359 0.0
C1160 C 0.68107 0.74555 0.45707 0.0
C1161 C 0.77875 0.77878 0.43412 0.0
C1162 C 0.78099 0.77674 0.45608 0.0
C1163 C 0.73851 0.74421 0.48894 0.0
C1164 C 0.69284 0.71851 0.4999 0.0
C1165 C 0.73327 0.75726 0.46756 0.0
C1166 C 0.64014 0.71015 0.48971 0.0
C1167 C 0.63394 0.72441 0.46846 0.0
H1168 H 0.17103 0.98026 0.66213 0.0
H1169 H 1.03967 0.85044 0.66268 0.0
H1170 H 1.03775 0.85357 0.70156 0.0
H1171 H 0.07814 0.89165 0.73554 0.0
H1172 H 0.22188 1.0078 0.73318 0.0
H1173 H 0.21781 1.00885 0.6947 0.0
C1174 C 0.14306 0.95153 0.67075 0.0
C1175 C 0.10689 0.91396 0.65968 0.0
C1176 C 0.14559 0.95042 0.69273 0.0
C1177 C 0.06813 0.87953 0.67097 0.0
C1178 C 0.06766 0.88082 0.69313 0.0
C1179 C 0.10888 0.91627 0.72644 0.0
C1180 C 0.14941 0.95085 0.73694 0.0
C1181 C 0.1071 0.91541 0.70421 0.0
C1182 C 0.18981 0.98196 0.72522 0.0
C1183 C 0.1872 0.98283 0.70333 0.0
H1184 H 0.96998 0.35436 0.9324 0.0
H1185 H 0.79723 0.29716 0.92113 0.0
H1186 H 0.77422 0.30901 0.95861 0.0
H1187 H 0.79865 0.35349 0.99253 0.0
H1188 H 0.97029 0.4151 1.00366 0.0
H1189 H 0.99864 0.38508 0.9681 0.0
C1190 C 0.92785 0.34325 0.9384 0.0
C1191 C 0.88498 0.32575 0.92425 0.0
C1192 C 0.91464 0.35232 0.95973 0.0
C1193 C 0.83066 0.31057 0.93192 0.0
C1194 C 0.81744 0.31808 0.95324 0.0
C1195 C 0.84284 0.35799 0.98756 0.0
C1196 C 0.88261 0.38578 1.00078 0.0
C1197 C 0.85837 0.34142 0.96706 0.0
C1198 C 0.93916 0.39365 0.99371 0.0
C1199 C 0.95526 0.37658 0.97342 0.0
H1200 H 0.51677 0.13706 0.24291 0.0
H1201 H 0.35424 0.22365 0.24065 0.0
H1202 H 0.36319 0.23429 0.20226 0.0
H1203 H 0.40811 0.20088 0.16945 0.0
H1204 H 0.56774 0.10851 0.17152 0.0
H1205 H 0.56969 0.11765 0.21004 0.0
C1206 C 0.48422 0.15944 0.23393 0.0
C1207 C 0.43456 0.17885 0.24423 0.0
C1208 C 0.489 0.16342 0.21195 0.0
C1209 C 0.39262 0.20844 0.23282 0.0
C1210 C 0.39761 0.21395 0.21094 0.0
C1211 C 0.44475 0.18538 0.17822 0.0
C1212 C 0.48829 0.15478 0.16772 0.0
C1213 C 0.44437 0.18924 0.20029 0.0
C1214 C 0.53422 0.13256 0.17938 0.0
C1215 C 0.53502 0.13747 0.20133 0.0
H1216 H 0.50678 0.33929 0.60966 0.0
H1217 H 0.33654 0.27158 0.61818 0.0
H1218 H 0.32069 0.27323 0.58006 0.0
H1219 H 0.34709 0.31537 0.54632 0.0
H1220 H 0.51465 0.38956 0.53745 0.0
H1221 H 0.53965 0.36621 0.57401 0.0
C1222 C 0.46683 0.32385 0.60297 0.0
C1223 C 0.42219 0.30685 0.61647 0.0
C1224 C 0.45724 0.32773 0.58121 0.0
C1225 C 0.37114 0.28513 0.60792 0.0
C1226 C 0.36192 0.28684 0.58622 0.0
C1227 C 0.39011 0.32365 0.55194 0.0
C1228 C 0.42939 0.35329 0.53913 0.0
C1229 C 0.40346 0.31107 0.57291 0.0
C1230 C 0.484 0.36651 0.5471 0.0
C1231 C 0.49815 0.35325 0.56794 0.0
H1232 H 0.05 0.13632 0.35612 0.0
H1233 H 0.93169 0.27631 0.36325 0.0
H1234 H 0.92062 0.28281 0.3249 0.0
H1235 H 0.93035 0.23509 0.29026 0.0
H1236 H 0.05023 0.09618 0.28306 0.0
H1237 H 0.0757 0.10256 0.32038 0.0
C1238 C 1.02351 0.16935 0.34909 0.0
C1239 C 0.99064 0.20492 0.36213 0.0
C1240 C 1.0166 0.17183 0.32714 0.0
C1241 C 0.95662 0.24814 0.3532 0.0
C1242 C 0.94999 0.25147 0.33137 0.0
C1243 C 0.96301 0.20733 0.29684 0.0
C1244 C 0.98625 0.16329 0.2844 0.0
C1245 C 0.97745 0.21148 0.31828 0.0
C1246 C 1.02966 0.12837 0.29277 0.0
C1247 C 0.04454 0.13233 0.31402 0.0
H1248 H 0.13771 0.77285 0.11031 0.0
H1249 H 0.29805 0.68599 0.12027 0.0
H1250 H 0.31327 0.67858 0.08222 0.0
H1251 H 0.27589 0.68786 0.04667 0.0
H1252 H 0.11916 0.77985 0.03533 0.0
H1253 H 0.1053 0.79237 0.07358 0.0
C1254 C 0.17656 0.75404 0.10394 0.0
C1255 C 0.21698 0.73001 0.11766 0.0
C1256 C 0.18449 0.74951 0.08206 0.0
C1257 C 0.26695 0.70479 0.10966 0.0
C1258 C 0.27522 0.70008 0.08805 0.0
C1259 C 0.23975 0.71234 0.05258 0.0
C1260 C 0.19958 0.73467 0.03843 0.0
C1261 C 0.23357 0.72093 0.07419 0.0
C1262 C 0.15097 0.76325 0.04614 0.0
C1263 C 0.14335 0.7706 0.06788 0.0
H1264 H 0.51458 0.93189 0.86605 0.0
H1265 H 0.66064 0.82028 0.87269 0.0
H1266 H 0.669 0.8122 0.83473 0.0
H1267 H 0.64781 0.85331 0.79979 0.0
H1268 H 0.50731 0.97129 0.79311 0.0
H1269 H 0.48408 0.96134 0.83058 0.0
C1270 C 0.54696 0.9043 0.85912 0.0
C1271 C 0.58642 0.87652 0.87237 0.0
C1272 C 0.55384 0.90272 0.83712 0.0
C1273 C 0.62849 0.84105 0.86317 0.0
C1274 C 0.63419 0.83737 0.84128 0.0
C1275 C 0.61141 0.87567 0.80655 0.0
C1276 C 0.58038 0.91434 0.79406 0.0
C1277 C 0.59909 0.87045 0.82816 0.0
C1278 C 0.53283 0.9428 0.80274 0.0
C1279 C 0.51943 0.93685 0.82408 0.0
loop_
_geom_bond_atom_site_label_1
_geom_bond_atom_site_label_2
_geom_bond_distance
_geom_bond_site_symmetry_2
_ccdc_geom_bond_type
Zn0 O1 2.055 . S
Zn0 O8 2.046 . S
Zn0 N16 2.036 . S
Zn0 O28 2.053 . S
Zn0 O30 2.066 . S
O1 Zn0 2.055 . S
O1 C4 1.259 . S
C2 O30 1.256 . S
C2 O31 1.244 . S
Zn3 O5 2.046 . S
Zn3 O7 2.055 . S
Zn3 N9 2.036 . S
Zn3 O27 2.066 . S
Zn3 O31 2.053 . S
C4 O1 1.259 . S
C4 O5 1.254 . S
O5 Zn3 2.046 . S
O5 C4 1.254 . S
C6 O27 1.256 . S
C6 O28 1.244 . S
O7 Zn3 2.055 . S
O7 C29 1.259 . S
O8 Zn0 2.046 . S
O8 C29 1.254 . S
N9 Zn3 2.036 . S
N9 C10 1.298 . S
N9 N12 1.398 . S
C10 N9 1.298 . S
C10 N13 1.367 1_554 S
C10 C23 1.481 . S
C11 N12 1.299 . S
C11 N13 1.379 1_554 S
N12 N9 1.398 . S
N12 C11 1.299 . S
N13 C10 1.367 1_556 S
N13 C11 1.379 1_556 S
C14 N16 1.298 . S
C14 N18 1.367 . S
C14 C22 1.481 . S
C15 N17 1.299 . S
C15 N18 1.379 . S
N16 Zn0 2.036 . S
N16 C14 1.298 . S
N16 N17 1.398 . S
N17 C15 1.299 . S
N17 N16 1.398 . S
N18 C14 1.367 . S
N18 C15 1.379 . S
H19 C22 0.980 . S
H20 C22 0.981 . S
H21 C22 0.981 . S
C22 C14 1.481 . S
C22 H19 0.980 . S
C22 H20 0.981 . S
C22 H21 0.981 . S
C23 C10 1.481 . S
C23 H24 0.980 . S
C23 H25 0.981 1_554 S
C23 H26 0.998 . S
H24 C23 0.980 . S
H25 C23 0.981 1_556 S
H26 C23 0.998 . S
O27 Zn3 2.066 . S
O27 C6 1.256 . S
O28 Zn0 2.053 . S
O28 C6 1.244 . S
C29 O7 1.259 . S
C29 O8 1.254 . S
O30 Zn0 2.066 . S
O30 C2 1.256 . S
O31 C2 1.244 . S
O31 Zn3 2.053 . S
Zn32 O33 2.055 . S
Zn32 O40 2.046 . S
Zn32 N48 2.036 . S
Zn32 O60 2.053 . S
Zn32 O62 2.066 . S
O33 Zn32 2.055 . S
O33 C36 1.259 . S
C34 O62 1.256 . S
C34 O63 1.244 . S
Zn35 O37 2.046 . S
Zn35 O39 2.055 . S
Zn35 N41 2.036 . S
Zn35 O59 2.066 . S
Zn35 O63 2.053 . S
C36 O33 1.259 . S
C36 O37 1.254 . S
O37 Zn35 2.046 . S
O37 C36 1.254 . S
C38 O59 1.256 . S
C38 O60 1.244 . S
O39 Zn35 2.055 . S
O39 C61 1.259 . S
O40 Zn32 2.046 . S
O40 C61 1.254 . S
N41 Zn35 2.036 . S
N41 C42 1.298 . S
N41 N44 1.398 . S
C42 N41 1.298 . S
C42 N45 1.367 . S
C42 C55 1.481 . S
C43 N44 1.299 . S
C43 N45 1.379 . S
N44 N41 1.398 . S
N44 C43 1.299 . S
N45 C42 1.367 . S
N45 C43 1.379 . S
C46 N48 1.298 . S
C46 N50 1.367 . S
C46 C54 1.481 . S
C47 N49 1.299 . S
C47 N50 1.379 . S
N48 Zn32 2.036 . S
N48 C46 1.298 . S
N48 N49 1.398 . S
N49 C47 1.299 . S
N49 N48 1.398 . S
N50 C46 1.367 . S
N50 C47 1.379 . S
H51 C54 0.980 . S
H52 C54 0.981 . S
H53 C54 0.981 . S
C54 C46 1.481 . S
C54 H51 0.980 . S
C54 H52 0.981 . S
C54 H53 0.981 . S
C55 C42 1.481 . S
C55 H56 0.980 . S
C55 H57 0.981 . S
C55 H58 0.981 . S
H56 C55 0.980 . S
H57 C55 0.981 . S
H58 C55 0.981 . S
O59 Zn35 2.066 . S
O59 C38 1.256 . S
O60 Zn32 2.053 . S
O60 C38 1.244 . S
C61 O39 1.259 . S
C61 O40 1.254 . S
O62 Zn32 2.066 . S
O62 C34 1.256 . S
O63 C34 1.244 . S
O63 Zn35 2.053 . S
Zn64 O65 2.055 . S
Zn64 O72 2.046 . S
Zn64 N80 2.036 . S
Zn64 O92 2.053 . S
Zn64 O94 2.066 . S
O65 Zn64 2.055 . S
O65 C68 1.259 . S
C66 O94 1.256 . S
C66 O95 1.244 . S
Zn67 O69 2.046 . S
Zn67 O71 2.055 . S
Zn67 N73 2.036 . S
Zn67 O91 2.066 . S
Zn67 O95 2.053 . S
C68 O65 1.259 . S
C68 O69 1.254 . S
O69 Zn67 2.046 . S
O69 C68 1.254 . S
C70 O91 1.256 . S
C70 O92 1.244 . S
O71 Zn67 2.055 . S
O71 C93 1.259 . S
O72 Zn64 2.046 . S
O72 C93 1.254 . S
N73 Zn67 2.036 . S
N73 C74 1.298 . S
N73 N76 1.398 . S
C74 N73 1.298 . S
C74 N77 1.367 . S
C74 C87 1.481 . S
C75 N76 1.299 . S
C75 N77 1.379 . S
N76 N73 1.398 . S
N76 C75 1.299 . S
N77 C74 1.367 . S
N77 C75 1.379 . S
C78 N80 1.298 . S
C78 N82 1.367 . S
C78 C86 1.481 . S
C79 N81 1.299 . S
C79 N82 1.379 . S
N80 Zn64 2.036 . S
N80 C78 1.298 . S
N80 N81 1.398 . S
N81 C79 1.299 . S
N81 N80 1.398 . S
N82 C78 1.367 . S
N82 C79 1.379 . S
H83 C86 0.980 . S
H84 C86 0.981 . S
H85 C86 0.981 . S
C86 C78 1.481 . S
C86 H83 0.980 . S
C86 H84 0.981 . S
C86 H85 0.981 . S
C87 C74 1.481 . S
C87 H88 0.980 . S
C87 H89 0.981 . S
C87 H90 0.981 . S
H88 C87 0.980 . S
H89 C87 0.981 . S
H90 C87 0.981 . S
O91 Zn67 2.066 . S
O91 C70 1.256 . S
O92 Zn64 2.053 . S
O92 C70 1.244 . S
C93 O71 1.259 . S
C93 O72 1.254 . S
O94 Zn64 2.066 . S
O94 C66 1.256 . S
O95 C66 1.244 . S
O95 Zn67 2.053 . S
Zn96 O97 2.055 . S
Zn96 O104 2.046 . S
Zn96 N112 2.036 . S
Zn96 O124 2.053 . S
Zn96 O126 2.066 . S
O97 Zn96 2.055 . S
O97 C100 1.259 . S
C98 O126 1.256 . S
C98 O127 1.244 . S
Zn99 O101 2.046 . S
Zn99 O103 2.055 . S
Zn99 N105 2.036 . S
Zn99 O123 2.066 . S
Zn99 O127 2.053 . S
C100 O97 1.259 . S
C100 O101 1.254 . S
O101 Zn99 2.046 . S
O101 C100 1.254 . S
C102 O123 1.256 . S
C102 O124 1.244 . S
O103 Zn99 2.055 . S
O103 C125 1.259 . S
O104 Zn96 2.046 . S
O104 C125 1.254 . S
N105 Zn99 2.036 . S
N105 C106 1.298 . S
N105 N108 1.398 . S
C106 N105 1.298 . S
C106 N109 1.367 . S
C106 C119 1.481 . S
C107 N108 1.299 . S
C107 N109 1.379 . S
N108 N105 1.398 . S
N108 C107 1.299 . S
N109 C106 1.367 . S
N109 C107 1.379 . S
C110 N112 1.298 . S
C110 N114 1.367 . S
C110 C118 1.481 . S
C111 N113 1.299 . S
C111 N114 1.379 . S
N112 Zn96 2.036 . S
N112 C110 1.298 . S
N112 N113 1.398 . S
N113 C111 1.299 . S
N113 N112 1.398 . S
N114 C110 1.367 . S
N114 C111 1.379 . S
H115 C118 0.980 . S
H116 C118 0.981 . S
H117 C118 0.981 . S
C118 C110 1.481 . S
C118 H115 0.980 . S
C118 H116 0.981 . S
C118 H117 0.981 . S
C119 C106 1.481 . S
C119 H120 0.980 . S
C119 H121 0.981 . S
C119 H122 0.981 . S
H120 C119 0.980 . S
H121 C119 0.981 . S
H122 C119 0.981 . S
O123 Zn99 2.066 . S
O123 C102 1.256 . S
O124 Zn96 2.053 . S
O124 C102 1.244 . S
C125 O103 1.259 . S
C125 O104 1.254 . S
O126 Zn96 2.066 . S
O126 C98 1.256 . S
O127 C98 1.244 . S
O127 Zn99 2.053 . S
Zn128 O129 2.055 . S
Zn128 O136 2.046 . S
Zn128 N144 2.036 . S
Zn128 O156 2.053 . S
Zn128 O158 2.066 . S
O129 Zn128 2.055 . S
O129 C132 1.259 . S
C130 O158 1.256 . S
C130 O159 1.244 . S
Zn131 O133 2.046 . S
Zn131 O135 2.055 . S
Zn131 N137 2.036 . S
Zn131 O155 2.066 . S
Zn131 O159 2.053 . S
C132 O129 1.259 . S
C132 O133 1.254 . S
O133 Zn131 2.046 . S
O133 C132 1.254 . S
C134 O155 1.256 . S
C134 O156 1.244 . S
O135 Zn131 2.055 . S
O135 C157 1.259 . S
O136 Zn128 2.046 . S
O136 C157 1.254 . S
N137 Zn131 2.036 . S
N137 C138 1.298 . S
N137 N140 1.398 . S
C138 N137 1.298 . S
C138 N141 1.367 1_556 S
C138 C151 1.481 . S
C139 N140 1.299 . S
C139 N141 1.379 1_556 S
N140 N137 1.398 . S
N140 C139 1.299 . S
N141 C138 1.367 1_554 S
N141 C139 1.379 1_554 S
C142 N144 1.298 . S
C142 N146 1.367 . S
C142 C150 1.481 . S
C143 N145 1.299 . S
C143 N146 1.379 . S
N144 Zn128 2.036 . S
N144 C142 1.298 . S
N144 N145 1.398 . S
N145 C143 1.299 . S
N145 N144 1.398 . S
N146 C142 1.367 . S
N146 C143 1.379 . S
H147 C150 0.980 . S
H148 C150 0.981 . S
H149 C150 0.981 . S
C150 C142 1.481 . S
C150 H147 0.980 . S
C150 H148 0.981 . S
C150 H149 0.981 . S
C151 C138 1.481 . S
C151 H152 0.980 . S
C151 H153 0.981 1_556 S
C151 H154 0.998 . S
H152 C151 0.980 . S
H153 C151 0.981 1_554 S
H154 C151 0.998 . S
O155 Zn131 2.066 . S
O155 C134 1.256 . S
O156 Zn128 2.053 . S
O156 C134 1.244 . S
C157 O135 1.259 . S
C157 O136 1.254 . S
O158 Zn128 2.066 . S
O158 C130 1.256 . S
O159 C130 1.244 . S
O159 Zn131 2.053 . S
Zn160 O161 2.055 . S
Zn160 O168 2.046 . S
Zn160 N176 2.036 . S
Zn160 O188 2.053 . S
Zn160 O190 2.066 . S
O161 Zn160 2.055 . S
O161 C164 1.259 . S
C162 O190 1.256 . S
C162 O191 1.244 . S
Zn163 O165 2.046 . S
Zn163 O167 2.055 . S
Zn163 N169 2.036 . S
Zn163 O187 2.066 . S
Zn163 O191 2.053 . S
C164 O161 1.259 . S
C164 O165 1.254 . S
O165 Zn163 2.046 . S
O165 C164 1.254 . S
C166 O187 1.256 . S
C166 O188 1.244 . S
O167 Zn163 2.055 . S
O167 C189 1.259 . S
O168 Zn160 2.046 . S
O168 C189 1.254 . S
N169 Zn163 2.036 . S
N169 C170 1.298 . S
N169 N172 1.398 . S
C170 N169 1.298 . S
C170 N173 1.367 . S
C170 C183 1.481 . S
C171 N172 1.299 . S
C171 N173 1.379 . S
N172 N169 1.398 . S
N172 C171 1.299 . S
N173 C170 1.367 . S
N173 C171 1.379 . S
C174 N176 1.298 . S
C174 N178 1.367 . S
C174 C182 1.481 . S
C175 N177 1.299 . S
C175 N178 1.379 . S
N176 Zn160 2.036 . S
N176 C174 1.298 . S
N176 N177 1.398 . S
N177 C175 1.299 . S
N177 N176 1.398 . S
N178 C174 1.367 . S
N178 C175 1.379 . S
H179 C182 0.980 . S
H180 C182 0.981 . S
H181 C182 0.981 . S
C182 C174 1.481 . S
C182 H179 0.980 . S
C182 H180 0.981 . S
C182 H181 0.981 . S
C183 C170 1.481 . S
C183 H184 0.980 . S
C183 H185 0.981 . S
C183 H186 0.981 . S
H184 C183 0.980 . S
H185 C183 0.981 . S
H186 C183 0.981 . S
O187 Zn163 2.066 . S
O187 C166 1.256 . S
O188 Zn160 2.053 . S
O188 C166 1.244 . S
C189 O167 1.259 . S
C189 O168 1.254 . S
O190 Zn160 2.066 . S
O190 C162 1.256 . S
O191 C162 1.244 . S
O191 Zn163 2.053 . S
Zn192 O193 2.055 . S
Zn192 O200 2.046 . S
Zn192 N208 2.036 . S
Zn192 O220 2.053 . S
Zn192 O222 2.066 . S
O193 Zn192 2.055 . S
O193 C196 1.259 . S
C194 O222 1.256 . S
C194 O223 1.244 . S
Zn195 O197 2.046 . S
Zn195 O199 2.055 . S
Zn195 N201 2.036 . S
Zn195 O219 2.066 . S
Zn195 O223 2.053 . S
C196 O193 1.259 . S
C196 O197 1.254 . S
O197 Zn195 2.046 . S
O197 C196 1.254 . S
C198 O219 1.256 . S
C198 O220 1.244 . S
O199 Zn195 2.055 . S
O199 C221 1.259 . S
O200 Zn192 2.046 . S
O200 C221 1.254 . S
N201 Zn195 2.036 . S
N201 C202 1.298 . S
N201 N204 1.398 . S
C202 N201 1.298 . S
C202 N205 1.367 . S
C202 C215 1.481 . S
C203 N204 1.299 . S
C203 N205 1.379 . S
N204 N201 1.398 . S
N204 C203 1.299 . S
N205 C202 1.367 . S
N205 C203 1.379 . S
C206 N208 1.298 . S
C206 N210 1.367 . S
C206 C214 1.481 . S
C207 N209 1.299 . S
C207 N210 1.379 . S
N208 Zn192 2.036 . S
N208 C206 1.298 . S
N208 N209 1.398 . S
N209 C207 1.299 . S
N209 N208 1.398 . S
N210 C206 1.367 . S
N210 C207 1.379 . S
H211 C214 0.980 . S
H212 C214 0.981 . S
H213 C214 0.981 . S
C214 C206 1.481 . S
C214 H211 0.980 . S
C214 H212 0.981 . S
C214 H213 0.981 . S
C215 C202 1.481 . S
C215 H216 0.980 . S
C215 H217 0.981 . S
C215 H218 0.981 . S
H216 C215 0.980 . S
H217 C215 0.981 . S
H218 C215 0.981 . S
O219 Zn195 2.066 . S
O219 C198 1.256 . S
O220 Zn192 2.053 . S
O220 C198 1.244 . S
C221 O199 1.259 . S
C221 O200 1.254 . S
O222 Zn192 2.066 . S
O222 C194 1.256 . S
O223 C194 1.244 . S
O223 Zn195 2.053 . S
Zn224 O225 2.055 . S
Zn224 O232 2.046 . S
Zn224 N240 2.036 . S
Zn224 O252 2.053 . S
Zn224 O254 2.066 . S
O225 Zn224 2.055 . S
O225 C228 1.259 . S
C226 O254 1.256 . S
C226 O255 1.244 . S
Zn227 O229 2.046 . S
Zn227 O231 2.055 . S
Zn227 N233 2.036 . S
Zn227 O251 2.066 . S
Zn227 O255 2.053 . S
C228 O225 1.259 . S
C228 O229 1.254 . S
O229 Zn227 2.046 . S
O229 C228 1.254 . S
C230 O251 1.256 . S
C230 O252 1.244 . S
O231 Zn227 2.055 . S
O231 C253 1.259 . S
O232 Zn224 2.046 . S
O232 C253 1.254 . S
N233 Zn227 2.036 . S
N233 C234 1.298 . S
N233 N236 1.398 . S
C234 N233 1.298 . S
C234 N237 1.367 . S
C234 C247 1.481 . S
C235 N236 1.299 . S
C235 N237 1.379 . S
N236 N233 1.398 . S
N236 C235 1.299 . S
N237 C234 1.367 . S
N237 C235 1.379 . S
C238 N240 1.298 . S
C238 N242 1.367 . S
C238 C246 1.481 . S
C239 N241 1.299 . S
C239 N242 1.379 . S
N240 Zn224 2.036 . S
N240 C238 1.298 . S
N240 N241 1.398 . S
N241 C239 1.299 . S
N241 N240 1.398 . S
N242 C238 1.367 . S
N242 C239 1.379 . S
H243 C246 0.980 . S
H244 C246 0.981 . S
H245 C246 0.981 . S
C246 C238 1.481 . S
C246 H243 0.980 . S
C246 H244 0.981 . S
C246 H245 0.981 . S
C247 C234 1.481 . S
C247 H248 0.980 . S
C247 H249 0.981 . S
C247 H250 0.981 . S
H248 C247 0.980 . S
H249 C247 0.981 . S
H250 C247 0.981 . S
O251 Zn227 2.066 . S
O251 C230 1.256 . S
O252 Zn224 2.053 . S
O252 C230 1.244 . S
C253 O231 1.259 . S
C253 O232 1.254 . S
O254 Zn224 2.066 . S
O254 C226 1.256 . S
O255 C226 1.244 . S
O255 Zn227 2.053 . S
Zn256 O257 2.055 . S
Zn256 O264 2.046 . S
Zn256 N272 2.036 . S
Zn256 O284 2.053 . S
Zn256 O286 2.066 . S
O257 Zn256 2.055 . S
O257 C260 1.259 . S
C258 O286 1.256 . S
C258 O287 1.244 . S
Zn259 O261 2.046 . S
Zn259 O263 2.055 . S
Zn259 N265 2.036 . S
Zn259 O283 2.066 . S
Zn259 O287 2.053 . S
C260 O257 1.259 . S
C260 O261 1.254 . S
O261 Zn259 2.046 . S
O261 C260 1.254 . S
C262 O283 1.256 . S
C262 O284 1.244 . S
O263 Zn259 2.055 . S
O263 C285 1.259 . S
O264 Zn256 2.046 . S
O264 C285 1.254 . S
N265 Zn259 2.036 . S
N265 C266 1.298 . S
N265 N268 1.398 . S
C266 N265 1.298 . S
C266 N269 1.367 . S
C266 C279 1.481 . S
C267 N268 1.299 . S
C267 N269 1.379 . S
N268 N265 1.398 . S
N268 C267 1.299 . S
N269 C266 1.367 . S
N269 C267 1.379 . S
C270 N272 1.298 . S
C270 N274 1.367 . S
C270 C278 1.481 . S
C271 N273 1.299 . S
C271 N274 1.379 . S
N272 Zn256 2.036 . S
N272 C270 1.298 . S
N272 N273 1.398 . S
N273 C271 1.299 . S
N273 N272 1.398 . S
N274 C270 1.367 . S
N274 C271 1.379 . S
H275 C278 0.980 . S
H276 C278 0.981 . S
H277 C278 0.981 . S
C278 C270 1.481 . S
C278 H275 0.980 . S
C278 H276 0.981 . S
C278 H277 0.981 . S
C279 C266 1.481 . S
C279 H280 0.980 . S
C279 H281 0.981 . S
C279 H282 0.981 . S
H280 C279 0.980 . S
H281 C279 0.981 . S
H282 C279 0.981 . S
O283 Zn259 2.066 . S
O283 C262 1.256 . S
O284 Zn256 2.053 . S
O284 C262 1.244 . S
C285 O263 1.259 . S
C285 O264 1.254 . S
O286 Zn256 2.066 . S
O286 C258 1.256 . S
O287 C258 1.244 . S
O287 Zn259 2.053 . S
Zn288 O289 2.055 . S
Zn288 O296 2.046 . S
Zn288 N304 2.036 . S
Zn288 O316 2.053 . S
Zn288 O318 2.066 . S
O289 Zn288 2.055 . S
O289 C292 1.259 . S
C290 O318 1.256 . S
C290 O319 1.244 . S
Zn291 O293 2.046 . S
Zn291 O295 2.055 . S
Zn291 N297 2.036 . S
Zn291 O315 2.066 . S
Zn291 O319 2.053 . S
C292 O289 1.259 . S
C292 O293 1.254 . S
O293 Zn291 2.046 . S
O293 C292 1.254 . S
C294 O315 1.256 . S
C294 O316 1.244 . S
O295 Zn291 2.055 . S
O295 C317 1.259 . S
O296 Zn288 2.046 . S
O296 C317 1.254 . S
N297 Zn291 2.036 . S
N297 C298 1.298 . S
N297 N300 1.398 . S
C298 N297 1.298 . S
C298 N301 1.367 . S
C298 C311 1.481 . S
C299 N300 1.299 . S
C299 N301 1.379 . S
N300 N297 1.398 . S
N300 C299 1.299 . S
N301 C298 1.367 . S
N301 C299 1.379 . S
C302 N304 1.298 . S
C302 N306 1.367 . S
C302 C310 1.481 . S
C303 N305 1.299 . S
C303 N306 1.379 1_565 S
N304 Zn288 2.036 . S
N304 C302 1.298 . S
N304 N305 1.398 1_545 S
N305 C303 1.299 . S
N305 N304 1.398 1_565 S
N306 C302 1.367 . S
N306 C303 1.379 1_545 S
H307 C310 0.980 . S
H308 C310 0.981 . S
H309 C310 0.981 . S
C310 C302 1.481 . S
C310 H307 0.980 . S
C310 H308 0.981 . S
C310 H309 0.981 . S
C311 C298 1.481 . S
C311 H312 0.980 . S
C311 H313 0.981 . S
C311 H314 0.981 . S
H312 C311 0.980 . S
H313 C311 0.981 . S
H314 C311 0.981 . S
O315 Zn291 2.066 . S
O315 C294 1.256 . S
O316 Zn288 2.053 . S
O316 C294 1.244 . S
C317 O295 1.259 . S
C317 O296 1.254 . S
O318 Zn288 2.066 . S
O318 C290 1.256 . S
O319 C290 1.244 . S
O319 Zn291 2.053 . S
Zn320 O321 2.055 . S
Zn320 O328 2.046 . S
Zn320 N336 2.036 . S
Zn320 O348 2.053 . S
Zn320 O350 2.066 . S
O321 Zn320 2.055 . S
O321 C324 1.259 . S
C322 O350 1.256 . S
C322 O351 1.244 . S
Zn323 O325 2.046 . S
Zn323 O327 2.055 . S
Zn323 N329 2.036 . S
Zn323 O347 2.066 . S
Zn323 O351 2.053 . S
C324 O321 1.259 . S
C324 O325 1.254 . S
O325 Zn323 2.046 . S
O325 C324 1.254 . S
C326 O347 1.256 . S
C326 O348 1.244 . S
O327 Zn323 2.055 . S
O327 C349 1.259 . S
O328 Zn320 2.046 . S
O328 C349 1.254 . S
N329 Zn323 2.036 . S
N329 C330 1.298 . S
N329 N332 1.398 . S
C330 N329 1.298 . S
C330 N333 1.367 1_554 S
C330 C343 1.481 . S
C331 N332 1.299 . S
C331 N333 1.379 1_554 S
N332 N329 1.398 . S
N332 C331 1.299 . S
N333 C330 1.367 1_556 S
N333 C331 1.379 1_556 S
C334 N336 1.298 . S
C334 N338 1.367 . S
C334 C342 1.481 . S
C335 N337 1.299 . S
C335 N338 1.379 . S
N336 Zn320 2.036 . S
N336 C334 1.298 . S
N336 N337 1.398 . S
N337 C335 1.299 . S
N337 N336 1.398 . S
N338 C334 1.367 . S
N338 C335 1.379 . S
H339 C342 0.980 . S
H340 C342 0.981 . S
H341 C342 0.981 . S
C342 C334 1.481 . S
C342 H339 0.980 . S
C342 H340 0.981 . S
C342 H341 0.981 . S
C343 C330 1.481 . S
C343 H344 0.980 . S
C343 H345 0.981 1_554 S
C343 H346 0.997 . S
H344 C343 0.980 . S
H345 C343 0.981 1_556 S
H346 C343 0.997 . S
O347 Zn323 2.066 . S
O347 C326 1.256 . S
O348 Zn320 2.053 . S
O348 C326 1.244 . S
C349 O327 1.259 . S
C349 O328 1.254 . S
O350 Zn320 2.066 . S
O350 C322 1.256 . S
O351 C322 1.244 . S
O351 Zn323 2.053 . S
Zn352 O353 2.055 . S
Zn352 O360 2.046 . S
Zn352 N368 2.036 . S
Zn352 O380 2.053 . S
Zn352 O382 2.066 . S
O353 Zn352 2.055 . S
O353 C356 1.259 . S
C354 O382 1.256 . S
C354 O383 1.244 . S
Zn355 O357 2.046 . S
Zn355 O359 2.055 . S
Zn355 N361 2.036 . S
Zn355 O379 2.066 . S
Zn355 O383 2.053 . S
C356 O353 1.259 . S
C356 O357 1.254 . S
O357 Zn355 2.046 . S
O357 C356 1.254 . S
C358 O379 1.256 . S
C358 O380 1.244 . S
O359 Zn355 2.055 . S
O359 C381 1.259 . S
O360 Zn352 2.046 . S
O360 C381 1.254 . S
N361 Zn355 2.036 . S
N361 C362 1.298 . S
N361 N364 1.398 1_565 S
C362 N361 1.298 . S
C362 N365 1.367 . S
C362 C375 1.481 . S
C363 N364 1.299 . S
C363 N365 1.379 1_545 S
N364 N361 1.398 1_545 S
N364 C363 1.299 . S
N365 C362 1.367 . S
N365 C363 1.379 1_565 S
C366 N368 1.298 . S
C366 N370 1.367 . S
C366 C374 1.481 . S
C367 N369 1.299 . S
C367 N370 1.379 . S
N368 Zn352 2.036 . S
N368 C366 1.298 . S
N368 N369 1.398 . S
N369 C367 1.299 . S
N369 N368 1.398 . S
N370 C366 1.367 . S
N370 C367 1.379 . S
H371 C374 0.980 . S
H372 C374 0.981 . S
H373 C374 0.981 . S
C374 C366 1.481 . S
C374 H371 0.980 . S
C374 H372 0.981 . S
C374 H373 0.981 . S
C375 C362 1.481 . S
C375 H376 0.980 . S
C375 H377 0.981 . S
C375 H378 0.981 . S
H376 C375 0.980 . S
H377 C375 0.981 . S
H378 C375 0.981 . S
O379 Zn355 2.066 . S
O379 C358 1.256 . S
O380 Zn352 2.053 . S
O380 C358 1.244 . S
C381 O359 1.259 . S
C381 O360 1.254 . S
O382 Zn352 2.066 . S
O382 C354 1.256 . S
O383 C354 1.244 . S
O383 Zn355 2.053 . S
Zn384 O385 2.055 . S
Zn384 O392 2.046 . S
Zn384 N400 2.036 . S
Zn384 O412 2.053 . S
Zn384 O414 2.066 . S
O385 Zn384 2.055 . S
O385 C388 1.259 . S
C386 O414 1.256 . S
C386 O415 1.244 . S
Zn387 O389 2.046 . S
Zn387 O391 2.055 . S
Zn387 N393 2.036 . S
Zn387 O411 2.066 . S
Zn387 O415 2.053 . S
C388 O385 1.259 . S
C388 O389 1.254 . S
O389 Zn387 2.046 . S
O389 C388 1.254 . S
C390 O411 1.256 . S
C390 O412 1.244 . S
O391 Zn387 2.055 . S
O391 C413 1.259 . S
O392 Zn384 2.046 . S
O392 C413 1.254 . S
N393 Zn387 2.036 . S
N393 C394 1.298 . S
N393 N396 1.398 . S
C394 N393 1.298 . S
C394 N397 1.367 . S
C394 C407 1.481 . S
C395 N396 1.299 . S
C395 N397 1.379 . S
N396 N393 1.398 . S
N396 C395 1.299 . S
N397 C394 1.367 . S
N397 C395 1.379 . S
C398 N400 1.298 . S
C398 N402 1.367 . S
C398 C406 1.481 . S
C399 N401 1.299 . S
C399 N402 1.379 . S
N400 Zn384 2.036 . S
N400 C398 1.298 . S
N400 N401 1.398 . S
N401 C399 1.299 . S
N401 N400 1.398 . S
N402 C398 1.367 . S
N402 C399 1.379 . S
H403 C406 0.980 . S
H404 C406 0.981 . S
H405 C406 0.981 . S
C406 C398 1.481 . S
C406 H403 0.980 . S
C406 H404 0.981 . S
C406 H405 0.981 . S
C407 C394 1.481 . S
C407 H408 0.980 . S
C407 H409 0.981 . S
C407 H410 0.981 . S
H408 C407 0.980 . S
H409 C407 0.981 . S
H410 C407 0.981 . S
O411 Zn387 2.066 . S
O411 C390 1.256 . S
O412 Zn384 2.053 . S
O412 C390 1.244 . S
C413 O391 1.259 . S
C413 O392 1.254 . S
O414 Zn384 2.066 . S
O414 C386 1.256 . S
O415 C386 1.244 . S
O415 Zn387 2.053 . S
Zn416 O417 2.055 . S
Zn416 O424 2.046 . S
Zn416 N432 2.036 . S
Zn416 O444 2.053 . S
Zn416 O446 2.066 . S
O417 Zn416 2.055 . S
O417 C420 1.259 . S
C418 O446 1.256 . S
C418 O447 1.244 . S
Zn419 O421 2.046 . S
Zn419 O423 2.055 . S
Zn419 N425 2.036 . S
Zn419 O443 2.066 . S
Zn419 O447 2.053 . S
C420 O417 1.259 . S
C420 O421 1.254 . S
O421 Zn419 2.046 . S
O421 C420 1.254 . S
C422 O443 1.256 . S
C422 O444 1.244 . S
O423 Zn419 2.055 . S
O423 C445 1.259 . S
O424 Zn416 2.046 . S
O424 C445 1.254 . S
N425 Zn419 2.036 . S
N425 C426 1.298 . S
N425 N428 1.398 . S
C426 N425 1.298 . S
C426 N429 1.367 . S
C426 C439 1.481 . S
C427 N428 1.299 . S
C427 N429 1.379 . S
N428 N425 1.398 . S
N428 C427 1.299 . S
N429 C426 1.367 . S
N429 C427 1.379 . S
C430 N432 1.298 . S
C430 N434 1.367 . S
C430 C438 1.481 . S
C431 N433 1.299 . S
C431 N434 1.379 1_545 S
N432 Zn416 2.036 . S
N432 C430 1.298 . S
N432 N433 1.398 1_565 S
N433 C431 1.299 . S
N433 N432 1.398 1_545 S
N434 C430 1.367 . S
N434 C431 1.379 1_565 S
H435 C438 0.980 . S
H436 C438 0.981 . S
H437 C438 0.981 . S
C438 C430 1.481 . S
C438 H435 0.980 . S
C438 H436 0.981 . S
C438 H437 0.981 . S
C439 C426 1.481 . S
C439 H440 0.980 . S
C439 H441 0.981 . S
C439 H442 0.981 . S
H440 C439 0.980 . S
H441 C439 0.981 . S
H442 C439 0.981 . S
O443 Zn419 2.066 . S
O443 C422 1.256 . S
O444 Zn416 2.053 . S
O444 C422 1.244 . S
C445 O423 1.259 . S
C445 O424 1.254 . S
O446 Zn416 2.066 . S
O446 C418 1.256 . S
O447 C418 1.244 . S
O447 Zn419 2.053 . S
Zn448 O449 2.055 . S
Zn448 O456 2.046 . S
Zn448 N464 2.036 . S
Zn448 O476 2.053 . S
Zn448 O478 2.066 . S
O449 Zn448 2.055 . S
O449 C452 1.259 . S
C450 O478 1.256 . S
C450 O479 1.244 . S
Zn451 O453 2.046 . S
Zn451 O455 2.055 . S
Zn451 N457 2.036 . S
Zn451 O475 2.066 . S
Zn451 O479 2.053 . S
C452 O449 1.259 . S
C452 O453 1.254 . S
O453 Zn451 2.046 . S
O453 C452 1.254 . S
C454 O475 1.256 . S
C454 O476 1.244 . S
O455 Zn451 2.055 . S
O455 C477 1.259 . S
O456 Zn448 2.046 . S
O456 C477 1.254 . S
N457 Zn451 2.036 . S
N457 C458 1.298 . S
N457 N460 1.398 . S
C458 N457 1.298 . S
C458 N461 1.367 . S
C458 C471 1.481 . S
C459 N460 1.299 . S
C459 N461 1.379 . S
N460 N457 1.398 . S
N460 C459 1.299 . S
N461 C458 1.367 . S
N461 C459 1.379 . S
C462 N464 1.298 . S
C462 N466 1.367 1_556 S
C462 C470 1.481 . S
C463 N465 1.299 . S
C463 N466 1.379 1_556 S
N464 Zn448 2.036 . S
N464 C462 1.298 . S
N464 N465 1.398 . S
N465 C463 1.299 . S
N465 N464 1.398 . S
N466 C462 1.367 1_554 S
N466 C463 1.379 1_554 S
H467 C470 0.980 . S
H468 C470 0.981 1_554 S
H469 C470 0.997 . S
C470 C462 1.481 . S
C470 H467 0.980 . S
C470 H468 0.981 1_556 S
C470 H469 0.997 . S
C471 C458 1.481 . S
C471 H472 0.980 . S
C471 H473 0.981 . S
C471 H474 0.981 . S
H472 C471 0.980 . S
H473 C471 0.981 . S
H474 C471 0.981 . S
O475 Zn451 2.066 . S
O475 C454 1.256 . S
O476 Zn448 2.053 . S
O476 C454 1.244 . S
C477 O455 1.259 . S
C477 O456 1.254 . S
O478 Zn448 2.066 . S
O478 C450 1.256 . S
O479 C450 1.244 . S
O479 Zn451 2.053 . S
Zn480 O481 2.055 . S
Zn480 O488 2.046 . S
Zn480 N496 2.036 . S
Zn480 O508 2.053 . S
Zn480 O510 2.066 . S
O481 Zn480 2.055 . S
O481 C484 1.259 . S
C482 O510 1.256 . S
C482 O511 1.244 . S
Zn483 O485 2.046 . S
Zn483 O487 2.055 . S
Zn483 N489 2.036 . S
Zn483 O507 2.066 . S
Zn483 O511 2.053 . S
C484 O481 1.259 . S
C484 O485 1.254 . S
O485 Zn483 2.046 . S
O485 C484 1.254 . S
C486 O507 1.256 . S
C486 O508 1.244 . S
O487 Zn483 2.055 . S
O487 C509 1.259 . S
O488 Zn480 2.046 . S
O488 C509 1.254 . S
N489 Zn483 2.036 . S
N489 C490 1.298 . S
N489 N492 1.398 1_545 S
C490 N489 1.298 . S
C490 N493 1.367 . S
C490 C503 1.481 . S
C491 N492 1.299 . S
C491 N493 1.379 1_565 S
N492 N489 1.398 1_565 S
N492 C491 1.299 . S
N493 C490 1.367 . S
N493 C491 1.379 1_545 S
C494 N496 1.298 . S
C494 N498 1.367 . S
C494 C502 1.481 . S
C495 N497 1.299 . S
C495 N498 1.379 . S
N496 Zn480 2.036 . S
N496 C494 1.298 . S
N496 N497 1.398 . S
N497 C495 1.299 . S
N497 N496 1.398 . S
N498 C494 1.367 . S
N498 C495 1.379 . S
H499 C502 0.980 . S
H500 C502 0.981 . S
H501 C502 0.981 . S
C502 C494 1.481 . S
C502 H499 0.980 . S
C502 H500 0.981 . S
C502 H501 0.981 . S
C503 C490 1.481 . S
C503 H504 0.980 . S
C503 H505 0.981 . S
C503 H506 0.981 . S
H504 C503 0.980 . S
H505 C503 0.981 . S
H506 C503 0.981 . S
O507 Zn483 2.066 . S
O507 C486 1.256 . S
O508 Zn480 2.053 . S
O508 C486 1.244 . S
C509 O487 1.259 . S
C509 O488 1.254 . S
O510 Zn480 2.066 . S
O510 C482 1.256 . S
O511 C482 1.244 . S
O511 Zn483 2.053 . S
H512 C518 0.930 . S
H513 C521 0.930 . S
H514 C522 0.930 . S
H515 C523 0.930 . S
H516 C526 0.930 . S
H517 C527 0.930 . S
C518 H512 0.930 . S
C518 C519 1.355 . S
C518 C520 1.415 . S
C519 C518 1.355 . S
C519 C521 1.419 . S
C520 C518 1.415 . S
C520 C525 1.425 . S
C520 C527 1.409 . S
C521 H513 0.930 . S
C521 C519 1.419 . S
C521 C522 1.362 . S
C522 H514 0.930 . S
C522 C521 1.362 . S
C522 C525 1.409 . S
C523 H515 0.930 . S
C523 C524 1.355 . S
C523 C525 1.415 . S
C524 C523 1.355 . S
C524 C526 1.419 . S
C525 C520 1.425 . S
C525 C522 1.409 . S
C525 C523 1.415 . S
C526 H516 0.930 . S
C526 C524 1.419 . S
C526 C527 1.362 . S
C527 H517 0.930 . S
C527 C520 1.409 . S
C527 C526 1.362 . S
H528 C534 0.930 . S
H529 C537 0.930 . S
H530 C538 0.930 . S
H531 C539 0.930 . S
H532 C542 0.930 . S
H533 C543 0.930 . S
C534 H528 0.930 . S
C534 C535 1.355 . S
C534 C536 1.415 . S
C535 C534 1.355 . S
C535 C537 1.419 . S
C536 C534 1.415 . S
C536 C541 1.425 . S
C536 C543 1.409 . S
C537 H529 0.930 . S
C537 C535 1.419 . S
C537 C538 1.362 . S
C538 H530 0.930 . S
C538 C537 1.362 . S
C538 C541 1.409 . S
C539 H531 0.930 . S
C539 C540 1.355 . S
C539 C541 1.415 . S
C540 C539 1.355 . S
C540 C542 1.419 . S
C541 C536 1.425 . S
C541 C538 1.409 . S
C541 C539 1.415 . S
C542 H532 0.930 . S
C542 C540 1.419 . S
C542 C543 1.362 . S
C543 H533 0.930 . S
C543 C536 1.409 . S
C543 C542 1.362 . S
H544 C550 0.930 . S
H545 C553 0.930 . S
H546 C554 0.930 . S
H547 C555 0.930 . S
H548 C558 0.930 . S
H549 C559 0.930 . S
C550 H544 0.930 . S
C550 C551 1.355 . S
C550 C552 1.415 . S
C551 C550 1.355 . S
C551 C553 1.419 . S
C552 C550 1.415 . S
C552 C557 1.425 1_455 S
C552 C559 1.409 1_455 S
C553 H545 0.930 . S
C553 C551 1.419 . S
C553 C554 1.362 . S
C554 H546 0.930 . S
C554 C553 1.362 . S
C554 C557 1.409 1_455 S
C555 H547 0.930 . S
C555 C556 1.355 . S
C555 C557 1.415 . S
C556 C555 1.355 . S
C556 C558 1.419 . S
C557 C552 1.425 1_655 S
C557 C554 1.409 1_655 S
C557 C555 1.415 . S
C558 H548 0.930 . S
C558 C556 1.419 . S
C558 C559 1.362 . S
C559 H549 0.930 . S
C559 C552 1.409 1_655 S
C559 C558 1.362 . S
H560 C566 0.930 . S
H561 C569 0.930 . S
H562 C570 0.930 . S
H563 C571 0.930 . S
H564 C574 0.930 . S
H565 C575 0.930 . S
C566 H560 0.930 . S
C566 C567 1.355 . S
C566 C568 1.415 . S
C567 C566 1.355 . S
C567 C569 1.419 1_455 S
C568 C566 1.415 . S
C568 C573 1.425 1_455 S
C568 C575 1.409 . S
C569 H561 0.930 . S
C569 C567 1.419 1_655 S
C569 C570 1.362 . S
C570 H562 0.930 . S
C570 C569 1.362 . S
C570 C573 1.409 . S
C571 H563 0.930 . S
C571 C572 1.355 . S
C571 C573 1.415 . S
C572 C571 1.355 . S
C572 C574 1.419 1_655 S
C573 C568 1.425 1_655 S
C573 C570 1.409 . S
C573 C571 1.415 . S
C574 H564 0.930 . S
C574 C572 1.419 1_455 S
C574 C575 1.362 . S
C575 H565 0.930 . S
C575 C568 1.409 . S
C575 C574 1.362 . S
H576 C582 0.930 . S
H577 C585 0.930 . S
H578 C586 0.930 . S
H579 C587 0.930 . S
H580 C590 0.930 . S
H581 C591 0.930 . S
C582 H576 0.930 . S
C582 C583 1.355 . S
C582 C584 1.415 . S
C583 C582 1.355 . S
C583 C585 1.419 . S
C584 C582 1.415 . S
C584 C589 1.425 . S
C584 C591 1.409 . S
C585 H577 0.930 . S
C585 C583 1.419 . S
C585 C586 1.362 . S
C586 H578 0.930 . S
C586 C585 1.362 . S
C586 C589 1.409 . S
C587 H579 0.930 . S
C587 C588 1.355 . S
C587 C589 1.415 . S
C588 C587 1.355 . S
C588 C590 1.419 . S
C589 C584 1.425 . S
C589 C586 1.409 . S
C589 C587 1.415 . S
C590 H580 0.930 . S
C590 C588 1.419 . S
C590 C591 1.362 . S
C591 H581 0.930 . S
C591 C584 1.409 . S
C591 C590 1.362 . S
H592 C598 0.930 . S
H593 C601 0.930 . S
H594 C602 0.930 . S
H595 C603 0.930 . S
H596 C606 0.930 . S
H597 C607 0.930 . S
C598 H592 0.930 . S
C598 C599 1.355 . S
C598 C600 1.415 . S
C599 C598 1.355 . S
C599 C601 1.419 . S
C600 C598 1.415 . S
C600 C605 1.425 . S
C600 C607 1.409 . S
C601 H593 0.930 . S
C601 C599 1.419 . S
C601 C602 1.362 . S
C602 H594 0.930 . S
C602 C601 1.362 . S
C602 C605 1.409 . S
C603 H595 0.930 . S
C603 C604 1.355 . S
C603 C605 1.415 . S
C604 C603 1.355 . S
C604 C606 1.419 . S
C605 C600 1.425 . S
C605 C602 1.409 . S
C605 C603 1.415 . S
C606 H596 0.930 . S
C606 C604 1.419 . S
C606 C607 1.362 . S
C607 H597 0.930 . S
C607 C600 1.409 . S
C607 C606 1.362 . S
H608 C614 0.930 . S
H609 C617 0.930 . S
H610 C618 0.930 . S
H611 C619 0.930 . S
H612 C622 0.930 . S
H613 C623 0.930 . S
C614 H608 0.930 . S
C614 C615 1.355 . S
C614 C616 1.415 . S
C615 C614 1.355 . S
C615 C617 1.419 . S
C616 C614 1.415 . S
C616 C621 1.425 1_455 S
C616 C623 1.409 1_455 S
C617 H609 0.930 . S
C617 C615 1.419 . S
C617 C618 1.362 . S
C618 H610 0.930 . S
C618 C617 1.362 . S
C618 C621 1.409 1_455 S
C619 H611 0.930 . S
C619 C620 1.355 . S
C619 C621 1.415 . S
C620 C619 1.355 . S
C620 C622 1.419 . S
C621 C616 1.425 1_655 S
C621 C618 1.409 1_655 S
C621 C619 1.415 . S
C622 H612 0.930 . S
C622 C620 1.419 . S
C622 C623 1.362 . S
C623 H613 0.930 . S
C623 C616 1.409 1_655 S
C623 C622 1.362 . S
H624 C630 0.930 . S
H625 C633 0.930 . S
H626 C634 0.930 . S
H627 C635 0.930 . S
H628 C638 0.930 . S
H629 C639 0.930 . S
C630 H624 0.930 . S
C630 C631 1.355 . S
C630 C632 1.415 . S
C631 C630 1.355 . S
C631 C633 1.419 1_455 S
C632 C630 1.415 . S
C632 C637 1.425 1_455 S
C632 C639 1.409 . S
C633 H625 0.930 . S
C633 C631 1.419 1_655 S
C633 C634 1.362 . S
C634 H626 0.930 . S
C634 C633 1.362 . S
C634 C637 1.409 . S
C635 H627 0.930 . S
C635 C636 1.355 . S
C635 C637 1.415 . S
C636 C635 1.355 . S
C636 C638 1.419 1_655 S
C637 C632 1.425 1_655 S
C637 C634 1.409 . S
C637 C635 1.415 . S
C638 H628 0.930 . S
C638 C636 1.419 1_455 S
C638 C639 1.362 . S
C639 H629 0.930 . S
C639 C632 1.409 . S
C639 C638 1.362 . S
H640 C646 0.930 . S
H641 C649 0.930 . S
H642 C650 0.930 1_556 S
H643 C651 0.930 . S
H644 C654 0.930 . S
H645 C655 0.930 1_554 S
C646 H640 0.930 . S
C646 C647 1.355 . S
C646 C648 1.415 . S
C647 C646 1.355 . S
C647 C649 1.419 1_545 S
C648 C646 1.415 . S
C648 C653 1.425 1_544 S
C648 C655 1.409 1_554 S
C649 H641 0.930 . S
C649 C647 1.419 1_565 S
C649 C650 1.362 . S
C650 H642 0.930 1_554 S
C650 C649 1.362 . S
C650 C653 1.409 1_554 S
C651 H643 0.930 . S
C651 C652 1.355 . S
C651 C653 1.415 . S
C652 C651 1.355 . S
C652 C654 1.419 1_565 S
C653 C648 1.425 1_566 S
C653 C650 1.409 1_556 S
C653 C651 1.415 . S
C654 H644 0.930 . S
C654 C652 1.419 1_545 S
C654 C655 1.362 . S
C655 H645 0.930 1_556 S
C655 C648 1.409 1_556 S
C655 C654 1.362 . S
H656 C662 0.930 . S
H657 C665 0.930 . S
H658 C666 0.930 . S
H659 C667 0.930 . S
H660 C670 0.930 . S
H661 C671 0.930 . S
C662 H656 0.930 . S
C662 C663 1.355 . S
C662 C664 1.415 . S
C663 C662 1.355 . S
C663 C665 1.419 . S
C664 C662 1.415 . S
C664 C669 1.425 . S
C664 C671 1.409 . S
C665 H657 0.930 . S
C665 C663 1.419 . S
C665 C666 1.362 . S
C666 H658 0.930 . S
C666 C665 1.362 . S
C666 C669 1.409 . S
C667 H659 0.930 . S
C667 C668 1.355 . S
C667 C669 1.415 . S
C668 C667 1.355 . S
C668 C670 1.419 . S
C669 C664 1.425 . S
C669 C666 1.409 . S
C669 C667 1.415 . S
C670 H660 0.930 . S
C670 C668 1.419 . S
C670 C671 1.362 . S
C671 H661 0.930 . S
C671 C664 1.409 . S
C671 C670 1.362 . S
H672 C678 0.930 . S
H673 C681 0.930 . S
H674 C682 0.930 . S
H675 C683 0.930 . S
H676 C686 0.930 . S
H677 C687 0.930 . S
C678 H672 0.930 . S
C678 C679 1.355 . S
C678 C680 1.415 1_455 S
C679 C678 1.355 . S
C679 C681 1.419 1_565 S
C680 C678 1.415 1_655 S
C680 C685 1.425 1_665 S
C680 C687 1.409 . S
C681 H673 0.930 . S
C681 C679 1.419 1_545 S
C681 C682 1.362 . S
C682 H674 0.930 . S
C682 C681 1.362 . S
C682 C685 1.409 . S
C683 H675 0.930 . S
C683 C684 1.355 . S
C683 C685 1.415 1_655 S
C684 C683 1.355 . S
C684 C686 1.419 1_545 S
C685 C680 1.425 1_445 S
C685 C682 1.409 . S
C685 C683 1.415 1_455 S
C686 H676 0.930 . S
C686 C684 1.419 1_565 S
C686 C687 1.362 . S
C687 H677 0.930 . S
C687 C680 1.409 . S
C687 C686 1.362 . S
H688 C694 0.930 . S
H689 C697 0.930 . S
H690 C698 0.930 . S
H691 C699 0.930 . S
H692 C702 0.930 . S
H693 C703 0.930 . S
C694 H688 0.930 . S
C694 C695 1.355 . S
C694 C696 1.415 . S
C695 C694 1.355 . S
C695 C697 1.419 . S
C696 C694 1.415 . S
C696 C701 1.425 . S
C696 C703 1.409 . S
C697 H689 0.930 . S
C697 C695 1.419 . S
C697 C698 1.362 . S
C698 H690 0.930 . S
C698 C697 1.362 . S
C698 C701 1.409 . S
C699 H691 0.930 . S
C699 C700 1.355 . S
C699 C701 1.415 . S
C700 C699 1.355 . S
C700 C702 1.419 . S
C701 C696 1.425 . S
C701 C698 1.409 . S
C701 C699 1.415 . S
C702 H692 0.930 . S
C702 C700 1.419 . S
C702 C703 1.362 . S
C703 H693 0.930 . S
C703 C696 1.409 . S
C703 C702 1.362 . S
H704 C710 0.930 . S
H705 C713 0.930 . S
H706 C714 0.930 . S
H707 C715 0.930 . S
H708 C718 0.930 . S
H709 C719 0.930 . S
C710 H704 0.930 . S
C710 C711 1.355 . S
C710 C712 1.415 . S
C711 C710 1.355 . S
C711 C713 1.419 . S
C712 C710 1.415 . S
C712 C717 1.425 . S
C712 C719 1.409 . S
C713 H705 0.930 . S
C713 C711 1.419 . S
C713 C714 1.362 . S
C714 H706 0.930 . S
C714 C713 1.362 . S
C714 C717 1.409 . S
C715 H707 0.930 . S
C715 C716 1.355 . S
C715 C717 1.415 . S
C716 C715 1.355 . S
C716 C718 1.419 . S
C717 C712 1.425 . S
C717 C714 1.409 . S
C717 C715 1.415 . S
C718 H708 0.930 . S
C718 C716 1.419 . S
C718 C719 1.362 . S
C719 H709 0.930 . S
C719 C712 1.409 . S
C719 C718 1.362 . S
H720 C726 0.930 . S
H721 C729 0.930 . S
H722 C730 0.930 . S
H723 C731 0.930 . S
H724 C734 0.930 . S
H725 C735 0.930 . S
C726 H720 0.930 . S
C726 C727 1.355 . S
C726 C728 1.415 . S
C727 C726 1.355 . S
C727 C729 1.419 . S
C728 C726 1.415 . S
C728 C733 1.425 . S
C728 C735 1.409 . S
C729 H721 0.930 . S
C729 C727 1.419 . S
C729 C730 1.362 . S
C730 H722 0.930 . S
C730 C729 1.362 . S
C730 C733 1.409 . S
C731 H723 0.930 . S
C731 C732 1.355 . S
C731 C733 1.415 . S
C732 C731 1.355 . S
C732 C734 1.419 . S
C733 C728 1.425 . S
C733 C730 1.409 . S
C733 C731 1.415 . S
C734 H724 0.930 . S
C734 C732 1.419 . S
C734 C735 1.362 . S
C735 H725 0.930 . S
C735 C728 1.409 . S
C735 C734 1.362 . S
H736 C742 0.930 1_655 S
H737 C745 0.930 . S
H738 C746 0.930 . S
H739 C747 0.930 1_455 S
H740 C750 0.930 . S
H741 C751 0.930 . S
C742 H736 0.930 1_455 S
C742 C743 1.355 . S
C742 C744 1.415 1_455 S
C743 C742 1.355 . S
C743 C745 1.419 . S
C744 C742 1.415 1_655 S
C744 C749 1.425 1_655 S
C744 C751 1.409 . S
C745 H737 0.930 . S
C745 C743 1.419 . S
C745 C746 1.362 . S
C746 H738 0.930 . S
C746 C745 1.362 . S
C746 C749 1.409 . S
C747 H739 0.930 1_655 S
C747 C748 1.355 . S
C747 C749 1.415 1_655 S
C748 C747 1.355 . S
C748 C750 1.419 . S
C749 C744 1.425 1_455 S
C749 C746 1.409 . S
C749 C747 1.415 1_455 S
C750 H740 0.930 . S
C750 C748 1.419 . S
C750 C751 1.362 . S
C751 H741 0.930 . S
C751 C744 1.409 . S
C751 C750 1.362 . S
H752 C758 0.930 . S
H753 C761 0.930 . S
H754 C762 0.930 . S
H755 C763 0.930 . S
H756 C766 0.930 . S
H757 C767 0.930 . S
C758 H752 0.930 . S
C758 C759 1.355 . S
C758 C760 1.415 1_554 S
C759 C758 1.355 . S
C759 C761 1.419 . S
C760 C758 1.415 1_556 S
C760 C765 1.425 1_556 S
C760 C767 1.409 . S
C761 H753 0.930 . S
C761 C759 1.419 . S
C761 C762 1.362 . S
C762 H754 0.930 . S
C762 C761 1.362 . S
C762 C765 1.409 . S
C763 H755 0.930 . S
C763 C764 1.355 . S
C763 C765 1.415 1_556 S
C764 C763 1.355 . S
C764 C766 1.419 . S
C765 C760 1.425 1_554 S
C765 C762 1.409 . S
C765 C763 1.415 1_554 S
C766 H756 0.930 . S
C766 C764 1.419 . S
C766 C767 1.362 . S
C767 H757 0.930 . S
C767 C760 1.409 . S
C767 C766 1.362 . S
H768 C774 0.930 . S
H769 C777 0.930 . S
H770 C778 0.930 . S
H771 C779 0.930 . S
H772 C782 0.930 . S
H773 C783 0.930 . S
C774 H768 0.930 . S
C774 C775 1.355 . S
C774 C776 1.415 . S
C775 C774 1.355 . S
C775 C777 1.419 . S
C776 C774 1.415 . S
C776 C781 1.425 . S
C776 C783 1.409 . S
C777 H769 0.930 . S
C777 C775 1.419 . S
C777 C778 1.362 . S
C778 H770 0.930 . S
C778 C777 1.362 . S
C778 C781 1.409 . S
C779 H771 0.930 . S
C779 C780 1.355 . S
C779 C781 1.415 . S
C780 C779 1.355 . S
C780 C782 1.419 . S
C781 C776 1.425 . S
C781 C778 1.409 . S
C781 C779 1.415 . S
C782 H772 0.930 . S
C782 C780 1.419 . S
C782 C783 1.362 . S
C783 H773 0.930 . S
C783 C776 1.409 . S
C783 C782 1.362 . S
H784 C790 0.930 . S
H785 C793 0.930 . S
H786 C794 0.930 . S
H787 C795 0.930 . S
H788 C798 0.930 . S
H789 C799 0.930 . S
C790 H784 0.930 . S
C790 C791 1.355 . S
C790 C792 1.415 . S
C791 C790 1.355 . S
C791 C793 1.419 . S
C792 C790 1.415 . S
C792 C797 1.425 . S
C792 C799 1.409 . S
C793 H785 0.930 . S
C793 C791 1.419 . S
C793 C794 1.362 . S
C794 H786 0.930 . S
C794 C793 1.362 . S
C794 C797 1.409 . S
C795 H787 0.930 . S
C795 C796 1.355 . S
C795 C797 1.415 . S
C796 C795 1.355 . S
C796 C798 1.419 . S
C797 C792 1.425 . S
C797 C794 1.409 . S
C797 C795 1.415 . S
C798 H788 0.930 . S
C798 C796 1.419 . S
C798 C799 1.362 . S
C799 H789 0.930 . S
C799 C792 1.409 . S
C799 C798 1.362 . S
H800 C806 0.930 . S
H801 C809 0.930 . S
H802 C810 0.930 . S
H803 C811 0.930 . S
H804 C814 0.930 . S
H805 C815 0.930 . S
C806 H800 0.930 . S
C806 C807 1.355 . S
C806 C808 1.415 . S
C807 C806 1.355 . S
C807 C809 1.419 . S
C808 C806 1.415 . S
C808 C813 1.425 . S
C808 C815 1.409 . S
C809 H801 0.930 . S
C809 C807 1.419 . S
C809 C810 1.362 . S
C810 H802 0.930 . S
C810 C809 1.362 . S
C810 C813 1.409 . S
C811 H803 0.930 . S
C811 C812 1.355 . S
C811 C813 1.415 . S
C812 C811 1.355 . S
C812 C814 1.419 . S
C813 C808 1.425 . S
C813 C810 1.409 . S
C813 C811 1.415 . S
C814 H804 0.930 . S
C814 C812 1.419 . S
C814 C815 1.362 . S
C815 H805 0.930 . S
C815 C808 1.409 . S
C815 C814 1.362 . S
H816 C822 0.930 . S
H817 C825 0.930 . S
H818 C826 0.930 . S
H819 C827 0.930 . S
H820 C830 0.930 . S
H821 C831 0.930 . S
C822 H816 0.930 . S
C822 C823 1.355 . S
C822 C824 1.415 . S
C823 C822 1.355 . S
C823 C825 1.419 . S
C824 C822 1.415 . S
C824 C829 1.425 . S
C824 C831 1.409 . S
C825 H817 0.930 . S
C825 C823 1.419 . S
C825 C826 1.362 . S
C826 H818 0.930 . S
C826 C825 1.362 . S
C826 C829 1.409 . S
C827 H819 0.930 . S
C827 C828 1.355 . S
C827 C829 1.415 . S
C828 C827 1.355 . S
C828 C830 1.419 . S
C829 C824 1.425 . S
C829 C826 1.409 . S
C829 C827 1.415 . S
C830 H820 0.930 . S
C830 C828 1.419 . S
C830 C831 1.362 . S
C831 H821 0.930 . S
C831 C824 1.409 . S
C831 C830 1.362 . S
H832 C838 0.930 . S
H833 C841 0.930 . S
H834 C842 0.930 . S
H835 C843 0.930 . S
H836 C846 0.930 . S
H837 C847 0.930 . S
C838 H832 0.930 . S
C838 C839 1.355 . S
C838 C840 1.415 . S
C839 C838 1.355 . S
C839 C841 1.419 . S
C840 C838 1.415 . S
C840 C845 1.425 . S
C840 C847 1.409 . S
C841 H833 0.930 . S
C841 C839 1.419 . S
C841 C842 1.362 . S
C842 H834 0.930 . S
C842 C841 1.362 . S
C842 C845 1.409 . S
C843 H835 0.930 . S
C843 C844 1.355 . S
C843 C845 1.415 . S
C844 C843 1.355 . S
C844 C846 1.419 . S
C845 C840 1.425 . S
C845 C842 1.409 . S
C845 C843 1.415 . S
C846 H836 0.930 . S
C846 C844 1.419 . S
C846 C847 1.362 . S
C847 H837 0.930 . S
C847 C840 1.409 . S
C847 C846 1.362 . S
H848 C854 0.930 . S
H849 C857 0.930 . S
H850 C858 0.930 . S
H851 C859 0.930 . S
H852 C862 0.930 . S
H853 C863 0.930 . S
C854 H848 0.930 . S
C854 C855 1.355 . S
C854 C856 1.415 . S
C855 C854 1.355 . S
C855 C857 1.419 . S
C856 C854 1.415 . S
C856 C861 1.425 . S
C856 C863 1.409 . S
C857 H849 0.930 . S
C857 C855 1.419 . S
C857 C858 1.362 . S
C858 H850 0.930 . S
C858 C857 1.362 . S
C858 C861 1.409 . S
C859 H851 0.930 . S
C859 C860 1.355 . S
C859 C861 1.415 . S
C860 C859 1.355 . S
C860 C862 1.419 . S
C861 C856 1.425 . S
C861 C858 1.409 . S
C861 C859 1.415 . S
C862 H852 0.930 . S
C862 C860 1.419 . S
C862 C863 1.362 . S
C863 H853 0.930 . S
C863 C856 1.409 . S
C863 C862 1.362 . S
H864 C870 0.930 . S
H865 C873 0.930 . S
H866 C874 0.930 . S
H867 C875 0.930 . S
H868 C878 0.930 . S
H869 C879 0.930 . S
C870 H864 0.930 . S
C870 C871 1.355 . S
C870 C872 1.415 . S
C871 C870 1.355 . S
C871 C873 1.419 . S
C872 C870 1.415 . S
C872 C877 1.425 . S
C872 C879 1.409 . S
C873 H865 0.930 . S
C873 C871 1.419 . S
C873 C874 1.362 . S
C874 H866 0.930 . S
C874 C873 1.362 . S
C874 C877 1.409 . S
C875 H867 0.930 . S
C875 C876 1.355 . S
C875 C877 1.415 . S
C876 C875 1.355 . S
C876 C878 1.419 . S
C877 C872 1.425 . S
C877 C874 1.409 . S
C877 C875 1.415 . S
C878 H868 0.930 . S
C878 C876 1.419 . S
C878 C879 1.362 . S
C879 H869 0.930 . S
C879 C872 1.409 . S
C879 C878 1.362 . S
H880 C886 0.930 . S
H881 C889 0.930 . S
H882 C890 0.930 . S
H883 C891 0.930 . S
H884 C894 0.930 . S
H885 C895 0.930 . S
C886 H880 0.930 . S
C886 C887 1.355 . S
C886 C888 1.415 . S
C887 C886 1.355 . S
C887 C889 1.419 . S
C888 C886 1.415 . S
C888 C893 1.425 . S
C888 C895 1.409 . S
C889 H881 0.930 . S
C889 C887 1.419 . S
C889 C890 1.362 . S
C890 H882 0.930 . S
C890 C889 1.362 . S
C890 C893 1.409 . S
C891 H883 0.930 . S
C891 C892 1.355 . S
C891 C893 1.415 . S
C892 C891 1.355 . S
C892 C894 1.419 . S
C893 C888 1.425 . S
C893 C890 1.409 . S
C893 C891 1.415 . S
C894 H884 0.930 . S
C894 C892 1.419 . S
C894 C895 1.362 . S
C895 H885 0.930 . S
C895 C888 1.409 . S
C895 C894 1.362 . S
H896 C902 0.930 . S
H897 C905 0.930 . S
H898 C906 0.930 . S
H899 C907 0.930 . S
H900 C910 0.930 . S
H901 C911 0.930 . S
C902 H896 0.930 . S
C902 C903 1.355 . S
C902 C904 1.415 . S
C903 C902 1.355 . S
C903 C905 1.419 . S
C904 C902 1.415 . S
C904 C909 1.425 . S
C904 C911 1.409 . S
C905 H897 0.930 . S
C905 C903 1.419 . S
C905 C906 1.362 . S
C906 H898 0.930 . S
C906 C905 1.362 . S
C906 C909 1.409 . S
C907 H899 0.930 . S
C907 C908 1.355 . S
C907 C909 1.415 . S
C908 C907 1.355 . S
C908 C910 1.419 . S
C909 C904 1.425 . S
C909 C906 1.409 . S
C909 C907 1.415 . S
C910 H900 0.930 . S
C910 C908 1.419 . S
C910 C911 1.362 . S
C911 H901 0.930 . S
C911 C904 1.409 . S
C911 C910 1.362 . S
H912 C918 0.930 . S
H913 C921 0.930 . S
H914 C922 0.930 . S
H915 C923 0.930 . S
H916 C926 0.930 . S
H917 C927 0.930 . S
C918 H912 0.930 . S
C918 C919 1.355 . S
C918 C920 1.415 . S
C919 C918 1.355 . S
C919 C921 1.419 . S
C920 C918 1.415 . S
C920 C925 1.425 . S
C920 C927 1.409 1_565 S
C921 H913 0.930 . S
C921 C919 1.419 . S
C921 C922 1.362 . S
C922 H914 0.930 . S
C922 C921 1.362 . S
C922 C925 1.409 . S
C923 H915 0.930 . S
C923 C924 1.355 1_565 S
C923 C925 1.415 . S
C924 C923 1.355 1_545 S
C924 C926 1.419 . S
C925 C920 1.425 . S
C925 C922 1.409 . S
C925 C923 1.415 . S
C926 H916 0.930 . S
C926 C924 1.419 . S
C926 C927 1.362 . S
C927 H917 0.930 . S
C927 C920 1.409 1_545 S
C927 C926 1.362 . S
H928 C934 0.930 . S
H929 C937 0.930 1_565 S
H930 C938 0.930 . S
H931 C939 0.930 . S
H932 C942 0.930 . S
H933 C943 0.930 . S
C934 H928 0.930 . S
C934 C935 1.355 . S
C934 C936 1.415 . S
C935 C934 1.355 . S
C935 C937 1.419 . S
C936 C934 1.415 . S
C936 C941 1.425 . S
C936 C943 1.409 . S
C937 H929 0.930 1_545 S
C937 C935 1.419 . S
C937 C938 1.362 . S
C938 H930 0.930 . S
C938 C937 1.362 . S
C938 C941 1.409 . S
C939 H931 0.930 . S
C939 C940 1.355 . S
C939 C941 1.415 . S
C940 C939 1.355 . S
C940 C942 1.419 . S
C941 C936 1.425 . S
C941 C938 1.409 . S
C941 C939 1.415 . S
C942 H932 0.930 . S
C942 C940 1.419 . S
C942 C943 1.362 . S
C943 H933 0.930 . S
C943 C936 1.409 . S
C943 C942 1.362 . S
H944 C950 0.930 . S
H945 C953 0.930 . S
H946 C954 0.930 . S
H947 C955 0.930 . S
H948 C958 0.930 . S
H949 C959 0.930 . S
C950 H944 0.930 . S
C950 C951 1.355 . S
C950 C952 1.415 . S
C951 C950 1.355 . S
C951 C953 1.419 . S
C952 C950 1.415 . S
C952 C957 1.425 . S
C952 C959 1.409 1_545 S
C953 H945 0.930 . S
C953 C951 1.419 . S
C953 C954 1.362 . S
C954 H946 0.930 . S
C954 C953 1.362 . S
C954 C957 1.409 . S
C955 H947 0.930 . S
C955 C956 1.355 1_545 S
C955 C957 1.415 . S
C956 C955 1.355 1_565 S
C956 C958 1.419 . S
C957 C952 1.425 . S
C957 C954 1.409 . S
C957 C955 1.415 . S
C958 H948 0.930 . S
C958 C956 1.419 . S
C958 C959 1.362 . S
C959 H949 0.930 . S
C959 C952 1.409 1_565 S
C959 C958 1.362 . S
H960 C966 0.930 . S
H961 C969 0.930 . S
H962 C970 0.930 . S
H963 C971 0.930 . S
H964 C974 0.930 . S
H965 C975 0.930 . S
C966 H960 0.930 . S
C966 C967 1.355 . S
C966 C968 1.415 . S
C967 C966 1.355 . S
C967 C969 1.419 . S
C968 C966 1.415 . S
C968 C973 1.425 . S
C968 C975 1.409 . S
C969 H961 0.930 . S
C969 C967 1.419 . S
C969 C970 1.362 . S
C970 H962 0.930 . S
C970 C969 1.362 . S
C970 C973 1.409 . S
C971 H963 0.930 . S
C971 C972 1.355 . S
C971 C973 1.415 . S
C972 C971 1.355 . S
C972 C974 1.419 . S
C973 C968 1.425 . S
C973 C970 1.409 . S
C973 C971 1.415 . S
C974 H964 0.930 . S
C974 C972 1.419 . S
C974 C975 1.362 . S
C975 H965 0.930 . S
C975 C968 1.409 . S
C975 C974 1.362 . S
H976 C982 0.930 . S
H977 C985 0.930 . S
H978 C986 0.930 . S
H979 C987 0.930 . S
H980 C990 0.930 . S
H981 C991 0.930 . S
C982 H976 0.930 . S
C982 C983 1.355 . S
C982 C984 1.415 . S
C983 C982 1.355 . S
C983 C985 1.419 1_545 S
C984 C982 1.415 . S
C984 C989 1.425 . S
C984 C991 1.409 . S
C985 H977 0.930 . S
C985 C983 1.419 1_565 S
C985 C986 1.362 1_565 S
C986 H978 0.930 . S
C986 C985 1.362 1_545 S
C986 C989 1.409 . S
C987 H979 0.930 . S
C987 C988 1.355 . S
C987 C989 1.415 . S
C988 C987 1.355 . S
C988 C990 1.419 . S
C989 C984 1.425 . S
C989 C986 1.409 . S
C989 C987 1.415 . S
C990 H980 0.930 . S
C990 C988 1.419 . S
C990 C991 1.362 . S
C991 H981 0.930 . S
C991 C984 1.409 . S
C991 C990 1.362 . S
H992 C998 0.930 . S
H993 C1001 0.930 . S
H994 C1002 0.930 . S
H995 C1003 0.930 . S
H996 C1006 0.930 . S
H997 C1007 0.930 . S
C998 H992 0.930 . S
C998 C999 1.355 . S
C998 C1000 1.415 . S
C999 C998 1.355 . S
C999 C1001 1.419 . S
C1000 C998 1.415 . S
C1000 C1005 1.425 . S
C1000 C1007 1.409 . S
C1001 H993 0.930 . S
C1001 C999 1.419 . S
C1001 C1002 1.362 . S
C1002 H994 0.930 . S
C1002 C1001 1.362 . S
C1002 C1005 1.409 . S
C1003 H995 0.930 . S
C1003 C1004 1.355 . S
C1003 C1005 1.415 . S
C1004 C1003 1.355 . S
C1004 C1006 1.419 . S
C1005 C1000 1.425 . S
C1005 C1002 1.409 . S
C1005 C1003 1.415 . S
C1006 H996 0.930 . S
C1006 C1004 1.419 . S
C1006 C1007 1.362 . S
C1007 H997 0.930 . S
C1007 C1000 1.409 . S
C1007 C1006 1.362 . S
H1008 C1014 0.930 1_545 S
H1009 C1017 0.930 . S
H1010 C1018 0.930 . S
H1011 C1019 0.930 . S
H1012 C1022 0.930 . S
H1013 C1023 0.930 . S
C1014 H1008 0.930 1_565 S
C1014 C1015 1.355 . S
C1014 C1016 1.415 . S
C1015 C1014 1.355 . S
C1015 C1017 1.419 . S
C1016 C1014 1.415 . S
C1016 C1021 1.425 . S
C1016 C1023 1.409 . S
C1017 H1009 0.930 . S
C1017 C1015 1.419 . S
C1017 C1018 1.362 . S
C1018 H1010 0.930 . S
C1018 C1017 1.362 . S
C1018 C1021 1.409 . S
C1019 H1011 0.930 . S
C1019 C1020 1.355 . S
C1019 C1021 1.415 . S
C1020 C1019 1.355 . S
C1020 C1022 1.419 . S
C1021 C1016 1.425 . S
C1021 C1018 1.409 . S
C1021 C1019 1.415 . S
C1022 H1012 0.930 . S
C1022 C1020 1.419 . S
C1022 C1023 1.362 . S
C1023 H1013 0.930 . S
C1023 C1016 1.409 . S
C1023 C1022 1.362 . S
H1024 C1030 0.930 . S
H1025 C1033 0.930 . S
H1026 C1034 0.930 . S
H1027 C1035 0.930 . S
H1028 C1038 0.930 . S
H1029 C1039 0.930 . S
C1030 H1024 0.930 . S
C1030 C1031 1.355 . S
C1030 C1032 1.415 . S
C1031 C1030 1.355 . S
C1031 C1033 1.419 . S
C1032 C1030 1.415 . S
C1032 C1037 1.425 . S
C1032 C1039 1.409 . S
C1033 H1025 0.930 . S
C1033 C1031 1.419 . S
C1033 C1034 1.362 . S
C1034 H1026 0.930 . S
C1034 C1033 1.362 . S
C1034 C1037 1.409 . S
C1035 H1027 0.930 . S
C1035 C1036 1.355 . S
C1035 C1037 1.415 . S
C1036 C1035 1.355 . S
C1036 C1038 1.419 . S
C1037 C1032 1.425 . S
C1037 C1034 1.409 . S
C1037 C1035 1.415 . S
C1038 H1028 0.930 . S
C1038 C1036 1.419 . S
C1038 C1039 1.362 . S
C1039 H1029 0.930 . S
C1039 C1032 1.409 . S
C1039 C1038 1.362 . S
H1040 C1046 0.930 . S
H1041 C1049 0.930 . S
H1042 C1050 0.930 . S
H1043 C1051 0.930 . S
H1044 C1054 0.930 . S
H1045 C1055 0.930 . S
C1046 H1040 0.930 . S
C1046 C1047 1.355 . S
C1046 C1048 1.415 . S
C1047 C1046 1.355 . S
C1047 C1049 1.419 . S
C1048 C1046 1.415 . S
C1048 C1053 1.425 . S
C1048 C1055 1.409 . S
C1049 H1041 0.930 . S
C1049 C1047 1.419 . S
C1049 C1050 1.362 . S
C1050 H1042 0.930 . S
C1050 C1049 1.362 . S
C1050 C1053 1.409 . S
C1051 H1043 0.930 . S
C1051 C1052 1.355 . S
C1051 C1053 1.415 . S
C1052 C1051 1.355 . S
C1052 C1054 1.419 . S
C1053 C1048 1.425 . S
C1053 C1050 1.409 . S
C1053 C1051 1.415 . S
C1054 H1044 0.930 . S
C1054 C1052 1.419 . S
C1054 C1055 1.362 . S
C1055 H1045 0.930 . S
C1055 C1048 1.409 . S
C1055 C1054 1.362 . S
H1056 C1062 0.930 . S
H1057 C1065 0.930 . S
H1058 C1066 0.930 . S
H1059 C1067 0.930 . S
H1060 C1070 0.930 . S
H1061 C1071 0.930 . S
C1062 H1056 0.930 . S
C1062 C1063 1.355 . S
C1062 C1064 1.415 . S
C1063 C1062 1.355 . S
C1063 C1065 1.419 . S
C1064 C1062 1.415 . S
C1064 C1069 1.425 . S
C1064 C1071 1.409 . S
C1065 H1057 0.930 . S
C1065 C1063 1.419 . S
C1065 C1066 1.362 . S
C1066 H1058 0.930 . S
C1066 C1065 1.362 . S
C1066 C1069 1.409 . S
C1067 H1059 0.930 . S
C1067 C1068 1.355 . S
C1067 C1069 1.415 . S
C1068 C1067 1.355 . S
C1068 C1070 1.419 . S
C1069 C1064 1.425 . S
C1069 C1066 1.409 . S
C1069 C1067 1.415 . S
C1070 H1060 0.930 . S
C1070 C1068 1.419 . S
C1070 C1071 1.362 . S
C1071 H1061 0.930 . S
C1071 C1064 1.409 . S
C1071 C1070 1.362 . S
H1072 C1078 0.930 . S
H1073 C1081 0.930 . S
H1074 C1082 0.930 1_455 S
H1075 C1083 0.930 1_455 S
H1076 C1086 0.930 . S
H1077 C1087 0.930 . S
C1078 H1072 0.930 . S
C1078 C1079 1.355 . S
C1078 C1080 1.415 . S
C1079 C1078 1.355 . S
C1079 C1081 1.419 . S
C1080 C1078 1.415 . S
C1080 C1085 1.425 . S
C1080 C1087 1.409 . S
C1081 H1073 0.930 . S
C1081 C1079 1.419 . S
C1081 C1082 1.362 . S
C1082 H1074 0.930 1_655 S
C1082 C1081 1.362 . S
C1082 C1085 1.409 . S
C1083 H1075 0.930 1_655 S
C1083 C1084 1.355 . S
C1083 C1085 1.415 . S
C1084 C1083 1.355 . S
C1084 C1086 1.419 . S
C1085 C1080 1.425 . S
C1085 C1082 1.409 . S
C1085 C1083 1.415 . S
C1086 H1076 0.930 . S
C1086 C1084 1.419 . S
C1086 C1087 1.362 . S
C1087 H1077 0.930 . S
C1087 C1080 1.409 . S
C1087 C1086 1.362 . S
H1088 C1094 0.930 . S
H1089 C1097 0.930 . S
H1090 C1098 0.930 . S
H1091 C1099 0.930 . S
H1092 C1102 0.922 1_556 S
H1093 C1103 0.930 . S
C1094 H1088 0.930 . S
C1094 C1095 1.355 . S
C1094 C1096 1.415 . S
C1095 C1094 1.355 . S
C1095 C1097 1.419 . S
C1096 C1094 1.415 . S
C1096 C1101 1.425 . S
C1096 C1103 1.409 . S
C1097 H1089 0.930 . S
C1097 C1095 1.419 . S
C1097 C1098 1.362 . S
C1098 H1090 0.930 . S
C1098 C1097 1.362 . S
C1098 C1101 1.409 . S
C1099 H1091 0.930 . S
C1099 C1100 1.355 . S
C1099 C1101 1.415 . S
C1100 C1099 1.355 . S
C1100 C1102 1.419 . S
C1101 C1096 1.425 . S
C1101 C1098 1.409 . S
C1101 C1099 1.415 . S
C1102 H1092 0.922 1_554 S
C1102 C1100 1.419 . S
C1102 C1103 1.362 . S
C1103 H1093 0.930 . S
C1103 C1096 1.409 . S
C1103 C1102 1.362 . S
H1104 C1110 0.930 . S
H1105 C1113 0.930 . S
H1106 C1114 0.930 . S
H1107 C1115 0.930 . S
H1108 C1118 0.930 . S
H1109 C1119 0.930 . S
C1110 H1104 0.930 . S
C1110 C1111 1.355 . S
C1110 C1112 1.415 . S
C1111 C1110 1.355 . S
C1111 C1113 1.419 . S
C1112 C1110 1.415 . S
C1112 C1117 1.425 . S
C1112 C1119 1.409 . S
C1113 H1105 0.930 . S
C1113 C1111 1.419 . S
C1113 C1114 1.362 . S
C1114 H1106 0.930 . S
C1114 C1113 1.362 . S
C1114 C1117 1.409 . S
C1115 H1107 0.930 . S
C1115 C1116 1.355 . S
C1115 C1117 1.415 . S
C1116 C1115 1.355 . S
C1116 C1118 1.419 . S
C1117 C1112 1.425 . S
C1117 C1114 1.409 . S
C1117 C1115 1.415 . S
C1118 H1108 0.930 . S
C1118 C1116 1.419 . S
C1118 C1119 1.362 . S
C1119 H1109 0.930 . S
C1119 C1112 1.409 . S
C1119 C1118 1.362 . S
H1120 C1126 0.930 . S
H1121 C1129 0.930 . S
H1122 C1130 0.930 . S
H1123 C1131 0.930 . S
H1124 C1134 0.930 . S
H1125 C1135 0.930 . S
C1126 H1120 0.930 . S
C1126 C1127 1.355 . S
C1126 C1128 1.415 . S
C1127 C1126 1.355 . S
C1127 C1129 1.419 . S
C1128 C1126 1.415 . S
C1128 C1133 1.425 . S
C1128 C1135 1.409 . S
C1129 H1121 0.930 . S
C1129 C1127 1.419 . S
C1129 C1130 1.362 . S
C1130 H1122 0.930 . S
C1130 C1129 1.362 . S
C1130 C1133 1.409 . S
C1131 H1123 0.930 . S
C1131 C1132 1.355 . S
C1131 C1133 1.415 . S
C1132 C1131 1.355 . S
C1132 C1134 1.419 . S
C1133 C1128 1.425 . S
C1133 C1130 1.409 . S
C1133 C1131 1.415 . S
C1134 H1124 0.930 . S
C1134 C1132 1.419 . S
C1134 C1135 1.362 . S
C1135 H1125 0.930 . S
C1135 C1128 1.409 . S
C1135 C1134 1.362 . S
H1136 C1142 0.930 . S
H1137 C1145 0.930 . S
H1138 C1146 0.930 1_655 S
H1139 C1147 0.930 1_655 S
H1140 C1150 0.930 . S
H1141 C1151 0.930 . S
C1142 H1136 0.930 . S
C1142 C1143 1.355 . S
C1142 C1144 1.415 . S
C1143 C1142 1.355 . S
C1143 C1145 1.419 . S
C1144 C1142 1.415 . S
C1144 C1149 1.425 . S
C1144 C1151 1.409 . S
C1145 H1137 0.930 . S
C1145 C1143 1.419 . S
C1145 C1146 1.362 . S
C1146 H1138 0.930 1_455 S
C1146 C1145 1.362 . S
C1146 C1149 1.409 . S
C1147 H1139 0.930 1_455 S
C1147 C1148 1.355 . S
C1147 C1149 1.415 . S
C1148 C1147 1.355 . S
C1148 C1150 1.419 . S
C1149 C1144 1.425 . S
C1149 C1146 1.409 . S
C1149 C1147 1.415 . S
C1150 H1140 0.930 . S
C1150 C1148 1.419 . S
C1150 C1151 1.362 . S
C1151 H1141 0.930 . S
C1151 C1144 1.409 . S
C1151 C1150 1.362 . S
H1152 C1158 0.930 . S
H1153 C1161 0.930 . S
H1154 C1162 0.930 . S
H1155 C1163 0.930 . S
H1156 C1166 0.930 . S
H1157 C1167 0.930 . S
C1158 H1152 0.930 . S
C1158 C1159 1.355 . S
C1158 C1160 1.415 . S
C1159 C1158 1.355 . S
C1159 C1161 1.419 . S
C1160 C1158 1.415 . S
C1160 C1165 1.425 . S
C1160 C1167 1.409 . S
C1161 H1153 0.930 . S
C1161 C1159 1.419 . S
C1161 C1162 1.362 . S
C1162 H1154 0.930 . S
C1162 C1161 1.362 . S
C1162 C1165 1.409 . S
C1163 H1155 0.930 . S
C1163 C1164 1.355 . S
C1163 C1165 1.415 . S
C1164 C1163 1.355 . S
C1164 C1166 1.419 . S
C1165 C1160 1.425 . S
C1165 C1162 1.409 . S
C1165 C1163 1.415 . S
C1166 H1156 0.930 . S
C1166 C1164 1.419 . S
C1166 C1167 1.362 . S
C1167 H1157 0.930 . S
C1167 C1160 1.409 . S
C1167 C1166 1.362 . S
H1168 C1174 0.930 . S
H1169 C1177 0.930 . S
H1170 C1178 0.930 . S
H1171 C1179 0.930 . S
H1172 C1182 0.930 . S
H1173 C1183 0.930 . S
C1174 H1168 0.930 . S
C1174 C1175 1.355 . S
C1174 C1176 1.415 . S
C1175 C1174 1.355 . S
C1175 C1177 1.419 . S
C1176 C1174 1.415 . S
C1176 C1181 1.425 . S
C1176 C1183 1.409 1_565 S
C1177 H1169 0.930 . S
C1177 C1175 1.419 . S
C1177 C1178 1.362 . S
C1178 H1170 0.930 . S
C1178 C1177 1.362 . S
C1178 C1181 1.409 . S
C1179 H1171 0.930 . S
C1179 C1180 1.355 1_565 S
C1179 C1181 1.415 . S
C1180 C1179 1.355 1_545 S
C1180 C1182 1.419 . S
C1181 C1176 1.425 . S
C1181 C1178 1.409 . S
C1181 C1179 1.415 . S
C1182 H1172 0.930 . S
C1182 C1180 1.419 . S
C1182 C1183 1.362 . S
C1183 H1173 0.930 . S
C1183 C1176 1.409 1_545 S
C1183 C1182 1.362 . S
H1184 C1190 0.930 . S
H1185 C1193 0.930 . S
H1186 C1194 0.930 . S
H1187 C1195 0.930 . S
H1188 C1198 0.930 . S
H1189 C1199 0.930 . S
C1190 H1184 0.930 . S
C1190 C1191 1.355 . S
C1190 C1192 1.415 . S
C1191 C1190 1.355 . S
C1191 C1193 1.419 . S
C1192 C1190 1.415 . S
C1192 C1197 1.425 . S
C1192 C1199 1.409 . S
C1193 H1185 0.930 . S
C1193 C1191 1.419 . S
C1193 C1194 1.362 . S
C1194 H1186 0.930 . S
C1194 C1193 1.362 . S
C1194 C1197 1.409 . S
C1195 H1187 0.930 . S
C1195 C1196 1.355 . S
C1195 C1197 1.415 . S
C1196 C1195 1.355 . S
C1196 C1198 1.419 . S
C1197 C1192 1.425 . S
C1197 C1194 1.409 . S
C1197 C1195 1.415 . S
C1198 H1188 0.930 . S
C1198 C1196 1.419 . S
C1198 C1199 1.362 . S
C1199 H1189 0.930 . S
C1199 C1192 1.409 . S
C1199 C1198 1.362 . S
H1200 C1206 0.930 . S
H1201 C1209 0.930 . S
H1202 C1210 0.930 . S
H1203 C1211 0.930 . S
H1204 C1214 0.930 . S
H1205 C1215 0.930 . S
C1206 H1200 0.930 . S
C1206 C1207 1.355 1_545 S
C1206 C1208 1.415 . S
C1207 C1206 1.355 1_565 S
C1207 C1209 1.419 . S
C1208 C1206 1.415 . S
C1208 C1213 1.425 . S
C1208 C1215 1.409 . S
C1209 H1201 0.930 . S
C1209 C1207 1.419 . S
C1209 C1210 1.362 1_565 S
C1210 H1202 0.930 . S
C1210 C1209 1.362 1_545 S
C1210 C1213 1.409 . S
C1211 H1203 0.930 . S
C1211 C1212 1.355 . S
C1211 C1213 1.415 . S
C1212 C1211 1.355 . S
C1212 C1214 1.419 . S
C1213 C1208 1.425 . S
C1213 C1210 1.409 . S
C1213 C1211 1.415 . S
C1214 H1204 0.930 . S
C1214 C1212 1.419 . S
C1214 C1215 1.362 . S
C1215 H1205 0.930 . S
C1215 C1208 1.409 . S
C1215 C1214 1.362 . S
H1216 C1222 0.930 . S
H1217 C1225 0.930 . S
H1218 C1226 0.930 . S
H1219 C1227 0.930 . S
H1220 C1230 0.930 . S
H1221 C1231 0.930 . S
C1222 H1216 0.930 . S
C1222 C1223 1.355 . S
C1222 C1224 1.415 . S
C1223 C1222 1.355 . S
C1223 C1225 1.419 . S
C1224 C1222 1.415 . S
C1224 C1229 1.425 . S
C1224 C1231 1.409 . S
C1225 H1217 0.930 . S
C1225 C1223 1.419 . S
C1225 C1226 1.362 . S
C1226 H1218 0.930 . S
C1226 C1225 1.362 . S
C1226 C1229 1.409 . S
C1227 H1219 0.930 . S
C1227 C1228 1.355 . S
C1227 C1229 1.415 . S
C1228 C1227 1.355 . S
C1228 C1230 1.419 . S
C1229 C1224 1.425 . S
C1229 C1226 1.409 . S
C1229 C1227 1.415 . S
C1230 H1220 0.930 . S
C1230 C1228 1.419 . S
C1230 C1231 1.362 . S
C1231 H1221 0.930 . S
C1231 C1224 1.409 . S
C1231 C1230 1.362 . S
H1232 C1238 0.930 . S
H1233 C1241 0.930 . S
H1234 C1242 0.930 . S
H1235 C1243 0.930 . S
H1236 C1246 0.930 . S
H1237 C1247 0.930 . S
C1238 H1232 0.930 . S
C1238 C1239 1.355 . S
C1238 C1240 1.415 . S
C1239 C1238 1.355 . S
C1239 C1241 1.419 . S
C1240 C1238 1.415 . S
C1240 C1245 1.425 . S
C1240 C1247 1.409 1_545 S
C1241 H1233 0.930 . S
C1241 C1239 1.419 . S
C1241 C1242 1.362 . S
C1242 H1234 0.930 . S
C1242 C1241 1.362 . S
C1242 C1245 1.409 . S
C1243 H1235 0.930 . S
C1243 C1244 1.355 1_545 S
C1243 C1245 1.415 . S
C1244 C1243 1.355 1_565 S
C1244 C1246 1.419 . S
C1245 C1240 1.425 . S
C1245 C1242 1.409 . S
C1245 C1243 1.415 . S
C1246 H1236 0.930 . S
C1246 C1244 1.419 . S
C1246 C1247 1.362 . S
C1247 H1237 0.930 . S
C1247 C1240 1.409 1_565 S
C1247 C1246 1.362 . S
H1248 C1254 0.930 . S
H1249 C1257 0.930 . S
H1250 C1258 0.930 . S
H1251 C1259 0.930 . S
H1252 C1262 0.930 . S
H1253 C1263 0.930 . S
C1254 H1248 0.930 . S
C1254 C1255 1.355 . S
C1254 C1256 1.415 . S
C1255 C1254 1.355 . S
C1255 C1257 1.419 . S
C1256 C1254 1.415 . S
C1256 C1261 1.425 . S
C1256 C1263 1.409 . S
C1257 H1249 0.930 . S
C1257 C1255 1.419 . S
C1257 C1258 1.362 . S
C1258 H1250 0.930 . S
C1258 C1257 1.362 . S
C1258 C1261 1.409 . S
C1259 H1251 0.930 . S
C1259 C1260 1.355 . S
C1259 C1261 1.415 . S
C1260 C1259 1.355 . S
C1260 C1262 1.419 . S
C1261 C1256 1.425 . S
C1261 C1258 1.409 . S
C1261 C1259 1.415 . S
C1262 H1252 0.930 . S
C1262 C1260 1.419 . S
C1262 C1263 1.362 . S
C1263 H1253 0.930 . S
C1263 C1256 1.409 . S
C1263 C1262 1.362 . S
H1264 C1270 0.930 . S
H1265 C1273 0.930 . S
H1266 C1274 0.930 . S
H1267 C1275 0.930 . S
H1268 C1278 0.930 . S
H1269 C1279 0.930 . S
C1270 H1264 0.930 . S
C1270 C1271 1.355 . S
C1270 C1272 1.415 . S
C1271 C1270 1.355 . S
C1271 C1273 1.419 . S
C1272 C1270 1.415 . S
C1272 C1277 1.425 . S
C1272 C1279 1.409 1_565 S
C1273 H1265 0.930 . S
C1273 C1271 1.419 . S
C1273 C1274 1.362 . S
C1274 H1266 0.930 . S
C1274 C1273 1.362 . S
C1274 C1277 1.409 . S
C1275 H1267 0.930 . S
C1275 C1276 1.355 1_565 S
C1275 C1277 1.415 . S
C1276 C1275 1.355 1_545 S
C1276 C1278 1.419 . S
C1277 C1272 1.425 . S
C1277 C1274 1.409 . S
C1277 C1275 1.415 . S
C1278 H1268 0.930 . S
C1278 C1276 1.419 . S
C1278 C1279 1.362 . S
C1279 H1269 0.930 . S
C1279 C1272 1.409 1_545 S
C1279 C1278 1.362 . S
C519 C29 0.468 . S
C524 C349 0.521 . S
C535 C36 0.497 . S
C540 C381 0.491 . S
C551 C93 0.440 . S
C556 C285 0.563 . S
C567 C292 0.466 . S
C572 C125 0.566 . S
C583 C157 0.550 . S
C588 C452 0.494 . S
C599 C509 0.564 . S
C604 C164 0.471 . S
C615 C413 0.496 . S
C620 C221 0.549 . S
C631 C253 0.563 . S
C636 C420 0.472 . S
C647 C6 2.756 . S
C652 C134 2.756 . S
C663 C34 2.746 . S
C668 C418 2.746 . S
C679 C70 2.762 . S
C684 C198 2.762 . S
C695 C102 2.752 . S
C700 C486 2.752 . S
C711 C162 2.771 . S
C716 C290 2.771 . S
C727 C358 2.750 . S
C732 C230 2.750 . S
C743 C390 2.756 . S
C748 C262 2.756 . S
C759 C326 2.770 . S
C764 C450 2.770 . S
C775 C4 1.998 . S
C780 C226 1.977 . S
C791 C61 1.973 . S
C796 C386 1.964 . S
C807 C68 1.997 . S
C812 C166 1.988 . S
C823 C100 1.991 1_455 S
C828 C454 1.993 . S
C839 C98 1.992 . S
C844 C132 1.993 . S
C855 C189 1.975 . S
C860 C258 1.984 . S
C871 C196 1.982 . S
C876 C38 1.960 . S
C887 C322 1.987 . S
C892 C228 1.998 1_655 S
C903 C260 1.972 . S
C908 C482 1.975 1_565 S
C919 C130 1.971 . S
C924 C317 1.972 1_655 S
C935 C422 1.968 1_545 S
C940 C324 1.995 . S
C951 C194 1.974 . S
C956 C356 1.972 . S
C967 C388 1.974 . S
C972 C354 1.963 1_545 S
C983 C445 1.986 1_445 S
C988 C2 1.961 . S
C999 C294 1.971 1_565 S
C1004 C477 1.972 . S
C1015 C484 1.994 1_565 S
C1020 C66 1.968 . S
C1031 N13 0.956 . S
C1036 N301 0.932 . S
C1047 N338 0.966 . S
C1052 N50 0.978 . S
C1063 N77 0.850 . S
C1068 N370 0.904 . S
C1079 N274 0.907 . S
C1084 N109 0.926 . S
C1095 N429 0.905 . S
C1100 N141 0.850 . S
C1111 N461 0.974 . S
C1116 N178 0.972 . S
C1127 N498 0.950 . S
C1132 N205 0.903 . S
C1143 N402 0.882 . S
C1148 N237 0.881 . S
C1159 N45 0.931 . S
C1164 N269 0.877 . S
C1175 N82 0.947 . S
C1180 N306 0.969 . S
C1191 N114 0.922 . S
C1196 N333 0.866 . S
C1207 N365 0.866 . S
C1212 N18 0.877 . S
C1223 N173 0.931 . S
C1228 N397 0.877 . S
C1239 N210 0.946 . S
C1244 N434 0.968 . S
C1255 N242 0.970 . S
C1260 N466 0.942 . S
C1271 N146 0.972 . S
C1276 N493 0.976 . S
