# Generated by pormake.
# Topology uky, (4)-cn, num edge types: 1
# Building blocks:
#     Node 0, Type 0, BuildingBlock: CEKHIL_clean_sbu_0, # of connection points: 4
#     Node 1, Type 0, BuildingBlock: CEKHIL_clean_sbu_0, # of connection points: 4
#     Node 2, Type 0, BuildingBlock: CEKHIL_clean_sbu_0, # of connection points: 4
#     Node 3, Type 0, BuildingBlock: CEKHIL_clean_sbu_0, # of connection points: 4
#     Node 4, Type 0, BuildingBlock: CEKHIL_clean_sbu_0, # of connection points: 4
#     Node 5, Type 0, BuildingBlock: CEKHIL_clean_sbu_0, # of connection points: 4
#     Node 6, Type 0, BuildingBlock: CEKHIL_clean_sbu_0, # of connection points: 4
#     Node 7, Type 0, BuildingBlock: CEKHIL_clean_sbu_0, # of connection points: 4
#     Node 8, Type 0, BuildingBlock: CEKHIL_clean_sbu_0, # of connection points: 4
#     Node 9, Type 0, BuildingBlock: CEKHIL_clean_sbu_0, # of connection points: 4
#     Node 10, Type 0, BuildingBlock: CEKHIL_clean_sbu_0, # of connection points: 4
#     Node 11, Type 0, BuildingBlock: CEKHIL_clean_sbu_0, # of connection points: 4
#     Node 12, Type 0, BuildingBlock: CEKHIL_clean_sbu_0, # of connection points: 4
#     Node 13, Type 0, BuildingBlock: CEKHIL_clean_sbu_0, # of connection points: 4
#     Node 14, Type 0, BuildingBlock: CEKHIL_clean_sbu_0, # of connection points: 4
#     Node 15, Type 0, BuildingBlock: CEKHIL_clean_sbu_0, # of connection points: 4
#     Node 16, Type 0, BuildingBlock: CEKHIL_clean_sbu_0, # of connection points: 4
#     Node 17, Type 0, BuildingBlock: CEKHIL_clean_sbu_0, # of connection points: 4
#     Node 18, Type 0, BuildingBlock: CEKHIL_clean_sbu_0, # of connection points: 4
#     Node 19, Type 0, BuildingBlock: CEKHIL_clean_sbu_0, # of connection points: 4
#     Node 20, Type 0, BuildingBlock: CEKHIL_clean_sbu_0, # of connection points: 4
#     Node 21, Type 0, BuildingBlock: CEKHIL_clean_sbu_0, # of connection points: 4
#     Node 22, Type 0, BuildingBlock: CEKHIL_clean_sbu_0, # of connection points: 4
#     Node 23, Type 0, BuildingBlock: CEKHIL_clean_sbu_0, # of connection points: 4
#     Node 24, Type 0, BuildingBlock: CEKHIL_clean_sbu_0, # of connection points: 4
#     Node 25, Type 0, BuildingBlock: CEKHIL_clean_sbu_0, # of connection points: 4
#     Node 26, Type 0, BuildingBlock: CEKHIL_clean_sbu_0, # of connection points: 4
#     Node 27, Type 0, BuildingBlock: CEKHIL_clean_sbu_0, # of connection points: 4
#     Node 28, Type 0, BuildingBlock: CEKHIL_clean_sbu_0, # of connection points: 4
#     Node 29, Type 0, BuildingBlock: CEKHIL_clean_sbu_0, # of connection points: 4
#     Node 30, Type 0, BuildingBlock: CEKHIL_clean_sbu_0, # of connection points: 4
#     Node 31, Type 0, BuildingBlock: CEKHIL_clean_sbu_0, # of connection points: 4
#     Node 32, Type 0, BuildingBlock: CEKHIL_clean_sbu_0, # of connection points: 4
#     Node 33, Type 0, BuildingBlock: CEKHIL_clean_sbu_0, # of connection points: 4
#     Node 34, Type 0, BuildingBlock: CEKHIL_clean_sbu_0, # of connection points: 4
#     Node 35, Type 0, BuildingBlock: CEKHIL_clean_sbu_0, # of connection points: 4
#     Node 36, Type 0, BuildingBlock: CEKHIL_clean_sbu_0, # of connection points: 4
#     Node 37, Type 0, BuildingBlock: CEKHIL_clean_sbu_0, # of connection points: 4
#     Node 38, Type 0, BuildingBlock: CEKHIL_clean_sbu_0, # of connection points: 4
#     Node 39, Type 0, BuildingBlock: CEKHIL_clean_sbu_0, # of connection points: 4
#     Node 40, Type 0, BuildingBlock: CEKHIL_clean_sbu_0, # of connection points: 4
#     Node 41, Type 0, BuildingBlock: CEKHIL_clean_sbu_0, # of connection points: 4
#     Node 42, Type 0, BuildingBlock: CEKHIL_clean_sbu_0, # of connection points: 4
#     Node 43, Type 0, BuildingBlock: CEKHIL_clean_sbu_0, # of connection points: 4
#     Node 44, Type 0, BuildingBlock: CEKHIL_clean_sbu_0, # of connection points: 4
#     Node 45, Type 0, BuildingBlock: CEKHIL_clean_sbu_0, # of connection points: 4
#     Node 46, Type 0, BuildingBlock: CEKHIL_clean_sbu_0, # of connection points: 4
#     Node 47, Type 0, BuildingBlock: CEKHIL_clean_sbu_0, # of connection points: 4
#     Edge 48, Type (0, 0), None
#     Edge 49, Type (0, 0), None
#     Edge 50, Type (0, 0), None
#     Edge 51, Type (0, 0), None
#     Edge 52, Type (0, 0), None
#     Edge 53, Type (0, 0), None
#     Edge 54, Type (0, 0), None
#     Edge 55, Type (0, 0), None
#     Edge 56, Type (0, 0), None
#     Edge 57, Type (0, 0), None
#     Edge 58, Type (0, 0), None
#     Edge 59, Type (0, 0), None
#     Edge 60, Type (0, 0), None
#     Edge 61, Type (0, 0), None
#     Edge 62, Type (0, 0), None
#     Edge 63, Type (0, 0), None
#     Edge 64, Type (0, 0), None
#     Edge 65, Type (0, 0), None
#     Edge 66, Type (0, 0), None
#     Edge 67, Type (0, 0), None
#     Edge 68, Type (0, 0), None
#     Edge 69, Type (0, 0), None
#     Edge 70, Type (0, 0), None
#     Edge 71, Type (0, 0), None
#     Edge 72, Type (0, 0), None
#     Edge 73, Type (0, 0), None
#     Edge 74, Type (0, 0), None
#     Edge 75, Type (0, 0), None
#     Edge 76, Type (0, 0), None
#     Edge 77, Type (0, 0), None
#     Edge 78, Type (0, 0), None
#     Edge 79, Type (0, 0), None
#     Edge 80, Type (0, 0), None
#     Edge 81, Type (0, 0), None
#     Edge 82, Type (0, 0), None
#     Edge 83, Type (0, 0), None
#     Edge 84, Type (0, 0), None
#     Edge 85, Type (0, 0), None
#     Edge 86, Type (0, 0), None
#     Edge 87, Type (0, 0), None
#     Edge 88, Type (0, 0), None
#     Edge 89, Type (0, 0), None
#     Edge 90, Type (0, 0), None
#     Edge 91, Type (0, 0), None
#     Edge 92, Type (0, 0), None
#     Edge 93, Type (0, 0), None
#     Edge 94, Type (0, 0), None
#     Edge 95, Type (0, 0), None
#     Edge 96, Type (0, 0), None
#     Edge 97, Type (0, 0), None
#     Edge 98, Type (0, 0), None
#     Edge 99, Type (0, 0), None
#     Edge 100, Type (0, 0), None
#     Edge 101, Type (0, 0), None
#     Edge 102, Type (0, 0), None
#     Edge 103, Type (0, 0), None
#     Edge 104, Type (0, 0), None
#     Edge 105, Type (0, 0), None
#     Edge 106, Type (0, 0), None
#     Edge 107, Type (0, 0), None
#     Edge 108, Type (0, 0), None
#     Edge 109, Type (0, 0), None
#     Edge 110, Type (0, 0), None
#     Edge 111, Type (0, 0), None
#     Edge 112, Type (0, 0), None
#     Edge 113, Type (0, 0), None
#     Edge 114, Type (0, 0), None
#     Edge 115, Type (0, 0), None
#     Edge 116, Type (0, 0), None
#     Edge 117, Type (0, 0), None
#     Edge 118, Type (0, 0), None
#     Edge 119, Type (0, 0), None
#     Edge 120, Type (0, 0), None
#     Edge 121, Type (0, 0), None
#     Edge 122, Type (0, 0), None
#     Edge 123, Type (0, 0), None
#     Edge 124, Type (0, 0), None
#     Edge 125, Type (0, 0), None
#     Edge 126, Type (0, 0), None
#     Edge 127, Type (0, 0), None
#     Edge 128, Type (0, 0), None
#     Edge 129, Type (0, 0), None
#     Edge 130, Type (0, 0), None
#     Edge 131, Type (0, 0), None
#     Edge 132, Type (0, 0), None
#     Edge 133, Type (0, 0), None
#     Edge 134, Type (0, 0), None
#     Edge 135, Type (0, 0), None
#     Edge 136, Type (0, 0), None
#     Edge 137, Type (0, 0), None
#     Edge 138, Type (0, 0), None
#     Edge 139, Type (0, 0), None
#     Edge 140, Type (0, 0), None
#     Edge 141, Type (0, 0), None
#     Edge 142, Type (0, 0), None
#     Edge 143, Type (0, 0), None
# Relax obj value: 0.319
# Max RMSD: 0.254
# Mean RMSD: 0.254
data_MOF--net-uky--node1-CEKHIL_clean_sbu_0--edge1-none
_symmetry_space_group_name_H-M    P1
_symmetry_Int_Tables_number       1
_symmetry_cell_setting            triclinic
loop_
_symmetry_equiv_pos_as_xyz
'x, y, z'
_cell_length_a     28.02919
_cell_length_b     28.029193
_cell_length_c     28.029064
_cell_angle_alpha  89.996219
_cell_angle_beta   89.995943
_cell_angle_gamma 89.994143
loop_
_atom_site_label
_atom_site_type_symbol
_atom_site_fract_x
_atom_site_fract_y
_atom_site_fract_z
_atom_type_partial_charge
Co0 Co 0.18764 0.20118 0.35996 0.0
O1 O 0.12856 0.20718 0.39388 0.0
O2 O 0.15431 0.1404 0.35995 0.0
C3 C 0.18339 0.26984 0.31718 0.0
O4 O 0.24651 0.18217 0.31977 0.0
Co5 Co 0.268 0.2773 0.3755 0.0
O6 O 0.30028 0.24188 0.32491 0.0
C7 C 0.23581 0.21565 0.45378 0.0
C8 C 0.12264 0.16192 0.38616 0.0
C9 C 0.28589 0.20267 0.30727 0.0
O10 O 0.21827 0.18529 0.424 0.0
O11 O 0.25396 0.25535 0.44084 0.0
O12 O 0.16105 0.23204 0.30188 0.0
O13 O 0.20193 0.26568 0.35886 0.0
Co14 Co 0.00668 0.93764 0.60994 0.0
O15 O 0.00068 0.87856 0.64387 0.0
O16 O 0.06746 0.9043 0.60993 0.0
C17 C 0.93802 0.93339 0.56717 0.0
O18 O 0.02568 -0.0035 0.56975 0.0
Co19 Co 0.93054 0.018 0.62549 0.0
O20 O 0.96596 0.05027 0.5749 0.0
C21 C -0.00781 -0.01419 0.70377 0.0
C22 C 0.04594 0.87264 0.63615 0.0
C23 C 0.00517 0.03588 0.55725 0.0
O24 O 0.02256 0.96827 0.67398 0.0
O25 O 0.9525 0.00397 0.69083 0.0
O26 O 0.97583 0.91105 0.55187 0.0
O27 O 0.94217 0.95194 0.60884 0.0
Co28 Co 0.27022 0.75668 0.85994 0.0
O29 O 0.3293 0.75068 0.89385 0.0
O30 O 0.30355 0.81747 0.85991 0.0
C31 C 0.27448 0.68802 0.81717 0.0
O32 O 0.21136 0.77569 0.81975 0.0
Co33 Co 0.18987 0.68056 0.8755 0.0
O34 O 0.15759 0.71598 0.82491 0.0
C35 C 0.22206 0.74221 0.95377 0.0
C36 C 0.33521 0.79594 0.88613 0.0
C37 C 0.17197 0.75518 0.80726 0.0
O38 O 0.23959 0.77257 0.92397 0.0
O39 O 0.20391 0.70251 0.94084 0.0
O40 O 0.29682 0.72582 0.80186 0.0
O41 O 0.25593 0.69218 0.85884 0.0
Co42 Co 0.45116 0.02019 0.10995 0.0
O43 O 0.45717 0.07926 0.14388 0.0
O44 O 0.39038 0.05354 0.10995 0.0
C45 C 0.51981 0.02443 0.06718 0.0
O46 O 0.43214 0.96133 0.06975 0.0
Co47 Co 0.52727 0.9398 0.12549 0.0
O48 O 0.49185 0.90755 0.0749 0.0
C49 C 0.46563 0.97201 0.20378 0.0
C50 C 0.41191 0.08519 0.13617 0.0
C51 C 0.45264 0.92195 0.05725 0.0
O52 O 0.43526 -0.01046 0.17399 0.0
O53 O 0.50532 0.95384 0.19084 0.0
O54 O 0.48201 0.04678 0.05188 0.0
O55 O 0.51566 0.00587 0.10885 0.0
Co56 Co 0.18767 0.75667 0.09787 0.0
O57 O 0.12859 0.75067 0.06395 0.0
O58 O 0.15432 0.81746 0.09788 0.0
C59 C 0.18342 0.68802 0.14066 0.0
O60 O 0.24652 0.77569 0.13807 0.0
Co61 Co 0.26805 0.68054 0.08237 0.0
O62 O 0.30029 0.71597 0.13297 0.0
C63 C 0.23596 0.74224 0.00408 0.0
C64 C 0.12266 0.79593 0.07166 0.0
C65 C 0.28589 0.75518 0.1506 0.0
O66 O 0.21831 0.77256 0.03384 0.0
O67 O 0.25412 0.70254 0.01702 0.0
O68 O 0.16107 0.72583 0.15595 0.0
O69 O 0.20197 0.69217 0.09899 0.0
Co70 Co 0.45118 0.93763 0.34789 0.0
O71 O 0.45717 0.87856 0.31397 0.0
O72 O 0.39039 0.90431 0.34791 0.0
C73 C 0.51984 0.93337 0.39066 0.0
O74 O 0.43217 -0.0035 0.38808 0.0
Co75 Co 0.52732 0.01799 0.33236 0.0
O76 O 0.4919 0.05025 0.38296 0.0
C77 C 0.46561 -0.01409 0.25408 0.0
C78 C 0.41191 0.87264 0.32169 0.0
C79 C 0.45268 0.03587 0.40059 0.0
O80 O 0.43529 0.96827 0.28385 0.0
O81 O 0.50531 0.00406 0.26701 0.0
O82 O 0.48203 0.91104 0.40597 0.0
O83 O 0.51568 0.95192 0.34899 0.0
Co84 Co 0.27021 0.20118 0.59789 0.0
O85 O 0.32929 0.20718 0.56397 0.0
O86 O 0.30354 0.14039 0.5979 0.0
C87 C 0.27446 0.26983 0.64067 0.0
O88 O 0.21134 0.18217 0.63809 0.0
Co89 Co 0.18985 0.27734 0.58238 0.0
O90 O 0.15759 0.24191 0.63298 0.0
C91 C 0.22192 0.21563 0.5041 0.0
C92 C 0.33521 0.16192 0.57168 0.0
C93 C 0.17197 0.20269 0.6506 0.0
O94 O 0.23957 0.18531 0.53385 0.0
O95 O 0.20377 0.25533 0.51703 0.0
O96 O 0.2968 0.23202 0.65597 0.0
O97 O 0.25592 0.26569 0.599 0.0
Co98 Co 0.00665 0.02021 0.84788 0.0
O99 O 0.00066 0.07929 0.81396 0.0
O100 O 0.06744 0.05353 0.84789 0.0
C101 C 0.938 0.02447 0.89066 0.0
O102 O 0.02567 0.96134 0.88807 0.0
Co103 Co 0.93051 0.93985 0.83237 0.0
O104 O 0.96594 0.90759 0.88296 0.0
C105 C -0.00778 0.97192 0.75408 0.0
C106 C 0.04591 0.0852 0.82167 0.0
C107 C 0.00516 0.92197 0.90058 0.0
O108 O 0.02254 -0.01043 0.78384 0.0
O109 O 0.95252 0.95377 0.76702 0.0
O110 O 0.97581 0.0468 0.90596 0.0
O111 O 0.94215 0.00592 0.84899 0.0
Co112 Co 0.35995 0.18764 0.20118 0.0
O113 O 0.39387 0.12855 0.20719 0.0
O114 O 0.35993 0.1543 0.14041 0.0
C115 C 0.31718 0.18343 0.26982 0.0
O116 O 0.31976 0.2465 0.18216 0.0
Co117 Co 0.37551 0.26802 0.27729 0.0
O118 O 0.3249 0.30028 0.24187 0.0
C119 C 0.45378 0.23581 0.21563 0.0
C120 C 0.38615 0.12264 0.16193 0.0
C121 C 0.30726 0.28588 0.20266 0.0
O122 O 0.42399 0.21826 0.18528 0.0
O123 O 0.44085 0.25399 0.25532 0.0
O124 O 0.30187 0.16105 0.23204 0.0
O125 O 0.35886 0.20196 0.26568 0.0
Co126 Co 0.0202 0.10994 0.45116 0.0
O127 O 0.07927 0.14387 0.45718 0.0
O128 O 0.05355 0.10993 0.39039 0.0
C129 C 0.02441 0.06717 0.5198 0.0
O130 O 0.96135 0.06975 0.43214 0.0
Co131 Co 0.9398 0.12551 0.52726 0.0
O132 O 0.90755 0.07491 0.49184 0.0
C133 C 0.97201 0.20378 0.46561 0.0
C134 C 0.0852 0.13616 0.41192 0.0
C135 C 0.92196 0.05725 0.45264 0.0
O136 O -0.01044 0.17398 0.43526 0.0
O137 O 0.95384 0.19085 0.5053 0.0
O138 O 0.04679 0.05187 0.48202 0.0
O139 O 0.00587 0.10885 0.51566 0.0
Co140 Co 0.09791 0.7702 0.70118 0.0
O141 O 0.06399 0.82928 0.70718 0.0
O142 O 0.09793 0.80354 0.64039 0.0
C143 C 0.14068 0.77442 0.76981 0.0
O144 O 0.1381 0.71133 0.68217 0.0
Co145 Co 0.08235 0.68982 0.7773 0.0
O146 O 0.13295 0.65756 0.74189 0.0
C147 C 0.00408 0.72202 0.71564 0.0
C148 C 0.0717 0.8352 0.66192 0.0
C149 C 0.1506 0.67195 0.70268 0.0
O150 O 0.03388 0.73957 0.68529 0.0
O151 O 0.01701 0.70386 0.75533 0.0
O152 O 0.15599 0.79679 0.73202 0.0
O153 O 0.099 0.75589 0.76568 0.0
Co154 Co 0.43763 0.84791 0.95116 0.0
O155 O 0.37856 0.814 0.95716 0.0
O156 O 0.4043 0.84794 0.89037 0.0
C157 C 0.43341 0.89068 0.01979 0.0
O158 O 0.4965 0.8881 0.93214 0.0
Co159 Co 0.51801 0.83233 0.02726 0.0
O160 O 0.55028 0.88292 -0.00816 0.0
C161 C 0.4858 0.75407 0.96561 0.0
C162 C 0.37264 0.82171 0.9119 0.0
C163 C 0.53588 0.90058 0.95264 0.0
O164 O 0.46827 0.78387 0.93525 0.0
O165 O 0.50396 0.76699 0.0053 0.0
O166 O 0.41104 0.90599 -0.01799 0.0
O167 O 0.45194 0.84899 0.01566 0.0
Co168 Co 0.35993 0.77022 0.25668 0.0
O169 O 0.39385 0.82929 0.25067 0.0
O170 O 0.35991 0.80356 0.31746 0.0
C171 C 0.31717 0.77443 0.18805 0.0
O172 O 0.31974 0.71136 0.2757 0.0
Co173 Co 0.37552 0.68983 0.18059 0.0
O174 O 0.32493 0.65757 0.21601 0.0
C175 C 0.45377 0.72205 0.24224 0.0
C176 C 0.38614 0.83521 0.29593 0.0
C177 C 0.30726 0.67197 0.25521 0.0
O178 O 0.42397 0.73958 0.27259 0.0
O179 O 0.44086 0.70388 0.20255 0.0
O180 O 0.30186 0.79681 0.22582 0.0
O181 O 0.35885 0.7559 0.19219 0.0
Co182 Co 0.43765 0.10994 0.50666 0.0
O183 O 0.37857 0.14386 0.50066 0.0
O184 O 0.4043 0.10992 0.56745 0.0
C185 C 0.43344 0.06716 0.43803 0.0
O186 O 0.49651 0.06974 0.52568 0.0
Co187 Co 0.51803 0.1255 0.43055 0.0
O188 O 0.55029 0.0749 0.46596 0.0
C189 C 0.48583 0.20376 0.49222 0.0
C190 C 0.37265 0.13615 0.54592 0.0
C191 C 0.53589 0.05724 0.50517 0.0
O192 O 0.46828 0.17397 0.52256 0.0
O193 O 0.504 0.19084 0.45252 0.0
O194 O 0.41106 0.05186 0.47582 0.0
O195 O 0.45196 0.10884 0.44216 0.0
Co196 Co 0.0979 0.18765 0.75668 0.0
O197 O 0.06398 0.12858 0.75066 0.0
O198 O 0.09791 0.15429 0.81745 0.0
C199 C 0.14068 0.18344 0.68805 0.0
O200 O 0.1381 0.2465 0.77571 0.0
Co201 Co 0.08234 0.26805 0.68058 0.0
O202 O 0.13293 0.3003 0.71601 0.0
C203 C 0.00407 0.23583 0.74223 0.0
C204 C 0.07168 0.12265 0.79592 0.0
C205 C 0.15059 0.28589 0.75521 0.0
O206 O 0.03387 0.21829 0.77258 0.0
O207 O 0.017 0.254 0.70254 0.0
O208 O 0.15598 0.16105 0.72583 0.0
O209 O 0.099 0.20198 0.69218 0.0
Co210 Co 0.02021 0.84789 0.00665 0.0
O211 O 0.07929 0.81397 0.00064 0.0
O212 O 0.05356 0.84791 0.06743 0.0
C213 C 0.02441 0.89067 0.93802 0.0
O214 O 0.96135 0.88808 0.02568 0.0
Co215 Co 0.93982 0.83234 0.93056 0.0
O216 O 0.90756 0.88293 0.96598 0.0
C217 C 0.97204 0.75406 -0.00779 0.0
C218 C 0.08521 0.82168 0.0459 0.0
C219 C 0.92196 0.90058 0.00518 0.0
O220 O -0.01042 0.78385 0.02256 0.0
O221 O 0.95387 0.767 0.95252 0.0
O222 O 0.04679 0.90597 0.9758 0.0
O223 O 0.00589 0.84899 0.94216 0.0
Co224 Co 0.20118 0.35995 0.18763 0.0
O225 O 0.20718 0.39386 0.12855 0.0
O226 O 0.1404 0.35994 0.1543 0.0
C227 C 0.26981 0.31717 0.18342 0.0
O228 O 0.18215 0.31978 0.24651 0.0
Co229 Co 0.27728 0.3755 0.26802 0.0
O230 O 0.24186 0.32491 0.30028 0.0
C231 C 0.21564 0.45378 0.2358 0.0
C232 C 0.16193 0.38615 0.12262 0.0
C233 C 0.20265 0.30727 0.28589 0.0
O234 O 0.18528 0.424 0.21825 0.0
O235 O 0.25532 0.44084 0.25397 0.0
O236 O 0.23202 0.30187 0.16105 0.0
O237 O 0.26567 0.35885 0.20195 0.0
Co238 Co 0.70118 0.09791 0.77021 0.0
O239 O 0.70718 0.06398 0.82929 0.0
O240 O 0.6404 0.09792 0.80355 0.0
C241 C 0.76984 0.14068 0.77446 0.0
O242 O 0.68218 0.1381 0.71134 0.0
Co243 Co 0.77732 0.08235 0.68985 0.0
O244 O 0.7419 0.13294 0.65757 0.0
C245 C 0.71566 0.00408 0.72204 0.0
C246 C 0.66192 0.0717 0.83521 0.0
C247 C 0.70269 0.15059 0.67196 0.0
O248 O 0.6853 0.03387 0.73958 0.0
O249 O 0.75536 0.01701 0.70389 0.0
O250 O 0.73203 0.15598 0.7968 0.0
O251 O 0.76569 0.09901 0.75592 0.0
Co252 Co 0.10995 0.45116 0.02019 0.0
O253 O 0.14387 0.45717 0.07926 0.0
O254 O 0.10994 0.39038 0.05353 0.0
C255 C 0.06717 0.51982 0.02443 0.0
O256 O 0.06976 0.43215 0.96133 0.0
Co257 Co 0.12549 0.52728 0.93981 0.0
O258 O 0.07491 0.49186 0.90755 0.0
C259 C 0.20377 0.46564 0.97202 0.0
C260 C 0.13617 0.41191 0.08518 0.0
C261 C 0.05726 0.45265 0.92194 0.0
O262 O 0.17399 0.43527 -0.01045 0.0
O263 O 0.19084 0.50534 0.95386 0.0
O264 O 0.05187 0.48201 0.04678 0.0
O265 O 0.10884 0.51566 0.00588 0.0
Co266 Co 0.75668 0.85994 0.27022 0.0
O267 O 0.75068 0.89385 0.3293 0.0
O268 O 0.81747 0.85992 0.30355 0.0
C269 C 0.68802 0.81717 0.27447 0.0
O270 O 0.77569 0.81975 0.21135 0.0
Co271 Co 0.68055 0.87551 0.18987 0.0
O272 O 0.71598 0.82493 0.15758 0.0
C273 C 0.74221 0.95377 0.22207 0.0
C274 C 0.79594 0.88614 0.33521 0.0
C275 C 0.75519 0.80727 0.17197 0.0
O276 O 0.77257 0.92397 0.23959 0.0
O277 O 0.70251 0.94085 0.20392 0.0
O278 O 0.72583 0.80186 0.29681 0.0
O279 O 0.69218 0.85884 0.25593 0.0
Co280 Co 0.84789 0.00666 0.02022 0.0
O281 O 0.81397 0.00064 0.0793 0.0
O282 O 0.84789 0.06744 0.05356 0.0
C283 C 0.89067 0.93803 0.02442 0.0
O284 O 0.88807 0.02569 0.96135 0.0
Co285 Co 0.83234 0.93056 0.93983 0.0
O286 O 0.88293 0.966 0.90757 0.0
C287 C 0.75406 -0.0078 0.97204 0.0
C288 C 0.82168 0.0459 0.08523 0.0
C289 C 0.90056 0.0052 0.92196 0.0
O290 O 0.78384 0.02256 -0.01041 0.0
O291 O 0.767 0.95252 0.95387 0.0
O292 O 0.90597 0.97581 0.0468 0.0
O293 O 0.84899 0.94217 0.0059 0.0
Co294 Co 0.25668 0.59788 0.68765 0.0
O295 O 0.25066 0.56396 0.62858 0.0
O296 O 0.31746 0.59789 0.65429 0.0
C297 C 0.18805 0.64066 0.68344 0.0
O298 O 0.27572 0.63807 0.7465 0.0
Co299 Co 0.18059 0.58234 0.76806 0.0
O300 O 0.21601 0.63294 0.80029 0.0
C301 C 0.24223 0.50406 0.73584 0.0
C302 C 0.29592 0.57167 0.62264 0.0
C303 C 0.25522 0.65058 0.78589 0.0
O304 O 0.27259 0.53385 0.71829 0.0
O305 O 0.20254 0.51699 0.75401 0.0
O306 O 0.22583 0.65596 0.66106 0.0
O307 O 0.19219 0.59898 0.70198 0.0
Co308 Co 0.10995 0.50666 0.43764 0.0
O309 O 0.14387 0.50066 0.37856 0.0
O310 O 0.10993 0.56745 0.4043 0.0
C311 C 0.06717 0.43801 0.43339 0.0
O312 O 0.06975 0.52566 0.4965 0.0
Co313 Co 0.12549 0.43052 0.518 0.0
O314 O 0.0749 0.46594 0.55027 0.0
C315 C 0.20377 0.49218 0.48581 0.0
C316 C 0.13616 0.54592 0.37264 0.0
C317 C 0.05726 0.50516 0.53588 0.0
O318 O 0.17398 0.52254 0.46828 0.0
O319 O 0.19084 0.45248 0.50397 0.0
O320 O 0.05187 0.47582 0.41104 0.0
O321 O 0.10884 0.44216 0.45193 0.0
Co322 Co 0.34789 0.45118 0.93764 0.0
O323 O 0.31396 0.45718 0.87856 0.0
O324 O 0.3479 0.39039 0.90431 0.0
C325 C 0.39066 0.51984 0.93338 0.0
O326 O 0.38808 0.43217 -0.0035 0.0
Co327 Co 0.33236 0.52732 0.018 0.0
O328 O 0.38295 0.49189 0.05026 0.0
C329 C 0.25408 0.46562 -0.01408 0.0
C330 C 0.32168 0.41192 0.87265 0.0
C331 C 0.40059 0.45268 0.03587 0.0
O332 O 0.28385 0.43529 0.96828 0.0
O333 O 0.26701 0.50532 0.00407 0.0
O334 O 0.40596 0.48203 0.91104 0.0
O335 O 0.34899 0.51569 0.95193 0.0
Co336 Co 0.68764 0.70118 0.85995 0.0
O337 O 0.62856 0.70719 0.89387 0.0
O338 O 0.6543 0.6404 0.85994 0.0
C339 C 0.6834 0.76984 0.81718 0.0
O340 O 0.74651 0.68216 0.81976 0.0
Co341 Co 0.76801 0.77729 0.8755 0.0
O342 O 0.80029 0.74186 0.82492 0.0
C343 C 0.7358 0.71564 0.95378 0.0
C344 C 0.62263 0.66193 0.88615 0.0
C345 C 0.78589 0.70265 0.80727 0.0
O346 O 0.71827 0.68528 0.92399 0.0
O347 O 0.75396 0.75533 0.94085 0.0
O348 O 0.66106 0.73204 0.80188 0.0
O349 O 0.70194 0.76568 0.85885 0.0
Co350 Co 0.50667 0.43764 0.10993 0.0
O351 O 0.50066 0.37856 0.14385 0.0
O352 O 0.56745 0.40429 0.10991 0.0
C353 C 0.43803 0.43343 0.06716 0.0
O354 O 0.52568 0.4965 0.06974 0.0
Co355 Co 0.43055 0.51803 0.1255 0.0
O356 O 0.46597 0.55029 0.0749 0.0
C357 C 0.49222 0.48581 0.20376 0.0
C358 C 0.54592 0.37263 0.13614 0.0
C359 C 0.50518 0.53589 0.05725 0.0
O360 O 0.52257 0.46827 0.17396 0.0
O361 O 0.45252 0.50398 0.19084 0.0
O362 O 0.47582 0.41105 0.05185 0.0
O363 O 0.44217 0.45196 0.10884 0.0
Co364 Co 0.77021 0.25669 0.35994 0.0
O365 O 0.82928 0.25068 0.39386 0.0
O366 O 0.80355 0.31747 0.35992 0.0
C367 C 0.77445 0.18803 0.31718 0.0
O368 O 0.71135 0.2757 0.31975 0.0
Co369 Co 0.68984 0.18058 0.37552 0.0
O370 O 0.65756 0.21601 0.32493 0.0
C371 C 0.72205 0.24224 0.45378 0.0
C372 C 0.83521 0.29594 0.38614 0.0
C373 C 0.67196 0.25521 0.30726 0.0
O374 O 0.73957 0.27259 0.42398 0.0
O375 O 0.70389 0.20254 0.44085 0.0
O376 O 0.7968 0.22582 0.30187 0.0
O377 O 0.7559 0.19219 0.35885 0.0
Co378 Co 0.95117 0.52019 0.60995 0.0
O379 O 0.95719 0.57926 0.64388 0.0
O380 O 0.8904 0.55355 0.60994 0.0
C381 C 0.0198 0.52439 0.56717 0.0
O382 O 0.93214 0.46134 0.56975 0.0
Co383 Co 0.02726 0.43978 0.62551 0.0
O384 O -0.00816 0.40754 0.57491 0.0
C385 C 0.9656 0.47201 0.70378 0.0
C386 C 0.91193 0.5852 0.63616 0.0
C387 C 0.95264 0.42195 0.55725 0.0
O388 O 0.93526 0.48955 0.67398 0.0
O389 O 0.0053 0.45383 0.69085 0.0
O390 O -0.01797 0.54678 0.55187 0.0
O391 O 0.01566 0.50585 0.60885 0.0
Co392 Co 0.68767 0.25667 0.59788 0.0
O393 O 0.6286 0.25065 0.56395 0.0
O394 O 0.65431 0.31744 0.59789 0.0
C395 C 0.68346 0.18804 0.64066 0.0
O396 O 0.74652 0.2757 0.63808 0.0
Co397 Co 0.76807 0.18056 0.58235 0.0
O398 O 0.8003 0.21598 0.63296 0.0
C399 C 0.73597 0.24226 0.50408 0.0
C400 C 0.62266 0.29591 0.57167 0.0
C401 C 0.7859 0.25519 0.65059 0.0
O402 O 0.71831 0.27257 0.53385 0.0
O403 O 0.75414 0.20257 0.51701 0.0
O404 O 0.66107 0.22582 0.65596 0.0
O405 O 0.702 0.19217 0.59899 0.0
Co406 Co 0.95118 0.43764 0.84789 0.0
O407 O 0.95719 0.37857 0.81397 0.0
O408 O 0.8904 0.4043 0.84791 0.0
C409 C 0.01981 0.43342 0.89066 0.0
O410 O 0.93215 0.49651 0.88808 0.0
Co411 Co 0.02729 0.51803 0.83234 0.0
O412 O -0.00813 0.55027 0.88294 0.0
C413 C 0.96559 0.48593 0.75408 0.0
C414 C 0.91193 0.37264 0.82168 0.0
C415 C 0.95265 0.53588 0.90058 0.0
O416 O 0.93527 0.46828 0.78385 0.0
O417 O 0.00528 0.50409 0.767 0.0
O418 O -0.01797 0.41105 0.90596 0.0
O419 O 0.01568 0.45196 0.84898 0.0
Co420 Co 0.77019 0.7012 0.09789 0.0
O421 O 0.82927 0.7072 0.06396 0.0
O422 O 0.80353 0.64041 0.0979 0.0
C423 C 0.77442 0.76982 0.14067 0.0
O424 O 0.71133 0.68218 0.13809 0.0
Co425 Co 0.68981 0.77734 0.08236 0.0
O426 O 0.65757 0.74191 0.13297 0.0
C427 C 0.7219 0.71562 0.00409 0.0
C428 C 0.83519 0.66194 0.07167 0.0
C429 C 0.67195 0.70269 0.1506 0.0
O430 O 0.73955 0.68531 0.03385 0.0
O431 O 0.70374 0.75532 0.01702 0.0
O432 O 0.79679 0.73203 0.15597 0.0
O433 O 0.75588 0.7657 0.09899 0.0
Co434 Co 0.50666 0.52019 0.34787 0.0
O435 O 0.50065 0.57927 0.31394 0.0
O436 O 0.56744 0.55353 0.34788 0.0
C437 C 0.438 0.52444 0.39064 0.0
O438 O 0.52568 0.46133 0.38806 0.0
Co439 Co 0.43054 0.43982 0.33235 0.0
O440 O 0.46597 0.40756 0.38295 0.0
C441 C 0.49224 0.4719 0.25407 0.0
C442 C 0.5459 0.5852 0.32166 0.0
C443 C 0.50518 0.42195 0.40057 0.0
O444 O 0.52256 0.48956 0.28383 0.0
O445 O 0.45255 0.45374 0.267 0.0
O446 O 0.4758 0.54678 0.40594 0.0
O447 O 0.44216 0.50589 0.34898 0.0
Co448 Co 0.85997 0.68764 0.70119 0.0
O449 O 0.89389 0.62856 0.70719 0.0
O450 O 0.85996 0.65431 0.64041 0.0
C451 C 0.81719 0.68341 0.76982 0.0
O452 O 0.81978 0.74651 0.68217 0.0
Co453 Co 0.87549 0.76801 0.77732 0.0
O454 O 0.8249 0.80027 0.74189 0.0
C455 C 0.95377 0.73593 0.71562 0.0
C456 C 0.88618 0.62265 0.66193 0.0
C457 C 0.80727 0.78588 0.70268 0.0
O458 O 0.92401 0.71827 0.6853 0.0
O459 O 0.94084 0.75409 0.75531 0.0
O460 O 0.80189 0.66105 0.73203 0.0
O461 O 0.85887 0.70194 0.7657 0.0
Co462 Co 0.52019 0.60996 0.95116 0.0
O463 O 0.57926 0.64388 0.95717 0.0
O464 O 0.55353 0.60995 0.89038 0.0
C465 C 0.52441 0.56718 0.01979 0.0
O466 O 0.46133 0.56978 0.93214 0.0
Co467 Co 0.43979 0.62549 0.02728 0.0
O468 O 0.40756 0.57489 -0.00814 0.0
C469 C 0.47189 0.70377 0.96558 0.0
C470 C 0.58519 0.63617 0.91191 0.0
C471 C 0.42195 0.55726 0.95264 0.0
O472 O 0.48955 0.674 0.93527 0.0
O473 O 0.45372 0.69084 0.00527 0.0
O474 O 0.54678 0.55188 -0.018 0.0
O475 O 0.50587 0.60886 0.01566 0.0
Co476 Co 0.59789 0.2702 0.20118 0.0
O477 O 0.56397 0.32928 0.20717 0.0
O478 O 0.5979 0.30353 0.14039 0.0
C479 C 0.64067 0.27444 0.26981 0.0
O480 O 0.63809 0.21134 0.18217 0.0
Co481 Co 0.58236 0.18984 0.27733 0.0
O482 O 0.63297 0.15758 0.24191 0.0
C483 C 0.50409 0.22191 0.21561 0.0
C484 C 0.57168 0.33519 0.16191 0.0
C485 C 0.6506 0.17196 0.20269 0.0
O486 O 0.53385 0.23957 0.18529 0.0
O487 O 0.51702 0.20375 0.25531 0.0
O488 O 0.65597 0.2968 0.23202 0.0
O489 O 0.59899 0.2559 0.26569 0.0
Co490 Co 0.93763 0.3479 0.45117 0.0
O491 O 0.87855 0.31399 0.45717 0.0
O492 O 0.90431 0.34792 0.39038 0.0
C493 C 0.93341 0.39067 0.5198 0.0
O494 O -0.0035 0.38807 0.43215 0.0
Co495 Co 0.01801 0.33235 0.52729 0.0
O496 O 0.05026 0.38295 0.49187 0.0
C497 C -0.01408 0.25408 0.46559 0.0
C498 C 0.87264 0.3217 0.41191 0.0
C499 C 0.03588 0.40058 0.45265 0.0
O500 O 0.96827 0.28385 0.43527 0.0
O501 O 0.00408 0.26701 0.50528 0.0
O502 O 0.91104 0.40598 0.48201 0.0
O503 O 0.95194 0.34899 0.51567 0.0
Co504 Co 0.85996 0.27021 0.75667 0.0
O505 O 0.89388 0.32929 0.75066 0.0
O506 O 0.85994 0.30355 0.81745 0.0
C507 C 0.81718 0.27444 0.68804 0.0
O508 O 0.81977 0.21135 0.7757 0.0
Co509 Co 0.8755 0.18983 0.68055 0.0
O510 O 0.8249 0.15758 0.71598 0.0
C511 C 0.95377 0.22192 0.74226 0.0
C512 C 0.88617 0.33521 0.79592 0.0
C513 C 0.80727 0.17198 0.7552 0.0
O514 O 0.924 0.23957 0.77257 0.0
O515 O 0.94084 0.20376 0.70256 0.0
O516 O 0.80188 0.29681 0.72583 0.0
O517 O 0.85886 0.2559 0.69217 0.0
Co518 Co 0.93763 0.60996 0.00665 0.0
O519 O 0.87855 0.64389 0.00065 0.0
O520 O 0.90429 0.60995 0.06744 0.0
C521 C 0.93341 0.56718 0.93803 0.0
O522 O -0.00351 0.56977 0.02568 0.0
Co523 Co 0.01802 0.62548 0.93052 0.0
O524 O 0.05026 0.57487 0.96595 0.0
C525 C -0.01406 0.70376 -0.00777 0.0
C526 C 0.87264 0.63618 0.04591 0.0
C527 C 0.03587 0.55725 0.00517 0.0
O528 O 0.96827 0.67399 0.02254 0.0
O529 O 0.0041 0.69082 0.95254 0.0
O530 O 0.91104 0.55188 0.97582 0.0
O531 O 0.95194 0.60885 0.94215 0.0
Co532 Co 0.59788 0.68765 0.25667 0.0
O533 O 0.56396 0.62859 0.25065 0.0
O534 O 0.59789 0.65429 0.31745 0.0
C535 C 0.64066 0.68345 0.18804 0.0
O536 O 0.63807 0.74651 0.27571 0.0
Co537 Co 0.58235 0.76807 0.18057 0.0
O538 O 0.63297 0.80029 0.216 0.0
C539 C 0.50408 0.73597 0.24227 0.0
C540 C 0.57166 0.62265 0.29591 0.0
C541 C 0.65059 0.78588 0.25521 0.0
O542 O 0.53384 0.71829 0.27258 0.0
O543 O 0.51701 0.75414 0.20258 0.0
O544 O 0.65596 0.66106 0.22582 0.0
O545 O 0.59898 0.70199 0.19218 0.0
Co546 Co 0.52021 0.34788 0.50665 0.0
O547 O 0.57929 0.31395 0.50064 0.0
O548 O 0.55355 0.34789 0.56743 0.0
C549 C 0.52443 0.39066 0.43802 0.0
O550 O 0.46135 0.38807 0.52568 0.0
Co551 Co 0.43983 0.33235 0.43053 0.0
O552 O 0.40758 0.38295 0.46596 0.0
C553 C 0.47192 0.25407 0.49224 0.0
C554 C 0.58521 0.32166 0.5459 0.0
C555 C 0.42197 0.40058 0.50517 0.0
O556 O 0.48958 0.28383 0.52255 0.0
O557 O 0.45376 0.267 0.45255 0.0
O558 O 0.5468 0.40596 0.4758 0.0
O559 O 0.5059 0.34898 0.44215 0.0
Co560 Co 0.7012 0.85997 0.68765 0.0
O561 O 0.70721 0.89388 0.62856 0.0
O562 O 0.64042 0.85996 0.65431 0.0
C563 C 0.76983 0.81718 0.68343 0.0
O564 O 0.68217 0.81979 0.74651 0.0
Co565 Co 0.77732 0.87548 0.76803 0.0
O566 O 0.74189 0.82488 0.80028 0.0
C567 C 0.71563 0.95377 0.73593 0.0
C568 C 0.66195 0.88617 0.62264 0.0
C569 C 0.70267 0.80727 0.78589 0.0
O570 O 0.68531 0.92402 0.71827 0.0
O571 O 0.75532 0.94083 0.7541 0.0
O572 O 0.73204 0.80188 0.66106 0.0
O573 O 0.7657 0.85886 0.70196 0.0
Co574 Co 0.20119 0.5979 0.27021 0.0
O575 O 0.20718 0.56398 0.32929 0.0
O576 O 0.1404 0.59791 0.30354 0.0
C577 C 0.26981 0.64068 0.27444 0.0
O578 O 0.18217 0.63808 0.21134 0.0
Co579 Co 0.27733 0.58237 0.18984 0.0
O580 O 0.24191 0.63297 0.15758 0.0
C581 C 0.21562 0.50409 0.22191 0.0
C582 C 0.16192 0.57169 0.3352 0.0
C583 C 0.20268 0.65059 0.17196 0.0
O584 O 0.1853 0.53386 0.23957 0.0
O585 O 0.25532 0.51702 0.20375 0.0
O586 O 0.23202 0.65598 0.2968 0.0
O587 O 0.26569 0.599 0.2559 0.0
Co588 Co 0.60997 0.95116 0.52019 0.0
O589 O 0.64389 0.95718 0.57926 0.0
O590 O 0.60996 0.89039 0.55355 0.0
C591 C 0.56718 0.01979 0.5244 0.0
O592 O 0.56977 0.93213 0.46134 0.0
Co593 Co 0.62551 0.02726 0.43979 0.0
O594 O 0.57491 -0.00817 0.40754 0.0
C595 C 0.70379 0.96562 0.472 0.0
C596 C 0.63619 0.91192 0.58519 0.0
C597 C 0.55727 0.95262 0.42195 0.0
O598 O 0.674 0.93526 0.48955 0.0
O599 O 0.69085 0.00531 0.45383 0.0
O600 O 0.55189 -0.01799 0.54679 0.0
O601 O 0.60886 0.01565 0.50586 0.0
Co602 Co 0.25667 0.35994 0.77022 0.0
O603 O 0.25066 0.39386 0.8293 0.0
O604 O 0.31745 0.35993 0.80356 0.0
C605 C 0.18804 0.31717 0.77444 0.0
O606 O 0.2757 0.31976 0.71136 0.0
Co607 Co 0.18055 0.37549 0.68984 0.0
O608 O 0.21598 0.32489 0.65759 0.0
C609 C 0.24225 0.45375 0.72193 0.0
C610 C 0.29592 0.38615 0.83521 0.0
C611 C 0.2552 0.30726 0.67198 0.0
O612 O 0.27257 0.42398 0.73958 0.0
O613 O 0.20255 0.44083 0.70378 0.0
O614 O 0.22583 0.30186 0.79682 0.0
O615 O 0.19217 0.35885 0.75591 0.0
Co616 Co 0.34788 0.50665 0.5202 0.0
O617 O 0.31397 0.50064 0.57928 0.0
O618 O 0.34789 0.56743 0.55352 0.0
C619 C 0.39067 0.43802 0.52442 0.0
O620 O 0.38806 0.52567 0.46132 0.0
Co621 Co 0.33237 0.43051 0.43982 0.0
O622 O 0.38296 0.46595 0.40756 0.0
C623 C 0.25408 0.4922 0.47192 0.0
C624 C 0.32167 0.5459 0.58519 0.0
C625 C 0.40057 0.50517 0.42195 0.0
O626 O 0.28383 0.52253 0.48957 0.0
O627 O 0.26702 0.45251 0.45376 0.0
O628 O 0.40597 0.47581 0.54678 0.0
O629 O 0.34899 0.44214 0.50589 0.0
Co630 Co 0.75667 0.09788 0.18767 0.0
O631 O 0.75066 0.06395 0.1286 0.0
O632 O 0.81745 0.09788 0.15433 0.0
C633 C 0.68804 0.14066 0.18345 0.0
O634 O 0.77569 0.13807 0.24652 0.0
Co635 Co 0.68055 0.08237 0.26807 0.0
O636 O 0.71597 0.13298 0.3003 0.0
C637 C 0.74224 0.00408 0.23597 0.0
C638 C 0.79592 0.07166 0.12267 0.0
C639 C 0.75519 0.15059 0.2859 0.0
O640 O 0.77256 0.03384 0.21831 0.0
O641 O 0.70254 0.01702 0.25413 0.0
O642 O 0.72583 0.15596 0.16107 0.0
O643 O 0.69217 0.09899 0.20199 0.0
Co644 Co 0.60995 0.00666 0.93764 0.0
O645 O 0.64387 0.00066 0.87856 0.0
O646 O 0.60994 0.06745 0.90431 0.0
C647 C 0.56717 0.93803 0.93341 0.0
O648 O 0.56976 0.02567 -0.00349 0.0
Co649 Co 0.62547 0.93051 0.01801 0.0
O650 O 0.57486 0.96593 0.05026 0.0
C651 C 0.70375 -0.00778 -0.01406 0.0
C652 C 0.63616 0.04593 0.87265 0.0
C653 C 0.55724 0.00516 0.03588 0.0
O654 O 0.67399 0.02254 0.96828 0.0
O655 O 0.69082 0.95253 0.00409 0.0
O656 O 0.55187 0.97583 0.91104 0.0
O657 O 0.60885 0.94215 0.95194 0.0
Co658 Co 0.84791 0.95117 0.43763 0.0
O659 O 0.81399 0.95717 0.37855 0.0
O660 O 0.84793 0.89038 0.40431 0.0
C661 C 0.89068 0.0198 0.4334 0.0
O662 O 0.88809 0.93215 0.4965 0.0
Co663 Co 0.83236 0.0273 0.51801 0.0
O664 O 0.88297 -0.00813 0.55026 0.0
C665 C 0.7541 0.9656 0.48591 0.0
C666 C 0.82171 0.91191 0.37264 0.0
C667 C 0.90059 0.95265 0.53587 0.0
O668 O 0.78387 0.93528 0.46827 0.0
O669 O 0.76702 0.00529 0.50407 0.0
O670 O 0.90599 -0.01799 0.41104 0.0
O671 O 0.849 0.01567 0.45194 0.0
loop_
_geom_bond_atom_site_label_1
_geom_bond_atom_site_label_2
_geom_bond_distance
_geom_bond_site_symmetry_2
_ccdc_geom_bond_type
Co0 O1 2.216 . S
Co0 O2 2.091 . S
Co0 O4 2.004 . S
Co0 O10 2.021 . S
Co0 O12 2.137 . S
Co0 O13 2.244 . S
O1 Co0 2.216 . S
O1 C8 1.247 . S
O2 Co0 2.091 . S
O2 C8 1.261 . S
C3 O12 1.247 . S
C3 O13 1.272 . S
O4 Co0 2.004 . S
O4 C9 1.259 . S
Co5 O6 2.061 . S
Co5 O11 2.052 . S
Co5 O13 2.135 . S
O6 Co5 2.061 . S
O6 C9 1.235 . S
C7 O10 1.238 . S
C7 O11 1.241 . S
C8 O1 1.247 . S
C8 O2 1.261 . S
C9 O4 1.259 . S
C9 O6 1.235 . S
O10 Co0 2.021 . S
O10 C7 1.238 . S
O11 Co5 2.052 . S
O11 C7 1.241 . S
O12 Co0 2.137 . S
O12 C3 1.247 . S
O13 Co0 2.244 . S
O13 C3 1.272 . S
O13 Co5 2.135 . S
Co14 O15 2.216 . S
Co14 O16 2.091 . S
Co14 O18 2.004 1_565 S
Co14 O24 2.021 . S
Co14 O26 2.137 1_455 S
Co14 O27 2.244 1_455 S
O15 Co14 2.216 . S
O15 C22 1.247 . S
O16 Co14 2.091 . S
O16 C22 1.261 . S
C17 O26 1.247 . S
C17 O27 1.272 . S
O18 Co14 2.004 1_545 S
O18 C23 1.259 . S
Co19 O20 2.061 1_655 S
Co19 O25 2.052 . S
Co19 O27 2.135 1_545 S
O20 Co19 2.061 1_455 S
O20 C23 1.235 . S
C21 O24 1.238 1_545 S
C21 O25 1.241 1_455 S
C22 O15 1.247 . S
C22 O16 1.261 . S
C23 O18 1.259 . S
C23 O20 1.235 . S
O24 Co14 2.021 . S
O24 C21 1.238 1_565 S
O25 Co19 2.052 . S
O25 C21 1.241 1_655 S
O26 Co14 2.137 1_655 S
O26 C17 1.247 . S
O27 Co14 2.244 1_655 S
O27 C17 1.272 . S
O27 Co19 2.135 1_565 S
Co28 O29 2.216 . S
Co28 O30 2.091 . S
Co28 O32 2.004 . S
Co28 O38 2.021 . S
Co28 O40 2.137 . S
Co28 O41 2.244 . S
O29 Co28 2.216 . S
O29 C36 1.247 . S
O30 Co28 2.091 . S
O30 C36 1.261 . S
C31 O40 1.247 . S
C31 O41 1.272 . S
O32 Co28 2.004 . S
O32 C37 1.259 . S
Co33 O34 2.061 . S
Co33 O39 2.052 . S
Co33 O41 2.135 . S
O34 Co33 2.061 . S
O34 C37 1.235 . S
C35 O38 1.238 . S
C35 O39 1.241 . S
C36 O29 1.247 . S
C36 O30 1.261 . S
C37 O32 1.259 . S
C37 O34 1.235 . S
O38 Co28 2.021 . S
O38 C35 1.238 . S
O39 Co33 2.052 . S
O39 C35 1.241 . S
O40 Co28 2.137 . S
O40 C31 1.247 . S
O41 Co28 2.244 . S
O41 C31 1.272 . S
O41 Co33 2.135 . S
Co42 O43 2.216 . S
Co42 O44 2.091 . S
Co42 O46 2.004 1_545 S
Co42 O52 2.021 . S
Co42 O54 2.137 . S
Co42 O55 2.244 . S
O43 Co42 2.216 . S
O43 C50 1.247 . S
O44 Co42 2.091 . S
O44 C50 1.261 . S
C45 O54 1.247 . S
C45 O55 1.272 . S
O46 Co42 2.004 1_565 S
O46 C51 1.259 . S
Co47 O48 2.061 . S
Co47 O53 2.052 . S
Co47 O55 2.135 1_565 S
O48 Co47 2.061 . S
O48 C51 1.235 . S
C49 O52 1.238 1_565 S
C49 O53 1.241 . S
C50 O43 1.247 . S
C50 O44 1.261 . S
C51 O46 1.259 . S
C51 O48 1.235 . S
O52 Co42 2.021 . S
O52 C49 1.238 1_545 S
O53 Co47 2.052 . S
O53 C49 1.241 . S
O54 Co42 2.137 . S
O54 C45 1.247 . S
O55 Co42 2.244 . S
O55 C45 1.272 . S
O55 Co47 2.135 1_545 S
Co56 O57 2.216 . S
Co56 O58 2.091 . S
Co56 O60 2.004 . S
Co56 O66 2.021 . S
Co56 O68 2.137 . S
Co56 O69 2.244 . S
O57 Co56 2.216 . S
O57 C64 1.247 . S
O58 Co56 2.091 . S
O58 C64 1.261 . S
C59 O68 1.247 . S
C59 O69 1.272 . S
O60 Co56 2.004 . S
O60 C65 1.259 . S
Co61 O62 2.061 . S
Co61 O67 2.052 . S
Co61 O69 2.135 . S
O62 Co61 2.061 . S
O62 C65 1.235 . S
C63 O66 1.238 . S
C63 O67 1.241 . S
C64 O57 1.247 . S
C64 O58 1.261 . S
C65 O60 1.259 . S
C65 O62 1.235 . S
O66 Co56 2.021 . S
O66 C63 1.238 . S
O67 Co61 2.052 . S
O67 C63 1.241 . S
O68 Co56 2.137 . S
O68 C59 1.247 . S
O69 Co56 2.244 . S
O69 C59 1.272 . S
O69 Co61 2.135 . S
Co70 O71 2.216 . S
Co70 O72 2.091 . S
Co70 O74 2.004 1_565 S
Co70 O80 2.021 . S
Co70 O82 2.137 . S
Co70 O83 2.244 . S
O71 Co70 2.216 . S
O71 C78 1.247 . S
O72 Co70 2.091 . S
O72 C78 1.261 . S
C73 O82 1.247 . S
C73 O83 1.272 . S
O74 Co70 2.004 1_545 S
O74 C79 1.259 . S
Co75 O76 2.061 . S
Co75 O81 2.052 . S
Co75 O83 2.135 1_545 S
O76 Co75 2.061 . S
O76 C79 1.235 . S
C77 O80 1.238 1_545 S
C77 O81 1.241 . S
C78 O71 1.247 . S
C78 O72 1.261 . S
C79 O74 1.259 . S
C79 O76 1.235 . S
O80 Co70 2.021 . S
O80 C77 1.238 1_565 S
O81 Co75 2.052 . S
O81 C77 1.241 . S
O82 Co70 2.137 . S
O82 C73 1.247 . S
O83 Co70 2.244 . S
O83 C73 1.272 . S
O83 Co75 2.135 1_565 S
Co84 O85 2.216 . S
Co84 O86 2.091 . S
Co84 O88 2.004 . S
Co84 O94 2.021 . S
Co84 O96 2.137 . S
Co84 O97 2.244 . S
O85 Co84 2.216 . S
O85 C92 1.247 . S
O86 Co84 2.091 . S
O86 C92 1.261 . S
C87 O96 1.247 . S
C87 O97 1.272 . S
O88 Co84 2.004 . S
O88 C93 1.259 . S
Co89 O90 2.061 . S
Co89 O95 2.052 . S
Co89 O97 2.135 . S
O90 Co89 2.061 . S
O90 C93 1.235 . S
C91 O94 1.238 . S
C91 O95 1.241 . S
C92 O85 1.247 . S
C92 O86 1.261 . S
C93 O88 1.259 . S
C93 O90 1.235 . S
O94 Co84 2.021 . S
O94 C91 1.238 . S
O95 Co89 2.052 . S
O95 C91 1.241 . S
O96 Co84 2.137 . S
O96 C87 1.247 . S
O97 Co84 2.244 . S
O97 C87 1.272 . S
O97 Co89 2.135 . S
Co98 O99 2.216 . S
Co98 O100 2.091 . S
Co98 O102 2.004 1_545 S
Co98 O108 2.021 . S
Co98 O110 2.137 1_455 S
Co98 O111 2.244 1_455 S
O99 Co98 2.216 . S
O99 C106 1.247 . S
O100 Co98 2.091 . S
O100 C106 1.261 . S
C101 O110 1.247 . S
C101 O111 1.272 . S
O102 Co98 2.004 1_565 S
O102 C107 1.259 . S
Co103 O104 2.061 1_655 S
Co103 O109 2.052 . S
Co103 O111 2.135 1_565 S
O104 Co103 2.061 1_455 S
O104 C107 1.235 . S
C105 O108 1.238 1_565 S
C105 O109 1.241 1_455 S
C106 O99 1.247 . S
C106 O100 1.261 . S
C107 O102 1.259 . S
C107 O104 1.235 . S
O108 Co98 2.021 . S
O108 C105 1.238 1_545 S
O109 Co103 2.052 . S
O109 C105 1.241 1_655 S
O110 Co98 2.137 1_655 S
O110 C101 1.247 . S
O111 Co98 2.244 1_655 S
O111 C101 1.272 . S
O111 Co103 2.135 1_545 S
Co112 O113 2.216 . S
Co112 O114 2.091 . S
Co112 O116 2.004 . S
Co112 O122 2.021 . S
Co112 O124 2.137 . S
Co112 O125 2.244 . S
O113 Co112 2.216 . S
O113 C120 1.247 . S
O114 Co112 2.091 . S
O114 C120 1.261 . S
C115 O124 1.247 . S
C115 O125 1.272 . S
O116 Co112 2.004 . S
O116 C121 1.259 . S
Co117 O118 2.061 . S
Co117 O123 2.052 . S
Co117 O125 2.135 . S
O118 Co117 2.061 . S
O118 C121 1.235 . S
C119 O122 1.238 . S
C119 O123 1.241 . S
C120 O113 1.247 . S
C120 O114 1.261 . S
C121 O116 1.259 . S
C121 O118 1.235 . S
O122 Co112 2.021 . S
O122 C119 1.238 . S
O123 Co117 2.052 . S
O123 C119 1.241 . S
O124 Co112 2.137 . S
O124 C115 1.247 . S
O125 Co112 2.244 . S
O125 C115 1.272 . S
O125 Co117 2.135 . S
Co126 O127 2.216 . S
Co126 O128 2.091 . S
Co126 O130 2.004 1_455 S
Co126 O136 2.021 . S
Co126 O138 2.137 . S
Co126 O139 2.244 . S
O127 Co126 2.216 . S
O127 C134 1.247 . S
O128 Co126 2.091 . S
O128 C134 1.261 . S
C129 O138 1.247 . S
C129 O139 1.272 . S
O130 Co126 2.004 1_655 S
O130 C135 1.259 . S
Co131 O132 2.061 . S
Co131 O137 2.052 . S
Co131 O139 2.135 1_655 S
O132 Co131 2.061 . S
O132 C135 1.235 . S
C133 O136 1.238 1_655 S
C133 O137 1.241 . S
C134 O127 1.247 . S
C134 O128 1.261 . S
C135 O130 1.259 . S
C135 O132 1.235 . S
O136 Co126 2.021 . S
O136 C133 1.238 1_455 S
O137 Co131 2.052 . S
O137 C133 1.241 . S
O138 Co126 2.137 . S
O138 C129 1.247 . S
O139 Co126 2.244 . S
O139 C129 1.272 . S
O139 Co131 2.135 1_455 S
Co140 O141 2.216 . S
Co140 O142 2.091 . S
Co140 O144 2.004 . S
Co140 O150 2.021 . S
Co140 O152 2.137 . S
Co140 O153 2.244 . S
O141 Co140 2.216 . S
O141 C148 1.247 . S
O142 Co140 2.091 . S
O142 C148 1.261 . S
C143 O152 1.247 . S
C143 O153 1.272 . S
O144 Co140 2.004 . S
O144 C149 1.259 . S
Co145 O146 2.061 . S
Co145 O151 2.052 . S
Co145 O153 2.135 . S
O146 Co145 2.061 . S
O146 C149 1.235 . S
C147 O150 1.238 . S
C147 O151 1.241 . S
C148 O141 1.247 . S
C148 O142 1.261 . S
C149 O144 1.259 . S
C149 O146 1.235 . S
O150 Co140 2.021 . S
O150 C147 1.238 . S
O151 Co145 2.052 . S
O151 C147 1.241 . S
O152 Co140 2.137 . S
O152 C143 1.247 . S
O153 Co140 2.244 . S
O153 C143 1.272 . S
O153 Co145 2.135 . S
Co154 O155 2.216 . S
Co154 O156 2.091 . S
Co154 O158 2.004 . S
Co154 O164 2.021 . S
Co154 O166 2.137 1_556 S
Co154 O167 2.244 1_556 S
O155 Co154 2.216 . S
O155 C162 1.247 . S
O156 Co154 2.091 . S
O156 C162 1.261 . S
C157 O166 1.247 . S
C157 O167 1.272 . S
O158 Co154 2.004 . S
O158 C163 1.259 . S
Co159 O160 2.061 1_554 S
Co159 O165 2.052 . S
Co159 O167 2.135 . S
O160 Co159 2.061 1_556 S
O160 C163 1.235 . S
C161 O164 1.238 . S
C161 O165 1.241 1_556 S
C162 O155 1.247 . S
C162 O156 1.261 . S
C163 O158 1.259 . S
C163 O160 1.235 . S
O164 Co154 2.021 . S
O164 C161 1.238 . S
O165 Co159 2.052 . S
O165 C161 1.241 1_554 S
O166 Co154 2.137 1_554 S
O166 C157 1.247 . S
O167 Co154 2.244 1_554 S
O167 C157 1.272 . S
O167 Co159 2.135 . S
Co168 O169 2.216 . S
Co168 O170 2.091 . S
Co168 O172 2.004 . S
Co168 O178 2.021 . S
Co168 O180 2.137 . S
Co168 O181 2.244 . S
O169 Co168 2.216 . S
O169 C176 1.247 . S
O170 Co168 2.091 . S
O170 C176 1.261 . S
C171 O180 1.247 . S
C171 O181 1.272 . S
O172 Co168 2.004 . S
O172 C177 1.259 . S
Co173 O174 2.061 . S
Co173 O179 2.052 . S
Co173 O181 2.135 . S
O174 Co173 2.061 . S
O174 C177 1.235 . S
C175 O178 1.238 . S
C175 O179 1.241 . S
C176 O169 1.247 . S
C176 O170 1.261 . S
C177 O172 1.259 . S
C177 O174 1.235 . S
O178 Co168 2.021 . S
O178 C175 1.238 . S
O179 Co173 2.052 . S
O179 C175 1.241 . S
O180 Co168 2.137 . S
O180 C171 1.247 . S
O181 Co168 2.244 . S
O181 C171 1.272 . S
O181 Co173 2.135 . S
Co182 O183 2.216 . S
Co182 O184 2.091 . S
Co182 O186 2.004 . S
Co182 O192 2.021 . S
Co182 O194 2.137 . S
Co182 O195 2.244 . S
O183 Co182 2.216 . S
O183 C190 1.247 . S
O184 Co182 2.091 . S
O184 C190 1.261 . S
C185 O194 1.247 . S
C185 O195 1.272 . S
O186 Co182 2.004 . S
O186 C191 1.259 . S
Co187 O188 2.061 . S
Co187 O193 2.052 . S
Co187 O195 2.135 . S
O188 Co187 2.061 . S
O188 C191 1.235 . S
C189 O192 1.238 . S
C189 O193 1.241 . S
C190 O183 1.247 . S
C190 O184 1.261 . S
C191 O186 1.259 . S
C191 O188 1.235 . S
O192 Co182 2.021 . S
O192 C189 1.238 . S
O193 Co187 2.052 . S
O193 C189 1.241 . S
O194 Co182 2.137 . S
O194 C185 1.247 . S
O195 Co182 2.244 . S
O195 C185 1.272 . S
O195 Co187 2.135 . S
Co196 O197 2.216 . S
Co196 O198 2.091 . S
Co196 O200 2.004 . S
Co196 O206 2.021 . S
Co196 O208 2.137 . S
Co196 O209 2.244 . S
O197 Co196 2.216 . S
O197 C204 1.247 . S
O198 Co196 2.091 . S
O198 C204 1.261 . S
C199 O208 1.247 . S
C199 O209 1.272 . S
O200 Co196 2.004 . S
O200 C205 1.259 . S
Co201 O202 2.061 . S
Co201 O207 2.052 . S
Co201 O209 2.135 . S
O202 Co201 2.061 . S
O202 C205 1.235 . S
C203 O206 1.238 . S
C203 O207 1.241 . S
C204 O197 1.247 . S
C204 O198 1.261 . S
C205 O200 1.259 . S
C205 O202 1.235 . S
O206 Co196 2.021 . S
O206 C203 1.238 . S
O207 Co201 2.052 . S
O207 C203 1.241 . S
O208 Co196 2.137 . S
O208 C199 1.247 . S
O209 Co196 2.244 . S
O209 C199 1.272 . S
O209 Co201 2.135 . S
Co210 O211 2.216 . S
Co210 O212 2.091 . S
Co210 O214 2.004 1_455 S
Co210 O220 2.021 . S
Co210 O222 2.137 1_554 S
Co210 O223 2.244 1_554 S
O211 Co210 2.216 . S
O211 C218 1.247 . S
O212 Co210 2.091 . S
O212 C218 1.261 . S
C213 O222 1.247 . S
C213 O223 1.272 . S
O214 Co210 2.004 1_655 S
O214 C219 1.259 . S
Co215 O216 2.061 1_556 S
Co215 O221 2.052 . S
Co215 O223 2.135 1_655 S
O216 Co215 2.061 1_554 S
O216 C219 1.235 . S
C217 O220 1.238 1_655 S
C217 O221 1.241 1_554 S
C218 O211 1.247 . S
C218 O212 1.261 . S
C219 O214 1.259 . S
C219 O216 1.235 . S
O220 Co210 2.021 . S
O220 C217 1.238 1_455 S
O221 Co215 2.052 . S
O221 C217 1.241 1_556 S
O222 Co210 2.137 1_556 S
O222 C213 1.247 . S
O223 Co210 2.244 1_556 S
O223 C213 1.272 . S
O223 Co215 2.135 1_455 S
Co224 O225 2.216 . S
Co224 O226 2.091 . S
Co224 O228 2.004 . S
Co224 O234 2.021 . S
Co224 O236 2.137 . S
Co224 O237 2.244 . S
O225 Co224 2.216 . S
O225 C232 1.247 . S
O226 Co224 2.091 . S
O226 C232 1.261 . S
C227 O236 1.247 . S
C227 O237 1.272 . S
O228 Co224 2.004 . S
O228 C233 1.259 . S
Co229 O230 2.061 . S
Co229 O235 2.052 . S
Co229 O237 2.135 . S
O230 Co229 2.061 . S
O230 C233 1.235 . S
C231 O234 1.238 . S
C231 O235 1.241 . S
C232 O225 1.247 . S
C232 O226 1.261 . S
C233 O228 1.259 . S
C233 O230 1.235 . S
O234 Co224 2.021 . S
O234 C231 1.238 . S
O235 Co229 2.052 . S
O235 C231 1.241 . S
O236 Co224 2.137 . S
O236 C227 1.247 . S
O237 Co224 2.244 . S
O237 C227 1.272 . S
O237 Co229 2.135 . S
Co238 O239 2.216 . S
Co238 O240 2.091 . S
Co238 O242 2.004 . S
Co238 O248 2.021 . S
Co238 O250 2.137 . S
Co238 O251 2.244 . S
O239 Co238 2.216 . S
O239 C246 1.247 . S
O240 Co238 2.091 . S
O240 C246 1.261 . S
C241 O250 1.247 . S
C241 O251 1.272 . S
O242 Co238 2.004 . S
O242 C247 1.259 . S
Co243 O244 2.061 . S
Co243 O249 2.052 . S
Co243 O251 2.135 . S
O244 Co243 2.061 . S
O244 C247 1.235 . S
C245 O248 1.238 . S
C245 O249 1.241 . S
C246 O239 1.247 . S
C246 O240 1.261 . S
C247 O242 1.259 . S
C247 O244 1.235 . S
O248 Co238 2.021 . S
O248 C245 1.238 . S
O249 Co243 2.052 . S
O249 C245 1.241 . S
O250 Co238 2.137 . S
O250 C241 1.247 . S
O251 Co238 2.244 . S
O251 C241 1.272 . S
O251 Co243 2.135 . S
Co252 O253 2.216 . S
Co252 O254 2.091 . S
Co252 O256 2.004 1_554 S
Co252 O262 2.021 . S
Co252 O264 2.137 . S
Co252 O265 2.244 . S
O253 Co252 2.216 . S
O253 C260 1.247 . S
O254 Co252 2.091 . S
O254 C260 1.261 . S
C255 O264 1.247 . S
C255 O265 1.272 . S
O256 Co252 2.004 1_556 S
O256 C261 1.259 . S
Co257 O258 2.061 . S
Co257 O263 2.052 . S
Co257 O265 2.135 1_556 S
O258 Co257 2.061 . S
O258 C261 1.235 . S
C259 O262 1.238 1_556 S
C259 O263 1.241 . S
C260 O253 1.247 . S
C260 O254 1.261 . S
C261 O256 1.259 . S
C261 O258 1.235 . S
O262 Co252 2.021 . S
O262 C259 1.238 1_554 S
O263 Co257 2.052 . S
O263 C259 1.241 . S
O264 Co252 2.137 . S
O264 C255 1.247 . S
O265 Co252 2.244 . S
O265 C255 1.272 . S
O265 Co257 2.135 1_554 S
Co266 O267 2.216 . S
Co266 O268 2.091 . S
Co266 O270 2.004 . S
Co266 O276 2.021 . S
Co266 O278 2.137 . S
Co266 O279 2.244 . S
O267 Co266 2.216 . S
O267 C274 1.247 . S
O268 Co266 2.091 . S
O268 C274 1.261 . S
C269 O278 1.247 . S
C269 O279 1.272 . S
O270 Co266 2.004 . S
O270 C275 1.259 . S
Co271 O272 2.061 . S
Co271 O277 2.052 . S
Co271 O279 2.135 . S
O272 Co271 2.061 . S
O272 C275 1.235 . S
C273 O276 1.238 . S
C273 O277 1.241 . S
C274 O267 1.247 . S
C274 O268 1.261 . S
C275 O270 1.259 . S
C275 O272 1.235 . S
O276 Co266 2.021 . S
O276 C273 1.238 . S
O277 Co271 2.052 . S
O277 C273 1.241 . S
O278 Co266 2.137 . S
O278 C269 1.247 . S
O279 Co266 2.244 . S
O279 C269 1.272 . S
O279 Co271 2.135 . S
Co280 O281 2.216 . S
Co280 O282 2.091 . S
Co280 O284 2.004 1_554 S
Co280 O290 2.021 . S
Co280 O292 2.137 1_545 S
Co280 O293 2.244 1_545 S
O281 Co280 2.216 . S
O281 C288 1.247 . S
O282 Co280 2.091 . S
O282 C288 1.261 . S
C283 O292 1.247 . S
C283 O293 1.272 . S
O284 Co280 2.004 1_556 S
O284 C289 1.259 . S
Co285 O286 2.061 1_565 S
Co285 O291 2.052 . S
Co285 O293 2.135 1_556 S
O286 Co285 2.061 1_545 S
O286 C289 1.235 . S
C287 O290 1.238 1_556 S
C287 O291 1.241 1_545 S
C288 O281 1.247 . S
C288 O282 1.261 . S
C289 O284 1.259 . S
C289 O286 1.235 . S
O290 Co280 2.021 . S
O290 C287 1.238 1_554 S
O291 Co285 2.052 . S
O291 C287 1.241 1_565 S
O292 Co280 2.137 1_565 S
O292 C283 1.247 . S
O293 Co280 2.244 1_565 S
O293 C283 1.272 . S
O293 Co285 2.135 1_554 S
Co294 O295 2.216 . S
Co294 O296 2.091 . S
Co294 O298 2.004 . S
Co294 O304 2.021 . S
Co294 O306 2.137 . S
Co294 O307 2.244 . S
O295 Co294 2.216 . S
O295 C302 1.247 . S
O296 Co294 2.091 . S
O296 C302 1.261 . S
C297 O306 1.247 . S
C297 O307 1.272 . S
O298 Co294 2.004 . S
O298 C303 1.259 . S
Co299 O300 2.061 . S
Co299 O305 2.052 . S
Co299 O307 2.135 . S
O300 Co299 2.061 . S
O300 C303 1.235 . S
C301 O304 1.238 . S
C301 O305 1.241 . S
C302 O295 1.247 . S
C302 O296 1.261 . S
C303 O298 1.259 . S
C303 O300 1.235 . S
O304 Co294 2.021 . S
O304 C301 1.238 . S
O305 Co299 2.052 . S
O305 C301 1.241 . S
O306 Co294 2.137 . S
O306 C297 1.247 . S
O307 Co294 2.244 . S
O307 C297 1.272 . S
O307 Co299 2.135 . S
Co308 O309 2.216 . S
Co308 O310 2.091 . S
Co308 O312 2.004 . S
Co308 O318 2.021 . S
Co308 O320 2.137 . S
Co308 O321 2.244 . S
O309 Co308 2.216 . S
O309 C316 1.247 . S
O310 Co308 2.091 . S
O310 C316 1.261 . S
C311 O320 1.247 . S
C311 O321 1.272 . S
O312 Co308 2.004 . S
O312 C317 1.259 . S
Co313 O314 2.061 . S
Co313 O319 2.052 . S
Co313 O321 2.135 . S
O314 Co313 2.061 . S
O314 C317 1.235 . S
C315 O318 1.238 . S
C315 O319 1.241 . S
C316 O309 1.247 . S
C316 O310 1.261 . S
C317 O312 1.259 . S
C317 O314 1.235 . S
O318 Co308 2.021 . S
O318 C315 1.238 . S
O319 Co313 2.052 . S
O319 C315 1.241 . S
O320 Co308 2.137 . S
O320 C311 1.247 . S
O321 Co308 2.244 . S
O321 C311 1.272 . S
O321 Co313 2.135 . S
Co322 O323 2.216 . S
Co322 O324 2.091 . S
Co322 O326 2.004 1_556 S
Co322 O332 2.021 . S
Co322 O334 2.137 . S
Co322 O335 2.244 . S
O323 Co322 2.216 . S
O323 C330 1.247 . S
O324 Co322 2.091 . S
O324 C330 1.261 . S
C325 O334 1.247 . S
C325 O335 1.272 . S
O326 Co322 2.004 1_554 S
O326 C331 1.259 . S
Co327 O328 2.061 . S
Co327 O333 2.052 . S
Co327 O335 2.135 1_554 S
O328 Co327 2.061 . S
O328 C331 1.235 . S
C329 O332 1.238 1_554 S
C329 O333 1.241 . S
C330 O323 1.247 . S
C330 O324 1.261 . S
C331 O326 1.259 . S
C331 O328 1.235 . S
O332 Co322 2.021 . S
O332 C329 1.238 1_556 S
O333 Co327 2.052 . S
O333 C329 1.241 . S
O334 Co322 2.137 . S
O334 C325 1.247 . S
O335 Co322 2.244 . S
O335 C325 1.272 . S
O335 Co327 2.135 1_556 S
Co336 O337 2.216 . S
Co336 O338 2.091 . S
Co336 O340 2.004 . S
Co336 O346 2.021 . S
Co336 O348 2.137 . S
Co336 O349 2.244 . S
O337 Co336 2.216 . S
O337 C344 1.247 . S
O338 Co336 2.091 . S
O338 C344 1.261 . S
C339 O348 1.247 . S
C339 O349 1.272 . S
O340 Co336 2.004 . S
O340 C345 1.259 . S
Co341 O342 2.061 . S
Co341 O347 2.052 . S
Co341 O349 2.135 . S
O342 Co341 2.061 . S
O342 C345 1.235 . S
C343 O346 1.238 . S
C343 O347 1.241 . S
C344 O337 1.247 . S
C344 O338 1.261 . S
C345 O340 1.259 . S
C345 O342 1.235 . S
O346 Co336 2.021 . S
O346 C343 1.238 . S
O347 Co341 2.052 . S
O347 C343 1.241 . S
O348 Co336 2.137 . S
O348 C339 1.247 . S
O349 Co336 2.244 . S
O349 C339 1.272 . S
O349 Co341 2.135 . S
Co350 O351 2.216 . S
Co350 O352 2.091 . S
Co350 O354 2.004 . S
Co350 O360 2.021 . S
Co350 O362 2.137 . S
Co350 O363 2.244 . S
O351 Co350 2.216 . S
O351 C358 1.247 . S
O352 Co350 2.091 . S
O352 C358 1.261 . S
C353 O362 1.247 . S
C353 O363 1.272 . S
O354 Co350 2.004 . S
O354 C359 1.259 . S
Co355 O356 2.061 . S
Co355 O361 2.052 . S
Co355 O363 2.135 . S
O356 Co355 2.061 . S
O356 C359 1.235 . S
C357 O360 1.238 . S
C357 O361 1.241 . S
C358 O351 1.247 . S
C358 O352 1.261 . S
C359 O354 1.259 . S
C359 O356 1.235 . S
O360 Co350 2.021 . S
O360 C357 1.238 . S
O361 Co355 2.052 . S
O361 C357 1.241 . S
O362 Co350 2.137 . S
O362 C353 1.247 . S
O363 Co350 2.244 . S
O363 C353 1.272 . S
O363 Co355 2.135 . S
Co364 O365 2.216 . S
Co364 O366 2.091 . S
Co364 O368 2.004 . S
Co364 O374 2.021 . S
Co364 O376 2.137 . S
Co364 O377 2.244 . S
O365 Co364 2.216 . S
O365 C372 1.247 . S
O366 Co364 2.091 . S
O366 C372 1.261 . S
C367 O376 1.247 . S
C367 O377 1.272 . S
O368 Co364 2.004 . S
O368 C373 1.259 . S
Co369 O370 2.061 . S
Co369 O375 2.052 . S
Co369 O377 2.135 . S
O370 Co369 2.061 . S
O370 C373 1.235 . S
C371 O374 1.238 . S
C371 O375 1.241 . S
C372 O365 1.247 . S
C372 O366 1.261 . S
C373 O368 1.259 . S
C373 O370 1.235 . S
O374 Co364 2.021 . S
O374 C371 1.238 . S
O375 Co369 2.052 . S
O375 C371 1.241 . S
O376 Co364 2.137 . S
O376 C367 1.247 . S
O377 Co364 2.244 . S
O377 C367 1.272 . S
O377 Co369 2.135 . S
Co378 O379 2.216 . S
Co378 O380 2.091 . S
Co378 O382 2.004 . S
Co378 O388 2.021 . S
Co378 O390 2.137 1_655 S
Co378 O391 2.244 1_655 S
O379 Co378 2.216 . S
O379 C386 1.247 . S
O380 Co378 2.091 . S
O380 C386 1.261 . S
C381 O390 1.247 . S
C381 O391 1.272 . S
O382 Co378 2.004 . S
O382 C387 1.259 . S
Co383 O384 2.061 1_455 S
Co383 O389 2.052 . S
Co383 O391 2.135 . S
O384 Co383 2.061 1_655 S
O384 C387 1.235 . S
C385 O388 1.238 . S
C385 O389 1.241 1_655 S
C386 O379 1.247 . S
C386 O380 1.261 . S
C387 O382 1.259 . S
C387 O384 1.235 . S
O388 Co378 2.021 . S
O388 C385 1.238 . S
O389 Co383 2.052 . S
O389 C385 1.241 1_455 S
O390 Co378 2.137 1_455 S
O390 C381 1.247 . S
O391 Co378 2.244 1_455 S
O391 C381 1.272 . S
O391 Co383 2.135 . S
Co392 O393 2.216 . S
Co392 O394 2.091 . S
Co392 O396 2.004 . S
Co392 O402 2.021 . S
Co392 O404 2.137 . S
Co392 O405 2.244 . S
O393 Co392 2.216 . S
O393 C400 1.247 . S
O394 Co392 2.091 . S
O394 C400 1.261 . S
C395 O404 1.247 . S
C395 O405 1.272 . S
O396 Co392 2.004 . S
O396 C401 1.259 . S
Co397 O398 2.061 . S
Co397 O403 2.052 . S
Co397 O405 2.135 . S
O398 Co397 2.061 . S
O398 C401 1.235 . S
C399 O402 1.238 . S
C399 O403 1.241 . S
C400 O393 1.247 . S
C400 O394 1.261 . S
C401 O396 1.259 . S
C401 O398 1.235 . S
O402 Co392 2.021 . S
O402 C399 1.238 . S
O403 Co397 2.052 . S
O403 C399 1.241 . S
O404 Co392 2.137 . S
O404 C395 1.247 . S
O405 Co392 2.244 . S
O405 C395 1.272 . S
O405 Co397 2.135 . S
Co406 O407 2.216 . S
Co406 O408 2.091 . S
Co406 O410 2.004 . S
Co406 O416 2.021 . S
Co406 O418 2.137 1_655 S
Co406 O419 2.244 1_655 S
O407 Co406 2.216 . S
O407 C414 1.247 . S
O408 Co406 2.091 . S
O408 C414 1.261 . S
C409 O418 1.247 . S
C409 O419 1.272 . S
O410 Co406 2.004 . S
O410 C415 1.259 . S
Co411 O412 2.061 1_455 S
Co411 O417 2.052 . S
Co411 O419 2.135 . S
O412 Co411 2.061 1_655 S
O412 C415 1.235 . S
C413 O416 1.238 . S
C413 O417 1.241 1_655 S
C414 O407 1.247 . S
C414 O408 1.261 . S
C415 O410 1.259 . S
C415 O412 1.235 . S
O416 Co406 2.021 . S
O416 C413 1.238 . S
O417 Co411 2.052 . S
O417 C413 1.241 1_455 S
O418 Co406 2.137 1_455 S
O418 C409 1.247 . S
O419 Co406 2.244 1_455 S
O419 C409 1.272 . S
O419 Co411 2.135 . S
Co420 O421 2.216 . S
Co420 O422 2.091 . S
Co420 O424 2.004 . S
Co420 O430 2.021 . S
Co420 O432 2.137 . S
Co420 O433 2.244 . S
O421 Co420 2.216 . S
O421 C428 1.247 . S
O422 Co420 2.091 . S
O422 C428 1.261 . S
C423 O432 1.247 . S
C423 O433 1.272 . S
O424 Co420 2.004 . S
O424 C429 1.259 . S
Co425 O426 2.061 . S
Co425 O431 2.052 . S
Co425 O433 2.135 . S
O426 Co425 2.061 . S
O426 C429 1.235 . S
C427 O430 1.238 . S
C427 O431 1.241 . S
C428 O421 1.247 . S
C428 O422 1.261 . S
C429 O424 1.259 . S
C429 O426 1.235 . S
O430 Co420 2.021 . S
O430 C427 1.238 . S
O431 Co425 2.052 . S
O431 C427 1.241 . S
O432 Co420 2.137 . S
O432 C423 1.247 . S
O433 Co420 2.244 . S
O433 C423 1.272 . S
O433 Co425 2.135 . S
Co434 O435 2.216 . S
Co434 O436 2.091 . S
Co434 O438 2.004 . S
Co434 O444 2.021 . S
Co434 O446 2.137 . S
Co434 O447 2.244 . S
O435 Co434 2.216 . S
O435 C442 1.247 . S
O436 Co434 2.091 . S
O436 C442 1.261 . S
C437 O446 1.247 . S
C437 O447 1.272 . S
O438 Co434 2.004 . S
O438 C443 1.259 . S
Co439 O440 2.061 . S
Co439 O445 2.052 . S
Co439 O447 2.135 . S
O440 Co439 2.061 . S
O440 C443 1.235 . S
C441 O444 1.238 . S
C441 O445 1.241 . S
C442 O435 1.247 . S
C442 O436 1.261 . S
C443 O438 1.259 . S
C443 O440 1.235 . S
O444 Co434 2.021 . S
O444 C441 1.238 . S
O445 Co439 2.052 . S
O445 C441 1.241 . S
O446 Co434 2.137 . S
O446 C437 1.247 . S
O447 Co434 2.244 . S
O447 C437 1.272 . S
O447 Co439 2.135 . S
Co448 O449 2.216 . S
Co448 O450 2.091 . S
Co448 O452 2.004 . S
Co448 O458 2.021 . S
Co448 O460 2.137 . S
Co448 O461 2.244 . S
O449 Co448 2.216 . S
O449 C456 1.247 . S
O450 Co448 2.091 . S
O450 C456 1.261 . S
C451 O460 1.247 . S
C451 O461 1.272 . S
O452 Co448 2.004 . S
O452 C457 1.259 . S
Co453 O454 2.061 . S
Co453 O459 2.052 . S
Co453 O461 2.135 . S
O454 Co453 2.061 . S
O454 C457 1.235 . S
C455 O458 1.238 . S
C455 O459 1.241 . S
C456 O449 1.247 . S
C456 O450 1.261 . S
C457 O452 1.259 . S
C457 O454 1.235 . S
O458 Co448 2.021 . S
O458 C455 1.238 . S
O459 Co453 2.052 . S
O459 C455 1.241 . S
O460 Co448 2.137 . S
O460 C451 1.247 . S
O461 Co448 2.244 . S
O461 C451 1.272 . S
O461 Co453 2.135 . S
Co462 O463 2.216 . S
Co462 O464 2.091 . S
Co462 O466 2.004 . S
Co462 O472 2.021 . S
Co462 O474 2.137 1_556 S
Co462 O475 2.244 1_556 S
O463 Co462 2.216 . S
O463 C470 1.247 . S
O464 Co462 2.091 . S
O464 C470 1.261 . S
C465 O474 1.247 . S
C465 O475 1.272 . S
O466 Co462 2.004 . S
O466 C471 1.259 . S
Co467 O468 2.061 1_554 S
Co467 O473 2.052 . S
Co467 O475 2.135 . S
O468 Co467 2.061 1_556 S
O468 C471 1.235 . S
C469 O472 1.238 . S
C469 O473 1.241 1_556 S
C470 O463 1.247 . S
C470 O464 1.261 . S
C471 O466 1.259 . S
C471 O468 1.235 . S
O472 Co462 2.021 . S
O472 C469 1.238 . S
O473 Co467 2.052 . S
O473 C469 1.241 1_554 S
O474 Co462 2.137 1_554 S
O474 C465 1.247 . S
O475 Co462 2.244 1_554 S
O475 C465 1.272 . S
O475 Co467 2.135 . S
Co476 O477 2.216 . S
Co476 O478 2.091 . S
Co476 O480 2.004 . S
Co476 O486 2.021 . S
Co476 O488 2.137 . S
Co476 O489 2.244 . S
O477 Co476 2.216 . S
O477 C484 1.247 . S
O478 Co476 2.091 . S
O478 C484 1.261 . S
C479 O488 1.247 . S
C479 O489 1.272 . S
O480 Co476 2.004 . S
O480 C485 1.259 . S
Co481 O482 2.061 . S
Co481 O487 2.052 . S
Co481 O489 2.135 . S
O482 Co481 2.061 . S
O482 C485 1.235 . S
C483 O486 1.238 . S
C483 O487 1.241 . S
C484 O477 1.247 . S
C484 O478 1.261 . S
C485 O480 1.259 . S
C485 O482 1.235 . S
O486 Co476 2.021 . S
O486 C483 1.238 . S
O487 Co481 2.052 . S
O487 C483 1.241 . S
O488 Co476 2.137 . S
O488 C479 1.247 . S
O489 Co476 2.244 . S
O489 C479 1.272 . S
O489 Co481 2.135 . S
Co490 O491 2.216 . S
Co490 O492 2.091 . S
Co490 O494 2.004 1_655 S
Co490 O500 2.021 . S
Co490 O502 2.137 . S
Co490 O503 2.244 . S
O491 Co490 2.216 . S
O491 C498 1.247 . S
O492 Co490 2.091 . S
O492 C498 1.261 . S
C493 O502 1.247 . S
C493 O503 1.272 . S
O494 Co490 2.004 1_455 S
O494 C499 1.259 . S
Co495 O496 2.061 . S
Co495 O501 2.052 . S
Co495 O503 2.135 1_455 S
O496 Co495 2.061 . S
O496 C499 1.235 . S
C497 O500 1.238 1_455 S
C497 O501 1.241 . S
C498 O491 1.247 . S
C498 O492 1.261 . S
C499 O494 1.259 . S
C499 O496 1.235 . S
O500 Co490 2.021 . S
O500 C497 1.238 1_655 S
O501 Co495 2.052 . S
O501 C497 1.241 . S
O502 Co490 2.137 . S
O502 C493 1.247 . S
O503 Co490 2.244 . S
O503 C493 1.272 . S
O503 Co495 2.135 1_655 S
Co504 O505 2.216 . S
Co504 O506 2.091 . S
Co504 O508 2.004 . S
Co504 O514 2.021 . S
Co504 O516 2.137 . S
Co504 O517 2.244 . S
O505 Co504 2.216 . S
O505 C512 1.247 . S
O506 Co504 2.091 . S
O506 C512 1.261 . S
C507 O516 1.247 . S
C507 O517 1.272 . S
O508 Co504 2.004 . S
O508 C513 1.259 . S
Co509 O510 2.061 . S
Co509 O515 2.052 . S
Co509 O517 2.135 . S
O510 Co509 2.061 . S
O510 C513 1.235 . S
C511 O514 1.238 . S
C511 O515 1.241 . S
C512 O505 1.247 . S
C512 O506 1.261 . S
C513 O508 1.259 . S
C513 O510 1.235 . S
O514 Co504 2.021 . S
O514 C511 1.238 . S
O515 Co509 2.052 . S
O515 C511 1.241 . S
O516 Co504 2.137 . S
O516 C507 1.247 . S
O517 Co504 2.244 . S
O517 C507 1.272 . S
O517 Co509 2.135 . S
Co518 O519 2.216 . S
Co518 O520 2.091 . S
Co518 O522 2.004 1_655 S
Co518 O528 2.021 . S
Co518 O530 2.137 1_554 S
Co518 O531 2.244 1_554 S
O519 Co518 2.216 . S
O519 C526 1.247 . S
O520 Co518 2.091 . S
O520 C526 1.261 . S
C521 O530 1.247 . S
C521 O531 1.272 . S
O522 Co518 2.004 1_455 S
O522 C527 1.259 . S
Co523 O524 2.061 1_556 S
Co523 O529 2.052 . S
Co523 O531 2.135 1_455 S
O524 Co523 2.061 1_554 S
O524 C527 1.235 . S
C525 O528 1.238 1_455 S
C525 O529 1.241 1_554 S
C526 O519 1.247 . S
C526 O520 1.261 . S
C527 O522 1.259 . S
C527 O524 1.235 . S
O528 Co518 2.021 . S
O528 C525 1.238 1_655 S
O529 Co523 2.052 . S
O529 C525 1.241 1_556 S
O530 Co518 2.137 1_556 S
O530 C521 1.247 . S
O531 Co518 2.244 1_556 S
O531 C521 1.272 . S
O531 Co523 2.135 1_655 S
Co532 O533 2.216 . S
Co532 O534 2.091 . S
Co532 O536 2.004 . S
Co532 O542 2.021 . S
Co532 O544 2.137 . S
Co532 O545 2.244 . S
O533 Co532 2.216 . S
O533 C540 1.247 . S
O534 Co532 2.091 . S
O534 C540 1.261 . S
C535 O544 1.247 . S
C535 O545 1.272 . S
O536 Co532 2.004 . S
O536 C541 1.259 . S
Co537 O538 2.061 . S
Co537 O543 2.052 . S
Co537 O545 2.135 . S
O538 Co537 2.061 . S
O538 C541 1.235 . S
C539 O542 1.238 . S
C539 O543 1.241 . S
C540 O533 1.247 . S
C540 O534 1.261 . S
C541 O536 1.259 . S
C541 O538 1.235 . S
O542 Co532 2.021 . S
O542 C539 1.238 . S
O543 Co537 2.052 . S
O543 C539 1.241 . S
O544 Co532 2.137 . S
O544 C535 1.247 . S
O545 Co532 2.244 . S
O545 C535 1.272 . S
O545 Co537 2.135 . S
Co546 O547 2.216 . S
Co546 O548 2.091 . S
Co546 O550 2.004 . S
Co546 O556 2.021 . S
Co546 O558 2.137 . S
Co546 O559 2.244 . S
O547 Co546 2.216 . S
O547 C554 1.247 . S
O548 Co546 2.091 . S
O548 C554 1.261 . S
C549 O558 1.247 . S
C549 O559 1.272 . S
O550 Co546 2.004 . S
O550 C555 1.259 . S
Co551 O552 2.061 . S
Co551 O557 2.052 . S
Co551 O559 2.135 . S
O552 Co551 2.061 . S
O552 C555 1.235 . S
C553 O556 1.238 . S
C553 O557 1.241 . S
C554 O547 1.247 . S
C554 O548 1.261 . S
C555 O550 1.259 . S
C555 O552 1.235 . S
O556 Co546 2.021 . S
O556 C553 1.238 . S
O557 Co551 2.052 . S
O557 C553 1.241 . S
O558 Co546 2.137 . S
O558 C549 1.247 . S
O559 Co546 2.244 . S
O559 C549 1.272 . S
O559 Co551 2.135 . S
Co560 O561 2.216 . S
Co560 O562 2.091 . S
Co560 O564 2.004 . S
Co560 O570 2.021 . S
Co560 O572 2.137 . S
Co560 O573 2.244 . S
O561 Co560 2.216 . S
O561 C568 1.247 . S
O562 Co560 2.091 . S
O562 C568 1.261 . S
C563 O572 1.247 . S
C563 O573 1.272 . S
O564 Co560 2.004 . S
O564 C569 1.259 . S
Co565 O566 2.061 . S
Co565 O571 2.052 . S
Co565 O573 2.135 . S
O566 Co565 2.061 . S
O566 C569 1.235 . S
C567 O570 1.238 . S
C567 O571 1.241 . S
C568 O561 1.247 . S
C568 O562 1.261 . S
C569 O564 1.259 . S
C569 O566 1.235 . S
O570 Co560 2.021 . S
O570 C567 1.238 . S
O571 Co565 2.052 . S
O571 C567 1.241 . S
O572 Co560 2.137 . S
O572 C563 1.247 . S
O573 Co560 2.244 . S
O573 C563 1.272 . S
O573 Co565 2.135 . S
Co574 O575 2.216 . S
Co574 O576 2.091 . S
Co574 O578 2.004 . S
Co574 O584 2.021 . S
Co574 O586 2.137 . S
Co574 O587 2.244 . S
O575 Co574 2.216 . S
O575 C582 1.247 . S
O576 Co574 2.091 . S
O576 C582 1.261 . S
C577 O586 1.247 . S
C577 O587 1.272 . S
O578 Co574 2.004 . S
O578 C583 1.259 . S
Co579 O580 2.061 . S
Co579 O585 2.052 . S
Co579 O587 2.135 . S
O580 Co579 2.061 . S
O580 C583 1.235 . S
C581 O584 1.238 . S
C581 O585 1.241 . S
C582 O575 1.247 . S
C582 O576 1.261 . S
C583 O578 1.259 . S
C583 O580 1.235 . S
O584 Co574 2.021 . S
O584 C581 1.238 . S
O585 Co579 2.052 . S
O585 C581 1.241 . S
O586 Co574 2.137 . S
O586 C577 1.247 . S
O587 Co574 2.244 . S
O587 C577 1.272 . S
O587 Co579 2.135 . S
Co588 O589 2.216 . S
Co588 O590 2.091 . S
Co588 O592 2.004 . S
Co588 O598 2.021 . S
Co588 O600 2.137 1_565 S
Co588 O601 2.244 1_565 S
O589 Co588 2.216 . S
O589 C596 1.247 . S
O590 Co588 2.091 . S
O590 C596 1.261 . S
C591 O600 1.247 . S
C591 O601 1.272 . S
O592 Co588 2.004 . S
O592 C597 1.259 . S
Co593 O594 2.061 1_545 S
Co593 O599 2.052 . S
Co593 O601 2.135 . S
O594 Co593 2.061 1_565 S
O594 C597 1.235 . S
C595 O598 1.238 . S
C595 O599 1.241 1_565 S
C596 O589 1.247 . S
C596 O590 1.261 . S
C597 O592 1.259 . S
C597 O594 1.235 . S
O598 Co588 2.021 . S
O598 C595 1.238 . S
O599 Co593 2.052 . S
O599 C595 1.241 1_545 S
O600 Co588 2.137 1_545 S
O600 C591 1.247 . S
O601 Co588 2.244 1_545 S
O601 C591 1.272 . S
O601 Co593 2.135 . S
Co602 O603 2.216 . S
Co602 O604 2.091 . S
Co602 O606 2.004 . S
Co602 O612 2.021 . S
Co602 O614 2.137 . S
Co602 O615 2.244 . S
O603 Co602 2.216 . S
O603 C610 1.247 . S
O604 Co602 2.091 . S
O604 C610 1.261 . S
C605 O614 1.247 . S
C605 O615 1.272 . S
O606 Co602 2.004 . S
O606 C611 1.259 . S
Co607 O608 2.061 . S
Co607 O613 2.052 . S
Co607 O615 2.135 . S
O608 Co607 2.061 . S
O608 C611 1.235 . S
C609 O612 1.238 . S
C609 O613 1.241 . S
C610 O603 1.247 . S
C610 O604 1.261 . S
C611 O606 1.259 . S
C611 O608 1.235 . S
O612 Co602 2.021 . S
O612 C609 1.238 . S
O613 Co607 2.052 . S
O613 C609 1.241 . S
O614 Co602 2.137 . S
O614 C605 1.247 . S
O615 Co602 2.244 . S
O615 C605 1.272 . S
O615 Co607 2.135 . S
Co616 O617 2.216 . S
Co616 O618 2.091 . S
Co616 O620 2.004 . S
Co616 O626 2.021 . S
Co616 O628 2.137 . S
Co616 O629 2.244 . S
O617 Co616 2.216 . S
O617 C624 1.247 . S
O618 Co616 2.091 . S
O618 C624 1.261 . S
C619 O628 1.247 . S
C619 O629 1.272 . S
O620 Co616 2.004 . S
O620 C625 1.259 . S
Co621 O622 2.061 . S
Co621 O627 2.052 . S
Co621 O629 2.135 . S
O622 Co621 2.061 . S
O622 C625 1.235 . S
C623 O626 1.238 . S
C623 O627 1.241 . S
C624 O617 1.247 . S
C624 O618 1.261 . S
C625 O620 1.259 . S
C625 O622 1.235 . S
O626 Co616 2.021 . S
O626 C623 1.238 . S
O627 Co621 2.052 . S
O627 C623 1.241 . S
O628 Co616 2.137 . S
O628 C619 1.247 . S
O629 Co616 2.244 . S
O629 C619 1.272 . S
O629 Co621 2.135 . S
Co630 O631 2.216 . S
Co630 O632 2.091 . S
Co630 O634 2.004 . S
Co630 O640 2.021 . S
Co630 O642 2.137 . S
Co630 O643 2.244 . S
O631 Co630 2.216 . S
O631 C638 1.247 . S
O632 Co630 2.091 . S
O632 C638 1.261 . S
C633 O642 1.247 . S
C633 O643 1.272 . S
O634 Co630 2.004 . S
O634 C639 1.259 . S
Co635 O636 2.061 . S
Co635 O641 2.052 . S
Co635 O643 2.135 . S
O636 Co635 2.061 . S
O636 C639 1.235 . S
C637 O640 1.238 . S
C637 O641 1.241 . S
C638 O631 1.247 . S
C638 O632 1.261 . S
C639 O634 1.259 . S
C639 O636 1.235 . S
O640 Co630 2.021 . S
O640 C637 1.238 . S
O641 Co635 2.052 . S
O641 C637 1.241 . S
O642 Co630 2.137 . S
O642 C633 1.247 . S
O643 Co630 2.244 . S
O643 C633 1.272 . S
O643 Co635 2.135 . S
Co644 O645 2.216 . S
Co644 O646 2.091 . S
Co644 O648 2.004 1_556 S
Co644 O654 2.021 . S
Co644 O656 2.137 1_545 S
Co644 O657 2.244 1_545 S
O645 Co644 2.216 . S
O645 C652 1.247 . S
O646 Co644 2.091 . S
O646 C652 1.261 . S
C647 O656 1.247 . S
C647 O657 1.272 . S
O648 Co644 2.004 1_554 S
O648 C653 1.259 . S
Co649 O650 2.061 1_565 S
Co649 O655 2.052 . S
Co649 O657 2.135 1_554 S
O650 Co649 2.061 1_545 S
O650 C653 1.235 . S
C651 O654 1.238 1_554 S
C651 O655 1.241 1_545 S
C652 O645 1.247 . S
C652 O646 1.261 . S
C653 O648 1.259 . S
C653 O650 1.235 . S
O654 Co644 2.021 . S
O654 C651 1.238 1_556 S
O655 Co649 2.052 . S
O655 C651 1.241 1_565 S
O656 Co644 2.137 1_565 S
O656 C647 1.247 . S
O657 Co644 2.244 1_565 S
O657 C647 1.272 . S
O657 Co649 2.135 1_556 S
Co658 O659 2.216 . S
Co658 O660 2.091 . S
Co658 O662 2.004 . S
Co658 O668 2.021 . S
Co658 O670 2.137 1_565 S
Co658 O671 2.244 1_565 S
O659 Co658 2.216 . S
O659 C666 1.247 . S
O660 Co658 2.091 . S
O660 C666 1.261 . S
C661 O670 1.247 . S
C661 O671 1.272 . S
O662 Co658 2.004 . S
O662 C667 1.259 . S
Co663 O664 2.061 1_545 S
Co663 O669 2.052 . S
Co663 O671 2.135 . S
O664 Co663 2.061 1_565 S
O664 C667 1.235 . S
C665 O668 1.238 . S
C665 O669 1.241 1_565 S
C666 O659 1.247 . S
C666 O660 1.261 . S
C667 O662 1.259 . S
C667 O664 1.235 . S
O668 Co658 2.021 . S
O668 C665 1.238 . S
O669 Co663 2.052 . S
O669 C665 1.241 1_545 S
O670 Co658 2.137 1_545 S
O670 C661 1.247 . S
O671 Co658 2.244 1_545 S
O671 C661 1.272 . S
O671 Co663 2.135 . S
C91 C7 1.823 . S
C21 C105 1.823 1_545 S
C35 C63 1.824 1_556 S
C77 C49 1.824 1_545 S
C483 C119 1.823 . S
C497 C133 1.824 1_455 S
C147 C455 1.823 1_455 S
C161 C469 1.824 . S
C539 C175 1.824 . S
C553 C189 1.823 . S
C511 C203 1.824 1_655 S
C525 C217 1.823 1_455 S
C231 C581 1.823 . S
C245 C567 1.823 1_545 S
C259 C329 1.824 1_556 S
C637 C273 1.824 1_545 S
C651 C287 1.823 1_554 S
C609 C301 1.824 . S
C623 C315 1.823 . S
C427 C343 1.823 1_554 S
C441 C357 1.823 . S
C371 C399 1.824 . S
C385 C413 1.824 . S
C665 C595 1.824 . S
C233 C3 1.337 . S
C17 C667 1.337 . S
C31 C303 1.337 . S
C653 C45 1.337 . S
C59 C583 1.336 . S
C597 C73 1.337 . S
C87 C611 1.337 . S
C289 C101 1.337 . S
C115 C9 1.337 . S
C23 C129 1.337 . S
C143 C37 1.337 . S
C157 C51 1.337 . S
C171 C65 1.337 . S
C79 C185 1.337 . S
C199 C93 1.336 . S
C213 C107 1.337 . S
C227 C121 1.337 . S
C241 C513 1.337 . S
C527 C255 1.337 . S
C541 C269 1.337 . S
C283 C219 1.337 . S
C297 C149 1.336 . S
C499 C311 1.337 . S
C471 C325 1.337 . S
C339 C569 1.336 . S
C353 C331 1.337 . S
C367 C639 1.337 . S
C381 C317 1.336 . S
C395 C247 1.336 . S
C261 C409 1.337 . S
C275 C423 1.337 . S
C625 C437 1.336 . S
C345 C451 1.336 . S
C359 C465 1.336 . S
C479 C373 1.337 . S
C387 C493 1.337 . S
C507 C401 1.337 . S
C415 C521 1.337 . S
C535 C429 1.336 . S
C443 C549 1.336 . S
C563 C457 1.336 . S
C577 C177 1.337 . S
C191 C591 1.336 . S
C605 C205 1.337 . S
C619 C555 1.336 . S
C485 C633 1.336 . S
C647 C163 1.337 . S
C135 C661 1.337 . S
C134 C8 0.935 . S
C22 C148 0.935 . S
C162 C36 0.935 . S
C120 C50 0.935 . S
C64 C218 0.934 . S
C78 C176 0.935 . S
C190 C92 0.935 . S
C204 C106 0.934 . S
C232 C260 0.935 . S
C246 C652 0.935 . S
C274 C666 0.935 . S
C638 C288 0.934 . S
C624 C302 0.935 . S
C582 C316 0.935 . S
C330 C610 0.935 . S
C470 C344 0.935 . S
C484 C358 0.935 . S
C372 C498 0.935 . S
C456 C386 0.935 . S
C554 C400 0.935 . S
C512 C414 0.935 . S
C428 C526 0.935 . S
C540 C442 0.935 . S
C596 C568 0.935 . S
