# Generated by pormake.
# Topology ske, (6)-cn, num edge types: 1
# Building blocks:
#     Node 0, Type 0, BuildingBlock: BETDEL_clean_sbu_0, # of connection points: 6
#     Node 1, Type 0, BuildingBlock: BETDEL_clean_sbu_0, # of connection points: 6
#     Node 2, Type 0, BuildingBlock: BETDEL_clean_sbu_0, # of connection points: 6
#     Node 3, Type 0, BuildingBlock: BETDEL_clean_sbu_0, # of connection points: 6
#     Node 4, Type 0, BuildingBlock: BETDEL_clean_sbu_0, # of connection points: 6
#     Node 5, Type 0, BuildingBlock: BETDEL_clean_sbu_0, # of connection points: 6
#     Node 6, Type 0, BuildingBlock: BETDEL_clean_sbu_0, # of connection points: 6
#     Node 7, Type 0, BuildingBlock: BETDEL_clean_sbu_0, # of connection points: 6
#     Edge 8, Type (0, 0), BuildingBlock: KIFKEQ_clean_linker_1, # of connection points: 2
#     Edge 9, Type (0, 0), BuildingBlock: KIFKEQ_clean_linker_1, # of connection points: 2
#     Edge 10, Type (0, 0), BuildingBlock: KIFKEQ_clean_linker_1, # of connection points: 2
#     Edge 11, Type (0, 0), BuildingBlock: KIFKEQ_clean_linker_1, # of connection points: 2
#     Edge 12, Type (0, 0), BuildingBlock: KIFKEQ_clean_linker_1, # of connection points: 2
#     Edge 13, Type (0, 0), BuildingBlock: KIFKEQ_clean_linker_1, # of connection points: 2
#     Edge 14, Type (0, 0), BuildingBlock: KIFKEQ_clean_linker_1, # of connection points: 2
#     Edge 15, Type (0, 0), BuildingBlock: KIFKEQ_clean_linker_1, # of connection points: 2
#     Edge 16, Type (0, 0), BuildingBlock: KIFKEQ_clean_linker_1, # of connection points: 2
#     Edge 17, Type (0, 0), BuildingBlock: KIFKEQ_clean_linker_1, # of connection points: 2
#     Edge 18, Type (0, 0), BuildingBlock: KIFKEQ_clean_linker_1, # of connection points: 2
#     Edge 19, Type (0, 0), BuildingBlock: KIFKEQ_clean_linker_1, # of connection points: 2
#     Edge 20, Type (0, 0), BuildingBlock: KIFKEQ_clean_linker_1, # of connection points: 2
#     Edge 21, Type (0, 0), BuildingBlock: KIFKEQ_clean_linker_1, # of connection points: 2
#     Edge 22, Type (0, 0), BuildingBlock: KIFKEQ_clean_linker_1, # of connection points: 2
#     Edge 23, Type (0, 0), BuildingBlock: KIFKEQ_clean_linker_1, # of connection points: 2
#     Edge 24, Type (0, 0), BuildingBlock: KIFKEQ_clean_linker_1, # of connection points: 2
#     Edge 25, Type (0, 0), BuildingBlock: KIFKEQ_clean_linker_1, # of connection points: 2
#     Edge 26, Type (0, 0), BuildingBlock: KIFKEQ_clean_linker_1, # of connection points: 2
#     Edge 27, Type (0, 0), BuildingBlock: KIFKEQ_clean_linker_1, # of connection points: 2
#     Edge 28, Type (0, 0), BuildingBlock: KIFKEQ_clean_linker_1, # of connection points: 2
#     Edge 29, Type (0, 0), BuildingBlock: KIFKEQ_clean_linker_1, # of connection points: 2
#     Edge 30, Type (0, 0), BuildingBlock: KIFKEQ_clean_linker_1, # of connection points: 2
#     Edge 31, Type (0, 0), BuildingBlock: KIFKEQ_clean_linker_1, # of connection points: 2
# Relax obj value: 0.146
# Max RMSD: 0.161
# Mean RMSD: 0.158
data_MOF--net-ske--node1-BETDEL_clean_sbu_0--edge1-KIFKEQ_clean_linker_1
_symmetry_space_group_name_H-M    P1
_symmetry_Int_Tables_number       1
_symmetry_cell_setting            triclinic
loop_
_symmetry_equiv_pos_as_xyz
'x, y, z'
_cell_length_a     71.747317
_cell_length_b     29.255908
_cell_length_c     15.701406
_cell_angle_alpha  90.05627
_cell_angle_beta   89.995119
_cell_angle_gamma 84.101571
loop_
_atom_site_label
_atom_site_type_symbol
_atom_site_fract_x
_atom_site_fract_y
_atom_site_fract_z
_atom_type_partial_charge
Dy0 Dy 0.16386 0.25956 0.55567 0.0
C1 C 0.0845 0.25766 0.53189 0.0
C2 C 0.20062 0.26869 0.59486 0.0
Dy3 Dy 0.12224 0.26142 0.55572 0.0
O4 O 0.19424 0.23194 0.5656 0.0
O5 O 0.18699 0.30156 0.59895 0.0
O6 O 0.16734 0.19274 0.48947 0.0
O7 O 0.14479 0.20567 0.57602 0.0
C8 C 0.15252 0.17753 0.5216 0.0
C9 C 0.13497 0.34415 0.57952 0.0
O10 O 0.12618 0.24746 0.69405 0.0
O11 O 0.1571 0.26317 0.69502 0.0
O12 O 0.09384 0.2914 0.5102 0.0
O13 O 0.09585 0.22512 0.56554 0.0
O14 O 0.12084 0.33024 0.6199 0.0
O15 O 0.14144 0.31348 0.52802 0.0
O16 O 0.1586 0.27751 0.41889 0.0
O17 O 0.12979 0.24829 0.41863 0.0
C18 C 0.14168 0.25444 0.73525 0.0
C19 C 0.14419 0.26292 0.37756 0.0
Dy20 Dy 0.86342 0.26918 0.55495 0.0
C21 C 0.9431 0.27177 0.52892 0.0
C22 C 0.82657 0.26315 0.59682 0.0
Dy23 Dy 0.90541 0.26693 0.55257 0.0
O24 O 0.83436 0.30076 0.5866 0.0
O25 O 0.83881 0.22815 0.58091 0.0
O26 O 0.8602 0.33595 0.48878 0.0
O27 O 0.88282 0.32241 0.57464 0.0
C28 C 0.87511 0.35083 0.52071 0.0
C29 C 0.89267 0.18406 0.57397 0.0
O30 O 0.90125 0.28045 0.69124 0.0
O31 O 0.87118 0.25887 0.69221 0.0
O32 O 0.93395 0.23756 0.50792 0.0
O33 O 0.93156 0.30425 0.56178 0.0
O34 O 0.90739 0.19673 0.61163 0.0
O35 O 0.88587 0.21577 0.52546 0.0
O36 O 0.86794 0.25402 0.41654 0.0
O37 O 0.89772 0.27875 0.4153 0.0
C38 C 0.88627 0.26967 0.73252 0.0
C39 C 0.88282 0.26609 0.37502 0.0
Dy40 Dy 0.12086 0.76327 0.44495 0.0
C41 C 0.20003 0.7562 0.39961 0.0
C42 C 0.08314 0.75927 0.46807 0.0
Dy43 Dy 0.16295 0.75736 0.44378 0.0
O44 O 0.09228 0.79382 0.48703 0.0
O45 O 0.09468 0.72617 0.4373 0.0
O46 O 0.11945 0.83231 0.38283 0.0
O47 O 0.14111 0.81336 0.46896 0.0
C48 C 0.1344 0.84462 0.41904 0.0
C49 C 0.14936 0.67844 0.48299 0.0
O50 O 0.15876 0.7741 0.58165 0.0
O51 O 0.1282 0.75405 0.5834 0.0
O52 O 0.1901 0.72174 0.39566 0.0
O53 O 0.18983 0.7918 0.43065 0.0
O54 O 0.16438 0.692 0.51628 0.0
O55 O 0.14276 0.70621 0.42592 0.0
O56 O 0.12526 0.74842 0.30688 0.0
O57 O 0.1552 0.77066 0.30713 0.0
C58 C 0.14345 0.76499 0.62334 0.0
C59 C 0.14025 0.7595 0.26606 0.0
Dy60 Dy 0.90416 0.76854 0.42784 0.0
C61 C 0.82583 0.76522 0.38808 0.0
C62 C 0.94195 0.7758 0.43871 0.0
Dy63 Dy 0.86283 0.76983 0.42892 0.0
O64 O 0.93377 0.75263 0.38218 0.0
O65 O 0.9294 0.79613 0.4896 0.0
O66 O 0.90712 0.69638 0.37738 0.0
O67 O 0.88521 0.71627 0.46014 0.0
C68 C 0.89239 0.68382 0.41427 0.0
C69 C 0.87437 0.852 0.4619 0.0
O70 O 0.86726 0.75588 0.56775 0.0
O71 O 0.89797 0.77471 0.56802 0.0
O72 O 0.83423 0.80222 0.392 0.0
O73 O 0.83754 0.7301 0.40942 0.0
O74 O 0.85992 0.83632 0.49651 0.0
O75 O 0.88175 0.82415 0.40617 0.0
O76 O 0.89776 0.79142 0.29443 0.0
O77 O 0.87067 0.75634 0.29276 0.0
C78 C 0.88262 0.76519 0.60885 0.0
C79 C 0.8842 0.77431 0.25195 0.0
Dy80 Dy 0.66177 0.76394 0.0603 0.0
C81 C 0.58227 0.76054 0.03268 0.0
C82 C 0.69836 0.76375 0.11097 0.0
Dy83 Dy 0.6199 0.76643 0.05633 0.0
O84 O 0.68734 0.73267 0.1284 0.0
O85 O 0.6895 0.79549 0.06336 0.0
O86 O 0.66518 0.69815 0.99058 0.0
O87 O 0.64236 0.7103 0.0755 0.0
C88 C 0.65018 0.68277 0.02034 0.0
C89 C 0.63234 0.84939 0.08187 0.0
O90 O 0.62437 0.75242 0.19479 0.0
O91 O 0.65318 0.7806 0.19483 0.0
O92 O 0.59131 0.79469 0.01034 0.0
O93 O 0.59388 0.7287 0.06685 0.0
O94 O 0.6174 0.83634 0.11699 0.0
O95 O 0.63944 0.81816 0.03291 0.0
O96 O 0.65778 0.7791 0.92146 0.0
O97 O 0.62766 0.75633 0.91873 0.0
C98 C 0.63875 0.76668 0.23596 0.0
C99 C 0.64275 0.76845 0.8792 0.0
Dy100 Dy 0.36161 0.76508 0.0606 0.0
C101 C 0.44101 0.76971 0.03497 0.0
C102 C 0.32524 0.75206 0.10065 0.0
Dy103 Dy 0.40341 0.7639 0.05933 0.0
O104 O 0.3306 0.78774 0.06241 0.0
O105 O 0.33971 0.72231 0.11326 0.0
O106 O 0.35783 0.83381 0.00029 0.0
O107 O 0.38065 0.81858 0.08412 0.0
C108 C 0.37285 0.84803 0.03237 0.0
C109 C 0.39112 0.68029 0.07868 0.0
O110 O 0.39966 0.77549 0.19865 0.0
O111 O 0.36849 0.76168 0.19976 0.0
O112 O 0.4319 0.73577 0.01193 0.0
O113 O 0.42947 0.80139 0.07023 0.0
O114 O 0.4056 0.69355 0.1173 0.0
O115 O 0.38419 0.7119 0.03009 0.0
O116 O 0.36701 0.7479 0.92352 0.0
O117 O 0.39547 0.7788 0.92331 0.0
C118 C 0.38408 0.76913 0.23987 0.0
C119 C 0.38116 0.7637 0.8822 0.0
Dy120 Dy 0.62219 0.26556 0.9418 0.0
C121 C 0.70062 0.26157 0.88806 0.0
C122 C 0.58456 0.26096 0.9665 0.0
Dy123 Dy 0.66391 0.26221 0.93762 0.0
O124 O 0.59426 0.29194 -0.00214 0.0
O125 O 0.59553 0.23147 0.92293 0.0
O126 O 0.61965 0.33524 0.88158 0.0
O127 O 0.64183 0.31732 0.96508 0.0
C128 C 0.63457 0.34848 0.91636 0.0
C129 C 0.65198 0.18128 0.97719 0.0
O130 O 0.65978 0.27815 0.07614 0.0
O131 O 0.63019 0.25264 0.07847 0.0
O132 O 0.68986 0.22949 0.87415 0.0
O133 O 0.69146 0.29455 0.93186 0.0
O134 O 0.66702 0.19628 0.00739 0.0
O135 O 0.64436 0.20896 0.92195 0.0
O136 O 0.62626 0.25251 0.80276 0.0
O137 O 0.65573 0.27722 0.80234 0.0
C138 C 0.64507 0.26566 0.11834 0.0
C139 C 0.641 0.26475 0.7615 0.0
Dy140 Dy 0.40693 0.26664 0.93726 0.0
C141 C 0.32677 0.26371 0.88508 0.0
C142 C 0.44333 0.2867 0.93835 0.0
Dy143 Dy 0.36329 0.26382 0.93521 0.0
O144 O 0.43512 0.2676 0.87602 0.0
O145 O 0.43138 0.29655 -0.00019 0.0
O146 O 0.41567 0.19021 0.94474 0.0
O147 O 0.38771 0.2143 0.93873 0.0
C148 C 0.3988 0.17824 0.94414 0.0
C149 C 0.37494 0.34558 0.97499 0.0
O150 O 0.36941 0.24443 0.07117 0.0
O151 O 0.39843 0.27432 0.07464 0.0
O152 O 0.33751 0.29583 0.87049 0.0
O153 O 0.33591 0.23088 0.92954 0.0
O154 O 0.36008 0.32986 0.00572 0.0
O155 O 0.38256 0.31797 0.9196 0.0
O156 O 0.40073 0.27706 0.79852 0.0
O157 O 0.37154 0.24965 0.7996 0.0
C158 C 0.38398 0.25809 0.11344 0.0
C159 C 0.38618 0.26264 0.75842 0.0
H160 H 0.22863 0.19863 0.60211 0.0
H161 H 0.21485 0.34004 0.67678 0.0
H162 H 0.25857 0.19704 0.6765 0.0
H163 H 0.24468 0.33842 0.75255 0.0
H164 H 0.30797 0.33304 0.79684 0.0
H165 H 0.27781 0.33458 0.72634 0.0
H166 H 0.27189 0.19792 0.81959 0.0
H167 H 0.30261 0.19615 0.88941 0.0
C168 C 0.23208 0.22953 0.63395 0.0
C169 C 0.21946 0.26961 0.63305 0.0
C170 C 0.24915 0.22843 0.67753 0.0
C171 C 0.25405 0.26746 0.72119 0.0
C172 C 0.24149 0.3078 0.71905 0.0
C173 C 0.22439 0.30884 0.67555 0.0
C174 C 0.3002 0.30336 0.80299 0.0
C175 C 0.30767 0.26444 0.84881 0.0
C176 C 0.28281 0.30437 0.76276 0.0
C177 C 0.27234 0.26644 0.76709 0.0
C178 C 0.27968 0.22758 0.81407 0.0
C179 C 0.29718 0.22662 0.85469 0.0
H180 H 0.72592 0.32586 0.90491 0.0
H181 H 0.71802 0.19658 0.78467 0.0
H182 H 0.75652 0.32522 0.83508 0.0
H183 H 0.74798 0.19653 0.71294 0.0
H184 H 0.81057 0.18797 0.65497 0.0
H185 H 0.7808 0.18731 0.73058 0.0
H186 H 0.7703 0.33448 0.699 0.0
H187 H 0.80027 0.33502 0.62615 0.0
C188 C 0.73075 0.29733 0.86379 0.0
C189 C 0.7196 0.26125 0.85056 0.0
C190 C 0.7482 0.29705 0.82306 0.0
C191 C 0.75482 0.26081 0.76786 0.0
C192 C 0.74363 0.22462 0.7558 0.0
C193 C 0.72633 0.2248 0.79674 0.0
C194 C 0.80178 0.22002 0.66356 0.0
C195 C 0.8077 0.26147 0.63434 0.0
C196 C 0.78469 0.21976 0.70693 0.0
C197 C 0.77308 0.26094 0.72165 0.0
C198 C 0.77896 0.30222 0.69065 0.0
C199 C 0.79606 0.30247 0.64784 0.0
H200 H 0.31345 0.68472 0.20177 0.0
H201 H 0.29494 0.81619 0.08974 0.0
H202 H 0.28384 0.68613 0.27904 0.0
H203 H 0.26516 0.81735 0.16547 0.0
H204 H 0.22172 0.8278 0.38035 0.0
H205 H 0.25204 0.82597 0.30764 0.0
H206 H 0.25104 0.68079 0.25955 0.0
H207 H 0.22118 0.6826 0.33339 0.0
C208 C 0.30291 0.71356 0.19259 0.0
C209 C 0.30648 0.7502 0.13936 0.0
C210 C 0.28592 0.71445 0.23694 0.0
C211 C 0.27208 0.75204 0.22915 0.0
C212 C 0.27558 0.78825 0.17437 0.0
C213 C 0.29257 0.78733 0.13007 0.0
C214 C 0.22815 0.79549 0.35512 0.0
C215 C 0.2191 0.75536 0.36284 0.0
C216 C 0.24543 0.79444 0.31267 0.0
C217 C 0.25402 0.75322 0.27715 0.0
C218 C 0.24504 0.71302 0.28676 0.0
C219 C 0.22784 0.7141 0.32897 0.0
H220 H 0.7152 0.70188 0.22171 0.0
H221 H 0.72447 0.82506 0.08393 0.0
H222 H 0.74553 0.70187 0.29008 0.0
H223 H 0.75543 0.82433 0.15036 0.0
H224 H 0.80043 0.83783 0.35173 0.0
H225 H 0.77005 0.83731 0.28284 0.0
H226 H 0.77823 0.68898 0.26998 0.0
H227 H 0.80844 0.68975 0.34179 0.0
C228 C 0.72387 0.72875 0.20518 0.0
C229 C 0.71744 0.76351 0.14735 0.0
C230 C 0.74138 0.72857 0.24415 0.0
C231 C 0.75308 0.76302 0.22604 0.0
C232 C 0.74673 0.79757 0.16703 0.0
C233 C 0.72906 0.79788 0.1283 0.0
C234 C 0.79563 0.80507 0.33495 0.0
C235 C 0.80676 0.76379 0.35263 0.0
C236 C 0.77828 0.80479 0.29442 0.0
C237 C 0.77162 0.76317 0.26986 0.0
C238 C 0.78272 0.72174 0.28869 0.0
C239 C 0.80007 0.72207 0.32985 0.0
H240 H 0.16375 0.87932 0.49761 0.0
H241 H 0.11124 0.92016 0.37104 0.0
H242 H 0.16732 0.96006 0.52813 0.0
H243 H 0.11471 1.00077 0.40272 0.0
H244 H 0.12094 0.13538 0.56248 0.0
H245 H 0.11612 0.05407 0.5383 0.0
H246 H 0.17192 0.02958 0.43396 0.0
H247 H 0.17659 0.10963 0.45639 0.0
C248 C 0.15304 0.90556 0.47597 0.0
C249 C 0.1373 0.89349 0.4315 0.0
C250 C 0.15503 0.95168 0.49371 0.0
C251 C 0.14119 0.98659 0.46845 0.0
C252 C 0.12545 0.97452 0.42394 0.0
C253 C 0.1236 0.92844 0.40499 0.0
C254 C 0.13212 0.11241 0.53477 0.0
C255 C 0.14911 0.12882 0.51151 0.0
C256 C 0.12937 0.06611 0.52059 0.0
C257 C 0.14372 0.03556 0.48465 0.0
C258 C 0.16071 0.05212 0.46259 0.0
C259 C 0.16331 0.09814 0.47519 0.0
H260 H 0.90678 0.3928 0.56184 0.0
H261 H 0.851 0.41913 0.45756 0.0
H262 H 0.91157 0.47424 0.53916 0.0
H263 H 0.85564 0.49925 0.43664 0.0
H264 H 0.86354 0.64926 0.49719 0.0
H265 H 0.8603 0.56866 0.53032 0.0
H266 H 0.91291 0.52787 0.40472 0.0
H267 H 0.91605 0.60833 0.37058 0.0
C268 C 0.89556 0.41591 0.53486 0.0
C269 C 0.87854 0.3996 0.51158 0.0
C270 C 0.8983 0.46231 0.52159 0.0
C271 C 0.8839 0.49306 0.4866 0.0
C272 C 0.86689 0.47659 0.46463 0.0
C273 C 0.8643 0.4305 0.47631 0.0
C274 C 0.87435 0.62304 0.47637 0.0
C275 C 0.88996 0.63502 0.43083 0.0
C276 C 0.87255 0.577 0.49555 0.0
C277 C 0.88644 0.54207 0.4706 0.0
C278 C 0.90213 0.55412 0.42569 0.0
C279 C 0.9038 0.6001 0.40538 0.0
H280 H 0.85033 0.91984 0.52723 0.0
H281 H 0.90604 0.89406 0.42188 0.0
H282 H 0.85517 0.99961 0.55189 0.0
H283 H 0.91103 0.97511 0.4482 0.0
H284 H 0.91599 0.1081 0.61917 0.0
H285 H 0.91254 0.02769 0.58476 0.0
H286 H 0.85992 0.06959 0.46028 0.0
H287 H 0.86347 0.14996 0.4936 0.0
C288 C 0.86365 0.93129 0.50899 0.0
C289 C 0.87781 0.90068 0.47227 0.0
C290 C 0.86636 0.97715 0.52291 0.0
C291 C 0.88342 0.99363 0.50177 0.0
C292 C 0.89773 0.96315 0.46525 0.0
C293 C 0.89487 0.91701 0.44976 0.0
C294 C 0.90364 0.10008 0.58484 0.0
C295 C 0.88992 0.13524 0.55951 0.0
C296 C 0.9018 0.05415 0.56432 0.0
C297 C 0.88605 0.04246 0.51936 0.0
C298 C 0.87221 0.07762 0.49507 0.0
C299 C 0.87419 0.12355 0.51442 0.0
H300 H 0.1328 0.62148 0.37296 0.0
H301 H 0.15438 0.6303 0.62831 0.0
H302 H 0.12864 0.53996 0.39678 0.0
H303 H 0.14998 0.54977 0.65253 0.0
H304 H 0.12249 0.41462 0.68481 0.0
H305 H 0.12366 0.49699 0.66105 0.0
H306 H 0.15263 0.46752 0.42325 0.0
H307 H 0.15171 0.3851 0.44753 0.0
C308 C 0.13626 0.60623 0.43453 0.0
C309 C 0.14393 0.63193 0.4988 0.0
C310 C 0.13406 0.55965 0.44794 0.0
C311 C 0.1391 0.53854 0.5264 0.0
C312 C 0.14591 0.5651 0.59166 0.0
C313 C 0.14844 0.61113 0.57772 0.0
C314 C 0.12924 0.42577 0.62785 0.0
C315 C 0.13709 0.39351 0.56828 0.0
C316 C 0.12985 0.47284 0.61413 0.0
C317 C 0.13805 0.48863 0.53986 0.0
C318 C 0.14598 0.45632 0.48041 0.0
C319 C 0.14564 0.40919 0.49482 0.0
H320 H 0.67411 0.61631 0.94968 0.0
H321 H 0.61908 0.63901 0.06325 0.0
H322 H 0.66995 0.53602 0.92717 0.0
H323 H 0.61477 0.5574 0.03882 0.0
H324 H 0.61037 0.42278 0.8715 0.0
H325 H 0.61311 0.50377 0.90304 0.0
H326 H 0.66659 0.46616 0.02306 0.0
H327 H 0.66375 0.38503 0.99275 0.0
C328 C 0.66106 0.60413 0.97 0.0
C329 C 0.64691 0.63403 0.00863 0.0
C330 C 0.65876 0.55795 0.95733 0.0
C331 C 0.64212 0.54041 0.98162 0.0
C332 C 0.62776 0.5702 0.01945 0.0
C333 C 0.63022 0.61668 0.03368 0.0
C334 C 0.62275 0.43182 0.90431 0.0
C335 C 0.63693 0.39763 0.92928 0.0
C336 C 0.62419 0.47811 0.92316 0.0
C337 C 0.63998 0.49117 0.966 0.0
C338 C 0.65426 0.45701 0.98992 0.0
C339 C 0.65269 0.41068 0.9723 0.0
H340 H 0.40038 0.89246 0.11068 0.0
H341 H 0.35468 0.91277 0.93134 0.0
H342 H 0.40599 0.97337 0.0939 0.0
H343 H 0.36036 0.9926 0.91374 0.0
H344 H 0.36417 0.14589 0.95944 0.0
H345 H 0.35785 0.06624 0.98649 0.0
H346 H 0.41735 0.02399 0.98764 0.0
H347 H 0.42354 0.10294 0.96208 0.0
C348 C 0.3916 0.91412 0.06767 0.0
C349 C 0.37708 0.89628 0.0226 0.0
C350 C 0.3948 0.96041 0.0578 0.0
C351 C 0.38352 0.98971 0.0028 0.0
C352 C 0.36907 0.9715 0.95783 0.0
C353 C 0.36593 0.92548 0.96749 0.0
C354 C 0.37582 0.11944 0.96542 0.0
C355 C 0.39431 0.13057 0.95836 0.0
C356 C 0.37225 0.07384 0.98079 0.0
C357 C 0.38713 0.03859 0.98962 0.0
C358 C 0.40558 0.05014 0.98272 0.0
C359 C 0.4091 0.09545 0.96723 0.0
H360 H 0.35098 0.41272 0.04356 0.0
H361 H 0.40637 0.3887 0.93421 0.0
H362 H 0.35528 0.49309 0.06541 0.0
H363 H 0.41083 0.47029 0.95809 0.0
H364 H 0.41505 0.60562 0.12451 0.0
H365 H 0.41219 0.52462 0.09325 0.0
H366 H 0.35922 0.56277 0.96911 0.0
H367 H 0.36222 0.64394 -0.00101 0.0
C368 C 0.36414 0.42462 0.02412 0.0
C369 C 0.37834 0.39432 0.98681 0.0
C370 C 0.36652 0.47085 0.03636 0.0
C371 C 0.38331 0.48807 0.01308 0.0
C372 C 0.39772 0.45782 0.97667 0.0
C373 C 0.39518 0.41132 0.96275 0.0
C374 C 0.40276 0.59671 0.09073 0.0
C375 C 0.38877 0.63111 0.06459 0.0
C376 C 0.40125 0.55039 0.07208 0.0
C377 C 0.38556 0.53741 0.02831 0.0
C378 C 0.37148 0.57179 0.00302 0.0
C379 C 0.37314 0.61818 0.02033 0.0
H380 H 0.67479 0.11434 0.0528 0.0
H381 H 0.62051 0.13935 0.9329 0.0
H382 H 0.6696 0.03476 0.07703 0.0
H383 H 0.61516 0.05857 0.95894 0.0
H384 H 0.60849 0.92482 0.12506 0.0
H385 H 0.6122 1.00555 0.09485 0.0
H386 H 0.6661 0.965 0.98071 0.0
H387 H 0.66229 0.88428 0.00966 0.0
C388 C 0.66169 0.10283 0.03151 0.0
C389 C 0.64807 0.13311 0.99043 0.0
C390 C 0.65878 0.05708 0.04522 0.0
C391 C 0.64205 0.04041 0.0195 0.0
C392 C 0.6282 0.07068 0.97949 0.0
C393 C 0.63126 0.11669 0.96429 0.0
C394 C 0.62117 0.9332 0.09392 0.0
C395 C 0.63518 0.89832 0.0701 0.0
C396 C 0.62317 0.97932 0.07583 0.0
C397 C 0.63936 0.99146 0.03501 0.0
C398 C 0.65348 0.95659 0.01237 0.0
C399 C 0.65134 0.91048 0.02916 0.0
H400 H 0.16677 0.30436 0.26692 0.0
H401 H 0.12124 0.21853 0.27554 0.0
H402 H 0.16587 0.30268 0.11151 0.0
H403 H 0.12076 0.21554 0.12117 0.0
H404 H 0.11178 0.25788 0.84427 0.0
H405 H 0.11242 0.26133 -0.00064 0.0
H406 H 0.17294 0.25229 0.99369 0.0
H407 H 0.17225 0.25043 0.83903 0.0
C408 C 0.15667 0.2849 0.23569 0.0
C409 C 0.14405 0.26174 0.28351 0.0
C410 C 0.1562 0.28372 0.14665 0.0
C411 C 0.14321 0.259 0.10372 0.0
C412 C 0.1307 0.23563 0.15191 0.0
C413 C 0.13106 0.23715 0.24063 0.0
C414 C 0.12521 0.25642 0.87622 0.0
C415 C 0.14194 0.25393 0.82935 0.0
C416 C 0.1256 0.25827 0.96517 0.0
C417 C 0.14275 0.25722 0.00913 0.0
C418 C 0.15947 0.25408 0.96201 0.0
C419 C 0.15907 0.25265 0.87322 0.0
H420 H 0.91342 0.26342 0.27237 0.0
H421 H 0.85307 0.26777 0.26539 0.0
H422 H 0.91441 0.26352 0.11788 0.0
H423 H 0.85394 0.26992 0.11012 0.0
H424 H 0.86305 0.22644 0.83486 0.0
H425 H 0.86231 0.2247 0.98931 0.0
H426 H 0.90787 0.31061 -0.00211 0.0
H427 H 0.90912 0.31056 0.84262 0.0
C428 C 0.90031 0.26481 0.2377 0.0
C429 C 0.88314 0.26561 0.28102 0.0
C430 C 0.90088 0.2652 0.14894 0.0
C431 C 0.88427 0.26701 0.10116 0.0
C432 C 0.86705 0.2678 0.14468 0.0
C433 C 0.86651 0.26677 0.23371 0.0
C434 C 0.87294 0.24495 0.86967 0.0
C435 C 0.88616 0.26868 0.82656 0.0
C436 C 0.87242 0.24422 0.95844 0.0
C437 C 0.88494 0.26771 0.00644 0.0
C438 C 0.89818 0.29151 0.96313 0.0
C439 C 0.89887 0.29171 0.87411 0.0
H440 H 0.16421 0.80098 0.16432 0.0
H441 H 0.11681 0.72118 0.15509 0.0
H442 H 0.1649 0.80356 0.00986 0.0
H443 H 0.11796 0.72209 -0.00015 0.0
H444 H 0.11284 0.77125 0.72653 0.0
H445 H 0.11196 0.77081 0.88109 0.0
H446 H 0.17253 0.75816 0.88792 0.0
H447 H 0.17333 0.76051 0.73267 0.0
C448 C 0.15401 0.78361 0.12922 0.0
C449 C 0.14043 0.76086 0.17197 0.0
C450 C 0.1545 0.78484 0.04044 0.0
C451 C 0.14155 0.76289 0.99204 0.0
C452 C 0.12797 0.74002 0.03495 0.0
C453 C 0.12735 0.73927 0.12397 0.0
C454 C 0.12599 0.76848 0.761 0.0
C455 C 0.14317 0.7659 0.7174 0.0
C456 C 0.12548 0.76788 0.84979 0.0
C457 C 0.14216 0.76413 0.89731 0.0
C458 C 0.15938 0.76175 0.85354 0.0
C459 C 0.15987 0.76292 0.76451 0.0
H460 H 0.91298 0.76557 0.71347 0.0
H461 H 0.85272 0.76636 0.71731 0.0
H462 H 0.91341 0.76814 0.86821 0.0
H463 H 0.85307 0.7706 0.87226 0.0
H464 H 0.862 0.72862 0.14844 0.0
H465 H 0.86181 0.72594 0.99414 0.0
H466 H 0.9055 0.81723 0.98679 0.0
H467 H 0.90616 0.81853 0.14232 0.0
C468 C 0.89979 0.76652 0.74735 0.0
C469 C 0.8828 0.7656 0.70304 0.0
C470 C 0.90004 0.76837 0.83621 0.0
C471 C 0.88328 0.76976 0.88297 0.0
C472 C 0.86628 0.76886 0.83849 0.0
C473 C 0.86605 0.76656 0.74956 0.0
C474 C 0.87157 0.74824 0.11409 0.0
C475 C 0.8841 0.77385 0.15775 0.0
C476 C 0.87137 0.74691 0.02533 0.0
C477 C 0.88356 0.77151 0.97771 0.0
C478 C 0.89607 0.79734 0.0214 0.0
C479 C 0.89639 0.79833 0.11054 0.0
H480 H 0.61646 0.72461 0.34676 0.0
H481 H 0.66157 0.81162 0.33815 0.0
H482 H 0.61793 0.72449 0.50192 0.0
H483 H 0.66256 0.81306 0.49273 0.0
H484 H 0.67246 0.76863 0.769 0.0
H485 H 0.67147 0.76749 0.61351 0.0
H486 H 0.61108 0.77169 0.62212 0.0
H487 H 0.61217 0.77102 0.77645 0.0
C488 C 0.62654 0.74412 0.378 0.0
C489 C 0.6389 0.76804 0.33013 0.0
C490 C 0.62735 0.74424 0.46702 0.0
C491 C 0.6404 0.76876 0.51017 0.0
C492 C 0.65259 0.79308 0.46194 0.0
C493 C 0.65192 0.79253 0.37311 0.0
C494 C 0.659 0.76938 0.73747 0.0
C495 C 0.64243 0.76966 0.78504 0.0
C496 C 0.6584 0.76892 0.64833 0.0
C497 C 0.64118 0.76928 0.60497 0.0
C498 C 0.62462 0.77033 0.653 0.0
C499 C 0.62525 0.77026 0.74176 0.0
H500 H 0.35872 0.72173 0.77177 0.0
H501 H 0.40399 0.80835 0.77995 0.0
H502 H 0.35976 0.72261 0.61644 0.0
H503 H 0.40464 0.81045 0.62544 0.0
H504 H 0.41396 0.76587 0.34921 0.0
H505 H 0.4132 0.76349 0.50443 0.0
H506 H 0.3527 0.77263 0.49804 0.0
H507 H 0.35348 0.77351 0.34348 0.0
C508 C 0.36878 0.74122 0.74046 0.0
C509 C 0.38129 0.76482 0.78815 0.0
C510 C 0.36934 0.74192 0.65145 0.0
C511 C 0.38232 0.76656 0.60837 0.0
C512 C 0.39471 0.79043 0.65638 0.0
C513 C 0.39425 0.78943 0.74513 0.0
C514 C 0.40051 0.76752 0.38103 0.0
C515 C 0.3838 0.76979 0.33399 0.0
C516 C 0.40006 0.7663 0.47002 0.0
C517 C 0.38288 0.76772 0.5138 0.0
C518 C 0.36618 0.77057 0.46651 0.0
C519 C 0.36664 0.77142 0.37773 0.0
H520 H 0.62313 0.21949 0.22193 0.0
H521 H 0.66671 0.31092 0.22743 0.0
H522 H 0.62215 0.21937 0.3764 0.0
H523 H 0.66524 0.3124 0.38278 0.0
H524 H 0.67146 0.26726 0.65921 0.0
H525 H 0.67264 0.26726 0.50481 0.0
H526 H 0.6125 0.26494 0.49553 0.0
H527 H 0.61147 0.26302 0.65086 0.0
C528 C 0.63243 0.23991 0.25625 0.0
C529 C 0.64501 0.26526 0.21247 0.0
C530 C 0.63176 0.24011 0.34503 0.0
C531 C 0.6435 0.26612 0.39247 0.0
C532 C 0.65615 0.29144 0.34852 0.0
C533 C 0.65698 0.29076 0.25944 0.0
C534 C 0.65846 0.2668 0.62431 0.0
C535 C 0.64135 0.26512 0.66733 0.0
C536 C 0.65913 0.26712 0.53552 0.0
C537 C 0.64268 0.26627 0.48728 0.0
C538 C 0.62551 0.26487 0.53046 0.0
C539 C 0.62488 0.26399 0.61954 0.0
H540 H 0.40525 0.30508 0.21928 0.0
H541 H 0.36294 0.21014 0.22151 0.0
H542 H 0.40567 0.3055 0.37356 0.0
H543 H 0.36389 0.20902 0.37708 0.0
H544 H 0.35617 0.25522 0.6542 0.0
H545 H 0.35555 0.2533 0.49949 0.0
H546 H 0.41533 0.26202 0.49384 0.0
H547 H 0.41576 0.26588 0.64886 0.0
C548 C 0.39616 0.28381 0.25276 0.0
C549 C 0.38407 0.25748 0.20788 0.0
C550 C 0.3965 0.28382 0.34164 0.0
C551 C 0.38493 0.25706 0.38843 0.0
C552 C 0.37284 0.23058 0.34345 0.0
C553 C 0.37233 0.23101 0.25418 0.0
C554 C 0.3692 0.25671 0.61998 0.0
C555 C 0.38602 0.26089 0.66401 0.0
C556 C 0.36886 0.25526 0.531 0.0
C557 C 0.38537 0.25747 0.48356 0.0
C558 C 0.40225 0.2611 0.52786 0.0
C559 C 0.40254 0.2631 0.61694 0.0
H560 H 0.06253 0.19012 0.57565 0.0
H561 H 0.05989 0.32794 0.47544 0.0
H562 H 0.02827 0.19424 0.57222 0.0
H563 H 0.02575 0.33205 0.47136 0.0
H564 H 0.96484 0.33982 0.57319 0.0
H565 H 0.99912 0.336 0.57126 0.0
H566 H 1.00205 0.19801 0.47051 0.0
H567 H 0.96792 0.20181 0.47308 0.0
C568 C 0.05463 0.22111 0.55229 0.0
C569 C 0.06387 0.25865 0.52576 0.0
C570 C 0.03501 0.22349 0.55005 0.0
C571 C 0.02424 0.26358 0.52175 0.0
C572 C 0.03358 0.30092 0.49455 0.0
C573 C 0.05315 0.29842 0.49629 0.0
C574 C 0.97284 0.30887 0.55012 0.0
C575 C 0.96372 0.27116 0.52329 0.0
C576 C 0.99246 0.30666 0.54877 0.0
C577 C 1.00335 0.26657 0.52107 0.0
C578 C 0.99413 0.22913 0.49333 0.0
C579 C 0.97456 0.23146 0.49421 0.0
H580 H 0.96813 0.73642 0.32986 0.0
H581 H 0.96219 0.81324 0.56474 0.0
H582 H 1.00205 0.73153 0.34258 0.0
H583 H 0.99638 0.80744 0.57907 0.0
H584 H 0.05813 0.82978 0.52069 0.0
H585 H 0.02401 0.83425 0.51717 0.0
H586 H 0.02743 0.69455 0.42408 0.0
H587 H 0.06163 0.69074 0.42553 0.0
C588 C 0.97412 0.75226 0.38443 0.0
C589 C 0.96252 0.77529 0.44626 0.0
C590 C 0.9936 0.74905 0.3922 0.0
C591 C 1.00204 0.76863 0.46232 0.0
C592 C 0.99039 0.79221 0.52388 0.0
C593 C 0.97081 0.79553 0.51588 0.0
C594 C 0.05157 0.79991 0.50011 0.0
C595 C 0.06252 0.75996 0.47296 0.0
C596 C 0.03199 0.80239 0.4985 0.0
C597 C 0.02289 0.76491 0.46978 0.0
C598 C 0.03393 0.72441 0.44508 0.0
C599 C 0.05353 0.72202 0.44648 0.0
H600 H 0.56089 0.6919 0.07719 0.0
H601 H 0.55714 0.82979 0.97666 0.0
H602 H 0.52664 0.69465 0.07498 0.0
H603 H 0.52303 0.83255 0.97402 0.0
H604 H 0.46249 0.83811 0.07986 0.0
H605 H 0.49674 0.83532 0.07648 0.0
H606 H 0.50014 0.69775 0.97357 0.0
H607 H 0.46603 0.70056 0.97736 0.0
C608 C 0.55274 0.72261 0.05402 0.0
C609 C 0.56167 0.76058 0.02707 0.0
C610 C 0.53314 0.72419 0.05251 0.0
C611 C 0.52207 0.76393 0.02463 0.0
C612 C 0.53109 0.80167 0.99691 0.0
C613 C 0.55065 0.79994 -0.00216 0.0
C614 C 0.47059 0.80747 0.05603 0.0
C615 C 0.46161 0.76961 0.02882 0.0
C616 C 0.49019 0.80586 0.05384 0.0
C617 C 0.5012 0.7662 0.02503 0.0
C618 C 0.49212 0.72856 0.99714 0.0
C619 C 0.47257 0.73032 -0.00127 0.0
H620 H 0.46883 0.2668 0.81269 0.0
H621 H 0.46411 0.30922 0.07578 0.0
H622 H 0.50285 0.26036 0.82353 0.0
H623 H 0.49832 0.30183 0.08758 0.0
H624 H 0.56061 0.32507 0.04703 0.0
H625 H 0.52643 0.33391 0.04146 0.0
H626 H 0.52765 0.21059 0.88894 0.0
H627 H 0.56188 0.20251 0.8931 0.0
C628 C 0.4751 0.2751 0.87277 0.0
C629 C 0.46382 0.28854 0.94339 0.0
C630 C 0.49462 0.27089 0.87931 0.0
C631 C 0.50339 0.27986 0.9568 0.0
C632 C 0.49206 0.29482 0.02681 0.0
C633 C 0.47247 0.29912 0.02014 0.0
C634 C 0.55354 0.29963 0.01299 0.0
C635 C 0.56389 0.26315 0.97028 0.0
C636 C 0.53394 0.30462 0.01 0.0
C637 C 0.52423 0.27324 0.96411 0.0
C638 C 0.53465 0.23594 0.9235 0.0
C639 C 0.55426 0.23099 0.92649 0.0
loop_
_geom_bond_atom_site_label_1
_geom_bond_atom_site_label_2
_geom_bond_distance
_geom_bond_site_symmetry_2
_ccdc_geom_bond_type
Dy0 O4 2.398 . S
Dy0 O5 2.491 . S
Dy0 O6 2.403 . S
Dy0 O7 2.664 . S
Dy0 O11 2.326 . S
Dy0 O15 2.310 . S
Dy0 O16 2.351 . S
C1 O12 1.185 . S
C1 O13 1.355 . S
C2 O4 1.185 . S
C2 O5 1.355 . S
Dy3 O7 2.310 . S
Dy3 O10 2.351 . S
Dy3 O12 2.398 . S
Dy3 O13 2.491 . S
Dy3 O14 2.403 . S
Dy3 O15 2.664 . S
Dy3 O17 2.326 . S
O4 Dy0 2.398 . S
O4 C2 1.185 . S
O5 Dy0 2.491 . S
O5 C2 1.355 . S
O6 Dy0 2.403 . S
O6 C8 1.254 . S
O7 Dy0 2.664 . S
O7 Dy3 2.310 . S
O7 C8 1.268 . S
C8 O6 1.254 . S
C8 O7 1.268 . S
C9 O14 1.254 . S
C9 O15 1.268 . S
O10 Dy3 2.351 . S
O10 C18 1.249 . S
O11 Dy0 2.326 . S
O11 C18 1.267 . S
O12 C1 1.185 . S
O12 Dy3 2.398 . S
O13 C1 1.355 . S
O13 Dy3 2.491 . S
O14 Dy3 2.403 . S
O14 C9 1.254 . S
O15 Dy0 2.310 . S
O15 Dy3 2.664 . S
O15 C9 1.268 . S
O16 Dy0 2.351 . S
O16 C19 1.249 . S
O17 Dy3 2.326 . S
O17 C19 1.267 . S
C18 O10 1.249 . S
C18 O11 1.267 . S
C19 O16 1.249 . S
C19 O17 1.267 . S
Dy20 O24 2.398 . S
Dy20 O25 2.491 . S
Dy20 O26 2.403 . S
Dy20 O27 2.664 . S
Dy20 O31 2.326 . S
Dy20 O35 2.310 . S
Dy20 O36 2.351 . S
C21 O32 1.185 . S
C21 O33 1.355 . S
C22 O24 1.185 . S
C22 O25 1.355 . S
Dy23 O27 2.310 . S
Dy23 O30 2.351 . S
Dy23 O32 2.398 . S
Dy23 O33 2.491 . S
Dy23 O34 2.403 . S
Dy23 O35 2.664 . S
Dy23 O37 2.326 . S
O24 Dy20 2.398 . S
O24 C22 1.185 . S
O25 Dy20 2.491 . S
O25 C22 1.355 . S
O26 Dy20 2.403 . S
O26 C28 1.254 . S
O27 Dy20 2.664 . S
O27 Dy23 2.310 . S
O27 C28 1.268 . S
C28 O26 1.254 . S
C28 O27 1.268 . S
C29 O34 1.254 . S
C29 O35 1.268 . S
O30 Dy23 2.351 . S
O30 C38 1.249 . S
O31 Dy20 2.326 . S
O31 C38 1.267 . S
O32 C21 1.185 . S
O32 Dy23 2.398 . S
O33 C21 1.355 . S
O33 Dy23 2.491 . S
O34 Dy23 2.403 . S
O34 C29 1.254 . S
O35 Dy20 2.310 . S
O35 Dy23 2.664 . S
O35 C29 1.268 . S
O36 Dy20 2.351 . S
O36 C39 1.249 . S
O37 Dy23 2.326 . S
O37 C39 1.267 . S
C38 O30 1.249 . S
C38 O31 1.267 . S
C39 O36 1.249 . S
C39 O37 1.267 . S
Dy40 O44 2.398 . S
Dy40 O45 2.491 . S
Dy40 O46 2.403 . S
Dy40 O47 2.664 . S
Dy40 O51 2.326 . S
Dy40 O55 2.310 . S
Dy40 O56 2.351 . S
C41 O52 1.185 . S
C41 O53 1.355 . S
C42 O44 1.185 . S
C42 O45 1.355 . S
Dy43 O47 2.310 . S
Dy43 O50 2.351 . S
Dy43 O52 2.398 . S
Dy43 O53 2.491 . S
Dy43 O54 2.403 . S
Dy43 O55 2.664 . S
Dy43 O57 2.326 . S
O44 Dy40 2.398 . S
O44 C42 1.185 . S
O45 Dy40 2.491 . S
O45 C42 1.355 . S
O46 Dy40 2.403 . S
O46 C48 1.254 . S
O47 Dy40 2.664 . S
O47 Dy43 2.310 . S
O47 C48 1.268 . S
C48 O46 1.254 . S
C48 O47 1.268 . S
C49 O54 1.254 . S
C49 O55 1.268 . S
O50 Dy43 2.351 . S
O50 C58 1.249 . S
O51 Dy40 2.326 . S
O51 C58 1.267 . S
O52 C41 1.185 . S
O52 Dy43 2.398 . S
O53 C41 1.355 . S
O53 Dy43 2.491 . S
O54 Dy43 2.403 . S
O54 C49 1.254 . S
O55 Dy40 2.310 . S
O55 Dy43 2.664 . S
O55 C49 1.268 . S
O56 Dy40 2.351 . S
O56 C59 1.249 . S
O57 Dy43 2.326 . S
O57 C59 1.267 . S
C58 O50 1.249 . S
C58 O51 1.267 . S
C59 O56 1.249 . S
C59 O57 1.267 . S
Dy60 O64 2.398 . S
Dy60 O65 2.491 . S
Dy60 O66 2.403 . S
Dy60 O67 2.664 . S
Dy60 O71 2.326 . S
Dy60 O75 2.310 . S
Dy60 O76 2.351 . S
C61 O72 1.185 . S
C61 O73 1.355 . S
C62 O64 1.185 . S
C62 O65 1.355 . S
Dy63 O67 2.310 . S
Dy63 O70 2.351 . S
Dy63 O72 2.398 . S
Dy63 O73 2.491 . S
Dy63 O74 2.403 . S
Dy63 O75 2.664 . S
Dy63 O77 2.326 . S
O64 Dy60 2.398 . S
O64 C62 1.185 . S
O65 Dy60 2.491 . S
O65 C62 1.355 . S
O66 Dy60 2.403 . S
O66 C68 1.254 . S
O67 Dy60 2.664 . S
O67 Dy63 2.310 . S
O67 C68 1.268 . S
C68 O66 1.254 . S
C68 O67 1.268 . S
C69 O74 1.254 . S
C69 O75 1.268 . S
O70 Dy63 2.351 . S
O70 C78 1.249 . S
O71 Dy60 2.326 . S
O71 C78 1.267 . S
O72 C61 1.185 . S
O72 Dy63 2.398 . S
O73 C61 1.355 . S
O73 Dy63 2.491 . S
O74 Dy63 2.403 . S
O74 C69 1.254 . S
O75 Dy60 2.310 . S
O75 Dy63 2.664 . S
O75 C69 1.268 . S
O76 Dy60 2.351 . S
O76 C79 1.249 . S
O77 Dy63 2.326 . S
O77 C79 1.267 . S
C78 O70 1.249 . S
C78 O71 1.267 . S
C79 O76 1.249 . S
C79 O77 1.267 . S
Dy80 O84 2.398 1_556 S
Dy80 O85 2.491 1_556 S
Dy80 O86 2.403 . S
Dy80 O87 2.664 . S
Dy80 O91 2.326 1_556 S
Dy80 O95 2.310 1_556 S
Dy80 O96 2.351 . S
C81 O92 1.185 . S
C81 O93 1.355 . S
C82 O84 1.185 . S
C82 O85 1.355 . S
Dy83 O87 2.310 1_554 S
Dy83 O90 2.351 . S
Dy83 O92 2.398 1_554 S
Dy83 O93 2.491 1_554 S
Dy83 O94 2.403 . S
Dy83 O95 2.664 . S
Dy83 O97 2.326 1_554 S
O84 Dy80 2.398 1_554 S
O84 C82 1.185 . S
O85 Dy80 2.491 1_554 S
O85 C82 1.355 . S
O86 Dy80 2.403 . S
O86 C88 1.254 . S
O87 Dy80 2.664 . S
O87 Dy83 2.310 1_556 S
O87 C88 1.268 . S
C88 O86 1.254 . S
C88 O87 1.268 . S
C89 O94 1.254 . S
C89 O95 1.268 . S
O90 Dy83 2.351 . S
O90 C98 1.249 . S
O91 Dy80 2.326 1_554 S
O91 C98 1.267 . S
O92 C81 1.185 . S
O92 Dy83 2.398 1_556 S
O93 C81 1.355 . S
O93 Dy83 2.491 1_556 S
O94 Dy83 2.403 . S
O94 C89 1.254 . S
O95 Dy80 2.310 1_554 S
O95 Dy83 2.664 . S
O95 C89 1.268 . S
O96 Dy80 2.351 . S
O96 C99 1.249 . S
O97 Dy83 2.326 1_556 S
O97 C99 1.267 . S
C98 O90 1.249 . S
C98 O91 1.267 . S
C99 O96 1.249 . S
C99 O97 1.267 . S
Dy100 O104 2.398 1_556 S
Dy100 O105 2.491 1_556 S
Dy100 O106 2.403 . S
Dy100 O107 2.664 . S
Dy100 O111 2.326 1_556 S
Dy100 O115 2.310 1_556 S
Dy100 O116 2.351 . S
C101 O112 1.185 . S
C101 O113 1.355 . S
C102 O104 1.185 . S
C102 O105 1.355 . S
Dy103 O107 2.310 1_554 S
Dy103 O110 2.351 . S
Dy103 O112 2.398 1_554 S
Dy103 O113 2.491 1_554 S
Dy103 O114 2.403 . S
Dy103 O115 2.664 . S
Dy103 O117 2.326 1_554 S
O104 Dy100 2.398 1_554 S
O104 C102 1.185 . S
O105 Dy100 2.491 1_554 S
O105 C102 1.355 . S
O106 Dy100 2.403 . S
O106 C108 1.254 . S
O107 Dy100 2.664 . S
O107 Dy103 2.310 1_556 S
O107 C108 1.268 . S
C108 O106 1.254 . S
C108 O107 1.268 . S
C109 O114 1.254 . S
C109 O115 1.268 . S
O110 Dy103 2.351 . S
O110 C118 1.249 . S
O111 Dy100 2.326 1_554 S
O111 C118 1.267 . S
O112 C101 1.185 . S
O112 Dy103 2.398 1_556 S
O113 C101 1.355 . S
O113 Dy103 2.491 1_556 S
O114 Dy103 2.403 . S
O114 C109 1.254 . S
O115 Dy100 2.310 1_554 S
O115 Dy103 2.664 . S
O115 C109 1.268 . S
O116 Dy100 2.351 . S
O116 C119 1.249 . S
O117 Dy103 2.326 1_556 S
O117 C119 1.267 . S
C118 O110 1.249 . S
C118 O111 1.267 . S
C119 O116 1.249 . S
C119 O117 1.267 . S
Dy120 O124 2.398 1_556 S
Dy120 O125 2.491 1_556 S
Dy120 O126 2.403 . S
Dy120 O127 2.664 . S
Dy120 O131 2.326 1_556 S
Dy120 O135 2.310 1_556 S
Dy120 O136 2.351 . S
C121 O132 1.185 . S
C121 O133 1.355 . S
C122 O124 1.185 . S
C122 O125 1.355 . S
Dy123 O127 2.310 1_554 S
Dy123 O130 2.351 . S
Dy123 O132 2.398 1_554 S
Dy123 O133 2.491 1_554 S
Dy123 O134 2.403 . S
Dy123 O135 2.664 . S
Dy123 O137 2.326 1_554 S
O124 Dy120 2.398 1_554 S
O124 C122 1.185 . S
O125 Dy120 2.491 1_554 S
O125 C122 1.355 . S
O126 Dy120 2.403 . S
O126 C128 1.254 . S
O127 Dy120 2.664 . S
O127 Dy123 2.310 1_556 S
O127 C128 1.268 . S
C128 O126 1.254 . S
C128 O127 1.268 . S
C129 O134 1.254 . S
C129 O135 1.268 . S
O130 Dy123 2.351 . S
O130 C138 1.249 . S
O131 Dy120 2.326 1_554 S
O131 C138 1.267 . S
O132 C121 1.185 . S
O132 Dy123 2.398 1_556 S
O133 C121 1.355 . S
O133 Dy123 2.491 1_556 S
O134 Dy123 2.403 . S
O134 C129 1.254 . S
O135 Dy120 2.310 1_554 S
O135 Dy123 2.664 . S
O135 C129 1.268 . S
O136 Dy120 2.351 . S
O136 C139 1.249 . S
O137 Dy123 2.326 1_556 S
O137 C139 1.267 . S
C138 O130 1.249 . S
C138 O131 1.267 . S
C139 O136 1.249 . S
C139 O137 1.267 . S
Dy140 O144 2.398 1_556 S
Dy140 O145 2.491 1_556 S
Dy140 O146 2.403 . S
Dy140 O147 2.664 . S
Dy140 O151 2.326 1_556 S
Dy140 O155 2.310 1_556 S
Dy140 O156 2.351 . S
C141 O152 1.185 . S
C141 O153 1.355 . S
C142 O144 1.185 . S
C142 O145 1.355 . S
Dy143 O147 2.310 1_554 S
Dy143 O150 2.351 . S
Dy143 O152 2.398 1_554 S
Dy143 O153 2.491 1_554 S
Dy143 O154 2.403 . S
Dy143 O155 2.664 . S
Dy143 O157 2.326 1_554 S
O144 Dy140 2.398 1_554 S
O144 C142 1.185 . S
O145 Dy140 2.491 1_554 S
O145 C142 1.355 . S
O146 Dy140 2.403 . S
O146 C148 1.254 . S
O147 Dy140 2.664 . S
O147 Dy143 2.310 1_556 S
O147 C148 1.268 . S
C148 O146 1.254 . S
C148 O147 1.268 . S
C149 O154 1.254 . S
C149 O155 1.268 . S
O150 Dy143 2.351 . S
O150 C158 1.249 . S
O151 Dy140 2.326 1_554 S
O151 C158 1.267 . S
O152 C141 1.185 . S
O152 Dy143 2.398 1_556 S
O153 C141 1.355 . S
O153 Dy143 2.491 1_556 S
O154 Dy143 2.403 . S
O154 C149 1.254 . S
O155 Dy140 2.310 1_554 S
O155 Dy143 2.664 . S
O155 C149 1.268 . S
O156 Dy140 2.351 . S
O156 C159 1.249 . S
O157 Dy143 2.326 1_556 S
O157 C159 1.267 . S
C158 O150 1.249 . S
C158 O151 1.267 . S
C159 O156 1.249 . S
C159 O157 1.267 . S
H160 C168 0.950 . S
H161 C173 0.950 . S
H162 C170 0.950 . S
H163 C172 0.950 . S
H164 C174 0.950 . S
H165 C176 0.950 . S
H166 C178 0.950 . S
H167 C179 0.950 . S
C168 H160 0.950 . S
C168 C169 1.386 . S
C168 C170 1.391 . S
C169 C168 1.386 . S
C169 C173 1.393 . S
C170 H162 0.950 . S
C170 C168 1.391 . S
C170 C171 1.400 . S
C171 C170 1.400 . S
C171 C172 1.398 . S
C171 C177 1.491 . S
C172 H163 0.950 . S
C172 C171 1.398 . S
C172 C173 1.391 . S
C173 H161 0.950 . S
C173 C169 1.393 . S
C173 C172 1.391 . S
C174 H164 0.950 . S
C174 C175 1.386 . S
C174 C176 1.391 . S
C175 C174 1.386 . S
C175 C179 1.393 . S
C176 H165 0.950 . S
C176 C174 1.391 . S
C176 C177 1.400 . S
C177 C171 1.491 . S
C177 C176 1.400 . S
C177 C178 1.398 . S
C178 H166 0.950 . S
C178 C177 1.398 . S
C178 C179 1.391 . S
C179 H167 0.950 . S
C179 C175 1.393 . S
C179 C178 1.391 . S
H180 C188 0.950 . S
H181 C193 0.950 . S
H182 C190 0.950 . S
H183 C192 0.950 . S
H184 C194 0.950 . S
H185 C196 0.950 . S
H186 C198 0.950 . S
H187 C199 0.950 . S
C188 H180 0.950 . S
C188 C189 1.386 . S
C188 C190 1.391 . S
C189 C188 1.386 . S
C189 C193 1.393 . S
C190 H182 0.950 . S
C190 C188 1.391 . S
C190 C191 1.400 . S
C191 C190 1.400 . S
C191 C192 1.398 . S
C191 C197 1.491 . S
C192 H183 0.950 . S
C192 C191 1.398 . S
C192 C193 1.391 . S
C193 H181 0.950 . S
C193 C189 1.393 . S
C193 C192 1.391 . S
C194 H184 0.950 . S
C194 C195 1.386 . S
C194 C196 1.391 . S
C195 C194 1.386 . S
C195 C199 1.393 . S
C196 H185 0.950 . S
C196 C194 1.391 . S
C196 C197 1.400 . S
C197 C191 1.491 . S
C197 C196 1.400 . S
C197 C198 1.398 . S
C198 H186 0.950 . S
C198 C197 1.398 . S
C198 C199 1.391 . S
C199 H187 0.950 . S
C199 C195 1.393 . S
C199 C198 1.391 . S
H200 C208 0.950 . S
H201 C213 0.950 . S
H202 C210 0.950 . S
H203 C212 0.950 . S
H204 C214 0.950 . S
H205 C216 0.950 . S
H206 C218 0.950 . S
H207 C219 0.950 . S
C208 H200 0.950 . S
C208 C209 1.386 . S
C208 C210 1.391 . S
C209 C208 1.386 . S
C209 C213 1.393 . S
C210 H202 0.950 . S
C210 C208 1.391 . S
C210 C211 1.400 . S
C211 C210 1.400 . S
C211 C212 1.398 . S
C211 C217 1.491 . S
C212 H203 0.950 . S
C212 C211 1.398 . S
C212 C213 1.391 . S
C213 H201 0.950 . S
C213 C209 1.393 . S
C213 C212 1.391 . S
C214 H204 0.950 . S
C214 C215 1.386 . S
C214 C216 1.391 . S
C215 C214 1.386 . S
C215 C219 1.393 . S
C216 H205 0.950 . S
C216 C214 1.391 . S
C216 C217 1.400 . S
C217 C211 1.491 . S
C217 C216 1.400 . S
C217 C218 1.398 . S
C218 H206 0.950 . S
C218 C217 1.398 . S
C218 C219 1.391 . S
C219 H207 0.950 . S
C219 C215 1.393 . S
C219 C218 1.391 . S
H220 C228 0.950 . S
H221 C233 0.950 . S
H222 C230 0.950 . S
H223 C232 0.950 . S
H224 C234 0.950 . S
H225 C236 0.950 . S
H226 C238 0.950 . S
H227 C239 0.950 . S
C228 H220 0.950 . S
C228 C229 1.386 . S
C228 C230 1.391 . S
C229 C228 1.386 . S
C229 C233 1.393 . S
C230 H222 0.950 . S
C230 C228 1.391 . S
C230 C231 1.400 . S
C231 C230 1.400 . S
C231 C232 1.398 . S
C231 C237 1.491 . S
C232 H223 0.950 . S
C232 C231 1.398 . S
C232 C233 1.391 . S
C233 H221 0.950 . S
C233 C229 1.393 . S
C233 C232 1.391 . S
C234 H224 0.950 . S
C234 C235 1.386 . S
C234 C236 1.391 . S
C235 C234 1.386 . S
C235 C239 1.393 . S
C236 H225 0.950 . S
C236 C234 1.391 . S
C236 C237 1.400 . S
C237 C231 1.491 . S
C237 C236 1.400 . S
C237 C238 1.398 . S
C238 H226 0.950 . S
C238 C237 1.398 . S
C238 C239 1.391 . S
C239 H227 0.950 . S
C239 C235 1.393 . S
C239 C238 1.391 . S
H240 C248 0.950 . S
H241 C253 0.950 . S
H242 C250 0.950 . S
H243 C252 0.950 . S
H244 C254 0.950 . S
H245 C256 0.950 . S
H246 C258 0.950 . S
H247 C259 0.950 . S
C248 H240 0.950 . S
C248 C249 1.386 . S
C248 C250 1.391 . S
C249 C248 1.386 . S
C249 C253 1.393 . S
C250 H242 0.950 . S
C250 C248 1.391 . S
C250 C251 1.400 . S
C251 C250 1.400 . S
C251 C252 1.398 . S
C251 C257 1.491 1_565 S
C252 H243 0.950 . S
C252 C251 1.398 . S
C252 C253 1.391 . S
C253 H241 0.950 . S
C253 C249 1.393 . S
C253 C252 1.391 . S
C254 H244 0.950 . S
C254 C255 1.386 . S
C254 C256 1.391 . S
C255 C254 1.386 . S
C255 C259 1.393 . S
C256 H245 0.950 . S
C256 C254 1.391 . S
C256 C257 1.400 . S
C257 C251 1.491 1_545 S
C257 C256 1.400 . S
C257 C258 1.398 . S
C258 H246 0.950 . S
C258 C257 1.398 . S
C258 C259 1.391 . S
C259 H247 0.950 . S
C259 C255 1.393 . S
C259 C258 1.391 . S
H260 C268 0.950 . S
H261 C273 0.950 . S
H262 C270 0.950 . S
H263 C272 0.950 . S
H264 C274 0.950 . S
H265 C276 0.950 . S
H266 C278 0.950 . S
H267 C279 0.950 . S
C268 H260 0.950 . S
C268 C269 1.386 . S
C268 C270 1.391 . S
C269 C268 1.386 . S
C269 C273 1.393 . S
C270 H262 0.950 . S
C270 C268 1.391 . S
C270 C271 1.400 . S
C271 C270 1.400 . S
C271 C272 1.398 . S
C271 C277 1.491 . S
C272 H263 0.950 . S
C272 C271 1.398 . S
C272 C273 1.391 . S
C273 H261 0.950 . S
C273 C269 1.393 . S
C273 C272 1.391 . S
C274 H264 0.950 . S
C274 C275 1.386 . S
C274 C276 1.391 . S
C275 C274 1.386 . S
C275 C279 1.393 . S
C276 H265 0.950 . S
C276 C274 1.391 . S
C276 C277 1.400 . S
C277 C271 1.491 . S
C277 C276 1.400 . S
C277 C278 1.398 . S
C278 H266 0.950 . S
C278 C277 1.398 . S
C278 C279 1.391 . S
C279 H267 0.950 . S
C279 C275 1.393 . S
C279 C278 1.391 . S
H280 C288 0.950 . S
H281 C293 0.950 . S
H282 C290 0.950 . S
H283 C292 0.950 . S
H284 C294 0.950 . S
H285 C296 0.950 . S
H286 C298 0.950 . S
H287 C299 0.950 . S
C288 H280 0.950 . S
C288 C289 1.386 . S
C288 C290 1.391 . S
C289 C288 1.386 . S
C289 C293 1.393 . S
C290 H282 0.950 . S
C290 C288 1.391 . S
C290 C291 1.400 . S
C291 C290 1.400 . S
C291 C292 1.398 . S
C291 C297 1.491 1_565 S
C292 H283 0.950 . S
C292 C291 1.398 . S
C292 C293 1.391 . S
C293 H281 0.950 . S
C293 C289 1.393 . S
C293 C292 1.391 . S
C294 H284 0.950 . S
C294 C295 1.386 . S
C294 C296 1.391 . S
C295 C294 1.386 . S
C295 C299 1.393 . S
C296 H285 0.950 . S
C296 C294 1.391 . S
C296 C297 1.400 . S
C297 C291 1.491 1_545 S
C297 C296 1.400 . S
C297 C298 1.398 . S
C298 H286 0.950 . S
C298 C297 1.398 . S
C298 C299 1.391 . S
C299 H287 0.950 . S
C299 C295 1.393 . S
C299 C298 1.391 . S
H300 C308 0.950 . S
H301 C313 0.950 . S
H302 C310 0.950 . S
H303 C312 0.950 . S
H304 C314 0.950 . S
H305 C316 0.950 . S
H306 C318 0.950 . S
H307 C319 0.950 . S
C308 H300 0.950 . S
C308 C309 1.386 . S
C308 C310 1.391 . S
C309 C308 1.386 . S
C309 C313 1.393 . S
C310 H302 0.950 . S
C310 C308 1.391 . S
C310 C311 1.400 . S
C311 C310 1.400 . S
C311 C312 1.398 . S
C311 C317 1.491 . S
C312 H303 0.950 . S
C312 C311 1.398 . S
C312 C313 1.391 . S
C313 H301 0.950 . S
C313 C309 1.393 . S
C313 C312 1.391 . S
C314 H304 0.950 . S
C314 C315 1.386 . S
C314 C316 1.391 . S
C315 C314 1.386 . S
C315 C319 1.393 . S
C316 H305 0.950 . S
C316 C314 1.391 . S
C316 C317 1.400 . S
C317 C311 1.491 . S
C317 C316 1.400 . S
C317 C318 1.398 . S
C318 H306 0.950 . S
C318 C317 1.398 . S
C318 C319 1.391 . S
C319 H307 0.950 . S
C319 C315 1.393 . S
C319 C318 1.391 . S
H320 C328 0.950 . S
H321 C333 0.950 . S
H322 C330 0.950 . S
H323 C332 0.950 . S
H324 C334 0.950 . S
H325 C336 0.950 . S
H326 C338 0.950 . S
H327 C339 0.950 . S
C328 H320 0.950 . S
C328 C329 1.386 . S
C328 C330 1.391 . S
C329 C328 1.386 . S
C329 C333 1.393 1_556 S
C330 H322 0.950 . S
C330 C328 1.391 . S
C330 C331 1.400 . S
C331 C330 1.400 . S
C331 C332 1.398 1_556 S
C331 C337 1.491 . S
C332 H323 0.950 . S
C332 C331 1.398 1_554 S
C332 C333 1.391 . S
C333 H321 0.950 . S
C333 C329 1.393 1_554 S
C333 C332 1.391 . S
C334 H324 0.950 . S
C334 C335 1.386 1_554 S
C334 C336 1.391 . S
C335 C334 1.386 1_556 S
C335 C339 1.393 . S
C336 H325 0.950 . S
C336 C334 1.391 . S
C336 C337 1.400 1_554 S
C337 C331 1.491 . S
C337 C336 1.400 1_556 S
C337 C338 1.398 . S
C338 H326 0.950 . S
C338 C337 1.398 . S
C338 C339 1.391 . S
C339 H327 0.950 . S
C339 C335 1.393 . S
C339 C338 1.391 . S
H340 C348 0.950 . S
H341 C353 0.950 . S
H342 C350 0.950 . S
H343 C352 0.950 . S
H344 C354 0.950 . S
H345 C356 0.950 . S
H346 C358 0.950 . S
H347 C359 0.950 . S
C348 H340 0.950 . S
C348 C349 1.386 . S
C348 C350 1.391 . S
C349 C348 1.386 . S
C349 C353 1.393 1_556 S
C350 H342 0.950 . S
C350 C348 1.391 . S
C350 C351 1.400 . S
C351 C350 1.400 . S
C351 C352 1.398 1_556 S
C351 C357 1.491 1_565 S
C352 H343 0.950 . S
C352 C351 1.398 1_554 S
C352 C353 1.391 . S
C353 H341 0.950 . S
C353 C349 1.393 1_554 S
C353 C352 1.391 . S
C354 H344 0.950 . S
C354 C355 1.386 1_554 S
C354 C356 1.391 . S
C355 C354 1.386 1_556 S
C355 C359 1.393 . S
C356 H345 0.950 . S
C356 C354 1.391 . S
C356 C357 1.400 1_554 S
C357 C351 1.491 1_545 S
C357 C356 1.400 1_556 S
C357 C358 1.398 . S
C358 H346 0.950 . S
C358 C357 1.398 . S
C358 C359 1.391 . S
C359 H347 0.950 . S
C359 C355 1.393 . S
C359 C358 1.391 . S
H360 C368 0.950 . S
H361 C373 0.950 . S
H362 C370 0.950 . S
H363 C372 0.950 . S
H364 C374 0.950 . S
H365 C376 0.950 . S
H366 C378 0.950 . S
H367 C379 0.950 . S
C368 H360 0.950 . S
C368 C369 1.386 1_556 S
C368 C370 1.391 . S
C369 C368 1.386 1_554 S
C369 C373 1.393 . S
C370 H362 0.950 . S
C370 C368 1.391 . S
C370 C371 1.400 1_556 S
C371 C370 1.400 1_554 S
C371 C372 1.398 . S
C371 C377 1.491 . S
C372 H363 0.950 . S
C372 C371 1.398 . S
C372 C373 1.391 . S
C373 H361 0.950 . S
C373 C369 1.393 . S
C373 C372 1.391 . S
C374 H364 0.950 . S
C374 C375 1.386 . S
C374 C376 1.391 . S
C375 C374 1.386 . S
C375 C379 1.393 1_554 S
C376 H365 0.950 . S
C376 C374 1.391 . S
C376 C377 1.400 . S
C377 C371 1.491 . S
C377 C376 1.400 . S
C377 C378 1.398 1_554 S
C378 H366 0.950 . S
C378 C377 1.398 1_556 S
C378 C379 1.391 . S
C379 H367 0.950 . S
C379 C375 1.393 1_556 S
C379 C378 1.391 . S
H380 C388 0.950 . S
H381 C393 0.950 . S
H382 C390 0.950 . S
H383 C392 0.950 . S
H384 C394 0.950 . S
H385 C396 0.950 . S
H386 C398 0.950 . S
H387 C399 0.950 . S
C388 H380 0.950 . S
C388 C389 1.386 . S
C388 C390 1.391 . S
C389 C388 1.386 . S
C389 C393 1.393 1_554 S
C390 H382 0.950 . S
C390 C388 1.391 . S
C390 C391 1.400 . S
C391 C390 1.400 . S
C391 C392 1.398 1_554 S
C391 C397 1.491 1_545 S
C392 H383 0.950 . S
C392 C391 1.398 1_556 S
C392 C393 1.391 . S
C393 H381 0.950 . S
C393 C389 1.393 1_556 S
C393 C392 1.391 . S
C394 H384 0.950 . S
C394 C395 1.386 1_556 S
C394 C396 1.391 . S
C395 C394 1.386 1_554 S
C395 C399 1.393 . S
C396 H385 0.950 . S
C396 C394 1.391 . S
C396 C397 1.400 1_556 S
C397 C391 1.491 1_565 S
C397 C396 1.400 1_554 S
C397 C398 1.398 . S
C398 H386 0.950 . S
C398 C397 1.398 . S
C398 C399 1.391 . S
C399 H387 0.950 . S
C399 C395 1.393 . S
C399 C398 1.391 . S
H400 C408 0.950 . S
H401 C413 0.950 . S
H402 C410 0.950 . S
H403 C412 0.950 . S
H404 C414 0.950 . S
H405 C416 0.950 . S
H406 C418 0.950 . S
H407 C419 0.950 . S
C408 H400 0.950 . S
C408 C409 1.386 . S
C408 C410 1.391 . S
C409 C408 1.386 . S
C409 C413 1.393 . S
C410 H402 0.950 . S
C410 C408 1.391 . S
C410 C411 1.400 . S
C411 C410 1.400 . S
C411 C412 1.398 . S
C411 C417 1.491 1_554 S
C412 H403 0.950 . S
C412 C411 1.398 . S
C412 C413 1.391 . S
C413 H401 0.950 . S
C413 C409 1.393 . S
C413 C412 1.391 . S
C414 H404 0.950 . S
C414 C415 1.386 . S
C414 C416 1.391 . S
C415 C414 1.386 . S
C415 C419 1.393 . S
C416 H405 0.950 . S
C416 C414 1.391 . S
C416 C417 1.400 . S
C417 C411 1.491 1_556 S
C417 C416 1.400 . S
C417 C418 1.398 . S
C418 H406 0.950 . S
C418 C417 1.398 . S
C418 C419 1.391 . S
C419 H407 0.950 . S
C419 C415 1.393 . S
C419 C418 1.391 . S
H420 C428 0.950 . S
H421 C433 0.950 . S
H422 C430 0.950 . S
H423 C432 0.950 . S
H424 C434 0.950 . S
H425 C436 0.950 . S
H426 C438 0.950 . S
H427 C439 0.950 . S
C428 H420 0.950 . S
C428 C429 1.386 . S
C428 C430 1.391 . S
C429 C428 1.386 . S
C429 C433 1.393 . S
C430 H422 0.950 . S
C430 C428 1.391 . S
C430 C431 1.400 . S
C431 C430 1.400 . S
C431 C432 1.398 . S
C431 C437 1.491 1_554 S
C432 H423 0.950 . S
C432 C431 1.398 . S
C432 C433 1.391 . S
C433 H421 0.950 . S
C433 C429 1.393 . S
C433 C432 1.391 . S
C434 H424 0.950 . S
C434 C435 1.386 . S
C434 C436 1.391 . S
C435 C434 1.386 . S
C435 C439 1.393 . S
C436 H425 0.950 . S
C436 C434 1.391 . S
C436 C437 1.400 . S
C437 C431 1.491 1_556 S
C437 C436 1.400 . S
C437 C438 1.398 . S
C438 H426 0.950 . S
C438 C437 1.398 . S
C438 C439 1.391 . S
C439 H427 0.950 . S
C439 C435 1.393 . S
C439 C438 1.391 . S
H440 C448 0.950 . S
H441 C453 0.950 . S
H442 C450 0.950 . S
H443 C452 0.950 . S
H444 C454 0.950 . S
H445 C456 0.950 . S
H446 C458 0.950 . S
H447 C459 0.950 . S
C448 H440 0.950 . S
C448 C449 1.386 . S
C448 C450 1.391 . S
C449 C448 1.386 . S
C449 C453 1.393 . S
C450 H442 0.950 . S
C450 C448 1.391 . S
C450 C451 1.400 . S
C451 C450 1.400 . S
C451 C452 1.398 . S
C451 C457 1.491 1_554 S
C452 H443 0.950 . S
C452 C451 1.398 . S
C452 C453 1.391 . S
C453 H441 0.950 . S
C453 C449 1.393 . S
C453 C452 1.391 . S
C454 H444 0.950 . S
C454 C455 1.386 . S
C454 C456 1.391 . S
C455 C454 1.386 . S
C455 C459 1.393 . S
C456 H445 0.950 . S
C456 C454 1.391 . S
C456 C457 1.400 . S
C457 C451 1.491 1_556 S
C457 C456 1.400 . S
C457 C458 1.398 . S
C458 H446 0.950 . S
C458 C457 1.398 . S
C458 C459 1.391 . S
C459 H447 0.950 . S
C459 C455 1.393 . S
C459 C458 1.391 . S
H460 C468 0.950 . S
H461 C473 0.950 . S
H462 C470 0.950 . S
H463 C472 0.950 . S
H464 C474 0.950 . S
H465 C476 0.950 . S
H466 C478 0.950 . S
H467 C479 0.950 . S
C468 H460 0.950 . S
C468 C469 1.386 . S
C468 C470 1.391 . S
C469 C468 1.386 . S
C469 C473 1.393 . S
C470 H462 0.950 . S
C470 C468 1.391 . S
C470 C471 1.400 . S
C471 C470 1.400 . S
C471 C472 1.398 . S
C471 C477 1.491 1_556 S
C472 H463 0.950 . S
C472 C471 1.398 . S
C472 C473 1.391 . S
C473 H461 0.950 . S
C473 C469 1.393 . S
C473 C472 1.391 . S
C474 H464 0.950 . S
C474 C475 1.386 . S
C474 C476 1.391 . S
C475 C474 1.386 . S
C475 C479 1.393 . S
C476 H465 0.950 . S
C476 C474 1.391 . S
C476 C477 1.400 . S
C477 C471 1.491 1_554 S
C477 C476 1.400 . S
C477 C478 1.398 . S
C478 H466 0.950 . S
C478 C477 1.398 . S
C478 C479 1.391 . S
C479 H467 0.950 . S
C479 C475 1.393 . S
C479 C478 1.391 . S
H480 C488 0.950 . S
H481 C493 0.950 . S
H482 C490 0.950 . S
H483 C492 0.950 . S
H484 C494 0.950 . S
H485 C496 0.950 . S
H486 C498 0.950 . S
H487 C499 0.950 . S
C488 H480 0.950 . S
C488 C489 1.386 . S
C488 C490 1.391 . S
C489 C488 1.386 . S
C489 C493 1.393 . S
C490 H482 0.950 . S
C490 C488 1.391 . S
C490 C491 1.400 . S
C491 C490 1.400 . S
C491 C492 1.398 . S
C491 C497 1.491 . S
C492 H483 0.950 . S
C492 C491 1.398 . S
C492 C493 1.391 . S
C493 H481 0.950 . S
C493 C489 1.393 . S
C493 C492 1.391 . S
C494 H484 0.950 . S
C494 C495 1.386 . S
C494 C496 1.391 . S
C495 C494 1.386 . S
C495 C499 1.393 . S
C496 H485 0.950 . S
C496 C494 1.391 . S
C496 C497 1.400 . S
C497 C491 1.491 . S
C497 C496 1.400 . S
C497 C498 1.398 . S
C498 H486 0.950 . S
C498 C497 1.398 . S
C498 C499 1.391 . S
C499 H487 0.950 . S
C499 C495 1.393 . S
C499 C498 1.391 . S
H500 C508 0.950 . S
H501 C513 0.950 . S
H502 C510 0.950 . S
H503 C512 0.950 . S
H504 C514 0.950 . S
H505 C516 0.950 . S
H506 C518 0.950 . S
H507 C519 0.950 . S
C508 H500 0.950 . S
C508 C509 1.386 . S
C508 C510 1.391 . S
C509 C508 1.386 . S
C509 C513 1.393 . S
C510 H502 0.950 . S
C510 C508 1.391 . S
C510 C511 1.400 . S
C511 C510 1.400 . S
C511 C512 1.398 . S
C511 C517 1.491 . S
C512 H503 0.950 . S
C512 C511 1.398 . S
C512 C513 1.391 . S
C513 H501 0.950 . S
C513 C509 1.393 . S
C513 C512 1.391 . S
C514 H504 0.950 . S
C514 C515 1.386 . S
C514 C516 1.391 . S
C515 C514 1.386 . S
C515 C519 1.393 . S
C516 H505 0.950 . S
C516 C514 1.391 . S
C516 C517 1.400 . S
C517 C511 1.491 . S
C517 C516 1.400 . S
C517 C518 1.398 . S
C518 H506 0.950 . S
C518 C517 1.398 . S
C518 C519 1.391 . S
C519 H507 0.950 . S
C519 C515 1.393 . S
C519 C518 1.391 . S
H520 C528 0.950 . S
H521 C533 0.950 . S
H522 C530 0.950 . S
H523 C532 0.950 . S
H524 C534 0.950 . S
H525 C536 0.950 . S
H526 C538 0.950 . S
H527 C539 0.950 . S
C528 H520 0.950 . S
C528 C529 1.386 . S
C528 C530 1.391 . S
C529 C528 1.386 . S
C529 C533 1.393 . S
C530 H522 0.950 . S
C530 C528 1.391 . S
C530 C531 1.400 . S
C531 C530 1.400 . S
C531 C532 1.398 . S
C531 C537 1.491 . S
C532 H523 0.950 . S
C532 C531 1.398 . S
C532 C533 1.391 . S
C533 H521 0.950 . S
C533 C529 1.393 . S
C533 C532 1.391 . S
C534 H524 0.950 . S
C534 C535 1.386 . S
C534 C536 1.391 . S
C535 C534 1.386 . S
C535 C539 1.393 . S
C536 H525 0.950 . S
C536 C534 1.391 . S
C536 C537 1.400 . S
C537 C531 1.491 . S
C537 C536 1.400 . S
C537 C538 1.398 . S
C538 H526 0.950 . S
C538 C537 1.398 . S
C538 C539 1.391 . S
C539 H527 0.950 . S
C539 C535 1.393 . S
C539 C538 1.391 . S
H540 C548 0.950 . S
H541 C553 0.950 . S
H542 C550 0.950 . S
H543 C552 0.950 . S
H544 C554 0.950 . S
H545 C556 0.950 . S
H546 C558 0.950 . S
H547 C559 0.950 . S
C548 H540 0.950 . S
C548 C549 1.386 . S
C548 C550 1.391 . S
C549 C548 1.386 . S
C549 C553 1.393 . S
C550 H542 0.950 . S
C550 C548 1.391 . S
C550 C551 1.400 . S
C551 C550 1.400 . S
C551 C552 1.398 . S
C551 C557 1.491 . S
C552 H543 0.950 . S
C552 C551 1.398 . S
C552 C553 1.391 . S
C553 H541 0.950 . S
C553 C549 1.393 . S
C553 C552 1.391 . S
C554 H544 0.950 . S
C554 C555 1.386 . S
C554 C556 1.391 . S
C555 C554 1.386 . S
C555 C559 1.393 . S
C556 H545 0.950 . S
C556 C554 1.391 . S
C556 C557 1.400 . S
C557 C551 1.491 . S
C557 C556 1.400 . S
C557 C558 1.398 . S
C558 H546 0.950 . S
C558 C557 1.398 . S
C558 C559 1.391 . S
C559 H547 0.950 . S
C559 C555 1.393 . S
C559 C558 1.391 . S
H560 C568 0.950 . S
H561 C573 0.950 . S
H562 C570 0.950 . S
H563 C572 0.950 . S
H564 C574 0.950 . S
H565 C576 0.950 . S
H566 C578 0.950 . S
H567 C579 0.950 . S
C568 H560 0.950 . S
C568 C569 1.386 . S
C568 C570 1.391 . S
C569 C568 1.386 . S
C569 C573 1.393 . S
C570 H562 0.950 . S
C570 C568 1.391 . S
C570 C571 1.400 . S
C571 C570 1.400 . S
C571 C572 1.398 . S
C571 C577 1.491 1_455 S
C572 H563 0.950 . S
C572 C571 1.398 . S
C572 C573 1.391 . S
C573 H561 0.950 . S
C573 C569 1.393 . S
C573 C572 1.391 . S
C574 H564 0.950 . S
C574 C575 1.386 . S
C574 C576 1.391 . S
C575 C574 1.386 . S
C575 C579 1.393 . S
C576 H565 0.950 . S
C576 C574 1.391 . S
C576 C577 1.400 . S
C577 C571 1.491 1_655 S
C577 C576 1.400 . S
C577 C578 1.398 . S
C578 H566 0.950 . S
C578 C577 1.398 . S
C578 C579 1.391 . S
C579 H567 0.950 . S
C579 C575 1.393 . S
C579 C578 1.391 . S
H580 C588 0.950 . S
H581 C593 0.950 . S
H582 C590 0.950 . S
H583 C592 0.950 . S
H584 C594 0.950 . S
H585 C596 0.950 . S
H586 C598 0.950 . S
H587 C599 0.950 . S
C588 H580 0.950 . S
C588 C589 1.386 . S
C588 C590 1.391 . S
C589 C588 1.386 . S
C589 C593 1.393 . S
C590 H582 0.950 . S
C590 C588 1.391 . S
C590 C591 1.400 . S
C591 C590 1.400 . S
C591 C592 1.398 . S
C591 C597 1.491 1_655 S
C592 H583 0.950 . S
C592 C591 1.398 . S
C592 C593 1.391 . S
C593 H581 0.950 . S
C593 C589 1.393 . S
C593 C592 1.391 . S
C594 H584 0.950 . S
C594 C595 1.386 . S
C594 C596 1.391 . S
C595 C594 1.386 . S
C595 C599 1.393 . S
C596 H585 0.950 . S
C596 C594 1.391 . S
C596 C597 1.400 . S
C597 C591 1.491 1_455 S
C597 C596 1.400 . S
C597 C598 1.398 . S
C598 H586 0.950 . S
C598 C597 1.398 . S
C598 C599 1.391 . S
C599 H587 0.950 . S
C599 C595 1.393 . S
C599 C598 1.391 . S
H600 C608 0.950 . S
H601 C613 0.950 . S
H602 C610 0.950 . S
H603 C612 0.950 . S
H604 C614 0.950 . S
H605 C616 0.950 . S
H606 C618 0.950 . S
H607 C619 0.950 . S
C608 H600 0.950 . S
C608 C609 1.386 . S
C608 C610 1.391 . S
C609 C608 1.386 . S
C609 C613 1.393 . S
C610 H602 0.950 . S
C610 C608 1.391 . S
C610 C611 1.400 . S
C611 C610 1.400 . S
C611 C612 1.398 . S
C611 C617 1.491 . S
C612 H603 0.950 . S
C612 C611 1.398 . S
C612 C613 1.391 . S
C613 H601 0.950 . S
C613 C609 1.393 . S
C613 C612 1.391 . S
C614 H604 0.950 . S
C614 C615 1.386 . S
C614 C616 1.391 . S
C615 C614 1.386 . S
C615 C619 1.393 . S
C616 H605 0.950 . S
C616 C614 1.391 . S
C616 C617 1.400 . S
C617 C611 1.491 . S
C617 C616 1.400 . S
C617 C618 1.398 . S
C618 H606 0.950 . S
C618 C617 1.398 . S
C618 C619 1.391 . S
C619 H607 0.950 . S
C619 C615 1.393 . S
C619 C618 1.391 . S
H620 C628 0.950 . S
H621 C633 0.950 . S
H622 C630 0.950 . S
H623 C632 0.950 . S
H624 C634 0.950 . S
H625 C636 0.950 . S
H626 C638 0.950 . S
H627 C639 0.950 . S
C628 H620 0.950 . S
C628 C629 1.386 . S
C628 C630 1.391 . S
C629 C628 1.386 . S
C629 C633 1.393 . S
C630 H622 0.950 . S
C630 C628 1.391 . S
C630 C631 1.400 . S
C631 C630 1.400 . S
C631 C632 1.398 . S
C631 C637 1.491 . S
C632 H623 0.950 . S
C632 C631 1.398 . S
C632 C633 1.391 . S
C633 H621 0.950 . S
C633 C629 1.393 . S
C633 C632 1.391 . S
C634 H624 0.950 . S
C634 C635 1.386 . S
C634 C636 1.391 . S
C635 C634 1.386 . S
C635 C639 1.393 . S
C636 H625 0.950 . S
C636 C634 1.391 . S
C636 C637 1.400 . S
C637 C631 1.491 . S
C637 C636 1.400 . S
C637 C638 1.398 . S
C638 H626 0.950 . S
C638 C637 1.398 . S
C638 C639 1.391 . S
C639 H627 0.950 . S
C639 C635 1.393 . S
C639 C638 1.391 . S
C169 C2 1.669 . S
C175 C141 1.668 . S
C189 C121 1.670 . S
C195 C22 1.669 . S
C209 C102 1.675 . S
C215 C41 1.674 . S
C229 C82 1.669 . S
C235 C61 1.668 . S
C249 C48 1.458 . S
C255 C8 1.465 . S
C269 C28 1.465 . S
C275 C68 1.466 . S
C289 C69 1.472 . S
C295 C29 1.471 . S
C309 C49 1.454 . S
C315 C9 1.453 . S
C329 C88 1.456 . S
C335 C128 1.452 . S
C349 C108 1.452 . S
C355 C148 1.456 . S
C369 C149 1.449 . S
C375 C109 1.452 . S
C389 C129 1.464 . S
C395 C89 1.467 . S
C409 C19 1.642 . S
C415 C18 1.642 . S
C429 C39 1.624 . S
C435 C38 1.624 . S
C449 C59 1.633 . S
C455 C58 1.633 . S
C469 C78 1.628 . S
C475 C79 1.628 . S
C489 C98 1.633 . S
C495 C99 1.633 . S
C509 C119 1.642 . S
C515 C118 1.642 . S
C529 C138 1.638 . S
C535 C139 1.638 . S
C549 C158 1.635 . S
C555 C159 1.635 . S
C569 C1 1.867 . S
C575 C21 1.885 . S
C589 C62 1.871 . S
C595 C42 1.885 . S
C609 C81 1.868 . S
C615 C101 1.883 . S
C629 C142 1.865 . S
C635 C122 1.889 . S
