# Generated by pormake.
# Topology skc, (5)-cn, num edge types: 1
# Building blocks:
#     Node 0, Type 0, BuildingBlock: BEQFEK_clean_sbu_0, # of connection points: 5
#     Node 1, Type 0, BuildingBlock: BEQFEK_clean_sbu_0, # of connection points: 5
#     Node 2, Type 0, BuildingBlock: BEQFEK_clean_sbu_0, # of connection points: 5
#     Node 3, Type 0, BuildingBlock: BEQFEK_clean_sbu_0, # of connection points: 5
#     Node 4, Type 0, BuildingBlock: BEQFEK_clean_sbu_0, # of connection points: 5
#     Node 5, Type 0, BuildingBlock: BEQFEK_clean_sbu_0, # of connection points: 5
#     Node 6, Type 0, BuildingBlock: BEQFEK_clean_sbu_0, # of connection points: 5
#     Node 7, Type 0, BuildingBlock: BEQFEK_clean_sbu_0, # of connection points: 5
#     Edge 8, Type (0, 0), BuildingBlock: XIVTED_clean_linker_0, # of connection points: 2
#     Edge 9, Type (0, 0), BuildingBlock: XIVTED_clean_linker_0, # of connection points: 2
#     Edge 10, Type (0, 0), BuildingBlock: XIVTED_clean_linker_0, # of connection points: 2
#     Edge 11, Type (0, 0), BuildingBlock: XIVTED_clean_linker_0, # of connection points: 2
#     Edge 12, Type (0, 0), BuildingBlock: XIVTED_clean_linker_0, # of connection points: 2
#     Edge 13, Type (0, 0), BuildingBlock: XIVTED_clean_linker_0, # of connection points: 2
#     Edge 14, Type (0, 0), BuildingBlock: XIVTED_clean_linker_0, # of connection points: 2
#     Edge 15, Type (0, 0), BuildingBlock: XIVTED_clean_linker_0, # of connection points: 2
#     Edge 16, Type (0, 0), BuildingBlock: XIVTED_clean_linker_0, # of connection points: 2
#     Edge 17, Type (0, 0), BuildingBlock: XIVTED_clean_linker_0, # of connection points: 2
#     Edge 18, Type (0, 0), BuildingBlock: XIVTED_clean_linker_0, # of connection points: 2
#     Edge 19, Type (0, 0), BuildingBlock: XIVTED_clean_linker_0, # of connection points: 2
#     Edge 20, Type (0, 0), BuildingBlock: XIVTED_clean_linker_0, # of connection points: 2
#     Edge 21, Type (0, 0), BuildingBlock: XIVTED_clean_linker_0, # of connection points: 2
#     Edge 22, Type (0, 0), BuildingBlock: XIVTED_clean_linker_0, # of connection points: 2
#     Edge 23, Type (0, 0), BuildingBlock: XIVTED_clean_linker_0, # of connection points: 2
#     Edge 24, Type (0, 0), BuildingBlock: XIVTED_clean_linker_0, # of connection points: 2
#     Edge 25, Type (0, 0), BuildingBlock: XIVTED_clean_linker_0, # of connection points: 2
#     Edge 26, Type (0, 0), BuildingBlock: XIVTED_clean_linker_0, # of connection points: 2
#     Edge 27, Type (0, 0), BuildingBlock: XIVTED_clean_linker_0, # of connection points: 2
# Relax obj value: 0.153
# Max RMSD: 0.194
# Mean RMSD: 0.194
data_MOF--net-skc--node1-BEQFEK_clean_sbu_0--edge1-XIVTED_clean_linker_0
_symmetry_space_group_name_H-M    P1
_symmetry_Int_Tables_number       1
_symmetry_cell_setting            triclinic
loop_
_symmetry_equiv_pos_as_xyz
'x, y, z'
_cell_length_a     46.396934
_cell_length_b     22.118282
_cell_length_c     24.802109
_cell_angle_alpha  90.020021
_cell_angle_beta   90.013614
_cell_angle_gamma 90.01859
loop_
_atom_site_label
_atom_site_type_symbol
_atom_site_fract_x
_atom_site_fract_y
_atom_site_fract_z
_atom_type_partial_charge
Co0 Co 0.07869 0.20675 0.1372 0.0
Co1 Co 0.11373 0.25539 0.03833 0.0
C2 C 0.07199 0.15188 0.028 0.0
O3 O 0.06547 0.15416 0.0778 0.0
O4 O 0.0907 0.18754 0.00787 0.0
C5 C 0.05604 0.12583 0.22101 0.0
O6 O 0.06649 0.07984 0.1938 0.0
C7 C 0.15823 0.25442 0.95299 0.0
C8 C 0.15906 0.35091 0.92987 0.0
C9 C 0.17136 0.29538 0.9183 0.0
N10 N 0.13923 0.28469 0.98386 0.0
N11 N 0.13984 0.34227 0.96972 0.0
C12 C 0.16215 0.18728 0.95454 0.0
H13 H 0.18193 0.17613 0.97752 0.0
H14 H 0.16466 0.16921 0.91304 0.0
H15 H 0.14362 0.16525 0.9748 0.0
C16 C 0.13717 0.20113 0.18473 0.0
N17 N 0.11938 0.21046 0.14266 0.0
N18 N 0.13424 0.23263 0.10197 0.0
C19 C 0.16202 0.23877 0.11728 0.0
C20 C 0.1648 0.21875 0.17012 0.0
C21 C 0.12758 0.17656 0.238 0.0
H22 H 0.11201 0.20837 0.25666 0.0
H23 H 0.1164 0.13291 0.2315 0.0
H24 H 0.14592 0.16898 0.26584 0.0
O25 O 0.06303 0.28886 0.12592 0.0
O26 O 0.08675 0.3227 0.0544 0.0
H27 H 0.17522 0.30936 0.06329 0.0
H28 H 0.20277 0.28585 0.11022 0.0
C29 C 0.18467 0.27004 0.08458 0.0
H30 H 0.19332 0.23815 0.05418 0.0
H31 H 0.12704 0.37577 0.98717 0.0
O32 O 0.06017 0.17948 0.20444 0.0
C33 C 0.06786 0.32977 0.09107 0.0
Co34 Co 0.91969 0.81036 0.12893 0.0
Co35 Co 0.88636 0.74872 0.03366 0.0
C36 C 0.92494 0.85502 0.01505 0.0
O37 O 0.93161 0.85724 0.06482 0.0
O38 O 0.90674 0.81658 0.99743 0.0
C39 C 0.96047 0.87176 0.19511 0.0
O40 O 0.97644 0.86873 0.15144 0.0
C41 C 0.84343 0.73334 0.94732 0.0
C42 C 0.84048 0.63378 0.94239 0.0
C43 C 0.82925 0.68651 0.92063 0.0
N44 N 0.86191 0.70903 0.983 0.0
N45 N 0.86023 0.64956 0.97948 0.0
C46 C 0.83822 0.7999 0.94277 0.0
H47 H 0.84632 0.82363 0.9792 0.0
H48 H 0.8149 0.80929 0.93748 0.0
H49 H 0.85002 0.81764 0.90722 0.0
C50 C 0.86099 0.81441 0.17479 0.0
N51 N 0.87921 0.80214 0.134 0.0
N52 N 0.86508 0.77443 0.09517 0.0
C53 C 0.83738 0.76721 0.11061 0.0
C54 C 0.83387 0.7927 0.16138 0.0
C55 C 0.87023 0.84109 0.22751 0.0
H56 H 0.88711 0.81201 0.24573 0.0
H57 H 0.87988 0.88628 0.22032 0.0
H58 H 0.852 0.84539 0.25616 0.0
O59 O 0.93832 0.72973 0.125 0.0
O60 O 0.91601 0.68876 0.05469 0.0
H61 H 0.82312 0.6901 0.06571 0.0
H62 H 0.79451 0.72957 0.10069 0.0
C63 C 0.81494 0.73512 0.07804 0.0
H64 H 0.81039 0.7616 0.04112 0.0
H65 H 0.87219 0.61971 0.00316 0.0
O66 O 0.93501 0.85064 0.19399 0.0
C67 C 0.93498 0.68644 0.09172 0.0
Co68 Co 0.07323 0.79898 0.63138 0.0
Co69 Co 0.11039 0.75296 0.72898 0.0
C70 C 0.06725 0.85078 0.74369 0.0
O71 O 0.06033 0.84746 0.6941 0.0
O72 O 0.08718 0.81775 0.76321 0.0
C73 C 0.05815 0.88501 0.54718 0.0
O74 O 0.07799 0.92071 0.56749 0.0
C75 C 0.15275 0.74397 0.81946 0.0
C76 C 0.16685 0.64926 0.80918 0.0
C77 C 0.17171 0.70069 0.83974 0.0
N78 N 0.13795 0.71925 0.77818 0.0
N79 N 0.14634 0.6625 0.77279 0.0
C80 C 0.14812 0.80703 0.83958 0.0
H81 H 0.12563 0.82142 0.83251 0.0
H82 H 0.16254 0.83835 0.81738 0.0
H83 H 0.15287 0.81022 0.88334 0.0
C84 C 0.13129 0.80578 0.58084 0.0
N85 N 0.11387 0.79695 0.62362 0.0
N86 N 0.12958 0.78059 0.66535 0.0
C87 C 0.15763 0.78079 0.65085 0.0
C88 C 0.15963 0.7966 0.59678 0.0
C89 C 0.12089 0.81417 0.52416 0.0
H90 H 0.09922 0.79394 0.51901 0.0
H91 H 0.11984 0.86315 0.51486 0.0
H92 H 0.13593 0.79282 0.49503 0.0
O93 O 0.05858 0.71625 0.64001 0.0
O94 O 0.08331 0.68521 0.7115 0.0
H95 H 0.18295 0.71761 0.69558 0.0
H96 H 0.20299 0.78221 0.67149 0.0
C97 C 0.18205 0.76704 0.68829 0.0
H98 H 0.17849 0.79018 0.7273 0.0
H99 H 0.13839 0.63303 0.74347 0.0
O100 O 0.05373 0.83319 0.56761 0.0
C101 C 0.06432 0.67624 0.67521 0.0
Co102 Co 0.92185 0.1892 0.64906 0.0
Co103 Co 0.88883 0.2449 0.74777 0.0
C104 C 0.92958 0.14001 0.7603 0.0
O105 O 0.93543 0.13915 0.71013 0.0
O106 O 0.91149 0.17754 0.77976 0.0
C107 C 0.95549 0.1157 0.5742 0.0
O108 O 0.96686 0.08965 0.61678 0.0
C109 C 0.84631 0.25329 0.83662 0.0
C110 C 0.84283 0.35241 0.84559 0.0
C111 C 0.83213 0.29838 0.86563 0.0
N112 N 0.86412 0.27989 0.80093 0.0
N113 N 0.862 0.33908 0.80678 0.0
C114 C 0.84404 0.18625 0.8436 0.0
H115 H 0.86343 0.16336 0.8275 0.0
H116 H 0.8251 0.16932 0.82086 0.0
H117 H 0.84127 0.17459 0.88682 0.0
C118 C 0.86286 0.18515 0.60509 0.0
N119 N 0.88124 0.19525 0.64609 0.0
N120 N 0.86716 0.21989 0.68654 0.0
C121 C 0.83926 0.22671 0.67224 0.0
C122 C 0.83565 0.2049 0.62011 0.0
C123 C 0.87153 0.15865 0.55198 0.0
H124 H 0.88473 0.19209 0.52958 0.0
H125 H 0.88492 0.11784 0.55882 0.0
H126 H 0.8525 0.14604 0.52731 0.0
O127 O 0.93925 0.27065 0.6561 0.0
O128 O 0.91678 0.30887 0.7274 0.0
H129 H 0.82669 0.30303 0.71989 0.0
H130 H 0.79758 0.26987 0.68172 0.0
C131 C 0.81736 0.25993 0.70521 0.0
H132 H 0.81147 0.23212 0.74069 0.0
H133 H 0.87349 0.37046 0.78389 0.0
O134 O 0.93649 0.15649 0.58028 0.0
C135 C 0.93546 0.31315 0.68999 0.0
Co136 Co 0.5747 0.69231 0.63524 0.0
Co137 Co 0.61078 0.7434 0.53755 0.0
C138 C 0.56761 0.6449 0.522 0.0
O139 O 0.56091 0.64601 0.5718 0.0
O140 O 0.58727 0.67912 0.50311 0.0
C141 C 0.53809 0.61702 0.70356 0.0
O142 O 0.52569 0.59889 0.65877 0.0
C143 C 0.65267 0.75461 0.44653 0.0
C144 C 0.66392 0.85135 0.4536 0.0
C145 C 0.67008 0.79958 0.42434 0.0
N146 N 0.63743 0.77884 0.48746 0.0
N147 N 0.64417 0.83675 0.49104 0.0
C148 C 0.64988 0.6903 0.42847 0.0
H149 H 0.6284 0.67207 0.43893 0.0
H150 H 0.66635 0.66242 0.44925 0.0
H151 H 0.65319 0.68659 0.38428 0.0
C152 C 0.63304 0.68088 0.68152 0.0
N153 N 0.61538 0.69371 0.63998 0.0
N154 N 0.63072 0.71427 0.59932 0.0
C155 C 0.65879 0.71453 0.61359 0.0
C156 C 0.6612 0.6935 0.66621 0.0
C157 C 0.62254 0.66346 0.73646 0.0
H158 H 0.60489 0.69434 0.74878 0.0
H159 H 0.61366 0.61689 0.7349 0.0
H160 H 0.63987 0.66556 0.76716 0.0
O161 O 0.55962 0.77593 0.62976 0.0
O162 O 0.58379 0.80953 0.55844 0.0
H163 H 0.68133 0.78377 0.57078 0.0
H164 H 0.70423 0.72315 0.59454 0.0
C165 C 0.6828 0.73427 0.57739 0.0
H166 H 0.68067 0.71143 0.53787 0.0
H167 H 0.63552 0.86622 0.51961 0.0
O168 O 0.55856 0.65523 0.70145 0.0
C169 C 0.56506 0.8172 0.59542 0.0
Co170 Co 0.42461 0.30921 0.63616 0.0
Co171 Co 0.39208 0.25328 0.53683 0.0
C172 C 0.43111 0.36109 0.52568 0.0
O173 O 0.43735 0.36084 0.57564 0.0
O174 O 0.41346 0.32292 0.50589 0.0
C175 C 0.46371 0.36933 0.70769 0.0
O176 O 0.48029 0.37143 0.6648 0.0
C177 C 0.34799 0.24835 0.45122 0.0
C178 C 0.34923 0.15177 0.42854 0.0
C179 C 0.33556 0.20591 0.41698 0.0
N180 N 0.3678 0.22024 0.48191 0.0
N181 N 0.36848 0.1626 0.46798 0.0
C182 C 0.34254 0.31504 0.4527 0.0
H183 H 0.36095 0.33913 0.47139 0.0
H184 H 0.32308 0.32442 0.47721 0.0
H185 H 0.33871 0.3325 0.41135 0.0
C186 C 0.36556 0.31032 0.68003 0.0
N187 N 0.38403 0.30114 0.63902 0.0
N188 N 0.37025 0.2754 0.59869 0.0
C189 C 0.34256 0.26625 0.61335 0.0
C190 C 0.33868 0.28836 0.66528 0.0
C191 C 0.37383 0.33874 0.73259 0.0
H192 H 0.38682 0.37994 0.72493 0.0
H193 H 0.35462 0.35121 0.75678 0.0
H194 H 0.38731 0.30658 0.75588 0.0
O195 O 0.44278 0.22812 0.62862 0.0
O196 O 0.42076 0.19036 0.55643 0.0
H197 H 0.33228 0.19219 0.5607 0.0
H198 H 0.30403 0.21146 0.60768 0.0
C199 C 0.32126 0.23004 0.58146 0.0
H200 H 0.31109 0.25946 0.55075 0.0
H201 H 0.38208 0.13053 0.48549 0.0
O202 O 0.43896 0.34506 0.70417 0.0
C203 C 0.43935 0.18604 0.59408 0.0
Co204 Co 0.5797 0.31185 0.14873 0.0
Co205 Co 0.61166 0.25454 0.24803 0.0
C206 C 0.57249 0.36202 0.25971 0.0
O207 O 0.56645 0.36236 0.20966 0.0
O208 O 0.59012 0.32376 0.27939 0.0
C209 C 0.54069 0.37112 0.07698 0.0
O210 O 0.52376 0.3711 0.11944 0.0
C211 C 0.65463 0.24717 0.33571 0.0
C212 C 0.65418 0.14932 0.35369 0.0
C213 C 0.66702 0.20336 0.36855 0.0
N214 N 0.63562 0.21997 0.30264 0.0
N215 N 0.63541 0.16155 0.31379 0.0
C216 C 0.65941 0.31408 0.33776 0.0
H217 H 0.64111 0.3385 0.31909 0.0
H218 H 0.67921 0.32578 0.31504 0.0
H219 H 0.66233 0.32917 0.38011 0.0
C220 C 0.63922 0.31587 0.10702 0.0
N221 N 0.62031 0.30461 0.14692 0.0
N222 N 0.63376 0.27756 0.18694 0.0
C223 C 0.66157 0.26904 0.1729 0.0
C224 C 0.66595 0.29377 0.12218 0.0
C225 C 0.63112 0.34212 0.05353 0.0
H226 H 0.61576 0.31126 0.03304 0.0
H227 H 0.62005 0.38603 0.0598 0.0
H228 H 0.65021 0.3489 0.0273 0.0
O229 O 0.56154 0.23045 0.15478 0.0
O230 O 0.58307 0.19222 0.2272 0.0
H231 H 0.67294 0.19324 0.22241 0.0
H232 H 0.70224 0.22192 0.18155 0.0
C233 C 0.68307 0.23461 0.20575 0.0
H234 H 0.69036 0.26314 0.23981 0.0
H235 H 0.62247 0.12992 0.29405 0.0
O236 O 0.5658 0.34861 0.08083 0.0
C237 C 0.56474 0.18813 0.18914 0.0
Co238 Co 0.42333 0.70112 0.13641 0.0
Co239 Co 0.38671 0.75692 0.23034 0.0
C240 C 0.42602 0.65293 0.25 0.0
O241 O 0.43398 0.6533 0.20087 0.0
O242 O 0.40696 0.68963 0.26721 0.0
C243 C 0.44105 0.6104 0.05558 0.0
O244 O 0.42264 0.5721 0.07679 0.0
C245 C 0.34247 0.76934 0.31549 0.0
C246 C 0.33639 0.86841 0.31637 0.0
C247 C 0.32663 0.81537 0.33991 0.0
N248 N 0.36044 0.79442 0.27925 0.0
N249 N 0.35689 0.85364 0.28045 0.0
C250 C 0.33927 0.70253 0.32273 0.0
H251 H 0.3513 0.68833 0.35926 0.0
H252 H 0.34832 0.67806 0.28751 0.0
H253 H 0.31624 0.69027 0.32795 0.0
C254 C 0.36533 0.69584 0.08476 0.0
N255 N 0.38276 0.70707 0.12712 0.0
N256 N 0.36737 0.73076 0.16649 0.0
C257 C 0.33968 0.7352 0.1503 0.0
C258 C 0.3375 0.71287 0.09821 0.0
C259 C 0.37548 0.67519 0.03054 0.0
H260 H 0.39696 0.69468 0.02156 0.0
H261 H 0.37718 0.62519 0.0305 0.0
H262 H 0.36013 0.68863 0.99838 0.0
O263 O 0.44021 0.78306 0.14348 0.0
O264 O 0.41572 0.82009 0.21285 0.0
H265 H 0.3213 0.80783 0.19572 0.0
H266 H 0.29495 0.76073 0.16212 0.0
C267 C 0.31583 0.76087 0.18385 0.0
H268 H 0.31344 0.73353 0.22095 0.0
H269 H 0.36809 0.88394 0.25593 0.0
O270 O 0.44314 0.66381 0.07413 0.0
C271 C 0.43529 0.82522 0.17717 0.0
H272 H 0.05632 0.40647 0.00735 0.0
H273 H 0.9662 0.64476 0.17802 0.0
H274 H 0.03888 0.37899 0.17654 0.0
H275 H 0.94877 0.60912 0.01001 0.0
H276 H 0.99985 0.55903 0.17893 0.0
H277 H 0.02415 0.49433 0.00832 0.0
C278 C 0.04596 0.41927 0.0448 0.0
C279 C 0.05016 0.38529 0.0919 0.0
C280 C 0.98855 0.5701 0.14201 0.0
C281 C 0.01364 0.48569 0.09327 0.0
C282 C 0.96943 0.61891 0.14141 0.0
C283 C 0.95459 0.63384 0.09394 0.0
C284 C 0.99331 0.53709 0.0945 0.0
C285 C 0.95958 0.59888 0.0476 0.0
C286 C 0.0275 0.46907 0.0452 0.0
C287 C 0.03607 0.40374 0.13926 0.0
N288 N 0.97871 0.55245 0.04891 0.0
N289 N 0.01851 0.45292 0.13882 0.0
H290 H 0.9481 0.39246 0.77121 0.0
H291 H 0.03615 0.6232 0.59073 0.0
H292 H 0.9656 0.35655 0.60328 0.0
H293 H 0.05317 0.60167 0.76073 0.0
H294 H 0.00501 0.53379 0.59366 0.0
H295 H 0.98092 0.47909 0.76736 0.0
C296 C 0.95867 0.40305 0.73344 0.0
C297 C 0.95412 0.36726 0.68746 0.0
C298 C 0.01574 0.5485 0.63017 0.0
C299 C 0.99149 0.46628 0.68286 0.0
C300 C 0.03344 0.59947 0.6286 0.0
C301 C 0.04728 0.61979 0.67557 0.0
C302 C 0.01131 0.5185 0.6793 0.0
C303 C 0.04305 0.5873 0.72353 0.0
C304 C 0.97754 0.45214 0.73143 0.0
C305 C 0.96857 0.38283 0.6397 0.0
N306 N 0.02515 0.53862 0.72433 0.0
N307 N 0.98647 0.43149 0.63851 0.0
H308 H 0.55592 0.89621 0.51254 0.0
H309 H 0.46835 0.14007 0.68137 0.0
H310 H 0.53543 0.86712 0.68031 0.0
H311 H 0.45311 0.10904 0.51192 0.0
H312 H 0.4999 0.05091 0.68314 0.0
H313 H 0.52553 0.98659 0.51311 0.0
C314 C 0.54525 0.90912 0.54965 0.0
C315 C 0.54814 0.87395 0.59644 0.0
C316 C 0.48955 0.06374 0.64571 0.0
C317 C 0.51355 0.97751 0.59732 0.0
C318 C 0.47165 0.11458 0.64459 0.0
C319 C 0.45801 0.13185 0.59645 0.0
C320 C 0.49435 0.03095 0.5981 0.0
C321 C 0.46302 0.09712 0.54998 0.0
C322 C 0.52778 0.96045 0.54979 0.0
C323 C 0.53366 0.89275 0.64328 0.0
N324 N 0.48098 0.04865 0.55185 0.0
N325 N 0.51707 0.9435 0.64264 0.0
H326 H 0.46652 0.87167 0.09288 0.0
H327 H 0.55087 0.11095 0.27091 0.0
H328 H 0.44576 0.90339 0.26015 0.0
H329 H 0.53578 0.14245 0.10148 0.0
H330 H 0.51866 0.02353 0.26696 0.0
H331 H 0.49798 0.96101 0.09437 0.0
C332 C 0.46855 0.89743 0.12984 0.0
C333 C 0.45348 0.88016 0.17646 0.0
C334 C 0.52243 0.04963 0.23069 0.0
C335 C 0.48969 0.98125 0.17857 0.0
C336 C 0.54093 0.09927 0.23278 0.0
C337 C 0.54599 0.13408 0.18643 0.0
C338 C 0.50934 0.03384 0.18169 0.0
C339 C 0.53236 0.11698 0.13819 0.0
C340 C 0.48639 0.94838 0.13056 0.0
C341 C 0.45684 0.91525 0.22322 0.0
N342 N 0.51479 0.06769 0.13694 0.0
N343 N 0.47482 0.96375 0.22325 0.0
H344 H 0.3299 0.15015 0.31972 0.0
H345 H 0.17047 0.27441 0.26757 0.0
H346 H 0.28687 0.27623 0.42513 0.0
H347 H 0.21782 0.17027 0.15054 0.0
H348 H 0.21307 0.27577 0.32587 0.0
H349 H 0.28927 0.15676 0.25705 0.0
C350 C 0.31204 0.17979 0.32935 0.0
C351 C 0.31203 0.21356 0.37725 0.0
C352 C 0.21424 0.25274 0.28741 0.0
C353 C 0.26528 0.22073 0.30618 0.0
C354 C 0.18991 0.25172 0.25435 0.0
C355 C 0.19069 0.22152 0.20473 0.0
C356 C 0.23951 0.2231 0.27073 0.0
C357 C 0.21645 0.19376 0.18876 0.0
C358 C 0.28888 0.18361 0.29356 0.0
C359 C 0.28826 0.25085 0.388 0.0
N360 N 0.23982 0.19481 0.22186 0.0
N361 N 0.26579 0.25317 0.35289 0.0
H362 H 0.68616 0.88919 0.35559 0.0
H363 H 0.80589 0.69421 0.20158 0.0
H364 H 0.70526 0.70358 0.39562 0.0
H365 H 0.80378 0.88886 0.20005 0.0
H366 H 0.76415 0.69377 0.26256 0.0
H367 H 0.72462 0.88703 0.28838 0.0
C368 C 0.69816 0.84768 0.34983 0.0
C369 C 0.69192 0.79609 0.38069 0.0
C370 C 0.77274 0.73657 0.24871 0.0
C371 C 0.73614 0.79345 0.30381 0.0
C372 C 0.79638 0.73677 0.21386 0.0
C373 C 0.80801 0.79166 0.19598 0.0
C374 C 0.76059 0.79172 0.26531 0.0
C375 C 0.79528 0.8457 0.21314 0.0
C376 C 0.72014 0.84656 0.31148 0.0
C377 C 0.70838 0.74376 0.37162 0.0
N378 N 0.77218 0.84443 0.24683 0.0
N379 N 0.72971 0.74379 0.334 0.0
H380 H 0.28135 0.89237 0.34876 0.0
H381 H 0.20319 0.71336 0.58792 0.0
H382 H 0.31737 0.73234 0.42204 0.0
H383 H 0.17472 0.88561 0.52659 0.0
H384 H 0.24487 0.7177 0.52718 0.0
H385 H 0.24175 0.88887 0.41295 0.0
C386 C 0.28091 0.85624 0.37822 0.0
C387 C 0.30251 0.81183 0.37908 0.0
C388 C 0.22959 0.75468 0.52721 0.0
C389 C 0.257 0.80762 0.45317 0.0
C390 C 0.20593 0.75238 0.56206 0.0
C391 C 0.18563 0.79935 0.56227 0.0
C392 C 0.23278 0.80415 0.49218 0.0
C393 C 0.1898 0.84828 0.5273 0.0
C394 C 0.25822 0.85427 0.41492 0.0
C395 C 0.30077 0.76632 0.41844 0.0
N396 N 0.21285 0.84935 0.4936 0.0
N397 N 0.27835 0.76528 0.45383 0.0
H398 H 0.8313 0.26126 0.52305 0.0
H399 H 0.67168 0.14358 0.46404 0.0
H400 H 0.78174 0.16 0.63887 0.0
H401 H 0.71541 0.27484 0.3649 0.0
H402 H 0.71168 0.14781 0.52837 0.0
H403 H 0.78904 0.26586 0.46406 0.0
C404 C 0.81141 0.24 0.5359 0.0
C405 C 0.80988 0.20979 0.58543 0.0
C406 C 0.71233 0.17633 0.49291 0.0
C407 C 0.76151 0.21479 0.51851 0.0
C408 C 0.68955 0.17387 0.45618 0.0
C409 C 0.68998 0.20973 0.40955 0.0
C410 C 0.736 0.21412 0.4824 0.0
C411 C 0.71373 0.24779 0.40103 0.0
C412 C 0.78729 0.24285 0.50245 0.0
C413 C 0.78365 0.1836 0.60079 0.0
N414 N 0.73587 0.24867 0.43691 0.0
N415 N 0.76049 0.18627 0.56722 0.0
H416 H 0.81827 0.77274 0.84211 0.0
H417 H 0.68027 0.59835 0.72603 0.0
H418 H 0.78668 0.60371 0.90597 0.0
H419 H 0.70104 0.78234 0.6841 0.0
H420 H 0.72208 0.59595 0.78628 0.0
H421 H 0.77808 0.77413 0.77854 0.0
C422 C 0.80268 0.73648 0.84359 0.0
C423 C 0.80548 0.6889 0.88067 0.0
C424 C 0.7176 0.63683 0.76379 0.0
C425 C 0.75997 0.6891 0.80644 0.0
C426 C 0.69377 0.63814 0.72949 0.0
C427 C 0.68732 0.69058 0.70028 0.0
C428 C 0.73515 0.68834 0.76873 0.0
C429 C 0.70552 0.74085 0.70566 0.0
C430 C 0.77989 0.73695 0.80672 0.0
C431 C 0.78531 0.64158 0.87845 0.0
N432 N 0.72862 0.73856 0.73935 0.0
N433 N 0.76342 0.64297 0.84216 0.0
H434 H 0.21903 0.22212 0.92585 0.0
H435 H 0.28431 0.3267 0.64174 0.0
H436 H 0.17646 0.34824 0.81985 0.0
H437 H 0.33416 0.23851 0.7654 0.0
H438 H 0.24174 0.3219 0.70043 0.0
H439 H 0.25852 0.21394 0.86106 0.0
C440 C 0.21763 0.24694 0.88839 0.0
C441 C 0.19423 0.28524 0.87782 0.0
C442 C 0.26198 0.30349 0.71468 0.0
C443 C 0.23967 0.27732 0.80413 0.0
C444 C 0.28615 0.30612 0.68122 0.0
C445 C 0.31266 0.28368 0.69929 0.0
C446 C 0.26438 0.27763 0.76626 0.0
C447 C 0.31411 0.25718 0.75053 0.0
C448 C 0.24038 0.24288 0.85171 0.0
C449 C 0.19412 0.31813 0.82945 0.0
N450 N 0.29029 0.25496 0.78233 0.0
N451 N 0.21649 0.31344 0.79437 0.0
H452 H 0.68947 0.19515 0.07368 0.0
H453 H 0.82116 0.37891 0.94587 0.0
H454 H 0.7011 0.38687 0.09478 0.0
H455 H 0.79066 0.2095 0.88072 0.0
H456 H 0.78214 0.37631 0.01187 0.0
H457 H 0.73178 0.19311 0.01396 0.0
C458 C 0.7012 0.23661 0.06594 0.0
C459 C 0.69215 0.29122 0.08887 0.0
C460 C 0.78425 0.33938 0.98346 0.0
C461 C 0.74016 0.28945 0.02132 0.0
C462 C 0.80653 0.34072 0.94577 0.0
C463 C 0.80971 0.29373 0.90812 0.0
C464 C 0.76494 0.29062 0.98373 0.0
C465 C 0.78995 0.24563 0.90991 0.0
C466 C 0.72515 0.23555 0.03188 0.0
C467 C 0.70767 0.34397 0.07769 0.0
N468 N 0.76843 0.2453 0.94711 0.0
N469 N 0.73103 0.34182 0.04472 0.0
H470 H 0.20418 0.80062 0.86899 0.0
H471 H 0.31331 0.61426 0.05117 0.0
H472 H 0.1921 0.61124 0.90456 0.0
H473 H 0.30414 0.80741 0.06522 0.0
H474 H 0.27132 0.61191 0.99099 0.0
H475 H 0.2428 0.80441 0.93558 0.0
C476 C 0.20896 0.76022 0.89175 0.0
C477 C 0.19414 0.70589 0.88216 0.0
C478 C 0.27835 0.65477 0.00752 0.0
C479 C 0.23953 0.70935 0.95654 0.0
C480 C 0.30228 0.65606 0.04159 0.0
C481 C 0.31182 0.71099 0.06319 0.0
C482 C 0.26429 0.70903 0.99426 0.0
C483 C 0.29709 0.76414 0.0496 0.0
C484 C 0.23137 0.76228 0.92933 0.0
C485 C 0.20274 0.65422 0.91089 0.0
N486 N 0.2741 0.76195 0.01564 0.0
N487 N 0.22493 0.65713 0.94654 0.0
H488 H 0.01485 0.2001 0.26088 0.0
H489 H 0.0016 0.04434 0.54512 0.0
H490 H 0.0577 0.03063 0.29238 0.0
H491 H 0.93575 0.16066 0.47881 0.0
H492 H 0.02413 0.03922 0.45582 0.0
H493 H 0.98742 0.18809 0.34379 0.0
C494 C 0.01845 0.16022 0.28533 0.0
C495 C 0.03869 0.11645 0.27004 0.0
C496 C 0.00439 0.06458 0.46075 0.0
C497 C 0.00747 0.10263 0.36537 0.0
C498 C 0.99159 0.06786 0.5117 0.0
C499 C 0.96702 0.10387 0.51966 0.0
C500 C 0.99253 0.09758 0.41781 0.0
C501 C 0.95492 0.13312 0.47485 0.0
C502 C 0.00264 0.15319 0.33248 0.0
C503 C 0.04228 0.0654 0.30292 0.0
N504 N 0.96799 0.12992 0.42608 0.0
N505 N 0.02707 0.06026 0.34966 0.0
H506 H 0.0805 0.93433 0.45541 0.0
H507 H 0.93368 0.88151 0.2929 0.0
H508 H 0.00137 0.87016 0.52612 0.0
H509 H 0.01606 0.90778 0.21531 0.0
H510 H 0.95639 0.90025 0.37998 0.0
H511 H 0.05565 0.94503 0.36847 0.0
C512 C 0.05772 0.92401 0.45278 0.0
C513 C 0.04284 0.90123 0.4975 0.0
C514 C 0.96947 0.90242 0.34386 0.0
C515 C 0.01431 0.91409 0.3992 0.0
C516 C 0.9565 0.89184 0.29407 0.0
C517 C 0.97311 0.89185 0.24682 0.0
C518 C 0.99929 0.91281 0.34654 0.0
C519 C 0.00251 0.90643 0.25081 0.0
C520 C 0.0436 0.92981 0.40327 0.0
C521 C 0.01351 0.88764 0.49225 0.0
N522 N 0.01476 0.91554 0.29994 0.0
N523 N 1.00018 0.89425 0.44394 0.0
H524 H 0.01463 0.90126 0.72175 0.0
H525 H 0.97627 0.91245 0.03357 0.0
H526 H 0.07611 0.87717 0.85072 0.0
H527 H 0.9152 0.87293 0.90695 0.0
H528 H 0.01196 0.93902 0.96542 0.0
H529 H 0.97835 0.93066 0.78802 0.0
C530 C 0.02081 0.9037 0.76382 0.0
C531 C 0.04828 0.88492 0.78086 0.0
C532 C 0.99049 0.92613 0.95266 0.0
C533 C 0.00677 0.91864 0.85667 0.0
C534 C 0.96999 0.91117 0.99153 0.0
C535 C 0.9429 0.88871 0.9759 0.0
C536 C 0.98372 0.91955 0.89787 0.0
C537 C 0.93602 0.88872 0.92078 0.0
C538 C 0.99998 0.92021 0.8016 0.0
C539 C 0.05503 0.8899 0.83586 0.0
N540 N 0.95648 0.90288 0.88366 0.0
N541 N 0.03426 0.90533 0.87194 0.0
H542 H 0.0206 0.09639 0.05055 0.0
H543 H 0.98174 0.08704 0.73927 0.0
H544 H 0.08137 0.12534 0.92128 0.0
H545 H 0.9204 0.11636 0.86751 0.0
H546 H 0.0181 0.06047 0.80635 0.0
H547 H 0.98487 0.06344 0.98456 0.0
C548 C 0.02677 0.09418 0.00849 0.0
C549 C 0.05378 0.11545 0.99124 0.0
C550 C 0.99647 0.07128 0.81965 0.0
C551 C 0.01293 0.07762 0.9157 0.0
C552 C 0.97559 0.08609 0.78139 0.0
C553 C 0.94819 0.10579 0.79795 0.0
C554 C 0.98977 0.07546 0.87468 0.0
C555 C 0.94146 0.1029 0.85305 0.0
C556 C 0.00627 0.07558 0.97084 0.0
C557 C 0.06059 0.11073 0.93625 0.0
N558 N 0.96228 0.08917 0.88957 0.0
N559 N 0.0401 0.09331 0.90028 0.0
H560 H 0.49556 0.64614 0.03435 0.0
H561 H 0.48824 0.55432 0.72599 0.0
H562 H 0.42641 0.53775 0.96993 0.0
H563 H 0.56228 0.63605 0.80228 0.0
H564 H 0.46716 0.53684 0.81526 0.0
H565 H 0.52249 0.63149 0.95122 0.0
C566 C 0.48621 0.61867 0.00267 0.0
C567 C 0.45866 0.59374 0.00852 0.0
C568 C 0.48819 0.55785 0.81238 0.0
C569 C 0.48903 0.57779 0.91248 0.0
C570 C 0.50023 0.5679 0.76145 0.0
C571 C 0.52676 0.59801 0.75664 0.0
C572 C 0.50287 0.57795 0.85859 0.0
C573 C 0.54151 0.61383 0.80394 0.0
C574 C 0.50159 0.61016 0.95518 0.0
C575 C 0.4476 0.5579 0.96667 0.0
N576 N 0.52923 0.60422 0.85278 0.0
N577 N 0.46262 0.55195 0.91977 0.0
H578 H 0.5188 0.403 0.73416 0.0
H579 H 0.4855 0.40366 0.05025 0.0
H580 H 0.43389 0.38012 0.80237 0.0
H581 H 0.5706 0.38246 0.98239 0.0
H582 H 0.46645 0.42057 0.95961 0.0
H583 H 0.53784 0.42105 0.82472 0.0
C584 C 0.50409 0.40242 0.76806 0.0
C585 C 0.47481 0.38869 0.76084 0.0
C586 C 0.48935 0.41297 0.96469 0.0
C587 C 0.49646 0.40931 0.86439 0.0
C588 C 0.50026 0.40337 0.01642 0.0
C589 C 0.5296 0.39031 0.02378 0.0
C590 C 0.50793 0.40983 0.9201 0.0
C591 C 0.54775 0.39127 0.97849 0.0
C592 C 0.515 0.41258 0.81973 0.0
C593 C 0.4567 0.38941 0.80618 0.0
N594 N 0.53656 0.40018 0.92851 0.0
N595 N 0.46787 0.3989 0.85609 0.0
H596 H 0.58356 0.38978 0.36544 0.0
H597 H 0.41988 0.38925 0.42008 0.0
H598 H 0.52059 0.41625 0.23953 0.0
H599 H 0.48287 0.41592 0.54595 0.0
H600 H 0.45546 0.42202 0.35377 0.0
H601 H 0.54792 0.42218 0.43176 0.0
C602 C 0.56245 0.40381 0.3516 0.0
C603 C 0.55476 0.39847 0.2971 0.0
C604 C 0.46134 0.42206 0.39602 0.0
C605 C 0.51362 0.43377 0.37286 0.0
C606 C 0.44098 0.40341 0.43393 0.0
C607 C 0.4487 0.39798 0.4884 0.0
C608 C 0.48977 0.43367 0.41265 0.0
C609 C 0.47615 0.41812 0.50421 0.0
C610 C 0.54205 0.42226 0.3895 0.0
C611 C 0.52729 0.41843 0.2813 0.0
N612 N 0.49598 0.43333 0.46632 0.0
N613 N 0.50742 0.43346 0.31919 0.0
H614 H 0.57798 0.61642 0.41606 0.0
H615 H 0.41414 0.63197 0.35687 0.0
H616 H 0.5137 0.59941 0.54095 0.0
H617 H 0.47722 0.59428 0.2334 0.0
H618 H 0.44892 0.60026 0.4251 0.0
H619 H 0.54167 0.58863 0.34925 0.0
C620 C 0.55639 0.60554 0.42959 0.0
C621 C 0.54869 0.61195 0.48399 0.0
C622 C 0.45496 0.59764 0.38299 0.0
C623 C 0.50684 0.58186 0.40764 0.0
C624 C 0.43506 0.6157 0.34398 0.0
C625 C 0.44307 0.61764 0.28945 0.0
C626 C 0.48322 0.58287 0.36737 0.0
C627 C 0.47028 0.5949 0.27506 0.0
C628 C 0.53562 0.58976 0.3914 0.0
C629 C 0.52052 0.59618 0.49932 0.0
N630 N 0.48967 0.5801 0.31389 0.0
N631 N 0.5004 0.58353 0.46117 0.0
loop_
_geom_bond_atom_site_label_1
_geom_bond_atom_site_label_2
_geom_bond_distance
_geom_bond_site_symmetry_2
_ccdc_geom_bond_type
Co0 O3 1.970 . S
Co0 N17 1.989 . S
Co0 O25 1.967 . S
Co0 O32 1.920 . S
Co1 O4 1.966 1_554 S
Co1 N10 2.022 1_554 S
Co1 N18 1.993 . S
Co1 O26 1.941 . S
C2 O3 1.258 . S
C2 O4 1.263 1_554 S
O3 Co0 1.970 . S
O3 C2 1.258 . S
O4 Co1 1.966 1_556 S
O4 C2 1.263 1_556 S
C5 O6 1.235 . S
C5 O32 1.289 . S
O6 C5 1.235 . S
C7 C9 1.400 . S
C7 N10 1.351 . S
C7 C12 1.501 . S
C8 C9 1.387 . S
C8 N11 1.341 . S
C9 C7 1.400 . S
C9 C8 1.387 . S
N10 Co1 2.022 1_556 S
N10 C7 1.351 . S
N10 N11 1.365 . S
N11 C8 1.341 . S
N11 N10 1.365 . S
N11 H31 0.862 . S
C12 C7 1.501 . S
C12 H13 0.961 . S
C12 H14 0.961 . S
C12 H15 0.960 . S
H13 C12 0.961 . S
H14 C12 0.961 . S
H15 C12 0.960 . S
C16 N17 1.342 . S
C16 C20 1.401 . S
C16 C21 1.499 . S
N17 Co0 1.989 . S
N17 C16 1.342 . S
N17 N18 1.388 . S
N18 Co1 1.993 . S
N18 N17 1.388 . S
N18 C19 1.346 . S
C19 N18 1.346 . S
C19 C20 1.396 . S
C19 C29 1.510 . S
C20 C16 1.401 . S
C20 C19 1.396 . S
C21 C16 1.499 . S
C21 H22 0.959 . S
C21 H23 0.960 . S
C21 H24 0.961 . S
H22 C21 0.959 . S
H23 C21 0.960 . S
H24 C21 0.961 . S
O25 Co0 1.967 . S
O25 C33 1.258 . S
O26 Co1 1.941 . S
O26 C33 1.266 . S
H27 C29 0.959 . S
H28 C29 0.961 . S
C29 C19 1.510 . S
C29 H27 0.959 . S
C29 H28 0.961 . S
C29 H30 0.960 . S
H30 C29 0.960 . S
H31 N11 0.862 . S
O32 Co0 1.920 . S
O32 C5 1.289 . S
C33 O25 1.258 . S
C33 O26 1.266 . S
Co34 O37 1.970 . S
Co34 N51 1.989 . S
Co34 O59 1.967 . S
Co34 O66 1.920 . S
Co35 O38 1.966 1_554 S
Co35 N44 2.022 1_554 S
Co35 N52 1.993 . S
Co35 O60 1.941 . S
C36 O37 1.258 . S
C36 O38 1.263 1_554 S
O37 Co34 1.970 . S
O37 C36 1.258 . S
O38 Co35 1.966 1_556 S
O38 C36 1.263 1_556 S
C39 O40 1.235 . S
C39 O66 1.289 . S
O40 C39 1.235 . S
C41 C43 1.400 . S
C41 N44 1.351 . S
C41 C46 1.501 . S
C42 C43 1.387 . S
C42 N45 1.341 . S
C43 C41 1.400 . S
C43 C42 1.387 . S
N44 Co35 2.022 1_556 S
N44 C41 1.351 . S
N44 N45 1.365 . S
N45 C42 1.341 . S
N45 N44 1.365 . S
N45 H65 0.862 . S
C46 C41 1.501 . S
C46 H47 0.961 . S
C46 H48 0.961 . S
C46 H49 0.960 . S
H47 C46 0.961 . S
H48 C46 0.961 . S
H49 C46 0.960 . S
C50 N51 1.342 . S
C50 C54 1.401 . S
C50 C55 1.499 . S
N51 Co34 1.989 . S
N51 C50 1.342 . S
N51 N52 1.388 . S
N52 Co35 1.993 . S
N52 N51 1.388 . S
N52 C53 1.346 . S
C53 N52 1.346 . S
C53 C54 1.396 . S
C53 C63 1.510 . S
C54 C50 1.401 . S
C54 C53 1.396 . S
C55 C50 1.499 . S
C55 H56 0.959 . S
C55 H57 0.960 . S
C55 H58 0.961 . S
H56 C55 0.959 . S
H57 C55 0.960 . S
H58 C55 0.961 . S
O59 Co34 1.967 . S
O59 C67 1.258 . S
O60 Co35 1.941 . S
O60 C67 1.266 . S
H61 C63 0.959 . S
H62 C63 0.961 . S
C63 C53 1.510 . S
C63 H61 0.959 . S
C63 H62 0.961 . S
C63 H64 0.960 . S
H64 C63 0.960 . S
H65 N45 0.862 . S
O66 Co34 1.920 . S
O66 C39 1.289 . S
C67 O59 1.258 . S
C67 O60 1.266 . S
Co68 O71 1.970 . S
Co68 N85 1.989 . S
Co68 O93 1.967 . S
Co68 O100 1.920 . S
Co69 O72 1.966 . S
Co69 N78 2.022 . S
Co69 N86 1.993 . S
Co69 O94 1.941 . S
C70 O71 1.258 . S
C70 O72 1.263 . S
O71 Co68 1.970 . S
O71 C70 1.258 . S
O72 Co69 1.966 . S
O72 C70 1.263 . S
C73 O74 1.235 . S
C73 O100 1.289 . S
O74 C73 1.235 . S
C75 C77 1.400 . S
C75 N78 1.351 . S
C75 C80 1.501 . S
C76 C77 1.387 . S
C76 N79 1.341 . S
C77 C75 1.400 . S
C77 C76 1.387 . S
N78 Co69 2.022 . S
N78 C75 1.351 . S
N78 N79 1.365 . S
N79 C76 1.341 . S
N79 N78 1.365 . S
N79 H99 0.862 . S
C80 C75 1.501 . S
C80 H81 0.961 . S
C80 H82 0.961 . S
C80 H83 0.960 . S
H81 C80 0.961 . S
H82 C80 0.961 . S
H83 C80 0.960 . S
C84 N85 1.342 . S
C84 C88 1.401 . S
C84 C89 1.499 . S
N85 Co68 1.989 . S
N85 C84 1.342 . S
N85 N86 1.388 . S
N86 Co69 1.993 . S
N86 N85 1.388 . S
N86 C87 1.346 . S
C87 N86 1.346 . S
C87 C88 1.396 . S
C87 C97 1.510 . S
C88 C84 1.401 . S
C88 C87 1.396 . S
C89 C84 1.499 . S
C89 H90 0.959 . S
C89 H91 0.960 . S
C89 H92 0.961 . S
H90 C89 0.959 . S
H91 C89 0.960 . S
H92 C89 0.961 . S
O93 Co68 1.967 . S
O93 C101 1.258 . S
O94 Co69 1.941 . S
O94 C101 1.266 . S
H95 C97 0.959 . S
H96 C97 0.961 . S
C97 C87 1.510 . S
C97 H95 0.959 . S
C97 H96 0.961 . S
C97 H98 0.960 . S
H98 C97 0.960 . S
H99 N79 0.862 . S
O100 Co68 1.920 . S
O100 C73 1.289 . S
C101 O93 1.258 . S
C101 O94 1.266 . S
Co102 O105 1.970 . S
Co102 N119 1.989 . S
Co102 O127 1.967 . S
Co102 O134 1.920 . S
Co103 O106 1.966 . S
Co103 N112 2.022 . S
Co103 N120 1.993 . S
Co103 O128 1.941 . S
C104 O105 1.258 . S
C104 O106 1.263 . S
O105 Co102 1.970 . S
O105 C104 1.258 . S
O106 Co103 1.966 . S
O106 C104 1.263 . S
C107 O108 1.235 . S
C107 O134 1.289 . S
O108 C107 1.235 . S
C109 C111 1.400 . S
C109 N112 1.351 . S
C109 C114 1.501 . S
C110 C111 1.387 . S
C110 N113 1.341 . S
C111 C109 1.400 . S
C111 C110 1.387 . S
N112 Co103 2.022 . S
N112 C109 1.351 . S
N112 N113 1.365 . S
N113 C110 1.341 . S
N113 N112 1.365 . S
N113 H133 0.862 . S
C114 C109 1.501 . S
C114 H115 0.961 . S
C114 H116 0.961 . S
C114 H117 0.960 . S
H115 C114 0.961 . S
H116 C114 0.961 . S
H117 C114 0.960 . S
C118 N119 1.342 . S
C118 C122 1.401 . S
C118 C123 1.499 . S
N119 Co102 1.989 . S
N119 C118 1.342 . S
N119 N120 1.388 . S
N120 Co103 1.993 . S
N120 N119 1.388 . S
N120 C121 1.346 . S
C121 N120 1.346 . S
C121 C122 1.396 . S
C121 C131 1.510 . S
C122 C118 1.401 . S
C122 C121 1.396 . S
C123 C118 1.499 . S
C123 H124 0.959 . S
C123 H125 0.960 . S
C123 H126 0.961 . S
H124 C123 0.959 . S
H125 C123 0.960 . S
H126 C123 0.961 . S
O127 Co102 1.967 . S
O127 C135 1.258 . S
O128 Co103 1.941 . S
O128 C135 1.266 . S
H129 C131 0.959 . S
H130 C131 0.961 . S
C131 C121 1.510 . S
C131 H129 0.959 . S
C131 H130 0.961 . S
C131 H132 0.960 . S
H132 C131 0.960 . S
H133 N113 0.862 . S
O134 Co102 1.920 . S
O134 C107 1.289 . S
C135 O127 1.258 . S
C135 O128 1.266 . S
Co136 O139 1.970 . S
Co136 N153 1.989 . S
Co136 O161 1.967 . S
Co136 O168 1.920 . S
Co137 O140 1.966 . S
Co137 N146 2.022 . S
Co137 N154 1.993 . S
Co137 O162 1.941 . S
C138 O139 1.258 . S
C138 O140 1.263 . S
O139 Co136 1.970 . S
O139 C138 1.258 . S
O140 Co137 1.966 . S
O140 C138 1.263 . S
C141 O142 1.235 . S
C141 O168 1.289 . S
O142 C141 1.235 . S
C143 C145 1.400 . S
C143 N146 1.351 . S
C143 C148 1.501 . S
C144 C145 1.387 . S
C144 N147 1.341 . S
C145 C143 1.400 . S
C145 C144 1.387 . S
N146 Co137 2.022 . S
N146 C143 1.351 . S
N146 N147 1.365 . S
N147 C144 1.341 . S
N147 N146 1.365 . S
N147 H167 0.862 . S
C148 C143 1.501 . S
C148 H149 0.961 . S
C148 H150 0.961 . S
C148 H151 0.960 . S
H149 C148 0.961 . S
H150 C148 0.961 . S
H151 C148 0.960 . S
C152 N153 1.342 . S
C152 C156 1.401 . S
C152 C157 1.499 . S
N153 Co136 1.989 . S
N153 C152 1.342 . S
N153 N154 1.388 . S
N154 Co137 1.993 . S
N154 N153 1.388 . S
N154 C155 1.346 . S
C155 N154 1.346 . S
C155 C156 1.396 . S
C155 C165 1.510 . S
C156 C152 1.401 . S
C156 C155 1.396 . S
C157 C152 1.499 . S
C157 H158 0.959 . S
C157 H159 0.960 . S
C157 H160 0.961 . S
H158 C157 0.959 . S
H159 C157 0.960 . S
H160 C157 0.961 . S
O161 Co136 1.967 . S
O161 C169 1.258 . S
O162 Co137 1.941 . S
O162 C169 1.266 . S
H163 C165 0.959 . S
H164 C165 0.961 . S
C165 C155 1.510 . S
C165 H163 0.959 . S
C165 H164 0.961 . S
C165 H166 0.960 . S
H166 C165 0.960 . S
H167 N147 0.862 . S
O168 Co136 1.920 . S
O168 C141 1.289 . S
C169 O161 1.258 . S
C169 O162 1.266 . S
Co170 O173 1.970 . S
Co170 N187 1.989 . S
Co170 O195 1.967 . S
Co170 O202 1.920 . S
Co171 O174 1.966 . S
Co171 N180 2.022 . S
Co171 N188 1.993 . S
Co171 O196 1.941 . S
C172 O173 1.258 . S
C172 O174 1.263 . S
O173 Co170 1.970 . S
O173 C172 1.258 . S
O174 Co171 1.966 . S
O174 C172 1.263 . S
C175 O176 1.235 . S
C175 O202 1.289 . S
O176 C175 1.235 . S
C177 C179 1.400 . S
C177 N180 1.351 . S
C177 C182 1.501 . S
C178 C179 1.387 . S
C178 N181 1.341 . S
C179 C177 1.400 . S
C179 C178 1.387 . S
N180 Co171 2.022 . S
N180 C177 1.351 . S
N180 N181 1.365 . S
N181 C178 1.341 . S
N181 N180 1.365 . S
N181 H201 0.862 . S
C182 C177 1.501 . S
C182 H183 0.961 . S
C182 H184 0.961 . S
C182 H185 0.960 . S
H183 C182 0.961 . S
H184 C182 0.961 . S
H185 C182 0.960 . S
C186 N187 1.342 . S
C186 C190 1.401 . S
C186 C191 1.499 . S
N187 Co170 1.989 . S
N187 C186 1.342 . S
N187 N188 1.388 . S
N188 Co171 1.993 . S
N188 N187 1.388 . S
N188 C189 1.346 . S
C189 N188 1.346 . S
C189 C190 1.396 . S
C189 C199 1.510 . S
C190 C186 1.401 . S
C190 C189 1.396 . S
C191 C186 1.499 . S
C191 H192 0.959 . S
C191 H193 0.960 . S
C191 H194 0.961 . S
H192 C191 0.959 . S
H193 C191 0.960 . S
H194 C191 0.961 . S
O195 Co170 1.967 . S
O195 C203 1.258 . S
O196 Co171 1.941 . S
O196 C203 1.266 . S
H197 C199 0.959 . S
H198 C199 0.961 . S
C199 C189 1.510 . S
C199 H197 0.959 . S
C199 H198 0.961 . S
C199 H200 0.960 . S
H200 C199 0.960 . S
H201 N181 0.862 . S
O202 Co170 1.920 . S
O202 C175 1.289 . S
C203 O195 1.258 . S
C203 O196 1.266 . S
Co204 O207 1.970 . S
Co204 N221 1.989 . S
Co204 O229 1.967 . S
Co204 O236 1.920 . S
Co205 O208 1.966 . S
Co205 N214 2.022 . S
Co205 N222 1.993 . S
Co205 O230 1.941 . S
C206 O207 1.258 . S
C206 O208 1.263 . S
O207 Co204 1.970 . S
O207 C206 1.258 . S
O208 Co205 1.966 . S
O208 C206 1.263 . S
C209 O210 1.235 . S
C209 O236 1.289 . S
O210 C209 1.235 . S
C211 C213 1.400 . S
C211 N214 1.351 . S
C211 C216 1.501 . S
C212 C213 1.387 . S
C212 N215 1.341 . S
C213 C211 1.400 . S
C213 C212 1.387 . S
N214 Co205 2.022 . S
N214 C211 1.351 . S
N214 N215 1.365 . S
N215 C212 1.341 . S
N215 N214 1.365 . S
N215 H235 0.862 . S
C216 C211 1.501 . S
C216 H217 0.961 . S
C216 H218 0.961 . S
C216 H219 0.960 . S
H217 C216 0.961 . S
H218 C216 0.961 . S
H219 C216 0.960 . S
C220 N221 1.342 . S
C220 C224 1.401 . S
C220 C225 1.499 . S
N221 Co204 1.989 . S
N221 C220 1.342 . S
N221 N222 1.388 . S
N222 Co205 1.993 . S
N222 N221 1.388 . S
N222 C223 1.346 . S
C223 N222 1.346 . S
C223 C224 1.396 . S
C223 C233 1.510 . S
C224 C220 1.401 . S
C224 C223 1.396 . S
C225 C220 1.499 . S
C225 H226 0.959 . S
C225 H227 0.960 . S
C225 H228 0.961 . S
H226 C225 0.959 . S
H227 C225 0.960 . S
H228 C225 0.961 . S
O229 Co204 1.967 . S
O229 C237 1.258 . S
O230 Co205 1.941 . S
O230 C237 1.266 . S
H231 C233 0.959 . S
H232 C233 0.961 . S
C233 C223 1.510 . S
C233 H231 0.959 . S
C233 H232 0.961 . S
C233 H234 0.960 . S
H234 C233 0.960 . S
H235 N215 0.862 . S
O236 Co204 1.920 . S
O236 C209 1.289 . S
C237 O229 1.258 . S
C237 O230 1.266 . S
Co238 O241 1.970 . S
Co238 N255 1.989 . S
Co238 O263 1.967 . S
Co238 O270 1.920 . S
Co239 O242 1.966 . S
Co239 N248 2.022 . S
Co239 N256 1.993 . S
Co239 O264 1.941 . S
C240 O241 1.258 . S
C240 O242 1.263 . S
O241 Co238 1.970 . S
O241 C240 1.258 . S
O242 Co239 1.966 . S
O242 C240 1.263 . S
C243 O244 1.235 . S
C243 O270 1.289 . S
O244 C243 1.235 . S
C245 C247 1.400 . S
C245 N248 1.351 . S
C245 C250 1.501 . S
C246 C247 1.387 . S
C246 N249 1.341 . S
C247 C245 1.400 . S
C247 C246 1.387 . S
N248 Co239 2.022 . S
N248 C245 1.351 . S
N248 N249 1.365 . S
N249 C246 1.341 . S
N249 N248 1.365 . S
N249 H269 0.862 . S
C250 C245 1.501 . S
C250 H251 0.961 . S
C250 H252 0.961 . S
C250 H253 0.960 . S
H251 C250 0.961 . S
H252 C250 0.961 . S
H253 C250 0.960 . S
C254 N255 1.342 . S
C254 C258 1.401 . S
C254 C259 1.499 . S
N255 Co238 1.989 . S
N255 C254 1.342 . S
N255 N256 1.388 . S
N256 Co239 1.993 . S
N256 N255 1.388 . S
N256 C257 1.346 . S
C257 N256 1.346 . S
C257 C258 1.396 . S
C257 C267 1.510 . S
C258 C254 1.401 . S
C258 C257 1.396 . S
C259 C254 1.499 . S
C259 H260 0.959 . S
C259 H261 0.960 . S
C259 H262 0.961 . S
H260 C259 0.959 . S
H261 C259 0.960 . S
H262 C259 0.961 . S
O263 Co238 1.967 . S
O263 C271 1.258 . S
O264 Co239 1.941 . S
O264 C271 1.266 . S
H265 C267 0.959 . S
H266 C267 0.961 . S
C267 C257 1.510 . S
C267 H265 0.959 . S
C267 H266 0.961 . S
C267 H268 0.960 . S
H268 C267 0.960 . S
H269 N249 0.862 . S
O270 Co238 1.920 . S
O270 C243 1.289 . S
C271 O263 1.258 . S
C271 O264 1.266 . S
H272 C278 0.930 1_556 S
H273 C282 0.930 . S
H274 C287 0.929 . S
H275 C285 0.929 1_556 S
H276 C280 0.949 . S
H277 C286 0.949 1_556 S
C278 H272 0.930 1_554 S
C278 C279 1.367 . S
C278 C286 1.378 . S
C279 C278 1.367 . S
C279 C287 1.433 . S
C280 H276 0.949 . S
C280 C282 1.378 . S
C280 C284 1.350 . S
C281 C284 1.463 1_455 S
C281 C286 1.350 . S
C281 N289 1.427 . S
C282 H273 0.930 . S
C282 C280 1.378 . S
C282 C283 1.367 . S
C283 C282 1.367 . S
C283 C285 1.433 . S
C284 C280 1.350 . S
C284 C281 1.463 1_655 S
C284 N288 1.427 . S
C285 H275 0.929 1_554 S
C285 C283 1.433 . S
C285 N288 1.384 . S
C286 H277 0.949 1_554 S
C286 C278 1.378 . S
C286 C281 1.350 . S
C287 H274 0.929 . S
C287 C279 1.433 . S
C287 N289 1.384 . S
N288 C284 1.427 . S
N288 C285 1.384 . S
N289 C281 1.427 . S
N289 C287 1.384 . S
H290 C296 0.930 . S
H291 C300 0.930 . S
H292 C305 0.929 . S
H293 C303 0.929 . S
H294 C298 0.929 1_655 S
H295 C304 0.929 1_455 S
C296 H290 0.930 . S
C296 C297 1.367 . S
C296 C304 1.378 . S
C297 C296 1.367 . S
C297 C305 1.433 . S
C298 H294 0.929 1_455 S
C298 C300 1.378 . S
C298 C302 1.350 . S
C299 C302 1.463 1_655 S
C299 C304 1.350 . S
C299 N307 1.427 . S
C300 H291 0.930 . S
C300 C298 1.378 . S
C300 C301 1.367 . S
C301 C300 1.367 . S
C301 C303 1.433 . S
C302 C298 1.350 . S
C302 C299 1.463 1_455 S
C302 N306 1.427 . S
C303 H293 0.929 . S
C303 C301 1.433 . S
C303 N306 1.384 . S
C304 H295 0.929 1_655 S
C304 C296 1.378 . S
C304 C299 1.350 . S
C305 H292 0.929 . S
C305 C297 1.433 . S
C305 N307 1.384 . S
N306 C302 1.427 . S
N306 C303 1.384 . S
N307 C299 1.427 . S
N307 C305 1.384 . S
H308 C314 0.930 . S
H309 C318 0.930 . S
H310 C323 0.929 . S
H311 C321 0.929 . S
H312 C316 0.929 . S
H313 C322 0.929 . S
C314 H308 0.930 . S
C314 C315 1.367 . S
C314 C322 1.378 . S
C315 C314 1.367 . S
C315 C323 1.433 . S
C316 H312 0.929 . S
C316 C318 1.378 . S
C316 C320 1.350 . S
C317 C320 1.463 1_565 S
C317 C322 1.350 . S
C317 N325 1.427 . S
C318 H309 0.930 . S
C318 C316 1.378 . S
C318 C319 1.367 . S
C319 C318 1.367 . S
C319 C321 1.433 . S
C320 C316 1.350 . S
C320 C317 1.463 1_545 S
C320 N324 1.427 . S
C321 H311 0.929 . S
C321 C319 1.433 . S
C321 N324 1.384 . S
C322 H313 0.929 . S
C322 C314 1.378 . S
C322 C317 1.350 . S
C323 H310 0.929 . S
C323 C315 1.433 . S
C323 N325 1.384 . S
N324 C320 1.427 . S
N324 C321 1.384 . S
N325 C317 1.427 . S
N325 C323 1.384 . S
H326 C332 0.930 . S
H327 C336 0.930 . S
H328 C341 0.929 . S
H329 C339 0.929 . S
H330 C334 0.929 . S
H331 C340 0.929 . S
C332 H326 0.930 . S
C332 C333 1.367 . S
C332 C340 1.378 . S
C333 C332 1.367 . S
C333 C341 1.433 . S
C334 H330 0.929 . S
C334 C336 1.378 . S
C334 C338 1.350 . S
C335 C338 1.463 1_565 S
C335 C340 1.350 . S
C335 N343 1.427 . S
C336 H327 0.930 . S
C336 C334 1.378 . S
C336 C337 1.367 . S
C337 C336 1.367 . S
C337 C339 1.433 . S
C338 C334 1.350 . S
C338 C335 1.463 1_545 S
C338 N342 1.427 . S
C339 H329 0.929 . S
C339 C337 1.433 . S
C339 N342 1.384 . S
C340 H331 0.929 . S
C340 C332 1.378 . S
C340 C335 1.350 . S
C341 H328 0.929 . S
C341 C333 1.433 . S
C341 N343 1.384 . S
N342 C338 1.427 . S
N342 C339 1.384 . S
N343 C335 1.427 . S
N343 C341 1.384 . S
H344 C350 0.930 . S
H345 C354 0.930 . S
H346 C359 0.929 . S
H347 C357 0.929 . S
H348 C352 0.929 . S
H349 C358 0.929 . S
C350 H344 0.930 . S
C350 C351 1.367 . S
C350 C358 1.378 . S
C351 C350 1.367 . S
C351 C359 1.433 . S
C352 H348 0.929 . S
C352 C354 1.378 . S
C352 C356 1.350 . S
C353 C356 1.463 . S
C353 C358 1.350 . S
C353 N361 1.427 . S
C354 H345 0.930 . S
C354 C352 1.378 . S
C354 C355 1.367 . S
C355 C354 1.367 . S
C355 C357 1.433 . S
C356 C352 1.350 . S
C356 C353 1.463 . S
C356 N360 1.427 . S
C357 H347 0.929 . S
C357 C355 1.433 . S
C357 N360 1.384 . S
C358 H349 0.929 . S
C358 C350 1.378 . S
C358 C353 1.350 . S
C359 H346 0.929 . S
C359 C351 1.433 . S
C359 N361 1.384 . S
N360 C356 1.427 . S
N360 C357 1.384 . S
N361 C353 1.427 . S
N361 C359 1.384 . S
H362 C368 0.930 . S
H363 C372 0.930 . S
H364 C377 0.929 . S
H365 C375 0.929 . S
H366 C370 0.929 . S
H367 C376 0.929 . S
C368 H362 0.930 . S
C368 C369 1.367 . S
C368 C376 1.378 . S
C369 C368 1.367 . S
C369 C377 1.433 . S
C370 H366 0.929 . S
C370 C372 1.378 . S
C370 C374 1.350 . S
C371 C374 1.463 . S
C371 C376 1.350 . S
C371 N379 1.427 . S
C372 H363 0.930 . S
C372 C370 1.378 . S
C372 C373 1.367 . S
C373 C372 1.367 . S
C373 C375 1.433 . S
C374 C370 1.350 . S
C374 C371 1.463 . S
C374 N378 1.427 . S
C375 H365 0.929 . S
C375 C373 1.433 . S
C375 N378 1.384 . S
C376 H367 0.929 . S
C376 C368 1.378 . S
C376 C371 1.350 . S
C377 H364 0.929 . S
C377 C369 1.433 . S
C377 N379 1.384 . S
N378 C374 1.427 . S
N378 C375 1.384 . S
N379 C371 1.427 . S
N379 C377 1.384 . S
H380 C386 0.930 . S
H381 C390 0.930 . S
H382 C395 0.929 . S
H383 C393 0.929 . S
H384 C388 0.929 . S
H385 C394 0.929 . S
C386 H380 0.930 . S
C386 C387 1.367 . S
C386 C394 1.378 . S
C387 C386 1.367 . S
C387 C395 1.433 . S
C388 H384 0.929 . S
C388 C390 1.378 . S
C388 C392 1.350 . S
C389 C392 1.463 . S
C389 C394 1.350 . S
C389 N397 1.427 . S
C390 H381 0.930 . S
C390 C388 1.378 . S
C390 C391 1.367 . S
C391 C390 1.367 . S
C391 C393 1.433 . S
C392 C388 1.350 . S
C392 C389 1.463 . S
C392 N396 1.427 . S
C393 H383 0.929 . S
C393 C391 1.433 . S
C393 N396 1.384 . S
C394 H385 0.929 . S
C394 C386 1.378 . S
C394 C389 1.350 . S
C395 H382 0.929 . S
C395 C387 1.433 . S
C395 N397 1.384 . S
N396 C392 1.427 . S
N396 C393 1.384 . S
N397 C389 1.427 . S
N397 C395 1.384 . S
H398 C404 0.930 . S
H399 C408 0.930 . S
H400 C413 0.929 . S
H401 C411 0.929 . S
H402 C406 0.929 . S
H403 C412 0.929 . S
C404 H398 0.930 . S
C404 C405 1.367 . S
C404 C412 1.378 . S
C405 C404 1.367 . S
C405 C413 1.433 . S
C406 H402 0.929 . S
C406 C408 1.378 . S
C406 C410 1.350 . S
C407 C410 1.463 . S
C407 C412 1.350 . S
C407 N415 1.427 . S
C408 H399 0.930 . S
C408 C406 1.378 . S
C408 C409 1.367 . S
C409 C408 1.367 . S
C409 C411 1.433 . S
C410 C406 1.350 . S
C410 C407 1.463 . S
C410 N414 1.427 . S
C411 H401 0.929 . S
C411 C409 1.433 . S
C411 N414 1.384 . S
C412 H403 0.929 . S
C412 C404 1.378 . S
C412 C407 1.350 . S
C413 H400 0.929 . S
C413 C405 1.433 . S
C413 N415 1.384 . S
N414 C410 1.427 . S
N414 C411 1.384 . S
N415 C407 1.427 . S
N415 C413 1.384 . S
H416 C422 0.930 . S
H417 C426 0.930 . S
H418 C431 0.929 . S
H419 C429 0.929 . S
H420 C424 0.929 . S
H421 C430 0.929 . S
C422 H416 0.930 . S
C422 C423 1.367 . S
C422 C430 1.378 . S
C423 C422 1.367 . S
C423 C431 1.433 . S
C424 H420 0.929 . S
C424 C426 1.378 . S
C424 C428 1.350 . S
C425 C428 1.463 . S
C425 C430 1.350 . S
C425 N433 1.427 . S
C426 H417 0.930 . S
C426 C424 1.378 . S
C426 C427 1.367 . S
C427 C426 1.367 . S
C427 C429 1.433 . S
C428 C424 1.350 . S
C428 C425 1.463 . S
C428 N432 1.427 . S
C429 H419 0.929 . S
C429 C427 1.433 . S
C429 N432 1.384 . S
C430 H421 0.929 . S
C430 C422 1.378 . S
C430 C425 1.350 . S
C431 H418 0.929 . S
C431 C423 1.433 . S
C431 N433 1.384 . S
N432 C428 1.427 . S
N432 C429 1.384 . S
N433 C425 1.427 . S
N433 C431 1.384 . S
H434 C440 0.930 . S
H435 C444 0.930 . S
H436 C449 0.929 . S
H437 C447 0.929 . S
H438 C442 0.929 . S
H439 C448 0.929 . S
C440 H434 0.930 . S
C440 C441 1.367 . S
C440 C448 1.378 . S
C441 C440 1.367 . S
C441 C449 1.433 . S
C442 H438 0.929 . S
C442 C444 1.378 . S
C442 C446 1.350 . S
C443 C446 1.463 . S
C443 C448 1.350 . S
C443 N451 1.427 . S
C444 H435 0.930 . S
C444 C442 1.378 . S
C444 C445 1.367 . S
C445 C444 1.367 . S
C445 C447 1.433 . S
C446 C442 1.350 . S
C446 C443 1.463 . S
C446 N450 1.427 . S
C447 H437 0.929 . S
C447 C445 1.433 . S
C447 N450 1.384 . S
C448 H439 0.929 . S
C448 C440 1.378 . S
C448 C443 1.350 . S
C449 H436 0.929 . S
C449 C441 1.433 . S
C449 N451 1.384 . S
N450 C446 1.427 . S
N450 C447 1.384 . S
N451 C443 1.427 . S
N451 C449 1.384 . S
H452 C458 0.930 . S
H453 C462 0.930 . S
H454 C467 0.929 . S
H455 C465 0.929 . S
H456 C460 0.929 . S
H457 C466 0.929 . S
C458 H452 0.930 . S
C458 C459 1.367 . S
C458 C466 1.378 . S
C459 C458 1.367 . S
C459 C467 1.433 . S
C460 H456 0.929 . S
C460 C462 1.378 . S
C460 C464 1.350 . S
C461 C464 1.463 1_554 S
C461 C466 1.350 . S
C461 N469 1.427 . S
C462 H453 0.930 . S
C462 C460 1.378 . S
C462 C463 1.367 . S
C463 C462 1.367 . S
C463 C465 1.433 . S
C464 C460 1.350 . S
C464 C461 1.463 1_556 S
C464 N468 1.427 . S
C465 H455 0.929 . S
C465 C463 1.433 . S
C465 N468 1.384 . S
C466 H457 0.929 . S
C466 C458 1.378 . S
C466 C461 1.350 . S
C467 H454 0.929 . S
C467 C459 1.433 . S
C467 N469 1.384 . S
N468 C464 1.427 . S
N468 C465 1.384 . S
N469 C461 1.427 . S
N469 C467 1.384 . S
H470 C476 0.930 . S
H471 C480 0.930 . S
H472 C485 0.929 . S
H473 C483 0.929 . S
H474 C478 0.929 1_556 S
H475 C484 0.929 . S
C476 H470 0.930 . S
C476 C477 1.367 . S
C476 C484 1.378 . S
C477 C476 1.367 . S
C477 C485 1.433 . S
C478 H474 0.929 1_554 S
C478 C480 1.378 . S
C478 C482 1.350 . S
C479 C482 1.463 1_556 S
C479 C484 1.350 . S
C479 N487 1.427 . S
C480 H471 0.930 . S
C480 C478 1.378 . S
C480 C481 1.367 . S
C481 C480 1.367 . S
C481 C483 1.433 . S
C482 C478 1.350 . S
C482 C479 1.463 1_554 S
C482 N486 1.427 . S
C483 H473 0.929 . S
C483 C481 1.433 . S
C483 N486 1.384 . S
C484 H475 0.929 . S
C484 C476 1.378 . S
C484 C479 1.350 . S
C485 H472 0.929 . S
C485 C477 1.433 . S
C485 N487 1.384 . S
N486 C482 1.427 . S
N486 C483 1.384 . S
N487 C479 1.427 . S
N487 C485 1.384 . S
H488 C494 0.930 . S
H489 C498 0.930 . S
H490 C503 0.929 . S
H491 C501 0.929 . S
H492 C496 0.929 1_455 S
H493 C502 0.929 1_655 S
C494 H488 0.930 . S
C494 C495 1.367 . S
C494 C502 1.378 . S
C495 C494 1.367 . S
C495 C503 1.433 . S
C496 H492 0.929 1_655 S
C496 C498 1.378 . S
C496 C500 1.350 . S
C497 C500 1.463 1_455 S
C497 C502 1.350 . S
C497 N505 1.427 . S
C498 H489 0.930 . S
C498 C496 1.378 . S
C498 C499 1.367 . S
C499 C498 1.367 . S
C499 C501 1.433 . S
C500 C496 1.350 . S
C500 C497 1.463 1_655 S
C500 N504 1.427 . S
C501 H491 0.929 . S
C501 C499 1.433 . S
C501 N504 1.384 . S
C502 H493 0.929 1_455 S
C502 C494 1.378 . S
C502 C497 1.350 . S
C503 H490 0.929 . S
C503 C495 1.433 . S
C503 N505 1.384 . S
N504 C500 1.427 . S
N504 C501 1.384 . S
N505 C497 1.427 . S
N505 C503 1.384 . S
H506 C512 0.930 . S
H507 C516 0.930 . S
H508 C521 0.929 . S
H509 C519 0.929 . S
H510 C514 0.929 . S
H511 C520 0.929 . S
C512 H506 0.930 . S
C512 C513 1.367 . S
C512 C520 1.378 . S
C513 C512 1.367 . S
C513 C521 1.433 . S
C514 H510 0.929 . S
C514 C516 1.378 . S
C514 C518 1.350 . S
C515 C518 1.463 1_455 S
C515 C520 1.350 . S
C515 N523 1.424 1_455 S
C516 H507 0.930 . S
C516 C514 1.378 . S
C516 C517 1.367 . S
C517 C516 1.367 . S
C517 C519 1.433 . S
C518 C514 1.350 . S
C518 C515 1.463 1_655 S
C518 N522 1.424 1_655 S
C519 H509 0.929 . S
C519 C517 1.433 . S
C519 N522 1.377 1_655 S
C520 H511 0.929 . S
C520 C512 1.378 . S
C520 C515 1.350 . S
C521 H508 0.929 . S
C521 C513 1.433 . S
C521 N523 1.377 1_455 S
N522 C518 1.424 1_455 S
N522 C519 1.377 1_455 S
N523 C515 1.424 1_655 S
N523 C521 1.377 1_655 S
H524 C530 0.930 . S
H525 C534 0.930 . S
H526 C539 0.929 . S
H527 C537 0.929 . S
H528 C532 0.929 . S
H529 C538 0.929 . S
C530 H524 0.930 . S
C530 C531 1.367 . S
C530 C538 1.378 . S
C531 C530 1.367 . S
C531 C539 1.433 . S
C532 H528 0.929 . S
C532 C534 1.378 . S
C532 C536 1.350 . S
C533 C536 1.463 1_455 S
C533 C538 1.350 . S
C533 N541 1.427 . S
C534 H525 0.930 . S
C534 C532 1.378 . S
C534 C535 1.367 . S
C535 C534 1.367 . S
C535 C537 1.433 . S
C536 C532 1.350 . S
C536 C533 1.463 1_655 S
C536 N540 1.427 . S
C537 H527 0.929 . S
C537 C535 1.433 . S
C537 N540 1.384 . S
C538 H529 0.929 . S
C538 C530 1.378 . S
C538 C533 1.350 . S
C539 H526 0.929 . S
C539 C531 1.433 . S
C539 N541 1.384 . S
N540 C536 1.427 . S
N540 C537 1.384 . S
N541 C533 1.427 . S
N541 C539 1.384 . S
H542 C548 0.930 1_554 S
H543 C552 0.930 . S
H544 C557 0.929 . S
H545 C555 0.929 . S
H546 C550 0.929 1_455 S
H547 C556 0.929 1_655 S
C548 H542 0.930 1_556 S
C548 C549 1.367 . S
C548 C556 1.378 . S
C549 C548 1.367 . S
C549 C557 1.433 . S
C550 H546 0.929 1_655 S
C550 C552 1.378 . S
C550 C554 1.350 . S
C551 C554 1.463 1_455 S
C551 C556 1.350 . S
C551 N559 1.427 . S
C552 H543 0.930 . S
C552 C550 1.378 . S
C552 C553 1.367 . S
C553 C552 1.367 . S
C553 C555 1.433 . S
C554 C550 1.350 . S
C554 C551 1.463 1_655 S
C554 N558 1.427 . S
C555 H545 0.929 . S
C555 C553 1.433 . S
C555 N558 1.384 . S
C556 H547 0.929 1_455 S
C556 C548 1.378 . S
C556 C551 1.350 . S
C557 H544 0.929 . S
C557 C549 1.433 . S
C557 N559 1.384 . S
N558 C554 1.427 . S
N558 C555 1.384 . S
N559 C551 1.427 . S
N559 C557 1.384 . S
H560 C566 0.930 . S
H561 C570 0.930 . S
H562 C575 0.929 . S
H563 C573 0.929 . S
H564 C568 0.929 . S
H565 C574 0.929 . S
C566 H560 0.930 . S
C566 C567 1.367 . S
C566 C574 1.378 1_554 S
C567 C566 1.367 . S
C567 C575 1.433 1_554 S
C568 H564 0.929 . S
C568 C570 1.378 . S
C568 C572 1.350 . S
C569 C572 1.463 . S
C569 C574 1.350 . S
C569 N577 1.427 . S
C570 H561 0.930 . S
C570 C568 1.378 . S
C570 C571 1.367 . S
C571 C570 1.367 . S
C571 C573 1.433 . S
C572 C568 1.350 . S
C572 C569 1.463 . S
C572 N576 1.427 . S
C573 H563 0.929 . S
C573 C571 1.433 . S
C573 N576 1.384 . S
C574 H565 0.929 . S
C574 C566 1.378 1_556 S
C574 C569 1.350 . S
C575 H562 0.929 . S
C575 C567 1.433 1_556 S
C575 N577 1.384 . S
N576 C572 1.427 . S
N576 C573 1.384 . S
N577 C569 1.427 . S
N577 C575 1.384 . S
H578 C584 0.930 . S
H579 C588 0.930 . S
H580 C593 0.929 . S
H581 C591 0.929 . S
H582 C586 0.929 . S
H583 C592 0.929 . S
C584 H578 0.930 . S
C584 C585 1.367 . S
C584 C592 1.378 . S
C585 C584 1.367 . S
C585 C593 1.433 . S
C586 H582 0.929 . S
C586 C588 1.378 1_556 S
C586 C590 1.350 . S
C587 C590 1.463 . S
C587 C592 1.350 . S
C587 N595 1.427 . S
C588 H579 0.930 . S
C588 C586 1.378 1_554 S
C588 C589 1.367 . S
C589 C588 1.367 . S
C589 C591 1.433 1_554 S
C590 C586 1.350 . S
C590 C587 1.463 . S
C590 N594 1.427 . S
C591 H581 0.929 . S
C591 C589 1.433 1_556 S
C591 N594 1.384 . S
C592 H583 0.929 . S
C592 C584 1.378 . S
C592 C587 1.350 . S
C593 H580 0.929 . S
C593 C585 1.433 . S
C593 N595 1.384 . S
N594 C590 1.427 . S
N594 C591 1.384 . S
N595 C587 1.427 . S
N595 C593 1.384 . S
H596 C602 0.930 . S
H597 C606 0.930 . S
H598 C611 0.929 . S
H599 C609 0.929 . S
H600 C604 0.929 . S
H601 C610 0.929 . S
C602 H596 0.930 . S
C602 C603 1.367 . S
C602 C610 1.378 . S
C603 C602 1.367 . S
C603 C611 1.433 . S
C604 H600 0.929 . S
C604 C606 1.378 . S
C604 C608 1.350 . S
C605 C608 1.463 . S
C605 C610 1.350 . S
C605 N613 1.427 . S
C606 H597 0.930 . S
C606 C604 1.378 . S
C606 C607 1.367 . S
C607 C606 1.367 . S
C607 C609 1.433 . S
C608 C604 1.350 . S
C608 C605 1.463 . S
C608 N612 1.427 . S
C609 H599 0.929 . S
C609 C607 1.433 . S
C609 N612 1.384 . S
C610 H601 0.929 . S
C610 C602 1.378 . S
C610 C605 1.350 . S
C611 H598 0.929 . S
C611 C603 1.433 . S
C611 N613 1.384 . S
N612 C608 1.427 . S
N612 C609 1.384 . S
N613 C605 1.427 . S
N613 C611 1.384 . S
H614 C620 0.930 . S
H615 C624 0.930 . S
H616 C629 0.929 . S
H617 C627 0.929 . S
H618 C622 0.929 . S
H619 C628 0.929 . S
C620 H614 0.930 . S
C620 C621 1.367 . S
C620 C628 1.378 . S
C621 C620 1.367 . S
C621 C629 1.433 . S
C622 H618 0.929 . S
C622 C624 1.378 . S
C622 C626 1.350 . S
C623 C626 1.463 . S
C623 C628 1.350 . S
C623 N631 1.427 . S
C624 H615 0.930 . S
C624 C622 1.378 . S
C624 C625 1.367 . S
C625 C624 1.367 . S
C625 C627 1.433 . S
C626 C622 1.350 . S
C626 C623 1.463 . S
C626 N630 1.427 . S
C627 H617 0.929 . S
C627 C625 1.433 . S
C627 N630 1.384 . S
C628 H619 0.929 . S
C628 C620 1.378 . S
C628 C623 1.350 . S
C629 H616 0.929 . S
C629 C621 1.433 . S
C629 N631 1.384 . S
N630 C626 1.427 . S
N630 C627 1.384 . S
N631 C623 1.427 . S
N631 C629 1.384 . S
C279 C33 1.558 . S
C283 C67 1.558 . S
C297 C135 1.556 . S
C301 C101 1.557 . S
C315 C169 1.556 . S
C319 C203 1.556 . S
C333 C271 1.560 . S
C337 C237 1.560 . S
C351 C179 1.393 . S
C355 C20 1.493 . S
C369 C145 1.390 . S
C373 C54 1.492 . S
C387 C247 1.396 . S
C391 C88 1.496 . S
C405 C122 1.493 . S
C409 C213 1.391 . S
C423 C43 1.409 . S
C427 C156 1.498 . S
C441 C9 1.401 . S
C445 C190 1.497 . S
C459 C224 1.492 . S
C463 C111 1.389 . S
C477 C77 1.410 . S
C481 C258 1.499 . S
C495 C5 1.456 . S
C499 C107 1.457 . S
C513 C73 1.453 . S
C517 C39 1.453 . S
C531 C70 0.959 . S
C535 C36 0.979 1_556 S
C549 C2 0.976 1_556 S
C553 C104 0.961 . S
C567 C243 1.458 . S
C571 C141 1.458 . S
C585 C175 1.460 . S
C589 C209 1.460 . S
C603 C206 0.963 . S
C607 C172 0.978 . S
C621 C138 0.961 . S
C625 C240 0.979 . S
