# Generated by pormake.
# Topology uoz, (4)-cn, num edge types: 1
# Building blocks:
#     Node 0, Type 0, BuildingBlock: AZAVOO_clean_sbu_0, # of connection points: 4
#     Node 1, Type 0, BuildingBlock: AZAVOO_clean_sbu_0, # of connection points: 4
#     Node 2, Type 0, BuildingBlock: AZAVOO_clean_sbu_0, # of connection points: 4
#     Node 3, Type 0, BuildingBlock: AZAVOO_clean_sbu_0, # of connection points: 4
#     Node 4, Type 0, BuildingBlock: AZAVOO_clean_sbu_0, # of connection points: 4
#     Node 5, Type 0, BuildingBlock: AZAVOO_clean_sbu_0, # of connection points: 4
#     Node 6, Type 0, BuildingBlock: AZAVOO_clean_sbu_0, # of connection points: 4
#     Node 7, Type 0, BuildingBlock: AZAVOO_clean_sbu_0, # of connection points: 4
#     Node 8, Type 0, BuildingBlock: AZAVOO_clean_sbu_0, # of connection points: 4
#     Node 9, Type 0, BuildingBlock: AZAVOO_clean_sbu_0, # of connection points: 4
#     Node 10, Type 0, BuildingBlock: AZAVOO_clean_sbu_0, # of connection points: 4
#     Node 11, Type 0, BuildingBlock: AZAVOO_clean_sbu_0, # of connection points: 4
#     Node 12, Type 0, BuildingBlock: AZAVOO_clean_sbu_0, # of connection points: 4
#     Node 13, Type 0, BuildingBlock: AZAVOO_clean_sbu_0, # of connection points: 4
#     Node 14, Type 0, BuildingBlock: AZAVOO_clean_sbu_0, # of connection points: 4
#     Node 15, Type 0, BuildingBlock: AZAVOO_clean_sbu_0, # of connection points: 4
#     Edge 16, Type (0, 0), BuildingBlock: ZUJKAS_clean_linker_0, # of connection points: 2
#     Edge 17, Type (0, 0), BuildingBlock: ZUJKAS_clean_linker_0, # of connection points: 2
#     Edge 18, Type (0, 0), BuildingBlock: ZUJKAS_clean_linker_0, # of connection points: 2
#     Edge 19, Type (0, 0), BuildingBlock: ZUJKAS_clean_linker_0, # of connection points: 2
#     Edge 20, Type (0, 0), BuildingBlock: ZUJKAS_clean_linker_0, # of connection points: 2
#     Edge 21, Type (0, 0), BuildingBlock: ZUJKAS_clean_linker_0, # of connection points: 2
#     Edge 22, Type (0, 0), BuildingBlock: ZUJKAS_clean_linker_0, # of connection points: 2
#     Edge 23, Type (0, 0), BuildingBlock: ZUJKAS_clean_linker_0, # of connection points: 2
#     Edge 24, Type (0, 0), BuildingBlock: ZUJKAS_clean_linker_0, # of connection points: 2
#     Edge 25, Type (0, 0), BuildingBlock: ZUJKAS_clean_linker_0, # of connection points: 2
#     Edge 26, Type (0, 0), BuildingBlock: ZUJKAS_clean_linker_0, # of connection points: 2
#     Edge 27, Type (0, 0), BuildingBlock: ZUJKAS_clean_linker_0, # of connection points: 2
#     Edge 28, Type (0, 0), BuildingBlock: ZUJKAS_clean_linker_0, # of connection points: 2
#     Edge 29, Type (0, 0), BuildingBlock: ZUJKAS_clean_linker_0, # of connection points: 2
#     Edge 30, Type (0, 0), BuildingBlock: ZUJKAS_clean_linker_0, # of connection points: 2
#     Edge 31, Type (0, 0), BuildingBlock: ZUJKAS_clean_linker_0, # of connection points: 2
#     Edge 32, Type (0, 0), BuildingBlock: ZUJKAS_clean_linker_0, # of connection points: 2
#     Edge 33, Type (0, 0), BuildingBlock: ZUJKAS_clean_linker_0, # of connection points: 2
#     Edge 34, Type (0, 0), BuildingBlock: ZUJKAS_clean_linker_0, # of connection points: 2
#     Edge 35, Type (0, 0), BuildingBlock: ZUJKAS_clean_linker_0, # of connection points: 2
#     Edge 36, Type (0, 0), BuildingBlock: ZUJKAS_clean_linker_0, # of connection points: 2
#     Edge 37, Type (0, 0), BuildingBlock: ZUJKAS_clean_linker_0, # of connection points: 2
#     Edge 38, Type (0, 0), BuildingBlock: ZUJKAS_clean_linker_0, # of connection points: 2
#     Edge 39, Type (0, 0), BuildingBlock: ZUJKAS_clean_linker_0, # of connection points: 2
#     Edge 40, Type (0, 0), BuildingBlock: ZUJKAS_clean_linker_0, # of connection points: 2
#     Edge 41, Type (0, 0), BuildingBlock: ZUJKAS_clean_linker_0, # of connection points: 2
#     Edge 42, Type (0, 0), BuildingBlock: ZUJKAS_clean_linker_0, # of connection points: 2
#     Edge 43, Type (0, 0), BuildingBlock: ZUJKAS_clean_linker_0, # of connection points: 2
#     Edge 44, Type (0, 0), BuildingBlock: ZUJKAS_clean_linker_0, # of connection points: 2
#     Edge 45, Type (0, 0), BuildingBlock: ZUJKAS_clean_linker_0, # of connection points: 2
#     Edge 46, Type (0, 0), BuildingBlock: ZUJKAS_clean_linker_0, # of connection points: 2
#     Edge 47, Type (0, 0), BuildingBlock: ZUJKAS_clean_linker_0, # of connection points: 2
# Relax obj value: 0.122
# Max RMSD: 0.106
# Mean RMSD: 0.106
data_MOF--net-uoz--node1-AZAVOO_clean_sbu_0--edge1-ZUJKAS_clean_linker_0
_symmetry_space_group_name_H-M    P1
_symmetry_Int_Tables_number       1
_symmetry_cell_setting            triclinic
loop_
_symmetry_equiv_pos_as_xyz
'x, y, z'
_cell_length_a     76.656083
_cell_length_b     76.744437
_cell_length_c     29.307668
_cell_angle_alpha  89.985981
_cell_angle_beta   90.013666
_cell_angle_gamma 90.03817
loop_
_atom_site_label
_atom_site_type_symbol
_atom_site_fract_x
_atom_site_fract_y
_atom_site_fract_z
_atom_type_partial_charge
Mg0 Mg 0.00993 0.58829 0.32451 0.0
O1 O 0.00491 0.57011 0.26319 0.0
O2 O -7e-05 0.58696 0.20225 0.0
Mg3 Mg 0.00299 0.61532 0.22267 0.0
C4 C 0.00128 0.57198 0.22085 0.0
C5 C 0.00818 0.55286 0.37607 0.0
O6 O 0.9931 0.55279 0.35474 0.0
O7 O 0.03774 0.59325 0.29816 0.0
O8 O 0.03173 0.60953 0.2368 0.0
O9 O 0.98103 0.59011 0.3365 0.0
O10 O 0.99595 0.608 0.29237 0.0
C11 C 0.0426 0.60183 0.26295 0.0
C12 C 0.98108 0.60284 0.30753 0.0
O13 O 0.01868 0.56542 0.36906 0.0
Mg14 Mg 0.66905 0.74727 0.57688 0.0
O15 O 0.68766 0.74186 0.51667 0.0
O16 O 0.67138 0.738 0.4541 0.0
Mg17 Mg 0.64298 0.74249 0.47235 0.0
C18 C 0.68617 0.73855 0.47407 0.0
C19 C 0.70427 0.74378 0.62991 0.0
O20 O 0.70418 0.729 0.60729 0.0
O21 O 0.66583 0.77547 0.55175 0.0
O22 O 0.65041 0.77073 0.48793 0.0
O23 O 0.66558 0.7184 0.5867 0.0
O24 O 0.64898 0.73466 0.54234 0.0
C25 C 0.65827 0.78091 0.51557 0.0
C26 C 0.65317 0.71942 0.55686 0.0
O27 O 0.69191 0.75456 0.62348 0.0
Mg28 Mg 0.51207 0.40557 0.81461 0.0
O29 O 0.51695 0.42493 0.75553 0.0
O30 O 0.51887 0.40923 0.69141 0.0
Mg31 Mg 0.51441 0.38069 0.70763 0.0
C32 C 0.51921 0.4238 0.71237 0.0
C33 C 0.5143 0.42645 0.90254 0.0
O34 O 0.52454 0.41295 0.90902 0.0
O35 O 0.48334 0.40303 0.79303 0.0
O36 O 0.48657 0.38788 0.7282 0.0
O37 O 0.54092 0.40115 0.82155 0.0
O38 O 0.5237 0.38566 0.77699 0.0
C39 C 0.47704 0.39562 0.75761 0.0
C40 C 0.53922 0.38902 0.7912 0.0
O41 O 0.50633 0.4278 0.86461 0.0
Mg42 Mg 0.85759 0.24975 0.08458 0.0
O43 O 0.84113 0.25404 0.01967 0.0
O44 O 0.85951 0.25983 0.96228 0.0
Mg45 Mg 0.88733 0.25783 0.98864 0.0
C46 C 0.84408 0.25781 0.97784 0.0
C47 C 0.82017 0.24916 0.12803 0.0
O48 O 0.81904 0.26368 0.10444 0.0
O49 O 0.86424 0.2222 0.0592 0.0
O50 O 0.88205 0.22893 0.00136 0.0
O51 O 0.85792 0.27874 0.09625 0.0
O52 O 0.87767 0.26436 0.05652 0.0
C53 C 0.87397 0.21773 0.02573 0.0
C54 C 0.87152 0.27904 0.07011 0.0
O55 O 0.83396 0.24004 0.12498 0.0
Mg56 Mg 0.00961 0.40671 0.82124 0.0
O57 O 0.00528 0.42483 0.88307 0.0
O58 O 0.00159 0.40797 0.94464 0.0
Mg59 Mg 0.00513 0.3797 0.92399 0.0
C60 C 0.00233 0.42294 0.92577 0.0
C61 C 0.01884 0.4261 0.73355 0.0
O62 O 0.0173 0.40977 0.72066 0.0
O63 O 0.03798 0.40249 0.84402 0.0
O64 O 0.03344 0.38656 0.90702 0.0
O65 O 0.98059 0.40433 0.81307 0.0
O66 O -0.00329 0.38671 0.85512 0.0
C67 C 0.04358 0.39442 0.87924 0.0
C68 C 0.98147 0.39161 0.842 0.0
O69 O 0.01694 0.42973 0.7756 0.0
Mg70 Mg 0.85135 0.74328 0.07521 0.0
O71 O 0.83351 0.73946 0.13793 0.0
O72 O 0.85082 0.73574 0.19865 0.0
Mg73 Mg 0.87905 0.73855 0.17675 0.0
C74 C 0.8357 0.73665 0.1806 0.0
C75 C 0.83186 0.75282 0.98802 0.0
O76 O 0.84823 0.75145 0.97523 0.0
O77 O 0.85643 0.77163 0.09707 0.0
O78 O 0.873 0.76686 0.1587 0.0
O79 O 0.85314 0.71421 0.06749 0.0
O80 O 0.87133 0.73007 0.10852 0.0
C81 C 0.86515 0.77716 0.13134 0.0
C82 C 0.86607 0.71491 0.09585 0.0
O83 O 0.8282 0.75081 0.03004 0.0
Mg84 Mg 0.51323 0.58799 0.31398 0.0
O85 O 0.51851 0.57068 0.37699 0.0
O86 O 0.52206 0.58833 0.43706 0.0
Mg87 Mg 0.51735 0.61623 0.41462 0.0
C88 C 0.52168 0.57313 0.41938 0.0
C89 C 0.51648 0.55149 0.26607 0.0
O90 O 0.5309 0.55127 0.29033 0.0
O91 O 0.48489 0.59142 0.33779 0.0
O92 O 0.48921 0.6082 0.39938 0.0
O93 O 0.54215 0.59142 0.30453 0.0
O94 O 0.52557 0.60877 0.34599 0.0
C95 C 0.47922 0.59967 0.37263 0.0
C96 C 0.54092 0.60439 0.33259 0.0
O97 O 0.50617 0.56438 0.26994 0.0
Mg98 Mg 0.67638 0.24336 0.58028 0.0
O99 O 0.6966 0.24763 0.63794 0.0
O100 O 0.68139 0.25021 0.70286 0.0
Mg101 Mg 0.65245 0.24738 0.68864 0.0
C102 C 0.69584 0.24992 0.6812 0.0
C103 C 0.69489 0.24207 0.48879 0.0
O104 O 0.68057 0.25105 0.48137 0.0
O105 O 0.67272 0.21494 0.60348 0.0
O106 O 0.65806 0.21918 0.66868 0.0
O107 O 0.67334 0.27234 0.57155 0.0
O108 O 0.65794 0.25632 0.6195 0.0
C109 C 0.6652 0.20918 0.63937 0.0
C110 C 0.66203 0.27148 0.60423 0.0
O111 O 0.69762 0.23615 0.52871 0.0
Mg112 Mg 0.3524 0.24127 0.57136 0.0
O113 O 0.33452 0.2364 0.63312 0.0
O114 O 0.35136 0.22925 0.69279 0.0
Mg115 Mg 0.37974 0.23266 0.67174 0.0
C116 C 0.33641 0.23165 0.67464 0.0
C117 C 0.3329 0.25285 0.48612 0.0
O118 O 0.34914 0.251 0.47265 0.0
O119 O 0.35807 0.26872 0.59894 0.0
O120 O 0.37432 0.26164 0.65957 0.0
O121 O 0.35345 0.21234 0.55872 0.0
O122 O 0.37212 0.22681 0.60173 0.0
C123 C 0.36684 0.27299 0.63437 0.0
C124 C 0.36651 0.21213 0.58668 0.0
O125 O 0.32936 0.25045 0.52806 0.0
Mg126 Mg 0.1731 0.74899 0.07481 0.0
O127 O 0.19217 0.75316 0.13488 0.0
O128 O 0.17605 0.75615 0.19807 0.0
Mg129 Mg 0.14747 0.7526 0.18032 0.0
C130 C 0.19079 0.75574 0.17788 0.0
C131 C 0.19389 0.74921 0.98695 0.0
O132 O 0.18027 0.75917 0.97911 0.0
O133 O 0.16935 0.72047 0.09681 0.0
O134 O 0.15405 0.7245 0.16113 0.0
O135 O 0.17023 0.77802 0.06803 0.0
O136 O 0.15347 0.76146 0.11124 0.0
C137 C 0.16163 0.71461 0.1323 0.0
C138 C 0.15791 0.77681 0.09805 0.0
O139 O 0.1954 0.74218 0.02606 0.0
Mg140 Mg 0.17112 0.24534 0.07446 0.0
O141 O 0.19039 0.23957 0.01607 0.0
O142 O 0.17483 0.23257 0.95398 0.0
Mg143 Mg 0.14613 0.23691 0.96971 0.0
C144 C 0.18936 0.23459 0.97455 0.0
C145 C 0.20595 0.24389 0.12842 0.0
O146 O 0.20617 0.22885 0.10702 0.0
O147 O 0.1668 0.27275 0.04509 0.0
O148 O 0.15182 0.26581 0.98216 0.0
O149 O 0.16873 0.21655 0.08835 0.0
O150 O 0.15177 0.23115 0.04116 0.0
C151 C 0.15893 0.27709 0.0083 0.0
C152 C 0.15644 0.21643 0.05808 0.0
O153 O 0.19341 0.25435 0.12085 0.0
Mg154 Mg 0.35501 0.74906 0.57763 0.0
O155 O 0.33758 0.75425 0.51487 0.0
O156 O 0.35514 0.75982 0.45562 0.0
Mg157 Mg 0.38328 0.7569 0.47852 0.0
C158 C 0.33994 0.75818 0.47288 0.0
C159 C 0.31819 0.7494 0.6235 0.0
O160 O 0.31729 0.7638 0.59934 0.0
O161 O 0.36043 0.72146 0.55047 0.0
O162 O 0.37748 0.7281 0.49103 0.0
O163 O 0.35641 0.77789 0.5908 0.0
O164 O 0.375 0.76337 0.54776 0.0
C165 C 0.36952 0.71696 0.51583 0.0
C166 C 0.36951 0.77809 0.56295 0.0
O167 O 0.33172 0.7399 0.62018 0.0
Mg168 Mg 0.50635 0.09078 0.83531 0.0
O169 O 0.50177 0.07409 0.77106 0.0
O170 O 0.49588 0.09215 0.7131 0.0
Mg171 Mg 0.49817 0.12005 0.73851 0.0
C172 C 0.49786 0.07682 0.72922 0.0
C173 C 0.50626 0.05373 0.87907 0.0
O174 O 0.49181 0.05306 0.855 0.0
O175 O 0.53392 0.09708 0.80909 0.0
O176 O 0.52712 0.11464 0.75083 0.0
O177 O 0.47741 0.09115 0.8474 0.0
O178 O 0.49167 0.11075 0.80679 0.0
C179 C 0.53836 0.10661 0.77519 0.0
C180 C 0.47701 0.10455 0.8206 0.0
O181 O 0.51583 0.06723 0.87625 0.0
Mg182 Mg 0.01402 0.90411 0.33094 0.0
O183 O 0.02046 0.92202 0.27014 0.0
O184 O 0.02635 0.90527 0.2096 0.0
Mg185 Mg 0.02135 0.87709 0.22934 0.0
C186 C 0.02501 0.9202 0.22843 0.0
C187 C 0.00689 0.92541 0.41709 0.0
O188 O 0.01163 0.91009 0.43283 0.0
O189 O 0.98638 0.90025 0.30225 0.0
O190 O 0.99271 0.88444 0.24012 0.0
O191 O 0.04268 0.90124 0.34491 0.0
O192 O 0.0275 0.8838 0.30004 0.0
C193 C 0.98183 0.89236 0.26573 0.0
C194 C 0.04239 0.88846 0.31613 0.0
O195 O 0.00593 0.92755 0.37413 0.0
Mg196 Mg 0.50949 0.90956 0.33235 0.0
O197 O 0.5054 0.92911 0.39126 0.0
O198 O 0.50233 0.91349 0.45524 0.0
Mg199 Mg 0.50543 0.88477 0.43907 0.0
C200 C 0.50284 0.92807 0.43433 0.0
C201 C 0.51056 0.92882 0.24251 0.0
O202 O 0.50188 0.91435 0.2346 0.0
O203 O 0.53799 0.90567 0.35478 0.0
O204 O 0.53363 0.89061 0.41916 0.0
O205 O 0.48043 0.9069 0.32514 0.0
O206 O 0.49665 0.89035 0.36967 0.0
C207 C 0.54377 0.89788 0.39029 0.0
C208 C 0.48137 0.89483 0.35587 0.0
O209 O 0.51647 0.93142 0.28249 0.0
Mg210 Mg 0.01616 0.085 0.82909 0.0
O211 O 0.02143 0.06655 0.88967 0.0
O212 O 0.02607 0.08294 0.95165 0.0
Mg213 Mg 0.02148 0.11124 0.93293 0.0
C214 C 0.02517 0.06813 0.93201 0.0
C215 C 0.00539 0.06523 0.74202 0.0
O216 O 0.00576 0.08152 0.72818 0.0
O217 O 0.98802 0.0887 0.85412 0.0
O218 O 0.99309 0.10408 0.91775 0.0
O219 O 0.04507 0.08795 0.819 0.0
O220 O 0.02912 0.10502 0.8629 0.0
C221 C 0.98273 0.09636 0.89027 0.0
C222 C 0.04429 0.10048 0.84851 0.0
O223 O 0.00865 0.06196 0.7837 0.0
H224 H 0.14478 0.69083 0.07985 0.0
H225 H 0.13338 0.66286 0.1072 0.0
H226 H 0.16331 0.6683 0.23106 0.0
H227 H 0.17401 0.69665 0.20464 0.0
H228 H 0.14389 0.63052 0.14391 0.0
H229 H 0.11342 0.67331 0.27522 0.0
H230 H 0.12508 0.68202 0.22701 0.0
H231 H 0.13681 0.67304 0.27467 0.0
C232 C 0.14946 0.68567 0.11202 0.0
C233 C 0.16017 0.69579 0.14032 0.0
C234 C 0.14291 0.66973 0.12773 0.0
C235 C 0.14715 0.66375 0.1717 0.0
C236 C 0.15958 0.67288 0.19749 0.0
H237 H 0.07048 0.6018 0.32197 0.0
H238 H 0.10024 0.61169 0.30457 0.0
C239 C 0.16581 0.68896 0.18224 0.0
C240 C 0.13633 0.64995 0.1931 0.0
H241 H 0.10426 0.64449 0.27259 0.0
C242 C 0.13544 0.63344 0.17258 0.0
C243 C 0.12531 0.65377 0.23064 0.0
C244 C 0.12503 0.6715 0.25305 0.0
C245 C 0.12326 0.62094 0.18731 0.0
C246 C 0.11159 0.62517 0.22301 0.0
C247 C 0.11331 0.64121 0.24546 0.0
C248 C 0.09556 0.61492 0.23219 0.0
C249 C 0.12263 0.60354 0.16353 0.0
C250 C 0.08324 0.61302 0.1972 0.0
C251 C 0.06632 0.60757 0.20709 0.0
C252 C 0.06132 0.60392 0.25224 0.0
C253 C 0.07399 0.6045 0.28687 0.0
C254 C 0.09098 0.61013 0.27695 0.0
H255 H 0.13577 0.59972 0.15107 0.0
H256 H 0.1176 0.59316 0.18643 0.0
H257 H 0.1139 0.60449 0.13342 0.0
H258 H 0.08627 0.61702 0.16265 0.0
H259 H 0.05688 0.60712 0.1796 0.0
H260 H 0.56026 0.89503 0.47157 0.0
H261 H 0.58952 0.88404 0.4849 0.0
H262 H 0.59952 0.88459 0.34004 0.0
H263 H 0.56986 0.89551 0.32638 0.0
H264 H 0.6021 0.85269 0.37624 0.0
H265 H 0.64029 0.89708 0.48487 0.0
H266 H 0.61877 0.89439 0.5077 0.0
H267 H 0.62159 0.90437 0.45246 0.0
C268 C 0.56887 0.89336 0.44258 0.0
C269 C 0.56271 0.89587 0.39788 0.0
C270 C 0.58573 0.88728 0.45032 0.0
C271 C 0.59683 0.88361 0.41355 0.0
C272 C 0.59122 0.88749 0.36896 0.0
H273 H 0.66956 0.79679 0.43884 0.0
H274 H 0.66012 0.82534 0.41082 0.0
C275 C 0.57429 0.89372 0.36117 0.0
C276 C 0.61223 0.8723 0.42154 0.0
H277 H 0.64597 0.86583 0.49586 0.0
C278 C 0.61206 0.85575 0.40129 0.0
C279 C 0.6251 0.87624 0.45459 0.0
C280 C 0.62654 0.89408 0.47575 0.0
C281 C 0.62337 0.84255 0.41591 0.0
C282 C 0.63561 0.84617 0.45094 0.0
C283 C 0.63658 0.86306 0.46914 0.0
C284 C 0.64591 0.83196 0.47218 0.0
C285 C 0.62111 0.82449 0.39618 0.0
C286 C 0.6424 0.82699 0.51744 0.0
C287 C 0.64824 0.8109 0.53395 0.0
C288 C 0.65747 0.79961 0.50515 0.0
C289 C 0.66245 0.80535 0.46157 0.0
C290 C 0.65696 0.82157 0.44547 0.0
H291 H 0.60882 0.82321 0.37636 0.0
H292 H 0.63212 0.82162 0.37283 0.0
H293 H 0.62104 0.81452 0.42363 0.0
H294 H 0.63393 0.83486 0.53867 0.0
H295 H 0.64412 0.80662 0.56749 0.0
H296 H 0.45862 0.4063 0.6842 0.0
H297 H 0.43001 0.39528 0.66121 0.0
H298 H 0.42532 0.36868 0.79044 0.0
H299 H 0.45348 0.38052 0.81419 0.0
H300 H 0.42811 0.3624 0.64816 0.0
H301 H 0.37515 0.37836 0.76773 0.0
H302 H 0.3953 0.39058 0.76637 0.0
H303 H 0.39371 0.37068 0.79889 0.0
C304 C 0.45098 0.39889 0.70854 0.0
C305 C 0.4581 0.3943 0.75098 0.0
C306 C 0.43468 0.39253 0.69536 0.0
C307 C 0.42542 0.3811 0.72396 0.0
C308 C 0.4319 0.37778 0.76807 0.0
H309 H 0.37759 0.28605 0.7158 0.0
H310 H 0.38713 0.31558 0.73235 0.0
C311 C 0.44806 0.38451 0.78168 0.0
C312 C 0.41157 0.36975 0.70443 0.0
H313 H 0.37294 0.34981 0.72991 0.0
C314 C 0.41577 0.36008 0.66521 0.0
C315 C 0.39548 0.36661 0.72662 0.0
C316 C 0.3896 0.37728 0.76695 0.0
C317 C 0.40512 0.34644 0.64988 0.0
C318 C 0.38966 0.34247 0.67406 0.0
C319 C 0.38481 0.35288 0.7114 0.0
C320 C 0.38031 0.32585 0.66598 0.0
C321 C 0.41128 0.33549 0.61021 0.0
C322 C 0.3726 0.32196 0.62367 0.0
C323 C 0.36721 0.3049 0.61382 0.0
C324 C 0.36949 0.29157 0.64622 0.0
C325 C 0.37593 0.29592 0.68972 0.0
C326 C 0.38126 0.31286 0.69946 0.0
H327 H 0.4247 0.33896 0.59915 0.0
H328 H 0.41107 0.32145 0.61937 0.0
H329 H 0.4024 0.33741 0.58076 0.0
H330 H 0.37154 0.33189 0.59756 0.0
H331 H 0.36215 0.30199 0.58016 0.0
H332 H 0.8696 0.18899 0.08109 0.0
H333 H 0.87881 0.15898 0.06409 0.0
H334 H 0.89361 0.17476 0.92827 0.0
H335 H 0.88436 0.20439 0.94455 0.0
H336 H 0.87869 0.14035 0.93323 0.0
H337 H 0.93226 0.1519 0.0587 0.0
H338 H 0.91012 0.15379 0.07827 0.0
H339 H 0.91865 0.16943 0.03855 0.0
C340 C 0.87446 0.18593 0.04734 0.0
C341 C 0.87662 0.19912 0.0145 0.0
C342 C 0.87973 0.16881 0.0377 0.0
C343 C 0.88711 0.16474 0.99511 0.0
C344 C 0.88796 0.17762 0.96134 0.0
H345 H 0.95762 0.11122 0.83794 0.0
H346 H 0.92985 0.12252 0.86618 0.0
C347 C 0.88282 0.19461 0.97091 0.0
C348 C 0.89629 0.14806 0.98687 0.0
H349 H 0.93546 0.12884 0.00834 0.0
C350 C 0.8909 0.13748 0.95038 0.0
C351 C 0.91218 0.14435 0.00935 0.0
C352 C 0.91879 0.15544 0.04827 0.0
C353 C 0.9015 0.1239 0.93405 0.0
C354 C 0.91806 0.12115 0.95412 0.0
C355 C 0.92278 0.1309 0.99281 0.0
C356 C 0.93179 0.1102 0.93261 0.0
C357 C 0.89504 0.11302 0.89471 0.0
C358 C 0.94198 0.09907 0.9598 0.0
C359 C 0.95807 0.09305 0.94403 0.0
C360 C 0.96402 0.09768 0.90042 0.0
C361 C 0.95309 0.10722 0.87137 0.0
C362 C 0.93715 0.11362 0.88753 0.0
H363 H 0.88063 0.11152 0.89617 0.0
H364 H 0.89822 0.11971 0.86218 0.0
H365 H 0.9011 0.09988 0.89447 0.0
H366 H 0.93818 0.09625 0.99463 0.0
H367 H 0.96641 0.08581 0.96708 0.0
H368 H 0.06011 0.40407 0.95641 0.0
H369 H 0.08884 0.39419 0.98164 0.0
H370 H 0.09715 0.37008 0.85036 0.0
H371 H 0.06875 0.38079 0.82451 0.0
H372 H 0.0927 0.36109 0.99089 0.0
H373 H 0.14624 0.38336 0.87987 0.0
H374 H 0.12524 0.39402 0.88069 0.0
H375 H 0.12869 0.3749 0.8461 0.0
C376 C 0.06849 0.3974 0.93232 0.0
C377 C 0.06237 0.3932 0.88857 0.0
C378 C 0.08488 0.39172 0.94674 0.0
C379 C 0.09525 0.38138 0.918 0.0
C380 C 0.08967 0.37838 0.8729 0.0
H381 H 0.15075 0.29046 0.9252 0.0
H382 H 0.13984 0.31953 0.9087 0.0
C383 C 0.07339 0.38442 0.85812 0.0
C384 C 0.10959 0.37077 0.93783 0.0
H385 H 0.15033 0.35483 0.91604 0.0
C386 C 0.10551 0.36014 0.97538 0.0
C387 C 0.12629 0.36943 0.9176 0.0
C388 C 0.13191 0.3812 0.87913 0.0
C389 C 0.11704 0.34729 0.99093 0.0
C390 C 0.1333 0.34516 0.96876 0.0
C391 C 0.13788 0.35651 0.93307 0.0
C392 C 0.14402 0.32941 0.97695 0.0
C393 C 0.1111 0.3352 0.02854 0.0
C394 C 0.15089 0.32556 0.02028 0.0
C395 C 0.15704 0.30877 0.03006 0.0
C396 C 0.1564 0.29568 0.99653 0.0
C397 C 0.15111 0.30015 0.95207 0.0
C398 C 0.14499 0.31683 0.94241 0.0
H399 H 0.09715 0.33714 0.03752 0.0
H400 H 0.11294 0.32139 0.01832 0.0
H401 H 0.119 0.33759 0.05962 0.0
H402 H 0.1505 0.33521 0.04723 0.0
H403 H 0.16118 0.30577 0.06451 0.0
H404 H 0.95516 0.87881 0.31558 0.0
H405 H 0.92748 0.86806 0.28433 0.0
H406 H 0.93939 0.89217 0.15504 0.0
H407 H 0.96743 0.90211 0.18556 0.0
H408 H 0.89747 0.87921 0.23794 0.0
H409 H 0.94135 0.84079 0.12476 0.0
H410 H 0.94954 0.85361 0.17155 0.0
H411 H 0.94313 0.864 0.11914 0.0
C412 C 0.95153 0.88233 0.28106 0.0
C413 C 0.96336 0.89113 0.25275 0.0
C414 C 0.93575 0.87617 0.26316 0.0
C415 C 0.93162 0.87892 0.21697 0.0
C416 C 0.94253 0.88954 0.1904 0.0
H417 H 0.86819 0.80333 0.06799 0.0
H418 H 0.8796 0.83276 0.08248 0.0
C419 C 0.95845 0.89532 0.20792 0.0
C420 C 0.91762 0.86845 0.19522 0.0
H421 H 0.91172 0.83453 0.12149 0.0
C422 C 0.9005 0.86963 0.21193 0.0
C423 C 0.92159 0.85593 0.16119 0.0
C424 C 0.9399 0.85334 0.14329 0.0
C425 C 0.88741 0.85815 0.19682 0.0
C426 C 0.89163 0.8451 0.16458 0.0
C427 C 0.90845 0.84466 0.14586 0.0
C428 C 0.88021 0.82985 0.15596 0.0
C429 C 0.86932 0.85975 0.21653 0.0
C430 C 0.87624 0.81871 0.19243 0.0
C431 C 0.86994 0.80197 0.1842 0.0
C432 C 0.86745 0.79602 0.13933 0.0
C433 C 0.86992 0.80764 0.10289 0.0
C434 C 0.87644 0.82443 0.11116 0.0
H435 H 0.86639 0.87347 0.22589 0.0
H436 H 0.85925 0.85506 0.19219 0.0
H437 H 0.86848 0.8518 0.2481 0.0
H438 H 0.87938 0.82237 0.22716 0.0
H439 H 0.86805 0.79328 0.21295 0.0
H440 H 0.36571 0.68808 0.57101 0.0
H441 H 0.37482 0.65815 0.5528 0.0
H442 H 0.3877 0.67427 0.41588 0.0
H443 H 0.37843 0.70378 0.43332 0.0
H444 H 0.37408 0.63993 0.42045 0.0
H445 H 0.42792 0.65173 0.545 0.0
H446 H 0.40587 0.65281 0.56562 0.0
H447 H 0.41371 0.66905 0.52657 0.0
C448 C 0.37008 0.6851 0.53676 0.0
C449 C 0.37175 0.69836 0.50392 0.0
C450 C 0.37532 0.66803 0.52644 0.0
C451 C 0.38223 0.66409 0.48321 0.0
C452 C 0.38246 0.67701 0.44946 0.0
H453 H 0.4537 0.61468 0.32199 0.0
H454 H 0.42561 0.62466 0.35146 0.0
C455 C 0.3773 0.69394 0.45968 0.0
C456 C 0.39168 0.64762 0.47414 0.0
H457 H 0.43137 0.62912 0.49352 0.0
C458 C 0.38641 0.63721 0.43717 0.0
C459 C 0.40774 0.64407 0.49604 0.0
C460 C 0.41429 0.65499 0.53537 0.0
C461 C 0.3973 0.62408 0.41968 0.0
C462 C 0.41399 0.62156 0.43916 0.0
C463 C 0.41859 0.63102 0.47843 0.0
C464 C 0.42795 0.61131 0.41641 0.0
C465 C 0.39102 0.61346 0.37964 0.0
C466 C 0.43846 0.60004 0.44231 0.0
C467 C 0.4547 0.59473 0.42582 0.0
C468 C 0.46049 0.60025 0.38278 0.0
C469 C 0.44929 0.60999 0.3549 0.0
C470 C 0.43318 0.61563 0.37176 0.0
H471 H 0.37665 0.61161 0.38112 0.0
H472 H 0.39401 0.62055 0.34757 0.0
H473 H 0.39739 0.60048 0.37841 0.0
H474 H 0.43478 0.59657 0.47683 0.0
H475 H 0.46327 0.58736 0.44802 0.0
H476 H 0.67643 0.19075 0.71215 0.0
H477 H 0.66447 0.16289 0.73794 0.0
H478 H 0.63528 0.1587 0.61242 0.0
H479 H 0.64802 0.18605 0.58583 0.0
H480 H 0.63193 0.16256 0.75558 0.0
H481 H 0.64273 0.10838 0.63626 0.0
H482 H 0.65602 0.12783 0.63507 0.0
H483 H 0.63549 0.12706 0.60496 0.0
C484 C 0.66822 0.18333 0.68914 0.0
C485 C 0.66319 0.19037 0.64698 0.0
C486 C 0.66132 0.16746 0.70395 0.0
C487 C 0.64892 0.15861 0.67727 0.0
C488 C 0.64511 0.16495 0.6333 0.0
H489 H 0.55139 0.11811 0.69453 0.0
H490 H 0.58133 0.12586 0.67666 0.0
C491 C 0.65235 0.18065 0.61806 0.0
C492 C 0.63725 0.14549 0.69884 0.0
H493 H 0.6144 0.10826 0.67639 0.0
C494 C 0.62855 0.15037 0.73908 0.0
C495 C 0.63276 0.12956 0.67752 0.0
C496 C 0.64242 0.12285 0.63633 0.0
C497 C 0.61448 0.14069 0.75611 0.0
C498 C 0.60904 0.12557 0.73252 0.0
C499 C 0.61856 0.1199 0.69436 0.0
C500 C 0.59177 0.11766 0.74178 0.0
C501 C 0.6046 0.14756 0.79691 0.0
C502 C 0.58774 0.10992 0.78397 0.0
C503 C 0.57043 0.10552 0.79457 0.0
C504 C 0.55699 0.1089 0.76311 0.0
C505 C 0.56135 0.11562 0.71992 0.0
C506 C 0.57853 0.11991 0.70939 0.0
H507 H 0.60945 0.16051 0.80821 0.0
H508 H 0.5905 0.14872 0.78884 0.0
H509 H 0.60599 0.13833 0.82581 0.0
H510 H 0.59784 0.10792 0.80927 0.0
H511 H 0.5675 0.10023 0.82796 0.0
H512 H 0.97961 0.36219 0.89311 0.0
H513 H 0.95439 0.35038 0.93292 0.0
H514 H 0.92222 0.3916 0.87911 0.0
H515 H 0.94771 0.40382 0.83914 0.0
H516 H 0.9316 0.37116 0.99904 0.0
H517 H 0.89793 0.34229 0.84809 0.0
H518 H 0.92114 0.34626 0.84689 0.0
H519 H 0.90628 0.36426 0.84606 0.0
C520 C 0.96724 0.36887 0.88982 0.0
C521 C 0.96571 0.38406 0.86336 0.0
C522 C 0.95283 0.36207 0.91256 0.0
C523 C 0.93653 0.3702 0.90914 0.0
C524 C 0.93475 0.38519 0.88212 0.0
H525 H 0.85635 0.31156 0.06715 0.0
H526 H 0.86829 0.33787 0.03014 0.0
C527 C 0.94928 0.39208 0.85927 0.0
C528 C 0.92167 0.36252 0.93415 0.0
H529 H 0.88969 0.33204 0.92069 0.0
C530 C 0.92198 0.36308 0.98201 0.0
C531 C 0.90923 0.352 0.91168 0.0
C532 C 0.90848 0.35105 0.86032 0.0
C533 C 0.91108 0.35225 0.008 0.0
C534 C 0.89974 0.34062 0.98545 0.0
C535 C 0.89837 0.34111 0.93773 0.0
C536 C 0.89236 0.32546 0.00964 0.0
C537 C 0.91277 0.35216 0.05924 0.0
C538 C 0.9021 0.31005 0.0107 0.0
C539 C 0.89543 0.2952 0.03158 0.0
C540 C 0.87882 0.29543 0.05184 0.0
C541 C 0.8692 0.31105 0.05188 0.0
C542 C 0.87593 0.32601 0.03066 0.0
H543 H 0.92033 0.36353 0.07194 0.0
H544 H 0.89965 0.35223 0.07531 0.0
H545 H 0.91949 0.34004 0.07013 0.0
H546 H 0.91486 0.30948 0.99485 0.0
H547 H 0.90325 0.28345 0.03145 0.0
H548 H 0.47205 0.13591 0.78039 0.0
H549 H 0.44594 0.14652 0.74198 0.0
H550 H 0.41852 0.09947 0.77824 0.0
H551 H 0.44488 0.08857 0.81713 0.0
H552 H 0.42437 0.11954 0.66828 0.0
H553 H 0.39139 0.15167 0.81502 0.0
H554 H 0.41492 0.15163 0.81413 0.0
H555 H 0.40335 0.13148 0.82102 0.0
C556 C 0.46049 0.12779 0.78042 0.0
C557 C 0.46054 0.11135 0.80149 0.0
C558 C 0.44559 0.13389 0.7585 0.0
C559 C 0.43044 0.12371 0.75714 0.0
C560 C 0.43018 0.10745 0.77898 0.0
H561 H 0.3514 0.17952 0.58911 0.0
H562 H 0.36283 0.15352 0.62868 0.0
C563 C 0.44517 0.10131 0.80129 0.0
C564 C 0.41528 0.13041 0.73164 0.0
H565 H 0.38437 0.1621 0.74067 0.0
C566 C 0.41508 0.12832 0.68408 0.0
C567 C 0.40333 0.14188 0.75254 0.0
C568 C 0.40308 0.14432 0.80356 0.0
C569 C 0.40426 0.13867 0.65652 0.0
C570 C 0.39354 0.15134 0.67725 0.0
C571 C 0.39258 0.15227 0.72499 0.0
C572 C 0.38662 0.16613 0.6507 0.0
C573 C 0.40552 0.13723 0.60535 0.0
C574 C 0.3964 0.18153 0.64953 0.0
C575 C 0.39001 0.1962 0.62724 0.0
C576 C 0.37367 0.1958 0.60562 0.0
C577 C 0.36407 0.18016 0.6054 0.0
C578 C 0.3705 0.16537 0.62807 0.0
H579 H 0.41286 0.12545 0.59457 0.0
H580 H 0.39226 0.1368 0.59011 0.0
H581 H 0.41224 0.14893 0.59163 0.0
H582 H 0.40893 0.18228 0.66661 0.0
H583 H 0.39781 0.20798 0.62758 0.0
H584 H 0.54175 0.63449 0.38105 0.0
H585 H 0.5666 0.64783 0.41911 0.0
H586 H 0.60028 0.6074 0.36772 0.0
H587 H 0.57517 0.59361 0.3296 0.0
H588 H 0.59065 0.62868 0.48613 0.0
H589 H 0.62208 0.65755 0.33195 0.0
H590 H 0.59906 0.65254 0.33227 0.0
H591 H 0.61471 0.63522 0.3315 0.0
C592 C 0.55438 0.6283 0.37794 0.0
C593 C 0.55644 0.61287 0.35273 0.0
C594 C 0.56858 0.63598 0.39968 0.0
C595 C 0.58519 0.62852 0.39642 0.0
C596 C 0.5875 0.6133 0.37059 0.0
H597 H 0.6637 0.68522 0.56387 0.0
H598 H 0.65055 0.65977 0.52589 0.0
C599 C 0.57319 0.60551 0.34878 0.0
C600 C 0.59983 0.63709 0.42033 0.0
H601 H 0.6311 0.66806 0.40355 0.0
C602 C 0.59991 0.63691 0.46822 0.0
C603 C 0.61175 0.64782 0.39665 0.0
C604 C 0.61203 0.64843 0.34522 0.0
C605 C 0.61083 0.6481 0.49312 0.0
C606 C 0.62186 0.65972 0.46936 0.0
C607 C 0.62265 0.65904 0.42154 0.0
C608 C 0.63018 0.67462 0.49277 0.0
C609 C 0.60955 0.64846 0.54446 0.0
C610 C 0.62296 0.69122 0.48689 0.0
C611 C 0.63028 0.70561 0.50857 0.0
C612 C 0.64512 0.70376 0.53632 0.0
C613 C 0.65227 0.68704 0.54271 0.0
C614 C 0.64483 0.67254 0.52099 0.0
H615 H 0.60003 0.63879 0.55772 0.0
H616 H 0.62252 0.64567 0.55957 0.0
H617 H 0.60556 0.66165 0.556 0.0
H618 H 0.61154 0.69303 0.46562 0.0
H619 H 0.62425 0.71822 0.50352 0.0
H620 H 0.12936 0.77777 0.15275 0.0
H621 H 0.11673 0.80283 0.19124 0.0
H622 H 0.15558 0.83631 0.13089 0.0
H623 H 0.16862 0.81099 0.09222 0.0
H624 H 0.13521 0.82768 0.25346 0.0
H625 H 0.10583 0.85727 0.09742 0.0
H626 H 0.11188 0.83454 0.0988 0.0
H627 H 0.12848 0.85098 0.0974 0.0
C628 C 0.1354 0.79038 0.14789 0.0
C629 C 0.15011 0.79235 0.11976 0.0
C630 C 0.12813 0.80471 0.16992 0.0
C631 C 0.13529 0.82135 0.16407 0.0
C632 C 0.1499 0.82352 0.13576 0.0
H633 H 0.07618 0.90033 0.32407 0.0
H634 H 0.1024 0.88764 0.28858 0.0
C635 C 0.15727 0.80908 0.11367 0.0
C636 C 0.12678 0.83622 0.18707 0.0
H637 H 0.09551 0.86698 0.16836 0.0
C638 C 0.12693 0.8367 0.23496 0.0
C639 C 0.116 0.84787 0.16265 0.0
C640 C 0.11539 0.84776 0.11121 0.0
C641 C 0.11557 0.84766 0.25915 0.0
C642 C 0.10382 0.85829 0.23468 0.0
C643 C 0.10462 0.85881 0.18686 0.0
C644 C 0.08853 0.8662 0.25726 0.0
C645 C 0.11511 0.84676 0.31053 0.0
C646 C 0.07226 0.85818 0.2517 0.0
C647 C 0.05744 0.86525 0.27192 0.0
C648 C 0.05855 0.88058 0.29791 0.0
C649 C 0.07495 0.88848 0.30426 0.0
C650 C 0.08989 0.88132 0.28394 0.0
H651 H 0.12528 0.83793 0.3245 0.0
H652 H 0.11709 0.85998 0.32502 0.0
H653 H 0.10211 0.84208 0.32195 0.0
H654 H 0.07102 0.8464 0.23158 0.0
H655 H 0.04509 0.85867 0.26695 0.0
H656 H 0.9474 0.59112 0.3192 0.0
H657 H 0.92078 0.60318 0.2842 0.0
H658 H 0.95155 0.6429 0.2183 0.0
H659 H 0.97783 0.63147 0.25373 0.0
H660 H 0.90973 0.64226 0.29003 0.0
H661 H 0.92092 0.61686 0.11537 0.0
H662 H 0.9295 0.60638 0.16592 0.0
H663 H 0.94014 0.6253 0.14283 0.0
C664 C 0.94844 0.60245 0.29734 0.0
C665 C 0.96477 0.61017 0.28862 0.0
C666 C 0.93327 0.60924 0.27728 0.0
C667 C 0.93435 0.62366 0.24799 0.0
C668 C 0.95055 0.63152 0.24005 0.0
H669 H 0.89515 0.71281 0.1485 0.0
H670 H 0.90686 0.6874 0.18729 0.0
C671 C 0.96558 0.62492 0.2603 0.0
C672 C 0.91873 0.63137 0.22658 0.0
H673 H 0.90382 0.64318 0.12137 0.0
C674 C 0.90798 0.64203 0.2533 0.0
C675 C 0.91642 0.63092 0.17875 0.0
C676 C 0.92725 0.61912 0.14896 0.0
C677 C 0.89614 0.65358 0.23286 0.0
C678 C 0.89521 0.65446 0.18473 0.0
C679 C 0.90465 0.64253 0.15828 0.0
C680 C 0.88727 0.66963 0.16166 0.0
C681 C 0.88559 0.66561 0.26269 0.0
C682 C 0.8726 0.66793 0.13337 0.0
C683 C 0.86568 0.6826 0.1113 0.0
C684 C 0.87351 0.69906 0.11695 0.0
C685 C 0.88851 0.70047 0.14429 0.0
C686 C 0.89525 0.68594 0.16651 0.0
H687 H 0.88378 0.66008 0.29742 0.0
H688 H 0.89257 0.67821 0.26615 0.0
H689 H 0.87259 0.66822 0.24741 0.0
H690 H 0.86645 0.65534 0.12874 0.0
H691 H 0.85416 0.6811 0.09026 0.0
H692 H 0.07842 0.08974 0.83969 0.0
H693 H 0.10421 0.10234 0.87754 0.0
H694 H 0.07153 0.14099 0.94135 0.0
H695 H 0.04607 0.12896 0.90327 0.0
H696 H 0.11565 0.13939 0.87224 0.0
H697 H 0.10024 0.11826 0.04826 0.0
H698 H 0.09166 0.10737 0.9983 0.0
H699 H 0.08172 0.12711 0.01873 0.0
C700 C 0.07679 0.10094 0.86176 0.0
C701 C 0.06015 0.10817 0.86909 0.0
C702 C 0.09148 0.10804 0.88347 0.0
C703 C 0.08964 0.12228 0.91311 0.0
C704 C 0.07313 0.12968 0.91959 0.0
H705 H 0.12816 0.21314 0.00316 0.0
H706 H 0.11673 0.18688 0.96787 0.0
C707 C 0.05857 0.12277 0.89773 0.0
C708 C 0.10482 0.1304 0.93581 0.0
H709 H 0.11754 0.14462 0.04099 0.0
C710 C 0.11649 0.14009 0.90914 0.0
C711 C 0.10601 0.13114 0.98393 0.0
C712 C 0.09434 0.12027 0.01402 0.0
C713 C 0.12812 0.1519 0.92944 0.0
C714 C 0.12793 0.15403 0.97735 0.0
C715 C 0.11756 0.14304 0.00421 0.0
C716 C 0.13563 0.16965 0.99886 0.0
C717 C 0.13968 0.16291 0.89939 0.0
C718 C 0.14981 0.16857 0.02903 0.0
C719 C 0.15659 0.18374 0.0491 0.0
C720 C 0.14909 0.20008 0.03952 0.0
C721 C 0.13455 0.20088 0.01041 0.0
C722 C 0.12796 0.18586 0.9902 0.0
H723 H 0.14208 0.15652 0.86597 0.0
H724 H 0.13317 0.17559 0.89285 0.0
H725 H 0.15239 0.16555 0.91622 0.0
H726 H 0.15572 0.15608 0.03657 0.0
H727 H 0.16776 0.18271 0.07157 0.0
H728 H 0.64826 0.29979 0.56139 0.0
H729 H 0.63154 0.32344 0.5969 0.0
H730 H 0.64311 0.30235 0.73008 0.0
H731 H 0.65923 0.27854 0.69458 0.0
H732 H 0.60972 0.30613 0.72038 0.0
H733 H 0.64112 0.36755 0.66567 0.0
H734 H 0.63587 0.35391 0.61793 0.0
H735 H 0.6516 0.34662 0.65942 0.0
C736 C 0.6475 0.3005 0.59826 0.0
C737 C 0.65469 0.28724 0.62532 0.0
C738 C 0.63807 0.31406 0.61857 0.0
C739 C 0.63612 0.31475 0.66626 0.0
C740 C 0.64434 0.30206 0.69325 0.0
H741 H 0.57394 0.39404 0.81049 0.0
H742 H 0.59874 0.37692 0.78203 0.0
C743 C 0.65345 0.28839 0.67296 0.0
C744 C 0.62369 0.32711 0.6877 0.0
H745 H 0.61144 0.36988 0.69279 0.0
C746 C 0.61031 0.3201 0.71481 0.0
C747 C 0.62449 0.34536 0.68096 0.0
C748 C 0.63916 0.35382 0.6548 0.0
C749 C 0.5974 0.33069 0.73401 0.0
C750 C 0.59752 0.34877 0.72477 0.0
C751 C 0.61125 0.35596 0.69924 0.0
C752 C 0.58295 0.36008 0.73957 0.0
C753 C 0.58369 0.32235 0.76389 0.0
C754 C 0.56599 0.35652 0.72431 0.0
C755 C 0.55189 0.36605 0.74082 0.0
C756 C 0.55444 0.37963 0.77231 0.0
C757 C 0.57154 0.38364 0.78634 0.0
C758 C 0.58571 0.37393 0.77001 0.0
H759 H 0.58842 0.30993 0.77893 0.0
H760 H 0.57971 0.33119 0.79201 0.0
H761 H 0.57201 0.31934 0.74294 0.0
H762 H 0.56362 0.34607 0.70023 0.0
H763 H 0.53895 0.36246 0.7295 0.0
H764 H 0.35686 0.81149 0.57247 0.0
H765 H 0.36889 0.83822 0.53803 0.0
H766 H 0.41059 0.80825 0.47839 0.0
H767 H 0.39913 0.78187 0.51322 0.0
H768 H 0.4072 0.8508 0.54764 0.0
H769 H 0.38565 0.83693 0.37077 0.0
H770 H 0.37462 0.82827 0.42044 0.0
H771 H 0.39441 0.81835 0.4003 0.0
C772 C 0.36863 0.81066 0.55217 0.0
C773 C 0.37689 0.79452 0.54493 0.0
C774 C 0.37541 0.82589 0.53242 0.0
C775 C 0.39037 0.82505 0.50495 0.0
C776 C 0.3988 0.80905 0.49869 0.0
H777 H 0.47993 0.86768 0.41533 0.0
H778 H 0.45447 0.85561 0.45319 0.0
C779 C 0.39219 0.79397 0.5186 0.0
C780 C 0.39796 0.84072 0.4835 0.0
H781 H 0.4112 0.85508 0.37896 0.0
C782 C 0.40764 0.85217 0.51082 0.0
C783 C 0.39835 0.84254 0.43552 0.0
C784 C 0.38757 0.83097 0.40496 0.0
C785 C 0.41909 0.86429 0.49109 0.0
C786 C 0.4209 0.86478 0.44308 0.0
C787 C 0.40988 0.85458 0.41579 0.0
C788 C 0.43611 0.87322 0.42135 0.0
C789 C 0.42998 0.87571 0.52177 0.0
C790 C 0.43417 0.88688 0.38992 0.0
C791 C 0.44886 0.89401 0.36834 0.0
C792 C 0.46562 0.88737 0.37753 0.0
C793 C 0.46734 0.87343 0.4083 0.0
C794 C 0.45277 0.86649 0.43005 0.0
H795 H 0.42347 0.87786 0.55516 0.0
H796 H 0.44267 0.86923 0.52834 0.0
H797 H 0.4326 0.88854 0.50558 0.0
H798 H 0.42135 0.89202 0.38225 0.0
H799 H 0.44711 0.90468 0.34458 0.0
H800 H 0.99586 0.57113 0.1288 0.0
H801 H 0.9941 0.54564 0.0795 0.0
H802 H 0.00036 0.512 0.19616 0.0
H803 H 0.00214 0.53751 0.24626 0.0
H804 H 0.0215 0.51936 0.07358 0.0
H805 H 0.95692 0.49253 0.12461 0.0
H806 H 0.963 0.51495 0.1347 0.0
H807 H 0.97177 0.49798 0.16998 0.0
C808 C -0.00328 0.55834 0.14426 0.0
C809 C -0.00081 0.55639 0.19159 0.0
C810 C 0.99571 0.54379 0.11592 0.0
C811 C -0.00302 0.52701 0.13429 0.0
C812 C -0.00086 0.5249 0.18151 0.0
H813 H -0.00082 0.42389 0.01856 0.0
H814 H -0.00246 0.44945 0.06758 0.0
C815 C 0.00023 0.53948 0.21 0.0
C816 C -0.003 0.5118 0.10347 0.0
H817 H 0.9736 0.47587 0.07268 0.0
C818 C 0.01103 0.50985 0.07318 0.0
C819 C 0.98332 0.49948 0.10335 0.0
C820 C 0.9678 0.5013 0.13462 0.0
C821 C 0.01189 0.49567 0.04312 0.0
C822 C -0.00188 0.48339 0.04264 0.0
C823 C 0.98408 0.48537 0.07297 0.0
C824 C -0.00161 0.46804 0.01213 0.0
C825 C 0.02778 0.49372 0.01314 0.0
C826 C -0.00093 0.47001 0.96453 0.0
C827 C 0.00015 0.45538 0.93622 0.0
C828 C 0.00035 0.43853 0.95508 0.0
C829 C -0.00089 0.43665 0.00276 0.0
C830 C -0.00186 0.45125 0.03094 0.0
H831 H 0.03896 0.50154 0.02598 0.0
H832 H 0.03188 0.47988 0.01085 0.0
H833 H 0.02463 0.49836 0.97824 0.0
H834 H -0.00112 0.48287 0.94929 0.0
H835 H 0.00093 0.4573 0.89966 0.0
H836 H 0.83555 0.73286 0.27324 0.0
H837 H 0.81039 0.73099 0.3238 0.0
H838 H 0.77585 0.73456 0.20809 0.0
H839 H 0.80101 0.73643 0.15676 0.0
H840 H 0.7833 0.75708 0.32974 0.0
H841 H 0.75823 0.69146 0.28276 0.0
H842 H 0.78032 0.69831 0.27078 0.0
H843 H 0.76264 0.70606 0.23612 0.0
C844 C 0.82263 0.73313 0.25828 0.0
C845 C 0.82032 0.73481 0.21082 0.0
C846 C 0.80828 0.73206 0.28734 0.0
C847 C 0.79133 0.73248 0.26958 0.0
C848 C 0.78888 0.73397 0.22229 0.0
H849 H 0.68802 0.73417 0.38176 0.0
H850 H 0.71407 0.73207 0.33461 0.0
C851 C 0.80326 0.73512 0.19308 0.0
C852 C 0.77627 0.73225 0.30096 0.0
H853 H 0.74081 0.7083 0.33279 0.0
C854 C 0.77403 0.74639 0.33067 0.0
C855 C 0.76428 0.71827 0.30187 0.0
C856 C 0.76647 0.70257 0.27147 0.0
C857 C 0.7598 0.74716 0.36064 0.0
C858 C 0.74776 0.73318 0.3616 0.0
C859 C 0.75011 0.71895 0.33211 0.0
C860 C 0.73213 0.73352 0.39119 0.0
C861 C 0.75748 0.76319 0.38986 0.0
C862 C 0.73365 0.73466 0.43884 0.0
C863 C 0.71873 0.736 0.46609 0.0
C864 C 0.70205 0.73604 0.44607 0.0
C865 C 0.70063 0.73426 0.39841 0.0
C866 C 0.71552 0.73302 0.37131 0.0
H867 H 0.76531 0.77435 0.37704 0.0
H868 H 0.74356 0.76717 0.3912 0.0
H869 H 0.76184 0.76028 0.42515 0.0
H870 H 0.74637 0.73468 0.45491 0.0
H871 H 0.72029 0.73719 0.50269 0.0
H872 H 0.52753 0.5735 0.51132 0.0
H873 H 0.52983 0.54864 0.56272 0.0
H874 H 0.52375 0.51353 0.44902 0.0
H875 H 0.52148 0.53837 0.39688 0.0
H876 H 0.50335 0.52279 0.57338 0.0
H877 H 0.56683 0.49455 0.51959 0.0
H878 H 0.56059 0.5167 0.50653 0.0
H879 H 0.55167 0.49893 0.4742 0.0
C880 C 0.52685 0.56051 0.49697 0.0
C881 C 0.52428 0.55795 0.44986 0.0
C882 C 0.52817 0.54633 0.52651 0.0
C883 C 0.5271 0.5293 0.50959 0.0
C884 C 0.52487 0.52661 0.46258 0.0
H885 H 0.52161 0.42632 0.61972 0.0
H886 H 0.52424 0.45257 0.57372 0.0
C887 C 0.52349 0.54082 0.4329 0.0
C888 C 0.52724 0.51443 0.54162 0.0
H889 H 0.54968 0.47771 0.57062 0.0
C890 C 0.51353 0.51298 0.57312 0.0
C891 C 0.54055 0.50173 0.54101 0.0
C892 C 0.55585 0.50305 0.50881 0.0
C893 C 0.51248 0.4988 0.60318 0.0
C894 C 0.52572 0.48597 0.60234 0.0
C895 C 0.53958 0.4876 0.57128 0.0
C896 C 0.52484 0.47019 0.63128 0.0
C897 C 0.49685 0.49735 0.63431 0.0
C898 C 0.52458 0.47136 0.6791 0.0
C899 C 0.52294 0.45631 0.70576 0.0
C900 C 0.52171 0.43984 0.68494 0.0
C901 C 0.52248 0.43876 0.63703 0.0
C902 C 0.52402 0.45376 0.61056 0.0
H903 H 0.48601 0.50597 0.62323 0.0
H904 H 0.49197 0.48373 0.63564 0.0
H905 H 0.50069 0.50126 0.66935 0.0
H906 H 0.52556 0.48391 0.69579 0.0
H907 H 0.52253 0.4576 0.74254 0.0
H908 H 0.84552 0.26303 0.88563 0.0
H909 H 0.82126 0.26399 0.83181 0.0
H910 H 0.78488 0.25666 0.94233 0.0
H911 H 0.80907 0.25572 0.9968 0.0
H912 H 0.7962 0.23663 0.81893 0.0
H913 H 0.76561 0.29922 0.87019 0.0
H914 H 0.7878 0.29362 0.88487 0.0
H915 H 0.76992 0.28435 0.91623 0.0
C916 C 0.83237 0.26177 0.89873 0.0
C917 C 0.82926 0.25929 0.94565 0.0
C918 C 0.81853 0.26231 0.86782 0.0
C919 C 0.80133 0.26056 0.8832 0.0
C920 C 0.7981 0.2583 0.92995 0.0
H921 H 0.69901 0.25143 0.77371 0.0
H922 H 0.72548 0.25455 0.8186 0.0
C923 C 0.81194 0.25768 0.96097 0.0
C924 C 0.78681 0.26023 0.85003 0.0
H925 H 0.74938 0.28121 0.81966 0.0
C926 C 0.78602 0.24644 0.81867 0.0
C927 C 0.77366 0.2731 0.84991 0.0
C928 C 0.77429 0.28851 0.88181 0.0
C929 C 0.77197 0.24477 0.78829 0.0
C930 C 0.7586 0.25747 0.78876 0.0
C931 C 0.75967 0.27151 0.81937 0.0
C932 C 0.74274 0.25577 0.76032 0.0
C933 C 0.77118 0.22906 0.75738 0.0
C934 C 0.74365 0.25553 0.71246 0.0
C935 C 0.72845 0.25361 0.6864 0.0
C936 C 0.71211 0.25209 0.7079 0.0
C937 C 0.71132 0.25258 0.75587 0.0
C938 C 0.72646 0.2544 0.78171 0.0
H939 H 0.78041 0.2187 0.76828 0.0
H940 H 0.75781 0.22351 0.75657 0.0
H941 H 0.7747 0.23304 0.72217 0.0
H942 H 0.75608 0.2569 0.69528 0.0
H943 H 0.72949 0.2534 0.64956 0.0
H944 H 0.19499 0.20952 0.911 0.0
H945 H 0.22085 0.2056 0.86334 0.0
H946 H 0.24513 0.24982 0.92882 0.0
H947 H 0.21973 0.25295 0.97866 0.0
H948 H 0.23279 0.2252 0.80202 0.0
H949 H 0.2854 0.21818 0.92918 0.0
H950 H 0.26269 0.21755 0.94504 0.0
H951 H 0.27382 0.23812 0.9384 0.0
C952 C 0.20603 0.21816 0.91574 0.0
C953 C 0.20547 0.23147 0.94853 0.0
C954 C 0.22078 0.21595 0.88846 0.0
C955 C 0.23511 0.22726 0.89275 0.0
C956 C 0.23455 0.24055 0.92577 0.0
H957 H 0.30617 0.25018 0.67144 0.0
H958 H 0.28144 0.24816 0.7238 0.0
C959 C 0.21998 0.24243 0.95401 0.0
C960 C 0.24996 0.22595 0.86033 0.0
H961 H 0.29437 0.22633 0.85342 0.0
C962 C 0.24625 0.22519 0.81339 0.0
C963 C 0.26756 0.22562 0.87491 0.0
C964 C 0.27258 0.22471 0.92466 0.0
C965 C 0.25959 0.22451 0.78072 0.0
C966 C 0.27718 0.22552 0.79518 0.0
C967 C 0.2809 0.22583 0.84214 0.0
C968 C 0.29193 0.22645 0.7624 0.0
C969 C 0.25458 0.22238 0.73121 0.0
C970 C 0.30638 0.21537 0.76749 0.0
C971 C 0.32077 0.21693 0.73857 0.0
C972 C 0.32084 0.22939 0.70348 0.0
C973 C 0.30629 0.24027 0.69777 0.0
C974 C 0.2921 0.23902 0.7275 0.0
H975 H 0.24187 0.21554 0.72775 0.0
H976 H 0.25312 0.23544 0.71538 0.0
H977 H 0.26458 0.21494 0.71196 0.0
H978 H 0.3066 0.20559 0.79415 0.0
H979 H 0.33184 0.20838 0.74361 0.0
H980 H 0.34008 0.76397 0.38092 0.0
H981 H 0.31507 0.76579 0.32973 0.0
H982 H 0.2802 0.75875 0.44363 0.0
H983 H 0.30518 0.75691 0.49554 0.0
H984 H 0.28914 0.73857 0.32002 0.0
H985 H 0.261 0.80218 0.37314 0.0
H986 H 0.28333 0.79615 0.38501 0.0
H987 H 0.26591 0.78712 0.4184 0.0
C988 C 0.32711 0.76296 0.39535 0.0
C989 C 0.32465 0.76026 0.44244 0.0
C990 C 0.31285 0.76399 0.36594 0.0
C991 C 0.29585 0.76254 0.38301 0.0
C992 C 0.29326 0.76013 0.42998 0.0
H993 H 0.1928 0.75812 0.27062 0.0
H994 H 0.21886 0.76028 0.31767 0.0
C995 C 0.30755 0.75901 0.45952 0.0
C996 C 0.28092 0.76258 0.35118 0.0
H997 H 0.24437 0.78521 0.32147 0.0
C998 C 0.27938 0.7488 0.32003 0.0
C999 C 0.26829 0.77596 0.35153 0.0
C1000 C 0.26969 0.79129 0.38353 0.0
C1001 C 0.2652 0.74776 0.28991 0.0
C1002 C 0.25249 0.76112 0.2903 0.0
C1003 C 0.25418 0.77503 0.32114 0.0
C1004 C 0.23684 0.7604 0.26081 0.0
C1005 C 0.26365 0.73206 0.25913 0.0
C1006 C 0.23829 0.76003 0.21305 0.0
C1007 C 0.22335 0.75865 0.18582 0.0
C1008 C 0.20672 0.75783 0.20598 0.0
C1009 C 0.20537 0.75869 0.25383 0.0
C1010 C 0.22026 0.75995 0.28089 0.0
H1011 H 0.27204 0.72114 0.27084 0.0
H1012 H 0.24995 0.72741 0.2574 0.0
H1013 H 0.26783 0.73569 0.22415 0.0
H1014 H 0.25097 0.76074 0.19686 0.0
H1015 H 0.22485 0.75817 0.1491 0.0
H1016 H 0.50039 0.96188 0.40381 0.0
H1017 H 0.49743 0.98827 0.45022 0.0
H1018 H 0.49789 0.95705 0.5726 0.0
H1019 H 0.50046 0.93073 0.52691 0.0
H1020 H 0.47234 0.98205 0.5739 0.0
H1021 H 0.53634 0.0106 0.52477 0.0
H1022 H 0.52204 0.00575 0.4779 0.0
H1023 H 0.53057 0.98831 0.51223 0.0
C1024 C 0.49985 0.96064 0.44059 0.0
C1025 C 0.50075 0.94418 0.46159 0.0
C1026 C 0.49825 0.97573 0.46705 0.0
C1027 C 0.49771 0.97461 0.51485 0.0
C1028 C 0.49833 0.9582 0.53576 0.0
H1029 H 0.49921 0.04197 0.74991 0.0
H1030 H 0.49781 0.01744 0.69663 0.0
C1031 C 0.49982 0.94316 0.50948 0.0
C1032 C 0.49655 0.99041 0.54361 0.0
H1033 H 0.51858 0.02731 0.57382 0.0
C1034 C 0.48242 0.99198 0.57381 0.0
C1035 C 0.50976 0.00329 0.54345 0.0
C1036 C 0.52563 0.0019 0.51318 0.0
C1037 C 0.48117 0.00609 0.60404 0.0
C1038 C 0.49447 0.01883 0.60422 0.0
C1039 C 0.50842 0.01746 0.57346 0.0
C1040 C 0.49438 0.03354 0.63668 0.0
C1041 C 0.46564 0.00732 0.63546 0.0
C1042 C 0.49302 0.05064 0.62042 0.0
C1043 C 0.4938 0.06466 0.65065 0.0
C1044 C 0.49615 0.06183 0.69773 0.0
C1045 C 0.49737 0.04462 0.71392 0.0
C1046 C 0.49649 0.03059 0.68359 0.0
H1047 H 0.45477 -0.00124 0.62414 0.0
H1048 H 0.46958 0.00323 0.67029 0.0
H1049 H 0.46082 0.02095 0.63746 0.0
H1050 H 0.49146 0.05314 0.58426 0.0
H1051 H 0.49285 0.07773 0.6369 0.0
H1052 H 0.0178 0.03418 0.90972 0.0
H1053 H 0.02005 0.00859 0.95944 0.0
H1054 H 0.04071 0.04076 0.06727 0.0
H1055 H 0.03857 0.06635 0.01816 0.0
H1056 H 0.05846 0.00705 0.05118 0.0
H1057 H 0.98641 0.00269 0.07262 0.0
H1058 H 0.99445 0.00385 0.01502 0.0
H1059 H -0.0029 0.02219 0.05235 0.0
C1060 C 0.02299 0.03579 0.94384 0.0
C1061 C 0.02785 0.05234 0.96011 0.0
C1062 C 0.0242 0.02118 0.97219 0.0
C1063 C 0.03037 0.02291 0.01703 0.0
C1064 C 0.03587 0.03923 0.03276 0.0
H1065 H 0.017 0.95413 0.24862 0.0
H1066 H 0.01968 0.97947 0.19829 0.0
C1067 C 0.03457 0.05383 0.00465 0.0
C1068 C 0.03041 0.00788 0.04844 0.0
H1069 H 0.00338 0.98102 0.10849 0.0
C1070 C 0.04646 0.00129 0.06368 0.0
C1071 C 0.01469 0.00066 0.06504 0.0
C1072 C -0.00286 0.00773 0.05081 0.0
C1073 C 0.04716 0.98742 0.09484 0.0
C1074 C 0.03143 0.98004 0.11088 0.0
C1075 C 0.0154 0.98676 0.09599 0.0
C1076 C 0.03123 0.96507 0.14253 0.0
C1077 C 0.06468 0.98089 0.11088 0.0
C1078 C 0.03694 0.94869 0.12773 0.0
C1079 C 0.03536 0.9342 0.15619 0.0
C1080 C 0.02803 0.93585 0.20001 0.0
C1081 C 0.02275 0.95242 0.21517 0.0
C1082 C 0.02423 0.96689 0.18648 0.0
H1083 H 0.07532 0.99025 0.1029 0.0
H1084 H 0.06452 0.97848 0.14824 0.0
H1085 H 0.06765 0.96837 0.09363 0.0
H1086 H 0.04216 0.94702 0.09367 0.0
H1087 H 0.03959 0.92165 0.14347 0.0
H1088 H 0.0223 0.42216 0.64151 0.0
H1089 H 0.02389 0.44489 0.58358 0.0
H1090 H 0.02261 0.48425 0.68853 0.0
H1091 H 0.02069 0.46148 0.74701 0.0
H1092 H -0.00097 0.49047 0.62124 0.0
H1093 H 0.06335 0.47656 0.54391 0.0
H1094 H 0.04963 0.45762 0.54579 0.0
H1095 H 0.05675 0.46758 0.5982 0.0
C1096 C 0.02258 0.43563 0.65245 0.0
C1097 C 0.02135 0.43999 0.69897 0.0
C1098 C 0.02363 0.44863 0.6192 0.0
C1099 C 0.02366 0.46628 0.63168 0.0
C1100 C 0.02273 0.4707 0.67814 0.0
H1101 H 0.03645 0.55104 0.43342 0.0
H1102 H 0.04099 0.5306 0.49656 0.0
C1103 C 0.02165 0.45768 0.71152 0.0
C1104 C 0.02323 0.48001 0.59597 0.0
H1105 H 0.0438 0.4942 0.49939 0.0
C1106 C 0.00893 0.49142 0.59492 0.0
C1107 C 0.03625 0.48139 0.5619 0.0
C1108 C 0.05245 0.47025 0.5627 0.0
C1109 C 0.00694 0.50369 0.5598 0.0
C1110 C 0.01942 0.50436 0.52426 0.0
C1111 C 0.0341 0.49347 0.52627 0.0
C1112 C 0.01723 0.5161 0.48442 0.0
C1113 C 0.99147 0.51584 0.56109 0.0
C1114 C 0.00265 0.51439 0.45582 0.0
C1115 C 0.0 0.52602 0.41979 0.0
C1116 C 0.01196 0.53956 0.41143 0.0
C1117 C 0.02695 0.5408 0.439 0.0
C1118 C 0.02957 0.52915 0.47513 0.0
H1119 H 0.98608 0.51706 0.59614 0.0
H1120 H 0.99505 0.52902 0.54855 0.0
H1121 H 0.98102 0.5106 0.53878 0.0
H1122 H 0.99317 0.50415 0.46172 0.0
H1123 H 0.9884 0.52458 0.39904 0.0
H1124 H 0.79634 0.75379 0.00091 0.0
H1125 H 0.77366 0.75496 0.94197 0.0
H1126 H 0.81326 0.75759 0.83774 0.0
H1127 H 0.83592 0.75674 0.89614 0.0
H1128 H 0.78573 0.78012 0.82135 0.0
H1129 H 0.76208 0.71329 0.86041 0.0
H1130 H 0.7618 0.72812 0.9078 0.0
H1131 H 0.78227 0.72176 0.88299 0.0
C1132 C 0.80021 0.75477 0.96547 0.0
C1133 C 0.81796 0.75501 0.95325 0.0
C1134 C 0.78723 0.75533 0.93181 0.0
C1135 C 0.79178 0.75604 0.8854 0.0
C1136 C 0.80945 0.75697 0.8733 0.0
H1137 H 0.73284 0.72391 0.64973 0.0
H1138 H 0.7539 0.72813 0.71134 0.0
C1139 C 0.8224 0.75644 0.90682 0.0
C1140 C 0.77827 0.75523 0.84909 0.0
H1141 H 0.74704 0.72877 0.80314 0.0
C1142 C 0.77719 0.76894 0.81745 0.0
C1143 C 0.76734 0.74051 0.84369 0.0
C1144 C 0.76846 0.72499 0.87521 0.0
C1145 C 0.76553 0.7683 0.78046 0.0
C1146 C 0.75446 0.75366 0.77539 0.0
C1147 C 0.75547 0.74002 0.8072 0.0
C1148 C 0.74214 0.75187 0.73651 0.0
C1149 C 0.76555 0.78304 0.74636 0.0
C1150 C 0.72856 0.76389 0.72996 0.0
C1151 C 0.71652 0.76157 0.69451 0.0
C1152 C 0.71775 0.74708 0.66523 0.0
C1153 C 0.7315 0.73521 0.67161 0.0
C1154 C 0.74354 0.73757 0.7069 0.0
H1155 H 0.77763 0.79099 0.7487 0.0
H1156 H 0.76429 0.77801 0.71099 0.0
H1157 H 0.75428 0.79171 0.75325 0.0
H1158 H 0.72701 0.77484 0.75289 0.0
H1159 H 0.70603 0.7709 0.69077 0.0
H1160 H 0.49109 0.55086 0.20018 0.0
H1161 H 0.48741 0.52945 0.13893 0.0
H1162 H 0.53091 0.50003 0.19135 0.0
H1163 H 0.53471 0.52131 0.25263 0.0
H1164 H 0.51381 0.52059 0.07297 0.0
H1165 H 0.49196 0.46313 0.17276 0.0
H1166 H 0.49071 0.48511 0.19456 0.0
H1167 H 0.51115 0.47366 0.1947 0.0
C1168 C 0.49974 0.53971 0.19907 0.0
C1169 C 0.5132 0.5378 0.23136 0.0
C1170 C 0.49763 0.52753 0.16396 0.0
C1171 C 0.50878 0.51309 0.16085 0.0
C1172 C 0.52199 0.51095 0.19353 0.0
H1173 H 0.53194 0.42807 0.98308 0.0
H1174 H 0.52913 0.44964 0.04359 0.0
C1175 C 0.52419 0.52317 0.22844 0.0
C1176 C 0.50732 0.50076 0.12205 0.0
H1177 H 0.50097 0.45786 0.09626 0.0
C1178 C 0.5108 0.5069 0.07786 0.0
C1179 C 0.5034 0.48295 0.12866 0.0
C1180 C 0.49893 0.47579 0.17516 0.0
C1181 C 0.51123 0.49553 0.04028 0.0
C1182 C 0.50768 0.4776 0.04701 0.0
C1183 C 0.50371 0.47159 0.0911 0.0
C1184 C 0.50911 0.46465 0.00949 0.0
C1185 C 0.51625 0.50268 0.99413 0.0
C1186 C 0.4987 0.46581 0.97011 0.0
C1187 C 0.50037 0.4535 0.93505 0.0
C1188 C 0.51235 0.4397 0.93904 0.0
C1189 C 0.52258 0.43851 0.97878 0.0
C1190 C 0.52097 0.45083 0.01354 0.0
H1191 H 0.52251 0.5157 0.99682 0.0
H1192 H 0.52535 0.49372 0.9763 0.0
H1193 H 0.50436 0.50406 0.97285 0.0
H1194 H 0.4892 0.47616 0.96662 0.0
H1195 H 0.49221 0.45471 0.90504 0.0
H1196 H 0.78836 0.26465 0.13979 0.0
H1197 H 0.76723 0.2593 0.20083 0.0
H1198 H 0.79993 0.21849 0.25453 0.0
H1199 H 0.82115 0.22366 0.19351 0.0
H1200 H 0.74993 0.22537 0.22909 0.0
H1201 H 0.79284 0.25572 0.36047 0.0
H1202 H 0.79552 0.26 0.30027 0.0
H1203 H 0.80225 0.23947 0.32363 0.0
C1204 C 0.791 0.2544 0.16426 0.0
C1205 C 0.80651 0.24466 0.16191 0.0
C1206 C 0.7789 0.25137 0.19908 0.0
C1207 C 0.78214 0.23865 0.23239 0.0
C1208 C 0.79729 0.22848 0.22933 0.0
H1209 H 0.72574 0.22377 0.4905 0.0
H1210 H 0.74693 0.22056 0.42826 0.0
C1211 C 0.80935 0.23141 0.19432 0.0
C1212 C 0.76997 0.23659 0.27127 0.0
H1213 H 0.76536 0.24579 0.38461 0.0
C1214 C 0.75331 0.22971 0.26319 0.0
C1215 C 0.77451 0.24214 0.31572 0.0
C1216 C 0.7922 0.24985 0.32587 0.0
C1217 C 0.74093 0.22843 0.2984 0.0
C1218 C 0.74521 0.23465 0.34253 0.0
C1219 C 0.76208 0.24105 0.35082 0.0
C1220 C 0.73205 0.23574 0.37968 0.0
C1221 C 0.72343 0.22036 0.28794 0.0
C1222 C 0.71677 0.24548 0.37325 0.0
C1223 C 0.70467 0.24727 0.40852 0.0
C1224 C 0.70766 0.23954 0.45135 0.0
C1225 C 0.72302 0.22983 0.4579 0.0
C1226 C 0.73513 0.22799 0.42239 0.0
H1227 H 0.72429 0.21118 0.25872 0.0
H1228 H 0.71814 0.21326 0.31793 0.0
H1229 H 0.71409 0.2308 0.27845 0.0
H1230 H 0.71432 0.252 0.34111 0.0
H1231 H 0.69306 0.25495 0.4023 0.0
H1232 H 0.29752 0.25508 0.50043 0.0
H1233 H 0.27458 0.25706 0.44233 0.0
H1234 H 0.3137 0.25881 0.33674 0.0
H1235 H 0.33662 0.25719 0.39429 0.0
H1236 H 0.28647 0.28178 0.32087 0.0
H1237 H 0.26195 0.21541 0.36203 0.0
H1238 H 0.26209 0.23046 0.40895 0.0
H1239 H 0.28236 0.22362 0.3839 0.0
C1240 C 0.30123 0.25608 0.46487 0.0
C1241 C 0.31891 0.25579 0.452 0.0
C1242 C 0.2881 0.25711 0.4317 0.0
C1243 C 0.29243 0.25776 0.38514 0.0
C1244 C 0.31006 0.25825 0.37243 0.0
H1245 H 0.23475 0.22472 0.15 0.0
H1246 H 0.25533 0.2296 0.21226 0.0
C1247 C 0.32316 0.25727 0.40546 0.0
C1248 C 0.27876 0.25708 0.34927 0.0
H1249 H 0.24733 0.23071 0.30389 0.0
C1250 C 0.27781 0.27068 0.31728 0.0
C1251 C 0.26765 0.24246 0.34433 0.0
C1252 C 0.26859 0.22707 0.37632 0.0
C1253 C 0.26618 0.26998 0.2802 0.0
C1254 C 0.25505 0.25538 0.2754 0.0
C1255 C 0.25584 0.24191 0.30775 0.0
C1256 C 0.24306 0.25331 0.23595 0.0
C1257 C 0.26635 0.28455 0.24563 0.0
C1258 C 0.22939 0.26512 0.22827 0.0
C1259 C 0.2176 0.26241 0.19242 0.0
C1260 C 0.21921 0.24774 0.16389 0.0
C1261 C 0.2331 0.23613 0.17129 0.0
C1262 C 0.24487 0.23888 0.20696 0.0
H1263 H 0.2783 0.29268 0.24846 0.0
H1264 H 0.2655 0.27931 0.21038 0.0
H1265 H 0.2549 0.29309 0.25141 0.0
H1266 H 0.22755 0.27619 0.25067 0.0
H1267 H 0.20698 0.27155 0.18784 0.0
H1268 H 0.31905 0.72467 0.69104 0.0
H1269 H 0.29785 0.72043 0.75263 0.0
H1270 H 0.26567 0.76115 0.69631 0.0
H1271 H 0.28672 0.76551 0.63474 0.0
H1272 H 0.28767 0.74725 0.81574 0.0
H1273 H 0.23109 0.72063 0.7205 0.0
H1274 H 0.25306 0.72023 0.69815 0.0
H1275 H 0.24041 0.73992 0.69573 0.0
C1276 C 0.30732 0.73254 0.69133 0.0
C1277 C 0.30458 0.74545 0.65796 0.0
C1278 C 0.29526 0.73012 0.72662 0.0
C1279 C 0.28013 0.74036 0.72879 0.0
C1280 C 0.27713 0.75292 0.69488 0.0
H1281 H 0.19494 0.76463 0.90333 0.0
H1282 H 0.21648 0.76068 0.84315 0.0
C1283 C 0.28923 0.75545 0.65981 0.0
C1284 C 0.26803 0.73887 0.76807 0.0
H1285 H 0.22543 0.73131 0.79551 0.0
C1286 C 0.27411 0.74352 0.81158 0.0
C1287 C 0.25037 0.73402 0.7624 0.0
C1288 C 0.24333 0.72826 0.71676 0.0
C1289 C 0.26277 0.7443 0.84922 0.0
C1290 C 0.24497 0.73993 0.84329 0.0
C1291 C 0.23906 0.73469 0.80003 0.0
C1292 C 0.23198 0.74194 0.88053 0.0
C1293 C 0.26978 0.75063 0.89441 0.0
C1294 C 0.23343 0.73262 0.92164 0.0
C1295 C 0.22113 0.73495 0.95651 0.0
C1296 C 0.20708 0.74652 0.95061 0.0
C1297 C 0.20559 0.75563 0.90914 0.0
C1298 C 0.21789 0.75336 0.87456 0.0
H1299 H 0.28266 0.75712 0.89069 0.0
H1300 H 0.26057 0.75991 0.91064 0.0
H1301 H 0.27144 0.73935 0.91769 0.0
H1302 H 0.24401 0.72348 0.92669 0.0
H1303 H 0.22258 0.72765 0.98791 0.0
H1304 H 0.52859 0.95987 0.24474 0.0
H1305 H 0.5306 0.98176 0.18366 0.0
H1306 H 0.49907 0.94929 0.09652 0.0
H1307 H 0.49704 0.92742 0.15668 0.0
H1308 H 0.54189 0.9754 0.08204 0.0
H1309 H 0.47417 -0.00081 0.10942 0.0
H1310 H 0.48652 0.98829 0.1535 0.0
H1311 H 0.47706 0.97593 0.10778 0.0
C1312 C 0.52217 0.95736 0.21248 0.0
C1313 C 0.51259 0.94193 0.20569 0.0
C1314 C 0.52336 0.96985 0.17766 0.0
C1315 C 0.51488 0.96714 0.13582 0.0
C1316 C 0.50561 0.95164 0.12872 0.0
H1317 H 0.48934 0.02274 0.89081 0.0
H1318 H 0.49321 0.00173 0.95259 0.0
C1319 C 0.50449 0.93916 0.16321 0.0
C1320 C 0.51515 0.98058 0.09961 0.0
H1321 H 0.48865 0.00898 0.04297 0.0
C1322 C 0.53034 0.98291 0.07365 0.0
C1323 C 0.50002 0.99024 0.08881 0.0
C1324 C 0.48351 0.98845 0.11643 0.0
C1325 C 0.53061 0.99428 0.03597 0.0
C1326 C 0.51535 0.00375 0.02467 0.0
C1327 C 0.5003 0.00165 0.05144 0.0
C1328 C 0.51444 0.01568 0.98481 0.0
C1329 C 0.54698 0.99557 0.00763 0.0
C1330 C 0.52526 0.0304 0.98193 0.0
C1331 C 0.52316 0.04241 0.94637 0.0
C1332 C 0.51003 0.04002 0.91336 0.0
C1333 C 0.49955 0.02501 0.91568 0.0
C1334 C 0.50173 0.01299 0.95104 0.0
H1335 H 0.55582 0.98433 0.01356 0.0
H1336 H 0.54382 -0.00376 0.9707 0.0
H1337 H 0.55413 0.00763 0.01702 0.0
H1338 H 0.53493 0.03295 0.00804 0.0
H1339 H 0.53138 0.05389 0.94578 0.0
H1340 H -0.00161 0.0682 0.65095 0.0
H1341 H 0.99559 0.04481 0.59488 0.0
H1342 H 0.00352 0.00665 0.70087 0.0
H1343 H 0.00614 0.02997 0.75741 0.0
H1344 H 0.02092 0.02057 0.57349 0.0
H1345 H 0.96083 0.98755 0.63395 0.0
H1346 H 0.96693 0.00916 0.65244 0.0
H1347 H 0.97712 0.99033 0.67739 0.0
C1348 C -0.00067 0.05483 0.66252 0.0
C1349 C 0.00248 0.05097 0.70873 0.0
C1350 C -0.00226 0.04148 0.63036 0.0
C1351 C -0.00086 0.02398 0.64372 0.0
C1352 C 0.00203 0.02005 0.68991 0.0
H1353 H 0.00813 0.92462 0.51013 0.0
H1354 H 0.00528 0.94903 0.56299 0.0
C1355 C 0.00363 0.03341 0.72217 0.0
C1356 C -0.00129 0.00995 0.60887 0.0
H1357 H 0.97772 0.97245 0.57829 0.0
C1358 C 0.01137 0.01014 0.57425 0.0
C1359 C 0.98626 -0.00366 0.60999 0.0
C1360 C 0.97191 0.99586 0.64517 0.0
C1361 C 0.01225 -0.00319 0.54151 0.0
C1362 C -7e-05 0.98308 0.54295 0.0
C1363 C 0.98713 0.983 0.57723 0.0
C1364 C 0.00065 0.96827 0.51045 0.0
C1365 C 0.02673 -0.00277 0.50663 0.0
C1366 C -0.00138 0.97092 0.46332 0.0
C1367 C 0.00028 0.95696 0.43285 0.0
C1368 C 0.00393 0.94009 0.44906 0.0
C1369 C 0.0054 0.93744 0.49641 0.0
C1370 C 0.00374 0.95138 0.52675 0.0
H1371 H 0.03731 0.00638 0.51651 0.0
H1372 H 0.03244 0.98406 0.50189 0.0
H1373 H 0.02137 0.00158 0.47336 0.0
H1374 H 0.9959 0.98381 0.45007 0.0
H1375 H -0.00103 0.95944 0.39663 0.0
loop_
_geom_bond_atom_site_label_1
_geom_bond_atom_site_label_2
_geom_bond_distance
_geom_bond_site_symmetry_2
_ccdc_geom_bond_type
Mg0 O1 2.028 . S
Mg0 O7 1.986 . S
Mg0 O9 2.114 1_455 S
Mg0 O10 2.234 1_455 S
Mg0 O13 2.010 . S
O1 Mg0 2.028 . S
O1 C4 1.250 . S
O2 Mg3 2.028 . S
O2 C4 1.248 . S
Mg3 O2 2.028 . S
Mg3 O8 2.032 . S
Mg3 O10 2.057 1_455 S
C4 O1 1.250 . S
C4 O2 1.248 . S
C5 O6 1.264 . S
C5 O13 1.249 . S
O6 C5 1.264 . S
O7 Mg0 1.986 . S
O7 C11 1.246 . S
O8 Mg3 2.032 . S
O8 C11 1.259 . S
O9 Mg0 2.114 1_655 S
O9 C12 1.252 . S
O10 Mg0 2.234 1_655 S
O10 Mg3 2.057 1_655 S
O10 C12 1.308 . S
C11 O7 1.246 . S
C11 O8 1.259 . S
C12 O9 1.252 . S
C12 O10 1.308 . S
O13 Mg0 2.010 . S
O13 C5 1.249 . S
Mg14 O15 2.028 . S
Mg14 O21 1.986 . S
Mg14 O23 2.114 . S
Mg14 O24 2.251 . S
Mg14 O27 2.010 . S
O15 Mg14 2.028 . S
O15 C18 1.250 . S
O16 Mg17 2.028 . S
O16 C18 1.248 . S
Mg17 O16 2.028 . S
Mg17 O22 2.032 . S
Mg17 O24 2.079 . S
C18 O15 1.250 . S
C18 O16 1.248 . S
C19 O20 1.264 . S
C19 O27 1.249 . S
O20 C19 1.264 . S
O21 Mg14 1.986 . S
O21 C25 1.246 . S
O22 Mg17 2.032 . S
O22 C25 1.259 . S
O23 Mg14 2.114 . S
O23 C26 1.252 . S
O24 Mg14 2.251 . S
O24 Mg17 2.079 . S
O24 C26 1.273 . S
C25 O21 1.246 . S
C25 O22 1.259 . S
C26 O23 1.252 . S
C26 O24 1.273 . S
O27 Mg14 2.010 . S
O27 C19 1.249 . S
Mg28 O29 2.028 . S
Mg28 O35 1.986 . S
Mg28 O37 2.114 . S
Mg28 O38 2.251 . S
Mg28 O41 2.010 . S
O29 Mg28 2.028 . S
O29 C32 1.250 . S
O30 Mg31 2.028 . S
O30 C32 1.248 . S
Mg31 O30 2.028 . S
Mg31 O36 2.032 . S
Mg31 O38 2.079 . S
C32 O29 1.250 . S
C32 O30 1.248 . S
C33 O34 1.264 . S
C33 O41 1.249 . S
O34 C33 1.264 . S
O35 Mg28 1.986 . S
O35 C39 1.246 . S
O36 Mg31 2.032 . S
O36 C39 1.259 . S
O37 Mg28 2.114 . S
O37 C40 1.252 . S
O38 Mg28 2.251 . S
O38 Mg31 2.079 . S
O38 C40 1.273 . S
C39 O35 1.246 . S
C39 O36 1.259 . S
C40 O37 1.252 . S
C40 O38 1.273 . S
O41 Mg28 2.010 . S
O41 C33 1.249 . S
Mg42 O43 2.028 . S
Mg42 O49 1.986 . S
Mg42 O51 2.114 . S
Mg42 O52 2.251 1_554 S
Mg42 O55 2.010 . S
O43 Mg42 2.028 . S
O43 C46 1.250 1_554 S
O44 Mg45 2.028 . S
O44 C46 1.248 . S
Mg45 O44 2.028 . S
Mg45 O50 2.032 . S
Mg45 O52 2.079 . S
C46 O43 1.250 1_556 S
C46 O44 1.248 . S
C47 O48 1.264 . S
C47 O55 1.249 . S
O48 C47 1.264 . S
O49 Mg42 1.986 . S
O49 C53 1.246 . S
O50 Mg45 2.032 . S
O50 C53 1.259 1_556 S
O51 Mg42 2.114 . S
O51 C54 1.252 . S
O52 Mg42 2.251 1_556 S
O52 Mg45 2.079 . S
O52 C54 1.273 1_556 S
C53 O49 1.246 . S
C53 O50 1.259 1_554 S
C54 O51 1.252 . S
C54 O52 1.273 1_554 S
O55 Mg42 2.010 . S
O55 C47 1.249 . S
Mg56 O57 2.028 . S
Mg56 O63 1.986 . S
Mg56 O65 2.114 1_455 S
Mg56 O66 2.233 1_455 S
Mg56 O69 2.010 . S
O57 Mg56 2.028 . S
O57 C60 1.250 . S
O58 Mg59 2.028 . S
O58 C60 1.248 . S
Mg59 O58 2.028 . S
Mg59 O64 2.032 . S
Mg59 O66 2.056 1_455 S
C60 O57 1.250 . S
C60 O58 1.248 . S
C61 O62 1.264 . S
C61 O69 1.249 . S
O62 C61 1.264 . S
O63 Mg56 1.986 . S
O63 C67 1.246 . S
O64 Mg59 2.032 . S
O64 C67 1.259 . S
O65 Mg56 2.114 1_655 S
O65 C68 1.252 . S
O66 Mg56 2.233 1_655 S
O66 Mg59 2.056 1_655 S
O66 C68 1.309 . S
C67 O63 1.246 . S
C67 O64 1.259 . S
C68 O65 1.252 . S
C68 O66 1.309 . S
O69 Mg56 2.010 . S
O69 C61 1.249 . S
Mg70 O71 2.028 . S
Mg70 O77 1.986 . S
Mg70 O79 2.114 . S
Mg70 O80 2.251 . S
Mg70 O83 2.010 . S
O71 Mg70 2.028 . S
O71 C74 1.250 . S
O72 Mg73 2.028 . S
O72 C74 1.248 . S
Mg73 O72 2.028 . S
Mg73 O78 2.032 . S
Mg73 O80 2.079 . S
C74 O71 1.250 . S
C74 O72 1.248 . S
C75 O76 1.264 1_554 S
C75 O83 1.249 . S
O76 C75 1.264 1_556 S
O77 Mg70 1.986 . S
O77 C81 1.246 . S
O78 Mg73 2.032 . S
O78 C81 1.259 . S
O79 Mg70 2.114 . S
O79 C82 1.252 . S
O80 Mg70 2.251 . S
O80 Mg73 2.079 . S
O80 C82 1.273 . S
C81 O77 1.246 . S
C81 O78 1.259 . S
C82 O79 1.252 . S
C82 O80 1.273 . S
O83 Mg70 2.010 . S
O83 C75 1.249 . S
Mg84 O85 2.028 . S
Mg84 O91 1.986 . S
Mg84 O93 2.114 . S
Mg84 O94 2.251 . S
Mg84 O97 2.010 . S
O85 Mg84 2.028 . S
O85 C88 1.250 . S
O86 Mg87 2.028 . S
O86 C88 1.248 . S
Mg87 O86 2.028 . S
Mg87 O92 2.032 . S
Mg87 O94 2.079 . S
C88 O85 1.250 . S
C88 O86 1.248 . S
C89 O90 1.264 . S
C89 O97 1.249 . S
O90 C89 1.264 . S
O91 Mg84 1.986 . S
O91 C95 1.246 . S
O92 Mg87 2.032 . S
O92 C95 1.259 . S
O93 Mg84 2.114 . S
O93 C96 1.252 . S
O94 Mg84 2.251 . S
O94 Mg87 2.079 . S
O94 C96 1.273 . S
C95 O91 1.246 . S
C95 O92 1.259 . S
C96 O93 1.252 . S
C96 O94 1.273 . S
O97 Mg84 2.010 . S
O97 C89 1.249 . S
Mg98 O99 2.028 . S
Mg98 O105 1.986 . S
Mg98 O107 2.114 . S
Mg98 O108 2.251 . S
Mg98 O111 2.010 . S
O99 Mg98 2.028 . S
O99 C102 1.250 . S
O100 Mg101 2.028 . S
O100 C102 1.248 . S
Mg101 O100 2.028 . S
Mg101 O106 2.032 . S
Mg101 O108 2.079 . S
C102 O99 1.250 . S
C102 O100 1.248 . S
C103 O104 1.264 . S
C103 O111 1.249 . S
O104 C103 1.264 . S
O105 Mg98 1.986 . S
O105 C109 1.246 . S
O106 Mg101 2.032 . S
O106 C109 1.259 . S
O107 Mg98 2.114 . S
O107 C110 1.252 . S
O108 Mg98 2.251 . S
O108 Mg101 2.079 . S
O108 C110 1.273 . S
C109 O105 1.246 . S
C109 O106 1.259 . S
C110 O107 1.252 . S
C110 O108 1.273 . S
O111 Mg98 2.010 . S
O111 C103 1.249 . S
Mg112 O113 2.028 . S
Mg112 O119 1.986 . S
Mg112 O121 2.114 . S
Mg112 O122 2.251 . S
Mg112 O125 2.010 . S
O113 Mg112 2.028 . S
O113 C116 1.250 . S
O114 Mg115 2.028 . S
O114 C116 1.248 . S
Mg115 O114 2.028 . S
Mg115 O120 2.032 . S
Mg115 O122 2.079 . S
C116 O113 1.250 . S
C116 O114 1.248 . S
C117 O118 1.264 . S
C117 O125 1.249 . S
O118 C117 1.264 . S
O119 Mg112 1.986 . S
O119 C123 1.246 . S
O120 Mg115 2.032 . S
O120 C123 1.259 . S
O121 Mg112 2.114 . S
O121 C124 1.252 . S
O122 Mg112 2.251 . S
O122 Mg115 2.079 . S
O122 C124 1.273 . S
C123 O119 1.246 . S
C123 O120 1.259 . S
C124 O121 1.252 . S
C124 O122 1.273 . S
O125 Mg112 2.010 . S
O125 C117 1.249 . S
Mg126 O127 2.028 . S
Mg126 O133 1.986 . S
Mg126 O135 2.114 . S
Mg126 O136 2.251 . S
Mg126 O139 2.010 . S
O127 Mg126 2.028 . S
O127 C130 1.250 . S
O128 Mg129 2.028 . S
O128 C130 1.248 . S
Mg129 O128 2.028 . S
Mg129 O134 2.032 . S
Mg129 O136 2.079 . S
C130 O127 1.250 . S
C130 O128 1.248 . S
C131 O132 1.264 1_554 S
C131 O139 1.249 . S
O132 C131 1.264 1_556 S
O133 Mg126 1.986 . S
O133 C137 1.246 . S
O134 Mg129 2.032 . S
O134 C137 1.259 . S
O135 Mg126 2.114 . S
O135 C138 1.252 . S
O136 Mg126 2.251 . S
O136 Mg129 2.079 . S
O136 C138 1.273 . S
C137 O133 1.246 . S
C137 O134 1.259 . S
C138 O135 1.252 . S
C138 O136 1.273 . S
O139 Mg126 2.010 . S
O139 C131 1.249 . S
Mg140 O141 2.028 . S
Mg140 O147 1.986 . S
Mg140 O149 2.114 . S
Mg140 O150 2.251 1_554 S
Mg140 O153 2.010 . S
O141 Mg140 2.028 . S
O141 C144 1.250 1_554 S
O142 Mg143 2.028 . S
O142 C144 1.248 . S
Mg143 O142 2.028 . S
Mg143 O148 2.032 . S
Mg143 O150 2.079 . S
C144 O141 1.250 1_556 S
C144 O142 1.248 . S
C145 O146 1.264 . S
C145 O153 1.249 . S
O146 C145 1.264 . S
O147 Mg140 1.986 . S
O147 C151 1.246 . S
O148 Mg143 2.032 . S
O148 C151 1.259 1_556 S
O149 Mg140 2.114 . S
O149 C152 1.252 . S
O150 Mg140 2.251 1_556 S
O150 Mg143 2.079 . S
O150 C152 1.273 1_556 S
C151 O147 1.246 . S
C151 O148 1.259 1_554 S
C152 O149 1.252 . S
C152 O150 1.273 1_554 S
O153 Mg140 2.010 . S
O153 C145 1.249 . S
Mg154 O155 2.028 . S
Mg154 O161 1.986 . S
Mg154 O163 2.114 . S
Mg154 O164 2.251 . S
Mg154 O167 2.010 . S
O155 Mg154 2.028 . S
O155 C158 1.250 . S
O156 Mg157 2.028 . S
O156 C158 1.248 . S
Mg157 O156 2.028 . S
Mg157 O162 2.032 . S
Mg157 O164 2.079 . S
C158 O155 1.250 . S
C158 O156 1.248 . S
C159 O160 1.264 . S
C159 O167 1.249 . S
O160 C159 1.264 . S
O161 Mg154 1.986 . S
O161 C165 1.246 . S
O162 Mg157 2.032 . S
O162 C165 1.259 . S
O163 Mg154 2.114 . S
O163 C166 1.252 . S
O164 Mg154 2.251 . S
O164 Mg157 2.079 . S
O164 C166 1.273 . S
C165 O161 1.246 . S
C165 O162 1.259 . S
C166 O163 1.252 . S
C166 O164 1.273 . S
O167 Mg154 2.010 . S
O167 C159 1.249 . S
Mg168 O169 2.028 . S
Mg168 O175 1.986 . S
Mg168 O177 2.114 . S
Mg168 O178 2.251 . S
Mg168 O181 2.010 . S
O169 Mg168 2.028 . S
O169 C172 1.250 . S
O170 Mg171 2.028 . S
O170 C172 1.248 . S
Mg171 O170 2.028 . S
Mg171 O176 2.032 . S
Mg171 O178 2.079 . S
C172 O169 1.250 . S
C172 O170 1.248 . S
C173 O174 1.264 . S
C173 O181 1.249 . S
O174 C173 1.264 . S
O175 Mg168 1.986 . S
O175 C179 1.246 . S
O176 Mg171 2.032 . S
O176 C179 1.259 . S
O177 Mg168 2.114 . S
O177 C180 1.252 . S
O178 Mg168 2.251 . S
O178 Mg171 2.079 . S
O178 C180 1.273 . S
C179 O175 1.246 . S
C179 O176 1.259 . S
C180 O177 1.252 . S
C180 O178 1.273 . S
O181 Mg168 2.010 . S
O181 C173 1.249 . S
Mg182 O183 2.028 . S
Mg182 O189 1.986 1_455 S
Mg182 O191 2.114 . S
Mg182 O192 2.251 . S
Mg182 O195 2.010 . S
O183 Mg182 2.028 . S
O183 C186 1.250 . S
O184 Mg185 2.028 . S
O184 C186 1.248 . S
Mg185 O184 2.028 . S
Mg185 O190 2.032 1_455 S
Mg185 O192 2.079 . S
C186 O183 1.250 . S
C186 O184 1.248 . S
C187 O188 1.264 . S
C187 O195 1.249 . S
O188 C187 1.264 . S
O189 Mg182 1.986 1_655 S
O189 C193 1.246 . S
O190 Mg185 2.032 1_655 S
O190 C193 1.259 . S
O191 Mg182 2.114 . S
O191 C194 1.252 . S
O192 Mg182 2.251 . S
O192 Mg185 2.079 . S
O192 C194 1.273 . S
C193 O189 1.246 . S
C193 O190 1.259 . S
C194 O191 1.252 . S
C194 O192 1.273 . S
O195 Mg182 2.010 . S
O195 C187 1.249 . S
Mg196 O197 2.028 . S
Mg196 O203 1.986 . S
Mg196 O205 2.114 . S
Mg196 O206 2.251 . S
Mg196 O209 2.010 . S
O197 Mg196 2.028 . S
O197 C200 1.250 . S
O198 Mg199 2.028 . S
O198 C200 1.248 . S
Mg199 O198 2.028 . S
Mg199 O204 2.032 . S
Mg199 O206 2.079 . S
C200 O197 1.250 . S
C200 O198 1.248 . S
C201 O202 1.264 . S
C201 O209 1.249 . S
O202 C201 1.264 . S
O203 Mg196 1.986 . S
O203 C207 1.246 . S
O204 Mg199 2.032 . S
O204 C207 1.259 . S
O205 Mg196 2.114 . S
O205 C208 1.252 . S
O206 Mg196 2.251 . S
O206 Mg199 2.079 . S
O206 C208 1.273 . S
C207 O203 1.246 . S
C207 O204 1.259 . S
C208 O205 1.252 . S
C208 O206 1.273 . S
O209 Mg196 2.010 . S
O209 C201 1.249 . S
Mg210 O211 2.028 . S
Mg210 O217 1.986 1_455 S
Mg210 O219 2.114 . S
Mg210 O220 2.251 . S
Mg210 O223 2.010 . S
O211 Mg210 2.028 . S
O211 C214 1.250 . S
O212 Mg213 2.028 . S
O212 C214 1.248 . S
Mg213 O212 2.028 . S
Mg213 O218 2.032 1_455 S
Mg213 O220 2.079 . S
C214 O211 1.250 . S
C214 O212 1.248 . S
C215 O216 1.264 . S
C215 O223 1.249 . S
O216 C215 1.264 . S
O217 Mg210 1.986 1_655 S
O217 C221 1.246 . S
O218 Mg213 2.032 1_655 S
O218 C221 1.259 . S
O219 Mg210 2.114 . S
O219 C222 1.252 . S
O220 Mg210 2.251 . S
O220 Mg213 2.079 . S
O220 C222 1.273 . S
C221 O217 1.246 . S
C221 O218 1.259 . S
C222 O219 1.252 . S
C222 O220 1.273 . S
O223 Mg210 2.010 . S
O223 C215 1.249 . S
H224 C232 0.929 . S
H225 C234 0.930 . S
H226 C236 0.930 . S
H227 C239 0.929 . S
H228 C242 0.930 . S
H229 C244 0.960 . S
H230 C244 0.960 . S
H231 C244 0.960 . S
C232 H224 0.929 . S
C232 C233 1.377 . S
C232 C234 1.384 . S
C233 C232 1.377 . S
C233 C239 1.390 . S
C234 H225 0.930 . S
C234 C232 1.384 . S
C234 C235 1.372 . S
C235 C234 1.372 . S
C235 C236 1.400 . S
C235 C240 1.490 . S
C236 H226 0.930 . S
C236 C235 1.400 . S
C236 C239 1.386 . S
H237 C253 0.930 . S
H238 C254 0.931 . S
C239 H227 0.929 . S
C239 C233 1.390 . S
C239 C236 1.386 . S
C240 C235 1.490 . S
C240 C242 1.395 . S
C240 C243 1.403 . S
H241 C247 0.930 . S
C242 H228 0.930 . S
C242 C240 1.395 . S
C242 C245 1.403 . S
C243 C240 1.403 . S
C243 C244 1.524 . S
C243 C247 1.400 . S
C244 H229 0.960 . S
C244 H230 0.960 . S
C244 H231 0.960 . S
C244 C243 1.524 . S
C245 C242 1.403 . S
C245 C246 1.392 . S
C245 C249 1.495 . S
C246 C245 1.392 . S
C246 C247 1.385 . S
C246 C248 1.478 . S
C247 H241 0.930 . S
C247 C243 1.400 . S
C247 C246 1.385 . S
C248 C246 1.478 . S
C248 C250 1.381 . S
C248 C254 1.383 . S
C249 C245 1.495 . S
C249 H255 0.959 . S
C249 H256 0.961 . S
C249 H257 0.960 . S
C250 C248 1.381 . S
C250 C251 1.394 . S
C250 H258 0.930 . S
C251 C250 1.394 . S
C251 C252 1.383 . S
C251 H259 0.929 . S
C252 C251 1.383 . S
C252 C253 1.377 . S
C253 H237 0.930 . S
C253 C252 1.377 . S
C253 C254 1.379 . S
C254 H238 0.931 . S
C254 C248 1.383 . S
C254 C253 1.379 . S
H255 C249 0.959 . S
H256 C249 0.961 . S
H257 C249 0.960 . S
H258 C250 0.930 . S
H259 C251 0.929 . S
H260 C268 0.929 . S
H261 C270 0.930 . S
H262 C272 0.930 . S
H263 C275 0.929 . S
H264 C278 0.930 . S
H265 C280 0.960 . S
H266 C280 0.960 . S
H267 C280 0.960 . S
C268 H260 0.929 . S
C268 C269 1.377 . S
C268 C270 1.384 . S
C269 C268 1.377 . S
C269 C275 1.390 . S
C270 H261 0.930 . S
C270 C268 1.384 . S
C270 C271 1.372 . S
C271 C270 1.372 . S
C271 C272 1.400 . S
C271 C276 1.490 . S
C272 H262 0.930 . S
C272 C271 1.400 . S
C272 C275 1.386 . S
H273 C289 0.930 . S
H274 C290 0.931 . S
C275 H263 0.929 . S
C275 C269 1.390 . S
C275 C272 1.386 . S
C276 C271 1.490 . S
C276 C278 1.395 . S
C276 C279 1.403 . S
H277 C283 0.930 . S
C278 H264 0.930 . S
C278 C276 1.395 . S
C278 C281 1.403 . S
C279 C276 1.403 . S
C279 C280 1.524 . S
C279 C283 1.400 . S
C280 H265 0.960 . S
C280 H266 0.960 . S
C280 H267 0.960 . S
C280 C279 1.524 . S
C281 C278 1.403 . S
C281 C282 1.392 . S
C281 C285 1.495 . S
C282 C281 1.392 . S
C282 C283 1.385 . S
C282 C284 1.478 . S
C283 H277 0.930 . S
C283 C279 1.400 . S
C283 C282 1.385 . S
C284 C282 1.478 . S
C284 C286 1.381 . S
C284 C290 1.383 . S
C285 C281 1.495 . S
C285 H291 0.959 . S
C285 H292 0.961 . S
C285 H293 0.960 . S
C286 C284 1.381 . S
C286 C287 1.394 . S
C286 H294 0.930 . S
C287 C286 1.394 . S
C287 C288 1.383 . S
C287 H295 0.929 . S
C288 C287 1.383 . S
C288 C289 1.377 . S
C289 H273 0.930 . S
C289 C288 1.377 . S
C289 C290 1.379 . S
C290 H274 0.931 . S
C290 C284 1.383 . S
C290 C289 1.379 . S
H291 C285 0.959 . S
H292 C285 0.961 . S
H293 C285 0.960 . S
H294 C286 0.930 . S
H295 C287 0.929 . S
H296 C304 0.929 . S
H297 C306 0.930 . S
H298 C308 0.930 . S
H299 C311 0.929 . S
H300 C314 0.930 . S
H301 C316 0.960 . S
H302 C316 0.960 . S
H303 C316 0.960 . S
C304 H296 0.929 . S
C304 C305 1.377 . S
C304 C306 1.384 . S
C305 C304 1.377 . S
C305 C311 1.390 . S
C306 H297 0.930 . S
C306 C304 1.384 . S
C306 C307 1.372 . S
C307 C306 1.372 . S
C307 C308 1.400 . S
C307 C312 1.490 . S
C308 H298 0.930 . S
C308 C307 1.400 . S
C308 C311 1.386 . S
H309 C325 0.930 . S
H310 C326 0.931 . S
C311 H299 0.929 . S
C311 C305 1.390 . S
C311 C308 1.386 . S
C312 C307 1.490 . S
C312 C314 1.395 . S
C312 C315 1.403 . S
H313 C319 0.930 . S
C314 H300 0.930 . S
C314 C312 1.395 . S
C314 C317 1.403 . S
C315 C312 1.403 . S
C315 C316 1.524 . S
C315 C319 1.400 . S
C316 H301 0.960 . S
C316 H302 0.960 . S
C316 H303 0.960 . S
C316 C315 1.524 . S
C317 C314 1.403 . S
C317 C318 1.392 . S
C317 C321 1.495 . S
C318 C317 1.392 . S
C318 C319 1.385 . S
C318 C320 1.478 . S
C319 H313 0.930 . S
C319 C315 1.400 . S
C319 C318 1.385 . S
C320 C318 1.478 . S
C320 C322 1.381 . S
C320 C326 1.383 . S
C321 C317 1.495 . S
C321 H327 0.959 . S
C321 H328 0.961 . S
C321 H329 0.960 . S
C322 C320 1.381 . S
C322 C323 1.394 . S
C322 H330 0.930 . S
C323 C322 1.394 . S
C323 C324 1.383 . S
C323 H331 0.929 . S
C324 C323 1.383 . S
C324 C325 1.377 . S
C325 H309 0.930 . S
C325 C324 1.377 . S
C325 C326 1.379 . S
C326 H310 0.931 . S
C326 C320 1.383 . S
C326 C325 1.379 . S
H327 C321 0.959 . S
H328 C321 0.961 . S
H329 C321 0.960 . S
H330 C322 0.930 . S
H331 C323 0.929 . S
H332 C340 0.929 . S
H333 C342 0.930 1_554 S
H334 C344 0.930 . S
H335 C347 0.929 . S
H336 C350 0.930 . S
H337 C352 0.960 . S
H338 C352 0.960 . S
H339 C352 0.970 . S
C340 H332 0.929 . S
C340 C341 1.378 . S
C340 C342 1.384 1_554 S
C341 C340 1.378 . S
C341 C347 1.389 1_554 S
C342 H333 0.930 1_556 S
C342 C340 1.384 1_556 S
C342 C343 1.372 . S
C343 C342 1.372 . S
C343 C344 1.400 . S
C343 C348 1.490 . S
C344 H334 0.930 . S
C344 C343 1.400 . S
C344 C347 1.386 . S
H345 C361 0.930 . S
H346 C362 0.931 . S
C347 H335 0.929 . S
C347 C341 1.389 1_556 S
C347 C344 1.386 . S
C348 C343 1.490 . S
C348 C350 1.395 . S
C348 C351 1.403 . S
H349 C355 0.930 . S
C350 H336 0.930 . S
C350 C348 1.395 . S
C350 C353 1.403 . S
C351 C348 1.403 . S
C351 C352 1.524 1_556 S
C351 C355 1.400 . S
C352 H337 0.960 . S
C352 H338 0.960 . S
C352 H339 0.970 . S
C352 C351 1.524 1_554 S
C353 C350 1.403 . S
C353 C354 1.392 . S
C353 C357 1.495 . S
C354 C353 1.392 . S
C354 C355 1.385 . S
C354 C356 1.478 . S
C355 H349 0.930 . S
C355 C351 1.400 . S
C355 C354 1.385 . S
C356 C354 1.478 . S
C356 C358 1.381 . S
C356 C362 1.383 . S
C357 C353 1.495 . S
C357 H363 0.959 . S
C357 H364 0.961 . S
C357 H365 0.960 . S
C358 C356 1.381 . S
C358 C359 1.394 . S
C358 H366 0.930 . S
C359 C358 1.394 . S
C359 C360 1.383 . S
C359 H367 0.929 . S
C360 C359 1.383 . S
C360 C361 1.377 . S
C361 H345 0.930 . S
C361 C360 1.377 . S
C361 C362 1.379 . S
C362 H346 0.931 . S
C362 C356 1.383 . S
C362 C361 1.379 . S
H363 C357 0.959 . S
H364 C357 0.961 . S
H365 C357 0.960 . S
H366 C358 0.930 . S
H367 C359 0.929 . S
H368 C376 0.929 . S
H369 C378 0.930 . S
H370 C380 0.930 . S
H371 C383 0.929 . S
H372 C386 0.930 . S
H373 C388 0.960 . S
H374 C388 0.960 . S
H375 C388 0.960 . S
C376 H368 0.929 . S
C376 C377 1.377 . S
C376 C378 1.384 . S
C377 C376 1.377 . S
C377 C383 1.390 . S
C378 H369 0.930 . S
C378 C376 1.384 . S
C378 C379 1.372 . S
C379 C378 1.372 . S
C379 C380 1.400 . S
C379 C384 1.490 . S
C380 H370 0.930 . S
C380 C379 1.400 . S
C380 C383 1.386 . S
H381 C397 0.930 . S
H382 C398 0.931 . S
C383 H371 0.929 . S
C383 C377 1.390 . S
C383 C380 1.386 . S
C384 C379 1.490 . S
C384 C386 1.395 . S
C384 C387 1.403 . S
H385 C391 0.930 . S
C386 H372 0.930 . S
C386 C384 1.395 . S
C386 C389 1.403 . S
C387 C384 1.403 . S
C387 C388 1.524 . S
C387 C391 1.400 . S
C388 H373 0.960 . S
C388 H374 0.960 . S
C388 H375 0.960 . S
C388 C387 1.524 . S
C389 C386 1.403 . S
C389 C390 1.392 . S
C389 C393 1.495 1_556 S
C390 C389 1.392 . S
C390 C391 1.385 . S
C390 C392 1.478 . S
C391 H385 0.930 . S
C391 C387 1.400 . S
C391 C390 1.385 . S
C392 C390 1.478 . S
C392 C394 1.381 1_556 S
C392 C398 1.383 . S
C393 C389 1.495 1_554 S
C393 H399 0.959 . S
C393 H400 0.961 1_554 S
C393 H401 0.960 . S
C394 C392 1.381 1_554 S
C394 C395 1.394 . S
C394 H402 0.930 . S
C395 C394 1.394 . S
C395 C396 1.396 . S
C395 H403 0.929 . S
C396 C395 1.396 . S
C396 C397 1.360 1_554 S
C397 H381 0.930 . S
C397 C396 1.360 1_556 S
C397 C398 1.379 . S
C398 H382 0.931 . S
C398 C392 1.383 . S
C398 C397 1.379 . S
H399 C393 0.959 . S
H400 C393 0.961 1_556 S
H401 C393 0.960 . S
H402 C394 0.930 . S
H403 C395 0.929 . S
H404 C412 0.929 . S
H405 C414 0.930 . S
H406 C416 0.930 . S
H407 C419 0.929 . S
H408 C422 0.930 . S
H409 C424 0.960 . S
H410 C424 0.960 . S
H411 C424 0.960 . S
C412 H404 0.929 . S
C412 C413 1.377 . S
C412 C414 1.384 . S
C413 C412 1.377 . S
C413 C419 1.390 . S
C414 H405 0.930 . S
C414 C412 1.384 . S
C414 C415 1.372 . S
C415 C414 1.372 . S
C415 C416 1.400 . S
C415 C420 1.490 . S
C416 H406 0.930 . S
C416 C415 1.400 . S
C416 C419 1.386 . S
H417 C433 0.930 . S
H418 C434 0.931 . S
C419 H407 0.929 . S
C419 C413 1.390 . S
C419 C416 1.386 . S
C420 C415 1.490 . S
C420 C422 1.395 . S
C420 C423 1.403 . S
H421 C427 0.930 . S
C422 H408 0.930 . S
C422 C420 1.395 . S
C422 C425 1.403 . S
C423 C420 1.403 . S
C423 C424 1.524 . S
C423 C427 1.400 . S
C424 H409 0.960 . S
C424 H410 0.960 . S
C424 H411 0.960 . S
C424 C423 1.524 . S
C425 C422 1.403 . S
C425 C426 1.392 . S
C425 C429 1.495 . S
C426 C425 1.392 . S
C426 C427 1.385 . S
C426 C428 1.478 . S
C427 H421 0.930 . S
C427 C423 1.400 . S
C427 C426 1.385 . S
C428 C426 1.478 . S
C428 C430 1.381 . S
C428 C434 1.383 . S
C429 C425 1.495 . S
C429 H435 0.959 . S
C429 H436 0.961 . S
C429 H437 0.960 . S
C430 C428 1.381 . S
C430 C431 1.394 . S
C430 H438 0.930 . S
C431 C430 1.394 . S
C431 C432 1.383 . S
C431 H439 0.929 . S
C432 C431 1.383 . S
C432 C433 1.377 . S
C433 H417 0.930 . S
C433 C432 1.377 . S
C433 C434 1.379 . S
C434 H418 0.931 . S
C434 C428 1.383 . S
C434 C433 1.379 . S
H435 C429 0.959 . S
H436 C429 0.961 . S
H437 C429 0.960 . S
H438 C430 0.930 . S
H439 C431 0.929 . S
H440 C448 0.929 . S
H441 C450 0.930 . S
H442 C452 0.930 . S
H443 C455 0.929 . S
H444 C458 0.930 . S
H445 C460 0.960 . S
H446 C460 0.960 . S
H447 C460 0.960 . S
C448 H440 0.929 . S
C448 C449 1.377 . S
C448 C450 1.384 . S
C449 C448 1.377 . S
C449 C455 1.390 . S
C450 H441 0.930 . S
C450 C448 1.384 . S
C450 C451 1.372 . S
C451 C450 1.372 . S
C451 C452 1.400 . S
C451 C456 1.490 . S
C452 H442 0.930 . S
C452 C451 1.400 . S
C452 C455 1.386 . S
H453 C469 0.930 . S
H454 C470 0.931 . S
C455 H443 0.929 . S
C455 C449 1.390 . S
C455 C452 1.386 . S
C456 C451 1.490 . S
C456 C458 1.395 . S
C456 C459 1.403 . S
H457 C463 0.930 . S
C458 H444 0.930 . S
C458 C456 1.395 . S
C458 C461 1.403 . S
C459 C456 1.403 . S
C459 C460 1.524 . S
C459 C463 1.400 . S
C460 H445 0.960 . S
C460 H446 0.960 . S
C460 H447 0.960 . S
C460 C459 1.524 . S
C461 C458 1.403 . S
C461 C462 1.392 . S
C461 C465 1.495 . S
C462 C461 1.392 . S
C462 C463 1.385 . S
C462 C464 1.478 . S
C463 H457 0.930 . S
C463 C459 1.400 . S
C463 C462 1.385 . S
C464 C462 1.478 . S
C464 C466 1.381 . S
C464 C470 1.383 . S
C465 C461 1.495 . S
C465 H471 0.959 . S
C465 H472 0.961 . S
C465 H473 0.960 . S
C466 C464 1.381 . S
C466 C467 1.394 . S
C466 H474 0.930 . S
C467 C466 1.394 . S
C467 C468 1.383 . S
C467 H475 0.929 . S
C468 C467 1.383 . S
C468 C469 1.377 . S
C469 H453 0.930 . S
C469 C468 1.377 . S
C469 C470 1.379 . S
C470 H454 0.931 . S
C470 C464 1.383 . S
C470 C469 1.379 . S
H471 C465 0.959 . S
H472 C465 0.961 . S
H473 C465 0.960 . S
H474 C466 0.930 . S
H475 C467 0.929 . S
H476 C484 0.929 . S
H477 C486 0.930 . S
H478 C488 0.930 . S
H479 C491 0.929 . S
H480 C494 0.930 . S
H481 C496 0.960 . S
H482 C496 0.960 . S
H483 C496 0.960 . S
C484 H476 0.929 . S
C484 C485 1.377 . S
C484 C486 1.384 . S
C485 C484 1.377 . S
C485 C491 1.390 . S
C486 H477 0.930 . S
C486 C484 1.384 . S
C486 C487 1.372 . S
C487 C486 1.372 . S
C487 C488 1.400 . S
C487 C492 1.490 . S
C488 H478 0.930 . S
C488 C487 1.400 . S
C488 C491 1.386 . S
H489 C505 0.930 . S
H490 C506 0.931 . S
C491 H479 0.929 . S
C491 C485 1.390 . S
C491 C488 1.386 . S
C492 C487 1.490 . S
C492 C494 1.395 . S
C492 C495 1.403 . S
H493 C499 0.930 . S
C494 H480 0.930 . S
C494 C492 1.395 . S
C494 C497 1.403 . S
C495 C492 1.403 . S
C495 C496 1.524 . S
C495 C499 1.400 . S
C496 H481 0.960 . S
C496 H482 0.960 . S
C496 H483 0.960 . S
C496 C495 1.524 . S
C497 C494 1.403 . S
C497 C498 1.392 . S
C497 C501 1.495 . S
C498 C497 1.392 . S
C498 C499 1.385 . S
C498 C500 1.478 . S
C499 H493 0.930 . S
C499 C495 1.400 . S
C499 C498 1.385 . S
C500 C498 1.478 . S
C500 C502 1.381 . S
C500 C506 1.383 . S
C501 C497 1.495 . S
C501 H507 0.959 . S
C501 H508 0.961 . S
C501 H509 0.960 . S
C502 C500 1.381 . S
C502 C503 1.394 . S
C502 H510 0.930 . S
C503 C502 1.394 . S
C503 C504 1.383 . S
C503 H511 0.929 . S
C504 C503 1.383 . S
C504 C505 1.377 . S
C505 H489 0.930 . S
C505 C504 1.377 . S
C505 C506 1.379 . S
C506 H490 0.931 . S
C506 C500 1.383 . S
C506 C505 1.379 . S
H507 C501 0.959 . S
H508 C501 0.961 . S
H509 C501 0.960 . S
H510 C502 0.930 . S
H511 C503 0.929 . S
H512 C520 0.929 . S
H513 C522 0.930 . S
H514 C524 0.930 . S
H515 C527 0.929 . S
H516 C530 0.930 . S
H517 C532 0.960 . S
H518 C532 0.960 . S
H519 C532 0.960 . S
C520 H512 0.929 . S
C520 C521 1.377 . S
C520 C522 1.384 . S
C521 C520 1.377 . S
C521 C527 1.390 . S
C522 H513 0.930 . S
C522 C520 1.384 . S
C522 C523 1.372 . S
C523 C522 1.372 . S
C523 C524 1.400 . S
C523 C528 1.490 . S
C524 H514 0.930 . S
C524 C523 1.400 . S
C524 C527 1.386 . S
H525 C541 0.930 . S
H526 C542 0.931 . S
C527 H515 0.929 . S
C527 C521 1.390 . S
C527 C524 1.386 . S
C528 C523 1.490 . S
C528 C530 1.395 . S
C528 C531 1.403 . S
H529 C535 0.930 . S
C530 H516 0.930 . S
C530 C528 1.395 . S
C530 C533 1.403 . S
C531 C528 1.403 . S
C531 C532 1.524 . S
C531 C535 1.400 . S
C532 H517 0.960 . S
C532 H518 0.960 . S
C532 H519 0.960 . S
C532 C531 1.524 . S
C533 C530 1.403 . S
C533 C534 1.392 . S
C533 C537 1.495 . S
C534 C533 1.392 . S
C534 C535 1.385 . S
C534 C536 1.478 . S
C535 H529 0.930 . S
C535 C531 1.400 . S
C535 C534 1.385 . S
C536 C534 1.478 . S
C536 C538 1.381 1_556 S
C536 C542 1.383 . S
C537 C533 1.495 . S
C537 H543 0.959 . S
C537 H544 0.961 . S
C537 H545 0.960 1_556 S
C538 C536 1.381 1_554 S
C538 C539 1.394 . S
C538 H546 0.930 . S
C539 C538 1.394 . S
C539 C540 1.381 1_554 S
C539 H547 0.929 . S
C540 C539 1.381 1_556 S
C540 C541 1.380 . S
C541 H525 0.930 . S
C541 C540 1.380 . S
C541 C542 1.379 . S
C542 H526 0.931 . S
C542 C536 1.383 . S
C542 C541 1.379 . S
H543 C537 0.959 . S
H544 C537 0.961 . S
H545 C537 0.960 1_554 S
H546 C538 0.930 . S
H547 C539 0.929 . S
H548 C556 0.929 . S
H549 C558 0.930 . S
H550 C560 0.930 . S
H551 C563 0.929 . S
H552 C566 0.930 . S
H553 C568 0.960 . S
H554 C568 0.960 . S
H555 C568 0.960 . S
C556 H548 0.929 . S
C556 C557 1.377 . S
C556 C558 1.384 . S
C557 C556 1.377 . S
C557 C563 1.390 . S
C558 H549 0.930 . S
C558 C556 1.384 . S
C558 C559 1.372 . S
C559 C558 1.372 . S
C559 C560 1.400 . S
C559 C564 1.490 . S
C560 H550 0.930 . S
C560 C559 1.400 . S
C560 C563 1.386 . S
H561 C577 0.930 . S
H562 C578 0.931 . S
C563 H551 0.929 . S
C563 C557 1.390 . S
C563 C560 1.386 . S
C564 C559 1.490 . S
C564 C566 1.395 . S
C564 C567 1.403 . S
H565 C571 0.930 . S
C566 H552 0.930 . S
C566 C564 1.395 . S
C566 C569 1.403 . S
C567 C564 1.403 . S
C567 C568 1.524 . S
C567 C571 1.400 . S
C568 H553 0.960 . S
C568 H554 0.960 . S
C568 H555 0.960 . S
C568 C567 1.524 . S
C569 C566 1.403 . S
C569 C570 1.392 . S
C569 C573 1.495 . S
C570 C569 1.392 . S
C570 C571 1.385 . S
C570 C572 1.478 . S
C571 H565 0.930 . S
C571 C567 1.400 . S
C571 C570 1.385 . S
C572 C570 1.478 . S
C572 C574 1.381 . S
C572 C578 1.383 . S
C573 C569 1.495 . S
C573 H579 0.959 . S
C573 H580 0.961 . S
C573 H581 0.960 . S
C574 C572 1.381 . S
C574 C575 1.394 . S
C574 H582 0.930 . S
C575 C574 1.394 . S
C575 C576 1.383 . S
C575 H583 0.929 . S
C576 C575 1.383 . S
C576 C577 1.377 . S
C577 H561 0.930 . S
C577 C576 1.377 . S
C577 C578 1.379 . S
C578 H562 0.931 . S
C578 C572 1.383 . S
C578 C577 1.379 . S
H579 C573 0.959 . S
H580 C573 0.961 . S
H581 C573 0.960 . S
H582 C574 0.930 . S
H583 C575 0.929 . S
H584 C592 0.929 . S
H585 C594 0.930 . S
H586 C596 0.930 . S
H587 C599 0.929 . S
H588 C602 0.930 . S
H589 C604 0.960 . S
H590 C604 0.960 . S
H591 C604 0.960 . S
C592 H584 0.929 . S
C592 C593 1.377 . S
C592 C594 1.384 . S
C593 C592 1.377 . S
C593 C599 1.390 . S
C594 H585 0.930 . S
C594 C592 1.384 . S
C594 C595 1.372 . S
C595 C594 1.372 . S
C595 C596 1.400 . S
C595 C600 1.490 . S
C596 H586 0.930 . S
C596 C595 1.400 . S
C596 C599 1.386 . S
H597 C613 0.930 . S
H598 C614 0.931 . S
C599 H587 0.929 . S
C599 C593 1.390 . S
C599 C596 1.386 . S
C600 C595 1.490 . S
C600 C602 1.395 . S
C600 C603 1.403 . S
H601 C607 0.930 . S
C602 H588 0.930 . S
C602 C600 1.395 . S
C602 C605 1.403 . S
C603 C600 1.403 . S
C603 C604 1.524 . S
C603 C607 1.400 . S
C604 H589 0.960 . S
C604 H590 0.960 . S
C604 H591 0.960 . S
C604 C603 1.524 . S
C605 C602 1.403 . S
C605 C606 1.392 . S
C605 C609 1.495 . S
C606 C605 1.392 . S
C606 C607 1.385 . S
C606 C608 1.478 . S
C607 H601 0.930 . S
C607 C603 1.400 . S
C607 C606 1.385 . S
C608 C606 1.478 . S
C608 C610 1.381 . S
C608 C614 1.383 . S
C609 C605 1.495 . S
C609 H615 0.959 . S
C609 H616 0.961 . S
C609 H617 0.960 . S
C610 C608 1.381 . S
C610 C611 1.394 . S
C610 H618 0.930 . S
C611 C610 1.394 . S
C611 C612 1.383 . S
C611 H619 0.929 . S
C612 C611 1.383 . S
C612 C613 1.377 . S
C613 H597 0.930 . S
C613 C612 1.377 . S
C613 C614 1.379 . S
C614 H598 0.931 . S
C614 C608 1.383 . S
C614 C613 1.379 . S
H615 C609 0.959 . S
H616 C609 0.961 . S
H617 C609 0.960 . S
H618 C610 0.930 . S
H619 C611 0.929 . S
H620 C628 0.929 . S
H621 C630 0.930 . S
H622 C632 0.930 . S
H623 C635 0.929 . S
H624 C638 0.930 . S
H625 C640 0.960 . S
H626 C640 0.960 . S
H627 C640 0.960 . S
C628 H620 0.929 . S
C628 C629 1.377 . S
C628 C630 1.384 . S
C629 C628 1.377 . S
C629 C635 1.390 . S
C630 H621 0.930 . S
C630 C628 1.384 . S
C630 C631 1.372 . S
C631 C630 1.372 . S
C631 C632 1.400 . S
C631 C636 1.490 . S
C632 H622 0.930 . S
C632 C631 1.400 . S
C632 C635 1.386 . S
H633 C649 0.930 . S
H634 C650 0.931 . S
C635 H623 0.929 . S
C635 C629 1.390 . S
C635 C632 1.386 . S
C636 C631 1.490 . S
C636 C638 1.395 . S
C636 C639 1.403 . S
H637 C643 0.930 . S
C638 H624 0.930 . S
C638 C636 1.395 . S
C638 C641 1.403 . S
C639 C636 1.403 . S
C639 C640 1.524 . S
C639 C643 1.400 . S
C640 H625 0.960 . S
C640 H626 0.960 . S
C640 H627 0.960 . S
C640 C639 1.524 . S
C641 C638 1.403 . S
C641 C642 1.392 . S
C641 C645 1.495 . S
C642 C641 1.392 . S
C642 C643 1.385 . S
C642 C644 1.478 . S
C643 H637 0.930 . S
C643 C639 1.400 . S
C643 C642 1.385 . S
C644 C642 1.478 . S
C644 C646 1.381 . S
C644 C650 1.383 . S
C645 C641 1.495 . S
C645 H651 0.959 . S
C645 H652 0.961 . S
C645 H653 0.960 . S
C646 C644 1.381 . S
C646 C647 1.394 . S
C646 H654 0.930 . S
C647 C646 1.394 . S
C647 C648 1.383 . S
C647 H655 0.929 . S
C648 C647 1.383 . S
C648 C649 1.377 . S
C649 H633 0.930 . S
C649 C648 1.377 . S
C649 C650 1.379 . S
C650 H634 0.931 . S
C650 C644 1.383 . S
C650 C649 1.379 . S
H651 C645 0.959 . S
H652 C645 0.961 . S
H653 C645 0.960 . S
H654 C646 0.930 . S
H655 C647 0.929 . S
H656 C664 0.929 . S
H657 C666 0.930 . S
H658 C668 0.930 . S
H659 C671 0.929 . S
H660 C674 0.930 . S
H661 C676 0.960 . S
H662 C676 0.960 . S
H663 C676 0.960 . S
C664 H656 0.929 . S
C664 C665 1.377 . S
C664 C666 1.384 . S
C665 C664 1.377 . S
C665 C671 1.390 . S
C666 H657 0.930 . S
C666 C664 1.384 . S
C666 C667 1.372 . S
C667 C666 1.372 . S
C667 C668 1.400 . S
C667 C672 1.490 . S
C668 H658 0.930 . S
C668 C667 1.400 . S
C668 C671 1.386 . S
H669 C685 0.930 . S
H670 C686 0.931 . S
C671 H659 0.929 . S
C671 C665 1.390 . S
C671 C668 1.386 . S
C672 C667 1.490 . S
C672 C674 1.395 . S
C672 C675 1.403 . S
H673 C679 0.930 . S
C674 H660 0.930 . S
C674 C672 1.395 . S
C674 C677 1.403 . S
C675 C672 1.403 . S
C675 C676 1.524 . S
C675 C679 1.400 . S
C676 H661 0.960 . S
C676 H662 0.960 . S
C676 H663 0.960 . S
C676 C675 1.524 . S
C677 C674 1.403 . S
C677 C678 1.392 . S
C677 C681 1.495 . S
C678 C677 1.392 . S
C678 C679 1.385 . S
C678 C680 1.478 . S
C679 H673 0.930 . S
C679 C675 1.400 . S
C679 C678 1.385 . S
C680 C678 1.478 . S
C680 C682 1.381 . S
C680 C686 1.383 . S
C681 C677 1.495 . S
C681 H687 0.959 . S
C681 H688 0.961 . S
C681 H689 0.960 . S
C682 C680 1.381 . S
C682 C683 1.394 . S
C682 H690 0.930 . S
C683 C682 1.394 . S
C683 C684 1.383 . S
C683 H691 0.929 . S
C684 C683 1.383 . S
C684 C685 1.377 . S
C685 H669 0.930 . S
C685 C684 1.377 . S
C685 C686 1.379 . S
C686 H670 0.931 . S
C686 C680 1.383 . S
C686 C685 1.379 . S
H687 C681 0.959 . S
H688 C681 0.961 . S
H689 C681 0.960 . S
H690 C682 0.930 . S
H691 C683 0.929 . S
H692 C700 0.929 . S
H693 C702 0.930 . S
H694 C704 0.930 . S
H695 C707 0.929 . S
H696 C710 0.930 . S
H697 C712 0.960 . S
H698 C712 0.960 . S
H699 C712 0.960 1_556 S
C700 H692 0.929 . S
C700 C701 1.377 . S
C700 C702 1.384 . S
C701 C700 1.377 . S
C701 C707 1.390 . S
C702 H693 0.930 . S
C702 C700 1.384 . S
C702 C703 1.372 . S
C703 C702 1.372 . S
C703 C704 1.400 . S
C703 C708 1.490 . S
C704 H694 0.930 . S
C704 C703 1.400 . S
C704 C707 1.386 . S
H705 C721 0.930 . S
H706 C722 0.931 . S
C707 H695 0.929 . S
C707 C701 1.390 . S
C707 C704 1.386 . S
C708 C703 1.490 . S
C708 C710 1.395 . S
C708 C711 1.403 . S
H709 C715 0.930 1_554 S
C710 H696 0.930 . S
C710 C708 1.395 . S
C710 C713 1.403 . S
C711 C708 1.403 . S
C711 C712 1.524 1_556 S
C711 C715 1.400 . S
C712 H697 0.960 . S
C712 H698 0.960 . S
C712 H699 0.960 1_554 S
C712 C711 1.524 1_554 S
C713 C710 1.403 . S
C713 C714 1.392 . S
C713 C717 1.495 . S
C714 C713 1.392 . S
C714 C715 1.385 . S
C714 C716 1.478 . S
C715 H709 0.930 1_556 S
C715 C711 1.400 . S
C715 C714 1.385 . S
C716 C714 1.478 . S
C716 C718 1.381 . S
C716 C722 1.383 . S
C717 C713 1.495 . S
C717 H723 0.959 . S
C717 H724 0.961 . S
C717 H725 0.960 . S
C718 C716 1.381 . S
C718 C719 1.394 . S
C718 H726 0.930 . S
C719 C718 1.394 . S
C719 C720 1.383 . S
C719 H727 0.929 1_556 S
C720 C719 1.383 . S
C720 C721 1.377 . S
C721 H705 0.930 . S
C721 C720 1.377 . S
C721 C722 1.379 . S
C722 H706 0.931 . S
C722 C716 1.383 . S
C722 C721 1.379 . S
H723 C717 0.959 . S
H724 C717 0.961 . S
H725 C717 0.960 . S
H726 C718 0.930 . S
H727 C719 0.929 1_554 S
H728 C736 0.929 . S
H729 C738 0.930 . S
H730 C740 0.930 . S
H731 C743 0.929 . S
H732 C746 0.930 . S
H733 C748 0.960 . S
H734 C748 0.960 . S
H735 C748 0.960 . S
C736 H728 0.929 . S
C736 C737 1.377 . S
C736 C738 1.384 . S
C737 C736 1.377 . S
C737 C743 1.390 . S
C738 H729 0.930 . S
C738 C736 1.384 . S
C738 C739 1.372 . S
C739 C738 1.372 . S
C739 C740 1.400 . S
C739 C744 1.490 . S
C740 H730 0.930 . S
C740 C739 1.400 . S
C740 C743 1.386 . S
H741 C757 0.930 . S
H742 C758 0.931 . S
C743 H731 0.929 . S
C743 C737 1.390 . S
C743 C740 1.386 . S
C744 C739 1.490 . S
C744 C746 1.395 . S
C744 C747 1.403 . S
H745 C751 0.930 . S
C746 H732 0.930 . S
C746 C744 1.395 . S
C746 C749 1.403 . S
C747 C744 1.403 . S
C747 C748 1.524 . S
C747 C751 1.400 . S
C748 H733 0.960 . S
C748 H734 0.960 . S
C748 H735 0.960 . S
C748 C747 1.524 . S
C749 C746 1.403 . S
C749 C750 1.392 . S
C749 C753 1.495 . S
C750 C749 1.392 . S
C750 C751 1.385 . S
C750 C752 1.478 . S
C751 H745 0.930 . S
C751 C747 1.400 . S
C751 C750 1.385 . S
C752 C750 1.478 . S
C752 C754 1.381 . S
C752 C758 1.383 . S
C753 C749 1.495 . S
C753 H759 0.959 . S
C753 H760 0.961 . S
C753 H761 0.960 . S
C754 C752 1.381 . S
C754 C755 1.394 . S
C754 H762 0.930 . S
C755 C754 1.394 . S
C755 C756 1.383 . S
C755 H763 0.929 . S
C756 C755 1.383 . S
C756 C757 1.377 . S
C757 H741 0.930 . S
C757 C756 1.377 . S
C757 C758 1.379 . S
C758 H742 0.931 . S
C758 C752 1.383 . S
C758 C757 1.379 . S
H759 C753 0.959 . S
H760 C753 0.961 . S
H761 C753 0.960 . S
H762 C754 0.930 . S
H763 C755 0.929 . S
H764 C772 0.929 . S
H765 C774 0.930 . S
H766 C776 0.930 . S
H767 C779 0.929 . S
H768 C782 0.930 . S
H769 C784 0.960 . S
H770 C784 0.960 . S
H771 C784 0.960 . S
C772 H764 0.929 . S
C772 C773 1.377 . S
C772 C774 1.384 . S
C773 C772 1.377 . S
C773 C779 1.390 . S
C774 H765 0.930 . S
C774 C772 1.384 . S
C774 C775 1.372 . S
C775 C774 1.372 . S
C775 C776 1.400 . S
C775 C780 1.490 . S
C776 H766 0.930 . S
C776 C775 1.400 . S
C776 C779 1.386 . S
H777 C793 0.930 . S
H778 C794 0.931 . S
C779 H767 0.929 . S
C779 C773 1.390 . S
C779 C776 1.386 . S
C780 C775 1.490 . S
C780 C782 1.395 . S
C780 C783 1.403 . S
H781 C787 0.930 . S
C782 H768 0.930 . S
C782 C780 1.395 . S
C782 C785 1.403 . S
C783 C780 1.403 . S
C783 C784 1.524 . S
C783 C787 1.400 . S
C784 H769 0.960 . S
C784 H770 0.960 . S
C784 H771 0.960 . S
C784 C783 1.524 . S
C785 C782 1.403 . S
C785 C786 1.392 . S
C785 C789 1.495 . S
C786 C785 1.392 . S
C786 C787 1.385 . S
C786 C788 1.478 . S
C787 H781 0.930 . S
C787 C783 1.400 . S
C787 C786 1.385 . S
C788 C786 1.478 . S
C788 C790 1.381 . S
C788 C794 1.383 . S
C789 C785 1.495 . S
C789 H795 0.959 . S
C789 H796 0.961 . S
C789 H797 0.960 . S
C790 C788 1.381 . S
C790 C791 1.394 . S
C790 H798 0.930 . S
C791 C790 1.394 . S
C791 C792 1.383 . S
C791 H799 0.929 . S
C792 C791 1.383 . S
C792 C793 1.377 . S
C793 H777 0.930 . S
C793 C792 1.377 . S
C793 C794 1.379 . S
C794 H778 0.931 . S
C794 C788 1.383 . S
C794 C793 1.379 . S
H795 C789 0.959 . S
H796 C789 0.961 . S
H797 C789 0.960 . S
H798 C790 0.930 . S
H799 C791 0.929 . S
H800 C808 0.900 1_655 S
H801 C810 0.903 1_655 S
H802 C812 0.930 . S
H803 C815 0.929 . S
H804 C818 0.930 . S
H805 C820 0.960 . S
H806 C820 0.960 . S
H807 C820 0.960 1_455 S
C808 H800 0.900 1_455 S
C808 C809 1.377 . S
C808 C810 1.384 . S
C809 C808 1.377 . S
C809 C815 1.390 . S
C810 H801 0.903 1_455 S
C810 C808 1.384 . S
C810 C811 1.372 . S
C811 C810 1.372 . S
C811 C812 1.400 . S
C811 C816 1.490 . S
C812 H802 0.930 . S
C812 C811 1.400 . S
C812 C815 1.386 . S
H813 C829 0.930 . S
H814 C830 0.931 . S
C815 H803 0.929 . S
C815 C809 1.390 . S
C815 C812 1.386 . S
C816 C811 1.490 . S
C816 C818 1.395 . S
C816 C819 1.403 . S
H817 C823 0.930 . S
C818 H804 0.930 . S
C818 C816 1.395 . S
C818 C821 1.403 . S
C819 C816 1.403 . S
C819 C820 1.524 1_455 S
C819 C823 1.400 . S
C820 H805 0.960 . S
C820 H806 0.960 . S
C820 H807 0.960 1_655 S
C820 C819 1.524 1_655 S
C821 C818 1.403 . S
C821 C822 1.392 . S
C821 C825 1.495 1_554 S
C822 C821 1.392 . S
C822 C823 1.385 . S
C822 C824 1.478 1_554 S
C823 H817 0.930 . S
C823 C819 1.400 . S
C823 C822 1.385 . S
C824 C822 1.478 1_556 S
C824 C826 1.381 . S
C824 C830 1.383 1_556 S
C825 C821 1.495 1_556 S
C825 H831 0.959 . S
C825 H832 0.961 . S
C825 H833 0.960 . S
C826 C824 1.381 . S
C826 C827 1.394 . S
C826 H834 0.930 1_455 S
C827 C826 1.394 . S
C827 C828 1.383 . S
C827 H835 0.929 1_455 S
C828 C827 1.383 . S
C828 C829 1.377 . S
C829 H813 0.930 . S
C829 C828 1.377 . S
C829 C830 1.379 1_556 S
C830 H814 0.931 . S
C830 C824 1.383 1_554 S
C830 C829 1.379 1_554 S
H831 C825 0.959 . S
H832 C825 0.961 . S
H833 C825 0.960 . S
H834 C826 0.930 1_655 S
H835 C827 0.929 1_655 S
H836 C844 0.929 . S
H837 C846 0.930 . S
H838 C848 0.930 . S
H839 C851 0.929 . S
H840 C854 0.930 . S
H841 C856 0.960 . S
H842 C856 0.960 . S
H843 C856 0.960 . S
C844 H836 0.929 . S
C844 C845 1.377 . S
C844 C846 1.384 . S
C845 C844 1.377 . S
C845 C851 1.390 . S
C846 H837 0.930 . S
C846 C844 1.384 . S
C846 C847 1.372 . S
C847 C846 1.372 . S
C847 C848 1.400 . S
C847 C852 1.490 . S
C848 H838 0.930 . S
C848 C847 1.400 . S
C848 C851 1.386 . S
H849 C865 0.930 . S
H850 C866 0.931 . S
C851 H839 0.929 . S
C851 C845 1.390 . S
C851 C848 1.386 . S
C852 C847 1.490 . S
C852 C854 1.395 . S
C852 C855 1.403 . S
H853 C859 0.930 . S
C854 H840 0.930 . S
C854 C852 1.395 . S
C854 C857 1.403 . S
C855 C852 1.403 . S
C855 C856 1.524 . S
C855 C859 1.400 . S
C856 H841 0.960 . S
C856 H842 0.960 . S
C856 H843 0.960 . S
C856 C855 1.524 . S
C857 C854 1.403 . S
C857 C858 1.392 . S
C857 C861 1.495 . S
C858 C857 1.392 . S
C858 C859 1.385 . S
C858 C860 1.478 . S
C859 H853 0.930 . S
C859 C855 1.400 . S
C859 C858 1.385 . S
C860 C858 1.478 . S
C860 C862 1.381 . S
C860 C866 1.383 . S
C861 C857 1.495 . S
C861 H867 0.959 . S
C861 H868 0.961 . S
C861 H869 0.960 . S
C862 C860 1.381 . S
C862 C863 1.394 . S
C862 H870 0.930 . S
C863 C862 1.394 . S
C863 C864 1.383 . S
C863 H871 0.929 . S
C864 C863 1.383 . S
C864 C865 1.377 . S
C865 H849 0.930 . S
C865 C864 1.377 . S
C865 C866 1.379 . S
C866 H850 0.931 . S
C866 C860 1.383 . S
C866 C865 1.379 . S
H867 C861 0.959 . S
H868 C861 0.961 . S
H869 C861 0.960 . S
H870 C862 0.930 . S
H871 C863 0.929 . S
H872 C880 0.929 . S
H873 C882 0.930 . S
H874 C884 0.930 . S
H875 C887 0.929 . S
H876 C890 0.930 . S
H877 C892 0.960 . S
H878 C892 0.960 . S
H879 C892 0.960 . S
C880 H872 0.929 . S
C880 C881 1.377 . S
C880 C882 1.384 . S
C881 C880 1.377 . S
C881 C887 1.390 . S
C882 H873 0.930 . S
C882 C880 1.384 . S
C882 C883 1.372 . S
C883 C882 1.372 . S
C883 C884 1.400 . S
C883 C888 1.490 . S
C884 H874 0.930 . S
C884 C883 1.400 . S
C884 C887 1.386 . S
H885 C901 0.930 . S
H886 C902 0.931 . S
C887 H875 0.929 . S
C887 C881 1.390 . S
C887 C884 1.386 . S
C888 C883 1.490 . S
C888 C890 1.395 . S
C888 C891 1.403 . S
H889 C895 0.930 . S
C890 H876 0.930 . S
C890 C888 1.395 . S
C890 C893 1.403 . S
C891 C888 1.403 . S
C891 C892 1.524 . S
C891 C895 1.400 . S
C892 H877 0.960 . S
C892 H878 0.960 . S
C892 H879 0.960 . S
C892 C891 1.524 . S
C893 C890 1.403 . S
C893 C894 1.392 . S
C893 C897 1.495 . S
C894 C893 1.392 . S
C894 C895 1.385 . S
C894 C896 1.478 . S
C895 H889 0.930 . S
C895 C891 1.400 . S
C895 C894 1.385 . S
C896 C894 1.478 . S
C896 C898 1.381 . S
C896 C902 1.383 . S
C897 C893 1.495 . S
C897 H903 0.959 . S
C897 H904 0.961 . S
C897 H905 0.960 . S
C898 C896 1.381 . S
C898 C899 1.394 . S
C898 H906 0.930 . S
C899 C898 1.394 . S
C899 C900 1.383 . S
C899 H907 0.929 . S
C900 C899 1.383 . S
C900 C901 1.377 . S
C901 H885 0.930 . S
C901 C900 1.377 . S
C901 C902 1.379 . S
C902 H886 0.931 . S
C902 C896 1.383 . S
C902 C901 1.379 . S
H903 C897 0.959 . S
H904 C897 0.961 . S
H905 C897 0.960 . S
H906 C898 0.930 . S
H907 C899 0.929 . S
H908 C916 0.929 . S
H909 C918 0.930 . S
H910 C920 0.930 . S
H911 C923 0.929 1_554 S
H912 C926 0.930 . S
H913 C928 0.960 . S
H914 C928 0.960 . S
H915 C928 0.960 . S
C916 H908 0.929 . S
C916 C917 1.377 . S
C916 C918 1.384 . S
C917 C916 1.377 . S
C917 C923 1.390 . S
C918 H909 0.930 . S
C918 C916 1.384 . S
C918 C919 1.372 . S
C919 C918 1.372 . S
C919 C920 1.400 . S
C919 C924 1.490 . S
C920 H910 0.930 . S
C920 C919 1.400 . S
C920 C923 1.386 . S
H921 C937 0.930 . S
H922 C938 0.931 . S
C923 H911 0.929 1_556 S
C923 C917 1.390 . S
C923 C920 1.386 . S
C924 C919 1.490 . S
C924 C926 1.395 . S
C924 C927 1.403 . S
H925 C931 0.930 . S
C926 H912 0.930 . S
C926 C924 1.395 . S
C926 C929 1.403 . S
C927 C924 1.403 . S
C927 C928 1.524 . S
C927 C931 1.400 . S
C928 H913 0.960 . S
C928 H914 0.960 . S
C928 H915 0.960 . S
C928 C927 1.524 . S
C929 C926 1.403 . S
C929 C930 1.392 . S
C929 C933 1.495 . S
C930 C929 1.392 . S
C930 C931 1.385 . S
C930 C932 1.478 . S
C931 H925 0.930 . S
C931 C927 1.400 . S
C931 C930 1.385 . S
C932 C930 1.478 . S
C932 C934 1.381 . S
C932 C938 1.383 . S
C933 C929 1.495 . S
C933 H939 0.959 . S
C933 H940 0.961 . S
C933 H941 0.960 . S
C934 C932 1.381 . S
C934 C935 1.394 . S
C934 H942 0.930 . S
C935 C934 1.394 . S
C935 C936 1.383 . S
C935 H943 0.929 . S
C936 C935 1.383 . S
C936 C937 1.377 . S
C937 H921 0.930 . S
C937 C936 1.377 . S
C937 C938 1.379 . S
C938 H922 0.931 . S
C938 C932 1.383 . S
C938 C937 1.379 . S
H939 C933 0.959 . S
H940 C933 0.961 . S
H941 C933 0.960 . S
H942 C934 0.930 . S
H943 C935 0.929 . S
H944 C952 0.929 . S
H945 C954 0.930 . S
H946 C956 0.930 . S
H947 C959 0.929 . S
H948 C962 0.930 . S
H949 C964 0.960 . S
H950 C964 0.960 . S
H951 C964 0.960 . S
C952 H944 0.929 . S
C952 C953 1.377 . S
C952 C954 1.384 . S
C953 C952 1.377 . S
C953 C959 1.390 . S
C954 H945 0.930 . S
C954 C952 1.384 . S
C954 C955 1.372 . S
C955 C954 1.372 . S
C955 C956 1.400 . S
C955 C960 1.490 . S
C956 H946 0.930 . S
C956 C955 1.400 . S
C956 C959 1.386 . S
H957 C973 0.930 . S
H958 C974 0.931 . S
C959 H947 0.929 . S
C959 C953 1.390 . S
C959 C956 1.386 . S
C960 C955 1.490 . S
C960 C962 1.395 . S
C960 C963 1.403 . S
H961 C967 0.930 . S
C962 H948 0.930 . S
C962 C960 1.395 . S
C962 C965 1.403 . S
C963 C960 1.403 . S
C963 C964 1.524 . S
C963 C967 1.400 . S
C964 H949 0.960 . S
C964 H950 0.960 . S
C964 H951 0.960 . S
C964 C963 1.524 . S
C965 C962 1.403 . S
C965 C966 1.392 . S
C965 C969 1.495 . S
C966 C965 1.392 . S
C966 C967 1.385 . S
C966 C968 1.478 . S
C967 H961 0.930 . S
C967 C963 1.400 . S
C967 C966 1.385 . S
C968 C966 1.478 . S
C968 C970 1.381 . S
C968 C974 1.383 . S
C969 C965 1.495 . S
C969 H975 0.959 . S
C969 H976 0.961 . S
C969 H977 0.960 . S
C970 C968 1.381 . S
C970 C971 1.394 . S
C970 H978 0.930 . S
C971 C970 1.394 . S
C971 C972 1.383 . S
C971 H979 0.929 . S
C972 C971 1.383 . S
C972 C973 1.377 . S
C973 H957 0.930 . S
C973 C972 1.377 . S
C973 C974 1.379 . S
C974 H958 0.931 . S
C974 C968 1.383 . S
C974 C973 1.379 . S
H975 C969 0.959 . S
H976 C969 0.961 . S
H977 C969 0.960 . S
H978 C970 0.930 . S
H979 C971 0.929 . S
H980 C988 0.929 . S
H981 C990 0.930 . S
H982 C992 0.930 . S
H983 C995 0.929 . S
H984 C998 0.930 . S
H985 C1000 0.960 . S
H986 C1000 0.960 . S
H987 C1000 0.960 . S
C988 H980 0.929 . S
C988 C989 1.377 . S
C988 C990 1.384 . S
C989 C988 1.377 . S
C989 C995 1.390 . S
C990 H981 0.930 . S
C990 C988 1.384 . S
C990 C991 1.372 . S
C991 C990 1.372 . S
C991 C992 1.400 . S
C991 C996 1.490 . S
C992 H982 0.930 . S
C992 C991 1.400 . S
C992 C995 1.386 . S
H993 C1009 0.930 . S
H994 C1010 0.931 . S
C995 H983 0.929 . S
C995 C989 1.390 . S
C995 C992 1.386 . S
C996 C991 1.490 . S
C996 C998 1.395 . S
C996 C999 1.403 . S
H997 C1003 0.930 . S
C998 H984 0.930 . S
C998 C996 1.395 . S
C998 C1001 1.403 . S
C999 C996 1.403 . S
C999 C1000 1.524 . S
C999 C1003 1.400 . S
C1000 H985 0.960 . S
C1000 H986 0.960 . S
C1000 H987 0.960 . S
C1000 C999 1.524 . S
C1001 C998 1.403 . S
C1001 C1002 1.392 . S
C1001 C1005 1.495 . S
C1002 C1001 1.392 . S
C1002 C1003 1.385 . S
C1002 C1004 1.478 . S
C1003 H997 0.930 . S
C1003 C999 1.400 . S
C1003 C1002 1.385 . S
C1004 C1002 1.478 . S
C1004 C1006 1.381 . S
C1004 C1010 1.383 . S
C1005 C1001 1.495 . S
C1005 H1011 0.959 . S
C1005 H1012 0.961 . S
C1005 H1013 0.960 . S
C1006 C1004 1.381 . S
C1006 C1007 1.394 . S
C1006 H1014 0.930 . S
C1007 C1006 1.394 . S
C1007 C1008 1.383 . S
C1007 H1015 0.929 . S
C1008 C1007 1.383 . S
C1008 C1009 1.377 . S
C1009 H993 0.930 . S
C1009 C1008 1.377 . S
C1009 C1010 1.379 . S
C1010 H994 0.931 . S
C1010 C1004 1.383 . S
C1010 C1009 1.379 . S
H1011 C1005 0.959 . S
H1012 C1005 0.961 . S
H1013 C1005 0.960 . S
H1014 C1006 0.930 . S
H1015 C1007 0.929 . S
H1016 C1024 0.929 . S
H1017 C1026 0.930 . S
H1018 C1028 0.930 . S
H1019 C1031 0.929 . S
H1020 C1034 0.930 . S
H1021 C1036 0.960 . S
H1022 C1036 0.960 . S
H1023 C1036 0.960 1_565 S
C1024 H1016 0.929 . S
C1024 C1025 1.377 . S
C1024 C1026 1.384 . S
C1025 C1024 1.377 . S
C1025 C1031 1.390 . S
C1026 H1017 0.930 . S
C1026 C1024 1.384 . S
C1026 C1027 1.372 . S
C1027 C1026 1.372 . S
C1027 C1028 1.400 . S
C1027 C1032 1.490 . S
C1028 H1018 0.930 . S
C1028 C1027 1.400 . S
C1028 C1031 1.386 . S
H1029 C1045 0.930 . S
H1030 C1046 0.931 . S
C1031 H1019 0.929 . S
C1031 C1025 1.390 . S
C1031 C1028 1.386 . S
C1032 C1027 1.490 . S
C1032 C1034 1.395 . S
C1032 C1035 1.403 1_565 S
H1033 C1039 0.930 . S
C1034 H1020 0.930 . S
C1034 C1032 1.395 . S
C1034 C1037 1.403 . S
C1035 C1032 1.403 1_545 S
C1035 C1036 1.524 . S
C1035 C1039 1.400 . S
C1036 H1021 0.960 . S
C1036 H1022 0.960 . S
C1036 H1023 0.960 1_545 S
C1036 C1035 1.524 . S
C1037 C1034 1.403 . S
C1037 C1038 1.392 1_565 S
C1037 C1041 1.495 . S
C1038 C1037 1.392 1_545 S
C1038 C1039 1.385 . S
C1038 C1040 1.478 . S
C1039 H1033 0.930 . S
C1039 C1035 1.400 . S
C1039 C1038 1.385 . S
C1040 C1038 1.478 . S
C1040 C1042 1.381 . S
C1040 C1046 1.383 . S
C1041 C1037 1.495 . S
C1041 H1047 0.959 . S
C1041 H1048 0.961 . S
C1041 H1049 0.960 1_565 S
C1042 C1040 1.381 . S
C1042 C1043 1.394 . S
C1042 H1050 0.930 . S
C1043 C1042 1.394 . S
C1043 C1044 1.383 . S
C1043 H1051 0.929 . S
C1044 C1043 1.383 . S
C1044 C1045 1.377 . S
C1045 H1029 0.930 . S
C1045 C1044 1.377 . S
C1045 C1046 1.379 . S
C1046 H1030 0.931 . S
C1046 C1040 1.383 . S
C1046 C1045 1.379 . S
H1047 C1041 0.959 . S
H1048 C1041 0.961 . S
H1049 C1041 0.960 1_545 S
H1050 C1042 0.930 . S
H1051 C1043 0.929 . S
H1052 C1060 0.929 . S
H1053 C1062 0.930 . S
H1054 C1064 0.930 . S
H1055 C1067 0.929 . S
H1056 C1070 0.930 . S
H1057 C1072 0.960 1_565 S
H1058 C1072 0.937 1_556 S
H1059 C1072 0.960 . S
C1060 H1052 0.929 . S
C1060 C1061 1.377 . S
C1060 C1062 1.384 . S
C1061 C1060 1.377 . S
C1061 C1067 1.390 . S
C1062 H1053 0.930 . S
C1062 C1060 1.384 . S
C1062 C1063 1.364 1_556 S
C1063 C1062 1.364 1_554 S
C1063 C1064 1.400 . S
C1063 C1068 1.497 . S
C1064 H1054 0.930 . S
C1064 C1063 1.400 . S
C1064 C1067 1.386 1_554 S
H1065 C1081 0.930 . S
H1066 C1082 0.931 . S
C1067 H1055 0.929 . S
C1067 C1061 1.390 . S
C1067 C1064 1.386 1_556 S
C1068 C1063 1.497 . S
C1068 C1070 1.395 . S
C1068 C1071 1.403 . S
H1069 C1075 0.930 1_655 S
C1070 H1056 0.930 . S
C1070 C1068 1.395 . S
C1070 C1073 1.403 1_545 S
C1071 C1068 1.403 . S
C1071 C1072 1.524 1_455 S
C1071 C1075 1.400 1_545 S
C1072 H1057 0.960 1_545 S
C1072 H1058 0.937 1_554 S
C1072 H1059 0.960 . S
C1072 C1071 1.524 1_655 S
C1073 C1070 1.403 1_565 S
C1073 C1074 1.392 . S
C1073 C1077 1.495 . S
C1074 C1073 1.392 . S
C1074 C1075 1.385 . S
C1074 C1076 1.478 . S
C1075 H1069 0.930 1_455 S
C1075 C1071 1.400 1_565 S
C1075 C1074 1.385 . S
C1076 C1074 1.478 . S
C1076 C1078 1.381 . S
C1076 C1082 1.383 . S
C1077 C1073 1.495 . S
C1077 H1083 0.959 . S
C1077 H1084 0.961 . S
C1077 H1085 0.960 . S
C1078 C1076 1.381 . S
C1078 C1079 1.394 . S
C1078 H1086 0.930 . S
C1079 C1078 1.394 . S
C1079 C1080 1.383 . S
C1079 H1087 0.929 . S
C1080 C1079 1.383 . S
C1080 C1081 1.377 . S
C1081 H1065 0.930 . S
C1081 C1080 1.377 . S
C1081 C1082 1.379 . S
C1082 H1066 0.931 . S
C1082 C1076 1.383 . S
C1082 C1081 1.379 . S
H1083 C1077 0.959 . S
H1084 C1077 0.961 . S
H1085 C1077 0.960 . S
H1086 C1078 0.930 . S
H1087 C1079 0.929 . S
H1088 C1096 0.929 . S
H1089 C1098 0.930 . S
H1090 C1100 0.930 . S
H1091 C1103 0.929 . S
H1092 C1106 0.930 1_655 S
H1093 C1108 0.960 . S
H1094 C1108 0.960 . S
H1095 C1108 0.960 . S
C1096 H1088 0.929 . S
C1096 C1097 1.377 1_655 S
C1096 C1098 1.384 . S
C1097 C1096 1.377 1_455 S
C1097 C1103 1.390 . S
C1098 H1089 0.930 . S
C1098 C1096 1.384 . S
C1098 C1099 1.372 1_655 S
C1099 C1098 1.372 1_455 S
C1099 C1100 1.400 . S
C1099 C1104 1.490 . S
C1100 H1090 0.930 . S
C1100 C1099 1.400 . S
C1100 C1103 1.386 . S
H1101 C1117 0.930 . S
H1102 C1118 0.931 . S
C1103 H1091 0.929 . S
C1103 C1097 1.390 . S
C1103 C1100 1.386 . S
C1104 C1099 1.490 . S
C1104 C1106 1.395 . S
C1104 C1107 1.403 . S
H1105 C1111 0.930 . S
C1106 H1092 0.930 1_455 S
C1106 C1104 1.395 . S
C1106 C1109 1.403 . S
C1107 C1104 1.403 . S
C1107 C1108 1.524 . S
C1107 C1111 1.400 . S
C1108 H1093 0.960 . S
C1108 H1094 0.960 . S
C1108 H1095 0.960 . S
C1108 C1107 1.524 . S
C1109 C1106 1.403 . S
C1109 C1110 1.392 . S
C1109 C1113 1.495 1_455 S
C1110 C1109 1.392 . S
C1110 C1111 1.385 . S
C1110 C1112 1.478 . S
C1111 H1105 0.930 . S
C1111 C1107 1.400 . S
C1111 C1110 1.385 . S
C1112 C1110 1.478 . S
C1112 C1114 1.381 1_455 S
C1112 C1118 1.383 . S
C1113 C1109 1.495 1_655 S
C1113 H1119 0.959 . S
C1113 H1120 0.970 . S
C1113 H1121 0.960 . S
C1114 C1112 1.381 1_655 S
C1114 C1115 1.394 . S
C1114 H1122 0.930 . S
C1115 C1114 1.394 . S
C1115 C1116 1.383 1_655 S
C1115 H1123 0.929 . S
C1116 C1115 1.383 1_455 S
C1116 C1117 1.377 . S
C1117 H1101 0.930 . S
C1117 C1116 1.377 . S
C1117 C1118 1.379 . S
C1118 H1102 0.931 . S
C1118 C1112 1.383 . S
C1118 C1117 1.379 . S
H1119 C1113 0.959 . S
H1120 C1113 0.970 . S
H1121 C1113 0.960 . S
H1122 C1114 0.930 . S
H1123 C1115 0.929 . S
H1124 C1132 0.929 1_554 S
H1125 C1134 0.930 . S
H1126 C1136 0.930 . S
H1127 C1139 0.929 . S
H1128 C1142 0.930 . S
H1129 C1144 0.960 . S
H1130 C1144 0.960 . S
H1131 C1144 0.960 . S
C1132 H1124 0.929 1_556 S
C1132 C1133 1.377 . S
C1132 C1134 1.384 . S
C1133 C1132 1.377 . S
C1133 C1139 1.390 . S
C1134 H1125 0.930 . S
C1134 C1132 1.384 . S
C1134 C1135 1.372 . S
C1135 C1134 1.372 . S
C1135 C1136 1.400 . S
C1135 C1140 1.490 . S
C1136 H1126 0.930 . S
C1136 C1135 1.400 . S
C1136 C1139 1.386 . S
H1137 C1153 0.930 . S
H1138 C1154 0.931 . S
C1139 H1127 0.929 . S
C1139 C1133 1.390 . S
C1139 C1136 1.386 . S
C1140 C1135 1.490 . S
C1140 C1142 1.395 . S
C1140 C1143 1.403 . S
H1141 C1147 0.930 . S
C1142 H1128 0.930 . S
C1142 C1140 1.395 . S
C1142 C1145 1.403 . S
C1143 C1140 1.403 . S
C1143 C1144 1.524 . S
C1143 C1147 1.400 . S
C1144 H1129 0.960 . S
C1144 H1130 0.960 . S
C1144 H1131 0.960 . S
C1144 C1143 1.524 . S
C1145 C1142 1.403 . S
C1145 C1146 1.392 . S
C1145 C1149 1.495 . S
C1146 C1145 1.392 . S
C1146 C1147 1.385 . S
C1146 C1148 1.478 . S
C1147 H1141 0.930 . S
C1147 C1143 1.400 . S
C1147 C1146 1.385 . S
C1148 C1146 1.478 . S
C1148 C1150 1.381 . S
C1148 C1154 1.383 . S
C1149 C1145 1.495 . S
C1149 H1155 0.959 . S
C1149 H1156 0.961 . S
C1149 H1157 0.960 . S
C1150 C1148 1.381 . S
C1150 C1151 1.394 . S
C1150 H1158 0.930 . S
C1151 C1150 1.394 . S
C1151 C1152 1.383 . S
C1151 H1159 0.929 . S
C1152 C1151 1.383 . S
C1152 C1153 1.377 . S
C1153 H1137 0.930 . S
C1153 C1152 1.377 . S
C1153 C1154 1.379 . S
C1154 H1138 0.931 . S
C1154 C1148 1.383 . S
C1154 C1153 1.379 . S
H1155 C1149 0.959 . S
H1156 C1149 0.961 . S
H1157 C1149 0.960 . S
H1158 C1150 0.930 . S
H1159 C1151 0.929 . S
H1160 C1168 0.929 . S
H1161 C1170 0.930 . S
H1162 C1172 0.930 . S
H1163 C1175 0.929 . S
H1164 C1178 0.930 . S
H1165 C1180 0.960 . S
H1166 C1180 0.960 . S
H1167 C1180 0.960 . S
C1168 H1160 0.929 . S
C1168 C1169 1.377 . S
C1168 C1170 1.384 . S
C1169 C1168 1.377 . S
C1169 C1175 1.390 . S
C1170 H1161 0.930 . S
C1170 C1168 1.384 . S
C1170 C1171 1.372 . S
C1171 C1170 1.372 . S
C1171 C1172 1.400 . S
C1171 C1176 1.490 . S
C1172 H1162 0.930 . S
C1172 C1171 1.400 . S
C1172 C1175 1.386 . S
H1173 C1189 0.930 . S
H1174 C1190 0.927 1_554 S
C1175 H1163 0.929 . S
C1175 C1169 1.390 . S
C1175 C1172 1.386 . S
C1176 C1171 1.490 . S
C1176 C1178 1.395 . S
C1176 C1179 1.403 . S
H1177 C1183 0.930 . S
C1178 H1164 0.930 . S
C1178 C1176 1.395 . S
C1178 C1181 1.403 . S
C1179 C1176 1.403 . S
C1179 C1180 1.524 . S
C1179 C1183 1.400 . S
C1180 H1165 0.960 . S
C1180 H1166 0.960 . S
C1180 H1167 0.960 . S
C1180 C1179 1.524 . S
C1181 C1178 1.403 . S
C1181 C1182 1.392 . S
C1181 C1185 1.495 1_554 S
C1182 C1181 1.392 . S
C1182 C1183 1.385 . S
C1182 C1184 1.478 1_554 S
C1183 H1177 0.930 . S
C1183 C1179 1.400 . S
C1183 C1182 1.385 . S
C1184 C1182 1.478 1_556 S
C1184 C1186 1.381 . S
C1184 C1190 1.383 . S
C1185 C1181 1.495 1_556 S
C1185 H1191 0.959 . S
C1185 H1192 0.961 . S
C1185 H1193 0.960 . S
C1186 C1184 1.381 . S
C1186 C1187 1.394 . S
C1186 H1194 0.930 . S
C1187 C1186 1.394 . S
C1187 C1188 1.383 . S
C1187 H1195 0.929 . S
C1188 C1187 1.383 . S
C1188 C1189 1.377 . S
C1189 H1173 0.930 . S
C1189 C1188 1.377 . S
C1189 C1190 1.379 . S
C1190 H1174 0.927 1_556 S
C1190 C1184 1.383 . S
C1190 C1189 1.379 . S
H1191 C1185 0.959 . S
H1192 C1185 0.961 . S
H1193 C1185 0.960 . S
H1194 C1186 0.930 . S
H1195 C1187 0.929 . S
H1196 C1204 0.929 . S
H1197 C1206 0.930 . S
H1198 C1208 0.930 . S
H1199 C1211 0.929 . S
H1200 C1214 0.930 . S
H1201 C1216 0.960 . S
H1202 C1216 0.960 . S
H1203 C1216 0.960 . S
C1204 H1196 0.929 . S
C1204 C1205 1.377 . S
C1204 C1206 1.384 . S
C1205 C1204 1.377 . S
C1205 C1211 1.390 . S
C1206 H1197 0.930 . S
C1206 C1204 1.384 . S
C1206 C1207 1.372 . S
C1207 C1206 1.372 . S
C1207 C1208 1.400 . S
C1207 C1212 1.490 . S
C1208 H1198 0.930 . S
C1208 C1207 1.400 . S
C1208 C1211 1.386 . S
H1209 C1225 0.930 . S
H1210 C1226 0.931 . S
C1211 H1199 0.929 . S
C1211 C1205 1.390 . S
C1211 C1208 1.386 . S
C1212 C1207 1.490 . S
C1212 C1214 1.395 . S
C1212 C1215 1.403 . S
H1213 C1219 0.930 . S
C1214 H1200 0.930 . S
C1214 C1212 1.395 . S
C1214 C1217 1.403 . S
C1215 C1212 1.403 . S
C1215 C1216 1.524 . S
C1215 C1219 1.400 . S
C1216 H1201 0.960 . S
C1216 H1202 0.960 . S
C1216 H1203 0.960 . S
C1216 C1215 1.524 . S
C1217 C1214 1.403 . S
C1217 C1218 1.392 . S
C1217 C1221 1.495 . S
C1218 C1217 1.392 . S
C1218 C1219 1.385 . S
C1218 C1220 1.478 . S
C1219 H1213 0.930 . S
C1219 C1215 1.400 . S
C1219 C1218 1.385 . S
C1220 C1218 1.478 . S
C1220 C1222 1.381 . S
C1220 C1226 1.383 . S
C1221 C1217 1.495 . S
C1221 H1227 0.959 . S
C1221 H1228 0.961 . S
C1221 H1229 0.960 . S
C1222 C1220 1.381 . S
C1222 C1223 1.394 . S
C1222 H1230 0.930 . S
C1223 C1222 1.394 . S
C1223 C1224 1.383 . S
C1223 H1231 0.929 . S
C1224 C1223 1.383 . S
C1224 C1225 1.377 . S
C1225 H1209 0.930 . S
C1225 C1224 1.377 . S
C1225 C1226 1.379 . S
C1226 H1210 0.931 . S
C1226 C1220 1.383 . S
C1226 C1225 1.379 . S
H1227 C1221 0.959 . S
H1228 C1221 0.961 . S
H1229 C1221 0.960 . S
H1230 C1222 0.930 . S
H1231 C1223 0.929 . S
H1232 C1240 0.929 . S
H1233 C1242 0.930 . S
H1234 C1244 0.930 . S
H1235 C1247 0.929 . S
H1236 C1250 0.930 . S
H1237 C1252 0.960 . S
H1238 C1252 0.960 . S
H1239 C1252 0.960 . S
C1240 H1232 0.929 . S
C1240 C1241 1.377 . S
C1240 C1242 1.384 . S
C1241 C1240 1.377 . S
C1241 C1247 1.390 . S
C1242 H1233 0.930 . S
C1242 C1240 1.384 . S
C1242 C1243 1.372 . S
C1243 C1242 1.372 . S
C1243 C1244 1.400 . S
C1243 C1248 1.490 . S
C1244 H1234 0.930 . S
C1244 C1243 1.400 . S
C1244 C1247 1.386 . S
H1245 C1261 0.930 . S
H1246 C1262 0.931 . S
C1247 H1235 0.929 . S
C1247 C1241 1.390 . S
C1247 C1244 1.386 . S
C1248 C1243 1.490 . S
C1248 C1250 1.395 . S
C1248 C1251 1.403 . S
H1249 C1255 0.930 . S
C1250 H1236 0.930 . S
C1250 C1248 1.395 . S
C1250 C1253 1.403 . S
C1251 C1248 1.403 . S
C1251 C1252 1.524 . S
C1251 C1255 1.400 . S
C1252 H1237 0.960 . S
C1252 H1238 0.960 . S
C1252 H1239 0.960 . S
C1252 C1251 1.524 . S
C1253 C1250 1.403 . S
C1253 C1254 1.392 . S
C1253 C1257 1.495 . S
C1254 C1253 1.392 . S
C1254 C1255 1.385 . S
C1254 C1256 1.478 . S
C1255 H1249 0.930 . S
C1255 C1251 1.400 . S
C1255 C1254 1.385 . S
C1256 C1254 1.478 . S
C1256 C1258 1.381 . S
C1256 C1262 1.383 . S
C1257 C1253 1.495 . S
C1257 H1263 0.959 . S
C1257 H1264 0.961 . S
C1257 H1265 0.960 . S
C1258 C1256 1.381 . S
C1258 C1259 1.394 . S
C1258 H1266 0.930 . S
C1259 C1258 1.394 . S
C1259 C1260 1.383 . S
C1259 H1267 0.929 . S
C1260 C1259 1.383 . S
C1260 C1261 1.377 . S
C1261 H1245 0.930 . S
C1261 C1260 1.377 . S
C1261 C1262 1.379 . S
C1262 H1246 0.931 . S
C1262 C1256 1.383 . S
C1262 C1261 1.379 . S
H1263 C1257 0.959 . S
H1264 C1257 0.961 . S
H1265 C1257 0.960 . S
H1266 C1258 0.930 . S
H1267 C1259 0.929 . S
H1268 C1276 0.929 . S
H1269 C1278 0.930 . S
H1270 C1280 0.930 . S
H1271 C1283 0.929 . S
H1272 C1286 0.930 . S
H1273 C1288 0.960 . S
H1274 C1288 0.960 . S
H1275 C1288 0.960 . S
C1276 H1268 0.929 . S
C1276 C1277 1.377 . S
C1276 C1278 1.384 . S
C1277 C1276 1.377 . S
C1277 C1283 1.390 . S
C1278 H1269 0.930 . S
C1278 C1276 1.384 . S
C1278 C1279 1.372 . S
C1279 C1278 1.372 . S
C1279 C1280 1.400 . S
C1279 C1284 1.490 . S
C1280 H1270 0.930 . S
C1280 C1279 1.400 . S
C1280 C1283 1.386 . S
H1281 C1297 0.930 . S
H1282 C1298 0.931 . S
C1283 H1271 0.929 . S
C1283 C1277 1.390 . S
C1283 C1280 1.386 . S
C1284 C1279 1.490 . S
C1284 C1286 1.395 . S
C1284 C1287 1.403 . S
H1285 C1291 0.930 . S
C1286 H1272 0.930 . S
C1286 C1284 1.395 . S
C1286 C1289 1.403 . S
C1287 C1284 1.403 . S
C1287 C1288 1.524 . S
C1287 C1291 1.400 . S
C1288 H1273 0.960 . S
C1288 H1274 0.960 . S
C1288 H1275 0.960 . S
C1288 C1287 1.524 . S
C1289 C1286 1.403 . S
C1289 C1290 1.392 . S
C1289 C1293 1.495 . S
C1290 C1289 1.392 . S
C1290 C1291 1.385 . S
C1290 C1292 1.478 . S
C1291 H1285 0.930 . S
C1291 C1287 1.400 . S
C1291 C1290 1.385 . S
C1292 C1290 1.478 . S
C1292 C1294 1.381 . S
C1292 C1298 1.383 . S
C1293 C1289 1.495 . S
C1293 H1299 0.959 . S
C1293 H1300 0.961 . S
C1293 H1301 0.960 . S
C1294 C1292 1.381 . S
C1294 C1295 1.394 . S
C1294 H1302 0.930 . S
C1295 C1294 1.394 . S
C1295 C1296 1.383 . S
C1295 H1303 0.929 1_556 S
C1296 C1295 1.383 . S
C1296 C1297 1.377 . S
C1297 H1281 0.930 . S
C1297 C1296 1.377 . S
C1297 C1298 1.379 . S
C1298 H1282 0.931 . S
C1298 C1292 1.383 . S
C1298 C1297 1.379 . S
H1299 C1293 0.959 . S
H1300 C1293 0.961 . S
H1301 C1293 0.960 . S
H1302 C1294 0.930 . S
H1303 C1295 0.929 1_554 S
H1304 C1312 0.929 . S
H1305 C1314 0.930 . S
H1306 C1316 0.930 . S
H1307 C1319 0.929 . S
H1308 C1322 0.930 . S
H1309 C1324 0.960 . S
H1310 C1324 0.960 . S
H1311 C1324 0.949 1_565 S
C1312 H1304 0.929 . S
C1312 C1313 1.377 . S
C1312 C1314 1.384 . S
C1313 C1312 1.377 . S
C1313 C1319 1.390 . S
C1314 H1305 0.930 . S
C1314 C1312 1.384 . S
C1314 C1315 1.372 . S
C1315 C1314 1.372 . S
C1315 C1316 1.400 . S
C1315 C1320 1.490 . S
C1316 H1306 0.930 . S
C1316 C1315 1.400 . S
C1316 C1319 1.386 . S
H1317 C1333 0.930 . S
H1318 C1334 0.931 . S
C1319 H1307 0.929 . S
C1319 C1313 1.390 . S
C1319 C1316 1.386 . S
C1320 C1315 1.490 . S
C1320 C1322 1.395 . S
C1320 C1323 1.403 1_565 S
H1321 C1327 0.930 . S
C1322 H1308 0.930 . S
C1322 C1320 1.395 . S
C1322 C1325 1.403 . S
C1323 C1320 1.403 1_545 S
C1323 C1324 1.524 . S
C1323 C1327 1.400 . S
C1324 H1309 0.960 . S
C1324 H1310 0.960 . S
C1324 H1311 0.949 1_545 S
C1324 C1323 1.524 . S
C1325 C1322 1.403 . S
C1325 C1326 1.392 1_565 S
C1325 C1329 1.495 . S
C1326 C1325 1.392 1_545 S
C1326 C1327 1.385 . S
C1326 C1328 1.478 1_554 S
C1327 H1321 0.930 . S
C1327 C1323 1.400 . S
C1327 C1326 1.385 . S
C1328 C1326 1.478 1_556 S
C1328 C1330 1.381 . S
C1328 C1334 1.383 . S
C1329 C1325 1.495 . S
C1329 H1335 0.959 . S
C1329 H1336 0.961 1_554 S
C1329 H1337 0.942 1_564 S
C1330 C1328 1.381 . S
C1330 C1331 1.394 . S
C1330 H1338 0.930 . S
C1331 C1330 1.394 . S
C1331 C1332 1.383 . S
C1331 H1339 0.929 . S
C1332 C1331 1.383 . S
C1332 C1333 1.377 . S
C1333 H1317 0.930 . S
C1333 C1332 1.377 . S
C1333 C1334 1.379 . S
C1334 H1318 0.931 . S
C1334 C1328 1.383 . S
C1334 C1333 1.379 . S
H1335 C1329 0.959 . S
H1336 C1329 0.961 1_556 S
H1337 C1329 0.942 1_546 S
H1338 C1330 0.930 . S
H1339 C1331 0.929 . S
H1340 C1348 0.929 . S
H1341 C1350 0.930 . S
H1342 C1352 0.930 . S
H1343 C1355 0.929 . S
H1344 C1358 0.930 . S
H1345 C1360 0.960 . S
H1346 C1360 0.960 1_545 S
H1347 C1360 0.960 . S
C1348 H1340 0.929 . S
C1348 C1349 1.377 . S
C1348 C1350 1.384 . S
C1349 C1348 1.377 . S
C1349 C1355 1.390 . S
C1350 H1341 0.930 . S
C1350 C1348 1.384 . S
C1350 C1351 1.372 . S
C1351 C1350 1.372 . S
C1351 C1352 1.400 . S
C1351 C1356 1.490 . S
C1352 H1342 0.930 . S
C1352 C1351 1.400 . S
C1352 C1355 1.386 . S
H1353 C1369 0.930 . S
H1354 C1370 0.931 . S
C1355 H1343 0.929 . S
C1355 C1349 1.390 . S
C1355 C1352 1.386 . S
C1356 C1351 1.490 . S
C1356 C1358 1.395 . S
C1356 C1359 1.388 1_545 S
H1357 C1363 0.930 1_655 S
C1358 H1344 0.930 . S
C1358 C1356 1.395 . S
C1358 C1361 1.403 . S
C1359 C1356 1.388 1_565 S
C1359 C1360 1.526 1_455 S
C1359 C1363 1.413 . S
C1360 H1345 0.960 . S
C1360 H1346 0.960 1_565 S
C1360 H1347 0.960 . S
C1360 C1359 1.526 1_655 S
C1361 C1358 1.403 . S
C1361 C1362 1.392 1_545 S
C1361 C1365 1.495 . S
C1362 C1361 1.392 1_565 S
C1362 C1363 1.385 . S
C1362 C1364 1.478 . S
C1363 H1357 0.930 1_455 S
C1363 C1359 1.413 . S
C1363 C1362 1.385 . S
C1364 C1362 1.478 . S
C1364 C1366 1.381 . S
C1364 C1370 1.383 . S
C1365 C1361 1.495 . S
C1365 H1371 0.959 . S
C1365 H1372 0.961 1_545 S
C1365 H1373 0.960 . S
C1366 C1364 1.381 . S
C1366 C1367 1.394 . S
C1366 H1374 0.926 1_565 S
C1367 C1366 1.394 . S
C1367 C1368 1.383 . S
C1367 H1375 0.929 . S
C1368 C1367 1.383 . S
C1368 C1369 1.377 . S
C1369 H1353 0.930 . S
C1369 C1368 1.377 . S
C1369 C1370 1.379 . S
C1370 H1354 0.931 . S
C1370 C1364 1.383 . S
C1370 C1369 1.379 . S
H1371 C1365 0.959 . S
H1372 C1365 0.961 1_565 S
H1373 C1365 0.960 . S
H1374 C1366 0.926 1_545 S
H1375 C1367 0.929 . S
C233 C137 1.411 . S
C252 C11 1.410 . S
C269 C207 1.407 . S
C288 C25 1.383 . S
C305 C39 1.416 . S
C324 C123 1.425 . S
C341 C53 1.417 . S
C360 C221 1.435 . S
C377 C67 1.411 . S
C396 C151 1.402 . S
C413 C193 1.411 . S
C432 C81 1.408 . S
C449 C165 1.415 . S
C468 C95 1.431 . S
C485 C109 1.416 . S
C504 C179 1.426 . S
C521 C68 1.402 . S
C540 C54 1.411 1_556 S
C557 C180 1.401 . S
C576 C124 1.409 . S
C593 C96 1.404 . S
C612 C26 1.395 . S
C629 C138 1.401 . S
C648 C194 1.410 . S
C665 C12 1.405 . S
C684 C82 1.390 . S
C701 C222 1.404 . S
C720 C152 1.403 1_556 S
C737 C110 1.405 . S
C756 C40 1.390 . S
C773 C166 1.405 . S
C792 C208 1.397 . S
C809 C4 0.368 . S
C828 C60 0.453 . S
C845 C74 0.376 . S
C864 C18 0.465 . S
C881 C88 0.354 . S
C900 C32 0.395 . S
C917 C46 0.367 . S
C936 C102 0.450 . S
C953 C144 0.382 . S
C972 C116 0.466 . S
C989 C158 0.373 . S
C1008 C130 0.462 . S
C1025 C200 0.389 . S
C1044 C172 0.440 . S
C1061 C214 0.389 . S
C1080 C186 0.406 . S
C1097 C61 1.435 . S
C1116 C5 1.400 . S
C1133 C75 1.451 1_556 S
C1152 C19 1.434 . S
C1169 C89 1.447 . S
C1188 C33 1.485 . S
C1205 C47 1.446 . S
C1224 C103 1.410 . S
C1241 C117 1.451 . S
C1260 C145 1.484 . S
C1277 C159 1.445 . S
C1296 C131 1.483 1_556 S
C1313 C201 1.453 . S
C1332 C173 1.474 . S
C1349 C215 1.438 . S
C1368 C187 1.457 . S
