# Generated by pormake.
# Topology mmt, (4)-cn, num edge types: 1
# Building blocks:
#     Node 0, Type 0, BuildingBlock: TATPOV_clean_sbu_0, # of connection points: 4
#     Node 1, Type 0, BuildingBlock: TATPOV_clean_sbu_0, # of connection points: 4
#     Node 2, Type 0, BuildingBlock: TATPOV_clean_sbu_0, # of connection points: 4
#     Node 3, Type 0, BuildingBlock: TATPOV_clean_sbu_0, # of connection points: 4
#     Node 4, Type 0, BuildingBlock: TATPOV_clean_sbu_0, # of connection points: 4
#     Node 5, Type 0, BuildingBlock: TATPOV_clean_sbu_0, # of connection points: 4
#     Node 6, Type 0, BuildingBlock: TATPOV_clean_sbu_0, # of connection points: 4
#     Node 7, Type 0, BuildingBlock: TATPOV_clean_sbu_0, # of connection points: 4
#     Edge 8, Type (0, 0), BuildingBlock: FUNLAD_clean_linker_1, # of connection points: 2
#     Edge 9, Type (0, 0), BuildingBlock: FUNLAD_clean_linker_1, # of connection points: 2
#     Edge 10, Type (0, 0), BuildingBlock: FUNLAD_clean_linker_1, # of connection points: 2
#     Edge 11, Type (0, 0), BuildingBlock: FUNLAD_clean_linker_1, # of connection points: 2
#     Edge 12, Type (0, 0), BuildingBlock: FUNLAD_clean_linker_1, # of connection points: 2
#     Edge 13, Type (0, 0), BuildingBlock: FUNLAD_clean_linker_1, # of connection points: 2
#     Edge 14, Type (0, 0), BuildingBlock: FUNLAD_clean_linker_1, # of connection points: 2
#     Edge 15, Type (0, 0), BuildingBlock: FUNLAD_clean_linker_1, # of connection points: 2
#     Edge 16, Type (0, 0), BuildingBlock: FUNLAD_clean_linker_1, # of connection points: 2
#     Edge 17, Type (0, 0), BuildingBlock: FUNLAD_clean_linker_1, # of connection points: 2
#     Edge 18, Type (0, 0), BuildingBlock: FUNLAD_clean_linker_1, # of connection points: 2
#     Edge 19, Type (0, 0), BuildingBlock: FUNLAD_clean_linker_1, # of connection points: 2
#     Edge 20, Type (0, 0), BuildingBlock: FUNLAD_clean_linker_1, # of connection points: 2
#     Edge 21, Type (0, 0), BuildingBlock: FUNLAD_clean_linker_1, # of connection points: 2
#     Edge 22, Type (0, 0), BuildingBlock: FUNLAD_clean_linker_1, # of connection points: 2
#     Edge 23, Type (0, 0), BuildingBlock: FUNLAD_clean_linker_1, # of connection points: 2
# Relax obj value: 0.064
# Max RMSD: 0.111
# Mean RMSD: 0.111
data_MOF--net-mmt--node1-TATPOV_clean_sbu_0--edge1-FUNLAD_clean_linker_1
_symmetry_space_group_name_H-M    P1
_symmetry_Int_Tables_number       1
_symmetry_cell_setting            triclinic
loop_
_symmetry_equiv_pos_as_xyz
'x, y, z'
_cell_length_a     22.655896
_cell_length_b     40.750516
_cell_length_c     42.431293
_cell_angle_alpha  89.998798
_cell_angle_beta   90.023699
_cell_angle_gamma 90.137775
loop_
_atom_site_label
_atom_site_type_symbol
_atom_site_fract_x
_atom_site_fract_y
_atom_site_fract_z
_atom_type_partial_charge
Zn0 Zn 0.22344 0.50117 0.35817 0.0
Zn1 Zn 0.22962 0.56637 0.3493 0.0
O2 O 0.18448 0.56116 0.39173 0.0
O3 O 0.17893 0.50757 0.39831 0.0
O4 O 0.24811 0.6153 0.34546 0.0
O5 O 0.31095 0.49455 0.35791 0.0
O6 O 0.31328 0.54677 0.34472 0.0
C7 C 0.16705 0.53632 0.40756 0.0
C8 C 0.1633 0.52496 0.30172 0.0
O9 O 0.17774 0.55357 0.31134 0.0
O10 O 0.1787 0.49964 0.31692 0.0
C11 C 0.21316 0.63953 0.34812 0.0
O12 O 0.15681 0.63428 0.35348 0.0
C13 C 0.33962 0.51948 0.34901 0.0
Zn14 Zn 0.27204 0.03164 0.36402 0.0
Zn15 Zn 0.27204 0.96642 0.35493 0.0
O16 O 0.31958 0.97253 0.39642 0.0
O17 O 0.31993 0.02617 0.40332 0.0
O18 O 0.25749 0.91711 0.35093 0.0
O19 O 0.18413 0.03563 0.36477 0.0
O20 O 0.18596 0.98314 0.35274 0.0
C21 C 0.33563 0.99779 0.41204 0.0
C22 C 0.33121 1.01048 0.30663 0.0
O23 O 0.32036 0.98135 0.31618 0.0
O24 O 0.31387 0.0351 0.32224 0.0
C25 C 0.2937 0.89331 0.35137 0.0
O26 O 0.35052 0.89911 0.35422 0.0
C27 C 0.15726 1.0096 0.35711 0.0
Zn28 Zn 0.72511 0.53819 0.12778 0.0
Zn29 Zn 0.72478 0.4727 0.13438 0.0
O30 O 0.6799 0.48149 0.09247 0.0
O31 O 0.67707 0.53537 0.08832 0.0
O32 O 0.72947 0.42273 0.13668 0.0
O33 O 0.81351 0.54035 0.12683 0.0
O34 O 0.8117 0.48788 0.13938 0.0
C35 C 0.66308 0.50729 0.078 0.0
C36 C 0.66538 0.51498 0.18399 0.0
O37 O 0.67617 0.48652 0.17292 0.0
O38 O 0.68301 0.5405 0.16977 0.0
C39 C 0.68295 0.40528 0.13879 0.0
O40 O 0.63132 0.41979 0.13985 0.0
C41 C 0.84021 0.5146 0.1352 0.0
Zn42 Zn 0.78339 1.02423 0.14767 0.0
Zn43 Zn 0.76789 0.08837 0.14279 0.0
O44 O 0.81247 0.07549 0.10154 0.0
O45 O 0.8339 1.02338 0.10927 0.0
O46 O 0.75519 0.13781 0.13894 0.0
O47 O 0.69668 1.01544 0.14488 0.0
O48 O 0.68402 0.06883 0.1498 0.0
C49 C 0.83797 0.04912 0.09276 0.0
C50 C 0.83434 0.05954 0.19912 0.0
O51 O 0.81923 0.08429 0.18269 0.0
O52 O 0.82151 0.03079 0.19005 0.0
C53 C 0.79998 0.15655 0.13626 0.0
O54 O 0.85286 0.1435 0.1354 0.0
C55 C 0.66297 0.03973 0.14886 0.0
Zn56 Zn 0.7996 0.52974 0.63723 0.0
Zn57 Zn 0.78577 0.46411 0.64011 0.0
O58 O 0.83835 0.47325 0.60067 0.0
O59 O 0.84452 0.5271 0.59698 0.0
O60 O 0.77475 0.41446 0.63978 0.0
O61 O 0.71163 0.53564 0.63795 0.0
O62 O 0.7007 0.48194 0.6403 0.0
C63 C 0.85727 0.49891 0.58661 0.0
C64 C 0.84732 0.50058 0.69375 0.0
O65 O 0.8259 0.47403 0.68268 0.0
O66 O 0.84388 0.52714 0.67837 0.0
C67 C 0.81886 0.39533 0.64215 0.0
O68 O 0.87199 0.40791 0.64494 0.0
C69 C 0.67851 0.51065 0.63993 0.0
Zn70 Zn 0.70722 1.01556 0.63928 0.0
Zn71 Zn 0.71293 0.08134 0.64075 0.0
O72 O 0.66928 0.07033 0.59887 0.0
O73 O 0.66268 1.01635 0.59864 0.0
O74 O 0.72281 0.13106 0.64012 0.0
O75 O 0.79518 1.01098 0.64019 0.0
O76 O 0.79788 0.06439 0.64822 0.0
C77 C 0.6516 0.04376 0.58598 0.0
C78 C 0.6469 0.04525 0.69248 0.0
O79 O 0.66135 0.07223 0.6794 0.0
O80 O 0.66228 1.01809 0.68048 0.0
C81 C 0.67844 0.15001 0.63782 0.0
O82 O 0.62537 0.13723 0.63557 0.0
C83 C 0.82393 0.03669 0.64673 0.0
Zn84 Zn 0.30378 0.524 0.84578 0.0
Zn85 Zn 0.27935 0.58836 0.85079 0.0
O86 O 0.32652 0.57771 0.89156 0.0
O87 O 0.34451 0.52472 0.88769 0.0
O88 O 0.25908 0.63691 0.85436 0.0
O89 O 0.21853 0.51302 0.84128 0.0
O90 O 0.19777 0.56576 0.84479 0.0
C91 C 0.34941 0.55151 0.90256 0.0
C92 C 0.3548 0.56243 0.7961 0.0
O93 O 0.33111 0.5863 0.81076 0.0
O94 O 0.34964 0.5334 0.80639 0.0
C95 C 0.30013 0.65826 0.85542 0.0
O96 O 0.35531 0.64852 0.85497 0.0
C97 C 0.18125 0.53601 0.84115 0.0
Zn98 Zn 0.21597 0.03313 0.87081 0.0
Zn99 Zn 0.19681 0.96813 0.86219 0.0
O100 O 0.15835 0.97933 0.90509 0.0
O101 O 0.18372 0.03066 0.9149 0.0
O102 O 0.19358 0.91829 0.85954 0.0
O103 O 0.30245 0.02922 0.86209 0.0
O104 O 0.28565 0.97654 0.85479 0.0
C105 C 0.15804 1.00443 0.92304 0.0
C106 C 0.13783 1.01604 0.81802 0.0
O107 O 0.14751 0.98625 0.82567 0.0
O108 O 0.1605 0.0394 0.83363 0.0
C109 C 0.1471 0.90072 0.85928 0.0
O110 O 0.09519 0.91491 0.86029 0.0
C111 C 0.32092 1.00093 0.85493 0.0
H112 H 0.42095 0.491 0.34204 0.0
C113 C 0.40064 0.51479 0.338 0.0
H114 H 0.4033 0.55835 0.3112 0.0
H115 H 0.66908 0.50328 0.27584 0.0
H116 H 0.69749 0.52212 0.32809 0.0
H117 H 0.62247 0.54173 0.36577 0.0
H118 H 0.5185 0.54264 0.35146 0.0
C119 C 0.42525 0.5355 0.31722 0.0
C120 C 0.4711 0.52346 0.29517 0.0
C121 C 0.53135 0.52305 0.30397 0.0
C122 C 0.57461 0.51207 0.28214 0.0
C123 C 0.63459 0.51184 0.29143 0.0
C124 C 0.6514 0.52245 0.32135 0.0
C125 C 0.60914 0.53345 0.34259 0.0
C126 C 0.54969 0.53382 0.33412 0.0
H127 H 0.62206 0.54422 0.22074 0.0
C128 C 0.62963 0.51926 0.2126 0.0
H129 H 0.60672 0.46934 0.21869 0.0
H130 H 0.35861 0.51989 0.27129 0.0
H131 H 0.3304 0.50064 0.21938 0.0
H132 H 0.40552 0.48139 0.18163 0.0
H133 H 0.50932 0.48125 0.19564 0.0
C134 C 0.60231 0.49436 0.22722 0.0
C135 C 0.55731 0.50164 0.25162 0.0
C136 C 0.49681 0.50098 0.24322 0.0
C137 C 0.45365 0.51214 0.26493 0.0
C138 C 0.39345 0.51175 0.25574 0.0
C139 C 0.37657 0.50075 0.22598 0.0
C140 C 0.41885 0.48991 0.20474 0.0
C141 C 0.47831 0.48999 0.21309 0.0
H142 H 0.88829 0.08845 0.23258 0.0
C143 C 0.87083 0.06414 0.22754 0.0
H144 H 0.86879 1.01421 0.2412 0.0
H145 H 0.13135 0.05421 0.29434 0.0
H146 H 0.15774 0.06062 0.23937 0.0
H147 H 0.08189 0.05733 0.19777 0.0
H148 H 0.97939 0.04807 0.2109 0.0
C149 C 0.88708 0.03849 0.24545 0.0
C150 C 0.93257 0.04154 0.27046 0.0
C151 C 0.9926 0.04653 0.26213 0.0
C152 C 0.03654 0.0474 0.28598 0.0
C153 C 0.09614 0.05287 0.27715 0.0
C154 C 0.11198 0.05661 0.24566 0.0
C155 C 0.06928 0.05483 0.22226 0.0
C156 C 0.01034 0.04973 0.23022 0.0
H157 H 0.07495 0.9886 0.33827 0.0
C158 C 0.09499 1.01104 0.34718 0.0
H159 H 0.08904 0.06275 0.34903 0.0
H160 H 0.82164 0.03216 0.29432 0.0
H161 H 0.79594 1.02411 0.3494 0.0
H162 H 0.87291 1.02418 0.39058 0.0
H163 H 0.97622 0.0324 0.37694 0.0
C164 C 0.06811 0.0399 0.34192 0.0
C165 C 0.02072 0.04196 0.3179 0.0
C166 C 0.96092 0.03713 0.32626 0.0
C167 C 0.91667 0.03698 0.30248 0.0
C168 C 0.85707 0.03224 0.31144 0.0
C169 C 0.84174 0.02766 0.34295 0.0
C170 C 0.88509 0.02771 0.36615 0.0
C171 C 0.94412 0.03239 0.35804 0.0
H172 H 0.92503 0.54049 0.13977 0.0
C173 C 0.90172 0.51803 0.14598 0.0
H174 H 0.89744 0.47838 0.17775 0.0
H175 H 0.16805 0.53021 0.21029 0.0
H176 H 0.19634 0.50547 0.16041 0.0
H177 H 0.12085 0.4837 0.12397 0.0
H178 H 0.01653 0.48657 0.13715 0.0
C179 C 0.9228 0.49933 0.16942 0.0
C180 C 0.96909 0.51257 0.19077 0.0
C181 C 0.02959 0.51069 0.18268 0.0
C182 C 0.07312 0.52283 0.20389 0.0
C183 C 0.13332 0.52081 0.19525 0.0
C184 C 0.15008 0.50683 0.16665 0.0
C185 C 0.10756 0.49461 0.14611 0.0
C186 C 0.04791 0.49644 0.15391 0.0
H187 H 0.11709 0.4949 0.26662 0.0
C188 C 0.12651 0.5201 0.27351 0.0
H189 H 0.10702 0.56998 0.26478 0.0
H190 H 0.85635 0.52174 0.21269 0.0
H191 H 0.82833 0.54695 0.26217 0.0
H192 H 0.90393 0.56792 0.29892 0.0
H193 H 0.00807 0.56384 0.28632 0.0
C194 C 0.10087 0.54461 0.25756 0.0
C195 C 0.05592 0.53662 0.23317 0.0
C196 C 0.99528 0.5397 0.24067 0.0
C197 C 0.9518 0.52748 0.21955 0.0
C198 C 0.89143 0.53045 0.22787 0.0
C199 C 0.87464 0.54491 0.25622 0.0
C200 C 0.9172 0.55672 0.2769 0.0
C201 C 0.97685 0.55419 0.26938 0.0
H202 H 0.584 1.00863 0.15209 0.0
C203 C 0.60154 0.03277 0.1579 0.0
H204 H 0.59418 0.07342 0.18825 0.0
H205 H 0.33402 1.00324 0.21403 0.0
H206 H 0.30549 0.02568 0.16316 0.0
H207 H 0.37905 0.05261 0.12886 0.0
H208 H 0.48164 0.05727 0.14519 0.0
C209 C 0.57425 0.0507 0.17997 0.0
C210 C 0.529 0.03497 0.20036 0.0
C211 C 0.46949 0.0325 0.19046 0.0
C212 C 0.42696 1.01736 0.21043 0.0
C213 C 0.36779 1.01503 0.19997 0.0
C214 C 0.35096 0.02766 0.1708 0.0
C215 C 0.39241 0.04278 0.15146 0.0
C216 C 0.45109 0.04524 0.16105 0.0
H217 H 0.37084 0.04245 0.2709 0.0
C218 C 0.36668 1.01696 0.27826 0.0
H219 H 0.39848 0.9688 0.27147 0.0
H220 H 0.64042 0.03417 0.22577 0.0
H221 H 0.66887 1.01125 0.27621 0.0
H222 H 0.59502 0.98507 0.3108 0.0
H223 H 0.4923 0.98155 0.29506 0.0
C224 C 0.39887 0.99413 0.26348 0.0
C225 C 0.44412 1.00494 0.24027 0.0
C226 C 0.50411 1.0063 0.24963 0.0
C227 C 0.54655 1.02153 0.22976 0.0
C228 C 0.60614 1.02298 0.23992 0.0
C229 C 0.62315 1.0099 0.26885 0.0
C230 C 0.58159 0.99516 0.28832 0.0
C231 C 0.52273 0.99334 0.27899 0.0
H232 H 0.40439 0.59361 0.76245 0.0
C233 C 0.39134 0.56857 0.76795 0.0
H234 H 0.39773 0.5185 0.7553 0.0
H235 H 0.50231 0.53669 0.61955 0.0
H236 H 0.39946 0.52709 0.60572 0.0
H237 H 0.32202 0.52724 0.64662 0.0
H238 H 0.3468 0.53698 0.70159 0.0
C239 C 0.41202 0.5435 0.7506 0.0
C240 C 0.45706 0.54806 0.72561 0.0
C241 C 0.44174 0.54252 0.69365 0.0
C242 C 0.48629 0.54242 0.67006 0.0
C243 C 0.47001 0.53676 0.63834 0.0
C244 C 0.41124 0.53131 0.63011 0.0
C245 C 0.36762 0.5314 0.65315 0.0
C246 C 0.38242 0.53692 0.6846 0.0
H247 H 0.59089 0.49309 0.65482 0.0
C248 C 0.61579 0.51489 0.64824 0.0
H249 H 0.61947 0.56664 0.64982 0.0
H250 H 0.50227 0.55826 0.78502 0.0
H251 H 0.60432 0.56865 0.79841 0.0
H252 H 0.68103 0.57034 0.75722 0.0
H253 H 0.65598 0.56134 0.70243 0.0
C254 C 0.59387 0.54471 0.65501 0.0
C255 C 0.54587 0.5479 0.67856 0.0
C256 C 0.56099 0.55468 0.71036 0.0
C257 C 0.51665 0.55432 0.73402 0.0
C258 C 0.53362 0.55913 0.76586 0.0
C259 C 0.59228 0.56496 0.77397 0.0
C260 C 0.63545 0.56587 0.7508 0.0
C261 C 0.62034 0.5607 0.71938 0.0
H262 H 0.90622 1.00939 0.6542 0.0
C263 C 0.88444 0.03268 0.6587 0.0
H264 H 0.8812 0.07417 0.68829 0.0
H265 H 0.97515 0.9886 0.80167 0.0
H266 H 0.86999 0.98871 0.8125 0.0
H267 H 0.79954 1.01177 0.77412 0.0
H268 H 0.83374 0.03486 0.72476 0.0
C269 C 0.90535 0.05223 0.68158 0.0
C270 C 0.94865 0.03903 0.70456 0.0
C271 C 0.92774 0.02566 0.73337 0.0
C272 C 0.96821 1.01229 0.75546 0.0
C273 C 0.94625 0.99908 0.78404 0.0
C274 C 0.88599 0.99896 0.79056 0.0
C275 C 0.84634 1.01194 0.76896 0.0
C276 C 0.86666 0.02514 0.74068 0.0
H277 H 0.09316 0.05031 0.78599 0.0
C278 C 0.09971 1.02441 0.79113 0.0
H279 H 0.07567 0.97591 0.7787 0.0
H280 H 0.00259 0.06247 0.65156 0.0
H281 H 0.10783 0.06153 0.64034 0.0
H282 H 0.17812 0.0379 0.67851 0.0
H283 H 0.14371 1.0151 0.72816 0.0
C284 C 0.07175 1.00193 0.77352 0.0
C285 C 0.02947 1.01274 0.74889 0.0
C286 C 0.05029 0.02554 0.71985 0.0
C287 C 0.00975 0.03878 0.69766 0.0
C288 C 0.0316 0.05183 0.66904 0.0
C289 C 0.09182 0.05148 0.66236 0.0
C290 C 0.13141 0.03822 0.68388 0.0
C291 C 0.11115 0.02534 0.71233 0.0
H292 H 0.11706 0.50582 0.81657 0.0
C293 C 0.12118 0.528 0.83063 0.0
H294 H 0.07927 0.57001 0.84806 0.0
H295 H 0.91108 0.58074 0.73006 0.0
H296 H 0.9374 0.63721 0.74132 0.0
H297 H 0.00209 0.65089 0.78621 0.0
H298 H 0.03964 0.60841 0.82043 0.0
C299 C 0.07434 0.54782 0.8342 0.0
C300 C 0.01997 0.542 0.81481 0.0
C301 C -0.00184 0.5674 0.79525 0.0
C302 C 0.96218 0.55941 0.76884 0.0
C303 C 0.94018 0.58526 0.74982 0.0
C304 C 0.95459 0.61783 0.75614 0.0
C305 C 0.99097 0.62553 0.78142 0.0
C306 C 0.01263 0.60075 0.80081 0.0
H307 H 0.85252 0.4889 0.74451 0.0
C308 C 0.87475 0.50119 0.72514 0.0
H309 H 0.94498 0.53054 0.70971 0.0
H310 H 0.02902 0.49137 0.85626 0.0
H311 H 0.00213 0.43428 0.84623 0.0
H312 H 0.95741 0.41816 0.79546 0.0
H313 H 0.93623 0.45873 0.75551 0.0
C314 C 0.92458 0.51842 0.72982 0.0
C315 C 0.94991 0.52605 0.76145 0.0
C316 C 0.96631 0.50108 0.78311 0.0
C317 C -0.00238 0.50969 0.81097 0.0
C318 C 0.00836 0.48533 0.83397 0.0
C319 C 0.99302 0.45272 0.82854 0.0
C320 C 0.96752 0.44369 0.80003 0.0
C321 C 0.9547 0.46743 0.77739 0.0
H322 H 0.3937 0.9726 0.83382 0.0
C323 C 0.3801 0.99704 0.84104 0.0
H324 H 0.39782 0.04795 0.83769 0.0
H325 H 0.6572 0.03304 0.78374 0.0
H326 H 0.6808 0.04772 0.83782 0.0
H327 H 0.60293 0.04982 0.87843 0.0
H328 H 0.50095 0.03721 0.86524 0.0
C329 C 0.41106 1.02327 0.83113 0.0
C330 C 0.45849 1.02016 0.80717 0.0
C331 C 0.51767 0.02761 0.8153 0.0
C332 C 0.56252 0.02649 0.79189 0.0
C333 C 0.6214 0.03381 0.80061 0.0
C334 C 0.63553 0.04218 0.83155 0.0
C335 C 0.59168 0.04335 0.85442 0.0
C336 C 0.53336 0.03613 0.84654 0.0
H337 H 0.59274 0.06902 0.72922 0.0
C338 C 0.60972 0.04562 0.72095 0.0
H339 H 0.60895 0.99408 0.72714 0.0
H340 H 0.34798 1.00829 0.78237 0.0
H341 H 0.32527 0.99302 0.72869 0.0
H342 H 0.4041 0.98825 0.68888 0.0
H343 H 0.5061 0.99927 0.70262 0.0
C344 C 0.59372 1.01776 0.73559 0.0
C345 C 0.54789 1.01797 0.76049 0.0
C346 C 0.48889 1.01012 0.75239 0.0
C347 C 0.44383 1.01187 0.77558 0.0
C348 C 0.38459 1.00605 0.76623 0.0
C349 C 0.37074 0.99751 0.7353 0.0
C350 C 0.41507 0.9949 0.71289 0.0
C351 C 0.47347 1.00125 0.72113 0.0
H352 H 0.11635 0.56547 0.44237 0.0
C353 C 0.12856 0.54075 0.43534 0.0
H354 H 0.11502 0.48995 0.44249 0.0
H355 H 0.00843 0.54476 0.57747 0.0
H356 H 0.10816 0.56263 0.58921 0.0
H357 H 0.1863 0.55975 0.54885 0.0
H358 H 0.16507 0.53916 0.49646 0.0
C359 C 0.10481 0.5147 0.45027 0.0
C360 C 0.05777 0.51804 0.47446 0.0
C361 C 0.07105 0.53012 0.50497 0.0
C362 C 0.02606 0.53149 0.52831 0.0
C363 C 0.04067 0.54339 0.55872 0.0
C364 C 0.09784 0.55362 0.56584 0.0
C365 C 0.14183 0.55201 0.54312 0.0
C366 C 0.12894 0.54028 0.51305 0.0
H367 H 0.90973 0.47159 0.55123 0.0
C368 C 0.89738 0.49593 0.55932 0.0
H369 H 0.91089 0.54704 0.55448 0.0
H370 H 0.01738 0.49405 0.41807 0.0
H371 H 0.91744 0.47669 0.40614 0.0
H372 H 0.83912 0.4799 0.44638 0.0
H373 H 0.86039 0.50025 0.49884 0.0
C374 C 0.9214 0.52268 0.54571 0.0
C375 C 0.9681 0.52044 0.52119 0.0
C376 C 0.95467 0.5087 0.49056 0.0
C377 C -0.00031 0.50726 0.46726 0.0
C378 C 0.98507 0.49549 0.43679 0.0
C379 C 0.92778 0.48557 0.42956 0.0
C380 C 0.88371 0.48735 0.45221 0.0
C381 C 0.89665 0.4989 0.48234 0.0
H382 H 0.38991 0.96998 0.44633 0.0
C383 C 0.37674 0.99441 0.43889 0.0
H384 H 0.39054 0.04546 0.44405 0.0
H385 H 0.50386 0.99718 0.57952 0.0
H386 H 0.40458 0.9804 0.59344 0.0
H387 H 0.32454 0.98136 0.55402 0.0
H388 H 0.34344 0.99898 0.50041 0.0
C389 C 0.40145 1.021 0.45242 0.0
C390 C 0.4498 1.01856 0.47599 0.0
C391 C 0.43793 1.00813 0.50721 0.0
C392 C 0.48403 1.00781 0.52997 0.0
C393 C 0.47077 0.99765 0.56114 0.0
C394 C 0.41385 0.98807 0.56952 0.0
C395 C 0.3688 0.9886 0.54733 0.0
C396 C 0.38035 0.99863 0.51656 0.0
H397 H 0.60105 0.06872 0.54827 0.0
C398 C 0.61334 0.04493 0.55779 0.0
H399 H 0.59984 0.99364 0.55585 0.0
H400 H 0.48756 0.03943 0.41802 0.0
H401 H 0.58708 0.05579 0.40391 0.0
H402 H 0.66732 0.05444 0.4432 0.0
H403 H 0.64843 0.03694 0.49688 0.0
C404 C 0.58945 1.01739 0.54564 0.0
C405 C 0.54176 1.01824 0.52155 0.0
C406 C 0.55377 0.02832 0.49023 0.0
C407 C 0.50761 0.0287 0.46749 0.0
C408 C 0.5208 0.03884 0.43632 0.0
C409 C 0.57782 0.04817 0.42786 0.0
C410 C 0.62298 0.04743 0.44998 0.0
C411 C 0.61143 0.03751 0.48079 0.0
H412 H 0.61259 0.48033 0.04144 0.0
C413 C 0.62322 0.50457 0.05055 0.0
H414 H 0.60476 0.55535 0.04839 0.0
H415 H 0.50345 0.51169 0.90854 0.0
H416 H 0.6052 0.49988 0.89528 0.0
H417 H 0.68303 0.50167 0.93591 0.0
H418 H 0.65947 0.51516 0.99008 0.0
C419 C 0.59659 0.53122 0.03837 0.0
C420 C 0.54982 0.52877 0.01388 0.0
C421 C 0.56441 0.52081 0.98233 0.0
C422 C 0.51953 0.52 0.95889 0.0
C423 C 0.53551 0.51236 0.92743 0.0
C424 C 0.59386 0.50566 0.91943 0.0
C425 C 0.63767 0.50666 0.9423 0.0
C426 C 0.62345 0.51428 0.97337 0.0
H427 H 0.39423 0.57642 0.94238 0.0
C428 C 0.38627 0.55278 0.93128 0.0
H429 H 0.40758 0.50234 0.93047 0.0
H430 H 0.50698 0.54475 0.07223 0.0
H431 H 0.40504 0.5561 0.08569 0.0
H432 H 0.32694 0.55366 0.04523 0.0
H433 H 0.35037 0.54011 0.99104 0.0
C434 C 0.41386 0.52581 0.94218 0.0
C435 C 0.46024 0.52744 0.96698 0.0
C436 C 0.44558 0.53514 -0.0014 0.0
C437 C 0.49053 0.53608 0.02201 0.0
C438 C 0.47471 0.54383 0.05344 0.0
C439 C 0.4163 0.55028 0.06154 0.0
C440 C 0.37234 0.54893 0.03875 0.0
C441 C 0.38649 0.54132 0.00766 0.0
H442 H 0.14183 1.01217 0.9737 0.0
C443 C 0.12151 1.00495 0.95155 0.0
H444 H 0.04241 0.99718 0.92654 0.0
H445 H 0.87354 0.96944 0.04078 0.0
H446 H 0.86959 0.91794 0.01235 0.0
H447 H 0.93631 0.90749 0.96756 0.0
H448 H 0.00685 0.94865 0.95071 0.0
C449 C 0.06247 1.00319 0.94911 0.0
C450 C 0.02266 1.00977 0.97637 0.0
C451 C 0.98239 0.9852 0.98628 0.0
C452 C 0.94507 0.9909 0.01266 0.0
C453 C 0.90408 0.96619 0.02145 0.0
C454 C 0.90111 0.93652 0.00523 0.0
C455 C 0.93857 0.93067 0.97998 0.0
C456 C 0.97881 0.95459 0.97052 0.0
H457 H 0.86738 0.06737 0.04601 0.0
C458 C 0.87357 0.04832 0.06361 0.0
H459 H 0.9199 1.0057 0.077 0.0
H460 H 0.08336 0.0654 0.95901 0.0
H461 H 0.09118 0.11586 0.98885 0.0
H462 H 0.03764 0.12262 0.03902 0.0
H463 H 0.97431 0.07948 0.05893 0.0
C464 C 0.91412 1.0246 0.05918 0.0
C465 C 0.94916 1.02082 0.0297 0.0
C466 C 0.98927 0.04552 0.01968 0.0
C467 C 0.024 0.04055 0.99214 0.0
C468 C 0.0592 0.06686 0.98092 0.0
C469 C 0.06361 0.09616 0.99765 0.0
C470 C 0.0332 0.10004 0.02579 0.0
C471 C -0.00353 0.07511 0.03681 0.0
H472 H 0.28479 0.67607 0.34315 0.0
C473 C 0.23739 0.6733 0.34618 0.0
H474 H 0.15646 0.69791 0.35254 0.0
H475 H 0.26577 0.82849 0.40745 0.0
H476 H 0.21609 0.8061 0.45324 0.0
H477 H 0.17229 0.75066 0.45189 0.0
H478 H 0.17807 0.7172 0.40478 0.0
C479 C 0.20363 0.70034 0.3485 0.0
C480 C 0.22982 0.73414 0.34878 0.0
C481 C 0.2254 0.75367 0.37638 0.0
C482 C 0.25027 0.78584 0.37709 0.0
C483 C 0.24663 0.80426 0.40533 0.0
C484 C 0.21851 0.79162 0.43189 0.0
C485 C 0.19389 0.7604 0.43113 0.0
C486 C 0.19736 0.74149 0.40385 0.0
H487 H 0.22263 0.85618 0.34933 0.0
C488 C 0.27028 0.85934 0.3501 0.0
H489 H 0.35263 0.83507 0.35041 0.0
H490 H 0.24107 0.70507 0.29083 0.0
H491 H 0.29145 0.72742 0.24525 0.0
H492 H 0.33721 0.78236 0.24713 0.0
H493 H 0.33231 0.81546 0.29458 0.0
C494 C 0.30488 0.83255 0.35057 0.0
C495 C 0.27907 0.79871 0.35006 0.0
C496 C 0.28367 0.77919 0.3225 0.0
C497 C 0.25837 0.74711 0.32167 0.0
C498 C 0.26118 0.72902 0.29322 0.0
C499 C 0.28959 0.74168 0.26675 0.0
C500 C 0.31526 0.77264 0.26779 0.0
C501 C 0.31224 0.79135 0.29521 0.0
H502 H 0.83452 0.20697 0.13183 0.0
C503 C 0.79423 0.19271 0.13459 0.0
H504 H 0.70186 0.19483 0.14082 0.0
H505 H 0.70856 0.33974 0.19584 0.0
H506 H 0.68307 0.30828 0.24235 0.0
H507 H 0.68282 0.24777 0.24115 0.0
H508 H 0.70842 0.21833 0.19344 0.0
C509 C 0.74236 0.20855 0.13683 0.0
C510 C 0.73955 0.24526 0.13676 0.0
C511 C 0.72313 0.2622 0.16462 0.0
C512 C 0.72241 0.29719 0.16518 0.0
C513 C 0.70826 0.31329 0.19376 0.0
C514 C 0.69392 0.29552 0.22074 0.0
C515 C 0.69385 0.26145 0.22008 0.0
C516 C 0.70849 0.24486 0.19248 0.0
H517 H 0.64425 0.35563 0.1421 0.0
C518 C 0.68564 0.36897 0.13985 0.0
H519 H 0.77798 0.36491 0.13448 0.0
H520 H 0.7671 0.22082 0.07847 0.0
H521 H 0.79236 0.25227 0.03191 0.0
H522 H 0.79283 0.31278 0.03313 0.0
H523 H 0.76766 0.34222 0.08091 0.0
C524 C 0.73642 0.35203 0.1379 0.0
C525 C 0.73704 0.3153 0.13766 0.0
C526 C 0.75305 0.29835 0.10975 0.0
C527 C 0.75372 0.26337 0.10918 0.0
C528 C 0.76758 0.24726 0.08055 0.0
C529 C 0.78174 0.26503 0.05354 0.0
C530 C 0.78193 0.2991 0.05422 0.0
C531 C 0.76755 0.31569 0.08186 0.0
H532 H 0.64555 0.20092 0.636 0.0
C533 C 0.68527 0.18616 0.63802 0.0
H534 H 0.7782 0.18693 0.64194 0.0
H535 H 0.80446 0.32989 0.58447 0.0
H536 H 0.84264 0.29666 0.54179 0.0
H537 H 0.83604 0.23627 0.5437 0.0
H538 H 0.79082 0.20874 0.58827 0.0
C539 C 0.73788 0.20127 0.64086 0.0
C540 C 0.74311 0.23787 0.64042 0.0
C541 C 0.77083 0.25365 0.61453 0.0
C542 C 0.7755 0.28853 0.61366 0.0
C543 C 0.80123 0.30353 0.58685 0.0
C544 C 0.82298 0.28474 0.56204 0.0
C545 C 0.8192 0.25074 0.5631 0.0
C546 C 0.79326 0.23525 0.58889 0.0
H547 H 0.85126 0.34432 0.64366 0.0
C548 C 0.81169 0.3592 0.64163 0.0
H549 H 0.71877 0.35869 0.6376 0.0
H550 H 0.6922 0.21565 0.69499 0.0
H551 H 0.654 0.24888 0.73767 0.0
H552 H 0.66053 0.30927 0.73573 0.0
H553 H 0.7057 0.33679 0.69115 0.0
C554 C 0.75897 0.34424 0.63865 0.0
C555 C 0.75347 0.30766 0.63902 0.0
C556 C 0.72572 0.29188 0.66489 0.0
C557 C 0.72107 0.257 0.66577 0.0
C558 C 0.69538 0.242 0.69259 0.0
C559 C 0.67363 0.2608 0.71741 0.0
C560 C 0.67737 0.29479 0.71633 0.0
C561 C 0.70329 0.31028 0.69054 0.0
H562 H 0.32462 0.71064 0.85661 0.0
C563 C 0.28727 0.69385 0.85605 0.0
H564 H 0.19424 0.68987 0.85551 0.0
H565 H 0.16125 0.83283 0.91373 0.0
H566 H 0.1311 0.79869 0.95761 0.0
H567 H 0.14155 0.73851 0.95525 0.0
H568 H 0.18268 0.71211 0.909 0.0
C569 C 0.23225 0.70618 0.85521 0.0
C570 C 0.22182 0.74241 0.85544 0.0
C571 C 0.19616 0.75748 0.88225 0.0
C572 C 0.18921 0.79223 0.88339 0.0
C573 C 0.16607 0.80658 0.91115 0.0
C574 C 0.1489 0.78727 0.93664 0.0
C575 C 0.15485 0.75338 0.93533 0.0
C576 C 0.17842 0.73854 0.9086 0.0
H577 H 0.1101 0.85041 0.85776 0.0
C578 C 0.15095 0.86443 0.85841 0.0
H579 H 0.24406 0.86224 0.85858 0.0
H580 H 0.26534 0.72127 0.79876 0.0
H581 H 0.29433 0.75529 0.75452 0.0
H582 H 0.28376 0.81547 0.75677 0.0
H583 H 0.24372 0.84199 0.80321 0.0
C584 C 0.20293 0.84846 0.85883 0.0
C585 C 0.20685 0.81188 0.85738 0.0
C586 C 0.23118 0.7967 0.83026 0.0
C587 C 0.23814 0.76198 0.82915 0.0
C588 C 0.26067 0.74754 0.80128 0.0
C589 C 0.27709 0.76678 0.77559 0.0
C590 C 0.27108 0.80065 0.77684 0.0
C591 C 0.24822 0.81556 0.80372 0.0
loop_
_geom_bond_atom_site_label_1
_geom_bond_atom_site_label_2
_geom_bond_distance
_geom_bond_site_symmetry_2
_ccdc_geom_bond_type
Zn0 O3 2.031 . S
Zn0 O5 2.049 . S
Zn0 O10 2.067 . S
Zn1 O2 1.962 . S
Zn1 O4 1.986 . S
Zn1 O6 1.996 . S
Zn1 O9 1.943 . S
O2 Zn1 1.962 . S
O2 C7 1.254 . S
O3 Zn0 2.031 . S
O3 C7 1.269 . S
O4 Zn1 1.986 . S
O4 C11 1.262 . S
O5 Zn0 2.049 . S
O5 C13 1.260 . S
O6 Zn1 1.996 . S
O6 C13 1.257 . S
C7 O2 1.254 . S
C7 O3 1.269 . S
C8 O9 1.249 . S
C8 O10 1.270 . S
O9 Zn1 1.943 . S
O9 C8 1.249 . S
O10 Zn0 2.067 . S
O10 C8 1.270 . S
C11 O4 1.262 . S
C11 O12 1.232 . S
O12 C11 1.232 . S
C13 O5 1.260 . S
C13 O6 1.257 . S
Zn14 O17 2.031 1_545 S
Zn14 O19 2.049 . S
Zn14 O24 2.067 1_545 S
Zn15 O16 1.962 . S
Zn15 O18 1.986 . S
Zn15 O20 1.996 . S
Zn15 O23 1.943 . S
O16 Zn15 1.962 . S
O16 C21 1.254 . S
O17 Zn14 2.031 1_565 S
O17 C21 1.269 . S
O18 Zn15 1.986 . S
O18 C25 1.262 . S
O19 Zn14 2.049 . S
O19 C27 1.260 1_545 S
O20 Zn15 1.996 . S
O20 C27 1.257 . S
C21 O16 1.254 . S
C21 O17 1.269 . S
C22 O23 1.249 . S
C22 O24 1.270 . S
O23 Zn15 1.943 . S
O23 C22 1.249 . S
O24 Zn14 2.067 1_565 S
O24 C22 1.270 . S
C25 O18 1.262 . S
C25 O26 1.232 . S
O26 C25 1.232 . S
C27 O19 1.260 1_565 S
C27 O20 1.257 . S
Zn28 O31 2.031 . S
Zn28 O33 2.049 . S
Zn28 O38 2.067 . S
Zn29 O30 1.962 . S
Zn29 O32 1.986 . S
Zn29 O34 1.996 . S
Zn29 O37 1.943 . S
O30 Zn29 1.962 . S
O30 C35 1.254 . S
O31 Zn28 2.031 . S
O31 C35 1.269 . S
O32 Zn29 1.986 . S
O32 C39 1.262 . S
O33 Zn28 2.049 . S
O33 C41 1.260 . S
O34 Zn29 1.996 . S
O34 C41 1.257 . S
C35 O30 1.254 . S
C35 O31 1.269 . S
C36 O37 1.249 . S
C36 O38 1.270 . S
O37 Zn29 1.943 . S
O37 C36 1.249 . S
O38 Zn28 2.067 . S
O38 C36 1.270 . S
C39 O32 1.262 . S
C39 O40 1.232 . S
O40 C39 1.232 . S
C41 O33 1.260 . S
C41 O34 1.257 . S
Zn42 O45 2.031 1_565 S
Zn42 O47 2.049 . S
Zn42 O52 2.067 1_565 S
Zn43 O44 1.962 . S
Zn43 O46 1.986 . S
Zn43 O48 1.996 . S
Zn43 O51 1.943 . S
O44 Zn43 1.962 . S
O44 C49 1.254 . S
O45 Zn42 2.031 1_545 S
O45 C49 1.269 . S
O46 Zn43 1.986 . S
O46 C53 1.262 . S
O47 Zn42 2.049 . S
O47 C55 1.260 1_565 S
O48 Zn43 1.996 . S
O48 C55 1.257 . S
C49 O44 1.254 . S
C49 O45 1.269 . S
C50 O51 1.249 . S
C50 O52 1.270 . S
O51 Zn43 1.943 . S
O51 C50 1.249 . S
O52 Zn42 2.067 1_545 S
O52 C50 1.270 . S
C53 O46 1.262 . S
C53 O54 1.232 . S
O54 C53 1.232 . S
C55 O47 1.260 1_545 S
C55 O48 1.257 . S
Zn56 O59 2.031 . S
Zn56 O61 2.049 . S
Zn56 O66 2.067 . S
Zn57 O58 1.962 . S
Zn57 O60 1.986 . S
Zn57 O62 1.996 . S
Zn57 O65 1.943 . S
O58 Zn57 1.962 . S
O58 C63 1.254 . S
O59 Zn56 2.031 . S
O59 C63 1.269 . S
O60 Zn57 1.986 . S
O60 C67 1.262 . S
O61 Zn56 2.049 . S
O61 C69 1.260 . S
O62 Zn57 1.996 . S
O62 C69 1.257 . S
C63 O58 1.254 . S
C63 O59 1.269 . S
C64 O65 1.249 . S
C64 O66 1.270 . S
O65 Zn57 1.943 . S
O65 C64 1.249 . S
O66 Zn56 2.067 . S
O66 C64 1.270 . S
C67 O60 1.262 . S
C67 O68 1.232 . S
O68 C67 1.232 . S
C69 O61 1.260 . S
C69 O62 1.257 . S
Zn70 O73 2.031 1_565 S
Zn70 O75 2.049 . S
Zn70 O80 2.067 1_565 S
Zn71 O72 1.962 . S
Zn71 O74 1.986 . S
Zn71 O76 1.996 . S
Zn71 O79 1.943 . S
O72 Zn71 1.962 . S
O72 C77 1.254 . S
O73 Zn70 2.031 1_545 S
O73 C77 1.269 . S
O74 Zn71 1.986 . S
O74 C81 1.262 . S
O75 Zn70 2.049 . S
O75 C83 1.260 1_565 S
O76 Zn71 1.996 . S
O76 C83 1.257 . S
C77 O72 1.254 . S
C77 O73 1.269 . S
C78 O79 1.249 . S
C78 O80 1.270 . S
O79 Zn71 1.943 . S
O79 C78 1.249 . S
O80 Zn70 2.067 1_545 S
O80 C78 1.270 . S
C81 O74 1.262 . S
C81 O82 1.232 . S
O82 C81 1.232 . S
C83 O75 1.260 1_545 S
C83 O76 1.257 . S
Zn84 O87 2.031 . S
Zn84 O89 2.049 . S
Zn84 O94 2.067 . S
Zn85 O86 1.962 . S
Zn85 O88 1.986 . S
Zn85 O90 1.996 . S
Zn85 O93 1.943 . S
O86 Zn85 1.962 . S
O86 C91 1.254 . S
O87 Zn84 2.031 . S
O87 C91 1.269 . S
O88 Zn85 1.986 . S
O88 C95 1.262 . S
O89 Zn84 2.049 . S
O89 C97 1.260 . S
O90 Zn85 1.996 . S
O90 C97 1.257 . S
C91 O86 1.254 . S
C91 O87 1.269 . S
C92 O93 1.249 . S
C92 O94 1.270 . S
O93 Zn85 1.943 . S
O93 C92 1.249 . S
O94 Zn84 2.067 . S
O94 C92 1.270 . S
C95 O88 1.262 . S
C95 O96 1.232 . S
O96 C95 1.232 . S
C97 O89 1.260 . S
C97 O90 1.257 . S
Zn98 O101 2.031 1_545 S
Zn98 O103 2.049 . S
Zn98 O108 2.067 1_545 S
Zn99 O100 1.962 . S
Zn99 O102 1.986 . S
Zn99 O104 1.996 . S
Zn99 O107 1.943 . S
O100 Zn99 1.962 . S
O100 C105 1.254 . S
O101 Zn98 2.031 1_565 S
O101 C105 1.269 . S
O102 Zn99 1.986 . S
O102 C109 1.262 . S
O103 Zn98 2.049 . S
O103 C111 1.260 1_545 S
O104 Zn99 1.996 . S
O104 C111 1.257 . S
C105 O100 1.254 . S
C105 O101 1.269 . S
C106 O107 1.249 . S
C106 O108 1.270 . S
O107 Zn99 1.943 . S
O107 C106 1.249 . S
O108 Zn98 2.067 1_565 S
O108 C106 1.270 . S
C109 O102 1.262 . S
C109 O110 1.232 . S
O110 C109 1.232 . S
C111 O103 1.260 1_565 S
C111 O104 1.257 . S
H112 C113 0.951 . S
C113 H112 0.951 . S
C113 C119 1.265 . S
H114 C119 0.950 . S
H115 C123 0.949 . S
H116 C124 0.950 . S
H117 C125 0.951 . S
H118 C126 0.951 . S
C119 C113 1.265 . S
C119 H114 0.950 . S
C119 C120 1.478 . S
C120 C119 1.478 . S
C120 C121 1.397 . S
C120 C137 1.394 . S
C121 C120 1.397 . S
C121 C122 1.438 . S
C121 C126 1.429 . S
C122 C121 1.438 . S
C122 C123 1.428 . S
C122 C135 1.394 . S
C123 H115 0.949 . S
C123 C122 1.428 . S
C123 C124 1.345 . S
C124 H116 0.950 . S
C124 C123 1.345 . S
C124 C125 1.424 . S
C125 H117 0.951 . S
C125 C124 1.424 . S
C125 C126 1.347 . S
C126 H118 0.951 . S
C126 C121 1.429 . S
C126 C125 1.347 . S
H127 C128 0.951 . S
C128 H127 0.951 . S
C128 C134 1.265 . S
H129 C134 0.950 . S
H130 C138 0.949 . S
H131 C139 0.950 . S
H132 C140 0.951 . S
H133 C141 0.951 . S
C134 C128 1.265 . S
C134 H129 0.950 . S
C134 C135 1.478 . S
C135 C122 1.394 . S
C135 C134 1.478 . S
C135 C136 1.397 . S
C136 C135 1.397 . S
C136 C137 1.438 . S
C136 C141 1.429 . S
C137 C120 1.394 . S
C137 C136 1.438 . S
C137 C138 1.428 . S
C138 H130 0.949 . S
C138 C137 1.428 . S
C138 C139 1.345 . S
C139 H131 0.950 . S
C139 C138 1.345 . S
C139 C140 1.424 . S
C140 H132 0.951 . S
C140 C139 1.424 . S
C140 C141 1.347 . S
C141 H133 0.951 . S
C141 C136 1.429 . S
C141 C140 1.347 . S
H142 C143 0.951 . S
C143 H142 0.951 . S
C143 C149 1.272 . S
H144 C149 0.955 . S
H145 C153 0.949 . S
H146 C154 0.950 . S
H147 C155 0.951 . S
H148 C156 0.951 . S
C149 C143 1.272 . S
C149 H144 0.955 . S
C149 C150 1.467 1_655 S
C150 C149 1.467 1_455 S
C150 C151 1.397 . S
C150 C167 1.394 . S
C151 C150 1.397 . S
C151 C152 1.438 1_545 S
C151 C156 1.429 1_545 S
C152 C151 1.438 1_565 S
C152 C153 1.428 . S
C152 C165 1.394 1_565 S
C153 H145 0.949 . S
C153 C152 1.428 . S
C153 C154 1.345 . S
C154 H146 0.950 . S
C154 C153 1.345 . S
C154 C155 1.424 . S
C155 H147 0.951 . S
C155 C154 1.424 . S
C155 C156 1.347 . S
C156 H148 0.951 . S
C156 C151 1.429 1_565 S
C156 C155 1.347 . S
H157 C158 0.951 . S
C158 H157 0.951 . S
C158 C164 1.265 . S
H159 C164 0.950 1_545 S
H160 C168 0.949 . S
H161 C169 0.950 . S
H162 C170 0.951 . S
H163 C171 0.951 . S
C164 C158 1.265 . S
C164 H159 0.950 1_565 S
C164 C165 1.478 1_565 S
C165 C152 1.394 1_545 S
C165 C164 1.478 1_545 S
C165 C166 1.397 . S
C166 C165 1.397 . S
C166 C167 1.438 . S
C166 C171 1.429 . S
C167 C150 1.394 . S
C167 C166 1.438 . S
C167 C168 1.428 1_455 S
C168 H160 0.949 . S
C168 C167 1.428 1_655 S
C168 C169 1.345 . S
C169 H161 0.950 . S
C169 C168 1.345 . S
C169 C170 1.424 1_655 S
C170 H162 0.951 . S
C170 C169 1.424 1_455 S
C170 C171 1.347 . S
C171 H163 0.951 . S
C171 C166 1.429 . S
C171 C170 1.347 . S
H172 C173 0.951 . S
C173 H172 0.951 . S
C173 C179 1.265 . S
H174 C179 0.950 . S
H175 C183 0.949 . S
H176 C184 0.950 . S
H177 C185 0.951 . S
H178 C186 0.951 . S
C179 C173 1.265 . S
C179 H174 0.950 . S
C179 C180 1.478 . S
C180 C179 1.478 . S
C180 C181 1.397 . S
C180 C197 1.394 . S
C181 C180 1.397 . S
C181 C182 1.438 . S
C181 C186 1.429 . S
C182 C181 1.438 . S
C182 C183 1.428 1_655 S
C182 C195 1.394 . S
C183 H175 0.949 . S
C183 C182 1.428 1_455 S
C183 C184 1.345 . S
C184 H176 0.950 . S
C184 C183 1.345 . S
C184 C185 1.424 . S
C185 H177 0.951 . S
C185 C184 1.424 . S
C185 C186 1.347 1_455 S
C186 H178 0.951 . S
C186 C181 1.429 . S
C186 C185 1.347 1_655 S
H187 C188 0.951 . S
C188 H187 0.951 . S
C188 C194 1.265 1_455 S
H189 C194 0.950 . S
H190 C198 0.949 . S
H191 C199 0.950 . S
H192 C200 0.951 . S
H193 C201 0.951 . S
C194 C188 1.265 1_655 S
C194 H189 0.950 . S
C194 C195 1.478 . S
C195 C182 1.394 . S
C195 C194 1.478 . S
C195 C196 1.397 . S
C196 C195 1.397 . S
C196 C197 1.438 . S
C196 C201 1.429 . S
C197 C180 1.394 . S
C197 C196 1.438 . S
C197 C198 1.428 . S
C198 H190 0.949 . S
C198 C197 1.428 . S
C198 C199 1.345 . S
C199 H191 0.950 . S
C199 C198 1.345 . S
C199 C200 1.424 . S
C200 H192 0.951 . S
C200 C199 1.424 . S
C200 C201 1.347 . S
C201 H193 0.951 . S
C201 C196 1.429 . S
C201 C200 1.347 . S
H202 C203 0.947 1_565 S
C203 H202 0.947 1_545 S
C203 C209 1.265 . S
H204 C209 0.950 . S
H205 C213 0.949 . S
H206 C214 0.950 . S
H207 C215 0.951 . S
H208 C216 0.951 . S
C209 C203 1.265 . S
C209 H204 0.950 . S
C209 C210 1.478 . S
C210 C209 1.478 . S
C210 C211 1.397 . S
C210 C227 1.394 1_545 S
C211 C210 1.397 . S
C211 C212 1.438 1_545 S
C211 C216 1.429 . S
C212 C211 1.438 1_565 S
C212 C213 1.428 . S
C212 C225 1.394 . S
C213 H205 0.949 . S
C213 C212 1.428 . S
C213 C214 1.345 1_565 S
C214 H206 0.950 . S
C214 C213 1.345 1_545 S
C214 C215 1.424 . S
C215 H207 0.951 . S
C215 C214 1.424 . S
C215 C216 1.347 . S
C216 H208 0.951 . S
C216 C211 1.429 . S
C216 C215 1.347 . S
H217 C218 0.951 . S
C218 H217 0.951 . S
C218 C224 1.265 . S
H219 C224 0.950 . S
H220 C228 0.949 1_545 S
H221 C229 0.950 . S
H222 C230 0.951 . S
H223 C231 0.951 . S
C224 C218 1.265 . S
C224 H219 0.950 . S
C224 C225 1.478 . S
C225 C212 1.394 . S
C225 C224 1.478 . S
C225 C226 1.397 . S
C226 C225 1.397 . S
C226 C227 1.438 . S
C226 C231 1.429 . S
C227 C210 1.394 1_565 S
C227 C226 1.438 . S
C227 C228 1.428 . S
C228 H220 0.949 1_565 S
C228 C227 1.428 . S
C228 C229 1.345 . S
C229 H221 0.950 . S
C229 C228 1.345 . S
C229 C230 1.424 . S
C230 H222 0.951 . S
C230 C229 1.424 . S
C230 C231 1.347 . S
C231 H223 0.951 . S
C231 C226 1.429 . S
C231 C230 1.347 . S
H232 C233 0.951 . S
C233 H232 0.951 . S
C233 C239 1.265 . S
H234 C239 0.950 . S
H235 C243 0.949 . S
H236 C244 0.950 . S
H237 C245 0.951 . S
H238 C246 0.951 . S
C239 C233 1.265 . S
C239 H234 0.950 . S
C239 C240 1.478 . S
C240 C239 1.478 . S
C240 C241 1.397 . S
C240 C257 1.394 . S
C241 C240 1.397 . S
C241 C242 1.438 . S
C241 C246 1.429 . S
C242 C241 1.438 . S
C242 C243 1.428 . S
C242 C255 1.394 . S
C243 H235 0.949 . S
C243 C242 1.428 . S
C243 C244 1.345 . S
C244 H236 0.950 . S
C244 C243 1.345 . S
C244 C245 1.424 . S
C245 H237 0.951 . S
C245 C244 1.424 . S
C245 C246 1.347 . S
C246 H238 0.951 . S
C246 C241 1.429 . S
C246 C245 1.347 . S
H247 C248 0.951 . S
C248 H247 0.951 . S
C248 C254 1.265 . S
H249 C254 0.950 . S
H250 C258 0.949 . S
H251 C259 0.950 . S
H252 C260 0.951 . S
H253 C261 0.951 . S
C254 C248 1.265 . S
C254 H249 0.950 . S
C254 C255 1.478 . S
C255 C242 1.394 . S
C255 C254 1.478 . S
C255 C256 1.397 . S
C256 C255 1.397 . S
C256 C257 1.438 . S
C256 C261 1.429 . S
C257 C240 1.394 . S
C257 C256 1.438 . S
C257 C258 1.428 . S
C258 H250 0.949 . S
C258 C257 1.428 . S
C258 C259 1.345 . S
C259 H251 0.950 . S
C259 C258 1.345 . S
C259 C260 1.424 . S
C260 H252 0.951 . S
C260 C259 1.424 . S
C260 C261 1.347 . S
C261 H253 0.951 . S
C261 C256 1.429 . S
C261 C260 1.347 . S
H262 C263 0.951 . S
C263 H262 0.951 . S
C263 C269 1.265 . S
H264 C269 0.950 . S
H265 C273 0.949 . S
H266 C274 0.950 . S
H267 C275 0.951 . S
H268 C276 0.951 . S
C269 C263 1.265 . S
C269 H264 0.950 . S
C269 C270 1.478 . S
C270 C269 1.478 . S
C270 C271 1.397 1_545 S
C270 C287 1.394 . S
C271 C270 1.397 1_565 S
C271 C272 1.438 . S
C271 C276 1.429 . S
C272 C271 1.438 . S
C272 C273 1.428 . S
C272 C285 1.394 . S
C273 H265 0.949 . S
C273 C272 1.428 . S
C273 C274 1.345 . S
C274 H266 0.950 . S
C274 C273 1.345 . S
C274 C275 1.424 . S
C275 H267 0.951 . S
C275 C274 1.424 . S
C275 C276 1.347 . S
C276 H268 0.951 . S
C276 C271 1.429 . S
C276 C275 1.347 . S
H277 C278 0.951 1_655 S
C278 H277 0.951 1_455 S
C278 C284 1.265 . S
H279 C284 0.950 . S
H280 C288 0.949 . S
H281 C289 0.950 . S
H282 C290 0.951 . S
H283 C291 0.951 . S
C284 C278 1.265 . S
C284 H279 0.950 . S
C284 C285 1.478 1_455 S
C285 C272 1.394 . S
C285 C284 1.478 1_655 S
C285 C286 1.397 1_565 S
C286 C285 1.397 1_545 S
C286 C287 1.438 . S
C286 C291 1.429 1_655 S
C287 C270 1.394 . S
C287 C286 1.438 . S
C287 C288 1.428 . S
C288 H280 0.949 . S
C288 C287 1.428 . S
C288 C289 1.345 . S
C289 H281 0.950 . S
C289 C288 1.345 . S
C289 C290 1.424 1_655 S
C290 H282 0.951 . S
C290 C289 1.424 1_455 S
C290 C291 1.347 . S
C291 H283 0.951 . S
C291 C286 1.429 1_455 S
C291 C290 1.347 . S
H292 C293 0.951 . S
C293 H292 0.951 . S
C293 C299 1.265 . S
H294 C299 0.950 . S
H295 C303 0.949 . S
H296 C304 0.950 . S
H297 C305 0.951 . S
H298 C306 0.951 . S
C299 C293 1.265 . S
C299 H294 0.950 . S
C299 C300 1.478 . S
C300 C299 1.478 . S
C300 C301 1.397 . S
C300 C317 1.394 . S
C301 C300 1.397 . S
C301 C302 1.438 . S
C301 C306 1.429 . S
C302 C301 1.438 . S
C302 C303 1.428 . S
C302 C315 1.394 . S
C303 H295 0.949 . S
C303 C302 1.428 . S
C303 C304 1.345 . S
C304 H296 0.950 . S
C304 C303 1.345 . S
C304 C305 1.424 . S
C305 H297 0.951 . S
C305 C304 1.424 . S
C305 C306 1.347 . S
C306 H298 0.951 . S
C306 C301 1.429 . S
C306 C305 1.347 . S
H307 C308 0.951 . S
C308 H307 0.951 . S
C308 C314 1.265 1_655 S
H309 C314 0.950 . S
H310 C318 0.949 . S
H311 C319 0.950 . S
H312 C320 0.951 . S
H313 C321 0.951 . S
C314 C308 1.265 1_455 S
C314 H309 0.950 . S
C314 C315 1.478 . S
C315 C302 1.394 . S
C315 C314 1.478 . S
C315 C316 1.397 . S
C316 C315 1.397 . S
C316 C317 1.438 . S
C316 C321 1.429 . S
C317 C300 1.394 . S
C317 C316 1.438 . S
C317 C318 1.428 . S
C318 H310 0.949 . S
C318 C317 1.428 . S
C318 C319 1.345 . S
C319 H311 0.950 . S
C319 C318 1.345 . S
C319 C320 1.424 . S
C320 H312 0.951 . S
C320 C319 1.424 . S
C320 C321 1.347 . S
C321 H313 0.951 . S
C321 C316 1.429 . S
C321 C320 1.347 . S
H322 C323 0.951 . S
C323 H322 0.951 . S
C323 C329 1.265 . S
H324 C329 0.950 . S
H325 C333 0.949 . S
H326 C334 0.950 . S
H327 C335 0.951 . S
H328 C336 0.951 . S
C329 C323 1.265 . S
C329 H324 0.950 . S
C329 C330 1.489 . S
C330 C329 1.489 . S
C330 C331 1.360 1_565 S
C330 C347 1.420 . S
C331 C330 1.360 1_545 S
C331 C332 1.438 . S
C331 C336 1.429 . S
C332 C331 1.438 . S
C332 C333 1.428 . S
C332 C345 1.394 . S
C333 H325 0.949 . S
C333 C332 1.428 . S
C333 C334 1.345 . S
C334 H326 0.950 . S
C334 C333 1.345 . S
C334 C335 1.424 . S
C335 H327 0.951 . S
C335 C334 1.424 . S
C335 C336 1.347 . S
C336 H328 0.951 . S
C336 C331 1.429 . S
C336 C335 1.347 . S
H337 C338 0.951 . S
C338 H337 0.951 . S
C338 C344 1.265 . S
H339 C344 0.950 . S
H340 C348 0.949 . S
H341 C349 0.950 . S
H342 C350 0.951 . S
H343 C351 0.951 . S
C344 C338 1.265 . S
C344 H339 0.950 . S
C344 C345 1.478 . S
C345 C332 1.394 . S
C345 C344 1.478 . S
C345 C346 1.397 1_545 S
C346 C345 1.397 1_565 S
C346 C347 1.438 . S
C346 C351 1.429 . S
C347 C330 1.420 . S
C347 C346 1.438 . S
C347 C348 1.428 . S
C348 H340 0.949 . S
C348 C347 1.428 . S
C348 C349 1.345 . S
C349 H341 0.950 . S
C349 C348 1.345 . S
C349 C350 1.424 . S
C350 H342 0.951 . S
C350 C349 1.424 . S
C350 C351 1.347 . S
C351 H343 0.951 . S
C351 C346 1.429 . S
C351 C350 1.347 . S
H352 C353 0.951 . S
C353 H352 0.951 . S
C353 C359 1.265 . S
H354 C359 0.950 . S
H355 C363 0.949 . S
H356 C364 0.950 . S
H357 C365 0.951 . S
H358 C366 0.951 . S
C359 C353 1.265 . S
C359 H354 0.950 . S
C359 C360 1.478 . S
C360 C359 1.478 . S
C360 C361 1.397 . S
C360 C377 1.394 . S
C361 C360 1.397 . S
C361 C362 1.438 1_455 S
C361 C366 1.429 . S
C362 C361 1.438 1_655 S
C362 C363 1.428 . S
C362 C375 1.394 . S
C363 H355 0.949 . S
C363 C362 1.428 . S
C363 C364 1.345 . S
C364 H356 0.950 . S
C364 C363 1.345 . S
C364 C365 1.424 1_655 S
C365 H357 0.951 . S
C365 C364 1.424 1_455 S
C365 C366 1.347 . S
C366 H358 0.951 . S
C366 C361 1.429 . S
C366 C365 1.347 . S
H367 C368 0.951 . S
C368 H367 0.951 . S
C368 C374 1.265 . S
H369 C374 0.950 . S
H370 C378 0.949 . S
H371 C379 0.950 . S
H372 C380 0.951 . S
H373 C381 0.951 . S
C374 C368 1.265 . S
C374 H369 0.950 . S
C374 C375 1.478 . S
C375 C362 1.394 . S
C375 C374 1.478 . S
C375 C376 1.397 . S
C376 C375 1.397 . S
C376 C377 1.438 1_655 S
C376 C381 1.429 . S
C377 C360 1.394 . S
C377 C376 1.438 1_455 S
C377 C378 1.428 . S
C378 H370 0.949 . S
C378 C377 1.428 . S
C378 C379 1.345 . S
C379 H371 0.950 . S
C379 C378 1.345 . S
C379 C380 1.424 1_455 S
C380 H372 0.951 . S
C380 C379 1.424 1_655 S
C380 C381 1.347 . S
C381 H373 0.951 . S
C381 C376 1.429 . S
C381 C380 1.347 . S
H382 C383 0.951 . S
C383 H382 0.951 . S
C383 C389 1.265 . S
H384 C389 0.950 . S
H385 C393 0.949 . S
H386 C394 0.950 . S
H387 C395 0.951 . S
H388 C396 0.951 . S
C389 C383 1.265 . S
C389 H384 0.950 . S
C389 C390 1.478 . S
C390 C389 1.478 . S
C390 C391 1.397 . S
C390 C407 1.394 1_565 S
C391 C390 1.397 . S
C391 C392 1.438 . S
C391 C396 1.429 . S
C392 C391 1.438 . S
C392 C393 1.428 . S
C392 C405 1.394 1_565 S
C393 H385 0.949 . S
C393 C392 1.428 . S
C393 C394 1.345 . S
C394 H386 0.950 . S
C394 C393 1.345 . S
C394 C395 1.424 . S
C395 H387 0.951 . S
C395 C394 1.424 . S
C395 C396 1.347 . S
C396 H388 0.951 . S
C396 C391 1.429 . S
C396 C395 1.347 . S
H397 C398 0.951 . S
C398 H397 0.951 . S
C398 C404 1.265 . S
H399 C404 0.950 . S
H400 C408 0.949 . S
H401 C409 0.950 . S
H402 C410 0.951 . S
H403 C411 0.951 . S
C404 C398 1.265 . S
C404 H399 0.950 . S
C404 C405 1.478 . S
C405 C392 1.394 1_545 S
C405 C404 1.478 . S
C405 C406 1.397 . S
C406 C405 1.397 . S
C406 C407 1.438 . S
C406 C411 1.429 . S
C407 C390 1.394 1_545 S
C407 C406 1.438 . S
C407 C408 1.428 . S
C408 H400 0.949 . S
C408 C407 1.428 . S
C408 C409 1.345 . S
C409 H401 0.950 . S
C409 C408 1.345 . S
C409 C410 1.424 . S
C410 H402 0.951 . S
C410 C409 1.424 . S
C410 C411 1.347 . S
C411 H403 0.951 . S
C411 C406 1.429 . S
C411 C410 1.347 . S
H412 C413 0.951 . S
C413 H412 0.951 . S
C413 C419 1.265 . S
H414 C419 0.950 . S
H415 C423 0.949 . S
H416 C424 0.950 . S
H417 C425 0.951 . S
H418 C426 0.951 1_554 S
C419 C413 1.265 . S
C419 H414 0.950 . S
C419 C420 1.478 . S
C420 C419 1.478 . S
C420 C421 1.397 1_554 S
C420 C437 1.394 . S
C421 C420 1.397 1_556 S
C421 C422 1.438 . S
C421 C426 1.429 . S
C422 C421 1.438 . S
C422 C423 1.428 . S
C422 C435 1.394 . S
C423 H415 0.949 . S
C423 C422 1.428 . S
C423 C424 1.345 . S
C424 H416 0.950 . S
C424 C423 1.345 . S
C424 C425 1.424 . S
C425 H417 0.951 . S
C425 C424 1.424 . S
C425 C426 1.347 . S
C426 H418 0.951 1_556 S
C426 C421 1.429 . S
C426 C425 1.347 . S
H427 C428 0.951 . S
C428 H427 0.951 . S
C428 C434 1.265 . S
H429 C434 0.950 . S
H430 C438 0.949 . S
H431 C439 0.950 . S
H432 C440 0.951 . S
H433 C441 0.951 1_556 S
C434 C428 1.265 . S
C434 H429 0.950 . S
C434 C435 1.478 . S
C435 C422 1.394 . S
C435 C434 1.478 . S
C435 C436 1.397 1_556 S
C436 C435 1.397 1_554 S
C436 C437 1.438 . S
C436 C441 1.429 . S
C437 C420 1.394 . S
C437 C436 1.438 . S
C437 C438 1.428 . S
C438 H430 0.949 . S
C438 C437 1.428 . S
C438 C439 1.345 . S
C439 H431 0.950 . S
C439 C438 1.345 . S
C439 C440 1.424 . S
C440 H432 0.951 . S
C440 C439 1.424 . S
C440 C441 1.347 . S
C441 H433 0.951 1_554 S
C441 C436 1.429 . S
C441 C440 1.347 . S
H442 C443 0.951 . S
C443 H442 0.951 . S
C443 C449 1.265 . S
H444 C449 0.950 . S
H445 C453 0.949 . S
H446 C454 0.950 . S
H447 C455 0.951 . S
H448 C456 0.951 1_455 S
C449 C443 1.265 . S
C449 H444 0.950 . S
C449 C450 1.478 . S
C450 C449 1.478 . S
C450 C451 1.397 1_455 S
C450 C467 1.394 1_565 S
C451 C450 1.397 1_655 S
C451 C452 1.438 1_556 S
C451 C456 1.429 . S
C452 C451 1.438 1_554 S
C452 C453 1.428 . S
C452 C465 1.394 1_565 S
C453 H445 0.949 . S
C453 C452 1.428 . S
C453 C454 1.345 . S
C454 H446 0.950 . S
C454 C453 1.345 . S
C454 C455 1.424 . S
C455 H447 0.951 . S
C455 C454 1.424 . S
C455 C456 1.347 1_554 S
C456 H448 0.951 1_655 S
C456 C451 1.429 . S
C456 C455 1.347 1_556 S
H457 C458 0.951 . S
C458 H457 0.951 . S
C458 C464 1.265 . S
H459 C464 0.950 . S
H460 C468 0.949 . S
H461 C469 0.950 . S
H462 C470 0.951 . S
H463 C471 0.951 1_655 S
C464 C458 1.265 . S
C464 H459 0.950 . S
C464 C465 1.478 . S
C465 C452 1.394 1_545 S
C465 C464 1.478 . S
C465 C466 1.397 1_655 S
C466 C465 1.397 1_455 S
C466 C467 1.438 1_554 S
C466 C471 1.429 . S
C467 C450 1.394 1_545 S
C467 C466 1.438 1_556 S
C467 C468 1.428 . S
C468 H460 0.949 . S
C468 C467 1.428 . S
C468 C469 1.345 . S
C469 H461 0.950 . S
C469 C468 1.345 . S
C469 C470 1.424 . S
C470 H462 0.951 . S
C470 C469 1.424 . S
C470 C471 1.347 1_556 S
C471 H463 0.951 1_455 S
C471 C466 1.429 . S
C471 C470 1.347 1_554 S
H472 C473 0.951 . S
C473 H472 0.951 . S
C473 C479 1.265 . S
H474 C479 0.950 . S
H475 C483 0.949 . S
H476 C484 0.950 . S
H477 C485 0.951 . S
H478 C486 0.951 . S
C479 C473 1.265 . S
C479 H474 0.950 . S
C479 C480 1.478 . S
C480 C479 1.478 . S
C480 C481 1.397 . S
C480 C497 1.394 . S
C481 C480 1.397 . S
C481 C482 1.438 . S
C481 C486 1.429 . S
C482 C481 1.438 . S
C482 C483 1.428 . S
C482 C495 1.394 . S
C483 H475 0.949 . S
C483 C482 1.428 . S
C483 C484 1.345 . S
C484 H476 0.950 . S
C484 C483 1.345 . S
C484 C485 1.424 . S
C485 H477 0.951 . S
C485 C484 1.424 . S
C485 C486 1.347 . S
C486 H478 0.951 . S
C486 C481 1.429 . S
C486 C485 1.347 . S
H487 C488 0.951 . S
C488 H487 0.951 . S
C488 C494 1.265 . S
H489 C494 0.950 . S
H490 C498 0.949 . S
H491 C499 0.950 . S
H492 C500 0.951 . S
H493 C501 0.951 . S
C494 C488 1.265 . S
C494 H489 0.950 . S
C494 C495 1.478 . S
C495 C482 1.394 . S
C495 C494 1.478 . S
C495 C496 1.397 . S
C496 C495 1.397 . S
C496 C497 1.438 . S
C496 C501 1.429 . S
C497 C480 1.394 . S
C497 C496 1.438 . S
C497 C498 1.428 . S
C498 H490 0.949 . S
C498 C497 1.428 . S
C498 C499 1.345 . S
C499 H491 0.950 . S
C499 C498 1.345 . S
C499 C500 1.424 . S
C500 H492 0.951 . S
C500 C499 1.424 . S
C500 C501 1.347 . S
C501 H493 0.951 . S
C501 C496 1.429 . S
C501 C500 1.347 . S
H502 C503 0.951 . S
C503 H502 0.951 . S
C503 C509 1.265 . S
H504 C509 0.950 . S
H505 C513 0.949 . S
H506 C514 0.950 . S
H507 C515 0.951 . S
H508 C516 0.951 . S
C509 C503 1.265 . S
C509 H504 0.950 . S
C509 C510 1.478 . S
C510 C509 1.478 . S
C510 C511 1.397 . S
C510 C527 1.394 . S
C511 C510 1.397 . S
C511 C512 1.438 . S
C511 C516 1.429 . S
C512 C511 1.438 . S
C512 C513 1.428 . S
C512 C525 1.394 . S
C513 H505 0.949 . S
C513 C512 1.428 . S
C513 C514 1.345 . S
C514 H506 0.950 . S
C514 C513 1.345 . S
C514 C515 1.424 . S
C515 H507 0.951 . S
C515 C514 1.424 . S
C515 C516 1.347 . S
C516 H508 0.951 . S
C516 C511 1.429 . S
C516 C515 1.347 . S
H517 C518 0.951 . S
C518 H517 0.951 . S
C518 C524 1.265 . S
H519 C524 0.950 . S
H520 C528 0.949 . S
H521 C529 0.950 . S
H522 C530 0.951 . S
H523 C531 0.951 . S
C524 C518 1.265 . S
C524 H519 0.950 . S
C524 C525 1.478 . S
C525 C512 1.394 . S
C525 C524 1.478 . S
C525 C526 1.397 . S
C526 C525 1.397 . S
C526 C527 1.438 . S
C526 C531 1.429 . S
C527 C510 1.394 . S
C527 C526 1.438 . S
C527 C528 1.428 . S
C528 H520 0.949 . S
C528 C527 1.428 . S
C528 C529 1.345 . S
C529 H521 0.950 . S
C529 C528 1.345 . S
C529 C530 1.424 . S
C530 H522 0.951 . S
C530 C529 1.424 . S
C530 C531 1.347 . S
C531 H523 0.951 . S
C531 C526 1.429 . S
C531 C530 1.347 . S
H532 C533 0.951 . S
C533 H532 0.951 . S
C533 C539 1.265 . S
H534 C539 0.950 . S
H535 C543 0.949 . S
H536 C544 0.950 . S
H537 C545 0.951 . S
H538 C546 0.951 . S
C539 C533 1.265 . S
C539 H534 0.950 . S
C539 C540 1.478 . S
C540 C539 1.478 . S
C540 C541 1.397 . S
C540 C557 1.394 . S
C541 C540 1.397 . S
C541 C542 1.438 . S
C541 C546 1.429 . S
C542 C541 1.438 . S
C542 C543 1.428 . S
C542 C555 1.394 . S
C543 H535 0.949 . S
C543 C542 1.428 . S
C543 C544 1.345 . S
C544 H536 0.950 . S
C544 C543 1.345 . S
C544 C545 1.424 . S
C545 H537 0.951 . S
C545 C544 1.424 . S
C545 C546 1.347 . S
C546 H538 0.951 . S
C546 C541 1.429 . S
C546 C545 1.347 . S
H547 C548 0.951 . S
C548 H547 0.951 . S
C548 C554 1.265 . S
H549 C554 0.950 . S
H550 C558 0.949 . S
H551 C559 0.950 . S
H552 C560 0.951 . S
H553 C561 0.951 . S
C554 C548 1.265 . S
C554 H549 0.950 . S
C554 C555 1.478 . S
C555 C542 1.394 . S
C555 C554 1.478 . S
C555 C556 1.397 . S
C556 C555 1.397 . S
C556 C557 1.438 . S
C556 C561 1.429 . S
C557 C540 1.394 . S
C557 C556 1.438 . S
C557 C558 1.428 . S
C558 H550 0.949 . S
C558 C557 1.428 . S
C558 C559 1.345 . S
C559 H551 0.950 . S
C559 C558 1.345 . S
C559 C560 1.424 . S
C560 H552 0.951 . S
C560 C559 1.424 . S
C560 C561 1.347 . S
C561 H553 0.951 . S
C561 C556 1.429 . S
C561 C560 1.347 . S
H562 C563 0.951 . S
C563 H562 0.951 . S
C563 C569 1.265 . S
H564 C569 0.950 . S
H565 C573 0.949 . S
H566 C574 0.950 . S
H567 C575 0.951 . S
H568 C576 0.951 . S
C569 C563 1.265 . S
C569 H564 0.950 . S
C569 C570 1.478 . S
C570 C569 1.478 . S
C570 C571 1.397 . S
C570 C587 1.394 . S
C571 C570 1.397 . S
C571 C572 1.438 . S
C571 C576 1.429 . S
C572 C571 1.438 . S
C572 C573 1.428 . S
C572 C585 1.394 . S
C573 H565 0.949 . S
C573 C572 1.428 . S
C573 C574 1.345 . S
C574 H566 0.950 . S
C574 C573 1.345 . S
C574 C575 1.424 . S
C575 H567 0.951 . S
C575 C574 1.424 . S
C575 C576 1.347 . S
C576 H568 0.951 . S
C576 C571 1.429 . S
C576 C575 1.347 . S
H577 C578 0.951 . S
C578 H577 0.951 . S
C578 C584 1.265 . S
H579 C584 0.950 . S
H580 C588 0.949 . S
H581 C589 0.950 . S
H582 C590 0.951 . S
H583 C591 0.951 . S
C584 C578 1.265 . S
C584 H579 0.950 . S
C584 C585 1.478 . S
C585 C572 1.394 . S
C585 C584 1.478 . S
C585 C586 1.397 . S
C586 C585 1.397 . S
C586 C587 1.438 . S
C586 C591 1.429 . S
C587 C570 1.394 . S
C587 C586 1.438 . S
C587 C588 1.428 . S
C588 H580 0.949 . S
C588 C587 1.428 . S
C588 C589 1.345 . S
C589 H581 0.950 . S
C589 C588 1.345 . S
C589 C590 1.424 . S
C590 H582 0.951 . S
C590 C589 1.424 . S
C590 C591 1.347 . S
C591 H583 0.951 . S
C591 C586 1.429 . S
C591 C590 1.347 . S
C113 C13 1.071 . S
C128 C36 1.087 . S
C143 C50 1.197 . S
C158 C27 1.202 . S
C173 C41 1.061 . S
C188 C8 1.094 . S
C203 C55 1.061 . S
C218 C22 1.094 . S
C233 C92 1.208 . S
C248 C69 1.190 . S
C263 C83 1.141 . S
C278 C106 1.177 . S
C293 C97 1.066 . S
C308 C64 1.086 . S
C323 C111 1.177 . S
C338 C78 1.202 . S
C353 C7 1.484 . S
C368 C63 1.484 . S
C383 C21 1.488 . S
C398 C77 1.488 . S
C413 C35 1.485 . S
C428 C91 1.485 . S
C443 C105 1.510 . S
C458 C49 1.510 . S
C473 C11 1.491 . S
C488 C25 1.490 . S
C503 C53 1.509 . S
C518 C39 1.514 . S
C533 C81 1.510 . S
C548 C67 1.513 . S
C563 C95 1.512 . S
C578 C109 1.512 . S
