# Generated by pormake.
# Topology sod, (4)-cn, num edge types: 1
# Building blocks:
#     Node 0, Type 0, BuildingBlock: GALJAG_clean_sbu_0, # of connection points: 4
#     Node 1, Type 0, BuildingBlock: GALJAG_clean_sbu_0, # of connection points: 4
#     Node 2, Type 0, BuildingBlock: GALJAG_clean_sbu_0, # of connection points: 4
#     Node 3, Type 0, BuildingBlock: GALJAG_clean_sbu_0, # of connection points: 4
#     Node 4, Type 0, BuildingBlock: GALJAG_clean_sbu_0, # of connection points: 4
#     Node 5, Type 0, BuildingBlock: GALJAG_clean_sbu_0, # of connection points: 4
#     Node 6, Type 0, BuildingBlock: GALJAG_clean_sbu_0, # of connection points: 4
#     Node 7, Type 0, BuildingBlock: GALJAG_clean_sbu_0, # of connection points: 4
#     Node 8, Type 0, BuildingBlock: GALJAG_clean_sbu_0, # of connection points: 4
#     Node 9, Type 0, BuildingBlock: GALJAG_clean_sbu_0, # of connection points: 4
#     Node 10, Type 0, BuildingBlock: GALJAG_clean_sbu_0, # of connection points: 4
#     Node 11, Type 0, BuildingBlock: GALJAG_clean_sbu_0, # of connection points: 4
#     Edge 12, Type (0, 0), BuildingBlock: OJICUG_clean_linker_0, # of connection points: 2
#     Edge 13, Type (0, 0), BuildingBlock: OJICUG_clean_linker_0, # of connection points: 2
#     Edge 14, Type (0, 0), BuildingBlock: OJICUG_clean_linker_0, # of connection points: 2
#     Edge 15, Type (0, 0), BuildingBlock: OJICUG_clean_linker_0, # of connection points: 2
#     Edge 16, Type (0, 0), BuildingBlock: OJICUG_clean_linker_0, # of connection points: 2
#     Edge 17, Type (0, 0), BuildingBlock: OJICUG_clean_linker_0, # of connection points: 2
#     Edge 18, Type (0, 0), BuildingBlock: OJICUG_clean_linker_0, # of connection points: 2
#     Edge 19, Type (0, 0), BuildingBlock: OJICUG_clean_linker_0, # of connection points: 2
#     Edge 20, Type (0, 0), BuildingBlock: OJICUG_clean_linker_0, # of connection points: 2
#     Edge 21, Type (0, 0), BuildingBlock: OJICUG_clean_linker_0, # of connection points: 2
#     Edge 22, Type (0, 0), BuildingBlock: OJICUG_clean_linker_0, # of connection points: 2
#     Edge 23, Type (0, 0), BuildingBlock: OJICUG_clean_linker_0, # of connection points: 2
#     Edge 24, Type (0, 0), BuildingBlock: OJICUG_clean_linker_0, # of connection points: 2
#     Edge 25, Type (0, 0), BuildingBlock: OJICUG_clean_linker_0, # of connection points: 2
#     Edge 26, Type (0, 0), BuildingBlock: OJICUG_clean_linker_0, # of connection points: 2
#     Edge 27, Type (0, 0), BuildingBlock: OJICUG_clean_linker_0, # of connection points: 2
#     Edge 28, Type (0, 0), BuildingBlock: OJICUG_clean_linker_0, # of connection points: 2
#     Edge 29, Type (0, 0), BuildingBlock: OJICUG_clean_linker_0, # of connection points: 2
#     Edge 30, Type (0, 0), BuildingBlock: OJICUG_clean_linker_0, # of connection points: 2
#     Edge 31, Type (0, 0), BuildingBlock: OJICUG_clean_linker_0, # of connection points: 2
#     Edge 32, Type (0, 0), BuildingBlock: OJICUG_clean_linker_0, # of connection points: 2
#     Edge 33, Type (0, 0), BuildingBlock: OJICUG_clean_linker_0, # of connection points: 2
#     Edge 34, Type (0, 0), BuildingBlock: OJICUG_clean_linker_0, # of connection points: 2
#     Edge 35, Type (0, 0), BuildingBlock: OJICUG_clean_linker_0, # of connection points: 2
# Relax obj value: 0.078
# Max RMSD: 0.153
# Mean RMSD: 0.153
data_MOF--net-sod--node1-GALJAG_clean_sbu_0--edge1-OJICUG_clean_linker_0
_symmetry_space_group_name_H-M    P1
_symmetry_Int_Tables_number       1
_symmetry_cell_setting            triclinic
loop_
_symmetry_equiv_pos_as_xyz
'x, y, z'
_cell_length_a     31.614484
_cell_length_b     31.54791
_cell_length_c     31.574005
_cell_angle_alpha  89.991458
_cell_angle_beta   90.017849
_cell_angle_gamma 90.006706
loop_
_atom_site_label
_atom_site_type_symbol
_atom_site_fract_x
_atom_site_fract_y
_atom_site_fract_z
_atom_type_partial_charge
In0 In 0.00158 0.25018 0.49913 0.0
O1 O 0.95425 0.20736 0.533 0.0
O2 O 0.95199 0.20949 0.46583 0.0
C3 C 0.00157 0.30652 0.56357 0.0
C4 C 0.06579 0.19365 0.49879 0.0
C5 C 0.00138 0.30635 0.43453 0.0
O6 O 0.96807 0.29093 0.54849 0.0
O7 O 0.03514 0.29344 0.54639 0.0
O8 O 0.03501 0.29144 0.45003 0.0
O9 O 0.96788 0.29269 0.45136 0.0
C10 C 0.93692 0.1942 0.49951 0.0
O11 O 0.04872 0.20711 0.46528 0.0
O12 O 0.05077 0.20898 0.53246 0.0
In13 In 0.75002 0.00177 0.49976 0.0
O14 O 0.70731 0.96801 0.54726 0.0
O15 O 0.70889 0.03527 0.54887 0.0
C16 C 0.80594 0.93703 0.49943 0.0
C17 C 0.69392 0.00177 0.43519 0.0
C18 C 0.80647 0.06608 0.49988 0.0
O19 O 0.79089 0.95232 0.53312 0.0
O20 O 0.79253 0.95417 0.46592 0.0
O21 O 0.7909 0.05112 0.46628 0.0
O22 O 0.79325 0.04892 0.53344 0.0
C23 C 0.69377 0.00159 0.56417 0.0
O24 O 0.70689 0.03541 0.45246 0.0
O25 O 0.7095 0.96819 0.45024 0.0
In26 In -0.00142 0.75039 0.49851 0.0
O27 O 0.03168 0.71012 0.54855 0.0
O28 O 0.96469 0.70681 0.54523 0.0
C29 C 0.06327 0.80634 0.49838 0.0
C30 C -0.0007 0.69406 0.43406 0.0
C31 C 0.93434 0.80689 0.49874 0.0
O32 O 0.04663 0.79268 0.53201 0.0
O33 O 0.04749 0.79158 0.46478 0.0
O34 O 0.95098 0.79331 0.46508 0.0
O35 O 0.94981 0.79169 0.53228 0.0
C36 C 0.9981 0.69416 0.56305 0.0
O37 O 0.96558 0.70939 0.44891 0.0
O38 O 0.03265 0.70741 0.45145 0.0
In39 In 0.25015 -0.0012 0.49829 0.0
O40 O 0.2087 0.94997 0.46466 0.0
O41 O 0.20756 0.95103 0.53187 0.0
C42 C 0.30644 0.99836 0.43392 0.0
C43 C 0.19418 0.0635 0.49835 0.0
C44 C 0.30621 -0.00044 0.56288 0.0
O45 O 0.29365 0.96486 0.45157 0.0
O46 O 0.29055 0.03201 0.44846 0.0
O47 O 0.2929 0.03298 0.54546 0.0
O48 O 0.29098 0.96575 0.54796 0.0
C49 C 0.19375 0.93443 0.49827 0.0
O50 O 0.20924 0.04797 0.53194 0.0
O51 O 0.20759 0.04662 0.46473 0.0
In52 In 0.50073 -0.00022 0.24921 0.0
O53 O 0.55087 0.96691 0.28959 0.0
O54 O 0.54708 0.03402 0.29284 0.0
C55 C 0.50119 0.9353 0.19289 0.0
C56 C 0.43618 -0.00107 0.30526 0.0
C57 C 0.50019 0.06446 0.19312 0.0
O58 O 0.53459 0.95318 0.2055 0.0
O59 O 0.46762 0.94968 0.20897 0.0
O60 O 0.46681 0.0467 0.2059 0.0
O61 O 0.53383 0.04984 0.20888 0.0
C62 C 0.56506 0.00069 0.30556 0.0
O63 O 0.45034 0.03266 0.28917 0.0
O64 O 0.45435 0.96558 0.29283 0.0
In65 In 0.00076 0.50001 0.24864 0.0
O66 O 0.9511 0.4667 0.20804 0.0
O67 O 0.9537 0.53391 0.20553 0.0
C68 C 0.00095 0.43545 0.30488 0.0
C69 C 0.06509 0.49975 0.19231 0.0
C70 C 0.00046 0.56456 0.30485 0.0
O71 O 0.96735 0.45219 0.29132 0.0
O72 O 0.03447 0.451 0.2898 0.0
O73 O 0.0341 0.54765 0.29162 0.0
O74 O 0.96699 0.54918 0.28947 0.0
C75 C 0.93624 0.5004 0.19252 0.0
O76 O 0.05034 0.53339 0.20802 0.0
O77 O 0.04767 0.46621 0.20529 0.0
In78 In 0.49942 0.00115 0.74885 0.0
O79 O 0.54867 0.03488 0.70807 0.0
O80 O 0.54698 0.96764 0.70605 0.0
C81 C 0.49998 0.06561 0.80517 0.0
C82 C 0.43505 0.00082 0.69253 0.0
C83 C 0.49899 0.93655 0.80502 0.0
O84 O 0.53335 0.04781 0.79242 0.0
O85 O 0.46636 0.05118 0.78922 0.0
O86 O 0.4656 0.95456 0.7926 0.0
O87 O 0.53255 0.95087 0.78886 0.0
C88 C 0.56399 0.00128 0.69281 0.0
O89 O 0.45016 0.96731 0.70819 0.0
O90 O 0.45213 0.03452 0.70555 0.0
In91 In -0.00055 0.50057 0.74898 0.0
O92 O 0.04914 0.46721 0.78949 0.0
O93 O 0.04656 0.53441 0.79209 0.0
C94 C 0.00041 0.436 0.69279 0.0
C95 C 0.93507 0.50025 0.80525 0.0
C96 C -0.00143 0.56506 0.69268 0.0
O97 O 0.03367 0.45399 0.70558 0.0
O98 O 0.96669 0.45031 0.70861 0.0
O99 O 0.03223 0.55095 0.70883 0.0
O100 O 0.9653 0.5469 0.70519 0.0
C101 C 0.06402 0.50088 0.80505 0.0
O102 O 0.94989 0.53392 0.78964 0.0
O103 O 0.95246 0.46673 0.79221 0.0
In104 In 0.25004 0.50043 0.99822 0.0
O105 O 0.20683 0.46651 0.04516 0.0
O106 O 0.20961 0.53369 0.04804 0.0
C107 C 0.30623 0.43591 0.99817 0.0
C108 C 0.19379 0.50081 0.93377 0.0
C109 C 0.3062 0.56499 0.99847 0.0
O110 O 0.29048 0.45076 0.03173 0.0
O111 O 0.29335 0.45333 0.9646 0.0
O112 O 0.29072 0.55002 0.96483 0.0
O113 O 0.29307 0.54768 0.03199 0.0
C114 C 0.19395 0.49999 0.06275 0.0
O115 O 0.20671 0.53431 0.95132 0.0
O116 O 0.20954 0.46714 0.94844 0.0
In117 In 0.50011 0.25057 -0.00033 0.0
O118 O 0.53341 0.21015 0.04953 0.0
O119 O 0.4664 0.20701 0.04652 0.0
C120 C 0.56457 0.30681 0.00017 0.0
C121 C 0.50034 0.19443 0.93506 0.0
C122 C 0.43566 0.3068 -0.00103 0.0
O123 O 0.54653 0.29442 0.03358 0.0
O124 O 0.55035 0.29058 0.96656 0.0
O125 O 0.45353 0.29407 0.96561 0.0
O126 O 0.45006 0.29091 0.03268 0.0
C127 C 0.49986 0.19424 0.06415 0.0
O128 O 0.46679 0.21031 0.94971 0.0
O129 O 0.5338 0.20711 0.95276 0.0
In130 In 0.75017 0.5005 -0.00061 0.0
O131 O 0.71004 0.45026 0.96637 0.0
O132 O 0.70652 0.45399 0.03342 0.0
C133 C 0.80617 0.50023 0.93477 0.0
C134 C 0.69403 0.56506 -0.00126 0.0
C135 C 0.80648 0.50068 0.06379 0.0
O136 O 0.79326 0.4667 0.95226 0.0
O137 O 0.79058 0.53389 0.94961 0.0
O138 O 0.79353 0.53424 0.04636 0.0
O139 O 0.79073 0.46706 0.04902 0.0
C140 C 0.69397 0.43599 4e-05 0.0
O141 O 0.70995 0.55066 0.03243 0.0
O142 O 0.70671 0.54717 0.96535 0.0
In143 In 0.50011 0.75037 0.99839 0.0
O144 O 0.4531 0.70704 0.03208 0.0
O145 O 0.45043 0.70986 0.96495 0.0
C146 C 0.50084 0.80645 0.06305 0.0
C147 C 0.56461 0.69418 0.99822 0.0
C148 C 0.49936 0.8068 0.93401 0.0
O149 O 0.46721 0.79026 0.04888 0.0
O150 O 0.53414 0.7941 0.04484 0.0
O151 O 0.53298 0.7905 0.94806 0.0
O152 O 0.46607 0.79436 0.95218 0.0
C153 C 0.43562 0.69414 0.99856 0.0
O154 O 0.54695 0.70685 0.96471 0.0
O155 O 0.54998 0.7101 0.0318 0.0
C156 C 0.96291 0.35454 0.38478 0.0
C157 C 0.00126 0.33816 0.40019 0.0
H158 H 0.93276 0.39812 0.34244 0.0
C159 C 0.03949 0.35317 0.38319 0.0
H160 H 0.93294 0.34355 0.39727 0.0
C161 C 0.03939 0.38441 0.35179 0.0
C162 C 0.00105 0.40123 0.33682 0.0
H163 H 0.06955 0.3411 0.39443 0.0
H164 H 0.06936 0.3957 0.33958 0.0
C165 C 0.96281 0.38578 0.35339 0.0
C166 C 0.64853 0.96323 0.38296 0.0
C167 C 0.66215 0.00163 0.40088 0.0
H168 H 0.60718 0.93283 0.33863 0.0
C169 C 0.64443 0.03981 0.3864 0.0
H170 H 0.66165 0.9333 0.39347 0.0
C171 C 0.61323 0.03954 0.35502 0.0
C172 C 0.59919 0.00109 0.33752 0.0
H173 H 0.65433 0.06991 0.39962 0.0
H174 H 0.59983 0.06944 0.34479 0.0
C175 C 0.61735 0.96296 0.35157 0.0
C176 C 0.96183 0.6161 0.35099 0.0
C177 C 0.00023 0.59885 0.33671 0.0
H178 H 0.93145 0.65988 0.39295 0.0
C179 C 0.03836 0.61396 0.35387 0.0
H180 H 0.93194 0.6051 0.33831 0.0
C181 C 0.03808 0.6453 0.38514 0.0
C182 C -0.00034 0.66213 0.39985 0.0
H183 H 0.06845 0.60126 0.34346 0.0
H184 H 0.06795 0.65602 0.3981 0.0
C185 C 0.96155 0.64746 0.38226 0.0
C186 C 0.3565 0.9601 0.3859 0.0
C187 C 0.33841 0.99832 0.39982 0.0
H188 H 0.40162 0.93034 0.34499 0.0
C189 C 0.35191 0.03662 0.38158 0.0
H190 H 0.34671 0.93009 0.39939 0.0
C191 C 0.38332 0.03676 0.35044 0.0
C192 C 0.40184 0.99861 0.33697 0.0
H193 H 0.33851 0.06657 0.39164 0.0
H194 H 0.39337 0.06681 0.33725 0.0
C195 C 0.38793 0.96025 0.35477 0.0
C196 C 0.03633 0.61785 0.64726 0.0
C197 C 0.99826 0.59926 0.66073 0.0
H198 H 0.06609 0.66255 0.60583 0.0
C199 C 0.96001 0.61294 0.64265 0.0
H200 H 0.0663 0.60798 0.66066 0.0
C201 C 0.95989 0.6442 0.61127 0.0
C202 C 0.99802 0.66234 0.59736 0.0
H203 H 0.93017 0.59919 0.65242 0.0
H204 H 0.92996 0.6538 0.59758 0.0
C205 C 0.03621 0.64909 0.61587 0.0
C206 C 0.38362 0.96209 0.64637 0.0
C207 C 0.40091 0.00057 0.66058 0.0
H208 H 0.33999 0.93161 0.60433 0.0
C209 C 0.386 0.03877 0.64324 0.0
H210 H 0.39447 0.93215 0.65918 0.0
C211 C 0.35482 0.03846 0.61185 0.0
C212 C 0.33796 -5e-05 0.5972 0.0
H213 H 0.39872 0.06892 0.65359 0.0
H214 H 0.34425 0.06838 0.59876 0.0
C215 C 0.35244 0.96178 0.61497 0.0
C216 C 0.03951 0.35621 0.61228 0.0
C217 C 0.00142 0.33844 0.59778 0.0
H218 H 0.06906 0.401 0.65379 0.0
C219 C 0.96308 0.35218 0.61559 0.0
H220 H 0.06955 0.34623 0.59914 0.0
C221 C 0.96279 0.38351 0.64688 0.0
C222 C 0.00084 0.40171 0.66094 0.0
H223 H 0.93322 0.33902 0.60508 0.0
H224 H 0.93272 0.39376 0.65973 0.0
C225 C 0.03923 0.38756 0.64355 0.0
C226 C 0.6136 0.96301 0.64441 0.0
C227 C 0.59834 0.00134 0.66111 0.0
H228 H 0.65586 0.93305 0.6007 0.0
C229 C 0.61553 0.03973 0.64653 0.0
H230 H 0.60097 0.93292 0.65506 0.0
C231 C 0.64696 0.0398 0.6154 0.0
C232 C 0.66179 0.00149 0.59828 0.0
H233 H 0.60441 0.06977 0.65885 0.0
H234 H 0.65932 0.0699 0.60446 0.0
C235 C 0.64503 0.96308 0.61329 0.0
C236 C 0.38717 0.35607 0.96027 0.0
C237 C 0.4014 0.33862 0.99866 0.0
H238 H 0.3458 0.40049 0.93002 0.0
C239 C 0.38326 0.35258 0.03681 0.0
H240 H 0.40055 0.34591 0.93037 0.0
C241 C 0.35193 0.38383 0.03661 0.0
C242 C 0.33812 0.4017 0.99826 0.0
H243 H 0.39357 0.33967 0.06688 0.0
H244 H 0.33883 0.39427 0.06654 0.0
C245 C 0.35583 0.38731 0.96007 0.0
C246 C 0.35533 0.61383 0.03688 0.0
C247 C 0.33808 0.59922 0.99856 0.0
H248 H 0.3997 0.65541 0.06692 0.0
C249 C 0.35233 0.61689 0.96029 0.0
H250 H 0.34495 0.60081 0.06688 0.0
C251 C 0.38367 0.64815 0.96031 0.0
C252 C 0.40135 0.66232 0.9986 0.0
H253 H 0.33959 0.60627 0.93026 0.0
H254 H 0.39434 0.66089 0.9303 0.0
C255 C 0.38667 0.64508 0.0369 0.0
C256 C 0.61734 0.35196 0.96211 0.0
C257 C 0.59883 0.33865 0.00031 0.0
H258 H 0.66206 0.39316 0.9321 0.0
C259 C 0.61266 0.35676 0.03853 0.0
H260 H 0.60734 0.33854 0.93216 0.0
C261 C 0.644 0.38802 0.0385 0.0
C262 C 0.66208 0.40177 0.00024 0.0
H263 H 0.59898 0.34711 0.06846 0.0
H264 H 0.65372 0.40173 0.06841 0.0
C265 C 0.64866 0.38323 0.96208 0.0
C266 C 0.64837 0.61754 0.03664 0.0
C267 C 0.66215 0.59928 0.99848 0.0
H268 H 0.60673 0.66198 0.06646 0.0
C269 C 0.64444 0.61331 0.96015 0.0
H270 H 0.66148 0.60738 0.06668 0.0
C271 C 0.6131 0.64456 0.96002 0.0
C272 C 0.59888 0.66237 0.99823 0.0
H273 H 0.65445 0.59983 0.93023 0.0
H274 H 0.59971 0.65442 0.93001 0.0
C275 C 0.61703 0.64878 0.03651 0.0
C276 C 0.53716 0.85215 0.88119 0.0
C277 C 0.49909 0.83879 0.89985 0.0
H278 H 0.56694 0.89351 0.83645 0.0
C279 C 0.46087 0.85701 0.88629 0.0
H280 H 0.5671 0.83864 0.89098 0.0
C281 C 0.46078 0.88843 0.85506 0.0
C282 C 0.49891 0.90221 0.83683 0.0
H283 H 0.43103 0.84733 0.9001 0.0
H284 H 0.43087 0.90222 0.84554 0.0
C285 C 0.53707 0.88356 0.84998 0.0
C286 C 0.14438 0.53928 0.88524 0.0
C287 C 0.16183 0.50094 0.89964 0.0
H288 H 0.09978 0.56931 0.84393 0.0
C289 C 0.14769 0.46265 0.88186 0.0
H290 H 0.15468 0.56929 0.89835 0.0
C291 C 0.11625 0.46267 0.85072 0.0
C292 C 0.09837 0.50097 0.83677 0.0
H293 H 0.16058 0.4326 0.89231 0.0
H294 H 0.10568 0.43263 0.8379 0.0
C295 C 0.11295 0.53929 0.8541 0.0
C296 C 0.46206 0.11794 0.85101 0.0
C297 C 0.5002 0.09976 0.83717 0.0
H298 H 0.43223 0.16225 0.8928 0.0
C299 C 0.53846 0.11377 0.85496 0.0
H300 H 0.43208 0.10779 0.83785 0.0
C301 C 0.53855 0.14494 0.88641 0.0
C302 C 0.50037 0.16268 0.90068 0.0
H303 H 0.56835 0.10035 0.84491 0.0
H304 H 0.5685 0.15481 0.89985 0.0
C305 C 0.46215 0.1491 0.88247 0.0
C306 C 0.88643 0.46182 0.85454 0.0
C307 C 0.90092 0.50016 0.83716 0.0
H308 H 0.845 0.43179 0.89903 0.0
C309 C 0.88318 0.53845 0.8513 0.0
H310 H 0.8995 0.4318 0.84425 0.0
C311 C 0.85198 0.53845 0.88265 0.0
C312 C 0.83793 0.50015 0.90046 0.0
H313 H 0.8937 0.5685 0.83845 0.0
H314 H 0.83919 0.56849 0.89322 0.0
C315 C 0.85523 0.46181 0.8859 0.0
C316 C 0.53814 0.11703 0.14755 0.0
C317 C 0.49999 0.09883 0.16135 0.0
H318 H 0.56798 0.1616 0.10603 0.0
C319 C 0.46172 0.11308 0.14378 0.0
H320 H 0.56813 0.10671 0.16056 0.0
C321 C 0.46163 0.14451 0.11256 0.0
C322 C 0.49982 0.16227 0.09833 0.0
H323 H 0.43182 0.09965 0.15381 0.0
H324 H 0.43167 0.15455 0.09928 0.0
C325 C 0.53805 0.14845 0.11634 0.0
C326 C 0.88404 0.46229 0.14671 0.0
C327 C 0.90191 0.50056 0.16078 0.0
H328 H 0.83971 0.43235 0.10503 0.0
C329 C 0.88733 0.53893 0.14355 0.0
H330 H 0.89462 0.43223 0.15945 0.0
C331 C 0.8559 0.539 0.1124 0.0
C332 C 0.83846 0.5007 0.0979 0.0
H333 H 0.9005 0.56893 0.1538 0.0
H334 H 0.84561 0.56905 0.09938 0.0
C335 C 0.85261 0.46237 0.11557 0.0
C336 C 0.53933 0.85622 0.11123 0.0
C337 C 0.5011 0.83819 0.09743 0.0
H338 H 0.56934 0.90106 0.15236 0.0
C339 C 0.46302 0.85149 0.1161 0.0
H340 H 0.56918 0.84658 0.09742 0.0
C341 C 0.46311 0.88267 0.14753 0.0
C342 C 0.50128 0.90114 0.16091 0.0
H343 H 0.43306 0.83812 0.10613 0.0
H344 H 0.43322 0.8926 0.16105 0.0
C345 C 0.53942 0.8874 0.14268 0.0
C346 C 0.14485 0.46146 0.11152 0.0
C347 C 0.16218 0.49983 0.09704 0.0
H348 H 0.10058 0.43137 0.15312 0.0
C349 C 0.14815 0.53809 0.11494 0.0
H350 H 0.15506 0.43147 0.09832 0.0
C351 C 0.11697 0.53803 0.14631 0.0
C352 C 0.09922 0.4997 0.16037 0.0
H353 H 0.16096 0.56815 0.10443 0.0
H354 H 0.10648 0.56805 0.15923 0.0
C355 C 0.11367 0.4614 0.14289 0.0
C356 C 0.85394 0.88728 0.46081 0.0
C357 C 0.83758 0.9026 0.49924 0.0
H358 H 0.89733 0.84489 0.43053 0.0
C359 C 0.85245 0.88537 0.53748 0.0
H360 H 0.84306 0.89994 0.43083 0.0
C361 C 0.88352 0.85385 0.53731 0.0
C362 C 0.90031 0.83897 0.49889 0.0
H363 H 0.8404 0.89653 0.56759 0.0
H364 H 0.89469 0.84147 0.56729 0.0
C365 C 0.885 0.85577 0.46064 0.0
C366 C 0.88476 0.14831 0.46143 0.0
C367 C 0.90243 0.16261 0.49968 0.0
H368 H 0.84043 0.1066 0.43152 0.0
C369 C 0.88746 0.14579 0.53805 0.0
H370 H 0.89564 0.16074 0.43136 0.0
C371 C 0.85586 0.11481 0.53814 0.0
C372 C 0.83861 0.10007 0.49986 0.0
H373 H 0.90046 0.15623 0.56803 0.0
H374 H 0.84525 0.1021 0.56819 0.0
C375 C 0.85315 0.11733 0.46152 0.0
C376 C 0.11368 0.85393 0.53668 0.0
C377 C 0.09778 0.83791 0.49834 0.0
H378 H 0.15663 0.89698 0.5667 0.0
C379 C 0.11453 0.85299 0.45998 0.0
H380 H 0.10142 0.84287 0.56674 0.0
C381 C 0.14615 0.88396 0.45995 0.0
C382 C 0.16162 0.90043 0.49829 0.0
H383 H 0.10291 0.84119 0.42993 0.0
H384 H 0.15814 0.89532 0.42989 0.0
C385 C 0.1453 0.8849 0.53665 0.0
C386 C 0.11483 0.14485 0.46024 0.0
C387 C 0.09981 0.16156 0.49863 0.0
H388 H 0.15657 0.10076 0.43006 0.0
C389 C 0.11687 0.14658 0.5369 0.0
H390 H 0.10229 0.15581 0.43024 0.0
C391 C 0.14793 0.11506 0.5368 0.0
C392 C 0.16253 0.09793 0.49842 0.0
H393 H 0.10592 0.15889 0.56699 0.0
H394 H 0.1602 0.10382 0.56681 0.0
C395 C 0.1459 0.11334 0.46013 0.0
loop_
_geom_bond_atom_site_label_1
_geom_bond_atom_site_label_2
_geom_bond_distance
_geom_bond_site_symmetry_2
_ccdc_geom_bond_type
In0 O1 2.294 1_455 S
In0 O2 2.326 1_455 S
In0 O6 2.266 1_455 S
In0 O7 2.326 . S
In0 O8 2.266 . S
In0 O9 2.326 1_455 S
In0 O11 2.294 . S
In0 O12 2.326 . S
O1 In0 2.294 1_655 S
O1 C10 1.240 . S
O2 In0 2.326 1_655 S
O2 C10 1.252 . S
C3 O6 1.252 1_455 S
C3 O7 1.260 . S
C4 O11 1.240 . S
C4 O12 1.252 . S
C5 O8 1.252 1_655 S
C5 O9 1.260 . S
O6 In0 2.266 1_655 S
O6 C3 1.252 1_655 S
O7 In0 2.326 . S
O7 C3 1.260 . S
O8 In0 2.266 . S
O8 C5 1.252 1_455 S
O9 In0 2.326 1_655 S
O9 C5 1.260 . S
C10 O1 1.240 . S
C10 O2 1.252 . S
O11 In0 2.294 . S
O11 C4 1.240 . S
O12 In0 2.326 . S
O12 C4 1.252 . S
In13 O14 2.294 1_545 S
In13 O15 2.326 . S
In13 O19 2.266 1_545 S
In13 O20 2.326 1_545 S
In13 O21 2.266 . S
In13 O22 2.326 . S
In13 O24 2.294 . S
In13 O25 2.326 1_545 S
O14 In13 2.294 1_565 S
O14 C23 1.240 1_565 S
O15 In13 2.326 . S
O15 C23 1.252 . S
C16 O19 1.252 . S
C16 O20 1.260 . S
C17 O24 1.240 1_565 S
C17 O25 1.252 . S
C18 O21 1.252 . S
C18 O22 1.260 . S
O19 In13 2.266 1_565 S
O19 C16 1.252 . S
O20 In13 2.326 1_565 S
O20 C16 1.260 . S
O21 In13 2.266 . S
O21 C18 1.252 . S
O22 In13 2.326 . S
O22 C18 1.260 . S
C23 O14 1.240 1_545 S
C23 O15 1.252 . S
O24 In13 2.294 . S
O24 C17 1.240 1_545 S
O25 In13 2.326 1_565 S
O25 C17 1.252 . S
In26 O27 2.294 . S
In26 O28 2.326 1_455 S
In26 O32 2.266 . S
In26 O33 2.326 . S
In26 O34 2.266 1_455 S
In26 O35 2.326 1_455 S
In26 O37 2.294 1_455 S
In26 O38 2.326 . S
O27 In26 2.294 . S
O27 C36 1.240 1_455 S
O28 In26 2.326 1_655 S
O28 C36 1.252 . S
C29 O32 1.252 . S
C29 O33 1.260 . S
C30 O37 1.240 1_455 S
C30 O38 1.252 . S
C31 O34 1.252 . S
C31 O35 1.260 . S
O32 In26 2.266 . S
O32 C29 1.252 . S
O33 In26 2.326 . S
O33 C29 1.260 . S
O34 In26 2.266 1_655 S
O34 C31 1.252 . S
O35 In26 2.326 1_655 S
O35 C31 1.260 . S
C36 O27 1.240 1_655 S
C36 O28 1.252 . S
O37 In26 2.294 1_655 S
O37 C30 1.240 1_655 S
O38 In26 2.326 . S
O38 C30 1.252 . S
In39 O40 2.294 1_545 S
In39 O41 2.326 1_545 S
In39 O45 2.266 1_545 S
In39 O46 2.326 . S
In39 O47 2.266 . S
In39 O48 2.326 1_545 S
In39 O50 2.294 . S
In39 O51 2.326 . S
O40 In39 2.294 1_565 S
O40 C49 1.240 . S
O41 In39 2.326 1_565 S
O41 C49 1.252 . S
C42 O45 1.252 1_545 S
C42 O46 1.260 . S
C43 O50 1.240 . S
C43 O51 1.252 . S
C44 O47 1.252 1_565 S
C44 O48 1.260 . S
O45 In39 2.266 1_565 S
O45 C42 1.252 1_565 S
O46 In39 2.326 . S
O46 C42 1.260 . S
O47 In39 2.266 . S
O47 C44 1.252 1_545 S
O48 In39 2.326 1_565 S
O48 C44 1.260 . S
C49 O40 1.240 . S
C49 O41 1.252 . S
O50 In39 2.294 . S
O50 C43 1.240 . S
O51 In39 2.326 . S
O51 C43 1.252 . S
In52 O53 2.294 1_545 S
In52 O54 2.326 . S
In52 O58 2.266 1_545 S
In52 O59 2.326 1_545 S
In52 O60 2.266 . S
In52 O61 2.326 . S
In52 O63 2.294 . S
In52 O64 2.326 1_545 S
O53 In52 2.294 1_565 S
O53 C62 1.240 1_565 S
O54 In52 2.326 . S
O54 C62 1.252 . S
C55 O58 1.252 . S
C55 O59 1.260 . S
C56 O63 1.240 1_565 S
C56 O64 1.252 . S
C57 O60 1.252 . S
C57 O61 1.260 . S
O58 In52 2.266 1_565 S
O58 C55 1.252 . S
O59 In52 2.326 1_565 S
O59 C55 1.260 . S
O60 In52 2.266 . S
O60 C57 1.252 . S
O61 In52 2.326 . S
O61 C57 1.260 . S
C62 O53 1.240 1_545 S
C62 O54 1.252 . S
O63 In52 2.294 . S
O63 C56 1.240 1_545 S
O64 In52 2.326 1_565 S
O64 C56 1.252 . S
In65 O66 2.294 1_455 S
In65 O67 2.326 1_455 S
In65 O71 2.266 1_455 S
In65 O72 2.326 . S
In65 O73 2.266 . S
In65 O74 2.326 1_455 S
In65 O76 2.294 . S
In65 O77 2.326 . S
O66 In65 2.294 1_655 S
O66 C75 1.240 . S
O67 In65 2.326 1_655 S
O67 C75 1.252 . S
C68 O71 1.252 1_455 S
C68 O72 1.260 . S
C69 O76 1.240 . S
C69 O77 1.252 . S
C70 O73 1.252 1_655 S
C70 O74 1.260 . S
O71 In65 2.266 1_655 S
O71 C68 1.252 1_655 S
O72 In65 2.326 . S
O72 C68 1.260 . S
O73 In65 2.266 . S
O73 C70 1.252 1_455 S
O74 In65 2.326 1_655 S
O74 C70 1.260 . S
C75 O66 1.240 . S
C75 O67 1.252 . S
O76 In65 2.294 . S
O76 C69 1.240 . S
O77 In65 2.326 . S
O77 C69 1.252 . S
In78 O79 2.294 . S
In78 O80 2.326 1_545 S
In78 O84 2.266 . S
In78 O85 2.326 . S
In78 O86 2.266 1_545 S
In78 O87 2.326 1_545 S
In78 O89 2.294 1_545 S
In78 O90 2.326 . S
O79 In78 2.294 . S
O79 C88 1.240 1_545 S
O80 In78 2.326 1_565 S
O80 C88 1.252 . S
C81 O84 1.252 . S
C81 O85 1.260 . S
C82 O89 1.240 1_545 S
C82 O90 1.252 . S
C83 O86 1.252 . S
C83 O87 1.260 . S
O84 In78 2.266 . S
O84 C81 1.252 . S
O85 In78 2.326 . S
O85 C81 1.260 . S
O86 In78 2.266 1_565 S
O86 C83 1.252 . S
O87 In78 2.326 1_565 S
O87 C83 1.260 . S
C88 O79 1.240 1_565 S
C88 O80 1.252 . S
O89 In78 2.294 1_565 S
O89 C82 1.240 1_565 S
O90 In78 2.326 . S
O90 C82 1.252 . S
In91 O92 2.294 . S
In91 O93 2.326 . S
In91 O97 2.266 . S
In91 O98 2.326 1_455 S
In91 O99 2.266 1_455 S
In91 O100 2.326 . S
In91 O102 2.294 1_455 S
In91 O103 2.326 1_455 S
O92 In91 2.294 . S
O92 C101 1.240 . S
O93 In91 2.326 . S
O93 C101 1.252 . S
C94 O97 1.252 1_655 S
C94 O98 1.260 . S
C95 O102 1.240 . S
C95 O103 1.252 . S
C96 O99 1.252 1_455 S
C96 O100 1.260 . S
O97 In91 2.266 . S
O97 C94 1.252 1_455 S
O98 In91 2.326 1_655 S
O98 C94 1.260 . S
O99 In91 2.266 1_655 S
O99 C96 1.252 1_655 S
O100 In91 2.326 . S
O100 C96 1.260 . S
C101 O92 1.240 . S
C101 O93 1.252 . S
O102 In91 2.294 1_655 S
O102 C95 1.240 . S
O103 In91 2.326 1_655 S
O103 C95 1.252 . S
In104 O105 2.295 . S
In104 O106 2.327 . S
In104 O110 2.267 . S
In104 O111 2.325 1_554 S
In104 O112 2.266 1_554 S
In104 O113 2.327 . S
In104 O115 2.292 1_554 S
In104 O116 2.326 1_554 S
O105 In104 2.295 . S
O105 C114 1.240 . S
O106 In104 2.327 . S
O106 C114 1.252 . S
C107 O110 1.252 1_556 S
C107 O111 1.260 . S
C108 O115 1.240 . S
C108 O116 1.252 . S
C109 O112 1.252 1_554 S
C109 O113 1.260 . S
O110 In104 2.267 . S
O110 C107 1.252 1_554 S
O111 In104 2.325 1_556 S
O111 C107 1.260 . S
O112 In104 2.266 1_556 S
O112 C109 1.252 1_556 S
O113 In104 2.327 . S
O113 C109 1.260 . S
C114 O105 1.240 . S
C114 O106 1.252 . S
O115 In104 2.292 1_556 S
O115 C108 1.240 . S
O116 In104 2.326 1_556 S
O116 C108 1.252 . S
In117 O118 2.298 . S
In117 O119 2.328 . S
In117 O123 2.267 . S
In117 O124 2.323 1_554 S
In117 O125 2.265 1_554 S
In117 O126 2.328 . S
In117 O128 2.290 1_554 S
In117 O129 2.325 1_554 S
O118 In117 2.298 . S
O118 C127 1.240 . S
O119 In117 2.328 . S
O119 C127 1.252 . S
C120 O123 1.252 1_556 S
C120 O124 1.260 . S
C121 O128 1.240 . S
C121 O129 1.252 . S
C122 O125 1.252 1_554 S
C122 O126 1.260 . S
O123 In117 2.267 . S
O123 C120 1.252 1_554 S
O124 In117 2.323 1_556 S
O124 C120 1.260 . S
O125 In117 2.265 1_556 S
O125 C122 1.252 1_556 S
O126 In117 2.328 . S
O126 C122 1.260 . S
C127 O118 1.240 . S
C127 O119 1.252 . S
O128 In117 2.290 1_556 S
O128 C121 1.240 . S
O129 In117 2.325 1_556 S
O129 C121 1.252 . S
In130 O131 2.293 1_554 S
In130 O132 2.329 . S
In130 O136 2.263 1_554 S
In130 O137 2.324 1_554 S
In130 O138 2.270 . S
In130 O139 2.327 . S
In130 O141 2.295 . S
In130 O142 2.324 1_554 S
O131 In130 2.293 1_556 S
O131 C140 1.240 1_556 S
O132 In130 2.329 . S
O132 C140 1.252 . S
C133 O136 1.252 . S
C133 O137 1.260 . S
C134 O141 1.240 1_556 S
C134 O142 1.252 . S
C135 O138 1.252 . S
C135 O139 1.260 . S
O136 In130 2.263 1_556 S
O136 C133 1.252 . S
O137 In130 2.324 1_556 S
O137 C133 1.260 . S
O138 In130 2.270 . S
O138 C135 1.252 . S
O139 In130 2.327 . S
O139 C135 1.260 . S
C140 O131 1.240 1_554 S
C140 O132 1.252 . S
O141 In130 2.295 . S
O141 C134 1.240 1_554 S
O142 In130 2.324 1_556 S
O142 C134 1.252 . S
In143 O144 2.294 . S
In143 O145 2.325 1_554 S
In143 O149 2.268 . S
In143 O150 2.326 . S
In143 O151 2.265 1_554 S
In143 O152 2.325 1_554 S
In143 O154 2.293 1_554 S
In143 O155 2.327 . S
O144 In143 2.294 . S
O144 C153 1.240 1_554 S
O145 In143 2.325 1_556 S
O145 C153 1.252 . S
C146 O149 1.252 . S
C146 O150 1.260 . S
C147 O154 1.240 1_554 S
C147 O155 1.252 . S
C148 O151 1.252 . S
C148 O152 1.260 . S
O149 In143 2.268 . S
O149 C146 1.252 . S
O150 In143 2.326 . S
O150 C146 1.260 . S
O151 In143 2.265 1_556 S
O151 C148 1.252 . S
O152 In143 2.325 1_556 S
O152 C148 1.260 . S
C153 O144 1.240 1_556 S
C153 O145 1.252 . S
O154 In143 2.293 1_556 S
O154 C147 1.240 1_556 S
O155 In143 2.327 . S
O155 C147 1.252 . S
C156 C157 1.387 . S
C156 H160 0.950 . S
C156 C165 1.390 . S
C157 C156 1.387 . S
C157 C159 1.387 1_655 S
H158 C165 0.950 . S
C159 C157 1.387 1_455 S
C159 C161 1.390 . S
C159 H163 0.950 . S
H160 C156 0.950 . S
C161 C159 1.390 . S
C161 C162 1.387 . S
C161 H164 0.950 . S
C162 C161 1.387 . S
C162 C165 1.387 1_455 S
H163 C159 0.950 . S
H164 C161 0.950 . S
C165 C156 1.390 . S
C165 H158 0.950 . S
C165 C162 1.387 1_655 S
C166 C167 1.387 . S
C166 H170 0.950 . S
C166 C175 1.390 . S
C167 C166 1.387 . S
C167 C169 1.387 1_565 S
H168 C175 0.950 . S
C169 C167 1.387 1_545 S
C169 C171 1.390 . S
C169 H173 0.950 . S
H170 C166 0.950 . S
C171 C169 1.390 . S
C171 C172 1.387 . S
C171 H174 0.950 . S
C172 C171 1.387 . S
C172 C175 1.387 1_545 S
H173 C169 0.950 . S
H174 C171 0.950 . S
C175 C166 1.390 . S
C175 H168 0.950 . S
C175 C172 1.387 1_565 S
C176 C177 1.387 . S
C176 H180 0.950 . S
C176 C185 1.390 . S
C177 C176 1.387 . S
C177 C179 1.387 1_655 S
H178 C185 0.950 . S
C179 C177 1.387 1_455 S
C179 C181 1.390 . S
C179 H183 0.950 . S
H180 C176 0.950 . S
C181 C179 1.390 . S
C181 C182 1.387 . S
C181 H184 0.950 . S
C182 C181 1.387 . S
C182 C185 1.387 1_455 S
H183 C179 0.950 . S
H184 C181 0.950 . S
C185 C176 1.390 . S
C185 H178 0.950 . S
C185 C182 1.387 1_655 S
C186 C187 1.387 1_565 S
C186 H190 0.950 . S
C186 C195 1.390 . S
C187 C186 1.387 1_545 S
C187 C189 1.387 . S
H188 C195 0.950 . S
C189 C187 1.387 . S
C189 C191 1.390 . S
C189 H193 0.950 . S
H190 C186 0.950 . S
C191 C189 1.390 . S
C191 C192 1.387 1_545 S
C191 H194 0.950 . S
C192 C191 1.387 1_565 S
C192 C195 1.387 . S
H193 C189 0.950 . S
H194 C191 0.950 . S
C195 C186 1.390 . S
C195 H188 0.950 . S
C195 C192 1.387 . S
C196 C197 1.387 . S
C196 H200 0.950 . S
C196 C205 1.390 . S
C197 C196 1.387 . S
C197 C199 1.387 1_455 S
H198 C205 0.950 . S
C199 C197 1.387 1_655 S
C199 C201 1.390 . S
C199 H203 0.950 . S
H200 C196 0.950 . S
C201 C199 1.390 . S
C201 C202 1.387 . S
C201 H204 0.950 . S
C202 C201 1.387 . S
C202 C205 1.387 1_655 S
H203 C199 0.950 . S
H204 C201 0.950 . S
C205 C196 1.390 . S
C205 H198 0.950 . S
C205 C202 1.387 1_455 S
C206 C207 1.387 1_565 S
C206 H210 0.950 . S
C206 C215 1.390 . S
C207 C206 1.387 1_545 S
C207 C209 1.387 . S
H208 C215 0.950 . S
C209 C207 1.387 . S
C209 C211 1.390 . S
C209 H213 0.950 . S
H210 C206 0.950 . S
C211 C209 1.390 . S
C211 C212 1.387 1_545 S
C211 H214 0.950 . S
C212 C211 1.387 1_565 S
C212 C215 1.387 . S
H213 C209 0.950 . S
H214 C211 0.950 . S
C215 C206 1.390 . S
C215 H208 0.950 . S
C215 C212 1.387 . S
C216 C217 1.387 . S
C216 H220 0.950 . S
C216 C225 1.390 . S
C217 C216 1.387 . S
C217 C219 1.387 1_455 S
H218 C225 0.950 . S
C219 C217 1.387 1_655 S
C219 C221 1.390 . S
C219 H223 0.950 . S
H220 C216 0.950 . S
C221 C219 1.390 . S
C221 C222 1.387 . S
C221 H224 0.950 . S
C222 C221 1.387 . S
C222 C225 1.387 1_655 S
H223 C219 0.950 . S
H224 C221 0.950 . S
C225 C216 1.390 . S
C225 H218 0.950 . S
C225 C222 1.387 1_455 S
C226 C227 1.387 . S
C226 H230 0.950 . S
C226 C235 1.390 . S
C227 C226 1.387 . S
C227 C229 1.387 1_565 S
H228 C235 0.950 . S
C229 C227 1.387 1_545 S
C229 C231 1.390 . S
C229 H233 0.950 . S
H230 C226 0.950 . S
C231 C229 1.390 . S
C231 C232 1.387 . S
C231 H234 0.950 . S
C232 C231 1.387 . S
C232 C235 1.387 1_545 S
H233 C229 0.950 . S
H234 C231 0.950 . S
C235 C226 1.390 . S
C235 H228 0.950 . S
C235 C232 1.387 1_565 S
C236 C237 1.387 1_556 S
C236 H240 0.950 . S
C236 C245 1.390 . S
C237 C236 1.387 1_554 S
C237 C239 1.387 . S
H238 C245 0.950 . S
C239 C237 1.387 . S
C239 C241 1.390 . S
C239 H243 0.950 . S
H240 C236 0.950 . S
C241 C239 1.390 . S
C241 C242 1.387 1_554 S
C241 H244 0.950 . S
C242 C241 1.387 1_556 S
C242 C245 1.387 . S
H243 C239 0.950 . S
H244 C241 0.950 . S
C245 C236 1.390 . S
C245 H238 0.950 . S
C245 C242 1.387 . S
C246 C247 1.387 . S
C246 H250 0.950 . S
C246 C255 1.390 . S
C247 C246 1.387 . S
C247 C249 1.387 1_554 S
H248 C255 0.950 . S
C249 C247 1.387 1_556 S
C249 C251 1.390 . S
C249 H253 0.950 . S
H250 C246 0.950 . S
C251 C249 1.390 . S
C251 C252 1.387 . S
C251 H254 0.950 . S
C252 C251 1.387 . S
C252 C255 1.387 1_556 S
H253 C249 0.950 . S
H254 C251 0.950 . S
C255 C246 1.390 . S
C255 H248 0.950 . S
C255 C252 1.387 1_554 S
C256 C257 1.387 . S
C256 H260 0.950 . S
C256 C265 1.390 . S
C257 C256 1.387 . S
C257 C259 1.387 1_556 S
H258 C265 0.950 . S
C259 C257 1.387 1_554 S
C259 C261 1.390 . S
C259 H263 0.950 . S
H260 C256 0.950 . S
C261 C259 1.390 . S
C261 C262 1.387 . S
C261 H264 0.950 . S
C262 C261 1.387 . S
C262 C265 1.387 1_554 S
H263 C259 0.950 . S
H264 C261 0.950 . S
C265 C256 1.390 . S
C265 H258 0.950 . S
C265 C262 1.387 1_556 S
C266 C267 1.387 1_554 S
C266 H270 0.950 . S
C266 C275 1.390 . S
C267 C266 1.387 1_556 S
C267 C269 1.387 . S
H268 C275 0.950 . S
C269 C267 1.387 . S
C269 C271 1.390 . S
C269 H273 0.950 . S
H270 C266 0.950 . S
C271 C269 1.390 . S
C271 C272 1.387 1_556 S
C271 H274 0.950 . S
C272 C271 1.387 1_554 S
C272 C275 1.387 . S
H273 C269 0.950 . S
H274 C271 0.950 . S
C275 C266 1.390 . S
C275 H268 0.950 . S
C275 C272 1.387 . S
C276 C277 1.387 . S
C276 H280 0.950 . S
C276 C285 1.390 . S
C277 C276 1.387 . S
C277 C279 1.387 . S
H278 C285 0.950 . S
C279 C277 1.387 . S
C279 C281 1.390 . S
C279 H283 0.950 . S
H280 C276 0.950 . S
C281 C279 1.390 . S
C281 C282 1.387 . S
C281 H284 0.950 . S
C282 C281 1.387 . S
C282 C285 1.387 . S
H283 C279 0.950 . S
H284 C281 0.950 . S
C285 C276 1.390 . S
C285 H278 0.950 . S
C285 C282 1.387 . S
C286 C287 1.387 . S
C286 H290 0.950 . S
C286 C295 1.390 . S
C287 C286 1.387 . S
C287 C289 1.387 . S
H288 C295 0.950 . S
C289 C287 1.387 . S
C289 C291 1.390 . S
C289 H293 0.950 . S
H290 C286 0.950 . S
C291 C289 1.390 . S
C291 C292 1.387 . S
C291 H294 0.950 . S
C292 C291 1.387 . S
C292 C295 1.387 . S
H293 C289 0.950 . S
H294 C291 0.950 . S
C295 C286 1.390 . S
C295 H288 0.950 . S
C295 C292 1.387 . S
C296 C297 1.387 . S
C296 H300 0.950 . S
C296 C305 1.390 . S
C297 C296 1.387 . S
C297 C299 1.387 . S
H298 C305 0.950 . S
C299 C297 1.387 . S
C299 C301 1.390 . S
C299 H303 0.950 . S
H300 C296 0.950 . S
C301 C299 1.390 . S
C301 C302 1.387 . S
C301 H304 0.950 . S
C302 C301 1.387 . S
C302 C305 1.387 . S
H303 C299 0.950 . S
H304 C301 0.950 . S
C305 C296 1.390 . S
C305 H298 0.950 . S
C305 C302 1.387 . S
C306 C307 1.387 . S
C306 H310 0.950 . S
C306 C315 1.390 . S
C307 C306 1.387 . S
C307 C309 1.387 . S
H308 C315 0.950 . S
C309 C307 1.387 . S
C309 C311 1.390 . S
C309 H313 0.950 . S
H310 C306 0.950 . S
C311 C309 1.390 . S
C311 C312 1.387 . S
C311 H314 0.950 . S
C312 C311 1.387 . S
C312 C315 1.387 . S
H313 C309 0.950 . S
H314 C311 0.950 . S
C315 C306 1.390 . S
C315 H308 0.950 . S
C315 C312 1.387 . S
C316 C317 1.387 . S
C316 H320 0.950 . S
C316 C325 1.390 . S
C317 C316 1.387 . S
C317 C319 1.387 . S
H318 C325 0.950 . S
C319 C317 1.387 . S
C319 C321 1.390 . S
C319 H323 0.950 . S
H320 C316 0.950 . S
C321 C319 1.390 . S
C321 C322 1.387 . S
C321 H324 0.950 . S
C322 C321 1.387 . S
C322 C325 1.387 . S
H323 C319 0.950 . S
H324 C321 0.950 . S
C325 C316 1.390 . S
C325 H318 0.950 . S
C325 C322 1.387 . S
C326 C327 1.387 . S
C326 H330 0.950 . S
C326 C335 1.390 . S
C327 C326 1.387 . S
C327 C329 1.387 . S
H328 C335 0.950 . S
C329 C327 1.387 . S
C329 C331 1.390 . S
C329 H333 0.950 . S
H330 C326 0.950 . S
C331 C329 1.390 . S
C331 C332 1.387 . S
C331 H334 0.950 . S
C332 C331 1.387 . S
C332 C335 1.387 . S
H333 C329 0.950 . S
H334 C331 0.950 . S
C335 C326 1.390 . S
C335 H328 0.950 . S
C335 C332 1.387 . S
C336 C337 1.387 . S
C336 H340 0.950 . S
C336 C345 1.390 . S
C337 C336 1.387 . S
C337 C339 1.387 . S
H338 C345 0.950 . S
C339 C337 1.387 . S
C339 C341 1.390 . S
C339 H343 0.950 . S
H340 C336 0.950 . S
C341 C339 1.390 . S
C341 C342 1.387 . S
C341 H344 0.950 . S
C342 C341 1.387 . S
C342 C345 1.387 . S
H343 C339 0.950 . S
H344 C341 0.950 . S
C345 C336 1.390 . S
C345 H338 0.950 . S
C345 C342 1.387 . S
C346 C347 1.387 . S
C346 H350 0.950 . S
C346 C355 1.390 . S
C347 C346 1.387 . S
C347 C349 1.387 . S
H348 C355 0.950 . S
C349 C347 1.387 . S
C349 C351 1.390 . S
C349 H353 0.950 . S
H350 C346 0.950 . S
C351 C349 1.390 . S
C351 C352 1.387 . S
C351 H354 0.950 . S
C352 C351 1.387 . S
C352 C355 1.387 . S
H353 C349 0.950 . S
H354 C351 0.950 . S
C355 C346 1.390 . S
C355 H348 0.950 . S
C355 C352 1.387 . S
C356 C357 1.387 . S
C356 H360 0.950 . S
C356 C365 1.390 . S
C357 C356 1.387 . S
C357 C359 1.387 . S
H358 C365 0.950 . S
C359 C357 1.387 . S
C359 C361 1.390 . S
C359 H363 0.950 . S
H360 C356 0.950 . S
C361 C359 1.390 . S
C361 C362 1.387 . S
C361 H364 0.950 . S
C362 C361 1.387 . S
C362 C365 1.387 . S
H363 C359 0.950 . S
H364 C361 0.950 . S
C365 C356 1.390 . S
C365 H358 0.950 . S
C365 C362 1.387 . S
C366 C367 1.387 . S
C366 H370 0.950 . S
C366 C375 1.390 . S
C367 C366 1.387 . S
C367 C369 1.387 . S
H368 C375 0.950 . S
C369 C367 1.387 . S
C369 C371 1.390 . S
C369 H373 0.950 . S
H370 C366 0.950 . S
C371 C369 1.390 . S
C371 C372 1.387 . S
C371 H374 0.950 . S
C372 C371 1.387 . S
C372 C375 1.387 . S
H373 C369 0.950 . S
H374 C371 0.950 . S
C375 C366 1.390 . S
C375 H368 0.950 . S
C375 C372 1.387 . S
C376 C377 1.387 . S
C376 H380 0.950 . S
C376 C385 1.390 . S
C377 C376 1.387 . S
C377 C379 1.387 . S
H378 C385 0.950 . S
C379 C377 1.387 . S
C379 C381 1.390 . S
C379 H383 0.950 . S
H380 C376 0.950 . S
C381 C379 1.390 . S
C381 C382 1.387 . S
C381 H384 0.950 . S
C382 C381 1.387 . S
C382 C385 1.387 . S
H383 C379 0.950 . S
H384 C381 0.950 . S
C385 C376 1.390 . S
C385 H378 0.950 . S
C385 C382 1.387 . S
C386 C387 1.387 . S
C386 H390 0.950 . S
C386 C395 1.390 . S
C387 C386 1.387 . S
C387 C389 1.387 . S
H388 C395 0.950 . S
C389 C387 1.387 . S
C389 C391 1.390 . S
C389 H393 0.950 . S
H390 C386 0.950 . S
C391 C389 1.390 . S
C391 C392 1.387 . S
C391 H394 0.950 . S
C392 C391 1.387 . S
C392 C395 1.387 . S
H393 C389 0.950 . S
H394 C391 0.950 . S
C395 C386 1.390 . S
C395 H388 0.950 . S
C395 C392 1.387 . S
C157 C5 1.597 . S
C162 C68 1.597 . S
C167 C17 1.582 . S
C172 C62 1.582 . S
C177 C70 1.589 . S
C182 C30 1.583 . S
C187 C42 1.598 . S
C192 C56 1.592 . S
C197 C96 1.588 . S
C202 C36 1.582 . S
C207 C82 1.591 . S
C212 C44 1.597 . S
C217 C3 1.599 . S
C222 C94 1.599 . S
C227 C88 1.583 . S
C232 C23 1.583 . S
C237 C122 1.602 . S
C242 C107 1.602 . S
C247 C109 1.593 . S
C252 C153 1.586 . S
C257 C120 1.593 . S
C262 C140 1.587 . S
C267 C134 1.578 . S
C272 C147 1.578 . S
C277 C148 1.597 . S
C282 C83 1.597 . S
C287 C108 1.582 . S
C292 C101 1.582 . S
C297 C81 1.588 . S
C302 C121 1.582 . S
C307 C95 1.592 . S
C312 C133 1.597 . S
C317 C57 1.590 . S
C322 C127 1.584 . S
C327 C75 1.591 . S
C332 C135 1.597 . S
C337 C146 1.599 . S
C342 C55 1.599 . S
C347 C114 1.583 . S
C352 C69 1.583 . S
C357 C16 1.602 . S
C362 C31 1.602 . S
C367 C10 1.587 . S
C372 C18 1.593 . S
C377 C29 1.592 . S
C382 C49 1.586 . S
C387 C4 1.578 . S
C392 C43 1.578 . S
