# Generated by pormake.
# Topology yfn, (5)-cn, num edge types: 1
# Building blocks:
#     Node 0, Type 0, BuildingBlock: BEQFEK_clean_sbu_0, # of connection points: 5
#     Node 1, Type 0, BuildingBlock: BEQFEK_clean_sbu_0, # of connection points: 5
#     Node 2, Type 0, BuildingBlock: BEQFEK_clean_sbu_0, # of connection points: 5
#     Node 3, Type 0, BuildingBlock: BEQFEK_clean_sbu_0, # of connection points: 5
#     Node 4, Type 0, BuildingBlock: BEQFEK_clean_sbu_0, # of connection points: 5
#     Node 5, Type 0, BuildingBlock: BEQFEK_clean_sbu_0, # of connection points: 5
#     Node 6, Type 0, BuildingBlock: BEQFEK_clean_sbu_0, # of connection points: 5
#     Node 7, Type 0, BuildingBlock: BEQFEK_clean_sbu_0, # of connection points: 5
#     Node 8, Type 0, BuildingBlock: BEQFEK_clean_sbu_0, # of connection points: 5
#     Node 9, Type 0, BuildingBlock: BEQFEK_clean_sbu_0, # of connection points: 5
#     Node 10, Type 0, BuildingBlock: BEQFEK_clean_sbu_0, # of connection points: 5
#     Node 11, Type 0, BuildingBlock: BEQFEK_clean_sbu_0, # of connection points: 5
#     Node 12, Type 0, BuildingBlock: BEQFEK_clean_sbu_0, # of connection points: 5
#     Node 13, Type 0, BuildingBlock: BEQFEK_clean_sbu_0, # of connection points: 5
#     Node 14, Type 0, BuildingBlock: BEQFEK_clean_sbu_0, # of connection points: 5
#     Node 15, Type 0, BuildingBlock: BEQFEK_clean_sbu_0, # of connection points: 5
#     Node 16, Type 0, BuildingBlock: BEQFEK_clean_sbu_0, # of connection points: 5
#     Node 17, Type 0, BuildingBlock: BEQFEK_clean_sbu_0, # of connection points: 5
#     Node 18, Type 0, BuildingBlock: BEQFEK_clean_sbu_0, # of connection points: 5
#     Node 19, Type 0, BuildingBlock: BEQFEK_clean_sbu_0, # of connection points: 5
#     Node 20, Type 0, BuildingBlock: BEQFEK_clean_sbu_0, # of connection points: 5
#     Node 21, Type 0, BuildingBlock: BEQFEK_clean_sbu_0, # of connection points: 5
#     Node 22, Type 0, BuildingBlock: BEQFEK_clean_sbu_0, # of connection points: 5
#     Node 23, Type 0, BuildingBlock: BEQFEK_clean_sbu_0, # of connection points: 5
#     Node 24, Type 0, BuildingBlock: BEQFEK_clean_sbu_0, # of connection points: 5
#     Node 25, Type 0, BuildingBlock: BEQFEK_clean_sbu_0, # of connection points: 5
#     Node 26, Type 0, BuildingBlock: BEQFEK_clean_sbu_0, # of connection points: 5
#     Node 27, Type 0, BuildingBlock: BEQFEK_clean_sbu_0, # of connection points: 5
#     Node 28, Type 0, BuildingBlock: BEQFEK_clean_sbu_0, # of connection points: 5
#     Node 29, Type 0, BuildingBlock: BEQFEK_clean_sbu_0, # of connection points: 5
#     Node 30, Type 0, BuildingBlock: BEQFEK_clean_sbu_0, # of connection points: 5
#     Node 31, Type 0, BuildingBlock: BEQFEK_clean_sbu_0, # of connection points: 5
#     Edge 32, Type (0, 0), None
#     Edge 33, Type (0, 0), None
#     Edge 34, Type (0, 0), None
#     Edge 35, Type (0, 0), None
#     Edge 36, Type (0, 0), None
#     Edge 37, Type (0, 0), None
#     Edge 38, Type (0, 0), None
#     Edge 39, Type (0, 0), None
#     Edge 40, Type (0, 0), None
#     Edge 41, Type (0, 0), None
#     Edge 42, Type (0, 0), None
#     Edge 43, Type (0, 0), None
#     Edge 44, Type (0, 0), None
#     Edge 45, Type (0, 0), None
#     Edge 46, Type (0, 0), None
#     Edge 47, Type (0, 0), None
#     Edge 48, Type (0, 0), None
#     Edge 49, Type (0, 0), None
#     Edge 50, Type (0, 0), None
#     Edge 51, Type (0, 0), None
#     Edge 52, Type (0, 0), None
#     Edge 53, Type (0, 0), None
#     Edge 54, Type (0, 0), None
#     Edge 55, Type (0, 0), None
#     Edge 56, Type (0, 0), None
#     Edge 57, Type (0, 0), None
#     Edge 58, Type (0, 0), None
#     Edge 59, Type (0, 0), None
#     Edge 60, Type (0, 0), None
#     Edge 61, Type (0, 0), None
#     Edge 62, Type (0, 0), None
#     Edge 63, Type (0, 0), None
#     Edge 64, Type (0, 0), None
#     Edge 65, Type (0, 0), None
#     Edge 66, Type (0, 0), None
#     Edge 67, Type (0, 0), None
#     Edge 68, Type (0, 0), None
#     Edge 69, Type (0, 0), None
#     Edge 70, Type (0, 0), None
#     Edge 71, Type (0, 0), None
#     Edge 72, Type (0, 0), None
#     Edge 73, Type (0, 0), None
#     Edge 74, Type (0, 0), None
#     Edge 75, Type (0, 0), None
#     Edge 76, Type (0, 0), None
#     Edge 77, Type (0, 0), None
#     Edge 78, Type (0, 0), None
#     Edge 79, Type (0, 0), None
#     Edge 80, Type (0, 0), None
#     Edge 81, Type (0, 0), None
#     Edge 82, Type (0, 0), None
#     Edge 83, Type (0, 0), None
#     Edge 84, Type (0, 0), None
#     Edge 85, Type (0, 0), None
#     Edge 86, Type (0, 0), None
#     Edge 87, Type (0, 0), None
#     Edge 88, Type (0, 0), None
#     Edge 89, Type (0, 0), None
#     Edge 90, Type (0, 0), None
#     Edge 91, Type (0, 0), None
#     Edge 92, Type (0, 0), None
#     Edge 93, Type (0, 0), None
#     Edge 94, Type (0, 0), None
#     Edge 95, Type (0, 0), None
#     Edge 96, Type (0, 0), None
#     Edge 97, Type (0, 0), None
#     Edge 98, Type (0, 0), None
#     Edge 99, Type (0, 0), None
#     Edge 100, Type (0, 0), None
#     Edge 101, Type (0, 0), None
#     Edge 102, Type (0, 0), None
#     Edge 103, Type (0, 0), None
#     Edge 104, Type (0, 0), None
#     Edge 105, Type (0, 0), None
#     Edge 106, Type (0, 0), None
#     Edge 107, Type (0, 0), None
#     Edge 108, Type (0, 0), None
#     Edge 109, Type (0, 0), None
#     Edge 110, Type (0, 0), None
#     Edge 111, Type (0, 0), None
# Relax obj value: 0.719
# Max RMSD: 0.282
# Mean RMSD: 0.282
data_MOF--net-yfn--node1-BEQFEK_clean_sbu_0--edge1-none
_symmetry_space_group_name_H-M    P1
_symmetry_Int_Tables_number       1
_symmetry_cell_setting            triclinic
loop_
_symmetry_equiv_pos_as_xyz
'x, y, z'
_cell_length_a     39.151203
_cell_length_b     39.165894
_cell_length_c     15.669987
_cell_angle_alpha  89.985632
_cell_angle_beta   90.000262
_cell_angle_gamma 90.001433
loop_
_atom_site_label
_atom_site_type_symbol
_atom_site_fract_x
_atom_site_fract_y
_atom_site_fract_z
_atom_type_partial_charge
Co0 Co 0.02025 0.02666 0.22681 0.0
Co1 Co -0.02645 0.0738 0.12759 0.0
C2 C 0.05159 0.08186 0.16485 0.0
O3 O 0.05864 0.05162 0.18589 0.0
O4 O 0.02137 0.09067 0.14477 0.0
C5 C 0.06495 -0.02719 0.28099 0.0
O6 O 0.0892 -0.01422 0.23312 0.0
C7 C -0.02999 0.08523 0.94738 0.0
C8 C 0.92374 0.11619 0.9305 0.0
C9 C 0.948 0.09749 0.88563 0.0
N10 N -0.0409 0.09563 1.02466 0.0
N11 N 0.93204 0.11528 1.01399 0.0
C12 C -0.00295 0.05876 0.9341 0.0
H13 H 0.01269 0.05543 0.99254 0.0
H14 H -0.01506 0.03406 0.91715 0.0
H15 H 0.01366 0.06634 0.87989 0.0
C16 C -0.00729 -0.02405 0.10716 0.0
N17 N -0.00684 0.00741 0.14114 0.0
N18 N -0.03213 0.02535 0.11192 0.0
C19 C 0.94763 0.00468 0.06485 0.0
C20 C -0.03834 -0.02882 0.06281 0.0
C21 C 0.02632 -0.04022 0.08635 0.0
H22 H 0.04709 -0.02102 0.09147 0.0
H23 H 0.02646 0.95034 1.01966 0.0
H24 H 0.03263 0.93945 0.13251 0.0
O25 O -0.0067 0.0583 0.30425 0.0
O26 O 0.95312 0.08849 0.23623 0.0
H27 H 0.89412 0.01357 0.04757 0.0
H28 H 0.91877 0.00844 0.94848 0.0
C29 C 0.91847 0.01873 1.01436 0.0
H30 H 0.91945 0.04668 1.01118 0.0
H31 H 0.91738 0.12516 0.06382 0.0
O32 O 0.03664 -0.01187 0.29025 0.0
C33 C -0.03109 0.08011 0.3045 0.0
Co34 Co 0.13292 0.77042 0.47688 0.0
Co35 Co 0.08572 0.72373 0.37781 0.0
C36 C 0.07773 0.80178 0.41478 0.0
O37 O 0.10798 0.8088 0.43587 0.0
O38 O 0.0689 0.77157 0.39479 0.0
C39 C 0.18684 0.81506 0.53083 0.0
O40 O 0.17391 0.83928 0.48283 0.0
C41 C 0.07431 0.72009 0.1976 0.0
C42 C 0.04333 0.67383 0.18091 0.0
C43 C 0.06205 0.69806 0.13594 0.0
N44 N 0.06389 0.70924 0.27493 0.0
N45 N 0.04424 0.68219 0.26436 0.0
C46 C 0.1008 0.74711 0.18421 0.0
H47 H 0.10414 0.76278 0.24259 0.0
H48 H 0.12551 0.73499 0.16729 0.0
H49 H 0.09323 0.76369 0.12994 0.0
C50 C 0.18361 0.74282 0.35725 0.0
N51 N 0.15214 0.74331 0.39126 0.0
N52 N 0.13418 0.71802 0.36217 0.0
C53 C 0.15485 0.69774 0.31518 0.0
C54 C 0.18837 0.71175 0.31304 0.0
C55 C 0.19981 0.7764 0.33623 0.0
H56 H 0.18059 0.79716 0.3411 0.0
H57 H 0.20932 0.77645 0.2696 0.0
H58 H 0.2201 0.78275 0.38245 0.0
O59 O 0.10125 0.74353 0.55443 0.0
O60 O 0.07101 0.70337 0.48652 0.0
H61 H 0.14599 0.64424 0.29807 0.0
H62 H 0.15096 0.66888 0.19889 0.0
C63 C 0.14077 0.66856 0.26487 0.0
H64 H 0.11279 0.66951 0.26194 0.0
H65 H 0.03434 0.66756 0.31425 0.0
O66 O 0.17148 0.78679 0.54024 0.0
C67 C 0.07941 0.71916 0.55475 0.0
Co68 Co 0.38917 0.88303 0.7269 0.0
Co69 Co 0.43587 0.83589 0.62768 0.0
C70 C 0.35782 0.82785 0.66489 0.0
O71 O 0.35078 0.85808 0.68598 0.0
O72 O 0.38804 0.81904 0.64482 0.0
C73 C 0.34446 0.93686 0.78112 0.0
O74 O 0.3202 0.92388 0.73335 0.0
C75 C 0.43941 0.82444 0.44748 0.0
C76 C 0.48569 0.79349 0.43067 0.0
C77 C 0.46143 0.81219 0.38576 0.0
N78 N 0.45032 0.81406 0.52479 0.0
N79 N 0.47738 0.79441 0.51416 0.0
C80 C 0.41237 0.85092 0.43416 0.0
H81 H 0.39673 0.85426 0.49259 0.0
H82 H 0.42449 0.87562 0.41714 0.0
H83 H 0.39576 0.84334 0.37997 0.0
C84 C 0.41671 0.93374 0.60724 0.0
N85 N 0.41627 0.90228 0.64123 0.0
N86 N 0.44155 0.88434 0.61197 0.0
C87 C 0.46178 0.90502 0.56486 0.0
C88 C 0.44775 0.93852 0.56283 0.0
C89 C 0.38309 0.94993 0.58649 0.0
H90 H 0.36232 0.93073 0.59173 0.0
H91 H 0.38292 -0.04066 0.51977 0.0
H92 H 0.37682 -0.02973 0.63261 0.0
O93 O 0.41611 0.85139 0.80436 0.0
O94 O 0.45628 0.82119 0.73635 0.0
H95 H 0.51528 0.89611 0.54755 0.0
H96 H 0.49063 0.9013 0.44846 0.0
C97 C 0.49093 0.89098 0.51433 0.0
H98 H 0.48993 0.86303 0.51108 0.0
H99 H 0.49204 0.78453 0.56401 0.0
O100 O 0.37278 0.92157 0.79032 0.0
C101 C 0.4405 0.82957 0.80462 0.0
Co102 Co 0.27649 0.13927 0.97692 0.0
Co103 Co 0.32369 0.18597 0.87785 0.0
C104 C 0.33167 0.10791 0.91482 0.0
O105 O 0.30142 0.10089 0.93594 0.0
O106 O 0.3405 0.13813 0.89483 0.0
C107 C 0.22253 0.09466 1.0308 0.0
O108 O 0.23543 0.07046 0.98271 0.0
C109 C 0.33507 0.18962 0.69763 0.0
C110 C 0.36607 0.23586 0.68086 0.0
C111 C 0.34733 0.21165 0.63594 0.0
N112 N 0.3455 0.20047 0.77494 0.0
N113 N 0.36517 0.22751 0.76432 0.0
C114 C 0.30857 0.1626 0.68429 0.0
H115 H 0.30524 0.14693 0.74268 0.0
H116 H 0.28386 0.17474 0.66739 0.0
H117 H 0.31613 0.14603 0.63003 0.0
C118 C 0.22581 0.16689 0.85724 0.0
N119 N 0.25727 0.16639 0.89128 0.0
N120 N 0.27523 0.19169 0.86223 0.0
C121 C 0.25457 0.21199 0.81524 0.0
C122 C 0.22105 0.19797 0.81307 0.0
C123 C 0.20961 0.13332 0.83614 0.0
H124 H 0.22885 0.11256 0.84087 0.0
H125 H 0.20007 0.13331 0.76954 0.0
H126 H 0.18934 0.12691 0.88239 0.0
O127 O 0.30816 0.16615 0.05446 0.0
O128 O 0.3384 0.20632 0.98654 0.0
H129 H 0.26339 0.2655 0.79813 0.0
H130 H 0.25851 0.24086 0.69895 0.0
C131 C 0.26866 0.24118 0.76497 0.0
H132 H 0.29664 0.24025 0.76217 0.0
H133 H 0.37508 0.24213 0.81419 0.0
O134 O 0.23793 0.1229 1.04029 0.0
C135 C 0.33 0.19052 0.05478 0.0
Co136 Co 0.02031 0.88308 0.3573 0.0
Co137 Co -0.02643 0.83592 0.45636 0.0
C138 C 0.05164 0.82789 0.41935 0.0
O139 O 0.05869 0.85813 0.39831 0.0
O140 O 0.0214 0.81908 0.43933 0.0
C141 C 0.06498 0.93697 0.30329 0.0
O142 O 0.08919 0.92409 0.35142 0.0
C143 C -0.03002 0.82452 0.63657 0.0
C144 C 0.92371 0.79354 0.65341 0.0
C145 C 0.94796 0.81226 0.6983 0.0
N146 N -0.04091 0.8141 0.55928 0.0
N147 N 0.93204 0.79445 0.56993 0.0
C148 C -0.00298 0.851 0.64987 0.0
H149 H 0.01267 0.85433 0.59146 0.0
H150 H -0.01511 0.8757 0.66679 0.0
H151 H 0.01361 0.84343 0.70411 0.0
C152 C -0.00729 0.93376 0.47694 0.0
N153 N -0.00682 0.90231 0.44291 0.0
N154 N -0.03213 0.88437 0.472 0.0
C155 C 0.9476 0.90502 0.51903 0.0
C156 C -0.03837 0.93853 0.52118 0.0
C157 C 0.0263 0.94994 0.49793 0.0
H158 H 0.04707 0.93072 0.49303 0.0
H159 H 0.02637 -0.04057 0.56457 0.0
H160 H 0.03266 -0.02976 0.45173 0.0
O161 O -0.0066 0.85143 0.27978 0.0
O162 O 0.95319 0.82123 0.34768 0.0
H163 H 0.89408 0.89618 0.53618 0.0
H164 H 0.91873 0.90114 0.63534 0.0
C165 C 0.91841 0.89095 0.56937 0.0
H166 H 0.91936 0.86299 0.5723 0.0
H167 H 0.91739 0.78456 0.5201 0.0
O168 O 0.03671 0.92161 0.29387 0.0
C169 C -0.03099 0.82961 0.27946 0.0
Co170 Co 0.27655 0.77037 0.6074 0.0
Co171 Co 0.32371 0.72371 0.7067 0.0
C172 C 0.33172 0.80174 0.66951 0.0
O173 O 0.30147 0.80876 0.64834 0.0
O174 O 0.34055 0.77153 0.68959 0.0
C175 C 0.22269 0.81505 0.55313 0.0
O176 O 0.23563 0.83928 0.60105 0.0
C177 C 0.33514 0.72014 0.88692 0.0
C178 C 0.36612 0.67388 0.90375 0.0
C179 C 0.3474 0.69812 0.94864 0.0
N180 N 0.34554 0.70925 0.80962 0.0
N181 N 0.3652 0.68221 0.82027 0.0
C182 C 0.30864 0.74716 0.90023 0.0
H183 H 0.3053 0.7628 0.8418 0.0
H184 H 0.28394 0.73503 0.91722 0.0
H185 H 0.31622 0.76375 0.95443 0.0
C186 C 0.22582 0.74282 0.72703 0.0
N187 N 0.25729 0.74328 0.69306 0.0
N188 N 0.27524 0.71801 0.72234 0.0
C189 C 0.25456 0.69777 0.76943 0.0
C190 C 0.22104 0.71179 0.77143 0.0
C191 C 0.20962 0.77642 0.7478 0.0
H192 H 0.22883 0.79719 0.74264 0.0
H193 H 0.20018 0.77656 0.81449 0.0
H194 H 0.18929 0.78271 0.70163 0.0
O195 O 0.30822 0.74345 0.52997 0.0
O196 O 0.33844 0.70331 0.59806 0.0
H197 H 0.26347 0.64429 0.78675 0.0
H198 H 0.25831 0.66893 0.88583 0.0
C199 C 0.26861 0.66863 0.81995 0.0
H200 H 0.29658 0.66962 0.82314 0.0
H201 H 0.3751 0.66757 0.77042 0.0
O202 O 0.23801 0.78675 0.54392 0.0
C203 C 0.33005 0.71907 0.52976 0.0
Co204 Co 0.38908 0.02662 0.85729 0.0
Co205 Co 0.43585 0.07377 0.95623 0.0
C206 C 0.35777 0.0818 0.91935 0.0
O207 O 0.35071 0.05156 0.89831 0.0
O208 O 0.38801 0.09061 0.93927 0.0
C209 C 0.34442 -0.0273 0.8034 0.0
O210 O 0.32021 -0.01443 0.85157 0.0
C211 C 0.43947 0.08517 0.13642 0.0
C212 C 0.48575 0.11613 0.15318 0.0
C213 C 0.46151 0.09742 0.19811 0.0
N214 N 0.45035 0.09558 0.05911 0.0
N215 N 0.47741 0.11523 0.06971 0.0
C216 C 0.41243 0.05869 0.14978 0.0
H217 H 0.39677 0.05537 0.09139 0.0
H218 H 0.42456 0.03399 0.16672 0.0
H219 H 0.39585 0.06626 0.20403 0.0
C220 C 0.41671 -0.02406 0.97697 0.0
N221 N 0.41623 0.00738 0.94288 0.0
N222 N 0.44155 0.02533 0.9719 0.0
C223 C 0.46183 0.00468 1.01893 0.0
C224 C 0.4478 -0.02882 1.02116 0.0
C225 C 0.38312 -0.04024 0.99805 0.0
H226 H 0.36236 -0.02102 0.99321 0.0
H227 H 0.38308 0.95025 0.06468 0.0
H228 H 0.37674 0.93948 0.95184 0.0
O229 O 0.41598 0.05826 0.77968 0.0
O230 O 0.4562 0.08847 0.8475 0.0
H231 H 0.51536 0.01349 1.03602 0.0
H232 H 0.49071 0.0086 0.13521 0.0
C233 C 0.49104 0.01876 0.06918 0.0
H234 H 0.49011 0.04672 0.07199 0.0
H235 H 0.49205 0.12513 1.01984 0.0
O236 O 0.37268 -0.01192 0.79393 0.0
C237 C 0.44037 0.08008 0.7793 0.0
Co238 Co 0.13285 0.13938 0.10744 0.0
Co239 Co 0.08568 0.186 0.2068 0.0
C240 C 0.07768 0.10797 0.16952 0.0
O241 O 0.10793 0.10098 0.14835 0.0
O242 O 0.06884 0.13817 0.18965 0.0
C243 C 0.18668 0.0947 0.0531 0.0
O244 O 0.17371 0.07044 0.10092 0.0
C245 C 0.07424 0.18955 0.38702 0.0
C246 C 0.04326 0.2358 0.4038 0.0
C247 C 0.06198 0.21156 0.44873 0.0
N248 N 0.06384 0.20044 0.30971 0.0
N249 N 0.04418 0.22748 0.32033 0.0
C250 C 0.10074 0.16253 0.40036 0.0
H251 H 0.10409 0.1469 0.34194 0.0
H252 H 0.12544 0.17466 0.41735 0.0
H253 H 0.09316 0.14593 0.45457 0.0
C254 C 0.18359 0.1669 0.22704 0.0
N255 N 0.1521 0.16645 0.19311 0.0
N256 N 0.13415 0.1917 0.22244 0.0
C257 C 0.15484 0.21192 0.26953 0.0
C258 C 0.18836 0.19791 0.27146 0.0
C259 C 0.19979 0.13329 0.24774 0.0
H260 H 0.18059 0.11252 0.24251 0.0
H261 H 0.20921 0.13311 0.31445 0.0
H262 H 0.22013 0.12704 0.20159 0.0
O263 O 0.10118 0.16632 1.03004 0.0
O264 O 0.07095 0.20643 0.09817 0.0
H265 H 0.14589 0.2654 0.28686 0.0
H266 H 0.15114 0.24075 0.38593 0.0
C267 C 0.1408 0.24105 0.3201 0.0
H268 H 0.11284 0.24003 0.32342 0.0
H269 H 0.03428 0.24212 0.27047 0.0
O270 O 0.17139 0.12302 0.04395 0.0
C271 C 0.07934 0.19069 1.02986 0.0
Co272 Co 0.8892 0.88303 0.85712 0.0
Co273 Co 0.93589 0.83587 0.95634 0.0
C274 C 0.85783 0.82786 0.91925 0.0
O275 O 0.8508 0.85809 0.89807 0.0
O276 O 0.88805 0.81905 0.93932 0.0
C277 C 0.84457 0.93694 0.80328 0.0
O278 O 0.82039 0.92402 0.85143 0.0
C279 C 0.93951 0.8246 0.13659 0.0
C280 C -0.01423 0.79357 0.15348 0.0
C281 C -0.03842 0.8124 0.19824 0.0
N282 N 0.95035 0.8141 0.05933 0.0
N283 N -0.02261 0.79442 0.07002 0.0
C284 C 0.91249 0.8511 0.14983 0.0
H285 H 0.89682 0.8544 0.09143 0.0
H286 H 0.92463 0.8758 0.16667 0.0
H287 H 0.8959 0.84356 0.20412 0.0
C288 C 0.91679 0.9337 0.97686 0.0
N289 N 0.91631 0.90226 0.94279 0.0
N290 N 0.94162 0.88431 0.97183 0.0
C291 C -0.03808 0.90496 1.01882 0.0
C292 C 0.94788 0.93846 1.02105 0.0
C293 C 0.88319 0.94985 0.99805 0.0
H294 H 0.86244 0.9306 0.99333 0.0
H295 H 0.88318 -0.04063 0.06465 0.0
H296 H 0.87676 -0.02988 0.95183 0.0
O297 O 0.91613 0.85136 0.77965 0.0
O298 O -0.04372 0.82113 0.84773 0.0
H299 H 0.01545 0.89618 1.0359 0.0
H300 H -0.00921 0.90099 0.13509 0.0
C301 C -0.00887 0.89087 0.06905 0.0
H302 H -0.00978 0.8629 0.07177 0.0
H303 H -0.00801 0.78444 1.02019 0.0
O304 O 0.87283 0.92158 0.7937 0.0
C305 C 0.9405 0.82952 0.77944 0.0
Co306 Co 0.77653 0.13929 0.60744 0.0
Co307 Co 0.82371 0.18595 0.70664 0.0
C308 C 0.83171 0.10792 0.66952 0.0
O309 O 0.80146 0.1009 0.64841 0.0
O310 O 0.84053 0.13813 0.68957 0.0
C311 C 0.72265 0.09462 0.55326 0.0
O312 O 0.73562 0.07037 0.60111 0.0
C313 C 0.83514 0.18953 0.88686 0.0
C314 C 0.86614 0.23578 0.9036 0.0
C315 C 0.84742 0.21154 0.94855 0.0
N316 N 0.84555 0.20041 0.80954 0.0
N317 N 0.86521 0.22745 0.82013 0.0
C318 C 0.80864 0.16251 0.90022 0.0
H319 H 0.8053 0.14687 0.84182 0.0
H320 H 0.78395 0.17464 0.91719 0.0
H321 H 0.81622 0.14592 0.95445 0.0
C322 C 0.72581 0.16685 0.72704 0.0
N323 N 0.75728 0.16638 0.69308 0.0
N324 N 0.77524 0.19165 0.7223 0.0
C325 C 0.75456 0.2119 0.76935 0.0
C326 C 0.72104 0.19789 0.77138 0.0
C327 C 0.7096 0.13326 0.74786 0.0
H328 H 0.7288 0.11249 0.74274 0.0
H329 H 0.70015 0.13312 0.81454 0.0
H330 H 0.68927 0.12697 0.70169 0.0
O331 O 0.8082 0.1662 0.52996 0.0
O332 O 0.83842 0.20635 0.59797 0.0
H333 H 0.76348 0.26538 0.78659 0.0
H334 H 0.75833 0.24074 0.88571 0.0
C335 C 0.76862 0.24104 0.81982 0.0
H336 H 0.79659 0.24005 0.823 0.0
H337 H 0.87511 0.24209 0.77027 0.0
O338 O 0.73797 0.12292 0.54402 0.0
C339 C 0.83003 0.19058 0.5297 0.0
Co340 Co 0.52025 0.02667 0.35711 0.0
Co341 Co 0.47354 0.07383 0.4562 0.0
C342 C 0.55161 0.08183 0.41924 0.0
O343 O 0.55864 0.0516 0.39808 0.0
O344 O 0.52138 0.09064 0.43925 0.0
C345 C 0.56487 -0.02727 0.30339 0.0
O346 O 0.58904 -0.01437 0.35158 0.0
C347 C 0.46988 0.08509 0.63644 0.0
C348 C 0.42361 0.11611 0.65324 0.0
C349 C 0.44779 0.09728 0.69805 0.0
N350 N 0.45905 0.09559 0.55916 0.0
N351 N 0.43201 0.11527 0.56979 0.0
C352 C 0.4969 0.05859 0.64974 0.0
H353 H 0.51258 0.0553 0.59136 0.0
H354 H 0.48476 0.03389 0.6666 0.0
H355 H 0.51347 0.06613 0.70404 0.0
C356 C 0.49264 -0.024 0.4769 0.0
N357 N 0.49313 0.00744 0.44277 0.0
N358 N 0.4678 0.02539 0.47174 0.0
C359 C 0.4475 0.00474 0.51873 0.0
C360 C 0.46153 -0.02876 0.52103 0.0
C361 C 0.52623 -0.04015 0.49816 0.0
H362 H 0.54697 -0.02089 0.49352 0.0
H363 H 0.52621 0.9503 0.56476 0.0
H364 H 0.53269 0.9396 0.45195 0.0
O365 O 0.49333 0.05834 0.27956 0.0
O366 O 0.45318 0.08857 0.34754 0.0
H367 H 0.39395 0.01349 0.53574 0.0
H368 H 0.41861 0.00876 0.63496 0.0
C369 C 0.41827 0.01883 0.56887 0.0
H370 H 0.41916 0.04681 0.57145 0.0
H371 H 0.41741 0.12524 0.51993 0.0
O372 O 0.53662 -0.01189 0.29376 0.0
C373 C 0.46896 0.08018 0.27929 0.0
Co374 Co 0.63292 0.77046 0.10746 0.0
Co375 Co 0.58575 0.72376 0.20661 0.0
C376 C 0.57774 0.8018 0.16954 0.0
O377 O 0.60798 0.80884 0.14845 0.0
O378 O 0.56892 0.77158 0.18955 0.0
C379 C 0.68682 0.81512 0.05336 0.0
O380 O 0.67388 0.83935 0.10129 0.0
C381 C 0.57432 0.72016 0.38682 0.0
C382 C 0.54332 0.67392 0.40362 0.0
C383 C 0.56205 0.69815 0.44853 0.0
N384 N 0.56392 0.70928 0.30952 0.0
N385 N 0.54425 0.68225 0.32014 0.0
C386 C 0.60082 0.74718 0.40015 0.0
H387 H 0.60417 0.76283 0.34174 0.0
H388 H 0.62553 0.73505 0.41712 0.0
H389 H 0.59325 0.76377 0.45437 0.0
C390 C 0.68364 0.74287 0.2271 0.0
N391 N 0.65217 0.74334 0.19309 0.0
N392 N 0.63421 0.71806 0.22226 0.0
C393 C 0.65488 0.6978 0.26932 0.0
C394 C 0.6884 0.71181 0.27141 0.0
C395 C 0.69984 0.77646 0.24798 0.0
H396 H 0.68062 0.79722 0.24293 0.0
H397 H 0.7093 0.77656 0.31465 0.0
H398 H 0.72016 0.78278 0.2018 0.0
O399 O 0.60125 0.74356 1.02995 0.0
O400 O 0.57104 0.70338 0.09793 0.0
H401 H 0.646 0.64431 0.28655 0.0
H402 H 0.65106 0.66894 0.38567 0.0
C403 C 0.64081 0.66864 0.31974 0.0
H404 H 0.61284 0.66961 0.3228 0.0
H405 H 0.53435 0.66761 0.27029 0.0
O406 O 0.67147 0.78684 0.04404 0.0
C407 C 0.57942 0.71918 1.02967 0.0
Co408 Co 0.88922 0.02668 0.72699 0.0
Co409 Co 0.93586 0.07384 0.62763 0.0
C410 C 0.85781 0.08183 0.66489 0.0
O411 O 0.8508 0.05159 0.68609 0.0
O412 O 0.88802 0.09065 0.64477 0.0
C413 C 0.84457 -0.0272 0.78106 0.0
O414 O 0.82037 -0.01429 0.73296 0.0
C415 C 0.93941 0.08513 0.44737 0.0
C416 C -0.01435 0.11618 0.43042 0.0
C417 C -0.03853 0.09734 0.38568 0.0
N418 N 0.95028 0.09562 0.52462 0.0
N419 N -0.0227 0.11532 0.51389 0.0
C420 C 0.91241 0.05861 0.43416 0.0
H421 H 0.89676 0.05529 0.49259 0.0
H422 H 0.92456 0.03392 0.41728 0.0
H423 H 0.8958 0.06614 0.37991 0.0
C424 C 0.91677 -0.02401 0.60727 0.0
N425 N 0.91631 0.00744 0.6413 0.0
N426 N 0.9416 0.02539 0.61213 0.0
C427 C -0.03813 0.00474 0.56508 0.0
C428 C 0.94784 -0.02876 0.56296 0.0
C429 C 0.88317 -0.04017 0.58626 0.0
H430 H 0.86241 -0.02094 0.5912 0.0
H431 H 0.88309 0.95036 0.51961 0.0
H432 H 0.8768 0.93952 0.63243 0.0
O433 O 0.91616 0.05836 0.80437 0.0
O434 O -0.04372 0.0886 0.7362 0.0
H435 H 0.01538 0.0136 0.54788 0.0
H436 H -0.00928 0.00862 0.44874 0.0
C437 C -0.00896 0.01882 0.51471 0.0
H438 H -0.00991 0.04678 0.51177 0.0
H439 H -0.00809 0.1253 0.5637 0.0
O440 O 0.87286 -0.01187 0.79048 0.0
C441 C 0.94053 0.08021 0.80453 0.0
Co442 Co 0.6329 0.13926 0.4769 0.0
Co443 Co 0.58574 0.18598 0.37779 0.0
C444 C 0.57772 0.10792 0.41474 0.0
O445 O 0.60796 0.10089 0.43588 0.0
O446 O 0.5689 0.13815 0.39476 0.0
C447 C 0.6868 0.0946 0.53095 0.0
O448 O 0.67391 0.07039 0.48286 0.0
C449 C 0.57433 0.1896 0.19757 0.0
C450 C 0.54334 0.23585 0.18078 0.0
C451 C 0.56207 0.21162 0.13587 0.0
N452 N 0.56392 0.20047 0.27488 0.0
N453 N 0.54426 0.22751 0.26425 0.0
C454 C 0.60083 0.16258 0.18425 0.0
H455 H 0.60416 0.14692 0.24265 0.0
H456 H 0.62553 0.1747 0.1673 0.0
H457 H 0.59325 0.14599 0.13001 0.0
C458 C 0.68362 0.16686 0.35727 0.0
N459 N 0.65215 0.16638 0.39129 0.0
N460 N 0.6342 0.19168 0.36216 0.0
C461 C 0.65487 0.21195 0.31513 0.0
C462 C 0.68839 0.19792 0.31301 0.0
C463 C 0.69981 0.13328 0.33631 0.0
H464 H 0.68058 0.11252 0.34123 0.0
H465 H 0.7093 0.13321 0.26967 0.0
H466 H 0.72011 0.12692 0.38253 0.0
O467 O 0.60124 0.16615 0.55442 0.0
O468 O 0.57102 0.20634 0.48647 0.0
H469 H 0.64603 0.26545 0.29793 0.0
H470 H 0.65101 0.2408 0.19879 0.0
C471 C 0.6408 0.24112 0.26476 0.0
H472 H 0.61283 0.24017 0.26181 0.0
H473 H 0.53435 0.24214 0.31411 0.0
O474 O 0.67144 0.12286 0.54033 0.0
C475 C 0.57941 0.19053 0.55472 0.0
Co476 Co 0.5202 0.88302 0.22709 0.0
Co477 Co 0.47357 0.83585 0.12772 0.0
C478 C 0.55162 0.82789 0.16495 0.0
O479 O 0.55862 0.85811 0.18619 0.0
O480 O 0.52141 0.81906 0.14483 0.0
C481 C 0.56485 0.93688 0.2812 0.0
O482 O 0.58907 0.92395 0.2332 0.0
C483 C 0.47001 0.82455 0.94747 0.0
C484 C 0.42377 0.7935 0.93059 0.0
C485 C 0.44795 0.81234 0.88581 0.0
N486 N 0.45915 0.81406 1.02474 0.0
N487 N 0.43212 0.79437 1.01406 0.0
C488 C 0.49701 0.85107 0.93421 0.0
H489 H 0.51266 0.8544 0.99264 0.0
H490 H 0.48486 0.87576 0.91727 0.0
H491 H 0.51362 0.84353 0.87999 0.0
C492 C 0.49265 0.93371 0.10734 0.0
N493 N 0.49311 0.90225 0.14138 0.0
N494 N 0.46783 0.8843 0.11217 0.0
C495 C 0.44757 0.90496 0.06509 0.0
C496 C 0.46159 0.93846 0.06297 0.0
C497 C 0.52626 0.94987 0.0864 0.0
H498 H 0.54702 0.93065 0.09146 0.0
H499 H 0.52636 -0.04068 1.01971 0.0
H500 H 0.53259 -0.02981 0.13253 0.0
O501 O 0.49326 0.85132 0.30449 0.0
O502 O 0.45316 0.82108 0.23631 0.0
H503 H 0.39406 0.89607 0.04784 0.0
H504 H 0.41872 0.90113 0.94873 0.0
C505 C 0.4184 0.89089 1.01467 0.0
H506 H 0.41937 0.86293 1.01166 0.0
H507 H 0.41751 0.7844 0.06389 0.0
O508 O 0.53655 0.92156 0.29055 0.0
C509 C 0.4689 0.82947 0.30464 0.0
Co510 Co 0.77654 0.77043 0.97693 0.0
Co511 Co 0.8237 0.72372 0.87783 0.0
C512 C 0.83172 0.80177 0.91473 0.0
O513 O 0.80147 0.8088 0.93585 0.0
O514 O 0.84054 0.77155 0.89477 0.0
C515 C 0.72268 0.81512 1.03105 0.0
O516 O 0.73559 0.83934 0.98303 0.0
C517 C 0.83513 0.7201 0.69762 0.0
C518 C 0.8661 0.67384 0.68091 0.0
C519 C 0.84739 0.69807 0.63595 0.0
N520 N 0.84553 0.70923 0.77495 0.0
N521 N 0.86518 0.68217 0.76438 0.0
C522 C 0.80864 0.74713 0.68424 0.0
H523 H 0.8053 0.76278 0.74263 0.0
H524 H 0.78394 0.73501 0.66727 0.0
H525 H 0.81623 0.76371 0.63 0.0
C526 C 0.72581 0.74284 0.85736 0.0
N527 N 0.75728 0.74331 0.89136 0.0
N528 N 0.77523 0.71802 0.86219 0.0
C529 C 0.75455 0.69777 0.81515 0.0
C530 C 0.72104 0.71179 0.81306 0.0
C531 C 0.70962 0.77643 0.83647 0.0
H532 H 0.72883 0.7972 0.84151 0.0
H533 H 0.70016 0.77655 0.7698 0.0
H534 H 0.6893 0.78275 0.88264 0.0
O535 O 0.80821 0.74354 0.05446 0.0
O536 O 0.83841 0.70336 0.98654 0.0
H537 H 0.76342 0.64428 0.79797 0.0
H538 H 0.75838 0.66892 0.69883 0.0
C539 C 0.76862 0.66861 0.76476 0.0
H540 H 0.79659 0.66957 0.76172 0.0
H541 H 0.87507 0.66754 0.81426 0.0
O542 O 0.738 0.78683 1.04035 0.0
C543 C 0.83004 0.71916 0.05477 0.0
Co544 Co 0.52026 0.52665 0.72681 0.0
Co545 Co 0.47355 0.5738 0.62758 0.0
C546 C 0.5516 0.58186 0.66482 0.0
O547 O 0.55865 0.55162 0.68589 0.0
O548 O 0.52138 0.59066 0.64474 0.0
C549 C 0.56496 0.47281 0.78103 0.0
O550 O 0.58922 0.48578 0.73319 0.0
C551 C 0.47 0.58523 0.44737 0.0
C552 C 0.42372 0.61618 0.43051 0.0
C553 C 0.44798 0.59747 0.38563 0.0
N554 N 0.4591 0.59562 0.52466 0.0
N555 N 0.43204 0.61526 0.514 0.0
C556 C 0.49705 0.55875 0.43408 0.0
H557 H 0.51269 0.55542 0.49251 0.0
H558 H 0.48493 0.53405 0.41712 0.0
H559 H 0.51365 0.56633 0.37986 0.0
C560 C 0.49272 0.47595 0.60717 0.0
N561 N 0.49317 0.50741 0.64114 0.0
N562 N 0.46788 0.52535 0.61192 0.0
C563 C 0.44764 0.50467 0.56485 0.0
C564 C 0.46167 0.47117 0.56281 0.0
C565 C 0.52633 0.45977 0.58638 0.0
H566 H 0.5471 0.47897 0.59154 0.0
H567 H 0.52648 0.45034 0.5197 0.0
H568 H 0.53262 0.43943 0.63255 0.0
O569 O 0.49331 0.55829 0.80425 0.0
O570 O 0.45313 0.58849 0.73623 0.0
H571 H 0.39413 0.51356 0.54759 0.0
H572 H 0.41878 0.50844 0.44848 0.0
C573 C 0.41847 0.51872 0.51437 0.0
H574 H 0.41945 0.54667 0.5112 0.0
H575 H 0.41738 0.62515 0.56383 0.0
O576 O 0.53665 0.48812 0.79026 0.0
C577 C 0.46892 0.5801 0.8045 0.0
Co578 Co 0.63288 0.27035 0.97702 0.0
Co579 Co 0.58568 0.22372 0.87779 0.0
C580 C 0.57772 0.30176 0.91486 0.0
O581 O 0.60796 0.30876 0.93608 0.0
O582 O 0.56888 0.27156 0.89478 0.0
C583 C 0.68683 0.31495 1.03085 0.0
O584 O 0.67391 0.33914 0.98275 0.0
C585 C 0.5744 0.22007 0.69753 0.0
C586 C 0.54336 0.17382 0.68078 0.0
C587 C 0.5622 0.19798 0.63594 0.0
N588 N 0.56389 0.20925 0.77482 0.0
N589 N 0.5442 0.18222 0.76421 0.0
C590 C 0.60092 0.24706 0.68421 0.0
H591 H 0.60423 0.26274 0.74258 0.0
H592 H 0.62563 0.23492 0.66737 0.0
H593 H 0.59339 0.26363 0.6299 0.0
C594 C 0.68356 0.24277 0.85728 0.0
N595 N 0.6521 0.24326 0.89134 0.0
N596 N 0.63414 0.21797 0.86229 0.0
C597 C 0.65479 0.19767 0.81532 0.0
C598 C 0.68831 0.21168 0.81311 0.0
C599 C 0.69974 0.27634 0.83611 0.0
H600 H 0.6805 0.29709 0.84082 0.0
H601 H 0.70928 0.27635 0.7695 0.0
H602 H 0.72001 0.28276 0.88233 0.0
O603 O 0.60119 0.24344 0.0545 0.0
O604 O 0.57092 0.20334 0.98642 0.0
H605 H 0.64598 0.14416 0.79829 0.0
H606 H 0.65082 0.1688 0.69907 0.0
C607 C 0.64069 0.16848 0.76512 0.0
H608 H 0.61271 0.16939 0.7624 0.0
H609 H 0.53422 0.16765 0.81408 0.0
O610 O 0.67146 0.28669 1.0404 0.0
C611 C 0.57933 0.21909 0.05472 0.0
Co612 Co 0.88915 0.38304 0.22688 0.0
Co613 Co 0.93588 0.33589 0.12775 0.0
C614 C 0.85782 0.32785 0.1648 0.0
O615 O 0.85077 0.35808 0.18589 0.0
O616 O 0.88805 0.31905 0.14479 0.0
C617 C 0.84444 0.43688 0.28106 0.0
O618 O 0.82018 0.42391 0.23326 0.0
C619 C 0.93946 0.32445 0.94756 0.0
C620 C -0.01425 0.29352 0.93078 0.0
C621 C -0.03851 0.31221 0.88585 0.0
N622 N 0.95036 0.31407 1.02487 0.0
N623 N -0.02257 0.29444 1.01426 0.0
C624 C 0.91241 0.35092 0.93421 0.0
H625 H 0.89676 0.35426 0.99263 0.0
H626 H 0.92452 0.37562 0.9172 0.0
H627 H 0.89581 0.34333 0.88001 0.0
C628 C 0.91672 0.43374 0.10723 0.0
N629 N 0.91627 0.40228 0.14124 0.0
N630 N 0.94156 0.38434 0.11205 0.0
C631 C -0.0382 0.40502 0.06495 0.0
C632 C 0.94777 0.43852 0.06287 0.0
C633 C 0.8831 0.44992 0.08642 0.0
H634 H 0.86233 0.43071 0.09162 0.0
H635 H 0.88295 0.45934 1.01972 0.0
H636 H 0.87681 0.47025 0.13256 0.0
O637 O 0.91607 0.35139 0.30439 0.0
O638 O -0.04373 0.3212 0.23645 0.0
H639 H 0.01531 0.39613 0.0477 0.0
H640 H -0.00934 0.40125 0.94859 0.0
C641 C -0.00903 0.39097 1.01449 0.0
H642 H -0.01001 0.36302 1.01135 0.0
H643 H -0.00791 0.28456 0.06412 0.0
O644 O 0.87275 0.42158 0.29027 0.0
C645 C 0.94046 0.32957 0.30469 0.0
Co646 Co 0.77656 0.63936 0.47718 0.0
Co647 Co 0.82376 0.68599 0.37788 0.0
C648 C 0.8317 0.60794 0.41495 0.0
O649 O 0.80146 0.60095 0.43623 0.0
O650 O 0.84054 0.63814 0.39485 0.0
C651 C 0.72263 0.59476 0.53114 0.0
O652 O 0.73556 0.57056 0.4831 0.0
C653 C 0.83504 0.68963 0.19762 0.0
C654 C 0.86609 0.73587 0.18079 0.0
C655 C 0.84725 0.71171 0.13599 0.0
N656 N 0.84555 0.70046 0.2749 0.0
N657 N 0.86524 0.72748 0.26424 0.0
C658 C 0.80852 0.66264 0.18434 0.0
H659 H 0.8052 0.64697 0.24274 0.0
H660 H 0.78382 0.67478 0.16746 0.0
H661 H 0.81606 0.64606 0.13007 0.0
C662 C 0.72588 0.66695 0.35744 0.0
N663 N 0.75734 0.66646 0.3915 0.0
N664 N 0.7753 0.69175 0.36238 0.0
C665 C 0.75464 0.71203 0.31536 0.0
C666 C 0.72113 0.69802 0.31319 0.0
C667 C 0.7097 0.63337 0.33635 0.0
H668 H 0.72894 0.61262 0.34119 0.0
H669 H 0.7002 0.63333 0.26972 0.0
H670 H 0.68941 0.62697 0.38254 0.0
O671 O 0.80827 0.66625 0.55463 0.0
O672 O 0.83853 0.70635 0.4865 0.0
H673 H 0.76348 0.76554 0.29823 0.0
H674 H 0.75858 0.7409 0.19906 0.0
C675 C 0.76874 0.74122 0.26508 0.0
H676 H 0.79672 0.74029 0.26228 0.0
H677 H 0.87522 0.74206 0.31409 0.0
O678 O 0.73799 0.62302 0.54061 0.0
C679 C 0.83013 0.6906 0.55481 0.0
Co680 Co 0.52032 0.38307 0.85734 0.0
Co681 Co 0.47356 0.33591 0.95636 0.0
C682 C 0.55164 0.32788 0.91942 0.0
O683 O 0.5587 0.35812 0.89837 0.0
O684 O 0.5214 0.31907 0.93936 0.0
C685 C 0.56499 0.43696 0.80334 0.0
O686 O 0.5892 0.42409 0.85149 0.0
C687 C 0.46996 0.32451 0.13656 0.0
C688 C 0.42368 0.29354 0.15339 0.0
C689 C 0.44793 0.31226 0.19828 0.0
N690 N 0.45907 0.3141 0.05927 0.0
N691 N 0.43201 0.29445 0.06991 0.0
C692 C 0.497 0.35099 0.14987 0.0
H693 H 0.51266 0.35431 0.09146 0.0
H694 H 0.48488 0.37569 0.16678 0.0
H695 H 0.51359 0.34341 0.20411 0.0
C696 C 0.4927 0.43375 0.97696 0.0
N697 N 0.49318 0.4023 0.94292 0.0
N698 N 0.46786 0.38436 0.97199 0.0
C699 C 0.44758 0.40501 1.019 0.0
C700 C 0.46162 0.43851 1.02118 0.0
C701 C 0.52629 0.44993 0.99798 0.0
H702 H 0.54706 0.4307 0.9931 0.0
H703 H 0.52635 0.45942 0.06462 0.0
H704 H 0.53266 0.47022 0.95177 0.0
O705 O 0.49342 0.35142 0.77979 0.0
O706 O 0.45319 0.32122 0.84766 0.0
H707 H 0.39406 0.39618 1.03613 0.0
H708 H 0.41871 0.40111 0.1353 0.0
C709 C 0.41839 0.39093 0.06932 0.0
H710 H 0.41933 0.36297 0.07222 0.0
H711 H 0.41737 0.28455 1.02007 0.0
O712 O 0.53672 0.4216 0.79392 0.0
C713 C 0.46902 0.3296 0.77945 0.0
Co714 Co 0.77659 0.27031 0.10717 0.0
Co715 Co 0.82377 0.2237 0.20659 0.0
C716 C 0.83173 0.30173 0.16937 0.0
O717 O 0.8015 0.30872 0.14807 0.0
O718 O 0.84057 0.27153 0.18951 0.0
C719 C 0.7227 0.31494 0.05307 0.0
O720 O 0.73562 0.33914 0.10113 0.0
C721 C 0.83506 0.2201 0.38685 0.0
C722 C 0.8661 0.17386 0.40373 0.0
C723 C 0.84726 0.19803 0.44851 0.0
N724 N 0.84556 0.20926 0.30959 0.0
N725 N 0.86525 0.18224 0.32027 0.0
C726 C 0.80853 0.24709 0.40011 0.0
H727 H 0.80521 0.26274 0.34169 0.0
H728 H 0.78383 0.23495 0.41701 0.0
H729 H 0.81607 0.26368 0.45436 0.0
C730 C 0.72588 0.24276 0.22691 0.0
N731 N 0.75735 0.24323 0.19288 0.0
N732 N 0.7753 0.21796 0.22209 0.0
C733 C 0.75463 0.19769 0.26914 0.0
C734 C 0.72112 0.21171 0.27124 0.0
C735 C 0.70971 0.27635 0.24789 0.0
H736 H 0.72894 0.29711 0.24294 0.0
H737 H 0.70022 0.27643 0.31454 0.0
H738 H 0.6894 0.28272 0.2017 0.0
O739 O 0.80829 0.24339 1.02979 0.0
O740 O 0.83854 0.2033 0.09801 0.0
H741 H 0.76349 0.14419 0.28635 0.0
H742 H 0.7585 0.16884 0.38548 0.0
C743 C 0.76871 0.16852 0.31951 0.0
H744 H 0.79669 0.16947 0.32245 0.0
H745 H 0.87523 0.16765 0.27044 0.0
O746 O 0.73803 0.28666 0.04369 0.0
C747 C 0.83015 0.21903 1.02966 0.0
Co748 Co 0.88908 0.52663 0.35731 0.0
Co749 Co 0.93586 0.57377 0.45625 0.0
C750 C 0.85778 0.58182 0.41943 0.0
O751 O 0.85071 0.55158 0.39838 0.0
O752 O 0.88802 0.59061 0.43934 0.0
C753 C 0.8444 0.47272 0.30336 0.0
O754 O 0.82019 0.48559 0.35149 0.0
C755 C 0.93949 0.58518 0.63644 0.0
C756 C -0.01422 0.61613 0.65319 0.0
C757 C -0.03847 0.59743 0.69812 0.0
N758 N 0.95037 0.59559 0.55912 0.0
N759 N -0.02256 0.61523 0.56972 0.0
C760 C 0.91244 0.55871 0.6498 0.0
H761 H 0.89678 0.55538 0.59141 0.0
H762 H 0.92456 0.53401 0.66675 0.0
H763 H 0.89586 0.56629 0.70404 0.0
C764 C 0.91671 0.47594 0.47697 0.0
N765 N 0.91623 0.50739 0.44289 0.0
N766 N 0.94155 0.52533 0.47192 0.0
C767 C -0.03817 0.50467 0.51896 0.0
C768 C 0.9478 0.47118 0.52118 0.0
C769 C 0.88311 0.45976 0.498 0.0
H770 H 0.86235 0.47899 0.4931 0.0
H771 H 0.88305 0.45027 0.56465 0.0
H772 H 0.87675 0.43947 0.45181 0.0
O773 O 0.91597 0.55828 0.27971 0.0
O774 O -0.0438 0.58847 0.34751 0.0
H775 H 0.01536 0.5135 0.53605 0.0
H776 H -0.00928 0.50858 0.63524 0.0
C777 C -0.00897 0.51875 0.56923 0.0
H778 H -0.0099 0.54671 0.57209 0.0
H779 H -0.00792 0.62511 0.51985 0.0
O780 O 0.87267 0.48809 0.29394 0.0
C781 C 0.94036 0.58009 0.27932 0.0
Co782 Co 0.63286 0.63938 0.60731 0.0
Co783 Co 0.58567 0.68601 0.7066 0.0
C784 C 0.57769 0.60797 0.66945 0.0
O785 O 0.60793 0.60098 0.64824 0.0
O786 O 0.56885 0.63817 0.68955 0.0
C787 C 0.68676 0.59476 0.55335 0.0
O788 O 0.67385 0.57057 0.60148 0.0
C789 C 0.57439 0.68965 0.88686 0.0
C790 C 0.54337 0.7359 0.90364 0.0
C791 C 0.56221 0.71173 0.94847 0.0
N792 N 0.56388 0.70047 0.80958 0.0
N793 N 0.5442 0.7275 0.8202 0.0
C794 C 0.6009 0.66264 0.90017 0.0
H795 H 0.60421 0.64697 0.84179 0.0
H796 H 0.62561 0.67477 0.91702 0.0
H797 H 0.59336 0.64606 0.95447 0.0
C798 C 0.68355 0.66694 0.72706 0.0
N799 N 0.65209 0.66646 0.693 0.0
N800 N 0.63413 0.69175 0.72211 0.0
C801 C 0.65479 0.71202 0.76911 0.0
C802 C 0.68831 0.69801 0.7713 0.0
C803 C 0.69972 0.63335 0.74814 0.0
H804 H 0.68048 0.6126 0.74331 0.0
H805 H 0.70923 0.6333 0.81478 0.0
H806 H 0.72001 0.62696 0.70195 0.0
O807 O 0.60117 0.66631 0.52986 0.0
O808 O 0.57091 0.7064 0.59799 0.0
H809 H 0.64598 0.76553 0.78618 0.0
H810 H 0.65085 0.74089 0.88538 0.0
C811 C 0.6407 0.74121 0.81936 0.0
H812 H 0.61273 0.7403 0.82214 0.0
H813 H 0.53423 0.74209 0.77034 0.0
O814 O 0.67142 0.62303 0.54388 0.0
C815 C 0.57931 0.69067 0.52968 0.0
Co816 Co 0.38919 0.38303 0.35714 0.0
Co817 Co 0.43589 0.33587 0.45633 0.0
C818 C 0.35782 0.32787 0.41931 0.0
O819 O 0.35079 0.3581 0.39813 0.0
O820 O 0.38805 0.31905 0.43935 0.0
C821 C 0.34455 0.43694 0.30329 0.0
O822 O 0.32037 0.42402 0.35144 0.0
C823 C 0.43952 0.32459 0.63658 0.0
C824 C 0.48579 0.29357 0.65345 0.0
C825 C 0.4616 0.3124 0.69822 0.0
N826 N 0.45036 0.31409 0.55931 0.0
N827 N 0.4774 0.29442 0.56999 0.0
C828 C 0.4125 0.35109 0.64983 0.0
H829 H 0.39683 0.3544 0.59144 0.0
H830 H 0.42464 0.37579 0.66668 0.0
H831 H 0.39592 0.34355 0.70412 0.0
C832 C 0.41679 0.4337 0.47687 0.0
N833 N 0.41631 0.40226 0.44278 0.0
N834 N 0.44163 0.38431 0.47182 0.0
C835 C 0.46192 0.40496 0.5188 0.0
C836 C 0.44789 0.43846 0.52104 0.0
C837 C 0.3832 0.44984 0.49805 0.0
H838 H 0.36245 0.4306 0.49333 0.0
H839 H 0.38319 0.45937 0.56466 0.0
H840 H 0.37676 0.47011 0.45184 0.0
O841 O 0.41611 0.35135 0.27966 0.0
O842 O 0.45626 0.32112 0.3477 0.0
H843 H 0.51546 0.39618 0.53588 0.0
H844 H 0.4908 0.40097 0.63508 0.0
C845 C 0.49113 0.39087 0.56902 0.0
H846 H 0.49023 0.3629 0.57171 0.0
H847 H 0.492 0.28445 0.52016 0.0
O848 O 0.37282 0.42158 0.29373 0.0
C849 C 0.44048 0.32951 0.27942 0.0
Co850 Co 0.27656 0.63935 0.10731 0.0
Co851 Co 0.32375 0.68595 0.20669 0.0
C852 C 0.33171 0.60792 0.16946 0.0
O853 O 0.30147 0.60093 0.14822 0.0
O854 O 0.34054 0.63812 0.1896 0.0
C855 C 0.22265 0.59473 0.05325 0.0
O856 O 0.23562 0.57051 0.10119 0.0
C857 C 0.33506 0.68954 0.38695 0.0
C858 C 0.36612 0.73577 0.40375 0.0
C859 C 0.34727 0.71161 0.44858 0.0
N860 N 0.34555 0.70038 0.30967 0.0
N861 N 0.36526 0.7274 0.3203 0.0
C862 C 0.30852 0.66256 0.40026 0.0
H863 H 0.3052 0.6469 0.34186 0.0
H864 H 0.28383 0.67471 0.41714 0.0
H865 H 0.31606 0.64597 0.45453 0.0
C866 C 0.22585 0.6669 0.22701 0.0
N867 N 0.25733 0.66642 0.19302 0.0
N868 N 0.27529 0.69169 0.2222 0.0
C869 C 0.25462 0.71196 0.26922 0.0
C870 C 0.2211 0.69795 0.27131 0.0
C871 C 0.20966 0.63331 0.24799 0.0
H872 H 0.22889 0.61255 0.24303 0.0
H873 H 0.20018 0.63323 0.31464 0.0
H874 H 0.18935 0.62697 0.20181 0.0
O875 O 0.30826 0.66628 1.02991 0.0
O876 O 0.33852 0.70636 0.0981 0.0
H877 H 0.2635 0.76545 0.28639 0.0
H878 H 0.25848 0.74081 0.38554 0.0
C879 C 0.2687 0.74112 0.31959 0.0
H880 H 0.29667 0.74016 0.32257 0.0
H881 H 0.37523 0.74198 0.27045 0.0
O882 O 0.23799 0.62302 0.04387 0.0
C883 C 0.33012 0.69064 1.02976 0.0
Co884 Co 0.02026 0.52667 0.85712 0.0
Co885 Co -0.02647 0.57382 0.95622 0.0
C886 C 0.05161 0.58183 0.91932 0.0
O887 O 0.05865 0.5516 0.89813 0.0
O888 O 0.02138 0.59063 0.93931 0.0
C889 C 0.0649 0.47275 0.80332 0.0
O890 O 0.08909 0.48566 0.85144 0.0
C891 C -0.03013 0.5851 0.13646 0.0
C892 C 0.9236 0.6161 0.15324 0.0
C893 C 0.94778 0.59728 0.19806 0.0
N894 N -0.04096 0.59559 0.05917 0.0
N895 N 0.93199 0.61526 0.06979 0.0
C896 C -0.0031 0.55861 0.14977 0.0
H897 H 0.01257 0.5553 0.09139 0.0
H898 H -0.01523 0.5339 0.16665 0.0
H899 H 0.01348 0.56616 0.20405 0.0
C900 C -0.00735 0.476 0.97688 0.0
N901 N -0.00687 0.50744 0.94276 0.0
N902 N -0.0322 0.52538 0.97176 0.0
C903 C 0.94751 0.50473 1.01876 0.0
C904 C -0.03845 0.47123 1.02105 0.0
C905 C 0.02624 0.45985 0.99808 0.0
H906 H 0.04699 0.4791 0.99333 0.0
H907 H 0.02625 0.45032 0.0647 0.0
H908 H 0.03268 0.43958 0.95188 0.0
O909 O -0.00665 0.55834 0.77958 0.0
O910 O 0.95318 0.58856 0.84755 0.0
H911 H 0.89397 0.5135 1.0358 0.0
H912 H 0.91862 0.50872 0.13502 0.0
C913 C 0.91829 0.51882 0.06894 0.0
H914 H 0.91918 0.54679 0.07158 0.0
H915 H 0.9174 0.62522 1.01993 0.0
O916 O 0.03664 0.48811 0.79376 0.0
C917 C -0.03102 0.58018 0.7793 0.0
Co918 Co 0.13285 0.27034 0.60723 0.0
Co919 Co 0.08566 0.22376 0.70674 0.0
C920 C 0.07771 0.30178 0.66942 0.0
O921 O 0.10795 0.30877 0.64809 0.0
O922 O 0.06888 0.27158 0.68961 0.0
C923 C 0.18673 0.31497 0.55301 0.0
O924 O 0.17376 0.3392 0.60086 0.0
C925 C 0.07434 0.2202 0.88701 0.0
C926 C 0.04325 0.174 0.90391 0.0
C927 C 0.0621 0.19816 0.94869 0.0
N928 N 0.06385 0.20935 0.80975 0.0
N929 N 0.04413 0.18235 0.82044 0.0
C930 C 0.10088 0.24718 0.90026 0.0
H931 H 0.10423 0.26282 0.84182 0.0
H932 H 0.12557 0.23502 0.91719 0.0
H933 H 0.09335 0.26379 0.95448 0.0
C934 C 0.18356 0.24281 0.72693 0.0
N935 N 0.15208 0.24327 0.69296 0.0
N936 N 0.13412 0.21801 0.72226 0.0
C937 C 0.1548 0.19777 0.76933 0.0
C938 C 0.18832 0.21177 0.77133 0.0
C939 C 0.19975 0.2764 0.74777 0.0
H940 H 0.18054 0.29716 0.74268 0.0
H941 H 0.20921 0.27652 0.81445 0.0
H942 H 0.22008 0.28271 0.70161 0.0
O943 O 0.10113 0.2434 0.52989 0.0
O944 O 0.07088 0.20334 0.59819 0.0
H945 H 0.14587 0.14428 0.78665 0.0
H946 H 0.15102 0.16893 0.88573 0.0
C947 C 0.14073 0.16863 0.81984 0.0
H948 H 0.11276 0.16962 0.82299 0.0
H949 H 0.03415 0.16775 0.77062 0.0
O950 O 0.17141 0.28667 0.54373 0.0
C951 C 0.07927 0.21905 0.52981 0.0
Co952 Co 0.3892 0.52667 0.22697 0.0
Co953 Co 0.43585 0.57383 0.12763 0.0
C954 C 0.3578 0.58182 0.16484 0.0
O955 O 0.35078 0.55159 0.18604 0.0
O956 O 0.38802 0.59063 0.14474 0.0
C957 C 0.34455 0.47279 0.28106 0.0
O958 O 0.32035 0.4857 0.23296 0.0
C959 C 0.43942 0.58512 0.94736 0.0
C960 C 0.48566 0.61617 0.93043 0.0
C961 C 0.46147 0.59733 0.88568 0.0
N962 N 0.45028 0.59561 1.02461 0.0
N963 N 0.4773 0.61531 1.0139 0.0
C964 C 0.41241 0.5586 0.93414 0.0
H965 H 0.39676 0.55528 0.99257 0.0
H966 H 0.42456 0.53391 0.91726 0.0
H967 H 0.3958 0.56613 0.87989 0.0
C968 C 0.41676 0.47598 0.10726 0.0
N969 N 0.41629 0.50743 0.14129 0.0
N970 N 0.44159 0.52538 0.11212 0.0
C971 C 0.46185 0.50472 0.06508 0.0
C972 C 0.44783 0.47122 0.06296 0.0
C973 C 0.38316 0.45981 0.08627 0.0
H974 H 0.36239 0.47904 0.09123 0.0
H975 H 0.38307 0.45035 1.01961 0.0
H976 H 0.37679 0.43951 0.13244 0.0
O977 O 0.41614 0.55836 0.30436 0.0
O978 O 0.45627 0.58858 0.2362 0.0
H979 H 0.51537 0.51359 0.04789 0.0
H980 H 0.49072 0.50859 0.94875 0.0
C981 C 0.49103 0.5188 1.01471 0.0
H982 H 0.49008 0.54676 1.01174 0.0
H983 H 0.49191 0.62528 0.06372 0.0
O984 O 0.37284 0.48813 0.29047 0.0
C985 C 0.44051 0.5802 0.30452 0.0
Co986 Co 0.13285 0.63932 0.97712 0.0
Co987 Co 0.08568 0.68599 0.87787 0.0
C988 C 0.07771 0.60793 0.91486 0.0
O989 O 0.10794 0.60092 0.93613 0.0
O990 O 0.06888 0.63815 0.89481 0.0
C991 C 0.18679 0.59471 1.03102 0.0
O992 O 0.17391 0.57054 0.9828 0.0
C993 C 0.07441 0.68964 0.69761 0.0
C994 C 0.04336 0.73588 0.68077 0.0
C995 C 0.06221 0.71171 0.63598 0.0
N996 N 0.0639 0.70046 0.77488 0.0
N997 N 0.04421 0.72748 0.76423 0.0
C998 C 0.10093 0.66265 0.68433 0.0
H999 H 0.10425 0.64698 0.74272 0.0
H1000 H 0.12564 0.67479 0.66747 0.0
H1001 H 0.0934 0.64607 0.63005 0.0
C1002 C 0.18356 0.66692 0.85739 0.0
N1003 N 0.1521 0.66643 0.89146 0.0
N1004 N 0.13414 0.69173 0.86239 0.0
C1005 C 0.1548 0.71202 0.8154 0.0
C1006 C 0.18831 0.698 0.81319 0.0
C1007 C 0.19972 0.63334 0.83624 0.0
H1008 H 0.18047 0.6126 0.84095 0.0
H1009 H 0.20926 0.63334 0.76964 0.0
H1010 H 0.21999 0.62691 0.88247 0.0
O1011 O 0.10116 0.66622 0.05459 0.0
O1012 O 0.07091 0.70634 0.98649 0.0
H1013 H 0.14601 0.76554 0.7983 0.0
H1014 H 0.15082 0.74089 0.69912 0.0
C1015 C 0.1407 0.74122 0.76517 0.0
H1016 H 0.11272 0.74032 0.76248 0.0
H1017 H 0.03422 0.74206 0.81407 0.0
O1018 O 0.17141 0.62295 1.04056 0.0
C1019 C 0.0793 0.69058 0.05479 0.0
Co1020 Co 0.02023 0.38302 0.72704 0.0
Co1021 Co -0.02645 0.33586 0.62779 0.0
C1022 C 0.05162 0.32789 0.66485 0.0
O1023 O 0.05865 0.35811 0.68605 0.0
O1024 O 0.0214 0.31907 0.64481 0.0
C1025 C 0.06489 0.4369 0.78109 0.0
O1026 O 0.0891 0.42399 0.73304 0.0
C1027 C -0.03003 0.32456 0.44755 0.0
C1028 C 0.92371 0.29353 0.4307 0.0
C1029 C 0.9479 0.31235 0.38591 0.0
N1030 N -0.04089 0.31408 0.52483 0.0
N1031 N 0.93208 0.29439 0.51416 0.0
C1032 C -0.00302 0.35107 0.43427 0.0
H1033 H 0.01263 0.3544 0.49269 0.0
H1034 H -0.01517 0.37576 0.41734 0.0
H1035 H 0.01358 0.34352 0.38004 0.0
C1036 C -0.00735 0.43371 0.60731 0.0
N1037 N -0.00689 0.40226 0.64139 0.0
N1038 N -0.03218 0.38431 0.61225 0.0
C1039 C 0.94755 0.40497 0.56518 0.0
C1040 C -0.03842 0.43847 0.563 0.0
C1041 C 0.02626 0.44987 0.58631 0.0
H1042 H 0.04702 0.43064 0.59131 0.0
H1043 H 0.02634 0.45932 0.51964 0.0
H1044 H 0.03262 0.47018 0.63245 0.0
O1045 O -0.00668 0.35132 0.8045 0.0
O1046 O 0.95317 0.3211 0.73642 0.0
H1047 H 0.89403 0.3961 0.54799 0.0
H1048 H 0.91869 0.40109 0.44885 0.0
C1049 C 0.91837 0.39089 0.51482 0.0
H1050 H 0.91932 0.36293 0.5119 0.0
H1051 H 0.91747 0.28443 0.56401 0.0
O1052 O 0.0366 0.42156 0.79048 0.0
C1053 C -0.03105 0.32948 0.80471 0.0
Co1054 Co 0.27655 0.2704 0.47701 0.0
Co1055 Co 0.32373 0.22372 0.37786 0.0
C1056 C 0.33172 0.30177 0.41481 0.0
O1057 O 0.30148 0.30879 0.43602 0.0
O1058 O 0.34054 0.27155 0.39479 0.0
C1059 C 0.22259 0.315 0.53078 0.0
O1060 O 0.23546 0.33916 0.48248 0.0
C1061 C 0.33499 0.22005 0.1976 0.0
C1062 C 0.36604 0.17381 0.18085 0.0
C1063 C 0.34719 0.19796 0.13601 0.0
N1064 N 0.3455 0.20924 0.27489 0.0
N1065 N 0.36519 0.18221 0.26429 0.0
C1066 C 0.30847 0.24705 0.18427 0.0
H1067 H 0.30517 0.26273 0.24263 0.0
H1068 H 0.28376 0.2349 0.16745 0.0
H1069 H 0.31601 0.26361 0.12995 0.0
C1070 C 0.22585 0.2428 0.3573 0.0
N1071 N 0.25731 0.2433 0.39137 0.0
N1072 N 0.27527 0.21799 0.36237 0.0
C1073 C 0.25461 0.19768 0.31544 0.0
C1074 C 0.2211 0.2117 0.31319 0.0
C1075 C 0.20968 0.27637 0.33605 0.0
H1076 H 0.22893 0.29711 0.34062 0.0
H1077 H 0.2001 0.27634 0.26947 0.0
H1078 H 0.18943 0.28282 0.38231 0.0
O1079 O 0.30823 0.24348 0.55453 0.0
O1080 O 0.33848 0.20336 0.4865 0.0
H1081 H 0.26337 0.14416 0.29845 0.0
H1082 H 0.25863 0.16881 0.19921 0.0
C1083 C 0.26871 0.16847 0.2653 0.0
H1084 H 0.29669 0.16936 0.26269 0.0
H1085 H 0.37518 0.16764 0.31416 0.0
O1086 O 0.23799 0.28676 0.5404 0.0
C1087 C 0.33008 0.21912 0.55478 0.0
loop_
_geom_bond_atom_site_label_1
_geom_bond_atom_site_label_2
_geom_bond_distance
_geom_bond_site_symmetry_2
_ccdc_geom_bond_type
Co0 O3 1.970 . S
Co0 N17 1.989 . S
Co0 O25 1.967 . S
Co0 O32 1.920 . S
Co1 O4 1.966 . S
Co1 N10 2.022 1_554 S
Co1 N18 1.993 . S
Co1 O26 1.941 1_455 S
C2 O3 1.258 . S
C2 O4 1.263 . S
O3 Co0 1.970 . S
O3 C2 1.258 . S
O4 Co1 1.966 . S
O4 C2 1.263 . S
C5 O6 1.235 . S
C5 O32 1.289 . S
O6 C5 1.235 . S
C7 C9 1.400 1_455 S
C7 N10 1.351 . S
C7 C12 1.501 . S
C8 C9 1.387 . S
C8 N11 1.341 . S
C9 C7 1.400 1_655 S
C9 C8 1.387 . S
N10 Co1 2.022 1_556 S
N10 C7 1.351 . S
N10 N11 1.365 1_455 S
N11 C8 1.341 . S
N11 N10 1.365 1_655 S
N11 H31 0.862 . S
C12 C7 1.501 . S
C12 H13 0.961 . S
C12 H14 0.961 . S
C12 H15 0.960 . S
H13 C12 0.961 . S
H14 C12 0.961 . S
H15 C12 0.960 . S
C16 N17 1.342 . S
C16 C20 1.401 1_554 S
C16 C21 1.499 1_545 S
N17 Co0 1.989 . S
N17 C16 1.342 . S
N17 N18 1.388 . S
N18 Co1 1.993 . S
N18 N17 1.388 . S
N18 C19 1.346 1_554 S
C19 N18 1.346 1_556 S
C19 C20 1.396 . S
C19 C29 1.510 1_455 S
C20 C16 1.401 1_556 S
C20 C19 1.396 . S
C21 C16 1.499 1_565 S
C21 H22 0.959 . S
C21 H23 0.960 . S
C21 H24 0.961 . S
H22 C21 0.959 . S
H23 C21 0.960 . S
H24 C21 0.961 . S
O25 Co0 1.967 . S
O25 C33 1.258 . S
O26 Co1 1.941 1_655 S
O26 C33 1.266 1_655 S
H27 C29 0.959 . S
H28 C29 0.961 1_455 S
C29 C19 1.510 1_655 S
C29 H27 0.959 . S
C29 H28 0.961 1_655 S
C29 H30 0.960 . S
H30 C29 0.960 . S
H31 N11 0.862 . S
O32 Co0 1.920 . S
O32 C5 1.289 . S
C33 O25 1.258 . S
C33 O26 1.266 1_455 S
Co34 O37 1.970 . S
Co34 N51 1.989 . S
Co34 O59 1.967 . S
Co34 O66 1.920 . S
Co35 O38 1.966 . S
Co35 N44 2.022 . S
Co35 N52 1.993 . S
Co35 O60 1.941 . S
C36 O37 1.258 . S
C36 O38 1.263 . S
O37 Co34 1.970 . S
O37 C36 1.258 . S
O38 Co35 1.966 . S
O38 C36 1.263 . S
C39 O40 1.235 . S
C39 O66 1.289 . S
O40 C39 1.235 . S
C41 C43 1.400 . S
C41 N44 1.351 . S
C41 C46 1.501 . S
C42 C43 1.387 . S
C42 N45 1.341 . S
C43 C41 1.400 . S
C43 C42 1.387 . S
N44 Co35 2.022 . S
N44 C41 1.351 . S
N44 N45 1.365 . S
N45 C42 1.341 . S
N45 N44 1.365 . S
N45 H65 0.862 . S
C46 C41 1.501 . S
C46 H47 0.961 . S
C46 H48 0.961 . S
C46 H49 0.960 . S
H47 C46 0.961 . S
H48 C46 0.961 . S
H49 C46 0.960 . S
C50 N51 1.342 . S
C50 C54 1.401 . S
C50 C55 1.499 . S
N51 Co34 1.989 . S
N51 C50 1.342 . S
N51 N52 1.388 . S
N52 Co35 1.993 . S
N52 N51 1.388 . S
N52 C53 1.346 . S
C53 N52 1.346 . S
C53 C54 1.396 . S
C53 C63 1.510 . S
C54 C50 1.401 . S
C54 C53 1.396 . S
C55 C50 1.499 . S
C55 H56 0.959 . S
C55 H57 0.960 . S
C55 H58 0.961 . S
H56 C55 0.959 . S
H57 C55 0.960 . S
H58 C55 0.961 . S
O59 Co34 1.967 . S
O59 C67 1.258 . S
O60 Co35 1.941 . S
O60 C67 1.266 . S
H61 C63 0.959 . S
H62 C63 0.961 . S
C63 C53 1.510 . S
C63 H61 0.959 . S
C63 H62 0.961 . S
C63 H64 0.960 . S
H64 C63 0.960 . S
H65 N45 0.862 . S
O66 Co34 1.920 . S
O66 C39 1.289 . S
C67 O59 1.258 . S
C67 O60 1.266 . S
Co68 O71 1.970 . S
Co68 N85 1.989 . S
Co68 O93 1.967 . S
Co68 O100 1.920 . S
Co69 O72 1.966 . S
Co69 N78 2.022 . S
Co69 N86 1.993 . S
Co69 O94 1.941 . S
C70 O71 1.258 . S
C70 O72 1.263 . S
O71 Co68 1.970 . S
O71 C70 1.258 . S
O72 Co69 1.966 . S
O72 C70 1.263 . S
C73 O74 1.235 . S
C73 O100 1.289 . S
O74 C73 1.235 . S
C75 C77 1.400 . S
C75 N78 1.351 . S
C75 C80 1.501 . S
C76 C77 1.387 . S
C76 N79 1.341 . S
C77 C75 1.400 . S
C77 C76 1.387 . S
N78 Co69 2.022 . S
N78 C75 1.351 . S
N78 N79 1.365 . S
N79 C76 1.341 . S
N79 N78 1.365 . S
N79 H99 0.862 . S
C80 C75 1.501 . S
C80 H81 0.961 . S
C80 H82 0.961 . S
C80 H83 0.960 . S
H81 C80 0.961 . S
H82 C80 0.961 . S
H83 C80 0.960 . S
C84 N85 1.342 . S
C84 C88 1.401 . S
C84 C89 1.499 1_565 S
N85 Co68 1.989 . S
N85 C84 1.342 . S
N85 N86 1.388 . S
N86 Co69 1.993 . S
N86 N85 1.388 . S
N86 C87 1.346 . S
C87 N86 1.346 . S
C87 C88 1.396 . S
C87 C97 1.510 . S
C88 C84 1.401 . S
C88 C87 1.396 . S
C89 C84 1.499 1_545 S
C89 H90 0.959 . S
C89 H91 0.960 . S
C89 H92 0.961 . S
H90 C89 0.959 . S
H91 C89 0.960 . S
H92 C89 0.961 . S
O93 Co68 1.967 . S
O93 C101 1.258 . S
O94 Co69 1.941 . S
O94 C101 1.266 . S
H95 C97 0.959 . S
H96 C97 0.961 . S
C97 C87 1.510 . S
C97 H95 0.959 . S
C97 H96 0.961 . S
C97 H98 0.960 . S
H98 C97 0.960 . S
H99 N79 0.862 . S
O100 Co68 1.920 . S
O100 C73 1.289 . S
C101 O93 1.258 . S
C101 O94 1.266 . S
Co102 O105 1.970 . S
Co102 N119 1.989 . S
Co102 O127 1.967 . S
Co102 O134 1.920 . S
Co103 O106 1.966 . S
Co103 N112 2.022 . S
Co103 N120 1.993 . S
Co103 O128 1.941 . S
C104 O105 1.258 . S
C104 O106 1.263 . S
O105 Co102 1.970 . S
O105 C104 1.258 . S
O106 Co103 1.966 . S
O106 C104 1.263 . S
C107 O108 1.235 . S
C107 O134 1.289 . S
O108 C107 1.235 . S
C109 C111 1.400 . S
C109 N112 1.351 . S
C109 C114 1.501 . S
C110 C111 1.387 . S
C110 N113 1.341 . S
C111 C109 1.400 . S
C111 C110 1.387 . S
N112 Co103 2.022 . S
N112 C109 1.351 . S
N112 N113 1.365 . S
N113 C110 1.341 . S
N113 N112 1.365 . S
N113 H133 0.862 . S
C114 C109 1.501 . S
C114 H115 0.961 . S
C114 H116 0.961 . S
C114 H117 0.960 . S
H115 C114 0.961 . S
H116 C114 0.961 . S
H117 C114 0.960 . S
C118 N119 1.342 . S
C118 C122 1.401 . S
C118 C123 1.499 . S
N119 Co102 1.989 . S
N119 C118 1.342 . S
N119 N120 1.388 . S
N120 Co103 1.993 . S
N120 N119 1.388 . S
N120 C121 1.346 . S
C121 N120 1.346 . S
C121 C122 1.396 . S
C121 C131 1.510 . S
C122 C118 1.401 . S
C122 C121 1.396 . S
C123 C118 1.499 . S
C123 H124 0.959 . S
C123 H125 0.960 . S
C123 H126 0.961 . S
H124 C123 0.959 . S
H125 C123 0.960 . S
H126 C123 0.961 . S
O127 Co102 1.967 . S
O127 C135 1.258 . S
O128 Co103 1.941 . S
O128 C135 1.266 . S
H129 C131 0.959 . S
H130 C131 0.961 . S
C131 C121 1.510 . S
C131 H129 0.959 . S
C131 H130 0.961 . S
C131 H132 0.960 . S
H132 C131 0.960 . S
H133 N113 0.862 . S
O134 Co102 1.920 . S
O134 C107 1.289 . S
C135 O127 1.258 . S
C135 O128 1.266 . S
Co136 O139 1.970 . S
Co136 N153 1.989 . S
Co136 O161 1.967 . S
Co136 O168 1.920 . S
Co137 O140 1.966 . S
Co137 N146 2.022 . S
Co137 N154 1.993 . S
Co137 O162 1.941 1_455 S
C138 O139 1.258 . S
C138 O140 1.263 . S
O139 Co136 1.970 . S
O139 C138 1.258 . S
O140 Co137 1.966 . S
O140 C138 1.263 . S
C141 O142 1.235 . S
C141 O168 1.289 . S
O142 C141 1.235 . S
C143 C145 1.400 1_455 S
C143 N146 1.351 . S
C143 C148 1.501 . S
C144 C145 1.387 . S
C144 N147 1.341 . S
C145 C143 1.400 1_655 S
C145 C144 1.387 . S
N146 Co137 2.022 . S
N146 C143 1.351 . S
N146 N147 1.365 1_455 S
N147 C144 1.341 . S
N147 N146 1.365 1_655 S
N147 H167 0.862 . S
C148 C143 1.501 . S
C148 H149 0.961 . S
C148 H150 0.961 . S
C148 H151 0.960 . S
H149 C148 0.961 . S
H150 C148 0.961 . S
H151 C148 0.960 . S
C152 N153 1.342 . S
C152 C156 1.401 . S
C152 C157 1.499 1_565 S
N153 Co136 1.989 . S
N153 C152 1.342 . S
N153 N154 1.388 . S
N154 Co137 1.993 . S
N154 N153 1.388 . S
N154 C155 1.346 . S
C155 N154 1.346 . S
C155 C156 1.396 . S
C155 C165 1.510 1_455 S
C156 C152 1.401 . S
C156 C155 1.396 . S
C157 C152 1.499 1_545 S
C157 H158 0.959 . S
C157 H159 0.960 . S
C157 H160 0.961 . S
H158 C157 0.959 . S
H159 C157 0.960 . S
H160 C157 0.961 . S
O161 Co136 1.967 . S
O161 C169 1.258 . S
O162 Co137 1.941 1_655 S
O162 C169 1.266 1_655 S
H163 C165 0.959 . S
H164 C165 0.961 1_455 S
C165 C155 1.510 1_655 S
C165 H163 0.959 . S
C165 H164 0.961 1_655 S
C165 H166 0.960 . S
H166 C165 0.960 . S
H167 N147 0.862 . S
O168 Co136 1.920 . S
O168 C141 1.289 . S
C169 O161 1.258 . S
C169 O162 1.266 1_455 S
Co170 O173 1.970 . S
Co170 N187 1.989 . S
Co170 O195 1.967 . S
Co170 O202 1.920 . S
Co171 O174 1.966 . S
Co171 N180 2.022 . S
Co171 N188 1.993 . S
Co171 O196 1.941 . S
C172 O173 1.258 . S
C172 O174 1.263 . S
O173 Co170 1.970 . S
O173 C172 1.258 . S
O174 Co171 1.966 . S
O174 C172 1.263 . S
C175 O176 1.235 . S
C175 O202 1.289 . S
O176 C175 1.235 . S
C177 C179 1.400 . S
C177 N180 1.351 . S
C177 C182 1.501 . S
C178 C179 1.387 . S
C178 N181 1.341 . S
C179 C177 1.400 . S
C179 C178 1.387 . S
N180 Co171 2.022 . S
N180 C177 1.351 . S
N180 N181 1.365 . S
N181 C178 1.341 . S
N181 N180 1.365 . S
N181 H201 0.862 . S
C182 C177 1.501 . S
C182 H183 0.961 . S
C182 H184 0.961 . S
C182 H185 0.960 . S
H183 C182 0.961 . S
H184 C182 0.961 . S
H185 C182 0.960 . S
C186 N187 1.342 . S
C186 C190 1.401 . S
C186 C191 1.499 . S
N187 Co170 1.989 . S
N187 C186 1.342 . S
N187 N188 1.388 . S
N188 Co171 1.993 . S
N188 N187 1.388 . S
N188 C189 1.346 . S
C189 N188 1.346 . S
C189 C190 1.396 . S
C189 C199 1.510 . S
C190 C186 1.401 . S
C190 C189 1.396 . S
C191 C186 1.499 . S
C191 H192 0.959 . S
C191 H193 0.960 . S
C191 H194 0.961 . S
H192 C191 0.959 . S
H193 C191 0.960 . S
H194 C191 0.961 . S
O195 Co170 1.967 . S
O195 C203 1.258 . S
O196 Co171 1.941 . S
O196 C203 1.266 . S
H197 C199 0.959 . S
H198 C199 0.961 . S
C199 C189 1.510 . S
C199 H197 0.959 . S
C199 H198 0.961 . S
C199 H200 0.960 . S
H200 C199 0.960 . S
H201 N181 0.862 . S
O202 Co170 1.920 . S
O202 C175 1.289 . S
C203 O195 1.258 . S
C203 O196 1.266 . S
Co204 O207 1.970 . S
Co204 N221 1.989 . S
Co204 O229 1.967 . S
Co204 O236 1.920 . S
Co205 O208 1.966 . S
Co205 N214 2.022 1_556 S
Co205 N222 1.993 . S
Co205 O230 1.941 . S
C206 O207 1.258 . S
C206 O208 1.263 . S
O207 Co204 1.970 . S
O207 C206 1.258 . S
O208 Co205 1.966 . S
O208 C206 1.263 . S
C209 O210 1.235 . S
C209 O236 1.289 . S
O210 C209 1.235 . S
C211 C213 1.400 . S
C211 N214 1.351 . S
C211 C216 1.501 . S
C212 C213 1.387 . S
C212 N215 1.341 . S
C213 C211 1.400 . S
C213 C212 1.387 . S
N214 Co205 2.022 1_554 S
N214 C211 1.351 . S
N214 N215 1.365 . S
N215 C212 1.341 . S
N215 N214 1.365 . S
N215 H235 0.862 . S
C216 C211 1.501 . S
C216 H217 0.961 . S
C216 H218 0.961 . S
C216 H219 0.960 . S
H217 C216 0.961 . S
H218 C216 0.961 . S
H219 C216 0.960 . S
C220 N221 1.342 . S
C220 C224 1.401 1_556 S
C220 C225 1.499 1_545 S
N221 Co204 1.989 . S
N221 C220 1.342 . S
N221 N222 1.388 . S
N222 Co205 1.993 . S
N222 N221 1.388 . S
N222 C223 1.346 1_556 S
C223 N222 1.346 1_554 S
C223 C224 1.396 . S
C223 C233 1.510 . S
C224 C220 1.401 1_554 S
C224 C223 1.396 . S
C225 C220 1.499 1_565 S
C225 H226 0.959 . S
C225 H227 0.960 . S
C225 H228 0.961 . S
H226 C225 0.959 . S
H227 C225 0.960 . S
H228 C225 0.961 . S
O229 Co204 1.967 . S
O229 C237 1.258 . S
O230 Co205 1.941 . S
O230 C237 1.266 . S
H231 C233 0.959 . S
H232 C233 0.961 . S
C233 C223 1.510 . S
C233 H231 0.959 . S
C233 H232 0.961 . S
C233 H234 0.960 . S
H234 C233 0.960 . S
H235 N215 0.862 . S
O236 Co204 1.920 . S
O236 C209 1.289 . S
C237 O229 1.258 . S
C237 O230 1.266 . S
Co238 O241 1.970 . S
Co238 N255 1.989 . S
Co238 O263 1.967 . S
Co238 O270 1.920 . S
Co239 O242 1.966 . S
Co239 N248 2.022 . S
Co239 N256 1.993 . S
Co239 O264 1.941 . S
C240 O241 1.258 . S
C240 O242 1.263 . S
O241 Co238 1.970 . S
O241 C240 1.258 . S
O242 Co239 1.966 . S
O242 C240 1.263 . S
C243 O244 1.235 . S
C243 O270 1.289 . S
O244 C243 1.235 . S
C245 C247 1.400 . S
C245 N248 1.351 . S
C245 C250 1.501 . S
C246 C247 1.387 . S
C246 N249 1.341 . S
C247 C245 1.400 . S
C247 C246 1.387 . S
N248 Co239 2.022 . S
N248 C245 1.351 . S
N248 N249 1.365 . S
N249 C246 1.341 . S
N249 N248 1.365 . S
N249 H269 0.862 . S
C250 C245 1.501 . S
C250 H251 0.961 . S
C250 H252 0.961 . S
C250 H253 0.960 . S
H251 C250 0.961 . S
H252 C250 0.961 . S
H253 C250 0.960 . S
C254 N255 1.342 . S
C254 C258 1.401 . S
C254 C259 1.499 . S
N255 Co238 1.989 . S
N255 C254 1.342 . S
N255 N256 1.388 . S
N256 Co239 1.993 . S
N256 N255 1.388 . S
N256 C257 1.346 . S
C257 N256 1.346 . S
C257 C258 1.396 . S
C257 C267 1.510 . S
C258 C254 1.401 . S
C258 C257 1.396 . S
C259 C254 1.499 . S
C259 H260 0.959 . S
C259 H261 0.960 . S
C259 H262 0.961 . S
H260 C259 0.959 . S
H261 C259 0.960 . S
H262 C259 0.961 . S
O263 Co238 1.967 . S
O263 C271 1.258 . S
O264 Co239 1.941 . S
O264 C271 1.266 . S
H265 C267 0.959 . S
H266 C267 0.961 . S
C267 C257 1.510 . S
C267 H265 0.959 . S
C267 H266 0.961 . S
C267 H268 0.960 . S
H268 C267 0.960 . S
H269 N249 0.862 . S
O270 Co238 1.920 . S
O270 C243 1.289 . S
C271 O263 1.258 . S
C271 O264 1.266 . S
Co272 O275 1.970 . S
Co272 N289 1.989 . S
Co272 O297 1.967 . S
Co272 O304 1.920 . S
Co273 O276 1.966 . S
Co273 N282 2.022 1_556 S
Co273 N290 1.993 . S
Co273 O298 1.941 1_655 S
C274 O275 1.258 . S
C274 O276 1.263 . S
O275 Co272 1.970 . S
O275 C274 1.258 . S
O276 Co273 1.966 . S
O276 C274 1.263 . S
C277 O278 1.235 . S
C277 O304 1.289 . S
O278 C277 1.235 . S
C279 C281 1.400 1_655 S
C279 N282 1.351 . S
C279 C284 1.501 . S
C280 C281 1.387 . S
C280 N283 1.341 . S
C281 C279 1.400 1_455 S
C281 C280 1.387 . S
N282 Co273 2.022 1_554 S
N282 C279 1.351 . S
N282 N283 1.365 1_655 S
N283 C280 1.341 . S
N283 N282 1.365 1_455 S
N283 H303 0.862 . S
C284 C279 1.501 . S
C284 H285 0.961 . S
C284 H286 0.961 . S
C284 H287 0.960 . S
H285 C284 0.961 . S
H286 C284 0.961 . S
H287 C284 0.960 . S
C288 N289 1.342 . S
C288 C292 1.401 1_556 S
C288 C293 1.499 1_565 S
N289 Co272 1.989 . S
N289 C288 1.342 . S
N289 N290 1.388 . S
N290 Co273 1.993 . S
N290 N289 1.388 . S
N290 C291 1.346 1_556 S
C291 N290 1.346 1_554 S
C291 C292 1.396 . S
C291 C301 1.510 1_655 S
C292 C288 1.401 1_554 S
C292 C291 1.396 . S
C293 C288 1.499 1_545 S
C293 H294 0.959 . S
C293 H295 0.960 . S
C293 H296 0.961 . S
H294 C293 0.959 . S
H295 C293 0.960 . S
H296 C293 0.961 . S
O297 Co272 1.967 . S
O297 C305 1.258 . S
O298 Co273 1.941 1_455 S
O298 C305 1.266 1_455 S
H299 C301 0.959 . S
H300 C301 0.961 1_655 S
C301 C291 1.510 1_455 S
C301 H299 0.959 . S
C301 H300 0.961 1_455 S
C301 H302 0.960 . S
H302 C301 0.960 . S
H303 N283 0.862 . S
O304 Co272 1.920 . S
O304 C277 1.289 . S
C305 O297 1.258 . S
C305 O298 1.266 1_655 S
Co306 O309 1.970 . S
Co306 N323 1.989 . S
Co306 O331 1.967 . S
Co306 O338 1.920 . S
Co307 O310 1.966 . S
Co307 N316 2.022 . S
Co307 N324 1.993 . S
Co307 O332 1.941 . S
C308 O309 1.258 . S
C308 O310 1.263 . S
O309 Co306 1.970 . S
O309 C308 1.258 . S
O310 Co307 1.966 . S
O310 C308 1.263 . S
C311 O312 1.235 . S
C311 O338 1.289 . S
O312 C311 1.235 . S
C313 C315 1.400 . S
C313 N316 1.351 . S
C313 C318 1.501 . S
C314 C315 1.387 . S
C314 N317 1.341 . S
C315 C313 1.400 . S
C315 C314 1.387 . S
N316 Co307 2.022 . S
N316 C313 1.351 . S
N316 N317 1.365 . S
N317 C314 1.341 . S
N317 N316 1.365 . S
N317 H337 0.862 . S
C318 C313 1.501 . S
C318 H319 0.961 . S
C318 H320 0.961 . S
C318 H321 0.960 . S
H319 C318 0.961 . S
H320 C318 0.961 . S
H321 C318 0.960 . S
C322 N323 1.342 . S
C322 C326 1.401 . S
C322 C327 1.499 . S
N323 Co306 1.989 . S
N323 C322 1.342 . S
N323 N324 1.388 . S
N324 Co307 1.993 . S
N324 N323 1.388 . S
N324 C325 1.346 . S
C325 N324 1.346 . S
C325 C326 1.396 . S
C325 C335 1.510 . S
C326 C322 1.401 . S
C326 C325 1.396 . S
C327 C322 1.499 . S
C327 H328 0.959 . S
C327 H329 0.960 . S
C327 H330 0.961 . S
H328 C327 0.959 . S
H329 C327 0.960 . S
H330 C327 0.961 . S
O331 Co306 1.967 . S
O331 C339 1.258 . S
O332 Co307 1.941 . S
O332 C339 1.266 . S
H333 C335 0.959 . S
H334 C335 0.961 . S
C335 C325 1.510 . S
C335 H333 0.959 . S
C335 H334 0.961 . S
C335 H336 0.960 . S
H336 C335 0.960 . S
H337 N317 0.862 . S
O338 Co306 1.920 . S
O338 C311 1.289 . S
C339 O331 1.258 . S
C339 O332 1.266 . S
Co340 O343 1.970 . S
Co340 N357 1.989 . S
Co340 O365 1.967 . S
Co340 O372 1.920 . S
Co341 O344 1.966 . S
Co341 N350 2.022 . S
Co341 N358 1.993 . S
Co341 O366 1.941 . S
C342 O343 1.258 . S
C342 O344 1.263 . S
O343 Co340 1.970 . S
O343 C342 1.258 . S
O344 Co341 1.966 . S
O344 C342 1.263 . S
C345 O346 1.235 . S
C345 O372 1.289 . S
O346 C345 1.235 . S
C347 C349 1.400 . S
C347 N350 1.351 . S
C347 C352 1.501 . S
C348 C349 1.387 . S
C348 N351 1.341 . S
C349 C347 1.400 . S
C349 C348 1.387 . S
N350 Co341 2.022 . S
N350 C347 1.351 . S
N350 N351 1.365 . S
N351 C348 1.341 . S
N351 N350 1.365 . S
N351 H371 0.862 . S
C352 C347 1.501 . S
C352 H353 0.961 . S
C352 H354 0.961 . S
C352 H355 0.960 . S
H353 C352 0.961 . S
H354 C352 0.961 . S
H355 C352 0.960 . S
C356 N357 1.342 . S
C356 C360 1.401 . S
C356 C361 1.499 1_545 S
N357 Co340 1.989 . S
N357 C356 1.342 . S
N357 N358 1.388 . S
N358 Co341 1.993 . S
N358 N357 1.388 . S
N358 C359 1.346 . S
C359 N358 1.346 . S
C359 C360 1.396 . S
C359 C369 1.510 . S
C360 C356 1.401 . S
C360 C359 1.396 . S
C361 C356 1.499 1_565 S
C361 H362 0.959 . S
C361 H363 0.960 . S
C361 H364 0.961 . S
H362 C361 0.959 . S
H363 C361 0.960 . S
H364 C361 0.961 . S
O365 Co340 1.967 . S
O365 C373 1.258 . S
O366 Co341 1.941 . S
O366 C373 1.266 . S
H367 C369 0.959 . S
H368 C369 0.961 . S
C369 C359 1.510 . S
C369 H367 0.959 . S
C369 H368 0.961 . S
C369 H370 0.960 . S
H370 C369 0.960 . S
H371 N351 0.862 . S
O372 Co340 1.920 . S
O372 C345 1.289 . S
C373 O365 1.258 . S
C373 O366 1.266 . S
Co374 O377 1.970 . S
Co374 N391 1.989 . S
Co374 O399 1.967 . S
Co374 O406 1.920 . S
Co375 O378 1.966 . S
Co375 N384 2.022 . S
Co375 N392 1.993 . S
Co375 O400 1.941 . S
C376 O377 1.258 . S
C376 O378 1.263 . S
O377 Co374 1.970 . S
O377 C376 1.258 . S
O378 Co375 1.966 . S
O378 C376 1.263 . S
C379 O380 1.235 . S
C379 O406 1.289 . S
O380 C379 1.235 . S
C381 C383 1.400 . S
C381 N384 1.351 . S
C381 C386 1.501 . S
C382 C383 1.387 . S
C382 N385 1.341 . S
C383 C381 1.400 . S
C383 C382 1.387 . S
N384 Co375 2.022 . S
N384 C381 1.351 . S
N384 N385 1.365 . S
N385 C382 1.341 . S
N385 N384 1.365 . S
N385 H405 0.862 . S
C386 C381 1.501 . S
C386 H387 0.961 . S
C386 H388 0.961 . S
C386 H389 0.960 . S
H387 C386 0.961 . S
H388 C386 0.961 . S
H389 C386 0.960 . S
C390 N391 1.342 . S
C390 C394 1.401 . S
C390 C395 1.499 . S
N391 Co374 1.989 . S
N391 C390 1.342 . S
N391 N392 1.388 . S
N392 Co375 1.993 . S
N392 N391 1.388 . S
N392 C393 1.346 . S
C393 N392 1.346 . S
C393 C394 1.396 . S
C393 C403 1.510 . S
C394 C390 1.401 . S
C394 C393 1.396 . S
C395 C390 1.499 . S
C395 H396 0.959 . S
C395 H397 0.960 . S
C395 H398 0.961 . S
H396 C395 0.959 . S
H397 C395 0.960 . S
H398 C395 0.961 . S
O399 Co374 1.967 . S
O399 C407 1.258 . S
O400 Co375 1.941 . S
O400 C407 1.266 . S
H401 C403 0.959 . S
H402 C403 0.961 . S
C403 C393 1.510 . S
C403 H401 0.959 . S
C403 H402 0.961 . S
C403 H404 0.960 . S
H404 C403 0.960 . S
H405 N385 0.862 . S
O406 Co374 1.920 . S
O406 C379 1.289 . S
C407 O399 1.258 . S
C407 O400 1.266 . S
Co408 O411 1.970 . S
Co408 N425 1.989 . S
Co408 O433 1.967 . S
Co408 O440 1.920 . S
Co409 O412 1.966 . S
Co409 N418 2.022 . S
Co409 N426 1.993 . S
Co409 O434 1.941 1_655 S
C410 O411 1.258 . S
C410 O412 1.263 . S
O411 Co408 1.970 . S
O411 C410 1.258 . S
O412 Co409 1.966 . S
O412 C410 1.263 . S
C413 O414 1.235 . S
C413 O440 1.289 . S
O414 C413 1.235 . S
C415 C417 1.400 1_655 S
C415 N418 1.351 . S
C415 C420 1.501 . S
C416 C417 1.387 . S
C416 N419 1.341 . S
C417 C415 1.400 1_455 S
C417 C416 1.387 . S
N418 Co409 2.022 . S
N418 C415 1.351 . S
N418 N419 1.365 1_655 S
N419 C416 1.341 . S
N419 N418 1.365 1_455 S
N419 H439 0.862 . S
C420 C415 1.501 . S
C420 H421 0.961 . S
C420 H422 0.961 . S
C420 H423 0.960 . S
H421 C420 0.961 . S
H422 C420 0.961 . S
H423 C420 0.960 . S
C424 N425 1.342 . S
C424 C428 1.401 . S
C424 C429 1.499 1_545 S
N425 Co408 1.989 . S
N425 C424 1.342 . S
N425 N426 1.388 . S
N426 Co409 1.993 . S
N426 N425 1.388 . S
N426 C427 1.346 . S
C427 N426 1.346 . S
C427 C428 1.396 . S
C427 C437 1.510 1_655 S
C428 C424 1.401 . S
C428 C427 1.396 . S
C429 C424 1.499 1_565 S
C429 H430 0.959 . S
C429 H431 0.960 . S
C429 H432 0.961 . S
H430 C429 0.959 . S
H431 C429 0.960 . S
H432 C429 0.961 . S
O433 Co408 1.967 . S
O433 C441 1.258 . S
O434 Co409 1.941 1_455 S
O434 C441 1.266 1_455 S
H435 C437 0.959 . S
H436 C437 0.961 1_655 S
C437 C427 1.510 1_455 S
C437 H435 0.959 . S
C437 H436 0.961 1_455 S
C437 H438 0.960 . S
H438 C437 0.960 . S
H439 N419 0.862 . S
O440 Co408 1.920 . S
O440 C413 1.289 . S
C441 O433 1.258 . S
C441 O434 1.266 1_655 S
Co442 O445 1.970 . S
Co442 N459 1.989 . S
Co442 O467 1.967 . S
Co442 O474 1.920 . S
Co443 O446 1.966 . S
Co443 N452 2.022 . S
Co443 N460 1.993 . S
Co443 O468 1.941 . S
C444 O445 1.258 . S
C444 O446 1.263 . S
O445 Co442 1.970 . S
O445 C444 1.258 . S
O446 Co443 1.966 . S
O446 C444 1.263 . S
C447 O448 1.235 . S
C447 O474 1.289 . S
O448 C447 1.235 . S
C449 C451 1.400 . S
C449 N452 1.351 . S
C449 C454 1.501 . S
C450 C451 1.387 . S
C450 N453 1.341 . S
C451 C449 1.400 . S
C451 C450 1.387 . S
N452 Co443 2.022 . S
N452 C449 1.351 . S
N452 N453 1.365 . S
N453 C450 1.341 . S
N453 N452 1.365 . S
N453 H473 0.862 . S
C454 C449 1.501 . S
C454 H455 0.961 . S
C454 H456 0.961 . S
C454 H457 0.960 . S
H455 C454 0.961 . S
H456 C454 0.961 . S
H457 C454 0.960 . S
C458 N459 1.342 . S
C458 C462 1.401 . S
C458 C463 1.499 . S
N459 Co442 1.989 . S
N459 C458 1.342 . S
N459 N460 1.388 . S
N460 Co443 1.993 . S
N460 N459 1.388 . S
N460 C461 1.346 . S
C461 N460 1.346 . S
C461 C462 1.396 . S
C461 C471 1.510 . S
C462 C458 1.401 . S
C462 C461 1.396 . S
C463 C458 1.499 . S
C463 H464 0.959 . S
C463 H465 0.960 . S
C463 H466 0.961 . S
H464 C463 0.959 . S
H465 C463 0.960 . S
H466 C463 0.961 . S
O467 Co442 1.967 . S
O467 C475 1.258 . S
O468 Co443 1.941 . S
O468 C475 1.266 . S
H469 C471 0.959 . S
H470 C471 0.961 . S
C471 C461 1.510 . S
C471 H469 0.959 . S
C471 H470 0.961 . S
C471 H472 0.960 . S
H472 C471 0.960 . S
H473 N453 0.862 . S
O474 Co442 1.920 . S
O474 C447 1.289 . S
C475 O467 1.258 . S
C475 O468 1.266 . S
Co476 O479 1.970 . S
Co476 N493 1.989 . S
Co476 O501 1.967 . S
Co476 O508 1.920 . S
Co477 O480 1.966 . S
Co477 N486 2.022 1_554 S
Co477 N494 1.993 . S
Co477 O502 1.941 . S
C478 O479 1.258 . S
C478 O480 1.263 . S
O479 Co476 1.970 . S
O479 C478 1.258 . S
O480 Co477 1.966 . S
O480 C478 1.263 . S
C481 O482 1.235 . S
C481 O508 1.289 . S
O482 C481 1.235 . S
C483 C485 1.400 . S
C483 N486 1.351 . S
C483 C488 1.501 . S
C484 C485 1.387 . S
C484 N487 1.341 . S
C485 C483 1.400 . S
C485 C484 1.387 . S
N486 Co477 2.022 1_556 S
N486 C483 1.351 . S
N486 N487 1.365 . S
N487 C484 1.341 . S
N487 N486 1.365 . S
N487 H507 0.862 . S
C488 C483 1.501 . S
C488 H489 0.961 . S
C488 H490 0.961 . S
C488 H491 0.960 . S
H489 C488 0.961 . S
H490 C488 0.961 . S
H491 C488 0.960 . S
C492 N493 1.342 . S
C492 C496 1.401 1_554 S
C492 C497 1.499 1_565 S
N493 Co476 1.989 . S
N493 C492 1.342 . S
N493 N494 1.388 . S
N494 Co477 1.993 . S
N494 N493 1.388 . S
N494 C495 1.346 1_554 S
C495 N494 1.346 1_556 S
C495 C496 1.396 . S
C495 C505 1.510 . S
C496 C492 1.401 1_556 S
C496 C495 1.396 . S
C497 C492 1.499 1_545 S
C497 H498 0.959 . S
C497 H499 0.960 . S
C497 H500 0.961 . S
H498 C497 0.959 . S
H499 C497 0.960 . S
H500 C497 0.961 . S
O501 Co476 1.967 . S
O501 C509 1.258 . S
O502 Co477 1.941 . S
O502 C509 1.266 . S
H503 C505 0.959 . S
H504 C505 0.961 . S
C505 C495 1.510 . S
C505 H503 0.959 . S
C505 H504 0.961 . S
C505 H506 0.960 . S
H506 C505 0.960 . S
H507 N487 0.862 . S
O508 Co476 1.920 . S
O508 C481 1.289 . S
C509 O501 1.258 . S
C509 O502 1.266 . S
Co510 O513 1.970 . S
Co510 N527 1.989 . S
Co510 O535 1.967 . S
Co510 O542 1.920 . S
Co511 O514 1.966 . S
Co511 N520 2.022 . S
Co511 N528 1.993 . S
Co511 O536 1.941 . S
C512 O513 1.258 . S
C512 O514 1.263 . S
O513 Co510 1.970 . S
O513 C512 1.258 . S
O514 Co511 1.966 . S
O514 C512 1.263 . S
C515 O516 1.235 . S
C515 O542 1.289 . S
O516 C515 1.235 . S
C517 C519 1.400 . S
C517 N520 1.351 . S
C517 C522 1.501 . S
C518 C519 1.387 . S
C518 N521 1.341 . S
C519 C517 1.400 . S
C519 C518 1.387 . S
N520 Co511 2.022 . S
N520 C517 1.351 . S
N520 N521 1.365 . S
N521 C518 1.341 . S
N521 N520 1.365 . S
N521 H541 0.862 . S
C522 C517 1.501 . S
C522 H523 0.961 . S
C522 H524 0.961 . S
C522 H525 0.960 . S
H523 C522 0.961 . S
H524 C522 0.961 . S
H525 C522 0.960 . S
C526 N527 1.342 . S
C526 C530 1.401 . S
C526 C531 1.499 . S
N527 Co510 1.989 . S
N527 C526 1.342 . S
N527 N528 1.388 . S
N528 Co511 1.993 . S
N528 N527 1.388 . S
N528 C529 1.346 . S
C529 N528 1.346 . S
C529 C530 1.396 . S
C529 C539 1.510 . S
C530 C526 1.401 . S
C530 C529 1.396 . S
C531 C526 1.499 . S
C531 H532 0.959 . S
C531 H533 0.960 . S
C531 H534 0.961 . S
H532 C531 0.959 . S
H533 C531 0.960 . S
H534 C531 0.961 . S
O535 Co510 1.967 . S
O535 C543 1.258 . S
O536 Co511 1.941 . S
O536 C543 1.266 . S
H537 C539 0.959 . S
H538 C539 0.961 . S
C539 C529 1.510 . S
C539 H537 0.959 . S
C539 H538 0.961 . S
C539 H540 0.960 . S
H540 C539 0.960 . S
H541 N521 0.862 . S
O542 Co510 1.920 . S
O542 C515 1.289 . S
C543 O535 1.258 . S
C543 O536 1.266 . S
Co544 O547 1.970 . S
Co544 N561 1.989 . S
Co544 O569 1.967 . S
Co544 O576 1.920 . S
Co545 O548 1.966 . S
Co545 N554 2.022 . S
Co545 N562 1.993 . S
Co545 O570 1.941 . S
C546 O547 1.258 . S
C546 O548 1.263 . S
O547 Co544 1.970 . S
O547 C546 1.258 . S
O548 Co545 1.966 . S
O548 C546 1.263 . S
C549 O550 1.235 . S
C549 O576 1.289 . S
O550 C549 1.235 . S
C551 C553 1.400 . S
C551 N554 1.351 . S
C551 C556 1.501 . S
C552 C553 1.387 . S
C552 N555 1.341 . S
C553 C551 1.400 . S
C553 C552 1.387 . S
N554 Co545 2.022 . S
N554 C551 1.351 . S
N554 N555 1.365 . S
N555 C552 1.341 . S
N555 N554 1.365 . S
N555 H575 0.862 . S
C556 C551 1.501 . S
C556 H557 0.961 . S
C556 H558 0.961 . S
C556 H559 0.960 . S
H557 C556 0.961 . S
H558 C556 0.961 . S
H559 C556 0.960 . S
C560 N561 1.342 . S
C560 C564 1.401 . S
C560 C565 1.499 . S
N561 Co544 1.989 . S
N561 C560 1.342 . S
N561 N562 1.388 . S
N562 Co545 1.993 . S
N562 N561 1.388 . S
N562 C563 1.346 . S
C563 N562 1.346 . S
C563 C564 1.396 . S
C563 C573 1.510 . S
C564 C560 1.401 . S
C564 C563 1.396 . S
C565 C560 1.499 . S
C565 H566 0.959 . S
C565 H567 0.960 . S
C565 H568 0.961 . S
H566 C565 0.959 . S
H567 C565 0.960 . S
H568 C565 0.961 . S
O569 Co544 1.967 . S
O569 C577 1.258 . S
O570 Co545 1.941 . S
O570 C577 1.266 . S
H571 C573 0.959 . S
H572 C573 0.961 . S
C573 C563 1.510 . S
C573 H571 0.959 . S
C573 H572 0.961 . S
C573 H574 0.960 . S
H574 C573 0.960 . S
H575 N555 0.862 . S
O576 Co544 1.920 . S
O576 C549 1.289 . S
C577 O569 1.258 . S
C577 O570 1.266 . S
Co578 O581 1.970 . S
Co578 N595 1.989 . S
Co578 O603 1.967 . S
Co578 O610 1.920 . S
Co579 O582 1.966 . S
Co579 N588 2.022 . S
Co579 N596 1.993 . S
Co579 O604 1.941 . S
C580 O581 1.258 . S
C580 O582 1.263 . S
O581 Co578 1.970 . S
O581 C580 1.258 . S
O582 Co579 1.966 . S
O582 C580 1.263 . S
C583 O584 1.235 . S
C583 O610 1.289 . S
O584 C583 1.235 . S
C585 C587 1.400 . S
C585 N588 1.351 . S
C585 C590 1.501 . S
C586 C587 1.387 . S
C586 N589 1.341 . S
C587 C585 1.400 . S
C587 C586 1.387 . S
N588 Co579 2.022 . S
N588 C585 1.351 . S
N588 N589 1.365 . S
N589 C586 1.341 . S
N589 N588 1.365 . S
N589 H609 0.862 . S
C590 C585 1.501 . S
C590 H591 0.961 . S
C590 H592 0.961 . S
C590 H593 0.960 . S
H591 C590 0.961 . S
H592 C590 0.961 . S
H593 C590 0.960 . S
C594 N595 1.342 . S
C594 C598 1.401 . S
C594 C599 1.499 . S
N595 Co578 1.989 . S
N595 C594 1.342 . S
N595 N596 1.388 . S
N596 Co579 1.993 . S
N596 N595 1.388 . S
N596 C597 1.346 . S
C597 N596 1.346 . S
C597 C598 1.396 . S
C597 C607 1.510 . S
C598 C594 1.401 . S
C598 C597 1.396 . S
C599 C594 1.499 . S
C599 H600 0.959 . S
C599 H601 0.960 . S
C599 H602 0.961 . S
H600 C599 0.959 . S
H601 C599 0.960 . S
H602 C599 0.961 . S
O603 Co578 1.967 . S
O603 C611 1.258 . S
O604 Co579 1.941 . S
O604 C611 1.266 . S
H605 C607 0.959 . S
H606 C607 0.961 . S
C607 C597 1.510 . S
C607 H605 0.959 . S
C607 H606 0.961 . S
C607 H608 0.960 . S
H608 C607 0.960 . S
H609 N589 0.862 . S
O610 Co578 1.920 . S
O610 C583 1.289 . S
C611 O603 1.258 . S
C611 O604 1.266 . S
Co612 O615 1.970 . S
Co612 N629 1.989 . S
Co612 O637 1.967 . S
Co612 O644 1.920 . S
Co613 O616 1.966 . S
Co613 N622 2.022 1_554 S
Co613 N630 1.993 . S
Co613 O638 1.941 1_655 S
C614 O615 1.258 . S
C614 O616 1.263 . S
O615 Co612 1.970 . S
O615 C614 1.258 . S
O616 Co613 1.966 . S
O616 C614 1.263 . S
C617 O618 1.235 . S
C617 O644 1.289 . S
O618 C617 1.235 . S
C619 C621 1.400 1_655 S
C619 N622 1.351 . S
C619 C624 1.501 . S
C620 C621 1.387 . S
C620 N623 1.341 . S
C621 C619 1.400 1_455 S
C621 C620 1.387 . S
N622 Co613 2.022 1_556 S
N622 C619 1.351 . S
N622 N623 1.365 1_655 S
N623 C620 1.341 . S
N623 N622 1.365 1_455 S
N623 H643 0.862 . S
C624 C619 1.501 . S
C624 H625 0.961 . S
C624 H626 0.961 . S
C624 H627 0.960 . S
H625 C624 0.961 . S
H626 C624 0.961 . S
H627 C624 0.960 . S
C628 N629 1.342 . S
C628 C632 1.401 1_554 S
C628 C633 1.499 . S
N629 Co612 1.989 . S
N629 C628 1.342 . S
N629 N630 1.388 . S
N630 Co613 1.993 . S
N630 N629 1.388 . S
N630 C631 1.346 1_554 S
C631 N630 1.346 1_556 S
C631 C632 1.396 . S
C631 C641 1.510 1_655 S
C632 C628 1.401 1_556 S
C632 C631 1.396 . S
C633 C628 1.499 . S
C633 H634 0.959 . S
C633 H635 0.960 . S
C633 H636 0.961 . S
H634 C633 0.959 . S
H635 C633 0.960 . S
H636 C633 0.961 . S
O637 Co612 1.967 . S
O637 C645 1.258 . S
O638 Co613 1.941 1_455 S
O638 C645 1.266 1_455 S
H639 C641 0.959 . S
H640 C641 0.961 1_655 S
C641 C631 1.510 1_455 S
C641 H639 0.959 . S
C641 H640 0.961 1_455 S
C641 H642 0.960 . S
H642 C641 0.960 . S
H643 N623 0.862 . S
O644 Co612 1.920 . S
O644 C617 1.289 . S
C645 O637 1.258 . S
C645 O638 1.266 1_655 S
Co646 O649 1.970 . S
Co646 N663 1.989 . S
Co646 O671 1.967 . S
Co646 O678 1.920 . S
Co647 O650 1.966 . S
Co647 N656 2.022 . S
Co647 N664 1.993 . S
Co647 O672 1.941 . S
C648 O649 1.258 . S
C648 O650 1.263 . S
O649 Co646 1.970 . S
O649 C648 1.258 . S
O650 Co647 1.966 . S
O650 C648 1.263 . S
C651 O652 1.235 . S
C651 O678 1.289 . S
O652 C651 1.235 . S
C653 C655 1.400 . S
C653 N656 1.351 . S
C653 C658 1.501 . S
C654 C655 1.387 . S
C654 N657 1.341 . S
C655 C653 1.400 . S
C655 C654 1.387 . S
N656 Co647 2.022 . S
N656 C653 1.351 . S
N656 N657 1.365 . S
N657 C654 1.341 . S
N657 N656 1.365 . S
N657 H677 0.862 . S
C658 C653 1.501 . S
C658 H659 0.961 . S
C658 H660 0.961 . S
C658 H661 0.960 . S
H659 C658 0.961 . S
H660 C658 0.961 . S
H661 C658 0.960 . S
C662 N663 1.342 . S
C662 C666 1.401 . S
C662 C667 1.499 . S
N663 Co646 1.989 . S
N663 C662 1.342 . S
N663 N664 1.388 . S
N664 Co647 1.993 . S
N664 N663 1.388 . S
N664 C665 1.346 . S
C665 N664 1.346 . S
C665 C666 1.396 . S
C665 C675 1.510 . S
C666 C662 1.401 . S
C666 C665 1.396 . S
C667 C662 1.499 . S
C667 H668 0.959 . S
C667 H669 0.960 . S
C667 H670 0.961 . S
H668 C667 0.959 . S
H669 C667 0.960 . S
H670 C667 0.961 . S
O671 Co646 1.967 . S
O671 C679 1.258 . S
O672 Co647 1.941 . S
O672 C679 1.266 . S
H673 C675 0.959 . S
H674 C675 0.961 . S
C675 C665 1.510 . S
C675 H673 0.959 . S
C675 H674 0.961 . S
C675 H676 0.960 . S
H676 C675 0.960 . S
H677 N657 0.862 . S
O678 Co646 1.920 . S
O678 C651 1.289 . S
C679 O671 1.258 . S
C679 O672 1.266 . S
Co680 O683 1.970 . S
Co680 N697 1.989 . S
Co680 O705 1.967 . S
Co680 O712 1.920 . S
Co681 O684 1.966 . S
Co681 N690 2.022 1_556 S
Co681 N698 1.993 . S
Co681 O706 1.941 . S
C682 O683 1.258 . S
C682 O684 1.263 . S
O683 Co680 1.970 . S
O683 C682 1.258 . S
O684 Co681 1.966 . S
O684 C682 1.263 . S
C685 O686 1.235 . S
C685 O712 1.289 . S
O686 C685 1.235 . S
C687 C689 1.400 . S
C687 N690 1.351 . S
C687 C692 1.501 . S
C688 C689 1.387 . S
C688 N691 1.341 . S
C689 C687 1.400 . S
C689 C688 1.387 . S
N690 Co681 2.022 1_554 S
N690 C687 1.351 . S
N690 N691 1.365 . S
N691 C688 1.341 . S
N691 N690 1.365 . S
N691 H711 0.862 . S
C692 C687 1.501 . S
C692 H693 0.961 . S
C692 H694 0.961 . S
C692 H695 0.960 . S
H693 C692 0.961 . S
H694 C692 0.961 . S
H695 C692 0.960 . S
C696 N697 1.342 . S
C696 C700 1.401 1_556 S
C696 C701 1.499 . S
N697 Co680 1.989 . S
N697 C696 1.342 . S
N697 N698 1.388 . S
N698 Co681 1.993 . S
N698 N697 1.388 . S
N698 C699 1.346 1_556 S
C699 N698 1.346 1_554 S
C699 C700 1.396 . S
C699 C709 1.510 . S
C700 C696 1.401 1_554 S
C700 C699 1.396 . S
C701 C696 1.499 . S
C701 H702 0.959 . S
C701 H703 0.960 . S
C701 H704 0.961 . S
H702 C701 0.959 . S
H703 C701 0.960 . S
H704 C701 0.961 . S
O705 Co680 1.967 . S
O705 C713 1.258 . S
O706 Co681 1.941 . S
O706 C713 1.266 . S
H707 C709 0.959 . S
H708 C709 0.961 . S
C709 C699 1.510 . S
C709 H707 0.959 . S
C709 H708 0.961 . S
C709 H710 0.960 . S
H710 C709 0.960 . S
H711 N691 0.862 . S
O712 Co680 1.920 . S
O712 C685 1.289 . S
C713 O705 1.258 . S
C713 O706 1.266 . S
Co714 O717 1.970 . S
Co714 N731 1.989 . S
Co714 O739 1.967 . S
Co714 O746 1.920 . S
Co715 O718 1.966 . S
Co715 N724 2.022 . S
Co715 N732 1.993 . S
Co715 O740 1.941 . S
C716 O717 1.258 . S
C716 O718 1.263 . S
O717 Co714 1.970 . S
O717 C716 1.258 . S
O718 Co715 1.966 . S
O718 C716 1.263 . S
C719 O720 1.235 . S
C719 O746 1.289 . S
O720 C719 1.235 . S
C721 C723 1.400 . S
C721 N724 1.351 . S
C721 C726 1.501 . S
C722 C723 1.387 . S
C722 N725 1.341 . S
C723 C721 1.400 . S
C723 C722 1.387 . S
N724 Co715 2.022 . S
N724 C721 1.351 . S
N724 N725 1.365 . S
N725 C722 1.341 . S
N725 N724 1.365 . S
N725 H745 0.862 . S
C726 C721 1.501 . S
C726 H727 0.961 . S
C726 H728 0.961 . S
C726 H729 0.960 . S
H727 C726 0.961 . S
H728 C726 0.961 . S
H729 C726 0.960 . S
C730 N731 1.342 . S
C730 C734 1.401 . S
C730 C735 1.499 . S
N731 Co714 1.989 . S
N731 C730 1.342 . S
N731 N732 1.388 . S
N732 Co715 1.993 . S
N732 N731 1.388 . S
N732 C733 1.346 . S
C733 N732 1.346 . S
C733 C734 1.396 . S
C733 C743 1.510 . S
C734 C730 1.401 . S
C734 C733 1.396 . S
C735 C730 1.499 . S
C735 H736 0.959 . S
C735 H737 0.960 . S
C735 H738 0.961 . S
H736 C735 0.959 . S
H737 C735 0.960 . S
H738 C735 0.961 . S
O739 Co714 1.967 . S
O739 C747 1.258 . S
O740 Co715 1.941 . S
O740 C747 1.266 . S
H741 C743 0.959 . S
H742 C743 0.961 . S
C743 C733 1.510 . S
C743 H741 0.959 . S
C743 H742 0.961 . S
C743 H744 0.960 . S
H744 C743 0.960 . S
H745 N725 0.862 . S
O746 Co714 1.920 . S
O746 C719 1.289 . S
C747 O739 1.258 . S
C747 O740 1.266 . S
Co748 O751 1.970 . S
Co748 N765 1.989 . S
Co748 O773 1.967 . S
Co748 O780 1.920 . S
Co749 O752 1.966 . S
Co749 N758 2.022 . S
Co749 N766 1.993 . S
Co749 O774 1.941 1_655 S
C750 O751 1.258 . S
C750 O752 1.263 . S
O751 Co748 1.970 . S
O751 C750 1.258 . S
O752 Co749 1.966 . S
O752 C750 1.263 . S
C753 O754 1.235 . S
C753 O780 1.289 . S
O754 C753 1.235 . S
C755 C757 1.400 1_655 S
C755 N758 1.351 . S
C755 C760 1.501 . S
C756 C757 1.387 . S
C756 N759 1.341 . S
C757 C755 1.400 1_455 S
C757 C756 1.387 . S
N758 Co749 2.022 . S
N758 C755 1.351 . S
N758 N759 1.365 1_655 S
N759 C756 1.341 . S
N759 N758 1.365 1_455 S
N759 H779 0.862 . S
C760 C755 1.501 . S
C760 H761 0.961 . S
C760 H762 0.961 . S
C760 H763 0.960 . S
H761 C760 0.961 . S
H762 C760 0.961 . S
H763 C760 0.960 . S
C764 N765 1.342 . S
C764 C768 1.401 . S
C764 C769 1.499 . S
N765 Co748 1.989 . S
N765 C764 1.342 . S
N765 N766 1.388 . S
N766 Co749 1.993 . S
N766 N765 1.388 . S
N766 C767 1.346 . S
C767 N766 1.346 . S
C767 C768 1.396 . S
C767 C777 1.510 1_655 S
C768 C764 1.401 . S
C768 C767 1.396 . S
C769 C764 1.499 . S
C769 H770 0.959 . S
C769 H771 0.960 . S
C769 H772 0.961 . S
H770 C769 0.959 . S
H771 C769 0.960 . S
H772 C769 0.961 . S
O773 Co748 1.967 . S
O773 C781 1.258 . S
O774 Co749 1.941 1_455 S
O774 C781 1.266 1_455 S
H775 C777 0.959 . S
H776 C777 0.961 1_655 S
C777 C767 1.510 1_455 S
C777 H775 0.959 . S
C777 H776 0.961 1_455 S
C777 H778 0.960 . S
H778 C777 0.960 . S
H779 N759 0.862 . S
O780 Co748 1.920 . S
O780 C753 1.289 . S
C781 O773 1.258 . S
C781 O774 1.266 1_655 S
Co782 O785 1.970 . S
Co782 N799 1.989 . S
Co782 O807 1.967 . S
Co782 O814 1.920 . S
Co783 O786 1.966 . S
Co783 N792 2.022 . S
Co783 N800 1.993 . S
Co783 O808 1.941 . S
C784 O785 1.258 . S
C784 O786 1.263 . S
O785 Co782 1.970 . S
O785 C784 1.258 . S
O786 Co783 1.966 . S
O786 C784 1.263 . S
C787 O788 1.235 . S
C787 O814 1.289 . S
O788 C787 1.235 . S
C789 C791 1.400 . S
C789 N792 1.351 . S
C789 C794 1.501 . S
C790 C791 1.387 . S
C790 N793 1.341 . S
C791 C789 1.400 . S
C791 C790 1.387 . S
N792 Co783 2.022 . S
N792 C789 1.351 . S
N792 N793 1.365 . S
N793 C790 1.341 . S
N793 N792 1.365 . S
N793 H813 0.862 . S
C794 C789 1.501 . S
C794 H795 0.961 . S
C794 H796 0.961 . S
C794 H797 0.960 . S
H795 C794 0.961 . S
H796 C794 0.961 . S
H797 C794 0.960 . S
C798 N799 1.342 . S
C798 C802 1.401 . S
C798 C803 1.499 . S
N799 Co782 1.989 . S
N799 C798 1.342 . S
N799 N800 1.388 . S
N800 Co783 1.993 . S
N800 N799 1.388 . S
N800 C801 1.346 . S
C801 N800 1.346 . S
C801 C802 1.396 . S
C801 C811 1.510 . S
C802 C798 1.401 . S
C802 C801 1.396 . S
C803 C798 1.499 . S
C803 H804 0.959 . S
C803 H805 0.960 . S
C803 H806 0.961 . S
H804 C803 0.959 . S
H805 C803 0.960 . S
H806 C803 0.961 . S
O807 Co782 1.967 . S
O807 C815 1.258 . S
O808 Co783 1.941 . S
O808 C815 1.266 . S
H809 C811 0.959 . S
H810 C811 0.961 . S
C811 C801 1.510 . S
C811 H809 0.959 . S
C811 H810 0.961 . S
C811 H812 0.960 . S
H812 C811 0.960 . S
H813 N793 0.862 . S
O814 Co782 1.920 . S
O814 C787 1.289 . S
C815 O807 1.258 . S
C815 O808 1.266 . S
Co816 O819 1.970 . S
Co816 N833 1.989 . S
Co816 O841 1.967 . S
Co816 O848 1.920 . S
Co817 O820 1.966 . S
Co817 N826 2.022 . S
Co817 N834 1.993 . S
Co817 O842 1.941 . S
C818 O819 1.258 . S
C818 O820 1.263 . S
O819 Co816 1.970 . S
O819 C818 1.258 . S
O820 Co817 1.966 . S
O820 C818 1.263 . S
C821 O822 1.235 . S
C821 O848 1.289 . S
O822 C821 1.235 . S
C823 C825 1.400 . S
C823 N826 1.351 . S
C823 C828 1.501 . S
C824 C825 1.387 . S
C824 N827 1.341 . S
C825 C823 1.400 . S
C825 C824 1.387 . S
N826 Co817 2.022 . S
N826 C823 1.351 . S
N826 N827 1.365 . S
N827 C824 1.341 . S
N827 N826 1.365 . S
N827 H847 0.862 . S
C828 C823 1.501 . S
C828 H829 0.961 . S
C828 H830 0.961 . S
C828 H831 0.960 . S
H829 C828 0.961 . S
H830 C828 0.961 . S
H831 C828 0.960 . S
C832 N833 1.342 . S
C832 C836 1.401 . S
C832 C837 1.499 . S
N833 Co816 1.989 . S
N833 C832 1.342 . S
N833 N834 1.388 . S
N834 Co817 1.993 . S
N834 N833 1.388 . S
N834 C835 1.346 . S
C835 N834 1.346 . S
C835 C836 1.396 . S
C835 C845 1.510 . S
C836 C832 1.401 . S
C836 C835 1.396 . S
C837 C832 1.499 . S
C837 H838 0.959 . S
C837 H839 0.960 . S
C837 H840 0.961 . S
H838 C837 0.959 . S
H839 C837 0.960 . S
H840 C837 0.961 . S
O841 Co816 1.967 . S
O841 C849 1.258 . S
O842 Co817 1.941 . S
O842 C849 1.266 . S
H843 C845 0.959 . S
H844 C845 0.961 . S
C845 C835 1.510 . S
C845 H843 0.959 . S
C845 H844 0.961 . S
C845 H846 0.960 . S
H846 C845 0.960 . S
H847 N827 0.862 . S
O848 Co816 1.920 . S
O848 C821 1.289 . S
C849 O841 1.258 . S
C849 O842 1.266 . S
Co850 O853 1.970 . S
Co850 N867 1.989 . S
Co850 O875 1.967 . S
Co850 O882 1.920 . S
Co851 O854 1.966 . S
Co851 N860 2.022 . S
Co851 N868 1.993 . S
Co851 O876 1.941 . S
C852 O853 1.258 . S
C852 O854 1.263 . S
O853 Co850 1.970 . S
O853 C852 1.258 . S
O854 Co851 1.966 . S
O854 C852 1.263 . S
C855 O856 1.235 . S
C855 O882 1.289 . S
O856 C855 1.235 . S
C857 C859 1.400 . S
C857 N860 1.351 . S
C857 C862 1.501 . S
C858 C859 1.387 . S
C858 N861 1.341 . S
C859 C857 1.400 . S
C859 C858 1.387 . S
N860 Co851 2.022 . S
N860 C857 1.351 . S
N860 N861 1.365 . S
N861 C858 1.341 . S
N861 N860 1.365 . S
N861 H881 0.862 . S
C862 C857 1.501 . S
C862 H863 0.961 . S
C862 H864 0.961 . S
C862 H865 0.960 . S
H863 C862 0.961 . S
H864 C862 0.961 . S
H865 C862 0.960 . S
C866 N867 1.342 . S
C866 C870 1.401 . S
C866 C871 1.499 . S
N867 Co850 1.989 . S
N867 C866 1.342 . S
N867 N868 1.388 . S
N868 Co851 1.993 . S
N868 N867 1.388 . S
N868 C869 1.346 . S
C869 N868 1.346 . S
C869 C870 1.396 . S
C869 C879 1.510 . S
C870 C866 1.401 . S
C870 C869 1.396 . S
C871 C866 1.499 . S
C871 H872 0.959 . S
C871 H873 0.960 . S
C871 H874 0.961 . S
H872 C871 0.959 . S
H873 C871 0.960 . S
H874 C871 0.961 . S
O875 Co850 1.967 . S
O875 C883 1.258 . S
O876 Co851 1.941 . S
O876 C883 1.266 . S
H877 C879 0.959 . S
H878 C879 0.961 . S
C879 C869 1.510 . S
C879 H877 0.959 . S
C879 H878 0.961 . S
C879 H880 0.960 . S
H880 C879 0.960 . S
H881 N861 0.862 . S
O882 Co850 1.920 . S
O882 C855 1.289 . S
C883 O875 1.258 . S
C883 O876 1.266 . S
Co884 O887 1.970 . S
Co884 N901 1.989 . S
Co884 O909 1.967 . S
Co884 O916 1.920 . S
Co885 O888 1.966 . S
Co885 N894 2.022 1_556 S
Co885 N902 1.993 . S
Co885 O910 1.941 1_455 S
C886 O887 1.258 . S
C886 O888 1.263 . S
O887 Co884 1.970 . S
O887 C886 1.258 . S
O888 Co885 1.966 . S
O888 C886 1.263 . S
C889 O890 1.235 . S
C889 O916 1.289 . S
O890 C889 1.235 . S
C891 C893 1.400 1_455 S
C891 N894 1.351 . S
C891 C896 1.501 . S
C892 C893 1.387 . S
C892 N895 1.341 . S
C893 C891 1.400 1_655 S
C893 C892 1.387 . S
N894 Co885 2.022 1_554 S
N894 C891 1.351 . S
N894 N895 1.365 1_455 S
N895 C892 1.341 . S
N895 N894 1.365 1_655 S
N895 H915 0.862 . S
C896 C891 1.501 . S
C896 H897 0.961 . S
C896 H898 0.961 . S
C896 H899 0.960 . S
H897 C896 0.961 . S
H898 C896 0.961 . S
H899 C896 0.960 . S
C900 N901 1.342 . S
C900 C904 1.401 1_556 S
C900 C905 1.499 . S
N901 Co884 1.989 . S
N901 C900 1.342 . S
N901 N902 1.388 . S
N902 Co885 1.993 . S
N902 N901 1.388 . S
N902 C903 1.346 1_556 S
C903 N902 1.346 1_554 S
C903 C904 1.396 . S
C903 C913 1.510 1_455 S
C904 C900 1.401 1_554 S
C904 C903 1.396 . S
C905 C900 1.499 . S
C905 H906 0.959 . S
C905 H907 0.960 . S
C905 H908 0.961 . S
H906 C905 0.959 . S
H907 C905 0.960 . S
H908 C905 0.961 . S
O909 Co884 1.967 . S
O909 C917 1.258 . S
O910 Co885 1.941 1_655 S
O910 C917 1.266 1_655 S
H911 C913 0.959 . S
H912 C913 0.961 1_455 S
C913 C903 1.510 1_655 S
C913 H911 0.959 . S
C913 H912 0.961 1_655 S
C913 H914 0.960 . S
H914 C913 0.960 . S
H915 N895 0.862 . S
O916 Co884 1.920 . S
O916 C889 1.289 . S
C917 O909 1.258 . S
C917 O910 1.266 1_455 S
Co918 O921 1.970 . S
Co918 N935 1.989 . S
Co918 O943 1.967 . S
Co918 O950 1.920 . S
Co919 O922 1.966 . S
Co919 N928 2.022 . S
Co919 N936 1.993 . S
Co919 O944 1.941 . S
C920 O921 1.258 . S
C920 O922 1.263 . S
O921 Co918 1.970 . S
O921 C920 1.258 . S
O922 Co919 1.966 . S
O922 C920 1.263 . S
C923 O924 1.235 . S
C923 O950 1.289 . S
O924 C923 1.235 . S
C925 C927 1.400 . S
C925 N928 1.351 . S
C925 C930 1.501 . S
C926 C927 1.387 . S
C926 N929 1.341 . S
C927 C925 1.400 . S
C927 C926 1.387 . S
N928 Co919 2.022 . S
N928 C925 1.351 . S
N928 N929 1.365 . S
N929 C926 1.341 . S
N929 N928 1.365 . S
N929 H949 0.862 . S
C930 C925 1.501 . S
C930 H931 0.961 . S
C930 H932 0.961 . S
C930 H933 0.960 . S
H931 C930 0.961 . S
H932 C930 0.961 . S
H933 C930 0.960 . S
C934 N935 1.342 . S
C934 C938 1.401 . S
C934 C939 1.499 . S
N935 Co918 1.989 . S
N935 C934 1.342 . S
N935 N936 1.388 . S
N936 Co919 1.993 . S
N936 N935 1.388 . S
N936 C937 1.346 . S
C937 N936 1.346 . S
C937 C938 1.396 . S
C937 C947 1.510 . S
C938 C934 1.401 . S
C938 C937 1.396 . S
C939 C934 1.499 . S
C939 H940 0.959 . S
C939 H941 0.960 . S
C939 H942 0.961 . S
H940 C939 0.959 . S
H941 C939 0.960 . S
H942 C939 0.961 . S
O943 Co918 1.967 . S
O943 C951 1.258 . S
O944 Co919 1.941 . S
O944 C951 1.266 . S
H945 C947 0.959 . S
H946 C947 0.961 . S
C947 C937 1.510 . S
C947 H945 0.959 . S
C947 H946 0.961 . S
C947 H948 0.960 . S
H948 C947 0.960 . S
H949 N929 0.862 . S
O950 Co918 1.920 . S
O950 C923 1.289 . S
C951 O943 1.258 . S
C951 O944 1.266 . S
Co952 O955 1.970 . S
Co952 N969 1.989 . S
Co952 O977 1.967 . S
Co952 O984 1.920 . S
Co953 O956 1.966 . S
Co953 N962 2.022 1_554 S
Co953 N970 1.993 . S
Co953 O978 1.941 . S
C954 O955 1.258 . S
C954 O956 1.263 . S
O955 Co952 1.970 . S
O955 C954 1.258 . S
O956 Co953 1.966 . S
O956 C954 1.263 . S
C957 O958 1.235 . S
C957 O984 1.289 . S
O958 C957 1.235 . S
C959 C961 1.400 . S
C959 N962 1.351 . S
C959 C964 1.501 . S
C960 C961 1.387 . S
C960 N963 1.341 . S
C961 C959 1.400 . S
C961 C960 1.387 . S
N962 Co953 2.022 1_556 S
N962 C959 1.351 . S
N962 N963 1.365 . S
N963 C960 1.341 . S
N963 N962 1.365 . S
N963 H983 0.862 . S
C964 C959 1.501 . S
C964 H965 0.961 . S
C964 H966 0.961 . S
C964 H967 0.960 . S
H965 C964 0.961 . S
H966 C964 0.961 . S
H967 C964 0.960 . S
C968 N969 1.342 . S
C968 C972 1.401 1_554 S
C968 C973 1.499 . S
N969 Co952 1.989 . S
N969 C968 1.342 . S
N969 N970 1.388 . S
N970 Co953 1.993 . S
N970 N969 1.388 . S
N970 C971 1.346 1_554 S
C971 N970 1.346 1_556 S
C971 C972 1.396 . S
C971 C981 1.510 . S
C972 C968 1.401 1_556 S
C972 C971 1.396 . S
C973 C968 1.499 . S
C973 H974 0.959 . S
C973 H975 0.960 . S
C973 H976 0.961 . S
H974 C973 0.959 . S
H975 C973 0.960 . S
H976 C973 0.961 . S
O977 Co952 1.967 . S
O977 C985 1.258 . S
O978 Co953 1.941 . S
O978 C985 1.266 . S
H979 C981 0.959 . S
H980 C981 0.961 . S
C981 C971 1.510 . S
C981 H979 0.959 . S
C981 H980 0.961 . S
C981 H982 0.960 . S
H982 C981 0.960 . S
H983 N963 0.862 . S
O984 Co952 1.920 . S
O984 C957 1.289 . S
C985 O977 1.258 . S
C985 O978 1.266 . S
Co986 O989 1.970 . S
Co986 N1003 1.989 . S
Co986 O1011 1.967 . S
Co986 O1018 1.920 . S
Co987 O990 1.966 . S
Co987 N996 2.022 . S
Co987 N1004 1.993 . S
Co987 O1012 1.941 . S
C988 O989 1.258 . S
C988 O990 1.263 . S
O989 Co986 1.970 . S
O989 C988 1.258 . S
O990 Co987 1.966 . S
O990 C988 1.263 . S
C991 O992 1.235 . S
C991 O1018 1.289 . S
O992 C991 1.235 . S
C993 C995 1.400 . S
C993 N996 1.351 . S
C993 C998 1.501 . S
C994 C995 1.387 . S
C994 N997 1.341 . S
C995 C993 1.400 . S
C995 C994 1.387 . S
N996 Co987 2.022 . S
N996 C993 1.351 . S
N996 N997 1.365 . S
N997 C994 1.341 . S
N997 N996 1.365 . S
N997 H1017 0.862 . S
C998 C993 1.501 . S
C998 H999 0.961 . S
C998 H1000 0.961 . S
C998 H1001 0.960 . S
H999 C998 0.961 . S
H1000 C998 0.961 . S
H1001 C998 0.960 . S
C1002 N1003 1.342 . S
C1002 C1006 1.401 . S
C1002 C1007 1.499 . S
N1003 Co986 1.989 . S
N1003 C1002 1.342 . S
N1003 N1004 1.388 . S
N1004 Co987 1.993 . S
N1004 N1003 1.388 . S
N1004 C1005 1.346 . S
C1005 N1004 1.346 . S
C1005 C1006 1.396 . S
C1005 C1015 1.510 . S
C1006 C1002 1.401 . S
C1006 C1005 1.396 . S
C1007 C1002 1.499 . S
C1007 H1008 0.959 . S
C1007 H1009 0.960 . S
C1007 H1010 0.961 . S
H1008 C1007 0.959 . S
H1009 C1007 0.960 . S
H1010 C1007 0.961 . S
O1011 Co986 1.967 . S
O1011 C1019 1.258 . S
O1012 Co987 1.941 . S
O1012 C1019 1.266 . S
H1013 C1015 0.959 . S
H1014 C1015 0.961 . S
C1015 C1005 1.510 . S
C1015 H1013 0.959 . S
C1015 H1014 0.961 . S
C1015 H1016 0.960 . S
H1016 C1015 0.960 . S
H1017 N997 0.862 . S
O1018 Co986 1.920 . S
O1018 C991 1.289 . S
C1019 O1011 1.258 . S
C1019 O1012 1.266 . S
Co1020 O1023 1.970 . S
Co1020 N1037 1.989 . S
Co1020 O1045 1.967 . S
Co1020 O1052 1.920 . S
Co1021 O1024 1.966 . S
Co1021 N1030 2.022 . S
Co1021 N1038 1.993 . S
Co1021 O1046 1.941 1_455 S
C1022 O1023 1.258 . S
C1022 O1024 1.263 . S
O1023 Co1020 1.970 . S
O1023 C1022 1.258 . S
O1024 Co1021 1.966 . S
O1024 C1022 1.263 . S
C1025 O1026 1.235 . S
C1025 O1052 1.289 . S
O1026 C1025 1.235 . S
C1027 C1029 1.400 1_455 S
C1027 N1030 1.351 . S
C1027 C1032 1.501 . S
C1028 C1029 1.387 . S
C1028 N1031 1.341 . S
C1029 C1027 1.400 1_655 S
C1029 C1028 1.387 . S
N1030 Co1021 2.022 . S
N1030 C1027 1.351 . S
N1030 N1031 1.365 1_455 S
N1031 C1028 1.341 . S
N1031 N1030 1.365 1_655 S
N1031 H1051 0.862 . S
C1032 C1027 1.501 . S
C1032 H1033 0.961 . S
C1032 H1034 0.961 . S
C1032 H1035 0.960 . S
H1033 C1032 0.961 . S
H1034 C1032 0.961 . S
H1035 C1032 0.960 . S
C1036 N1037 1.342 . S
C1036 C1040 1.401 . S
C1036 C1041 1.499 . S
N1037 Co1020 1.989 . S
N1037 C1036 1.342 . S
N1037 N1038 1.388 . S
N1038 Co1021 1.993 . S
N1038 N1037 1.388 . S
N1038 C1039 1.346 . S
C1039 N1038 1.346 . S
C1039 C1040 1.396 . S
C1039 C1049 1.510 1_455 S
C1040 C1036 1.401 . S
C1040 C1039 1.396 . S
C1041 C1036 1.499 . S
C1041 H1042 0.959 . S
C1041 H1043 0.960 . S
C1041 H1044 0.961 . S
H1042 C1041 0.959 . S
H1043 C1041 0.960 . S
H1044 C1041 0.961 . S
O1045 Co1020 1.967 . S
O1045 C1053 1.258 . S
O1046 Co1021 1.941 1_655 S
O1046 C1053 1.266 1_655 S
H1047 C1049 0.959 . S
H1048 C1049 0.961 1_455 S
C1049 C1039 1.510 1_655 S
C1049 H1047 0.959 . S
C1049 H1048 0.961 1_655 S
C1049 H1050 0.960 . S
H1050 C1049 0.960 . S
H1051 N1031 0.862 . S
O1052 Co1020 1.920 . S
O1052 C1025 1.289 . S
C1053 O1045 1.258 . S
C1053 O1046 1.266 1_455 S
Co1054 O1057 1.970 . S
Co1054 N1071 1.989 . S
Co1054 O1079 1.967 . S
Co1054 O1086 1.920 . S
Co1055 O1058 1.966 . S
Co1055 N1064 2.022 . S
Co1055 N1072 1.993 . S
Co1055 O1080 1.941 . S
C1056 O1057 1.258 . S
C1056 O1058 1.263 . S
O1057 Co1054 1.970 . S
O1057 C1056 1.258 . S
O1058 Co1055 1.966 . S
O1058 C1056 1.263 . S
C1059 O1060 1.235 . S
C1059 O1086 1.289 . S
O1060 C1059 1.235 . S
C1061 C1063 1.400 . S
C1061 N1064 1.351 . S
C1061 C1066 1.501 . S
C1062 C1063 1.387 . S
C1062 N1065 1.341 . S
C1063 C1061 1.400 . S
C1063 C1062 1.387 . S
N1064 Co1055 2.022 . S
N1064 C1061 1.351 . S
N1064 N1065 1.365 . S
N1065 C1062 1.341 . S
N1065 N1064 1.365 . S
N1065 H1085 0.862 . S
C1066 C1061 1.501 . S
C1066 H1067 0.961 . S
C1066 H1068 0.961 . S
C1066 H1069 0.960 . S
H1067 C1066 0.961 . S
H1068 C1066 0.961 . S
H1069 C1066 0.960 . S
C1070 N1071 1.342 . S
C1070 C1074 1.401 . S
C1070 C1075 1.499 . S
N1071 Co1054 1.989 . S
N1071 C1070 1.342 . S
N1071 N1072 1.388 . S
N1072 Co1055 1.993 . S
N1072 N1071 1.388 . S
N1072 C1073 1.346 . S
C1073 N1072 1.346 . S
C1073 C1074 1.396 . S
C1073 C1083 1.510 . S
C1074 C1070 1.401 . S
C1074 C1073 1.396 . S
C1075 C1070 1.499 . S
C1075 H1076 0.959 . S
C1075 H1077 0.960 . S
C1075 H1078 0.961 . S
H1076 C1075 0.959 . S
H1077 C1075 0.960 . S
H1078 C1075 0.961 . S
O1079 Co1054 1.967 . S
O1079 C1087 1.258 . S
O1080 Co1055 1.941 . S
O1080 C1087 1.266 . S
H1081 C1083 0.959 . S
H1082 C1083 0.961 . S
C1083 C1073 1.510 . S
C1083 H1081 0.959 . S
C1083 H1082 0.961 . S
C1083 H1084 0.960 . S
H1084 C1083 0.960 . S
H1085 N1065 0.862 . S
O1086 Co1054 1.920 . S
O1086 C1059 1.289 . S
C1087 O1079 1.258 . S
C1087 O1080 1.266 . S
C20 C292 1.534 1_446 S
C54 C870 1.533 . S
C360 C88 1.534 1_545 S
C938 C122 1.533 . S
C428 C156 1.534 1_645 S
C1006 C190 1.533 . S
C224 C496 1.534 1_544 S
C258 C1074 1.533 . S
C598 C326 1.533 . S
C666 C394 1.533 . S
C734 C462 1.533 . S
C802 C530 1.533 . S
C564 C836 1.534 . S
C632 C904 1.534 1_656 S
C972 C700 1.534 1_556 S
C768 C1040 1.534 1_655 S
C5 C141 1.555 1_545 S
C175 C39 1.554 . S
C73 C209 1.555 1_565 S
C243 C107 1.554 1_554 S
C277 C413 1.555 1_565 S
C311 C447 1.554 . S
C345 C481 1.555 1_545 S
C379 C515 1.554 1_554 S
C549 C685 1.555 . S
C719 C583 1.554 1_554 S
C753 C617 1.555 . S
C651 C787 1.554 . S
C821 C957 1.555 . S
C855 C991 1.554 1_554 S
C889 C1025 1.555 . S
C1059 C923 1.554 . S
C240 C2 1.059 . S
C138 C36 1.059 . S
C70 C172 1.059 . S
C206 C104 1.059 . S
C512 C274 1.059 . S
C308 C410 1.059 . S
C444 C342 1.059 . S
C478 C376 1.059 . S
C546 C784 1.059 . S
C682 C580 1.059 . S
C716 C614 1.059 . S
C750 C648 1.059 . S
C1056 C818 1.059 . S
C852 C954 1.059 . S
C988 C886 1.059 . S
C1022 C920 1.059 . S
C9 C441 2.524 . S
C43 C1019 2.524 1_554 S
C509 C77 2.524 . S
C1087 C111 2.524 . S
C145 C305 2.524 . S
C883 C179 2.524 1_554 S
C213 C373 2.524 . S
C951 C247 2.524 . S
C169 C281 2.524 . S
C315 C747 2.524 1_556 S
C349 C237 2.524 . S
C383 C815 2.524 . S
C33 C417 2.524 . S
C451 C611 2.524 1_554 S
C101 C485 2.524 . S
C519 C679 2.524 . S
C985 C553 2.524 . S
C587 C475 2.524 . S
C1053 C621 2.524 . S
C655 C543 2.524 1_554 S
C849 C689 2.524 . S
C339 C723 2.524 . S
C917 C757 2.524 . S
C791 C407 2.524 1_556 S
C825 C713 2.524 . S
C203 C859 2.524 . S
C781 C893 2.524 . S
C271 C927 2.524 1_554 S
C961 C577 2.524 . S
C67 C995 2.524 . S
C1029 C645 2.524 . S
C1063 C135 2.524 1_554 S
