# Generated by pormake.
# Topology smc, (6)-cn, num edge types: 1
# Building blocks:
#     Node 0, Type 0, BuildingBlock: BETFAJ_clean_sbu_0, # of connection points: 6
#     Node 1, Type 0, BuildingBlock: BETFAJ_clean_sbu_0, # of connection points: 6
#     Node 2, Type 0, BuildingBlock: BETFAJ_clean_sbu_0, # of connection points: 6
#     Node 3, Type 0, BuildingBlock: BETFAJ_clean_sbu_0, # of connection points: 6
#     Node 4, Type 0, BuildingBlock: BETFAJ_clean_sbu_0, # of connection points: 6
#     Node 5, Type 0, BuildingBlock: BETFAJ_clean_sbu_0, # of connection points: 6
#     Node 6, Type 0, BuildingBlock: BETFAJ_clean_sbu_0, # of connection points: 6
#     Node 7, Type 0, BuildingBlock: BETFAJ_clean_sbu_0, # of connection points: 6
#     Node 8, Type 0, BuildingBlock: BETFAJ_clean_sbu_0, # of connection points: 6
#     Edge 9, Type (0, 0), BuildingBlock: XIVTED_clean_linker_0, # of connection points: 2
#     Edge 10, Type (0, 0), BuildingBlock: XIVTED_clean_linker_0, # of connection points: 2
#     Edge 11, Type (0, 0), BuildingBlock: XIVTED_clean_linker_0, # of connection points: 2
#     Edge 12, Type (0, 0), BuildingBlock: XIVTED_clean_linker_0, # of connection points: 2
#     Edge 13, Type (0, 0), BuildingBlock: XIVTED_clean_linker_0, # of connection points: 2
#     Edge 14, Type (0, 0), BuildingBlock: XIVTED_clean_linker_0, # of connection points: 2
#     Edge 15, Type (0, 0), BuildingBlock: XIVTED_clean_linker_0, # of connection points: 2
#     Edge 16, Type (0, 0), BuildingBlock: XIVTED_clean_linker_0, # of connection points: 2
#     Edge 17, Type (0, 0), BuildingBlock: XIVTED_clean_linker_0, # of connection points: 2
#     Edge 18, Type (0, 0), BuildingBlock: XIVTED_clean_linker_0, # of connection points: 2
#     Edge 19, Type (0, 0), BuildingBlock: XIVTED_clean_linker_0, # of connection points: 2
#     Edge 20, Type (0, 0), BuildingBlock: XIVTED_clean_linker_0, # of connection points: 2
#     Edge 21, Type (0, 0), BuildingBlock: XIVTED_clean_linker_0, # of connection points: 2
#     Edge 22, Type (0, 0), BuildingBlock: XIVTED_clean_linker_0, # of connection points: 2
#     Edge 23, Type (0, 0), BuildingBlock: XIVTED_clean_linker_0, # of connection points: 2
#     Edge 24, Type (0, 0), BuildingBlock: XIVTED_clean_linker_0, # of connection points: 2
#     Edge 25, Type (0, 0), BuildingBlock: XIVTED_clean_linker_0, # of connection points: 2
#     Edge 26, Type (0, 0), BuildingBlock: XIVTED_clean_linker_0, # of connection points: 2
#     Edge 27, Type (0, 0), BuildingBlock: XIVTED_clean_linker_0, # of connection points: 2
#     Edge 28, Type (0, 0), BuildingBlock: XIVTED_clean_linker_0, # of connection points: 2
#     Edge 29, Type (0, 0), BuildingBlock: XIVTED_clean_linker_0, # of connection points: 2
#     Edge 30, Type (0, 0), BuildingBlock: XIVTED_clean_linker_0, # of connection points: 2
#     Edge 31, Type (0, 0), BuildingBlock: XIVTED_clean_linker_0, # of connection points: 2
#     Edge 32, Type (0, 0), BuildingBlock: XIVTED_clean_linker_0, # of connection points: 2
#     Edge 33, Type (0, 0), BuildingBlock: XIVTED_clean_linker_0, # of connection points: 2
#     Edge 34, Type (0, 0), BuildingBlock: XIVTED_clean_linker_0, # of connection points: 2
#     Edge 35, Type (0, 0), BuildingBlock: XIVTED_clean_linker_0, # of connection points: 2
# Relax obj value: 0.181
# Max RMSD: 0.313
# Mean RMSD: 0.313
data_MOF--net-smc--node1-BETFAJ_clean_sbu_0--edge1-XIVTED_clean_linker_0
_symmetry_space_group_name_H-M    P1
_symmetry_Int_Tables_number       1
_symmetry_cell_setting            triclinic
loop_
_symmetry_equiv_pos_as_xyz
'x, y, z'
_cell_length_a     40.037592
_cell_length_b     40.02565
_cell_length_c     40.028443
_cell_angle_alpha  89.78932
_cell_angle_beta   89.998205
_cell_angle_gamma 120.00207
loop_
_atom_site_label
_atom_site_type_symbol
_atom_site_fract_x
_atom_site_fract_y
_atom_site_fract_z
_atom_type_partial_charge
Sm0 Sm 0.04509 0.4813 1.00862 0.0
Sm1 Sm 0.98951 0.40112 0.02297 0.0
C2 C 0.08771 0.55734 1.00458 0.0
C3 C 0.12308 0.59534 1.00682 0.0
C4 C 0.13869 0.61246 0.03779 0.0
C5 C 0.16743 0.65134 0.03942 0.0
C6 C 0.18076 0.67396 1.01017 0.0
C7 C 0.166 0.65614 0.97918 0.0
C8 C 0.13765 0.61732 0.97757 0.0
C9 C 1.01276 0.43716 0.95188 0.0
C10 C 0.08156 0.42832 1.00958 0.0
C11 C 0.93686 0.32682 0.02491 0.0
C12 C 0.89398 0.30466 0.02352 0.0
C13 C 0.87453 0.2911 0.99297 0.0
C14 C 0.83419 0.26933 0.99204 0.0
C15 C 0.81235 0.26086 0.0216 0.0
C16 C 0.8317 0.27488 0.05205 0.0
C17 C 0.872 0.29636 0.05303 0.0
C18 C 0.02699 0.43983 0.08101 0.0
C19 C 0.95797 0.46073 0.02559 0.0
O20 O 0.06998 0.53904 0.0319 0.0
O21 O 0.08313 0.53458 0.97953 0.0
O22 O 0.99431 0.43626 0.97781 0.0
O23 O 0.04888 0.46273 0.95495 0.0
O24 O 0.08909 0.46328 0.01688 0.0
O25 O 0.04544 0.39924 1.00701 0.0
O26 O 0.95558 0.34428 0.99763 0.0
O27 O 0.95215 0.34763 0.05156 0.0
O28 O 0.04239 0.44351 0.05267 0.0
O29 O 0.98993 0.41863 0.07772 0.0
O30 O 0.94745 0.4246 0.01918 0.0
O31 O 0.99453 0.4867 0.02791 0.0
H32 H 0.1278 0.59628 0.06083 0.0
H33 H 0.17856 0.66379 0.06368 0.0
H34 H 0.17484 0.67251 0.95611 0.0
H35 H 0.12563 0.60503 0.95343 0.0
H36 H 0.89047 0.29702 0.96976 0.0
H37 H 0.82004 0.25915 0.96815 0.0
H38 H 0.81572 0.26839 0.07528 0.0
H39 H 0.88591 0.30614 0.07705 0.0
Sm40 Sm 0.55328 0.57564 1.00574 0.0
Sm41 Sm 0.63845 0.60335 0.02731 0.0
C42 C 0.47989 0.55395 1.00482 0.0
C43 C 0.43883 0.54183 1.00434 0.0
C44 C 0.42114 0.54593 0.03297 0.0
C45 C 0.38202 0.53455 0.03258 0.0
C46 C 0.35974 0.51809 1.00372 0.0
C47 C 0.37791 0.51446 0.97495 0.0
C48 C 0.4172 0.52655 0.9752 0.0
C49 C 0.59809 0.57967 0.95027 0.0
C50 C 0.61063 0.66755 1.0076 0.0
C51 C 0.71277 0.62643 0.03074 0.0
C52 C 0.73583 0.60694 0.03035 0.0
C53 C 0.73177 0.58095 1.00493 0.0
C54 C 0.75445 0.56336 1.00507 0.0
C55 C 0.78136 0.57113 0.03074 0.0
C56 C 0.78457 0.59646 0.05646 0.0
C57 C 0.76216 0.61422 0.05617 0.0
C58 C 0.5924 0.59908 0.08061 0.0
C59 C 0.57587 0.51025 0.02339 0.0
O60 O 0.49602 0.54734 0.03063 0.0
O61 O 0.50261 0.57165 0.97938 0.0
O62 O 0.60682 0.58555 0.98049 0.0
O63 O 0.56171 0.56862 0.94815 0.0
O64 O 0.57499 0.63916 1.00499 0.0
O65 O 0.64013 0.66216 0.01525 0.0
O66 O 0.69551 0.62627 1.00298 0.0
O67 O 0.69137 0.6206 0.05722 0.0
O68 O 0.59094 0.61022 0.05109 0.0
O69 O 0.6152 0.5847 0.08056 0.0
O70 O 0.61289 0.53699 0.02232 0.0
O71 O 0.54832 0.51904 0.02246 0.0
H72 H 0.43765 0.55827 0.05554 0.0
H73 H 0.36933 0.53868 0.05494 0.0
H74 H 0.36169 0.50137 0.95244 0.0
H75 H 0.43048 0.52319 0.95284 0.0
H76 H 0.71133 0.57441 0.98482 0.0
H77 H 0.75143 0.54431 0.9847 0.0
H78 H 0.80432 0.60252 0.07704 0.0
H79 H 0.76543 0.63375 0.0762 0.0
Sm80 Sm 0.46283 0.99373 1.00443 0.0
Sm81 Sm 0.43403 0.04606 0.02266 0.0
C82 C 0.48366 0.94129 0.99845 0.0
C83 C 0.49437 0.91108 0.99807 0.0
C84 C 0.49376 0.89232 0.02791 0.0
C85 C 0.50578 0.86506 0.02842 0.0
C86 C 0.51935 0.85637 0.99915 0.0
C87 C 0.51917 0.87479 0.96908 0.0
C88 C 0.50655 0.90171 0.96853 0.0
C89 C 0.45602 0.0355 0.95116 0.0
C90 C 0.37051 0.95388 1.01052 0.0
C91 C 0.41235 0.09867 0.02294 0.0
C92 C 0.43321 0.14161 0.02433 0.0
C93 C 0.44343 0.16326 0.99452 0.0
C94 C 0.46224 0.20352 0.99522 0.0
C95 C 0.47124 0.22343 0.02574 0.0
C96 C 0.46169 0.20193 0.05563 0.0
C97 C 0.44285 0.16147 0.05494 0.0
C98 C 0.44266 1.0118 0.07934 0.0
C99 C 0.52641 0.07826 0.0218 0.0
O100 O 0.49128 0.96326 0.0247 0.0
O101 O 0.46498 0.94724 0.97444 0.0
O102 O 0.4328 0.01858 0.97441 0.0
O103 O 0.48587 0.03116 0.95498 0.0
O104 O 0.40005 0.94862 1.00634 0.0
O105 O 0.37469 0.98838 0.01722 0.0
O106 O 0.41716 0.08367 0.99569 0.0
O107 O 0.41176 0.07963 0.04981 0.0
O108 O 0.43023 0.99527 0.05148 0.0
O109 O 0.45641 0.04868 0.07583 0.0
O110 O 0.4999 0.0872 1.01359 0.0
O111 O 0.51647 0.04236 0.02751 0.0
H112 H 0.48406 0.89885 0.05097 0.0
H113 H 0.50449 0.85092 0.05188 0.0
H114 H 0.52985 0.86938 0.94609 0.0
H115 H 0.5074 0.916 0.94524 0.0
H116 H 0.43669 0.14908 0.97046 0.0
H117 H 0.46972 0.21906 0.97169 0.0
H118 H 0.46785 0.21629 0.07958 0.0
H119 H 0.43547 0.14578 0.07839 0.0
Sm120 Sm 0.71291 0.81484 0.34031 0.0
Sm121 Sm 0.65894 0.73551 0.35673 0.0
C122 C 0.7548 0.89074 0.33233 0.0
C123 C 0.78949 0.92953 0.33418 0.0
C124 C 0.80116 0.94965 0.36451 0.0
C125 C 0.82924 0.98879 0.36493 0.0
C126 C 0.84645 1.00879 0.33504 0.0
C127 C 0.83572 0.9881 0.30487 0.0
C128 C 0.80747 0.94902 0.30446 0.0
C129 C 0.67884 0.76866 0.28462 0.0
C130 C 0.75219 0.76444 0.34391 0.0
C131 C 0.60747 0.66068 0.35955 0.0
C132 C 0.56493 0.63697 0.35775 0.0
C133 C 0.54255 0.64935 0.34027 0.0
C134 C 0.5021 0.62696 0.34056 0.0
C135 C 0.48317 0.59178 0.35841 0.0
C136 C 0.50603 0.57968 0.37563 0.0
C137 C 0.54627 0.60211 0.37546 0.0
C138 C 0.69716 0.77477 0.41424 0.0
C139 C 0.62658 0.79494 0.35938 0.0
O140 O 0.73521 0.87421 0.3595 0.0
O141 O 0.75253 0.8663 0.30965 0.0
O142 O 0.66126 0.76859 0.31086 0.0
O143 O 0.71504 0.79414 0.28694 0.0
O144 O 0.75822 0.79905 0.35051 0.0
O145 O 0.71623 0.73468 0.34137 0.0
O146 O 0.62612 0.67806 0.33226 0.0
O147 O 0.62107 0.68243 0.3859 0.0
O148 O 0.71217 0.77885 0.38559 0.0
O149 O 0.66006 0.75329 0.4116 0.0
O150 O 0.61619 0.75866 0.35358 0.0
O151 O 0.66318 0.82103 0.36076 0.0
H152 H 0.78749 0.93566 0.38781 0.0
H153 H 0.83616 1.00366 0.38864 0.0
H154 H 0.84868 1.00217 0.28141 0.0
H155 H 0.79867 0.93439 0.28064 0.0
H156 H 0.55627 0.67653 0.32682 0.0
H157 H 0.48577 0.63773 0.32739 0.0
H158 H 0.49299 0.55258 0.38914 0.0
H159 H 0.56292 0.59221 0.38936 0.0
Sm160 Sm 0.22418 0.90625 0.33808 0.0
Sm161 Sm 0.3047 0.93778 0.35473 0.0
C162 C 0.14997 0.87916 0.32629 0.0
C163 C 0.11072 0.87352 0.32904 0.0
C164 C 0.0926 0.86878 0.36012 0.0
C165 C 0.05323 0.85682 0.3618 0.0
C166 C 0.03115 0.84934 0.33243 0.0
C167 C 0.04996 0.85566 0.3014 0.0
C168 C 0.08923 0.86751 0.29978 0.0
C169 C 0.27247 0.91442 0.28402 0.0
C170 C 0.27174 0.99826 0.34578 0.0
C171 C 0.37915 0.95995 0.35385 0.0
C172 C 0.4012 0.93914 0.35673 0.0
C173 C 0.39702 0.91143 0.33293 0.0
C174 C 0.41918 0.89331 0.33495 0.0
C175 C 0.44594 0.90208 0.36096 0.0
C176 C 0.44936 0.92912 0.38518 0.0
C177 C 0.42736 0.94744 0.38302 0.0
C178 C 0.26404 0.92841 0.41322 0.0
C179 C 0.24704 0.8457 0.35825 0.0
O180 O 0.163 0.86679 0.35048 0.0
O181 O 0.17692 0.90754 0.30882 0.0
O182 O 0.27795 0.93809 0.30643 0.0
O183 O 0.24006 0.88312 0.28968 0.0
O184 O 0.23743 0.96728 0.34489 0.0
O185 O 0.3038 0.99598 0.34818 0.0
O186 O 0.35835 0.95332 0.32696 0.0
O187 O 0.36173 0.96238 0.38062 0.0
O188 O 0.25747 0.93948 0.38548 0.0
O189 O 0.28816 0.91611 0.40872 0.0
O190 O 0.28075 0.87188 0.34611 0.0
O191 O 0.22192 0.85607 0.36595 0.0
H192 H 0.10846 0.87292 0.38311 0.0
H193 H 0.03988 0.85195 0.38619 0.0
H194 H 0.03429 0.85099 0.27824 0.0
H195 H 0.10255 0.87063 0.27553 0.0
H196 H 0.37701 0.90402 0.31234 0.0
H197 H 0.41595 0.87313 0.31556 0.0
H198 H 0.46904 0.93619 0.40596 0.0
H199 H 0.43102 0.9684 0.40183 0.0
Sm200 Sm 0.13117 0.32881 0.34194 0.0
Sm201 Sm 0.10351 0.38171 0.35514 0.0
C202 C 0.16708 0.28864 0.33667 0.0
C203 C 0.16881 0.25271 0.33653 0.0
C204 C 0.16921 0.23471 0.36657 0.0
C205 C 0.17886 0.20568 0.36659 0.0
C206 C 0.1883 0.19403 0.33659 0.0
C207 C 0.18615 0.21087 0.30642 0.0
C208 C 0.1766 0.23998 0.30642 0.0
C209 C 0.11751 0.3595 0.28489 0.0
C210 C 0.04112 0.2881 0.34238 0.0
C211 C 0.08037 0.43327 0.35649 0.0
C212 C 0.10028 0.47616 0.35564 0.0
C213 C 0.11934 0.49764 0.32688 0.0
C214 C 0.13783 0.53809 0.32704 0.0
C215 C 0.13784 0.55802 0.35599 0.0
C216 C 0.11931 0.53638 0.38482 0.0
C217 C 0.10069 0.49611 0.38456 0.0
C218 C 0.10552 0.3454 0.41376 0.0
C219 C 0.19532 0.41609 0.35855 0.0
O220 O 0.16259 0.30212 0.36501 0.0
O221 O 0.15185 0.2966 0.31119 0.0
O222 O 0.13507 0.37852 0.31049 0.0
O223 O 0.10714 0.32348 0.28872 0.0
O224 O 0.06984 0.28244 0.34967 0.0
O225 O 0.04659 0.32379 0.33953 0.0
O226 O 0.08006 0.4151 0.32927 0.0
O227 O 0.08595 0.41809 0.3833 0.0
O228 O 0.09453 0.32963 0.38552 0.0
O229 O 0.12065 0.3824 0.41027 0.0
O230 O 0.16896 0.42498 0.35009 0.0
O231 O 0.18565 0.38 0.36308 0.0
H232 H 0.16384 0.2442 0.39024 0.0
H233 H 0.18067 0.19369 0.39036 0.0
H234 H 0.19264 0.20215 0.28284 0.0
H235 H 0.17695 0.2537 0.28293 0.0
H236 H 0.11983 0.48329 0.30416 0.0
H237 H 0.15143 0.55365 0.30426 0.0
H238 H 0.11935 0.55051 0.40783 0.0
H239 H 0.08659 0.48047 0.4072 0.0
Sm240 Sm 0.37551 0.14754 0.67181 0.0
Sm241 Sm 0.32622 0.06662 0.68857 0.0
C242 C 0.42331 0.2219 0.66111 0.0
C243 C 0.45687 0.26119 0.66361 0.0
C244 C 0.47162 0.27897 0.69454 0.0
C245 C 0.49961 0.31825 0.69595 0.0
C246 C 0.51304 0.34059 0.66649 0.0
C247 C 0.49868 0.32212 0.63563 0.0
C248 C 0.47114 0.28294 0.63427 0.0
C249 C 0.33643 0.09917 0.61759 0.0
C250 C 0.4198 0.09973 0.68156 0.0
C251 C 0.27403 0.99211 0.68727 0.0
C252 C 0.23107 0.96969 0.68958 0.0
C253 C 0.20809 0.96649 0.66175 0.0
C254 C 0.16782 0.94452 0.6635 0.0
C255 C 0.14922 0.9251 0.69312 0.0
C256 C 0.17217 0.92869 0.72108 0.0
C257 C 0.21254 0.95065 0.71931 0.0
C258 C 0.35648 0.10746 0.74691 0.0
C259 C 0.29164 0.12436 0.69124 0.0
O260 O 0.39814 0.20851 0.68546 0.0
O261 O 0.42409 0.19528 0.6428 0.0
O262 O 0.35419 0.09372 0.64053 0.0
O263 O 0.33752 0.13167 0.6227 0.0
O264 O 0.42294 0.13394 0.67961 0.0
O265 O 0.38549 0.06756 0.68381 0.0
O266 O 0.28848 0.0133 0.66051 0.0
O267 O 0.29355 1.00929 0.71422 0.0
O268 O 0.37451 0.11403 0.71943 0.0
O269 O 0.32017 0.08304 0.74216 0.0
O270 O 0.28423 0.09056 0.67956 0.0
O271 O 0.32711 0.14983 0.69857 0.0
H272 H 0.46088 0.26281 0.71761 0.0
H273 H 0.51036 0.33111 0.72016 0.0
H274 H 0.50746 0.33814 0.61238 0.0
H275 H 0.45972 0.26996 0.61018 0.0
H276 H 0.22115 0.9806 0.63832 0.0
H277 H 0.15133 0.94204 0.64126 0.0
H278 H 0.15898 0.91466 0.74449 0.0
H279 H 0.22927 0.95254 0.74122 0.0
Sm280 Sm 0.89151 0.24238 0.675 0.0
Sm281 Sm 0.97189 0.26874 0.69176 0.0
C282 C 0.81548 0.20747 0.67188 0.0
C283 C 0.77733 0.20436 0.66956 0.0
C284 C 0.76225 0.21608 0.69576 0.0
C285 C 0.72333 0.20579 0.69574 0.0
C286 C 0.69881 0.18359 0.66954 0.0
C287 C 0.71463 0.17371 0.64261 0.0
C288 C 0.7534 0.18386 0.64271 0.0
C289 C 0.93772 0.25648 0.61939 0.0
C290 C 0.94305 0.33263 0.67439 0.0
C291 C 0.04649 0.29188 0.69566 0.0
C292 C 0.06983 0.27239 0.69458 0.0
C293 C 0.07324 0.25467 0.66545 0.0
C294 C 0.09554 0.23654 0.66543 0.0
C295 C 0.11483 0.23558 0.69454 0.0
C296 C 0.11078 0.25282 0.72369 0.0
C297 C 0.08876 0.27106 0.72364 0.0
C298 C 0.9308 0.26709 0.74823 0.0
C299 C 0.91334 0.17654 0.69215 0.0
O300 O 0.83464 0.21812 0.7 0.0
O301 O 0.83733 0.21645 0.64531 0.0
O302 O 0.93886 0.23918 0.64557 0.0
O303 O 0.91063 0.26518 0.6215 0.0
O304 O 0.90744 0.30431 0.67721 0.0
O305 O 0.97305 0.32681 0.67676 0.0
O306 O 0.03003 0.29399 0.66811 0.0
O307 O 0.02426 0.2843 0.72176 0.0
O308 O 0.92783 0.27829 0.71936 0.0
O309 O 0.9523 0.25142 0.74625 0.0
O310 O 0.94986 0.20323 0.689 0.0
O311 O 0.88633 0.18581 0.69246 0.0
H312 H 0.78 0.23167 0.71694 0.0
H313 H 0.71214 0.2137 0.71705 0.0
H314 H 0.69688 0.15736 0.6217 0.0
H315 H 0.7643 0.17419 0.62237 0.0
H316 H 0.05896 0.25495 0.64261 0.0
H317 H 0.09825 0.22397 0.64241 0.0
H318 H 0.12443 0.25207 0.74681 0.0
H319 H 0.08646 0.28415 0.74653 0.0
Sm320 Sm 0.79578 0.65836 0.67618 0.0
Sm321 Sm 0.76998 0.71298 0.68985 0.0
C322 C 0.83053 0.61676 0.67345 0.0
C323 C 0.83318 0.58119 0.67313 0.0
C324 C 0.83256 0.56221 0.70296 0.0
C325 C 0.84281 0.53347 0.70294 0.0
C326 C 0.85426 0.52334 0.67316 0.0
C327 C 0.85335 0.54142 0.64322 0.0
C328 C 0.8429 0.56989 0.64323 0.0
C329 C 0.78388 0.69078 0.61901 0.0
C330 C 0.70594 0.61992 0.67534 0.0
C331 C 0.74759 0.76513 0.69228 0.0
C332 C 0.76758 0.80802 0.69102 0.0
C333 C 0.78212 0.82862 0.66094 0.0
C334 C 0.80057 0.86901 0.66047 0.0
C335 C 0.80504 0.88977 0.69005 0.0
C336 C 0.79083 0.86918 0.7201 0.0
C337 C 0.77227 0.82886 0.72055 0.0
C338 C 0.77143 0.67623 0.74798 0.0
C339 C 0.86155 0.74549 0.69321 0.0
O340 O 0.82343 0.62885 0.70142 0.0
O341 O 0.81827 0.62655 0.64696 0.0
O342 O 0.80103 0.70907 0.64508 0.0
O343 O 0.77364 0.65467 0.62217 0.0
O344 O 0.73385 0.61268 0.68135 0.0
O345 O 0.71233 0.65603 0.67425 0.0
O346 O 0.74612 0.74655 0.66498 0.0
O347 O 0.75407 0.75016 0.71877 0.0
O348 O 0.75958 0.66016 0.71991 0.0
O349 O 0.78778 0.71334 0.74444 0.0
O350 O 0.83578 0.75549 0.68545 0.0
O351 O 0.85096 0.70902 0.69681 0.0
H352 H 0.82558 0.57051 0.72652 0.0
H353 H 0.84249 0.51978 0.72641 0.0
H354 H 0.86255 0.53506 0.61984 0.0
H355 H 0.84437 0.58447 0.61995 0.0
H356 H 0.77919 0.81364 0.63771 0.0
H357 H 0.81153 0.884 0.63693 0.0
H358 H 0.79326 0.88416 0.74325 0.0
H359 H 0.76132 0.81391 0.74412 0.0
H360 H 0.31384 0.5184 0.95259 0.0
H361 H 0.11956 0.41693 0.05973 0.0
H362 H 0.30881 0.48346 0.05562 0.0
H363 H 0.12283 0.43763 0.95389 0.0
H364 H 0.18858 0.43874 0.05851 0.0
H365 H 0.24383 0.48889 0.95265 0.0
C366 C 0.29812 0.50444 0.9752 0.0
C367 C 0.31745 0.50311 1.00403 0.0
C368 C 0.17403 0.43731 0.03531 0.0
C369 C 0.23712 0.46959 1.00432 0.0
C370 C 0.13448 0.42395 0.0359 0.0
C371 C 0.11533 0.42376 1.00656 0.0
C372 C 0.19456 0.45121 1.00521 0.0
C373 C 0.13636 0.43571 0.97669 0.0
C374 C 0.25809 0.48767 0.97522 0.0
C375 C 0.29543 0.48558 0.03285 0.0
N376 N 0.17498 0.44936 0.9768 0.0
N377 N 0.25649 0.4695 0.03223 0.0
H378 H 0.515 0.80541 0.95087 0.0
H379 H 0.6232 0.71899 0.05735 0.0
H380 H 0.55925 0.84525 0.05009 0.0
H381 H 0.59768 0.69751 0.95257 0.0
H382 H 0.60098 0.76595 0.05585 0.0
H383 H 0.54407 0.76457 0.952 0.0
C384 C 0.53096 0.80584 0.97285 0.0
C385 C 0.5349 0.82937 1.00025 0.0
C386 C 0.60141 0.75188 0.03293 0.0
C387 C 0.56796 0.78192 1.00188 0.0
C388 C 0.61501 0.72575 0.03363 0.0
C389 C 0.61409 0.70571 1.00466 0.0
C390 C 0.58616 0.75742 1.00313 0.0
C391 C 0.60051 0.71366 0.97508 0.0
C392 C 0.54747 0.78231 0.97352 0.0
C393 C 0.55501 0.82751 0.02841 0.0
N394 N 0.58676 0.73853 0.97514 0.0
N395 N 0.57075 0.80427 0.02848 0.0
H396 H 0.34432 0.90866 0.95704 0.0
H397 H 0.18638 0.72544 0.05862 0.0
H398 H 0.31635 0.91649 0.05953 0.0
H399 H 0.23774 0.71978 0.96537 0.0
H400 H 0.22867 0.7954 0.05855 0.0
H401 H 0.29754 0.83998 0.95756 0.0
C402 C 0.3268 0.89611 0.97921 0.0
C403 C 0.33308 0.91845 1.0079 0.0
C404 C 0.23054 0.77873 0.03815 0.0
C405 C 0.2807 0.83925 1.00932 0.0
C406 C 0.2067 0.73865 0.03828 0.0
C407 C 0.20813 0.71633 1.01182 0.0
C408 C 0.25565 0.79675 1.01117 0.0
C409 C 0.23474 0.73554 0.98594 0.0
C410 C 0.30073 0.85671 0.97976 0.0
C411 C 0.31122 0.90047 0.03656 0.0
N412 N 0.25717 0.77453 0.9862 0.0
N413 N 0.28605 0.8617 0.03665 0.0
H414 H 0.52804 0.27643 0.06742 0.0
H415 H 0.51074 0.45299 0.99601 0.0
H416 H 0.45502 0.2684 0.98487 0.0
H417 H 0.61191 0.47235 0.05039 0.0
H418 H 0.4872 0.38416 0.99687 0.0
H419 H 0.55616 0.34694 0.06688 0.0
C420 C 0.5179 0.28938 0.04922 0.0
C421 C 0.48916 0.2663 0.02605 0.0
C422 C 0.51462 0.40329 1.00857 0.0
C423 C 0.5213 0.34677 0.0253 0.0
C424 C 0.52808 0.44272 1.00824 0.0
C425 C 0.56337 0.46856 0.02326 0.0
C426 C 0.53617 0.38903 0.02447 0.0
C427 C 0.58465 0.45342 0.0384 0.0
C428 C 0.53421 0.32961 0.04878 0.0
C429 C 0.47743 0.28482 1.0029 0.0
N430 N 0.57053 0.41447 0.03891 0.0
N431 N 0.49338 0.32375 1.00324 0.0
H432 H 0.58496 0.0642 1.01087 0.0
H433 H 0.75811 0.27175 0.05434 0.0
H434 H 0.56315 0.15735 0.03165 0.0
H435 H 0.76939 0.19353 0.98761 0.0
H436 H 0.68769 0.22896 0.05392 0.0
H437 H 0.65381 0.10987 1.01028 0.0
C438 C 0.59465 0.09435 0.01545 0.0
C439 C 0.56816 0.10699 0.02136 0.0
C440 C 0.70568 0.22149 0.03919 0.0
C441 C 0.64748 0.15957 0.02086 0.0
C442 C 0.74578 0.24566 0.03956 0.0
C443 C 0.76964 0.23624 0.02086 0.0
C444 C 0.68951 0.18734 0.02054 0.0
C445 C 0.75214 0.20218 1.00207 0.0
C446 C 0.63405 0.12043 0.0149 0.0
C447 C 0.5826 0.14649 0.02686 0.0
N448 N 0.71323 0.17885 1.00262 0.0
N449 N 0.62147 0.17148 0.02678 0.0
H450 H 0.88 0.42079 1.01169 0.0
H451 H 0.85712 0.60483 0.0494 0.0
H452 H 0.97159 0.53139 0.04523 0.0
H453 H 0.76373 0.49795 1.0113 0.0
H454 H 0.89816 0.57628 0.05 0.0
H455 H 0.83558 0.44646 1.01325 0.0
C456 C 0.89066 0.45025 0.01964 0.0
C457 C 0.92953 0.4739 0.02837 0.0
C458 C 0.8687 0.55895 0.04147 0.0
C459 C 0.87923 0.50341 0.02997 0.0
C460 C 0.84505 0.57521 0.04137 0.0
C461 C 0.80668 0.55376 0.03053 0.0
C462 C 0.85415 0.52089 0.03046 0.0
C463 C 0.79319 0.51575 0.0196 0.0
C464 C 0.8654 0.46493 0.02037 0.0
C465 C 0.94192 0.51198 0.03822 0.0
N466 N 0.8169 0.5005 0.01986 0.0
N467 N 0.91692 0.52546 0.03869 0.0
H468 H 0.78409 0.7434 0.29321 0.0
H469 H 0.9904 0.86601 0.37831 0.0
H470 H 0.80185 0.784 0.3947 0.0
H471 H 0.97423 0.79704 0.29054 0.0
H472 H 0.92082 0.83805 0.38237 0.0
H473 H 0.85287 0.76237 0.2899 0.0
C474 C 0.80197 0.75444 0.31526 0.0
C475 C 0.78701 0.76084 0.34464 0.0
C476 C 0.93246 0.82889 0.36226 0.0
C477 C 0.8657 0.78471 0.34052 0.0
C478 C 0.97234 0.84482 0.35997 0.0
C479 C 0.98858 0.83379 0.33421 0.0
C480 C 0.90827 0.80184 0.33847 0.0
C481 C 0.96332 0.8069 0.31066 0.0
C482 C 0.84133 0.766 0.31319 0.0
C483 C 0.81192 0.77732 0.37196 0.0
N484 N 0.92448 0.79192 0.31332 0.0
N485 N 0.84996 0.78908 0.3691 0.0
H486 H 0.16186 0.12948 0.37557 0.0
H487 H 0.30893 0.06455 0.30731 0.0
H488 H 0.24596 0.19396 0.29896 0.0
H489 H 0.22694 1.01042 0.38736 0.0
H490 H 0.28963 0.1143 0.30375 0.0
H491 H 0.18754 0.08616 0.37966 0.0
C492 C 0.18584 0.13462 0.35963 0.0
C493 C 0.20197 0.1657 0.33717 0.0
C494 C 0.27696 0.09211 0.3228 0.0
C495 C 0.23164 0.11572 0.34143 0.0
C496 C 0.28849 0.06427 0.32519 0.0
C497 C 0.27094 0.03442 0.34876 0.0
C498 C 0.24771 0.08956 0.34409 0.0
C499 C 0.24292 0.03398 0.37012 0.0
C500 C 0.20054 0.10976 0.36188 0.0
C501 C 0.23245 0.17022 0.31652 0.0
N502 N 0.2322 0.06088 0.36719 0.0
N503 N 0.24641 0.14552 0.31919 0.0
H504 H 0.99275 0.25431 0.28918 0.0
H505 H 0.9003 0.05107 0.3829 0.0
H506 H 1.00777 0.23948 0.39364 0.0
H507 H 0.85664 0.06384 0.28785 0.0
H508 H 0.94241 0.12057 0.38499 0.0
H509 H 0.94349 0.18531 0.28618 0.0
C510 C 0.9842 0.23703 0.3118 0.0
C511 C 1.00303 0.25295 0.34204 0.0
C512 C 0.92355 0.10823 0.36367 0.0
C513 C 0.94888 0.17406 0.33849 0.0
C514 C 0.89929 0.06838 0.3625 0.0
C515 C 0.8743 0.05122 0.33537 0.0
C516 C 0.92338 0.13149 0.33737 0.0
C517 C 0.87551 0.07549 0.30921 0.0
C518 C 0.95674 0.19757 0.30998 0.0
C519 C 0.99274 0.2288 0.37021 0.0
N520 N 0.89963 0.11437 0.31085 0.0
N521 N 0.96674 0.19066 0.36768 0.0
H522 H 0.18432 0.78983 0.39068 0.0
H523 H 0.20442 0.61248 0.32393 0.0
H524 H 0.28054 0.80632 0.32994 0.0
H525 H 0.11323 0.60218 0.38846 0.0
H526 H 0.23338 0.68284 0.32519 0.0
H527 H 0.15944 0.72085 0.39033 0.0
C528 C 0.2005 0.77897 0.37742 0.0
C529 C 0.23472 0.80409 0.36035 0.0
C530 C 0.20715 0.66507 0.33918 0.0
C531 C 0.20584 0.7242 0.35961 0.0
C532 C 0.19036 0.62483 0.33828 0.0
C533 C 0.15626 0.60102 0.35623 0.0
C534 C 0.18973 0.6817 0.35812 0.0
C535 C 0.13983 0.619 0.37471 0.0
C536 C 0.18614 0.73935 0.3772 0.0
C537 C 0.25422 0.78805 0.34363 0.0
N538 N 0.15667 0.65803 0.37513 0.0
N539 N 0.23938 0.74902 0.34352 0.0
H540 H 0.23489 0.48351 0.32272 0.0
H541 H 0.43692 0.54601 0.40993 0.0
H542 H 0.25003 0.41477 0.39787 0.0
H543 H 0.42993 0.58281 0.30978 0.0
H544 H 0.36712 0.5051 0.4106 0.0
H545 H 0.30509 0.52806 0.32267 0.0
C546 C 0.25289 0.47824 0.33962 0.0
C547 C 0.23667 0.44567 0.36056 0.0
C548 C 0.38092 0.52219 0.3885 0.0
C549 C 0.31656 0.49622 0.36063 0.0
C550 C 0.42099 0.54545 0.3879 0.0
C551 C 0.43998 0.56786 0.35954 0.0
C552 C 0.35916 0.52162 0.36083 0.0
C553 C 0.41695 0.56655 0.33239 0.0
C554 C 0.29289 0.50338 0.33934 0.0
C555 C 0.26135 0.43964 0.38144 0.0
N556 N 0.37782 0.54389 0.33373 0.0
N557 N 0.29997 0.46474 0.38109 0.0
H558 H 0.42781 0.82811 0.34309 0.0
H559 H 0.64033 0.86556 0.37951 0.0
H560 H 0.52141 0.93459 0.38156 0.0
H561 H 0.54816 0.75544 0.34585 0.0
H562 H 0.59586 0.89002 0.38099 0.0
H563 H 0.47016 0.80037 0.34382 0.0
C564 C 0.45719 0.84577 0.35165 0.0
C565 C 0.47083 0.88395 0.36229 0.0
C566 C 0.58511 0.86043 0.37343 0.0
C567 C 0.51938 0.85189 0.36362 0.0
C568 C 0.61058 0.8463 0.37259 0.0
C569 C 0.59805 0.80822 0.36257 0.0
C570 C 0.54653 0.83656 0.36401 0.0
C571 C 0.55905 0.78488 0.35391 0.0
C572 C 0.48128 0.82971 0.35227 0.0
C573 C 0.50912 0.90494 0.37362 0.0
N574 N 0.53468 0.79949 0.35468 0.0
N575 N 0.5319 0.88869 0.3739 0.0
H576 H 0.66206 0.22087 0.69357 0.0
H577 H 0.44754 0.0573 0.64918 0.0
H578 H 0.63921 0.11328 0.64907 0.0
H579 H 0.47809 0.14913 0.7199 0.0
H580 H 0.5165 0.07619 0.64569 0.0
H581 H 0.59301 0.19535 0.69894 0.0
C582 C 0.64259 0.19181 0.68504 0.0
C583 C 0.65666 0.16918 0.6711 0.0
C584 C 0.50762 0.09134 0.66262 0.0
C585 C 0.57714 0.13971 0.67683 0.0
C586 C 0.46834 0.08016 0.66497 0.0
C587 C 0.45694 0.10095 0.68553 0.0
C588 C 0.53509 0.12364 0.68066 0.0
C589 C 0.48524 0.13144 0.70451 0.0
C590 C 0.60306 0.17722 0.68802 0.0
C591 C 0.62976 0.132 0.65966 0.0
N592 N 0.52279 0.14203 0.70136 0.0
N593 N 0.59124 0.11838 0.66277 0.0
H594 H 0.96146 0.38642 0.72284 0.0
H595 H 0.84555 0.47065 0.62499 0.0
H596 H 0.92546 0.36049 0.62037 0.0
H597 H 0.8974 0.51299 0.72159 0.0
H598 H 0.87467 0.42993 0.62354 0.0
H599 H 0.94048 0.4345 0.72307 0.0
C600 C 0.95116 0.39246 0.69986 0.0
C601 C 0.94685 0.37084 0.67105 0.0
C602 C 0.87975 0.44815 0.64507 0.0
C603 C 0.92042 0.42374 0.67166 0.0
C604 C 0.86314 0.47158 0.6459 0.0
C605 C 0.86919 0.49579 0.67331 0.0
C606 C 0.90245 0.44849 0.67196 0.0
C607 C 0.8915 0.49467 0.70003 0.0
C608 C 0.93832 0.41921 0.70019 0.0
C609 C 0.9308 0.3778 0.64259 0.0
N610 N 0.90729 0.47147 0.69867 0.0
N611 N 0.91785 0.40332 0.64369 0.0
H612 H 0.64763 0.5837 0.72062 0.0
H613 H 0.57007 0.38573 0.62131 0.0
H614 H 0.68272 0.57541 0.62083 0.0
H615 H 0.51946 0.39323 0.71432 0.0
H616 H 0.6114 0.45542 0.62138 0.0
H617 H 0.59903 0.51473 0.71898 0.0
C618 C 0.64371 0.56777 0.69776 0.0
C619 C 0.66802 0.58555 0.67027 0.0
C620 C 0.59122 0.44187 0.64179 0.0
C621 C 0.61427 0.50638 0.66881 0.0
C622 C 0.56735 0.40188 0.64172 0.0
C623 C 0.54063 0.38313 0.66766 0.0
C624 C 0.58891 0.46369 0.66815 0.0
C625 C 0.53969 0.40602 0.69388 0.0
C626 C 0.61654 0.52825 0.69704 0.0
C627 C 0.66339 0.5631 0.64198 0.0
N628 N 0.56344 0.44501 0.69345 0.0
N629 N 0.63738 0.52471 0.64208 0.0
H630 H 0.79558 0.93488 0.64371 0.0
H631 H 0.94753 0.13861 0.72156 0.0
H632 H 0.85607 0.94244 0.73517 0.0
H633 H 0.85034 0.12016 0.66154 0.0
H634 H 0.92259 0.06829 0.72132 0.0
H635 H 0.82444 1.00495 0.64372 0.0
C636 C 0.81519 0.95126 0.66365 0.0
C637 C 0.82339 0.93263 0.68945 0.0
C638 C 0.90694 0.07986 0.70818 0.0
C639 C 0.8564 0.01305 0.68969 0.0
C640 C 0.92123 0.11982 0.70818 0.0
C641 C 0.90086 0.13502 0.6917 0.0
C642 C 0.87276 0.05544 0.69078 0.0
C643 C 0.86676 0.10955 0.67483 0.0
C644 C 0.83142 0.99126 0.66378 0.0
C645 C 0.84865 0.95552 0.71492 0.0
N646 N 0.85396 0.07114 0.67463 0.0
N647 N 0.86437 0.99457 0.71437 0.0
H648 H 0.91735 0.73474 0.72137 0.0
H649 H 0.09428 0.93767 0.66308 0.0
H650 H 0.90123 0.82112 0.67094 0.0
H651 H 0.10556 0.85602 0.72604 0.0
H652 H 0.02417 0.89564 0.66422 0.0
H653 H 0.98648 0.77921 0.7224 0.0
C654 C 0.92831 0.76326 0.71068 0.0
C655 C 0.90327 0.77422 0.69614 0.0
C656 C 0.04202 0.8871 0.67795 0.0
C657 C 0.98314 0.82551 0.69694 0.0
C658 C 0.08216 0.91095 0.67714 0.0
C659 C 0.10622 0.90054 0.69449 0.0
C660 C 0.02561 0.85243 0.69617 0.0
C661 C 0.08848 0.86574 0.71264 0.0
C662 C 0.96795 0.7887 0.71129 0.0
C663 C 0.91939 0.81158 0.68266 0.0
N664 N 0.04944 0.843 0.71289 0.0
N665 N 0.95837 0.83583 0.68318 0.0
H666 H 0.21844 0.09018 0.66361 0.0
H667 H 0.18313 0.2599 0.72767 0.0
H668 H 0.29799 0.18665 0.7238 0.0
H669 H 0.104 0.17027 0.66139 0.0
H670 H 0.22313 0.23017 0.72862 0.0
H671 H 0.17371 0.11568 0.66459 0.0
C672 C 0.2263 0.11636 0.67731 0.0
C673 C 0.26202 0.13623 0.69364 0.0
C674 C 0.19703 0.21688 0.71382 0.0
C675 C 0.21138 0.16566 0.69465 0.0
C676 C 0.17388 0.23376 0.71347 0.0
C677 C 0.13978 0.21756 0.69459 0.0
C678 C 0.1864 0.18345 0.69505 0.0
C679 C 0.13014 0.18409 0.67607 0.0
C680 C 0.20092 0.13104 0.67769 0.0
C681 C 0.27088 0.17029 0.71074 0.0
N682 N 0.1533 0.16814 0.67677 0.0
N683 N 0.24589 0.18384 0.71072 0.0
H684 H 0.12914 0.43294 0.27314 0.0
H685 H 0.03432 0.37707 0.09021 0.0
H686 H 0.08238 0.32055 0.22841 0.0
H687 H 0.05889 0.48311 0.13812 0.0
H688 H 0.05829 0.35938 0.13937 0.0
H689 H 0.10935 0.45511 0.22325 0.0
C690 C 0.11485 0.413 0.25285 0.0
C691 C 0.1074 0.3748 0.25497 0.0
C692 C 0.05869 0.38664 0.13929 0.0
C693 C 0.08508 0.39998 0.19783 0.0
C694 C 0.04509 0.39678 0.11114 0.0
C695 C 0.04448 0.43151 0.11024 0.0
C696 C 0.07213 0.41146 0.16696 0.0
C697 C 0.05879 0.45602 0.13797 0.0
C698 C 0.10355 0.42565 0.22441 0.0
C699 C 0.08882 0.35023 0.22793 0.0
N700 N 0.07203 0.44553 0.16529 0.0
N701 N 0.07846 0.36322 0.20063 0.0
H702 H 0.60694 0.70278 0.27751 0.0
H703 H 0.63961 0.67661 0.08373 0.0
H704 H 0.71144 0.77721 0.22331 0.0
H705 H 0.56119 0.57966 0.14413 0.0
H706 H 0.65755 0.71809 0.13292 0.0
H707 H 0.58215 0.66096 0.22787 0.0
C708 C 0.62461 0.71043 0.25523 0.0
C709 C 0.6615 0.74353 0.25473 0.0
C710 C 0.63587 0.68791 0.13543 0.0
C711 C 0.63289 0.69636 0.1976 0.0
C712 C 0.62502 0.66433 0.10714 0.0
C713 C 0.59768 0.62482 0.10945 0.0
C714 C 0.61943 0.67208 0.16667 0.0
C715 C 0.58159 0.61011 0.14104 0.0
C716 C 0.61044 0.68654 0.22692 0.0
C717 C 0.68293 0.75204 0.22498 0.0
N718 N 0.59256 0.6337 0.16838 0.0
N719 N 0.6683 0.72889 0.19774 0.0
H720 H 0.45511 0.04386 0.14134 0.0
H721 H 0.26396 0.87138 0.22694 0.0
H722 H 0.38057 0.93801 0.08948 0.0
H723 H 0.33905 0.98157 0.27229 0.0
H724 H 0.30683 0.89212 0.17752 0.0
H725 H 0.41447 0.01819 0.19085 0.0
C726 C 0.43055 0.01488 0.14052 0.0
C727 C 0.42166 0.99314 0.11109 0.0
C728 C 0.31396 0.91158 0.19844 0.0
C729 C 0.37387 0.96341 0.16808 0.0
C730 C 0.2895 0.89971 0.22664 0.0
C731 C 0.2979 0.92461 0.25395 0.0
C732 C 0.34714 0.94855 0.19764 0.0
C733 C 0.33136 0.96115 0.25205 0.0
C734 C 0.40703 1.00025 0.16883 0.0
C735 C 0.3889 0.95581 0.11162 0.0
N736 N 0.35452 0.97187 0.22461 0.0
N737 N 0.36611 0.94225 0.1395 0.0
H738 H 0.49851 0.07093 0.89362 0.0
H739 H 0.32187 0.08171 0.80786 0.0
H740 H 0.38822 0.03373 0.94014 0.0
H741 H 0.43131 0.12383 0.75867 0.0
H742 H 0.34783 0.06677 0.85724 0.0
H743 H 0.47681 0.09269 0.84457 0.0
C744 C 0.46991 0.06747 0.89361 0.0
C745 C 0.44528 0.05048 0.92115 0.0
C746 C 0.36652 0.07971 0.83583 0.0
C747 C 0.42013 0.07518 0.86517 0.0
C748 C 0.35168 0.08855 0.80759 0.0
C749 C 0.37446 0.10456 0.77891 0.0
C750 C 0.40462 0.08657 0.83573 0.0
C751 C 0.41281 0.11204 0.78016 0.0
C752 C 0.45749 0.0799 0.86563 0.0
C753 C 0.40843 0.04675 0.91968 0.0
N754 N 0.42659 0.10282 0.80787 0.0
N755 N 0.39709 0.0588 0.89236 0.0
H756 H 0.94023 0.37284 0.94268 0.0
H757 H 0.98278 0.34344 0.75235 0.0
H758 H 0.04876 0.44404 0.89264 0.0
H759 H 0.89619 0.24909 0.81052 0.0
H760 H 1.00034 0.38498 0.80153 0.0
H761 H 0.91723 0.33092 0.89302 0.0
C762 C 0.95916 0.37974 0.92131 0.0
C763 C 0.99661 0.41198 0.92194 0.0
C764 C 0.97719 0.35534 0.80357 0.0
C765 C 0.97019 0.36467 0.86488 0.0
C766 C 0.96689 0.33169 0.77539 0.0
C767 C 0.93759 0.29285 0.77725 0.0
C768 C 0.95792 0.34032 0.83406 0.0
C769 C 0.91867 0.27893 0.80799 0.0
C770 C 0.94603 0.3558 0.893 0.0
C771 C 0.01973 0.41957 0.89338 0.0
N772 N 0.92904 0.30266 0.83519 0.0
N773 N 1.00615 0.39634 0.86613 0.0
H774 H 0.7866 0.70682 0.81079 0.0
H775 H 0.58236 0.55023 0.88717 0.0
H776 H 0.7055 0.60543 0.75676 0.0
H777 H 0.67477 0.63558 0.94697 0.0
H778 H 0.62598 0.57076 0.83875 0.0
H779 H 0.74582 0.6817 0.86061 0.0
C780 C 0.76053 0.67894 0.80954 0.0
C781 C 0.74979 0.65815 0.7795 0.0
C782 C 0.63695 0.58464 0.86259 0.0
C783 C 0.70214 0.62946 0.83652 0.0
C784 C 0.61203 0.57294 0.89023 0.0
C785 C 0.62518 0.59049 0.92145 0.0
C786 C 0.6753 0.61477 0.86591 0.0
C787 C 0.66378 0.62021 0.92384 0.0
C788 C 0.7371 0.66467 0.838 0.0
C789 C 0.71522 0.62239 0.77935 0.0
N790 N 0.68734 0.63154 0.89649 0.0
N791 N 0.69253 0.6094 0.80724 0.0
H792 H 0.7369 0.73584 0.41684 0.0
H793 H 0.78755 0.76143 0.61128 0.0
H794 H 0.69738 0.79622 0.47973 0.0
H795 H 0.76031 0.65772 0.55772 0.0
H796 H 0.76807 0.78471 0.56193 0.0
H797 H 0.76048 0.71795 0.46641 0.0
C798 C 0.73411 0.74627 0.44101 0.0
C799 C 0.71586 0.7684 0.444 0.0
C800 C 0.76648 0.75691 0.56107 0.0
C801 C 0.74242 0.74735 0.50118 0.0
C802 C 0.77749 0.74356 0.58924 0.0
C803 C 0.77504 0.70726 0.58892 0.0
C804 C 0.75425 0.73443 0.53191 0.0
C805 C 0.7625 0.68574 0.55928 0.0
C806 C 0.74715 0.73557 0.46936 0.0
C807 C 0.71178 0.7797 0.47623 0.0
N808 N 0.75294 0.69972 0.53202 0.0
N809 N 0.72515 0.76929 0.50354 0.0
H810 H 0.28149 0.91448 0.47611 0.0
H811 H 0.30358 0.10799 0.55939 0.0
H812 H 0.2578 0.99339 0.42238 0.0
H813 H 0.3364 0.03199 0.60707 0.0
H814 H 0.28221 0.06516 0.51023 0.0
H815 H 0.29659 0.95513 0.52574 0.0
C816 C 0.27856 0.93992 0.47488 0.0
C817 C 0.26728 0.94982 0.44496 0.0
C818 C 0.29386 0.05778 0.53158 0.0
C819 C 0.28554 0.99757 0.50195 0.0
C820 C 0.30602 0.08224 0.55966 0.0
C821 C 0.32165 0.07362 0.58758 0.0
C822 C 0.29714 0.02427 0.53147 0.0
C823 C 0.3243 0.03985 0.58636 0.0
C824 C 0.28751 0.96341 0.50324 0.0
C825 C 0.26499 0.98384 0.44495 0.0
N826 N 0.31223 0.01663 0.55901 0.0
N827 N 0.27411 1.00647 0.47277 0.0
H828 H 1.0079 0.25915 0.61298 0.0
H829 H 0.02725 0.3013 0.41681 0.0
H830 H 0.92385 0.27277 0.55659 0.0
H831 H 0.12808 0.34987 0.47941 0.0
H832 H 0.98642 0.27633 0.46662 0.0
H833 H 0.05022 0.27948 0.56339 0.0
C834 C 0.99835 0.26639 0.59027 0.0
C835 C 0.9626 0.265 0.58922 0.0
C836 C 1.01749 0.29198 0.46948 0.0
C837 C 1.00996 0.28651 0.53201 0.0
C838 C 0.04087 0.30574 0.44101 0.0
C839 C 0.08127 0.32682 0.44387 0.0
C840 C 0.03446 0.29902 0.50126 0.0
C841 C 0.09715 0.33324 0.47608 0.0
C842 C 0.02243 0.27786 0.56197 0.0
C843 C 0.9513 0.27379 0.55873 0.0
N844 N 0.07375 0.31923 0.50354 0.0
N845 N 0.97466 0.28384 0.53139 0.0
loop_
_geom_bond_atom_site_label_1
_geom_bond_atom_site_label_2
_geom_bond_distance
_geom_bond_site_symmetry_2
_ccdc_geom_bond_type
Sm0 C2 2.846 . S
Sm0 O20 2.543 1_556 S
Sm0 O21 2.450 . S
Sm0 O22 2.681 1_455 S
Sm0 O23 2.464 . S
Sm0 O24 2.396 . S
Sm0 O28 2.386 1_556 S
Sm0 O31 2.408 1_456 S
Sm1 C11 2.846 . S
Sm1 O22 2.386 1_554 S
Sm1 O25 2.409 1_655 S
Sm1 O26 2.543 1_554 S
Sm1 O27 2.450 . S
Sm1 O28 2.681 1_655 S
Sm1 O29 2.464 . S
Sm1 O30 2.396 . S
C2 Sm0 2.846 . S
C2 C3 1.506 . S
C2 O20 1.261 1_556 S
C2 O21 1.242 . S
C3 C2 1.506 . S
C3 C4 1.358 1_556 S
C3 C8 1.382 . S
C4 C3 1.358 1_554 S
C4 C5 1.385 . S
C4 H32 0.930 . S
C5 C4 1.385 . S
C5 C6 1.395 1_554 S
C5 H33 0.929 . S
C6 C5 1.395 1_556 S
C6 C7 1.335 . S
C7 C6 1.335 . S
C7 C8 1.398 . S
C7 H34 0.930 . S
C8 C3 1.382 . S
C8 C7 1.398 . S
C8 H35 0.929 . S
C9 O22 1.271 . S
C9 O23 1.251 1_655 S
C10 O24 1.252 . S
C10 O25 1.270 1_556 S
C11 Sm1 2.846 . S
C11 C12 1.506 . S
C11 O26 1.261 1_554 S
C11 O27 1.242 . S
C12 C11 1.506 . S
C12 C13 1.358 1_554 S
C12 C17 1.382 . S
C13 C12 1.358 1_556 S
C13 C14 1.385 . S
C13 H36 0.930 . S
C14 C13 1.385 . S
C14 C15 1.395 1_556 S
C14 H37 0.929 . S
C15 C14 1.395 1_554 S
C15 C16 1.335 . S
C16 C15 1.335 . S
C16 C17 1.398 . S
C16 H38 0.930 . S
C17 C12 1.382 . S
C17 C16 1.398 . S
C17 H39 0.929 . S
C18 O28 1.271 . S
C18 O29 1.251 1_455 S
C19 O30 1.252 . S
C19 O31 1.272 . S
O20 Sm0 2.543 1_554 S
O20 C2 1.261 1_554 S
O21 Sm0 2.450 . S
O21 C2 1.242 . S
O22 Sm0 2.681 1_655 S
O22 Sm1 2.386 1_556 S
O22 C9 1.271 . S
O23 Sm0 2.464 . S
O23 C9 1.251 1_455 S
O24 Sm0 2.396 . S
O24 C10 1.252 . S
O25 Sm1 2.409 1_455 S
O25 C10 1.270 1_554 S
O26 Sm1 2.543 1_556 S
O26 C11 1.261 1_556 S
O27 Sm1 2.450 . S
O27 C11 1.242 . S
O28 Sm0 2.386 1_554 S
O28 Sm1 2.681 1_455 S
O28 C18 1.271 . S
O29 Sm1 2.464 . S
O29 C18 1.251 1_655 S
O30 Sm1 2.396 . S
O30 C19 1.252 . S
O31 Sm0 2.408 1_654 S
O31 C19 1.272 . S
H32 C4 0.930 . S
H33 C5 0.929 . S
H34 C7 0.930 . S
H35 C8 0.929 . S
H36 C13 0.930 . S
H37 C14 0.929 . S
H38 C16 0.930 . S
H39 C17 0.929 . S
Sm40 C42 2.846 . S
Sm40 O60 2.543 1_556 S
Sm40 O61 2.450 . S
Sm40 O62 2.681 . S
Sm40 O63 2.464 . S
Sm40 O64 2.396 . S
Sm40 O68 2.386 1_556 S
Sm40 O71 2.408 1_556 S
Sm41 C51 2.846 . S
Sm41 O62 2.386 1_554 S
Sm41 O65 2.409 . S
Sm41 O66 2.543 1_554 S
Sm41 O67 2.450 . S
Sm41 O68 2.681 . S
Sm41 O69 2.464 . S
Sm41 O70 2.396 . S
C42 Sm40 2.846 . S
C42 C43 1.506 . S
C42 O60 1.261 1_556 S
C42 O61 1.242 . S
C43 C42 1.506 . S
C43 C44 1.358 1_556 S
C43 C48 1.382 . S
C44 C43 1.358 1_554 S
C44 C45 1.385 . S
C44 H72 0.930 . S
C45 C44 1.385 . S
C45 C46 1.395 1_554 S
C45 H73 0.929 . S
C46 C45 1.395 1_556 S
C46 C47 1.335 . S
C47 C46 1.335 . S
C47 C48 1.398 . S
C47 H74 0.930 . S
C48 C43 1.382 . S
C48 C47 1.398 . S
C48 H75 0.929 . S
C49 O62 1.271 . S
C49 O63 1.251 . S
C50 O64 1.252 . S
C50 O65 1.270 1_556 S
C51 Sm41 2.846 . S
C51 C52 1.506 . S
C51 O66 1.261 1_554 S
C51 O67 1.242 . S
C52 C51 1.506 . S
C52 C53 1.358 1_554 S
C52 C57 1.382 . S
C53 C52 1.358 1_556 S
C53 C54 1.385 . S
C53 H76 0.930 . S
C54 C53 1.385 . S
C54 C55 1.395 1_556 S
C54 H77 0.929 . S
C55 C54 1.395 1_554 S
C55 C56 1.335 . S
C56 C55 1.335 . S
C56 C57 1.398 . S
C56 H78 0.930 . S
C57 C52 1.382 . S
C57 C56 1.398 . S
C57 H79 0.929 . S
C58 O68 1.271 . S
C58 O69 1.251 . S
C59 O70 1.252 . S
C59 O71 1.272 . S
O60 Sm40 2.543 1_554 S
O60 C42 1.261 1_554 S
O61 Sm40 2.450 . S
O61 C42 1.242 . S
O62 Sm40 2.681 . S
O62 Sm41 2.386 1_556 S
O62 C49 1.271 . S
O63 Sm40 2.464 . S
O63 C49 1.251 . S
O64 Sm40 2.396 . S
O64 C50 1.252 . S
O65 Sm41 2.409 . S
O65 C50 1.270 1_554 S
O66 Sm41 2.543 1_556 S
O66 C51 1.261 1_556 S
O67 Sm41 2.450 . S
O67 C51 1.242 . S
O68 Sm40 2.386 1_554 S
O68 Sm41 2.681 . S
O68 C58 1.271 . S
O69 Sm41 2.464 . S
O69 C58 1.251 . S
O70 Sm41 2.396 . S
O70 C59 1.252 . S
O71 Sm40 2.408 1_554 S
O71 C59 1.272 . S
H72 C44 0.930 . S
H73 C45 0.929 . S
H74 C47 0.930 . S
H75 C48 0.929 . S
H76 C53 0.930 . S
H77 C54 0.929 . S
H78 C56 0.930 . S
H79 C57 0.929 . S
Sm80 C82 2.846 . S
Sm80 O100 2.543 1_556 S
Sm80 O101 2.450 . S
Sm80 O102 2.681 1_565 S
Sm80 O103 2.464 . S
Sm80 O104 2.396 . S
Sm80 O108 2.386 1_556 S
Sm80 O111 2.408 1_566 S
Sm81 C91 2.846 . S
Sm81 O102 2.386 1_554 S
Sm81 O105 2.409 1_545 S
Sm81 O106 2.543 1_554 S
Sm81 O107 2.450 . S
Sm81 O108 2.681 1_545 S
Sm81 O109 2.464 . S
Sm81 O110 2.396 . S
C82 Sm80 2.846 . S
C82 C83 1.506 . S
C82 O100 1.261 1_556 S
C82 O101 1.242 . S
C83 C82 1.506 . S
C83 C84 1.358 1_556 S
C83 C88 1.382 . S
C84 C83 1.358 1_554 S
C84 C85 1.385 . S
C84 H112 0.930 . S
C85 C84 1.385 . S
C85 C86 1.395 1_554 S
C85 H113 0.929 . S
C86 C85 1.395 1_556 S
C86 C87 1.335 . S
C87 C86 1.335 . S
C87 C88 1.398 . S
C87 H114 0.930 . S
C88 C83 1.382 . S
C88 C87 1.398 . S
C88 H115 0.929 . S
C89 O102 1.271 . S
C89 O103 1.251 1_545 S
C90 O104 1.252 . S
C90 O105 1.270 1_556 S
C91 Sm81 2.846 . S
C91 C92 1.506 . S
C91 O106 1.261 1_554 S
C91 O107 1.242 . S
C92 C91 1.506 . S
C92 C93 1.358 1_554 S
C92 C97 1.382 . S
C93 C92 1.358 1_556 S
C93 C94 1.385 . S
C93 H116 0.930 . S
C94 C93 1.385 . S
C94 C95 1.395 1_556 S
C94 H117 0.929 . S
C95 C94 1.395 1_554 S
C95 C96 1.335 . S
C96 C95 1.335 . S
C96 C97 1.398 . S
C96 H118 0.930 . S
C97 C92 1.382 . S
C97 C96 1.398 . S
C97 H119 0.929 . S
C98 O108 1.271 . S
C98 O109 1.251 1_565 S
C99 O110 1.252 . S
C99 O111 1.272 . S
O100 Sm80 2.543 1_554 S
O100 C82 1.261 1_554 S
O101 Sm80 2.450 . S
O101 C82 1.242 . S
O102 Sm80 2.681 1_545 S
O102 Sm81 2.386 1_556 S
O102 C89 1.271 . S
O103 Sm80 2.464 . S
O103 C89 1.251 1_565 S
O104 Sm80 2.396 . S
O104 C90 1.252 . S
O105 Sm81 2.409 1_565 S
O105 C90 1.270 1_554 S
O106 Sm81 2.543 1_556 S
O106 C91 1.261 1_556 S
O107 Sm81 2.450 . S
O107 C91 1.242 . S
O108 Sm80 2.386 1_554 S
O108 Sm81 2.681 1_565 S
O108 C98 1.271 . S
O109 Sm81 2.464 . S
O109 C98 1.251 1_545 S
O110 Sm81 2.396 . S
O110 C99 1.252 . S
O111 Sm80 2.408 1_544 S
O111 C99 1.272 . S
H112 C84 0.930 . S
H113 C85 0.929 . S
H114 C87 0.930 . S
H115 C88 0.929 . S
H116 C93 0.930 . S
H117 C94 0.929 . S
H118 C96 0.930 . S
H119 C97 0.929 . S
Sm120 C122 2.846 . S
Sm120 O140 2.543 . S
Sm120 O141 2.450 . S
Sm120 O142 2.681 . S
Sm120 O143 2.464 . S
Sm120 O144 2.396 . S
Sm120 O148 2.386 . S
Sm120 O151 2.408 . S
Sm121 C131 2.846 . S
Sm121 O142 2.386 . S
Sm121 O145 2.408 . S
Sm121 O146 2.543 . S
Sm121 O147 2.450 . S
Sm121 O148 2.681 . S
Sm121 O149 2.464 . S
Sm121 O150 2.396 . S
C122 Sm120 2.846 . S
C122 C123 1.506 . S
C122 O140 1.261 . S
C122 O141 1.242 . S
C123 C122 1.506 . S
C123 C124 1.358 . S
C123 C128 1.382 . S
C124 C123 1.358 . S
C124 C125 1.385 . S
C124 H152 0.930 . S
C125 C124 1.385 . S
C125 C126 1.395 . S
C125 H153 0.929 . S
C126 C125 1.395 . S
C126 C127 1.335 . S
C127 C126 1.335 . S
C127 C128 1.398 . S
C127 H154 0.938 . S
C128 C123 1.382 . S
C128 C127 1.398 . S
C128 H155 0.929 . S
C129 O142 1.271 . S
C129 O143 1.251 . S
C130 O144 1.252 . S
C130 O145 1.272 . S
C131 Sm121 2.846 . S
C131 C132 1.506 . S
C131 O146 1.261 . S
C131 O147 1.242 . S
C132 C131 1.506 . S
C132 C133 1.358 . S
C132 C137 1.382 . S
C133 C132 1.358 . S
C133 C134 1.385 . S
C133 H156 0.930 . S
C134 C133 1.385 . S
C134 C135 1.395 . S
C134 H157 0.929 . S
C135 C134 1.395 . S
C135 C136 1.335 . S
C136 C135 1.335 . S
C136 C137 1.398 . S
C136 H158 0.930 . S
C137 C132 1.382 . S
C137 C136 1.398 . S
C137 H159 0.929 . S
C138 O148 1.271 . S
C138 O149 1.251 . S
C139 O150 1.252 . S
C139 O151 1.272 . S
O140 Sm120 2.543 . S
O140 C122 1.261 . S
O141 Sm120 2.450 . S
O141 C122 1.242 . S
O142 Sm120 2.681 . S
O142 Sm121 2.386 . S
O142 C129 1.271 . S
O143 Sm120 2.464 . S
O143 C129 1.251 . S
O144 Sm120 2.396 . S
O144 C130 1.252 . S
O145 Sm121 2.408 . S
O145 C130 1.272 . S
O146 Sm121 2.543 . S
O146 C131 1.261 . S
O147 Sm121 2.450 . S
O147 C131 1.242 . S
O148 Sm120 2.386 . S
O148 Sm121 2.681 . S
O148 C138 1.271 . S
O149 Sm121 2.464 . S
O149 C138 1.251 . S
O150 Sm121 2.396 . S
O150 C139 1.252 . S
O151 Sm120 2.408 . S
O151 C139 1.272 . S
H152 C124 0.930 . S
H153 C125 0.929 . S
H154 C127 0.938 . S
H155 C128 0.929 . S
H156 C133 0.930 . S
H157 C134 0.929 . S
H158 C136 0.930 . S
H159 C137 0.929 . S
Sm160 C162 2.846 . S
Sm160 O180 2.543 . S
Sm160 O181 2.450 . S
Sm160 O182 2.681 . S
Sm160 O183 2.464 . S
Sm160 O184 2.396 . S
Sm160 O188 2.386 . S
Sm160 O191 2.408 . S
Sm161 C171 2.846 . S
Sm161 O182 2.386 . S
Sm161 O185 2.408 . S
Sm161 O186 2.543 . S
Sm161 O187 2.450 . S
Sm161 O188 2.681 . S
Sm161 O189 2.464 . S
Sm161 O190 2.396 . S
C162 Sm160 2.846 . S
C162 C163 1.506 . S
C162 O180 1.261 . S
C162 O181 1.242 . S
C163 C162 1.506 . S
C163 C164 1.358 . S
C163 C168 1.382 . S
C164 C163 1.358 . S
C164 C165 1.385 . S
C164 H192 0.930 . S
C165 C164 1.385 . S
C165 C166 1.395 . S
C165 H193 0.929 . S
C166 C165 1.395 . S
C166 C167 1.335 . S
C167 C166 1.335 . S
C167 C168 1.398 . S
C167 H194 0.930 . S
C168 C163 1.382 . S
C168 C167 1.398 . S
C168 H195 0.929 . S
C169 O182 1.271 . S
C169 O183 1.251 . S
C170 O184 1.252 . S
C170 O185 1.272 . S
C171 Sm161 2.846 . S
C171 C172 1.506 . S
C171 O186 1.261 . S
C171 O187 1.242 . S
C172 C171 1.506 . S
C172 C173 1.358 . S
C172 C177 1.382 . S
C173 C172 1.358 . S
C173 C174 1.385 . S
C173 H196 0.930 . S
C174 C173 1.385 . S
C174 C175 1.395 . S
C174 H197 0.929 . S
C175 C174 1.395 . S
C175 C176 1.335 . S
C176 C175 1.335 . S
C176 C177 1.398 . S
C176 H198 0.930 . S
C177 C172 1.382 . S
C177 C176 1.398 . S
C177 H199 0.929 . S
C178 O188 1.271 . S
C178 O189 1.251 . S
C179 O190 1.252 . S
C179 O191 1.272 . S
O180 Sm160 2.543 . S
O180 C162 1.261 . S
O181 Sm160 2.450 . S
O181 C162 1.242 . S
O182 Sm160 2.681 . S
O182 Sm161 2.386 . S
O182 C169 1.271 . S
O183 Sm160 2.464 . S
O183 C169 1.251 . S
O184 Sm160 2.396 . S
O184 C170 1.252 . S
O185 Sm161 2.408 . S
O185 C170 1.272 . S
O186 Sm161 2.543 . S
O186 C171 1.261 . S
O187 Sm161 2.450 . S
O187 C171 1.242 . S
O188 Sm160 2.386 . S
O188 Sm161 2.681 . S
O188 C178 1.271 . S
O189 Sm161 2.464 . S
O189 C178 1.251 . S
O190 Sm161 2.396 . S
O190 C179 1.252 . S
O191 Sm160 2.408 . S
O191 C179 1.272 . S
H192 C164 0.930 . S
H193 C165 0.929 . S
H194 C167 0.930 . S
H195 C168 0.929 . S
H196 C173 0.930 . S
H197 C174 0.929 . S
H198 C176 0.930 . S
H199 C177 0.929 . S
Sm200 C202 2.846 . S
Sm200 O220 2.543 . S
Sm200 O221 2.450 . S
Sm200 O222 2.681 . S
Sm200 O223 2.464 . S
Sm200 O224 2.396 . S
Sm200 O228 2.386 . S
Sm200 O231 2.408 . S
Sm201 C211 2.846 . S
Sm201 O222 2.386 . S
Sm201 O225 2.408 . S
Sm201 O226 2.543 . S
Sm201 O227 2.450 . S
Sm201 O228 2.681 . S
Sm201 O229 2.464 . S
Sm201 O230 2.396 . S
C202 Sm200 2.846 . S
C202 C203 1.506 . S
C202 O220 1.261 . S
C202 O221 1.242 . S
C203 C202 1.506 . S
C203 C204 1.358 . S
C203 C208 1.382 . S
C204 C203 1.358 . S
C204 C205 1.385 . S
C204 H232 0.930 . S
C205 C204 1.385 . S
C205 C206 1.395 . S
C205 H233 0.929 . S
C206 C205 1.395 . S
C206 C207 1.335 . S
C207 C206 1.335 . S
C207 C208 1.398 . S
C207 H234 0.930 . S
C208 C203 1.382 . S
C208 C207 1.398 . S
C208 H235 0.929 . S
C209 O222 1.271 . S
C209 O223 1.251 . S
C210 O224 1.252 . S
C210 O225 1.272 . S
C211 Sm201 2.846 . S
C211 C212 1.506 . S
C211 O226 1.261 . S
C211 O227 1.242 . S
C212 C211 1.506 . S
C212 C213 1.358 . S
C212 C217 1.382 . S
C213 C212 1.358 . S
C213 C214 1.385 . S
C213 H236 0.930 . S
C214 C213 1.385 . S
C214 C215 1.395 . S
C214 H237 0.929 . S
C215 C214 1.395 . S
C215 C216 1.335 . S
C216 C215 1.335 . S
C216 C217 1.398 . S
C216 H238 0.930 . S
C217 C212 1.382 . S
C217 C216 1.398 . S
C217 H239 0.929 . S
C218 O228 1.271 . S
C218 O229 1.251 . S
C219 O230 1.252 . S
C219 O231 1.272 . S
O220 Sm200 2.543 . S
O220 C202 1.261 . S
O221 Sm200 2.450 . S
O221 C202 1.242 . S
O222 Sm200 2.681 . S
O222 Sm201 2.386 . S
O222 C209 1.271 . S
O223 Sm200 2.464 . S
O223 C209 1.251 . S
O224 Sm200 2.396 . S
O224 C210 1.252 . S
O225 Sm201 2.408 . S
O225 C210 1.272 . S
O226 Sm201 2.543 . S
O226 C211 1.261 . S
O227 Sm201 2.450 . S
O227 C211 1.242 . S
O228 Sm200 2.386 . S
O228 Sm201 2.681 . S
O228 C218 1.271 . S
O229 Sm201 2.464 . S
O229 C218 1.251 . S
O230 Sm201 2.396 . S
O230 C219 1.252 . S
O231 Sm200 2.408 . S
O231 C219 1.272 . S
H232 C204 0.930 . S
H233 C205 0.929 . S
H234 C207 0.930 . S
H235 C208 0.929 . S
H236 C213 0.930 . S
H237 C214 0.929 . S
H238 C216 0.930 . S
H239 C217 0.929 . S
Sm240 C242 2.846 . S
Sm240 O260 2.543 . S
Sm240 O261 2.450 . S
Sm240 O262 2.681 . S
Sm240 O263 2.464 . S
Sm240 O264 2.396 . S
Sm240 O268 2.386 . S
Sm240 O271 2.408 . S
Sm241 C251 2.846 . S
Sm241 O262 2.386 . S
Sm241 O265 2.408 . S
Sm241 O266 2.543 . S
Sm241 O267 2.450 . S
Sm241 O268 2.681 . S
Sm241 O269 2.464 . S
Sm241 O270 2.396 . S
C242 Sm240 2.846 . S
C242 C243 1.506 . S
C242 O260 1.261 . S
C242 O261 1.242 . S
C243 C242 1.506 . S
C243 C244 1.358 . S
C243 C248 1.382 . S
C244 C243 1.358 . S
C244 C245 1.385 . S
C244 H272 0.930 . S
C245 C244 1.385 . S
C245 C246 1.395 . S
C245 H273 0.929 . S
C246 C245 1.395 . S
C246 C247 1.335 . S
C247 C246 1.335 . S
C247 C248 1.398 . S
C247 H274 0.930 . S
C248 C243 1.382 . S
C248 C247 1.398 . S
C248 H275 0.929 . S
C249 O262 1.271 . S
C249 O263 1.251 . S
C250 O264 1.252 . S
C250 O265 1.272 . S
C251 Sm241 2.846 . S
C251 C252 1.506 1_545 S
C251 O266 1.261 . S
C251 O267 1.242 . S
C252 C251 1.506 1_565 S
C252 C253 1.358 . S
C252 C257 1.382 . S
C253 C252 1.358 . S
C253 C254 1.385 . S
C253 H276 0.930 . S
C254 C253 1.385 . S
C254 C255 1.395 . S
C254 H277 0.929 . S
C255 C254 1.395 . S
C255 C256 1.335 . S
C256 C255 1.335 . S
C256 C257 1.398 . S
C256 H278 0.930 . S
C257 C252 1.382 . S
C257 C256 1.398 . S
C257 H279 0.929 . S
C258 O268 1.271 . S
C258 O269 1.251 . S
C259 O270 1.252 . S
C259 O271 1.272 . S
O260 Sm240 2.543 . S
O260 C242 1.261 . S
O261 Sm240 2.450 . S
O261 C242 1.242 . S
O262 Sm240 2.681 . S
O262 Sm241 2.386 . S
O262 C249 1.271 . S
O263 Sm240 2.464 . S
O263 C249 1.251 . S
O264 Sm240 2.396 . S
O264 C250 1.252 . S
O265 Sm241 2.408 . S
O265 C250 1.272 . S
O266 Sm241 2.543 . S
O266 C251 1.261 . S
O267 Sm241 2.450 . S
O267 C251 1.242 . S
O268 Sm240 2.386 . S
O268 Sm241 2.681 . S
O268 C258 1.271 . S
O269 Sm241 2.464 . S
O269 C258 1.251 . S
O270 Sm241 2.396 . S
O270 C259 1.252 . S
O271 Sm240 2.408 . S
O271 C259 1.272 . S
H272 C244 0.930 . S
H273 C245 0.929 . S
H274 C247 0.930 . S
H275 C248 0.929 . S
H276 C253 0.930 . S
H277 C254 0.929 . S
H278 C256 0.930 . S
H279 C257 0.929 . S
Sm280 C282 2.846 . S
Sm280 O300 2.543 . S
Sm280 O301 2.450 . S
Sm280 O302 2.681 . S
Sm280 O303 2.464 . S
Sm280 O304 2.396 . S
Sm280 O308 2.386 . S
Sm280 O311 2.408 . S
Sm281 C291 2.846 1_655 S
Sm281 O302 2.386 . S
Sm281 O305 2.408 . S
Sm281 O306 2.543 . S
Sm281 O307 2.450 . S
Sm281 O308 2.681 . S
Sm281 O309 2.464 . S
Sm281 O310 2.396 . S
C282 Sm280 2.846 . S
C282 C283 1.506 . S
C282 O300 1.261 . S
C282 O301 1.242 . S
C283 C282 1.506 . S
C283 C284 1.358 . S
C283 C288 1.382 . S
C284 C283 1.358 . S
C284 C285 1.385 . S
C284 H312 0.930 . S
C285 C284 1.385 . S
C285 C286 1.395 . S
C285 H313 0.929 . S
C286 C285 1.395 . S
C286 C287 1.335 . S
C287 C286 1.335 . S
C287 C288 1.398 . S
C287 H314 0.930 . S
C288 C283 1.382 . S
C288 C287 1.398 . S
C288 H315 0.929 . S
C289 O302 1.271 . S
C289 O303 1.251 . S
C290 O304 1.252 . S
C290 O305 1.272 . S
C291 Sm281 2.846 1_455 S
C291 C292 1.506 . S
C291 O306 1.261 1_455 S
C291 O307 1.242 1_455 S
C292 C291 1.506 . S
C292 C293 1.358 . S
C292 C297 1.382 . S
C293 C292 1.358 . S
C293 C294 1.385 . S
C293 H316 0.930 . S
C294 C293 1.385 . S
C294 C295 1.395 . S
C294 H317 0.929 . S
C295 C294 1.395 . S
C295 C296 1.335 . S
C296 C295 1.335 . S
C296 C297 1.398 . S
C296 H318 0.930 . S
C297 C292 1.382 . S
C297 C296 1.398 . S
C297 H319 0.929 . S
C298 O308 1.271 . S
C298 O309 1.251 . S
C299 O310 1.252 . S
C299 O311 1.272 . S
O300 Sm280 2.543 . S
O300 C282 1.261 . S
O301 Sm280 2.450 . S
O301 C282 1.242 . S
O302 Sm280 2.681 . S
O302 Sm281 2.386 . S
O302 C289 1.271 . S
O303 Sm280 2.464 . S
O303 C289 1.251 . S
O304 Sm280 2.396 . S
O304 C290 1.252 . S
O305 Sm281 2.408 . S
O305 C290 1.272 . S
O306 Sm281 2.543 . S
O306 C291 1.261 1_655 S
O307 Sm281 2.450 . S
O307 C291 1.242 1_655 S
O308 Sm280 2.386 . S
O308 Sm281 2.681 . S
O308 C298 1.271 . S
O309 Sm281 2.464 . S
O309 C298 1.251 . S
O310 Sm281 2.396 . S
O310 C299 1.252 . S
O311 Sm280 2.408 . S
O311 C299 1.272 . S
H312 C284 0.930 . S
H313 C285 0.929 . S
H314 C287 0.930 . S
H315 C288 0.929 . S
H316 C293 0.930 . S
H317 C294 0.929 . S
H318 C296 0.930 . S
H319 C297 0.929 . S
Sm320 C322 2.846 . S
Sm320 O340 2.543 . S
Sm320 O341 2.450 . S
Sm320 O342 2.681 . S
Sm320 O343 2.464 . S
Sm320 O344 2.396 . S
Sm320 O348 2.386 . S
Sm320 O351 2.408 . S
Sm321 C331 2.846 . S
Sm321 O342 2.386 . S
Sm321 O345 2.408 . S
Sm321 O346 2.543 . S
Sm321 O347 2.450 . S
Sm321 O348 2.681 . S
Sm321 O349 2.464 . S
Sm321 O350 2.396 . S
C322 Sm320 2.846 . S
C322 C323 1.506 . S
C322 O340 1.261 . S
C322 O341 1.242 . S
C323 C322 1.506 . S
C323 C324 1.358 . S
C323 C328 1.382 . S
C324 C323 1.358 . S
C324 C325 1.385 . S
C324 H352 0.930 . S
C325 C324 1.385 . S
C325 C326 1.395 . S
C325 H353 0.929 . S
C326 C325 1.395 . S
C326 C327 1.335 . S
C327 C326 1.335 . S
C327 C328 1.398 . S
C327 H354 0.930 . S
C328 C323 1.382 . S
C328 C327 1.398 . S
C328 H355 0.929 . S
C329 O342 1.271 . S
C329 O343 1.251 . S
C330 O344 1.252 . S
C330 O345 1.272 . S
C331 Sm321 2.846 . S
C331 C332 1.506 . S
C331 O346 1.261 . S
C331 O347 1.242 . S
C332 C331 1.506 . S
C332 C333 1.358 . S
C332 C337 1.382 . S
C333 C332 1.358 . S
C333 C334 1.385 . S
C333 H356 0.930 . S
C334 C333 1.385 . S
C334 C335 1.395 . S
C334 H357 0.929 . S
C335 C334 1.395 . S
C335 C336 1.335 . S
C336 C335 1.335 . S
C336 C337 1.398 . S
C336 H358 0.930 . S
C337 C332 1.382 . S
C337 C336 1.398 . S
C337 H359 0.929 . S
C338 O348 1.271 . S
C338 O349 1.251 . S
C339 O350 1.252 . S
C339 O351 1.272 . S
O340 Sm320 2.543 . S
O340 C322 1.261 . S
O341 Sm320 2.450 . S
O341 C322 1.242 . S
O342 Sm320 2.681 . S
O342 Sm321 2.386 . S
O342 C329 1.271 . S
O343 Sm320 2.464 . S
O343 C329 1.251 . S
O344 Sm320 2.396 . S
O344 C330 1.252 . S
O345 Sm321 2.408 . S
O345 C330 1.272 . S
O346 Sm321 2.543 . S
O346 C331 1.261 . S
O347 Sm321 2.450 . S
O347 C331 1.242 . S
O348 Sm320 2.386 . S
O348 Sm321 2.681 . S
O348 C338 1.271 . S
O349 Sm321 2.464 . S
O349 C338 1.251 . S
O350 Sm321 2.396 . S
O350 C339 1.252 . S
O351 Sm320 2.408 . S
O351 C339 1.272 . S
H352 C324 0.930 . S
H353 C325 0.929 . S
H354 C327 0.930 . S
H355 C328 0.929 . S
H356 C333 0.930 . S
H357 C334 0.929 . S
H358 C336 0.930 . S
H359 C337 0.929 . S
H360 C366 0.930 . S
H361 C370 0.930 . S
H362 C375 0.929 . S
H363 C373 0.929 . S
H364 C368 0.929 . S
H365 C374 0.929 . S
C366 H360 0.930 . S
C366 C367 1.367 . S
C366 C374 1.378 . S
C367 C366 1.367 . S
C367 C375 1.433 1_556 S
C368 H364 0.929 . S
C368 C370 1.378 . S
C368 C372 1.350 1_554 S
C369 C372 1.463 . S
C369 C374 1.350 . S
C369 N377 1.427 1_556 S
C370 H361 0.930 . S
C370 C368 1.378 . S
C370 C371 1.367 1_554 S
C371 C370 1.367 1_556 S
C371 C373 1.433 . S
C372 C368 1.350 1_556 S
C372 C369 1.463 . S
C372 N376 1.427 . S
C373 H363 0.929 . S
C373 C371 1.433 . S
C373 N376 1.384 . S
C374 H365 0.929 . S
C374 C366 1.378 . S
C374 C369 1.350 . S
C375 H362 0.929 . S
C375 C367 1.433 1_554 S
C375 N377 1.384 . S
N376 C372 1.427 . S
N376 C373 1.384 . S
N377 C369 1.427 1_554 S
N377 C375 1.384 . S
H378 C384 0.930 . S
H379 C388 0.930 . S
H380 C393 0.929 . S
H381 C391 0.929 . S
H382 C386 0.929 . S
H383 C392 0.929 . S
C384 H378 0.930 . S
C384 C385 1.367 . S
C384 C392 1.378 . S
C385 C384 1.367 . S
C385 C393 1.433 1_556 S
C386 H382 0.929 . S
C386 C388 1.378 . S
C386 C390 1.350 1_554 S
C387 C390 1.463 . S
C387 C392 1.350 . S
C387 N395 1.427 1_556 S
C388 H379 0.930 . S
C388 C386 1.378 . S
C388 C389 1.367 1_554 S
C389 C388 1.367 1_556 S
C389 C391 1.433 . S
C390 C386 1.350 1_556 S
C390 C387 1.463 . S
C390 N394 1.427 . S
C391 H381 0.929 . S
C391 C389 1.433 . S
C391 N394 1.384 . S
C392 H383 0.929 . S
C392 C384 1.378 . S
C392 C387 1.350 . S
C393 H380 0.929 . S
C393 C385 1.433 1_554 S
C393 N395 1.384 . S
N394 C390 1.427 . S
N394 C391 1.384 . S
N395 C387 1.427 1_554 S
N395 C393 1.384 . S
H396 C402 0.930 . S
H397 C406 0.930 . S
H398 C411 0.929 . S
H399 C409 0.929 . S
H400 C404 0.929 . S
H401 C410 0.929 . S
C402 H396 0.930 . S
C402 C403 1.367 . S
C402 C410 1.378 . S
C403 C402 1.367 . S
C403 C411 1.433 1_556 S
C404 H400 0.929 . S
C404 C406 1.378 . S
C404 C408 1.350 1_554 S
C405 C408 1.463 . S
C405 C410 1.350 . S
C405 N413 1.427 1_556 S
C406 H397 0.930 . S
C406 C404 1.378 . S
C406 C407 1.367 1_554 S
C407 C406 1.367 1_556 S
C407 C409 1.433 . S
C408 C404 1.350 1_556 S
C408 C405 1.463 . S
C408 N412 1.427 . S
C409 H399 0.929 . S
C409 C407 1.433 . S
C409 N412 1.384 . S
C410 H401 0.929 . S
C410 C402 1.378 . S
C410 C405 1.350 . S
C411 H398 0.929 . S
C411 C403 1.433 1_554 S
C411 N413 1.384 . S
N412 C408 1.427 . S
N412 C409 1.384 . S
N413 C405 1.427 1_554 S
N413 C411 1.384 . S
H414 C420 0.930 . S
H415 C424 0.930 . S
H416 C429 0.929 . S
H417 C427 0.929 . S
H418 C422 0.929 . S
H419 C428 0.929 . S
C420 H414 0.930 . S
C420 C421 1.367 . S
C420 C428 1.378 . S
C421 C420 1.367 . S
C421 C429 1.433 1_554 S
C422 H418 0.929 . S
C422 C424 1.378 . S
C422 C426 1.350 1_556 S
C423 C426 1.463 . S
C423 C428 1.350 . S
C423 N431 1.427 1_554 S
C424 H415 0.930 . S
C424 C422 1.378 . S
C424 C425 1.367 1_556 S
C425 C424 1.367 1_554 S
C425 C427 1.433 . S
C426 C422 1.350 1_554 S
C426 C423 1.463 . S
C426 N430 1.427 . S
C427 H417 0.929 . S
C427 C425 1.433 . S
C427 N430 1.384 . S
C428 H419 0.929 . S
C428 C420 1.378 . S
C428 C423 1.350 . S
C429 H416 0.929 . S
C429 C421 1.433 1_556 S
C429 N431 1.384 . S
N430 C426 1.427 . S
N430 C427 1.384 . S
N431 C423 1.427 1_556 S
N431 C429 1.384 . S
H432 C438 0.930 . S
H433 C442 0.930 . S
H434 C447 0.929 . S
H435 C445 0.918 1_556 S
H436 C440 0.929 . S
H437 C446 0.929 . S
C438 H432 0.930 . S
C438 C439 1.367 1_556 S
C438 C446 1.378 . S
C439 C438 1.367 1_554 S
C439 C447 1.433 . S
C440 H436 0.929 . S
C440 C442 1.378 . S
C440 C444 1.350 . S
C441 C444 1.463 . S
C441 C446 1.350 1_554 S
C441 N449 1.427 . S
C442 H433 0.930 . S
C442 C440 1.378 . S
C442 C443 1.367 . S
C443 C442 1.367 . S
C443 C445 1.447 . S
C444 C440 1.350 . S
C444 C441 1.463 . S
C444 N448 1.429 1_554 S
C445 H435 0.918 1_554 S
C445 C443 1.447 . S
C445 N448 1.383 1_554 S
C446 H437 0.929 . S
C446 C438 1.378 . S
C446 C441 1.350 1_556 S
C447 H434 0.929 . S
C447 C439 1.433 . S
C447 N449 1.384 . S
N448 C444 1.429 1_556 S
N448 C445 1.383 1_556 S
N449 C441 1.427 . S
N449 C447 1.384 . S
H450 C456 0.930 . S
H451 C460 0.930 . S
H452 C465 0.929 . S
H453 C463 0.929 1_556 S
H454 C458 0.929 . S
H455 C464 0.929 . S
C456 H450 0.930 . S
C456 C457 1.367 1_556 S
C456 C464 1.378 . S
C457 C456 1.367 1_554 S
C457 C465 1.433 . S
C458 H454 0.929 . S
C458 C460 1.378 . S
C458 C462 1.350 . S
C459 C462 1.463 . S
C459 C464 1.350 1_554 S
C459 N467 1.427 . S
C460 H451 0.930 . S
C460 C458 1.378 . S
C460 C461 1.367 . S
C461 C460 1.367 . S
C461 C463 1.433 . S
C462 C458 1.350 . S
C462 C459 1.463 . S
C462 N466 1.436 . S
C463 H453 0.929 1_554 S
C463 C461 1.433 . S
C463 N466 1.384 . S
C464 H455 0.929 . S
C464 C456 1.378 . S
C464 C459 1.350 1_556 S
C465 H452 0.929 . S
C465 C457 1.433 . S
C465 N467 1.384 . S
N466 C462 1.436 . S
N466 C463 1.384 . S
N467 C459 1.427 . S
N467 C465 1.384 . S
H468 C474 0.930 . S
H469 C478 0.930 . S
H470 C483 0.929 . S
H471 C481 0.929 . S
H472 C476 0.929 . S
H473 C482 0.929 . S
C474 H468 0.930 . S
C474 C475 1.367 . S
C474 C482 1.378 . S
C475 C474 1.367 . S
C475 C483 1.433 . S
C476 H472 0.929 . S
C476 C478 1.378 . S
C476 C480 1.350 . S
C477 C480 1.463 . S
C477 C482 1.350 . S
C477 N485 1.427 . S
C478 H469 0.930 . S
C478 C476 1.378 . S
C478 C479 1.367 . S
C479 C478 1.367 . S
C479 C481 1.433 . S
C480 C476 1.350 . S
C480 C477 1.463 . S
C480 N484 1.427 . S
C481 H471 0.929 . S
C481 C479 1.433 . S
C481 N484 1.384 . S
C482 H473 0.929 . S
C482 C474 1.378 . S
C482 C477 1.350 . S
C483 H470 0.929 . S
C483 C475 1.433 . S
C483 N485 1.384 . S
N484 C480 1.427 . S
N484 C481 1.384 . S
N485 C477 1.427 . S
N485 C483 1.384 . S
H486 C492 0.930 . S
H487 C496 0.930 . S
H488 C501 0.929 . S
H489 C499 0.929 . S
H490 C494 0.929 . S
H491 C500 0.929 . S
C492 H486 0.930 . S
C492 C493 1.367 . S
C492 C500 1.378 . S
C493 C492 1.367 . S
C493 C501 1.433 . S
C494 H490 0.929 . S
C494 C496 1.378 . S
C494 C498 1.350 . S
C495 C498 1.463 . S
C495 C500 1.350 . S
C495 N503 1.427 . S
C496 H487 0.930 . S
C496 C494 1.378 . S
C496 C497 1.367 1_545 S
C497 C496 1.367 1_565 S
C497 C499 1.433 . S
C498 C494 1.350 . S
C498 C495 1.463 . S
C498 N502 1.427 1_545 S
C499 H489 0.929 . S
C499 C497 1.433 . S
C499 N502 1.384 . S
C500 H491 0.929 . S
C500 C492 1.378 . S
C500 C495 1.350 . S
C501 H488 0.929 . S
C501 C493 1.433 . S
C501 N503 1.384 . S
N502 C498 1.427 1_565 S
N502 C499 1.384 . S
N503 C495 1.427 . S
N503 C501 1.384 . S
H504 C510 0.930 . S
H505 C514 0.930 . S
H506 C519 0.929 . S
H507 C517 0.929 . S
H508 C512 0.929 . S
H509 C518 0.929 . S
C510 H504 0.930 . S
C510 C511 1.367 1_655 S
C510 C518 1.378 . S
C511 C510 1.367 1_455 S
C511 C519 1.433 . S
C512 H508 0.929 . S
C512 C514 1.378 . S
C512 C516 1.350 . S
C513 C516 1.463 . S
C513 C518 1.350 . S
C513 N521 1.427 1_655 S
C514 H505 0.930 . S
C514 C512 1.378 . S
C514 C515 1.367 . S
C515 C514 1.367 . S
C515 C517 1.433 . S
C516 C512 1.350 . S
C516 C513 1.463 . S
C516 N520 1.427 . S
C517 H507 0.929 . S
C517 C515 1.433 . S
C517 N520 1.384 . S
C518 H509 0.929 . S
C518 C510 1.378 . S
C518 C513 1.350 . S
C519 H506 0.929 . S
C519 C511 1.433 . S
C519 N521 1.384 . S
N520 C516 1.427 . S
N520 C517 1.384 . S
N521 C513 1.427 1_455 S
N521 C519 1.384 . S
H522 C528 0.930 . S
H523 C532 0.930 . S
H524 C537 0.929 . S
H525 C535 0.929 . S
H526 C530 0.929 . S
H527 C536 0.929 . S
C528 H522 0.930 . S
C528 C529 1.367 . S
C528 C536 1.378 . S
C529 C528 1.367 . S
C529 C537 1.433 . S
C530 H526 0.929 . S
C530 C532 1.378 . S
C530 C534 1.350 . S
C531 C534 1.463 . S
C531 C536 1.350 . S
C531 N539 1.427 . S
C532 H523 0.930 . S
C532 C530 1.378 . S
C532 C533 1.367 . S
C533 C532 1.367 . S
C533 C535 1.433 . S
C534 C530 1.350 . S
C534 C531 1.463 . S
C534 N538 1.427 . S
C535 H525 0.929 . S
C535 C533 1.433 . S
C535 N538 1.384 . S
C536 H527 0.929 . S
C536 C528 1.378 . S
C536 C531 1.350 . S
C537 H524 0.929 . S
C537 C529 1.433 . S
C537 N539 1.384 . S
N538 C534 1.427 . S
N538 C535 1.384 . S
N539 C531 1.427 . S
N539 C537 1.384 . S
H540 C546 0.930 . S
H541 C550 0.930 . S
H542 C555 0.929 . S
H543 C553 0.929 . S
H544 C548 0.929 . S
H545 C554 0.929 . S
C546 H540 0.930 . S
C546 C547 1.367 . S
C546 C554 1.378 . S
C547 C546 1.367 . S
C547 C555 1.433 . S
C548 H544 0.929 . S
C548 C550 1.378 . S
C548 C552 1.350 . S
C549 C552 1.463 . S
C549 C554 1.350 . S
C549 N557 1.427 . S
C550 H541 0.930 . S
C550 C548 1.378 . S
C550 C551 1.367 . S
C551 C550 1.367 . S
C551 C553 1.433 . S
C552 C548 1.350 . S
C552 C549 1.463 . S
C552 N556 1.427 . S
C553 H543 0.929 . S
C553 C551 1.433 . S
C553 N556 1.384 . S
C554 H545 0.929 . S
C554 C546 1.378 . S
C554 C549 1.350 . S
C555 H542 0.929 . S
C555 C547 1.433 . S
C555 N557 1.384 . S
N556 C552 1.427 . S
N556 C553 1.384 . S
N557 C549 1.427 . S
N557 C555 1.384 . S
H558 C564 0.930 . S
H559 C568 0.930 . S
H560 C573 0.929 . S
H561 C571 0.929 . S
H562 C566 0.929 . S
H563 C572 0.929 . S
C564 H558 0.930 . S
C564 C565 1.367 . S
C564 C572 1.378 . S
C565 C564 1.367 . S
C565 C573 1.433 . S
C566 H562 0.929 . S
C566 C568 1.378 . S
C566 C570 1.350 . S
C567 C570 1.463 . S
C567 C572 1.350 . S
C567 N575 1.427 . S
C568 H559 0.930 . S
C568 C566 1.378 . S
C568 C569 1.367 . S
C569 C568 1.367 . S
C569 C571 1.433 . S
C570 C566 1.350 . S
C570 C567 1.463 . S
C570 N574 1.427 . S
C571 H561 0.929 . S
C571 C569 1.433 . S
C571 N574 1.384 . S
C572 H563 0.929 . S
C572 C564 1.378 . S
C572 C567 1.350 . S
C573 H560 0.929 . S
C573 C565 1.433 . S
C573 N575 1.384 . S
N574 C570 1.427 . S
N574 C571 1.384 . S
N575 C567 1.427 . S
N575 C573 1.384 . S
H576 C582 0.930 . S
H577 C586 0.930 . S
H578 C591 0.929 . S
H579 C589 0.929 . S
H580 C584 0.929 . S
H581 C590 0.929 . S
C582 H576 0.930 . S
C582 C583 1.367 . S
C582 C590 1.378 . S
C583 C582 1.367 . S
C583 C591 1.433 . S
C584 H580 0.929 . S
C584 C586 1.378 . S
C584 C588 1.350 . S
C585 C588 1.463 . S
C585 C590 1.350 . S
C585 N593 1.427 . S
C586 H577 0.930 . S
C586 C584 1.378 . S
C586 C587 1.367 . S
C587 C586 1.367 . S
C587 C589 1.433 . S
C588 C584 1.350 . S
C588 C585 1.463 . S
C588 N592 1.427 . S
C589 H579 0.929 . S
C589 C587 1.433 . S
C589 N592 1.384 . S
C590 H581 0.929 . S
C590 C582 1.378 . S
C590 C585 1.350 . S
C591 H578 0.929 . S
C591 C583 1.433 . S
C591 N593 1.384 . S
N592 C588 1.427 . S
N592 C589 1.384 . S
N593 C585 1.427 . S
N593 C591 1.384 . S
H594 C600 0.930 . S
H595 C604 0.930 . S
H596 C609 0.929 . S
H597 C607 0.929 . S
H598 C602 0.929 . S
H599 C608 0.929 . S
C600 H594 0.930 . S
C600 C601 1.367 . S
C600 C608 1.378 . S
C601 C600 1.367 . S
C601 C609 1.433 . S
C602 H598 0.929 . S
C602 C604 1.378 . S
C602 C606 1.350 . S
C603 C606 1.463 . S
C603 C608 1.350 . S
C603 N611 1.427 . S
C604 H595 0.930 . S
C604 C602 1.378 . S
C604 C605 1.367 . S
C605 C604 1.367 . S
C605 C607 1.433 . S
C606 C602 1.350 . S
C606 C603 1.463 . S
C606 N610 1.427 . S
C607 H597 0.929 . S
C607 C605 1.433 . S
C607 N610 1.384 . S
C608 H599 0.929 . S
C608 C600 1.378 . S
C608 C603 1.350 . S
C609 H596 0.929 . S
C609 C601 1.433 . S
C609 N611 1.384 . S
N610 C606 1.427 . S
N610 C607 1.384 . S
N611 C603 1.427 . S
N611 C609 1.384 . S
H612 C618 0.930 . S
H613 C622 0.930 . S
H614 C627 0.929 . S
H615 C625 0.929 . S
H616 C620 0.929 . S
H617 C626 0.929 . S
C618 H612 0.930 . S
C618 C619 1.367 . S
C618 C626 1.378 . S
C619 C618 1.367 . S
C619 C627 1.433 . S
C620 H616 0.929 . S
C620 C622 1.378 . S
C620 C624 1.350 . S
C621 C624 1.463 . S
C621 C626 1.350 . S
C621 N629 1.427 . S
C622 H613 0.930 . S
C622 C620 1.378 . S
C622 C623 1.367 . S
C623 C622 1.367 . S
C623 C625 1.433 . S
C624 C620 1.350 . S
C624 C621 1.463 . S
C624 N628 1.427 . S
C625 H615 0.929 . S
C625 C623 1.433 . S
C625 N628 1.384 . S
C626 H617 0.929 . S
C626 C618 1.378 . S
C626 C621 1.350 . S
C627 H614 0.929 . S
C627 C619 1.433 . S
C627 N629 1.384 . S
N628 C624 1.427 . S
N628 C625 1.384 . S
N629 C621 1.427 . S
N629 C627 1.384 . S
H630 C636 0.930 . S
H631 C640 0.930 . S
H632 C645 0.929 . S
H633 C643 0.929 . S
H634 C638 0.929 . S
H635 C644 0.929 . S
C636 H630 0.930 . S
C636 C637 1.367 . S
C636 C644 1.378 . S
C637 C636 1.367 . S
C637 C645 1.433 . S
C638 H634 0.929 . S
C638 C640 1.378 . S
C638 C642 1.350 . S
C639 C642 1.463 . S
C639 C644 1.350 1_545 S
C639 N647 1.427 1_545 S
C640 H631 0.930 . S
C640 C638 1.378 . S
C640 C641 1.367 . S
C641 C640 1.367 . S
C641 C643 1.433 . S
C642 C638 1.350 . S
C642 C639 1.463 . S
C642 N646 1.427 . S
C643 H633 0.929 . S
C643 C641 1.433 . S
C643 N646 1.384 . S
C644 H635 0.929 . S
C644 C636 1.378 . S
C644 C639 1.350 1_565 S
C645 H632 0.929 . S
C645 C637 1.433 . S
C645 N647 1.384 . S
N646 C642 1.427 . S
N646 C643 1.384 . S
N647 C639 1.427 1_565 S
N647 C645 1.384 . S
H648 C654 0.930 . S
H649 C658 0.930 . S
H650 C663 0.929 . S
H651 C661 0.929 . S
H652 C656 0.929 . S
H653 C662 0.929 . S
C654 H648 0.930 . S
C654 C655 1.367 . S
C654 C662 1.378 . S
C655 C654 1.367 . S
C655 C663 1.433 . S
C656 H652 0.929 . S
C656 C658 1.378 . S
C656 C660 1.350 . S
C657 C660 1.463 1_655 S
C657 C662 1.350 . S
C657 N665 1.427 . S
C658 H649 0.930 . S
C658 C656 1.378 . S
C658 C659 1.367 . S
C659 C658 1.367 . S
C659 C661 1.433 . S
C660 C656 1.350 . S
C660 C657 1.463 1_455 S
C660 N664 1.427 . S
C661 H651 0.929 . S
C661 C659 1.433 . S
C661 N664 1.384 . S
C662 H653 0.929 . S
C662 C654 1.378 . S
C662 C657 1.350 . S
C663 H650 0.929 . S
C663 C655 1.433 . S
C663 N665 1.384 . S
N664 C660 1.427 . S
N664 C661 1.384 . S
N665 C657 1.427 . S
N665 C663 1.384 . S
H666 C672 0.930 . S
H667 C676 0.930 . S
H668 C681 0.929 . S
H669 C679 0.929 . S
H670 C674 0.929 . S
H671 C680 0.929 . S
C672 H666 0.930 . S
C672 C673 1.367 . S
C672 C680 1.378 . S
C673 C672 1.367 . S
C673 C681 1.433 . S
C674 H670 0.929 . S
C674 C676 1.378 . S
C674 C678 1.350 . S
C675 C678 1.463 . S
C675 C680 1.350 . S
C675 N683 1.427 . S
C676 H667 0.930 . S
C676 C674 1.378 . S
C676 C677 1.367 . S
C677 C676 1.367 . S
C677 C679 1.433 . S
C678 C674 1.350 . S
C678 C675 1.463 . S
C678 N682 1.427 . S
C679 H669 0.929 . S
C679 C677 1.433 . S
C679 N682 1.384 . S
C680 H671 0.929 . S
C680 C672 1.378 . S
C680 C675 1.350 . S
C681 H668 0.929 . S
C681 C673 1.433 . S
C681 N683 1.384 . S
N682 C678 1.427 . S
N682 C679 1.384 . S
N683 C675 1.427 . S
N683 C681 1.384 . S
H684 C690 0.930 . S
H685 C694 0.930 . S
H686 C699 0.929 . S
H687 C697 0.929 . S
H688 C692 0.929 . S
H689 C698 0.929 . S
C690 H684 0.930 . S
C690 C691 1.367 . S
C690 C698 1.378 . S
C691 C690 1.367 . S
C691 C699 1.433 . S
C692 H688 0.929 . S
C692 C694 1.378 . S
C692 C696 1.350 . S
C693 C696 1.463 . S
C693 C698 1.350 . S
C693 N701 1.427 . S
C694 H685 0.930 . S
C694 C692 1.378 . S
C694 C695 1.367 . S
C695 C694 1.367 . S
C695 C697 1.433 . S
C696 C692 1.350 . S
C696 C693 1.463 . S
C696 N700 1.427 . S
C697 H687 0.929 . S
C697 C695 1.433 . S
C697 N700 1.384 . S
C698 H689 0.929 . S
C698 C690 1.378 . S
C698 C693 1.350 . S
C699 H686 0.929 . S
C699 C691 1.433 . S
C699 N701 1.384 . S
N700 C696 1.427 . S
N700 C697 1.384 . S
N701 C693 1.427 . S
N701 C699 1.384 . S
H702 C708 0.930 . S
H703 C712 0.930 . S
H704 C717 0.929 . S
H705 C715 0.929 . S
H706 C710 0.929 . S
H707 C716 0.929 . S
C708 H702 0.930 . S
C708 C709 1.367 . S
C708 C716 1.378 . S
C709 C708 1.367 . S
C709 C717 1.433 . S
C710 H706 0.929 . S
C710 C712 1.378 . S
C710 C714 1.350 . S
C711 C714 1.463 . S
C711 C716 1.350 . S
C711 N719 1.427 . S
C712 H703 0.930 . S
C712 C710 1.378 . S
C712 C713 1.367 . S
C713 C712 1.367 . S
C713 C715 1.433 . S
C714 C710 1.350 . S
C714 C711 1.463 . S
C714 N718 1.427 . S
C715 H705 0.929 . S
C715 C713 1.433 . S
C715 N718 1.384 . S
C716 H707 0.929 . S
C716 C708 1.378 . S
C716 C711 1.350 . S
C717 H704 0.929 . S
C717 C709 1.433 . S
C717 N719 1.384 . S
N718 C714 1.427 . S
N718 C715 1.384 . S
N719 C711 1.427 . S
N719 C717 1.384 . S
H720 C726 0.930 1_545 S
H721 C730 0.930 . S
H722 C735 0.929 . S
H723 C733 0.929 . S
H724 C728 0.929 . S
H725 C734 0.929 . S
C726 H720 0.930 1_565 S
C726 C727 1.367 . S
C726 C734 1.378 . S
C727 C726 1.367 . S
C727 C735 1.433 . S
C728 H724 0.929 . S
C728 C730 1.378 . S
C728 C732 1.350 . S
C729 C732 1.463 . S
C729 C734 1.350 . S
C729 N737 1.427 . S
C730 H721 0.930 . S
C730 C728 1.378 . S
C730 C731 1.367 . S
C731 C730 1.367 . S
C731 C733 1.433 . S
C732 C728 1.350 . S
C732 C729 1.463 . S
C732 N736 1.427 . S
C733 H723 0.929 . S
C733 C731 1.433 . S
C733 N736 1.384 . S
C734 H725 0.929 . S
C734 C726 1.378 . S
C734 C729 1.350 . S
C735 H722 0.929 . S
C735 C727 1.433 . S
C735 N737 1.384 . S
N736 C732 1.427 . S
N736 C733 1.384 . S
N737 C729 1.427 . S
N737 C735 1.384 . S
H738 C744 0.930 . S
H739 C748 0.930 . S
H740 C753 0.929 1_565 S
H741 C751 0.929 . S
H742 C746 0.929 . S
H743 C752 0.929 . S
C744 H738 0.930 . S
C744 C745 1.367 . S
C744 C752 1.378 . S
C745 C744 1.367 . S
C745 C753 1.433 . S
C746 H742 0.929 . S
C746 C748 1.378 . S
C746 C750 1.350 . S
C747 C750 1.463 . S
C747 C752 1.350 . S
C747 N755 1.427 . S
C748 H739 0.930 . S
C748 C746 1.378 . S
C748 C749 1.367 . S
C749 C748 1.367 . S
C749 C751 1.433 . S
C750 C746 1.350 . S
C750 C747 1.463 . S
C750 N754 1.427 . S
C751 H741 0.929 . S
C751 C749 1.433 . S
C751 N754 1.384 . S
C752 H743 0.929 . S
C752 C744 1.378 . S
C752 C747 1.350 . S
C753 H740 0.929 1_545 S
C753 C745 1.433 . S
C753 N755 1.384 . S
N754 C750 1.427 . S
N754 C751 1.384 . S
N755 C747 1.427 . S
N755 C753 1.384 . S
H756 C762 0.930 . S
H757 C766 0.930 . S
H758 C771 0.929 1_455 S
H759 C769 0.929 . S
H760 C764 0.929 . S
H761 C770 0.929 . S
C762 H756 0.930 . S
C762 C763 1.367 . S
C762 C770 1.378 . S
C763 C762 1.367 . S
C763 C771 1.433 . S
C764 H760 0.929 . S
C764 C766 1.378 . S
C764 C768 1.350 . S
C765 C768 1.463 . S
C765 C770 1.350 . S
C765 N773 1.427 . S
C766 H757 0.930 . S
C766 C764 1.378 . S
C766 C767 1.367 . S
C767 C766 1.367 . S
C767 C769 1.433 . S
C768 C764 1.350 . S
C768 C765 1.463 . S
C768 N772 1.427 . S
C769 H759 0.929 . S
C769 C767 1.433 . S
C769 N772 1.384 . S
C770 H761 0.929 . S
C770 C762 1.378 . S
C770 C765 1.350 . S
C771 H758 0.929 1_655 S
C771 C763 1.433 . S
C771 N773 1.384 . S
N772 C768 1.427 . S
N772 C769 1.384 . S
N773 C765 1.427 . S
N773 C771 1.384 . S
H774 C780 0.930 . S
H775 C784 0.930 . S
H776 C789 0.929 . S
H777 C787 0.929 . S
H778 C782 0.929 . S
H779 C788 0.929 . S
C780 H774 0.930 . S
C780 C781 1.367 . S
C780 C788 1.378 . S
C781 C780 1.367 . S
C781 C789 1.433 . S
C782 H778 0.929 . S
C782 C784 1.378 . S
C782 C786 1.350 . S
C783 C786 1.463 . S
C783 C788 1.350 . S
C783 N791 1.427 . S
C784 H775 0.930 . S
C784 C782 1.378 . S
C784 C785 1.367 . S
C785 C784 1.367 . S
C785 C787 1.433 . S
C786 C782 1.350 . S
C786 C783 1.463 . S
C786 N790 1.427 . S
C787 H777 0.929 . S
C787 C785 1.433 . S
C787 N790 1.384 . S
C788 H779 0.929 . S
C788 C780 1.378 . S
C788 C783 1.350 . S
C789 H776 0.929 . S
C789 C781 1.433 . S
C789 N791 1.384 . S
N790 C786 1.427 . S
N790 C787 1.384 . S
N791 C783 1.427 . S
N791 C789 1.384 . S
H792 C798 0.930 . S
H793 C802 0.930 . S
H794 C807 0.929 . S
H795 C805 0.929 . S
H796 C800 0.929 . S
H797 C806 0.929 . S
C798 H792 0.930 . S
C798 C799 1.367 . S
C798 C806 1.378 . S
C799 C798 1.367 . S
C799 C807 1.433 . S
C800 H796 0.929 . S
C800 C802 1.378 . S
C800 C804 1.350 . S
C801 C804 1.463 . S
C801 C806 1.350 . S
C801 N809 1.427 . S
C802 H793 0.930 . S
C802 C800 1.378 . S
C802 C803 1.367 . S
C803 C802 1.367 . S
C803 C805 1.433 . S
C804 C800 1.350 . S
C804 C801 1.463 . S
C804 N808 1.427 . S
C805 H795 0.929 . S
C805 C803 1.433 . S
C805 N808 1.384 . S
C806 H797 0.929 . S
C806 C798 1.378 . S
C806 C801 1.350 . S
C807 H794 0.929 . S
C807 C799 1.433 . S
C807 N809 1.384 . S
N808 C804 1.427 . S
N808 C805 1.384 . S
N809 C801 1.427 . S
N809 C807 1.384 . S
H810 C816 0.930 . S
H811 C820 0.930 . S
H812 C825 0.929 . S
H813 C823 0.929 . S
H814 C818 0.929 . S
H815 C824 0.929 . S
C816 H810 0.930 . S
C816 C817 1.367 . S
C816 C824 1.378 . S
C817 C816 1.367 . S
C817 C825 1.433 . S
C818 H814 0.929 . S
C818 C820 1.378 . S
C818 C822 1.350 . S
C819 C822 1.463 1_565 S
C819 C824 1.350 . S
C819 N827 1.427 . S
C820 H811 0.930 . S
C820 C818 1.378 . S
C820 C821 1.367 . S
C821 C820 1.367 . S
C821 C823 1.433 . S
C822 C818 1.350 . S
C822 C819 1.463 1_545 S
C822 N826 1.427 . S
C823 H813 0.929 . S
C823 C821 1.433 . S
C823 N826 1.384 . S
C824 H815 0.929 . S
C824 C816 1.378 . S
C824 C819 1.350 . S
C825 H812 0.929 . S
C825 C817 1.433 . S
C825 N827 1.384 . S
N826 C822 1.427 . S
N826 C823 1.384 . S
N827 C819 1.427 . S
N827 C825 1.384 . S
H828 C834 0.930 . S
H829 C838 0.930 . S
H830 C843 0.929 . S
H831 C841 0.929 . S
H832 C836 0.929 1_655 S
H833 C842 0.929 1_455 S
C834 H828 0.930 . S
C834 C835 1.367 . S
C834 C842 1.378 . S
C835 C834 1.367 . S
C835 C843 1.433 . S
C836 H832 0.929 1_455 S
C836 C838 1.378 . S
C836 C840 1.350 . S
C837 C840 1.463 1_655 S
C837 C842 1.350 . S
C837 N845 1.427 . S
C838 H829 0.930 . S
C838 C836 1.378 . S
C838 C839 1.367 . S
C839 C838 1.367 . S
C839 C841 1.433 . S
C840 C836 1.350 . S
C840 C837 1.463 1_455 S
C840 N844 1.427 . S
C841 H831 0.929 . S
C841 C839 1.433 . S
C841 N844 1.384 . S
C842 H833 0.929 1_655 S
C842 C834 1.378 . S
C842 C837 1.350 . S
C843 H830 0.929 . S
C843 C835 1.433 . S
C843 N845 1.384 . S
N844 C840 1.427 . S
N844 C841 1.384 . S
N845 C837 1.427 . S
N845 C843 1.384 . S
C367 C46 1.571 . S
C371 C10 1.619 . S
C385 C86 1.577 . S
C389 C50 1.622 . S
C403 C90 1.614 . S
C407 C6 1.567 . S
C421 C95 1.468 . S
C425 C59 1.420 . S
C439 C99 1.416 . S
C443 C15 1.466 . S
C457 C19 1.431 . S
C461 C55 1.474 . S
C475 C130 1.622 . S
C479 C166 1.580 1_655 S
C493 C206 1.579 . S
C497 C170 1.621 . S
C511 C210 1.620 . S
C515 C126 1.577 1_545 S
C529 C179 1.417 . S
C533 C215 1.467 . S
C547 C219 1.427 . S
C551 C135 1.471 . S
C565 C175 1.466 . S
C569 C139 1.415 . S
C583 C286 1.581 . S
C587 C250 1.623 . S
C601 C290 1.624 . S
C605 C326 1.580 . S
C619 C330 1.623 . S
C623 C246 1.578 . S
C637 C335 1.470 . S
C641 C299 1.424 . S
C655 C339 1.416 . S
C659 C255 1.466 . S
C673 C259 1.429 . S
C677 C295 1.473 . S
C691 C209 2.578 . S
C695 C18 2.262 . S
C709 C129 2.577 . S
C713 C58 2.261 . S
C727 C98 2.273 . S
C731 C169 2.580 . S
C745 C89 2.579 . S
C749 C258 2.265 . S
C763 C9 2.578 . S
C767 C298 2.262 . S
C781 C338 2.269 . S
C785 C49 2.580 . S
C799 C138 2.262 . S
C803 C329 2.577 . S
C817 C178 2.272 . S
C821 C249 2.580 . S
C835 C289 2.577 . S
C839 C218 2.262 . S
