# Generated by pormake.
# Topology whh, (6)-cn, num edge types: 1
# Building blocks:
#     Node 0, Type 0, BuildingBlock: OJICUG_clean_sbu_0, # of connection points: 6
#     Node 1, Type 0, BuildingBlock: OJICUG_clean_sbu_0, # of connection points: 6
#     Node 2, Type 0, BuildingBlock: OJICUG_clean_sbu_0, # of connection points: 6
#     Node 3, Type 0, BuildingBlock: OJICUG_clean_sbu_0, # of connection points: 6
#     Node 4, Type 0, BuildingBlock: OJICUG_clean_sbu_0, # of connection points: 6
#     Node 5, Type 0, BuildingBlock: OJICUG_clean_sbu_0, # of connection points: 6
#     Node 6, Type 0, BuildingBlock: OJICUG_clean_sbu_0, # of connection points: 6
#     Node 7, Type 0, BuildingBlock: OJICUG_clean_sbu_0, # of connection points: 6
#     Node 8, Type 0, BuildingBlock: OJICUG_clean_sbu_0, # of connection points: 6
#     Node 9, Type 0, BuildingBlock: OJICUG_clean_sbu_0, # of connection points: 6
#     Node 10, Type 0, BuildingBlock: OJICUG_clean_sbu_0, # of connection points: 6
#     Node 11, Type 0, BuildingBlock: OJICUG_clean_sbu_0, # of connection points: 6
#     Node 12, Type 0, BuildingBlock: OJICUG_clean_sbu_0, # of connection points: 6
#     Node 13, Type 0, BuildingBlock: OJICUG_clean_sbu_0, # of connection points: 6
#     Node 14, Type 0, BuildingBlock: OJICUG_clean_sbu_0, # of connection points: 6
#     Node 15, Type 0, BuildingBlock: OJICUG_clean_sbu_0, # of connection points: 6
#     Edge 16, Type (0, 0), BuildingBlock: CIFDUS_clean_linker_0, # of connection points: 2
#     Edge 17, Type (0, 0), BuildingBlock: CIFDUS_clean_linker_0, # of connection points: 2
#     Edge 18, Type (0, 0), BuildingBlock: CIFDUS_clean_linker_0, # of connection points: 2
#     Edge 19, Type (0, 0), BuildingBlock: CIFDUS_clean_linker_0, # of connection points: 2
#     Edge 20, Type (0, 0), BuildingBlock: CIFDUS_clean_linker_0, # of connection points: 2
#     Edge 21, Type (0, 0), BuildingBlock: CIFDUS_clean_linker_0, # of connection points: 2
#     Edge 22, Type (0, 0), BuildingBlock: CIFDUS_clean_linker_0, # of connection points: 2
#     Edge 23, Type (0, 0), BuildingBlock: CIFDUS_clean_linker_0, # of connection points: 2
#     Edge 24, Type (0, 0), BuildingBlock: CIFDUS_clean_linker_0, # of connection points: 2
#     Edge 25, Type (0, 0), BuildingBlock: CIFDUS_clean_linker_0, # of connection points: 2
#     Edge 26, Type (0, 0), BuildingBlock: CIFDUS_clean_linker_0, # of connection points: 2
#     Edge 27, Type (0, 0), BuildingBlock: CIFDUS_clean_linker_0, # of connection points: 2
#     Edge 28, Type (0, 0), BuildingBlock: CIFDUS_clean_linker_0, # of connection points: 2
#     Edge 29, Type (0, 0), BuildingBlock: CIFDUS_clean_linker_0, # of connection points: 2
#     Edge 30, Type (0, 0), BuildingBlock: CIFDUS_clean_linker_0, # of connection points: 2
#     Edge 31, Type (0, 0), BuildingBlock: CIFDUS_clean_linker_0, # of connection points: 2
#     Edge 32, Type (0, 0), BuildingBlock: CIFDUS_clean_linker_0, # of connection points: 2
#     Edge 33, Type (0, 0), BuildingBlock: CIFDUS_clean_linker_0, # of connection points: 2
#     Edge 34, Type (0, 0), BuildingBlock: CIFDUS_clean_linker_0, # of connection points: 2
#     Edge 35, Type (0, 0), BuildingBlock: CIFDUS_clean_linker_0, # of connection points: 2
#     Edge 36, Type (0, 0), BuildingBlock: CIFDUS_clean_linker_0, # of connection points: 2
#     Edge 37, Type (0, 0), BuildingBlock: CIFDUS_clean_linker_0, # of connection points: 2
#     Edge 38, Type (0, 0), BuildingBlock: CIFDUS_clean_linker_0, # of connection points: 2
#     Edge 39, Type (0, 0), BuildingBlock: CIFDUS_clean_linker_0, # of connection points: 2
#     Edge 40, Type (0, 0), BuildingBlock: CIFDUS_clean_linker_0, # of connection points: 2
#     Edge 41, Type (0, 0), BuildingBlock: CIFDUS_clean_linker_0, # of connection points: 2
#     Edge 42, Type (0, 0), BuildingBlock: CIFDUS_clean_linker_0, # of connection points: 2
#     Edge 43, Type (0, 0), BuildingBlock: CIFDUS_clean_linker_0, # of connection points: 2
#     Edge 44, Type (0, 0), BuildingBlock: CIFDUS_clean_linker_0, # of connection points: 2
#     Edge 45, Type (0, 0), BuildingBlock: CIFDUS_clean_linker_0, # of connection points: 2
#     Edge 46, Type (0, 0), BuildingBlock: CIFDUS_clean_linker_0, # of connection points: 2
#     Edge 47, Type (0, 0), BuildingBlock: CIFDUS_clean_linker_0, # of connection points: 2
#     Edge 48, Type (0, 0), BuildingBlock: CIFDUS_clean_linker_0, # of connection points: 2
#     Edge 49, Type (0, 0), BuildingBlock: CIFDUS_clean_linker_0, # of connection points: 2
#     Edge 50, Type (0, 0), BuildingBlock: CIFDUS_clean_linker_0, # of connection points: 2
#     Edge 51, Type (0, 0), BuildingBlock: CIFDUS_clean_linker_0, # of connection points: 2
#     Edge 52, Type (0, 0), BuildingBlock: CIFDUS_clean_linker_0, # of connection points: 2
#     Edge 53, Type (0, 0), BuildingBlock: CIFDUS_clean_linker_0, # of connection points: 2
#     Edge 54, Type (0, 0), BuildingBlock: CIFDUS_clean_linker_0, # of connection points: 2
#     Edge 55, Type (0, 0), BuildingBlock: CIFDUS_clean_linker_0, # of connection points: 2
#     Edge 56, Type (0, 0), BuildingBlock: CIFDUS_clean_linker_0, # of connection points: 2
#     Edge 57, Type (0, 0), BuildingBlock: CIFDUS_clean_linker_0, # of connection points: 2
#     Edge 58, Type (0, 0), BuildingBlock: CIFDUS_clean_linker_0, # of connection points: 2
#     Edge 59, Type (0, 0), BuildingBlock: CIFDUS_clean_linker_0, # of connection points: 2
#     Edge 60, Type (0, 0), BuildingBlock: CIFDUS_clean_linker_0, # of connection points: 2
#     Edge 61, Type (0, 0), BuildingBlock: CIFDUS_clean_linker_0, # of connection points: 2
#     Edge 62, Type (0, 0), BuildingBlock: CIFDUS_clean_linker_0, # of connection points: 2
#     Edge 63, Type (0, 0), BuildingBlock: CIFDUS_clean_linker_0, # of connection points: 2
# Relax obj value: 0.385
# Max RMSD: 0.252
# Mean RMSD: 0.252
data_MOF--net-whh--node1-OJICUG_clean_sbu_0--edge1-CIFDUS_clean_linker_0
_symmetry_space_group_name_H-M    P1
_symmetry_Int_Tables_number       1
_symmetry_cell_setting            triclinic
loop_
_symmetry_equiv_pos_as_xyz
'x, y, z'
_cell_length_a     31.390919
_cell_length_b     31.321026
_cell_length_c     39.455274
_cell_angle_alpha  90.116694
_cell_angle_beta   89.932779
_cell_angle_gamma 90.359358
loop_
_atom_site_label
_atom_site_type_symbol
_atom_site_fract_x
_atom_site_fract_y
_atom_site_fract_z
_atom_type_partial_charge
Sc0 Sc 0.04638 0.67568 0.05244 0.0
Sc1 Sc 0.11112 0.62725 0.1122 0.0
Sc2 Sc 0.0158 0.67505 0.13722 0.0
O3 O 0.05764 0.65999 0.10116 0.0
C4 C 0.99788 0.75283 0.08817 0.0
C5 C 0.14152 0.6998 0.06016 0.0
C6 C 0.10789 0.70175 0.1657 0.0
C7 C 0.08333 0.58507 0.04576 0.0
C8 C 0.96136 0.62991 0.07824 0.0
C9 C 0.04868 0.58715 0.16806 0.0
O10 O 0.01034 0.73315 0.06192 0.0
O11 O 0.14746 0.6634 0.07407 0.0
O12 O 0.0672 0.70406 0.16547 0.0
O13 O 0.08251 0.62237 0.03357 0.0
O14 O 0.96566 0.64526 0.10813 0.0
O15 O 0.08417 0.58759 0.15251 0.0
O16 O 0.98804 0.6368 0.05409 0.0
O17 O 0.09051 0.57872 0.07696 0.0
O18 O 0.02084 0.61561 0.16371 0.0
O19 O 0.10433 0.71336 0.05296 0.0
O20 O 1.00152 0.73719 0.11758 0.0
O21 O 0.1296 0.67533 0.14829 0.0
Sc22 Sc 0.83479 0.05356 0.06762 0.0
Sc23 Sc 0.90028 0.11735 0.117 0.0
Sc24 Sc 0.8338 0.04144 0.15486 0.0
O25 O 0.8559 0.07101 0.11379 0.0
C26 C 0.75315 0.02629 0.11056 0.0
C27 C 0.82837 0.15187 0.06541 0.0
C28 C 0.83356 0.14058 0.17434 0.0
C29 C 0.9285 0.07332 0.05123 0.0
C30 C 0.86259 0.96782 0.10241 0.0
C31 C 0.93009 0.05745 0.17824 0.0
O32 O 0.77461 0.02637 0.08339 0.0
O33 O 0.86612 0.1538 0.07795 0.0
O34 O 0.82064 0.10212 0.17796 0.0
O35 O 0.89037 0.07684 0.04161 0.0
O36 O 0.84798 0.98048 0.13111 0.0
O37 O 0.93811 0.0868 0.15678 0.0
O38 O 0.86363 0.99145 0.07585 0.0
O39 O 0.93946 0.08292 0.08121 0.0
O40 O 0.89435 0.03855 0.17961 0.0
O41 O 0.80778 0.11661 0.0625 0.0
O42 O 0.76877 0.03973 0.13815 0.0
O43 O 0.86276 0.15216 0.15378 0.0
Sc44 Sc 0.46634 0.83264 0.06687 0.0
Sc45 Sc 0.40018 0.89611 0.11753 0.0
Sc46 Sc 0.48572 0.84053 0.15342 0.0
O47 O 0.45029 0.85594 0.11302 0.0
C48 C 0.49922 0.7552 0.11281 0.0
C49 C 0.36755 0.81807 0.06934 0.0
C50 C 0.39005 0.83678 0.18132 0.0
C51 C 0.43756 0.92498 0.04813 0.0
C52 C 0.55223 0.87006 0.09633 0.0
C53 C 0.46594 0.93824 0.17032 0.0
O54 O 0.4943 0.77363 0.08451 0.0
O55 O 0.36203 0.85418 0.08418 0.0
O56 O 0.42918 0.82605 0.18219 0.0
O57 O 0.44296 0.88658 0.03916 0.0
O58 O 0.5434 0.85711 0.12626 0.0
O59 O 0.43298 0.94119 0.1516 0.0
O60 O 0.52737 0.86474 0.07101 0.0
O61 O 0.42419 0.93487 0.07732 0.0
O62 O 0.48739 0.90432 0.17266 0.0
O63 O 0.40448 0.80256 0.06361 0.0
O64 O 0.49086 0.77385 0.14057 0.0
O65 O 0.37407 0.86187 0.15965 0.0
Sc66 Sc 0.66885 0.4541 0.06108 0.0
Sc67 Sc 0.61143 0.38942 0.11657 0.0
Sc68 Sc 0.67251 0.47469 0.14733 0.0
O69 O 0.65154 0.4393 0.10886 0.0
C70 C 0.75222 0.48707 0.09935 0.0
C71 C 0.67895 0.35598 0.06162 0.0
C72 C 0.68369 0.37674 0.17023 0.0
C73 C 0.57399 0.43177 0.05361 0.0
C74 C 0.63624 0.5412 0.09269 0.0
C75 C 0.58037 0.45189 0.176 0.0
O76 O 0.73033 0.48274 0.07255 0.0
O77 O 0.64207 0.35349 0.07548 0.0
O78 O 0.69134 0.4168 0.17296 0.0
O79 O 0.61077 0.42779 0.04083 0.0
O80 O 0.65218 0.53242 0.12172 0.0
O81 O 0.57621 0.41739 0.15917 0.0
O82 O 0.63825 0.51582 0.0672 0.0
O83 O 0.56627 0.41962 0.08364 0.0
O84 O 0.61224 0.4764 0.17258 0.0
O85 O 0.69798 0.39173 0.05701 0.0
O86 O 0.73661 0.47961 0.1284 0.0
O87 O 0.65592 0.3604 0.15055 0.0
Sc88 Sc 0.02929 0.83834 0.35139 0.0
Sc89 Sc 0.11551 0.90043 0.37839 0.0
Sc90 Sc 0.05689 0.84118 0.43616 0.0
O91 O 0.06775 0.85905 0.38797 0.0
C92 C 0.96877 0.87427 0.40963 0.0
C93 C 0.04557 0.93336 0.32555 0.0
C94 C 0.08395 0.9344 0.44662 0.0
C95 C 0.12346 0.83247 0.32021 0.0
C96 C 0.01936 0.75925 0.39784 0.0
C97 C 0.15366 0.82952 0.4297 0.0
O98 O 0.97413 0.85433 0.38161 0.0
O99 O 0.08134 0.93824 0.34036 0.0
O100 O 0.08791 0.89665 0.45727 0.0
O101 O 0.08376 0.82333 0.32057 0.0
O102 O 0.02438 0.78159 0.42442 0.0
O103 O 0.15563 0.8661 0.41501 0.0
O104 O 0.02879 0.77347 0.36873 0.0
O105 O 0.1413 0.85942 0.33984 0.0
O106 O 0.1183 0.81056 0.4361 0.0
O107 O 0.02304 0.89998 0.32886 0.0
O108 O 0.99655 0.87481 0.43343 0.0
O109 O 0.08909 0.94319 0.41558 0.0
Sc110 Sc 0.68055 0.04931 0.42239 0.0
Sc111 Sc 0.62577 0.12186 0.37206 0.0
Sc112 Sc 0.68345 0.03869 0.33481 0.0
O113 O 0.66345 0.06997 0.37597 0.0
C114 C 0.76165 0.01675 0.38155 0.0
C115 C 0.6994 0.14743 0.42514 0.0
C116 C 0.69794 0.13723 0.31706 0.0
C117 C 0.58774 0.07742 0.43544 0.0
C118 C 0.64442 0.96713 0.38515 0.0
C119 C 0.59051 0.06578 0.30992 0.0
O120 O 0.73989 0.01961 0.40846 0.0
O121 O 0.6629 0.15472 0.41178 0.0
O122 O 0.70628 0.09764 0.31349 0.0
O123 O 0.6252 0.07478 0.44693 0.0
O124 O 0.65995 0.97956 0.35671 0.0
O125 O 0.58542 0.09528 0.33181 0.0
O126 O 0.64677 0.98944 0.41243 0.0
O127 O 0.58058 0.09306 0.40642 0.0
O128 O 0.62407 0.04364 0.30837 0.0
O129 O 0.71357 0.10958 0.42934 0.0
O130 O 0.74691 0.02804 0.35312 0.0
O131 O 0.66889 0.15177 0.33639 0.0
Sc132 Sc 0.48107 0.68212 0.34727 0.0
Sc133 Sc 0.39837 0.61551 0.37419 0.0
Sc134 Sc 0.45682 0.67523 0.43293 0.0
O135 O 0.44526 0.65827 0.38433 0.0
C136 C 0.54489 0.64319 0.40268 0.0
C137 C 0.46121 0.59068 0.31392 0.0
C138 C 0.43527 0.57943 0.44006 0.0
C139 C 0.38525 0.69043 0.32166 0.0
C140 C 0.49444 0.75938 0.39819 0.0
C141 C 0.3589 0.68238 0.4284 0.0
O142 O 0.53662 0.65738 0.37293 0.0
O143 O 0.43125 0.57985 0.33395 0.0
O144 O 0.43112 0.61644 0.45244 0.0
O145 O 0.42379 0.70398 0.32309 0.0
O146 O 0.48461 0.73791 0.42425 0.0
O147 O 0.35793 0.64662 0.41243 0.0
O148 O 0.49018 0.7443 0.36866 0.0
O149 O 0.37114 0.65758 0.33716 0.0
O150 O 0.39371 0.70197 0.43534 0.0
O151 O 0.48036 0.62609 0.31664 0.0
O152 O 0.51954 0.64667 0.42807 0.0
O153 O 0.42631 0.57177 0.40936 0.0
Sc154 Sc 0.82837 0.48076 0.33304 0.0
Sc155 Sc 0.89112 0.39985 0.36741 0.0
Sc156 Sc 0.83661 0.47062 0.42002 0.0
O157 O 0.85181 0.4503 0.373 0.0
C158 C 0.86795 0.55347 0.38198 0.0
C159 C 0.91966 0.45661 0.30347 0.0
C160 C 0.93105 0.44733 0.42828 0.0
C161 C 0.81695 0.38131 0.31571 0.0
C162 C 0.75217 0.49952 0.38212 0.0
C163 C 0.82175 0.37227 0.42361 0.0
O164 O 0.85033 0.5412 0.35425 0.0
O165 O 0.92683 0.42604 0.32398 0.0
O166 O 0.89444 0.44677 0.4417 0.0
O167 O 0.80754 0.42065 0.31205 0.0
O168 O 0.77558 0.49898 0.40824 0.0
O169 O 0.85808 0.36651 0.40931 0.0
O170 O 0.76573 0.48731 0.35356 0.0
O171 O 0.84693 0.36769 0.33436 0.0
O172 O 0.80615 0.40951 0.42807 0.0
O173 O 0.88619 0.47877 0.30481 0.0
O174 O 0.86801 0.53085 0.40901 0.0
O175 O 0.93728 0.43171 0.39905 0.0
Sc176 Sc 0.98542 0.34688 0.83531 0.0
Sc177 Sc 0.89964 0.39739 0.87497 0.0
Sc178 Sc 0.97053 0.33729 0.92205 0.0
O179 O 0.95149 0.35994 0.87678 0.0
C180 C 1.00662 0.26326 0.87484 0.0
C181 C 0.88824 0.33636 0.81193 0.0
C182 C 0.87457 0.31602 0.9217 0.0
C183 C 0.95836 0.44244 0.81874 0.0
C184 C 0.05206 0.38098 0.89112 0.0
C185 C 0.93763 0.42565 0.94327 0.0
O186 O 0.99425 0.28065 0.84766 0.0
O187 O 0.872 0.3602 0.8346 0.0
O188 O 0.91232 0.30147 0.92444 0.0
O189 O 0.98226 0.4103 0.81589 0.0
O190 O 0.02812 0.37511 0.91705 0.0
O191 O 0.92709 0.43729 0.91379 0.0
O192 O 0.04307 0.36684 0.86143 0.0
O193 O 0.92654 0.44345 0.83883 0.0
O194 O 0.9399 0.38668 0.95099 0.0
O195 O 0.92804 0.32897 0.80889 0.0
O196 O 1.00394 0.28215 0.90316 0.0
O197 O 0.86667 0.35371 0.91052 0.0
Sc198 Sc 0.18078 0.9662 0.92763 0.0
Sc199 Sc 0.12252 0.89358 0.87939 0.0
Sc200 Sc 0.17616 0.97837 0.84019 0.0
O201 O 0.16005 0.946 0.8819 0.0
C202 C 0.14025 0.04766 0.89341 0.0
C203 C 0.09008 0.93313 0.94618 0.0
C204 C 0.08254 0.94855 0.819 0.0
C205 C 0.20001 0.86938 0.92934 0.0
C206 C 0.25764 1.00138 0.88287 0.0
C207 C 0.19021 0.88042 0.82069 0.0
O208 O 0.14588 0.02497 0.92006 0.0
O209 O 0.08023 0.92118 0.91648 0.0
O210 O 0.11547 0.97178 0.81664 0.0
O211 O 0.21468 0.90727 0.93258 0.0
O212 O 0.24065 0.99045 0.85514 0.0
O213 O 0.16313 0.86498 0.84147 0.0
O214 O 0.23829 0.99754 0.91084 0.0
O215 O 0.16288 0.86147 0.91711 0.0
O216 O 0.19789 0.92023 0.81708 0.0
O217 O 0.12839 0.9383 0.95514 0.0
O218 O 0.15318 0.03657 0.86383 0.0
O219 O 0.07898 0.91885 0.84087 0.0
Sc220 Sc 0.53279 0.18163 0.84649 0.0
Sc221 Sc 0.61933 0.12216 0.87589 0.0
Sc222 Sc 0.55451 0.17765 0.93286 0.0
O223 O 0.56908 0.16103 0.88468 0.0
C224 C 0.51907 0.26025 0.89518 0.0
C225 C 0.62885 0.19412 0.82078 0.0
C226 C 0.65238 0.19289 0.92989 0.0
C227 C 0.55427 0.08785 0.81935 0.0
C228 C 0.46797 0.14365 0.90189 0.0
C229 C 0.58115 0.08322 0.94115 0.0
O230 O 0.52531 0.24531 0.86575 0.0
O231 O 0.64522 0.1649 0.83876 0.0
O232 O 0.61578 0.20798 0.93701 0.0
O233 O 0.53218 0.12143 0.82078 0.0
O234 O 0.49331 0.14633 0.9272 0.0
O235 O 0.594 0.07692 0.91119 0.0
O236 O 0.47641 0.15917 0.87264 0.0
O237 O 0.58759 0.08275 0.83725 0.0
O238 O 0.58019 0.12021 0.95405 0.0
O239 O 0.58922 0.20311 0.82023 0.0
O240 O 0.5261 0.23865 0.92167 0.0
O241 O 0.65727 0.15779 0.9135 0.0
Sc242 Sc 0.34403 0.5419 0.83236 0.0
Sc243 Sc 0.40052 0.62489 0.87167 0.0
Sc244 Sc 0.34148 0.55189 0.91916 0.0
O245 O 0.36154 0.57349 0.87388 0.0
C246 C 0.26213 0.52423 0.87367 0.0
C247 C 0.33929 0.64057 0.81039 0.0
C248 C 0.3242 0.64912 0.92338 0.0
C249 C 0.44013 0.56443 0.81417 0.0
C250 C 0.37459 0.46932 0.88381 0.0
C251 C 0.43288 0.58018 0.93644 0.0
O252 O 0.27792 0.53955 0.84668 0.0
O253 O 0.3622 0.65591 0.83403 0.0
O254 O 0.30891 0.61134 0.92596 0.0
O255 O 0.40778 0.54004 0.81351 0.0
O256 O 0.37582 0.49297 0.91028 0.0
O257 O 0.44245 0.59501 0.90756 0.0
O258 O 0.35683 0.48106 0.85622 0.0
O259 O 0.44199 0.59835 0.83212 0.0
O260 O 0.39462 0.57826 0.94626 0.0
O261 O 0.33168 0.60085 0.8063 0.0
O262 O 0.2836 0.52206 0.90083 0.0
O263 O 0.36096 0.65695 0.91027 0.0
Sc264 Sc 0.9578 0.1756 0.5709 0.0
Sc265 Sc 0.89744 0.1093 0.62272 0.0
Sc266 Sc 0.98194 0.16834 0.65641 0.0
O267 O 0.94516 0.15197 0.61739 0.0
C268 C 0.04516 0.13991 0.59693 0.0
C269 C 0.93262 0.08354 0.55318 0.0
C270 C 0.96477 0.0709 0.67516 0.0
C271 C 0.86046 0.18502 0.57511 0.0
C272 C 0.99333 0.25301 0.61603 0.0
C273 C 0.88649 0.16974 0.68571 0.0
O274 O 0.01843 0.1429 0.57256 0.0
O275 O 0.92584 0.07142 0.5833 0.0
O276 O 0.98721 0.10459 0.67512 0.0
O277 O 0.89576 0.20515 0.57105 0.0
O278 O 0.98304 0.23512 0.64367 0.0
O279 O 0.86978 0.14521 0.6636 0.0
O280 O 0.98929 0.23394 0.58778 0.0
O281 O 0.8585 0.14729 0.58778 0.0
O282 O 0.92598 0.17986 0.68671 0.0
O283 O 0.92894 0.12225 0.54488 0.0
O284 O 0.0384 0.15496 0.62666 0.0
O285 O 0.93014 0.06745 0.65857 0.0
Sc286 Sc 0.33556 0.97026 0.56882 0.0
Sc287 Sc 0.39489 0.89949 0.61803 0.0
Sc288 Sc 0.33579 0.98088 0.65652 0.0
O289 O 0.35531 0.95012 0.6148 0.0
C290 C 0.36856 0.05421 0.60525 0.0
C291 C 0.42936 0.94425 0.55293 0.0
C292 C 0.43098 0.95823 0.67853 0.0
C293 C 0.32058 0.87099 0.56582 0.0
C294 C 0.25452 0.99824 0.61219 0.0
C295 C 0.32678 0.8823 0.67583 0.0
O296 O 0.36638 0.03169 0.57813 0.0
O297 O 0.43746 0.92835 0.58172 0.0
O298 O 0.39663 0.979 0.68078 0.0
O299 O 0.30559 0.90849 0.56146 0.0
O300 O 0.27112 0.98785 0.64016 0.0
O301 O 0.35499 0.86858 0.65542 0.0
O302 O 0.27513 0.99644 0.58463 0.0
O303 O 0.35674 0.8645 0.58003 0.0
O304 O 0.31702 0.92151 0.67926 0.0
O305 O 0.39154 0.94904 0.54263 0.0
O306 O 0.35492 0.04111 0.63406 0.0
O307 O 0.43628 0.92845 0.65684 0.0
Sc308 Sc 0.55938 0.34539 0.56193 0.0
Sc309 Sc 0.62211 0.39891 0.62095 0.0
Sc310 Sc 0.53684 0.33504 0.64752 0.0
O311 O 0.57271 0.3591 0.61068 0.0
C312 C 0.47332 0.38014 0.59489 0.0
C313 C 0.5824 0.43998 0.55893 0.0
C314 C 0.56318 0.42287 0.68375 0.0
C315 C 0.65672 0.3339 0.56466 0.0
C316 C 0.51842 0.26145 0.59414 0.0
C317 C 0.6336 0.3186 0.66847 0.0
O318 O 0.49809 0.37686 0.56902 0.0
O319 O 0.59321 0.44649 0.58941 0.0
O320 O 0.54138 0.38916 0.68014 0.0
O321 O 0.62116 0.31538 0.55832 0.0
O322 O 0.52366 0.27484 0.62407 0.0
O323 O 0.64926 0.3516 0.65401 0.0
O324 O 0.5288 0.28369 0.56864 0.0
O325 O 0.65889 0.37024 0.57955 0.0
O326 O 0.59397 0.30858 0.66882 0.0
O327 O 0.58833 0.40396 0.54532 0.0
O328 O 0.48173 0.36394 0.62399 0.0
O329 O 0.59352 0.43257 0.66383 0.0
Sc330 Sc 0.18207 0.54613 0.56904 0.0
Sc331 Sc 0.11953 0.61799 0.61629 0.0
Sc332 Sc 0.17264 0.53411 0.65671 0.0
O333 O 0.15821 0.56617 0.61407 0.0
C334 C 0.14077 0.46281 0.60411 0.0
C335 C 0.08951 0.57648 0.54734 0.0
C336 C 0.07733 0.56254 0.67464 0.0
C337 C 0.19745 0.64672 0.56713 0.0
C338 C 0.25811 0.51405 0.61548 0.0
C339 C 0.18399 0.63068 0.67799 0.0
O340 O 0.15297 0.48329 0.57762 0.0
O341 O 0.08065 0.59574 0.57476 0.0
O342 O 0.11216 0.54392 0.68063 0.0
O343 O 0.21046 0.60886 0.56081 0.0
O344 O 0.23661 0.51708 0.64255 0.0
O345 O 0.1542 0.64419 0.659 0.0
O346 O 0.24282 0.52432 0.58703 0.0
O347 O 0.16309 0.65415 0.58359 0.0
O348 O 0.19661 0.59205 0.67879 0.0
O349 O 0.12635 0.56236 0.54104 0.0
O350 O 0.14698 0.47646 0.6343 0.0
O351 O 0.07262 0.58783 0.64973 0.0
H352 H 0.79219 0.52648 0.04539 0.0
H353 H 0.81171 0.48832 0.14942 0.0
H354 H 0.87924 0.52659 0.15059 0.0
H355 H 0.92928 0.5761 0.12457 0.0
H356 H 0.91248 0.61553 0.02087 0.0
H357 H 0.84774 0.571 0.01689 0.0
C358 C 0.81154 0.52596 0.06813 0.0
C359 C 0.79628 0.50495 0.09748 0.0
C360 C 0.85062 0.54861 0.06883 0.0
C361 C 0.82207 0.50458 0.12662 0.0
C362 C 0.86081 0.52653 0.12736 0.0
C363 C 0.91152 0.57501 0.10099 0.0
C364 C 0.92498 0.6 0.07332 0.0
C365 C 0.8747 0.54962 0.09903 0.0
C366 C 0.90246 0.59703 0.04266 0.0
C367 C 0.86541 0.57166 0.04047 0.0
H368 H 0.93834 0.7855 0.12996 0.0
H369 H 1.00713 0.81292 0.03782 0.0
H370 H 0.96995 0.88135 0.03278 0.0
H371 H 0.91877 0.9343 0.05586 0.0
H372 H 0.84926 0.90355 0.14733 0.0
H373 H 0.88544 0.83547 0.15095 0.0
C374 C 0.94538 0.80648 0.1088 0.0
C375 C 0.97581 0.79434 0.08454 0.0
C376 C 0.92341 0.84513 0.10577 0.0
C377 C 0.9839 0.82157 0.05692 0.0
C378 C 0.96261 0.86067 0.05402 0.0
C379 C 0.91108 0.91241 0.07627 0.0
C380 C 0.88135 0.92436 0.10136 0.0
C381 C 0.93226 0.87287 0.07838 0.0
C382 C 0.87213 0.89558 0.12777 0.0
C383 C 0.89288 0.85652 0.12996 0.0
H384 H 0.58868 0.91916 0.14445 0.0
H385 H 0.5999 0.88488 0.03887 0.0
H386 H 0.66126 0.9333 0.03307 0.0
H387 H 0.71322 0.9832 0.05897 0.0
H388 H 0.69872 0.01866 0.16429 0.0
H389 H 0.63643 0.97243 0.1689 0.0
C390 C 0.6048 0.9218 0.12019 0.0
C391 C 0.5905 0.89751 0.09234 0.0
C392 C 0.63907 0.95036 0.1169 0.0
C393 C 0.61081 0.90261 0.06084 0.0
C394 C 0.64569 0.93046 0.0575 0.0
C395 C 0.6961 0.98137 0.08282 0.0
C396 C 0.71111 1.00422 0.11133 0.0
C397 C 0.66025 0.95434 0.08546 0.0
C398 C 0.68824 1.00142 0.14194 0.0
C399 C 0.65267 0.97475 0.14471 0.0
H400 H 0.52956 0.70749 0.05953 0.0
H401 H 0.51605 0.70636 0.16854 0.0
H402 H 0.55766 0.64116 0.17156 0.0
H403 H 0.60047 0.58625 0.14401 0.0
H404 H 0.61284 0.58473 0.03507 0.0
H405 H 0.56926 0.64924 0.03139 0.0
C406 C 0.53526 0.69279 0.08395 0.0
C407 C 0.51972 0.71233 0.11379 0.0
C408 C 0.5596 0.65512 0.08561 0.0
C409 C 0.52754 0.69245 0.14512 0.0
C410 C 0.55159 0.65514 0.14693 0.0
C411 C 0.59412 0.60018 0.11939 0.0
C412 C 0.61091 0.58111 0.08989 0.0
C413 C 0.56842 0.63667 0.11745 0.0
C414 C 0.60099 0.59902 0.05823 0.0
C415 C 0.5759 0.63585 0.05612 0.0
H416 H 0.92744 0.9097 0.35745 0.0
H417 H 0.92599 0.90307 0.46662 0.0
H418 H 0.8628 0.94916 0.46794 0.0
H419 H 0.80604 0.98836 0.4372 0.0
H420 H 0.81246 0.99666 0.3279 0.0
H421 H 0.87632 0.95337 0.32772 0.0
C422 C 0.91323 0.91795 0.38166 0.0
C423 C 0.93065 0.90189 0.41188 0.0
C424 C 0.878 0.94505 0.38217 0.0
C425 C 0.91268 0.91431 0.44298 0.0
C426 C 0.87669 0.94076 0.44369 0.0
C427 C 0.82163 0.98106 0.41337 0.0
C428 C 0.80384 0.99543 0.38256 0.0
C429 C 0.85877 0.95594 0.41334 0.0
C430 C 0.82495 0.98598 0.352 0.0
C431 C 0.86148 0.96098 0.3518 0.0
H432 H 0.59015 0.93361 0.43396 0.0
H433 H 0.64417 0.90742 0.33522 0.0
H434 H 0.60086 0.84356 0.33032 0.0
H435 H 0.54762 0.79522 0.35276 0.0
H436 H 0.49463 0.81602 0.45226 0.0
H437 H 0.53715 0.88191 0.45793 0.0
C438 C 0.59279 0.91365 0.41157 0.0
C439 C 0.62052 0.92581 0.38497 0.0
C440 C 0.56755 0.8762 0.40876 0.0
C441 C 0.62316 0.89942 0.3561 0.0
C442 C 0.59824 0.86273 0.35314 0.0
C443 C 0.54482 0.81428 0.37564 0.0
C444 C 0.51736 0.80093 0.40181 0.0
C445 C 0.5701 0.85106 0.37906 0.0
C446 C 0.51519 0.8257 0.43156 0.0
C447 C 0.53968 0.86327 0.43485 0.0
H448 H 0.57834 0.59173 0.35545 0.0
H449 H 0.59709 0.63428 0.45835 0.0
H450 H 0.66185 0.59078 0.46231 0.0
H451 H 0.7151 0.54356 0.4348 0.0
H452 H 0.69232 0.49991 0.33233 0.0
H453 H 0.6268 0.54051 0.33023 0.0
C454 C 0.59676 0.5918 0.37872 0.0
C455 C 0.58372 0.61706 0.40626 0.0
C456 C 0.63306 0.56625 0.38095 0.0
C457 C 0.60696 0.61557 0.43663 0.0
C458 C 0.64386 0.59065 0.43888 0.0
C459 C 0.69551 0.54245 0.4122 0.0
C460 C 0.70918 0.51906 0.3836 0.0
C461 C 0.6575 0.56617 0.411 0.0
C462 C 0.6831 0.51789 0.35462 0.0
C463 C 0.64556 0.54125 0.35328 0.0
H464 H 0.9696 0.72305 0.34991 0.0
H465 H 0.01558 0.7036 0.45161 0.0
H466 H 0.97209 0.63846 0.4563 0.0
H467 H 0.91991 0.58768 0.43138 0.0
H468 H 0.87207 0.61118 0.33043 0.0
H469 H 0.91688 0.67433 0.32593 0.0
C470 C 0.9706 0.70432 0.37299 0.0
C471 C 0.99627 0.71786 0.40019 0.0
C472 C 0.94457 0.66793 0.37586 0.0
C473 C 0.99632 0.69369 0.4302 0.0
C474 C 0.97128 0.65659 0.43294 0.0
C475 C 0.91889 0.60684 0.40854 0.0
C476 C 0.89238 0.59438 0.38132 0.0
C477 C 0.9449 0.6436 0.406 0.0
C478 C 0.89193 0.61968 0.35186 0.0
C479 C 0.91776 0.65587 0.34913 0.0
H480 H 0.09187 0.42507 0.84136 0.0
H481 H 0.09769 0.39977 0.94874 0.0
H482 H 0.16156 0.44479 0.95332 0.0
H483 H 0.21773 0.48808 0.92603 0.0
H484 H 0.21002 0.51406 0.81868 0.0
H485 H 0.14438 0.47239 0.8151 0.0
C486 C 0.10728 0.42901 0.86578 0.0
C487 C 0.09069 0.40809 0.89453 0.0
C488 C 0.14347 0.45527 0.86827 0.0
C489 C 0.11022 0.41489 0.92613 0.0
C490 C 0.14665 0.44071 0.92876 0.0
C491 C 0.20155 0.485 0.90188 0.0
C492 C 0.21928 0.50387 0.87258 0.0
C493 C 0.16385 0.46063 0.89988 0.0
C494 C 0.19744 0.4998 0.84162 0.0
C495 C 0.15995 0.47575 0.83949 0.0
H496 H 0.03816 0.21612 0.92733 0.0
H497 H 0.02314 0.21509 0.81847 0.0
H498 H 0.06328 0.14891 0.81492 0.0
H499 H 0.10453 0.09273 0.84214 0.0
H500 H 0.11895 0.09229 0.95097 0.0
H501 H 0.07718 0.15779 0.95496 0.0
C502 C 0.04338 0.20135 0.9028 0.0
C503 C 0.02773 0.22093 0.87319 0.0
C504 C 0.06674 0.16323 0.90086 0.0
C505 C 0.03477 0.201 0.84171 0.0
C506 C 0.0579 0.16314 0.8396 0.0
C507 C 0.09889 0.10701 0.8668 0.0
C508 C 0.11552 0.08782 0.89618 0.0
C509 C 0.07449 0.14432 0.86894 0.0
C510 C 0.10693 0.10647 0.9279 0.0
C511 C 0.08295 0.14391 0.9302 0.0
H512 H 0.30264 0.03552 0.93597 0.0
H513 H 0.30771 0.01611 0.82751 0.0
H514 H 0.37257 0.05872 0.82432 0.0
H515 H 0.42555 0.10422 0.85132 0.0
H516 H 0.42363 0.12252 0.95976 0.0
H517 H 0.35949 0.07768 0.96386 0.0
C518 C 0.3181 0.04027 0.91167 0.0
C519 C 0.29986 0.02291 0.88199 0.0
C520 C 0.3555 0.06513 0.90989 0.0
C521 C 0.32066 0.02923 0.85077 0.0
C522 C 0.35773 0.05379 0.84884 0.0
C523 C 0.41093 0.09887 0.8759 0.0
C524 C 0.42869 0.11762 0.90511 0.0
C525 C 0.37487 0.07255 0.87809 0.0
C526 C 0.41013 0.10905 0.93683 0.0
C527 C 0.37359 0.0833 0.93917 0.0
H528 H 0.46571 0.29578 0.85015 0.0
H529 H 0.52247 0.31759 0.94815 0.0
H530 H 0.48186 0.38397 0.95425 0.0
H531 H 0.42943 0.43565 0.9313 0.0
H532 H 0.37085 0.409 0.83431 0.0
H533 H 0.41252 0.34461 0.82864 0.0
C534 C 0.46969 0.31527 0.87271 0.0
C535 C 0.49757 0.3021 0.8984 0.0
C536 C 0.44535 0.35234 0.87647 0.0
C537 C 0.50144 0.32723 0.92785 0.0
C538 C 0.47807 0.36505 0.9314 0.0
C539 C 0.42539 0.41546 0.90916 0.0
C540 C 0.39691 0.42755 0.88329 0.0
C541 C 0.4496 0.37781 0.90592 0.0
C542 C 0.39245 0.40093 0.85467 0.0
C543 C 0.41645 0.36397 0.85124 0.0
H544 H 0.08391 0.09366 0.64493 0.0
H545 H 0.09133 0.1246 0.53863 0.0
H546 H 0.15529 0.08023 0.53307 0.0
H547 H 0.21138 0.03611 0.55976 0.0
H548 H 0.20029 1.00418 0.66598 0.0
H549 H 0.13489 0.04497 0.66995 0.0
C550 C 0.09969 0.09111 0.62053 0.0
C551 C 0.08374 0.1135 0.59245 0.0
C552 C 0.13558 0.06508 0.61747 0.0
C553 C 0.10355 0.10837 0.56077 0.0
C554 C 0.13998 0.08291 0.5576 0.0
C555 C 0.1944 0.0376 0.58367 0.0
C556 C 0.21134 0.01749 0.61265 0.0
C557 C 0.15662 0.06153 0.58595 0.0
C558 C 0.18852 0.01959 0.64333 0.0
C559 C 0.1511 0.04311 0.64571 0.0
H560 H 0.45991 0.22898 0.63667 0.0
H561 H 0.52079 0.20402 0.54074 0.0
H562 H 0.47812 0.13829 0.53434 0.0
H563 H 0.42424 0.08698 0.55744 0.0
H564 H 0.36277 0.11666 0.65267 0.0
H565 H 0.40457 0.18168 0.65754 0.0
C566 C 0.46425 0.20906 0.61442 0.0
C567 C 0.49412 0.22097 0.58954 0.0
C568 C 0.43908 0.17229 0.61062 0.0
C569 C 0.49831 0.19534 0.56044 0.0
C570 C 0.47381 0.15785 0.55676 0.0
C571 C 0.41956 0.10803 0.57896 0.0
C572 C 0.39043 0.09651 0.60476 0.0
C573 C 0.44403 0.14593 0.58179 0.0
C574 C 0.38506 0.12423 0.63254 0.0
C575 C 0.40907 0.16153 0.63546 0.0
H576 H 0.30999 0.49115 0.56244 0.0
H577 H 0.30234 0.4901 0.67182 0.0
H578 H 0.36754 0.44867 0.67464 0.0
H579 H 0.42463 0.40993 0.64656 0.0
H580 H 0.43451 0.41124 0.53739 0.0
H581 H 0.37044 0.4553 0.53413 0.0
C582 C 0.3228 0.48232 0.58694 0.0
C583 C 0.30083 0.49366 0.61688 0.0
C584 C 0.3604 0.45801 0.58846 0.0
C585 C 0.31818 0.48182 0.64833 0.0
C586 C 0.35549 0.45791 0.65 0.0
C587 C 0.41277 0.41947 0.62192 0.0
C588 C 0.43407 0.40639 0.59222 0.0
C589 C 0.37637 0.44518 0.62026 0.0
C590 C 0.41855 0.42021 0.56067 0.0
C591 C 0.38195 0.44557 0.5588 0.0
H592 H 0.09091 0.42417 0.65148 0.0
H593 H 0.13133 0.41221 0.5473 0.0
H594 H 0.08706 0.34797 0.54101 0.0
H595 H 0.03825 0.29395 0.56577 0.0
H596 H 0.99802 0.30766 0.66994 0.0
H597 H 0.04039 0.37273 0.67524 0.0
C598 C 0.09046 0.40744 0.62738 0.0
C599 C 0.11514 0.42284 0.60006 0.0
C600 C 0.06455 0.37094 0.62382 0.0
C601 C 0.1131 0.40102 0.56889 0.0
C602 C 0.08764 0.3643 0.56524 0.0
C603 C 0.03826 0.31144 0.58951 0.0
C604 C 0.01486 0.29558 0.61744 0.0
C605 C 0.06327 0.34887 0.59259 0.0
C606 C 0.01565 0.31878 0.64802 0.0
C607 C 0.04008 0.35601 0.65115 0.0
H608 H 0.1527 0.68773 0.22267 0.0
H609 H 0.11133 0.78598 0.15423 0.0
H610 H 0.12818 0.8409 0.19622 0.0
H611 H 0.13395 0.85719 0.25649 0.0
H612 H 0.16531 0.75791 0.32717 0.0
H613 H 0.17509 0.70727 0.28053 0.0
C614 C 0.14919 0.72134 0.21674 0.0
C615 C 0.13041 0.73334 0.1861 0.0
C616 C 0.15684 0.75237 0.24165 0.0
C617 C 0.12546 0.77659 0.17811 0.0
C618 C 0.13493 0.80783 0.20208 0.0
C619 C 0.14522 0.82505 0.26128 0.0
C620 C 0.14878 0.81076 0.29466 0.0
C621 C 0.1477 0.79575 0.23465 0.0
C622 C 0.16272 0.7692 0.30131 0.0
C623 C 0.16761 0.74019 0.27472 0.0
H624 H 0.68274 0.17755 0.2581 0.0
H625 H 0.77698 0.15998 0.33586 0.0
H626 H 0.83384 0.17659 0.29571 0.0
H627 H 0.85485 0.16907 0.23615 0.0
H628 H 0.76041 0.17972 0.15781 0.0
H629 H 0.70566 0.19504 0.20003 0.0
C630 C 0.71558 0.17993 0.26649 0.0
C631 C 0.7262 0.1669 0.29932 0.0
C632 C 0.74812 0.18746 0.24281 0.0
C633 C 0.76856 0.16971 0.31039 0.0
C634 C 0.80104 0.17875 0.28736 0.0
C635 C 0.82283 0.17751 0.22838 0.0
C636 C 0.81108 0.17255 0.19439 0.0
C637 C 0.79123 0.18372 0.25297 0.0
C638 C 0.76975 0.18325 0.18412 0.0
C639 C 0.73834 0.1913 0.2083 0.0
H640 H 0.35011 0.76117 0.18423 0.0
H641 H 0.37304 0.8776 0.23957 0.0
H642 H 0.35813 0.84123 0.29301 0.0
H643 H 0.36372 0.77278 0.32236 0.0
H644 H 0.34708 0.65538 0.26694 0.0
H645 H 0.33247 0.69526 0.2151 0.0
C646 C 0.34946 0.77878 0.20795 0.0
C647 C 0.36318 0.82131 0.20866 0.0
C648 C 0.34274 0.75716 0.23846 0.0
C649 C 0.36259 0.84455 0.23901 0.0
C650 C 0.35451 0.82369 0.26947 0.0
C651 C 0.35461 0.75625 0.29924 0.0
C652 C 0.35745 0.71177 0.29768 0.0
C653 C 0.34827 0.77936 0.2695 0.0
C654 C 0.3453 0.6899 0.26819 0.0
C655 C 0.33752 0.71267 0.23854 0.0
H656 H 0.66447 0.34555 0.23142 0.0
H657 H 0.76195 0.3481 0.15471 0.0
H658 H 0.81629 0.33243 0.19709 0.0
H659 H 0.83624 0.34514 0.2563 0.0
H660 H 0.73884 0.35274 0.33282 0.0
H661 H 0.68417 0.33541 0.29093 0.0
C662 C 0.69733 0.34023 0.22398 0.0
C663 C 0.70986 0.34854 0.19062 0.0
C664 C 0.72845 0.33389 0.24878 0.0
C665 C 0.75216 0.34197 0.18061 0.0
C666 C 0.78318 0.33348 0.20487 0.0
C667 C 0.8033 0.34042 0.26391 0.0
C668 C 0.79094 0.35078 0.29696 0.0
C669 C 0.77202 0.33337 0.23927 0.0
C670 C 0.74851 0.34502 0.30715 0.0
C671 C 0.7173 0.33568 0.28315 0.0
H672 H 0.85165 0.24659 0.6805 0.0
H673 H 0.86454 0.13902 0.74726 0.0
H674 H 0.85062 0.18464 0.79635 0.0
H675 H 0.85951 0.25689 0.81923 0.0
H676 H 0.85805 0.36491 0.75205 0.0
H677 H 0.84124 0.31815 0.7041 0.0
C678 C 0.849 0.23304 0.70573 0.0
C679 C 0.8593 0.1901 0.71078 0.0
C680 C 0.84396 0.26 0.73371 0.0
C681 C 0.85648 0.17221 0.74321 0.0
C682 C 0.84911 0.1984 0.7712 0.0
C683 C 0.8532 0.27011 0.79433 0.0
C684 C 0.8602 0.31368 0.78862 0.0
C685 C 0.84644 0.24274 0.7668 0.0
C686 C 0.85258 0.3312 0.75659 0.0
C687 C 0.84353 0.30442 0.72922 0.0
H688 H 0.34544 0.85033 0.73706 0.0
H689 H 0.25012 0.85039 0.6588 0.0
H690 H 0.19469 0.83453 0.70043 0.0
H691 H 0.173 0.84688 0.75949 0.0
H692 H 0.26822 0.85322 0.83771 0.0
H693 H 0.32415 0.83875 0.79627 0.0
C694 C 0.31288 0.84423 0.72907 0.0
C695 C 0.30132 0.85202 0.69542 0.0
C696 C 0.28106 0.83733 0.75342 0.0
C697 C 0.25929 0.84453 0.68486 0.0
C698 C 0.22757 0.83606 0.70872 0.0
C699 C 0.20574 0.84251 0.76753 0.0
C700 C 0.21703 0.85161 0.80108 0.0
C701 C 0.23776 0.83625 0.74328 0.0
C702 C 0.25927 0.84635 0.81172 0.0
C703 C 0.29124 0.83862 0.78798 0.0
H704 H 0.65815 0.17015 0.76026 0.0
H705 H 0.65852 0.27376 0.83203 0.0
H706 H 0.67818 0.32412 0.78733 0.0
H707 H 0.66981 0.33998 0.72709 0.0
H708 H 0.656 0.23717 0.6554 0.0
H709 H 0.66914 0.18488 0.69997 0.0
C710 C 0.66471 0.20343 0.76611 0.0
C711 C 0.65654 0.2189 0.79869 0.0
C712 C 0.673 0.23232 0.73993 0.0
C713 C 0.66456 0.26178 0.80669 0.0
C714 C 0.67544 0.29047 0.78114 0.0
C715 C 0.67217 0.30621 0.72115 0.0
C716 C 0.66142 0.29187 0.68868 0.0
C717 C 0.67607 0.27655 0.74737 0.0
C718 C 0.66403 0.24837 0.68063 0.0
C719 C 0.67095 0.21858 0.70615 0.0
H720 H 0.26309 0.66231 0.67429 0.0
H721 H 0.1497 0.66181 0.73567 0.0
H722 H 0.19146 0.6818 0.7856 0.0
H723 H 0.26122 0.67398 0.8129 0.0
H724 H 0.37446 0.66671 0.7517 0.0
H725 H 0.33245 0.67731 0.7004 0.0
C726 C 0.24752 0.66886 0.69831 0.0
C727 C 0.20398 0.66007 0.70193 0.0
C728 C 0.27201 0.67838 0.72696 0.0
C729 C 0.18344 0.66841 0.73275 0.0
C730 C 0.20737 0.67937 0.76128 0.0
C731 C 0.27671 0.67739 0.78843 0.0
C732 C 0.32035 0.66907 0.78556 0.0
C733 C 0.25197 0.68081 0.75908 0.0
C734 C 0.3407 0.67311 0.7541 0.0
C735 C 0.31659 0.67847 0.7248 0.0
H736 H 0.22465 0.67666 0.05174 0.0
H737 H 0.14342 0.78703 0.05691 0.0
H738 H 0.20599 0.83391 0.05784 0.0
H739 H 0.28406 0.84316 0.06329 0.0
H740 H 0.36485 0.73244 0.05612 0.0
H741 H 0.30245 0.68656 0.04953 0.0
C742 C 0.22059 0.711 0.05261 0.0
C743 C 0.17926 0.72815 0.0547 0.0
C744 C 0.25679 0.73787 0.0531 0.0
C745 C 0.17473 0.77282 0.05529 0.0
C746 C 0.21059 0.79972 0.05607 0.0
C747 C 0.28808 0.80905 0.05995 0.0
C748 C 0.32935 0.79143 0.06079 0.0
C749 C 0.25183 0.78256 0.05597 0.0
C750 C 0.33371 0.74713 0.0558 0.0
C751 C 0.29792 0.72068 0.05214 0.0
H752 H 0.74372 0.16612 0.05259 0.0
H753 H 0.8654 0.23072 0.05799 0.0
H754 H 0.83029 0.29956 0.05251 0.0
H755 H 0.76449 0.34211 0.05371 0.0
H756 H 0.64275 0.27753 0.05076 0.0
H757 H 0.67833 0.20864 0.04713 0.0
C758 C 0.7627 0.19515 0.05193 0.0
C759 C 0.80724 0.19291 0.05619 0.0
C760 C 0.74217 0.23501 0.04951 0.0
C761 C 0.83108 0.23117 0.05521 0.0
C762 C 0.81099 0.27075 0.05211 0.0
C763 C 0.74571 0.31305 0.05155 0.0
C764 C 0.7009 0.31522 0.05295 0.0
C765 C 0.76644 0.27319 0.0504 0.0
C766 C 0.67724 0.27701 0.05019 0.0
C767 C 0.6976 0.23745 0.04819 0.0
H768 H 0.34351 0.7667 0.4412 0.0
H769 H 0.28063 0.64412 0.43395 0.0
H770 H 0.21131 0.67856 0.43837 0.0
H771 H 0.16827 0.74407 0.43693 0.0
H772 H 0.23136 0.86675 0.44051 0.0
H773 H 0.30037 0.83182 0.44537 0.0
C774 C 0.3147 0.7474 0.44124 0.0
C775 C 0.31747 0.70284 0.43685 0.0
C776 C 0.27471 0.76756 0.44277 0.0
C777 C 0.27961 0.67849 0.43689 0.0
C778 C 0.23984 0.69819 0.43937 0.0
C779 C 0.19704 0.76317 0.43941 0.0
C780 C 0.19453 0.80802 0.43795 0.0
C781 C 0.23692 0.74282 0.44116 0.0
C782 C 0.23228 0.83219 0.4411 0.0
C783 C 0.27186 0.81222 0.44386 0.0
H784 H 0.84517 0.28772 0.42703 0.0
H785 H 0.73677 0.37053 0.43916 0.0
H786 H 0.68971 0.30864 0.44361 0.0
H787 H 0.67789 0.23092 0.43767 0.0
H788 H 0.78635 0.14789 0.42781 0.0
H789 H 0.83428 0.20953 0.42921 0.0
C790 C 0.81136 0.29232 0.43117 0.0
C791 C 0.79479 0.33412 0.43227 0.0
C792 C 0.78413 0.25633 0.43382 0.0
C793 C 0.75077 0.33904 0.43805 0.0
C794 C 0.7236 0.30351 0.44043 0.0
C795 C 0.71205 0.22622 0.43639 0.0
C796 C 0.72824 0.18459 0.43232 0.0
C797 C 0.73971 0.26199 0.43737 0.0
C798 C 0.77275 0.17934 0.43105 0.0
C799 C 0.80031 0.21472 0.4316 0.0
H800 H 0.73618 0.16973 0.92618 0.0
H801 H 0.6552 0.27619 0.95124 0.0
H802 H 0.71715 0.3234 0.95368 0.0
H803 H 0.79343 0.33639 0.94152 0.0
H804 H 0.87435 0.22931 0.9184 0.0
H805 H 0.81354 0.18083 0.92244 0.0
C806 C 0.73204 0.20312 0.93264 0.0
C807 C 0.69078 0.21934 0.93776 0.0
C808 C 0.76787 0.23034 0.93388 0.0
C809 C 0.68638 0.26266 0.94677 0.0
C810 C 0.72186 0.28989 0.948 0.0
C811 C 0.7978 0.30239 0.93778 0.0
C812 C 0.83834 0.2867 0.92915 0.0
C813 C 0.7626 0.2744 0.94039 0.0
C814 C 0.84356 0.2424 0.92498 0.0
C815 C 0.80871 0.21456 0.92714 0.0
H816 H 0.34672 0.73327 0.93143 0.0
H817 H 0.23875 0.64747 0.93706 0.0
H818 H 0.19091 0.70793 0.94318 0.0
H819 H 0.17866 0.78541 0.93954 0.0
H820 H 0.28669 0.87118 0.93504 0.0
H821 H 0.33511 0.81071 0.93632 0.0
C822 C 0.3128 0.7277 0.93446 0.0
C823 C 0.29651 0.6857 0.9331 0.0
C824 C 0.28519 0.76275 0.93787 0.0
C825 C 0.25241 0.6793 0.9377 0.0
C826 C 0.22484 0.71396 0.94106 0.0
C827 C 0.2128 0.79093 0.93937 0.0
C828 C 0.2288 0.83291 0.93662 0.0
C829 C 0.24071 0.75588 0.94001 0.0
C830 C 0.27325 0.83934 0.93699 0.0
C831 C 0.30111 0.80468 0.93752 0.0
H832 H 0.84632 0.26951 0.56089 0.0
H833 H 0.7818 0.14782 0.56909 0.0
H834 H 0.71326 0.18254 0.56166 0.0
H835 H 0.67077 0.24822 0.55957 0.0
H836 H 0.7349 0.37019 0.55404 0.0
H837 H 0.8039 0.33467 0.55297 0.0
C838 C 0.81736 0.25046 0.56053 0.0
C839 C 0.8195 0.20608 0.56606 0.0
C840 C 0.77765 0.27077 0.55684 0.0
C841 C 0.78139 0.18207 0.56541 0.0
C842 C 0.74199 0.20191 0.56111 0.0
C843 C 0.69978 0.26699 0.55731 0.0
C844 C 0.69753 0.31186 0.55713 0.0
C845 C 0.73958 0.24637 0.55778 0.0
C846 C 0.73561 0.33563 0.55451 0.0
C847 C 0.77518 0.31532 0.55402 0.0
H848 H 0.34334 0.78658 0.55847 0.0
H849 H 0.23446 0.86998 0.55544 0.0
H850 H 0.18684 0.80832 0.55253 0.0
H851 H 0.17533 0.73053 0.55771 0.0
H852 H 0.28393 0.64683 0.55816 0.0
H853 H 0.33189 0.7084 0.55476 0.0
C854 C 0.30924 0.79136 0.55664 0.0
C855 C 0.29277 0.83323 0.55772 0.0
C856 C 0.28169 0.7555 0.55482 0.0
C857 C 0.24837 0.83843 0.55482 0.0
C858 C 0.22091 0.80303 0.55334 0.0
C859 C 0.20948 0.72567 0.55654 0.0
C860 C 0.2258 0.68386 0.5587 0.0
C861 C 0.23709 0.76138 0.5544 0.0
C862 C 0.27023 0.67842 0.55662 0.0
C863 C 0.29782 0.71376 0.55489 0.0
H864 H 1.00355 0.47657 0.92889 0.0
H865 H 0.91884 0.4391 0.00965 0.0
H866 H 0.9603 0.48199 0.05015 0.0
H867 H 0.02074 0.53013 0.06205 0.0
H868 H 0.10541 0.56704 0.98101 0.0
H869 H 0.06521 0.52245 0.94112 0.0
C870 C 0.99384 0.47862 0.95526 0.0
C871 C 0.95777 0.4561 0.9664 0.0
C872 C 0.01872 0.50171 0.97837 0.0
C873 C 0.9461 0.45724 0.0007 0.0
C874 C 0.97005 0.48118 0.0238 0.0
C875 C 0.03099 0.52727 0.03586 0.0
C876 C 0.06629 0.55084 0.02438 0.0
C877 C 1.0067 0.50313 0.01295 0.0
C878 C 0.07867 0.54835 0.99026 0.0
C879 C 0.05538 0.52348 0.96746 0.0
H880 H 0.02715 0.98723 0.93093 0.0
H881 H 0.08312 0.9177 0.01361 0.0
H882 H 0.03938 0.95723 0.0543 0.0
H883 H 0.98798 0.01441 0.06628 0.0
H884 H 0.93338 0.08482 0.98337 0.0
H885 H 0.97498 0.04327 0.94275 0.0
C886 C 0.02879 0.98003 0.95779 0.0
C887 C 0.05744 0.94924 0.96941 0.0
C888 C 1.00507 1.00414 0.98097 0.0
C889 C 0.06059 0.94095 0.00427 0.0
C890 C 0.0361 0.96389 0.02748 0.0
C891 C 0.98596 0.02111 0.03935 0.0
C892 C 0.9585 0.05304 0.02772 0.0
C893 C 0.00904 0.99631 0.01616 0.0
C894 C 0.95492 0.06069 0.99278 0.0
C895 C 0.97828 0.03669 0.96958 0.0
H896 H 0.51675 0.09068 0.98551 0.0
H897 H 0.5961 0.99762 0.93562 0.0
H898 H 0.55488 0.93977 0.96184 0.0
H899 H 0.49751 0.91639 -0.00044 0.0
H900 H 0.41826 0.00983 0.04929 0.0
H901 H 0.45757 0.06733 0.02119 0.0
C902 C 0.52547 0.05773 0.98077 0.0
C903 C 0.55991 0.04823 0.95932 0.0
C904 C 0.50107 0.02499 0.99508 0.0
C905 C 0.57004 1.00551 0.9525 0.0
C906 C 0.54631 0.97257 0.9672 0.0
C907 C 0.48819 0.94929 0.00373 0.0
C908 C 0.45495 0.95893 0.02637 0.0
C909 C 0.51169 0.98203 0.9884 0.0
C910 C 0.44368 1.0017 0.03189 0.0
C911 C 0.46637 0.03451 0.01612 0.0
H912 H 0.58798 0.48386 0.00033 0.0
H913 H 0.48804 0.43456 0.06491 0.0
H914 H 0.4361 0.47927 0.03574 0.0
H915 H 0.41949 0.5314 0.99196 0.0
H916 H 0.51941 0.58053 0.92718 0.0
H917 H 0.5716 0.53725 0.95733 0.0
C918 C 0.55473 0.48241 0.0078 0.0
C919 C 0.54168 0.45548 0.03442 0.0
C920 C 0.5254 0.50865 0.99142 0.0
C921 C 0.49872 0.45474 0.04428 0.0
C922 C 0.46914 0.48045 0.02777 0.0
C923 C 0.45276 0.5332 0.98462 0.0
C924 C 0.46557 0.55928 0.95737 0.0
C925 C 0.48224 0.50761 0.00145 0.0
C926 C 0.50876 0.56085 0.94812 0.0
C927 C 0.53851 0.53589 0.96516 0.0
H928 H 0.99803 0.03194 0.56685 0.0
H929 H 0.91696 0.07477 0.48582 0.0
H930 H 0.95986 0.03518 0.44455 0.0
H931 H 0.02067 0.98873 0.43191 0.0
H932 H 0.10179 0.94638 0.51314 0.0
H933 H 0.05973 0.98714 0.55408 0.0
C934 C 0.98938 0.03181 0.54022 0.0
C935 C 0.95403 0.05511 0.52923 0.0
C936 C 0.015 0.01042 0.51673 0.0
C937 C 0.94376 0.05624 0.49465 0.0
C938 C 0.96849 0.0341 0.47113 0.0
C939 C 0.02966 0.98939 0.45846 0.0
C940 C 0.06447 0.96538 0.46964 0.0
C941 C 1.00446 0.01152 0.48187 0.0
C942 C 0.07528 0.96523 0.50414 0.0
C943 C 0.05101 0.98801 0.52751 0.0
H944 H 0.42168 0.998 0.49962 0.0
H945 H 0.51536 0.93269 0.56026 0.0
H946 H 0.57244 0.96987 0.52989 0.0
H947 H 0.59531 0.02191 0.48743 0.0
H948 H 0.50172 0.08732 0.42684 0.0
H949 H 0.44459 0.04937 0.45665 0.0
C950 C 0.45457 0.99133 0.50598 0.0
C951 C 0.46422 0.96233 0.53209 0.0
C952 C 0.48706 0.01341 0.48896 0.0
C953 C 0.50705 0.95466 0.5402 0.0
C954 C 0.53966 0.97611 0.523 0.0
C955 C 0.56241 0.02837 0.48096 0.0
C956 C 0.55274 0.05786 0.45521 0.0
C957 C 0.52994 1.00594 0.4977 0.0
C958 C 0.50997 0.06509 0.44674 0.0
C959 C 0.47736 0.04321 0.46362 0.0
H960 H 0.53685 0.42685 0.50196 0.0
H961 H 0.57066 0.52416 0.57506 0.0
H962 H 0.52444 0.57493 0.54606 0.0
H963 H 0.47595 0.5915 0.49967 0.0
H964 H 0.44289 0.49419 0.42631 0.0
H965 H 0.48688 0.44279 0.45661 0.0
C966 C 0.53457 0.4593 0.51142 0.0
C967 C 0.55763 0.47199 0.54032 0.0
C968 C 0.5076 0.48788 0.49504 0.0
C969 C 0.55357 0.51384 0.55263 0.0
C970 C 0.52698 0.54271 0.53622 0.0
C971 C 0.47776 0.55888 0.49051 0.0
C972 C 0.45613 0.54662 0.46078 0.0
C973 C 0.50385 0.52997 0.50747 0.0
C974 C 0.45918 0.50435 0.44915 0.0
C975 C 0.48453 0.4751 0.4663 0.0
H976 H 0.09706 0.52894 0.49013 0.0
H977 H 1.00387 0.59313 0.55247 0.0
H978 H 0.94654 0.55869 0.52045 0.0
H979 H 0.92338 0.50573 0.47841 0.0
H980 H 0.01679 0.44035 0.41727 0.0
H981 H 0.07395 0.47951 0.446 0.0
C982 C 0.06425 0.536 0.49659 0.0
C983 C 0.05488 0.5633 0.52403 0.0
C984 C 0.03162 0.51507 0.47891 0.0
C985 C 0.01209 0.5722 0.53161 0.0
C986 C 0.97929 0.5522 0.51352 0.0
C987 C 0.95628 0.4997 0.47156 0.0
C988 C 0.96596 0.46943 0.44628 0.0
C989 C 0.98879 0.52258 0.48788 0.0
C990 C 0.00861 0.46298 0.43698 0.0
C991 C 0.04121 0.48553 0.45325 0.0
H992 H 1.0018 0.48847 0.30191 0.0
H993 H 0.89779 0.44695 0.23846 0.0
H994 H 0.93139 0.4798 0.18917 0.0
H995 H 0.98422 0.52998 0.16601 0.0
H996 H 0.08936 0.57171 0.22789 0.0
H997 H 0.0621 0.52914 0.27558 0.0
C998 C 0.98751 0.48523 0.27702 0.0
C999 C 0.94748 0.46499 0.27377 0.0
C1000 C 1.00688 0.50501 0.24857 0.0
C1001 C 0.92877 0.46197 0.24149 0.0
C1002 C 0.94777 0.48113 0.21333 0.0
C1003 C 1.00183 0.52861 0.18964 0.0
C1004 C 0.03879 0.55369 0.19346 0.0
C1005 C 0.98591 0.50416 0.21681 0.0
C1006 C 0.06113 0.55215 0.22426 0.0
C1007 C 0.0453 0.5281 0.25161 0.0
H1008 H 0.07328 0.96797 0.2652 0.0
H1009 H 0.97307 0.97424 0.33977 0.0
H1010 H 0.92991 0.0171 0.30157 0.0
H1011 H 0.91667 0.04464 0.24467 0.0
H1012 H 0.01523 0.03964 0.16881 0.0
H1013 H 0.06323 1.00516 0.2096 0.0
C1014 C 0.04263 0.98005 0.27336 0.0
C1015 C 0.02639 0.96817 0.30537 0.0
C1016 C 0.01744 1.00434 0.25078 0.0
C1017 C 0.98622 0.98316 0.31538 0.0
C1018 C 0.96142 1.00744 0.29344 0.0
C1019 C 0.94898 0.03672 0.23725 0.0
C1020 C 0.9623 0.04437 0.20373 0.0
C1021 C 0.97606 0.01693 0.26072 0.0
C1022 C 1.0043 0.03426 0.19451 0.0
C1023 C 0.03161 0.01426 0.2178 0.0
H1024 H 0.59742 0.05697 0.24208 0.0
H1025 H 0.50714 0.04649 0.32391 0.0
H1026 H 0.45614 0.01076 0.28593 0.0
H1027 H 0.44227 0.97266 0.23135 0.0
H1028 H 0.53325 0.98474 0.15008 0.0
H1029 H 0.57842 0.03035 0.1854 0.0
C1030 C 0.56606 0.04795 0.25131 0.0
C1031 C 0.55603 0.0543 0.28573 0.0
C1032 C 0.53707 0.02748 0.22933 0.0
C1033 C 0.51541 0.04235 0.29744 0.0
C1034 C 0.48641 0.02155 0.27576 0.0
C1035 C 0.47108 0.98684 0.22104 0.0
C1036 C 0.48412 0.97594 0.18794 0.0
C1037 C 0.49743 0.01266 0.24189 0.0
C1038 C 0.52222 0.99337 0.1752 0.0
C1039 C 0.54831 0.01904 0.19556 0.0
H1040 H 0.47814 0.50366 0.30779 0.0
H1041 H 0.47021 0.62104 0.25111 0.0
H1042 H 0.50174 0.58681 0.20193 0.0
H1043 H 0.54017 0.52699 0.17719 0.0
H1044 H 0.54947 0.40844 0.23147 0.0
H1045 H 0.50867 0.43902 0.27892 0.0
C1046 C 0.48235 0.52124 0.28438 0.0
C1047 C 0.4722 0.56507 0.28333 0.0
C1048 C 0.50125 0.50124 0.25577 0.0
C1049 C 0.47816 0.58747 0.25278 0.0
C1050 C 0.49629 0.56796 0.22456 0.0
C1051 C 0.53223 0.50749 0.19905 0.0
C1052 C 0.5476 0.46556 0.20083 0.0
C1053 C 0.50925 0.52538 0.2261 0.0
C1054 C 0.53745 0.44066 0.22935 0.0
C1055 C 0.51449 0.45835 0.25662 0.0
H1056 H 0.07595 0.56985 0.74262 0.0
H1057 H 0.99988 0.52825 0.65791 0.0
H1058 H 0.95029 0.49203 0.6967 0.0
H1059 H 0.93634 0.46211 0.75405 0.0
H1060 H 0.01342 0.50389 0.83816 0.0
H1061 H 0.05438 0.55077 0.80066 0.0
C1062 C 0.04765 0.55407 0.73281 0.0
C1063 C 0.0414 0.55177 0.69753 0.0
C1064 C 0.01966 0.53311 0.75527 0.0
C1065 C 1.00497 0.53093 0.68499 0.0
C1066 C 0.9769 0.50984 0.70719 0.0
C1067 C 0.96081 0.48304 0.7643 0.0
C1068 C 0.97134 0.48032 0.79894 0.0
C1069 C 0.98484 0.50937 0.74229 0.0
C1070 C 1.00408 0.50637 0.8118 0.0
C1071 C 0.02787 0.53272 0.79024 0.0
H1072 H 0.93816 0.03804 0.73589 0.0
H1073 H 0.03323 0.02499 0.65776 0.0
H1074 H 0.0756 0.97933 0.69456 0.0
H1075 H 0.09102 0.95306 0.75158 0.0
H1076 H 0.9985 0.96733 0.83133 0.0
H1077 H 0.94926 1.00162 0.79145 0.0
C1078 C 0.96732 0.02372 0.72663 0.0
C1079 C 0.98237 0.03429 0.694 0.0
C1080 C 0.99219 0.99818 0.74845 0.0
C1081 C 0.0208 0.0167 0.68255 0.0
C1082 C 0.0452 0.9909 0.70371 0.0
C1083 C 0.05949 0.96248 0.75993 0.0
C1084 C 0.04828 0.95761 0.79426 0.0
C1085 C 0.032 0.98281 0.73708 0.0
C1086 C 0.00757 0.97022 0.80493 0.0
C1087 C 0.97966 0.99027 0.78218 0.0
H1088 H 0.42345 0.96873 0.74588 0.0
H1089 H 0.51463 0.97848 0.66466 0.0
H1090 H 0.56478 0.01562 0.70266 0.0
H1091 H 0.57801 0.05431 0.7574 0.0
H1092 H 0.48516 0.04332 0.8375 0.0
H1093 H 0.4407 0.99747 0.80197 0.0
C1094 C 0.4548 0.978 0.73675 0.0
C1095 C 0.46534 0.97087 0.70254 0.0
C1096 C 0.48308 0.99949 0.75864 0.0
C1097 C 0.50596 0.98315 0.69098 0.0
C1098 C 0.53444 1.00479 0.71268 0.0
C1099 C 0.5488 0.04053 0.76733 0.0
C1100 C 0.53507 0.05176 0.80022 0.0
C1101 C 0.52284 0.01435 0.74635 0.0
C1102 C 0.4966 0.03464 0.8125 0.0
C1103 C 0.47099 0.00867 0.79208 0.0
H1104 H 0.48215 0.4907 0.81766 0.0
H1105 H 0.47593 0.60744 0.76067 0.0
H1106 H 0.5198 0.57564 0.71562 0.0
H1107 H 0.54997 0.50991 0.68872 0.0
H1108 H 0.55282 0.39349 0.74687 0.0
H1109 H 0.5211 0.42976 0.7952 0.0
C1110 C 0.49171 0.50962 0.79587 0.0
C1111 C 0.47622 0.55132 0.79249 0.0
C1112 C 0.51592 0.49081 0.76998 0.0
C1113 C 0.48816 0.57546 0.76402 0.0
C1114 C 0.51278 0.55704 0.73808 0.0
C1115 C 0.54478 0.49303 0.71235 0.0
C1116 C 0.55342 0.44897 0.71415 0.0
C1117 C 0.52548 0.51408 0.74017 0.0
C1118 C 0.54612 0.4273 0.7448 0.0
C1119 C 0.52788 0.44798 0.77246 0.0
loop_
_geom_bond_atom_site_label_1
_geom_bond_atom_site_label_2
_geom_bond_distance
_geom_bond_site_symmetry_2
_ccdc_geom_bond_type
Sc0 O3 2.025 . S
Sc0 O10 2.105 . S
Sc0 O13 2.105 . S
Sc0 O16 2.105 1_455 S
Sc0 O19 2.105 . S
Sc1 O3 2.025 . S
Sc1 O11 2.105 . S
Sc1 O15 2.105 . S
Sc1 O17 2.105 . S
Sc1 O21 2.105 . S
Sc2 O3 2.025 1_655 S
Sc2 O12 2.105 1_655 S
Sc2 O14 2.105 . S
Sc2 O18 2.105 . S
Sc2 O20 2.105 . S
O3 Sc0 2.025 . S
O3 Sc1 2.025 . S
O3 Sc2 2.025 1_455 S
C4 O10 1.268 1_655 S
C4 O20 1.268 . S
C5 O11 1.268 . S
C5 O19 1.268 . S
C6 O12 1.268 . S
C6 O21 1.268 . S
C7 O13 1.268 . S
C7 O17 1.268 . S
C8 O14 1.268 . S
C8 O16 1.268 . S
C9 O15 1.268 . S
C9 O18 1.268 1_455 S
O10 Sc0 2.105 . S
O10 C4 1.268 1_455 S
O11 Sc1 2.105 . S
O11 C5 1.268 . S
O12 Sc2 2.105 1_455 S
O12 C6 1.268 . S
O13 Sc0 2.105 . S
O13 C7 1.268 . S
O14 Sc2 2.105 . S
O14 C8 1.268 . S
O15 Sc1 2.105 . S
O15 C9 1.268 . S
O16 Sc0 2.105 1_655 S
O16 C8 1.268 . S
O17 Sc1 2.105 . S
O17 C7 1.268 . S
O18 Sc2 2.105 . S
O18 C9 1.268 1_655 S
O19 Sc0 2.105 . S
O19 C5 1.268 . S
O20 Sc2 2.105 . S
O20 C4 1.268 . S
O21 Sc1 2.105 . S
O21 C6 1.268 . S
Sc22 O25 2.025 . S
Sc22 O32 2.105 . S
Sc22 O35 2.105 . S
Sc22 O38 2.105 1_545 S
Sc22 O41 2.105 . S
Sc23 O25 2.025 . S
Sc23 O33 2.105 . S
Sc23 O37 2.105 . S
Sc23 O39 2.105 . S
Sc23 O43 2.105 . S
Sc24 O25 2.025 1_565 S
Sc24 O34 2.105 1_565 S
Sc24 O36 2.105 . S
Sc24 O40 2.105 . S
Sc24 O42 2.105 . S
O25 Sc22 2.025 . S
O25 Sc23 2.025 . S
O25 Sc24 2.025 1_545 S
C26 O32 1.268 1_565 S
C26 O42 1.268 . S
C27 O33 1.268 . S
C27 O41 1.268 . S
C28 O34 1.268 . S
C28 O43 1.268 . S
C29 O35 1.268 . S
C29 O39 1.268 . S
C30 O36 1.268 . S
C30 O38 1.268 . S
C31 O37 1.268 . S
C31 O40 1.268 1_545 S
O32 Sc22 2.105 . S
O32 C26 1.268 1_545 S
O33 Sc23 2.105 . S
O33 C27 1.268 . S
O34 Sc24 2.105 1_545 S
O34 C28 1.268 . S
O35 Sc22 2.105 . S
O35 C29 1.268 . S
O36 Sc24 2.105 . S
O36 C30 1.268 . S
O37 Sc23 2.105 . S
O37 C31 1.268 . S
O38 Sc22 2.105 1_565 S
O38 C30 1.268 . S
O39 Sc23 2.105 . S
O39 C29 1.268 . S
O40 Sc24 2.105 . S
O40 C31 1.268 1_565 S
O41 Sc22 2.105 . S
O41 C27 1.268 . S
O42 Sc24 2.105 . S
O42 C26 1.268 . S
O43 Sc23 2.105 . S
O43 C28 1.268 . S
Sc44 O47 2.025 . S
Sc44 O54 2.105 . S
Sc44 O57 2.105 . S
Sc44 O60 2.105 . S
Sc44 O63 2.105 . S
Sc45 O47 2.025 . S
Sc45 O55 2.105 . S
Sc45 O59 2.105 . S
Sc45 O61 2.105 . S
Sc45 O65 2.105 . S
Sc46 O47 2.025 . S
Sc46 O56 2.105 . S
Sc46 O58 2.105 . S
Sc46 O62 2.105 . S
Sc46 O64 2.105 . S
O47 Sc44 2.025 . S
O47 Sc45 2.025 . S
O47 Sc46 2.025 . S
C48 O54 1.268 . S
C48 O64 1.268 . S
C49 O55 1.268 . S
C49 O63 1.268 . S
C50 O56 1.268 . S
C50 O65 1.268 . S
C51 O57 1.268 . S
C51 O61 1.268 . S
C52 O58 1.268 . S
C52 O60 1.268 . S
C53 O59 1.268 . S
C53 O62 1.268 . S
O54 Sc44 2.105 . S
O54 C48 1.268 . S
O55 Sc45 2.105 . S
O55 C49 1.268 . S
O56 Sc46 2.105 . S
O56 C50 1.268 . S
O57 Sc44 2.105 . S
O57 C51 1.268 . S
O58 Sc46 2.105 . S
O58 C52 1.268 . S
O59 Sc45 2.105 . S
O59 C53 1.268 . S
O60 Sc44 2.105 . S
O60 C52 1.268 . S
O61 Sc45 2.105 . S
O61 C51 1.268 . S
O62 Sc46 2.105 . S
O62 C53 1.268 . S
O63 Sc44 2.105 . S
O63 C49 1.268 . S
O64 Sc46 2.105 . S
O64 C48 1.268 . S
O65 Sc45 2.105 . S
O65 C50 1.268 . S
Sc66 O69 2.025 . S
Sc66 O76 2.105 . S
Sc66 O79 2.105 . S
Sc66 O82 2.105 . S
Sc66 O85 2.105 . S
Sc67 O69 2.025 . S
Sc67 O77 2.105 . S
Sc67 O81 2.105 . S
Sc67 O83 2.105 . S
Sc67 O87 2.105 . S
Sc68 O69 2.025 . S
Sc68 O78 2.105 . S
Sc68 O80 2.105 . S
Sc68 O84 2.105 . S
Sc68 O86 2.105 . S
O69 Sc66 2.025 . S
O69 Sc67 2.025 . S
O69 Sc68 2.025 . S
C70 O76 1.268 . S
C70 O86 1.268 . S
C71 O77 1.268 . S
C71 O85 1.268 . S
C72 O78 1.268 . S
C72 O87 1.268 . S
C73 O79 1.268 . S
C73 O83 1.268 . S
C74 O80 1.268 . S
C74 O82 1.268 . S
C75 O81 1.268 . S
C75 O84 1.268 . S
O76 Sc66 2.105 . S
O76 C70 1.268 . S
O77 Sc67 2.105 . S
O77 C71 1.268 . S
O78 Sc68 2.105 . S
O78 C72 1.268 . S
O79 Sc66 2.105 . S
O79 C73 1.268 . S
O80 Sc68 2.105 . S
O80 C74 1.268 . S
O81 Sc67 2.105 . S
O81 C75 1.268 . S
O82 Sc66 2.105 . S
O82 C74 1.268 . S
O83 Sc67 2.105 . S
O83 C73 1.268 . S
O84 Sc68 2.105 . S
O84 C75 1.268 . S
O85 Sc66 2.105 . S
O85 C71 1.268 . S
O86 Sc68 2.105 . S
O86 C70 1.268 . S
O87 Sc67 2.105 . S
O87 C72 1.268 . S
Sc88 O91 2.025 1_655 S
Sc88 O98 2.105 . S
Sc88 O101 2.105 1_655 S
Sc88 O104 2.105 . S
Sc88 O107 2.105 . S
Sc89 O91 2.025 . S
Sc89 O99 2.105 . S
Sc89 O103 2.105 . S
Sc89 O105 2.105 . S
Sc89 O109 2.105 . S
Sc90 O91 2.025 . S
Sc90 O100 2.105 . S
Sc90 O102 2.105 . S
Sc90 O106 2.105 . S
Sc90 O108 2.105 1_455 S
O91 Sc88 2.025 1_455 S
O91 Sc89 2.025 . S
O91 Sc90 2.025 . S
C92 O98 1.268 . S
C92 O108 1.268 . S
C93 O99 1.268 . S
C93 O107 1.268 1_455 S
C94 O100 1.268 . S
C94 O109 1.268 . S
C95 O101 1.268 . S
C95 O105 1.268 . S
C96 O102 1.268 1_655 S
C96 O104 1.268 . S
C97 O103 1.268 . S
C97 O106 1.268 . S
O98 Sc88 2.105 . S
O98 C92 1.268 . S
O99 Sc89 2.105 . S
O99 C93 1.268 . S
O100 Sc90 2.105 . S
O100 C94 1.268 . S
O101 Sc88 2.105 1_455 S
O101 C95 1.268 . S
O102 Sc90 2.105 . S
O102 C96 1.268 1_455 S
O103 Sc89 2.105 . S
O103 C97 1.268 . S
O104 Sc88 2.105 . S
O104 C96 1.268 . S
O105 Sc89 2.105 . S
O105 C95 1.268 . S
O106 Sc90 2.105 . S
O106 C97 1.268 . S
O107 Sc88 2.105 . S
O107 C93 1.268 1_655 S
O108 Sc90 2.105 1_655 S
O108 C92 1.268 . S
O109 Sc89 2.105 . S
O109 C94 1.268 . S
Sc110 O113 2.025 . S
Sc110 O120 2.105 . S
Sc110 O123 2.105 . S
Sc110 O126 2.105 1_545 S
Sc110 O129 2.105 . S
Sc111 O113 2.025 . S
Sc111 O121 2.105 . S
Sc111 O125 2.105 . S
Sc111 O127 2.105 . S
Sc111 O131 2.105 . S
Sc112 O113 2.025 1_565 S
Sc112 O122 2.105 1_565 S
Sc112 O124 2.105 . S
Sc112 O128 2.105 . S
Sc112 O130 2.105 . S
O113 Sc110 2.025 . S
O113 Sc111 2.025 . S
O113 Sc112 2.025 1_545 S
C114 O120 1.268 1_565 S
C114 O130 1.268 . S
C115 O121 1.268 . S
C115 O129 1.268 . S
C116 O122 1.268 . S
C116 O131 1.268 . S
C117 O123 1.268 . S
C117 O127 1.268 . S
C118 O124 1.268 . S
C118 O126 1.268 . S
C119 O125 1.268 . S
C119 O128 1.268 1_545 S
O120 Sc110 2.105 . S
O120 C114 1.268 1_545 S
O121 Sc111 2.105 . S
O121 C115 1.268 . S
O122 Sc112 2.105 1_545 S
O122 C116 1.268 . S
O123 Sc110 2.105 . S
O123 C117 1.268 . S
O124 Sc112 2.105 . S
O124 C118 1.268 . S
O125 Sc111 2.105 . S
O125 C119 1.268 . S
O126 Sc110 2.105 1_565 S
O126 C118 1.268 . S
O127 Sc111 2.105 . S
O127 C117 1.268 . S
O128 Sc112 2.105 . S
O128 C119 1.268 1_565 S
O129 Sc110 2.105 . S
O129 C115 1.268 . S
O130 Sc112 2.105 . S
O130 C114 1.268 . S
O131 Sc111 2.105 . S
O131 C116 1.268 . S
Sc132 O135 2.025 . S
Sc132 O142 2.105 . S
Sc132 O145 2.105 . S
Sc132 O148 2.105 . S
Sc132 O151 2.105 . S
Sc133 O135 2.025 . S
Sc133 O143 2.105 . S
Sc133 O147 2.105 . S
Sc133 O149 2.105 . S
Sc133 O153 2.105 . S
Sc134 O135 2.025 . S
Sc134 O144 2.105 . S
Sc134 O146 2.105 . S
Sc134 O150 2.105 . S
Sc134 O152 2.105 . S
O135 Sc132 2.025 . S
O135 Sc133 2.025 . S
O135 Sc134 2.025 . S
C136 O142 1.268 . S
C136 O152 1.268 . S
C137 O143 1.268 . S
C137 O151 1.268 . S
C138 O144 1.268 . S
C138 O153 1.268 . S
C139 O145 1.268 . S
C139 O149 1.268 . S
C140 O146 1.268 . S
C140 O148 1.268 . S
C141 O147 1.268 . S
C141 O150 1.268 . S
O142 Sc132 2.105 . S
O142 C136 1.268 . S
O143 Sc133 2.105 . S
O143 C137 1.268 . S
O144 Sc134 2.105 . S
O144 C138 1.268 . S
O145 Sc132 2.105 . S
O145 C139 1.268 . S
O146 Sc134 2.105 . S
O146 C140 1.268 . S
O147 Sc133 2.105 . S
O147 C141 1.268 . S
O148 Sc132 2.105 . S
O148 C140 1.268 . S
O149 Sc133 2.105 . S
O149 C139 1.268 . S
O150 Sc134 2.105 . S
O150 C141 1.268 . S
O151 Sc132 2.105 . S
O151 C137 1.268 . S
O152 Sc134 2.105 . S
O152 C136 1.268 . S
O153 Sc133 2.105 . S
O153 C138 1.268 . S
Sc154 O157 2.025 . S
Sc154 O164 2.105 . S
Sc154 O167 2.105 . S
Sc154 O170 2.105 . S
Sc154 O173 2.105 . S
Sc155 O157 2.025 . S
Sc155 O165 2.105 . S
Sc155 O169 2.105 . S
Sc155 O171 2.105 . S
Sc155 O175 2.105 . S
Sc156 O157 2.025 . S
Sc156 O166 2.105 . S
Sc156 O168 2.105 . S
Sc156 O172 2.105 . S
Sc156 O174 2.105 . S
O157 Sc154 2.025 . S
O157 Sc155 2.025 . S
O157 Sc156 2.025 . S
C158 O164 1.268 . S
C158 O174 1.268 . S
C159 O165 1.268 . S
C159 O173 1.268 . S
C160 O166 1.268 . S
C160 O175 1.268 . S
C161 O167 1.268 . S
C161 O171 1.268 . S
C162 O168 1.268 . S
C162 O170 1.268 . S
C163 O169 1.268 . S
C163 O172 1.268 . S
O164 Sc154 2.105 . S
O164 C158 1.268 . S
O165 Sc155 2.105 . S
O165 C159 1.268 . S
O166 Sc156 2.105 . S
O166 C160 1.268 . S
O167 Sc154 2.105 . S
O167 C161 1.268 . S
O168 Sc156 2.105 . S
O168 C162 1.268 . S
O169 Sc155 2.105 . S
O169 C163 1.268 . S
O170 Sc154 2.105 . S
O170 C162 1.268 . S
O171 Sc155 2.105 . S
O171 C161 1.268 . S
O172 Sc156 2.105 . S
O172 C163 1.268 . S
O173 Sc154 2.105 . S
O173 C159 1.268 . S
O174 Sc156 2.105 . S
O174 C158 1.268 . S
O175 Sc155 2.105 . S
O175 C160 1.268 . S
Sc176 O179 2.025 1_455 S
Sc176 O186 2.105 . S
Sc176 O189 2.105 . S
Sc176 O192 2.105 . S
Sc176 O195 2.105 1_455 S
Sc177 O179 2.025 . S
Sc177 O187 2.105 . S
Sc177 O191 2.105 . S
Sc177 O193 2.105 . S
Sc177 O197 2.105 . S
Sc178 O179 2.025 . S
Sc178 O188 2.105 . S
Sc178 O190 2.105 1_655 S
Sc178 O194 2.105 . S
Sc178 O196 2.105 . S
O179 Sc176 2.025 1_655 S
O179 Sc177 2.025 . S
O179 Sc178 2.025 . S
C180 O186 1.268 . S
C180 O196 1.268 1_455 S
C181 O187 1.268 . S
C181 O195 1.268 . S
C182 O188 1.268 . S
C182 O197 1.268 . S
C183 O189 1.268 1_655 S
C183 O193 1.268 . S
C184 O190 1.268 . S
C184 O192 1.268 . S
C185 O191 1.268 . S
C185 O194 1.268 . S
O186 Sc176 2.105 . S
O186 C180 1.268 . S
O187 Sc177 2.105 . S
O187 C181 1.268 . S
O188 Sc178 2.105 . S
O188 C182 1.268 . S
O189 Sc176 2.105 . S
O189 C183 1.268 1_455 S
O190 Sc178 2.105 1_455 S
O190 C184 1.268 . S
O191 Sc177 2.105 . S
O191 C185 1.268 . S
O192 Sc176 2.105 . S
O192 C184 1.268 . S
O193 Sc177 2.105 . S
O193 C183 1.268 . S
O194 Sc178 2.105 . S
O194 C185 1.268 . S
O195 Sc176 2.105 1_655 S
O195 C181 1.268 . S
O196 Sc178 2.105 . S
O196 C180 1.268 1_655 S
O197 Sc177 2.105 . S
O197 C182 1.268 . S
Sc198 O201 2.025 . S
Sc198 O208 2.105 1_565 S
Sc198 O211 2.105 . S
Sc198 O214 2.105 . S
Sc198 O217 2.105 . S
Sc199 O201 2.025 . S
Sc199 O209 2.105 . S
Sc199 O213 2.105 . S
Sc199 O215 2.105 . S
Sc199 O219 2.105 . S
Sc200 O201 2.025 1_545 S
Sc200 O210 2.105 . S
Sc200 O212 2.105 . S
Sc200 O216 2.105 1_545 S
Sc200 O218 2.105 . S
O201 Sc198 2.025 . S
O201 Sc199 2.025 . S
O201 Sc200 2.025 1_565 S
C202 O208 1.268 . S
C202 O218 1.268 . S
C203 O209 1.268 . S
C203 O217 1.268 . S
C204 O210 1.268 1_565 S
C204 O219 1.268 . S
C205 O211 1.268 . S
C205 O215 1.268 . S
C206 O212 1.268 . S
C206 O214 1.268 1_545 S
C207 O213 1.268 . S
C207 O216 1.268 . S
O208 Sc198 2.105 1_545 S
O208 C202 1.268 . S
O209 Sc199 2.105 . S
O209 C203 1.268 . S
O210 Sc200 2.105 . S
O210 C204 1.268 1_545 S
O211 Sc198 2.105 . S
O211 C205 1.268 . S
O212 Sc200 2.105 . S
O212 C206 1.268 . S
O213 Sc199 2.105 . S
O213 C207 1.268 . S
O214 Sc198 2.105 . S
O214 C206 1.268 1_565 S
O215 Sc199 2.105 . S
O215 C205 1.268 . S
O216 Sc200 2.105 1_565 S
O216 C207 1.268 . S
O217 Sc198 2.105 . S
O217 C203 1.268 . S
O218 Sc200 2.105 . S
O218 C202 1.268 . S
O219 Sc199 2.105 . S
O219 C204 1.268 . S
Sc220 O223 2.025 . S
Sc220 O230 2.105 . S
Sc220 O233 2.105 . S
Sc220 O236 2.105 . S
Sc220 O239 2.105 . S
Sc221 O223 2.025 . S
Sc221 O231 2.105 . S
Sc221 O235 2.105 . S
Sc221 O237 2.105 . S
Sc221 O241 2.105 . S
Sc222 O223 2.025 . S
Sc222 O232 2.105 . S
Sc222 O234 2.105 . S
Sc222 O238 2.105 . S
Sc222 O240 2.105 . S
O223 Sc220 2.025 . S
O223 Sc221 2.025 . S
O223 Sc222 2.025 . S
C224 O230 1.268 . S
C224 O240 1.268 . S
C225 O231 1.268 . S
C225 O239 1.268 . S
C226 O232 1.268 . S
C226 O241 1.268 . S
C227 O233 1.268 . S
C227 O237 1.268 . S
C228 O234 1.268 . S
C228 O236 1.268 . S
C229 O235 1.268 . S
C229 O238 1.268 . S
O230 Sc220 2.105 . S
O230 C224 1.268 . S
O231 Sc221 2.105 . S
O231 C225 1.268 . S
O232 Sc222 2.105 . S
O232 C226 1.268 . S
O233 Sc220 2.105 . S
O233 C227 1.268 . S
O234 Sc222 2.105 . S
O234 C228 1.268 . S
O235 Sc221 2.105 . S
O235 C229 1.268 . S
O236 Sc220 2.105 . S
O236 C228 1.268 . S
O237 Sc221 2.105 . S
O237 C227 1.268 . S
O238 Sc222 2.105 . S
O238 C229 1.268 . S
O239 Sc220 2.105 . S
O239 C225 1.268 . S
O240 Sc222 2.105 . S
O240 C224 1.268 . S
O241 Sc221 2.105 . S
O241 C226 1.268 . S
Sc242 O245 2.025 . S
Sc242 O252 2.105 . S
Sc242 O255 2.105 . S
Sc242 O258 2.105 . S
Sc242 O261 2.105 . S
Sc243 O245 2.025 . S
Sc243 O253 2.105 . S
Sc243 O257 2.105 . S
Sc243 O259 2.105 . S
Sc243 O263 2.105 . S
Sc244 O245 2.025 . S
Sc244 O254 2.105 . S
Sc244 O256 2.105 . S
Sc244 O260 2.105 . S
Sc244 O262 2.105 . S
O245 Sc242 2.025 . S
O245 Sc243 2.025 . S
O245 Sc244 2.025 . S
C246 O252 1.268 . S
C246 O262 1.268 . S
C247 O253 1.268 . S
C247 O261 1.268 . S
C248 O254 1.268 . S
C248 O263 1.268 . S
C249 O255 1.268 . S
C249 O259 1.268 . S
C250 O256 1.268 . S
C250 O258 1.268 . S
C251 O257 1.268 . S
C251 O260 1.268 . S
O252 Sc242 2.105 . S
O252 C246 1.268 . S
O253 Sc243 2.105 . S
O253 C247 1.268 . S
O254 Sc244 2.105 . S
O254 C248 1.268 . S
O255 Sc242 2.105 . S
O255 C249 1.268 . S
O256 Sc244 2.105 . S
O256 C250 1.268 . S
O257 Sc243 2.105 . S
O257 C251 1.268 . S
O258 Sc242 2.105 . S
O258 C250 1.268 . S
O259 Sc243 2.105 . S
O259 C249 1.268 . S
O260 Sc244 2.105 . S
O260 C251 1.268 . S
O261 Sc242 2.105 . S
O261 C247 1.268 . S
O262 Sc244 2.105 . S
O262 C246 1.268 . S
O263 Sc243 2.105 . S
O263 C248 1.268 . S
Sc264 O267 2.025 . S
Sc264 O274 2.105 1_655 S
Sc264 O277 2.105 . S
Sc264 O280 2.105 . S
Sc264 O283 2.105 . S
Sc265 O267 2.025 . S
Sc265 O275 2.105 . S
Sc265 O279 2.105 . S
Sc265 O281 2.105 . S
Sc265 O285 2.105 . S
Sc266 O267 2.025 1_455 S
Sc266 O276 2.105 . S
Sc266 O278 2.105 . S
Sc266 O282 2.105 1_455 S
Sc266 O284 2.105 . S
O267 Sc264 2.025 . S
O267 Sc265 2.025 . S
O267 Sc266 2.025 1_655 S
C268 O274 1.268 . S
C268 O284 1.268 . S
C269 O275 1.268 . S
C269 O283 1.268 . S
C270 O276 1.268 1_655 S
C270 O285 1.268 . S
C271 O277 1.268 . S
C271 O281 1.268 . S
C272 O278 1.268 . S
C272 O280 1.268 1_455 S
C273 O279 1.268 . S
C273 O282 1.268 . S
O274 Sc264 2.105 1_455 S
O274 C268 1.268 . S
O275 Sc265 2.105 . S
O275 C269 1.268 . S
O276 Sc266 2.105 . S
O276 C270 1.268 1_455 S
O277 Sc264 2.105 . S
O277 C271 1.268 . S
O278 Sc266 2.105 . S
O278 C272 1.268 . S
O279 Sc265 2.105 . S
O279 C273 1.268 . S
O280 Sc264 2.105 . S
O280 C272 1.268 1_655 S
O281 Sc265 2.105 . S
O281 C271 1.268 . S
O282 Sc266 2.105 1_655 S
O282 C273 1.268 . S
O283 Sc264 2.105 . S
O283 C269 1.268 . S
O284 Sc266 2.105 . S
O284 C268 1.268 . S
O285 Sc265 2.105 . S
O285 C270 1.268 . S
Sc286 O289 2.025 . S
Sc286 O296 2.105 1_565 S
Sc286 O299 2.105 . S
Sc286 O302 2.105 . S
Sc286 O305 2.105 . S
Sc287 O289 2.025 . S
Sc287 O297 2.105 . S
Sc287 O301 2.105 . S
Sc287 O303 2.105 . S
Sc287 O307 2.105 . S
Sc288 O289 2.025 1_545 S
Sc288 O298 2.105 . S
Sc288 O300 2.105 . S
Sc288 O304 2.105 1_545 S
Sc288 O306 2.105 . S
O289 Sc286 2.025 . S
O289 Sc287 2.025 . S
O289 Sc288 2.025 1_565 S
C290 O296 1.268 . S
C290 O306 1.268 . S
C291 O297 1.268 . S
C291 O305 1.268 . S
C292 O298 1.268 1_565 S
C292 O307 1.268 . S
C293 O299 1.268 . S
C293 O303 1.268 . S
C294 O300 1.268 . S
C294 O302 1.268 1_545 S
C295 O301 1.268 . S
C295 O304 1.268 . S
O296 Sc286 2.105 1_545 S
O296 C290 1.268 . S
O297 Sc287 2.105 . S
O297 C291 1.268 . S
O298 Sc288 2.105 . S
O298 C292 1.268 1_545 S
O299 Sc286 2.105 . S
O299 C293 1.268 . S
O300 Sc288 2.105 . S
O300 C294 1.268 . S
O301 Sc287 2.105 . S
O301 C295 1.268 . S
O302 Sc286 2.105 . S
O302 C294 1.268 1_565 S
O303 Sc287 2.105 . S
O303 C293 1.268 . S
O304 Sc288 2.105 1_565 S
O304 C295 1.268 . S
O305 Sc286 2.105 . S
O305 C291 1.268 . S
O306 Sc288 2.105 . S
O306 C290 1.268 . S
O307 Sc287 2.105 . S
O307 C292 1.268 . S
Sc308 O311 2.025 . S
Sc308 O318 2.105 . S
Sc308 O321 2.105 . S
Sc308 O324 2.105 . S
Sc308 O327 2.105 . S
Sc309 O311 2.025 . S
Sc309 O319 2.105 . S
Sc309 O323 2.105 . S
Sc309 O325 2.105 . S
Sc309 O329 2.105 . S
Sc310 O311 2.025 . S
Sc310 O320 2.105 . S
Sc310 O322 2.105 . S
Sc310 O326 2.105 . S
Sc310 O328 2.105 . S
O311 Sc308 2.025 . S
O311 Sc309 2.025 . S
O311 Sc310 2.025 . S
C312 O318 1.268 . S
C312 O328 1.268 . S
C313 O319 1.268 . S
C313 O327 1.268 . S
C314 O320 1.268 . S
C314 O329 1.268 . S
C315 O321 1.268 . S
C315 O325 1.268 . S
C316 O322 1.268 . S
C316 O324 1.268 . S
C317 O323 1.268 . S
C317 O326 1.268 . S
O318 Sc308 2.105 . S
O318 C312 1.268 . S
O319 Sc309 2.105 . S
O319 C313 1.268 . S
O320 Sc310 2.105 . S
O320 C314 1.268 . S
O321 Sc308 2.105 . S
O321 C315 1.268 . S
O322 Sc310 2.105 . S
O322 C316 1.268 . S
O323 Sc309 2.105 . S
O323 C317 1.268 . S
O324 Sc308 2.105 . S
O324 C316 1.268 . S
O325 Sc309 2.105 . S
O325 C315 1.268 . S
O326 Sc310 2.105 . S
O326 C317 1.268 . S
O327 Sc308 2.105 . S
O327 C313 1.268 . S
O328 Sc310 2.105 . S
O328 C312 1.268 . S
O329 Sc309 2.105 . S
O329 C314 1.268 . S
Sc330 O333 2.025 . S
Sc330 O340 2.105 . S
Sc330 O343 2.105 . S
Sc330 O346 2.105 . S
Sc330 O349 2.105 . S
Sc331 O333 2.025 . S
Sc331 O341 2.105 . S
Sc331 O345 2.105 . S
Sc331 O347 2.105 . S
Sc331 O351 2.105 . S
Sc332 O333 2.025 . S
Sc332 O342 2.105 . S
Sc332 O344 2.105 . S
Sc332 O348 2.105 . S
Sc332 O350 2.105 . S
O333 Sc330 2.025 . S
O333 Sc331 2.025 . S
O333 Sc332 2.025 . S
C334 O340 1.268 . S
C334 O350 1.268 . S
C335 O341 1.268 . S
C335 O349 1.268 . S
C336 O342 1.268 . S
C336 O351 1.268 . S
C337 O343 1.268 . S
C337 O347 1.268 . S
C338 O344 1.268 . S
C338 O346 1.268 . S
C339 O345 1.268 . S
C339 O348 1.268 . S
O340 Sc330 2.105 . S
O340 C334 1.268 . S
O341 Sc331 2.105 . S
O341 C335 1.268 . S
O342 Sc332 2.105 . S
O342 C336 1.268 . S
O343 Sc330 2.105 . S
O343 C337 1.268 . S
O344 Sc332 2.105 . S
O344 C338 1.268 . S
O345 Sc331 2.105 . S
O345 C339 1.268 . S
O346 Sc330 2.105 . S
O346 C338 1.268 . S
O347 Sc331 2.105 . S
O347 C337 1.268 . S
O348 Sc332 2.105 . S
O348 C339 1.268 . S
O349 Sc330 2.105 . S
O349 C335 1.268 . S
O350 Sc332 2.105 . S
O350 C334 1.268 . S
O351 Sc331 2.105 . S
O351 C336 1.268 . S
H352 C358 0.930 . S
H353 C361 0.930 . S
H354 C362 0.930 . S
H355 C363 0.930 . S
H356 C366 0.930 . S
H357 C367 0.930 . S
C358 H352 0.930 . S
C358 C359 1.355 . S
C358 C360 1.415 . S
C359 C358 1.355 . S
C359 C361 1.419 . S
C360 C358 1.415 . S
C360 C365 1.425 . S
C360 C367 1.409 . S
C361 H353 0.930 . S
C361 C359 1.419 . S
C361 C362 1.362 . S
C362 H354 0.930 . S
C362 C361 1.362 . S
C362 C365 1.409 . S
C363 H355 0.930 . S
C363 C364 1.355 . S
C363 C365 1.415 . S
C364 C363 1.355 . S
C364 C366 1.419 . S
C365 C360 1.425 . S
C365 C362 1.409 . S
C365 C363 1.415 . S
C366 H356 0.930 . S
C366 C364 1.419 . S
C366 C367 1.362 . S
C367 H357 0.930 . S
C367 C360 1.409 . S
C367 C366 1.362 . S
H368 C374 0.930 . S
H369 C377 0.930 . S
H370 C378 0.930 . S
H371 C379 0.930 . S
H372 C382 0.930 . S
H373 C383 0.930 . S
C374 H368 0.930 . S
C374 C375 1.355 . S
C374 C376 1.415 . S
C375 C374 1.355 . S
C375 C377 1.419 . S
C376 C374 1.415 . S
C376 C381 1.425 . S
C376 C383 1.409 . S
C377 H369 0.930 . S
C377 C375 1.419 . S
C377 C378 1.362 . S
C378 H370 0.930 . S
C378 C377 1.362 . S
C378 C381 1.409 . S
C379 H371 0.930 . S
C379 C380 1.355 . S
C379 C381 1.415 . S
C380 C379 1.355 . S
C380 C382 1.419 . S
C381 C376 1.425 . S
C381 C378 1.409 . S
C381 C379 1.415 . S
C382 H372 0.930 . S
C382 C380 1.419 . S
C382 C383 1.362 . S
C383 H373 0.930 . S
C383 C376 1.409 . S
C383 C382 1.362 . S
H384 C390 0.930 . S
H385 C393 0.930 . S
H386 C394 0.930 . S
H387 C395 0.930 1_545 S
H388 C398 0.930 . S
H389 C399 0.930 . S
C390 H384 0.930 . S
C390 C391 1.355 . S
C390 C392 1.415 . S
C391 C390 1.355 . S
C391 C393 1.419 . S
C392 C390 1.415 . S
C392 C397 1.425 . S
C392 C399 1.409 . S
C393 H385 0.930 . S
C393 C391 1.419 . S
C393 C394 1.362 . S
C394 H386 0.930 . S
C394 C393 1.362 . S
C394 C397 1.409 . S
C395 H387 0.930 1_565 S
C395 C396 1.355 . S
C395 C397 1.415 . S
C396 C395 1.355 . S
C396 C398 1.419 . S
C397 C392 1.425 . S
C397 C394 1.409 . S
C397 C395 1.415 . S
C398 H388 0.930 . S
C398 C396 1.419 . S
C398 C399 1.362 . S
C399 H389 0.930 . S
C399 C392 1.409 . S
C399 C398 1.362 . S
H400 C406 0.930 . S
H401 C409 0.930 . S
H402 C410 0.930 . S
H403 C411 0.930 . S
H404 C414 0.930 . S
H405 C415 0.930 . S
C406 H400 0.930 . S
C406 C407 1.355 . S
C406 C408 1.415 . S
C407 C406 1.355 . S
C407 C409 1.419 . S
C408 C406 1.415 . S
C408 C413 1.425 . S
C408 C415 1.409 . S
C409 H401 0.930 . S
C409 C407 1.419 . S
C409 C410 1.362 . S
C410 H402 0.930 . S
C410 C409 1.362 . S
C410 C413 1.409 . S
C411 H403 0.930 . S
C411 C412 1.355 . S
C411 C413 1.415 . S
C412 C411 1.355 . S
C412 C414 1.419 . S
C413 C408 1.425 . S
C413 C410 1.409 . S
C413 C411 1.415 . S
C414 H404 0.930 . S
C414 C412 1.419 . S
C414 C415 1.362 . S
C415 H405 0.930 . S
C415 C408 1.409 . S
C415 C414 1.362 . S
H416 C422 0.930 . S
H417 C425 0.930 . S
H418 C426 0.930 . S
H419 C427 0.930 1_545 S
H420 C430 0.930 . S
H421 C431 0.930 . S
C422 H416 0.930 . S
C422 C423 1.355 . S
C422 C424 1.415 . S
C423 C422 1.355 . S
C423 C425 1.419 . S
C424 C422 1.415 . S
C424 C429 1.425 . S
C424 C431 1.409 . S
C425 H417 0.930 . S
C425 C423 1.419 . S
C425 C426 1.362 . S
C426 H418 0.930 . S
C426 C425 1.362 . S
C426 C429 1.409 . S
C427 H419 0.930 1_565 S
C427 C428 1.355 . S
C427 C429 1.415 . S
C428 C427 1.355 . S
C428 C430 1.419 . S
C429 C424 1.425 . S
C429 C426 1.409 . S
C429 C427 1.415 . S
C430 H420 0.930 . S
C430 C428 1.419 . S
C430 C431 1.362 . S
C431 H421 0.930 . S
C431 C424 1.409 . S
C431 C430 1.362 . S
H432 C438 0.930 . S
H433 C441 0.930 . S
H434 C442 0.930 . S
H435 C443 0.930 . S
H436 C446 0.930 . S
H437 C447 0.930 . S
C438 H432 0.930 . S
C438 C439 1.355 . S
C438 C440 1.415 . S
C439 C438 1.355 . S
C439 C441 1.419 . S
C440 C438 1.415 . S
C440 C445 1.425 . S
C440 C447 1.409 . S
C441 H433 0.930 . S
C441 C439 1.419 . S
C441 C442 1.362 . S
C442 H434 0.930 . S
C442 C441 1.362 . S
C442 C445 1.409 . S
C443 H435 0.930 . S
C443 C444 1.355 . S
C443 C445 1.415 . S
C444 C443 1.355 . S
C444 C446 1.419 . S
C445 C440 1.425 . S
C445 C442 1.409 . S
C445 C443 1.415 . S
C446 H436 0.930 . S
C446 C444 1.419 . S
C446 C447 1.362 . S
C447 H437 0.930 . S
C447 C440 1.409 . S
C447 C446 1.362 . S
H448 C454 0.930 . S
H449 C457 0.930 . S
H450 C458 0.930 . S
H451 C459 0.930 . S
H452 C462 0.930 . S
H453 C463 0.930 . S
C454 H448 0.930 . S
C454 C455 1.355 . S
C454 C456 1.415 . S
C455 C454 1.355 . S
C455 C457 1.419 . S
C456 C454 1.415 . S
C456 C461 1.425 . S
C456 C463 1.409 . S
C457 H449 0.930 . S
C457 C455 1.419 . S
C457 C458 1.362 . S
C458 H450 0.930 . S
C458 C457 1.362 . S
C458 C461 1.409 . S
C459 H451 0.930 . S
C459 C460 1.355 . S
C459 C461 1.415 . S
C460 C459 1.355 . S
C460 C462 1.419 . S
C461 C456 1.425 . S
C461 C458 1.409 . S
C461 C459 1.415 . S
C462 H452 0.930 . S
C462 C460 1.419 . S
C462 C463 1.362 . S
C463 H453 0.930 . S
C463 C456 1.409 . S
C463 C462 1.362 . S
H464 C470 0.930 . S
H465 C473 0.930 . S
H466 C474 0.930 . S
H467 C475 0.930 . S
H468 C478 0.930 . S
H469 C479 0.930 . S
C470 H464 0.930 . S
C470 C471 1.355 . S
C470 C472 1.415 . S
C471 C470 1.355 . S
C471 C473 1.419 . S
C472 C470 1.415 . S
C472 C477 1.425 . S
C472 C479 1.409 . S
C473 H465 0.930 . S
C473 C471 1.419 . S
C473 C474 1.362 . S
C474 H466 0.930 . S
C474 C473 1.362 . S
C474 C477 1.409 . S
C475 H467 0.930 . S
C475 C476 1.355 . S
C475 C477 1.415 . S
C476 C475 1.355 . S
C476 C478 1.419 . S
C477 C472 1.425 . S
C477 C474 1.409 . S
C477 C475 1.415 . S
C478 H468 0.930 . S
C478 C476 1.419 . S
C478 C479 1.362 . S
C479 H469 0.930 . S
C479 C472 1.409 . S
C479 C478 1.362 . S
H480 C486 0.930 . S
H481 C489 0.930 . S
H482 C490 0.930 . S
H483 C491 0.930 . S
H484 C494 0.930 . S
H485 C495 0.930 . S
C486 H480 0.930 . S
C486 C487 1.355 . S
C486 C488 1.415 . S
C487 C486 1.355 . S
C487 C489 1.419 . S
C488 C486 1.415 . S
C488 C493 1.425 . S
C488 C495 1.409 . S
C489 H481 0.930 . S
C489 C487 1.419 . S
C489 C490 1.362 . S
C490 H482 0.930 . S
C490 C489 1.362 . S
C490 C493 1.409 . S
C491 H483 0.930 . S
C491 C492 1.355 . S
C491 C493 1.415 . S
C492 C491 1.355 . S
C492 C494 1.419 . S
C493 C488 1.425 . S
C493 C490 1.409 . S
C493 C491 1.415 . S
C494 H484 0.930 . S
C494 C492 1.419 . S
C494 C495 1.362 . S
C495 H485 0.930 . S
C495 C488 1.409 . S
C495 C494 1.362 . S
H496 C502 0.930 . S
H497 C505 0.930 . S
H498 C506 0.930 . S
H499 C507 0.930 . S
H500 C510 0.930 . S
H501 C511 0.930 . S
C502 H496 0.930 . S
C502 C503 1.355 . S
C502 C504 1.415 . S
C503 C502 1.355 . S
C503 C505 1.419 . S
C504 C502 1.415 . S
C504 C509 1.425 . S
C504 C511 1.409 . S
C505 H497 0.930 . S
C505 C503 1.419 . S
C505 C506 1.362 . S
C506 H498 0.930 . S
C506 C505 1.362 . S
C506 C509 1.409 . S
C507 H499 0.930 . S
C507 C508 1.355 . S
C507 C509 1.415 . S
C508 C507 1.355 . S
C508 C510 1.419 . S
C509 C504 1.425 . S
C509 C506 1.409 . S
C509 C507 1.415 . S
C510 H500 0.930 . S
C510 C508 1.419 . S
C510 C511 1.362 . S
C511 H501 0.930 . S
C511 C504 1.409 . S
C511 C510 1.362 . S
H512 C518 0.930 . S
H513 C521 0.930 . S
H514 C522 0.930 1_565 S
H515 C523 0.930 . S
H516 C526 0.930 . S
H517 C527 0.930 . S
C518 H512 0.930 . S
C518 C519 1.355 . S
C518 C520 1.415 . S
C519 C518 1.355 . S
C519 C521 1.419 1_545 S
C520 C518 1.415 . S
C520 C525 1.425 . S
C520 C527 1.409 . S
C521 H513 0.930 . S
C521 C519 1.419 1_565 S
C521 C522 1.362 1_565 S
C522 H514 0.930 1_545 S
C522 C521 1.362 1_545 S
C522 C525 1.409 . S
C523 H515 0.930 . S
C523 C524 1.355 . S
C523 C525 1.415 . S
C524 C523 1.355 . S
C524 C526 1.419 . S
C525 C520 1.425 . S
C525 C522 1.409 . S
C525 C523 1.415 . S
C526 H516 0.930 . S
C526 C524 1.419 . S
C526 C527 1.362 . S
C527 H517 0.930 . S
C527 C520 1.409 . S
C527 C526 1.362 . S
H528 C534 0.930 . S
H529 C537 0.930 . S
H530 C538 0.930 . S
H531 C539 0.930 . S
H532 C542 0.930 . S
H533 C543 0.930 . S
C534 H528 0.930 . S
C534 C535 1.355 . S
C534 C536 1.415 . S
C535 C534 1.355 . S
C535 C537 1.419 . S
C536 C534 1.415 . S
C536 C541 1.425 . S
C536 C543 1.409 . S
C537 H529 0.930 . S
C537 C535 1.419 . S
C537 C538 1.362 . S
C538 H530 0.930 . S
C538 C537 1.362 . S
C538 C541 1.409 . S
C539 H531 0.930 . S
C539 C540 1.355 . S
C539 C541 1.415 . S
C540 C539 1.355 . S
C540 C542 1.419 . S
C541 C536 1.425 . S
C541 C538 1.409 . S
C541 C539 1.415 . S
C542 H532 0.930 . S
C542 C540 1.419 . S
C542 C543 1.362 . S
C543 H533 0.930 . S
C543 C536 1.409 . S
C543 C542 1.362 . S
H544 C550 0.930 . S
H545 C553 0.930 . S
H546 C554 0.930 . S
H547 C555 0.930 . S
H548 C558 0.930 1_565 S
H549 C559 0.930 . S
C550 H544 0.930 . S
C550 C551 1.355 . S
C550 C552 1.415 . S
C551 C550 1.355 . S
C551 C553 1.419 . S
C552 C550 1.415 . S
C552 C557 1.425 . S
C552 C559 1.409 . S
C553 H545 0.930 . S
C553 C551 1.419 . S
C553 C554 1.362 . S
C554 H546 0.930 . S
C554 C553 1.362 . S
C554 C557 1.409 . S
C555 H547 0.930 . S
C555 C556 1.355 . S
C555 C557 1.415 . S
C556 C555 1.355 . S
C556 C558 1.419 . S
C557 C552 1.425 . S
C557 C554 1.409 . S
C557 C555 1.415 . S
C558 H548 0.930 1_545 S
C558 C556 1.419 . S
C558 C559 1.362 . S
C559 H549 0.930 . S
C559 C552 1.409 . S
C559 C558 1.362 . S
H560 C566 0.930 . S
H561 C569 0.930 . S
H562 C570 0.930 . S
H563 C571 0.930 . S
H564 C574 0.930 . S
H565 C575 0.930 . S
C566 H560 0.930 . S
C566 C567 1.355 . S
C566 C568 1.415 . S
C567 C566 1.355 . S
C567 C569 1.419 . S
C568 C566 1.415 . S
C568 C573 1.425 . S
C568 C575 1.409 . S
C569 H561 0.930 . S
C569 C567 1.419 . S
C569 C570 1.362 . S
C570 H562 0.930 . S
C570 C569 1.362 . S
C570 C573 1.409 . S
C571 H563 0.930 . S
C571 C572 1.355 . S
C571 C573 1.415 . S
C572 C571 1.355 . S
C572 C574 1.419 . S
C573 C568 1.425 . S
C573 C570 1.409 . S
C573 C571 1.415 . S
C574 H564 0.930 . S
C574 C572 1.419 . S
C574 C575 1.362 . S
C575 H565 0.930 . S
C575 C568 1.409 . S
C575 C574 1.362 . S
H576 C582 0.930 . S
H577 C585 0.930 . S
H578 C586 0.930 . S
H579 C587 0.930 . S
H580 C590 0.930 . S
H581 C591 0.930 . S
C582 H576 0.930 . S
C582 C583 1.355 . S
C582 C584 1.415 . S
C583 C582 1.355 . S
C583 C585 1.419 . S
C584 C582 1.415 . S
C584 C589 1.425 . S
C584 C591 1.409 . S
C585 H577 0.930 . S
C585 C583 1.419 . S
C585 C586 1.362 . S
C586 H578 0.930 . S
C586 C585 1.362 . S
C586 C589 1.409 . S
C587 H579 0.930 . S
C587 C588 1.355 . S
C587 C589 1.415 . S
C588 C587 1.355 . S
C588 C590 1.419 . S
C589 C584 1.425 . S
C589 C586 1.409 . S
C589 C587 1.415 . S
C590 H580 0.930 . S
C590 C588 1.419 . S
C590 C591 1.362 . S
C591 H581 0.930 . S
C591 C584 1.409 . S
C591 C590 1.362 . S
H592 C598 0.930 . S
H593 C601 0.930 . S
H594 C602 0.930 . S
H595 C603 0.930 . S
H596 C606 0.930 . S
H597 C607 0.930 1_655 S
C598 H592 0.930 . S
C598 C599 1.355 . S
C598 C600 1.415 . S
C599 C598 1.355 . S
C599 C601 1.419 . S
C600 C598 1.415 . S
C600 C605 1.425 . S
C600 C607 1.409 . S
C601 H593 0.930 . S
C601 C599 1.419 . S
C601 C602 1.362 . S
C602 H594 0.930 . S
C602 C601 1.362 . S
C602 C605 1.409 . S
C603 H595 0.930 . S
C603 C604 1.355 . S
C603 C605 1.415 . S
C604 C603 1.355 . S
C604 C606 1.419 1_455 S
C605 C600 1.425 . S
C605 C602 1.409 . S
C605 C603 1.415 . S
C606 H596 0.930 . S
C606 C604 1.419 1_655 S
C606 C607 1.362 1_655 S
C607 H597 0.930 1_455 S
C607 C600 1.409 . S
C607 C606 1.362 1_455 S
H608 C614 0.930 . S
H609 C617 0.930 . S
H610 C618 0.930 . S
H611 C619 0.930 . S
H612 C622 0.930 . S
H613 C623 0.930 . S
C614 H608 0.930 . S
C614 C615 1.355 . S
C614 C616 1.415 . S
C615 C614 1.355 . S
C615 C617 1.419 . S
C616 C614 1.415 . S
C616 C621 1.425 . S
C616 C623 1.409 . S
C617 H609 0.930 . S
C617 C615 1.419 . S
C617 C618 1.362 . S
C618 H610 0.930 . S
C618 C617 1.362 . S
C618 C621 1.409 . S
C619 H611 0.930 . S
C619 C620 1.355 . S
C619 C621 1.415 . S
C620 C619 1.355 . S
C620 C622 1.419 . S
C621 C616 1.425 . S
C621 C618 1.409 . S
C621 C619 1.415 . S
C622 H612 0.930 . S
C622 C620 1.419 . S
C622 C623 1.362 . S
C623 H613 0.930 . S
C623 C616 1.409 . S
C623 C622 1.362 . S
H624 C630 0.930 . S
H625 C633 0.930 . S
H626 C634 0.930 . S
H627 C635 0.930 . S
H628 C638 0.930 . S
H629 C639 0.930 . S
C630 H624 0.930 . S
C630 C631 1.355 . S
C630 C632 1.415 . S
C631 C630 1.355 . S
C631 C633 1.419 . S
C632 C630 1.415 . S
C632 C637 1.425 . S
C632 C639 1.409 . S
C633 H625 0.930 . S
C633 C631 1.419 . S
C633 C634 1.362 . S
C634 H626 0.930 . S
C634 C633 1.362 . S
C634 C637 1.409 . S
C635 H627 0.930 . S
C635 C636 1.355 . S
C635 C637 1.415 . S
C636 C635 1.355 . S
C636 C638 1.419 . S
C637 C632 1.425 . S
C637 C634 1.409 . S
C637 C635 1.415 . S
C638 H628 0.930 . S
C638 C636 1.419 . S
C638 C639 1.362 . S
C639 H629 0.930 . S
C639 C632 1.409 . S
C639 C638 1.362 . S
H640 C646 0.930 . S
H641 C649 0.930 . S
H642 C650 0.930 . S
H643 C651 0.930 . S
H644 C654 0.930 . S
H645 C655 0.930 . S
C646 H640 0.930 . S
C646 C647 1.355 . S
C646 C648 1.415 . S
C647 C646 1.355 . S
C647 C649 1.419 . S
C648 C646 1.415 . S
C648 C653 1.425 . S
C648 C655 1.409 . S
C649 H641 0.930 . S
C649 C647 1.419 . S
C649 C650 1.362 . S
C650 H642 0.930 . S
C650 C649 1.362 . S
C650 C653 1.409 . S
C651 H643 0.930 . S
C651 C652 1.355 . S
C651 C653 1.415 . S
C652 C651 1.355 . S
C652 C654 1.419 . S
C653 C648 1.425 . S
C653 C650 1.409 . S
C653 C651 1.415 . S
C654 H644 0.930 . S
C654 C652 1.419 . S
C654 C655 1.362 . S
C655 H645 0.930 . S
C655 C648 1.409 . S
C655 C654 1.362 . S
H656 C662 0.930 . S
H657 C665 0.930 . S
H658 C666 0.930 . S
H659 C667 0.930 . S
H660 C670 0.930 . S
H661 C671 0.930 . S
C662 H656 0.930 . S
C662 C663 1.355 . S
C662 C664 1.415 . S
C663 C662 1.355 . S
C663 C665 1.419 . S
C664 C662 1.415 . S
C664 C669 1.425 . S
C664 C671 1.409 . S
C665 H657 0.930 . S
C665 C663 1.419 . S
C665 C666 1.362 . S
C666 H658 0.930 . S
C666 C665 1.362 . S
C666 C669 1.409 . S
C667 H659 0.930 . S
C667 C668 1.355 . S
C667 C669 1.415 . S
C668 C667 1.355 . S
C668 C670 1.419 . S
C669 C664 1.425 . S
C669 C666 1.409 . S
C669 C667 1.415 . S
C670 H660 0.930 . S
C670 C668 1.419 . S
C670 C671 1.362 . S
C671 H661 0.930 . S
C671 C664 1.409 . S
C671 C670 1.362 . S
H672 C678 0.930 . S
H673 C681 0.930 . S
H674 C682 0.930 . S
H675 C683 0.930 . S
H676 C686 0.930 . S
H677 C687 0.930 . S
C678 H672 0.930 . S
C678 C679 1.355 . S
C678 C680 1.415 . S
C679 C678 1.355 . S
C679 C681 1.419 . S
C680 C678 1.415 . S
C680 C685 1.425 . S
C680 C687 1.409 . S
C681 H673 0.930 . S
C681 C679 1.419 . S
C681 C682 1.362 . S
C682 H674 0.930 . S
C682 C681 1.362 . S
C682 C685 1.409 . S
C683 H675 0.930 . S
C683 C684 1.355 . S
C683 C685 1.415 . S
C684 C683 1.355 . S
C684 C686 1.419 . S
C685 C680 1.425 . S
C685 C682 1.409 . S
C685 C683 1.415 . S
C686 H676 0.930 . S
C686 C684 1.419 . S
C686 C687 1.362 . S
C687 H677 0.930 . S
C687 C680 1.409 . S
C687 C686 1.362 . S
H688 C694 0.930 . S
H689 C697 0.930 . S
H690 C698 0.930 . S
H691 C699 0.930 . S
H692 C702 0.930 . S
H693 C703 0.930 1_545 S
C694 H688 0.930 . S
C694 C695 1.355 . S
C694 C696 1.415 . S
C695 C694 1.355 . S
C695 C697 1.419 . S
C696 C694 1.415 . S
C696 C701 1.425 . S
C696 C703 1.409 . S
C697 H689 0.930 . S
C697 C695 1.419 . S
C697 C698 1.362 . S
C698 H690 0.930 . S
C698 C697 1.362 . S
C698 C701 1.409 . S
C699 H691 0.930 . S
C699 C700 1.355 . S
C699 C701 1.415 . S
C700 C699 1.355 . S
C700 C702 1.419 . S
C701 C696 1.425 . S
C701 C698 1.409 . S
C701 C699 1.415 . S
C702 H692 0.930 . S
C702 C700 1.419 . S
C702 C703 1.362 . S
C703 H693 0.930 1_565 S
C703 C696 1.409 . S
C703 C702 1.362 . S
H704 C710 0.930 . S
H705 C713 0.930 . S
H706 C714 0.930 . S
H707 C715 0.930 . S
H708 C718 0.930 . S
H709 C719 0.930 . S
C710 H704 0.930 . S
C710 C711 1.355 . S
C710 C712 1.415 . S
C711 C710 1.355 . S
C711 C713 1.419 . S
C712 C710 1.415 . S
C712 C717 1.425 . S
C712 C719 1.409 . S
C713 H705 0.930 . S
C713 C711 1.419 . S
C713 C714 1.362 . S
C714 H706 0.930 . S
C714 C713 1.362 . S
C714 C717 1.409 . S
C715 H707 0.930 . S
C715 C716 1.355 . S
C715 C717 1.415 . S
C716 C715 1.355 . S
C716 C718 1.419 . S
C717 C712 1.425 . S
C717 C714 1.409 . S
C717 C715 1.415 . S
C718 H708 0.930 . S
C718 C716 1.419 . S
C718 C719 1.362 . S
C719 H709 0.930 . S
C719 C712 1.409 . S
C719 C718 1.362 . S
H720 C726 0.930 . S
H721 C729 0.930 . S
H722 C730 0.930 . S
H723 C731 0.930 . S
H724 C734 0.930 . S
H725 C735 0.930 . S
C726 H720 0.930 . S
C726 C727 1.355 . S
C726 C728 1.415 . S
C727 C726 1.355 . S
C727 C729 1.419 . S
C728 C726 1.415 . S
C728 C733 1.425 . S
C728 C735 1.409 . S
C729 H721 0.930 . S
C729 C727 1.419 . S
C729 C730 1.362 . S
C730 H722 0.930 . S
C730 C729 1.362 . S
C730 C733 1.409 . S
C731 H723 0.930 . S
C731 C732 1.355 . S
C731 C733 1.415 . S
C732 C731 1.355 . S
C732 C734 1.419 . S
C733 C728 1.425 . S
C733 C730 1.409 . S
C733 C731 1.415 . S
C734 H724 0.930 . S
C734 C732 1.419 . S
C734 C735 1.362 . S
C735 H725 0.930 . S
C735 C728 1.409 . S
C735 C734 1.362 . S
H736 C742 0.930 . S
H737 C745 0.930 . S
H738 C746 0.930 . S
H739 C747 0.930 . S
H740 C750 0.930 . S
H741 C751 0.930 . S
C742 H736 0.930 . S
C742 C743 1.355 . S
C742 C744 1.415 . S
C743 C742 1.355 . S
C743 C745 1.419 . S
C744 C742 1.415 . S
C744 C749 1.425 . S
C744 C751 1.409 . S
C745 H737 0.930 . S
C745 C743 1.419 . S
C745 C746 1.362 . S
C746 H738 0.930 . S
C746 C745 1.362 . S
C746 C749 1.409 . S
C747 H739 0.930 . S
C747 C748 1.355 . S
C747 C749 1.415 . S
C748 C747 1.355 . S
C748 C750 1.419 . S
C749 C744 1.425 . S
C749 C746 1.409 . S
C749 C747 1.415 . S
C750 H740 0.930 . S
C750 C748 1.419 . S
C750 C751 1.362 . S
C751 H741 0.930 . S
C751 C744 1.409 . S
C751 C750 1.362 . S
H752 C758 0.930 . S
H753 C761 0.930 . S
H754 C762 0.930 . S
H755 C763 0.930 . S
H756 C766 0.930 . S
H757 C767 0.930 . S
C758 H752 0.930 . S
C758 C759 1.355 . S
C758 C760 1.415 . S
C759 C758 1.355 . S
C759 C761 1.419 . S
C760 C758 1.415 . S
C760 C765 1.425 . S
C760 C767 1.409 . S
C761 H753 0.930 . S
C761 C759 1.419 . S
C761 C762 1.362 . S
C762 H754 0.930 . S
C762 C761 1.362 . S
C762 C765 1.409 . S
C763 H755 0.930 . S
C763 C764 1.355 . S
C763 C765 1.415 . S
C764 C763 1.355 . S
C764 C766 1.419 . S
C765 C760 1.425 . S
C765 C762 1.409 . S
C765 C763 1.415 . S
C766 H756 0.930 . S
C766 C764 1.419 . S
C766 C767 1.362 . S
C767 H757 0.930 . S
C767 C760 1.409 . S
C767 C766 1.362 . S
H768 C774 0.930 . S
H769 C777 0.930 . S
H770 C778 0.930 . S
H771 C779 0.930 . S
H772 C782 0.930 . S
H773 C783 0.930 . S
C774 H768 0.930 . S
C774 C775 1.355 . S
C774 C776 1.415 . S
C775 C774 1.355 . S
C775 C777 1.419 . S
C776 C774 1.415 . S
C776 C781 1.425 . S
C776 C783 1.409 . S
C777 H769 0.930 . S
C777 C775 1.419 . S
C777 C778 1.362 . S
C778 H770 0.930 . S
C778 C777 1.362 . S
C778 C781 1.409 . S
C779 H771 0.930 . S
C779 C780 1.355 . S
C779 C781 1.415 . S
C780 C779 1.355 . S
C780 C782 1.419 . S
C781 C776 1.425 . S
C781 C778 1.409 . S
C781 C779 1.415 . S
C782 H772 0.930 . S
C782 C780 1.419 . S
C782 C783 1.362 . S
C783 H773 0.930 . S
C783 C776 1.409 . S
C783 C782 1.362 . S
H784 C790 0.930 . S
H785 C793 0.930 . S
H786 C794 0.930 . S
H787 C795 0.930 . S
H788 C798 0.930 . S
H789 C799 0.930 . S
C790 H784 0.930 . S
C790 C791 1.355 . S
C790 C792 1.415 . S
C791 C790 1.355 . S
C791 C793 1.419 . S
C792 C790 1.415 . S
C792 C797 1.425 . S
C792 C799 1.409 . S
C793 H785 0.930 . S
C793 C791 1.419 . S
C793 C794 1.362 . S
C794 H786 0.930 . S
C794 C793 1.362 . S
C794 C797 1.409 . S
C795 H787 0.930 . S
C795 C796 1.355 . S
C795 C797 1.415 . S
C796 C795 1.355 . S
C796 C798 1.419 . S
C797 C792 1.425 . S
C797 C794 1.409 . S
C797 C795 1.415 . S
C798 H788 0.930 . S
C798 C796 1.419 . S
C798 C799 1.362 . S
C799 H789 0.930 . S
C799 C792 1.409 . S
C799 C798 1.362 . S
H800 C806 0.930 . S
H801 C809 0.930 . S
H802 C810 0.930 . S
H803 C811 0.930 . S
H804 C814 0.930 . S
H805 C815 0.930 . S
C806 H800 0.930 . S
C806 C807 1.355 . S
C806 C808 1.415 . S
C807 C806 1.355 . S
C807 C809 1.419 . S
C808 C806 1.415 . S
C808 C813 1.425 . S
C808 C815 1.409 . S
C809 H801 0.930 . S
C809 C807 1.419 . S
C809 C810 1.362 . S
C810 H802 0.930 . S
C810 C809 1.362 . S
C810 C813 1.409 . S
C811 H803 0.930 . S
C811 C812 1.355 . S
C811 C813 1.415 . S
C812 C811 1.355 . S
C812 C814 1.419 . S
C813 C808 1.425 . S
C813 C810 1.409 . S
C813 C811 1.415 . S
C814 H804 0.930 . S
C814 C812 1.419 . S
C814 C815 1.362 . S
C815 H805 0.930 . S
C815 C808 1.409 . S
C815 C814 1.362 . S
H816 C822 0.930 . S
H817 C825 0.930 . S
H818 C826 0.930 . S
H819 C827 0.930 . S
H820 C830 0.930 . S
H821 C831 0.930 . S
C822 H816 0.930 . S
C822 C823 1.355 . S
C822 C824 1.415 . S
C823 C822 1.355 . S
C823 C825 1.419 . S
C824 C822 1.415 . S
C824 C829 1.425 . S
C824 C831 1.409 . S
C825 H817 0.930 . S
C825 C823 1.419 . S
C825 C826 1.362 . S
C826 H818 0.930 . S
C826 C825 1.362 . S
C826 C829 1.409 . S
C827 H819 0.930 . S
C827 C828 1.355 . S
C827 C829 1.415 . S
C828 C827 1.355 . S
C828 C830 1.419 . S
C829 C824 1.425 . S
C829 C826 1.409 . S
C829 C827 1.415 . S
C830 H820 0.930 . S
C830 C828 1.419 . S
C830 C831 1.362 . S
C831 H821 0.930 . S
C831 C824 1.409 . S
C831 C830 1.362 . S
H832 C838 0.930 . S
H833 C841 0.930 . S
H834 C842 0.930 . S
H835 C843 0.930 . S
H836 C846 0.930 . S
H837 C847 0.930 . S
C838 H832 0.930 . S
C838 C839 1.355 . S
C838 C840 1.415 . S
C839 C838 1.355 . S
C839 C841 1.419 . S
C840 C838 1.415 . S
C840 C845 1.425 . S
C840 C847 1.409 . S
C841 H833 0.930 . S
C841 C839 1.419 . S
C841 C842 1.362 . S
C842 H834 0.930 . S
C842 C841 1.362 . S
C842 C845 1.409 . S
C843 H835 0.930 . S
C843 C844 1.355 . S
C843 C845 1.415 . S
C844 C843 1.355 . S
C844 C846 1.419 . S
C845 C840 1.425 . S
C845 C842 1.409 . S
C845 C843 1.415 . S
C846 H836 0.930 . S
C846 C844 1.419 . S
C846 C847 1.362 . S
C847 H837 0.930 . S
C847 C840 1.409 . S
C847 C846 1.362 . S
H848 C854 0.930 . S
H849 C857 0.930 . S
H850 C858 0.930 . S
H851 C859 0.930 . S
H852 C862 0.930 . S
H853 C863 0.930 . S
C854 H848 0.930 . S
C854 C855 1.355 . S
C854 C856 1.415 . S
C855 C854 1.355 . S
C855 C857 1.419 . S
C856 C854 1.415 . S
C856 C861 1.425 . S
C856 C863 1.409 . S
C857 H849 0.930 . S
C857 C855 1.419 . S
C857 C858 1.362 . S
C858 H850 0.930 . S
C858 C857 1.362 . S
C858 C861 1.409 . S
C859 H851 0.930 . S
C859 C860 1.355 . S
C859 C861 1.415 . S
C860 C859 1.355 . S
C860 C862 1.419 . S
C861 C856 1.425 . S
C861 C858 1.409 . S
C861 C859 1.415 . S
C862 H852 0.930 . S
C862 C860 1.419 . S
C862 C863 1.362 . S
C863 H853 0.930 . S
C863 C856 1.409 . S
C863 C862 1.362 . S
H864 C870 0.930 . S
H865 C873 0.934 . S
H866 C874 0.930 . S
H867 C875 0.930 . S
H868 C878 0.934 . S
H869 C879 0.930 . S
C870 H864 0.930 . S
C870 C871 1.355 . S
C870 C872 1.415 1_655 S
C871 C870 1.355 . S
C871 C873 1.419 . S
C872 C870 1.415 1_455 S
C872 C877 1.425 1_456 S
C872 C879 1.409 . S
C873 H865 0.934 . S
C873 C871 1.419 . S
C873 C874 1.362 1_556 S
C874 H866 0.930 . S
C874 C873 1.362 1_554 S
C874 C877 1.409 . S
C875 H867 0.930 . S
C875 C876 1.355 . S
C875 C877 1.415 1_455 S
C876 C875 1.355 . S
C876 C878 1.419 . S
C877 C872 1.425 1_654 S
C877 C874 1.409 . S
C877 C875 1.415 1_655 S
C878 H868 0.934 . S
C878 C876 1.419 . S
C878 C879 1.362 1_554 S
C879 H869 0.930 . S
C879 C872 1.409 . S
C879 C878 1.362 1_556 S
H880 C886 0.930 . S
H881 C889 0.930 . S
H882 C890 0.930 1_554 S
H883 C891 0.930 . S
H884 C894 0.930 . S
H885 C895 0.930 1_556 S
C886 H880 0.930 . S
C886 C887 1.355 1_655 S
C886 C888 1.415 . S
C887 C886 1.355 1_455 S
C887 C889 1.419 . S
C888 C886 1.415 . S
C888 C893 1.425 1_666 S
C888 C895 1.409 1_556 S
C889 H881 0.930 . S
C889 C887 1.419 . S
C889 C890 1.362 1_565 S
C890 H882 0.930 1_556 S
C890 C889 1.362 1_545 S
C890 C893 1.409 1_556 S
C891 H883 0.930 . S
C891 C892 1.355 1_455 S
C891 C893 1.415 . S
C892 C891 1.355 1_655 S
C892 C894 1.419 . S
C893 C888 1.425 1_444 S
C893 C890 1.409 1_554 S
C893 C891 1.415 . S
C894 H884 0.930 . S
C894 C892 1.419 . S
C894 C895 1.362 1_545 S
C895 H885 0.930 1_554 S
C895 C888 1.409 1_554 S
C895 C894 1.362 1_565 S
H896 C902 0.930 . S
H897 C905 0.930 . S
H898 C906 0.930 . S
H899 C907 0.930 . S
H900 C910 0.930 . S
H901 C911 0.930 . S
C902 H896 0.930 . S
C902 C903 1.355 . S
C902 C904 1.415 1_556 S
C903 C902 1.355 . S
C903 C905 1.419 1_545 S
C904 C902 1.415 1_554 S
C904 C909 1.425 1_544 S
C904 C911 1.409 . S
C905 H897 0.930 . S
C905 C903 1.419 1_565 S
C905 C906 1.362 . S
C906 H898 0.930 . S
C906 C905 1.362 . S
C906 C909 1.409 . S
C907 H899 0.930 . S
C907 C908 1.355 . S
C907 C909 1.415 1_554 S
C908 C907 1.355 . S
C908 C910 1.419 1_565 S
C909 C904 1.425 1_566 S
C909 C906 1.409 . S
C909 C907 1.415 1_556 S
C910 H900 0.930 . S
C910 C908 1.419 1_545 S
C910 C911 1.362 . S
C911 H901 0.930 . S
C911 C904 1.409 . S
C911 C910 1.362 . S
H912 C918 0.930 1_556 S
H913 C921 0.930 . S
H914 C922 0.930 . S
H915 C923 0.930 1_554 S
H916 C926 0.930 . S
H917 C927 0.930 . S
C918 H912 0.930 1_554 S
C918 C919 1.355 . S
C918 C920 1.415 1_554 S
C919 C918 1.355 . S
C919 C921 1.419 . S
C920 C918 1.415 1_556 S
C920 C925 1.425 1_556 S
C920 C927 1.409 . S
C921 H913 0.930 . S
C921 C919 1.419 . S
C921 C922 1.362 . S
C922 H914 0.930 . S
C922 C921 1.362 . S
C922 C925 1.409 . S
C923 H915 0.930 1_556 S
C923 C924 1.355 . S
C923 C925 1.415 1_556 S
C924 C923 1.355 . S
C924 C926 1.419 . S
C925 C920 1.425 1_554 S
C925 C922 1.409 . S
C925 C923 1.415 1_554 S
C926 H916 0.930 . S
C926 C924 1.419 . S
C926 C927 1.362 . S
C927 H917 0.930 . S
C927 C920 1.409 . S
C927 C926 1.362 . S
H928 C934 0.930 . S
H929 C937 0.930 . S
H930 C938 0.930 . S
H931 C939 0.930 . S
H932 C942 0.930 . S
H933 C943 0.930 . S
C934 H928 0.930 . S
C934 C935 1.355 . S
C934 C936 1.415 1_645 S
C935 C934 1.355 . S
C935 C937 1.419 . S
C936 C934 1.415 1_465 S
C936 C941 1.425 1_465 S
C936 C943 1.409 . S
C937 H929 0.930 . S
C937 C935 1.419 . S
C937 C938 1.362 . S
C938 H930 0.930 . S
C938 C937 1.362 . S
C938 C941 1.409 . S
C939 H931 0.930 . S
C939 C940 1.355 . S
C939 C941 1.415 1_465 S
C940 C939 1.355 . S
C940 C942 1.419 . S
C941 C936 1.425 1_645 S
C941 C938 1.409 . S
C941 C939 1.415 1_645 S
C942 H932 0.930 . S
C942 C940 1.419 . S
C942 C943 1.362 . S
C943 H933 0.930 . S
C943 C936 1.409 . S
C943 C942 1.362 . S
H944 C950 0.930 . S
H945 C953 0.930 . S
H946 C954 0.930 . S
H947 C955 0.930 . S
H948 C958 0.930 . S
H949 C959 0.930 . S
C950 H944 0.930 . S
C950 C951 1.355 . S
C950 C952 1.415 1_565 S
C951 C950 1.355 . S
C951 C953 1.419 . S
C952 C950 1.415 1_545 S
C952 C957 1.425 1_545 S
C952 C959 1.409 . S
C953 H945 0.930 . S
C953 C951 1.419 . S
C953 C954 1.362 . S
C954 H946 0.930 . S
C954 C953 1.362 . S
C954 C957 1.409 . S
C955 H947 0.930 . S
C955 C956 1.355 . S
C955 C957 1.415 1_545 S
C956 C955 1.355 . S
C956 C958 1.419 . S
C957 C952 1.425 1_565 S
C957 C954 1.409 . S
C957 C955 1.415 1_565 S
C958 H948 0.930 . S
C958 C956 1.419 . S
C958 C959 1.362 . S
C959 H949 0.930 . S
C959 C952 1.409 . S
C959 C958 1.362 . S
H960 C966 0.930 . S
H961 C969 0.930 . S
H962 C970 0.930 . S
H963 C971 0.930 . S
H964 C974 0.930 . S
H965 C975 0.930 . S
C966 H960 0.930 . S
C966 C967 1.355 . S
C966 C968 1.415 . S
C967 C966 1.355 . S
C967 C969 1.419 . S
C968 C966 1.415 . S
C968 C973 1.425 . S
C968 C975 1.409 . S
C969 H961 0.930 . S
C969 C967 1.419 . S
C969 C970 1.362 . S
C970 H962 0.930 . S
C970 C969 1.362 . S
C970 C973 1.409 . S
C971 H963 0.930 . S
C971 C972 1.355 . S
C971 C973 1.415 . S
C972 C971 1.355 . S
C972 C974 1.419 . S
C973 C968 1.425 . S
C973 C970 1.409 . S
C973 C971 1.415 . S
C974 H964 0.930 . S
C974 C972 1.419 . S
C974 C975 1.362 . S
C975 H965 0.930 . S
C975 C968 1.409 . S
C975 C974 1.362 . S
H976 C982 0.930 1_655 S
H977 C985 0.930 . S
H978 C986 0.930 . S
H979 C987 0.930 1_455 S
H980 C990 0.930 . S
H981 C991 0.930 . S
C982 H976 0.930 1_455 S
C982 C983 1.355 . S
C982 C984 1.415 1_455 S
C983 C982 1.355 . S
C983 C985 1.419 . S
C984 C982 1.415 1_655 S
C984 C989 1.425 1_655 S
C984 C991 1.409 . S
C985 H977 0.930 . S
C985 C983 1.419 . S
C985 C986 1.362 . S
C986 H978 0.930 . S
C986 C985 1.362 . S
C986 C989 1.409 . S
C987 H979 0.930 1_655 S
C987 C988 1.355 . S
C987 C989 1.415 1_655 S
C988 C987 1.355 . S
C988 C990 1.419 . S
C989 C984 1.425 1_455 S
C989 C986 1.409 . S
C989 C987 1.415 1_455 S
C990 H980 0.930 . S
C990 C988 1.419 . S
C990 C991 1.362 . S
C991 H981 0.930 . S
C991 C984 1.409 . S
C991 C990 1.362 . S
H992 C998 0.929 1_455 S
H993 C1001 0.930 . S
H994 C1002 0.930 . S
H995 C1003 0.930 . S
H996 C1006 0.930 . S
H997 C1007 0.930 . S
C998 H992 0.929 1_655 S
C998 C999 1.355 . S
C998 C1000 1.415 . S
C999 C998 1.355 . S
C999 C1001 1.419 . S
C1000 C998 1.415 . S
C1000 C1005 1.425 . S
C1000 C1007 1.409 1_655 S
C1001 H993 0.930 . S
C1001 C999 1.419 . S
C1001 C1002 1.362 . S
C1002 H994 0.930 . S
C1002 C1001 1.362 . S
C1002 C1005 1.409 . S
C1003 H995 0.930 . S
C1003 C1004 1.355 1_655 S
C1003 C1005 1.415 . S
C1004 C1003 1.355 1_455 S
C1004 C1006 1.419 . S
C1005 C1000 1.425 . S
C1005 C1002 1.409 . S
C1005 C1003 1.415 . S
C1006 H996 0.930 . S
C1006 C1004 1.419 . S
C1006 C1007 1.362 . S
C1007 H997 0.930 . S
C1007 C1000 1.409 1_455 S
C1007 C1006 1.362 . S
H1008 C1014 0.930 . S
H1009 C1017 0.930 . S
H1010 C1018 0.930 . S
H1011 C1019 0.930 . S
H1012 C1022 0.930 1_455 S
H1013 C1023 0.930 . S
C1014 H1008 0.930 . S
C1014 C1015 1.355 1_455 S
C1014 C1016 1.415 1_455 S
C1015 C1014 1.355 1_655 S
C1015 C1017 1.419 . S
C1016 C1014 1.415 1_655 S
C1016 C1021 1.425 . S
C1016 C1023 1.409 1_655 S
C1017 H1009 0.930 . S
C1017 C1015 1.419 . S
C1017 C1018 1.362 . S
C1018 H1010 0.930 . S
C1018 C1017 1.362 . S
C1018 C1021 1.409 . S
C1019 H1011 0.930 . S
C1019 C1020 1.355 . S
C1019 C1021 1.415 . S
C1020 C1019 1.355 . S
C1020 C1022 1.419 1_565 S
C1021 C1016 1.425 . S
C1021 C1018 1.409 . S
C1021 C1019 1.415 . S
C1022 H1012 0.930 1_655 S
C1022 C1020 1.419 1_545 S
C1022 C1023 1.362 1_645 S
C1023 H1013 0.930 . S
C1023 C1016 1.409 1_455 S
C1023 C1022 1.362 1_465 S
H1024 C1030 0.930 1_545 S
H1025 C1033 0.930 . S
H1026 C1034 0.930 . S
H1027 C1035 0.930 . S
H1028 C1038 0.930 . S
H1029 C1039 0.930 . S
C1030 H1024 0.930 1_565 S
C1030 C1031 1.355 . S
C1030 C1032 1.415 . S
C1031 C1030 1.355 . S
C1031 C1033 1.419 . S
C1032 C1030 1.415 . S
C1032 C1037 1.425 . S
C1032 C1039 1.409 . S
C1033 H1025 0.930 . S
C1033 C1031 1.419 . S
C1033 C1034 1.362 . S
C1034 H1026 0.930 . S
C1034 C1033 1.362 . S
C1034 C1037 1.409 . S
C1035 H1027 0.930 . S
C1035 C1036 1.355 . S
C1035 C1037 1.415 . S
C1036 C1035 1.355 . S
C1036 C1038 1.419 . S
C1037 C1032 1.425 . S
C1037 C1034 1.409 . S
C1037 C1035 1.415 . S
C1038 H1028 0.930 . S
C1038 C1036 1.419 . S
C1038 C1039 1.362 . S
C1039 H1029 0.930 . S
C1039 C1032 1.409 . S
C1039 C1038 1.362 . S
H1040 C1046 0.930 . S
H1041 C1049 0.930 . S
H1042 C1050 0.930 . S
H1043 C1051 0.930 . S
H1044 C1054 0.930 . S
H1045 C1055 0.930 . S
C1046 H1040 0.930 . S
C1046 C1047 1.355 . S
C1046 C1048 1.415 . S
C1047 C1046 1.355 . S
C1047 C1049 1.419 . S
C1048 C1046 1.415 . S
C1048 C1053 1.425 . S
C1048 C1055 1.409 . S
C1049 H1041 0.930 . S
C1049 C1047 1.419 . S
C1049 C1050 1.362 . S
C1050 H1042 0.930 . S
C1050 C1049 1.362 . S
C1050 C1053 1.409 . S
C1051 H1043 0.930 . S
C1051 C1052 1.355 . S
C1051 C1053 1.415 . S
C1052 C1051 1.355 . S
C1052 C1054 1.419 . S
C1053 C1048 1.425 . S
C1053 C1050 1.409 . S
C1053 C1051 1.415 . S
C1054 H1044 0.930 . S
C1054 C1052 1.419 . S
C1054 C1055 1.362 . S
C1055 H1045 0.930 . S
C1055 C1048 1.409 . S
C1055 C1054 1.362 . S
H1056 C1062 0.930 . S
H1057 C1065 0.930 . S
H1058 C1066 0.930 1_655 S
H1059 C1067 0.930 . S
H1060 C1070 0.930 . S
H1061 C1071 0.930 . S
C1062 H1056 0.930 . S
C1062 C1063 1.355 . S
C1062 C1064 1.415 . S
C1063 C1062 1.355 . S
C1063 C1065 1.419 . S
C1064 C1062 1.415 . S
C1064 C1069 1.425 . S
C1064 C1071 1.409 . S
C1065 H1057 0.930 . S
C1065 C1063 1.419 . S
C1065 C1066 1.362 . S
C1066 H1058 0.930 1_455 S
C1066 C1065 1.362 . S
C1066 C1069 1.409 . S
C1067 H1059 0.930 . S
C1067 C1068 1.355 1_655 S
C1067 C1069 1.415 1_655 S
C1068 C1067 1.355 1_455 S
C1068 C1070 1.419 . S
C1069 C1064 1.425 . S
C1069 C1066 1.409 . S
C1069 C1067 1.415 1_455 S
C1070 H1060 0.930 . S
C1070 C1068 1.419 . S
C1070 C1071 1.362 . S
C1071 H1061 0.930 . S
C1071 C1064 1.409 . S
C1071 C1070 1.362 . S
H1072 C1078 0.930 . S
H1073 C1081 0.930 . S
H1074 C1082 0.930 . S
H1075 C1083 0.930 . S
H1076 C1086 0.930 1_655 S
H1077 C1087 0.930 . S
C1078 H1072 0.930 . S
C1078 C1079 1.355 1_655 S
C1078 C1080 1.415 1_655 S
C1079 C1078 1.355 1_455 S
C1079 C1081 1.419 . S
C1080 C1078 1.415 1_455 S
C1080 C1085 1.425 . S
C1080 C1087 1.409 1_455 S
C1081 H1073 0.930 . S
C1081 C1079 1.419 . S
C1081 C1082 1.362 . S
C1082 H1074 0.930 . S
C1082 C1081 1.362 . S
C1082 C1085 1.409 . S
C1083 H1075 0.930 . S
C1083 C1084 1.362 . S
C1083 C1085 1.415 . S
C1084 C1083 1.362 . S
C1084 C1086 1.418 1_545 S
C1085 C1080 1.425 . S
C1085 C1082 1.409 . S
C1085 C1083 1.415 . S
C1086 H1076 0.930 1_455 S
C1086 C1084 1.418 1_565 S
C1086 C1087 1.362 1_465 S
C1087 H1077 0.930 . S
C1087 C1080 1.409 1_655 S
C1087 C1086 1.362 1_645 S
H1088 C1094 0.930 . S
H1089 C1097 0.928 1_565 S
H1090 C1098 0.930 . S
H1091 C1099 0.930 . S
H1092 C1102 0.930 . S
H1093 C1103 0.930 . S
C1094 H1088 0.930 . S
C1094 C1095 1.355 . S
C1094 C1096 1.415 . S
C1095 C1094 1.355 . S
C1095 C1097 1.419 . S
C1096 C1094 1.415 . S
C1096 C1101 1.425 . S
C1096 C1103 1.409 . S
C1097 H1089 0.928 1_545 S
C1097 C1095 1.419 . S
C1097 C1098 1.362 . S
C1098 H1090 0.930 . S
C1098 C1097 1.362 . S
C1098 C1101 1.409 . S
C1099 H1091 0.930 . S
C1099 C1100 1.355 . S
C1099 C1101 1.415 . S
C1100 C1099 1.355 . S
C1100 C1102 1.419 . S
C1101 C1096 1.425 . S
C1101 C1098 1.409 . S
C1101 C1099 1.415 . S
C1102 H1092 0.930 . S
C1102 C1100 1.419 . S
C1102 C1103 1.362 . S
C1103 H1093 0.930 . S
C1103 C1096 1.409 . S
C1103 C1102 1.362 . S
H1104 C1110 0.930 . S
H1105 C1113 0.930 . S
H1106 C1114 0.930 . S
H1107 C1115 0.930 . S
H1108 C1118 0.930 . S
H1109 C1119 0.930 . S
C1110 H1104 0.930 . S
C1110 C1111 1.355 . S
C1110 C1112 1.415 . S
C1111 C1110 1.355 . S
C1111 C1113 1.419 . S
C1112 C1110 1.415 . S
C1112 C1117 1.425 . S
C1112 C1119 1.409 . S
C1113 H1105 0.930 . S
C1113 C1111 1.419 . S
C1113 C1114 1.362 . S
C1114 H1106 0.930 . S
C1114 C1113 1.362 . S
C1114 C1117 1.409 . S
C1115 H1107 0.930 . S
C1115 C1116 1.355 . S
C1115 C1117 1.415 . S
C1116 C1115 1.355 . S
C1116 C1118 1.419 . S
C1117 C1112 1.425 . S
C1117 C1114 1.409 . S
C1117 C1115 1.415 . S
C1118 H1108 0.930 . S
C1118 C1116 1.419 . S
C1118 C1119 1.362 . S
C1119 H1109 0.930 . S
C1119 C1112 1.409 . S
C1119 C1118 1.362 . S
C359 C70 1.318 . S
C364 C8 1.311 . S
C375 C4 1.258 . S
C380 C30 1.279 . S
C391 C52 1.290 . S
C396 C26 1.233 . S
C407 C48 1.318 . S
C412 C74 1.312 . S
C423 C92 1.299 . S
C428 C114 1.226 . S
C439 C118 1.282 . S
C444 C140 1.247 . S
C455 C136 1.334 . S
C460 C162 1.299 . S
C471 C96 1.260 . S
C476 C158 1.279 . S
C487 C184 1.295 . S
C492 C246 1.312 . S
C503 C180 1.245 . S
C508 C202 1.333 . S
C519 C206 1.311 . S
C524 C228 1.326 . S
C535 C224 1.317 . S
C540 C250 1.307 . S
C551 C268 1.329 . S
C556 C294 1.308 . S
C567 C316 1.313 . S
C572 C290 1.297 . S
C583 C338 1.228 . S
C588 C312 1.320 . S
C599 C334 1.307 . S
C604 C272 1.317 . S
C615 C6 0.714 . S
C620 C95 0.781 . S
C631 C116 0.708 . S
C636 C28 0.782 . S
C647 C50 0.756 . S
C652 C139 0.642 . S
C663 C72 0.731 . S
C668 C161 0.775 . S
C679 C273 0.644 . S
C684 C181 0.760 . S
C695 C295 0.757 . S
C700 C207 0.642 . S
C711 C225 0.741 . S
C716 C317 0.769 . S
C727 C339 0.637 . S
C732 C247 0.748 . S
C743 C5 1.990 . S
C748 C49 1.972 . S
C759 C27 1.984 . S
C764 C71 1.964 . S
C775 C141 1.967 . S
C780 C97 1.961 . S
C791 C163 1.991 . S
C796 C115 1.982 . S
C807 C226 1.985 . S
C812 C182 1.965 . S
C823 C248 1.987 . S
C828 C205 1.989 . S
C839 C271 1.960 . S
C844 C315 1.977 . S
C855 C293 1.985 . S
C860 C337 1.965 . S
C871 C185 1.626 . S
C876 C7 1.626 . S
C887 C203 1.599 . S
C892 C29 1.599 . S
C903 C229 1.683 . S
C908 C51 1.683 . S
C919 C73 1.634 . S
C924 C251 1.634 . S
C935 C269 1.630 . S
C940 C94 1.630 . S
C951 C291 1.687 . S
C956 C117 1.687 . S
C967 C313 1.644 . S
C972 C138 1.644 . S
C983 C335 1.606 . S
C988 C160 1.606 . S
C999 C159 1.243 . S
C1004 C9 1.289 . S
C1015 C93 1.311 1_655 S
C1020 C31 1.342 1_565 S
C1031 C119 1.341 1_565 S
C1036 C53 1.304 . S
C1047 C137 1.268 . S
C1052 C75 1.323 . S
C1063 C336 1.316 . S
C1068 C183 1.343 1_455 S
C1079 C270 1.278 1_455 S
C1084 C204 1.324 1_545 S
C1095 C292 1.342 1_545 S
C1100 C227 1.320 . S
C1111 C249 1.301 . S
C1116 C314 1.250 . S
