# Generated by pormake.
# Topology wiq, (6)-cn, num edge types: 1
# Building blocks:
#     Node 0, Type 0, BuildingBlock: OJICUG_clean_sbu_0, # of connection points: 6
#     Node 1, Type 0, BuildingBlock: OJICUG_clean_sbu_0, # of connection points: 6
#     Node 2, Type 0, BuildingBlock: OJICUG_clean_sbu_0, # of connection points: 6
#     Node 3, Type 0, BuildingBlock: OJICUG_clean_sbu_0, # of connection points: 6
#     Node 4, Type 0, BuildingBlock: OJICUG_clean_sbu_0, # of connection points: 6
#     Node 5, Type 0, BuildingBlock: OJICUG_clean_sbu_0, # of connection points: 6
#     Node 6, Type 0, BuildingBlock: OJICUG_clean_sbu_0, # of connection points: 6
#     Node 7, Type 0, BuildingBlock: OJICUG_clean_sbu_0, # of connection points: 6
#     Node 8, Type 0, BuildingBlock: OJICUG_clean_sbu_0, # of connection points: 6
#     Node 9, Type 0, BuildingBlock: OJICUG_clean_sbu_0, # of connection points: 6
#     Node 10, Type 0, BuildingBlock: OJICUG_clean_sbu_0, # of connection points: 6
#     Node 11, Type 0, BuildingBlock: OJICUG_clean_sbu_0, # of connection points: 6
#     Node 12, Type 0, BuildingBlock: OJICUG_clean_sbu_0, # of connection points: 6
#     Node 13, Type 0, BuildingBlock: OJICUG_clean_sbu_0, # of connection points: 6
#     Node 14, Type 0, BuildingBlock: OJICUG_clean_sbu_0, # of connection points: 6
#     Node 15, Type 0, BuildingBlock: OJICUG_clean_sbu_0, # of connection points: 6
#     Node 16, Type 0, BuildingBlock: OJICUG_clean_sbu_0, # of connection points: 6
#     Node 17, Type 0, BuildingBlock: OJICUG_clean_sbu_0, # of connection points: 6
#     Node 18, Type 0, BuildingBlock: OJICUG_clean_sbu_0, # of connection points: 6
#     Node 19, Type 0, BuildingBlock: OJICUG_clean_sbu_0, # of connection points: 6
#     Node 20, Type 0, BuildingBlock: OJICUG_clean_sbu_0, # of connection points: 6
#     Node 21, Type 0, BuildingBlock: OJICUG_clean_sbu_0, # of connection points: 6
#     Node 22, Type 0, BuildingBlock: OJICUG_clean_sbu_0, # of connection points: 6
#     Node 23, Type 0, BuildingBlock: OJICUG_clean_sbu_0, # of connection points: 6
#     Node 24, Type 0, BuildingBlock: OJICUG_clean_sbu_0, # of connection points: 6
#     Node 25, Type 0, BuildingBlock: OJICUG_clean_sbu_0, # of connection points: 6
#     Node 26, Type 0, BuildingBlock: OJICUG_clean_sbu_0, # of connection points: 6
#     Node 27, Type 0, BuildingBlock: OJICUG_clean_sbu_0, # of connection points: 6
#     Node 28, Type 0, BuildingBlock: OJICUG_clean_sbu_0, # of connection points: 6
#     Node 29, Type 0, BuildingBlock: OJICUG_clean_sbu_0, # of connection points: 6
#     Node 30, Type 0, BuildingBlock: OJICUG_clean_sbu_0, # of connection points: 6
#     Node 31, Type 0, BuildingBlock: OJICUG_clean_sbu_0, # of connection points: 6
#     Edge 32, Type (0, 0), BuildingBlock: AJUNOK_clean_linker_0, # of connection points: 2
#     Edge 33, Type (0, 0), BuildingBlock: AJUNOK_clean_linker_0, # of connection points: 2
#     Edge 34, Type (0, 0), BuildingBlock: AJUNOK_clean_linker_0, # of connection points: 2
#     Edge 35, Type (0, 0), BuildingBlock: AJUNOK_clean_linker_0, # of connection points: 2
#     Edge 36, Type (0, 0), BuildingBlock: AJUNOK_clean_linker_0, # of connection points: 2
#     Edge 37, Type (0, 0), BuildingBlock: AJUNOK_clean_linker_0, # of connection points: 2
#     Edge 38, Type (0, 0), BuildingBlock: AJUNOK_clean_linker_0, # of connection points: 2
#     Edge 39, Type (0, 0), BuildingBlock: AJUNOK_clean_linker_0, # of connection points: 2
#     Edge 40, Type (0, 0), BuildingBlock: AJUNOK_clean_linker_0, # of connection points: 2
#     Edge 41, Type (0, 0), BuildingBlock: AJUNOK_clean_linker_0, # of connection points: 2
#     Edge 42, Type (0, 0), BuildingBlock: AJUNOK_clean_linker_0, # of connection points: 2
#     Edge 43, Type (0, 0), BuildingBlock: AJUNOK_clean_linker_0, # of connection points: 2
#     Edge 44, Type (0, 0), BuildingBlock: AJUNOK_clean_linker_0, # of connection points: 2
#     Edge 45, Type (0, 0), BuildingBlock: AJUNOK_clean_linker_0, # of connection points: 2
#     Edge 46, Type (0, 0), BuildingBlock: AJUNOK_clean_linker_0, # of connection points: 2
#     Edge 47, Type (0, 0), BuildingBlock: AJUNOK_clean_linker_0, # of connection points: 2
#     Edge 48, Type (0, 0), BuildingBlock: AJUNOK_clean_linker_0, # of connection points: 2
#     Edge 49, Type (0, 0), BuildingBlock: AJUNOK_clean_linker_0, # of connection points: 2
#     Edge 50, Type (0, 0), BuildingBlock: AJUNOK_clean_linker_0, # of connection points: 2
#     Edge 51, Type (0, 0), BuildingBlock: AJUNOK_clean_linker_0, # of connection points: 2
#     Edge 52, Type (0, 0), BuildingBlock: AJUNOK_clean_linker_0, # of connection points: 2
#     Edge 53, Type (0, 0), BuildingBlock: AJUNOK_clean_linker_0, # of connection points: 2
#     Edge 54, Type (0, 0), BuildingBlock: AJUNOK_clean_linker_0, # of connection points: 2
#     Edge 55, Type (0, 0), BuildingBlock: AJUNOK_clean_linker_0, # of connection points: 2
#     Edge 56, Type (0, 0), BuildingBlock: AJUNOK_clean_linker_0, # of connection points: 2
#     Edge 57, Type (0, 0), BuildingBlock: AJUNOK_clean_linker_0, # of connection points: 2
#     Edge 58, Type (0, 0), BuildingBlock: AJUNOK_clean_linker_0, # of connection points: 2
#     Edge 59, Type (0, 0), BuildingBlock: AJUNOK_clean_linker_0, # of connection points: 2
#     Edge 60, Type (0, 0), BuildingBlock: AJUNOK_clean_linker_0, # of connection points: 2
#     Edge 61, Type (0, 0), BuildingBlock: AJUNOK_clean_linker_0, # of connection points: 2
#     Edge 62, Type (0, 0), BuildingBlock: AJUNOK_clean_linker_0, # of connection points: 2
#     Edge 63, Type (0, 0), BuildingBlock: AJUNOK_clean_linker_0, # of connection points: 2
#     Edge 64, Type (0, 0), BuildingBlock: AJUNOK_clean_linker_0, # of connection points: 2
#     Edge 65, Type (0, 0), BuildingBlock: AJUNOK_clean_linker_0, # of connection points: 2
#     Edge 66, Type (0, 0), BuildingBlock: AJUNOK_clean_linker_0, # of connection points: 2
#     Edge 67, Type (0, 0), BuildingBlock: AJUNOK_clean_linker_0, # of connection points: 2
#     Edge 68, Type (0, 0), BuildingBlock: AJUNOK_clean_linker_0, # of connection points: 2
#     Edge 69, Type (0, 0), BuildingBlock: AJUNOK_clean_linker_0, # of connection points: 2
#     Edge 70, Type (0, 0), BuildingBlock: AJUNOK_clean_linker_0, # of connection points: 2
#     Edge 71, Type (0, 0), BuildingBlock: AJUNOK_clean_linker_0, # of connection points: 2
#     Edge 72, Type (0, 0), BuildingBlock: AJUNOK_clean_linker_0, # of connection points: 2
#     Edge 73, Type (0, 0), BuildingBlock: AJUNOK_clean_linker_0, # of connection points: 2
#     Edge 74, Type (0, 0), BuildingBlock: AJUNOK_clean_linker_0, # of connection points: 2
#     Edge 75, Type (0, 0), BuildingBlock: AJUNOK_clean_linker_0, # of connection points: 2
#     Edge 76, Type (0, 0), BuildingBlock: AJUNOK_clean_linker_0, # of connection points: 2
#     Edge 77, Type (0, 0), BuildingBlock: AJUNOK_clean_linker_0, # of connection points: 2
#     Edge 78, Type (0, 0), BuildingBlock: AJUNOK_clean_linker_0, # of connection points: 2
#     Edge 79, Type (0, 0), BuildingBlock: AJUNOK_clean_linker_0, # of connection points: 2
#     Edge 80, Type (0, 0), BuildingBlock: AJUNOK_clean_linker_0, # of connection points: 2
#     Edge 81, Type (0, 0), BuildingBlock: AJUNOK_clean_linker_0, # of connection points: 2
#     Edge 82, Type (0, 0), BuildingBlock: AJUNOK_clean_linker_0, # of connection points: 2
#     Edge 83, Type (0, 0), BuildingBlock: AJUNOK_clean_linker_0, # of connection points: 2
#     Edge 84, Type (0, 0), BuildingBlock: AJUNOK_clean_linker_0, # of connection points: 2
#     Edge 85, Type (0, 0), BuildingBlock: AJUNOK_clean_linker_0, # of connection points: 2
#     Edge 86, Type (0, 0), BuildingBlock: AJUNOK_clean_linker_0, # of connection points: 2
#     Edge 87, Type (0, 0), BuildingBlock: AJUNOK_clean_linker_0, # of connection points: 2
#     Edge 88, Type (0, 0), BuildingBlock: AJUNOK_clean_linker_0, # of connection points: 2
#     Edge 89, Type (0, 0), BuildingBlock: AJUNOK_clean_linker_0, # of connection points: 2
#     Edge 90, Type (0, 0), BuildingBlock: AJUNOK_clean_linker_0, # of connection points: 2
#     Edge 91, Type (0, 0), BuildingBlock: AJUNOK_clean_linker_0, # of connection points: 2
#     Edge 92, Type (0, 0), BuildingBlock: AJUNOK_clean_linker_0, # of connection points: 2
#     Edge 93, Type (0, 0), BuildingBlock: AJUNOK_clean_linker_0, # of connection points: 2
#     Edge 94, Type (0, 0), BuildingBlock: AJUNOK_clean_linker_0, # of connection points: 2
#     Edge 95, Type (0, 0), BuildingBlock: AJUNOK_clean_linker_0, # of connection points: 2
#     Edge 96, Type (0, 0), BuildingBlock: AJUNOK_clean_linker_0, # of connection points: 2
#     Edge 97, Type (0, 0), BuildingBlock: AJUNOK_clean_linker_0, # of connection points: 2
#     Edge 98, Type (0, 0), BuildingBlock: AJUNOK_clean_linker_0, # of connection points: 2
#     Edge 99, Type (0, 0), BuildingBlock: AJUNOK_clean_linker_0, # of connection points: 2
#     Edge 100, Type (0, 0), BuildingBlock: AJUNOK_clean_linker_0, # of connection points: 2
#     Edge 101, Type (0, 0), BuildingBlock: AJUNOK_clean_linker_0, # of connection points: 2
#     Edge 102, Type (0, 0), BuildingBlock: AJUNOK_clean_linker_0, # of connection points: 2
#     Edge 103, Type (0, 0), BuildingBlock: AJUNOK_clean_linker_0, # of connection points: 2
#     Edge 104, Type (0, 0), BuildingBlock: AJUNOK_clean_linker_0, # of connection points: 2
#     Edge 105, Type (0, 0), BuildingBlock: AJUNOK_clean_linker_0, # of connection points: 2
#     Edge 106, Type (0, 0), BuildingBlock: AJUNOK_clean_linker_0, # of connection points: 2
#     Edge 107, Type (0, 0), BuildingBlock: AJUNOK_clean_linker_0, # of connection points: 2
#     Edge 108, Type (0, 0), BuildingBlock: AJUNOK_clean_linker_0, # of connection points: 2
#     Edge 109, Type (0, 0), BuildingBlock: AJUNOK_clean_linker_0, # of connection points: 2
#     Edge 110, Type (0, 0), BuildingBlock: AJUNOK_clean_linker_0, # of connection points: 2
#     Edge 111, Type (0, 0), BuildingBlock: AJUNOK_clean_linker_0, # of connection points: 2
#     Edge 112, Type (0, 0), BuildingBlock: AJUNOK_clean_linker_0, # of connection points: 2
#     Edge 113, Type (0, 0), BuildingBlock: AJUNOK_clean_linker_0, # of connection points: 2
#     Edge 114, Type (0, 0), BuildingBlock: AJUNOK_clean_linker_0, # of connection points: 2
#     Edge 115, Type (0, 0), BuildingBlock: AJUNOK_clean_linker_0, # of connection points: 2
#     Edge 116, Type (0, 0), BuildingBlock: AJUNOK_clean_linker_0, # of connection points: 2
#     Edge 117, Type (0, 0), BuildingBlock: AJUNOK_clean_linker_0, # of connection points: 2
#     Edge 118, Type (0, 0), BuildingBlock: AJUNOK_clean_linker_0, # of connection points: 2
#     Edge 119, Type (0, 0), BuildingBlock: AJUNOK_clean_linker_0, # of connection points: 2
#     Edge 120, Type (0, 0), BuildingBlock: AJUNOK_clean_linker_0, # of connection points: 2
#     Edge 121, Type (0, 0), BuildingBlock: AJUNOK_clean_linker_0, # of connection points: 2
#     Edge 122, Type (0, 0), BuildingBlock: AJUNOK_clean_linker_0, # of connection points: 2
#     Edge 123, Type (0, 0), BuildingBlock: AJUNOK_clean_linker_0, # of connection points: 2
#     Edge 124, Type (0, 0), BuildingBlock: AJUNOK_clean_linker_0, # of connection points: 2
#     Edge 125, Type (0, 0), BuildingBlock: AJUNOK_clean_linker_0, # of connection points: 2
#     Edge 126, Type (0, 0), BuildingBlock: AJUNOK_clean_linker_0, # of connection points: 2
#     Edge 127, Type (0, 0), BuildingBlock: AJUNOK_clean_linker_0, # of connection points: 2
# Relax obj value: 0.240
# Max RMSD: 0.192
# Mean RMSD: 0.192
data_MOF--net-wiq--node1-OJICUG_clean_sbu_0--edge1-AJUNOK_clean_linker_0
_symmetry_space_group_name_H-M    P1
_symmetry_Int_Tables_number       1
_symmetry_cell_setting            triclinic
loop_
_symmetry_equiv_pos_as_xyz
'x, y, z'
_cell_length_a     37.780458
_cell_length_b     37.782617
_cell_length_c     42.189159
_cell_angle_alpha  89.999707
_cell_angle_beta   90.031678
_cell_angle_gamma 90.020654
loop_
_atom_site_label
_atom_site_type_symbol
_atom_site_fract_x
_atom_site_fract_y
_atom_site_fract_z
_atom_type_partial_charge
Sc0 Sc 0.14334 0.20328 0.25076 0.0
Sc1 Sc 0.16342 0.14529 0.31094 0.0
Sc2 Sc 0.09142 0.1288 0.26061 0.0
O3 O 0.13154 0.1593 0.27464 0.0
C4 C 0.06207 0.20827 0.25752 0.0
C5 C 0.15135 0.22514 0.32374 0.0
C6 C 0.08717 0.11676 0.33409 0.0
C7 C 0.21595 0.18574 0.26342 0.0
C8 C 0.11784 0.15416 0.19393 0.0
C9 C 0.15609 0.07461 0.27094 0.0
O10 O 0.09206 0.22333 0.25745 0.0
O11 O 0.14876 0.19363 0.33438 0.0
O12 O 0.0725 0.12362 0.30782 0.0
O13 O 0.19308 0.17986 0.24269 0.0
O14 O 0.1054 0.13012 0.21157 0.0
O15 O 0.17658 0.09573 0.28627 0.0
O16 O 0.1295 0.18315 0.20484 0.0
O17 O 0.20976 0.17523 0.29169 0.0
O18 O 0.12398 0.08193 0.26405 0.0
O19 O 0.15797 0.23163 0.29457 0.0
O20 O 0.05749 0.17479 0.25589 0.0
O21 O 0.12069 0.11896 0.33804 0.0
Sc22 Sc 0.12591 0.84302 0.50932 0.0
Sc23 Sc 0.10967 0.91399 0.56065 0.0
Sc24 Sc 0.05272 0.89642 0.49889 0.0
O25 O 0.09562 0.88305 0.52358 0.0
C26 C 0.10374 0.87295 0.44275 0.0
C27 C 0.18064 0.90678 0.52156 0.0
C28 C 0.06986 0.96795 0.5148 0.0
C29 C 0.13599 0.83672 0.58271 0.0
C30 C 0.04619 0.81481 0.50106 0.0
C31 C 0.02974 0.90149 0.57251 0.0
O32 O 0.12639 0.85858 0.46071 0.0
O33 O 0.1593 0.92749 0.53635 0.0
O34 O 0.0775 0.94597 0.49391 0.0
O35 O 0.12878 0.82274 0.55621 0.0
O36 O 0.03157 0.84501 0.50167 0.0
O37 O 0.06119 0.89915 0.58335 0.0
O38 O 0.07967 0.81 0.50222 0.0
O39 O 0.13566 0.8703 0.58678 0.0
O40 O 0.02332 0.90801 0.5432 0.0
O41 O 0.17331 0.87462 0.51484 0.0
O42 O 0.07477 0.88539 0.453 0.0
O43 O 0.07978 0.96116 0.54306 0.0
Sc44 Sc 0.41282 0.8782 0.76127 0.0
Sc45 Sc 0.34149 0.861 0.81184 0.0
Sc46 Sc 0.36011 0.8044 0.75002 0.0
O47 O 0.37267 0.8476 0.77491 0.0
C48 C 0.38537 0.85494 0.69417 0.0
C49 C 0.34874 0.93271 0.77301 0.0
C50 C 0.288 0.8215 0.7644 0.0
C51 C 0.41842 0.88836 0.83489 0.0
C52 C 0.4415 0.79865 0.75606 0.0
C53 C 0.35342 0.78065 0.82288 0.0
O54 O 0.39821 0.878 0.71257 0.0
O55 O 0.3283 0.91133 0.78813 0.0
O56 O 0.31033 0.82831 0.74348 0.0
O57 O 0.43251 0.88222 0.80826 0.0
O58 O 0.4114 0.78383 0.75526 0.0
O59 O 0.35617 0.81191 0.83411 0.0
O60 O 0.44633 0.83213 0.75562 0.0
O61 O 0.38488 0.88651 0.83906 0.0
O62 O 0.34656 0.77487 0.79359 0.0
O63 O 0.3807 0.9253 0.7657 0.0
O64 O 0.373 0.82583 0.70421 0.0
O65 O 0.29465 0.83152 0.79274 0.0
Sc66 Sc 0.3781 0.16226 0.00993 0.0
Sc67 Sc 0.39681 0.09122 0.06067 0.0
Sc68 Sc 0.45211 0.11009 0.99754 0.0
O69 O 0.40948 0.1224 0.02329 0.0
C70 C 0.39869 0.13259 0.94286 0.0
C71 C 0.32432 0.09819 0.02322 0.0
C72 C 0.4372 0.03768 0.01425 0.0
C73 C 0.37004 0.16831 0.08364 0.0
C74 C 0.45688 0.19202 1.00041 0.0
C75 C 0.47754 0.10269 0.07073 0.0
O76 O 0.37659 0.14701 0.9613 0.0
O77 O 0.34629 0.07774 0.03756 0.0
O78 O 0.4298 0.05921 0.99279 0.0
O79 O 0.37596 0.18233 0.05691 0.0
O80 O 0.47208 0.1621 1.00015 0.0
O81 O 0.44648 0.10474 0.0826 0.0
O82 O 0.4234 0.19613 0.00212 0.0
O83 O 0.37168 0.13476 0.08782 0.0
O84 O 0.48286 0.09914 0.04088 0.0
O85 O 0.33121 0.13031 0.01617 0.0
O86 O 0.42813 0.12041 0.95231 0.0
O87 O 0.42602 0.04428 0.04218 0.0
Sc88 Sc 0.14385 0.80517 0.25255 0.0
Sc89 Sc 0.16475 0.86019 0.18968 0.0
Sc90 Sc 0.09296 0.87984 0.2392 0.0
O91 O 0.13272 0.84802 0.22656 0.0
C92 C 0.0621 0.80137 0.24789 0.0
C93 C 0.15311 0.77953 0.17975 0.0
C94 C 0.08857 0.88861 0.16554 0.0
C95 C 0.21693 0.8196 0.23748 0.0
C96 C 0.11975 0.85835 0.30699 0.0
C97 C 0.15773 0.93303 0.22636 0.0
O98 O 0.09184 0.78585 0.24834 0.0
O99 O 0.15129 0.81053 0.16772 0.0
O100 O 0.07378 0.88253 0.19189 0.0
O101 O 0.19493 0.82669 0.25866 0.0
O102 O 0.10727 0.8811 0.28806 0.0
O103 O 0.17822 0.91079 0.21246 0.0
O104 O 0.13177 0.8288 0.29764 0.0
O105 O 0.21093 0.83087 0.20944 0.0
O106 O 0.12556 0.92635 0.23337 0.0
O107 O 0.15612 0.77435 0.20965 0.0
O108 O 0.05835 0.83492 0.24652 0.0
O109 O 0.12208 0.88575 0.16171 0.0
Sc110 Sc 0.45097 0.89306 0.50277 0.0
Sc111 Sc 0.3954 0.914 0.44052 0.0
Sc112 Sc 0.37573 0.84275 0.49114 0.0
O113 O 0.40771 0.88203 0.47745 0.0
C114 C 0.45427 0.81155 0.49806 0.0
C115 C 0.47604 0.90309 0.43 0.0
C116 C 0.3666 0.83742 0.41731 0.0
C117 C 0.43527 0.96614 0.48889 0.0
C118 C 0.39914 0.8695 0.55823 0.0
C119 C 0.32264 0.90746 0.47794 0.0
O120 O 0.47013 0.84115 0.4978 0.0
O121 O 0.44497 0.90082 0.41819 0.0
O122 O 0.37196 0.82324 0.44406 0.0
O123 O 0.42853 0.94347 0.50956 0.0
O124 O 0.37546 0.85726 0.54008 0.0
O125 O 0.34469 0.92747 0.46322 0.0
O126 O 0.42868 0.88057 0.5481 0.0
O127 O 0.42471 0.96035 0.46056 0.0
O128 O 0.32941 0.87558 0.4858 0.0
O129 O 0.48134 0.90625 0.45984 0.0
O130 O 0.42064 0.80812 0.49782 0.0
O131 O 0.37013 0.8708 0.4128 0.0
Sc132 Sc 0.3601 0.2013 0.75321 0.0
Sc133 Sc 0.34112 0.14672 0.68999 0.0
Sc134 Sc 0.41122 0.1271 0.74076 0.0
O135 O 0.37196 0.15879 0.72746 0.0
C136 C 0.44147 0.20568 0.75117 0.0
C137 C 0.35385 0.2271 0.68064 0.0
C138 C 0.41883 0.12428 0.66704 0.0
C139 C 0.28783 0.18576 0.73761 0.0
C140 C 0.38214 0.14683 0.80751 0.0
C141 C 0.34784 0.07364 0.72586 0.0
O142 O 0.41188 0.22143 0.74941 0.0
O143 O 0.35626 0.1961 0.66885 0.0
O144 O 0.43223 0.12879 0.69424 0.0
O145 O 0.30987 0.17787 0.75849 0.0
O146 O 0.39357 0.12349 0.78861 0.0
O147 O 0.32702 0.09623 0.71281 0.0
O148 O 0.3724 0.17729 0.7982 0.0
O149 O 0.29433 0.17612 0.70915 0.0
O150 O 0.38036 0.08002 0.73162 0.0
O151 O 0.34753 0.23242 0.71013 0.0
O152 O 0.44464 0.17205 0.75134 0.0
O153 O 0.38527 0.12217 0.66286 0.0
Sc154 Sc 0.05341 0.11443 0.00195 0.0
Sc155 Sc 0.11022 0.09231 0.94055 0.0
Sc156 Sc 0.12929 0.16408 0.99049 0.0
O157 O 0.09732 0.12465 0.97707 0.0
C158 C 0.051 0.1961 0.9967 0.0
C159 C 0.02969 0.10327 0.92868 0.0
C160 C 0.13856 0.16858 0.91663 0.0
C161 C 0.06851 0.04074 0.98832 0.0
C162 C 0.1049 0.13882 0.05773 0.0
C163 C 0.18252 0.0991 0.97877 0.0
O164 O 0.03498 0.1666 0.99645 0.0
O165 O 0.06102 0.10513 0.91744 0.0
O166 O 0.13349 0.18299 0.94332 0.0
O167 O 0.07428 0.06332 0.00939 0.0
O168 O 0.1288 0.15005 0.03935 0.0
O169 O 0.16064 0.07898 0.96395 0.0
O170 O 0.07542 0.12726 0.04767 0.0
O171 O 0.0807 0.04628 0.96049 0.0
O172 O 0.17565 0.13111 0.98612 0.0
O173 O 0.0236 0.10141 0.95851 0.0
O174 O 0.08465 0.19923 0.99657 0.0
O175 O 0.13559 0.1351 0.91257 0.0
Sc176 Sc 0.91149 0.87691 0.74171 0.0
Sc177 Sc 0.84064 0.85963 0.69035 0.0
Sc178 Sc 0.85733 0.80452 0.75413 0.0
O179 O 0.87099 0.84652 0.7282 0.0
C180 C 0.93902 0.79748 0.75241 0.0
C181 C 0.91878 0.88167 0.66776 0.0
C182 C 0.85035 0.7786 0.681 0.0
C183 C 0.84899 0.93213 0.72738 0.0
C184 C 0.88078 0.85792 0.80867 0.0
C185 C 0.78577 0.82085 0.73649 0.0
O186 O 0.94401 0.83086 0.7506 0.0
O187 O 0.88527 0.88322 0.66334 0.0
O188 O 0.8462 0.77359 0.71085 0.0
O189 O 0.88101 0.92466 0.73436 0.0
O190 O 0.86807 0.82867 0.79924 0.0
O191 O 0.79276 0.83167 0.70853 0.0
O192 O 0.89559 0.87972 0.79016 0.0
O193 O 0.82812 0.91051 0.7131 0.0
O194 O 0.80714 0.82843 0.75802 0.0
O195 O 0.93201 0.87662 0.69493 0.0
O196 O 0.9087 0.78316 0.75216 0.0
O197 O 0.85319 0.8095 0.66892 0.0
Sc198 Sc 0.87753 0.16274 0.49031 0.0
Sc199 Sc 0.89603 0.09146 0.44003 0.0
Sc200 Sc 0.95221 0.11194 0.5023 0.0
O201 O 0.90901 0.12306 0.47697 0.0
C202 C 0.95615 0.1933 0.49905 0.0
C203 C 0.87349 0.1691 0.41632 0.0
C204 C 0.9768 0.10126 0.42925 0.0
C205 C 0.82336 0.09943 0.47686 0.0
C206 C 0.89906 0.13532 0.55725 0.0
C207 C 0.93592 0.03874 0.48794 0.0
O208 O 0.92255 0.19665 0.49931 0.0
O209 O 0.8724 0.1355 0.41214 0.0
O210 O 0.98249 0.09888 0.45914 0.0
O211 O 0.83024 0.13171 0.48308 0.0
O212 O 0.92915 0.12494 0.54756 0.0
O213 O 0.9243 0.04466 0.45996 0.0
O214 O 0.87535 0.14644 0.53857 0.0
O215 O 0.84541 0.07866 0.46312 0.0
O216 O 0.93003 0.06123 0.50904 0.0
O217 O 0.87754 0.18271 0.44348 0.0
O218 O 0.97187 0.16373 0.49739 0.0
O219 O 0.94568 0.10362 0.41764 0.0
Sc220 Sc 0.59321 0.12908 0.23921 0.0
Sc221 Sc 0.66611 0.14527 0.18959 0.0
Sc222 Sc 0.64743 0.20126 0.25203 0.0
O223 O 0.63418 0.15908 0.22621 0.0
C224 C 0.5659 0.20907 0.24714 0.0
C225 C 0.58896 0.11965 0.16556 0.0
C226 C 0.65727 0.22583 0.17863 0.0
C227 C 0.65642 0.07346 0.22756 0.0
C228 C 0.6213 0.14981 0.3068 0.0
C229 C 0.71926 0.18393 0.2373 0.0
O230 O 0.56056 0.17571 0.2453 0.0
O231 O 0.62259 0.12077 0.1618 0.0
O232 O 0.66021 0.23144 0.20853 0.0
O233 O 0.62447 0.08136 0.2345 0.0
O234 O 0.63535 0.17835 0.29729 0.0
O235 O 0.7134 0.17385 0.20889 0.0
O236 O 0.60642 0.12811 0.2883 0.0
O237 O 0.67763 0.09467 0.21319 0.0
O238 O 0.69669 0.17612 0.25762 0.0
O239 O 0.57452 0.12632 0.19193 0.0
O240 O 0.59639 0.22295 0.24862 0.0
O241 O 0.65429 0.19477 0.16701 0.0
Sc242 Sc 0.62678 0.84291 0.99093 0.0
Sc243 Sc 0.61098 0.91536 0.94058 0.0
Sc244 Sc 0.55475 0.89753 0.00293 0.0
O245 O 0.59696 0.88383 0.9774 0.0
C246 C 0.5467 0.816 0.99868 0.0
C247 C 0.63742 0.83814 0.91734 0.0
C248 C 0.53023 0.9062 0.92953 0.0
C249 C 0.68233 0.90606 0.97971 0.0
C250 C 0.60542 0.87145 0.05836 0.0
C251 C 0.57257 0.96923 0.98765 0.0
O252 O 0.58004 0.81056 0.99687 0.0
O253 O 0.63575 0.87169 0.9133 0.0
O254 O 0.52489 0.91009 0.95935 0.0
O255 O 0.67448 0.87407 0.98654 0.0
O256 O 0.57713 0.8856 0.0484 0.0
O257 O 0.58252 0.96279 0.95934 0.0
O258 O 0.62727 0.85638 0.04011 0.0
O259 O 0.66138 0.92706 0.96474 0.0
O260 O 0.57994 0.94688 0.00834 0.0
O261 O 0.6303 0.82373 0.94366 0.0
O262 O 0.53287 0.84653 0.9996 0.0
O263 O 0.56131 0.90334 0.91781 0.0
Sc264 Sc 0.91335 0.12743 0.75972 0.0
Sc265 Sc 0.84233 0.14597 0.81037 0.0
Sc266 Sc 0.86263 0.20265 0.74892 0.0
O267 O 0.87394 0.15896 0.77353 0.0
C268 C 0.94445 0.20612 0.75281 0.0
C269 C 0.91886 0.11747 0.83323 0.0
C270 C 0.85582 0.22592 0.82218 0.0
C271 C 0.84856 0.07402 0.7721 0.0
C272 C 0.88544 0.15096 0.693 0.0
C273 C 0.78968 0.18709 0.76329 0.0
O274 O 0.94785 0.17249 0.75301 0.0
O275 O 0.88534 0.11967 0.83741 0.0
O276 O 0.85029 0.23238 0.79276 0.0
O277 O 0.88067 0.08086 0.76498 0.0
O278 O 0.87427 0.18049 0.70317 0.0
O279 O 0.79602 0.17648 0.79151 0.0
O280 O 0.89827 0.12749 0.71102 0.0
O281 O 0.82824 0.09596 0.78666 0.0
O282 O 0.81201 0.1805 0.74233 0.0
O283 O 0.93316 0.12385 0.80673 0.0
O284 O 0.91477 0.22182 0.75334 0.0
O285 O 0.85754 0.19446 0.83305 0.0
Sc286 Sc 0.55338 0.1117 0.49808 0.0
Sc287 Sc 0.60999 0.09294 0.56036 0.0
Sc288 Sc 0.6284 0.16286 0.50887 0.0
O289 O 0.59697 0.12355 0.52286 0.0
C290 C 0.6056 0.13393 0.44225 0.0
C291 C 0.56854 0.03925 0.51449 0.0
C292 C 0.682 0.0986 0.52232 0.0
C293 C 0.52975 0.10687 0.57139 0.0
C294 C 0.5498 0.19348 0.50121 0.0
C295 C 0.63743 0.16992 0.58237 0.0
O296 O 0.57602 0.12257 0.45225 0.0
O297 O 0.57992 0.04621 0.54234 0.0
O298 O 0.67509 0.13057 0.51479 0.0
O299 O 0.52341 0.10058 0.54206 0.0
O300 O 0.58338 0.19713 0.50169 0.0
O301 O 0.63611 0.13643 0.58688 0.0
O302 O 0.53406 0.16384 0.50135 0.0
O303 O 0.56119 0.10857 0.58241 0.0
O304 O 0.63127 0.18345 0.55551 0.0
O305 O 0.5752 0.06072 0.49278 0.0
O306 O 0.6287 0.14685 0.46057 0.0
O307 O 0.6601 0.07846 0.53711 0.0
Sc308 Sc 0.64329 0.80279 0.24971 0.0
Sc309 Sc 0.66416 0.8597 0.31099 0.0
Sc310 Sc 0.59148 0.87681 0.26156 0.0
O311 O 0.63166 0.84595 0.27488 0.0
C312 C 0.61816 0.85403 0.19421 0.0
C313 C 0.71609 0.82032 0.26245 0.0
C314 C 0.65535 0.93142 0.27256 0.0
C315 C 0.65504 0.7792 0.32305 0.0
C316 C 0.56209 0.79744 0.25614 0.0
C317 C 0.58729 0.88636 0.33517 0.0
O318 O 0.62976 0.82449 0.20404 0.0
O319 O 0.71069 0.83089 0.29082 0.0
O320 O 0.6232 0.92408 0.26607 0.0
O321 O 0.65749 0.77323 0.2932 0.0
O322 O 0.55766 0.83097 0.25564 0.0
O323 O 0.62093 0.88454 0.33895 0.0
O324 O 0.59205 0.78239 0.25557 0.0
O325 O 0.65226 0.81047 0.33426 0.0
O326 O 0.57267 0.88028 0.30874 0.0
O327 O 0.6929 0.82673 0.24219 0.0
O328 O 0.60586 0.87715 0.2128 0.0
O329 O 0.67625 0.90996 0.28697 0.0
Sc330 Sc 0.95165 0.89779 0.99804 0.0
Sc331 Sc 0.897 0.91555 0.06189 0.0
Sc332 Sc 0.87933 0.84415 0.01133 0.0
O333 O 0.90995 0.88455 0.02444 0.0
C334 C 0.89773 0.87374 0.94401 0.0
C335 C 0.93436 0.96957 0.01422 0.0
C336 C 0.82395 0.9063 0.02598 0.0
C337 C 0.97803 0.90714 0.07099 0.0
C338 C 0.95881 0.81647 1.00024 0.0
C339 C 0.87583 0.83738 0.08526 0.0
O340 O 0.92746 0.88572 0.95307 0.0
O341 O 0.92446 0.96327 0.0426 0.0
O342 O 0.83146 0.87424 0.01927 0.0
O343 O 0.98288 0.91026 0.04101 0.0
O344 O 0.92538 0.81166 0.00186 0.0
O345 O 0.87415 0.87093 0.08951 0.0
O346 O 0.97337 0.84667 1.00081 0.0
O347 O 0.94729 0.9039 0.08323 0.0
O348 O 0.88048 0.82394 0.05811 0.0
O349 O 0.92668 0.94733 0.99348 0.0
O350 O 0.87565 0.86036 0.96307 0.0
O351 O 0.8458 0.9275 0.03952 0.0
Sc352 Sc 0.64315 0.70201 0.74973 0.0
Sc353 Sc 0.66465 0.64635 0.81201 0.0
Sc354 Sc 0.59208 0.62753 0.76283 0.0
O355 O 0.63201 0.6591 0.7756 0.0
C356 C 0.56163 0.7063 0.75571 0.0
C357 C 0.65454 0.72697 0.82282 0.0
C358 C 0.58843 0.6181 0.83652 0.0
C359 C 0.71629 0.68601 0.76336 0.0
C360 C 0.61816 0.64977 0.69489 0.0
C361 C 0.65662 0.57381 0.7746 0.0
O362 O 0.59139 0.72178 0.75449 0.0
O363 O 0.6523 0.6959 0.83458 0.0
O364 O 0.57356 0.62401 0.81017 0.0
O365 O 0.6934 0.67908 0.74294 0.0
O366 O 0.60567 0.62699 0.71376 0.0
O367 O 0.67726 0.59571 0.78881 0.0
O368 O 0.63038 0.67919 0.70439 0.0
O369 O 0.71085 0.67551 0.79173 0.0
O370 O 0.62454 0.58083 0.76758 0.0
O371 O 0.65646 0.73247 0.79286 0.0
O372 O 0.55769 0.67276 0.7569 0.0
O373 O 0.62196 0.62113 0.84032 0.0
Sc374 Sc 0.62785 0.34227 0.01051 0.0
Sc375 Sc 0.6109 0.41317 0.06146 0.0
Sc376 Sc 0.55436 0.39543 0.99914 0.0
O377 O 0.59729 0.38241 0.02419 0.0
C378 C 0.60648 0.37196 0.94358 0.0
C379 C 0.68243 0.40607 0.02314 0.0
C380 C 0.5699 0.4673 0.01606 0.0
C381 C 0.63824 0.33619 0.08371 0.0
C382 C 0.54859 0.31354 1.00097 0.0
C383 C 0.53064 0.40025 0.07257 0.0
O384 O 0.62877 0.35782 0.962 0.0
O385 O 0.66082 0.42685 0.03757 0.0
O386 O 0.57727 0.44599 0.99444 0.0
O387 O 0.6304 0.32196 0.05747 0.0
O388 O 0.53389 0.34368 0.00153 0.0
O389 O 0.56204 0.3981 0.08367 0.0
O390 O 0.58203 0.30888 0.00278 0.0
O391 O 0.63719 0.36975 0.08777 0.0
O392 O 0.5244 0.40648 0.04319 0.0
O393 O 0.67516 0.37392 0.01641 0.0
O394 O 0.57739 0.38467 0.95345 0.0
O395 O 0.58099 0.46021 0.04393 0.0
Sc396 Sc 0.91237 0.38012 0.26154 0.0
Sc397 Sc 0.84107 0.36059 0.31137 0.0
Sc398 Sc 0.86103 0.30549 0.24839 0.0
O399 O 0.87256 0.34846 0.27418 0.0
C400 C 0.88462 0.35874 0.19377 0.0
C401 C 0.84724 0.4331 0.27417 0.0
C402 C 0.78839 0.31933 0.26438 0.0
C403 C 0.91712 0.38924 0.33519 0.0
C404 C 0.94297 0.3017 0.25338 0.0
C405 C 0.8555 0.28036 0.32132 0.0
O406 O 0.89829 0.38088 0.21262 0.0
O407 O 0.82691 0.41097 0.2885 0.0
O408 O 0.80993 0.32699 0.24302 0.0
O409 O 0.93163 0.38314 0.30875 0.0
O410 O 0.9132 0.28632 0.25167 0.0
O411 O 0.85665 0.31157 0.33286 0.0
O412 O 0.94698 0.33518 0.25526 0.0
O413 O 0.88361 0.38674 0.33909 0.0
O414 O 0.84982 0.27447 0.2918 0.0
O415 O 0.87936 0.42643 0.26692 0.0
O416 O 0.87198 0.32943 0.20314 0.0
O417 O 0.79487 0.33035 0.29242 0.0
Sc418 Sc 0.87575 0.6627 0.51257 0.0
Sc419 Sc 0.8947 0.59069 0.562 0.0
Sc420 Sc 0.95041 0.61206 0.50002 0.0
O421 O 0.9074 0.62308 0.52559 0.0
C422 C 0.89775 0.63629 0.44517 0.0
C423 C 0.8221 0.59837 0.52505 0.0
C424 C 0.93453 0.53905 0.51339 0.0
C425 C 0.86761 0.66734 0.58622 0.0
C426 C 0.95457 0.69341 0.50471 0.0
C427 C 0.97518 0.60127 0.57297 0.0
O428 O 0.87432 0.64766 0.46395 0.0
O429 O 0.84427 0.57762 0.53872 0.0
O430 O 0.92745 0.56188 0.49296 0.0
O431 O 0.87354 0.68195 0.55974 0.0
O432 O 0.97024 0.66374 0.50533 0.0
O433 O 0.94404 0.60371 0.58452 0.0
O434 O 0.92094 0.69698 0.50496 0.0
O435 O 0.86947 0.6337 0.58998 0.0
O436 O 0.98068 0.59824 0.54311 0.0
O437 O 0.82887 0.63065 0.51858 0.0
O438 O 0.92769 0.62543 0.45475 0.0
O439 O 0.92406 0.54452 0.54179 0.0
Sc440 Sc 0.64591 0.30428 0.75258 0.0
Sc441 Sc 0.66359 0.36107 0.69043 0.0
Sc442 Sc 0.59153 0.37679 0.74077 0.0
O443 O 0.63243 0.34692 0.72737 0.0
C444 C 0.56394 0.29701 0.74878 0.0
C445 C 0.65317 0.28066 0.67877 0.0
C446 C 0.58656 0.38816 0.66748 0.0
C447 C 0.71785 0.32064 0.73625 0.0
C448 C 0.62103 0.35563 0.80796 0.0
C449 C 0.65519 0.43203 0.72962 0.0
O450 O 0.59446 0.28319 0.74999 0.0
O451 O 0.6504 0.31199 0.66761 0.0
O452 O 0.57216 0.38022 0.69358 0.0
O453 O 0.69625 0.32765 0.75769 0.0
O454 O 0.60544 0.37714 0.78973 0.0
O455 O 0.67613 0.41094 0.71479 0.0
O456 O 0.63515 0.32723 0.79815 0.0
O457 O 0.71087 0.3317 0.70835 0.0
O458 O 0.62307 0.42438 0.73625 0.0
O459 O 0.65726 0.27466 0.70851 0.0
O460 O 0.55862 0.33034 0.74683 0.0
O461 O 0.62015 0.38688 0.66357 0.0
Sc462 Sc 0.95204 0.39922 0.00311 0.0
Sc463 Sc 0.89618 0.41532 0.93976 0.0
Sc464 Sc 0.87984 0.3446 0.99143 0.0
O465 O 0.90984 0.38521 0.97759 0.0
C466 C 0.9596 0.31769 0.00144 0.0
C467 C 0.97711 0.40582 0.92971 0.0
C468 C 0.87453 0.33699 0.91754 0.0
C469 C 0.93501 0.47054 0.98558 0.0
C470 C 0.89945 0.37547 0.05818 0.0
C471 C 0.82405 0.40663 0.97721 0.0
O472 O 0.97377 0.34807 1.00098 0.0
O473 O 0.94606 0.40275 0.91799 0.0
O474 O 0.87987 0.32391 0.94472 0.0
O475 O 0.92764 0.44915 0.00713 0.0
O476 O 0.87742 0.36066 0.03987 0.0
O477 O 0.84545 0.42763 0.96283 0.0
O478 O 0.92853 0.3883 0.04847 0.0
O479 O 0.92415 0.4634 0.95765 0.0
O480 O 0.83181 0.37471 0.98429 0.0
O481 O 0.98243 0.41042 0.95948 0.0
O482 O 0.92622 0.3125 1.00004 0.0
O483 O 0.87259 0.37046 0.91306 0.0
Sc484 Sc 0.85943 0.70265 0.25347 0.0
Sc485 Sc 0.84249 0.64604 0.19115 0.0
Sc486 Sc 0.91313 0.62942 0.24273 0.0
O487 O 0.87294 0.65976 0.22865 0.0
C488 C 0.94133 0.70894 0.25153 0.0
C489 C 0.8556 0.72619 0.18004 0.0
C490 C 0.91971 0.61945 0.16923 0.0
C491 C 0.78789 0.68658 0.23618 0.0
C492 C 0.88282 0.65121 0.30938 0.0
C493 C 0.84918 0.57489 0.23013 0.0
O494 O 0.91106 0.72339 0.25139 0.0
O495 O 0.85771 0.69479 0.16901 0.0
O496 O 0.93359 0.62637 0.19583 0.0
O497 O 0.80911 0.67917 0.25783 0.0
O498 O 0.89787 0.62902 0.29142 0.0
O499 O 0.82872 0.59624 0.21505 0.0
O500 O 0.86967 0.67992 0.2992 0.0
O501 O 0.7952 0.67575 0.2083 0.0
O502 O 0.88125 0.58217 0.23728 0.0
O503 O 0.84877 0.73248 0.20929 0.0
O504 O 0.94629 0.67553 0.24977 0.0
O505 O 0.88617 0.62013 0.16504 0.0
Sc506 Sc 0.5529 0.60861 0.50301 0.0
Sc507 Sc 0.60918 0.59113 0.44066 0.0
Sc508 Sc 0.62552 0.66259 0.49185 0.0
O509 O 0.59531 0.62227 0.47776 0.0
C510 C 0.54568 0.69009 0.49999 0.0
C511 C 0.52869 0.60083 0.42943 0.0
C512 C 0.63622 0.66856 0.41837 0.0
C513 C 0.57009 0.53717 0.48723 0.0
C514 C 0.6037 0.63336 0.55891 0.0
C515 C 0.68052 0.5992 0.47973 0.0
O516 O 0.53139 0.65973 0.5 0.0
O517 O 0.55984 0.60404 0.41796 0.0
O518 O 0.62884 0.68257 0.44481 0.0
O519 O 0.578 0.55924 0.508 0.0
O520 O 0.62605 0.64795 0.54081 0.0
O521 O 0.6593 0.57851 0.46473 0.0
O522 O 0.57506 0.62012 0.54872 0.0
O523 O 0.58005 0.54372 0.45892 0.0
O524 O 0.67299 0.6312 0.48678 0.0
O525 O 0.52317 0.59646 0.45918 0.0
O526 O 0.57908 0.69526 0.4985 0.0
O527 O 0.63459 0.63503 0.41399 0.0
Sc528 Sc 0.41231 0.3785 0.24202 0.0
Sc529 Sc 0.34192 0.35941 0.19066 0.0
Sc530 Sc 0.36175 0.30331 0.25304 0.0
O531 O 0.37299 0.34675 0.22809 0.0
C532 C 0.44347 0.30014 0.25014 0.0
C533 C 0.41942 0.38332 0.16793 0.0
C534 C 0.35323 0.27879 0.17978 0.0
C535 C 0.34833 0.43192 0.22809 0.0
C536 C 0.38373 0.35621 0.3086 0.0
C537 C 0.28877 0.31865 0.23748 0.0
O538 O 0.44656 0.33376 0.25047 0.0
O539 O 0.38589 0.38386 0.16342 0.0
O540 O 0.34982 0.27305 0.20958 0.0
O541 O 0.38048 0.4253 0.23514 0.0
O542 O 0.37328 0.32633 0.29853 0.0
O543 O 0.29513 0.33034 0.20963 0.0
O544 O 0.3961 0.37987 0.29048 0.0
O545 O 0.32814 0.40981 0.21367 0.0
O546 O 0.31071 0.32486 0.25897 0.0
O547 O 0.43278 0.37933 0.19521 0.0
O548 O 0.41392 0.28427 0.24891 0.0
O549 O 0.35535 0.31001 0.16836 0.0
Sc550 Sc 0.37715 0.66272 0.99023 0.0
Sc551 Sc 0.39668 0.59081 0.94093 0.0
Sc552 Sc 0.4518 0.61247 0.00346 0.0
O553 O 0.40901 0.62314 0.9775 0.0
C554 C 0.4556 0.69368 0.99876 0.0
C555 C 0.37346 0.66815 0.91625 0.0
C556 C 0.47752 0.60058 0.93088 0.0
C557 C 0.32352 0.59899 0.97705 0.0
C558 C 0.39808 0.63617 0.05766 0.0
C559 C 0.43586 0.53924 0.99021 0.0
O560 O 0.42198 0.69684 0.99897 0.0
O561 O 0.37292 0.63446 0.91238 0.0
O562 O 0.48271 0.59856 0.96085 0.0
O563 O 0.33011 0.63142 0.98288 0.0
O564 O 0.42838 0.6261 0.04833 0.0
O565 O 0.42525 0.54446 0.96179 0.0
O566 O 0.3745 0.64695 0.03868 0.0
O567 O 0.34589 0.5781 0.96386 0.0
O568 O 0.429 0.56224 0.01055 0.0
O569 O 0.37742 0.68219 0.94324 0.0
O570 O 0.47142 0.66411 0.99793 0.0
O571 O 0.44658 0.60288 0.91885 0.0
Sc572 Sc 0.09252 0.6278 0.74225 0.0
Sc573 Sc 0.16326 0.64628 0.69102 0.0
Sc574 Sc 0.14285 0.70332 0.75249 0.0
O575 O 0.13178 0.65943 0.72802 0.0
C576 C 0.0611 0.70634 0.74893 0.0
C577 C 0.08638 0.61823 0.66856 0.0
C578 C 0.15163 0.72656 0.67904 0.0
C579 C 0.15701 0.5743 0.7294 0.0
C580 C 0.12024 0.65197 0.80871 0.0
C581 C 0.21596 0.68804 0.73776 0.0
O582 O 0.05784 0.6727 0.74906 0.0
O583 O 0.11986 0.62046 0.66408 0.0
O584 O 0.15504 0.7327 0.70875 0.0
O585 O 0.1251 0.58124 0.73702 0.0
O586 O 0.13116 0.68147 0.79827 0.0
O587 O 0.20975 0.67618 0.70992 0.0
O588 O 0.10782 0.62809 0.79088 0.0
O589 O 0.17709 0.59614 0.71451 0.0
O590 O 0.19387 0.68193 0.75911 0.0
O591 O 0.07255 0.62403 0.69538 0.0
O592 O 0.09068 0.7222 0.74794 0.0
O593 O 0.14954 0.69518 0.66794 0.0
Sc594 Sc 0.12578 0.34365 0.4915 0.0
Sc595 Sc 0.10864 0.41465 0.44074 0.0
Sc596 Sc 0.05293 0.39704 0.5039 0.0
O597 O 0.09521 0.38397 0.47815 0.0
C598 C 0.04658 0.3156 0.50259 0.0
C599 C 0.13011 0.33647 0.41791 0.0
C600 C 0.02776 0.40522 0.43048 0.0
C601 C 0.18111 0.40578 0.47731 0.0
C602 C 0.10693 0.37401 0.55839 0.0
C603 C 0.06927 0.46901 0.48701 0.0
O604 O 0.08003 0.31106 0.50138 0.0
O605 O 0.13253 0.37001 0.41387 0.0
O606 O 0.02227 0.40857 0.46036 0.0
O607 O 0.17376 0.3735 0.48324 0.0
O608 O 0.0771 0.38562 0.5491 0.0
O609 O 0.08042 0.46229 0.45909 0.0
O610 O 0.12923 0.3606 0.53954 0.0
O611 O 0.15923 0.42714 0.46403 0.0
O612 O 0.07644 0.44739 0.50847 0.0
O613 O 0.12442 0.32296 0.44486 0.0
O614 O 0.03181 0.34564 0.50134 0.0
O615 O 0.05879 0.40226 0.41875 0.0
Sc616 Sc 0.4108 0.62736 0.26031 0.0
Sc617 Sc 0.33974 0.6455 0.31152 0.0
Sc618 Sc 0.35928 0.70186 0.24924 0.0
O619 O 0.37127 0.6587 0.27443 0.0
C620 C 0.44088 0.70633 0.25362 0.0
C621 C 0.41695 0.61823 0.33423 0.0
C622 C 0.34965 0.72616 0.32261 0.0
C623 C 0.34679 0.57332 0.27304 0.0
C624 C 0.38265 0.65053 0.19339 0.0
C625 C 0.2867 0.68505 0.26414 0.0
O626 O 0.44477 0.67277 0.25423 0.0
O627 O 0.38352 0.62077 0.33886 0.0
O628 O 0.34691 0.73186 0.29276 0.0
O629 O 0.37853 0.58061 0.26511 0.0
O630 O 0.37078 0.67974 0.20355 0.0
O631 O 0.29277 0.67445 0.29238 0.0
O632 O 0.3961 0.62746 0.21145 0.0
O633 O 0.32673 0.59483 0.28834 0.0
O634 O 0.30919 0.67829 0.24337 0.0
O635 O 0.43063 0.6234 0.30724 0.0
O636 O 0.41112 0.72188 0.25314 0.0
O637 O 0.35234 0.69502 0.33414 0.0
Sc638 Sc 0.05374 0.61355 0.99979 0.0
Sc639 Sc 0.11021 0.5915 0.06108 0.0
Sc640 Sc 0.12891 0.66361 0.01167 0.0
O641 O 0.0972 0.62413 0.02492 0.0
C642 C 0.10573 0.63787 0.94453 0.0
C643 C 0.06971 0.54024 0.01247 0.0
C644 C 0.18246 0.59906 0.02349 0.0
C645 C 0.02994 0.6025 0.07295 0.0
C646 C 0.05017 0.69485 0.00468 0.0
C647 C 0.13771 0.66801 0.08519 0.0
O648 O 0.07581 0.62724 0.95434 0.0
O649 O 0.08046 0.54556 0.04082 0.0
O650 O 0.17575 0.63139 0.01719 0.0
O651 O 0.02405 0.59964 0.04313 0.0
O652 O 0.08383 0.69817 0.00445 0.0
O653 O 0.13582 0.63437 0.08894 0.0
O654 O 0.03433 0.66528 0.00564 0.0
O655 O 0.06124 0.60451 0.08425 0.0
O656 O 0.13167 0.68269 0.05878 0.0
O657 O 0.07627 0.56329 0.99208 0.0
O658 O 0.12964 0.64863 0.96311 0.0
O659 O 0.16034 0.57836 0.03729 0.0
Sc660 Sc 0.14831 0.30527 0.7483 0.0
Sc661 Sc 0.16561 0.36054 0.81173 0.0
Sc662 Sc 0.09398 0.37751 0.76105 0.0
O663 O 0.13467 0.34725 0.7743 0.0
C664 C 0.12396 0.35792 0.69369 0.0
C665 C 0.21997 0.32121 0.76555 0.0
C666 C 0.1574 0.43244 0.77374 0.0
C667 C 0.15527 0.27978 0.82163 0.0
C668 C 0.06642 0.29794 0.75119 0.0
C669 C 0.08823 0.38645 0.8347 0.0
O670 O 0.13785 0.32923 0.70308 0.0
O671 O 0.21307 0.33185 0.79357 0.0
O672 O 0.12534 0.42499 0.76677 0.0
O673 O 0.15927 0.27459 0.79178 0.0
O674 O 0.06118 0.33124 0.75378 0.0
O675 O 0.12181 0.38539 0.8388 0.0
O676 O 0.09689 0.284 0.75023 0.0
O677 O 0.15269 0.31076 0.83361 0.0
O678 O 0.0742 0.3797 0.80813 0.0
O679 O 0.19855 0.32908 0.74418 0.0
O680 O 0.10838 0.3791 0.71222 0.0
O681 O 0.1782 0.41103 0.78836 0.0
Sc682 Sc 0.45179 0.3956 0.4993 0.0
Sc683 Sc 0.39502 0.41535 0.56125 0.0
Sc684 Sc 0.37864 0.34253 0.51202 0.0
O685 O 0.40888 0.38348 0.52471 0.0
C686 C 0.39941 0.37 0.44447 0.0
C687 C 0.43468 0.46828 0.51347 0.0
C688 C 0.32287 0.40521 0.52398 0.0
C689 C 0.47595 0.40659 0.57251 0.0
C690 C 0.45809 0.31424 0.50476 0.0
C691 C 0.37303 0.33802 0.58604 0.0
O692 O 0.42886 0.38228 0.45401 0.0
O693 O 0.42301 0.46243 0.54141 0.0
O694 O 0.33067 0.37307 0.51788 0.0
O695 O 0.48174 0.40911 0.54264 0.0
O696 O 0.42465 0.30943 0.50461 0.0
O697 O 0.37133 0.37167 0.58943 0.0
O698 O 0.47271 0.3444 0.50445 0.0
O699 O 0.44476 0.40397 0.58396 0.0
O700 O 0.37838 0.3237 0.55937 0.0
O701 O 0.42849 0.44575 0.4925 0.0
O702 O 0.37668 0.35719 0.46326 0.0
O703 O 0.3443 0.42673 0.53769 0.0
C704 C 0.1742 0.01147 0.27965 0.0
C705 C 0.16907 0.04006 0.25884 0.0
C706 C 0.17463 0.97634 0.26832 0.0
C707 C 0.17047 0.96864 0.2358 0.0
H708 H 0.17466 0.01599 0.30501 0.0
H709 H 0.17538 0.95492 0.2854 0.0
S710 S 0.1591 0.03436 0.17149 0.0
N711 N 0.16213 0.05848 0.20405 0.0
N712 N 0.16334 0.99274 0.18294 0.0
C713 C 0.16798 0.99715 0.21464 0.0
C714 C 0.16721 0.03279 0.22613 0.0
C715 C 0.27917 0.92406 0.51983 0.0
C716 C 0.28708 0.92044 0.48729 0.0
C717 C 0.24395 0.92387 0.53092 0.0
C718 C 0.21545 0.91955 0.50986 0.0
H719 H 0.30046 0.92421 0.53705 0.0
H720 H 0.23925 0.92389 0.55625 0.0
S721 S 0.22169 0.91123 0.42241 0.0
N722 N 0.26328 0.91471 0.43418 0.0
N723 N 0.19735 0.91392 0.45485 0.0
C724 C 0.22295 0.91825 0.47717 0.0
C725 C 0.25869 0.91879 0.46591 0.0
C726 C 0.33592 0.00934 0.7166 0.0
C727 C 0.33489 0.03867 0.73707 0.0
C728 C 0.33651 0.97452 0.7286 0.0
C729 C 0.3359 0.96765 0.7615 0.0
H730 H 0.3394 0.01335 0.69137 0.0
H731 H 0.3402 0.95287 0.71209 0.0
S732 S 0.33155 0.03526 0.82492 0.0
N733 N 0.3317 0.05849 0.79173 0.0
N734 N 0.33249 0.99322 0.81411 0.0
C735 C 0.33251 0.99664 0.78206 0.0
C736 C 0.33213 0.03209 0.76987 0.0
C737 C 0.26042 0.08518 0.03347 0.0
C738 C 0.28921 0.08522 0.0124 0.0
C739 C 0.2253 0.0857 0.02215 0.0
C740 C 0.21765 0.08594 0.9894 0.0
H741 H 0.26502 0.08797 0.05869 0.0
H742 H 0.20401 0.08871 0.03915 0.0
S743 S 0.2837 0.08393 0.9246 0.0
N744 N 0.30774 0.08359 0.95733 0.0
N745 N 0.24192 0.08412 0.93624 0.0
C746 C 0.24615 0.08342 0.96822 0.0
C747 C 0.28187 0.0832 0.9797 0.0
C748 C 0.83409 0.99595 0.71776 0.0
C749 C 0.83637 0.96716 0.73874 0.0
C750 C 0.83397 0.03107 0.72913 0.0
C751 C 0.8357 0.03865 0.76187 0.0
H752 H 0.83553 0.99147 0.69243 0.0
H753 H 0.83531 0.05249 0.7121 0.0
S754 S 0.83967 0.97248 0.82651 0.0
N755 N 0.83837 0.9485 0.79378 0.0
N756 N 0.83777 0.01424 0.81496 0.0
C757 C 0.83547 0.01003 0.78305 0.0
C758 C 0.8359 0.97437 0.77151 0.0
C759 C 0.75969 0.08362 0.46779 0.0
C760 C 0.78862 0.08646 0.48858 0.0
C761 C 0.72466 0.08342 0.47937 0.0
C762 C 0.71732 0.08567 0.51212 0.0
H763 H 0.76396 0.08472 0.44242 0.0
H764 H 0.7031 0.08436 0.46243 0.0
S765 S 0.78392 0.09143 0.57632 0.0
N766 N 0.80767 0.08966 0.54348 0.0
N767 N 0.7421 0.08895 0.56503 0.0
C768 C 0.74609 0.08603 0.53314 0.0
C769 C 0.78166 0.08652 0.5214 0.0
C770 C 0.66974 0.03032 0.27071 0.0
C771 C 0.66827 0.03784 0.23797 0.0
C772 C 0.66977 0.99523 0.28209 0.0
C773 C 0.66789 0.9664 0.26111 0.0
H774 H 0.66827 0.05177 0.28772 0.0
H775 H 0.66819 0.99076 0.30742 0.0
S776 S 0.66535 0.97163 0.17331 0.0
N777 N 0.66689 0.01341 0.18486 0.0
N778 N 0.66639 0.94766 0.20607 0.0
C779 C 0.66848 0.97357 0.22834 0.0
C780 C 0.66882 0.00923 0.21679 0.0
C781 C 0.78122 0.92108 0.98288 0.0
C782 C 0.78839 0.91843 0.01564 0.0
C783 C 0.74625 0.92125 0.97114 0.0
C784 C 0.7172 0.91834 0.99177 0.0
H785 H 0.80288 0.92038 0.96605 0.0
H786 H 0.74209 0.92057 0.94574 0.0
S787 S 0.72145 0.91259 0.0795 0.0
N788 N 0.76335 0.91481 0.06842 0.0
N789 N 0.69786 0.91473 0.04656 0.0
C790 C 0.72401 0.91779 0.02461 0.0
C791 C 0.75953 0.91792 0.03652 0.0
C792 C 0.67241 0.53063 0.73218 0.0
C793 C 0.66908 0.53821 0.76481 0.0
C794 C 0.672 0.49553 0.72077 0.0
C795 C 0.66772 0.46682 0.7416 0.0
H796 H 0.67258 0.55211 0.71515 0.0
H797 H 0.67191 0.49109 0.6954 0.0
S798 S 0.65983 0.47216 0.82912 0.0
N799 N 0.66344 0.51385 0.81771 0.0
N800 N 0.66223 0.44816 0.79645 0.0
C801 C 0.66655 0.47398 0.77435 0.0
C802 C 0.66732 0.50959 0.78593 0.0
C803 C 0.75978 0.41884 0.96758 0.0
C804 C 0.78885 0.41891 0.98836 0.0
C805 C 0.72481 0.41852 0.97924 0.0
C806 C 0.7176 0.41861 0.01208 0.0
H807 H 0.76404 0.41597 0.94231 0.0
H808 H 0.70327 0.41551 0.96248 0.0
S809 S 0.78452 0.42069 0.0762 0.0
N810 N 0.80813 0.42076 0.04324 0.0
N811 N 0.7426 0.42058 0.06498 0.0
C812 C 0.7464 0.42106 0.03296 0.0
C813 C 0.78196 0.42107 0.02113 0.0
C814 C 0.83137 0.47645 0.23196 0.0
C815 C 0.83444 0.46864 0.26457 0.0
C816 C 0.83195 0.51162 0.22075 0.0
C817 C 0.83612 0.54017 0.24178 0.0
H818 H 0.8314 0.4551 0.21481 0.0
H819 H 0.83234 0.51624 0.19541 0.0
S820 S 0.84316 0.5342 0.32934 0.0
N821 N 0.83958 0.49259 0.31766 0.0
N822 N 0.84107 0.55843 0.29679 0.0
C823 C 0.8369 0.53278 0.27451 0.0
C824 C 0.83597 0.49709 0.28587 0.0
C825 C 0.74416 0.58322 0.47071 0.0
C826 C 0.71531 0.58649 0.49153 0.0
C827 C 0.77922 0.58307 0.48222 0.0
C828 C 0.78665 0.58573 0.51493 0.0
H829 H 0.73979 0.58394 0.44534 0.0
H830 H 0.80074 0.58367 0.46526 0.0
S831 S 0.72029 0.59231 0.57921 0.0
N832 N 0.69643 0.59031 0.54642 0.0
N833 N 0.76207 0.58964 0.56786 0.0
C834 C 0.75796 0.58647 0.536 0.0
C835 C 0.72237 0.58694 0.52432 0.0
C836 C 0.33303 0.49549 0.21839 0.0
C837 C 0.33485 0.46664 0.23934 0.0
C838 C 0.33275 0.53055 0.22985 0.0
C839 C 0.33393 0.53803 0.26263 0.0
H840 H 0.33505 0.4911 0.19308 0.0
H841 H 0.33449 0.55202 0.21289 0.0
S842 S 0.33634 0.47166 0.32715 0.0
N843 N 0.33566 0.44778 0.29435 0.0
N844 N 0.33476 0.51346 0.31569 0.0
C845 C 0.33309 0.50936 0.28374 0.0
C846 C 0.33367 0.47373 0.27211 0.0
C847 C 0.25961 0.58419 0.96818 0.0
C848 C 0.28878 0.58606 0.9888 0.0
C849 C 0.22468 0.58442 0.97999 0.0
C850 C 0.21765 0.58623 0.0128 0.0
H851 H 0.26369 0.5857 0.9428 0.0
H852 H 0.20299 0.58598 0.96322 0.0
S853 S 0.28488 0.58979 0.07662 0.0
N854 N 0.30833 0.58808 0.04361 0.0
N855 N 0.24292 0.58824 0.06559 0.0
C856 C 0.2466 0.58575 0.03363 0.0
C857 C 0.28208 0.58574 0.02166 0.0
C858 C 0.17192 0.53131 0.77219 0.0
C859 C 0.17003 0.53897 0.73949 0.0
C860 C 0.17212 0.49618 0.78347 0.0
C861 C 0.17 0.46745 0.7624 0.0
H862 H 0.17046 0.55267 0.78929 0.0
H863 H 0.17074 0.49161 0.80879 0.0
S864 S 0.16664 0.473 0.67465 0.0
N865 N 0.1682 0.51474 0.68631 0.0
N866 N 0.16811 0.44892 0.70732 0.0
C867 C 0.17038 0.47475 0.72965 0.0
C868 C 0.17053 0.51045 0.71821 0.0
C869 C 0.24563 0.41612 0.46775 0.0
C870 C 0.21646 0.41787 0.48833 0.0
C871 C 0.28053 0.41563 0.47958 0.0
C872 C 0.28762 0.41709 0.5124 0.0
H873 H 0.24142 0.41222 0.44258 0.0
H874 H 0.30207 0.41155 0.46302 0.0
S875 S 0.22049 0.4234 0.57608 0.0
N876 N 0.19701 0.42245 0.54303 0.0
N877 N 0.26246 0.42192 0.56508 0.0
C878 C 0.25879 0.42101 0.53306 0.0
C879 C 0.22326 0.42125 0.52105 0.0
C880 C 0.25817 0.27627 0.27392 0.0
C881 C 0.2669 0.28624 0.24256 0.0
C882 C 0.24418 0.24273 0.28108 0.0
C883 C 0.23832 0.21749 0.25718 0.0
H884 H 0.26272 0.2945 0.29334 0.0
H885 H 0.23686 0.23706 0.30538 0.0
S886 S 0.25753 0.22929 0.17136 0.0
N887 N 0.26884 0.26746 0.18748 0.0
N888 N 0.24319 0.20442 0.20085 0.0
C889 C 0.24725 0.22691 0.22576 0.0
C890 C 0.26108 0.26123 0.21843 0.0
C891 C 0.97829 0.00862 0.52483 0.0
C892 C 0.96814 0.01667 0.49334 0.0
C893 C 0.01197 0.99498 0.53213 0.0
C894 C 0.03719 0.98894 0.50827 0.0
H895 H 0.96015 0.01356 0.54421 0.0
H896 H 0.01786 0.98834 0.55655 0.0
S897 S 0.02459 0.00571 0.42209 0.0
N898 N 0.98644 0.01705 0.43815 0.0
N899 N 0.04982 0.99253 0.45176 0.0
C900 C 0.02746 0.99697 0.4767 0.0
C901 C 0.99297 0.01026 0.46923 0.0
C902 C 0.26052 0.76386 0.78171 0.0
C903 C 0.26613 0.78935 0.75797 0.0
C904 C 0.24667 0.73028 0.77437 0.0
C905 C 0.23787 0.72046 0.74297 0.0
H906 H 0.26783 0.76941 0.80604 0.0
H907 H 0.24225 0.7119 0.79369 0.0
S908 S 0.2467 0.77797 0.67208 0.0
N909 N 0.26097 0.80272 0.70169 0.0
N910 N 0.23568 0.73962 0.68801 0.0
C911 C 0.2435 0.74567 0.71898 0.0
C912 C 0.25716 0.78004 0.72649 0.0
C913 C 0.48063 0.00891 0.9775 0.0
C914 C 0.4704 0.017 0.00894 0.0
C915 C 0.51452 0.99582 0.97024 0.0
C916 C 0.53989 0.99025 0.99411 0.0
H917 H 0.46232 0.01322 0.9581 0.0
H918 H 0.52042 0.98904 0.94586 0.0
S919 S 0.52749 0.00811 0.08011 0.0
N920 N 0.48906 0.0186 0.06406 0.0
N921 N 0.55275 0.99482 0.05051 0.0
C922 C 0.5302 0.99857 0.02561 0.0
C923 C 0.49552 0.01145 0.03303 0.0
C924 C 0.24585 0.77636 0.27442 0.0
C925 C 0.23783 0.78658 0.24296 0.0
C926 C 0.25925 0.74258 0.28169 0.0
C927 C 0.26504 0.7173 0.25781 0.0
H928 H 0.24131 0.79463 0.2938 0.0
H929 H 0.26613 0.73672 0.30606 0.0
S930 S 0.24731 0.72964 0.17178 0.0
N931 N 0.23658 0.76799 0.18781 0.0
N932 N 0.26062 0.70443 0.20141 0.0
C933 C 0.25666 0.72694 0.22631 0.0
C934 C 0.24363 0.76154 0.21886 0.0
C935 C 0.49171 0.99554 0.47114 0.0
C936 C 0.46736 0.98807 0.4954 0.0
C937 C 0.52522 0.00981 0.47799 0.0
C938 C 0.53607 0.01736 0.50939 0.0
H939 H 0.48534 0.98936 0.44672 0.0
H940 H 0.54271 0.01551 0.45829 0.0
S941 S 0.48222 1.00255 0.58166 0.0
N942 N 0.45647 0.98943 0.55231 0.0
N943 N 0.51937 0.0159 0.56496 0.0
C944 C 0.51208 0.00978 0.5339 0.0
C945 C 0.47781 0.9955 0.52694 0.0
C946 C 0.24809 0.2778 0.72833 0.0
C947 C 0.24037 0.28787 0.7599 0.0
C948 C 0.26106 0.24394 0.72077 0.0
C949 C 0.26685 0.2184 0.74444 0.0
H950 H 0.24363 0.29624 0.70907 0.0
H951 H 0.26759 0.2382 0.6963 0.0
S952 S 0.25033 0.23044 0.83074 0.0
N953 N 0.23961 0.26895 0.81496 0.0
N954 N 0.26302 0.20529 0.80085 0.0
C955 C 0.2589 0.22795 0.77608 0.0
C956 C 0.2462 0.26261 0.78381 0.0
C957 C 0.99175 0.99744 0.03188 0.0
C958 C 0.96707 0.99057 0.0077 0.0
C959 C 0.02545 0.01121 0.02492 0.0
C960 C 0.03617 0.01873 0.9935 0.0
H961 H 0.98543 0.99133 0.05632 0.0
H962 H 0.04316 0.01668 0.04454 0.0
S963 S 0.98122 0.00581 0.92146 0.0
N964 N 0.95558 0.99282 0.95091 0.0
N965 N 0.0189 0.01801 0.93801 0.0
C966 C 0.01185 0.01165 0.96907 0.0
C967 C 0.97737 0.99804 0.97616 0.0
C968 C 0.74412 0.74343 0.78063 0.0
C969 C 0.73775 0.71835 0.7567 0.0
C970 C 0.75746 0.77722 0.77337 0.0
C971 C 0.76507 0.78764 0.74187 0.0
H972 H 0.73771 0.73743 0.80507 0.0
H973 H 0.76232 0.79532 0.79282 0.0
S974 S 0.75375 0.73133 0.67046 0.0
N975 N 0.74083 0.70596 0.70014 0.0
N976 N 0.76522 0.76945 0.6866 0.0
C977 C 0.75872 0.76279 0.71771 0.0
C978 C 0.74552 0.72822 0.72512 0.0
C979 C 0.74789 0.24119 0.22005 0.0
C980 C 0.73994 0.21684 0.2442 0.0
C981 C 0.76135 0.27501 0.22715 0.0
C982 C 0.76755 0.28621 0.25871 0.0
H983 H 0.74282 0.23454 0.19549 0.0
H984 H 0.76747 0.29247 0.20753 0.0
S985 S 0.75088 0.23257 0.33081 0.0
N986 N 0.73942 0.20638 0.30121 0.0
N987 N 0.76419 0.26983 0.31428 0.0
C988 C 0.75944 0.26222 0.28309 0.0
C989 C 0.74605 0.22764 0.27589 0.0
C990 C 0.76211 0.24469 0.78053 0.0
C991 C 0.76743 0.21898 0.75693 0.0
C992 C 0.74819 0.27823 0.77305 0.0
C993 C 0.73915 0.2878 0.74163 0.0
H994 H 0.76979 0.23938 0.80481 0.0
H995 H 0.74409 0.29682 0.79226 0.0
S996 S 0.74706 0.22956 0.67116 0.0
N997 N 0.76152 0.20504 0.70084 0.0
N998 N 0.73641 0.26812 0.68685 0.0
C999 C 0.74445 0.26233 0.71781 0.0
C1000 C 0.75806 0.22798 0.72548 0.0
C1001 C 0.76012 0.73061 0.273 0.0
C1002 C 0.7668 0.71953 0.2415 0.0
C1003 C 0.74614 0.76418 0.27996 0.0
C1004 C 0.73805 0.78835 0.25573 0.0
H1005 H 0.76618 0.71322 0.29269 0.0
H1006 H 0.74058 0.77069 0.30447 0.0
S1007 S 0.75014 0.77299 0.16923 0.0
N1008 N 0.76392 0.73592 0.18586 0.0
N1009 N 0.73794 0.79893 0.19874 0.0
C1010 C 0.74471 0.77775 0.2241 0.0
C1011 C 0.75872 0.74342 0.21702 0.0
C1012 C 0.52539 0.49467 0.97935 0.0
C1013 C 0.53694 0.48846 0.0108 0.0
C1014 C 0.4918 0.50878 0.97258 0.0
C1015 C 0.46804 0.5175 0.99697 0.0
H1016 H 0.54242 0.48814 0.95953 0.0
H1017 H 0.48493 0.5139 0.94807 0.0
S1018 S 0.48483 0.50702 0.08346 0.0
N1019 N 0.5215 0.49261 0.06657 0.0
N1020 N 0.45847 0.51882 0.05409 0.0
C1021 C 0.47915 0.51139 0.02857 0.0
C1022 C 0.51351 0.49723 0.03544 0.0
C1023 C 0.02549 0.49729 0.52377 0.0
C1024 C 0.03627 0.49008 0.4923 0.0
C1025 C 0.99173 0.51081 0.53084 0.0
C1026 C 0.96701 0.51778 0.50673 0.0
H1027 H 0.04327 0.49195 0.54336 0.0
H1028 H 0.98544 0.5168 0.5553 0.0
S1029 S 0.98124 0.50354 0.42038 0.0
N1030 N 0.01896 0.49128 0.43681 0.0
N1031 N 0.95553 0.51604 0.44994 0.0
C1032 C 0.97731 0.51058 0.47514 0.0
C1033 C 0.01186 0.49717 0.46794 0.0
C1034 C 0.01227 0.51253 0.02972 0.0
C1035 C 0.0375 0.51858 0.00587 0.0
C1036 C 0.97848 0.49921 0.02241 0.0
C1037 C 0.9682 0.49131 0.99092 0.0
H1038 H 0.01815 0.51922 0.05413 0.0
H1039 H 0.96026 0.49461 0.04181 0.0
S1040 S 0.02491 0.50173 0.9197 0.0
N1041 N 0.05017 0.5149 0.94939 0.0
N1042 N 0.98667 0.49055 0.93574 0.0
C1043 C 0.99319 0.49734 0.96682 0.0
C1044 C 0.02777 0.51051 0.97431 0.0
C1045 C 0.51209 0.5103 0.46963 0.0
C1046 C 0.537 0.5167 0.49373 0.0
C1047 C 0.47817 0.49707 0.4767 0.0
C1048 C 0.46741 0.48974 0.50816 0.0
H1049 H 0.51844 0.51632 0.44519 0.0
H1050 H 0.46031 0.49189 0.45714 0.0
S1051 S 0.52284 0.50171 0.58 0.0
N1052 N 0.54866 0.51411 0.55048 0.0
N1053 N 0.48484 0.49038 0.56359 0.0
C1054 C 0.49193 0.49648 0.5325 0.0
C1055 C 0.52667 0.50937 0.5253 0.0
C1056 C 0.16374 0.28713 0.34434 0.0
C1057 C 0.14455 0.25508 0.34594 0.0
C1058 C 0.15816 0.31456 0.36666 0.0
C1059 C 0.13295 0.31089 0.39105 0.0
H1060 H 0.18399 0.29054 0.32642 0.0
H1061 H 0.17456 0.33804 0.36556 0.0
S1062 S 0.07136 0.23498 0.40175 0.0
N1063 N 0.09649 0.22338 0.37151 0.0
N1064 N 0.08557 0.27445 0.41263 0.0
C1065 C 0.11214 0.27986 0.39141 0.0
C1066 C 0.11806 0.2521 0.36912 0.0
C1067 C 0.96717 0.91285 0.59257 0.0
C1068 C 0.99987 0.89489 0.59496 0.0
C1069 C 0.94002 0.90775 0.61529 0.0
C1070 C 0.94463 0.88435 0.641 0.0
H1071 H 0.96299 0.93179 0.57366 0.0
H1072 H 0.91592 0.9231 0.61335 0.0
S1073 S 0.02283 0.82645 0.65474 0.0
N1074 N 0.03334 0.84984 0.6231 0.0
N1075 N 0.98292 0.83994 0.66498 0.0
C1076 C 0.97644 0.86481 0.64236 0.0
C1077 C 0.00386 0.87017 0.61963 0.0
C1078 C 0.34105 0.71808 0.84241 0.0
C1079 C 0.3602 0.75014 0.84457 0.0
C1080 C 0.34638 0.69028 0.86449 0.0
C1081 C 0.37133 0.69357 0.88916 0.0
H1082 H 0.32093 0.71498 0.82432 0.0
H1083 H 0.32988 0.66689 0.86305 0.0
S1084 S 0.43262 0.76944 0.90152 0.0
N1085 N 0.40792 0.78145 0.87111 0.0
N1086 N 0.41838 0.72974 0.91168 0.0
C1087 C 0.39215 0.72459 0.89003 0.0
C1088 C 0.38647 0.75271 0.86804 0.0
C1089 C 0.53062 0.09653 0.14705 0.0
C1090 C 0.5641 0.11057 0.13915 0.0
C1091 C 0.5035 0.09326 0.12462 0.0
C1092 C 0.50843 0.10352 0.09291 0.0
H1093 H 0.52476 0.08892 0.17125 0.0
H1094 H 0.47815 0.08311 0.13245 0.0
S1095 S 0.59168 0.1396 0.0589 0.0
N1096 N 0.60119 0.1332 0.09672 0.0
N1097 N 0.55028 0.12647 0.05416 0.0
C1098 C 0.54234 0.11582 0.08407 0.0
C1099 C 0.57013 0.11942 0.10721 0.0
C1100 C 0.16174 0.72576 0.10411 0.0
C1101 C 0.14668 0.69264 0.11174 0.0
C1102 C 0.16452 0.75301 0.12644 0.0
C1103 C 0.15278 0.74853 0.15778 0.0
H1104 H 0.17043 0.73126 0.08013 0.0
H1105 H 0.17545 0.77812 0.11883 0.0
S1106 S 0.11371 0.66629 0.19108 0.0
N1107 N 0.12155 0.65634 0.15358 0.0
N1108 N 0.12744 0.70746 0.196 0.0
C1109 C 0.13954 0.71492 0.16644 0.0
C1110 C 0.13639 0.68703 0.14339 0.0
C1111 C 0.50243 0.91385 0.37647 0.0
C1112 C 0.50697 0.90247 0.40791 0.0
C1113 C 0.52955 0.91059 0.35403 0.0
C1114 C 0.56264 0.89545 0.36169 0.0
H1115 H 0.47734 0.92481 0.36883 0.0
H1116 H 0.52399 0.91905 0.33 0.0
S1117 S 0.58896 0.8627 0.44115 0.0
N1118 N 0.54796 0.8769 0.44612 0.0
N1119 N 0.59883 0.87024 0.40358 0.0
C1120 C 0.56826 0.88534 0.3934 0.0
C1121 C 0.54049 0.88892 0.41652 0.0
C1122 C 0.34463 0.316 0.63717 0.0
C1123 C 0.37087 0.31325 0.61355 0.0
C1124 C 0.33969 0.28869 0.65977 0.0
C1125 C 0.36063 0.25772 0.6592 0.0
H1126 H 0.32687 0.3385 0.63731 0.0
H1127 H 0.31848 0.29114 0.6769 0.0
S1128 S 0.43667 0.24059 0.60571 0.0
N1129 N 0.42081 0.27907 0.59384 0.0
N1130 N 0.4112 0.22823 0.63548 0.0
C1131 C 0.38814 0.25585 0.63688 0.0
C1132 C 0.39335 0.28346 0.61432 0.0
C1133 C 0.93936 0.12185 0.89044 0.0
C1134 C 0.9436 0.10811 0.85961 0.0
C1135 C 0.96668 0.11901 0.91326 0.0
C1136 C 0.99932 0.10267 0.90594 0.0
H1137 H 0.91565 0.13651 0.89642 0.0
H1138 H 0.96287 0.13118 0.93625 0.0
S1139 S 0.02133 0.05738 0.83045 0.0
N1140 N 0.98132 0.07363 0.82458 0.0
N1141 N 0.0323 0.06899 0.86686 0.0
C1142 C 1.00286 0.08707 0.87588 0.0
C1143 C 0.97514 0.08957 0.85294 0.0
C1144 C 0.84334 0.72506 0.60505 0.0
C1145 C 0.85842 0.69198 0.61276 0.0
C1146 C 0.83992 0.75215 0.62749 0.0
C1147 C 0.85102 0.74758 0.65901 0.0
H1148 H 0.83507 0.73067 0.58097 0.0
H1149 H 0.82901 0.77724 0.6198 0.0
S1150 S 0.89008 0.66547 0.69255 0.0
N1151 N 0.883 0.65566 0.65489 0.0
N1152 N 0.87597 0.70652 0.69744 0.0
C1153 C 0.86435 0.71403 0.66772 0.0
C1154 C 0.86813 0.68628 0.64458 0.0
C1155 C 0.03954 0.11794 0.41403 0.0
C1156 C 0.00735 0.10069 0.40682 0.0
C1157 C 0.06679 0.12115 0.39121 0.0
C1158 C 0.06288 0.10685 0.36055 0.0
H1159 H 0.04296 0.13062 0.43685 0.0
H1160 H 0.09007 0.13658 0.39702 0.0
S1161 S 0.98665 0.05354 0.33193 0.0
N1162 N 0.97529 0.06548 0.36815 0.0
N1163 N 0.02622 0.07079 0.32589 0.0
C1164 C 0.03191 0.08734 0.35406 0.0
C1165 C 0.00424 0.08448 0.37697 0.0
C1166 C 0.63644 0.3159 0.14107 0.0
C1167 C 0.64871 0.31154 0.10976 0.0
C1168 C 0.64074 0.28881 0.16392 0.0
C1169 C 0.65725 0.2564 0.15616 0.0
H1170 H 0.62176 0.33946 0.14747 0.0
H1171 H 0.62948 0.29257 0.18728 0.0
S1172 S 0.69901 0.23431 0.07907 0.0
N1173 N 0.68187 0.27402 0.07359 0.0
N1174 N 0.68951 0.22357 0.11601 0.0
C1175 C 0.6715 0.25284 0.12556 0.0
C1176 C 0.66736 0.28026 0.10255 0.0
C1177 C 0.4767 0.91217 0.85329 0.0
C1178 C 0.44349 0.89745 0.86119 0.0
C1179 C 0.50387 0.9158 0.8757 0.0
C1180 C 0.49928 0.90522 0.90736 0.0
H1181 H 0.48228 0.92009 0.82911 0.0
H1182 H 0.52902 0.92646 0.86789 0.0
S1183 S 0.41717 0.86635 0.94117 0.0
N1184 N 0.40728 0.8732 0.9035 0.0
N1185 N 0.45823 0.88048 0.94592 0.0
C1186 C 0.46572 0.89191 0.91615 0.0
C1187 C 0.4379 0.88797 0.89307 0.0
C1188 C 0.84878 0.31553 0.86499 0.0
C1189 C 0.87202 0.31102 0.89084 0.0
C1190 C 0.84397 0.28837 0.84222 0.0
C1191 C 0.86208 0.25576 0.84472 0.0
H1192 H 0.83334 0.33957 0.86296 0.0
H1193 H 0.82517 0.29246 0.82319 0.0
S1194 S 0.93017 0.23306 0.90486 0.0
N1195 N 0.91645 0.27291 0.91504 0.0
N1196 N 0.90703 0.22246 0.87309 0.0
C1197 C 0.88661 0.25185 0.86952 0.0
C1198 C 0.89169 0.27929 0.89231 0.0
C1199 C 0.46663 0.09642 0.5905 0.0
C1200 C 0.49977 0.1134 0.59378 0.0
C1201 C 0.43957 0.10071 0.61344 0.0
C1202 C 0.44458 0.12264 0.6401 0.0
H1203 H 0.46198 0.07887 0.57066 0.0
H1204 H 0.41521 0.08589 0.61083 0.0
S1205 S 0.52336 0.1793 0.65559 0.0
N1206 N 0.53372 0.15693 0.62334 0.0
N1207 N 0.4833 0.16583 0.66539 0.0
C1208 C 0.4766 0.14184 0.64207 0.0
C1209 C 0.50403 0.13705 0.61923 0.0
C1210 C 0.64021 0.71567 0.33783 0.0
C1211 C 0.65509 0.74882 0.34587 0.0
C1212 C 0.63589 0.6886 0.36073 0.0
C1213 C 0.64664 0.69359 0.39243 0.0
H1214 H 0.63032 0.7112 0.31408 0.0
H1215 H 0.62247 0.66442 0.35395 0.0
S1216 S 0.69323 0.7728 0.42408 0.0
N1217 N 0.68465 0.78298 0.38683 0.0
N1218 N 0.67727 0.73256 0.42927 0.0
C1219 C 0.66395 0.72562 0.39996 0.0
C1220 C 0.66798 0.75306 0.37691 0.0
C1221 C 0.06787 0.88501 0.10833 0.0
C1222 C 0.06449 0.89921 0.13907 0.0
C1223 C 0.04065 0.88919 0.08555 0.0
C1224 C 0.00909 0.90748 0.09288 0.0
H1225 H 0.09064 0.86889 0.10243 0.0
H1226 H 0.04349 0.87639 0.06272 0.0
S1227 S 0.99017 0.95495 0.16793 0.0
N1228 N 0.02914 0.93636 0.17387 0.0
N1229 N 0.9784 0.94365 0.13163 0.0
C1230 C 0.00669 0.92377 0.12272 0.0
C1231 C 0.03425 0.91981 0.14562 0.0
C1232 C 0.63785 0.78994 0.83749 0.0
C1233 C 0.6549 0.75776 0.8451 0.0
C1234 C 0.63414 0.81732 0.86016 0.0
C1235 C 0.64759 0.81352 0.89113 0.0
H1236 H 0.62572 0.79329 0.81441 0.0
H1237 H 0.61899 0.84064 0.85394 0.0
S1238 S 0.70015 0.73737 0.921 0.0
N1239 N 0.68921 0.72593 0.88453 0.0
N1240 N 0.68273 0.77692 0.9266 0.0
C1241 C 0.66693 0.78255 0.89807 0.0
C1242 C 0.67043 0.75482 0.87526 0.0
C1243 C 0.46787 0.41198 0.09197 0.0
C1244 C 0.50055 0.39408 0.09489 0.0
C1245 C 0.44072 0.4078 0.11484 0.0
C1246 C 0.44522 0.38515 0.14109 0.0
H1247 H 0.46367 0.43013 0.07247 0.0
H1248 H 0.4167 0.42322 0.11253 0.0
S1249 S 0.52252 0.3263 0.15546 0.0
N1250 N 0.53342 0.3491 0.1236 0.0
N1251 N 0.48287 0.3406 0.16562 0.0
C1252 C 0.47678 0.36524 0.14274 0.0
C1253 C 0.50426 0.36982 0.11992 0.0
C1254 C 0.8497 0.18985 0.36278 0.0
C1255 C 0.8718 0.19476 0.38936 0.0
C1256 C 0.84527 0.21703 0.33997 0.0
C1257 C 0.86228 0.25014 0.34334 0.0
H1258 H 0.83483 0.16552 0.3602 0.0
H1259 H 0.82754 0.21254 0.32021 0.0
S1260 S 0.92838 0.27353 0.40507 0.0
N1261 N 0.91504 0.23338 0.41469 0.0
N1262 N 0.9059 0.284 0.37288 0.0
C1263 C 0.88608 0.25428 0.36868 0.0
C1264 C 0.891 0.22676 0.39138 0.0
C1265 C 0.99955 0.59528 0.62787 0.0
C1266 C 0.0058 0.60183 0.59555 0.0
C1267 C 0.02636 0.59882 0.65055 0.0
C1268 C 0.06102 0.60943 0.64235 0.0
H1269 H 0.97338 0.58793 0.63604 0.0
H1270 H 0.01934 0.59404 0.67507 0.0
S1271 S 0.09243 0.62737 0.56059 0.0
N1272 N 0.05017 0.61728 0.55605 0.0
N1273 N 0.10061 0.62438 0.59898 0.0
C1274 C 0.06829 0.61448 0.60992 0.0
C1275 C 0.04075 0.61064 0.58653 0.0
C1276 C 0.65322 0.23098 0.60039 0.0
C1277 C 0.64545 0.19557 0.60855 0.0
C1278 C 0.65643 0.25758 0.62326 0.0
C1279 C 0.65233 0.25043 0.65576 0.0
H1280 H 0.65611 0.23873 0.57581 0.0
H1281 H 0.66172 0.28425 0.6151 0.0
S1282 S 0.63504 0.16169 0.69055 0.0
N1283 N 0.6359 0.1544 0.65195 0.0
N1284 N 0.64245 0.20447 0.69526 0.0
C1285 C 0.64627 0.21486 0.66464 0.0
C1286 C 0.64276 0.1875 0.64106 0.0
C1287 C 1.0024 0.41281 0.87526 0.0
C1288 C 0.00787 0.40456 0.90739 0.0
C1289 C 0.02927 0.40865 0.85272 0.0
C1290 C 0.06312 0.39575 0.86091 0.0
H1291 H 0.97679 0.42203 0.86719 0.0
H1292 H 0.02295 0.41479 0.82828 0.0
S1293 S 0.09217 0.37201 0.94221 0.0
N1294 N 0.05058 0.38459 0.94672 0.0
N1295 N 0.1011 0.37637 0.90405 0.0
C1296 C 0.06966 0.38888 0.8932 0.0
C1297 C 0.04209 0.39333 0.91643 0.0
C1298 C 0.85078 0.81654 0.13822 0.0
C1299 C 0.87348 0.81161 0.11209 0.0
C1300 C 0.84568 0.78934 0.16089 0.0
C1301 C 0.86265 0.75619 0.15785 0.0
H1302 H 0.83597 0.84093 0.14057 0.0
H1303 H 0.82751 0.79389 0.1803 0.0
S1304 S 0.92985 0.73255 0.09723 0.0
N1305 N 0.91695 0.77279 0.08743 0.0
N1306 N 0.90666 0.72215 0.129 0.0
C1307 C 0.88693 0.75195 0.1329 0.0
C1308 C 0.89248 0.77949 0.11033 0.0
C1309 C 0.50379 0.59448 0.3747 0.0
C1310 C 0.49799 0.60185 0.40693 0.0
C1311 C 0.47682 0.5981 0.35215 0.0
C1312 C 0.44247 0.60965 0.36041 0.0
H1313 H 0.52971 0.5863 0.36654 0.0
H1314 H 0.48347 0.59258 0.32767 0.0
S1315 S 0.41257 0.631 0.44198 0.0
N1316 N 0.45454 0.61975 0.44641 0.0
N1317 N 0.40385 0.62704 0.40375 0.0
C1318 C 0.43572 0.61583 0.39278 0.0
C1319 C 0.4634 0.61187 0.41602 0.0
C1320 C 0.34919 0.22758 0.10225 0.0
C1321 C 0.36146 0.19339 0.11008 0.0
C1322 C 0.34572 0.25427 0.12506 0.0
C1323 C 0.35408 0.2483 0.1571 0.0
H1324 H 0.34299 0.23429 0.07791 0.0
H1325 H 0.33691 0.28012 0.11725 0.0
S1326 S 0.38492 0.16292 0.19102 0.0
N1327 N 0.38024 0.15454 0.1528 0.0
N1328 N 0.3733 0.20472 0.19595 0.0
C1329 C 0.36466 0.21377 0.16577 0.0
C1330 C 0.36841 0.18637 0.14227 0.0
C1331 C 0.54018 0.61836 0.91626 0.0
C1332 C 0.5085 0.60023 0.9089 0.0
C1333 C 0.56757 0.62217 0.89363 0.0
C1334 C 0.56429 0.6077 0.86298 0.0
H1335 H 0.54303 0.63129 0.93904 0.0
H1336 H 0.59041 0.6382 0.89954 0.0
S1337 S 0.4896 0.55238 0.83401 0.0
N1338 N 0.4777 0.56405 0.87016 0.0
N1339 N 0.52878 0.57057 0.82821 0.0
C1340 C 0.53389 0.58729 0.85639 0.0
C1341 C 0.50612 0.58375 0.87913 0.0
C1342 C 0.15955 0.7507 0.62423 0.0
C1343 C 0.15087 0.7568 0.65617 0.0
C1344 C 0.15648 0.77739 0.60137 0.0
C1345 C 0.14436 0.81164 0.6091 0.0
H1346 H 0.16834 0.72479 0.61657 0.0
H1347 H 0.16286 0.77069 0.57707 0.0
S1348 S 0.11946 0.8422 0.68962 0.0
N1349 N 0.131 0.80041 0.69474 0.0
N1350 N 0.12486 0.85055 0.65148 0.0
C1351 C 0.1369 0.81871 0.64117 0.0
C1352 C 0.14019 0.79135 0.6647 0.0
C1353 C 0.93755 0.38523 0.39251 0.0
C1354 C 0.94159 0.39902 0.36166 0.0
C1355 C 0.9648 0.38865 0.41538 0.0
C1356 C 0.99712 0.4056 0.40805 0.0
H1357 H 0.91413 0.37009 0.39846 0.0
H1358 H 0.96125 0.37637 0.43836 0.0
S1359 S 0.01835 0.45127 0.33257 0.0
N1360 N 0.97865 0.43428 0.32668 0.0
N1361 N 0.02951 0.43986 0.36897 0.0
C1362 C 1.00039 0.42125 0.37798 0.0
C1363 C 0.97274 0.41822 0.35504 0.0
C1364 C 0.36996 0.81651 0.36009 0.0
C1365 C 0.35664 0.81262 0.3911 0.0
C1366 C 0.3663 0.78913 0.3374 0.0
C1367 C 0.3495 0.75681 0.34503 0.0
H1368 H 0.38489 0.83996 0.35383 0.0
H1369 H 0.37824 0.79262 0.31428 0.0
S1370 S 0.30477 0.7359 0.421 0.0
N1371 N 0.32182 0.77564 0.42657 0.0
N1372 N 0.3157 0.7246 0.38452 0.0
C1373 C 0.33419 0.75369 0.37523 0.0
C1374 C 0.33753 0.78145 0.39804 0.0
C1375 C 0.97887 0.59825 0.1506 0.0
C1376 C 0.9448 0.61089 0.14285 0.0
C1377 C 0.00549 0.59466 0.12771 0.0
C1378 C 0.99955 0.60336 0.09573 0.0
H1379 H 0.98548 0.59182 0.17491 0.0
H1380 H 0.03128 0.58554 0.13542 0.0
S1381 S 0.91474 0.63642 0.06229 0.0
N1382 N 0.90628 0.63111 0.10042 0.0
N1383 N 0.95631 0.62411 0.05718 0.0
C1384 C 0.9652 0.61469 0.08721 0.0
C1385 C 0.93789 0.61847 0.11075 0.0
C1386 C 0.16565 0.25358 0.87525 0.0
C1387 C 0.1546 0.24885 0.84373 0.0
C1388 C 0.16242 0.22651 0.89773 0.0
C1389 C 0.14755 0.1933 0.89008 0.0
H1390 H 0.17642 0.27875 0.8829 0.0
H1391 H 0.17068 0.23223 0.92179 0.0
S1392 S 0.11609 0.1664 0.81031 0.0
N1393 N 0.12992 0.20754 0.80537 0.0
N1394 N 0.1232 0.15672 0.84798 0.0
C1395 C 0.13785 0.18748 0.85826 0.0
C1396 C 0.14146 0.2152 0.83508 0.0
C1397 C 0.56653 0.38719 0.60994 0.0
C1398 C 0.56194 0.39885 0.6414 0.0
C1399 C 0.53934 0.39134 0.58713 0.0
C1400 C 0.50649 0.40682 0.59511 0.0
H1401 H 0.5904 0.37315 0.60334 0.0
H1402 H 0.54345 0.38082 0.56355 0.0
S1403 S 0.48402 0.44786 0.67242 0.0
N1404 N 0.52399 0.43132 0.67775 0.0
N1405 N 0.47325 0.43825 0.6355 0.0
C1406 C 0.50275 0.42072 0.62582 0.0
C1407 C 0.53034 0.41696 0.64874 0.0
C1408 C 1.00152 0.22296 0.24004 0.0
C1409 C 0.03133 0.23141 0.25825 0.0
C1410 C 0.97324 0.24645 0.2381 0.0
C1411 C 0.97404 0.27893 0.25436 0.0
H1412 H 1.00042 0.19854 0.2266 0.0
H1413 H 0.95069 0.23923 0.22358 0.0
S1414 S 0.04458 0.3112 0.30817 0.0
N1415 N 0.05925 0.27286 0.29477 0.0
N1416 N 0.0057 0.31721 0.2911 0.0
C1417 C 0.00337 0.2873 0.27328 0.0
C1418 C 0.03214 0.26337 0.2753 0.0
C1419 C 0.03452 0.75185 0.51324 0.0
C1420 C 0.02283 0.78396 0.50033 0.0
C1421 C 0.01197 0.7228 0.51479 0.0
C1422 C 0.97701 0.7249 0.50341 0.0
H1423 H 0.061 0.74929 0.52285 0.0
H1424 H 0.02196 0.69862 0.52532 0.0
S1425 S 0.93452 0.80235 0.4652 0.0
N1426 N 0.97475 0.81592 0.47444 0.0
N1427 N 0.9322 0.76094 0.47747 0.0
C1428 C 0.9651 0.75668 0.49 0.0
C1429 C 0.9881 0.78632 0.48837 0.0
C1430 C 0.50306 0.78477 0.74108 0.0
C1431 C 0.47212 0.77538 0.75727 0.0
C1432 C 0.53181 0.7618 0.74038 0.0
C1433 C 0.5304 0.7289 0.75593 0.0
H1434 H 0.50479 0.80963 0.72836 0.0
H1435 H 0.5552 0.76977 0.72734 0.0
S1436 S 0.45654 0.69397 0.80451 0.0
N1437 N 0.44227 0.73246 0.7911 0.0
N1438 N 0.49669 0.68906 0.78972 0.0
C1439 C 0.49985 0.71951 0.77277 0.0
C1440 C 0.47058 0.74292 0.77352 0.0
C1441 C 0.51467 0.22064 0.01069 0.0
C1442 C 0.4797 0.22326 0.99942 0.0
C1443 C 0.53713 0.24985 0.01046 0.0
C1444 C 0.52533 0.28261 0.99898 0.0
H1445 H 0.52465 0.196 0.02033 0.0
H1446 H 0.56358 0.24688 0.02004 0.0
S1447 S 0.43711 0.30232 0.96415 0.0
N1448 N 0.43491 0.26035 0.97475 0.0
N1449 N 0.47723 0.31558 0.97407 0.0
C1450 C 0.49067 0.28538 0.98686 0.0
C1451 C 0.46778 0.2556 0.9872 0.0
C1452 C 0.00429 0.72099 0.23955 0.0
C1453 C 0.97204 0.73251 0.2523 0.0
C1454 C 0.03317 0.74375 0.23797 0.0
C1455 C 0.03076 0.77876 0.24913 0.0
H1456 H 0.0071 0.69448 0.23009 0.0
H1457 H 0.05748 0.73389 0.22758 0.0
S1458 S 0.95294 0.82097 0.28684 0.0
N1459 N 0.93968 0.78058 0.27784 0.0
N1460 N 0.99436 0.8235 0.27466 0.0
C1461 C 0.99887 0.79054 0.26235 0.0
C1462 C 0.96941 0.76732 0.26407 0.0
C1463 C 0.53425 0.75341 0.48948 0.0
C1464 C 0.52204 0.72069 0.50068 0.0
C1465 C 0.51185 0.78253 0.48847 0.0
C1466 C 0.47651 0.77994 0.49871 0.0
H1467 H 0.56111 0.7565 0.48091 0.0
H1468 H 0.52234 0.80719 0.4793 0.0
S1469 S 0.43213 0.70049 0.53157 0.0
N1470 N 0.47272 0.68739 0.52324 0.0
N1471 N 0.43048 0.74257 0.52124 0.0
C1472 C 0.46394 0.74747 0.51018 0.0
C1473 C 0.48678 0.71772 0.51126 0.0
C1474 C 0.46989 0.26476 0.75486 0.0
C1475 C 0.47342 0.22782 0.75193 0.0
C1476 C 0.49929 0.28689 0.75382 0.0
C1477 C 0.5334 0.27293 0.74988 0.0
H1478 H 0.44413 0.27696 0.75779 0.0
H1479 H 0.49513 0.31512 0.75615 0.0
S1480 S 0.55711 0.17778 0.74141 0.0
N1481 N 0.51371 0.17809 0.74525 0.0
N1482 N 0.56927 0.21965 0.74315 0.0
C1483 C 0.53746 0.23592 0.7472 0.0
C1484 C 0.50742 0.21336 0.74831 0.0
C1485 C 0.97078 0.25441 0.99049 0.0
C1486 C 0.98327 0.28704 0.00168 0.0
C1487 C 0.99322 0.22538 0.98848 0.0
C1488 C 0.02891 0.22788 0.99778 0.0
H1489 H 0.94365 0.25133 0.98263 0.0
H1490 H 0.98243 0.20082 0.97938 0.0
S1491 S 0.07426 0.30718 0.02998 0.0
N1492 N 0.03333 0.32025 0.02298 0.0
N1493 N 0.07564 0.26521 0.01927 0.0
C1494 C 0.0418 0.2603 0.00918 0.0
C1495 C 0.0189 0.28999 0.0112 0.0
C1496 C 0.03192 0.76436 0.74122 0.0
C1497 C 0.02936 0.72856 0.75017 0.0
C1498 C 1.00271 0.78666 0.74273 0.0
C1499 C 0.96983 0.77394 0.75311 0.0
H1500 H 0.05664 0.77535 0.73266 0.0
H1501 H 0.00587 0.81385 0.73508 0.0
S1502 S 0.94943 0.68262 0.78041 0.0
N1503 N 0.99167 0.68154 0.77059 0.0
N1504 N 0.93638 0.72355 0.77344 0.0
C1505 C 0.96686 0.73824 0.76242 0.0
C1506 C 0.99672 0.71549 0.76087 0.0
C1507 C 0.03584 0.25226 0.49154 0.0
C1508 C 0.02354 0.28453 0.50367 0.0
C1509 C 0.01362 0.22298 0.49002 0.0
C1510 C 0.9784 0.22494 0.5007 0.0
H1511 H 0.06253 0.24976 0.48242 0.0
H1512 H 0.0241 0.19875 0.47997 0.0
S1513 S 0.93421 0.30289 0.53651 0.0
N1514 N 0.97455 0.31661 0.52791 0.0
N1515 N 0.93261 0.26117 0.52503 0.0
C1516 C 0.96587 0.2569 0.51335 0.0
C1517 C 0.98854 0.2868 0.5149 0.0
C1518 C 0.47199 0.24121 0.25379 0.0
C1519 C 0.47545 0.27811 0.25031 0.0
C1520 C 0.50137 0.21912 0.25262 0.0
C1521 C 0.53536 0.23306 0.24795 0.0
H1522 H 0.44633 0.22904 0.25739 0.0
H1523 H 0.49728 0.19093 0.25554 0.0
S1524 S 0.55887 0.32798 0.23721 0.0
N1525 N 0.51555 0.32775 0.24197 0.0
N1526 N 0.57105 0.28616 0.23946 0.0
C1527 C 0.53935 0.26999 0.24447 0.0
C1528 C 0.50934 0.29254 0.24577 0.0
C1529 C 0.53625 0.75162 0.99315 0.0
C1530 C 0.52271 0.78548 0.99927 0.0
C1531 C 0.51419 0.72224 0.99303 0.0
C1532 C 0.47771 0.72554 0.99908 0.0
H1533 H 0.56409 0.74765 0.98813 0.0
H1534 H 0.52601 0.69675 0.9879 0.0
S1535 S 0.42897 0.80841 0.01693 0.0
N1536 N 0.47042 0.82084 0.01188 0.0
N1537 N 0.42888 0.76518 0.01159 0.0
C1538 C 0.46367 0.75922 0.00524 0.0
C1539 C 0.48619 0.7893 0.00539 0.0
C1540 C 0.973 0.26472 0.75918 0.0
C1541 C 0.97618 0.22849 0.75198 0.0
C1542 C 1.00223 0.28705 0.75836 0.0
C1543 C 0.03581 0.274 0.75039 0.0
H1544 H 0.94774 0.27609 0.76582 0.0
H1545 H 0.99843 0.31463 0.76449 0.0
S1546 S 0.05815 0.18122 0.72855 0.0
N1547 N 0.0153 0.18055 0.73595 0.0
N1548 N 0.07063 0.22255 0.73435 0.0
C1549 C 0.03943 0.23778 0.74288 0.0
C1550 C 0.00953 0.215 0.74375 0.0
C1551 C 0.47116 0.25263 0.48896 0.0
C1552 C 0.48144 0.28356 0.5048 0.0
C1553 C 0.49394 0.22373 0.48738 0.0
C1554 C 0.52756 0.22498 0.50165 0.0
H1555 H 0.44567 0.25095 0.47727 0.0
H1556 H 0.48521 0.2003 0.47479 0.0
S1557 S 0.56526 0.2987 0.54876 0.0
N1558 N 0.52622 0.31316 0.53686 0.0
N1559 N 0.56919 0.25852 0.53381 0.0
C1560 C 0.53793 0.25553 0.51803 0.0
C1561 C 0.51473 0.28493 0.51969 0.0
C1562 C 0.47094 0.76242 0.24023 0.0
C1563 C 0.47227 0.72872 0.2543 0.0
C1564 C 0.5 0.78502 0.24149 0.0
C1565 C 0.53115 0.77446 0.25682 0.0
H1566 H 0.44739 0.77131 0.2279 0.0
H1567 H 0.4983 0.81054 0.22986 0.0
S1568 S 0.54661 0.69036 0.3002 0.0
N1569 N 0.50613 0.68675 0.28583 0.0
N1570 N 0.56107 0.72939 0.2883 0.0
C1571 C 0.53257 0.74114 0.27163 0.0
C1572 C 0.50301 0.71813 0.27028 0.0
C1573 C 0.97017 0.75338 0.01209 0.0
C1574 C 0.98214 0.78558 0.99955 0.0
C1575 C 0.99267 0.72435 0.01401 0.0
C1576 C 0.02788 0.72648 0.00328 0.0
H1577 H 0.94347 0.75072 0.02115 0.0
H1578 H 0.98239 0.70015 0.02428 0.0
S1579 S 0.07129 0.80421 0.96633 0.0
N1580 N 0.03085 0.81771 0.97482 0.0
N1581 N 0.07329 0.76272 0.9784 0.0
C1582 C 0.0401 0.75835 0.99024 0.0
C1583 C 0.01715 0.788 0.98829 0.0
C1584 C 0.09061 0.12026 0.11305 0.0
C1585 C 0.11085 0.14115 0.09228 0.0
C1586 C 0.0939 0.12385 0.14591 0.0
C1587 C 0.1172 0.14883 0.15925 0.0
H1588 H 0.07175 0.10122 0.10389 0.0
H1589 H 0.07724 0.1076 0.16091 0.0
S1590 S 0.17779 0.20859 0.11524 0.0
N1591 N 0.1563 0.18664 0.08743 0.0
N1592 N 0.16237 0.19339 0.14919 0.0
C1593 C 0.1384 0.16916 0.13878 0.0
C1594 C 0.13528 0.1653 0.10531 0.0
C1595 C 0.13323 0.84721 0.39529 0.0
C1596 C 0.11033 0.8727 0.40828 0.0
C1597 C 0.13699 0.84357 0.36252 0.0
C1598 C 0.11829 0.86553 0.34144 0.0
H1599 H 0.1474 0.82892 0.41047 0.0
H1600 H 0.15412 0.8228 0.3537 0.0
S1601 S 0.05843 0.93955 0.36367 0.0
N1602 N 0.07118 0.92244 0.3978 0.0
N1603 N 0.07832 0.91586 0.33608 0.0
C1604 C 0.09683 0.89253 0.35418 0.0
C1605 C 0.09279 0.89601 0.38762 0.0
C1606 C 0.3683 0.83872 0.63881 0.0
C1607 C 0.38652 0.86147 0.65961 0.0
C1608 C 0.37138 0.84243 0.60595 0.0
C1609 C 0.39308 0.86877 0.59269 0.0
H1610 H 0.35203 0.8174 0.6479 0.0
H1611 H 0.35769 0.82365 0.59089 0.0
S1612 S 0.44348 0.93744 0.63641 0.0
N1613 N 0.42488 0.91317 0.6643 0.0
N1614 N 0.43074 0.91977 0.60251 0.0
C1615 C 0.41025 0.89263 0.61306 0.0
C1616 C 0.4069 0.88911 0.64652 0.0
C1617 C 0.36656 0.16352 0.86293 0.0
C1618 C 0.38263 0.13946 0.84194 0.0
C1619 C 0.37052 0.16006 0.89568 0.0
C1620 C 0.39098 0.13261 0.90867 0.0
H1621 H 0.35163 0.18591 0.85405 0.0
H1622 H 0.35878 0.18002 0.91081 0.0
S1623 S 0.43396 0.0594 0.86465 0.0
N1624 N 0.4164 0.08469 0.83688 0.0
N1625 N 0.42399 0.07857 0.89864 0.0
C1626 C 0.40536 0.10708 0.88823 0.0
C1627 C 0.40108 0.11036 0.85481 0.0
C1628 C 0.91252 0.89043 0.88834 0.0
C1629 C 0.88967 0.87318 0.90966 0.0
C1630 C 0.90829 0.88679 0.85561 0.0
C1631 C 0.88125 0.86548 0.84293 0.0
H1632 H 0.93458 0.90608 0.8969 0.0
H1633 H 0.92741 0.89949 0.84022 0.0
S1634 S 0.811 0.81903 0.88807 0.0
N1635 N 0.83636 0.83722 0.91546 0.0
N1636 N 0.82881 0.83025 0.85381 0.0
C1637 C 0.85687 0.84986 0.86379 0.0
C1638 C 0.86094 0.85379 0.89718 0.0
C1639 C 0.91587 0.1195 0.61263 0.0
C1640 C 0.89239 0.13661 0.59176 0.0
C1641 C 0.91254 0.12324 0.64542 0.0
C1642 C 0.88584 0.14454 0.65859 0.0
H1643 H 0.93755 0.10367 0.60362 0.0
H1644 H 0.93189 0.1104 0.66049 0.0
S1645 S 0.8151 0.19181 0.61478 0.0
N1646 N 0.83952 0.1733 0.58692 0.0
N1647 N 0.83363 0.18044 0.64872 0.0
C1648 C 0.86119 0.16052 0.63822 0.0
C1649 C 0.86432 0.15646 0.60476 0.0
C1650 C 0.58654 0.12157 0.38666 0.0
C1651 C 0.61239 0.13454 0.40771 0.0
C1652 C 0.59036 0.12542 0.35391 0.0
C1653 C 0.61997 0.14269 0.34101 0.0
H1654 H 0.56261 0.1092 0.39546 0.0
H1655 H 0.56923 0.11607 0.33868 0.0
S1656 S 0.69762 0.1769 0.38509 0.0
N1657 N 0.67067 0.16194 0.41278 0.0
N1658 N 0.67725 0.1696 0.3511 0.0
C1659 C 0.64686 0.15419 0.36148 0.0
C1660 C 0.64326 0.14994 0.39486 0.0
C1661 C 0.63316 0.83685 0.1386 0.0
C1662 C 0.61759 0.86116 0.15967 0.0
C1663 C 0.63044 0.84127 0.10579 0.0
C1664 C 0.61176 0.86999 0.0928 0.0
H1665 H 0.64695 0.81372 0.14741 0.0
H1666 H 0.64187 0.82123 0.09055 0.0
S1667 S 0.57013 0.9437 0.13721 0.0
N1668 N 0.5857 0.91705 0.16487 0.0
N1669 N 0.5805 0.92498 0.10312 0.0
C1670 C 0.59759 0.89546 0.11341 0.0
C1671 C 0.60056 0.89117 0.14686 0.0
C1672 C 0.63174 0.66084 0.60644 0.0
C1673 C 0.61003 0.63429 0.59345 0.0
C1674 C 0.63497 0.66501 0.63924 0.0
C1675 C 0.6169 0.64256 0.66038 0.0
H1676 H 0.64534 0.67948 0.5912 0.0
H1677 H 0.65123 0.68651 0.64802 0.0
S1678 S 0.56025 0.56595 0.63821 0.0
N1679 N 0.57271 0.58319 0.60405 0.0
N1680 N 0.57886 0.59074 0.66576 0.0
C1681 C 0.59662 0.61462 0.64765 0.0
C1682 C 0.59313 0.61059 0.61419 0.0
C1683 C 0.59216 0.38216 0.85527 0.0
C1684 C 0.62042 0.36284 0.84225 0.0
C1685 C 0.58864 0.38614 0.88803 0.0
C1686 C 0.61343 0.37121 0.90904 0.0
H1687 H 0.57172 0.3931 0.84014 0.0
H1688 H 0.56567 0.40016 0.89687 0.0
S1689 S 0.69546 0.32303 0.88624 0.0
N1690 N 0.6757 0.33199 0.85228 0.0
N1691 N 0.6696 0.33971 0.91399 0.0
C1692 C 0.64315 0.35378 0.89611 0.0
C1693 C 0.64648 0.34947 0.8627 0.0
C1694 C 0.87149 0.34757 0.10536 0.0
C1695 C 0.89239 0.37482 0.09253 0.0
C1696 C 0.86815 0.34335 0.13812 0.0
C1697 C 0.88531 0.36642 0.15934 0.0
H1698 H 0.85881 0.32834 0.09005 0.0
H1699 H 0.85273 0.32119 0.14678 0.0
S1700 S 0.93877 0.44542 0.13734 0.0
N1701 N 0.92739 0.42747 0.10316 0.0
N1702 N 0.92099 0.41997 0.16485 0.0
C1703 C 0.90446 0.39523 0.1467 0.0
C1704 C 0.90807 0.39929 0.11328 0.0
C1705 C 0.91379 0.61991 0.38973 0.0
C1706 C 0.89074 0.63744 0.41068 0.0
C1707 C 0.91 0.62328 0.35694 0.0
C1708 C 0.88324 0.64461 0.34381 0.0
H1709 H 0.93548 0.60402 0.39866 0.0
H1710 H 0.92912 0.61016 0.34185 0.0
S1711 S 0.8133 0.69268 0.38797 0.0
N1712 N 0.83808 0.67439 0.41572 0.0
N1713 N 0.83126 0.68079 0.35395 0.0
C1714 C 0.85891 0.66087 0.36432 0.0
C1715 C 0.86254 0.65722 0.39778 0.0
C1716 C 0.41436 0.38768 0.38902 0.0
C1717 C 0.39217 0.36903 0.40998 0.0
C1718 C 0.41034 0.38466 0.3562 0.0
C1719 C 0.38425 0.36254 0.34306 0.0
H1720 H 0.43557 0.40421 0.39796 0.0
H1721 H 0.42881 0.39863 0.34106 0.0
S1722 S 0.31653 0.31133 0.38716 0.0
N1723 N 0.34089 0.33013 0.41495 0.0
N1724 N 0.33376 0.32432 0.35315 0.0
C1725 C 0.36076 0.3451 0.36357 0.0
C1726 C 0.36457 0.34841 0.39705 0.0
C1727 C 0.41023 0.62306 0.14587 0.0
C1728 C 0.38334 0.6442 0.15894 0.0
C1729 C 0.41405 0.61974 0.11308 0.0
C1730 C 0.39091 0.63713 0.0921 0.0
H1731 H 0.42939 0.61006 0.16103 0.0
H1732 H 0.43585 0.60399 0.10419 0.0
S1733 S 0.31319 0.69188 0.11467 0.0
N1734 N 0.33119 0.68013 0.14873 0.0
N1735 N 0.33807 0.67375 0.08694 0.0
C1736 C 0.36261 0.65674 0.10494 0.0
C1737 C 0.35895 0.66037 0.13839 0.0
C1738 C 0.08987 0.6208 0.88923 0.0
C1739 C 0.11228 0.63935 0.91004 0.0
C1740 C 0.09358 0.62398 0.85642 0.0
C1741 C 0.11956 0.64615 0.8432 0.0
H1742 H 0.06887 0.60409 0.8983 0.0
H1743 H 0.07507 0.60993 0.84135 0.0
S1744 S 0.18706 0.698 0.88704 0.0
N1745 N 0.1631 0.67887 0.9149 0.0
N1746 N 0.16976 0.68488 0.85309 0.0
C1747 C 0.14304 0.66381 0.8636 0.0
C1748 C 0.13952 0.66035 0.89705 0.0
C1749 C 0.09063 0.38897 0.61411 0.0
C1750 C 0.1148 0.37366 0.59278 0.0
C1751 C 0.0948 0.38514 0.64682 0.0
C1752 C 0.12313 0.36561 0.65948 0.0
H1753 H 0.06758 0.40311 0.60557 0.0
H1754 H 0.07471 0.39624 0.66221 0.0
S1755 S 0.19698 0.32507 0.61447 0.0
N1756 N 0.17063 0.34173 0.58706 0.0
N1757 N 0.17805 0.33441 0.6487 0.0
C1758 C 0.14874 0.35205 0.63868 0.0
C1759 C 0.14472 0.35616 0.6053 0.0
loop_
_geom_bond_atom_site_label_1
_geom_bond_atom_site_label_2
_geom_bond_distance
_geom_bond_site_symmetry_2
_ccdc_geom_bond_type
Sc0 O3 2.025 . S
Sc0 O10 2.105 . S
Sc0 O13 2.105 . S
Sc0 O16 2.105 . S
Sc0 O19 2.105 . S
Sc1 O3 2.025 . S
Sc1 O11 2.105 . S
Sc1 O15 2.105 . S
Sc1 O17 2.105 . S
Sc1 O21 2.105 . S
Sc2 O3 2.025 . S
Sc2 O12 2.105 . S
Sc2 O14 2.105 . S
Sc2 O18 2.105 . S
Sc2 O20 2.105 . S
O3 Sc0 2.025 . S
O3 Sc1 2.025 . S
O3 Sc2 2.025 . S
C4 O10 1.268 . S
C4 O20 1.268 . S
C5 O11 1.268 . S
C5 O19 1.268 . S
C6 O12 1.268 . S
C6 O21 1.268 . S
C7 O13 1.268 . S
C7 O17 1.268 . S
C8 O14 1.268 . S
C8 O16 1.268 . S
C9 O15 1.268 . S
C9 O18 1.268 . S
O10 Sc0 2.105 . S
O10 C4 1.268 . S
O11 Sc1 2.105 . S
O11 C5 1.268 . S
O12 Sc2 2.105 . S
O12 C6 1.268 . S
O13 Sc0 2.105 . S
O13 C7 1.268 . S
O14 Sc2 2.105 . S
O14 C8 1.268 . S
O15 Sc1 2.105 . S
O15 C9 1.268 . S
O16 Sc0 2.105 . S
O16 C8 1.268 . S
O17 Sc1 2.105 . S
O17 C7 1.268 . S
O18 Sc2 2.105 . S
O18 C9 1.268 . S
O19 Sc0 2.105 . S
O19 C5 1.268 . S
O20 Sc2 2.105 . S
O20 C4 1.268 . S
O21 Sc1 2.105 . S
O21 C6 1.268 . S
Sc22 O25 2.025 . S
Sc22 O32 2.105 . S
Sc22 O35 2.105 . S
Sc22 O38 2.105 . S
Sc22 O41 2.105 . S
Sc23 O25 2.025 . S
Sc23 O33 2.105 . S
Sc23 O37 2.105 . S
Sc23 O39 2.105 . S
Sc23 O43 2.105 . S
Sc24 O25 2.025 . S
Sc24 O34 2.105 . S
Sc24 O36 2.105 . S
Sc24 O40 2.105 . S
Sc24 O42 2.105 . S
O25 Sc22 2.025 . S
O25 Sc23 2.025 . S
O25 Sc24 2.025 . S
C26 O32 1.268 . S
C26 O42 1.268 . S
C27 O33 1.268 . S
C27 O41 1.268 . S
C28 O34 1.268 . S
C28 O43 1.268 . S
C29 O35 1.268 . S
C29 O39 1.268 . S
C30 O36 1.268 . S
C30 O38 1.268 . S
C31 O37 1.268 . S
C31 O40 1.268 . S
O32 Sc22 2.105 . S
O32 C26 1.268 . S
O33 Sc23 2.105 . S
O33 C27 1.268 . S
O34 Sc24 2.105 . S
O34 C28 1.268 . S
O35 Sc22 2.105 . S
O35 C29 1.268 . S
O36 Sc24 2.105 . S
O36 C30 1.268 . S
O37 Sc23 2.105 . S
O37 C31 1.268 . S
O38 Sc22 2.105 . S
O38 C30 1.268 . S
O39 Sc23 2.105 . S
O39 C29 1.268 . S
O40 Sc24 2.105 . S
O40 C31 1.268 . S
O41 Sc22 2.105 . S
O41 C27 1.268 . S
O42 Sc24 2.105 . S
O42 C26 1.268 . S
O43 Sc23 2.105 . S
O43 C28 1.268 . S
Sc44 O47 2.025 . S
Sc44 O54 2.105 . S
Sc44 O57 2.105 . S
Sc44 O60 2.105 . S
Sc44 O63 2.105 . S
Sc45 O47 2.025 . S
Sc45 O55 2.105 . S
Sc45 O59 2.105 . S
Sc45 O61 2.105 . S
Sc45 O65 2.105 . S
Sc46 O47 2.025 . S
Sc46 O56 2.105 . S
Sc46 O58 2.105 . S
Sc46 O62 2.105 . S
Sc46 O64 2.105 . S
O47 Sc44 2.025 . S
O47 Sc45 2.025 . S
O47 Sc46 2.025 . S
C48 O54 1.268 . S
C48 O64 1.268 . S
C49 O55 1.268 . S
C49 O63 1.268 . S
C50 O56 1.268 . S
C50 O65 1.268 . S
C51 O57 1.268 . S
C51 O61 1.268 . S
C52 O58 1.268 . S
C52 O60 1.268 . S
C53 O59 1.268 . S
C53 O62 1.268 . S
O54 Sc44 2.105 . S
O54 C48 1.268 . S
O55 Sc45 2.105 . S
O55 C49 1.268 . S
O56 Sc46 2.105 . S
O56 C50 1.268 . S
O57 Sc44 2.105 . S
O57 C51 1.268 . S
O58 Sc46 2.105 . S
O58 C52 1.268 . S
O59 Sc45 2.105 . S
O59 C53 1.268 . S
O60 Sc44 2.105 . S
O60 C52 1.268 . S
O61 Sc45 2.105 . S
O61 C51 1.268 . S
O62 Sc46 2.105 . S
O62 C53 1.268 . S
O63 Sc44 2.105 . S
O63 C49 1.268 . S
O64 Sc46 2.105 . S
O64 C48 1.268 . S
O65 Sc45 2.105 . S
O65 C50 1.268 . S
Sc66 O69 2.025 . S
Sc66 O76 2.105 1_554 S
Sc66 O79 2.105 . S
Sc66 O82 2.105 . S
Sc66 O85 2.105 . S
Sc67 O69 2.025 . S
Sc67 O77 2.105 . S
Sc67 O81 2.105 . S
Sc67 O83 2.105 . S
Sc67 O87 2.105 . S
Sc68 O69 2.025 . S
Sc68 O78 2.105 . S
Sc68 O80 2.105 . S
Sc68 O84 2.105 . S
Sc68 O86 2.105 1_554 S
O69 Sc66 2.025 . S
O69 Sc67 2.025 . S
O69 Sc68 2.025 . S
C70 O76 1.268 . S
C70 O86 1.268 . S
C71 O77 1.268 . S
C71 O85 1.268 . S
C72 O78 1.268 . S
C72 O87 1.268 . S
C73 O79 1.268 . S
C73 O83 1.268 . S
C74 O80 1.268 . S
C74 O82 1.268 . S
C75 O81 1.268 . S
C75 O84 1.268 . S
O76 Sc66 2.105 1_556 S
O76 C70 1.268 . S
O77 Sc67 2.105 . S
O77 C71 1.268 . S
O78 Sc68 2.105 . S
O78 C72 1.268 . S
O79 Sc66 2.105 . S
O79 C73 1.268 . S
O80 Sc68 2.105 . S
O80 C74 1.268 . S
O81 Sc67 2.105 . S
O81 C75 1.268 . S
O82 Sc66 2.105 . S
O82 C74 1.268 . S
O83 Sc67 2.105 . S
O83 C73 1.268 . S
O84 Sc68 2.105 . S
O84 C75 1.268 . S
O85 Sc66 2.105 . S
O85 C71 1.268 . S
O86 Sc68 2.105 1_556 S
O86 C70 1.268 . S
O87 Sc67 2.105 . S
O87 C72 1.268 . S
Sc88 O91 2.025 . S
Sc88 O98 2.105 . S
Sc88 O101 2.105 . S
Sc88 O104 2.105 . S
Sc88 O107 2.105 . S
Sc89 O91 2.025 . S
Sc89 O99 2.105 . S
Sc89 O103 2.105 . S
Sc89 O105 2.105 . S
Sc89 O109 2.105 . S
Sc90 O91 2.025 . S
Sc90 O100 2.105 . S
Sc90 O102 2.105 . S
Sc90 O106 2.105 . S
Sc90 O108 2.105 . S
O91 Sc88 2.025 . S
O91 Sc89 2.025 . S
O91 Sc90 2.025 . S
C92 O98 1.268 . S
C92 O108 1.268 . S
C93 O99 1.268 . S
C93 O107 1.268 . S
C94 O100 1.268 . S
C94 O109 1.268 . S
C95 O101 1.268 . S
C95 O105 1.268 . S
C96 O102 1.268 . S
C96 O104 1.268 . S
C97 O103 1.268 . S
C97 O106 1.268 . S
O98 Sc88 2.105 . S
O98 C92 1.268 . S
O99 Sc89 2.105 . S
O99 C93 1.268 . S
O100 Sc90 2.105 . S
O100 C94 1.268 . S
O101 Sc88 2.105 . S
O101 C95 1.268 . S
O102 Sc90 2.105 . S
O102 C96 1.268 . S
O103 Sc89 2.105 . S
O103 C97 1.268 . S
O104 Sc88 2.105 . S
O104 C96 1.268 . S
O105 Sc89 2.105 . S
O105 C95 1.268 . S
O106 Sc90 2.105 . S
O106 C97 1.268 . S
O107 Sc88 2.105 . S
O107 C93 1.268 . S
O108 Sc90 2.105 . S
O108 C92 1.268 . S
O109 Sc89 2.105 . S
O109 C94 1.268 . S
Sc110 O113 2.025 . S
Sc110 O120 2.105 . S
Sc110 O123 2.105 . S
Sc110 O126 2.105 . S
Sc110 O129 2.105 . S
Sc111 O113 2.025 . S
Sc111 O121 2.105 . S
Sc111 O125 2.105 . S
Sc111 O127 2.105 . S
Sc111 O131 2.105 . S
Sc112 O113 2.025 . S
Sc112 O122 2.105 . S
Sc112 O124 2.105 . S
Sc112 O128 2.105 . S
Sc112 O130 2.105 . S
O113 Sc110 2.025 . S
O113 Sc111 2.025 . S
O113 Sc112 2.025 . S
C114 O120 1.268 . S
C114 O130 1.268 . S
C115 O121 1.268 . S
C115 O129 1.268 . S
C116 O122 1.268 . S
C116 O131 1.268 . S
C117 O123 1.268 . S
C117 O127 1.268 . S
C118 O124 1.268 . S
C118 O126 1.268 . S
C119 O125 1.268 . S
C119 O128 1.268 . S
O120 Sc110 2.105 . S
O120 C114 1.268 . S
O121 Sc111 2.105 . S
O121 C115 1.268 . S
O122 Sc112 2.105 . S
O122 C116 1.268 . S
O123 Sc110 2.105 . S
O123 C117 1.268 . S
O124 Sc112 2.105 . S
O124 C118 1.268 . S
O125 Sc111 2.105 . S
O125 C119 1.268 . S
O126 Sc110 2.105 . S
O126 C118 1.268 . S
O127 Sc111 2.105 . S
O127 C117 1.268 . S
O128 Sc112 2.105 . S
O128 C119 1.268 . S
O129 Sc110 2.105 . S
O129 C115 1.268 . S
O130 Sc112 2.105 . S
O130 C114 1.268 . S
O131 Sc111 2.105 . S
O131 C116 1.268 . S
Sc132 O135 2.025 . S
Sc132 O142 2.105 . S
Sc132 O145 2.105 . S
Sc132 O148 2.105 . S
Sc132 O151 2.105 . S
Sc133 O135 2.025 . S
Sc133 O143 2.105 . S
Sc133 O147 2.105 . S
Sc133 O149 2.105 . S
Sc133 O153 2.105 . S
Sc134 O135 2.025 . S
Sc134 O144 2.105 . S
Sc134 O146 2.105 . S
Sc134 O150 2.105 . S
Sc134 O152 2.105 . S
O135 Sc132 2.025 . S
O135 Sc133 2.025 . S
O135 Sc134 2.025 . S
C136 O142 1.268 . S
C136 O152 1.268 . S
C137 O143 1.268 . S
C137 O151 1.268 . S
C138 O144 1.268 . S
C138 O153 1.268 . S
C139 O145 1.268 . S
C139 O149 1.268 . S
C140 O146 1.268 . S
C140 O148 1.268 . S
C141 O147 1.268 . S
C141 O150 1.268 . S
O142 Sc132 2.105 . S
O142 C136 1.268 . S
O143 Sc133 2.105 . S
O143 C137 1.268 . S
O144 Sc134 2.105 . S
O144 C138 1.268 . S
O145 Sc132 2.105 . S
O145 C139 1.268 . S
O146 Sc134 2.105 . S
O146 C140 1.268 . S
O147 Sc133 2.105 . S
O147 C141 1.268 . S
O148 Sc132 2.105 . S
O148 C140 1.268 . S
O149 Sc133 2.105 . S
O149 C139 1.268 . S
O150 Sc134 2.105 . S
O150 C141 1.268 . S
O151 Sc132 2.105 . S
O151 C137 1.268 . S
O152 Sc134 2.105 . S
O152 C136 1.268 . S
O153 Sc133 2.105 . S
O153 C138 1.268 . S
Sc154 O157 2.025 . S
Sc154 O164 2.105 . S
Sc154 O167 2.105 . S
Sc154 O170 2.105 1_556 S
Sc154 O173 2.105 . S
Sc155 O157 2.025 . S
Sc155 O165 2.105 . S
Sc155 O169 2.105 . S
Sc155 O171 2.105 . S
Sc155 O175 2.105 . S
Sc156 O157 2.025 . S
Sc156 O166 2.105 . S
Sc156 O168 2.105 1_556 S
Sc156 O172 2.105 . S
Sc156 O174 2.105 . S
O157 Sc154 2.025 . S
O157 Sc155 2.025 . S
O157 Sc156 2.025 . S
C158 O164 1.268 . S
C158 O174 1.268 . S
C159 O165 1.268 . S
C159 O173 1.268 . S
C160 O166 1.268 . S
C160 O175 1.268 . S
C161 O167 1.268 . S
C161 O171 1.268 . S
C162 O168 1.268 . S
C162 O170 1.268 . S
C163 O169 1.268 . S
C163 O172 1.268 . S
O164 Sc154 2.105 . S
O164 C158 1.268 . S
O165 Sc155 2.105 . S
O165 C159 1.268 . S
O166 Sc156 2.105 . S
O166 C160 1.268 . S
O167 Sc154 2.105 . S
O167 C161 1.268 . S
O168 Sc156 2.105 1_554 S
O168 C162 1.268 . S
O169 Sc155 2.105 . S
O169 C163 1.268 . S
O170 Sc154 2.105 1_554 S
O170 C162 1.268 . S
O171 Sc155 2.105 . S
O171 C161 1.268 . S
O172 Sc156 2.105 . S
O172 C163 1.268 . S
O173 Sc154 2.105 . S
O173 C159 1.268 . S
O174 Sc156 2.105 . S
O174 C158 1.268 . S
O175 Sc155 2.105 . S
O175 C160 1.268 . S
Sc176 O179 2.025 . S
Sc176 O186 2.105 . S
Sc176 O189 2.105 . S
Sc176 O192 2.105 . S
Sc176 O195 2.105 . S
Sc177 O179 2.025 . S
Sc177 O187 2.105 . S
Sc177 O191 2.105 . S
Sc177 O193 2.105 . S
Sc177 O197 2.105 . S
Sc178 O179 2.025 . S
Sc178 O188 2.105 . S
Sc178 O190 2.105 . S
Sc178 O194 2.105 . S
Sc178 O196 2.105 . S
O179 Sc176 2.025 . S
O179 Sc177 2.025 . S
O179 Sc178 2.025 . S
C180 O186 1.268 . S
C180 O196 1.268 . S
C181 O187 1.268 . S
C181 O195 1.268 . S
C182 O188 1.268 . S
C182 O197 1.268 . S
C183 O189 1.268 . S
C183 O193 1.268 . S
C184 O190 1.268 . S
C184 O192 1.268 . S
C185 O191 1.268 . S
C185 O194 1.268 . S
O186 Sc176 2.105 . S
O186 C180 1.268 . S
O187 Sc177 2.105 . S
O187 C181 1.268 . S
O188 Sc178 2.105 . S
O188 C182 1.268 . S
O189 Sc176 2.105 . S
O189 C183 1.268 . S
O190 Sc178 2.105 . S
O190 C184 1.268 . S
O191 Sc177 2.105 . S
O191 C185 1.268 . S
O192 Sc176 2.105 . S
O192 C184 1.268 . S
O193 Sc177 2.105 . S
O193 C183 1.268 . S
O194 Sc178 2.105 . S
O194 C185 1.268 . S
O195 Sc176 2.105 . S
O195 C181 1.268 . S
O196 Sc178 2.105 . S
O196 C180 1.268 . S
O197 Sc177 2.105 . S
O197 C182 1.268 . S
Sc198 O201 2.025 . S
Sc198 O208 2.105 . S
Sc198 O211 2.105 . S
Sc198 O214 2.105 . S
Sc198 O217 2.105 . S
Sc199 O201 2.025 . S
Sc199 O209 2.105 . S
Sc199 O213 2.105 . S
Sc199 O215 2.105 . S
Sc199 O219 2.105 . S
Sc200 O201 2.025 . S
Sc200 O210 2.105 . S
Sc200 O212 2.105 . S
Sc200 O216 2.105 . S
Sc200 O218 2.105 . S
O201 Sc198 2.025 . S
O201 Sc199 2.025 . S
O201 Sc200 2.025 . S
C202 O208 1.268 . S
C202 O218 1.268 . S
C203 O209 1.268 . S
C203 O217 1.268 . S
C204 O210 1.268 . S
C204 O219 1.268 . S
C205 O211 1.268 . S
C205 O215 1.268 . S
C206 O212 1.268 . S
C206 O214 1.268 . S
C207 O213 1.268 . S
C207 O216 1.268 . S
O208 Sc198 2.105 . S
O208 C202 1.268 . S
O209 Sc199 2.105 . S
O209 C203 1.268 . S
O210 Sc200 2.105 . S
O210 C204 1.268 . S
O211 Sc198 2.105 . S
O211 C205 1.268 . S
O212 Sc200 2.105 . S
O212 C206 1.268 . S
O213 Sc199 2.105 . S
O213 C207 1.268 . S
O214 Sc198 2.105 . S
O214 C206 1.268 . S
O215 Sc199 2.105 . S
O215 C205 1.268 . S
O216 Sc200 2.105 . S
O216 C207 1.268 . S
O217 Sc198 2.105 . S
O217 C203 1.268 . S
O218 Sc200 2.105 . S
O218 C202 1.268 . S
O219 Sc199 2.105 . S
O219 C204 1.268 . S
Sc220 O223 2.025 . S
Sc220 O230 2.105 . S
Sc220 O233 2.105 . S
Sc220 O236 2.105 . S
Sc220 O239 2.105 . S
Sc221 O223 2.025 . S
Sc221 O231 2.105 . S
Sc221 O235 2.105 . S
Sc221 O237 2.105 . S
Sc221 O241 2.105 . S
Sc222 O223 2.025 . S
Sc222 O232 2.105 . S
Sc222 O234 2.105 . S
Sc222 O238 2.105 . S
Sc222 O240 2.105 . S
O223 Sc220 2.025 . S
O223 Sc221 2.025 . S
O223 Sc222 2.025 . S
C224 O230 1.268 . S
C224 O240 1.268 . S
C225 O231 1.268 . S
C225 O239 1.268 . S
C226 O232 1.268 . S
C226 O241 1.268 . S
C227 O233 1.268 . S
C227 O237 1.268 . S
C228 O234 1.268 . S
C228 O236 1.268 . S
C229 O235 1.268 . S
C229 O238 1.268 . S
O230 Sc220 2.105 . S
O230 C224 1.268 . S
O231 Sc221 2.105 . S
O231 C225 1.268 . S
O232 Sc222 2.105 . S
O232 C226 1.268 . S
O233 Sc220 2.105 . S
O233 C227 1.268 . S
O234 Sc222 2.105 . S
O234 C228 1.268 . S
O235 Sc221 2.105 . S
O235 C229 1.268 . S
O236 Sc220 2.105 . S
O236 C228 1.268 . S
O237 Sc221 2.105 . S
O237 C227 1.268 . S
O238 Sc222 2.105 . S
O238 C229 1.268 . S
O239 Sc220 2.105 . S
O239 C225 1.268 . S
O240 Sc222 2.105 . S
O240 C224 1.268 . S
O241 Sc221 2.105 . S
O241 C226 1.268 . S
Sc242 O245 2.025 . S
Sc242 O252 2.105 . S
Sc242 O255 2.105 . S
Sc242 O258 2.105 1_556 S
Sc242 O261 2.105 . S
Sc243 O245 2.025 . S
Sc243 O253 2.105 . S
Sc243 O257 2.105 . S
Sc243 O259 2.105 . S
Sc243 O263 2.105 . S
Sc244 O245 2.025 . S
Sc244 O254 2.105 . S
Sc244 O256 2.105 1_556 S
Sc244 O260 2.105 . S
Sc244 O262 2.105 . S
O245 Sc242 2.025 . S
O245 Sc243 2.025 . S
O245 Sc244 2.025 . S
C246 O252 1.268 . S
C246 O262 1.268 . S
C247 O253 1.268 . S
C247 O261 1.268 . S
C248 O254 1.268 . S
C248 O263 1.268 . S
C249 O255 1.268 . S
C249 O259 1.268 . S
C250 O256 1.268 . S
C250 O258 1.268 . S
C251 O257 1.268 . S
C251 O260 1.268 . S
O252 Sc242 2.105 . S
O252 C246 1.268 . S
O253 Sc243 2.105 . S
O253 C247 1.268 . S
O254 Sc244 2.105 . S
O254 C248 1.268 . S
O255 Sc242 2.105 . S
O255 C249 1.268 . S
O256 Sc244 2.105 1_554 S
O256 C250 1.268 . S
O257 Sc243 2.105 . S
O257 C251 1.268 . S
O258 Sc242 2.105 1_554 S
O258 C250 1.268 . S
O259 Sc243 2.105 . S
O259 C249 1.268 . S
O260 Sc244 2.105 . S
O260 C251 1.268 . S
O261 Sc242 2.105 . S
O261 C247 1.268 . S
O262 Sc244 2.105 . S
O262 C246 1.268 . S
O263 Sc243 2.105 . S
O263 C248 1.268 . S
Sc264 O267 2.025 . S
Sc264 O274 2.105 . S
Sc264 O277 2.105 . S
Sc264 O280 2.105 . S
Sc264 O283 2.105 . S
Sc265 O267 2.025 . S
Sc265 O275 2.105 . S
Sc265 O279 2.105 . S
Sc265 O281 2.105 . S
Sc265 O285 2.105 . S
Sc266 O267 2.025 . S
Sc266 O276 2.105 . S
Sc266 O278 2.105 . S
Sc266 O282 2.105 . S
Sc266 O284 2.105 . S
O267 Sc264 2.025 . S
O267 Sc265 2.025 . S
O267 Sc266 2.025 . S
C268 O274 1.268 . S
C268 O284 1.268 . S
C269 O275 1.268 . S
C269 O283 1.268 . S
C270 O276 1.268 . S
C270 O285 1.268 . S
C271 O277 1.268 . S
C271 O281 1.268 . S
C272 O278 1.268 . S
C272 O280 1.268 . S
C273 O279 1.268 . S
C273 O282 1.268 . S
O274 Sc264 2.105 . S
O274 C268 1.268 . S
O275 Sc265 2.105 . S
O275 C269 1.268 . S
O276 Sc266 2.105 . S
O276 C270 1.268 . S
O277 Sc264 2.105 . S
O277 C271 1.268 . S
O278 Sc266 2.105 . S
O278 C272 1.268 . S
O279 Sc265 2.105 . S
O279 C273 1.268 . S
O280 Sc264 2.105 . S
O280 C272 1.268 . S
O281 Sc265 2.105 . S
O281 C271 1.268 . S
O282 Sc266 2.105 . S
O282 C273 1.268 . S
O283 Sc264 2.105 . S
O283 C269 1.268 . S
O284 Sc266 2.105 . S
O284 C268 1.268 . S
O285 Sc265 2.105 . S
O285 C270 1.268 . S
Sc286 O289 2.025 . S
Sc286 O296 2.105 . S
Sc286 O299 2.105 . S
Sc286 O302 2.105 . S
Sc286 O305 2.105 . S
Sc287 O289 2.025 . S
Sc287 O297 2.105 . S
Sc287 O301 2.105 . S
Sc287 O303 2.105 . S
Sc287 O307 2.105 . S
Sc288 O289 2.025 . S
Sc288 O298 2.105 . S
Sc288 O300 2.105 . S
Sc288 O304 2.105 . S
Sc288 O306 2.105 . S
O289 Sc286 2.025 . S
O289 Sc287 2.025 . S
O289 Sc288 2.025 . S
C290 O296 1.268 . S
C290 O306 1.268 . S
C291 O297 1.268 . S
C291 O305 1.268 . S
C292 O298 1.268 . S
C292 O307 1.268 . S
C293 O299 1.268 . S
C293 O303 1.268 . S
C294 O300 1.268 . S
C294 O302 1.268 . S
C295 O301 1.268 . S
C295 O304 1.268 . S
O296 Sc286 2.105 . S
O296 C290 1.268 . S
O297 Sc287 2.105 . S
O297 C291 1.268 . S
O298 Sc288 2.105 . S
O298 C292 1.268 . S
O299 Sc286 2.105 . S
O299 C293 1.268 . S
O300 Sc288 2.105 . S
O300 C294 1.268 . S
O301 Sc287 2.105 . S
O301 C295 1.268 . S
O302 Sc286 2.105 . S
O302 C294 1.268 . S
O303 Sc287 2.105 . S
O303 C293 1.268 . S
O304 Sc288 2.105 . S
O304 C295 1.268 . S
O305 Sc286 2.105 . S
O305 C291 1.268 . S
O306 Sc288 2.105 . S
O306 C290 1.268 . S
O307 Sc287 2.105 . S
O307 C292 1.268 . S
Sc308 O311 2.025 . S
Sc308 O318 2.105 . S
Sc308 O321 2.105 . S
Sc308 O324 2.105 . S
Sc308 O327 2.105 . S
Sc309 O311 2.025 . S
Sc309 O319 2.105 . S
Sc309 O323 2.105 . S
Sc309 O325 2.105 . S
Sc309 O329 2.105 . S
Sc310 O311 2.025 . S
Sc310 O320 2.105 . S
Sc310 O322 2.105 . S
Sc310 O326 2.105 . S
Sc310 O328 2.105 . S
O311 Sc308 2.025 . S
O311 Sc309 2.025 . S
O311 Sc310 2.025 . S
C312 O318 1.268 . S
C312 O328 1.268 . S
C313 O319 1.268 . S
C313 O327 1.268 . S
C314 O320 1.268 . S
C314 O329 1.268 . S
C315 O321 1.268 . S
C315 O325 1.268 . S
C316 O322 1.268 . S
C316 O324 1.268 . S
C317 O323 1.268 . S
C317 O326 1.268 . S
O318 Sc308 2.105 . S
O318 C312 1.268 . S
O319 Sc309 2.105 . S
O319 C313 1.268 . S
O320 Sc310 2.105 . S
O320 C314 1.268 . S
O321 Sc308 2.105 . S
O321 C315 1.268 . S
O322 Sc310 2.105 . S
O322 C316 1.268 . S
O323 Sc309 2.105 . S
O323 C317 1.268 . S
O324 Sc308 2.105 . S
O324 C316 1.268 . S
O325 Sc309 2.105 . S
O325 C315 1.268 . S
O326 Sc310 2.105 . S
O326 C317 1.268 . S
O327 Sc308 2.105 . S
O327 C313 1.268 . S
O328 Sc310 2.105 . S
O328 C312 1.268 . S
O329 Sc309 2.105 . S
O329 C314 1.268 . S
Sc330 O333 2.025 . S
Sc330 O340 2.105 1_554 S
Sc330 O343 2.105 . S
Sc330 O346 2.105 . S
Sc330 O349 2.105 . S
Sc331 O333 2.025 . S
Sc331 O341 2.105 . S
Sc331 O345 2.105 . S
Sc331 O347 2.105 . S
Sc331 O351 2.105 . S
Sc332 O333 2.025 . S
Sc332 O342 2.105 . S
Sc332 O344 2.105 . S
Sc332 O348 2.105 . S
Sc332 O350 2.105 1_554 S
O333 Sc330 2.025 . S
O333 Sc331 2.025 . S
O333 Sc332 2.025 . S
C334 O340 1.268 . S
C334 O350 1.268 . S
C335 O341 1.268 . S
C335 O349 1.268 . S
C336 O342 1.268 . S
C336 O351 1.268 . S
C337 O343 1.268 . S
C337 O347 1.268 . S
C338 O344 1.268 . S
C338 O346 1.268 . S
C339 O345 1.268 . S
C339 O348 1.268 . S
O340 Sc330 2.105 1_556 S
O340 C334 1.268 . S
O341 Sc331 2.105 . S
O341 C335 1.268 . S
O342 Sc332 2.105 . S
O342 C336 1.268 . S
O343 Sc330 2.105 . S
O343 C337 1.268 . S
O344 Sc332 2.105 . S
O344 C338 1.268 . S
O345 Sc331 2.105 . S
O345 C339 1.268 . S
O346 Sc330 2.105 . S
O346 C338 1.268 . S
O347 Sc331 2.105 . S
O347 C337 1.268 . S
O348 Sc332 2.105 . S
O348 C339 1.268 . S
O349 Sc330 2.105 . S
O349 C335 1.268 . S
O350 Sc332 2.105 1_556 S
O350 C334 1.268 . S
O351 Sc331 2.105 . S
O351 C336 1.268 . S
Sc352 O355 2.025 . S
Sc352 O362 2.105 . S
Sc352 O365 2.105 . S
Sc352 O368 2.105 . S
Sc352 O371 2.105 . S
Sc353 O355 2.025 . S
Sc353 O363 2.105 . S
Sc353 O367 2.105 . S
Sc353 O369 2.105 . S
Sc353 O373 2.105 . S
Sc354 O355 2.025 . S
Sc354 O364 2.105 . S
Sc354 O366 2.105 . S
Sc354 O370 2.105 . S
Sc354 O372 2.105 . S
O355 Sc352 2.025 . S
O355 Sc353 2.025 . S
O355 Sc354 2.025 . S
C356 O362 1.268 . S
C356 O372 1.268 . S
C357 O363 1.268 . S
C357 O371 1.268 . S
C358 O364 1.268 . S
C358 O373 1.268 . S
C359 O365 1.268 . S
C359 O369 1.268 . S
C360 O366 1.268 . S
C360 O368 1.268 . S
C361 O367 1.268 . S
C361 O370 1.268 . S
O362 Sc352 2.105 . S
O362 C356 1.268 . S
O363 Sc353 2.105 . S
O363 C357 1.268 . S
O364 Sc354 2.105 . S
O364 C358 1.268 . S
O365 Sc352 2.105 . S
O365 C359 1.268 . S
O366 Sc354 2.105 . S
O366 C360 1.268 . S
O367 Sc353 2.105 . S
O367 C361 1.268 . S
O368 Sc352 2.105 . S
O368 C360 1.268 . S
O369 Sc353 2.105 . S
O369 C359 1.268 . S
O370 Sc354 2.105 . S
O370 C361 1.268 . S
O371 Sc352 2.105 . S
O371 C357 1.268 . S
O372 Sc354 2.105 . S
O372 C356 1.268 . S
O373 Sc353 2.105 . S
O373 C358 1.268 . S
Sc374 O377 2.025 . S
Sc374 O384 2.105 1_554 S
Sc374 O387 2.105 . S
Sc374 O390 2.105 . S
Sc374 O393 2.105 . S
Sc375 O377 2.025 . S
Sc375 O385 2.105 . S
Sc375 O389 2.105 . S
Sc375 O391 2.105 . S
Sc375 O395 2.105 . S
Sc376 O377 2.025 . S
Sc376 O386 2.105 . S
Sc376 O388 2.105 . S
Sc376 O392 2.105 . S
Sc376 O394 2.105 1_554 S
O377 Sc374 2.025 . S
O377 Sc375 2.025 . S
O377 Sc376 2.025 . S
C378 O384 1.268 . S
C378 O394 1.268 . S
C379 O385 1.268 . S
C379 O393 1.268 . S
C380 O386 1.268 . S
C380 O395 1.268 . S
C381 O387 1.268 . S
C381 O391 1.268 . S
C382 O388 1.268 . S
C382 O390 1.268 . S
C383 O389 1.268 . S
C383 O392 1.268 . S
O384 Sc374 2.105 1_556 S
O384 C378 1.268 . S
O385 Sc375 2.105 . S
O385 C379 1.268 . S
O386 Sc376 2.105 . S
O386 C380 1.268 . S
O387 Sc374 2.105 . S
O387 C381 1.268 . S
O388 Sc376 2.105 . S
O388 C382 1.268 . S
O389 Sc375 2.105 . S
O389 C383 1.268 . S
O390 Sc374 2.105 . S
O390 C382 1.268 . S
O391 Sc375 2.105 . S
O391 C381 1.268 . S
O392 Sc376 2.105 . S
O392 C383 1.268 . S
O393 Sc374 2.105 . S
O393 C379 1.268 . S
O394 Sc376 2.105 1_556 S
O394 C378 1.268 . S
O395 Sc375 2.105 . S
O395 C380 1.268 . S
Sc396 O399 2.025 . S
Sc396 O406 2.105 . S
Sc396 O409 2.105 . S
Sc396 O412 2.105 . S
Sc396 O415 2.105 . S
Sc397 O399 2.025 . S
Sc397 O407 2.105 . S
Sc397 O411 2.105 . S
Sc397 O413 2.105 . S
Sc397 O417 2.105 . S
Sc398 O399 2.025 . S
Sc398 O408 2.105 . S
Sc398 O410 2.105 . S
Sc398 O414 2.105 . S
Sc398 O416 2.105 . S
O399 Sc396 2.025 . S
O399 Sc397 2.025 . S
O399 Sc398 2.025 . S
C400 O406 1.268 . S
C400 O416 1.268 . S
C401 O407 1.268 . S
C401 O415 1.268 . S
C402 O408 1.268 . S
C402 O417 1.268 . S
C403 O409 1.268 . S
C403 O413 1.268 . S
C404 O410 1.268 . S
C404 O412 1.268 . S
C405 O411 1.268 . S
C405 O414 1.268 . S
O406 Sc396 2.105 . S
O406 C400 1.268 . S
O407 Sc397 2.105 . S
O407 C401 1.268 . S
O408 Sc398 2.105 . S
O408 C402 1.268 . S
O409 Sc396 2.105 . S
O409 C403 1.268 . S
O410 Sc398 2.105 . S
O410 C404 1.268 . S
O411 Sc397 2.105 . S
O411 C405 1.268 . S
O412 Sc396 2.105 . S
O412 C404 1.268 . S
O413 Sc397 2.105 . S
O413 C403 1.268 . S
O414 Sc398 2.105 . S
O414 C405 1.268 . S
O415 Sc396 2.105 . S
O415 C401 1.268 . S
O416 Sc398 2.105 . S
O416 C400 1.268 . S
O417 Sc397 2.105 . S
O417 C402 1.268 . S
Sc418 O421 2.025 . S
Sc418 O428 2.105 . S
Sc418 O431 2.105 . S
Sc418 O434 2.105 . S
Sc418 O437 2.105 . S
Sc419 O421 2.025 . S
Sc419 O429 2.105 . S
Sc419 O433 2.105 . S
Sc419 O435 2.105 . S
Sc419 O439 2.105 . S
Sc420 O421 2.025 . S
Sc420 O430 2.105 . S
Sc420 O432 2.105 . S
Sc420 O436 2.105 . S
Sc420 O438 2.105 . S
O421 Sc418 2.025 . S
O421 Sc419 2.025 . S
O421 Sc420 2.025 . S
C422 O428 1.268 . S
C422 O438 1.268 . S
C423 O429 1.268 . S
C423 O437 1.268 . S
C424 O430 1.268 . S
C424 O439 1.268 . S
C425 O431 1.268 . S
C425 O435 1.268 . S
C426 O432 1.268 . S
C426 O434 1.268 . S
C427 O433 1.268 . S
C427 O436 1.268 . S
O428 Sc418 2.105 . S
O428 C422 1.268 . S
O429 Sc419 2.105 . S
O429 C423 1.268 . S
O430 Sc420 2.105 . S
O430 C424 1.268 . S
O431 Sc418 2.105 . S
O431 C425 1.268 . S
O432 Sc420 2.105 . S
O432 C426 1.268 . S
O433 Sc419 2.105 . S
O433 C427 1.268 . S
O434 Sc418 2.105 . S
O434 C426 1.268 . S
O435 Sc419 2.105 . S
O435 C425 1.268 . S
O436 Sc420 2.105 . S
O436 C427 1.268 . S
O437 Sc418 2.105 . S
O437 C423 1.268 . S
O438 Sc420 2.105 . S
O438 C422 1.268 . S
O439 Sc419 2.105 . S
O439 C424 1.268 . S
Sc440 O443 2.025 . S
Sc440 O450 2.105 . S
Sc440 O453 2.105 . S
Sc440 O456 2.105 . S
Sc440 O459 2.105 . S
Sc441 O443 2.025 . S
Sc441 O451 2.105 . S
Sc441 O455 2.105 . S
Sc441 O457 2.105 . S
Sc441 O461 2.105 . S
Sc442 O443 2.025 . S
Sc442 O452 2.105 . S
Sc442 O454 2.105 . S
Sc442 O458 2.105 . S
Sc442 O460 2.105 . S
O443 Sc440 2.025 . S
O443 Sc441 2.025 . S
O443 Sc442 2.025 . S
C444 O450 1.268 . S
C444 O460 1.268 . S
C445 O451 1.268 . S
C445 O459 1.268 . S
C446 O452 1.268 . S
C446 O461 1.268 . S
C447 O453 1.268 . S
C447 O457 1.268 . S
C448 O454 1.268 . S
C448 O456 1.268 . S
C449 O455 1.268 . S
C449 O458 1.268 . S
O450 Sc440 2.105 . S
O450 C444 1.268 . S
O451 Sc441 2.105 . S
O451 C445 1.268 . S
O452 Sc442 2.105 . S
O452 C446 1.268 . S
O453 Sc440 2.105 . S
O453 C447 1.268 . S
O454 Sc442 2.105 . S
O454 C448 1.268 . S
O455 Sc441 2.105 . S
O455 C449 1.268 . S
O456 Sc440 2.105 . S
O456 C448 1.268 . S
O457 Sc441 2.105 . S
O457 C447 1.268 . S
O458 Sc442 2.105 . S
O458 C449 1.268 . S
O459 Sc440 2.105 . S
O459 C445 1.268 . S
O460 Sc442 2.105 . S
O460 C444 1.268 . S
O461 Sc441 2.105 . S
O461 C446 1.268 . S
Sc462 O465 2.025 . S
Sc462 O472 2.105 . S
Sc462 O475 2.105 . S
Sc462 O478 2.105 1_556 S
Sc462 O481 2.105 . S
Sc463 O465 2.025 . S
Sc463 O473 2.105 . S
Sc463 O477 2.105 . S
Sc463 O479 2.105 . S
Sc463 O483 2.105 . S
Sc464 O465 2.025 . S
Sc464 O474 2.105 . S
Sc464 O476 2.105 1_556 S
Sc464 O480 2.105 . S
Sc464 O482 2.105 . S
O465 Sc462 2.025 . S
O465 Sc463 2.025 . S
O465 Sc464 2.025 . S
C466 O472 1.268 . S
C466 O482 1.268 . S
C467 O473 1.268 . S
C467 O481 1.268 . S
C468 O474 1.268 . S
C468 O483 1.268 . S
C469 O475 1.268 . S
C469 O479 1.268 . S
C470 O476 1.268 . S
C470 O478 1.268 . S
C471 O477 1.268 . S
C471 O480 1.268 . S
O472 Sc462 2.105 . S
O472 C466 1.268 . S
O473 Sc463 2.105 . S
O473 C467 1.268 . S
O474 Sc464 2.105 . S
O474 C468 1.268 . S
O475 Sc462 2.105 . S
O475 C469 1.268 . S
O476 Sc464 2.105 1_554 S
O476 C470 1.268 . S
O477 Sc463 2.105 . S
O477 C471 1.268 . S
O478 Sc462 2.105 1_554 S
O478 C470 1.268 . S
O479 Sc463 2.105 . S
O479 C469 1.268 . S
O480 Sc464 2.105 . S
O480 C471 1.268 . S
O481 Sc462 2.105 . S
O481 C467 1.268 . S
O482 Sc464 2.105 . S
O482 C466 1.268 . S
O483 Sc463 2.105 . S
O483 C468 1.268 . S
Sc484 O487 2.025 . S
Sc484 O494 2.105 . S
Sc484 O497 2.105 . S
Sc484 O500 2.105 . S
Sc484 O503 2.105 . S
Sc485 O487 2.025 . S
Sc485 O495 2.105 . S
Sc485 O499 2.105 . S
Sc485 O501 2.105 . S
Sc485 O505 2.105 . S
Sc486 O487 2.025 . S
Sc486 O496 2.105 . S
Sc486 O498 2.105 . S
Sc486 O502 2.105 . S
Sc486 O504 2.105 . S
O487 Sc484 2.025 . S
O487 Sc485 2.025 . S
O487 Sc486 2.025 . S
C488 O494 1.268 . S
C488 O504 1.268 . S
C489 O495 1.268 . S
C489 O503 1.268 . S
C490 O496 1.268 . S
C490 O505 1.268 . S
C491 O497 1.268 . S
C491 O501 1.268 . S
C492 O498 1.268 . S
C492 O500 1.268 . S
C493 O499 1.268 . S
C493 O502 1.268 . S
O494 Sc484 2.105 . S
O494 C488 1.268 . S
O495 Sc485 2.105 . S
O495 C489 1.268 . S
O496 Sc486 2.105 . S
O496 C490 1.268 . S
O497 Sc484 2.105 . S
O497 C491 1.268 . S
O498 Sc486 2.105 . S
O498 C492 1.268 . S
O499 Sc485 2.105 . S
O499 C493 1.268 . S
O500 Sc484 2.105 . S
O500 C492 1.268 . S
O501 Sc485 2.105 . S
O501 C491 1.268 . S
O502 Sc486 2.105 . S
O502 C493 1.268 . S
O503 Sc484 2.105 . S
O503 C489 1.268 . S
O504 Sc486 2.105 . S
O504 C488 1.268 . S
O505 Sc485 2.105 . S
O505 C490 1.268 . S
Sc506 O509 2.025 . S
Sc506 O516 2.105 . S
Sc506 O519 2.105 . S
Sc506 O522 2.105 . S
Sc506 O525 2.105 . S
Sc507 O509 2.025 . S
Sc507 O517 2.105 . S
Sc507 O521 2.105 . S
Sc507 O523 2.105 . S
Sc507 O527 2.105 . S
Sc508 O509 2.025 . S
Sc508 O518 2.105 . S
Sc508 O520 2.105 . S
Sc508 O524 2.105 . S
Sc508 O526 2.105 . S
O509 Sc506 2.025 . S
O509 Sc507 2.025 . S
O509 Sc508 2.025 . S
C510 O516 1.268 . S
C510 O526 1.268 . S
C511 O517 1.268 . S
C511 O525 1.268 . S
C512 O518 1.268 . S
C512 O527 1.268 . S
C513 O519 1.268 . S
C513 O523 1.268 . S
C514 O520 1.268 . S
C514 O522 1.268 . S
C515 O521 1.268 . S
C515 O524 1.268 . S
O516 Sc506 2.105 . S
O516 C510 1.268 . S
O517 Sc507 2.105 . S
O517 C511 1.268 . S
O518 Sc508 2.105 . S
O518 C512 1.268 . S
O519 Sc506 2.105 . S
O519 C513 1.268 . S
O520 Sc508 2.105 . S
O520 C514 1.268 . S
O521 Sc507 2.105 . S
O521 C515 1.268 . S
O522 Sc506 2.105 . S
O522 C514 1.268 . S
O523 Sc507 2.105 . S
O523 C513 1.268 . S
O524 Sc508 2.105 . S
O524 C515 1.268 . S
O525 Sc506 2.105 . S
O525 C511 1.268 . S
O526 Sc508 2.105 . S
O526 C510 1.268 . S
O527 Sc507 2.105 . S
O527 C512 1.268 . S
Sc528 O531 2.025 . S
Sc528 O538 2.105 . S
Sc528 O541 2.105 . S
Sc528 O544 2.105 . S
Sc528 O547 2.105 . S
Sc529 O531 2.025 . S
Sc529 O539 2.105 . S
Sc529 O543 2.105 . S
Sc529 O545 2.105 . S
Sc529 O549 2.105 . S
Sc530 O531 2.025 . S
Sc530 O540 2.105 . S
Sc530 O542 2.105 . S
Sc530 O546 2.105 . S
Sc530 O548 2.105 . S
O531 Sc528 2.025 . S
O531 Sc529 2.025 . S
O531 Sc530 2.025 . S
C532 O538 1.268 . S
C532 O548 1.268 . S
C533 O539 1.268 . S
C533 O547 1.268 . S
C534 O540 1.268 . S
C534 O549 1.268 . S
C535 O541 1.268 . S
C535 O545 1.268 . S
C536 O542 1.268 . S
C536 O544 1.268 . S
C537 O543 1.268 . S
C537 O546 1.268 . S
O538 Sc528 2.105 . S
O538 C532 1.268 . S
O539 Sc529 2.105 . S
O539 C533 1.268 . S
O540 Sc530 2.105 . S
O540 C534 1.268 . S
O541 Sc528 2.105 . S
O541 C535 1.268 . S
O542 Sc530 2.105 . S
O542 C536 1.268 . S
O543 Sc529 2.105 . S
O543 C537 1.268 . S
O544 Sc528 2.105 . S
O544 C536 1.268 . S
O545 Sc529 2.105 . S
O545 C535 1.268 . S
O546 Sc530 2.105 . S
O546 C537 1.268 . S
O547 Sc528 2.105 . S
O547 C533 1.268 . S
O548 Sc530 2.105 . S
O548 C532 1.268 . S
O549 Sc529 2.105 . S
O549 C534 1.268 . S
Sc550 O553 2.025 . S
Sc550 O560 2.105 . S
Sc550 O563 2.105 . S
Sc550 O566 2.105 1_556 S
Sc550 O569 2.105 . S
Sc551 O553 2.025 . S
Sc551 O561 2.105 . S
Sc551 O565 2.105 . S
Sc551 O567 2.105 . S
Sc551 O571 2.105 . S
Sc552 O553 2.025 . S
Sc552 O562 2.105 . S
Sc552 O564 2.105 1_556 S
Sc552 O568 2.105 . S
Sc552 O570 2.105 . S
O553 Sc550 2.025 . S
O553 Sc551 2.025 . S
O553 Sc552 2.025 . S
C554 O560 1.268 . S
C554 O570 1.268 . S
C555 O561 1.268 . S
C555 O569 1.268 . S
C556 O562 1.268 . S
C556 O571 1.268 . S
C557 O563 1.268 . S
C557 O567 1.268 . S
C558 O564 1.268 . S
C558 O566 1.268 . S
C559 O565 1.268 . S
C559 O568 1.268 . S
O560 Sc550 2.105 . S
O560 C554 1.268 . S
O561 Sc551 2.105 . S
O561 C555 1.268 . S
O562 Sc552 2.105 . S
O562 C556 1.268 . S
O563 Sc550 2.105 . S
O563 C557 1.268 . S
O564 Sc552 2.105 1_554 S
O564 C558 1.268 . S
O565 Sc551 2.105 . S
O565 C559 1.268 . S
O566 Sc550 2.105 1_554 S
O566 C558 1.268 . S
O567 Sc551 2.105 . S
O567 C557 1.268 . S
O568 Sc552 2.105 . S
O568 C559 1.268 . S
O569 Sc550 2.105 . S
O569 C555 1.268 . S
O570 Sc552 2.105 . S
O570 C554 1.268 . S
O571 Sc551 2.105 . S
O571 C556 1.268 . S
Sc572 O575 2.025 . S
Sc572 O582 2.105 . S
Sc572 O585 2.105 . S
Sc572 O588 2.105 . S
Sc572 O591 2.105 . S
Sc573 O575 2.025 . S
Sc573 O583 2.105 . S
Sc573 O587 2.105 . S
Sc573 O589 2.105 . S
Sc573 O593 2.105 . S
Sc574 O575 2.025 . S
Sc574 O584 2.105 . S
Sc574 O586 2.105 . S
Sc574 O590 2.105 . S
Sc574 O592 2.105 . S
O575 Sc572 2.025 . S
O575 Sc573 2.025 . S
O575 Sc574 2.025 . S
C576 O582 1.268 . S
C576 O592 1.268 . S
C577 O583 1.268 . S
C577 O591 1.268 . S
C578 O584 1.268 . S
C578 O593 1.268 . S
C579 O585 1.268 . S
C579 O589 1.268 . S
C580 O586 1.268 . S
C580 O588 1.268 . S
C581 O587 1.268 . S
C581 O590 1.268 . S
O582 Sc572 2.105 . S
O582 C576 1.268 . S
O583 Sc573 2.105 . S
O583 C577 1.268 . S
O584 Sc574 2.105 . S
O584 C578 1.268 . S
O585 Sc572 2.105 . S
O585 C579 1.268 . S
O586 Sc574 2.105 . S
O586 C580 1.268 . S
O587 Sc573 2.105 . S
O587 C581 1.268 . S
O588 Sc572 2.105 . S
O588 C580 1.268 . S
O589 Sc573 2.105 . S
O589 C579 1.268 . S
O590 Sc574 2.105 . S
O590 C581 1.268 . S
O591 Sc572 2.105 . S
O591 C577 1.268 . S
O592 Sc574 2.105 . S
O592 C576 1.268 . S
O593 Sc573 2.105 . S
O593 C578 1.268 . S
Sc594 O597 2.025 . S
Sc594 O604 2.105 . S
Sc594 O607 2.105 . S
Sc594 O610 2.105 . S
Sc594 O613 2.105 . S
Sc595 O597 2.025 . S
Sc595 O605 2.105 . S
Sc595 O609 2.105 . S
Sc595 O611 2.105 . S
Sc595 O615 2.105 . S
Sc596 O597 2.025 . S
Sc596 O606 2.105 . S
Sc596 O608 2.105 . S
Sc596 O612 2.105 . S
Sc596 O614 2.105 . S
O597 Sc594 2.025 . S
O597 Sc595 2.025 . S
O597 Sc596 2.025 . S
C598 O604 1.268 . S
C598 O614 1.268 . S
C599 O605 1.268 . S
C599 O613 1.268 . S
C600 O606 1.268 . S
C600 O615 1.268 . S
C601 O607 1.268 . S
C601 O611 1.268 . S
C602 O608 1.268 . S
C602 O610 1.268 . S
C603 O609 1.268 . S
C603 O612 1.268 . S
O604 Sc594 2.105 . S
O604 C598 1.268 . S
O605 Sc595 2.105 . S
O605 C599 1.268 . S
O606 Sc596 2.105 . S
O606 C600 1.268 . S
O607 Sc594 2.105 . S
O607 C601 1.268 . S
O608 Sc596 2.105 . S
O608 C602 1.268 . S
O609 Sc595 2.105 . S
O609 C603 1.268 . S
O610 Sc594 2.105 . S
O610 C602 1.268 . S
O611 Sc595 2.105 . S
O611 C601 1.268 . S
O612 Sc596 2.105 . S
O612 C603 1.268 . S
O613 Sc594 2.105 . S
O613 C599 1.268 . S
O614 Sc596 2.105 . S
O614 C598 1.268 . S
O615 Sc595 2.105 . S
O615 C600 1.268 . S
Sc616 O619 2.025 . S
Sc616 O626 2.105 . S
Sc616 O629 2.105 . S
Sc616 O632 2.105 . S
Sc616 O635 2.105 . S
Sc617 O619 2.025 . S
Sc617 O627 2.105 . S
Sc617 O631 2.105 . S
Sc617 O633 2.105 . S
Sc617 O637 2.105 . S
Sc618 O619 2.025 . S
Sc618 O628 2.105 . S
Sc618 O630 2.105 . S
Sc618 O634 2.105 . S
Sc618 O636 2.105 . S
O619 Sc616 2.025 . S
O619 Sc617 2.025 . S
O619 Sc618 2.025 . S
C620 O626 1.268 . S
C620 O636 1.268 . S
C621 O627 1.268 . S
C621 O635 1.268 . S
C622 O628 1.268 . S
C622 O637 1.268 . S
C623 O629 1.268 . S
C623 O633 1.268 . S
C624 O630 1.268 . S
C624 O632 1.268 . S
C625 O631 1.268 . S
C625 O634 1.268 . S
O626 Sc616 2.105 . S
O626 C620 1.268 . S
O627 Sc617 2.105 . S
O627 C621 1.268 . S
O628 Sc618 2.105 . S
O628 C622 1.268 . S
O629 Sc616 2.105 . S
O629 C623 1.268 . S
O630 Sc618 2.105 . S
O630 C624 1.268 . S
O631 Sc617 2.105 . S
O631 C625 1.268 . S
O632 Sc616 2.105 . S
O632 C624 1.268 . S
O633 Sc617 2.105 . S
O633 C623 1.268 . S
O634 Sc618 2.105 . S
O634 C625 1.268 . S
O635 Sc616 2.105 . S
O635 C621 1.268 . S
O636 Sc618 2.105 . S
O636 C620 1.268 . S
O637 Sc617 2.105 . S
O637 C622 1.268 . S
Sc638 O641 2.025 . S
Sc638 O648 2.105 1_554 S
Sc638 O651 2.105 . S
Sc638 O654 2.105 . S
Sc638 O657 2.105 . S
Sc639 O641 2.025 . S
Sc639 O649 2.105 . S
Sc639 O653 2.105 . S
Sc639 O655 2.105 . S
Sc639 O659 2.105 . S
Sc640 O641 2.025 . S
Sc640 O650 2.105 . S
Sc640 O652 2.105 . S
Sc640 O656 2.105 . S
Sc640 O658 2.105 1_554 S
O641 Sc638 2.025 . S
O641 Sc639 2.025 . S
O641 Sc640 2.025 . S
C642 O648 1.268 . S
C642 O658 1.268 . S
C643 O649 1.268 . S
C643 O657 1.268 . S
C644 O650 1.268 . S
C644 O659 1.268 . S
C645 O651 1.268 . S
C645 O655 1.268 . S
C646 O652 1.268 . S
C646 O654 1.268 . S
C647 O653 1.268 . S
C647 O656 1.268 . S
O648 Sc638 2.105 1_556 S
O648 C642 1.268 . S
O649 Sc639 2.105 . S
O649 C643 1.268 . S
O650 Sc640 2.105 . S
O650 C644 1.268 . S
O651 Sc638 2.105 . S
O651 C645 1.268 . S
O652 Sc640 2.105 . S
O652 C646 1.268 . S
O653 Sc639 2.105 . S
O653 C647 1.268 . S
O654 Sc638 2.105 . S
O654 C646 1.268 . S
O655 Sc639 2.105 . S
O655 C645 1.268 . S
O656 Sc640 2.105 . S
O656 C647 1.268 . S
O657 Sc638 2.105 . S
O657 C643 1.268 . S
O658 Sc640 2.105 1_556 S
O658 C642 1.268 . S
O659 Sc639 2.105 . S
O659 C644 1.268 . S
Sc660 O663 2.025 . S
Sc660 O670 2.105 . S
Sc660 O673 2.105 . S
Sc660 O676 2.105 . S
Sc660 O679 2.105 . S
Sc661 O663 2.025 . S
Sc661 O671 2.105 . S
Sc661 O675 2.105 . S
Sc661 O677 2.105 . S
Sc661 O681 2.105 . S
Sc662 O663 2.025 . S
Sc662 O672 2.105 . S
Sc662 O674 2.105 . S
Sc662 O678 2.105 . S
Sc662 O680 2.105 . S
O663 Sc660 2.025 . S
O663 Sc661 2.025 . S
O663 Sc662 2.025 . S
C664 O670 1.268 . S
C664 O680 1.268 . S
C665 O671 1.268 . S
C665 O679 1.268 . S
C666 O672 1.268 . S
C666 O681 1.268 . S
C667 O673 1.268 . S
C667 O677 1.268 . S
C668 O674 1.268 . S
C668 O676 1.268 . S
C669 O675 1.268 . S
C669 O678 1.268 . S
O670 Sc660 2.105 . S
O670 C664 1.268 . S
O671 Sc661 2.105 . S
O671 C665 1.268 . S
O672 Sc662 2.105 . S
O672 C666 1.268 . S
O673 Sc660 2.105 . S
O673 C667 1.268 . S
O674 Sc662 2.105 . S
O674 C668 1.268 . S
O675 Sc661 2.105 . S
O675 C669 1.268 . S
O676 Sc660 2.105 . S
O676 C668 1.268 . S
O677 Sc661 2.105 . S
O677 C667 1.268 . S
O678 Sc662 2.105 . S
O678 C669 1.268 . S
O679 Sc660 2.105 . S
O679 C665 1.268 . S
O680 Sc662 2.105 . S
O680 C664 1.268 . S
O681 Sc661 2.105 . S
O681 C666 1.268 . S
Sc682 O685 2.025 . S
Sc682 O692 2.105 . S
Sc682 O695 2.105 . S
Sc682 O698 2.105 . S
Sc682 O701 2.105 . S
Sc683 O685 2.025 . S
Sc683 O693 2.105 . S
Sc683 O697 2.105 . S
Sc683 O699 2.105 . S
Sc683 O703 2.105 . S
Sc684 O685 2.025 . S
Sc684 O694 2.105 . S
Sc684 O696 2.105 . S
Sc684 O700 2.105 . S
Sc684 O702 2.105 . S
O685 Sc682 2.025 . S
O685 Sc683 2.025 . S
O685 Sc684 2.025 . S
C686 O692 1.268 . S
C686 O702 1.268 . S
C687 O693 1.268 . S
C687 O701 1.268 . S
C688 O694 1.268 . S
C688 O703 1.268 . S
C689 O695 1.268 . S
C689 O699 1.268 . S
C690 O696 1.268 . S
C690 O698 1.268 . S
C691 O697 1.268 . S
C691 O700 1.268 . S
O692 Sc682 2.105 . S
O692 C686 1.268 . S
O693 Sc683 2.105 . S
O693 C687 1.268 . S
O694 Sc684 2.105 . S
O694 C688 1.268 . S
O695 Sc682 2.105 . S
O695 C689 1.268 . S
O696 Sc684 2.105 . S
O696 C690 1.268 . S
O697 Sc683 2.105 . S
O697 C691 1.268 . S
O698 Sc682 2.105 . S
O698 C690 1.268 . S
O699 Sc683 2.105 . S
O699 C689 1.268 . S
O700 Sc684 2.105 . S
O700 C691 1.268 . S
O701 Sc682 2.105 . S
O701 C687 1.268 . S
O702 Sc684 2.105 . S
O702 C686 1.268 . S
O703 Sc683 2.105 . S
O703 C688 1.268 . S
C704 C705 1.369 . S
C704 C706 1.419 1_545 S
C704 H708 0.930 . S
C705 C704 1.369 . S
C705 C714 1.429 . S
C706 C704 1.419 1_565 S
C706 C707 1.363 . S
C706 H709 0.929 . S
C707 C706 1.363 . S
C707 C713 1.428 . S
H708 C704 0.930 . S
H709 C706 0.929 . S
S710 N711 1.613 . S
S710 N712 1.610 1_545 S
N711 S710 1.613 . S
N711 C714 1.350 . S
N712 S710 1.610 1_565 S
N712 C713 1.351 . S
C713 C707 1.428 . S
C713 N712 1.351 . S
C713 C714 1.434 1_565 S
C714 C705 1.429 . S
C714 N711 1.350 . S
C714 C713 1.434 1_545 S
C715 C716 1.369 . S
C715 C717 1.419 . S
C715 H719 0.930 . S
C716 C715 1.369 . S
C716 C725 1.429 . S
C717 C715 1.419 . S
C717 C718 1.363 . S
C717 H720 0.929 . S
C718 C717 1.363 . S
C718 C724 1.428 . S
H719 C715 0.930 . S
H720 C717 0.929 . S
S721 N722 1.613 . S
S721 N723 1.610 . S
N722 S721 1.613 . S
N722 C725 1.350 . S
N723 S721 1.610 . S
N723 C724 1.351 . S
C724 C718 1.428 . S
C724 N723 1.351 . S
C724 C725 1.434 . S
C725 C716 1.429 . S
C725 N722 1.350 . S
C725 C724 1.434 . S
C726 C727 1.369 . S
C726 C728 1.419 1_545 S
C726 H730 0.930 . S
C727 C726 1.369 . S
C727 C736 1.429 . S
C728 C726 1.419 1_565 S
C728 C729 1.363 . S
C728 H731 0.929 . S
C729 C728 1.363 . S
C729 C735 1.428 . S
H730 C726 0.930 . S
H731 C728 0.929 . S
S732 N733 1.613 . S
S732 N734 1.610 1_545 S
N733 S732 1.613 . S
N733 C736 1.350 . S
N734 S732 1.610 1_565 S
N734 C735 1.351 . S
C735 C729 1.428 . S
C735 N734 1.351 . S
C735 C736 1.434 1_565 S
C736 C727 1.429 . S
C736 N733 1.350 . S
C736 C735 1.434 1_545 S
C737 C738 1.369 . S
C737 C739 1.419 . S
C737 H741 0.930 . S
C738 C737 1.369 . S
C738 C747 1.429 1_554 S
C739 C737 1.419 . S
C739 C740 1.363 1_554 S
C739 H742 0.929 . S
C740 C739 1.363 1_556 S
C740 C746 1.428 . S
H741 C737 0.930 . S
H742 C739 0.929 . S
S743 N744 1.613 . S
S743 N745 1.610 . S
N744 S743 1.613 . S
N744 C747 1.350 . S
N745 S743 1.610 . S
N745 C746 1.351 . S
C746 C740 1.428 . S
C746 N745 1.351 . S
C746 C747 1.434 . S
C747 C738 1.429 1_556 S
C747 N744 1.350 . S
C747 C746 1.434 . S
C748 C749 1.369 . S
C748 C750 1.419 1_565 S
C748 H752 0.930 . S
C749 C748 1.369 . S
C749 C758 1.429 . S
C750 C748 1.419 1_545 S
C750 C751 1.363 . S
C750 H753 0.929 . S
C751 C750 1.363 . S
C751 C757 1.428 . S
H752 C748 0.930 . S
H753 C750 0.929 . S
S754 N755 1.613 . S
S754 N756 1.610 1_565 S
N755 S754 1.613 . S
N755 C758 1.350 . S
N756 S754 1.610 1_545 S
N756 C757 1.351 . S
C757 C751 1.428 . S
C757 N756 1.351 . S
C757 C758 1.434 1_545 S
C758 C749 1.429 . S
C758 N755 1.350 . S
C758 C757 1.434 1_565 S
C759 C760 1.369 . S
C759 C761 1.419 . S
C759 H763 0.930 . S
C760 C759 1.369 . S
C760 C769 1.429 . S
C761 C759 1.419 . S
C761 C762 1.363 . S
C761 H764 0.929 . S
C762 C761 1.363 . S
C762 C768 1.428 . S
H763 C759 0.930 . S
H764 C761 0.929 . S
S765 N766 1.613 . S
S765 N767 1.610 . S
N766 S765 1.613 . S
N766 C769 1.350 . S
N767 S765 1.610 . S
N767 C768 1.351 . S
C768 C762 1.428 . S
C768 N767 1.351 . S
C768 C769 1.434 . S
C769 C760 1.429 . S
C769 N766 1.350 . S
C769 C768 1.434 . S
C770 C771 1.369 . S
C770 C772 1.419 1_545 S
C770 H774 0.930 . S
C771 C770 1.369 . S
C771 C780 1.429 . S
C772 C770 1.419 1_565 S
C772 C773 1.363 . S
C772 H775 0.929 . S
C773 C772 1.363 . S
C773 C779 1.428 . S
H774 C770 0.930 . S
H775 C772 0.929 . S
S776 N777 1.613 1_565 S
S776 N778 1.610 . S
N777 S776 1.613 1_545 S
N777 C780 1.350 . S
N778 S776 1.610 . S
N778 C779 1.351 . S
C779 C773 1.428 . S
C779 N778 1.351 . S
C779 C780 1.434 1_565 S
C780 C771 1.429 . S
C780 N777 1.350 . S
C780 C779 1.434 1_545 S
C781 C782 1.369 1_556 S
C781 C783 1.419 . S
C781 H785 0.930 . S
C782 C781 1.369 1_554 S
C782 C791 1.429 . S
C783 C781 1.419 . S
C783 C784 1.363 . S
C783 H786 0.929 . S
C784 C783 1.363 . S
C784 C790 1.428 1_556 S
H785 C781 0.930 . S
H786 C783 0.929 . S
S787 N788 1.613 . S
S787 N789 1.610 . S
N788 S787 1.613 . S
N788 C791 1.350 . S
N789 S787 1.610 . S
N789 C790 1.351 . S
C790 C784 1.428 1_554 S
C790 N789 1.351 . S
C790 C791 1.434 . S
C791 C782 1.429 . S
C791 N788 1.350 . S
C791 C790 1.434 . S
C792 C793 1.369 . S
C792 C794 1.419 . S
C792 H796 0.930 . S
C793 C792 1.369 . S
C793 C802 1.429 . S
C794 C792 1.419 . S
C794 C795 1.363 . S
C794 H797 0.929 . S
C795 C794 1.363 . S
C795 C801 1.428 . S
H796 C792 0.930 . S
H797 C794 0.929 . S
S798 N799 1.613 . S
S798 N800 1.610 . S
N799 S798 1.613 . S
N799 C802 1.350 . S
N800 S798 1.610 . S
N800 C801 1.351 . S
C801 C795 1.428 . S
C801 N800 1.351 . S
C801 C802 1.434 . S
C802 C793 1.429 . S
C802 N799 1.350 . S
C802 C801 1.434 . S
C803 C804 1.369 . S
C803 C805 1.419 . S
C803 H807 0.930 . S
C804 C803 1.369 . S
C804 C813 1.429 1_556 S
C805 C803 1.419 . S
C805 C806 1.363 1_556 S
C805 H808 0.929 . S
C806 C805 1.363 1_554 S
C806 C812 1.428 . S
H807 C803 0.930 . S
H808 C805 0.929 . S
S809 N810 1.613 . S
S809 N811 1.610 . S
N810 S809 1.613 . S
N810 C813 1.350 . S
N811 S809 1.610 . S
N811 C812 1.351 . S
C812 C806 1.428 . S
C812 N811 1.351 . S
C812 C813 1.434 . S
C813 C804 1.429 1_554 S
C813 N810 1.350 . S
C813 C812 1.434 . S
C814 C815 1.369 . S
C814 C816 1.419 . S
C814 H818 0.930 . S
C815 C814 1.369 . S
C815 C824 1.429 . S
C816 C814 1.419 . S
C816 C817 1.363 . S
C816 H819 0.929 . S
C817 C816 1.363 . S
C817 C823 1.428 . S
H818 C814 0.930 . S
H819 C816 0.929 . S
S820 N821 1.613 . S
S820 N822 1.610 . S
N821 S820 1.613 . S
N821 C824 1.350 . S
N822 S820 1.610 . S
N822 C823 1.351 . S
C823 C817 1.428 . S
C823 N822 1.351 . S
C823 C824 1.434 . S
C824 C815 1.429 . S
C824 N821 1.350 . S
C824 C823 1.434 . S
C825 C826 1.369 . S
C825 C827 1.419 . S
C825 H829 0.930 . S
C826 C825 1.369 . S
C826 C835 1.429 . S
C827 C825 1.419 . S
C827 C828 1.363 . S
C827 H830 0.929 . S
C828 C827 1.363 . S
C828 C834 1.428 . S
H829 C825 0.930 . S
H830 C827 0.929 . S
S831 N832 1.613 . S
S831 N833 1.610 . S
N832 S831 1.613 . S
N832 C835 1.350 . S
N833 S831 1.610 . S
N833 C834 1.351 . S
C834 C828 1.428 . S
C834 N833 1.351 . S
C834 C835 1.434 . S
C835 C826 1.429 . S
C835 N832 1.350 . S
C835 C834 1.434 . S
C836 C837 1.369 . S
C836 C838 1.419 . S
C836 H840 0.930 . S
C837 C836 1.369 . S
C837 C846 1.429 . S
C838 C836 1.419 . S
C838 C839 1.363 . S
C838 H841 0.929 . S
C839 C838 1.363 . S
C839 C845 1.428 . S
H840 C836 0.930 . S
H841 C838 0.929 . S
S842 N843 1.613 . S
S842 N844 1.610 . S
N843 S842 1.613 . S
N843 C846 1.350 . S
N844 S842 1.610 . S
N844 C845 1.351 . S
C845 C839 1.428 . S
C845 N844 1.351 . S
C845 C846 1.434 . S
C846 C837 1.429 . S
C846 N843 1.350 . S
C846 C845 1.434 . S
C847 C848 1.369 . S
C847 C849 1.419 . S
C847 H851 0.930 . S
C848 C847 1.369 . S
C848 C857 1.429 1_556 S
C849 C847 1.419 . S
C849 C850 1.363 1_556 S
C849 H852 0.929 . S
C850 C849 1.363 1_554 S
C850 C856 1.428 . S
H851 C847 0.930 . S
H852 C849 0.929 . S
S853 N854 1.613 . S
S853 N855 1.610 . S
N854 S853 1.613 . S
N854 C857 1.350 . S
N855 S853 1.610 . S
N855 C856 1.351 . S
C856 C850 1.428 . S
C856 N855 1.351 . S
C856 C857 1.434 . S
C857 C848 1.429 1_554 S
C857 N854 1.350 . S
C857 C856 1.434 . S
C858 C859 1.369 . S
C858 C860 1.419 . S
C858 H862 0.930 . S
C859 C858 1.369 . S
C859 C868 1.429 . S
C860 C858 1.419 . S
C860 C861 1.363 . S
C860 H863 0.929 . S
C861 C860 1.363 . S
C861 C867 1.428 . S
H862 C858 0.930 . S
H863 C860 0.929 . S
S864 N865 1.613 . S
S864 N866 1.610 . S
N865 S864 1.613 . S
N865 C868 1.350 . S
N866 S864 1.610 . S
N866 C867 1.351 . S
C867 C861 1.428 . S
C867 N866 1.351 . S
C867 C868 1.434 . S
C868 C859 1.429 . S
C868 N865 1.350 . S
C868 C867 1.434 . S
C869 C870 1.369 . S
C869 C871 1.419 . S
C869 H873 0.930 . S
C870 C869 1.369 . S
C870 C879 1.429 . S
C871 C869 1.419 . S
C871 C872 1.363 . S
C871 H874 0.929 . S
C872 C871 1.363 . S
C872 C878 1.428 . S
H873 C869 0.930 . S
H874 C871 0.929 . S
S875 N876 1.613 . S
S875 N877 1.610 . S
N876 S875 1.613 . S
N876 C879 1.350 . S
N877 S875 1.610 . S
N877 C878 1.351 . S
C878 C872 1.428 . S
C878 N877 1.351 . S
C878 C879 1.434 . S
C879 C870 1.429 . S
C879 N876 1.350 . S
C879 C878 1.434 . S
C880 C881 1.369 . S
C880 C882 1.419 . S
C880 H884 0.930 . S
C881 C880 1.369 . S
C881 C890 1.429 . S
C882 C880 1.419 . S
C882 C883 1.363 . S
C882 H885 0.929 . S
C883 C882 1.363 . S
C883 C889 1.428 . S
H884 C880 0.930 . S
H885 C882 0.929 . S
S886 N887 1.613 . S
S886 N888 1.610 . S
N887 S886 1.613 . S
N887 C890 1.350 . S
N888 S886 1.610 . S
N888 C889 1.351 . S
C889 C883 1.428 . S
C889 N888 1.351 . S
C889 C890 1.434 . S
C890 C881 1.429 . S
C890 N887 1.350 . S
C890 C889 1.434 . S
C891 C892 1.369 1_565 S
C891 C893 1.419 1_655 S
C891 H895 0.930 . S
C892 C891 1.369 1_545 S
C892 C901 1.429 . S
C893 C891 1.419 1_455 S
C893 C894 1.363 . S
C893 H896 0.929 . S
C894 C893 1.363 . S
C894 C900 1.428 1_565 S
H895 C891 0.930 . S
H896 C893 0.929 . S
S897 N898 1.613 1_455 S
S897 N899 1.610 . S
N898 S897 1.613 1_655 S
N898 C901 1.350 . S
N899 S897 1.610 . S
N899 C900 1.351 . S
C900 C894 1.428 1_545 S
C900 N899 1.351 . S
C900 C901 1.434 1_455 S
C901 C892 1.429 . S
C901 N898 1.350 . S
C901 C900 1.434 1_655 S
C902 C903 1.369 . S
C902 C904 1.419 . S
C902 H906 0.930 . S
C903 C902 1.369 . S
C903 C912 1.429 . S
C904 C902 1.419 . S
C904 C905 1.363 . S
C904 H907 0.929 . S
C905 C904 1.363 . S
C905 C911 1.428 . S
H906 C902 0.930 . S
H907 C904 0.929 . S
S908 N909 1.613 . S
S908 N910 1.610 . S
N909 S908 1.613 . S
N909 C912 1.350 . S
N910 S908 1.610 . S
N910 C911 1.351 . S
C911 C905 1.428 . S
C911 N910 1.351 . S
C911 C912 1.434 . S
C912 C903 1.429 . S
C912 N909 1.350 . S
C912 C911 1.434 . S
C913 C914 1.369 . S
C913 C915 1.419 . S
C913 H917 0.930 . S
C914 C913 1.369 . S
C914 C923 1.429 1_544 S
C915 C913 1.419 . S
C915 C916 1.363 1_544 S
C915 H918 0.929 . S
C916 C915 1.363 1_566 S
C916 C922 1.428 . S
H917 C913 0.930 . S
H918 C915 0.929 . S
S919 N920 1.613 . S
S919 N921 1.610 . S
N920 S919 1.613 . S
N920 C923 1.350 . S
N921 S919 1.610 . S
N921 C922 1.351 . S
C922 C916 1.428 . S
C922 N921 1.351 . S
C922 C923 1.434 . S
C923 C914 1.429 1_566 S
C923 N920 1.350 . S
C923 C922 1.434 . S
C924 C925 1.369 . S
C924 C926 1.419 . S
C924 H928 0.930 . S
C925 C924 1.369 . S
C925 C934 1.429 . S
C926 C924 1.419 . S
C926 C927 1.363 . S
C926 H929 0.929 . S
C927 C926 1.363 . S
C927 C933 1.428 . S
H928 C924 0.930 . S
H929 C926 0.929 . S
S930 N931 1.613 . S
S930 N932 1.610 . S
N931 S930 1.613 . S
N931 C934 1.350 . S
N932 S930 1.610 . S
N932 C933 1.351 . S
C933 C927 1.428 . S
C933 N932 1.351 . S
C933 C934 1.434 . S
C934 C925 1.429 . S
C934 N931 1.350 . S
C934 C933 1.434 . S
C935 C936 1.369 1_545 S
C935 C937 1.419 . S
C935 H939 0.930 . S
C936 C935 1.369 1_565 S
C936 C945 1.429 . S
C937 C935 1.419 . S
C937 C938 1.363 . S
C937 H940 0.929 . S
C938 C937 1.363 . S
C938 C944 1.428 1_545 S
H939 C935 0.930 . S
H940 C937 0.929 . S
S941 N942 1.613 . S
S941 N943 1.610 . S
N942 S941 1.613 . S
N942 C945 1.350 . S
N943 S941 1.610 . S
N943 C944 1.351 . S
C944 C938 1.428 1_565 S
C944 N943 1.351 . S
C944 C945 1.434 . S
C945 C936 1.429 . S
C945 N942 1.350 . S
C945 C944 1.434 . S
C946 C947 1.369 . S
C946 C948 1.419 . S
C946 H950 0.930 . S
C947 C946 1.369 . S
C947 C956 1.429 . S
C948 C946 1.419 . S
C948 C949 1.363 . S
C948 H951 0.929 . S
C949 C948 1.363 . S
C949 C955 1.428 . S
H950 C946 0.930 . S
H951 C948 0.929 . S
S952 N953 1.613 . S
S952 N954 1.610 . S
N953 S952 1.613 . S
N953 C956 1.350 . S
N954 S952 1.610 . S
N954 C955 1.351 . S
C955 C949 1.428 . S
C955 N954 1.351 . S
C955 C956 1.434 . S
C956 C947 1.429 . S
C956 N953 1.350 . S
C956 C955 1.434 . S
C957 C958 1.369 . S
C957 C959 1.419 1_665 S
C957 H961 0.930 . S
C958 C957 1.369 . S
C958 C967 1.429 1_554 S
C959 C957 1.419 1_445 S
C959 C960 1.363 1_554 S
C959 H962 0.929 . S
C960 C959 1.363 1_556 S
C960 C966 1.428 . S
H961 C957 0.930 . S
H962 C959 0.929 . S
S963 N964 1.613 1_545 S
S963 N965 1.610 1_655 S
N964 S963 1.613 1_565 S
N964 C967 1.350 . S
N965 S963 1.610 1_455 S
N965 C966 1.351 . S
C966 C960 1.428 . S
C966 N965 1.351 . S
C966 C967 1.434 1_445 S
C967 C958 1.429 1_556 S
C967 N964 1.350 . S
C967 C966 1.434 1_665 S
C968 C969 1.369 . S
C968 C970 1.419 . S
C968 H972 0.930 . S
C969 C968 1.369 . S
C969 C978 1.429 . S
C970 C968 1.419 . S
C970 C971 1.363 . S
C970 H973 0.929 . S
C971 C970 1.363 . S
C971 C977 1.428 . S
H972 C968 0.930 . S
H973 C970 0.929 . S
S974 N975 1.613 . S
S974 N976 1.610 . S
N975 S974 1.613 . S
N975 C978 1.350 . S
N976 S974 1.610 . S
N976 C977 1.351 . S
C977 C971 1.428 . S
C977 N976 1.351 . S
C977 C978 1.434 . S
C978 C969 1.429 . S
C978 N975 1.350 . S
C978 C977 1.434 . S
C979 C980 1.369 . S
C979 C981 1.419 . S
C979 H983 0.930 . S
C980 C979 1.369 . S
C980 C989 1.429 . S
C981 C979 1.419 . S
C981 C982 1.363 . S
C981 H984 0.929 . S
C982 C981 1.363 . S
C982 C988 1.428 . S
H983 C979 0.930 . S
H984 C981 0.929 . S
S985 N986 1.613 . S
S985 N987 1.610 . S
N986 S985 1.613 . S
N986 C989 1.350 . S
N987 S985 1.610 . S
N987 C988 1.351 . S
C988 C982 1.428 . S
C988 N987 1.351 . S
C988 C989 1.434 . S
C989 C980 1.429 . S
C989 N986 1.350 . S
C989 C988 1.434 . S
C990 C991 1.369 . S
C990 C992 1.419 . S
C990 H994 0.930 . S
C991 C990 1.369 . S
C991 C1000 1.429 . S
C992 C990 1.419 . S
C992 C993 1.363 . S
C992 H995 0.929 . S
C993 C992 1.363 . S
C993 C999 1.428 . S
H994 C990 0.930 . S
H995 C992 0.929 . S
S996 N997 1.613 . S
S996 N998 1.610 . S
N997 S996 1.613 . S
N997 C1000 1.350 . S
N998 S996 1.610 . S
N998 C999 1.351 . S
C999 C993 1.428 . S
C999 N998 1.351 . S
C999 C1000 1.434 . S
C1000 C991 1.429 . S
C1000 N997 1.350 . S
C1000 C999 1.434 . S
C1001 C1002 1.369 . S
C1001 C1003 1.419 . S
C1001 H1005 0.930 . S
C1002 C1001 1.369 . S
C1002 C1011 1.429 . S
C1003 C1001 1.419 . S
C1003 C1004 1.363 . S
C1003 H1006 0.929 . S
C1004 C1003 1.363 . S
C1004 C1010 1.428 . S
H1005 C1001 0.930 . S
H1006 C1003 0.929 . S
S1007 N1008 1.613 . S
S1007 N1009 1.610 . S
N1008 S1007 1.613 . S
N1008 C1011 1.350 . S
N1009 S1007 1.610 . S
N1009 C1010 1.351 . S
C1010 C1004 1.428 . S
C1010 N1009 1.351 . S
C1010 C1011 1.434 . S
C1011 C1002 1.429 . S
C1011 N1008 1.350 . S
C1011 C1010 1.434 . S
C1012 C1013 1.369 1_556 S
C1012 C1014 1.419 . S
C1012 H1016 0.930 . S
C1013 C1012 1.369 1_554 S
C1013 C1022 1.429 . S
C1014 C1012 1.419 . S
C1014 C1015 1.363 . S
C1014 H1017 0.929 . S
C1015 C1014 1.363 . S
C1015 C1021 1.428 1_556 S
H1016 C1012 0.930 . S
H1017 C1014 0.929 . S
S1018 N1019 1.613 . S
S1018 N1020 1.610 . S
N1019 S1018 1.613 . S
N1019 C1022 1.350 . S
N1020 S1018 1.610 . S
N1020 C1021 1.351 . S
C1021 C1015 1.428 1_554 S
C1021 N1020 1.351 . S
C1021 C1022 1.434 . S
C1022 C1013 1.429 . S
C1022 N1019 1.350 . S
C1022 C1021 1.434 . S
C1023 C1024 1.369 . S
C1023 C1025 1.419 1_455 S
C1023 H1027 0.930 . S
C1024 C1023 1.369 . S
C1024 C1033 1.429 . S
C1025 C1023 1.419 1_655 S
C1025 C1026 1.363 . S
C1025 H1028 0.929 . S
C1026 C1025 1.363 . S
C1026 C1032 1.428 . S
H1027 C1023 0.930 . S
H1028 C1025 0.929 . S
S1029 N1030 1.613 1_655 S
S1029 N1031 1.610 . S
N1030 S1029 1.613 1_455 S
N1030 C1033 1.350 . S
N1031 S1029 1.610 . S
N1031 C1032 1.351 . S
C1032 C1026 1.428 . S
C1032 N1031 1.351 . S
C1032 C1033 1.434 1_655 S
C1033 C1024 1.429 . S
C1033 N1030 1.350 . S
C1033 C1032 1.434 1_455 S
C1034 C1035 1.369 . S
C1034 C1036 1.419 1_455 S
C1034 H1038 0.930 . S
C1035 C1034 1.369 . S
C1035 C1044 1.429 1_554 S
C1036 C1034 1.419 1_655 S
C1036 C1037 1.363 1_554 S
C1036 H1039 0.929 . S
C1037 C1036 1.363 1_556 S
C1037 C1043 1.428 . S
H1038 C1034 0.930 . S
H1039 C1036 0.929 . S
S1040 N1041 1.613 1_655 S
S1040 N1042 1.610 . S
N1041 S1040 1.613 1_455 S
N1041 C1044 1.350 . S
N1042 S1040 1.610 . S
N1042 C1043 1.351 . S
C1043 C1037 1.428 . S
C1043 N1042 1.351 . S
C1043 C1044 1.434 1_655 S
C1044 C1035 1.429 1_556 S
C1044 N1041 1.350 . S
C1044 C1043 1.434 1_455 S
C1045 C1046 1.369 . S
C1045 C1047 1.419 . S
C1045 H1049 0.930 . S
C1046 C1045 1.369 . S
C1046 C1055 1.429 . S
C1047 C1045 1.419 . S
C1047 C1048 1.363 . S
C1047 H1050 0.929 . S
C1048 C1047 1.363 . S
C1048 C1054 1.428 . S
H1049 C1045 0.930 . S
H1050 C1047 0.929 . S
S1051 N1052 1.613 . S
S1051 N1053 1.610 . S
N1052 S1051 1.613 . S
N1052 C1055 1.350 . S
N1053 S1051 1.610 . S
N1053 C1054 1.351 . S
C1054 C1048 1.428 . S
C1054 N1053 1.351 . S
C1054 C1055 1.434 . S
C1055 C1046 1.429 . S
C1055 N1052 1.350 . S
C1055 C1054 1.434 . S
C1056 C1057 1.369 . S
C1056 C1058 1.419 . S
C1056 H1060 0.930 . S
C1057 C1056 1.369 . S
C1057 C1066 1.429 . S
C1058 C1056 1.419 . S
C1058 C1059 1.363 . S
C1058 H1061 0.929 . S
C1059 C1058 1.363 . S
C1059 C1065 1.428 . S
H1060 C1056 0.930 . S
H1061 C1058 0.929 . S
S1062 N1063 1.613 . S
S1062 N1064 1.610 . S
N1063 S1062 1.613 . S
N1063 C1066 1.350 . S
N1064 S1062 1.610 . S
N1064 C1065 1.351 . S
C1065 C1059 1.428 . S
C1065 N1064 1.351 . S
C1065 C1066 1.434 . S
C1066 C1057 1.429 . S
C1066 N1063 1.350 . S
C1066 C1065 1.434 . S
C1067 C1068 1.369 . S
C1067 C1069 1.419 . S
C1067 H1071 0.930 . S
C1068 C1067 1.369 . S
C1068 C1077 1.429 . S
C1069 C1067 1.419 . S
C1069 C1070 1.363 . S
C1069 H1072 0.929 . S
C1070 C1069 1.363 . S
C1070 C1076 1.428 . S
H1071 C1067 0.930 . S
H1072 C1069 0.929 . S
S1073 N1074 1.619 . S
S1073 N1075 1.598 1_455 S
N1074 S1073 1.619 . S
N1074 C1077 1.350 1_455 S
N1075 S1073 1.598 1_655 S
N1075 C1076 1.351 . S
C1076 C1070 1.428 . S
C1076 N1075 1.351 . S
C1076 C1077 1.434 . S
C1077 C1068 1.429 . S
C1077 N1074 1.350 1_655 S
C1077 C1076 1.434 . S
C1078 C1079 1.369 . S
C1078 C1080 1.419 . S
C1078 H1082 0.930 . S
C1079 C1078 1.369 . S
C1079 C1088 1.429 . S
C1080 C1078 1.419 . S
C1080 C1081 1.363 . S
C1080 H1083 0.929 . S
C1081 C1080 1.363 . S
C1081 C1087 1.428 . S
H1082 C1078 0.930 . S
H1083 C1080 0.929 . S
S1084 N1085 1.613 . S
S1084 N1086 1.610 . S
N1085 S1084 1.613 . S
N1085 C1088 1.350 . S
N1086 S1084 1.610 . S
N1086 C1087 1.351 . S
C1087 C1081 1.428 . S
C1087 N1086 1.351 . S
C1087 C1088 1.434 . S
C1088 C1079 1.429 . S
C1088 N1085 1.350 . S
C1088 C1087 1.434 . S
C1089 C1090 1.369 . S
C1089 C1091 1.419 . S
C1089 H1093 0.930 . S
C1090 C1089 1.369 . S
C1090 C1099 1.429 . S
C1091 C1089 1.419 . S
C1091 C1092 1.363 . S
C1091 H1094 0.929 . S
C1092 C1091 1.363 . S
C1092 C1098 1.428 . S
H1093 C1089 0.930 . S
H1094 C1091 0.929 . S
S1095 N1096 1.613 . S
S1095 N1097 1.610 . S
N1096 S1095 1.613 . S
N1096 C1099 1.350 . S
N1097 S1095 1.610 . S
N1097 C1098 1.351 . S
C1098 C1092 1.428 . S
C1098 N1097 1.351 . S
C1098 C1099 1.434 . S
C1099 C1090 1.429 . S
C1099 N1096 1.350 . S
C1099 C1098 1.434 . S
C1100 C1101 1.369 . S
C1100 C1102 1.419 . S
C1100 H1104 0.930 . S
C1101 C1100 1.369 . S
C1101 C1110 1.429 . S
C1102 C1100 1.419 . S
C1102 C1103 1.363 . S
C1102 H1105 0.929 . S
C1103 C1102 1.363 . S
C1103 C1109 1.428 . S
H1104 C1100 0.930 . S
H1105 C1102 0.929 . S
S1106 N1107 1.613 . S
S1106 N1108 1.610 . S
N1107 S1106 1.613 . S
N1107 C1110 1.350 . S
N1108 S1106 1.610 . S
N1108 C1109 1.351 . S
C1109 C1103 1.428 . S
C1109 N1108 1.351 . S
C1109 C1110 1.434 . S
C1110 C1101 1.429 . S
C1110 N1107 1.350 . S
C1110 C1109 1.434 . S
C1111 C1112 1.369 . S
C1111 C1113 1.419 . S
C1111 H1115 0.930 . S
C1112 C1111 1.369 . S
C1112 C1121 1.429 . S
C1113 C1111 1.419 . S
C1113 C1114 1.363 . S
C1113 H1116 0.929 . S
C1114 C1113 1.363 . S
C1114 C1120 1.428 . S
H1115 C1111 0.930 . S
H1116 C1113 0.929 . S
S1117 N1118 1.613 . S
S1117 N1119 1.610 . S
N1118 S1117 1.613 . S
N1118 C1121 1.350 . S
N1119 S1117 1.610 . S
N1119 C1120 1.351 . S
C1120 C1114 1.428 . S
C1120 N1119 1.351 . S
C1120 C1121 1.434 . S
C1121 C1112 1.429 . S
C1121 N1118 1.350 . S
C1121 C1120 1.434 . S
C1122 C1123 1.369 . S
C1122 C1124 1.419 . S
C1122 H1126 0.930 . S
C1123 C1122 1.369 . S
C1123 C1132 1.429 . S
C1124 C1122 1.419 . S
C1124 C1125 1.363 . S
C1124 H1127 0.929 . S
C1125 C1124 1.363 . S
C1125 C1131 1.428 . S
H1126 C1122 0.930 . S
H1127 C1124 0.929 . S
S1128 N1129 1.613 . S
S1128 N1130 1.610 . S
N1129 S1128 1.613 . S
N1129 C1132 1.350 . S
N1130 S1128 1.610 . S
N1130 C1131 1.351 . S
C1131 C1125 1.428 . S
C1131 N1130 1.351 . S
C1131 C1132 1.434 . S
C1132 C1123 1.429 . S
C1132 N1129 1.350 . S
C1132 C1131 1.434 . S
C1133 C1134 1.369 . S
C1133 C1135 1.419 . S
C1133 H1137 0.930 . S
C1134 C1133 1.369 . S
C1134 C1143 1.429 . S
C1135 C1133 1.419 . S
C1135 C1136 1.363 . S
C1135 H1138 0.929 . S
C1136 C1135 1.363 . S
C1136 C1142 1.428 1_655 S
H1137 C1133 0.930 . S
H1138 C1135 0.929 . S
S1139 N1140 1.613 1_455 S
S1139 N1141 1.610 . S
N1140 S1139 1.613 1_655 S
N1140 C1143 1.350 . S
N1141 S1139 1.610 . S
N1141 C1142 1.355 . S
C1142 C1136 1.428 1_455 S
C1142 N1141 1.355 . S
C1142 C1143 1.430 1_455 S
C1143 C1134 1.429 . S
C1143 N1140 1.350 . S
C1143 C1142 1.430 1_655 S
C1144 C1145 1.369 . S
C1144 C1146 1.419 . S
C1144 H1148 0.930 . S
C1145 C1144 1.369 . S
C1145 C1154 1.429 . S
C1146 C1144 1.419 . S
C1146 C1147 1.363 . S
C1146 H1149 0.929 . S
C1147 C1146 1.363 . S
C1147 C1153 1.428 . S
H1148 C1144 0.930 . S
H1149 C1146 0.929 . S
S1150 N1151 1.613 . S
S1150 N1152 1.610 . S
N1151 S1150 1.613 . S
N1151 C1154 1.350 . S
N1152 S1150 1.610 . S
N1152 C1153 1.351 . S
C1153 C1147 1.428 . S
C1153 N1152 1.351 . S
C1153 C1154 1.434 . S
C1154 C1145 1.429 . S
C1154 N1151 1.350 . S
C1154 C1153 1.434 . S
C1155 C1156 1.369 . S
C1155 C1157 1.419 . S
C1155 H1159 0.930 . S
C1156 C1155 1.369 . S
C1156 C1165 1.429 1_455 S
C1157 C1155 1.419 . S
C1157 C1158 1.363 . S
C1157 H1160 0.929 . S
C1158 C1157 1.363 . S
C1158 C1164 1.428 . S
H1159 C1155 0.930 . S
H1160 C1157 0.929 . S
S1161 N1162 1.613 . S
S1161 N1163 1.610 1_655 S
N1162 S1161 1.613 . S
N1162 C1165 1.350 . S
N1163 S1161 1.610 1_455 S
N1163 C1164 1.351 . S
C1164 C1158 1.428 . S
C1164 N1163 1.351 . S
C1164 C1165 1.434 1_455 S
C1165 C1156 1.429 1_655 S
C1165 N1162 1.350 . S
C1165 C1164 1.434 1_655 S
C1166 C1167 1.369 . S
C1166 C1168 1.419 . S
C1166 H1170 0.930 . S
C1167 C1166 1.369 . S
C1167 C1176 1.429 . S
C1168 C1166 1.419 . S
C1168 C1169 1.363 . S
C1168 H1171 0.929 . S
C1169 C1168 1.363 . S
C1169 C1175 1.428 . S
H1170 C1166 0.930 . S
H1171 C1168 0.929 . S
S1172 N1173 1.613 . S
S1172 N1174 1.610 . S
N1173 S1172 1.613 . S
N1173 C1176 1.350 . S
N1174 S1172 1.610 . S
N1174 C1175 1.351 . S
C1175 C1169 1.428 . S
C1175 N1174 1.351 . S
C1175 C1176 1.434 . S
C1176 C1167 1.429 . S
C1176 N1173 1.350 . S
C1176 C1175 1.434 . S
C1177 C1178 1.369 . S
C1177 C1179 1.419 . S
C1177 H1181 0.930 . S
C1178 C1177 1.369 . S
C1178 C1187 1.429 . S
C1179 C1177 1.419 . S
C1179 C1180 1.363 . S
C1179 H1182 0.929 . S
C1180 C1179 1.363 . S
C1180 C1186 1.428 . S
H1181 C1177 0.930 . S
H1182 C1179 0.929 . S
S1183 N1184 1.613 . S
S1183 N1185 1.610 . S
N1184 S1183 1.613 . S
N1184 C1187 1.350 . S
N1185 S1183 1.610 . S
N1185 C1186 1.351 . S
C1186 C1180 1.428 . S
C1186 N1185 1.351 . S
C1186 C1187 1.434 . S
C1187 C1178 1.429 . S
C1187 N1184 1.350 . S
C1187 C1186 1.434 . S
C1188 C1189 1.369 . S
C1188 C1190 1.419 . S
C1188 H1192 0.930 . S
C1189 C1188 1.369 . S
C1189 C1198 1.429 . S
C1190 C1188 1.419 . S
C1190 C1191 1.363 . S
C1190 H1193 0.929 . S
C1191 C1190 1.363 . S
C1191 C1197 1.428 . S
H1192 C1188 0.930 . S
H1193 C1190 0.929 . S
S1194 N1195 1.613 . S
S1194 N1196 1.610 . S
N1195 S1194 1.613 . S
N1195 C1198 1.350 . S
N1196 S1194 1.610 . S
N1196 C1197 1.351 . S
C1197 C1191 1.428 . S
C1197 N1196 1.351 . S
C1197 C1198 1.434 . S
C1198 C1189 1.429 . S
C1198 N1195 1.350 . S
C1198 C1197 1.434 . S
C1199 C1200 1.369 . S
C1199 C1201 1.419 . S
C1199 H1203 0.930 . S
C1200 C1199 1.369 . S
C1200 C1209 1.429 . S
C1201 C1199 1.419 . S
C1201 C1202 1.363 . S
C1201 H1204 0.929 . S
C1202 C1201 1.363 . S
C1202 C1208 1.428 . S
H1203 C1199 0.930 . S
H1204 C1201 0.929 . S
S1205 N1206 1.613 . S
S1205 N1207 1.610 . S
N1206 S1205 1.613 . S
N1206 C1209 1.350 . S
N1207 S1205 1.610 . S
N1207 C1208 1.351 . S
C1208 C1202 1.428 . S
C1208 N1207 1.351 . S
C1208 C1209 1.434 . S
C1209 C1200 1.429 . S
C1209 N1206 1.350 . S
C1209 C1208 1.434 . S
C1210 C1211 1.369 . S
C1210 C1212 1.419 . S
C1210 H1214 0.930 . S
C1211 C1210 1.369 . S
C1211 C1220 1.429 . S
C1212 C1210 1.419 . S
C1212 C1213 1.363 . S
C1212 H1215 0.929 . S
C1213 C1212 1.363 . S
C1213 C1219 1.428 . S
H1214 C1210 0.930 . S
H1215 C1212 0.929 . S
S1216 N1217 1.613 . S
S1216 N1218 1.610 . S
N1217 S1216 1.613 . S
N1217 C1220 1.350 . S
N1218 S1216 1.610 . S
N1218 C1219 1.351 . S
C1219 C1213 1.428 . S
C1219 N1218 1.351 . S
C1219 C1220 1.434 . S
C1220 C1211 1.429 . S
C1220 N1217 1.350 . S
C1220 C1219 1.434 . S
C1221 C1222 1.369 . S
C1221 C1223 1.419 . S
C1221 H1225 0.930 . S
C1222 C1221 1.369 . S
C1222 C1231 1.429 . S
C1223 C1221 1.419 . S
C1223 C1224 1.363 . S
C1223 H1226 0.929 . S
C1224 C1223 1.363 . S
C1224 C1230 1.428 . S
H1225 C1221 0.930 . S
H1226 C1223 0.929 . S
S1227 N1228 1.613 . S
S1227 N1229 1.610 1_455 S
N1228 S1227 1.613 . S
N1228 C1231 1.350 . S
N1229 S1227 1.610 1_655 S
N1229 C1230 1.351 1_655 S
C1230 C1224 1.428 . S
C1230 N1229 1.351 1_455 S
C1230 C1231 1.434 . S
C1231 C1222 1.429 . S
C1231 N1228 1.350 . S
C1231 C1230 1.434 . S
C1232 C1233 1.369 . S
C1232 C1234 1.419 . S
C1232 H1236 0.930 . S
C1233 C1232 1.369 . S
C1233 C1242 1.429 . S
C1234 C1232 1.419 . S
C1234 C1235 1.363 . S
C1234 H1237 0.929 . S
C1235 C1234 1.363 . S
C1235 C1241 1.428 . S
H1236 C1232 0.930 . S
H1237 C1234 0.929 . S
S1238 N1239 1.613 . S
S1238 N1240 1.610 . S
N1239 S1238 1.613 . S
N1239 C1242 1.350 . S
N1240 S1238 1.610 . S
N1240 C1241 1.351 . S
C1241 C1235 1.428 . S
C1241 N1240 1.351 . S
C1241 C1242 1.434 . S
C1242 C1233 1.429 . S
C1242 N1239 1.350 . S
C1242 C1241 1.434 . S
C1243 C1244 1.369 . S
C1243 C1245 1.419 . S
C1243 H1247 0.930 . S
C1244 C1243 1.369 . S
C1244 C1253 1.429 . S
C1245 C1243 1.419 . S
C1245 C1246 1.363 . S
C1245 H1248 0.929 . S
C1246 C1245 1.363 . S
C1246 C1252 1.428 . S
H1247 C1243 0.930 . S
H1248 C1245 0.929 . S
S1249 N1250 1.613 . S
S1249 N1251 1.610 . S
N1250 S1249 1.613 . S
N1250 C1253 1.350 . S
N1251 S1249 1.610 . S
N1251 C1252 1.351 . S
C1252 C1246 1.428 . S
C1252 N1251 1.351 . S
C1252 C1253 1.434 . S
C1253 C1244 1.429 . S
C1253 N1250 1.350 . S
C1253 C1252 1.434 . S
C1254 C1255 1.369 . S
C1254 C1256 1.419 . S
C1254 H1258 0.930 . S
C1255 C1254 1.369 . S
C1255 C1264 1.429 . S
C1256 C1254 1.419 . S
C1256 C1257 1.363 . S
C1256 H1259 0.929 . S
C1257 C1256 1.363 . S
C1257 C1263 1.428 . S
H1258 C1254 0.930 . S
H1259 C1256 0.929 . S
S1260 N1261 1.613 . S
S1260 N1262 1.610 . S
N1261 S1260 1.613 . S
N1261 C1264 1.350 . S
N1262 S1260 1.610 . S
N1262 C1263 1.351 . S
C1263 C1257 1.428 . S
C1263 N1262 1.351 . S
C1263 C1264 1.434 . S
C1264 C1255 1.429 . S
C1264 N1261 1.350 . S
C1264 C1263 1.434 . S
C1265 C1266 1.369 . S
C1265 C1267 1.419 . S
C1265 H1269 0.930 1_455 S
C1266 C1265 1.369 . S
C1266 C1275 1.429 . S
C1267 C1265 1.419 . S
C1267 C1268 1.363 . S
C1267 H1270 0.929 . S
C1268 C1267 1.363 . S
C1268 C1274 1.428 . S
H1269 C1265 0.930 1_655 S
H1270 C1267 0.929 . S
S1271 N1272 1.613 . S
S1271 N1273 1.610 . S
N1272 S1271 1.613 . S
N1272 C1275 1.350 . S
N1273 S1271 1.610 . S
N1273 C1274 1.351 . S
C1274 C1268 1.428 . S
C1274 N1273 1.351 . S
C1274 C1275 1.434 . S
C1275 C1266 1.429 . S
C1275 N1272 1.350 . S
C1275 C1274 1.434 . S
C1276 C1277 1.369 . S
C1276 C1278 1.419 . S
C1276 H1280 0.930 . S
C1277 C1276 1.369 . S
C1277 C1286 1.429 . S
C1278 C1276 1.419 . S
C1278 C1279 1.363 . S
C1278 H1281 0.929 . S
C1279 C1278 1.363 . S
C1279 C1285 1.428 . S
H1280 C1276 0.930 . S
H1281 C1278 0.929 . S
S1282 N1283 1.613 . S
S1282 N1284 1.610 . S
N1283 S1282 1.613 . S
N1283 C1286 1.350 . S
N1284 S1282 1.610 . S
N1284 C1285 1.351 . S
C1285 C1279 1.428 . S
C1285 N1284 1.351 . S
C1285 C1286 1.434 . S
C1286 C1277 1.429 . S
C1286 N1283 1.350 . S
C1286 C1285 1.434 . S
C1287 C1288 1.369 . S
C1287 C1289 1.419 . S
C1287 H1291 0.930 1_455 S
C1288 C1287 1.369 . S
C1288 C1297 1.429 . S
C1289 C1287 1.419 . S
C1289 C1290 1.363 . S
C1289 H1292 0.929 . S
C1290 C1289 1.363 . S
C1290 C1296 1.428 . S
H1291 C1287 0.930 1_655 S
H1292 C1289 0.929 . S
S1293 N1294 1.613 . S
S1293 N1295 1.610 . S
N1294 S1293 1.613 . S
N1294 C1297 1.350 . S
N1295 S1293 1.610 . S
N1295 C1296 1.351 . S
C1296 C1290 1.428 . S
C1296 N1295 1.351 . S
C1296 C1297 1.434 . S
C1297 C1288 1.429 . S
C1297 N1294 1.350 . S
C1297 C1296 1.434 . S
C1298 C1299 1.369 . S
C1298 C1300 1.419 . S
C1298 H1302 0.930 . S
C1299 C1298 1.369 . S
C1299 C1308 1.429 . S
C1300 C1298 1.419 . S
C1300 C1301 1.363 . S
C1300 H1303 0.929 . S
C1301 C1300 1.363 . S
C1301 C1307 1.428 . S
H1302 C1298 0.930 . S
H1303 C1300 0.929 . S
S1304 N1305 1.613 . S
S1304 N1306 1.610 . S
N1305 S1304 1.613 . S
N1305 C1308 1.350 . S
N1306 S1304 1.610 . S
N1306 C1307 1.351 . S
C1307 C1301 1.428 . S
C1307 N1306 1.351 . S
C1307 C1308 1.434 . S
C1308 C1299 1.429 . S
C1308 N1305 1.350 . S
C1308 C1307 1.434 . S
C1309 C1310 1.369 . S
C1309 C1311 1.419 . S
C1309 H1313 0.930 . S
C1310 C1309 1.369 . S
C1310 C1319 1.429 . S
C1311 C1309 1.419 . S
C1311 C1312 1.363 . S
C1311 H1314 0.929 . S
C1312 C1311 1.363 . S
C1312 C1318 1.428 . S
H1313 C1309 0.930 . S
H1314 C1311 0.929 . S
S1315 N1316 1.613 . S
S1315 N1317 1.610 . S
N1316 S1315 1.613 . S
N1316 C1319 1.350 . S
N1317 S1315 1.610 . S
N1317 C1318 1.351 . S
C1318 C1312 1.428 . S
C1318 N1317 1.351 . S
C1318 C1319 1.434 . S
C1319 C1310 1.429 . S
C1319 N1316 1.350 . S
C1319 C1318 1.434 . S
C1320 C1321 1.369 . S
C1320 C1322 1.419 . S
C1320 H1324 0.930 . S
C1321 C1320 1.369 . S
C1321 C1330 1.429 . S
C1322 C1320 1.419 . S
C1322 C1323 1.363 . S
C1322 H1325 0.929 . S
C1323 C1322 1.363 . S
C1323 C1329 1.428 . S
H1324 C1320 0.930 . S
H1325 C1322 0.929 . S
S1326 N1327 1.613 . S
S1326 N1328 1.610 . S
N1327 S1326 1.613 . S
N1327 C1330 1.350 . S
N1328 S1326 1.610 . S
N1328 C1329 1.351 . S
C1329 C1323 1.428 . S
C1329 N1328 1.351 . S
C1329 C1330 1.434 . S
C1330 C1321 1.429 . S
C1330 N1327 1.350 . S
C1330 C1329 1.434 . S
C1331 C1332 1.369 . S
C1331 C1333 1.419 . S
C1331 H1335 0.930 . S
C1332 C1331 1.369 . S
C1332 C1341 1.429 . S
C1333 C1331 1.419 . S
C1333 C1334 1.363 . S
C1333 H1336 0.929 . S
C1334 C1333 1.363 . S
C1334 C1340 1.428 . S
H1335 C1331 0.930 . S
H1336 C1333 0.929 . S
S1337 N1338 1.613 . S
S1337 N1339 1.610 . S
N1338 S1337 1.613 . S
N1338 C1341 1.350 . S
N1339 S1337 1.610 . S
N1339 C1340 1.351 . S
C1340 C1334 1.428 . S
C1340 N1339 1.351 . S
C1340 C1341 1.434 . S
C1341 C1332 1.429 . S
C1341 N1338 1.350 . S
C1341 C1340 1.434 . S
C1342 C1343 1.369 . S
C1342 C1344 1.419 . S
C1342 H1346 0.930 . S
C1343 C1342 1.369 . S
C1343 C1352 1.429 . S
C1344 C1342 1.419 . S
C1344 C1345 1.363 . S
C1344 H1347 0.929 . S
C1345 C1344 1.363 . S
C1345 C1351 1.428 . S
H1346 C1342 0.930 . S
H1347 C1344 0.929 . S
S1348 N1349 1.613 . S
S1348 N1350 1.610 . S
N1349 S1348 1.613 . S
N1349 C1352 1.350 . S
N1350 S1348 1.610 . S
N1350 C1351 1.351 . S
C1351 C1345 1.428 . S
C1351 N1350 1.351 . S
C1351 C1352 1.434 . S
C1352 C1343 1.429 . S
C1352 N1349 1.350 . S
C1352 C1351 1.434 . S
C1353 C1354 1.369 . S
C1353 C1355 1.419 . S
C1353 H1357 0.930 . S
C1354 C1353 1.369 . S
C1354 C1363 1.429 . S
C1355 C1353 1.419 . S
C1355 C1356 1.363 . S
C1355 H1358 0.929 . S
C1356 C1355 1.363 . S
C1356 C1362 1.428 . S
H1357 C1353 0.930 . S
H1358 C1355 0.929 . S
S1359 N1360 1.613 1_455 S
S1359 N1361 1.610 . S
N1360 S1359 1.613 1_655 S
N1360 C1363 1.350 . S
N1361 S1359 1.610 . S
N1361 C1362 1.351 1_455 S
C1362 C1356 1.428 . S
C1362 N1361 1.351 1_655 S
C1362 C1363 1.434 . S
C1363 C1354 1.429 . S
C1363 N1360 1.350 . S
C1363 C1362 1.434 . S
C1364 C1365 1.369 . S
C1364 C1366 1.419 . S
C1364 H1368 0.930 . S
C1365 C1364 1.369 . S
C1365 C1374 1.429 . S
C1366 C1364 1.419 . S
C1366 C1367 1.363 . S
C1366 H1369 0.929 . S
C1367 C1366 1.363 . S
C1367 C1373 1.428 . S
H1368 C1364 0.930 . S
H1369 C1366 0.929 . S
S1370 N1371 1.613 . S
S1370 N1372 1.610 . S
N1371 S1370 1.613 . S
N1371 C1374 1.350 . S
N1372 S1370 1.610 . S
N1372 C1373 1.351 . S
C1373 C1367 1.428 . S
C1373 N1372 1.351 . S
C1373 C1374 1.434 . S
C1374 C1365 1.429 . S
C1374 N1371 1.350 . S
C1374 C1373 1.434 . S
C1375 C1376 1.369 . S
C1375 C1377 1.419 . S
C1375 H1379 0.930 . S
C1376 C1375 1.369 . S
C1376 C1385 1.429 . S
C1377 C1375 1.419 . S
C1377 C1378 1.363 . S
C1377 H1380 0.929 1_655 S
C1378 C1377 1.363 . S
C1378 C1384 1.428 . S
H1379 C1375 0.930 . S
H1380 C1377 0.929 1_455 S
S1381 N1382 1.613 . S
S1381 N1383 1.610 . S
N1382 S1381 1.613 . S
N1382 C1385 1.350 . S
N1383 S1381 1.610 . S
N1383 C1384 1.351 . S
C1384 C1378 1.428 . S
C1384 N1383 1.351 . S
C1384 C1385 1.434 . S
C1385 C1376 1.429 . S
C1385 N1382 1.350 . S
C1385 C1384 1.434 . S
C1386 C1387 1.369 . S
C1386 C1388 1.419 . S
C1386 H1390 0.930 . S
C1387 C1386 1.369 . S
C1387 C1396 1.429 . S
C1388 C1386 1.419 . S
C1388 C1389 1.363 . S
C1388 H1391 0.929 . S
C1389 C1388 1.363 . S
C1389 C1395 1.428 . S
H1390 C1386 0.930 . S
H1391 C1388 0.929 . S
S1392 N1393 1.613 . S
S1392 N1394 1.610 . S
N1393 S1392 1.613 . S
N1393 C1396 1.350 . S
N1394 S1392 1.610 . S
N1394 C1395 1.351 . S
C1395 C1389 1.428 . S
C1395 N1394 1.351 . S
C1395 C1396 1.434 . S
C1396 C1387 1.429 . S
C1396 N1393 1.350 . S
C1396 C1395 1.434 . S
C1397 C1398 1.369 . S
C1397 C1399 1.419 . S
C1397 H1401 0.930 . S
C1398 C1397 1.369 . S
C1398 C1407 1.429 . S
C1399 C1397 1.419 . S
C1399 C1400 1.363 . S
C1399 H1402 0.929 . S
C1400 C1399 1.363 . S
C1400 C1406 1.428 . S
H1401 C1397 0.930 . S
H1402 C1399 0.929 . S
S1403 N1404 1.613 . S
S1403 N1405 1.610 . S
N1404 S1403 1.613 . S
N1404 C1407 1.350 . S
N1405 S1403 1.610 . S
N1405 C1406 1.351 . S
C1406 C1400 1.428 . S
C1406 N1405 1.351 . S
C1406 C1407 1.434 . S
C1407 C1398 1.429 . S
C1407 N1404 1.350 . S
C1407 C1406 1.434 . S
C1408 C1409 1.369 1_655 S
C1408 C1410 1.419 . S
C1408 H1412 0.930 . S
C1409 C1408 1.369 1_455 S
C1409 C1418 1.429 . S
C1410 C1408 1.419 . S
C1410 C1411 1.363 . S
C1410 H1413 0.929 . S
C1411 C1410 1.363 . S
C1411 C1417 1.428 1_655 S
H1412 C1408 0.930 . S
H1413 C1410 0.929 . S
S1414 N1415 1.613 . S
S1414 N1416 1.610 . S
N1415 S1414 1.613 . S
N1415 C1418 1.350 . S
N1416 S1414 1.610 . S
N1416 C1417 1.351 . S
C1417 C1411 1.428 1_455 S
C1417 N1416 1.351 . S
C1417 C1418 1.434 . S
C1418 C1409 1.429 . S
C1418 N1415 1.350 . S
C1418 C1417 1.434 . S
C1419 C1420 1.369 . S
C1419 C1421 1.419 . S
C1419 H1423 0.930 . S
C1420 C1419 1.369 . S
C1420 C1429 1.429 1_455 S
C1421 C1419 1.419 . S
C1421 C1422 1.363 1_455 S
C1421 H1424 0.929 . S
C1422 C1421 1.363 1_655 S
C1422 C1428 1.428 . S
H1423 C1419 0.930 . S
H1424 C1421 0.929 . S
S1425 N1426 1.613 . S
S1425 N1427 1.610 . S
N1426 S1425 1.613 . S
N1426 C1429 1.350 . S
N1427 S1425 1.610 . S
N1427 C1428 1.351 . S
C1428 C1422 1.428 . S
C1428 N1427 1.351 . S
C1428 C1429 1.434 . S
C1429 C1420 1.429 1_655 S
C1429 N1426 1.350 . S
C1429 C1428 1.434 . S
C1430 C1431 1.369 . S
C1430 C1432 1.419 . S
C1430 H1434 0.930 . S
C1431 C1430 1.369 . S
C1431 C1440 1.429 . S
C1432 C1430 1.419 . S
C1432 C1433 1.363 . S
C1432 H1435 0.929 . S
C1433 C1432 1.363 . S
C1433 C1439 1.428 . S
H1434 C1430 0.930 . S
H1435 C1432 0.929 . S
S1436 N1437 1.613 . S
S1436 N1438 1.610 . S
N1437 S1436 1.613 . S
N1437 C1440 1.350 . S
N1438 S1436 1.610 . S
N1438 C1439 1.351 . S
C1439 C1433 1.428 . S
C1439 N1438 1.351 . S
C1439 C1440 1.434 . S
C1440 C1431 1.429 . S
C1440 N1437 1.350 . S
C1440 C1439 1.434 . S
C1441 C1442 1.369 . S
C1441 C1443 1.419 . S
C1441 H1445 0.930 . S
C1442 C1441 1.369 . S
C1442 C1451 1.429 . S
C1443 C1441 1.419 . S
C1443 C1444 1.363 . S
C1443 H1446 0.929 . S
C1444 C1443 1.363 . S
C1444 C1450 1.428 . S
H1445 C1441 0.930 . S
H1446 C1443 0.929 . S
S1447 N1448 1.613 . S
S1447 N1449 1.610 . S
N1448 S1447 1.613 . S
N1448 C1451 1.350 1_556 S
N1449 S1447 1.610 . S
N1449 C1450 1.351 1_556 S
C1450 C1444 1.428 . S
C1450 N1449 1.351 1_554 S
C1450 C1451 1.434 . S
C1451 C1442 1.429 . S
C1451 N1448 1.350 1_554 S
C1451 C1450 1.434 . S
C1452 C1453 1.369 . S
C1452 C1454 1.419 1_655 S
C1452 H1456 0.930 . S
C1453 C1452 1.369 . S
C1453 C1462 1.429 . S
C1454 C1452 1.419 1_455 S
C1454 C1455 1.363 . S
C1454 H1457 0.929 . S
C1455 C1454 1.363 . S
C1455 C1461 1.428 . S
H1456 C1452 0.930 . S
H1457 C1454 0.929 . S
S1458 N1459 1.613 . S
S1458 N1460 1.610 1_655 S
N1459 S1458 1.613 . S
N1459 C1462 1.350 . S
N1460 S1458 1.610 1_455 S
N1460 C1461 1.351 . S
C1461 C1455 1.428 . S
C1461 N1460 1.351 . S
C1461 C1462 1.434 1_455 S
C1462 C1453 1.429 . S
C1462 N1459 1.350 . S
C1462 C1461 1.434 1_655 S
C1463 C1464 1.369 . S
C1463 C1465 1.419 . S
C1463 H1467 0.930 . S
C1464 C1463 1.369 . S
C1464 C1473 1.429 . S
C1465 C1463 1.419 . S
C1465 C1466 1.363 . S
C1465 H1468 0.929 . S
C1466 C1465 1.363 . S
C1466 C1472 1.428 . S
H1467 C1463 0.930 . S
H1468 C1465 0.929 . S
S1469 N1470 1.613 . S
S1469 N1471 1.610 . S
N1470 S1469 1.613 . S
N1470 C1473 1.350 . S
N1471 S1469 1.610 . S
N1471 C1472 1.351 . S
C1472 C1466 1.428 . S
C1472 N1471 1.351 . S
C1472 C1473 1.434 . S
C1473 C1464 1.429 . S
C1473 N1470 1.350 . S
C1473 C1472 1.434 . S
C1474 C1475 1.369 . S
C1474 C1476 1.419 . S
C1474 H1478 0.930 . S
C1475 C1474 1.369 . S
C1475 C1484 1.429 . S
C1476 C1474 1.419 . S
C1476 C1477 1.363 . S
C1476 H1479 0.929 . S
C1477 C1476 1.363 . S
C1477 C1483 1.428 . S
H1478 C1474 0.930 . S
H1479 C1476 0.929 . S
S1480 N1481 1.613 . S
S1480 N1482 1.610 . S
N1481 S1480 1.613 . S
N1481 C1484 1.350 . S
N1482 S1480 1.610 . S
N1482 C1483 1.351 . S
C1483 C1477 1.428 . S
C1483 N1482 1.351 . S
C1483 C1484 1.434 . S
C1484 C1475 1.429 . S
C1484 N1481 1.350 . S
C1484 C1483 1.434 . S
C1485 C1486 1.369 . S
C1485 C1487 1.419 . S
C1485 H1489 0.930 . S
C1486 C1485 1.369 . S
C1486 C1495 1.429 1_655 S
C1487 C1485 1.419 . S
C1487 C1488 1.363 1_655 S
C1487 H1490 0.929 . S
C1488 C1487 1.363 1_455 S
C1488 C1494 1.428 . S
H1489 C1485 0.930 . S
H1490 C1487 0.929 . S
S1491 N1492 1.613 . S
S1491 N1493 1.610 . S
N1492 S1491 1.613 . S
N1492 C1495 1.350 1_554 S
N1493 S1491 1.610 . S
N1493 C1494 1.351 1_554 S
C1494 C1488 1.428 . S
C1494 N1493 1.351 1_556 S
C1494 C1495 1.434 . S
C1495 C1486 1.429 1_455 S
C1495 N1492 1.350 1_556 S
C1495 C1494 1.434 . S
C1496 C1497 1.369 . S
C1496 C1498 1.419 . S
C1496 H1500 0.930 . S
C1497 C1496 1.369 . S
C1497 C1506 1.429 1_455 S
C1498 C1496 1.419 . S
C1498 C1499 1.363 1_455 S
C1498 H1501 0.929 . S
C1499 C1498 1.363 1_655 S
C1499 C1505 1.428 . S
H1500 C1496 0.930 . S
H1501 C1498 0.929 . S
S1502 N1503 1.613 . S
S1502 N1504 1.610 . S
N1503 S1502 1.613 . S
N1503 C1506 1.350 . S
N1504 S1502 1.610 . S
N1504 C1505 1.351 . S
C1505 C1499 1.428 . S
C1505 N1504 1.351 . S
C1505 C1506 1.434 . S
C1506 C1497 1.429 1_655 S
C1506 N1503 1.350 . S
C1506 C1505 1.434 . S
C1507 C1508 1.369 . S
C1507 C1509 1.419 . S
C1507 H1511 0.930 . S
C1508 C1507 1.369 . S
C1508 C1517 1.429 1_455 S
C1509 C1507 1.419 . S
C1509 C1510 1.363 1_455 S
C1509 H1512 0.929 . S
C1510 C1509 1.363 1_655 S
C1510 C1516 1.428 . S
H1511 C1507 0.930 . S
H1512 C1509 0.929 . S
S1513 N1514 1.613 . S
S1513 N1515 1.610 . S
N1514 S1513 1.613 . S
N1514 C1517 1.350 . S
N1515 S1513 1.610 . S
N1515 C1516 1.351 . S
C1516 C1510 1.428 . S
C1516 N1515 1.351 . S
C1516 C1517 1.434 . S
C1517 C1508 1.429 1_655 S
C1517 N1514 1.350 . S
C1517 C1516 1.434 . S
C1518 C1519 1.369 . S
C1518 C1520 1.419 . S
C1518 H1522 0.930 . S
C1519 C1518 1.369 . S
C1519 C1528 1.429 . S
C1520 C1518 1.419 . S
C1520 C1521 1.363 . S
C1520 H1523 0.929 . S
C1521 C1520 1.363 . S
C1521 C1527 1.428 . S
H1522 C1518 0.930 . S
H1523 C1520 0.929 . S
S1524 N1525 1.613 . S
S1524 N1526 1.610 . S
N1525 S1524 1.613 . S
N1525 C1528 1.350 . S
N1526 S1524 1.610 . S
N1526 C1527 1.351 . S
C1527 C1521 1.428 . S
C1527 N1526 1.351 . S
C1527 C1528 1.434 . S
C1528 C1519 1.429 . S
C1528 N1525 1.350 . S
C1528 C1527 1.434 . S
C1529 C1530 1.369 . S
C1529 C1531 1.419 . S
C1529 H1533 0.930 . S
C1530 C1529 1.369 . S
C1530 C1539 1.429 . S
C1531 C1529 1.419 . S
C1531 C1532 1.363 . S
C1531 H1534 0.929 . S
C1532 C1531 1.363 . S
C1532 C1538 1.428 . S
H1533 C1529 0.930 . S
H1534 C1531 0.929 . S
S1535 N1536 1.613 . S
S1535 N1537 1.610 . S
N1536 S1535 1.613 . S
N1536 C1539 1.350 . S
N1537 S1535 1.610 . S
N1537 C1538 1.351 . S
C1538 C1532 1.428 . S
C1538 N1537 1.351 . S
C1538 C1539 1.434 . S
C1539 C1530 1.429 . S
C1539 N1536 1.350 . S
C1539 C1538 1.434 . S
C1540 C1541 1.369 . S
C1540 C1542 1.419 . S
C1540 H1544 0.930 . S
C1541 C1540 1.369 . S
C1541 C1550 1.429 1_655 S
C1542 C1540 1.419 . S
C1542 C1543 1.363 1_655 S
C1542 H1545 0.929 . S
C1543 C1542 1.363 1_455 S
C1543 C1549 1.428 . S
H1544 C1540 0.930 . S
H1545 C1542 0.929 . S
S1546 N1547 1.613 . S
S1546 N1548 1.610 . S
N1547 S1546 1.613 . S
N1547 C1550 1.350 . S
N1548 S1546 1.610 . S
N1548 C1549 1.351 . S
C1549 C1543 1.428 . S
C1549 N1548 1.351 . S
C1549 C1550 1.434 . S
C1550 C1541 1.429 1_455 S
C1550 N1547 1.350 . S
C1550 C1549 1.434 . S
C1551 C1552 1.369 . S
C1551 C1553 1.419 . S
C1551 H1555 0.930 . S
C1552 C1551 1.369 . S
C1552 C1561 1.429 . S
C1553 C1551 1.419 . S
C1553 C1554 1.363 . S
C1553 H1556 0.929 . S
C1554 C1553 1.363 . S
C1554 C1560 1.428 . S
H1555 C1551 0.930 . S
H1556 C1553 0.929 . S
S1557 N1558 1.613 . S
S1557 N1559 1.610 . S
N1558 S1557 1.613 . S
N1558 C1561 1.350 . S
N1559 S1557 1.610 . S
N1559 C1560 1.351 . S
C1560 C1554 1.428 . S
C1560 N1559 1.351 . S
C1560 C1561 1.434 . S
C1561 C1552 1.429 . S
C1561 N1558 1.350 . S
C1561 C1560 1.434 . S
C1562 C1563 1.369 . S
C1562 C1564 1.419 . S
C1562 H1566 0.930 . S
C1563 C1562 1.369 . S
C1563 C1572 1.429 . S
C1564 C1562 1.419 . S
C1564 C1565 1.363 . S
C1564 H1567 0.929 . S
C1565 C1564 1.363 . S
C1565 C1571 1.428 . S
H1566 C1562 0.930 . S
H1567 C1564 0.929 . S
S1568 N1569 1.613 . S
S1568 N1570 1.610 . S
N1569 S1568 1.613 . S
N1569 C1572 1.350 . S
N1570 S1568 1.610 . S
N1570 C1571 1.351 . S
C1571 C1565 1.428 . S
C1571 N1570 1.351 . S
C1571 C1572 1.434 . S
C1572 C1563 1.429 . S
C1572 N1569 1.350 . S
C1572 C1571 1.434 . S
C1573 C1574 1.369 . S
C1573 C1575 1.419 . S
C1573 H1577 0.930 . S
C1574 C1573 1.369 . S
C1574 C1583 1.429 1_655 S
C1575 C1573 1.419 . S
C1575 C1576 1.363 1_655 S
C1575 H1578 0.929 . S
C1576 C1575 1.363 1_455 S
C1576 C1582 1.428 . S
H1577 C1573 0.930 . S
H1578 C1575 0.929 . S
S1579 N1580 1.613 . S
S1579 N1581 1.610 . S
N1580 S1579 1.613 . S
N1580 C1583 1.350 1_556 S
N1581 S1579 1.610 . S
N1581 C1582 1.351 1_556 S
C1582 C1576 1.428 . S
C1582 N1581 1.351 1_554 S
C1582 C1583 1.434 . S
C1583 C1574 1.429 1_455 S
C1583 N1580 1.350 1_554 S
C1583 C1582 1.434 . S
C1584 C1585 1.369 . S
C1584 C1586 1.419 . S
C1584 H1588 0.930 . S
C1585 C1584 1.369 . S
C1585 C1594 1.429 . S
C1586 C1584 1.419 . S
C1586 C1587 1.363 . S
C1586 H1589 0.929 . S
C1587 C1586 1.363 . S
C1587 C1593 1.428 . S
H1588 C1584 0.930 . S
H1589 C1586 0.929 . S
S1590 N1591 1.613 . S
S1590 N1592 1.610 . S
N1591 S1590 1.613 . S
N1591 C1594 1.350 . S
N1592 S1590 1.610 . S
N1592 C1593 1.351 . S
C1593 C1587 1.428 . S
C1593 N1592 1.351 . S
C1593 C1594 1.434 . S
C1594 C1585 1.429 . S
C1594 N1591 1.350 . S
C1594 C1593 1.434 . S
C1595 C1596 1.369 . S
C1595 C1597 1.419 . S
C1595 H1599 0.930 . S
C1596 C1595 1.369 . S
C1596 C1605 1.429 . S
C1597 C1595 1.419 . S
C1597 C1598 1.363 . S
C1597 H1600 0.929 . S
C1598 C1597 1.363 . S
C1598 C1604 1.428 . S
H1599 C1595 0.930 . S
H1600 C1597 0.929 . S
S1601 N1602 1.613 . S
S1601 N1603 1.610 . S
N1602 S1601 1.613 . S
N1602 C1605 1.350 . S
N1603 S1601 1.610 . S
N1603 C1604 1.351 . S
C1604 C1598 1.428 . S
C1604 N1603 1.351 . S
C1604 C1605 1.434 . S
C1605 C1596 1.429 . S
C1605 N1602 1.350 . S
C1605 C1604 1.434 . S
C1606 C1607 1.369 . S
C1606 C1608 1.419 . S
C1606 H1610 0.930 . S
C1607 C1606 1.369 . S
C1607 C1616 1.429 . S
C1608 C1606 1.419 . S
C1608 C1609 1.363 . S
C1608 H1611 0.929 . S
C1609 C1608 1.363 . S
C1609 C1615 1.428 . S
H1610 C1606 0.930 . S
H1611 C1608 0.929 . S
S1612 N1613 1.613 . S
S1612 N1614 1.610 . S
N1613 S1612 1.613 . S
N1613 C1616 1.350 . S
N1614 S1612 1.610 . S
N1614 C1615 1.351 . S
C1615 C1609 1.428 . S
C1615 N1614 1.351 . S
C1615 C1616 1.434 . S
C1616 C1607 1.429 . S
C1616 N1613 1.350 . S
C1616 C1615 1.434 . S
C1617 C1618 1.369 . S
C1617 C1619 1.419 . S
C1617 H1621 0.930 . S
C1618 C1617 1.369 . S
C1618 C1627 1.429 . S
C1619 C1617 1.419 . S
C1619 C1620 1.363 . S
C1619 H1622 0.929 . S
C1620 C1619 1.363 . S
C1620 C1626 1.428 . S
H1621 C1617 0.930 . S
H1622 C1619 0.929 . S
S1623 N1624 1.613 . S
S1623 N1625 1.610 . S
N1624 S1623 1.613 . S
N1624 C1627 1.350 . S
N1625 S1623 1.610 . S
N1625 C1626 1.351 . S
C1626 C1620 1.428 . S
C1626 N1625 1.351 . S
C1626 C1627 1.434 . S
C1627 C1618 1.429 . S
C1627 N1624 1.350 . S
C1627 C1626 1.434 . S
C1628 C1629 1.369 . S
C1628 C1630 1.419 . S
C1628 H1632 0.930 . S
C1629 C1628 1.369 . S
C1629 C1638 1.429 . S
C1630 C1628 1.419 . S
C1630 C1631 1.363 . S
C1630 H1633 0.929 . S
C1631 C1630 1.363 . S
C1631 C1637 1.428 . S
H1632 C1628 0.930 . S
H1633 C1630 0.929 . S
S1634 N1635 1.613 . S
S1634 N1636 1.610 . S
N1635 S1634 1.613 . S
N1635 C1638 1.350 . S
N1636 S1634 1.610 . S
N1636 C1637 1.351 . S
C1637 C1631 1.428 . S
C1637 N1636 1.351 . S
C1637 C1638 1.434 . S
C1638 C1629 1.429 . S
C1638 N1635 1.350 . S
C1638 C1637 1.434 . S
C1639 C1640 1.369 . S
C1639 C1641 1.419 . S
C1639 H1643 0.930 . S
C1640 C1639 1.369 . S
C1640 C1649 1.429 . S
C1641 C1639 1.419 . S
C1641 C1642 1.363 . S
C1641 H1644 0.929 . S
C1642 C1641 1.363 . S
C1642 C1648 1.428 . S
H1643 C1639 0.930 . S
H1644 C1641 0.929 . S
S1645 N1646 1.613 . S
S1645 N1647 1.610 . S
N1646 S1645 1.613 . S
N1646 C1649 1.350 . S
N1647 S1645 1.610 . S
N1647 C1648 1.351 . S
C1648 C1642 1.428 . S
C1648 N1647 1.351 . S
C1648 C1649 1.434 . S
C1649 C1640 1.429 . S
C1649 N1646 1.350 . S
C1649 C1648 1.434 . S
C1650 C1651 1.369 . S
C1650 C1652 1.419 . S
C1650 H1654 0.930 . S
C1651 C1650 1.369 . S
C1651 C1660 1.429 . S
C1652 C1650 1.419 . S
C1652 C1653 1.363 . S
C1652 H1655 0.929 . S
C1653 C1652 1.363 . S
C1653 C1659 1.428 . S
H1654 C1650 0.930 . S
H1655 C1652 0.929 . S
S1656 N1657 1.613 . S
S1656 N1658 1.610 . S
N1657 S1656 1.613 . S
N1657 C1660 1.350 . S
N1658 S1656 1.610 . S
N1658 C1659 1.351 . S
C1659 C1653 1.428 . S
C1659 N1658 1.351 . S
C1659 C1660 1.434 . S
C1660 C1651 1.429 . S
C1660 N1657 1.350 . S
C1660 C1659 1.434 . S
C1661 C1662 1.369 . S
C1661 C1663 1.419 . S
C1661 H1665 0.930 . S
C1662 C1661 1.369 . S
C1662 C1671 1.429 . S
C1663 C1661 1.419 . S
C1663 C1664 1.363 . S
C1663 H1666 0.929 . S
C1664 C1663 1.363 . S
C1664 C1670 1.428 . S
H1665 C1661 0.930 . S
H1666 C1663 0.929 . S
S1667 N1668 1.613 . S
S1667 N1669 1.610 . S
N1668 S1667 1.613 . S
N1668 C1671 1.350 . S
N1669 S1667 1.610 . S
N1669 C1670 1.351 . S
C1670 C1664 1.428 . S
C1670 N1669 1.351 . S
C1670 C1671 1.434 . S
C1671 C1662 1.429 . S
C1671 N1668 1.350 . S
C1671 C1670 1.434 . S
C1672 C1673 1.369 . S
C1672 C1674 1.419 . S
C1672 H1676 0.930 . S
C1673 C1672 1.369 . S
C1673 C1682 1.429 . S
C1674 C1672 1.419 . S
C1674 C1675 1.363 . S
C1674 H1677 0.929 . S
C1675 C1674 1.363 . S
C1675 C1681 1.428 . S
H1676 C1672 0.930 . S
H1677 C1674 0.929 . S
S1678 N1679 1.613 . S
S1678 N1680 1.610 . S
N1679 S1678 1.613 . S
N1679 C1682 1.350 . S
N1680 S1678 1.610 . S
N1680 C1681 1.351 . S
C1681 C1675 1.428 . S
C1681 N1680 1.351 . S
C1681 C1682 1.434 . S
C1682 C1673 1.429 . S
C1682 N1679 1.350 . S
C1682 C1681 1.434 . S
C1683 C1684 1.369 . S
C1683 C1685 1.419 . S
C1683 H1687 0.930 . S
C1684 C1683 1.369 . S
C1684 C1693 1.429 . S
C1685 C1683 1.419 . S
C1685 C1686 1.363 . S
C1685 H1688 0.929 . S
C1686 C1685 1.363 . S
C1686 C1692 1.428 . S
H1687 C1683 0.930 . S
H1688 C1685 0.929 . S
S1689 N1690 1.613 . S
S1689 N1691 1.610 . S
N1690 S1689 1.613 . S
N1690 C1693 1.350 . S
N1691 S1689 1.610 . S
N1691 C1692 1.351 . S
C1692 C1686 1.428 . S
C1692 N1691 1.351 . S
C1692 C1693 1.434 . S
C1693 C1684 1.429 . S
C1693 N1690 1.350 . S
C1693 C1692 1.434 . S
C1694 C1695 1.369 . S
C1694 C1696 1.419 . S
C1694 H1698 0.930 . S
C1695 C1694 1.369 . S
C1695 C1704 1.429 . S
C1696 C1694 1.419 . S
C1696 C1697 1.363 . S
C1696 H1699 0.929 . S
C1697 C1696 1.363 . S
C1697 C1703 1.428 . S
H1698 C1694 0.930 . S
H1699 C1696 0.929 . S
S1700 N1701 1.613 . S
S1700 N1702 1.610 . S
N1701 S1700 1.613 . S
N1701 C1704 1.350 . S
N1702 S1700 1.610 . S
N1702 C1703 1.351 . S
C1703 C1697 1.428 . S
C1703 N1702 1.351 . S
C1703 C1704 1.434 . S
C1704 C1695 1.429 . S
C1704 N1701 1.350 . S
C1704 C1703 1.434 . S
C1705 C1706 1.369 . S
C1705 C1707 1.419 . S
C1705 H1709 0.930 . S
C1706 C1705 1.369 . S
C1706 C1715 1.429 . S
C1707 C1705 1.419 . S
C1707 C1708 1.363 . S
C1707 H1710 0.929 . S
C1708 C1707 1.363 . S
C1708 C1714 1.428 . S
H1709 C1705 0.930 . S
H1710 C1707 0.929 . S
S1711 N1712 1.613 . S
S1711 N1713 1.610 . S
N1712 S1711 1.613 . S
N1712 C1715 1.350 . S
N1713 S1711 1.610 . S
N1713 C1714 1.351 . S
C1714 C1708 1.428 . S
C1714 N1713 1.351 . S
C1714 C1715 1.434 . S
C1715 C1706 1.429 . S
C1715 N1712 1.350 . S
C1715 C1714 1.434 . S
C1716 C1717 1.369 . S
C1716 C1718 1.419 . S
C1716 H1720 0.930 . S
C1717 C1716 1.369 . S
C1717 C1726 1.429 . S
C1718 C1716 1.419 . S
C1718 C1719 1.363 . S
C1718 H1721 0.929 . S
C1719 C1718 1.363 . S
C1719 C1725 1.428 . S
H1720 C1716 0.930 . S
H1721 C1718 0.929 . S
S1722 N1723 1.613 . S
S1722 N1724 1.610 . S
N1723 S1722 1.613 . S
N1723 C1726 1.350 . S
N1724 S1722 1.610 . S
N1724 C1725 1.351 . S
C1725 C1719 1.428 . S
C1725 N1724 1.351 . S
C1725 C1726 1.434 . S
C1726 C1717 1.429 . S
C1726 N1723 1.350 . S
C1726 C1725 1.434 . S
C1727 C1728 1.369 . S
C1727 C1729 1.419 . S
C1727 H1731 0.930 . S
C1728 C1727 1.369 . S
C1728 C1737 1.429 . S
C1729 C1727 1.419 . S
C1729 C1730 1.363 . S
C1729 H1732 0.929 . S
C1730 C1729 1.363 . S
C1730 C1736 1.428 . S
H1731 C1727 0.930 . S
H1732 C1729 0.929 . S
S1733 N1734 1.613 . S
S1733 N1735 1.610 . S
N1734 S1733 1.613 . S
N1734 C1737 1.350 . S
N1735 S1733 1.610 . S
N1735 C1736 1.351 . S
C1736 C1730 1.428 . S
C1736 N1735 1.351 . S
C1736 C1737 1.434 . S
C1737 C1728 1.429 . S
C1737 N1734 1.350 . S
C1737 C1736 1.434 . S
C1738 C1739 1.369 . S
C1738 C1740 1.419 . S
C1738 H1742 0.930 . S
C1739 C1738 1.369 . S
C1739 C1748 1.429 . S
C1740 C1738 1.419 . S
C1740 C1741 1.363 . S
C1740 H1743 0.929 . S
C1741 C1740 1.363 . S
C1741 C1747 1.428 . S
H1742 C1738 0.930 . S
H1743 C1740 0.929 . S
S1744 N1745 1.613 . S
S1744 N1746 1.610 . S
N1745 S1744 1.613 . S
N1745 C1748 1.350 . S
N1746 S1744 1.610 . S
N1746 C1747 1.351 . S
C1747 C1741 1.428 . S
C1747 N1746 1.351 . S
C1747 C1748 1.434 . S
C1748 C1739 1.429 . S
C1748 N1745 1.350 . S
C1748 C1747 1.434 . S
C1749 C1750 1.369 . S
C1749 C1751 1.419 . S
C1749 H1753 0.930 . S
C1750 C1749 1.369 . S
C1750 C1759 1.429 . S
C1751 C1749 1.419 . S
C1751 C1752 1.363 . S
C1751 H1754 0.929 . S
C1752 C1751 1.363 . S
C1752 C1758 1.428 . S
H1753 C1749 0.930 . S
H1754 C1751 0.929 . S
S1755 N1756 1.613 . S
S1755 N1757 1.610 . S
N1756 S1755 1.613 . S
N1756 C1759 1.350 . S
N1757 S1755 1.610 . S
N1757 C1758 1.351 . S
C1758 C1752 1.428 . S
C1758 N1757 1.351 . S
C1758 C1759 1.434 . S
C1759 C1750 1.429 . S
C1759 N1756 1.350 . S
C1759 C1758 1.434 . S
C705 C9 1.898 . S
C707 C97 1.898 . S
C716 C119 1.903 . S
C718 C27 1.903 . S
C727 C141 1.904 . S
C729 C49 1.902 . S
C738 C71 1.901 . S
C740 C163 1.899 . S
C749 C183 1.903 . S
C751 C271 1.900 . S
C760 C205 1.901 . S
C762 C292 1.899 . S
C771 C227 1.901 . S
C773 C314 1.903 . S
C782 C336 1.897 . S
C784 C249 1.899 . S
C793 C361 1.900 . S
C795 C449 1.902 . S
C804 C471 1.897 . S
C806 C379 1.899 . S
C815 C401 1.898 . S
C817 C493 1.900 . S
C826 C515 1.901 . S
C828 C423 1.899 . S
C837 C535 1.901 . S
C839 C623 1.899 . S
C848 C557 1.900 . S
C850 C644 1.898 . S
C859 C579 1.898 . S
C861 C666 1.899 . S
C870 C601 1.903 . S
C872 C688 1.901 . S
C881 C537 1.678 . S
C883 C7 1.684 . S
C892 C207 1.677 . S
C894 C28 1.685 . S
C903 C50 1.676 . S
C905 C581 1.685 . S
C914 C72 1.688 . S
C916 C251 1.676 . S
C925 C95 1.686 . S
C927 C625 1.677 . S
C936 C117 1.675 . S
C938 C291 1.686 . S
C947 C665 1.675 . S
C949 C139 1.686 . S
C958 C335 1.683 . S
C960 C161 1.679 . S
C969 C359 1.679 . S
C971 C185 1.683 . S
C980 C229 1.674 . S
C982 C402 1.687 . S
C991 C273 1.687 . S
C993 C447 1.677 . S
C1002 C491 1.683 . S
C1004 C313 1.679 . S
C1013 C380 1.683 . S
C1015 C559 1.679 . S
C1024 C603 1.681 . S
C1026 C424 1.681 . S
C1035 C643 1.676 . S
C1037 C469 1.685 . S
C1046 C513 1.688 . S
C1048 C687 1.676 . S
C1057 C5 1.162 . S
C1059 C599 1.161 . S
C1068 C31 1.162 1_655 S
C1070 C181 1.161 . S
C1079 C53 1.162 . S
C1081 C555 1.161 . S
C1090 C225 1.162 . S
C1092 C75 1.162 . S
C1101 C647 1.162 . S
C1103 C93 1.161 . S
C1112 C115 1.161 . S
C1114 C317 1.161 . S
C1123 C691 1.160 . S
C1125 C137 1.162 . S
C1134 C269 1.160 . S
C1136 C159 1.161 1_655 S
C1145 C425 1.162 . S
C1147 C182 1.161 . S
C1156 C204 1.161 1_455 S
C1158 C6 1.160 . S
C1167 C381 1.160 . S
C1169 C226 1.162 . S
C1178 C51 1.161 . S
C1180 C248 1.161 . S
C1189 C468 1.161 . S
C1191 C270 1.162 . S
C1200 C293 1.162 . S
C1202 C138 1.161 . S
C1211 C315 1.161 . S
C1213 C512 1.160 . S
C1222 C94 1.160 . S
C1224 C337 1.161 1_455 S
C1233 C357 1.161 . S
C1235 C247 1.160 . S
C1244 C383 1.162 . S
C1246 C533 1.161 . S
C1255 C203 1.160 . S
C1257 C405 1.162 . S
C1266 C427 1.161 1_455 S
C1268 C577 1.160 . S
C1277 C295 1.161 . S
C1279 C445 1.162 . S
C1288 C467 1.161 1_455 S
C1290 C669 1.160 . S
C1299 C339 1.161 . S
C1301 C489 1.162 . S
C1310 C511 1.161 . S
C1312 C621 1.160 . S
C1321 C73 1.162 . S
C1323 C534 1.162 . S
C1332 C556 1.161 . S
C1334 C358 1.161 . S
C1343 C578 1.161 . S
C1345 C29 1.161 . S
C1354 C403 1.160 . S
C1356 C600 1.161 1_655 S
C1365 C116 1.160 . S
C1367 C622 1.162 . S
C1376 C490 1.162 . S
C1378 C645 1.162 1_655 S
C1387 C667 1.162 . S
C1389 C160 1.161 . S
C1398 C446 1.160 . S
C1400 C689 1.162 . S
C1409 C4 0.770 . S
C1411 C404 0.773 . S
C1420 C30 0.767 . S
C1422 C426 0.771 . S
C1431 C52 0.773 . S
C1433 C356 0.772 . S
C1442 C74 0.769 . S
C1444 C382 0.766 . S
C1453 C488 0.765 . S
C1455 C92 0.769 . S
C1464 C510 0.767 . S
C1466 C114 0.772 . S
C1475 C136 0.770 . S
C1477 C444 0.767 . S
C1486 C466 0.767 . S
C1488 C158 0.771 . S
C1497 C576 0.772 . S
C1499 C180 0.767 . S
C1508 C598 0.765 . S
C1510 C202 0.769 . S
C1519 C532 0.774 . S
C1521 C224 0.769 . S
C1530 C246 0.766 . S
C1532 C554 0.771 . S
C1541 C268 0.771 . S
C1543 C668 0.767 . S
C1552 C690 0.770 . S
C1554 C294 0.773 . S
C1563 C620 0.774 . S
C1565 C316 0.769 . S
C1574 C338 0.765 . S
C1576 C646 0.770 . S
C1585 C162 1.698 . S
C1587 C8 1.701 . S
C1596 C26 1.705 . S
C1598 C96 1.703 . S
C1607 C48 1.699 . S
C1609 C118 1.703 . S
C1618 C140 1.702 . S
C1620 C70 1.704 . S
C1629 C334 1.702 . S
C1631 C184 1.704 . S
C1640 C206 1.699 . S
C1642 C272 1.704 . S
C1651 C290 1.698 . S
C1653 C228 1.701 . S
C1662 C312 1.699 . S
C1664 C250 1.704 . S
C1673 C514 1.698 . S
C1675 C360 1.700 . S
C1684 C448 1.705 . S
C1686 C378 1.702 . S
C1695 C470 1.705 . S
C1697 C400 1.701 . S
C1706 C422 1.705 . S
C1708 C492 1.703 . S
C1717 C686 1.698 . S
C1719 C536 1.700 . S
C1728 C624 1.705 . S
C1730 C558 1.702 . S
C1739 C642 1.698 . S
C1741 C580 1.703 . S
C1750 C602 1.698 . S
C1752 C664 1.703 . S
