# Generated by pormake.
# Topology ske, (6)-cn, num edge types: 1
# Building blocks:
#     Node 0, Type 0, BuildingBlock: FUNLAD_clean_sbu_0, # of connection points: 6
#     Node 1, Type 0, BuildingBlock: FUNLAD_clean_sbu_0, # of connection points: 6
#     Node 2, Type 0, BuildingBlock: FUNLAD_clean_sbu_0, # of connection points: 6
#     Node 3, Type 0, BuildingBlock: FUNLAD_clean_sbu_0, # of connection points: 6
#     Node 4, Type 0, BuildingBlock: FUNLAD_clean_sbu_0, # of connection points: 6
#     Node 5, Type 0, BuildingBlock: FUNLAD_clean_sbu_0, # of connection points: 6
#     Node 6, Type 0, BuildingBlock: FUNLAD_clean_sbu_0, # of connection points: 6
#     Node 7, Type 0, BuildingBlock: FUNLAD_clean_sbu_0, # of connection points: 6
#     Edge 8, Type (0, 0), BuildingBlock: KIFKEQ_clean_linker_1, # of connection points: 2
#     Edge 9, Type (0, 0), BuildingBlock: KIFKEQ_clean_linker_1, # of connection points: 2
#     Edge 10, Type (0, 0), BuildingBlock: KIFKEQ_clean_linker_1, # of connection points: 2
#     Edge 11, Type (0, 0), BuildingBlock: KIFKEQ_clean_linker_1, # of connection points: 2
#     Edge 12, Type (0, 0), BuildingBlock: KIFKEQ_clean_linker_1, # of connection points: 2
#     Edge 13, Type (0, 0), BuildingBlock: KIFKEQ_clean_linker_1, # of connection points: 2
#     Edge 14, Type (0, 0), BuildingBlock: KIFKEQ_clean_linker_1, # of connection points: 2
#     Edge 15, Type (0, 0), BuildingBlock: KIFKEQ_clean_linker_1, # of connection points: 2
#     Edge 16, Type (0, 0), BuildingBlock: KIFKEQ_clean_linker_1, # of connection points: 2
#     Edge 17, Type (0, 0), BuildingBlock: KIFKEQ_clean_linker_1, # of connection points: 2
#     Edge 18, Type (0, 0), BuildingBlock: KIFKEQ_clean_linker_1, # of connection points: 2
#     Edge 19, Type (0, 0), BuildingBlock: KIFKEQ_clean_linker_1, # of connection points: 2
#     Edge 20, Type (0, 0), BuildingBlock: KIFKEQ_clean_linker_1, # of connection points: 2
#     Edge 21, Type (0, 0), BuildingBlock: KIFKEQ_clean_linker_1, # of connection points: 2
#     Edge 22, Type (0, 0), BuildingBlock: KIFKEQ_clean_linker_1, # of connection points: 2
#     Edge 23, Type (0, 0), BuildingBlock: KIFKEQ_clean_linker_1, # of connection points: 2
#     Edge 24, Type (0, 0), BuildingBlock: KIFKEQ_clean_linker_1, # of connection points: 2
#     Edge 25, Type (0, 0), BuildingBlock: KIFKEQ_clean_linker_1, # of connection points: 2
#     Edge 26, Type (0, 0), BuildingBlock: KIFKEQ_clean_linker_1, # of connection points: 2
#     Edge 27, Type (0, 0), BuildingBlock: KIFKEQ_clean_linker_1, # of connection points: 2
#     Edge 28, Type (0, 0), BuildingBlock: KIFKEQ_clean_linker_1, # of connection points: 2
#     Edge 29, Type (0, 0), BuildingBlock: KIFKEQ_clean_linker_1, # of connection points: 2
#     Edge 30, Type (0, 0), BuildingBlock: KIFKEQ_clean_linker_1, # of connection points: 2
#     Edge 31, Type (0, 0), BuildingBlock: KIFKEQ_clean_linker_1, # of connection points: 2
# Relax obj value: 0.053
# Max RMSD: 0.119
# Mean RMSD: 0.115
data_MOF--net-ske--node1-FUNLAD_clean_sbu_0--edge1-KIFKEQ_clean_linker_1
_symmetry_space_group_name_H-M    P1
_symmetry_Int_Tables_number       1
_symmetry_cell_setting            triclinic
loop_
_symmetry_equiv_pos_as_xyz
'x, y, z'
_cell_length_a     59.219298
_cell_length_b     43.89653
_cell_length_c     15.425304
_cell_angle_alpha  89.817808
_cell_angle_beta   89.942878
_cell_angle_gamma 91.761522
loop_
_atom_site_label
_atom_site_type_symbol
_atom_site_fract_x
_atom_site_fract_y
_atom_site_fract_z
_atom_type_partial_charge
C0 C 0.18154 0.2662 0.55989 0.0
N1 N 0.13529 0.19293 0.52218 0.0
C2 C 0.15254 0.17895 0.48155 0.0
C3 C 0.15267 0.14724 0.4758 0.0
C4 C 0.13471 0.12966 0.51109 0.0
C5 C 0.1171 0.14459 0.55272 0.0
C6 C 0.11781 0.17642 0.55808 0.0
Zn7 Zn 0.13567 0.23967 0.52397 0.0
C8 C 0.12945 0.26455 0.69974 0.0
N9 N 0.13685 0.33721 0.52285 0.0
C10 C 0.15369 0.35222 0.47855 0.0
C11 C 0.12009 0.35265 0.56203 0.0
C12 C 0.11962 0.38441 0.55594 0.0
C13 C 0.1366 0.40049 0.50937 0.0
C14 C 0.15394 0.38393 0.47127 0.0
Zn15 Zn 0.13626 0.29055 0.52459 0.0
O16 O 0.171 0.24088 0.54833 0.0
C17 C 0.14249 0.26516 0.34862 0.0
O18 O 0.17114 0.29086 0.55011 0.0
H19 H 0.10683 0.34029 0.59679 0.0
H20 H 0.16614 0.19244 0.45243 0.0
H21 H 0.16683 0.33953 0.44776 0.0
O22 O 0.14079 0.24026 0.39039 0.0
O23 O 0.14185 0.29027 0.38908 0.0
H24 H 0.10428 0.18794 0.59026 0.0
O25 O 0.10127 0.2896 0.50224 0.0
O26 O 0.10023 0.23957 0.50175 0.0
O27 O 0.13063 0.28987 0.65943 0.0
O28 O 0.13055 0.23973 0.65798 0.0
C29 C 0.09008 0.26459 0.49553 0.0
H30 H 0.16643 0.13661 0.44226 0.0
H31 H 0.10303 0.13179 0.58126 0.0
H32 H 0.10577 0.39611 0.5856 0.0
H33 H 0.16761 0.39531 0.43607 0.0
C34 C 0.92034 0.2646 0.49437 0.0
N35 N 0.87493 0.33602 0.51995 0.0
C36 C 0.89242 0.35263 0.55501 0.0
C37 C 0.89295 0.38447 0.5495 0.0
C38 C 0.87516 0.39932 0.50863 0.0
C39 C 0.85721 0.38163 0.47419 0.0
C40 C 0.85751 0.3499 0.48003 0.0
Zn41 Zn 0.87476 0.28922 0.52233 0.0
C42 C 0.86796 0.26326 0.34751 0.0
N43 N 0.87382 0.19152 0.52279 0.0
C44 C 0.89107 0.17642 0.56012 0.0
C45 C 0.85681 0.17616 0.48075 0.0
C46 C 0.85681 0.14442 0.47438 0.0
C47 C 0.87465 0.12835 0.51053 0.0
C48 C 0.89189 0.1447 0.55419 0.0
Zn49 Zn 0.8741 0.23829 0.52379 0.0
O50 O 0.91011 0.28961 0.49798 0.0
C51 C 0.88084 0.26381 0.6985 0.0
O52 O 0.90921 0.23962 0.50353 0.0
H53 H 0.84338 0.18857 0.45073 0.0
H54 H 0.90608 0.34118 0.58665 0.0
H55 H 0.90439 0.18901 0.59356 0.0
O56 O 0.88057 0.28901 0.65757 0.0
O57 O 0.8789 0.23885 0.65732 0.0
H58 H 0.8439 0.33634 0.45162 0.0
O59 O 0.83906 0.23774 0.54722 0.0
O60 O 0.83955 0.28774 0.54876 0.0
O61 O 0.86931 0.2385 0.38959 0.0
O62 O 0.86894 0.28849 0.38759 0.0
C63 C 0.82883 0.26243 0.55856 0.0
H64 H 0.90703 0.39735 0.5774 0.0
H65 H 0.84331 0.39219 0.44126 0.0
H66 H 0.8433 0.13265 0.43951 0.0
H67 H 0.90583 0.13308 0.58365 0.0
C68 C 0.0906 0.76335 0.45206 0.0
N69 N 0.13633 0.83761 0.42366 0.0
C70 C 0.1188 0.85262 0.3881 0.0
C71 C 0.11803 0.88437 0.39361 0.0
C72 C 0.13561 0.90081 0.43503 0.0
C73 C 0.15369 0.88479 0.46962 0.0
C74 C 0.15363 0.85306 0.46373 0.0
Zn75 Zn 0.1364 0.79088 0.42264 0.0
C76 C 0.14304 0.76608 0.59827 0.0
N77 N 0.13679 0.69339 0.42521 0.0
C78 C 0.12003 0.67661 0.38608 0.0
C79 C 0.15352 0.67975 0.46989 0.0
C80 C 0.15368 0.64807 0.47749 0.0
C81 C 0.13636 0.6301 0.43934 0.0
C82 C 0.11946 0.64481 0.39248 0.0
Zn83 Zn 0.13657 0.74003 0.42272 0.0
O84 O 0.10131 0.78881 0.44668 0.0
C85 C 0.12996 0.76533 0.24725 0.0
O86 O 0.10122 0.7388 0.44399 0.0
H87 H 0.16667 0.69348 0.50067 0.0
H88 H 0.10525 0.83995 0.3563 0.0
H89 H 0.10686 0.68791 0.35102 0.0
O90 O 0.13089 0.79025 0.28899 0.0
O91 O 0.13132 0.74014 0.28757 0.0
H92 H 0.16728 0.84073 0.49246 0.0
O93 O 0.17182 0.74205 0.39871 0.0
O94 O 0.17139 0.79201 0.39622 0.0
O95 O 0.14179 0.74087 0.55814 0.0
O96 O 0.14191 0.79087 0.55623 0.0
C97 C 0.18208 0.76758 0.38683 0.0
H98 H 0.10388 0.89594 0.36551 0.0
H99 H 0.16745 0.89662 0.5029 0.0
H100 H 0.16729 0.6378 0.51289 0.0
H101 H 0.10563 0.63198 0.36275 0.0
C102 C 0.92094 0.76428 0.44785 0.0
N103 N 0.87343 0.69174 0.42005 0.0
C104 C 0.89072 0.67648 0.38381 0.0
C105 C 0.89128 0.64473 0.38974 0.0
C106 C 0.87371 0.62848 0.4323 0.0
C107 C 0.85581 0.64473 0.46726 0.0
C108 C 0.85609 0.6765 0.46091 0.0
Zn109 Zn 0.87414 0.73855 0.41922 0.0
C110 C 0.86843 0.76337 0.59422 0.0
N111 N 0.87646 0.83627 0.42114 0.0
C112 C 0.89389 0.85313 0.38624 0.0
C113 C 0.85917 0.84985 0.46255 0.0
C114 C 0.859 0.88148 0.47067 0.0
C115 C 0.87698 0.89956 0.43716 0.0
C116 C 0.89453 0.88492 0.39383 0.0
Zn117 Zn 0.87601 0.78949 0.41799 0.0
O118 O 0.90954 0.73936 0.44176 0.0
C119 C 0.88167 0.76422 0.24316 0.0
O120 O 0.911 0.78939 0.44073 0.0
H121 H 0.84553 0.83611 0.49037 0.0
H122 H 0.9043 0.68897 0.3513 0.0
H123 H 0.90751 0.84192 0.35371 0.0
O124 O 0.87935 0.73939 0.28529 0.0
O125 O 0.88171 0.78953 0.28312 0.0
H126 H 0.84262 0.68903 0.4901 0.0
O127 O 0.84115 0.78877 0.39203 0.0
O128 O 0.8388 0.7388 0.39462 0.0
O129 O 0.87029 0.78849 0.55337 0.0
O130 O 0.86896 0.73847 0.55287 0.0
C131 C 0.82953 0.76421 0.38258 0.0
H132 H 0.90527 0.63298 0.36122 0.0
H133 H 0.84206 0.63307 0.50132 0.0
H134 H 0.84484 0.89158 0.50297 0.0
H135 H 0.9089 0.89776 0.36772 0.0
C136 C 0.68188 0.7669 0.05878 0.0
N137 N 0.63622 0.69294 0.02089 0.0
C138 C 0.65356 0.67925 -0.02007 0.0
C139 C 0.65394 0.64755 -0.02605 0.0
C140 C 0.63614 0.62968 0.00931 0.0
C141 C 0.61845 0.64432 0.05127 0.0
C142 C 0.6189 0.67614 0.05689 0.0
Zn143 Zn 0.63616 0.73972 0.02305 0.0
C144 C 0.6298 0.76443 0.19889 0.0
N145 N 0.63647 0.83741 0.02251 0.0
C146 C 0.65362 0.85294 -0.0187 0.0
C147 C 0.61906 0.85237 0.05902 0.0
C148 C 0.61822 0.8841 0.05317 0.0
C149 C 0.63561 0.90063 0.0104 0.0
C150 C 0.6536 0.88468 -0.025 0.0
Zn151 Zn 0.6364 0.79065 0.0238 0.0
O152 O 0.67149 0.7415 0.04671 0.0
C153 C 0.64279 0.76549 0.84779 0.0
O154 O 0.67133 0.79147 0.04977 0.0
H155 H 0.60563 0.83965 0.09178 0.0
H156 H 0.66703 0.69296 0.95075 0.0
H157 H 0.66719 0.84064 0.95194 0.0
O158 O 0.64114 0.74057 0.88946 0.0
O159 O 0.64211 0.79059 0.88835 0.0
H160 H 0.60531 0.68742 0.08934 0.0
O161 O 0.60139 0.78899 0.00103 0.0
O162 O 0.60072 0.73897 0.00147 0.0
O163 O 0.63068 0.78975 0.15854 0.0
O164 O 0.63119 0.73964 0.15717 0.0
C165 C 0.59038 0.76383 -0.00511 0.0
H166 H 0.66776 0.63714 0.94021 0.0
H167 H 0.6045 0.6313 0.07992 0.0
H168 H 0.60415 0.89561 0.08199 0.0
H169 H 0.66722 0.89657 0.94075 0.0
C170 C 0.42067 0.76414 -0.0058 0.0
N171 N 0.37675 0.83693 0.02012 0.0
C172 C 0.39426 0.85335 0.05571 0.0
C173 C 0.39487 0.88521 0.05091 0.0
C174 C 0.37713 0.90024 0.01024 0.0
C175 C 0.35923 0.88273 -0.0252 0.0
C176 C 0.35946 0.85101 -0.02007 0.0
Zn177 Zn 0.37596 0.79016 0.02291 0.0
C178 C 0.36829 0.76481 0.84786 0.0
N179 N 0.37271 0.69259 0.02344 0.0
C180 C 0.38934 0.67718 0.06365 0.0
C181 C 0.35607 0.67755 -0.02145 0.0
C182 C 0.35596 0.64583 0.97145 0.0
C183 C 0.37323 0.62933 0.01047 0.0
C184 C 0.38995 0.64545 0.05783 0.0
Zn185 Zn 0.37368 0.73928 0.02403 0.0
O186 O 0.41104 0.78954 -0.00067 0.0
C187 C 0.38136 0.76514 0.19888 0.0
O188 O 0.409 0.73952 0.00238 0.0
H189 H 0.34302 0.69022 0.94696 0.0
H190 H 0.40783 0.84175 0.08749 0.0
H191 H 0.40245 0.68956 0.09882 0.0
O192 O 0.38136 0.79005 0.15667 0.0
O193 O 0.37904 0.73992 0.15906 0.0
H194 H 0.34584 0.8376 0.95102 0.0
O195 O 0.33842 0.73988 0.04843 0.0
O196 O 0.34101 0.78984 0.04892 0.0
O197 O 0.36838 0.73962 0.88855 0.0
O198 O 0.37053 0.78961 0.88936 0.0
C199 C 0.32927 0.7654 0.05938 0.0
H200 H 0.40892 0.89797 0.07946 0.0
H201 H 0.34539 0.89344 0.94194 0.0
H202 H 0.3425 0.6344 0.93557 0.0
H203 H 0.40375 0.63382 0.08818 0.0
C204 C 0.58987 0.26541 0.9497 0.0
N205 N 0.63778 0.33743 0.92073 0.0
C206 C 0.62077 0.35312 0.88398 0.0
C207 C 0.62039 0.38487 0.89079 0.0
C208 C 0.63782 0.40078 0.93511 0.0
C209 C 0.65548 0.38395 0.97018 0.0
C210 C 0.65504 0.35224 0.96277 0.0
Zn211 Zn 0.63677 0.29062 0.9196 0.0
C212 C 0.64231 0.26547 0.09567 0.0
N213 N 0.63391 0.19294 0.92315 0.0
C214 C 0.61626 0.17653 0.88849 0.0
C215 C 0.65129 0.17886 0.96275 0.0
C216 C 0.65143 0.14714 0.96842 0.0
C217 C 0.63336 0.12964 0.93415 0.0
C218 C 0.61557 0.14468 0.89385 0.0
Zn219 Zn 0.63465 0.23972 0.92066 0.0
O220 O 0.60131 0.29014 0.93959 0.0
C221 C 0.62915 0.26535 0.74474 0.0
O222 O 0.59974 0.24016 0.9464 0.0
H223 H 0.66502 0.19226 -0.00906 0.0
H224 H 0.60718 0.34097 0.85084 0.0
H225 H 0.60263 0.18814 0.85718 0.0
O226 O 0.63207 0.29017 0.78592 0.0
O227 O 0.62848 0.24012 0.78569 0.0
H228 H 0.66837 0.33939 -0.00811 0.0
O229 O 0.66943 0.24013 0.89249 0.0
O230 O 0.67217 0.29005 0.89681 0.0
O231 O 0.64086 0.24029 0.05541 0.0
O232 O 0.64141 0.29031 0.05373 0.0
C233 C 0.68124 0.26458 0.88381 0.0
H234 H 0.60625 0.39664 0.86354 0.0
H235 H 0.66954 0.39509 0.00337 0.0
H236 H 0.66533 0.13643 0.00099 0.0
H237 H 0.6014 0.13194 0.86618 0.0
C238 C 0.42015 0.26497 0.95118 0.0
N239 N 0.37276 0.19242 0.92381 0.0
C240 C 0.3899 0.17716 0.88654 0.0
C241 C 0.39068 0.14545 0.89357 0.0
C242 C 0.37353 0.12913 0.93867 0.0
C243 C 0.35571 0.14549 -0.02578 0.0
C244 C 0.35574 0.1772 0.96653 0.0
Zn245 Zn 0.37334 0.23917 0.92255 0.0
C246 C 0.36777 0.26398 0.09822 0.0
N247 N 0.37555 0.33673 0.9252 0.0
C248 C 0.39259 0.35357 0.88757 0.0
C249 C 0.3586 0.35033 0.96864 0.0
C250 C 0.35846 0.38197 -0.02359 0.0
C251 C 0.37603 0.39999 0.93977 0.0
C252 C 0.39318 0.38537 0.89417 0.0
Zn253 Zn 0.37519 0.29003 0.92262 0.0
O254 O 0.4088 0.24014 0.94211 0.0
C255 C 0.38069 0.26473 0.74711 0.0
O256 O 0.41016 0.29013 0.94734 0.0
H257 H 0.34521 0.33658 -0.00174 0.0
H258 H 0.40329 0.18965 0.85286 0.0
H259 H 0.40593 0.3423 0.85351 0.0
O260 O 0.378 0.23988 0.78882 0.0
O261 O 0.38119 0.28996 0.78754 0.0
H262 H 0.34231 0.18972 -0.004 0.0
O263 O 0.34038 0.2892 0.89544 0.0
O264 O 0.33794 0.23925 0.90013 0.0
O265 O 0.36917 0.28914 0.0575 0.0
O266 O 0.36872 0.23915 0.05672 0.0
C267 C 0.32871 0.26463 0.88705 0.0
H268 H 0.40492 0.13402 0.86591 0.0
H269 H 0.34186 0.134 0.00803 0.0
H270 H 0.34465 0.39216 0.01074 0.0
H271 H 0.40718 0.39827 0.86555 0.0
H272 H 0.2115 0.21994 0.57004 0.0
H273 H 0.20258 0.3139 0.6413 0.0
H274 H 0.24679 0.21984 0.65162 0.0
H275 H 0.23682 0.31337 0.7266 0.0
H276 H 0.30985 0.31299 0.8081 0.0
H277 H 0.27558 0.3133 0.72319 0.0
H278 H 0.26122 0.21918 0.79336 0.0
H279 H 0.29657 0.21844 0.87461 0.0
C280 C 0.21717 0.24061 0.6026 0.0
C281 C 0.20435 0.26698 0.59862 0.0
C282 C 0.23723 0.24046 0.65051 0.0
C283 C 0.24467 0.26651 0.6967 0.0
C284 C 0.23197 0.29301 0.69096 0.0
C285 C 0.21223 0.29332 0.64186 0.0
C286 C 0.29926 0.29243 0.80656 0.0
C287 C 0.30592 0.26568 0.84836 0.0
C288 C 0.27948 0.29261 0.75771 0.0
C289 C 0.26553 0.26623 0.75073 0.0
C290 C 0.27176 0.23975 0.79547 0.0
C291 C 0.29186 0.23941 0.84318 0.0
H292 H 0.71364 0.31046 0.87134 0.0
H293 H 0.69992 0.21612 0.80532 0.0
H294 H 0.74908 0.30947 0.7906 0.0
H295 H 0.73433 0.21556 0.72092 0.0
H296 H 0.80755 0.21463 0.63978 0.0
H297 H 0.77314 0.21517 0.72456 0.0
H298 H 0.76358 0.3089 0.64896 0.0
H299 H 0.79898 0.30876 0.56794 0.0
C300 C 0.71827 0.28948 0.8401 0.0
C301 C 0.70405 0.26334 0.84524 0.0
C302 C 0.73843 0.28899 0.7927 0.0
C303 C 0.74458 0.26251 0.74821 0.0
C304 C 0.73048 0.23625 0.75521 0.0
C305 C 0.71063 0.23658 0.80374 0.0
C306 C 0.79794 0.23524 0.64009 0.0
C307 C 0.80595 0.26163 0.59688 0.0
C308 C 0.77812 0.23557 0.68889 0.0
C309 C 0.76549 0.26214 0.69436 0.0
C310 C 0.77308 0.28823 0.64812 0.0
C311 C 0.7932 0.28805 0.60053 0.0
H312 H 0.31037 0.81435 0.13479 0.0
H313 H 0.29708 0.71944 0.07461 0.0
H314 H 0.27602 0.81518 0.21973 0.0
H315 H 0.26176 0.72064 0.15597 0.0
H316 H 0.21258 0.72204 0.38026 0.0
H317 H 0.24787 0.72206 0.29854 0.0
H318 H 0.23705 0.8149 0.21732 0.0
H319 H 0.20269 0.81531 0.30265 0.0
C320 C 0.29977 0.79382 0.13775 0.0
C321 C 0.30646 0.76681 0.09782 0.0
C322 C 0.27996 0.7943 0.18662 0.0
C323 C 0.26605 0.76793 0.19557 0.0
C324 C 0.27229 0.74121 0.15243 0.0
C325 C 0.29237 0.74059 0.10466 0.0
C326 C 0.21805 0.74261 0.34628 0.0
C327 C 0.20494 0.76871 0.34838 0.0
C328 C 0.2381 0.74251 0.2983 0.0
C329 C 0.24528 0.76836 0.25015 0.0
C330 C 0.23236 0.79469 0.25433 0.0
C331 C 0.21257 0.79495 0.30345 0.0
H332 H 0.71218 0.72102 0.06518 0.0
H333 H 0.70273 0.81426 0.1426 0.0
H334 H 0.74758 0.72071 0.14589 0.0
H335 H 0.73715 0.81349 0.22701 0.0
H336 H 0.81039 0.81303 0.30693 0.0
H337 H 0.77598 0.81378 0.2229 0.0
H338 H 0.76208 0.71906 0.2874 0.0
H339 H 0.79754 0.71792 0.36778 0.0
C340 C 0.71776 0.7415 0.09893 0.0
C341 C 0.70476 0.76772 0.09696 0.0
C342 C 0.73789 0.74121 0.14633 0.0
C343 C 0.74523 0.76697 0.19403 0.0
C344 C 0.73236 0.79335 0.19022 0.0
C345 C 0.71253 0.79382 0.14163 0.0
C346 C 0.79988 0.79242 0.3043 0.0
C347 C 0.8067 0.7654 0.34425 0.0
C348 C 0.78002 0.79286 0.25597 0.0
C349 C 0.76615 0.76645 0.24763 0.0
C350 C 0.77255 0.73967 0.29056 0.0
C351 C 0.79272 0.73909 0.33777 0.0
H352 H 0.10027 0.93465 0.48832 0.0
H353 H 0.16957 0.94272 0.40237 0.0
H354 H 0.09973 0.98966 0.50943 0.0
H355 H 0.16893 0.99781 0.42023 0.0
H356 H 0.16894 0.09111 0.54412 0.0
H357 H 0.16876 0.03596 0.52668 0.0
H358 H 0.0995 0.03724 0.43827 0.0
H359 H 0.09959 0.09232 0.45899 0.0
C360 C 0.11529 0.9483 0.47279 0.0
C361 C 0.13497 0.93442 0.44392 0.0
C362 C 0.115 0.97987 0.48464 0.0
C363 C 0.13432 0.99835 0.4669 0.0
C364 C 0.15388 0.98436 0.4365 0.0
C365 C 0.15424 0.95278 0.42573 0.0
C366 C 0.15369 0.07952 0.52106 0.0
C367 C 0.13428 0.09598 0.5029 0.0
C368 C 0.15359 0.04791 0.51052 0.0
C369 C 0.13416 0.03199 0.48038 0.0
C370 C 0.11468 0.04855 0.46282 0.0
C371 C 0.11471 0.08015 0.47446 0.0
H372 H 0.8408 0.43756 0.54279 0.0
H373 H 0.91001 0.43709 0.45525 0.0
H374 H 0.84074 0.49276 0.52576 0.0
H375 H 0.90985 0.4922 0.43486 0.0
H376 H 0.9091 0.59451 0.48457 0.0
H377 H 0.90969 0.53948 0.50593 0.0
H378 H 0.84021 0.5315 0.42069 0.0
H379 H 0.83953 0.58664 0.40267 0.0
C380 C 0.85596 0.44931 0.51926 0.0
C381 C 0.87541 0.43304 0.50037 0.0
C382 C 0.85592 0.48097 0.50895 0.0
C383 C 0.87525 0.49713 0.47832 0.0
C384 C 0.89475 0.48073 0.45989 0.0
C385 C 0.89486 0.4491 0.47131 0.0
C386 C 0.89402 0.5809 0.47001 0.0
C387 C 0.87426 0.59485 0.44207 0.0
C388 C 0.89435 0.54931 0.48198 0.0
C389 C 0.87498 0.53084 0.46526 0.0
C390 C 0.85531 0.54491 0.4361 0.0
C391 C 0.85492 0.57653 0.42524 0.0
H392 H 0.86241 0.93203 0.57724 0.0
H393 H 0.89274 0.94391 0.3237 0.0
H394 H 0.86188 0.9871 0.59436 0.0
H395 H 0.89292 0.99912 0.34292 0.0
H396 H 0.91045 0.0948 0.46019 0.0
H397 H 0.91154 0.03945 0.4424 0.0
H398 H 0.84168 0.0309 0.52153 0.0
H399 H 0.84058 0.0862 0.53927 0.0
C400 C 0.86883 0.94628 0.52479 0.0
C401 C 0.87744 0.93332 0.44863 0.0
C402 C 0.86861 0.97788 0.53497 0.0
C403 C 0.87729 0.99736 0.4699 0.0
C404 C 0.8863 0.98459 0.39447 0.0
C405 C 0.88626 0.95293 0.3837 0.0
C406 C 0.89539 0.08104 0.47423 0.0
C407 C 0.87544 0.09476 0.50126 0.0
C408 C 0.89596 0.04944 0.46336 0.0
C409 C 0.8767 0.03091 0.48059 0.0
C410 C 0.85682 0.04462 0.50835 0.0
C411 C 0.85615 0.07624 0.51799 0.0
H412 H 0.14729 0.5969 0.58321 0.0
H413 H 0.12405 0.5867 0.31909 0.0
H414 H 0.14743 0.5418 0.59925 0.0
H415 H 0.12296 0.53152 0.3368 0.0
H416 H 0.14775 0.43469 0.36576 0.0
H417 H 0.14771 0.48981 0.34974 0.0
H418 H 0.12287 0.49787 0.61194 0.0
H419 H 0.12414 0.4428 0.62964 0.0
C420 C 0.14222 0.58293 0.52845 0.0
C421 C 0.1358 0.59634 0.44962 0.0
C422 C 0.14198 0.55126 0.53811 0.0
C423 C 0.13519 0.53213 0.46939 0.0
C424 C 0.12857 0.54552 0.39078 0.0
C425 C 0.12891 0.57722 0.38097 0.0
C426 C 0.14257 0.44821 0.42048 0.0
C427 C 0.13608 0.43422 0.49922 0.0
C428 C 0.14222 0.47985 0.41082 0.0
C429 C 0.13526 0.49837 0.47946 0.0
C430 C 0.1286 0.48438 0.55801 0.0
C431 C 0.12905 0.45272 0.56782 0.0
H432 H 0.60124 0.59184 0.95751 0.0
H433 H 0.67073 0.59159 0.04183 0.0
H434 H 0.60139 0.53642 0.93976 0.0
H435 H 0.67088 0.53624 0.02412 0.0
H436 H 0.65188 0.43458 0.07576 0.0
H437 H 0.65147 0.48964 0.09394 0.0
H438 H 0.62139 0.49883 0.84095 0.0
H439 H 0.62253 0.44379 0.82071 0.0
C440 C 0.61648 0.57989 -0.02719 0.0
C441 C 0.63597 0.59599 0.00109 0.0
C442 C 0.61662 0.54826 0.96196 0.0
C443 C 0.63616 0.53205 -0.01954 0.0
C444 C 0.65555 0.54812 0.00988 0.0
C445 C 0.65551 0.57978 0.0195 0.0
C446 C 0.64551 0.44825 0.02317 0.0
C447 C 0.63736 0.43453 0.94644 0.0
C448 C 0.64517 0.47983 0.03397 0.0
C449 C 0.63639 0.4985 0.96892 0.0
C450 C 0.62802 0.48493 0.89261 0.0
C451 C 0.62862 0.45335 0.88124 0.0
H452 H 0.41184 0.93856 0.95826 0.0
H453 H 0.34263 0.93791 0.0467 0.0
H454 H 0.41141 0.99408 0.94187 0.0
H455 H 0.3422 0.9933 0.03033 0.0
H456 H 0.36036 0.09495 0.08043 0.0
H457 H 0.36148 0.03991 0.09905 0.0
H458 H 0.39081 0.03163 0.84436 0.0
H459 H 0.38898 0.08663 0.8238 0.0
C460 C 0.39662 0.95034 -0.02517 0.0
C461 C 0.37726 0.93397 0.00369 0.0
C462 C 0.39631 0.98202 0.96477 0.0
C463 C 0.37676 0.99796 -0.01531 0.0
C464 C 0.35754 0.98163 0.015 0.0
C465 C 0.35775 0.94994 0.02385 0.0
C466 C 0.36673 0.08148 0.02763 0.0
C467 C 0.37445 0.09542 0.95029 0.0
C468 C 0.36749 0.04991 0.03867 0.0
C469 C 0.37625 0.03152 -0.02678 0.0
C470 C 0.38422 0.04532 0.89633 0.0
C471 C 0.3832 0.07688 0.88476 0.0
H472 H 0.36436 0.43264 0.08318 0.0
H473 H 0.38881 0.44388 0.82061 0.0
H474 H 0.3636 0.48764 0.09923 0.0
H475 H 0.38923 0.49905 0.83836 0.0
H476 H 0.36295 0.5953 0.86623 0.0
H477 H 0.36381 0.54025 0.84989 0.0
H478 H 0.38759 0.53199 0.11343 0.0
H479 H 0.38553 0.58691 0.13133 0.0
C480 C 0.36959 0.44683 0.02877 0.0
C481 C 0.37648 0.43373 0.95031 0.0
C482 C 0.36946 0.47845 0.03845 0.0
C483 C 0.37636 0.49788 0.97014 0.0
C484 C 0.38352 0.48481 0.89199 0.0
C485 C 0.38356 0.45313 0.88216 0.0
C486 C 0.36807 0.58174 0.92116 0.0
C487 C 0.37404 0.59563 0.0003 0.0
C488 C 0.36889 0.55015 0.91133 0.0
C489 C 0.37581 0.5316 -0.01975 0.0
C490 C 0.38192 0.54549 0.05924 0.0
C491 C 0.381 0.57708 0.0692 0.0
H492 H 0.66756 0.09143 0.89809 0.0
H493 H 0.59857 0.09186 -0.01177 0.0
H494 H 0.66771 0.03626 0.91528 0.0
H495 H 0.59884 0.03673 0.00872 0.0
H496 H 0.59989 0.93424 0.95928 0.0
H497 H 0.599 0.98926 0.93786 0.0
H498 H 0.66857 0.9979 0.02155 0.0
H499 H 0.66956 0.94279 0.03973 0.0
C500 C 0.65246 0.07967 0.92217 0.0
C501 C 0.63307 0.09592 0.94188 0.0
C502 C 0.65256 0.04803 0.93258 0.0
C503 C 0.63334 0.03187 0.96411 0.0
C504 C 0.61385 0.04822 -0.0169 0.0
C505 C 0.61368 0.07985 0.9716 0.0
C506 C 0.61493 0.948 -0.02649 0.0
C507 C 0.63481 0.93425 0.00097 0.0
C508 C 0.61442 0.97958 0.96149 0.0
C509 C 0.63373 0.9982 -0.02237 0.0
C510 C 0.65351 0.98434 0.00652 0.0
C511 C 0.65408 0.95275 0.01747 0.0
H512 H 0.15312 0.31202 0.23711 0.0
H513 H 0.13112 0.21725 0.24541 0.0
H514 H 0.14975 0.31167 0.07941 0.0
H515 H 0.12656 0.21728 0.08952 0.0
H516 H 0.14152 0.21781 0.80328 0.0
H517 H 0.14635 0.21831 0.95917 0.0
H518 H 0.12215 0.31027 0.96817 0.0
H519 H 0.11851 0.31024 0.8106 0.0
C520 C 0.14763 0.29114 0.20515 0.0
C521 C 0.14251 0.26465 0.25332 0.0
C522 C 0.14544 0.291 0.11502 0.0
C523 C 0.13775 0.26449 0.07174 0.0
C524 C 0.13291 0.23795 0.12031 0.0
C525 C 0.13547 0.23795 0.20992 0.0
C526 C 0.13698 0.23802 0.8386 0.0
C527 C 0.12956 0.26396 0.79499 0.0
C528 C 0.13973 0.23831 0.92816 0.0
C529 C 0.13468 0.26435 -0.02361 0.0
C530 C 0.12664 0.29005 0.93284 0.0
C531 C 0.12428 0.28994 0.8428 0.0
H532 H 0.8577 0.30943 0.2364 0.0
H533 H 0.87891 0.21612 0.24401 0.0
H534 H 0.8611 0.30947 0.07873 0.0
H535 H 0.88347 0.2166 0.08796 0.0
H536 H 0.86811 0.2164 0.80223 0.0
H537 H 0.86343 0.21652 0.95809 0.0
H538 H 0.88877 0.30997 0.9671 0.0
H539 H 0.89232 0.31026 0.80937 0.0
C540 C 0.86302 0.28894 0.20428 0.0
C541 C 0.86791 0.26274 0.25224 0.0
C542 C 0.86524 0.28906 0.11417 0.0
C543 C 0.8727 0.2631 0.07066 0.0
C544 C 0.87731 0.23682 0.119 0.0
C545 C 0.87473 0.23655 0.20864 0.0
C546 C 0.87293 0.2369 0.83747 0.0
C547 C 0.88066 0.26331 0.79378 0.0
C548 C 0.87027 0.23695 0.92704 0.0
C549 C 0.87571 0.26325 -0.02471 0.0
C550 C 0.88402 0.2895 0.93171 0.0
C551 C 0.8863 0.2896 0.84159 0.0
H552 H 0.1421 0.81311 0.1439 0.0
H553 H 0.119 0.71881 0.13623 0.0
H554 H 0.14692 0.81313 -0.01202 0.0
H555 H 0.12261 0.71922 -0.0214 0.0
H556 H 0.1535 0.72004 0.70953 0.0
H557 H 0.15011 0.72006 0.86721 0.0
H558 H 0.12731 0.81272 0.85758 0.0
H559 H 0.1319 0.81316 0.70158 0.0
C560 C 0.13754 0.79255 0.10848 0.0
C561 C 0.13009 0.76597 0.15201 0.0
C562 C 0.14027 0.79256 0.0189 0.0
C563 C 0.13519 0.76616 0.97053 0.0
C564 C 0.12712 0.73977 0.01402 0.0
C565 C 0.12479 0.73961 0.10409 0.0
C566 C 0.14809 0.7405 0.7416 0.0
C567 C 0.14309 0.76663 0.69355 0.0
C568 C 0.14588 0.74043 0.83172 0.0
C569 C 0.13829 0.76633 0.87516 0.0
C570 C 0.13358 0.79255 0.82669 0.0
C571 C 0.13617 0.79279 0.73704 0.0
H572 H 0.87834 0.71588 0.69881 0.0
H573 H 0.85931 0.81012 0.70426 0.0
H574 H 0.88306 0.71633 0.85471 0.0
H575 H 0.86282 0.81017 0.86189 0.0
H576 H 0.89399 0.81012 0.13078 0.0
H577 H 0.89038 0.80974 -0.02685 0.0
H578 H 0.86338 0.7171 -0.01488 0.0
H579 H 0.86816 0.71701 0.14092 0.0
C580 C 0.87465 0.73652 0.73371 0.0
C581 C 0.86841 0.76296 0.68952 0.0
C582 C 0.87732 0.73678 0.8233 0.0
C583 C 0.87336 0.76331 0.87104 0.0
C584 C 0.86646 0.78954 0.82695 0.0
C585 C 0.86418 0.78943 0.73686 0.0
C586 C 0.88761 0.78959 0.09923 0.0
C587 C 0.88152 0.76355 0.14788 0.0
C588 C 0.88528 0.78946 0.00915 0.0
C589 C 0.87647 0.76344 0.96639 0.0
C590 C 0.87061 0.73736 0.01547 0.0
C591 C 0.87331 0.73731 0.10503 0.0
H592 H 0.61837 0.80993 0.30958 0.0
H593 H 0.64243 0.71801 0.30258 0.0
H594 H 0.62204 0.81011 0.46715 0.0
H595 H 0.64727 0.7187 0.45847 0.0
H596 H 0.63189 0.71742 0.74456 0.0
H597 H 0.62739 0.71734 0.58868 0.0
H598 H 0.64965 0.81209 0.57849 0.0
H599 H 0.65298 0.81254 0.73623 0.0
C600 C 0.62438 0.78977 0.34185 0.0
C601 C 0.62994 0.76389 0.29413 0.0
C602 C 0.62675 0.78998 0.43188 0.0
C603 C 0.63508 0.76448 0.47552 0.0
C604 C 0.64042 0.73854 0.42738 0.0
C605 C 0.63767 0.73814 0.33783 0.0
C606 C 0.63606 0.73818 0.70907 0.0
C607 C 0.64283 0.765 0.75248 0.0
C608 C 0.63353 0.73812 0.61946 0.0
C609 C 0.63812 0.76471 0.57087 0.0
C610 C 0.64554 0.79137 0.61414 0.0
C611 C 0.6477 0.79156 0.70429 0.0
H612 H 0.38106 0.81221 0.74406 0.0
H613 H 0.35633 0.71859 0.73696 0.0
H614 H 0.38563 0.81208 0.58814 0.0
H615 H 0.35971 0.7189 0.57923 0.0
H616 H 0.39084 0.71877 0.31024 0.0
H617 H 0.38722 0.71887 0.46783 0.0
H618 H 0.36598 0.81225 0.45779 0.0
H619 H 0.37082 0.81257 0.30181 0.0
C620 C 0.3761 0.79177 0.70882 0.0
C621 C 0.3683 0.76541 0.75256 0.0
C622 C 0.37868 0.79172 0.61919 0.0
C623 C 0.37308 0.76547 0.57093 0.0
C624 C 0.36462 0.73932 0.61457 0.0
C625 C 0.36242 0.73921 0.70472 0.0
C626 C 0.38573 0.73939 0.34222 0.0
C627 C 0.38129 0.76572 0.29411 0.0
C628 C 0.38338 0.73937 0.43228 0.0
C629 C 0.37617 0.76551 0.47556 0.0
C630 C 0.37196 0.79188 0.427 0.0
C631 C 0.37471 0.79207 0.33741 0.0
H632 H 0.63222 0.31298 0.19914 0.0
H633 H 0.65154 0.21886 0.20687 0.0
H634 H 0.6275 0.31264 0.35507 0.0
H635 H 0.64798 0.21892 0.36453 0.0
H636 H 0.61671 0.21929 0.63379 0.0
H637 H 0.62029 0.21944 0.47608 0.0
H638 H 0.64743 0.31202 0.48507 0.0
H639 H 0.64273 0.31234 0.64087 0.0
C640 C 0.63596 0.29238 0.23452 0.0
C641 C 0.6423 0.26595 0.19096 0.0
C642 C 0.63329 0.29219 0.32412 0.0
C643 C 0.63732 0.26573 0.3725 0.0
C644 C 0.6443 0.2395 0.32906 0.0
C645 C 0.64661 0.23954 0.23896 0.0
C646 C 0.62312 0.23976 0.60158 0.0
C647 C 0.62928 0.26585 0.64941 0.0
C648 C 0.62543 0.23976 0.51146 0.0
C649 C 0.63426 0.2657 0.46787 0.0
C650 C 0.64019 0.29183 0.51611 0.0
C651 C 0.63753 0.29199 0.60568 0.0
H652 H 0.37794 0.21658 0.20284 0.0
H653 H 0.3583 0.31058 0.20819 0.0
H654 H 0.38254 0.21709 0.35883 0.0
H655 H 0.36174 0.31069 0.36582 0.0
H656 H 0.39297 0.31077 0.63496 0.0
H657 H 0.38942 0.31044 0.47725 0.0
H658 H 0.36249 0.21776 0.4888 0.0
H659 H 0.36716 0.21762 0.64458 0.0
C660 C 0.37411 0.23719 0.23771 0.0
C661 C 0.36772 0.26354 0.1935 0.0
C662 C 0.37671 0.23747 0.32732 0.0
C663 C 0.37256 0.26396 0.375 0.0
C664 C 0.36552 0.2901 0.33088 0.0
C665 C 0.36328 0.28996 0.2408 0.0
C666 C 0.38661 0.29025 0.60331 0.0
C667 C 0.38051 0.26418 0.65182 0.0
C668 C 0.38432 0.29014 0.5132 0.0
C669 C 0.37557 0.26411 0.47034 0.0
C670 C 0.36968 0.23802 0.51928 0.0
C671 C 0.37232 0.23796 0.60883 0.0
H672 H 0.06244 0.31191 0.52371 0.0
H673 H 0.06194 0.21786 0.4419 0.0
H674 H 0.02151 0.31174 0.51508 0.0
H675 H 0.02091 0.21803 0.42879 0.0
H676 H 0.94799 0.21753 0.52611 0.0
H677 H 0.98891 0.2177 0.51807 0.0
H678 H 0.98958 0.31087 0.42552 0.0
H679 H 0.94853 0.31107 0.438 0.0
C680 C 0.05357 0.29132 0.50243 0.0
C681 C 0.06536 0.26482 0.48407 0.0
C682 C 0.03006 0.29127 0.49679 0.0
C683 C 0.0178 0.26485 0.47136 0.0
C684 C 0.02973 0.23862 0.45029 0.0
C685 C 0.05325 0.23853 0.45729 0.0
C686 C 0.95687 0.238 0.50357 0.0
C687 C 0.94508 0.26436 0.48324 0.0
C688 C 0.98038 0.23804 0.49827 0.0
C689 C 0.99266 0.26432 0.47124 0.0
C690 C 0.98074 0.29041 0.44826 0.0
C691 C 0.95721 0.29051 0.45488 0.0
H692 H 0.94648 0.71676 0.49981 0.0
H693 H 0.95119 0.81137 0.42196 0.0
H694 H 0.98747 0.71611 0.51338 0.0
H695 H 0.99208 0.81043 0.43125 0.0
H696 H 0.0644 0.80871 0.51197 0.0
H697 H 0.0234 0.8084 0.52337 0.0
H698 H 0.01998 0.7161 0.42569 0.0
H699 H 0.06102 0.71601 0.41865 0.0
C700 C 0.9563 0.73739 0.48544 0.0
C701 C 0.94565 0.76409 0.4597 0.0
C702 C 0.97981 0.737 0.49269 0.0
C703 C 0.99318 0.76318 0.47311 0.0
C704 C 0.9824 0.78998 0.44849 0.0
C705 C 0.95891 0.79049 0.44251 0.0
C706 C 0.05485 0.78828 0.49376 0.0
C707 C 0.06587 0.76245 0.46399 0.0
C708 C 0.03133 0.78814 0.49973 0.0
C709 C 0.01828 0.76234 0.47459 0.0
C710 C 0.02942 0.73624 0.4468 0.0
C711 C 0.05297 0.73622 0.44219 0.0
H712 H 0.5625 0.81103 0.02064 0.0
H713 H 0.56239 0.71636 0.94482 0.0
H714 H 0.5216 0.81045 0.01227 0.0
H715 H 0.52132 0.71609 0.93204 0.0
H716 H 0.44794 0.71669 0.02799 0.0
H717 H 0.48894 0.71641 0.02002 0.0
H718 H 0.49004 0.80882 0.92139 0.0
H719 H 0.44906 0.8095 0.93385 0.0
C720 C 0.55372 0.79019 0.00072 0.0
C721 C 0.56563 0.76369 -0.01619 0.0
C722 C 0.53022 0.7899 -0.00476 0.0
C723 C 0.51805 0.76322 0.97137 0.0
C724 C 0.53007 0.7369 0.95213 0.0
C725 C 0.55362 0.73707 0.95893 0.0
C726 C 0.45697 0.73686 0.0041 0.0
C727 C 0.44535 0.76322 -0.0177 0.0
C728 C 0.4805 0.73665 -0.00109 0.0
C729 C 0.49291 0.76265 0.9705 0.0
C730 C 0.48112 0.78861 0.94548 0.0
C731 C 0.45761 0.78898 0.95208 0.0
H732 H 0.44821 0.31148 0.00603 0.0
H733 H 0.4479 0.21772 0.92163 0.0
H734 H 0.48924 0.31162 0.01787 0.0
H735 H 0.48889 0.21819 0.9294 0.0
H736 H 0.56178 0.21927 0.00762 0.0
H737 H 0.52079 0.21929 0.02017 0.0
H738 H 0.52118 0.31235 0.92694 0.0
H739 H 0.56219 0.31269 0.91846 0.0
C740 C 0.45694 0.29091 -0.01011 0.0
C741 C 0.44487 0.26463 0.96262 0.0
C742 C 0.48046 0.29103 -0.00386 0.0
C743 C 0.49246 0.26498 -0.02595 0.0
C744 C 0.48027 0.23852 0.94833 0.0
C745 C 0.45673 0.23829 0.94327 0.0
C746 C 0.55308 0.2398 -0.00942 0.0
C747 C 0.56517 0.26593 0.96172 0.0
C748 C 0.52957 0.23977 -0.00276 0.0
C749 C 0.51759 0.26574 -0.02605 0.0
C750 C 0.5298 0.29208 0.94675 0.0
C751 C 0.55333 0.29223 0.9413 0.0
loop_
_geom_bond_atom_site_label_1
_geom_bond_atom_site_label_2
_geom_bond_distance
_geom_bond_site_symmetry_2
_ccdc_geom_bond_type
C0 O16 1.251 . S
C0 O18 1.254 . S
N1 C2 1.333 . S
N1 C6 1.307 . S
N1 Zn7 2.020 . S
C2 N1 1.333 . S
C2 C3 1.379 . S
C2 H20 0.952 . S
C3 C2 1.379 . S
C3 C4 1.390 . S
C3 H30 0.949 . S
C4 C3 1.390 . S
C4 C5 1.357 . S
C5 C4 1.357 . S
C5 C6 1.370 . S
C5 H31 0.950 . S
C6 N1 1.307 . S
C6 C5 1.370 . S
C6 H24 0.948 . S
Zn7 N1 2.020 . S
Zn7 O16 2.039 . S
Zn7 O22 2.034 . S
Zn7 O26 2.025 . S
Zn7 O28 2.024 . S
C8 O27 1.246 . S
C8 O28 1.249 . S
N9 C10 1.307 . S
N9 C11 1.333 . S
N9 Zn15 2.020 . S
C10 N9 1.307 . S
C10 C14 1.370 . S
C10 H21 0.948 . S
C11 N9 1.333 . S
C11 C12 1.379 . S
C11 H19 0.952 . S
C12 C11 1.379 . S
C12 C13 1.390 . S
C12 H32 0.949 . S
C13 C12 1.390 . S
C13 C14 1.357 . S
C14 C10 1.370 . S
C14 C13 1.357 . S
C14 H33 0.950 . S
Zn15 N9 2.020 . S
Zn15 O18 2.025 . S
Zn15 O23 2.024 . S
Zn15 O25 2.039 . S
Zn15 O27 2.034 . S
O16 C0 1.251 . S
O16 Zn7 2.039 . S
C17 O22 1.246 . S
C17 O23 1.249 . S
O18 C0 1.254 . S
O18 Zn15 2.025 . S
H19 C11 0.952 . S
H20 C2 0.952 . S
H21 C10 0.948 . S
O22 Zn7 2.034 . S
O22 C17 1.246 . S
O23 Zn15 2.024 . S
O23 C17 1.249 . S
H24 C6 0.948 . S
O25 Zn15 2.039 . S
O25 C29 1.251 . S
O26 Zn7 2.025 . S
O26 C29 1.254 . S
O27 C8 1.246 . S
O27 Zn15 2.034 . S
O28 Zn7 2.024 . S
O28 C8 1.249 . S
C29 O25 1.251 . S
C29 O26 1.254 . S
H30 C3 0.949 . S
H31 C5 0.950 . S
H32 C12 0.949 . S
H33 C14 0.950 . S
C34 O50 1.251 . S
C34 O52 1.254 . S
N35 C36 1.333 . S
N35 C40 1.307 . S
N35 Zn41 2.020 . S
C36 N35 1.333 . S
C36 C37 1.379 . S
C36 H54 0.952 . S
C37 C36 1.379 . S
C37 C38 1.390 . S
C37 H64 0.949 . S
C38 C37 1.390 . S
C38 C39 1.357 . S
C39 C38 1.357 . S
C39 C40 1.370 . S
C39 H65 0.950 . S
C40 N35 1.307 . S
C40 C39 1.370 . S
C40 H58 0.948 . S
Zn41 N35 2.020 . S
Zn41 O50 2.039 . S
Zn41 O56 2.034 . S
Zn41 O60 2.025 . S
Zn41 O62 2.024 . S
C42 O61 1.246 . S
C42 O62 1.249 . S
N43 C44 1.307 . S
N43 C45 1.333 . S
N43 Zn49 2.020 . S
C44 N43 1.307 . S
C44 C48 1.370 . S
C44 H55 0.948 . S
C45 N43 1.333 . S
C45 C46 1.379 . S
C45 H53 0.952 . S
C46 C45 1.379 . S
C46 C47 1.390 . S
C46 H66 0.949 . S
C47 C46 1.390 . S
C47 C48 1.357 . S
C48 C44 1.370 . S
C48 C47 1.357 . S
C48 H67 0.950 . S
Zn49 N43 2.020 . S
Zn49 O52 2.025 . S
Zn49 O57 2.024 . S
Zn49 O59 2.039 . S
Zn49 O61 2.034 . S
O50 C34 1.251 . S
O50 Zn41 2.039 . S
C51 O56 1.246 . S
C51 O57 1.249 . S
O52 C34 1.254 . S
O52 Zn49 2.025 . S
H53 C45 0.952 . S
H54 C36 0.952 . S
H55 C44 0.948 . S
O56 Zn41 2.034 . S
O56 C51 1.246 . S
O57 Zn49 2.024 . S
O57 C51 1.249 . S
H58 C40 0.948 . S
O59 Zn49 2.039 . S
O59 C63 1.251 . S
O60 Zn41 2.025 . S
O60 C63 1.254 . S
O61 C42 1.246 . S
O61 Zn49 2.034 . S
O62 Zn41 2.024 . S
O62 C42 1.249 . S
C63 O59 1.251 . S
C63 O60 1.254 . S
H64 C37 0.949 . S
H65 C39 0.950 . S
H66 C46 0.949 . S
H67 C48 0.950 . S
C68 O84 1.251 . S
C68 O86 1.254 . S
N69 C70 1.333 . S
N69 C74 1.307 . S
N69 Zn75 2.020 . S
C70 N69 1.333 . S
C70 C71 1.379 . S
C70 H88 0.952 . S
C71 C70 1.379 . S
C71 C72 1.390 . S
C71 H98 0.949 . S
C72 C71 1.390 . S
C72 C73 1.357 . S
C73 C72 1.357 . S
C73 C74 1.370 . S
C73 H99 0.950 . S
C74 N69 1.307 . S
C74 C73 1.370 . S
C74 H92 0.948 . S
Zn75 N69 2.020 . S
Zn75 O84 2.039 . S
Zn75 O90 2.034 . S
Zn75 O94 2.025 . S
Zn75 O96 2.024 . S
C76 O95 1.246 . S
C76 O96 1.249 . S
N77 C78 1.307 . S
N77 C79 1.333 . S
N77 Zn83 2.020 . S
C78 N77 1.307 . S
C78 C82 1.370 . S
C78 H89 0.948 . S
C79 N77 1.333 . S
C79 C80 1.379 . S
C79 H87 0.952 . S
C80 C79 1.379 . S
C80 C81 1.390 . S
C80 H100 0.949 . S
C81 C80 1.390 . S
C81 C82 1.357 . S
C82 C78 1.370 . S
C82 C81 1.357 . S
C82 H101 0.950 . S
Zn83 N77 2.020 . S
Zn83 O86 2.025 . S
Zn83 O91 2.024 . S
Zn83 O93 2.039 . S
Zn83 O95 2.034 . S
O84 C68 1.251 . S
O84 Zn75 2.039 . S
C85 O90 1.246 . S
C85 O91 1.249 . S
O86 C68 1.254 . S
O86 Zn83 2.025 . S
H87 C79 0.952 . S
H88 C70 0.952 . S
H89 C78 0.948 . S
O90 Zn75 2.034 . S
O90 C85 1.246 . S
O91 Zn83 2.024 . S
O91 C85 1.249 . S
H92 C74 0.948 . S
O93 Zn83 2.039 . S
O93 C97 1.251 . S
O94 Zn75 2.025 . S
O94 C97 1.254 . S
O95 C76 1.246 . S
O95 Zn83 2.034 . S
O96 Zn75 2.024 . S
O96 C76 1.249 . S
C97 O93 1.251 . S
C97 O94 1.254 . S
H98 C71 0.949 . S
H99 C73 0.950 . S
H100 C80 0.949 . S
H101 C82 0.950 . S
C102 O118 1.251 . S
C102 O120 1.254 . S
N103 C104 1.333 . S
N103 C108 1.307 . S
N103 Zn109 2.020 . S
C104 N103 1.333 . S
C104 C105 1.379 . S
C104 H122 0.952 . S
C105 C104 1.379 . S
C105 C106 1.390 . S
C105 H132 0.949 . S
C106 C105 1.390 . S
C106 C107 1.357 . S
C107 C106 1.357 . S
C107 C108 1.370 . S
C107 H133 0.950 . S
C108 N103 1.307 . S
C108 C107 1.370 . S
C108 H126 0.948 . S
Zn109 N103 2.020 . S
Zn109 O118 2.039 . S
Zn109 O124 2.034 . S
Zn109 O128 2.025 . S
Zn109 O130 2.024 . S
C110 O129 1.246 . S
C110 O130 1.249 . S
N111 C112 1.307 . S
N111 C113 1.333 . S
N111 Zn117 2.020 . S
C112 N111 1.307 . S
C112 C116 1.370 . S
C112 H123 0.948 . S
C113 N111 1.333 . S
C113 C114 1.379 . S
C113 H121 0.952 . S
C114 C113 1.379 . S
C114 C115 1.390 . S
C114 H134 0.949 . S
C115 C114 1.390 . S
C115 C116 1.357 . S
C116 C112 1.370 . S
C116 C115 1.357 . S
C116 H135 0.950 . S
Zn117 N111 2.020 . S
Zn117 O120 2.025 . S
Zn117 O125 2.024 . S
Zn117 O127 2.039 . S
Zn117 O129 2.034 . S
O118 C102 1.251 . S
O118 Zn109 2.039 . S
C119 O124 1.246 . S
C119 O125 1.249 . S
O120 C102 1.254 . S
O120 Zn117 2.025 . S
H121 C113 0.952 . S
H122 C104 0.952 . S
H123 C112 0.948 . S
O124 Zn109 2.034 . S
O124 C119 1.246 . S
O125 Zn117 2.024 . S
O125 C119 1.249 . S
H126 C108 0.948 . S
O127 Zn117 2.039 . S
O127 C131 1.251 . S
O128 Zn109 2.025 . S
O128 C131 1.254 . S
O129 C110 1.246 . S
O129 Zn117 2.034 . S
O130 Zn109 2.024 . S
O130 C110 1.249 . S
C131 O127 1.251 . S
C131 O128 1.254 . S
H132 C105 0.949 . S
H133 C107 0.950 . S
H134 C114 0.949 . S
H135 C116 0.950 . S
C136 O152 1.251 . S
C136 O154 1.254 . S
N137 C138 1.333 . S
N137 C142 1.307 . S
N137 Zn143 2.020 . S
C138 N137 1.333 . S
C138 C139 1.379 . S
C138 H156 0.952 . S
C139 C138 1.379 . S
C139 C140 1.390 . S
C139 H166 0.949 . S
C140 C139 1.390 . S
C140 C141 1.357 . S
C141 C140 1.357 . S
C141 C142 1.370 . S
C141 H167 0.950 . S
C142 N137 1.307 . S
C142 C141 1.370 . S
C142 H160 0.948 . S
Zn143 N137 2.020 . S
Zn143 O152 2.039 . S
Zn143 O158 2.034 1_554 S
Zn143 O162 2.025 . S
Zn143 O164 2.024 . S
C144 O163 1.246 . S
C144 O164 1.249 . S
N145 C146 1.307 . S
N145 C147 1.333 . S
N145 Zn151 2.020 . S
C146 N145 1.307 . S
C146 C150 1.370 . S
C146 H157 0.948 . S
C147 N145 1.333 . S
C147 C148 1.379 . S
C147 H155 0.952 . S
C148 C147 1.379 . S
C148 C149 1.390 . S
C148 H168 0.949 . S
C149 C148 1.390 . S
C149 C150 1.357 . S
C150 C146 1.370 . S
C150 C149 1.357 . S
C150 H169 0.950 . S
Zn151 N145 2.020 . S
Zn151 O154 2.025 . S
Zn151 O159 2.024 1_554 S
Zn151 O161 2.039 . S
Zn151 O163 2.034 . S
O152 C136 1.251 . S
O152 Zn143 2.039 . S
C153 O158 1.246 . S
C153 O159 1.249 . S
O154 C136 1.254 . S
O154 Zn151 2.025 . S
H155 C147 0.952 . S
H156 C138 0.952 . S
H157 C146 0.948 . S
O158 Zn143 2.034 1_556 S
O158 C153 1.246 . S
O159 Zn151 2.024 1_556 S
O159 C153 1.249 . S
H160 C142 0.948 . S
O161 Zn151 2.039 . S
O161 C165 1.251 . S
O162 Zn143 2.025 . S
O162 C165 1.254 . S
O163 C144 1.246 . S
O163 Zn151 2.034 . S
O164 Zn143 2.024 . S
O164 C144 1.249 . S
C165 O161 1.251 . S
C165 O162 1.254 . S
H166 C139 0.949 . S
H167 C141 0.950 . S
H168 C148 0.949 . S
H169 C150 0.950 . S
C170 O186 1.251 . S
C170 O188 1.254 . S
N171 C172 1.333 . S
N171 C176 1.307 . S
N171 Zn177 2.020 . S
C172 N171 1.333 . S
C172 C173 1.379 . S
C172 H190 0.952 . S
C173 C172 1.379 . S
C173 C174 1.390 . S
C173 H200 0.949 . S
C174 C173 1.390 . S
C174 C175 1.357 . S
C175 C174 1.357 . S
C175 C176 1.370 . S
C175 H201 0.950 . S
C176 N171 1.307 . S
C176 C175 1.370 . S
C176 H194 0.948 . S
Zn177 N171 2.020 . S
Zn177 O186 2.039 . S
Zn177 O192 2.034 . S
Zn177 O196 2.025 . S
Zn177 O198 2.024 1_554 S
C178 O197 1.246 . S
C178 O198 1.249 . S
N179 C180 1.307 . S
N179 C181 1.333 . S
N179 Zn185 2.020 . S
C180 N179 1.307 . S
C180 C184 1.370 . S
C180 H191 0.948 . S
C181 N179 1.333 . S
C181 C182 1.379 . S
C181 H189 0.952 . S
C182 C181 1.379 . S
C182 C183 1.390 . S
C182 H202 0.949 . S
C183 C182 1.390 . S
C183 C184 1.357 . S
C184 C180 1.370 . S
C184 C183 1.357 . S
C184 H203 0.950 . S
Zn185 N179 2.020 . S
Zn185 O188 2.025 . S
Zn185 O193 2.024 . S
Zn185 O195 2.039 . S
Zn185 O197 2.034 1_554 S
O186 C170 1.251 . S
O186 Zn177 2.039 . S
C187 O192 1.246 . S
C187 O193 1.249 . S
O188 C170 1.254 . S
O188 Zn185 2.025 . S
H189 C181 0.952 . S
H190 C172 0.952 . S
H191 C180 0.948 . S
O192 Zn177 2.034 . S
O192 C187 1.246 . S
O193 Zn185 2.024 . S
O193 C187 1.249 . S
H194 C176 0.948 . S
O195 Zn185 2.039 . S
O195 C199 1.251 . S
O196 Zn177 2.025 . S
O196 C199 1.254 . S
O197 C178 1.246 . S
O197 Zn185 2.034 1_556 S
O198 Zn177 2.024 1_556 S
O198 C178 1.249 . S
C199 O195 1.251 . S
C199 O196 1.254 . S
H200 C173 0.949 . S
H201 C175 0.950 . S
H202 C182 0.949 . S
H203 C184 0.950 . S
C204 O220 1.251 . S
C204 O222 1.254 . S
N205 C206 1.333 . S
N205 C210 1.307 . S
N205 Zn211 2.020 . S
C206 N205 1.333 . S
C206 C207 1.379 . S
C206 H224 0.952 . S
C207 C206 1.379 . S
C207 C208 1.390 . S
C207 H234 0.949 . S
C208 C207 1.390 . S
C208 C209 1.357 . S
C209 C208 1.357 . S
C209 C210 1.370 . S
C209 H235 0.950 . S
C210 N205 1.307 . S
C210 C209 1.370 . S
C210 H228 0.948 . S
Zn211 N205 2.020 . S
Zn211 O220 2.039 . S
Zn211 O226 2.034 . S
Zn211 O230 2.025 . S
Zn211 O232 2.024 1_556 S
C212 O231 1.246 . S
C212 O232 1.249 . S
N213 C214 1.307 . S
N213 C215 1.333 . S
N213 Zn219 2.020 . S
C214 N213 1.307 . S
C214 C218 1.370 . S
C214 H225 0.948 . S
C215 N213 1.333 . S
C215 C216 1.379 . S
C215 H223 0.952 . S
C216 C215 1.379 . S
C216 C217 1.390 . S
C216 H236 0.949 . S
C217 C216 1.390 . S
C217 C218 1.357 . S
C218 C214 1.370 . S
C218 C217 1.357 . S
C218 H237 0.950 . S
Zn219 N213 2.020 . S
Zn219 O222 2.025 . S
Zn219 O227 2.024 . S
Zn219 O229 2.039 . S
Zn219 O231 2.034 1_556 S
O220 C204 1.251 . S
O220 Zn211 2.039 . S
C221 O226 1.246 . S
C221 O227 1.249 . S
O222 C204 1.254 . S
O222 Zn219 2.025 . S
H223 C215 0.952 . S
H224 C206 0.952 . S
H225 C214 0.948 . S
O226 Zn211 2.034 . S
O226 C221 1.246 . S
O227 Zn219 2.024 . S
O227 C221 1.249 . S
H228 C210 0.948 . S
O229 Zn219 2.039 . S
O229 C233 1.251 . S
O230 Zn211 2.025 . S
O230 C233 1.254 . S
O231 C212 1.246 . S
O231 Zn219 2.034 1_554 S
O232 Zn211 2.024 1_554 S
O232 C212 1.249 . S
C233 O229 1.251 . S
C233 O230 1.254 . S
H234 C207 0.949 . S
H235 C209 0.950 . S
H236 C216 0.949 . S
H237 C218 0.950 . S
C238 O254 1.251 . S
C238 O256 1.254 . S
N239 C240 1.333 . S
N239 C244 1.307 . S
N239 Zn245 2.020 . S
C240 N239 1.333 . S
C240 C241 1.379 . S
C240 H258 0.952 . S
C241 C240 1.379 . S
C241 C242 1.390 . S
C241 H268 0.949 . S
C242 C241 1.390 . S
C242 C243 1.357 . S
C243 C242 1.357 . S
C243 C244 1.370 . S
C243 H269 0.950 . S
C244 N239 1.307 . S
C244 C243 1.370 . S
C244 H262 0.948 . S
Zn245 N239 2.020 . S
Zn245 O254 2.039 . S
Zn245 O260 2.034 . S
Zn245 O264 2.025 . S
Zn245 O266 2.024 1_556 S
C246 O265 1.246 . S
C246 O266 1.249 . S
N247 C248 1.307 . S
N247 C249 1.333 . S
N247 Zn253 2.020 . S
C248 N247 1.307 . S
C248 C252 1.370 . S
C248 H259 0.948 . S
C249 N247 1.333 . S
C249 C250 1.379 . S
C249 H257 0.952 . S
C250 C249 1.379 . S
C250 C251 1.390 . S
C250 H270 0.949 . S
C251 C250 1.390 . S
C251 C252 1.357 . S
C252 C248 1.370 . S
C252 C251 1.357 . S
C252 H271 0.950 . S
Zn253 N247 2.020 . S
Zn253 O256 2.025 . S
Zn253 O261 2.024 . S
Zn253 O263 2.039 . S
Zn253 O265 2.034 1_556 S
O254 C238 1.251 . S
O254 Zn245 2.039 . S
C255 O260 1.246 . S
C255 O261 1.249 . S
O256 C238 1.254 . S
O256 Zn253 2.025 . S
H257 C249 0.952 . S
H258 C240 0.952 . S
H259 C248 0.948 . S
O260 Zn245 2.034 . S
O260 C255 1.246 . S
O261 Zn253 2.024 . S
O261 C255 1.249 . S
H262 C244 0.948 . S
O263 Zn253 2.039 . S
O263 C267 1.251 . S
O264 Zn245 2.025 . S
O264 C267 1.254 . S
O265 C246 1.246 . S
O265 Zn253 2.034 1_554 S
O266 Zn245 2.024 1_554 S
O266 C246 1.249 . S
C267 O263 1.251 . S
C267 O264 1.254 . S
H268 C241 0.949 . S
H269 C243 0.950 . S
H270 C250 0.949 . S
H271 C252 0.950 . S
H272 C280 0.950 . S
H273 C285 0.950 . S
H274 C282 0.950 . S
H275 C284 0.950 . S
H276 C286 0.950 . S
H277 C288 0.950 . S
H278 C290 0.950 . S
H279 C291 0.950 . S
C280 H272 0.950 . S
C280 C281 1.386 . S
C280 C282 1.391 . S
C281 C280 1.386 . S
C281 C285 1.393 . S
C282 H274 0.950 . S
C282 C280 1.391 . S
C282 C283 1.400 . S
C283 C282 1.400 . S
C283 C284 1.398 . S
C283 C289 1.491 . S
C284 H275 0.950 . S
C284 C283 1.398 . S
C284 C285 1.391 . S
C285 H273 0.950 . S
C285 C281 1.393 . S
C285 C284 1.391 . S
C286 H276 0.950 . S
C286 C287 1.386 . S
C286 C288 1.391 . S
C287 C286 1.386 . S
C287 C291 1.393 . S
C288 H277 0.950 . S
C288 C286 1.391 . S
C288 C289 1.400 . S
C289 C283 1.491 . S
C289 C288 1.400 . S
C289 C290 1.398 . S
C290 H278 0.950 . S
C290 C289 1.398 . S
C290 C291 1.391 . S
C291 H279 0.950 . S
C291 C287 1.393 . S
C291 C290 1.391 . S
H292 C300 0.950 . S
H293 C305 0.950 . S
H294 C302 0.950 . S
H295 C304 0.950 . S
H296 C306 0.950 . S
H297 C308 0.950 . S
H298 C310 0.950 . S
H299 C311 0.950 . S
C300 H292 0.950 . S
C300 C301 1.386 . S
C300 C302 1.391 . S
C301 C300 1.386 . S
C301 C305 1.393 . S
C302 H294 0.950 . S
C302 C300 1.391 . S
C302 C303 1.400 . S
C303 C302 1.400 . S
C303 C304 1.398 . S
C303 C309 1.491 . S
C304 H295 0.950 . S
C304 C303 1.398 . S
C304 C305 1.391 . S
C305 H293 0.950 . S
C305 C301 1.393 . S
C305 C304 1.391 . S
C306 H296 0.950 . S
C306 C307 1.386 . S
C306 C308 1.391 . S
C307 C306 1.386 . S
C307 C311 1.393 . S
C308 H297 0.950 . S
C308 C306 1.391 . S
C308 C309 1.400 . S
C309 C303 1.491 . S
C309 C308 1.400 . S
C309 C310 1.398 . S
C310 H298 0.950 . S
C310 C309 1.398 . S
C310 C311 1.391 . S
C311 H299 0.950 . S
C311 C307 1.393 . S
C311 C310 1.391 . S
H312 C320 0.950 . S
H313 C325 0.950 . S
H314 C322 0.950 . S
H315 C324 0.950 . S
H316 C326 0.950 . S
H317 C328 0.950 . S
H318 C330 0.950 . S
H319 C331 0.950 . S
C320 H312 0.950 . S
C320 C321 1.386 . S
C320 C322 1.391 . S
C321 C320 1.386 . S
C321 C325 1.393 . S
C322 H314 0.950 . S
C322 C320 1.391 . S
C322 C323 1.400 . S
C323 C322 1.400 . S
C323 C324 1.398 . S
C323 C329 1.491 . S
C324 H315 0.950 . S
C324 C323 1.398 . S
C324 C325 1.391 . S
C325 H313 0.950 . S
C325 C321 1.393 . S
C325 C324 1.391 . S
C326 H316 0.950 . S
C326 C327 1.386 . S
C326 C328 1.391 . S
C327 C326 1.386 . S
C327 C331 1.393 . S
C328 H317 0.950 . S
C328 C326 1.391 . S
C328 C329 1.400 . S
C329 C323 1.491 . S
C329 C328 1.400 . S
C329 C330 1.398 . S
C330 H318 0.950 . S
C330 C329 1.398 . S
C330 C331 1.391 . S
C331 H319 0.950 . S
C331 C327 1.393 . S
C331 C330 1.391 . S
H332 C340 0.950 . S
H333 C345 0.950 . S
H334 C342 0.950 . S
H335 C344 0.950 . S
H336 C346 0.950 . S
H337 C348 0.950 . S
H338 C350 0.950 . S
H339 C351 0.950 . S
C340 H332 0.950 . S
C340 C341 1.386 . S
C340 C342 1.391 . S
C341 C340 1.386 . S
C341 C345 1.393 . S
C342 H334 0.950 . S
C342 C340 1.391 . S
C342 C343 1.400 . S
C343 C342 1.400 . S
C343 C344 1.398 . S
C343 C349 1.491 . S
C344 H335 0.950 . S
C344 C343 1.398 . S
C344 C345 1.391 . S
C345 H333 0.950 . S
C345 C341 1.393 . S
C345 C344 1.391 . S
C346 H336 0.950 . S
C346 C347 1.386 . S
C346 C348 1.391 . S
C347 C346 1.386 . S
C347 C351 1.393 . S
C348 H337 0.950 . S
C348 C346 1.391 . S
C348 C349 1.400 . S
C349 C343 1.491 . S
C349 C348 1.400 . S
C349 C350 1.398 . S
C350 H338 0.950 . S
C350 C349 1.398 . S
C350 C351 1.391 . S
C351 H339 0.950 . S
C351 C347 1.393 . S
C351 C350 1.391 . S
H352 C360 0.950 . S
H353 C365 0.950 . S
H354 C362 0.950 . S
H355 C364 0.950 . S
H356 C366 0.950 . S
H357 C368 0.950 . S
H358 C370 0.950 . S
H359 C371 0.950 . S
C360 H352 0.950 . S
C360 C361 1.386 . S
C360 C362 1.391 . S
C361 C360 1.386 . S
C361 C365 1.393 . S
C362 H354 0.950 . S
C362 C360 1.391 . S
C362 C363 1.400 . S
C363 C362 1.400 . S
C363 C364 1.398 . S
C363 C369 1.491 1_565 S
C364 H355 0.950 . S
C364 C363 1.398 . S
C364 C365 1.391 . S
C365 H353 0.950 . S
C365 C361 1.393 . S
C365 C364 1.391 . S
C366 H356 0.950 . S
C366 C367 1.386 . S
C366 C368 1.391 . S
C367 C366 1.386 . S
C367 C371 1.393 . S
C368 H357 0.950 . S
C368 C366 1.391 . S
C368 C369 1.400 . S
C369 C363 1.491 1_545 S
C369 C368 1.400 . S
C369 C370 1.398 . S
C370 H358 0.950 . S
C370 C369 1.398 . S
C370 C371 1.391 . S
C371 H359 0.950 . S
C371 C367 1.393 . S
C371 C370 1.391 . S
H372 C380 0.950 . S
H373 C385 0.950 . S
H374 C382 0.950 . S
H375 C384 0.950 . S
H376 C386 0.950 . S
H377 C388 0.950 . S
H378 C390 0.950 . S
H379 C391 0.950 . S
C380 H372 0.950 . S
C380 C381 1.386 . S
C380 C382 1.391 . S
C381 C380 1.386 . S
C381 C385 1.393 . S
C382 H374 0.950 . S
C382 C380 1.391 . S
C382 C383 1.400 . S
C383 C382 1.400 . S
C383 C384 1.398 . S
C383 C389 1.491 . S
C384 H375 0.950 . S
C384 C383 1.398 . S
C384 C385 1.391 . S
C385 H373 0.950 . S
C385 C381 1.393 . S
C385 C384 1.391 . S
C386 H376 0.950 . S
C386 C387 1.386 . S
C386 C388 1.391 . S
C387 C386 1.386 . S
C387 C391 1.393 . S
C388 H377 0.950 . S
C388 C386 1.391 . S
C388 C389 1.400 . S
C389 C383 1.491 . S
C389 C388 1.400 . S
C389 C390 1.398 . S
C390 H378 0.950 . S
C390 C389 1.398 . S
C390 C391 1.391 . S
C391 H379 0.950 . S
C391 C387 1.393 . S
C391 C390 1.391 . S
H392 C400 0.950 . S
H393 C405 0.950 . S
H394 C402 0.950 . S
H395 C404 0.950 . S
H396 C406 0.950 . S
H397 C408 0.950 . S
H398 C410 0.950 . S
H399 C411 0.950 . S
C400 H392 0.950 . S
C400 C401 1.386 . S
C400 C402 1.391 . S
C401 C400 1.386 . S
C401 C405 1.393 . S
C402 H394 0.950 . S
C402 C400 1.391 . S
C402 C403 1.400 . S
C403 C402 1.400 . S
C403 C404 1.398 . S
C403 C409 1.491 1_565 S
C404 H395 0.950 . S
C404 C403 1.398 . S
C404 C405 1.391 . S
C405 H393 0.950 . S
C405 C401 1.393 . S
C405 C404 1.391 . S
C406 H396 0.950 . S
C406 C407 1.386 . S
C406 C408 1.391 . S
C407 C406 1.386 . S
C407 C411 1.393 . S
C408 H397 0.950 . S
C408 C406 1.391 . S
C408 C409 1.400 . S
C409 C403 1.491 1_545 S
C409 C408 1.400 . S
C409 C410 1.398 . S
C410 H398 0.950 . S
C410 C409 1.398 . S
C410 C411 1.391 . S
C411 H399 0.950 . S
C411 C407 1.393 . S
C411 C410 1.391 . S
H412 C420 0.950 . S
H413 C425 0.950 . S
H414 C422 0.950 . S
H415 C424 0.950 . S
H416 C426 0.950 . S
H417 C428 0.950 . S
H418 C430 0.950 . S
H419 C431 0.950 . S
C420 H412 0.950 . S
C420 C421 1.386 . S
C420 C422 1.391 . S
C421 C420 1.386 . S
C421 C425 1.393 . S
C422 H414 0.950 . S
C422 C420 1.391 . S
C422 C423 1.400 . S
C423 C422 1.400 . S
C423 C424 1.398 . S
C423 C429 1.491 . S
C424 H415 0.950 . S
C424 C423 1.398 . S
C424 C425 1.391 . S
C425 H413 0.950 . S
C425 C421 1.393 . S
C425 C424 1.391 . S
C426 H416 0.950 . S
C426 C427 1.386 . S
C426 C428 1.391 . S
C427 C426 1.386 . S
C427 C431 1.393 . S
C428 H417 0.950 . S
C428 C426 1.391 . S
C428 C429 1.400 . S
C429 C423 1.491 . S
C429 C428 1.400 . S
C429 C430 1.398 . S
C430 H418 0.950 . S
C430 C429 1.398 . S
C430 C431 1.391 . S
C431 H419 0.950 . S
C431 C427 1.393 . S
C431 C430 1.391 . S
H432 C440 0.950 . S
H433 C445 0.950 . S
H434 C442 0.950 . S
H435 C444 0.950 . S
H436 C446 0.950 . S
H437 C448 0.950 . S
H438 C450 0.950 . S
H439 C451 0.950 . S
C440 H432 0.950 . S
C440 C441 1.386 1_556 S
C440 C442 1.391 . S
C441 C440 1.386 1_554 S
C441 C445 1.393 . S
C442 H434 0.950 . S
C442 C440 1.391 . S
C442 C443 1.400 1_556 S
C443 C442 1.400 1_554 S
C443 C444 1.398 . S
C443 C449 1.491 1_554 S
C444 H435 0.950 . S
C444 C443 1.398 . S
C444 C445 1.391 . S
C445 H433 0.950 . S
C445 C441 1.393 . S
C445 C444 1.391 . S
C446 H436 0.950 . S
C446 C447 1.386 1_554 S
C446 C448 1.391 . S
C447 C446 1.386 1_556 S
C447 C451 1.393 . S
C448 H437 0.950 . S
C448 C446 1.391 . S
C448 C449 1.400 1_554 S
C449 C443 1.491 1_556 S
C449 C448 1.400 1_556 S
C449 C450 1.398 . S
C450 H438 0.950 . S
C450 C449 1.398 . S
C450 C451 1.391 . S
C451 H439 0.950 . S
C451 C447 1.393 . S
C451 C450 1.391 . S
H452 C460 0.950 . S
H453 C465 0.950 . S
H454 C462 0.950 . S
H455 C464 0.950 . S
H456 C466 0.950 . S
H457 C468 0.950 . S
H458 C470 0.950 . S
H459 C471 0.950 . S
C460 H452 0.950 . S
C460 C461 1.386 1_556 S
C460 C462 1.391 . S
C461 C460 1.386 1_554 S
C461 C465 1.393 . S
C462 H454 0.950 . S
C462 C460 1.391 . S
C462 C463 1.400 1_556 S
C463 C462 1.400 1_554 S
C463 C464 1.398 . S
C463 C469 1.491 1_564 S
C464 H455 0.950 . S
C464 C463 1.398 . S
C464 C465 1.391 . S
C465 H453 0.950 . S
C465 C461 1.393 . S
C465 C464 1.391 . S
C466 H456 0.950 . S
C466 C467 1.386 1_554 S
C466 C468 1.391 . S
C467 C466 1.386 1_556 S
C467 C471 1.393 . S
C468 H457 0.950 . S
C468 C466 1.391 . S
C468 C469 1.400 1_554 S
C469 C463 1.491 1_546 S
C469 C468 1.400 1_556 S
C469 C470 1.398 . S
C470 H458 0.950 . S
C470 C469 1.398 . S
C470 C471 1.391 . S
C471 H459 0.950 . S
C471 C467 1.393 . S
C471 C470 1.391 . S
H472 C480 0.950 . S
H473 C485 0.950 . S
H474 C482 0.950 . S
H475 C484 0.950 . S
H476 C486 0.950 . S
H477 C488 0.950 . S
H478 C490 0.950 . S
H479 C491 0.950 . S
C480 H472 0.950 . S
C480 C481 1.386 1_554 S
C480 C482 1.391 . S
C481 C480 1.386 1_556 S
C481 C485 1.393 . S
C482 H474 0.950 . S
C482 C480 1.391 . S
C482 C483 1.400 1_554 S
C483 C482 1.400 1_556 S
C483 C484 1.398 . S
C483 C489 1.491 1_556 S
C484 H475 0.950 . S
C484 C483 1.398 . S
C484 C485 1.391 . S
C485 H473 0.950 . S
C485 C481 1.393 . S
C485 C484 1.391 . S
C486 H476 0.950 . S
C486 C487 1.386 1_556 S
C486 C488 1.391 . S
C487 C486 1.386 1_554 S
C487 C491 1.393 . S
C488 H477 0.950 . S
C488 C486 1.391 . S
C488 C489 1.400 1_556 S
C489 C483 1.491 1_554 S
C489 C488 1.400 1_554 S
C489 C490 1.398 . S
C490 H478 0.950 . S
C490 C489 1.398 . S
C490 C491 1.391 . S
C491 H479 0.950 . S
C491 C487 1.393 . S
C491 C490 1.391 . S
H492 C500 0.950 . S
H493 C505 0.950 . S
H494 C502 0.950 . S
H495 C504 0.950 . S
H496 C506 0.950 . S
H497 C508 0.950 1_556 S
H498 C510 0.950 . S
H499 C511 0.950 . S
C500 H492 0.950 . S
C500 C501 1.386 . S
C500 C502 1.391 1_556 S
C501 C500 1.386 . S
C501 C505 1.393 . S
C502 H494 0.950 . S
C502 C500 1.391 1_554 S
C502 C503 1.400 1_554 S
C503 C502 1.400 1_556 S
C503 C504 1.398 . S
C503 C509 1.491 1_546 S
C504 H495 0.950 . S
C504 C503 1.398 . S
C504 C505 1.391 . S
C505 H493 0.950 . S
C505 C501 1.393 . S
C505 C504 1.391 . S
C506 H496 0.950 . S
C506 C507 1.386 . S
C506 C508 1.391 . S
C507 C506 1.386 . S
C507 C511 1.393 . S
C508 H497 0.950 1_554 S
C508 C506 1.391 . S
C508 C509 1.400 . S
C509 C503 1.491 1_564 S
C509 C508 1.400 . S
C509 C510 1.398 . S
C510 H498 0.950 . S
C510 C509 1.398 . S
C510 C511 1.391 . S
C511 H499 0.950 . S
C511 C507 1.393 . S
C511 C510 1.391 . S
H512 C520 0.950 . S
H513 C525 0.950 . S
H514 C522 0.950 . S
H515 C524 0.950 . S
H516 C526 0.950 . S
H517 C528 0.950 . S
H518 C530 0.950 1_554 S
H519 C531 0.950 . S
C520 H512 0.950 . S
C520 C521 1.386 . S
C520 C522 1.391 . S
C521 C520 1.386 . S
C521 C525 1.393 . S
C522 H514 0.950 . S
C522 C520 1.391 . S
C522 C523 1.400 . S
C523 C522 1.400 . S
C523 C524 1.398 . S
C523 C529 1.491 . S
C524 H515 0.950 . S
C524 C523 1.398 . S
C524 C525 1.391 . S
C525 H513 0.950 . S
C525 C521 1.393 . S
C525 C524 1.391 . S
C526 H516 0.950 . S
C526 C527 1.386 . S
C526 C528 1.391 . S
C527 C526 1.386 . S
C527 C531 1.393 . S
C528 H517 0.950 . S
C528 C526 1.391 . S
C528 C529 1.400 1_556 S
C529 C523 1.491 . S
C529 C528 1.400 1_554 S
C529 C530 1.398 1_554 S
C530 H518 0.950 1_556 S
C530 C529 1.398 1_556 S
C530 C531 1.391 . S
C531 H519 0.950 . S
C531 C527 1.393 . S
C531 C530 1.391 . S
H532 C540 0.950 . S
H533 C545 0.950 . S
H534 C542 0.950 . S
H535 C544 0.950 . S
H536 C546 0.950 . S
H537 C548 0.950 . S
H538 C550 0.950 1_554 S
H539 C551 0.950 . S
C540 H532 0.950 . S
C540 C541 1.386 . S
C540 C542 1.391 . S
C541 C540 1.386 . S
C541 C545 1.393 . S
C542 H534 0.950 . S
C542 C540 1.391 . S
C542 C543 1.400 . S
C543 C542 1.400 . S
C543 C544 1.398 . S
C543 C549 1.491 . S
C544 H535 0.950 . S
C544 C543 1.398 . S
C544 C545 1.391 . S
C545 H533 0.950 . S
C545 C541 1.393 . S
C545 C544 1.391 . S
C546 H536 0.950 . S
C546 C547 1.386 . S
C546 C548 1.391 . S
C547 C546 1.386 . S
C547 C551 1.393 . S
C548 H537 0.950 . S
C548 C546 1.391 . S
C548 C549 1.400 1_556 S
C549 C543 1.491 . S
C549 C548 1.400 1_554 S
C549 C550 1.398 1_554 S
C550 H538 0.950 1_556 S
C550 C549 1.398 1_556 S
C550 C551 1.391 . S
C551 H539 0.950 . S
C551 C547 1.393 . S
C551 C550 1.391 . S
H552 C560 0.950 . S
H553 C565 0.950 . S
H554 C562 0.950 . S
H555 C564 0.950 . S
H556 C566 0.950 . S
H557 C568 0.950 . S
H558 C570 0.950 . S
H559 C571 0.950 . S
C560 H552 0.950 . S
C560 C561 1.386 . S
C560 C562 1.391 . S
C561 C560 1.386 . S
C561 C565 1.393 . S
C562 H554 0.950 . S
C562 C560 1.391 . S
C562 C563 1.400 1_554 S
C563 C562 1.400 1_556 S
C563 C564 1.398 1_556 S
C563 C569 1.491 . S
C564 H555 0.950 . S
C564 C563 1.398 1_554 S
C564 C565 1.391 . S
C565 H553 0.950 . S
C565 C561 1.393 . S
C565 C564 1.391 . S
C566 H556 0.950 . S
C566 C567 1.386 . S
C566 C568 1.391 . S
C567 C566 1.386 . S
C567 C571 1.393 . S
C568 H557 0.950 . S
C568 C566 1.391 . S
C568 C569 1.400 . S
C569 C563 1.491 . S
C569 C568 1.400 . S
C569 C570 1.398 . S
C570 H558 0.950 . S
C570 C569 1.398 . S
C570 C571 1.391 . S
C571 H559 0.950 . S
C571 C567 1.393 . S
C571 C570 1.391 . S
H572 C580 0.950 . S
H573 C585 0.950 . S
H574 C582 0.950 . S
H575 C584 0.950 . S
H576 C586 0.950 . S
H577 C588 0.950 . S
H578 C590 0.950 . S
H579 C591 0.950 . S
C580 H572 0.950 . S
C580 C581 1.386 . S
C580 C582 1.391 . S
C581 C580 1.386 . S
C581 C585 1.393 . S
C582 H574 0.950 . S
C582 C580 1.391 . S
C582 C583 1.400 . S
C583 C582 1.400 . S
C583 C584 1.398 . S
C583 C589 1.491 . S
C584 H575 0.950 . S
C584 C583 1.398 . S
C584 C585 1.391 . S
C585 H573 0.950 . S
C585 C581 1.393 . S
C585 C584 1.391 . S
C586 H576 0.950 . S
C586 C587 1.386 . S
C586 C588 1.391 . S
C587 C586 1.386 . S
C587 C591 1.393 . S
C588 H577 0.950 . S
C588 C586 1.391 . S
C588 C589 1.400 1_554 S
C589 C583 1.491 . S
C589 C588 1.400 1_556 S
C589 C590 1.398 1_556 S
C590 H578 0.950 . S
C590 C589 1.398 1_554 S
C590 C591 1.391 . S
C591 H579 0.950 . S
C591 C587 1.393 . S
C591 C590 1.391 . S
H592 C600 0.950 . S
H593 C605 0.950 . S
H594 C602 0.950 . S
H595 C604 0.950 . S
H596 C606 0.950 . S
H597 C608 0.950 . S
H598 C610 0.950 . S
H599 C611 0.950 . S
C600 H592 0.950 . S
C600 C601 1.386 . S
C600 C602 1.391 . S
C601 C600 1.386 . S
C601 C605 1.393 . S
C602 H594 0.950 . S
C602 C600 1.391 . S
C602 C603 1.400 . S
C603 C602 1.400 . S
C603 C604 1.398 . S
C603 C609 1.491 . S
C604 H595 0.950 . S
C604 C603 1.398 . S
C604 C605 1.391 . S
C605 H593 0.950 . S
C605 C601 1.393 . S
C605 C604 1.391 . S
C606 H596 0.950 . S
C606 C607 1.386 . S
C606 C608 1.391 . S
C607 C606 1.386 . S
C607 C611 1.393 . S
C608 H597 0.950 . S
C608 C606 1.391 . S
C608 C609 1.400 . S
C609 C603 1.491 . S
C609 C608 1.400 . S
C609 C610 1.398 . S
C610 H598 0.950 . S
C610 C609 1.398 . S
C610 C611 1.391 . S
C611 H599 0.950 . S
C611 C607 1.393 . S
C611 C610 1.391 . S
H612 C620 0.950 . S
H613 C625 0.950 . S
H614 C622 0.950 . S
H615 C624 0.950 . S
H616 C626 0.950 . S
H617 C628 0.950 . S
H618 C630 0.950 . S
H619 C631 0.950 . S
C620 H612 0.950 . S
C620 C621 1.386 . S
C620 C622 1.391 . S
C621 C620 1.386 . S
C621 C625 1.393 . S
C622 H614 0.950 . S
C622 C620 1.391 . S
C622 C623 1.400 . S
C623 C622 1.400 . S
C623 C624 1.398 . S
C623 C629 1.491 . S
C624 H615 0.950 . S
C624 C623 1.398 . S
C624 C625 1.391 . S
C625 H613 0.950 . S
C625 C621 1.393 . S
C625 C624 1.391 . S
C626 H616 0.950 . S
C626 C627 1.386 . S
C626 C628 1.391 . S
C627 C626 1.386 . S
C627 C631 1.393 . S
C628 H617 0.950 . S
C628 C626 1.391 . S
C628 C629 1.400 . S
C629 C623 1.491 . S
C629 C628 1.400 . S
C629 C630 1.398 . S
C630 H618 0.950 . S
C630 C629 1.398 . S
C630 C631 1.391 . S
C631 H619 0.950 . S
C631 C627 1.393 . S
C631 C630 1.391 . S
H632 C640 0.950 . S
H633 C645 0.950 . S
H634 C642 0.950 . S
H635 C644 0.950 . S
H636 C646 0.950 . S
H637 C648 0.950 . S
H638 C650 0.950 . S
H639 C651 0.950 . S
C640 H632 0.950 . S
C640 C641 1.386 . S
C640 C642 1.391 . S
C641 C640 1.386 . S
C641 C645 1.393 . S
C642 H634 0.950 . S
C642 C640 1.391 . S
C642 C643 1.400 . S
C643 C642 1.400 . S
C643 C644 1.398 . S
C643 C649 1.491 . S
C644 H635 0.950 . S
C644 C643 1.398 . S
C644 C645 1.391 . S
C645 H633 0.950 . S
C645 C641 1.393 . S
C645 C644 1.391 . S
C646 H636 0.950 . S
C646 C647 1.386 . S
C646 C648 1.391 . S
C647 C646 1.386 . S
C647 C651 1.393 . S
C648 H637 0.950 . S
C648 C646 1.391 . S
C648 C649 1.400 . S
C649 C643 1.491 . S
C649 C648 1.400 . S
C649 C650 1.398 . S
C650 H638 0.950 . S
C650 C649 1.398 . S
C650 C651 1.391 . S
C651 H639 0.950 . S
C651 C647 1.393 . S
C651 C650 1.391 . S
H652 C660 0.950 . S
H653 C665 0.950 . S
H654 C662 0.950 . S
H655 C664 0.950 . S
H656 C666 0.950 . S
H657 C668 0.950 . S
H658 C670 0.950 . S
H659 C671 0.950 . S
C660 H652 0.950 . S
C660 C661 1.386 . S
C660 C662 1.391 . S
C661 C660 1.386 . S
C661 C665 1.393 . S
C662 H654 0.950 . S
C662 C660 1.391 . S
C662 C663 1.400 . S
C663 C662 1.400 . S
C663 C664 1.398 . S
C663 C669 1.491 . S
C664 H655 0.950 . S
C664 C663 1.398 . S
C664 C665 1.391 . S
C665 H653 0.950 . S
C665 C661 1.393 . S
C665 C664 1.391 . S
C666 H656 0.950 . S
C666 C667 1.386 . S
C666 C668 1.391 . S
C667 C666 1.386 . S
C667 C671 1.393 . S
C668 H657 0.950 . S
C668 C666 1.391 . S
C668 C669 1.400 . S
C669 C663 1.491 . S
C669 C668 1.400 . S
C669 C670 1.398 . S
C670 H658 0.950 . S
C670 C669 1.398 . S
C670 C671 1.391 . S
C671 H659 0.950 . S
C671 C667 1.393 . S
C671 C670 1.391 . S
H672 C680 0.950 . S
H673 C685 0.950 . S
H674 C682 0.950 . S
H675 C684 0.950 . S
H676 C686 0.950 . S
H677 C688 0.950 . S
H678 C690 0.950 . S
H679 C691 0.950 . S
C680 H672 0.950 . S
C680 C681 1.386 . S
C680 C682 1.391 . S
C681 C680 1.386 . S
C681 C685 1.393 . S
C682 H674 0.950 . S
C682 C680 1.391 . S
C682 C683 1.400 . S
C683 C682 1.400 . S
C683 C684 1.398 . S
C683 C689 1.491 1_455 S
C684 H675 0.950 . S
C684 C683 1.398 . S
C684 C685 1.391 . S
C685 H673 0.950 . S
C685 C681 1.393 . S
C685 C684 1.391 . S
C686 H676 0.950 . S
C686 C687 1.386 . S
C686 C688 1.391 . S
C687 C686 1.386 . S
C687 C691 1.393 . S
C688 H677 0.950 . S
C688 C686 1.391 . S
C688 C689 1.400 . S
C689 C683 1.491 1_655 S
C689 C688 1.400 . S
C689 C690 1.398 . S
C690 H678 0.950 . S
C690 C689 1.398 . S
C690 C691 1.391 . S
C691 H679 0.950 . S
C691 C687 1.393 . S
C691 C690 1.391 . S
H692 C700 0.950 . S
H693 C705 0.950 . S
H694 C702 0.950 . S
H695 C704 0.950 . S
H696 C706 0.950 . S
H697 C708 0.950 . S
H698 C710 0.950 . S
H699 C711 0.950 . S
C700 H692 0.950 . S
C700 C701 1.386 . S
C700 C702 1.391 . S
C701 C700 1.386 . S
C701 C705 1.393 . S
C702 H694 0.950 . S
C702 C700 1.391 . S
C702 C703 1.400 . S
C703 C702 1.400 . S
C703 C704 1.398 . S
C703 C709 1.491 1_655 S
C704 H695 0.950 . S
C704 C703 1.398 . S
C704 C705 1.391 . S
C705 H693 0.950 . S
C705 C701 1.393 . S
C705 C704 1.391 . S
C706 H696 0.950 . S
C706 C707 1.386 . S
C706 C708 1.391 . S
C707 C706 1.386 . S
C707 C711 1.393 . S
C708 H697 0.950 . S
C708 C706 1.391 . S
C708 C709 1.400 . S
C709 C703 1.491 1_455 S
C709 C708 1.400 . S
C709 C710 1.398 . S
C710 H698 0.950 . S
C710 C709 1.398 . S
C710 C711 1.391 . S
C711 H699 0.950 . S
C711 C707 1.393 . S
C711 C710 1.391 . S
H712 C720 0.950 1_556 S
H713 C725 0.950 . S
H714 C722 0.950 1_556 S
H715 C724 0.950 . S
H716 C726 0.950 . S
H717 C728 0.950 . S
H718 C730 0.950 1_556 S
H719 C731 0.950 1_556 S
C720 H712 0.950 1_554 S
C720 C721 1.386 . S
C720 C722 1.391 . S
C721 C720 1.386 . S
C721 C725 1.393 . S
C722 H714 0.950 1_554 S
C722 C720 1.391 . S
C722 C723 1.400 . S
C723 C722 1.400 . S
C723 C724 1.398 . S
C723 C729 1.491 . S
C724 H715 0.950 . S
C724 C723 1.398 . S
C724 C725 1.391 . S
C725 H713 0.950 . S
C725 C721 1.393 . S
C725 C724 1.391 . S
C726 H716 0.950 . S
C726 C727 1.386 . S
C726 C728 1.391 . S
C727 C726 1.386 . S
C727 C731 1.393 . S
C728 H717 0.950 . S
C728 C726 1.391 . S
C728 C729 1.400 . S
C729 C723 1.491 . S
C729 C728 1.400 . S
C729 C730 1.398 . S
C730 H718 0.950 1_554 S
C730 C729 1.398 . S
C730 C731 1.391 . S
C731 H719 0.950 1_554 S
C731 C727 1.393 . S
C731 C730 1.391 . S
H732 C740 0.950 . S
H733 C745 0.950 . S
H734 C742 0.950 . S
H735 C744 0.950 . S
H736 C746 0.950 . S
H737 C748 0.950 . S
H738 C750 0.950 . S
H739 C751 0.950 . S
C740 H732 0.950 . S
C740 C741 1.386 . S
C740 C742 1.391 . S
C741 C740 1.386 . S
C741 C745 1.393 . S
C742 H734 0.950 . S
C742 C740 1.391 . S
C742 C743 1.400 . S
C743 C742 1.400 . S
C743 C744 1.398 . S
C743 C749 1.491 . S
C744 H735 0.950 . S
C744 C743 1.398 . S
C744 C745 1.391 . S
C745 H733 0.950 . S
C745 C741 1.393 . S
C745 C744 1.391 . S
C746 H736 0.950 . S
C746 C747 1.386 . S
C746 C748 1.391 . S
C747 C746 1.386 . S
C747 C751 1.393 . S
C748 H737 0.950 . S
C748 C746 1.391 . S
C748 C749 1.400 . S
C749 C743 1.491 . S
C749 C748 1.400 . S
C749 C750 1.398 . S
C750 H738 0.950 . S
C750 C749 1.398 . S
C750 C751 1.391 . S
C751 H739 0.950 . S
C751 C747 1.393 . S
C751 C750 1.391 . S
C281 C0 1.707 . S
C287 C267 1.707 . S
C301 C233 1.709 . S
C307 C63 1.708 . S
C321 C199 1.704 . S
C327 C97 1.707 . S
C341 C136 1.707 . S
C347 C131 1.707 . S
C361 C72 1.678 . S
C367 C4 1.675 . S
C381 C38 1.589 . S
C387 C106 1.595 . S
C401 C115 1.574 . S
C407 C47 1.573 . S
C421 C81 1.470 . S
C427 C13 1.473 . S
C441 C140 1.679 . S
C447 C208 1.682 . S
C461 C174 1.579 . S
C467 C242 1.589 . S
C481 C251 1.576 . S
C487 C183 1.577 . S
C501 C217 1.469 . S
C507 C149 1.471 . S
C521 C17 1.175 . S
C527 C8 1.175 . S
C541 C42 1.179 . S
C547 C51 1.179 . S
C561 C85 1.176 . S
C567 C76 1.176 . S
C581 C110 1.179 . S
C587 C119 1.179 . S
C601 C144 1.175 . S
C607 C153 1.175 . S
C621 C178 1.179 . S
C627 C187 1.179 . S
C641 C212 1.179 . S
C647 C221 1.179 . S
C661 C246 1.177 . S
C667 C255 1.177 . S
C681 C29 1.606 . S
C687 C34 1.599 . S
C701 C102 1.597 . S
C707 C68 1.605 . S
C721 C165 1.606 . S
C727 C170 1.600 . S
C741 C238 1.605 . S
C747 C204 1.597 . S
