# Generated by pormake.
# Topology wip, (6)-cn, num edge types: 1
# Building blocks:
#     Node 0, Type 0, BuildingBlock: GEDQOX_clean_sbu_0, # of connection points: 6
#     Node 1, Type 0, BuildingBlock: GEDQOX_clean_sbu_0, # of connection points: 6
#     Node 2, Type 0, BuildingBlock: GEDQOX_clean_sbu_0, # of connection points: 6
#     Node 3, Type 0, BuildingBlock: GEDQOX_clean_sbu_0, # of connection points: 6
#     Node 4, Type 0, BuildingBlock: GEDQOX_clean_sbu_0, # of connection points: 6
#     Node 5, Type 0, BuildingBlock: GEDQOX_clean_sbu_0, # of connection points: 6
#     Node 6, Type 0, BuildingBlock: GEDQOX_clean_sbu_0, # of connection points: 6
#     Node 7, Type 0, BuildingBlock: GEDQOX_clean_sbu_0, # of connection points: 6
#     Node 8, Type 0, BuildingBlock: GEDQOX_clean_sbu_0, # of connection points: 6
#     Node 9, Type 0, BuildingBlock: GEDQOX_clean_sbu_0, # of connection points: 6
#     Node 10, Type 0, BuildingBlock: GEDQOX_clean_sbu_0, # of connection points: 6
#     Node 11, Type 0, BuildingBlock: GEDQOX_clean_sbu_0, # of connection points: 6
#     Node 12, Type 0, BuildingBlock: GEDQOX_clean_sbu_0, # of connection points: 6
#     Node 13, Type 0, BuildingBlock: GEDQOX_clean_sbu_0, # of connection points: 6
#     Node 14, Type 0, BuildingBlock: GEDQOX_clean_sbu_0, # of connection points: 6
#     Node 15, Type 0, BuildingBlock: GEDQOX_clean_sbu_0, # of connection points: 6
#     Node 16, Type 0, BuildingBlock: GEDQOX_clean_sbu_0, # of connection points: 6
#     Node 17, Type 0, BuildingBlock: GEDQOX_clean_sbu_0, # of connection points: 6
#     Node 18, Type 0, BuildingBlock: GEDQOX_clean_sbu_0, # of connection points: 6
#     Node 19, Type 0, BuildingBlock: GEDQOX_clean_sbu_0, # of connection points: 6
#     Node 20, Type 0, BuildingBlock: GEDQOX_clean_sbu_0, # of connection points: 6
#     Node 21, Type 0, BuildingBlock: GEDQOX_clean_sbu_0, # of connection points: 6
#     Node 22, Type 0, BuildingBlock: GEDQOX_clean_sbu_0, # of connection points: 6
#     Node 23, Type 0, BuildingBlock: GEDQOX_clean_sbu_0, # of connection points: 6
#     Node 24, Type 0, BuildingBlock: GEDQOX_clean_sbu_0, # of connection points: 6
#     Node 25, Type 0, BuildingBlock: GEDQOX_clean_sbu_0, # of connection points: 6
#     Node 26, Type 0, BuildingBlock: GEDQOX_clean_sbu_0, # of connection points: 6
#     Node 27, Type 0, BuildingBlock: GEDQOX_clean_sbu_0, # of connection points: 6
#     Node 28, Type 0, BuildingBlock: GEDQOX_clean_sbu_0, # of connection points: 6
#     Node 29, Type 0, BuildingBlock: GEDQOX_clean_sbu_0, # of connection points: 6
#     Node 30, Type 0, BuildingBlock: GEDQOX_clean_sbu_0, # of connection points: 6
#     Node 31, Type 0, BuildingBlock: GEDQOX_clean_sbu_0, # of connection points: 6
#     Edge 32, Type (0, 0), BuildingBlock: UVAHIK_clean_linker_0, # of connection points: 2
#     Edge 33, Type (0, 0), BuildingBlock: UVAHIK_clean_linker_0, # of connection points: 2
#     Edge 34, Type (0, 0), BuildingBlock: UVAHIK_clean_linker_0, # of connection points: 2
#     Edge 35, Type (0, 0), BuildingBlock: UVAHIK_clean_linker_0, # of connection points: 2
#     Edge 36, Type (0, 0), BuildingBlock: UVAHIK_clean_linker_0, # of connection points: 2
#     Edge 37, Type (0, 0), BuildingBlock: UVAHIK_clean_linker_0, # of connection points: 2
#     Edge 38, Type (0, 0), BuildingBlock: UVAHIK_clean_linker_0, # of connection points: 2
#     Edge 39, Type (0, 0), BuildingBlock: UVAHIK_clean_linker_0, # of connection points: 2
#     Edge 40, Type (0, 0), BuildingBlock: UVAHIK_clean_linker_0, # of connection points: 2
#     Edge 41, Type (0, 0), BuildingBlock: UVAHIK_clean_linker_0, # of connection points: 2
#     Edge 42, Type (0, 0), BuildingBlock: UVAHIK_clean_linker_0, # of connection points: 2
#     Edge 43, Type (0, 0), BuildingBlock: UVAHIK_clean_linker_0, # of connection points: 2
#     Edge 44, Type (0, 0), BuildingBlock: UVAHIK_clean_linker_0, # of connection points: 2
#     Edge 45, Type (0, 0), BuildingBlock: UVAHIK_clean_linker_0, # of connection points: 2
#     Edge 46, Type (0, 0), BuildingBlock: UVAHIK_clean_linker_0, # of connection points: 2
#     Edge 47, Type (0, 0), BuildingBlock: UVAHIK_clean_linker_0, # of connection points: 2
#     Edge 48, Type (0, 0), BuildingBlock: UVAHIK_clean_linker_0, # of connection points: 2
#     Edge 49, Type (0, 0), BuildingBlock: UVAHIK_clean_linker_0, # of connection points: 2
#     Edge 50, Type (0, 0), BuildingBlock: UVAHIK_clean_linker_0, # of connection points: 2
#     Edge 51, Type (0, 0), BuildingBlock: UVAHIK_clean_linker_0, # of connection points: 2
#     Edge 52, Type (0, 0), BuildingBlock: UVAHIK_clean_linker_0, # of connection points: 2
#     Edge 53, Type (0, 0), BuildingBlock: UVAHIK_clean_linker_0, # of connection points: 2
#     Edge 54, Type (0, 0), BuildingBlock: UVAHIK_clean_linker_0, # of connection points: 2
#     Edge 55, Type (0, 0), BuildingBlock: UVAHIK_clean_linker_0, # of connection points: 2
#     Edge 56, Type (0, 0), BuildingBlock: UVAHIK_clean_linker_0, # of connection points: 2
#     Edge 57, Type (0, 0), BuildingBlock: UVAHIK_clean_linker_0, # of connection points: 2
#     Edge 58, Type (0, 0), BuildingBlock: UVAHIK_clean_linker_0, # of connection points: 2
#     Edge 59, Type (0, 0), BuildingBlock: UVAHIK_clean_linker_0, # of connection points: 2
#     Edge 60, Type (0, 0), BuildingBlock: UVAHIK_clean_linker_0, # of connection points: 2
#     Edge 61, Type (0, 0), BuildingBlock: UVAHIK_clean_linker_0, # of connection points: 2
#     Edge 62, Type (0, 0), BuildingBlock: UVAHIK_clean_linker_0, # of connection points: 2
#     Edge 63, Type (0, 0), BuildingBlock: UVAHIK_clean_linker_0, # of connection points: 2
#     Edge 64, Type (0, 0), BuildingBlock: UVAHIK_clean_linker_0, # of connection points: 2
#     Edge 65, Type (0, 0), BuildingBlock: UVAHIK_clean_linker_0, # of connection points: 2
#     Edge 66, Type (0, 0), BuildingBlock: UVAHIK_clean_linker_0, # of connection points: 2
#     Edge 67, Type (0, 0), BuildingBlock: UVAHIK_clean_linker_0, # of connection points: 2
#     Edge 68, Type (0, 0), BuildingBlock: UVAHIK_clean_linker_0, # of connection points: 2
#     Edge 69, Type (0, 0), BuildingBlock: UVAHIK_clean_linker_0, # of connection points: 2
#     Edge 70, Type (0, 0), BuildingBlock: UVAHIK_clean_linker_0, # of connection points: 2
#     Edge 71, Type (0, 0), BuildingBlock: UVAHIK_clean_linker_0, # of connection points: 2
#     Edge 72, Type (0, 0), BuildingBlock: UVAHIK_clean_linker_0, # of connection points: 2
#     Edge 73, Type (0, 0), BuildingBlock: UVAHIK_clean_linker_0, # of connection points: 2
#     Edge 74, Type (0, 0), BuildingBlock: UVAHIK_clean_linker_0, # of connection points: 2
#     Edge 75, Type (0, 0), BuildingBlock: UVAHIK_clean_linker_0, # of connection points: 2
#     Edge 76, Type (0, 0), BuildingBlock: UVAHIK_clean_linker_0, # of connection points: 2
#     Edge 77, Type (0, 0), BuildingBlock: UVAHIK_clean_linker_0, # of connection points: 2
#     Edge 78, Type (0, 0), BuildingBlock: UVAHIK_clean_linker_0, # of connection points: 2
#     Edge 79, Type (0, 0), BuildingBlock: UVAHIK_clean_linker_0, # of connection points: 2
#     Edge 80, Type (0, 0), BuildingBlock: UVAHIK_clean_linker_0, # of connection points: 2
#     Edge 81, Type (0, 0), BuildingBlock: UVAHIK_clean_linker_0, # of connection points: 2
#     Edge 82, Type (0, 0), BuildingBlock: UVAHIK_clean_linker_0, # of connection points: 2
#     Edge 83, Type (0, 0), BuildingBlock: UVAHIK_clean_linker_0, # of connection points: 2
#     Edge 84, Type (0, 0), BuildingBlock: UVAHIK_clean_linker_0, # of connection points: 2
#     Edge 85, Type (0, 0), BuildingBlock: UVAHIK_clean_linker_0, # of connection points: 2
#     Edge 86, Type (0, 0), BuildingBlock: UVAHIK_clean_linker_0, # of connection points: 2
#     Edge 87, Type (0, 0), BuildingBlock: UVAHIK_clean_linker_0, # of connection points: 2
#     Edge 88, Type (0, 0), BuildingBlock: UVAHIK_clean_linker_0, # of connection points: 2
#     Edge 89, Type (0, 0), BuildingBlock: UVAHIK_clean_linker_0, # of connection points: 2
#     Edge 90, Type (0, 0), BuildingBlock: UVAHIK_clean_linker_0, # of connection points: 2
#     Edge 91, Type (0, 0), BuildingBlock: UVAHIK_clean_linker_0, # of connection points: 2
#     Edge 92, Type (0, 0), BuildingBlock: UVAHIK_clean_linker_0, # of connection points: 2
#     Edge 93, Type (0, 0), BuildingBlock: UVAHIK_clean_linker_0, # of connection points: 2
#     Edge 94, Type (0, 0), BuildingBlock: UVAHIK_clean_linker_0, # of connection points: 2
#     Edge 95, Type (0, 0), BuildingBlock: UVAHIK_clean_linker_0, # of connection points: 2
#     Edge 96, Type (0, 0), BuildingBlock: UVAHIK_clean_linker_0, # of connection points: 2
#     Edge 97, Type (0, 0), BuildingBlock: UVAHIK_clean_linker_0, # of connection points: 2
#     Edge 98, Type (0, 0), BuildingBlock: UVAHIK_clean_linker_0, # of connection points: 2
#     Edge 99, Type (0, 0), BuildingBlock: UVAHIK_clean_linker_0, # of connection points: 2
#     Edge 100, Type (0, 0), BuildingBlock: UVAHIK_clean_linker_0, # of connection points: 2
#     Edge 101, Type (0, 0), BuildingBlock: UVAHIK_clean_linker_0, # of connection points: 2
#     Edge 102, Type (0, 0), BuildingBlock: UVAHIK_clean_linker_0, # of connection points: 2
#     Edge 103, Type (0, 0), BuildingBlock: UVAHIK_clean_linker_0, # of connection points: 2
#     Edge 104, Type (0, 0), BuildingBlock: UVAHIK_clean_linker_0, # of connection points: 2
#     Edge 105, Type (0, 0), BuildingBlock: UVAHIK_clean_linker_0, # of connection points: 2
#     Edge 106, Type (0, 0), BuildingBlock: UVAHIK_clean_linker_0, # of connection points: 2
#     Edge 107, Type (0, 0), BuildingBlock: UVAHIK_clean_linker_0, # of connection points: 2
#     Edge 108, Type (0, 0), BuildingBlock: UVAHIK_clean_linker_0, # of connection points: 2
#     Edge 109, Type (0, 0), BuildingBlock: UVAHIK_clean_linker_0, # of connection points: 2
#     Edge 110, Type (0, 0), BuildingBlock: UVAHIK_clean_linker_0, # of connection points: 2
#     Edge 111, Type (0, 0), BuildingBlock: UVAHIK_clean_linker_0, # of connection points: 2
#     Edge 112, Type (0, 0), BuildingBlock: UVAHIK_clean_linker_0, # of connection points: 2
#     Edge 113, Type (0, 0), BuildingBlock: UVAHIK_clean_linker_0, # of connection points: 2
#     Edge 114, Type (0, 0), BuildingBlock: UVAHIK_clean_linker_0, # of connection points: 2
#     Edge 115, Type (0, 0), BuildingBlock: UVAHIK_clean_linker_0, # of connection points: 2
#     Edge 116, Type (0, 0), BuildingBlock: UVAHIK_clean_linker_0, # of connection points: 2
#     Edge 117, Type (0, 0), BuildingBlock: UVAHIK_clean_linker_0, # of connection points: 2
#     Edge 118, Type (0, 0), BuildingBlock: UVAHIK_clean_linker_0, # of connection points: 2
#     Edge 119, Type (0, 0), BuildingBlock: UVAHIK_clean_linker_0, # of connection points: 2
#     Edge 120, Type (0, 0), BuildingBlock: UVAHIK_clean_linker_0, # of connection points: 2
#     Edge 121, Type (0, 0), BuildingBlock: UVAHIK_clean_linker_0, # of connection points: 2
#     Edge 122, Type (0, 0), BuildingBlock: UVAHIK_clean_linker_0, # of connection points: 2
#     Edge 123, Type (0, 0), BuildingBlock: UVAHIK_clean_linker_0, # of connection points: 2
#     Edge 124, Type (0, 0), BuildingBlock: UVAHIK_clean_linker_0, # of connection points: 2
#     Edge 125, Type (0, 0), BuildingBlock: UVAHIK_clean_linker_0, # of connection points: 2
#     Edge 126, Type (0, 0), BuildingBlock: UVAHIK_clean_linker_0, # of connection points: 2
#     Edge 127, Type (0, 0), BuildingBlock: UVAHIK_clean_linker_0, # of connection points: 2
# Relax obj value: 0.260
# Max RMSD: 0.232
# Mean RMSD: 0.213
data_MOF--net-wip--node1-GEDQOX_clean_sbu_0--edge1-UVAHIK_clean_linker_0
_symmetry_space_group_name_H-M    P1
_symmetry_Int_Tables_number       1
_symmetry_cell_setting            triclinic
loop_
_symmetry_equiv_pos_as_xyz
'x, y, z'
_cell_length_a     83.93085
_cell_length_b     83.870385
_cell_length_c     43.530244
_cell_angle_alpha  89.973135
_cell_angle_beta   90.01634
_cell_angle_gamma 90.10185
loop_
_atom_site_label
_atom_site_type_symbol
_atom_site_fract_x
_atom_site_fract_y
_atom_site_fract_z
_atom_type_partial_charge
Nd0 Nd 0.0808 0.45198 0.10411 0.0
Nd1 Nd 0.06183 0.4286 0.14209 0.0
C2 C 0.09153 0.47319 0.06373 0.0
C3 C 0.09186 0.47698 0.03037 0.0
C4 C 0.07801 0.4815 1.01439 0.0
C5 C 0.07886 0.48642 0.98365 0.0
C6 C 0.09356 0.48693 0.96803 0.0
C7 C 0.10733 0.48203 0.98391 0.0
C8 C 0.10649 0.47719 1.01467 0.0
C9 C 0.09674 0.42475 0.12123 0.0
C10 C 0.05626 0.42656 0.06997 0.0
C11 C 0.05077 0.40928 0.18556 0.0
C12 C 0.04622 0.41075 0.21852 0.0
C13 C 0.05172 0.39951 0.23994 0.0
C14 C 0.04718 0.40041 0.27095 0.0
C15 C 0.03695 0.41257 0.28135 0.0
C16 C 0.03162 0.42396 0.25987 0.0
C17 C 0.03624 0.4231 0.22891 0.0
C18 C 0.04586 0.4566 0.13108 0.0
C19 C 0.08477 0.45563 0.17692 0.0
O20 O 0.07799 0.47463 0.07838 0.0
O21 O 0.0999 0.46099 0.07317 0.0
O22 O 0.10318 0.43884 0.12095 0.0
O23 O 0.08267 0.42539 0.1113 0.0
O24 O 0.06343 0.44061 0.06934 0.0
O25 O 0.05603 0.41774 0.09514 0.0
O26 O 0.06592 0.41049 0.17885 0.0
O27 O 0.0417 0.4165 0.1655 0.0
O28 O 0.04005 0.44249 0.12641 0.0
O29 O 0.06043 0.45542 0.13769 0.0
O30 O 0.07757 0.44158 0.17822 0.0
O31 O 0.08607 0.46343 0.15068 0.0
H32 H 0.06655 0.48159 0.02579 0.0
H33 H 0.06801 0.49028 0.97244 0.0
H34 H 0.11882 0.48201 0.97262 0.0
H35 H 0.11737 0.47385 0.02639 0.0
H36 H 0.05943 0.38988 0.23262 0.0
H37 H 0.05144 0.39135 0.28665 0.0
H38 H 0.02394 0.43364 0.26702 0.0
H39 H 0.03192 0.4321 0.2131 0.0
Nd40 Nd 0.7946 0.83682 0.3458 0.0
Nd41 Nd 0.81884 0.8154 0.38271 0.0
C42 C 0.77468 0.84883 0.30427 0.0
C43 C 0.7692 0.84691 0.27188 0.0
C44 C 0.76348 0.83228 0.26052 0.0
C45 C 0.75739 0.83112 0.23049 0.0
C46 C 0.75685 0.84457 0.21099 0.0
C47 C 0.76286 0.85911 0.22238 0.0
C48 C 0.7689 0.86025 0.25237 0.0
C49 C 0.81888 0.85261 0.3749 0.0
C50 C 0.82256 0.81548 0.3099 0.0
C51 C 0.83884 0.80406 0.4248 0.0
C52 C 0.83916 0.79983 0.45797 0.0
C53 C 0.83132 0.80909 0.48025 0.0
C54 C 0.83205 0.80491 0.5115 0.0
C55 C 0.84073 0.79144 0.52126 0.0
C56 C 0.84848 0.7822 0.49876 0.0
C57 C 0.84767 0.78634 0.46758 0.0
C58 C 0.7939 0.79968 0.35572 0.0
C59 C 0.78769 0.83229 0.41866 0.0
O60 O 0.77065 0.83785 0.32424 0.0
O61 O 0.78909 0.85435 0.30879 0.0
O62 O 0.80458 0.85836 0.37207 0.0
O63 O 0.82017 0.83953 0.36077 0.0
O64 O 0.8081 0.82181 0.3097 0.0
O65 O 0.83093 0.81411 0.33558 0.0
O66 O 0.83775 0.81918 0.41764 0.0
O67 O 0.83034 0.79496 0.40671 0.0
O68 O 0.80794 0.79339 0.35928 0.0
O69 O 0.79327 0.81305 0.36873 0.0
O70 O 0.80178 0.82516 0.42 0.0
O71 O 0.78139 0.83708 0.39226 0.0
H72 H 0.76348 0.82175 0.27494 0.0
H73 H 0.75276 0.81974 0.22286 0.0
H74 H 0.76296 0.86968 0.20809 0.0
H75 H 0.7732 0.87169 0.26048 0.0
H76 H 0.82474 0.81963 0.47355 0.0
H77 H 0.82606 0.81243 0.52808 0.0
H78 H 0.85507 0.77163 0.5052 0.0
H79 H 0.85379 0.77898 0.45088 0.0
Nd80 Nd 0.4083 0.55273 0.597 0.0
Nd81 Nd 0.42925 0.57721 0.63267 0.0
C82 C 0.39641 0.53175 0.55744 0.0
C83 C 0.39807 0.52644 0.52514 0.0
C84 C 0.41269 0.52726 0.50947 0.0
C85 C 0.41408 0.52123 0.47947 0.0
C86 C 0.40088 0.51428 0.46449 0.0
C87 C 0.38618 0.51394 0.48012 0.0
C88 C 0.38482 0.51991 0.51004 0.0
C89 C 0.39264 0.57825 0.62211 0.0
C90 C 0.43051 0.57931 0.5598 0.0
C91 C 0.44069 0.59739 0.67418 0.0
C92 C 0.44514 0.59679 0.70723 0.0
C93 C 0.4347 0.59068 0.72963 0.0
C94 C 0.43939 0.58976 0.76054 0.0
C95 C 0.45457 0.59508 0.76987 0.0
C96 C 0.4649 0.60135 0.74739 0.0
C97 C 0.46025 0.60216 0.7165 0.0
C98 C 0.44504 0.55058 0.61216 0.0
C99 C 0.41061 0.54771 0.67042 0.0
O100 O 0.40823 0.52863 0.57614 0.0
O101 O 0.39014 0.54582 0.56215 0.0
O102 O 0.38672 0.56393 0.62106 0.0
O103 O 0.40588 0.57879 0.60846 0.0
O104 O 0.42389 0.56498 0.56029 0.0
O105 O 0.43177 0.58816 0.58484 0.0
O106 O 0.42554 0.59631 0.66725 0.0
O107 O 0.44972 0.58932 0.65531 0.0
O108 O 0.45125 0.56478 0.61275 0.0
O109 O 0.4312 0.55102 0.62318 0.0
O110 O 0.41758 0.56192 0.67102 0.0
O111 O 0.40698 0.54054 0.64423 0.0
H112 H 0.42309 0.5323 0.52058 0.0
H113 H 0.42562 0.52163 0.46838 0.0
H114 H 0.37566 0.50901 0.46925 0.0
H115 H 0.37341 0.51925 0.52159 0.0
H116 H 0.42291 0.58661 0.72328 0.0
H117 H 0.43102 0.58506 0.7772 0.0
H118 H 0.47673 0.60539 0.75357 0.0
H119 H 0.46854 0.6069 0.69973 0.0
Nd120 Nd 0.68918 0.15869 0.85041 0.0
Nd121 Nd 0.66771 0.18198 0.88784 0.0
C122 C 0.70747 0.14408 0.80945 0.0
C123 C 0.71314 0.14488 0.77728 0.0
C124 C 0.71588 0.15948 0.76228 0.0
C125 C 0.72234 0.15977 0.73252 0.0
C126 C 0.72622 0.14549 0.71718 0.0
C127 C 0.72302 0.13093 0.73212 0.0
C128 C 0.71659 0.13065 0.76178 0.0
C129 C 0.66485 0.14493 0.88294 0.0
C130 C 0.66201 0.18156 0.81614 0.0
C131 C 0.64964 0.19548 0.93046 0.0
C132 C 0.65103 0.19974 0.96335 0.0
C133 C 0.65893 0.18979 0.98438 0.0
C134 C 0.6604 0.19426 1.01529 0.0
C135 C 0.654 0.20877 0.02587 0.0
C136 C 0.64606 0.21866 1.00466 0.0
C137 C 0.64462 0.21419 0.97378 0.0
C138 C 0.69262 0.1958 0.85694 0.0
C139 C 0.69833 0.16385 0.92216 0.0
O140 O 0.7127 0.15497 0.82853 0.0
O141 O 0.6925 0.14035 0.81401 0.0
O142 O 0.67876 0.1384 0.87958 0.0
O143 O 0.66393 0.15773 0.86785 0.0
O144 O 0.67599 0.17425 0.81441 0.0
O145 O 0.6544 0.18324 0.84248 0.0
O146 O 0.64897 0.18029 0.92363 0.0
O147 O 0.65855 0.20361 0.91141 0.0
O148 O 0.67895 0.20274 0.86108 0.0
O149 O 0.69301 0.18273 0.87114 0.0
O150 O 0.68476 0.17178 0.92442 0.0
O151 O 0.7036 0.15834 0.89551 0.0
H152 H 0.71329 0.17064 0.77377 0.0
H153 H 0.72472 0.17121 0.72191 0.0
H154 H 0.72554 0.11969 0.72092 0.0
H155 H 0.71452 0.11926 0.77284 0.0
H156 H 0.66403 0.17859 0.97691 0.0
H157 H 0.66677 0.18642 0.03079 0.0
H158 H 0.64077 0.22979 1.01197 0.0
H159 H 0.63847 0.22205 0.95799 0.0
Nd160 Nd 0.0785 0.56148 0.5976 0.0
Nd161 Nd 0.04905 0.57168 0.63806 0.0
C162 C 0.10053 0.56049 0.55421 0.0
C163 C 0.10058 0.55329 0.52337 0.0
C164 C 0.11377 0.55504 0.50389 0.0
C165 C 0.11395 0.54756 0.47508 0.0
C166 C 0.10097 0.53815 0.46541 0.0
C167 C 0.08767 0.5367 0.48491 0.0
C168 C 0.08748 0.54421 0.51356 0.0
C169 C 0.0615 0.53653 0.61908 0.0
C170 C 0.04262 0.56878 0.56541 0.0
C171 C 0.02666 0.57617 0.68029 0.0
C172 C 0.02356 0.57492 0.71373 0.0
C173 C 0.02862 0.56179 0.73133 0.0
C174 C 0.02495 0.56088 0.7628 0.0
C175 C 0.01623 0.5731 0.77732 0.0
C176 C 0.01129 0.58621 0.75949 0.0
C177 C 0.01491 0.58708 0.72817 0.0
C178 C 0.06834 0.59542 0.61485 0.0
C179 C 0.08204 0.55926 0.67145 0.0
O180 O 0.09094 0.57262 0.55798 0.0
O181 O 0.09988 0.55035 0.57702 0.0
O182 O 0.07637 0.53546 0.61122 0.0
O183 O 0.05558 0.54973 0.6109 0.0
O184 O 0.05827 0.56693 0.5622 0.0
O185 O 0.03574 0.56937 0.59269 0.0
O186 O 0.0282 0.56296 0.6646 0.0
O187 O 0.03644 0.58738 0.67124 0.0
O188 O 0.05289 0.59639 0.61538 0.0
O189 O 0.07281 0.58253 0.62662 0.0
O190 O 0.06642 0.56088 0.67258 0.0
O191 O 0.09031 0.56131 0.6457 0.0
H192 H 0.12398 0.56201 0.5111 0.0
H193 H 0.12441 0.54884 0.46071 0.0
H194 H 0.07737 0.52978 0.47799 0.0
H195 H 0.07715 0.54279 0.52826 0.0
H196 H 0.03536 0.55224 0.72078 0.0
H197 H 0.02908 0.55068 0.77581 0.0
H198 H 0.00434 0.59571 0.76961 0.0
H199 H 0.01079 0.59726 0.71507 0.0
Nd200 Nd 0.67646 0.81167 0.84169 0.0
Nd201 Nd 0.661 0.78834 0.8868 0.0
C202 C 0.68672 0.83441 0.80414 0.0
C203 C 0.69244 0.83468 0.77196 0.0
C204 C 0.69375 0.84914 0.75595 0.0
C205 C 0.70018 0.84953 0.72617 0.0
C206 C 0.70552 0.83545 0.71187 0.0
C207 C 0.70382 0.82093 0.72783 0.0
C208 C 0.69732 0.82054 0.75746 0.0
C209 C 0.69504 0.78575 0.85423 0.0
C210 C 0.65949 0.78048 0.81253 0.0
C211 C 0.6504 0.7651 0.92299 0.0
C212 C 0.65148 0.75996 0.95538 0.0
C213 C 0.66242 0.76691 0.9758 0.0
C214 C 0.66298 0.76201 1.00663 0.0
C215 C 0.6526 0.75006 0.01764 0.0
C216 C 0.64168 0.74318 0.99692 0.0
C217 C 0.64114 0.74808 0.96619 0.0
C218 C 0.64338 0.81468 0.87065 0.0
C219 C 0.68258 0.8158 0.91671 0.0
O220 O 0.67159 0.83135 0.80851 0.0
O221 O 0.69588 0.8269 0.82365 0.0
O222 O 0.69287 0.79158 0.82694 0.0
O223 O 0.68663 0.79318 0.87356 0.0
O224 O 0.66417 0.79524 0.80694 0.0
O225 O 0.65865 0.77474 0.84082 0.0
O226 O 0.66334 0.76399 0.90638 0.0
O227 O 0.64252 0.77823 0.9177 0.0
O228 O 0.64405 0.80952 0.8987 0.0
O229 O 0.65136 0.80607 0.85312 0.0
O230 O 0.67772 0.80094 0.91957 0.0
O231 O 0.68072 0.82365 0.89028 0.0
H232 H 0.69009 0.86019 0.76671 0.0
H233 H 0.7014 0.86093 0.71472 0.0
H234 H 0.70756 0.80983 0.71741 0.0
H235 H 0.69633 0.80922 0.76929 0.0
H236 H 0.6705 0.77614 0.96792 0.0
H237 H 0.67166 0.76748 0.02175 0.0
H238 H 0.63332 0.73416 1.00455 0.0
H239 H 0.63254 0.74264 0.95085 0.0
Nd240 Nd 0.43042 0.43311 0.09788 0.0
Nd241 Nd 0.44897 0.40802 0.13808 0.0
C242 C 0.4122 0.44747 0.05648 0.0
C243 C 0.41306 0.45398 0.02482 0.0
C244 C 0.40161 0.44938 1.00303 0.0
C245 C 0.40155 0.45611 0.97355 0.0
C246 C 0.41293 0.46769 0.96522 0.0
C247 C 0.42459 0.47205 0.98693 0.0
C248 C 0.42468 0.46526 0.01635 0.0
C249 C 0.45997 0.44265 0.11692 0.0
C250 C 0.45668 0.40804 0.06491 0.0
C251 C 0.46604 0.39269 0.18007 0.0
C252 C 0.47077 0.39415 0.21264 0.0
C253 C 0.46993 0.40875 0.22831 0.0
C254 C 0.47452 0.40979 0.25926 0.0
C255 C 0.4801 0.39624 0.27514 0.0
C256 C 0.48096 0.38167 0.25912 0.0
C257 C 0.47631 0.38065 0.22829 0.0
C258 C 0.42101 0.39739 0.11263 0.0
C259 C 0.42801 0.43652 0.17147 0.0
O260 O 0.41281 0.43197 0.05963 0.0
O261 O 0.42003 0.45506 0.07801 0.0
O262 O 0.44833 0.45258 0.11238 0.0
O263 O 0.45596 0.42887 0.1092 0.0
O264 O 0.44509 0.41873 0.0617 0.0
O265 O 0.46138 0.40287 0.09223 0.0
O266 O 0.47207 0.4031 0.1609 0.0
O267 O 0.45102 0.38959 0.17457 0.0
O268 O 0.43358 0.38856 0.11598 0.0
O269 O 0.42327 0.41112 0.1239 0.0
O270 O 0.44058 0.42707 0.17241 0.0
O271 O 0.42006 0.43899 0.14561 0.0
H272 H 0.39249 0.44075 1.009 0.0
H273 H 0.39232 0.45256 0.95757 0.0
H274 H 0.43367 0.48074 0.98119 0.0
H275 H 0.43375 0.469 0.03255 0.0
H276 H 0.46574 0.41934 0.21661 0.0
H277 H 0.47352 0.42117 0.27082 0.0
H278 H 0.48545 0.37104 0.27024 0.0
H279 H 0.47713 0.36928 0.21658 0.0
Nd280 Nd 0.80356 0.17281 0.35346 0.0
Nd281 Nd 0.82287 0.19743 0.3945 0.0
C282 C 0.79456 0.15289 0.30936 0.0
C283 C 0.78984 0.15392 0.27675 0.0
C284 C 0.78749 0.16875 0.26251 0.0
C285 C 0.78208 0.16956 0.23208 0.0
C286 C 0.77892 0.15555 0.21526 0.0
C287 C 0.78166 0.14072 0.22951 0.0
C288 C 0.78704 0.13993 0.25995 0.0
C289 C 0.78548 0.19375 0.38604 0.0
C290 C 0.81734 0.20704 0.32348 0.0
C291 C 0.83381 0.21718 0.43716 0.0
C292 C 0.83161 0.22152 0.4697 0.0
C293 C 0.8189 0.21551 0.48727 0.0
C294 C 0.81699 0.22025 0.51801 0.0
C295 C 0.82778 0.23105 0.53167 0.0
C296 C 0.84057 0.23679 0.51387 0.0
C297 C 0.84242 0.23211 0.48328 0.0
C298 C 0.84032 0.17561 0.36204 0.0
C299 C 0.8049 0.16636 0.42661 0.0
O300 O 0.8095 0.15592 0.3158 0.0
O301 O 0.78472 0.15931 0.32907 0.0
O302 O 0.78045 0.17973 0.37776 0.0
O303 O 0.79861 0.19687 0.37328 0.0
O304 O 0.81167 0.19243 0.31904 0.0
O305 O 0.82114 0.21249 0.35101 0.0
O306 O 0.82223 0.22078 0.41827 0.0
O307 O 0.8402 0.20327 0.43141 0.0
O308 O 0.84488 0.19029 0.36607 0.0
O309 O 0.8275 0.17285 0.37606 0.0
O310 O 0.8104 0.18108 0.42919 0.0
O311 O 0.80335 0.15914 0.39958 0.0
H312 H 0.78963 0.1797 0.27505 0.0
H313 H 0.78034 0.18117 0.22175 0.0
H314 H 0.77922 0.1297 0.21744 0.0
H315 H 0.78875 0.12838 0.27058 0.0
H316 H 0.81045 0.20726 0.4772 0.0
H317 H 0.80695 0.21564 0.53088 0.0
H318 H 0.84932 0.24482 0.52365 0.0
H319 H 0.85235 0.2368 0.47015 0.0
Nd320 Nd 0.93029 0.56359 0.22927 0.0
Nd321 Nd 0.90526 0.55034 0.27528 0.0
C322 C 0.94946 0.57861 0.1903 0.0
C323 C 0.95488 0.5768 0.15816 0.0
C324 C 0.94672 0.56692 0.13735 0.0
C325 C 0.95181 0.56572 0.1067 0.0
C326 C 0.96516 0.57439 0.09622 0.0
C327 C 0.97338 0.58409 0.11742 0.0
C328 C 0.96828 0.58527 0.14798 0.0
C329 C 0.9329 0.53185 0.24398 0.0
C330 C 0.90142 0.54259 0.20248 0.0
C331 C 0.88833 0.53666 0.31936 0.0
C332 C 0.88952 0.52988 0.35055 0.0
C333 C 0.90428 0.5262 0.36398 0.0
C334 C 0.90492 0.51938 0.39341 0.0
C335 C 0.89082 0.51611 0.4099 0.0
C336 C 0.87612 0.52008 0.39634 0.0
C337 C 0.8755 0.52687 0.36703 0.0
C338 C 0.89597 0.57706 0.24325 0.0
C339 C 0.93737 0.56827 0.30282 0.0
O340 O 0.93446 0.58232 0.19426 0.0
O341 O 0.95446 0.56795 0.21002 0.0
O342 O 0.93514 0.53747 0.21653 0.0
O343 O 0.92992 0.54289 0.26251 0.0
O344 O 0.91004 0.55554 0.19791 0.0
O345 O 0.89974 0.53639 0.23037 0.0
O346 O 0.89513 0.52869 0.29701 0.0
O347 O 0.89001 0.55214 0.31676 0.0
O348 O 0.88643 0.56559 0.25103 0.0
O349 O 0.90969 0.57465 0.25417 0.0
O350 O 0.92433 0.5599 0.30851 0.0
O351 O 0.9417 0.57217 0.27454 0.0
H352 H 0.93633 0.56025 0.14472 0.0
H353 H 0.94508 0.55825 0.09108 0.0
H354 H 0.98385 0.59073 0.11045 0.0
H355 H 0.97479 0.5929 0.16368 0.0
H356 H 0.91525 0.52847 0.35161 0.0
H357 H 0.91644 0.51637 0.40298 0.0
H358 H 0.86504 0.51804 0.40848 0.0
H359 H 0.864 0.52972 0.35712 0.0
Nd360 Nd 0.1713 0.18769 0.97892 0.0
Nd361 Nd 0.19997 0.174 1.01137 0.0
C362 C 0.14902 0.19466 0.93797 0.0
C363 C 0.14904 0.19793 0.90455 0.0
C364 C 0.15807 0.18869 0.884 0.0
C365 C 0.15916 0.19299 0.85293 0.0
C366 C 0.15132 0.20667 0.84182 0.0
C367 C 0.14198 0.21562 0.86238 0.0
C368 C 0.14087 0.21129 0.89335 0.0
C369 C 0.1891 0.21044 1.00812 0.0
C370 C 0.20514 0.18136 0.94037 0.0
C371 C 0.22321 0.16481 0.04874 0.0
C372 C 0.22768 0.16315 0.08153 0.0
C373 C 0.22797 0.17624 0.10169 0.0
C374 C 0.23322 0.17436 0.13208 0.0
C375 C 0.23828 0.15937 0.14297 0.0
C376 C 0.23767 0.14628 0.12279 0.0
C377 C 0.23249 0.14817 0.09248 0.0
C378 C 0.18104 0.15268 0.97979 0.0
C379 C 0.16794 0.18429 0.05128 0.0
O380 O 0.15212 0.18008 0.94687 0.0
O381 O 0.15609 0.20537 0.95496 0.0
O382 O 0.17366 0.20982 1.00809 0.0
O383 O 0.19491 0.19888 0.99294 0.0
O384 O 0.18952 0.18345 0.93969 0.0
O385 O 0.21282 0.17931 0.96648 0.0
O386 O 0.22229 0.17915 0.03697 0.0
O387 O 0.2122 0.15518 0.03835 0.0
O388 O 0.19648 0.15251 0.97887 0.0
O389 O 0.17636 0.16359 0.99738 0.0
O390 O 0.18349 0.18183 0.05088 0.0
O391 O 0.15941 0.18462 0.02576 0.0
H392 H 0.16461 0.17838 0.89204 0.0
H393 H 0.16656 0.1859 0.83785 0.0
H394 H 0.13557 0.22606 0.85455 0.0
H395 H 0.13386 0.21861 0.90876 0.0
H396 H 0.22436 0.18796 0.09393 0.0
H397 H 0.23366 0.18476 0.1468 0.0
H398 H 0.24118 0.13451 0.13041 0.0
H399 H 0.23239 0.13789 0.0774 0.0
Nd400 Nd 0.55808 0.41761 0.73052 0.0
Nd401 Nd 0.57744 0.44238 0.76859 0.0
C402 C 0.54814 0.39738 0.68777 0.0
C403 C 0.54326 0.39791 0.65502 0.0
C404 C 0.55259 0.40557 0.63257 0.0
C405 C 0.54766 0.40589 0.60178 0.0
C406 C 0.53328 0.39858 0.59269 0.0
C407 C 0.52396 0.39101 0.61535 0.0
C408 C 0.52892 0.39066 0.64606 0.0
C409 C 0.54031 0.44151 0.75609 0.0
C410 C 0.574 0.44951 0.69564 0.0
C411 C 0.58836 0.46289 0.8102 0.0
C412 C 0.58654 0.46844 0.8426 0.0
C413 C 0.57565 0.48056 0.85014 0.0
C414 C 0.57521 0.48704 0.87984 0.0
C415 C 0.5857 0.48166 0.90288 0.0
C416 C 0.59632 0.46925 0.89553 0.0
C417 C 0.59678 0.46279 0.86579 0.0
C418 C 0.59471 0.41872 0.74067 0.0
C419 C 0.55709 0.41326 0.80273 0.0
O420 O 0.56319 0.39986 0.69408 0.0
O421 O 0.53858 0.40423 0.70744 0.0
O422 O 0.5353 0.42694 0.75288 0.0
O423 O 0.5539 0.44314 0.74417 0.0
O424 O 0.56739 0.43518 0.69368 0.0
O425 O 0.57814 0.45581 0.72241 0.0
O426 O 0.57704 0.46629 0.79052 0.0
O427 O 0.59465 0.44883 0.8054 0.0
O428 O 0.59963 0.43337 0.74289 0.0
O429 O 0.58161 0.41695 0.75436 0.0
O430 O 0.56258 0.42807 0.80397 0.0
O431 O 0.55687 0.40505 0.77684 0.0
H432 H 0.56373 0.41128 0.63875 0.0
H433 H 0.55526 0.41168 0.58503 0.0
H434 H 0.5127 0.38549 0.60946 0.0
H435 H 0.52147 0.38475 0.66293 0.0
H436 H 0.56766 0.48533 0.83291 0.0
H437 H 0.56669 0.49639 0.88466 0.0
H438 H 0.60472 0.4649 0.91245 0.0
H439 H 0.60549 0.45364 0.86076 0.0
Nd440 Nd 0.30913 0.81323 0.47357 0.0
Nd441 Nd 0.2909 0.8377 0.51312 0.0
C442 C 0.32638 0.79808 0.43163 0.0
C443 C 0.32474 0.79317 0.39919 0.0
C444 C 0.31241 0.79909 0.38059 0.0
C445 C 0.31091 0.79406 0.34997 0.0
C446 C 0.32166 0.78293 0.33739 0.0
C447 C 0.334 0.77711 0.35624 0.0
C448 C 0.3355 0.78218 0.38676 0.0
C449 C 0.27781 0.80526 0.48655 0.0
C450 C 0.28812 0.84165 0.43924 0.0
C451 C 0.27288 0.8524 0.5544 0.0
C452 C 0.26736 0.85011 0.58635 0.0
C453 C 0.26682 0.83491 0.59983 0.0
C454 C 0.26099 0.83294 0.62978 0.0
C455 C 0.25563 0.84614 0.64692 0.0
C456 C 0.2565 0.86138 0.63342 0.0
C457 C 0.26228 0.86332 0.60346 0.0
C458 C 0.32031 0.84728 0.49306 0.0
C459 C 0.30998 0.80742 0.54528 0.0
O460 O 0.32757 0.81339 0.43699 0.0
O461 O 0.31716 0.79081 0.45137 0.0
O462 O 0.28948 0.79513 0.48606 0.0
O463 O 0.28314 0.81881 0.48019 0.0
O464 O 0.30012 0.83145 0.43784 0.0
O465 O 0.28106 0.8451 0.46569 0.0
O466 O 0.26727 0.8425 0.5338 0.0
O467 O 0.28803 0.85551 0.55054 0.0
O468 O 0.30817 0.85678 0.49579 0.0
O469 O 0.31695 0.83355 0.50315 0.0
O470 O 0.29752 0.81707 0.54604 0.0
O471 O 0.31879 0.80596 0.52037 0.0
H472 H 0.30389 0.80752 0.3898 0.0
H473 H 0.30117 0.79869 0.33633 0.0
H474 H 0.34265 0.76874 0.34731 0.0
H475 H 0.3451 0.77748 0.40071 0.0
H476 H 0.27077 0.82454 0.58711 0.0
H477 H 0.26073 0.82106 0.63956 0.0
H478 H 0.25234 0.87179 0.64573 0.0
H479 H 0.2626 0.87515 0.59349 0.0
Nd480 Nd 0.94495 0.42036 0.73212 0.0
Nd481 Nd 0.92179 0.44076 0.77591 0.0
C482 C 0.96729 0.40892 0.69497 0.0
C483 C 0.97241 0.41035 0.66216 0.0
C484 C 0.9824 0.42282 0.65217 0.0
C485 C 0.98762 0.42361 0.62151 0.0
C486 C 0.98307 0.4119 0.59996 0.0
C487 C 0.97299 0.3995 0.61003 0.0
C488 C 0.96781 0.39871 0.64062 0.0
C489 C 0.92025 0.40434 0.7608 0.0
C490 C 0.91558 0.43972 0.70063 0.0
C491 C 0.89951 0.45184 0.81303 0.0
C492 C 0.89874 0.45668 0.84572 0.0
C493 C 0.88583 0.45194 0.86407 0.0
C494 C 0.88484 0.45676 0.89487 0.0
C495 C 0.89675 0.46648 0.90797 0.0
C496 C 0.90973 0.47109 0.88944 0.0
C497 C 0.91076 0.46618 0.85881 0.0
C498 C 0.94864 0.45558 0.75719 0.0
C499 C 0.95401 0.4249 0.80593 0.0
O500 O 0.9696 0.42113 0.71324 0.0
O501 O 0.95375 0.40165 0.70035 0.0
O502 O 0.92549 0.40023 0.73387 0.0
O503 O 0.92863 0.41535 0.7712 0.0
O504 O 0.92984 0.43341 0.69688 0.0
O505 O 0.90913 0.44188 0.72823 0.0
O506 O 0.90129 0.43658 0.80741 0.0
O507 O 0.90802 0.46092 0.79479 0.0
O508 O 0.94167 0.45877 0.78316 0.0
O509 O 0.94033 0.44632 0.74077 0.0
O510 O 0.93956 0.43071 0.81126 0.0
O511 O 0.95914 0.42121 0.7779 0.0
H512 H 0.98636 0.43192 0.66811 0.0
H513 H -0.00448 0.43323 0.61491 0.0
H514 H 0.96899 0.39038 0.59421 0.0
H515 H 0.96024 0.38886 0.64745 0.0
H516 H 0.87646 0.44453 0.85454 0.0
H517 H 0.87479 0.45276 0.90844 0.0
H518 H 0.91901 0.47877 0.89838 0.0
H519 H 0.92092 0.46997 0.8453 0.0
Nd520 Nd 0.32354 0.1957 0.47619 0.0
Nd521 Nd 0.3101 0.16897 0.51606 0.0
C522 C 0.33092 0.2174 0.43419 0.0
C523 C 0.32854 0.22101 0.40143 0.0
C524 C 0.31767 0.2124 0.38335 0.0
C525 C 0.31621 0.21569 0.35187 0.0
C526 C 0.32569 0.22757 0.33801 0.0
C527 C 0.33639 0.23625 0.35647 0.0
C528 C 0.33779 0.23298 0.38782 0.0
C529 C 0.34515 0.1738 0.49826 0.0
C530 C 0.30431 0.16607 0.44434 0.0
C531 C 0.30496 0.14807 0.56044 0.0
C532 C 0.29827 0.15059 0.59134 0.0
C533 C 0.29848 0.13845 0.61347 0.0
C534 C 0.29163 0.14096 0.64247 0.0
C535 C 0.28439 0.15564 0.64966 0.0
C536 C 0.2845 0.16784 0.62748 0.0
C537 C 0.2914 0.16535 0.59869 0.0
C538 C 0.28806 0.19172 0.50143 0.0
C539 C 0.32462 0.20241 0.5483 0.0
O540 O 0.3185 0.21852 0.45224 0.0
O541 O 0.33983 0.20505 0.44042 0.0
O542 O 0.34779 0.18903 0.49695 0.0
O543 O 0.33172 0.17065 0.48685 0.0
O544 O 0.30714 0.18151 0.44429 0.0
O545 O 0.30759 0.15712 0.46855 0.0
O546 O 0.3189 0.15459 0.55546 0.0
O547 O 0.29502 0.15042 0.53777 0.0
O548 O 0.28477 0.17666 0.5034 0.0
O549 O 0.3024 0.19431 0.50821 0.0
O550 O 0.32055 0.18718 0.55151 0.0
O551 O 0.3251 0.20927 0.52107 0.0
H552 H 0.31047 0.20304 0.39346 0.0
H553 H 0.30794 0.20872 0.33828 0.0
H554 H 0.34367 0.24564 0.34669 0.0
H555 H 0.34624 0.23975 0.40144 0.0
H556 H 0.30379 0.127 0.60824 0.0
H557 H 0.29168 0.13131 0.65901 0.0
H558 H 0.27929 0.17936 0.63243 0.0
H559 H 0.29125 0.17494 0.58198 0.0
Nd560 Nd 0.54226 0.57778 0.22276 0.0
Nd561 Nd 0.56375 0.55974 0.26922 0.0
C562 C 0.52021 0.58841 0.18412 0.0
C563 C 0.51604 0.5881 0.151 0.0
C564 C 0.51837 0.57447 0.13275 0.0
C565 C 0.51391 0.57447 0.10162 0.0
C566 C 0.50714 0.58814 0.08802 0.0
C567 C 0.50497 0.60177 0.10644 0.0
C568 C 0.50935 0.60172 0.1375 0.0
C569 C 0.56558 0.59538 0.2514 0.0
C570 C 0.57328 0.56017 0.19484 0.0
C571 C 0.58474 0.54882 0.30959 0.0
C572 C 0.58402 0.54396 0.34225 0.0
C573 C 0.59808 0.54152 0.35903 0.0
C574 C 0.59747 0.53556 0.38915 0.0
C575 C 0.58276 0.53178 0.40299 0.0
C576 C 0.56868 0.53465 0.38628 0.0
C577 C 0.5693 0.54071 0.3563 0.0
C578 C 0.54071 0.54124 0.24284 0.0
C579 C 0.53063 0.57433 0.29522 0.0
O580 O 0.51886 0.57507 0.1996 0.0
O581 O 0.53278 0.59671 0.19201 0.0
O582 O 0.56213 0.59728 0.22256 0.0
O583 O 0.55675 0.58513 0.2634 0.0
O584 O 0.55892 0.56572 0.18899 0.0
O585 O 0.57867 0.55854 0.2235 0.0
O586 O 0.58307 0.56403 0.30346 0.0
O587 O 0.57679 0.53973 0.29058 0.0
O588 O 0.54436 0.54072 0.27187 0.0
O589 O 0.54867 0.55196 0.22956 0.0
O590 O 0.54504 0.56927 0.30244 0.0
O591 O 0.52626 0.57692 0.26636 0.0
H592 H 0.5236 0.56381 0.14254 0.0
H593 H 0.51593 0.56382 0.08813 0.0
H594 H 0.49961 0.61243 0.097 0.0
H595 H 0.50739 0.61236 0.1511 0.0
H596 H 0.60956 0.54389 0.3486 0.0
H597 H 0.60854 0.5334 0.40122 0.0
H598 H 0.55715 0.53211 0.39633 0.0
H599 H 0.55828 0.54254 0.34382 0.0
Nd600 Nd 0.15576 0.79303 0.97574 0.0
Nd601 Nd 0.17868 0.81596 1.01324 0.0
C602 C 0.14236 0.77449 0.93362 0.0
C603 C 0.14567 0.76903 0.90199 0.0
C604 C 0.16067 0.7712 0.88829 0.0
C605 C 0.16345 0.76603 0.85808 0.0
C606 C 0.15124 0.75861 0.84096 0.0
C607 C 0.13623 0.75656 0.85493 0.0
C608 C 0.13351 0.7617 0.88506 0.0
C609 C 0.1416 0.81819 1.00486 0.0
C610 C 0.17897 0.81908 0.93994 0.0
C611 C 0.19064 0.83633 0.05371 0.0
C612 C 0.1971 0.83668 0.08529 0.0
C613 C 0.19331 0.84948 0.10468 0.0
C614 C 0.19997 0.85055 0.13411 0.0
C615 C 0.21063 0.83883 0.14472 0.0
C616 C 0.21411 0.82582 0.12544 0.0
C617 C 0.20739 0.82473 0.09607 0.0
C618 C 0.19274 0.7901 0.98661 0.0
C619 C 0.16061 0.78492 0.04802 0.0
O620 O 0.15171 0.76912 0.95532 0.0
O621 O 0.13891 0.7896 0.93695 0.0
O622 O 0.13492 0.80428 1.00185 0.0
O623 O 0.15477 0.8187 0.99093 0.0
O624 O 0.1721 0.80488 0.94002 0.0
O625 O 0.18042 0.82761 0.96543 0.0
O626 O 0.17536 0.83362 0.05078 0.0
O627 O 0.19918 0.82915 0.03272 0.0
O628 O 0.20027 0.8035 0.99071 0.0
O629 O 0.17929 0.79059 0.99903 0.0
O630 O 0.16849 0.79866 0.05041 0.0
O631 O 0.15549 0.77934 0.02127 0.0
H632 H 0.17023 0.77689 0.90094 0.0
H633 H 0.1752 0.76769 0.8483 0.0
H634 H 0.12645 0.7512 0.8424 0.0
H635 H 0.12181 0.76001 0.89511 0.0
H636 H 0.18538 0.85882 0.09684 0.0
H637 H 0.19711 0.86078 0.14822 0.0
H638 H 0.22206 0.81645 0.13307 0.0
H639 H 0.21038 0.81463 0.08169 0.0
Nd640 Nd 0.59309 0.94666 0.60236 0.0
Nd641 Nd 0.57022 0.9298 0.64701 0.0
C642 C 0.60761 0.9629 0.55822 0.0
C643 C 0.6047 0.96965 0.52712 0.0
C644 C 0.60188 0.95979 0.5015 0.0
C645 C 0.60025 0.96638 0.47204 0.0
C646 C 0.6013 0.98296 0.46748 0.0
C647 C 0.60387 0.99279 0.49321 0.0
C648 C 0.60562 0.98621 0.5226 0.0
C649 C 0.60454 0.91917 0.62932 0.0
C650 C 0.5621 0.92754 0.57352 0.0
C651 C 0.55281 0.91215 0.68486 0.0
C652 C 0.54765 0.9132 0.71726 0.0
C653 C 0.55419 0.92465 0.73718 0.0
C654 C 0.54914 0.92555 0.76786 0.0
C655 C 0.53744 0.91501 0.77928 0.0
C656 C 0.53093 0.9036 0.75907 0.0
C657 C 0.53599 0.90272 0.72843 0.0
C658 C 0.56524 0.96197 0.64005 0.0
C659 C 0.59801 0.95199 0.67547 0.0
O660 O 0.60049 0.96975 0.58156 0.0
O661 O 0.60831 0.94735 0.56086 0.0
O662 O 0.61315 0.93175 0.62417 0.0
O663 O 0.59069 0.92123 0.61889 0.0
O664 O 0.5746 0.93675 0.56848 0.0
O665 O 0.55822 0.9226 0.60141 0.0
O666 O 0.56804 0.90984 0.68019 0.0
O667 O 0.54671 0.92266 0.66601 0.0
O668 O 0.56465 0.95444 0.66602 0.0
O669 O 0.56821 0.95239 0.61852 0.0
O670 O 0.59039 0.93827 0.67861 0.0
O671 O 0.5989 0.9592 0.64839 0.0
H672 H 0.6011 0.94697 0.50408 0.0
H673 H 0.59808 0.95847 0.45282 0.0
H674 H 0.60493 0.00559 0.49055 0.0
H675 H 0.60794 0.99409 0.54182 0.0
H676 H 0.56322 0.93286 0.729 0.0
H677 H 0.55457 0.93436 0.78273 0.0
H678 H 0.52175 0.89546 0.7668 0.0
H679 H 0.53073 0.89386 0.71341 0.0
Nd680 Nd 0.2885 0.3308 0.84665 0.0
Nd681 Nd 0.30401 0.30429 0.88811 0.0
C682 C 0.27224 0.34715 0.8052 0.0
C683 C 0.26513 0.34536 0.77418 0.0
C684 C 0.2489 0.3487 0.77001 0.0
C685 C 0.2419 0.34759 0.7409 0.0
C686 C 0.25101 0.3432 0.71514 0.0
C687 C 0.2673 0.33985 0.71931 0.0
C688 C 0.27429 0.34086 0.74854 0.0
C689 C 0.31442 0.34074 0.87969 0.0
C690 C 0.3093 0.30195 0.81387 0.0
C691 C 0.32133 0.28433 0.92129 0.0
C692 C 0.32103 0.27916 0.95359 0.0
C693 C 0.30982 0.28553 0.97408 0.0
C694 C 0.30969 0.28075 1.00489 0.0
C695 C 0.32081 0.26954 0.01579 0.0
C696 C 0.33198 0.26316 0.99502 0.0
C697 C 0.33207 0.26793 0.9642 0.0
C698 C 0.27252 0.30013 0.87429 0.0
C699 C 0.28143 0.33042 0.92078 0.0
O700 O 0.26544 0.33924 0.82769 0.0
O701 O 0.28784 0.34753 0.80731 0.0
O702 O 0.3028 0.35008 0.87197 0.0
O703 O 0.31293 0.32716 0.86743 0.0
O704 O 0.30036 0.31479 0.81022 0.0
O705 O 0.31279 0.29607 0.84116 0.0
O706 O 0.3253 0.29922 0.91661 0.0
O707 O 0.30928 0.27979 0.90435 0.0
O708 O 0.27877 0.29621 0.90047 0.0
O709 O 0.28287 0.30522 0.85583 0.0
O710 O 0.29424 0.32148 0.9241 0.0
O711 O 0.27556 0.33399 0.89332 0.0
H712 H 0.2416 0.35231 0.78933 0.0
H713 H 0.22938 0.35044 0.7385 0.0
H714 H 0.27462 0.33626 0.70004 0.0
H715 H 0.28684 0.33815 0.75099 0.0
H716 H 0.30123 0.29427 0.96628 0.0
H717 H 0.30107 0.28606 0.02029 0.0
H718 H 0.34057 0.25436 1.00253 0.0
H719 H 0.34078 0.26288 0.94866 0.0
Nd720 Nd 0.91373 0.04594 0.09911 0.0
Nd721 Nd 0.93347 0.07146 0.13524 0.0
C722 C 0.90302 0.02506 0.05815 0.0
C723 C 0.9051 0.02022 0.02543 0.0
C724 C 0.91642 0.00862 0.01722 0.0
C725 C 0.91765 0.00326 0.98682 0.0
C726 C 0.90754 0.00928 0.96374 0.0
C727 C 0.89628 0.02095 0.97194 0.0
C728 C 0.89506 0.02632 1.00237 0.0
C729 C 0.89647 0.0689 0.12871 0.0
C730 C 0.93193 0.07585 0.06265 0.0
C731 C 0.94385 0.09169 0.17772 0.0
C732 C 0.94833 0.09126 0.21075 0.0
C733 C 0.93936 0.0827 0.23251 0.0
C734 C 0.94406 0.08226 0.26349 0.0
C735 C 0.95781 0.09045 0.27349 0.0
C736 C 0.96671 0.09901 0.25153 0.0
C737 C 0.96204 0.09939 0.22061 0.0
C738 C 0.95094 0.04862 0.10592 0.0
C739 C 0.91938 0.03896 0.17132 0.0
O740 O 0.91471 0.02206 0.07727 0.0
O741 O 0.89605 0.03872 0.06373 0.0
O742 O 0.89187 0.05413 0.12661 0.0
O743 O 0.90921 0.07121 0.11406 0.0
O744 O 0.92643 0.06104 0.06205 0.0
O745 O 0.93347 0.08398 0.08856 0.0
O746 O 0.92877 0.08986 0.17079 0.0
O747 O 0.95329 0.08418 0.15876 0.0
O748 O 0.9557 0.06327 0.1093 0.0
O749 O 0.93807 0.0463 0.12018 0.0
O750 O 0.92566 0.05345 0.17264 0.0
O751 O 0.91468 0.03252 0.14506 0.0
H752 H 0.92419 0.00345 0.0344 0.0
H753 H 0.92629 0.99409 0.98159 0.0
H754 H 0.88841 0.02601 0.95481 0.0
H755 H 0.88609 0.03513 1.00786 0.0
H756 H 0.9287 0.07635 0.22562 0.0
H757 H 0.93678 0.07568 0.27967 0.0
H758 H 0.97748 0.10526 0.25812 0.0
H759 H 0.96921 0.10601 0.2043 0.0
Nd760 Nd 0.19954 0.65762 0.34525 0.0
Nd761 Nd 0.18131 0.67988 0.38838 0.0
C762 C 0.2158 0.64194 0.30275 0.0
C763 C 0.22182 0.64249 0.27092 0.0
C764 C 0.22331 0.65685 0.25458 0.0
C765 C 0.22972 0.6569 0.22477 0.0
C766 C 0.23478 0.64259 0.21085 0.0
C767 C 0.23294 0.62825 0.22726 0.0
C768 C 0.22655 0.62822 0.25692 0.0
C769 C 0.17469 0.64412 0.37756 0.0
C770 C 0.17533 0.6844 0.31466 0.0
C771 C 0.16199 0.69508 0.42655 0.0
C772 C 0.16221 0.70033 0.45905 0.0
C773 C 0.14813 0.69972 0.47636 0.0
C774 C 0.14808 0.70433 0.50729 0.0
C775 C 0.16213 0.7097 0.52169 0.0
C776 C 0.17624 0.71032 0.50421 0.0
C777 C 0.1763 0.70562 0.47327 0.0
C778 C 0.21108 0.69077 0.37118 0.0
C779 C 0.20871 0.65755 0.4173 0.0
O780 O 0.22244 0.65152 0.32284 0.0
O781 O 0.20039 0.64041 0.30653 0.0
O782 O 0.18836 0.63722 0.37388 0.0
O783 O 0.17461 0.65741 0.36434 0.0
O784 O 0.18621 0.67323 0.31003 0.0
O785 O 0.17072 0.68862 0.34258 0.0
O786 O 0.16136 0.67967 0.4219 0.0
O787 O 0.17163 0.70239 0.40748 0.0
O788 O 0.20558 0.69117 0.39907 0.0
O789 O 0.20111 0.684 0.35405 0.0
O790 O 0.19418 0.66309 0.42169 0.0
O791 O 0.2149 0.6568 0.38936 0.0
H792 H 0.2197 0.66801 0.26499 0.0
H793 H 0.23106 0.66818 0.21293 0.0
H794 H 0.2364 0.61698 0.21716 0.0
H795 H 0.22542 0.617 0.26909 0.0
H796 H 0.13713 0.69564 0.46592 0.0
H797 H 0.13695 0.70386 0.51985 0.0
H798 H 0.18732 0.71418 0.51459 0.0
H799 H 0.18738 0.70604 0.46052 0.0
Nd800 Nd 0.56965 0.05565 0.09602 0.0
Nd801 Nd 0.54007 0.0656 0.1337 0.0
C802 C 0.59323 0.05391 0.0557 0.0
C803 C 0.59451 0.04762 0.02417 0.0
C804 C 0.60742 0.05188 1.00545 0.0
C805 C 0.60883 0.04555 0.97575 0.0
C806 C 0.59734 0.03483 0.96424 0.0
C807 C 0.58433 0.03077 0.98315 0.0
C808 C 0.5829 0.03715 1.0127 0.0
C809 C 0.54817 0.03156 0.10456 0.0
C810 C 0.53646 0.06826 0.0603 0.0
C811 C 0.51584 0.06763 0.1727 0.0
C812 C 0.5124 0.06785 0.20607 0.0
C813 C 0.522 0.05972 0.22736 0.0
C814 C 0.5181 0.05972 0.25874 0.0
C815 C 0.50447 0.0678 0.26945 0.0
C816 C 0.49505 0.07609 0.24797 0.0
C817 C 0.49898 0.0761 0.2167 0.0
C818 C 0.5613 0.08951 0.11947 0.0
C819 C 0.57152 0.05097 0.16961 0.0
O820 O 0.5844 0.06663 0.05917 0.0
O821 O 0.59077 0.04328 0.07718 0.0
O822 O 0.56344 0.02936 0.10393 0.0
O823 O 0.54479 0.04591 0.0995 0.0
O824 O 0.55216 0.06614 0.05912 0.0
O825 O 0.52854 0.06668 0.08635 0.0
O826 O 0.52088 0.05418 0.16094 0.0
O827 O 0.52307 0.0801 0.16116 0.0
O828 O 0.54595 0.09148 0.11981 0.0
O829 O 0.56477 0.07565 0.12826 0.0
O830 O 0.556 0.05342 0.16948 0.0
O831 O 0.58033 0.05309 0.14468 0.0
H832 H 0.61645 0.06004 1.01383 0.0
H833 H 0.61888 0.04916 0.96177 0.0
H834 H 0.57536 0.02239 0.97541 0.0
H835 H 0.5728 0.03375 0.02678 0.0
H836 H 0.53241 0.05322 0.21972 0.0
H837 H 0.52557 0.0531 0.27449 0.0
H838 H 0.48465 0.08268 0.25532 0.0
H839 H 0.49143 0.08251 0.20072 0.0
Nd840 Nd 0.17576 0.31675 0.34945 0.0
Nd841 Nd 0.15631 0.29158 0.3888 0.0
C842 C 0.18526 0.33756 0.3074 0.0
C843 C 0.19122 0.3378 0.27546 0.0
C844 C 0.18502 0.32761 0.25275 0.0
C845 C 0.19125 0.32789 0.22284 0.0
C846 C 0.20386 0.33825 0.21518 0.0
C847 C 0.20991 0.34848 0.23801 0.0
C848 C 0.20364 0.34826 0.26776 0.0
C849 C 0.19365 0.29534 0.38125 0.0
C850 C 0.16238 0.28288 0.31749 0.0
C851 C 0.14578 0.27109 0.43048 0.0
C852 C 0.14886 0.26639 0.46255 0.0
C853 C 0.16118 0.27336 0.47983 0.0
C854 C 0.16379 0.26861 0.51035 0.0
C855 C 0.15419 0.25675 0.52397 0.0
C856 C 0.14195 0.24981 0.50635 0.0
C857 C 0.13932 0.25459 0.47601 0.0
C858 C 0.13896 0.31392 0.3573 0.0
C859 C 0.174 0.32221 0.42262 0.0
O860 O 0.1703 0.33371 0.31177 0.0
O861 O 0.19478 0.33138 0.32795 0.0
O862 O 0.19868 0.30953 0.37423 0.0
O863 O 0.18063 0.29241 0.36801 0.0
O864 O 0.16814 0.29752 0.31372 0.0
O865 O 0.15827 0.27718 0.34467 0.0
O866 O 0.15692 0.2677 0.41051 0.0
O867 O 0.13941 0.28514 0.42602 0.0
O868 O 0.13433 0.2992 0.36056 0.0
O869 O 0.15174 0.3164 0.37164 0.0
O870 O 0.16882 0.30734 0.42439 0.0
O871 O 0.17538 0.32986 0.39604 0.0
H872 H 0.1755 0.31934 0.25817 0.0
H873 H 0.18641 0.31976 0.2059 0.0
H874 H 0.21946 0.35676 0.23283 0.0
H875 H 0.20857 0.35623 0.2849 0.0
H876 H 0.16875 0.28243 0.46974 0.0
H877 H 0.17341 0.2741 0.52316 0.0
H878 H 0.13418 0.24084 0.51619 0.0
H879 H 0.12977 0.24909 0.46303 0.0
Nd880 Nd 0.9321 0.92589 0.59745 0.0
Nd881 Nd 0.95392 0.90549 0.64085 0.0
C882 C 0.912 0.93581 0.55445 0.0
C883 C 0.91298 0.94211 0.52281 0.0
C884 C 0.89932 0.9425 0.5043 0.0
C885 C 0.8999 0.94917 0.47478 0.0
C886 C 0.91419 0.95563 0.46318 0.0
C887 C 0.92795 0.95492 0.48169 0.0
C888 C 0.92736 0.94819 0.51116 0.0
C889 C 0.96091 0.93948 0.61027 0.0
C890 C 0.95958 0.90122 0.56777 0.0
C891 C 0.97292 0.89371 0.6841 0.0
C892 C 0.97715 0.89551 0.71694 0.0
C893 C 0.97479 0.90987 0.73291 0.0
C894 C 0.97917 0.91119 0.76399 0.0
C895 C 0.98595 0.89815 0.77973 0.0
C896 C 0.98824 0.88382 0.76347 0.0
C897 C 0.98388 0.88253 0.73252 0.0
C898 C 0.92614 0.89152 0.62066 0.0
C899 C 0.93115 0.93364 0.66978 0.0
O900 O 0.91578 0.92081 0.55833 0.0
O901 O 0.91769 0.94501 0.57611 0.0
O902 O 0.94821 0.94778 0.60452 0.0
O903 O 0.95832 0.92491 0.60645 0.0
O904 O 0.94611 0.90932 0.56376 0.0
O905 O 0.96602 0.89931 0.59533 0.0
O906 O 0.97711 0.90519 0.66538 0.0
O907 O 0.95883 0.88787 0.67786 0.0
O908 O 0.93949 0.88388 0.624 0.0
O909 O 0.92767 0.90572 0.62969 0.0
O910 O 0.94478 0.92584 0.67115 0.0
O911 O 0.92204 0.93312 0.64492 0.0
H912 H 0.88811 0.93787 0.51288 0.0
H913 H 0.88904 0.94964 0.46137 0.0
H914 H 0.9392 0.95954 0.47338 0.0
H915 H 0.93809 0.9479 0.525 0.0
H916 H 0.96958 0.92004 0.72137 0.0
H917 H 0.97706 0.92236 0.77576 0.0
H918 H 0.99366 0.8736 0.77451 0.0
H919 H 0.98588 0.87137 0.72063 0.0
Nd920 Nd 0.30955 0.66816 0.84184 0.0
Nd921 Nd 0.31649 0.69809 0.88116 0.0
C922 C 0.30993 0.64566 0.79916 0.0
C923 C 0.30443 0.64465 0.76682 0.0
C924 C 0.30894 0.65609 0.74479 0.0
C925 C 0.30264 0.65558 0.71497 0.0
C926 C 0.29159 0.64371 0.70655 0.0
C927 C 0.28737 0.6321 0.72848 0.0
C928 C 0.29375 0.63256 0.7582 0.0
C929 C 0.28311 0.68575 0.85425 0.0
C930 C 0.31736 0.70336 0.80836 0.0
C931 C 0.31674 0.72187 0.92141 0.0
C932 C 0.31705 0.72518 0.95478 0.0
C933 C 0.31072 0.71445 0.97638 0.0
C934 C 0.31059 0.71832 1.00778 0.0
C935 C 0.31675 0.73302 0.01817 0.0
C936 C 0.32332 0.74355 0.99636 0.0
C937 C 0.32345 0.73967 0.96509 0.0
C938 C 0.34236 0.67994 0.86412 0.0
C939 C 0.3057 0.66465 0.91537 0.0
O940 O 0.32216 0.65489 0.80503 0.0
O941 O 0.29873 0.64684 0.8199 0.0
O942 O 0.28304 0.67036 0.85191 0.0
O943 O 0.29667 0.69145 0.84831 0.0
O944 O 0.31738 0.68756 0.8061 0.0
O945 O 0.31502 0.71054 0.83494 0.0
O946 O 0.30368 0.71561 0.91011 0.0
O947 O 0.32967 0.71599 0.90909 0.0
O948 O 0.3425 0.69543 0.8646 0.0
O949 O 0.32919 0.67483 0.8737 0.0
O950 O 0.3066 0.68034 0.91619 0.0
O951 O 0.30844 0.65643 0.88989 0.0
H952 H 0.31708 0.66563 0.75073 0.0
H953 H 0.30605 0.66479 0.69879 0.0
H954 H 0.27908 0.62267 0.72268 0.0
H955 H 0.2901 0.62359 0.7747 0.0
H956 H 0.3057 0.70318 0.96896 0.0
H957 H 0.30534 0.70995 0.02381 0.0
H958 H 0.32845 0.75482 1.00344 0.0
H959 H 0.32845 0.7481 0.94885 0.0
Nd960 Nd 0.42388 0.05973 0.72344 0.0
Nd961 Nd 0.40254 0.04261 0.77009 0.0
C962 C 0.44077 0.07703 0.68411 0.0
C963 C 0.44583 0.07556 0.65169 0.0
C964 C 0.43851 0.06455 0.63186 0.0
C965 C 0.44345 0.06325 0.60117 0.0
C966 C 0.45589 0.07289 0.58969 0.0
C967 C 0.46318 0.08386 0.6098 0.0
C968 C 0.4582 0.08517 0.64043 0.0
C969 C 0.42896 0.02742 0.72815 0.0
C970 C 0.39507 0.03852 0.6975 0.0
C971 C 0.38839 0.02605 0.8144 0.0
C972 C 0.39085 0.01846 0.84468 0.0
C973 C 0.40581 0.01811 0.8591 0.0
C974 C 0.40758 0.01092 0.88809 0.0
C975 C 0.39442 0.00393 0.90318 0.0
C976 C 0.37946 0.00449 0.88852 0.0
C977 C 0.37773 0.01163 0.85967 0.0
C978 C 0.39058 0.07084 0.74708 0.0
C979 C 0.43429 0.0615 0.79582 0.0
O980 O 0.42552 0.07913 0.68893 0.0
O981 O 0.44716 0.06697 0.70349 0.0
O982 O 0.42844 0.03531 0.70263 0.0
O983 O 0.42677 0.03669 0.75054 0.0
O984 O 0.4022 0.05249 0.69466 0.0
O985 O 0.39527 0.03078 0.72407 0.0
O986 O 0.39515 0.01943 0.79045 0.0
O987 O 0.38875 0.04164 0.8135 0.0
O988 O 0.38198 0.05826 0.7522 0.0
O989 O 0.40478 0.06836 0.75503 0.0
O990 O 0.42236 0.05171 0.80192 0.0
O991 O 0.43693 0.06707 0.76784 0.0
H992 H 0.42898 0.05693 0.64013 0.0
H993 H 0.43768 0.05454 0.58656 0.0
H994 H 0.47262 0.09162 0.60177 0.0
H995 H 0.464 0.09374 0.65533 0.0
H996 H 0.4161 0.02338 0.84795 0.0
H997 H 0.41931 0.01063 0.89846 0.0
H998 H 0.36898 -0.00044 0.89952 0.0
H999 H 0.36605 0.01189 0.84906 0.0
Nd1000 Nd 0.66723 0.68018 0.47455 0.0
Nd1001 Nd 0.6953 0.66464 0.50983 0.0
C1002 C 0.6452 0.6873 0.43309 0.0
C1003 C 0.64518 0.69111 0.39978 0.0
C1004 C 0.65228 0.68095 0.37803 0.0
C1005 C 0.65297 0.68531 0.34694 0.0
C1006 C 0.64654 0.69992 0.33683 0.0
C1007 C 0.63913 0.70985 0.35862 0.0
C1008 C 0.63847 0.7055 0.38965 0.0
C1009 C 0.68986 0.70134 0.49497 0.0
C1010 C 0.69978 0.66809 0.43649 0.0
C1011 C 0.71787 0.65647 0.54956 0.0
C1012 C 0.72285 0.65886 0.58203 0.0
C1013 C 0.72538 0.67415 0.59438 0.0
C1014 C 0.73115 0.676 0.62444 0.0
C1015 C 0.73447 0.66261 0.64294 0.0
C1016 C 0.73155 0.64735 0.63073 0.0
C1017 C 0.72587 0.64551 0.60064 0.0
C1018 C 0.6736 0.6442 0.48351 0.0
C1019 C 0.6651 0.68149 0.54722 0.0
O1020 O 0.64867 0.67268 0.44116 0.0
O1021 O 0.65177 0.6979 0.4511 0.0
O1022 O 0.67466 0.70417 0.49497 0.0
O1023 O 0.69248 0.68767 0.48408 0.0
O1024 O 0.68449 0.67206 0.43599 0.0
O1025 O 0.70757 0.666 0.46266 0.0
O1026 O 0.7191 0.66858 0.53067 0.0
O1027 O 0.70509 0.64788 0.54466 0.0
O1028 O 0.68884 0.6415 0.48436 0.0
O1029 O 0.67042 0.6568 0.49805 0.0
O1030 O 0.6804 0.67771 0.54665 0.0
O1031 O 0.65609 0.6808 0.52234 0.0
H1032 H 0.65752 0.66974 0.38507 0.0
H1033 H 0.65888 0.6774 0.33096 0.0
H1034 H 0.63378 0.72103 0.3517 0.0
H1035 H 0.63285 0.7135 0.40589 0.0
H1036 H 0.72309 0.68471 0.58073 0.0
H1037 H 0.73304 0.68794 0.63319 0.0
H1038 H 0.73411 0.63677 0.6441 0.0
H1039 H 0.7241 0.63359 0.59167 0.0
Nd1040 Nd 0.06412 0.92131 0.23547 0.0
Nd1041 Nd 0.08174 0.94648 0.27566 0.0
C1042 C 0.05565 0.90085 0.19188 0.0
C1043 C 0.05046 0.90136 0.15923 0.0
C1044 C 0.05966 0.90886 0.13636 0.0
C1045 C 0.05445 0.90917 0.10571 0.0
C1046 C 0.03996 0.90191 0.09711 0.0
C1047 C 0.03081 0.89443 0.12013 0.0
C1048 C 0.03601 0.89416 0.15073 0.0
C1049 C 0.04566 0.9467 0.2536 0.0
C1050 C 0.08174 0.95264 0.20192 0.0
C1051 C 0.09077 0.96781 0.3174 0.0
C1052 C 0.08923 0.97281 0.35017 0.0
C1053 C 0.07913 0.9855 0.35818 0.0
C1054 C 0.07896 0.99159 0.38818 0.0
C1055 C 0.08899 0.98525 0.41107 0.0
C1056 C 0.0988 0.97226 0.40324 0.0
C1057 C 0.09896 0.96616 0.3732 0.0
C1058 C 0.10005 0.92223 0.25255 0.0
C1059 C 0.06025 0.91746 0.30754 0.0
O1060 O 0.07049 0.90454 0.198 0.0
O1061 O 0.04569 0.90653 0.21221 0.0
O1062 O 0.04052 0.93212 0.25162 0.0
O1063 O 0.06006 0.94721 0.24565 0.0
O1064 O 0.0757 0.93808 0.19958 0.0
O1065 O 0.08423 0.95942 0.22904 0.0
O1066 O 0.07849 0.96977 0.2992 0.0
O1067 O 0.09882 0.95485 0.31116 0.0
O1068 O 0.10499 0.93688 0.25484 0.0
O1069 O 0.08629 0.92079 0.2638 0.0
O1070 O 0.0657 0.93228 0.30936 0.0
O1071 O 0.06101 0.90915 0.28182 0.0
H1072 H 0.07091 0.91446 0.14208 0.0
H1073 H 0.06193 0.91487 0.08867 0.0
H1074 H 0.01949 0.88892 0.11461 0.0
H1075 H 0.02867 0.88831 0.16785 0.0
H1076 H 0.07158 0.99103 0.34104 0.0
H1077 H 0.07105 0.00141 0.39334 0.0
H1078 H 0.10683 0.96715 0.42003 0.0
H1079 H 0.10707 0.95652 0.36787 0.0
Nd1080 Nd 0.81447 0.3093 0.98593 0.0
Nd1081 Nd 0.79118 0.33072 0.02037 0.0
C1082 C 0.83382 0.29672 0.94437 0.0
C1083 C 0.83223 0.29154 0.91201 0.0
C1084 C 0.84469 0.2944 0.89125 0.0
C1085 C 0.84334 0.28971 0.86047 0.0
C1086 C 0.82949 0.28199 0.84979 0.0
C1087 C 0.81697 0.27921 0.87065 0.0
C1088 C 0.81829 0.28402 0.90138 0.0
C1089 C 0.78829 0.29336 1.00818 0.0
C1090 C 0.78479 0.32715 0.9478 0.0
C1091 C 0.77137 0.34449 0.05968 0.0
C1092 C 0.76645 0.34342 0.09219 0.0
C1093 C 0.7667 0.32888 0.10819 0.0
C1094 C 0.76135 0.32809 0.13865 0.0
C1095 C 0.75576 0.34184 0.15377 0.0
C1096 C 0.75591 0.35643 0.13781 0.0
C1097 C 0.76116 0.35719 0.10733 0.0
C1098 C 0.81634 0.34595 0.99264 0.0
C1099 C 0.81744 0.30874 0.05831 0.0
O1100 O 0.83279 0.31203 0.94939 0.0
O1101 O 0.82626 0.28829 0.96504 0.0
O1102 O 0.80279 0.28805 1.00945 0.0
O1103 O 0.78823 0.30709 0.9963 0.0
O1104 O 0.79866 0.31966 0.9471 0.0
O1105 O 0.77827 0.33173 0.97399 0.0
O1106 O 0.76728 0.33268 0.04164 0.0
O1107 O 0.78579 0.34973 0.05434 0.0
O1108 O 0.80197 0.35164 0.99335 0.0
O1109 O 0.81709 0.33315 1.00773 0.0
O1110 O 0.80316 0.31539 0.05783 0.0
O1111 O 0.82612 0.30738 0.03314 0.0
H1112 H 0.8555 0.30027 0.89888 0.0
H1113 H 0.85325 0.29193 0.84512 0.0
H1114 H 0.80606 0.27351 0.86311 0.0
H1115 H 0.80838 0.28188 0.91681 0.0
H1116 H 0.77089 0.31813 0.09707 0.0
H1117 H 0.7616 0.31671 0.1504 0.0
H1118 H 0.75156 0.36721 0.14862 0.0
H1119 H 0.7609 0.36853 0.0954 0.0
Nd1120 Nd 0.45304 0.91508 0.23412 0.0
Nd1121 Nd 0.42594 0.93276 0.2718 0.0
C1122 C 0.47446 0.90614 0.19273 0.0
C1123 C 0.47883 0.90951 0.16047 0.0
C1124 C 0.46877 0.91825 0.14097 0.0
C1125 C 0.4729 0.92072 0.11007 0.0
C1126 C 0.48732 0.9147 0.09823 0.0
C1127 C 0.49745 0.90621 0.11815 0.0
C1128 C 0.49323 0.90363 0.14886 0.0
C1129 C 0.43173 0.896 0.26444 0.0
C1130 C 0.42153 0.9303 0.19842 0.0
C1131 C 0.40409 0.94048 0.31315 0.0
C1132 C 0.40327 0.94669 0.3449 0.0
C1133 C 0.39125 0.94127 0.36469 0.0
C1134 C 0.38982 0.9475 0.39442 0.0
C1135 C 0.40037 0.95937 0.40499 0.0
C1136 C 0.41259 0.96458 0.38515 0.0
C1137 C 0.41406 0.95827 0.35549 0.0
C1138 C 0.44686 0.95208 0.24137 0.0
C1139 C 0.46015 0.9218 0.30614 0.0
O1140 O 0.47695 0.91754 0.21267 0.0
O1141 O 0.46099 0.89862 0.19733 0.0
O1142 O 0.44673 0.89246 0.26148 0.0
O1143 O 0.42836 0.90864 0.25018 0.0
O1144 O 0.43671 0.92614 0.19754 0.0
O1145 O 0.41349 0.9313 0.22461 0.0
O1146 O 0.40944 0.92595 0.30965 0.0
O1147 O 0.40931 0.95029 0.29201 0.0
O1148 O 0.43228 0.95622 0.24742 0.0
O1149 O 0.45015 0.93925 0.25497 0.0
O1150 O 0.44519 0.92683 0.3086 0.0
O1151 O 0.46654 0.91776 0.27945 0.0
H1152 H 0.45772 0.92313 0.1496 0.0
H1153 H 0.46492 0.92752 0.09559 0.0
H1154 H 0.50853 0.90121 0.10983 0.0
H1155 H 0.50117 0.89686 0.16352 0.0
H1156 H 0.38285 0.93227 0.35706 0.0
H1157 H 0.38045 0.94296 0.40913 0.0
H1158 H 0.42084 0.97381 0.39221 0.0
H1159 H 0.4235 0.96262 0.34071 0.0
Nd1160 Nd 0.84094 0.70689 0.9706 0.0
Nd1161 Nd 0.8131 0.69159 1.01038 0.0
C1162 C 0.85912 0.72462 0.93411 0.0
C1163 C 0.85698 0.73147 0.90293 0.0
C1164 C 0.84343 0.72778 0.88533 0.0
C1165 C 0.8418 0.73356 0.85525 0.0
C1166 C 0.85376 0.74309 0.84184 0.0
C1167 C 0.86728 0.74687 0.8597 0.0
C1168 C 0.86884 0.74114 0.88989 0.0
C1169 C 0.84761 0.67753 0.99631 0.0
C1170 C 0.81351 0.68573 0.93556 0.0
C1171 C 0.79312 0.67428 0.04395 0.0
C1172 C 0.78705 0.67355 0.07578 0.0
C1173 C 0.79335 0.6833 0.09904 0.0
C1174 C 0.78709 0.68268 0.12894 0.0
C1175 C 0.77434 0.67234 0.13611 0.0
C1176 C 0.7682 0.66254 0.11263 0.0
C1177 C 0.77448 0.66315 0.08285 0.0
C1178 C 0.80856 0.72177 0.98917 0.0
C1179 C 0.83727 0.71637 0.04447 0.0
O1180 O 0.85043 0.73062 0.95627 0.0
O1181 O 0.8599 0.70905 0.93541 0.0
O1182 O 0.85411 0.68272 0.9712 0.0
O1183 O 0.83961 0.6885 1.00839 0.0
O1184 O 0.82372 0.69772 0.93375 0.0
O1185 O 0.80927 0.67964 0.96253 0.0
O1186 O 0.8081 0.67049 0.03967 0.0
O1187 O 0.78871 0.6866 0.02758 0.0
O1188 O 0.80287 0.71696 1.01536 0.0
O1189 O 0.81483 0.7105 0.97457 0.0
O1190 O 0.82728 0.70425 0.04789 0.0
O1191 O 0.8433 0.72041 0.01724 0.0
H1192 H 0.83419 0.7202 0.89465 0.0
H1193 H 0.83132 0.7302 0.84223 0.0
H1194 H 0.87666 0.75431 0.85038 0.0
H1195 H 0.87943 0.74411 0.90294 0.0
H1196 H 0.80301 0.69148 0.09401 0.0
H1197 H 0.79202 0.69051 0.14628 0.0
H1198 H 0.75858 0.65426 0.1173 0.0
H1199 H 0.76947 0.65551 0.06525 0.0
Nd1200 Nd 0.04514 0.08195 0.7279 0.0
Nd1201 Nd 0.06568 0.06337 0.77569 0.0
C1202 C 0.02365 0.09281 0.68828 0.0
C1203 C 0.01945 0.09188 0.65522 0.0
C1204 C 0.02321 0.07849 0.63722 0.0
C1205 C 0.01874 0.07785 0.60611 0.0
C1206 C 0.01048 0.09061 0.59228 0.0
C1207 C 0.00685 0.104 0.61051 0.0
C1208 C 0.01128 0.1046 0.64153 0.0
C1209 C 0.06859 0.09897 0.75759 0.0
C1210 C 0.07599 0.06338 0.70164 0.0
C1211 C 0.08646 0.05245 0.81649 0.0
C1212 C 0.086 0.04764 0.84919 0.0
C1213 C 0.10017 0.04644 0.86614 0.0
C1214 C 0.09998 0.04058 0.89634 0.0
C1215 C 0.0856 0.03566 0.91012 0.0
C1216 C 0.07137 0.03731 0.89327 0.0
C1217 C 0.07156 0.04328 0.8632 0.0
C1218 C 0.04235 0.04563 0.74836 0.0
C1219 C 0.03235 0.07835 0.79989 0.0
O1220 O 0.02165 0.07991 0.70483 0.0
O1221 O 0.03665 0.10061 0.69544 0.0
O1222 O 0.06535 0.10107 0.72869 0.0
O1223 O 0.05938 0.0889 0.76918 0.0
O1224 O 0.06182 0.06923 0.69507 0.0
O1225 O 0.081 0.06175 0.73055 0.0
O1226 O 0.08483 0.06766 0.8103 0.0
O1227 O 0.07844 0.04334 0.79761 0.0
O1228 O 0.04609 0.04451 0.7773 0.0
O1229 O 0.05082 0.05606 0.73541 0.0
O1230 O 0.04646 0.07281 0.808 0.0
O1231 O 0.02866 0.08145 0.77084 0.0
H1232 H 0.02959 0.06853 0.64721 0.0
H1233 H 0.02192 0.06742 0.59281 0.0
H1234 H 0.00031 0.11396 0.60095 0.0
H1235 H 0.00819 0.11503 0.65496 0.0
H1236 H 0.11145 0.0497 0.85576 0.0
H1237 H 0.11117 0.03938 0.90852 0.0
H1238 H 0.06006 0.03388 0.90329 0.0
H1239 H 0.06045 0.04418 0.85063 0.0
Nd1240 Nd 0.66467 0.28979 0.48355 0.0
Nd1241 Nd 0.67808 0.31719 0.52267 0.0
C1242 C 0.65917 0.26669 0.44325 0.0
C1243 C 0.65924 0.26344 0.40986 0.0
C1244 C 0.67015 0.27082 0.3899 0.0
C1245 C 0.67032 0.26694 0.35853 0.0
C1246 C 0.65963 0.25555 0.34656 0.0
C1247 C 0.64858 0.24841 0.36668 0.0
C1248 C 0.64841 0.25232 0.39792 0.0
C1249 C 0.64347 0.31326 0.50017 0.0
C1250 C 0.68305 0.31966 0.44947 0.0
C1251 C 0.6829 0.33938 0.56501 0.0
C1252 C 0.68899 0.33881 0.59677 0.0
C1253 C 0.68899 0.35253 0.61515 0.0
C1254 C 0.6954 0.35209 0.6449 0.0
C1255 C 0.70193 0.3379 0.65681 0.0
C1256 C 0.70167 0.32412 0.6383 0.0
C1257 C 0.69525 0.32458 0.60864 0.0
C1258 C 0.69965 0.2935 0.51167 0.0
C1259 C 0.66202 0.2848 0.55617 0.0
O1260 O 0.67297 0.269 0.45658 0.0
O1261 O 0.64802 0.27612 0.4537 0.0
O1262 O 0.63989 0.29819 0.49965 0.0
O1263 O 0.65749 0.31535 0.49077 0.0
O1264 O 0.67914 0.30443 0.4492 0.0
O1265 O 0.68167 0.32844 0.47464 0.0
O1266 O 0.66905 0.33261 0.56034 0.0
O1267 O 0.69325 0.33589 0.54363 0.0
O1268 O 0.70335 0.30849 0.51268 0.0
O1269 O 0.68509 0.2915 0.51735 0.0
O1270 O 0.66584 0.30016 0.55858 0.0
O1271 O 0.66258 0.27735 0.52954 0.0
H1272 H 0.67867 0.27942 0.3986 0.0
H1273 H 0.67906 0.2726 0.34382 0.0
H1274 H 0.63998 0.23982 0.35827 0.0
H1275 H 0.63986 0.24651 0.41288 0.0
H1276 H 0.68414 0.3636 0.60642 0.0
H1277 H 0.69517 0.36286 0.65859 0.0
H1278 H 0.70676 0.31304 0.64641 0.0
H1279 H 0.69537 0.31386 0.59476 0.0
C1280 C 0.08645 0.45615 0.23446 0.0
C1281 C 0.08959 0.46349 0.20604 0.0
C1282 C 0.08952 0.46414 0.26203 0.0
C1283 C 0.09438 0.50487 0.29339 0.0
H1284 H 0.10894 0.48234 0.36591 0.0
C1285 C 0.1071 0.53714 0.40873 0.0
C1286 C 0.1013 0.52962 0.43537 0.0
C1287 C 0.10702 0.52917 0.38045 0.0
C1288 C 0.10477 0.48879 0.34592 0.0
H1289 H 0.09894 0.48487 0.18446 0.0
H1290 H 0.10456 0.4987 0.23256 0.0
H1291 H 0.10678 0.4682 0.31716 0.0
H1292 H 0.09127 0.50765 0.45325 0.0
H1293 H 0.09095 0.49385 0.40402 0.0
H1294 H 0.09227 0.52544 0.32225 0.0
C1295 C 0.09944 0.48685 0.23352 0.0
C1296 C 0.10352 0.48067 0.31794 0.0
C1297 C 0.09633 0.47886 0.20591 0.0
C1298 C 0.09564 0.51387 0.43313 0.0
C1299 C 0.09563 0.50588 0.40494 0.0
C1300 C 0.09568 0.513 0.32136 0.0
C1301 C 0.09586 0.47969 0.26195 0.0
C1302 C 0.09814 0.48856 0.29135 0.0
C1303 C 0.10124 0.51344 0.3782 0.0
C1304 C 0.10072 0.50502 0.34806 0.0
H1305 H 0.08119 0.44436 0.23551 0.0
H1306 H 0.08642 0.45831 0.28341 0.0
H1307 H 0.08996 0.51129 0.27355 0.0
H1308 H 0.11146 0.54929 0.40962 0.0
H1309 H 0.11155 0.53529 0.36035 0.0
C1310 C 0.72701 0.82675 0.67509 0.0
C1311 C 0.71331 0.83592 0.68094 0.0
C1312 C 0.73457 0.82733 0.64642 0.0
C1313 C 0.72833 0.83742 0.56446 0.0
H1314 H 0.77447 0.83888 0.56255 0.0
C1315 C 0.76436 0.84273 0.44981 0.0
C1316 C 0.77863 0.83398 0.448 0.0
C1317 C 0.75603 0.84394 0.47777 0.0
C1318 C 0.76159 0.83828 0.56251 0.0
H1319 H 0.69674 0.85273 0.66076 0.0
H1320 H 0.70996 0.85373 0.61064 0.0
H1321 H 0.76068 0.83885 0.61167 0.0
H1322 H 0.79499 0.81933 0.47438 0.0
H1323 H 0.78055 0.82123 0.52226 0.0
H1324 H 0.72927 0.83655 0.51522 0.0
C1325 C 0.71483 0.84607 0.62833 0.0
C1326 C 0.75366 0.83829 0.59081 0.0
C1327 C 0.70732 0.8456 0.65717 0.0
C1328 C 0.78422 0.82641 0.47478 0.0
C1329 C 0.77592 0.82756 0.5025 0.0
C1330 C 0.73629 0.8373 0.53605 0.0
C1331 C 0.72862 0.83701 0.62264 0.0
C1332 C 0.73693 0.83769 0.59224 0.0
C1333 C 0.76174 0.8364 0.50459 0.0
C1334 C 0.75306 0.83753 0.53466 0.0
H1335 H 0.73207 0.81928 0.69288 0.0
H1336 H 0.74506 0.82006 0.64282 0.0
H1337 H 0.71544 0.83684 0.56467 0.0
H1338 H 0.75967 0.8487 0.4297 0.0
H1339 H 0.74522 0.85096 0.47844 0.0
C1340 C 0.41028 0.54753 0.72799 0.0
C1341 C 0.40843 0.53922 0.70016 0.0
C1342 C 0.41007 0.53948 0.75611 0.0
C1343 C 0.3983 0.50172 0.79434 0.0
H1344 H 0.43018 0.51452 0.85398 0.0
C1345 C 0.40901 0.4666 0.9077 0.0
C1346 C 0.41239 0.47548 0.93435 0.0
C1347 C 0.40835 0.47401 0.87884 0.0
C1348 C 0.42105 0.51089 0.83782 0.0
H1349 H 0.40434 0.51587 0.68029 0.0
H1350 H 0.40392 0.50176 0.72953 0.0
H1351 H 0.42883 0.52803 0.8046 0.0
H1352 H 0.41738 0.49925 0.9514 0.0
H1353 H 0.41614 0.51215 0.90136 0.0
H1354 H 0.39047 0.48462 0.82773 0.0
C1355 C 0.4055 0.51458 0.72952 0.0
C1356 C 0.42029 0.51866 0.8094 0.0
C1357 C 0.40573 0.52267 0.70127 0.0
C1358 C 0.41504 0.49197 0.93135 0.0
C1359 C 0.41433 0.49938 0.90256 0.0
C1360 C 0.39903 0.49396 0.82288 0.0
C1361 C 0.40797 0.52285 0.75728 0.0
C1362 C 0.40884 0.51426 0.78733 0.0
C1363 C 0.41101 0.49052 0.87584 0.0
C1364 C 0.41037 0.4985 0.8451 0.0
H1365 H 0.41215 0.56029 0.72813 0.0
H1366 H 0.41165 0.54631 0.777 0.0
H1367 H 0.38924 0.49811 0.77803 0.0
H1368 H 0.40708 0.45384 0.90907 0.0
H1369 H 0.406 0.46673 0.8588 0.0
C1370 C 0.76048 0.16761 0.17598 0.0
C1371 C 0.77229 0.15638 0.18341 0.0
C1372 C 0.75389 0.16818 0.14645 0.0
C1373 C 0.74841 0.14411 0.07541 0.0
H1374 H 0.73659 0.18502 0.04086 0.0
C1375 C 0.72134 0.15199 0.95216 0.0
C1376 C 0.70809 0.16221 0.95058 0.0
C1377 C 0.73039 0.15089 0.97929 0.0
C1378 C 0.73976 0.17348 0.05022 0.0
H1379 H 0.78661 0.1371 0.16514 0.0
H1380 H 0.77522 0.13817 0.11354 0.0
H1381 H 0.75017 0.18399 0.09023 0.0
H1382 H 0.69416 0.17941 0.97643 0.0
H1383 H 0.70974 0.17747 0.02308 0.0
H1384 H 0.7379 0.13367 0.03514 0.0
C1385 C 0.77084 0.14638 0.13075 0.0
C1386 C 0.74751 0.17288 0.07864 0.0
C1387 C 0.7774 0.14578 0.16037 0.0
C1388 C 0.70418 0.1713 0.97667 0.0
C1389 C 0.71324 0.17033 1.00348 0.0
C1390 C 0.74071 0.14473 0.0468 0.0
C1391 C 0.75896 0.15759 0.12337 0.0
C1392 C 0.75169 0.15818 0.09197 0.0
C1393 C 0.7265 0.16017 1.0052 0.0
C1394 C 0.73602 0.15942 0.03414 0.0
H1395 H 0.75601 0.17577 0.19322 0.0
H1396 H 0.74455 0.17676 0.14195 0.0
H1397 H 0.75131 0.13255 0.08498 0.0
H1398 H 0.7247 0.14482 0.93251 0.0
H1399 H 0.74058 0.14299 0.97984 0.0
C1400 C 0.89503 0.54232 0.14658 0.0
C1401 C 0.89573 0.53407 0.17468 0.0
C1402 C 0.89308 0.53411 0.11896 0.0
C1403 C 0.88136 0.49636 0.08214 0.0
H1404 H 0.91299 0.50878 0.02164 0.0
C1405 C 0.88082 0.47629 0.95355 0.0
C1406 C 0.89561 0.4721 0.94053 0.0
C1407 C 0.87997 0.48253 0.98339 0.0
C1408 C 0.90414 0.50509 0.03831 0.0
H1409 H 0.89385 0.51077 0.19592 0.0
H1410 H 0.89021 0.49634 0.1473 0.0
H1411 H 0.91215 0.52231 0.0711 0.0
H1412 H 0.92097 0.47044 0.94976 0.0
H1413 H 0.91948 0.48165 1.00126 0.0
H1414 H 0.87332 0.47916 0.04893 0.0
C1415 C 0.89124 0.50921 0.14685 0.0
C1416 C 0.90355 0.51295 0.06656 0.0
C1417 C 0.89326 0.51747 0.17468 0.0
C1418 C 0.90942 0.47389 0.95857 0.0
C1419 C 0.90857 0.48026 0.98821 0.0
C1420 C 0.88181 0.48859 0.05357 0.0
C1421 C 0.89172 0.51742 0.11863 0.0
C1422 C 0.89214 0.50874 0.0888 0.0
C1423 C 0.89387 0.48487 1.00083 0.0
C1424 C 0.89325 0.49286 0.03137 0.0
H1425 H 0.8967 0.55512 0.14573 0.0
H1426 H 0.89317 0.54081 0.09767 0.0
H1427 H 0.87243 0.49287 0.09881 0.0
H1428 H 0.86994 0.47527 0.94035 0.0
H1429 H 0.86848 0.48609 0.99238 0.0
C1430 C 0.22971 0.17457 0.91011 0.0
C1431 C 0.21397 0.18025 0.91088 0.0
C1432 C 0.23758 0.17233 0.88208 0.0
C1433 C 0.22941 0.167 0.7987 0.0
H1434 H 0.27477 0.17474 0.79056 0.0
C1435 C 0.2616 0.16593 0.68134 0.0
C1436 C 0.27646 0.15823 0.67987 0.0
C1437 C 0.25415 0.1686 0.70959 0.0
C1438 C 0.26213 0.17237 0.79256 0.0
H1439 H 0.19437 0.18858 0.88267 0.0
H1440 H 0.20815 0.18505 0.83398 0.0
H1441 H 0.26158 0.18009 0.83942 0.0
H1442 H 0.29515 0.14736 0.70706 0.0
H1443 H 0.28208 0.15199 0.75653 0.0
H1444 H 0.22995 0.15948 0.7517 0.0
C1445 C 0.21433 0.18191 0.85496 0.0
C1446 C 0.25454 0.17542 0.8206 0.0
C1447 C 0.20644 0.18404 0.88297 0.0
C1448 C 0.28366 0.15322 0.70739 0.0
C1449 C 0.27625 0.15602 0.73573 0.0
C1450 C 0.23697 0.16406 0.77063 0.0
C1451 C 0.22994 0.17582 0.85407 0.0
C1452 C 0.23807 0.17278 0.82408 0.0
C1453 C 0.26139 0.16372 0.73716 0.0
C1454 C 0.25342 0.1667 0.7672 0.0
H1455 H 0.23586 0.17142 0.93114 0.0
H1456 H 0.24951 0.16743 0.88239 0.0
H1457 H 0.21679 0.16448 0.80059 0.0
H1458 H 0.25565 0.1698 0.66056 0.0
H1459 H 0.24277 0.17468 0.70987 0.0
C1460 C 0.59196 0.52971 0.45822 0.0
C1461 C 0.58209 0.52434 0.43421 0.0
C1462 C 0.59129 0.52258 0.4874 0.0
C1463 C 0.5655 0.49616 0.53592 0.0
H1464 H 0.60399 0.49062 0.58402 0.0
C1465 C 0.56821 0.45356 0.63965 0.0
C1466 C 0.57574 0.45888 0.6667 0.0
C1467 C 0.56921 0.46235 0.61242 0.0
C1468 C 0.59311 0.49224 0.57101 0.0
H1469 H 0.56407 0.50691 0.42205 0.0
H1470 H 0.56309 0.49435 0.47235 0.0
H1471 H 0.6053 0.50423 0.53442 0.0
H1472 H 0.59046 0.47765 0.68592 0.0
H1473 H 0.59239 0.49296 0.63796 0.0
H1474 H 0.5534 0.4838 0.57216 0.0
C1475 C 0.57105 0.50438 0.46912 0.0
C1476 C 0.59383 0.50008 0.54253 0.0
C1477 C 0.57163 0.51158 0.44011 0.0
C1478 C 0.5845 0.47319 0.66558 0.0
C1479 C 0.58566 0.48193 0.63807 0.0
C1480 C 0.56481 0.4882 0.56417 0.0
C1481 C 0.58081 0.50979 0.49332 0.0
C1482 C 0.58005 0.50203 0.52437 0.0
C1483 C 0.57788 0.47668 0.61123 0.0
C1484 C 0.57862 0.48599 0.58197 0.0
H1485 H 0.60006 0.5396 0.4546 0.0
H1486 H 0.59885 0.52727 0.50542 0.0
H1487 H 0.55453 0.49773 0.52317 0.0
H1488 H 0.5613 0.44264 0.63946 0.0
H1489 H 0.56325 0.45782 0.59213 0.0
C1490 C 0.28946 0.84428 0.38219 0.0
C1491 C 0.28088 0.84653 0.4096 0.0
C1492 C 0.28187 0.8453 0.35372 0.0
C1493 C 0.24548 0.85862 0.31298 0.0
H1494 H 0.25579 0.82355 0.2585 0.0
C1495 C 0.20978 0.84561 0.20119 0.0
C1496 C 0.21841 0.84039 0.17539 0.0
C1497 C 0.2172 0.84712 0.2299 0.0
C1498 C 0.25289 0.83356 0.27316 0.0
H1499 H 0.25777 0.85264 0.42839 0.0
H1500 H 0.24448 0.85452 0.37845 0.0
H1501 H 0.26923 0.82581 0.30774 0.0
H1502 H 0.24177 0.83311 0.1595 0.0
H1503 H 0.25471 0.83584 0.20925 0.0
H1504 H 0.22913 0.86637 0.2782 0.0
C1505 C 0.25712 0.85196 0.37909 0.0
C1506 C 0.26062 0.83486 0.30148 0.0
C1507 C 0.26475 0.85094 0.40773 0.0
C1508 C 0.23468 0.83685 0.17898 0.0
C1509 C 0.2421 0.83842 0.20758 0.0
C1510 C 0.23776 0.85736 0.28448 0.0
C1511 C 0.26549 0.8486 0.35183 0.0
C1512 C 0.2571 0.84744 0.3217 0.0
C1513 C 0.23347 0.84351 0.23351 0.0
C1514 C 0.24143 0.84484 0.26412 0.0
H1515 H 0.30194 0.84102 0.38272 0.0
H1516 H 0.28876 0.84302 0.33315 0.0
H1517 H 0.24254 0.86849 0.32795 0.0
H1518 H 0.1972 0.84828 0.19932 0.0
H1519 H 0.21011 0.85085 0.24937 0.0
C1520 C 0.58544 0.02472 0.9147 0.0
C1521 C 0.59898 0.02764 0.93295 0.0
C1522 C 0.58681 0.01715 0.88621 0.0
C1523 C 0.6149 0.00718 0.82377 0.0
H1524 H 0.58473 0.97322 0.80694 0.0
C1525 C 0.60598 0.9769 0.70395 0.0
C1526 C 0.60291 0.96041 0.70396 0.0
C1527 C 0.60746 0.98527 0.73173 0.0
C1528 C 0.59333 0.98259 0.81134 0.0
H1529 H 0.62469 0.02503 0.93487 0.0
H1530 H 0.62706 0.01205 0.88488 0.0
H1531 H 0.58308 0.98781 0.85519 0.0
H1532 H 0.60018 0.93961 0.73324 0.0
H1533 H 0.60282 0.95413 0.78132 0.0
H1534 H 0.6251 0.00189 0.77966 0.0
C1535 C 0.61538 0.0157 0.89273 0.0
C1536 C 0.59226 0.99108 0.83887 0.0
C1537 C 0.614 0.02318 0.9214 0.0
C1538 C 0.60237 0.95234 0.73229 0.0
C1539 C 0.60378 0.96068 0.75993 0.0
C1540 C 0.61586 -0.00124 0.79597 0.0
C1541 C 0.60177 0.01238 0.875 0.0
C1542 C 0.60302 0.00348 0.84547 0.0
C1543 C 0.60584 0.97731 0.76004 0.0
C1544 C 0.60512 0.98631 0.78951 0.0
H1545 H 0.57371 0.0283 0.9224 0.0
H1546 H 0.57611 0.01502 0.87288 0.0
H1547 H 0.62331 0.01672 0.8281 0.0
H1548 H 0.60638 0.98351 0.68258 0.0
H1549 H 0.60902 -0.00191 0.73104 0.0
C1550 C 0.25619 0.33751 0.94885 0.0
C1551 C 0.27275 0.33498 0.9491 0.0
C1552 C 0.2478 0.33941 0.97648 0.0
C1553 C 0.25293 0.34954 0.05866 0.0
H1554 H 0.21549 0.32325 0.07167 0.0
C1555 C 0.22753 0.33919 0.17986 0.0
C1556 C 0.21092 0.33831 0.18374 0.0
C1557 C 0.23426 0.33962 0.1505 0.0
C1558 C 0.22577 0.33088 0.06833 0.0
H1559 H 0.29356 0.33316 0.97845 0.0
H1560 H 0.27904 0.3368 0.02632 0.0
H1561 H 0.22849 0.32344 0.02145 0.0
H1562 H 0.18837 0.33717 0.15958 0.0
H1563 H 0.2001 0.3381 0.10822 0.0
H1564 H 0.25032 0.35701 0.10534 0.0
C1565 C 0.27249 0.33723 1.0049 0.0
C1566 C 0.23322 0.33098 0.0395 0.0
C1567 C 0.28081 0.3351 0.97742 0.0
C1568 C 0.20121 0.3377 0.15741 0.0
C1569 C 0.20796 0.33822 0.12795 0.0
C1570 C 0.24545 0.34953 0.08736 0.0
C1571 C 0.25585 0.33912 1.00485 0.0
C1572 C 0.24704 0.34013 0.03449 0.0
C1573 C 0.22459 0.33928 0.12408 0.0
C1574 C 0.23192 0.33999 0.0928 0.0
H1575 H 0.24962 0.33738 0.92745 0.0
H1576 H 0.235 0.34095 0.97569 0.0
H1577 H 0.26342 0.3569 0.05542 0.0
H1578 H 0.23538 0.33937 0.19961 0.0
H1579 H 0.24712 0.34003 0.14855 0.0
C1580 C 0.91005 0.01507 0.20205 0.0
C1581 C 0.91821 0.02971 0.20049 0.0
C1582 C 0.90906 0.00662 0.22988 0.0
C1583 C 0.91353 0.01223 0.31454 0.0
H1584 H 0.91716 0.96617 0.31632 0.0
C1585 C 0.92316 0.97777 0.42796 0.0
C1586 C 0.91462 0.9635 0.43234 0.0
C1587 C 0.92321 0.98544 0.39938 0.0
C1588 C 0.91596 0.97902 0.31621 0.0
H1589 H 0.93208 0.04666 0.22712 0.0
H1590 H 0.93051 0.03202 0.27498 0.0
H1591 H 0.91774 0.9802 0.26711 0.0
H1592 H 0.89967 0.94599 0.40961 0.0
H1593 H 0.89967 0.95945 0.3598 0.0
H1594 H 0.91191 0.0111 0.36358 0.0
C1595 C 0.92451 0.02716 0.25503 0.0
C1596 C 0.91626 0.98708 0.28795 0.0
C1597 C 0.92546 0.03558 0.22737 0.0
C1598 C 0.90626 0.95703 0.4072 0.0
C1599 C 0.90639 0.96467 0.37852 0.0
C1600 C 0.91329 0.00419 0.34273 0.0
C1601 C 0.91623 0.0126 0.25682 0.0
C1602 C 0.9152 0.00382 0.28673 0.0
C1603 C 0.91478 0.97905 0.37429 0.0
C1604 C 0.91463 0.98749 0.34401 0.0
H1605 H 0.90431 0.01017 0.18184 0.0
H1606 H 0.90246 0.99551 0.23037 0.0
H1607 H 0.91232 0.02508 0.3146 0.0
H1608 H 0.9296 0.9832 0.44682 0.0
H1609 H 0.92997 -0.00362 0.39692 0.0
C1610 C 0.21069 0.6505 0.47306 0.0
C1611 C 0.21831 0.65324 0.44476 0.0
C1612 C 0.21956 0.64788 0.49979 0.0
C1613 C 0.25848 0.65648 0.53468 0.0
H1614 H 0.24528 0.62502 0.59482 0.0
C1615 C 0.29312 0.64689 0.6489 0.0
C1616 C 0.28409 0.64371 0.67543 0.0
C1617 C 0.28594 0.64703 0.6198 0.0
C1618 C 0.24905 0.63401 0.57849 0.0
H1619 H 0.24129 0.65511 0.42235 0.0
H1620 H 0.25684 0.65061 0.46926 0.0
H1621 H 0.23137 0.62676 0.54581 0.0
H1622 H 0.26029 0.63853 0.69205 0.0
H1623 H 0.24776 0.639 0.64168 0.0
H1624 H 0.27587 0.66405 0.56763 0.0
C1625 C 0.24396 0.65052 0.47065 0.0
C1626 C 0.24109 0.63495 0.55028 0.0
C1627 C 0.23505 0.65296 0.44374 0.0
C1628 C 0.26768 0.64073 0.6721 0.0
C1629 C 0.26049 0.64097 0.64309 0.0
C1630 C 0.26638 0.65563 0.56304 0.0
C1631 C 0.2363 0.64808 0.49906 0.0
C1632 C 0.24558 0.64631 0.52813 0.0
C1633 C 0.26949 0.64409 0.61645 0.0
C1634 C 0.26166 0.6445 0.58553 0.0
H1635 H 0.19781 0.65061 0.47471 0.0
H1636 H 0.21326 0.6462 0.52126 0.0
H1637 H 0.26213 0.6655 0.5183 0.0
H1638 H 0.30582 0.64907 0.65058 0.0
H1639 H 0.29334 0.64926 0.59988 0.0
C1640 C 0.38989 0.0388 0.64092 0.0
C1641 C 0.39024 0.03026 0.66876 0.0
C1642 C 0.38901 0.03081 0.61281 0.0
C1643 C 0.38025 0.99227 0.57482 0.0
H1644 H 0.41133 0.00719 0.51539 0.0
C1645 C 0.38325 0.96936 0.44867 0.0
C1646 C 0.39849 0.96652 0.43628 0.0
C1647 C 0.3815 0.97654 0.47754 0.0
C1648 C 0.40265 0.00281 0.53176 0.0
H1649 H 0.3889 0.00662 0.68876 0.0
H1650 H 0.38717 0.99266 0.63952 0.0
H1651 H 0.40867 0.02087 0.56446 0.0
H1652 H 0.42383 0.96861 0.44541 0.0
H1653 H 0.42074 0.98133 0.49537 0.0
H1654 H 0.37435 0.9741 0.54198 0.0
C1655 C 0.38761 0.00557 0.63956 0.0
C1656 C 0.40098 0.01077 0.55978 0.0
C1657 C 0.38854 0.01358 0.66781 0.0
C1658 C 0.41191 0.97088 0.4538 0.0
C1659 C 0.41014 0.97815 0.48254 0.0
C1660 C 0.38182 0.98437 0.54658 0.0
C1661 C 0.3884 0.01408 0.61171 0.0
C1662 C 0.38977 0.00562 0.58169 0.0
C1663 C 0.39492 0.98117 0.4947 0.0
C1664 C 0.3931 0.98951 0.52475 0.0
H1665 H 0.39106 0.05166 0.64072 0.0
H1666 H 0.3893 0.03775 0.59182 0.0
H1667 H 0.37149 0.98803 0.59116 0.0
H1668 H 0.37262 0.96642 0.43576 0.0
H1669 H 0.3696 0.97885 0.48606 0.0
C1670 C 0.77707 0.6726 0.19403 0.0
C1671 C 0.76733 0.67182 0.16773 0.0
C1672 C 0.77042 0.67172 0.22358 0.0
C1673 C 0.73369 0.65858 0.26466 0.0
H1674 H 0.75005 0.68468 0.33108 0.0
C1675 C 0.69963 0.66637 0.37895 0.0
C1676 C 0.70832 0.66696 0.40658 0.0
C1677 C 0.7074 0.66626 0.35053 0.0
C1678 C 0.74546 0.67714 0.31291 0.0
H1679 H 0.74283 0.67004 0.15223 0.0
H1680 H 0.73131 0.66857 0.20343 0.0
H1681 H 0.7624 0.68617 0.28036 0.0
H1682 H 0.73214 0.66771 0.42579 0.0
H1683 H 0.74577 0.66743 0.37604 0.0
H1684 H 0.71666 0.64967 0.29706 0.0
C1685 C 0.74413 0.66949 0.20133 0.0
C1686 C 0.75255 0.678 0.28375 0.0
C1687 C 0.75076 0.67035 0.17185 0.0
C1688 C 0.72506 0.6672 0.405 0.0
C1689 C 0.73287 0.66718 0.37645 0.0
C1690 C 0.7266 0.65775 0.29374 0.0
C1691 C 0.75385 0.67005 0.22766 0.0
C1692 C 0.74668 0.66883 0.25911 0.0
C1693 C 0.72413 0.66677 0.34881 0.0
C1694 C 0.73228 0.66711 0.31823 0.0
H1695 H 0.78988 0.67356 0.19181 0.0
H1696 H 0.77833 0.67201 0.24323 0.0
H1697 H 0.72903 0.65106 0.24654 0.0
H1698 H 0.68674 0.66612 0.37918 0.0
H1699 H 0.70024 0.66614 0.32984 0.0
C1700 C 0.09108 0.9771 0.17267 0.0
C1701 C 0.08379 0.96197 0.173 0.0
C1702 C 0.09187 0.98604 0.14535 0.0
C1703 C 0.07118 0.99079 0.07117 0.0
H1704 H 0.11015 0.01046 0.04196 0.0
C1705 C 0.07616 0.01468 0.9473 0.0
C1706 C 0.08548 0.02829 0.94141 0.0
C1707 C 0.07615 0.00751 0.97635 0.0
C1708 C 0.09907 0.00528 0.04994 0.0
H1709 H 0.07169 0.94446 0.14449 0.0
H1710 H 0.07297 0.95997 0.09755 0.0
H1711 H 0.10993 -0.00337 0.09145 0.0
H1712 H 0.10203 0.04508 0.9618 0.0
H1713 H 0.10179 0.03278 1.0127 0.0
H1714 H 0.06017 -0.00051 0.03022 0.0
C1715 C 0.07808 0.96496 0.1183 0.0
C1716 C 0.09899 -0.00269 0.07834 0.0
C1717 C 0.07748 0.95599 0.14531 0.0
C1718 C 0.09481 0.03454 0.96544 0.0
C1719 C 0.0947 0.02743 0.99466 0.0
C1720 C 0.0712 -0.00113 0.04304 0.0
C1721 C 0.08513 0.98015 0.11795 0.0
C1722 C 0.0851 0.98973 0.08902 0.0
C1723 C 0.08536 0.01379 1.00058 0.0
C1724 C 0.08521 0.00601 0.03165 0.0
H1725 H 0.09602 0.9821 0.19354 0.0
H1726 H 0.09736 -0.00226 0.14583 0.0
H1727 H 0.0602 0.98532 0.079 0.0
H1728 H 0.06907 0.00934 0.92922 0.0
H1729 H 0.06909 -0.00318 0.97958 0.0
C1730 C 0.71853 0.35035 0.69888 0.0
C1731 C 0.70932 0.33747 0.68808 0.0
C1732 C 0.72599 0.34966 0.72765 0.0
C1733 C 0.74058 0.3208 0.78536 0.0
H1734 H 0.7426 0.35772 0.83885 0.0
C1735 C 0.78211 0.3229 0.89096 0.0
C1736 C 0.77602 0.32934 0.91839 0.0
C1737 C 0.77365 0.32421 0.8634 0.0
C1738 C 0.74206 0.34727 0.82428 0.0
H1739 H 0.70035 0.31398 0.69988 0.0
H1740 H 0.71344 0.31275 0.74981 0.0
H1741 H 0.72803 0.35934 0.79031 0.0
H1742 H 0.75624 0.34244 0.93805 0.0
H1743 H 0.74147 0.34478 0.88981 0.0
H1744 H 0.75449 0.30868 0.81932 0.0
C1745 C 0.71509 0.3233 0.7358 0.0
C1746 C 0.73384 0.34825 0.7963 0.0
C1747 C 0.70758 0.324 0.7071 0.0
C1748 C 0.76132 0.33736 0.91739 0.0
C1749 C 0.75287 0.33876 0.8897 0.0
C1750 C 0.74886 0.31985 0.81321 0.0
C1751 C 0.7245 0.33606 0.74637 0.0
C1752 C 0.73301 0.33503 0.77644 0.0
C1753 C 0.75888 0.33207 0.8624 0.0
C1754 C 0.74976 0.33308 0.833 0.0
H1755 H 0.72035 0.36083 0.68476 0.0
H1756 H 0.73331 0.35963 0.73486 0.0
H1757 H 0.74033 0.31043 0.77055 0.0
H1758 H 0.79339 0.31664 0.89072 0.0
H1759 H 0.77876 0.31913 0.84277 0.0
C1760 C 0.13735 0.3411 0.33471 0.0
C1761 C 0.13227 0.32516 0.33479 0.0
C1762 C 0.13249 0.35144 0.31145 0.0
C1763 C 0.11755 0.3512 0.23174 0.0
H1764 H 0.11027 0.39606 0.24801 0.0
C1765 C 0.09463 0.39701 0.14159 0.0
C1766 C 0.10233 0.41189 0.14156 0.0
C1767 C 0.09823 0.38568 0.1641 0.0
C1768 C 0.11239 0.38358 0.24313 0.0
H1769 H 0.11752 0.30766 0.31169 0.0
H1770 H 0.10865 0.32588 0.2713 0.0
H1771 H 0.11524 0.37793 0.29067 0.0
H1772 H 0.12032 0.42637 0.16397 0.0
H1773 H 0.1266 0.40659 0.20327 0.0
H1774 H 0.11449 0.35697 0.18409 0.0
C1775 C 0.11671 0.33029 0.28877 0.0
C1776 C 0.11524 0.37319 0.26753 0.0
C1777 C 0.12165 0.3199 0.31204 0.0
C1778 C 0.11421 0.41498 0.16345 0.0
C1779 C 0.11769 0.40374 0.1861 0.0
C1780 C 0.11455 0.3616 0.20731 0.0
C1781 C 0.1223 0.34611 0.28793 0.0
C1782 C 0.11808 0.35691 0.26213 0.0
C1783 C 0.10949 0.38914 0.18704 0.0
C1784 C 0.11218 0.37792 0.21277 0.0
H1785 H 0.1455 0.34544 0.3521 0.0
H1786 H 0.13719 0.36348 0.31136 0.0
H1787 H 0.11989 0.33879 0.22671 0.0
H1788 H 0.08539 0.39438 0.12494 0.0
H1789 H 0.09171 0.37452 0.16437 0.0
C1790 C 0.91696 0.87393 0.57806 0.0
C1791 C 0.9138 0.88643 0.59862 0.0
C1792 C 0.90635 0.87048 0.55427 0.0
C1793 C 0.86512 0.87512 0.528 0.0
H1794 H 0.88359 0.87104 0.4467 0.0
C1795 C 0.82564 0.86947 0.42028 0.0
C1796 C 0.83041 0.85838 0.39796 0.0
C1797 C 0.8359 0.87367 0.44422 0.0
C1798 C 0.87824 0.87195 0.46926 0.0
H1799 H 0.89677 0.90459 0.6115 0.0
H1800 H 0.87798 0.89836 0.57004 0.0
H1801 H 0.90083 0.87602 0.49075 0.0
H1802 H 0.84989 0.84368 0.38204 0.0
H1803 H 0.86773 0.85064 0.42425 0.0
H1804 H 0.84256 0.87072 0.50675 0.0
C1805 C 0.88873 0.89132 0.57226 0.0
C1806 C 0.88812 0.87483 0.49448 0.0
C1807 C 0.89945 0.89488 0.59594 0.0
C1808 C 0.84588 0.85214 0.39917 0.0
C1809 C 0.85612 0.85623 0.42326 0.0
C1810 C 0.85523 0.87209 0.5028 0.0
C1811 C 0.89227 0.87933 0.55078 0.0
C1812 C 0.88167 0.87639 0.52411 0.0
C1813 C 0.85116 0.86685 0.44639 0.0
C1814 C 0.86167 0.87044 0.4731 0.0
H1815 H 0.92794 0.8672 0.57957 0.0
H1816 H 0.90926 0.86101 0.53832 0.0
H1817 H 0.85985 0.87614 0.55063 0.0
H1818 H 0.81379 0.87457 0.41977 0.0
H1819 H 0.83181 0.88216 0.46118 0.0
C1820 C 0.36166 0.67767 0.82063 0.0
C1821 C 0.35266 0.67036 0.84391 0.0
C1822 C 0.36879 0.66843 0.79772 0.0
C1823 C 0.37904 0.62675 0.77585 0.0
H1824 H 0.37119 0.64191 0.693 0.0
C1825 C 0.37936 0.58493 0.67156 0.0
C1826 C 0.38791 0.58996 0.6456 0.0
C1827 C 0.37657 0.59545 0.69579 0.0
C1828 C 0.37365 0.63762 0.71599 0.0
H1829 H 0.34497 0.64777 0.86293 0.0
H1830 H 0.35734 0.63164 0.82307 0.0
H1831 H 0.36491 0.65901 0.73667 0.0
H1832 H 0.39974 0.60996 0.6239 0.0
H1833 H 0.39453 0.62857 0.66617 0.0
H1834 H 0.38728 0.60514 0.75506 0.0
C1835 C 0.35901 0.64444 0.82238 0.0
C1836 C 0.37013 0.64743 0.74103 0.0
C1837 C 0.35187 0.65367 0.8452 0.0
C1838 C 0.39307 0.60585 0.64369 0.0
C1839 C 0.39012 0.61646 0.66783 0.0
C1840 C 0.38246 0.61691 0.75083 0.0
C1841 C 0.36712 0.65173 0.79782 0.0
C1842 C 0.37255 0.64201 0.77128 0.0
C1843 C 0.3821 0.61125 0.69436 0.0
C1844 C 0.37954 0.62215 0.72068 0.0
H1845 H 0.36246 0.69054 0.81913 0.0
H1846 H 0.3752 0.67439 0.77942 0.0
H1847 H 0.38129 0.62231 0.79881 0.0
H1848 H 0.37531 0.57271 0.67369 0.0
H1849 H 0.37014 0.59119 0.71576 0.0
C1850 C 0.63814 0.14676 0.90809 0.0
C1851 C 0.65352 0.14025 0.90716 0.0
C1852 C 0.62788 0.14318 0.93247 0.0
C1853 C 0.62815 0.12889 1.01267 0.0
H1854 H 0.58398 0.11798 0.99711 0.0
C1855 C 0.58851 0.09591 0.10015 0.0
C1856 C 0.57216 0.09936 0.10079 0.0
C1857 C 0.59843 0.10327 0.07864 0.0
C1858 C 0.59621 0.1213 1.00195 0.0
H1859 H 0.67016 0.1246 0.93037 0.0
H1860 H 0.65223 0.11817 0.97266 0.0
H1861 H 0.60111 0.12581 0.95447 0.0
H1862 H 0.55352 0.11399 0.08106 0.0
H1863 H 0.57091 0.12708 0.04377 0.0
H1864 H 0.62332 0.12416 0.06009 0.0
C1865 C 0.64815 0.12626 0.95493 0.0
C1866 C 0.60603 0.12573 0.97748 0.0
C1867 C 0.65836 0.1298 0.93055 0.0
C1868 C 0.56608 0.11106 0.08094 0.0
C1869 C 0.57601 0.11843 0.05942 0.0
C1870 C 0.61833 0.12449 0.03715 0.0
C1871 C 0.63286 0.13302 0.95632 0.0
C1872 C 0.62216 0.12933 0.98251 0.0
C1873 C 0.5922 0.11428 0.05744 0.0
C1874 C 0.60229 0.12042 0.03202 0.0
H1875 H 0.63414 0.15482 0.89024 0.0
H1876 H 0.61619 0.14861 0.93297 0.0
H1877 H 0.64048 0.13189 0.01733 0.0
H1878 H 0.59348 0.08694 0.11527 0.0
H1879 H 0.61081 0.09969 0.0776 0.0
C1880 C 0.09529 0.60282 0.59626 0.0
C1881 C 0.07873 0.60489 0.59457 0.0
C1882 C 0.10524 0.60946 0.57401 0.0
C1883 C 0.10399 0.62271 0.49342 0.0
H1884 H 0.14752 0.63557 0.51042 0.0
C1885 C 0.14768 0.64638 0.40073 0.0
C1886 C 0.16295 0.63959 0.4011 0.0
C1887 C 0.13692 0.64324 0.42445 0.0
C1888 C 0.1354 0.63194 0.50537 0.0
H1889 H 0.05959 0.61639 0.56967 0.0
H1890 H 0.07704 0.62843 0.53103 0.0
H1891 H 0.12947 0.62984 0.55296 0.0
H1892 H 0.17899 0.62411 0.42617 0.0
H1893 H 0.16017 0.61866 0.46784 0.0
H1894 H 0.11 0.62492 0.44576 0.0
C1895 C 0.08232 0.62132 0.54912 0.0
C1896 C 0.12506 0.62866 0.5297 0.0
C1897 C 0.07234 0.61459 0.5714 0.0
C1898 C 0.16723 0.62939 0.42528 0.0
C1899 C 0.15655 0.62642 0.44922 0.0
C1900 C 0.11429 0.62617 0.46911 0.0
C1901 C 0.09885 0.61845 0.5497 0.0
C1902 C 0.1093 0.62371 0.52403 0.0
C1903 C 0.14133 0.63341 0.44913 0.0
C1904 C 0.13017 0.63054 0.47486 0.0
H1905 H 0.10052 0.59539 0.61396 0.0
H1906 H 0.11785 0.60681 0.57507 0.0
H1907 H 0.09203 0.61868 0.48814 0.0
H1908 H 0.14415 0.65434 0.38234 0.0
H1909 H 0.12529 0.64884 0.42392 0.0
C1910 C 0.59836 0.89449 0.65924 0.0
C1911 C 0.60822 0.90775 0.6541 0.0
C1912 C 0.60041 0.88504 0.68543 0.0
C1913 C 0.61797 0.88649 0.76357 0.0
H1914 H 0.61382 0.84051 0.75976 0.0
C1915 C 0.64257 0.84288 0.85466 0.0
C1916 C 0.63449 0.82843 0.85919 0.0
C1917 C 0.63679 0.85404 0.83358 0.0
C1918 C 0.6147 0.85337 0.7614 0.0
H1919 H 0.62849 0.92107 0.67135 0.0
H1920 H 0.63237 0.90437 0.71654 0.0
H1921 H 0.60976 0.85628 0.71354 0.0
H1922 H 0.61375 0.81452 0.84689 0.0
H1923 H 0.60329 0.83423 0.81074 0.0
H1924 H 0.62335 0.88346 0.81137 0.0
C1925 C 0.62275 0.90149 0.70089 0.0
C1926 C 0.61243 0.86241 0.73482 0.0
C1927 C 0.62068 0.91093 0.67475 0.0
C1928 C 0.61995 0.82578 0.84422 0.0
C1929 C 0.61414 0.83694 0.82319 0.0
C1930 C 0.6203 0.87742 0.79018 0.0
C1931 C 0.61245 0.88862 0.70688 0.0
C1932 C 0.61423 0.87906 0.73547 0.0
C1933 C 0.6229 0.85083 0.81653 0.0
C1934 C 0.61883 0.86074 0.78933 0.0
H1935 H 0.58871 0.89176 0.64357 0.0
H1936 H 0.59223 0.87525 0.68936 0.0
H1937 H 0.61913 0.89933 0.76501 0.0
H1938 H 0.65407 0.8449 0.86534 0.0
H1939 H 0.64391 0.86454 0.8288 0.0
C1940 C 0.39515 0.38474 0.09815 0.0
C1941 C 0.40873 0.39346 0.0898 0.0
C1942 C 0.38467 0.37911 0.0755 0.0
C1943 C 0.38366 0.37126 0.99085 0.0
H1944 H 0.33836 0.36607 1.00489 0.0
C1945 C 0.33523 0.35982 0.89716 0.0
C1946 C 0.32687 0.3455 0.90165 0.0
C1947 C 0.34564 0.36549 0.91976 0.0
C1948 C 0.35101 0.36749 1.00081 0.0
H1949 H 0.42228 0.40255 0.05145 0.0
H1950 H 0.40358 0.39444 1.01259 0.0
H1951 H 0.35515 0.37702 0.04566 0.0
H1952 H 0.32238 0.32635 0.93381 0.0
H1953 H 0.34031 0.33627 0.97327 0.0
H1954 H 0.37924 0.3623 0.94549 0.0
C1955 C 0.40101 0.3914 0.03625 0.0
C1956 C 0.36067 0.37363 0.02417 0.0
C1957 C 0.41163 0.39651 0.05872 0.0
C1958 C 0.32904 0.33702 0.9291 0.0
C1959 C 0.33912 0.34285 0.95196 0.0
C1960 C 0.37394 0.3655 0.96733 0.0
C1961 C 0.38758 0.38225 0.04413 0.0
C1962 C 0.37715 0.37562 0.01951 0.0
C1963 C 0.34741 0.35716 0.94752 0.0
C1964 C 0.35759 0.36354 0.97219 0.0
H1965 H 0.39294 0.38183 0.12202 0.0
H1966 H 0.37463 0.37187 0.08255 0.0
H1967 H 0.39633 0.37209 0.98652 0.0
H1968 H 0.33352 0.36672 0.87637 0.0
H1969 H 0.35192 0.37663 0.91601 0.0
C1970 C 0.85838 0.1702 0.31777 0.0
C1971 C 0.84749 0.16459 0.33973 0.0
C1972 C 0.86416 0.15997 0.29503 0.0
C1973 C 0.869 0.11743 0.27544 0.0
H1974 H 0.87002 0.13293 0.19149 0.0
C1975 C 0.87894 0.07525 0.17321 0.0
C1976 C 0.88971 0.0804 0.15062 0.0
C1977 C 0.87368 0.08579 0.19583 0.0
C1978 C 0.86995 0.12849 0.21486 0.0
H1979 H 0.83453 0.14391 0.35606 0.0
H1980 H 0.84452 0.12605 0.31627 0.0
H1981 H 0.8618 0.15078 0.2328 0.0
H1982 H 0.90291 0.10064 0.13298 0.0
H1983 H 0.8938 0.11908 0.17268 0.0
H1984 H 0.87711 0.09513 0.25753 0.0
C1985 C 0.84867 0.13829 0.3166 0.0
C1986 C 0.86528 0.13871 0.23851 0.0
C1987 C 0.84288 0.14851 0.33927 0.0
C1988 C 0.89466 0.09638 0.15029 0.0
C1989 C 0.88938 0.10694 0.17291 0.0
C1990 C 0.87367 0.10721 0.2518 0.0
C1991 C 0.85922 0.14395 0.29401 0.0
C1992 C 0.8647 0.13326 0.26904 0.0
C1993 C 0.87903 0.10168 0.1962 0.0
C1994 C 0.87412 0.11261 0.22124 0.0
H1995 H 0.86214 0.18256 0.3177 0.0
H1996 H 0.87245 0.16462 0.27819 0.0
H1997 H 0.86889 0.11295 0.29879 0.0
H1998 H 0.87491 0.06298 0.17391 0.0
H1999 H 0.86548 0.08146 0.21316 0.0
C2000 C 0.87777 0.58644 0.2021 0.0
C2001 C 0.89222 0.58817 0.21798 0.0
C2002 C 0.87455 0.59564 0.17619 0.0
C2003 C 0.88666 0.63217 0.13444 0.0
H2004 H 0.8631 0.61195 0.06829 0.0
C2005 C 0.87103 0.66494 0.02145 0.0
C2006 C 0.85464 0.66481 1.01502 0.0
C2007 C 0.87732 0.6546 0.04355 0.0
C2008 C 0.86971 0.61773 0.08656 0.0
H2009 H 0.91423 0.60157 0.22047 0.0
H2010 H 0.90892 0.61739 0.17427 0.0
H2011 H 0.8711 0.59626 0.11282 0.0
H2012 H 0.83215 0.65334 0.02479 0.0
H2013 H 0.84311 0.63504 0.06313 0.0
H2014 H 0.88527 0.65363 0.10781 0.0
C2015 C 0.90002 0.60892 0.18192 0.0
C2016 C 0.87421 0.6088 0.11219 0.0
C2017 C 0.90315 0.59977 0.20819 0.0
C2018 C 0.84478 0.6537 0.02969 0.0
C2019 C 0.85108 0.64319 0.05139 0.0
C2020 C 0.88232 0.64105 0.10856 0.0
C2021 C 0.88577 0.60676 0.16531 0.0
C2022 C 0.88239 0.61599 0.13683 0.0
C2023 C 0.86733 0.64382 0.0591 0.0
C2024 C 0.87352 0.63399 0.08471 0.0
H2025 H 0.869 0.57771 0.20929 0.0
H2026 H 0.86324 0.59398 0.16465 0.0
H2027 H 0.89282 0.63814 0.15302 0.0
H2028 H 0.87881 0.67356 1.01054 0.0
H2029 H 0.8899 0.65525 0.04896 0.0
C2030 C 0.07889 0.10819 0.80776 0.0
C2031 C 0.0808 0.10736 0.77576 0.0
C2032 C 0.09061 0.11509 0.82609 0.0
C2033 C 0.13263 0.12082 0.83294 0.0
H2034 H 0.12105 0.15157 0.89556 0.0
C2035 C 0.17721 0.14393 0.92538 0.0
C2036 C 0.17095 0.14634 0.95494 0.0
C2037 C 0.16709 0.14026 0.9008 0.0
C2038 C 0.12447 0.14287 0.87841 0.0
H2039 H 0.09639 0.11305 0.73768 0.0
H2040 H 0.11739 0.12486 0.77026 0.0
H2041 H 0.10167 0.14405 0.85643 0.0
H2042 H 0.1495 0.14616 0.98244 0.0
H2043 H 0.1319 0.13908 0.93999 0.0
H2044 H 0.15516 0.11898 0.85582 0.0
C2045 C 0.10662 0.12034 0.78086 0.0
C2046 C 0.11342 0.13871 0.85584 0.0
C2047 C 0.09463 0.11369 0.7623 0.0
C2048 C 0.15457 0.14435 0.95982 0.0
C2049 C 0.1445 0.14053 0.93539 0.0
C2050 C 0.14368 0.12484 0.8558 0.0
C2051 C 0.10465 0.12107 0.81293 0.0
C2052 C 0.11726 0.12738 0.83334 0.0
C2053 C 0.15056 0.13879 0.90543 0.0
C2054 C 0.13956 0.1356 0.87931 0.0
H2055 H 0.06835 0.10337 0.81875 0.0
H2056 H 0.08888 0.11535 0.85075 0.0
H2057 H 0.13581 0.11194 0.81596 0.0
H2058 H 0.1898 0.14561 0.92096 0.0
H2059 H 0.17216 0.13912 0.87803 0.0
C2060 C 0.64027 0.34087 0.5201 0.0
C2061 C 0.63546 0.32484 0.52035 0.0
C2062 C 0.63499 0.35133 0.54286 0.0
C2063 C 0.60529 0.35685 0.60471 0.0
H2064 H 0.63858 0.38268 0.64157 0.0
C2065 C 0.5955 0.39149 0.71758 0.0
C2066 C 0.6009 0.40733 0.71786 0.0
C2067 C 0.59984 0.38123 0.69373 0.0
C2068 C 0.62912 0.37566 0.63136 0.0
H2069 H 0.62062 0.30735 0.54333 0.0
H2070 H 0.61137 0.32562 0.58314 0.0
H2071 H 0.64481 0.36571 0.59778 0.0
H2072 H 0.61562 0.42473 0.69432 0.0
H2073 H 0.62328 0.40682 0.65275 0.0
H2074 H 0.58962 0.36679 0.63844 0.0
C2075 C 0.61919 0.33014 0.56536 0.0
C2076 C 0.63267 0.36598 0.60619 0.0
C2077 C 0.62447 0.31967 0.54255 0.0
C2078 C 0.61131 0.41254 0.6947 0.0
C2079 C 0.6157 0.40228 0.6709 0.0
C2080 C 0.60174 0.36654 0.62991 0.0
C2081 C 0.62478 0.34595 0.56628 0.0
C2082 C 0.62079 0.3565 0.59253 0.0
C2083 C 0.60978 0.3866 0.66986 0.0
C2084 C 0.61362 0.37606 0.6435 0.0
H2085 H 0.64869 0.34515 0.50311 0.0
H2086 H 0.63926 0.36352 0.54261 0.0
H2087 H 0.59586 0.34978 0.59453 0.0
H2088 H 0.58754 0.38717 0.73534 0.0
H2089 H 0.5953 0.36913 0.69383 0.0
C2090 C 0.33185 0.8634 0.45069 0.0
C2091 C 0.33333 0.85058 0.47124 0.0
C2092 C 0.34316 0.86584 0.42777 0.0
C2093 C 0.38419 0.86003 0.40621 0.0
H2094 H 0.36828 0.86594 0.3233 0.0
C2095 C 0.42622 0.87579 0.30533 0.0
C2096 C 0.42066 0.88766 0.28528 0.0
C2097 C 0.41594 0.8688 0.32675 0.0
C2098 C 0.37293 0.86444 0.34632 0.0
H2099 H 0.34805 0.83057 0.48472 0.0
H2100 H 0.36829 0.83518 0.44475 0.0
H2101 H 0.3499 0.85863 0.36432 0.0
H2102 H 0.39995 0.90109 0.27089 0.0
H2103 H 0.38213 0.88934 0.30872 0.0
H2104 H 0.40709 0.86659 0.38865 0.0
C2105 C 0.3582 0.84316 0.44635 0.0
C2106 C 0.36241 0.86016 0.36974 0.0
C2107 C 0.34668 0.84055 0.46914 0.0
C2108 C 0.40456 0.89204 0.28626 0.0
C2109 C 0.39432 0.88517 0.30778 0.0
C2110 C 0.39472 0.8645 0.38281 0.0
C2111 C 0.35633 0.85566 0.42514 0.0
C2112 C 0.36789 0.85825 0.39998 0.0
C2113 C 0.3999 0.87358 0.32854 0.0
C2114 C 0.38914 0.86711 0.3527 0.0
H2115 H 0.32168 0.87132 0.45169 0.0
H2116 H 0.34158 0.87569 0.41196 0.0
H2117 H 0.38866 0.85869 0.42942 0.0
H2118 H 0.43859 0.87214 0.30491 0.0
H2119 H 0.42058 0.85975 0.34205 0.0
C2120 C 0.90883 0.39929 0.81211 0.0
C2121 C 0.90944 0.39515 0.78088 0.0
C2122 C 0.89931 0.39087 0.83245 0.0
C2123 C 0.86396 0.36629 0.839 0.0
H2124 H 0.88108 0.35992 0.92091 0.0
C2125 C 0.84322 0.34365 0.96847 0.0
C2126 C 0.82795 0.35041 0.96874 0.0
C2127 C 0.85346 0.34628 0.94365 0.0
C2128 C 0.8761 0.36127 0.89812 0.0
H2129 H 0.9005 0.37885 0.74635 0.0
H2130 H 0.88347 0.36384 0.78255 0.0
H2131 H 0.89863 0.36821 0.87965 0.0
H2132 H 0.81164 0.36586 0.94419 0.0
H2133 H 0.82975 0.37115 0.90174 0.0
H2134 H 0.84137 0.35932 0.85757 0.0
C2135 C 0.89049 0.37376 0.79096 0.0
C2136 C 0.88616 0.36618 0.87448 0.0
C2137 C 0.90019 0.3823 0.77032 0.0
C2138 C 0.82335 0.36044 0.94452 0.0
C2139 C 0.83363 0.36323 0.9199 0.0
C2140 C 0.85386 0.36121 0.86267 0.0
C2141 C 0.89015 0.37791 0.82232 0.0
C2142 C 0.88009 0.36938 0.84501 0.0
C2143 C 0.84874 0.356 0.9189 0.0
C2144 C 0.85972 0.35921 0.89278 0.0
H2145 H 0.91588 0.40903 0.82119 0.0
H2146 H 0.89904 0.39464 0.85625 0.0
H2147 H 0.85896 0.36863 0.81651 0.0
H2148 H 0.84704 0.33588 0.98694 0.0
H2149 H 0.86494 0.34043 0.94364 0.0
C2150 C 0.35802 0.17075 0.54939 0.0
C2151 C 0.3524 0.16376 0.52219 0.0
C2152 C 0.36267 0.16126 0.57414 0.0
C2153 C 0.35883 0.11957 0.60375 0.0
H2154 H 0.3891 0.13512 0.66393 0.0
C2155 C 0.39649 0.09529 0.71623 0.0
C2156 C 0.38555 0.08377 0.72623 0.0
C2157 C 0.39253 0.10574 0.69241 0.0
C2158 C 0.38079 0.13039 0.64722 0.0
H2159 H 0.34788 0.14149 0.49876 0.0
H2160 H 0.35721 0.12478 0.54097 0.0
H2161 H 0.38382 0.15074 0.6184 0.0
H2162 H 0.36128 0.07527 0.72179 0.0
H2163 H 0.35385 0.09429 0.68224 0.0
H2164 H 0.35673 0.09867 0.63121 0.0
C2165 C 0.35733 0.13758 0.54401 0.0
C2166 C 0.37751 0.13957 0.62117 0.0
C2167 C 0.35221 0.14712 0.51956 0.0
C2168 C 0.37008 0.08384 0.71405 0.0
C2169 C 0.36592 0.09462 0.69095 0.0
C2170 C 0.36246 0.11019 0.62931 0.0
C2171 C 0.36226 0.1445 0.57199 0.0
C2172 C 0.36636 0.13438 0.59914 0.0
C2173 C 0.37727 0.10533 0.67888 0.0
C2174 C 0.37338 0.1155 0.65165 0.0
H2175 H 0.35803 0.18359 0.5522 0.0
H2176 H 0.36601 0.16715 0.59529 0.0
H2177 H 0.34993 0.1152 0.58784 0.0
H2178 H 0.40836 0.09578 0.72593 0.0
H2179 H 0.40171 0.11368 0.68395 0.0
C2180 C 0.59194 0.60925 0.25753 0.0
C2181 C 0.57713 0.60461 0.26954 0.0
C2182 C 0.60356 0.61584 0.27698 0.0
C2183 C 0.60936 0.63582 0.3512 0.0
H2184 H 0.648 0.61092 0.35947 0.0
C2185 C 0.64688 0.6387 0.46099 0.0
C2186 C 0.6635 0.63843 0.45819 0.0
C2187 C 0.63724 0.63559 0.4355 0.0
C2188 C 0.63743 0.61821 0.35715 0.0
H2189 H 0.56244 0.60384 0.31046 0.0
H2190 H 0.58236 0.61581 0.34389 0.0
H2191 H 0.62972 0.60551 0.31703 0.0
H2192 H 0.68319 0.6343 0.42697 0.0
H2193 H 0.66641 0.62916 0.38234 0.0
H2194 H 0.61687 0.64846 0.3913 0.0
C2195 C 0.58514 0.61427 0.31977 0.0
C2196 C 0.62701 0.61513 0.33278 0.0
C2197 C 0.57378 0.60737 0.30066 0.0
C2198 C 0.67037 0.63441 0.42981 0.0
C2199 C 0.66075 0.63151 0.40421 0.0
C2200 C 0.61984 0.63903 0.37532 0.0
C2201 C 0.60025 0.61825 0.30834 0.0
C2202 C 0.61267 0.62361 0.33013 0.0
C2203 C 0.64406 0.63233 0.40662 0.0
C2204 C 0.63376 0.62993 0.37918 0.0
H2205 H 0.59479 0.60705 0.23364 0.0
H2206 H 0.61518 0.61879 0.26774 0.0
H2207 H 0.5984 0.64258 0.34949 0.0
H2208 H 0.64135 0.64179 0.48268 0.0
H2209 H 0.62443 0.63594 0.43838 0.0
C2210 C 0.12519 0.82559 0.05021 0.0
C2211 C 0.13654 0.82991 0.02804 0.0
C2212 C 0.1215 0.83594 0.07422 0.0
C2213 C 0.13824 0.86938 0.11822 0.0
H2214 H 0.0949 0.87357 0.14804 0.0
C2215 C 0.11833 0.91568 0.2092 0.0
C2216 C 0.10688 0.91072 0.23071 0.0
C2217 C 0.12293 0.90554 0.18537 0.0
C2218 C 0.1071 0.87235 0.14022 0.0
H2219 H 0.15234 0.84868 1.0125 0.0
H2220 H 0.14583 0.86694 0.05455 0.0
H2221 H 0.10023 0.85724 0.10293 0.0
H2222 H 0.09211 0.89099 0.24567 0.0
H2223 H 0.10023 0.87319 0.20411 0.0
H2224 H 0.14505 0.8846 0.15554 0.0
C2225 C 0.14 0.85541 0.05366 0.0
C2226 C 0.11014 0.86305 0.11433 0.0
C2227 C 0.14366 0.84504 0.02953 0.0
C2228 C 0.10086 0.89513 0.22917 0.0
C2229 C 0.10541 0.88501 0.20529 0.0
C2230 C 0.13518 0.87874 0.14412 0.0
C2231 C 0.12904 0.85087 0.07649 0.0
C2232 C 0.12575 0.86138 0.10313 0.0
C2233 C 0.11617 0.89027 0.18269 0.0
C2234 C 0.11959 0.88022 0.15549 0.0
H2235 H 0.11953 0.81397 0.04963 0.0
H2236 H 0.11312 0.83202 0.09158 0.0
H2237 H 0.15043 0.86814 0.11042 0.0
H2238 H 0.12317 0.92766 0.2099 0.0
H2239 H 0.1312 0.90994 0.16824 0.0
C2240 C 0.93981 0.504 0.23207 0.0
C2241 C 0.93919 0.51639 0.25348 0.0
C2242 C 0.95035 0.49144 0.23649 0.0
C2243 C 0.98993 0.49402 0.2581 0.0
H2244 H 0.99077 0.45421 0.21314 0.0
C2245 C 0.04133 0.47359 0.17692 0.0
C2246 C 0.03562 0.46726 0.14905 0.0
C2247 C 0.03072 0.47725 0.20057 0.0
C2248 C 0.99077 0.46525 0.22603 0.0
H2249 H 0.94685 0.52436 0.29853 0.0
H2250 H 0.96596 0.5027 0.30555 0.0
H2251 H 0.96742 0.46094 0.24388 0.0
H2252 H 0.01449 0.462 0.12238 0.0
H2253 H -0.00407 0.46909 0.16314 0.0
H2254 H 0.01261 0.49905 0.23783 0.0
C2255 C 0.95822 0.50254 0.28562 0.0
C2256 C 0.97755 0.46896 0.24398 0.0
C2257 C 0.94738 0.51496 0.28149 0.0
C2258 C 0.01916 0.46675 0.14371 0.0
C2259 C 0.0086 0.47042 0.16727 0.0
C2260 C 0.00315 0.49032 0.24011 0.0
C2261 C 0.9607 0.49146 0.26194 0.0
C2262 C 0.97646 0.484 0.2579 0.0
C2263 C 0.01434 0.47477 0.19641 0.0
C2264 C 0.00304 0.4765 0.22209 0.0
H2265 H 0.93332 0.50481 0.21059 0.0
H2266 H 0.95191 0.48305 0.21782 0.0
H2267 H 0.98947 0.50571 0.26867 0.0
H2268 H 0.05398 0.47416 0.18168 0.0
H2269 H 0.03538 0.48095 0.22266 0.0
C2270 C 0.78058 0.77348 0.3499 0.0
C2271 C 0.77956 0.79015 0.35031 0.0
C2272 C 0.76714 0.76436 0.35653 0.0
C2273 C 0.73532 0.77093 0.40968 0.0
H2274 H 0.72793 0.72581 0.39697 0.0
C2275 C 0.69541 0.72992 0.48482 0.0
C2276 C 0.70112 0.71431 0.48872 0.0
C2277 C 0.70395 0.74074 0.46691 0.0
C2278 C 0.72998 0.73842 0.40077 0.0
H2279 H 0.76348 0.81032 0.35178 0.0
H2280 H 0.7399 0.79435 0.36261 0.0
H2281 H 0.7417 0.74124 0.35747 0.0
H2282 H 0.72129 0.69859 0.48184 0.0
H2283 H 0.73633 0.71761 0.45104 0.0
H2284 H 0.724 0.76798 0.45337 0.0
C2285 C 0.7511 0.78834 0.35835 0.0
C2286 C 0.73765 0.74724 0.37806 0.0
C2287 C 0.76457 0.79746 0.35206 0.0
C2288 C 0.71651 0.71047 0.47862 0.0
C2289 C 0.725 0.72125 0.46069 0.0
C2290 C 0.72757 0.76212 0.43228 0.0
C2291 C 0.7526 0.77188 0.36336 0.0
C2292 C 0.7409 0.76347 0.38278 0.0
C2293 C 0.71828 0.73603 0.45308 0.0
C2294 C 0.72537 0.7457 0.42845 0.0
H2295 H 0.79201 0.76757 0.34799 0.0
H2296 H 0.76867 0.75166 0.35994 0.0
H2297 H 0.73789 0.78336 0.41432 0.0
H2298 H 0.68364 0.73325 0.49278 0.0
H2299 H 0.69867 0.7522 0.46171 0.0
C2300 C 0.51273 0.45173 0.76085 0.0
C2301 C 0.5291 0.45482 0.75808 0.0
C2302 C 0.50175 0.46314 0.75138 0.0
C2303 C 0.49749 0.50381 0.71874 0.0
H2304 H 0.47311 0.48159 0.65607 0.0
C2305 C 0.4716 0.53825 0.61916 0.0
C2306 C 0.45502 0.53648 0.61687 0.0
C2307 C 0.48049 0.52702 0.63529 0.0
C2308 C 0.47978 0.48792 0.67356 0.0
H2309 H 0.5469 0.47297 0.74887 0.0
H2310 H 0.5278 0.49281 0.732 0.0
H2311 H 0.48692 0.46636 0.69555 0.0
H2312 H 0.43509 0.52049 0.62472 0.0
H2313 H 0.45063 0.50086 0.65282 0.0
H2314 H 0.49062 0.52535 0.6962 0.0
C2315 C 0.52334 0.48163 0.74105 0.0
C2316 C 0.4875 0.47926 0.69642 0.0
C2317 C 0.53431 0.47023 0.75058 0.0
C2318 C 0.44785 0.52222 0.62666 0.0
C2319 C 0.45673 0.51099 0.64279 0.0
C2320 C 0.4898 0.51246 0.69583 0.0
C2321 C 0.50709 0.4777 0.73918 0.0
C2322 C 0.49663 0.48711 0.71892 0.0
C2323 C 0.47288 0.51389 0.64896 0.0
C2324 C 0.48114 0.50456 0.67274 0.0
H2325 H 0.50845 0.44001 0.76732 0.0
H2326 H 0.48921 0.46004 0.75092 0.0
H2327 H 0.5044 0.51013 0.73589 0.0
H2328 H 0.47746 0.54902 0.61129 0.0
H2329 H 0.49307 0.5292 0.63902 0.0
C2330 C 0.70634 0.22135 0.84632 0.0
C2331 C 0.70715 0.20477 0.84995 0.0
C2332 C 0.71959 0.23068 0.85333 0.0
C2333 C 0.74559 0.22536 0.91576 0.0
H2334 H 0.75633 0.26967 0.90139 0.0
C2335 C 0.7789 0.26559 1.00194 0.0
C2336 C 0.77562 0.28198 1.00044 0.0
C2337 C 0.77112 0.25509 0.98223 0.0
C2338 C 0.75323 0.25733 0.90576 0.0
H2339 H 0.72299 0.18463 0.85615 0.0
H2340 H 0.74616 0.20096 0.86835 0.0
H2341 H 0.74613 0.25347 0.85905 0.0
H2342 H 0.75949 0.29982 0.98216 0.0
H2343 H 0.74543 0.28133 0.94862 0.0
H2344 H 0.75182 0.22933 0.96269 0.0
C2345 C 0.73528 0.2068 0.86111 0.0
C2346 C 0.74771 0.24804 0.88142 0.0
C2347 C 0.72201 0.19747 0.85424 0.0
C2348 C 0.76251 0.28727 0.9832 0.0
C2349 C 0.75466 0.27676 0.96361 0.0
C2350 C 0.75099 0.23465 0.94007 0.0
C2351 C 0.73361 0.22339 0.86394 0.0
C2352 C 0.74346 0.23208 0.88641 0.0
C2353 C 0.75974 0.26085 0.96137 0.0
C2354 C 0.75443 0.25082 0.93549 0.0
H2355 H 0.69505 0.22721 0.84209 0.0
H2356 H 0.71804 0.24348 0.85478 0.0
H2357 H 0.74203 0.21319 0.92055 0.0
H2358 H 0.78876 0.26116 0.01554 0.0
H2359 H 0.77509 0.24282 0.98139 0.0
C2360 C 0.97518 0.46284 0.77756 0.0
C2361 C 0.96559 0.45856 0.75244 0.0
C2362 C 0.99114 0.46666 0.77314 0.0
C2363 C 0.02341 0.4683 0.7154 0.0
H2364 H 0.02583 0.51283 0.73928 0.0
C2365 C 0.06416 0.51418 0.65584 0.0
C2366 C 0.05449 0.52569 0.64159 0.0
C2367 C 0.05791 0.50425 0.67842 0.0
C2368 C 0.02558 0.5003 0.73316 0.0
H2369 H 0.96507 0.45383 0.70359 0.0
H2370 H 0.99296 0.46094 0.69554 0.0
H2371 H 0.00659 0.49538 0.76418 0.0
H2372 H 0.0308 0.53567 0.63884 0.0
H2373 H 0.01984 0.5185 0.67907 0.0
H2374 H 0.04151 0.47373 0.68243 0.0
C2375 C 0.98828 0.46103 0.71873 0.0
C2376 C 0.01468 0.49028 0.74749 0.0
C2377 C 0.9723 0.45721 0.72317 0.0
C2378 C 0.03851 0.52715 0.65011 0.0
C2379 C 0.03232 0.5174 0.67306 0.0
C2380 C 0.03444 0.47832 0.70127 0.0
C2381 C -0.00234 0.46631 0.74353 0.0
C2382 C 0.01277 0.47452 0.73717 0.0
C2383 C 0.04199 0.50588 0.68724 0.0
C2384 C 0.03476 0.49458 0.70872 0.0
H2385 H 0.97028 0.46361 0.80053 0.0
H2386 H -0.00183 0.47066 0.79255 0.0
H2387 H 0.0222 0.45613 0.70737 0.0
H2388 H 0.0766 0.51288 0.64968 0.0
H2389 H 0.06544 0.49529 0.68891 0.0
C2390 C 0.81444 0.74176 0.94891 0.0
C2391 C 0.80687 0.73785 0.97659 0.0
C2392 C 0.81051 0.75569 0.93338 0.0
C2393 C 0.77857 0.78698 0.93233 0.0
H2394 H 0.76767 0.76389 0.85802 0.0
C2395 C 0.71506 0.77942 0.89406 0.0
C2396 C 0.71113 0.78067 0.86286 0.0
C2397 C 0.73094 0.7797 0.90318 0.0
C2398 C 0.77077 0.77082 0.87815 0.0
H2399 H 0.79076 0.74616 1.01188 0.0
H2400 H 0.78252 0.76961 0.98352 0.0
H2401 H 0.79197 0.75765 0.88445 0.0
H2402 H 0.72063 0.78156 0.81646 0.0
H2403 H 0.74846 0.78158 0.83251 0.0
H2404 H 0.75628 0.79903 0.92701 0.0
C2405 C 0.79205 0.76246 0.97407 0.0
C2406 C 0.78488 0.76735 0.8934 0.0
C2407 C 0.79652 0.74882 0.99021 0.0
C2408 C 0.72333 0.78067 0.84074 0.0
C2409 C 0.73924 0.7809 0.84987 0.0
C2410 C 0.76435 0.79036 0.91713 0.0
C2411 C 0.79808 0.76532 0.94431 0.0
C2412 C 0.78819 0.77435 0.92215 0.0
C2413 C 0.74312 0.78103 0.8812 0.0
C2414 C 0.75984 0.78138 0.89131 0.0
H2415 H 0.82244 0.73347 0.93799 0.0
H2416 H 0.81579 0.75782 0.91104 0.0
H2417 H 0.7811 0.79301 0.95378 0.0
H2418 H 0.70586 0.77918 0.91149 0.0
H2419 H 0.73367 0.77908 0.92748 0.0
C2420 C 0.48863 0.43566 0.12163 0.0
C2421 C 0.47674 0.44736 0.11868 0.0
C2422 C 0.50459 0.44007 0.12425 0.0
C2423 C 0.53222 0.47413 0.12002 0.0
H2424 H 0.53502 0.46878 0.20822 0.0
C2425 C 0.53286 0.52687 0.19585 0.0
C2426 C 0.53834 0.52633 0.22616 0.0
C2427 C 0.53388 0.51342 0.17728 0.0
C2428 C 0.53511 0.4702 0.18351 0.0
H2429 H 0.47213 0.47261 0.11338 0.0
H2430 H 0.49997 0.48038 0.11797 0.0
H2431 H 0.52166 0.44886 0.17789 0.0
H2432 H 0.54976 0.51158 0.26074 0.0
H2433 H 0.55171 0.48812 0.22824 0.0
H2434 H 0.54472 0.49612 0.12598 0.0
C2435 C 0.49702 0.46779 0.11812 0.0
C2436 C 0.52746 0.45863 0.16601 0.0
C2437 C 0.48107 0.46341 0.11619 0.0
C2438 C 0.54491 0.51214 0.2377 0.0
C2439 C 0.54627 0.49877 0.21892 0.0
C2440 C 0.54024 0.48555 0.13742 0.0
C2441 C 0.50884 0.4562 0.12312 0.0
C2442 C 0.52431 0.46159 0.1349 0.0
C2443 C 0.54077 0.49924 0.18846 0.0
C2444 C 0.53999 0.48455 0.16968 0.0
H2445 H 0.48557 0.42314 0.12278 0.0
H2446 H 0.51349 0.43101 0.1286 0.0
H2447 H 0.53022 0.47639 0.09581 0.0
H2448 H 0.5281 0.53783 0.18634 0.0
H2449 H 0.529 0.51413 0.15429 0.0
C2450 C 0.77311 0.19119 0.43756 0.0
C2451 C 0.78075 0.20073 0.41549 0.0
C2452 C 0.76939 0.19737 0.46632 0.0
C2453 C 0.77153 0.23464 0.51353 0.0
H2454 H 0.72616 0.22676 0.5195 0.0
C2455 C 0.72736 0.28351 0.5089 0.0
C2456 C 0.71155 0.28122 0.51811 0.0
C2457 C 0.7387 0.27179 0.51463 0.0
C2458 C 0.73888 0.22895 0.51938 0.0
H2459 H 0.79078 0.22396 0.40599 0.0
H2460 H 0.78308 0.23532 0.45529 0.0
H2461 H 0.74276 0.20755 0.49462 0.0
H2462 H 0.69534 0.26576 0.54306 0.0
H2463 H 0.71522 0.24532 0.55355 0.0
H2464 H 0.76716 0.25684 0.53615 0.0
C2465 C 0.7807 0.22281 0.45118 0.0
C2466 C 0.74851 0.2178 0.50492 0.0
C2467 C 0.78484 0.21645 0.42271 0.0
C2468 C 0.70741 0.26755 0.53491 0.0
C2469 C 0.71882 0.25595 0.54119 0.0
C2470 C 0.76185 0.24582 0.52815 0.0
C2471 C 0.7726 0.21343 0.47307 0.0
C2472 C 0.76463 0.22126 0.49931 0.0
C2473 C 0.73445 0.25764 0.53009 0.0
C2474 C 0.74523 0.24371 0.52848 0.0
H2475 H 0.77007 0.1789 0.4327 0.0
H2476 H 0.76337 0.18977 0.48277 0.0
H2477 H 0.78407 0.2373 0.51057 0.0
H2478 H 0.73082 0.29411 0.4963 0.0
H2479 H 0.75052 0.27343 0.50518 0.0
C2480 C 0.2488 0.28361 0.86786 0.0
C2481 C 0.25541 0.29893 0.86854 0.0
C2482 C 0.23361 0.28102 0.87975 0.0
C2483 C 0.20236 0.27918 0.9162 0.0
H2484 H 0.2233 0.2834 0.99544 0.0
C2485 C 0.18732 0.23942 0.01845 0.0
C2486 C 0.19663 0.22628 1.00939 0.0
C2487 C 0.19111 0.2547 1.00813 0.0
C2488 C 0.21692 0.28263 0.97383 0.0
H2489 H 0.25027 0.32393 0.87582 0.0
H2490 H 0.22441 0.31924 0.8994 0.0
H2491 H 0.23158 0.30031 0.95257 0.0
H2492 H 0.21868 0.21908 0.98762 0.0
H2493 H 0.22564 0.24597 0.97062 0.0
H2494 H 0.18865 0.26055 0.93695 0.0
C2495 C 0.23073 0.30931 0.8892 0.0
C2496 C 0.22154 0.29233 0.94935 0.0
C2497 C 0.24567 0.31194 0.87609 0.0
C2498 C 0.21123 0.22896 0.99462 0.0
C2499 C 0.2152 0.24432 0.98491 0.0
C2500 C 0.19745 0.2698 0.94089 0.0
C2501 C 0.22526 0.29368 0.89339 0.0
C2502 C 0.21512 0.28978 0.91986 0.0
C2503 C 0.20457 0.25699 0.98978 0.0
C2504 C 0.20548 0.27075 0.96914 0.0
H2505 H 0.25613 0.2734 0.86214 0.0
H2506 H 0.22962 0.26882 0.88275 0.0
H2507 H 0.19743 0.2769 0.89361 0.0
H2508 H 0.17612 0.23769 0.03041 0.0
H2509 H 0.18281 0.26437 1.01201 0.0
C2510 C 0.21195 0.71522 0.33965 0.0
C2511 C 0.21966 0.70488 0.36032 0.0
C2512 C 0.21596 0.73136 0.33908 0.0
C2513 C 0.24173 0.76307 0.36475 0.0
H2514 H 0.2106 0.77324 0.42779 0.0
C2515 C 0.257 0.7846 0.47906 0.0
C2516 C 0.26204 0.8004 0.47525 0.0
C2517 C 0.2456 0.77823 0.45925 0.0
C2518 C 0.21897 0.77099 0.40935 0.0
H2519 H 0.23896 0.70245 0.39284 0.0
H2520 H 0.24661 0.73053 0.3905 0.0
H2521 H 0.20562 0.75112 0.39246 0.0
H2522 H 0.25747 0.82264 0.45115 0.0
H2523 H 0.23836 0.81111 0.4153 0.0
H2524 H 0.25567 0.78213 0.38333 0.0
C2525 C 0.23733 0.72625 0.37526 0.0
C2526 C 0.21616 0.7584 0.38915 0.0
C2527 C 0.23298 0.71023 0.37667 0.0
C2528 C 0.25397 0.81032 0.4543 0.0
C2529 C 0.24296 0.80382 0.43384 0.0
C2530 C 0.24432 0.77597 0.38431 0.0
C2531 C 0.22807 0.73705 0.35826 0.0
C2532 C 0.22803 0.75372 0.36826 0.0
C2533 C 0.23944 0.78755 0.43522 0.0
C2534 C 0.23344 0.77924 0.40801 0.0
H2535 H 0.20153 0.71135 0.32696 0.0
H2536 H 0.2086 0.73958 0.32614 0.0
H2537 H 0.25109 0.75945 0.34909 0.0
H2538 H 0.26297 0.77678 0.49518 0.0
H2539 H 0.24304 0.76557 0.46042 0.0
C2540 C 0.27909 0.21824 0.51997 0.0
C2541 C 0.27569 0.20385 0.50489 0.0
C2542 C 0.26722 0.22965 0.5238 0.0
C2543 C 0.22385 0.23746 0.51054 0.0
H2544 H 0.24032 0.27724 0.47829 0.0
C2545 C 0.19518 0.27112 0.41403 0.0
C2546 C 0.19877 0.28723 0.40933 0.0
C2547 C 0.20059 0.26339 0.4404 0.0
C2548 C 0.23535 0.2665 0.48827 0.0
H2549 H 0.25733 0.18968 0.4831 0.0
H2550 H 0.23679 0.20999 0.48792 0.0
H2551 H 0.25849 0.25802 0.4991 0.0
H2552 H 0.20935 0.3084 0.42945 0.0
H2553 H 0.21847 0.29504 0.47582 0.0
H2554 H 0.20072 0.24567 0.49707 0.0
C2555 C 0.24839 0.21232 0.49786 0.0
C2556 C 0.24588 0.25537 0.50029 0.0
C2557 C 0.2602 0.20079 0.49454 0.0
C2558 C 0.20681 0.29582 0.43225 0.0
C2559 C 0.21189 0.28822 0.45889 0.0
C2560 C 0.21327 0.24864 0.4984 0.0
C2561 C 0.25186 0.22701 0.512 0.0
C2562 C 0.24036 0.2403 0.50953 0.0
C2563 C 0.20952 0.27175 0.46257 0.0
C2564 C 0.21911 0.26277 0.48518 0.0
H2565 H 0.29091 0.22069 0.52884 0.0
H2566 H 0.27021 0.24075 0.53516 0.0
H2567 H 0.21922 0.22611 0.51845 0.0
H2568 H 0.18883 0.26435 0.39671 0.0
H2569 H 0.1987 0.25065 0.44229 0.0
C2570 C 0.26912 0.71178 0.85104 0.0
C2571 C 0.26844 0.69511 0.85282 0.0
C2572 C 0.25511 0.72064 0.85097 0.0
C2573 C 0.21747 0.7176 0.88746 0.0
H2574 H 0.21288 0.7604 0.85507 0.0
C2575 C 0.18785 0.76437 0.9607 0.0
C2576 C 0.19662 0.77855 0.96266 0.0
C2577 C 0.19038 0.75382 0.93657 0.0
C2578 C 0.2139 0.74843 0.86418 0.0
H2579 H 0.25278 0.6745 0.85357 0.0
H2580 H 0.22826 0.69006 0.85384 0.0
H2581 H 0.22971 0.7412 0.82816 0.0
H2582 H 0.21483 0.79308 0.94118 0.0
H2583 H 0.22034 0.77406 0.90035 0.0
H2584 H 0.20327 0.725 0.92506 0.0
C2585 C 0.23958 0.69624 0.85254 0.0
C2586 C 0.22341 0.73744 0.84865 0.0
C2587 C 0.25359 0.68738 0.85272 0.0
C2588 C 0.20806 0.78208 0.94027 0.0
C2589 C 0.21088 0.77136 0.91646 0.0
C2590 C 0.20819 0.72859 0.90314 0.0
C2591 C 0.24024 0.71296 0.85271 0.0
C2592 C 0.2261 0.7223 0.86139 0.0
C2593 C 0.20218 0.75701 0.91452 0.0
C2594 C 0.20724 0.74444 0.89281 0.0
H2595 H 0.28046 0.71797 0.85073 0.0
H2596 H 0.256 0.73353 0.85166 0.0
H2597 H 0.21932 0.70601 0.89789 0.0
H2598 H 0.17904 0.76139 0.97796 0.0
H2599 H 0.18333 0.74301 0.93561 0.0
C2600 C 0.45248 0.01381 0.74938 0.0
C2601 C 0.43935 0.01352 0.72947 0.0
C2602 C 0.46663 0.00647 0.74051 0.0
C2603 C 0.48633 0.98316 0.67904 0.0
H2604 H 0.51639 0.01843 0.6803 0.0
C2605 C 0.54308 0.976 0.61472 0.0
C2606 C 0.55543 0.97617 0.6364 0.0
C2607 C 0.52897 0.98412 0.62104 0.0
C2608 C 0.50806 0.00855 0.67964 0.0
H2609 H 0.42933 0.0029 0.68851 0.0
H2610 H 0.45388 0.98986 0.67322 0.0
H2611 H 0.49156 0.02038 0.70912 0.0
H2612 H 0.56442 0.98726 0.67778 0.0
H2613 H 0.53998 0.00159 0.68865 0.0
H2614 H 0.50287 0.97127 0.64979 0.0
C2615 C 0.45355 0.99594 0.69516 0.0
C2616 C 0.49402 0.00951 0.69655 0.0
C2617 C 0.43945 0.00333 0.70397 0.0
C2618 C 0.55487 0.98691 0.66101 0.0
C2619 C 0.54083 0.99507 0.66724 0.0
C2620 C 0.50039 0.9822 0.66215 0.0
C2621 C 0.46756 -0.00129 0.71195 0.0
C2622 C 0.48309 -0.00324 0.69661 0.0
C2623 C 0.52733 0.99248 0.64884 0.0
C2624 C 0.51142 0.99485 0.66241 0.0
H2625 H 0.45258 0.02153 0.76934 0.0
H2626 H 0.47724 0.00834 0.75424 0.0
H2627 H 0.47805 0.97324 0.67856 0.0
H2628 H 0.54337 0.96786 0.5954 0.0
H2629 H 0.5188 0.98232 0.60609 0.0
C2630 C 0.01911 0.95685 0.23831 0.0
C2631 C 0.03515 0.95994 0.24523 0.0
C2632 C 0.01093 0.96689 0.21832 0.0
C2633 C 0.01239 0.00516 0.17685 0.0
H2634 H 0.99042 0.98081 0.11382 0.0
C2635 C 0.97803 0.03931 0.09241 0.0
C2636 C 0.96206 0.03571 0.09894 0.0
C2637 C 0.98976 0.02794 0.09788 0.0
C2638 C -0.00325 0.9877 0.13099 0.0
H2639 H 0.05433 0.9772 0.24143 0.0
H2640 H 0.04008 0.99468 0.20651 0.0
H2641 H 0.00377 0.9669 0.15587 0.0
H2642 H 0.94532 0.01679 0.10961 0.0
H2643 H 0.96574 -0.00294 0.11967 0.0
H2644 H 0.00501 0.02595 0.15272 0.0
C2645 C 0.0339 0.98441 0.21583 0.0
C2646 C 0.00413 0.97981 0.15529 0.0
C2647 C 0.04204 0.97443 0.23595 0.0
C2648 C 0.95765 0.01992 0.10527 0.0
C2649 C 0.96937 0.00857 0.11076 0.0
C2650 C 0.00509 0.01303 0.15253 0.0
C2651 C 0.01868 0.98013 0.20532 0.0
C2652 C 0.01155 0.98851 0.17894 0.0
C2653 C 0.98552 0.01301 0.10996 0.0
C2654 C -0.00322 0.0044 0.1299 0.0
H2655 H 0.01342 0.9459 0.24568 0.0
H2656 H -0.00107 0.96371 0.21144 0.0
H2657 H 0.01806 0.01214 0.19471 0.0
H2658 H 0.98163 0.05135 0.08657 0.0
H2659 H 0.00217 0.03146 0.09633 0.0
C2660 C 0.47081 0.95321 0.20821 0.0
C2661 C 0.45469 0.95669 0.21265 0.0
C2662 C 0.47788 0.95588 0.17974 0.0
C2663 C 0.47393 0.98303 0.11615 0.0
H2664 H 0.51309 0.96176 0.09306 0.0
C2665 C 0.52388 0.02134 0.07863 0.0
C2666 C 0.53701 0.01863 0.09789 0.0
C2667 C 0.51271 0.00931 0.07368 0.0
C2668 C 0.50205 0.96775 0.09874 0.0
H2669 H 0.43313 0.96546 0.19103 0.0
H2670 H 0.44541 0.96997 0.14107 0.0
H2671 H 0.49333 0.94757 0.12357 0.0
H2672 H 0.5497 0.00113 0.12484 0.0
H2673 H 0.52965 0.98046 0.11843 0.0
H2674 H 0.4832 0.00373 0.09469 0.0
C2675 C 0.45266 0.96527 0.15957 0.0
C2676 C 0.49071 0.9596 0.11612 0.0
C2677 C 0.44567 0.96287 0.18823 0.0
C2678 C 0.53946 0.00348 0.11037 0.0
C2679 C 0.52809 0.99156 0.1061 0.0
C2680 C 0.4853 0.99121 0.0991 0.0
C2681 C 0.46891 0.96204 0.15513 0.0
C2682 C 0.47722 0.96767 0.12722 0.0
C2683 C 0.51421 0.99458 0.08879 0.0
C2684 C 0.50012 0.98412 0.09284 0.0
H2685 H 0.47795 0.94852 0.22686 0.0
H2686 H 0.49054 0.95369 0.17746 0.0
H2687 H 0.46359 0.98959 0.12393 0.0
H2688 H 0.52206 0.03284 0.06786 0.0
H2689 H 0.50239 0.0119 0.0596 0.0
C2690 C 0.99007 0.93629 0.61795 0.0
C2691 C 0.97696 0.9462 0.61194 0.0
C2692 C 0.00512 0.94291 0.62265 0.0
C2693 C 0.02813 0.98045 0.62152 0.0
H2694 H 0.0299 0.97437 0.7097 0.0
C2695 C 0.03211 0.03289 0.70128 0.0
C2696 C 0.03831 0.03133 0.73095 0.0
C2697 C 0.03132 0.01969 0.68198 0.0
C2698 C 0.03019 0.97605 0.68505 0.0
H2699 H 0.96939 0.97041 0.60266 0.0
H2700 H -0.00437 0.982 0.61081 0.0
H2701 H 0.01789 0.95414 0.67796 0.0
H2702 H 0.04909 0.01506 0.76365 0.0
H2703 H 0.04807 0.99208 0.72979 0.0
H2704 H 0.03973 0.00281 0.62886 0.0
C2705 C 0.99436 0.96916 0.61192 0.0
C2706 C 0.02333 0.96433 0.66677 0.0
C2707 C 0.9793 0.96258 0.60785 0.0
C2708 C 0.04374 0.01643 0.74115 0.0
C2709 C 0.04333 0.00331 0.7216 0.0
C2710 C 0.03535 0.99205 0.63975 0.0
C2711 C 0.00722 0.95946 0.62069 0.0
C2712 C 0.02097 0.96715 0.63535 0.0
C2713 C 0.03713 0.00477 0.69175 0.0
C2714 C 0.0351 0.99057 0.67195 0.0
H2715 H 0.98857 0.92353 0.62041 0.0
H2716 H 0.01486 0.93527 0.62964 0.0
H2717 H 0.0266 0.9827 0.59718 0.0
H2718 H 0.02818 0.04439 0.69284 0.0
H2719 H 0.02599 0.0212 0.65951 0.0
C2720 C 0.03281 0.41314 0.04499 0.0
C2721 C 0.04717 0.42167 0.04232 0.0
C2722 C 0.02291 0.41102 0.01931 0.0
C2723 C 0.02157 0.41112 0.93484 0.0
H2724 H 0.97876 0.42764 0.9441 0.0
C2725 C 0.98134 0.42345 0.82925 0.0
C2726 C 0.96473 0.42235 0.83256 0.0
C2727 C 0.99137 0.42184 0.85481 0.0
C2728 C 0.99052 0.42262 0.94103 0.0
H2729 H 0.06283 0.43391 1.01045 0.0
H2730 H 0.04586 0.42969 0.96556 0.0
H2731 H -0.00371 0.42626 0.98853 0.0
H2732 H 0.94563 0.41816 0.86503 0.0
H2733 H 0.96302 0.41454 0.90919 0.0
H2734 H 0.01585 0.40713 0.88759 0.0
C2735 C 0.04214 0.42482 0.98749 0.0
C2736 C 0.0006 0.42191 0.96663 0.0
C2737 C 0.05184 0.42725 1.01321 0.0
C2738 C 0.95839 0.41923 0.86181 0.0
C2739 C 0.96841 0.41728 0.88723 0.0
C2740 C 0.01139 0.41153 0.90931 0.0
C2741 C 0.02738 0.41706 0.99039 0.0
C2742 C 0.01629 0.41635 0.96374 0.0
C2743 C 0.98508 0.41877 0.88429 0.0
C2744 C -0.00425 0.41751 0.91187 0.0
H2745 H 0.02882 0.40885 0.06717 0.0
H2746 H 0.01161 0.40495 0.02215 0.0
H2747 H 0.0336 0.40669 0.93199 0.0
H2748 H 0.98656 0.42604 0.80704 0.0
H2749 H 0.00405 0.42341 0.85145 0.0
C2750 C 0.83448 0.72144 0.10089 0.0
C2751 C 0.8406 0.72624 0.07222 0.0
C2752 C 0.83522 0.73152 0.12634 0.0
C2753 C 0.85419 0.76643 0.16161 0.0
H2754 H 0.8128 0.7721 0.19967 0.0
C2755 C 0.84166 0.79787 0.28027 0.0
C2756 C 0.82828 0.80799 0.28089 0.0
C2757 C 0.84529 0.78901 0.25376 0.0
C2758 C 0.82444 0.77071 0.18928 0.0
H2759 H 0.85323 0.7452 0.04859 0.0
H2760 H 0.85472 0.76284 0.09358 0.0
H2761 H 0.81556 0.75411 0.15611 0.0
H2762 H 0.80891 0.81743 0.2532 0.0
H2763 H 0.81517 0.802 0.20764 0.0
H2764 H 0.86303 0.78299 0.19541 0.0
C2765 C 0.84925 0.7512 0.09601 0.0
C2766 C 0.82605 0.76031 0.16444 0.0
C2767 C 0.84839 0.7411 0.07025 0.0
C2768 C 0.8192 0.80966 0.25387 0.0
C2769 C 0.82275 0.80077 0.22765 0.0
C2770 C 0.85263 0.77671 0.18697 0.0
C2771 C 0.84223 0.74668 0.12406 0.0
C2772 C 0.84091 0.75802 0.15028 0.0
C2773 C 0.83555 0.79001 0.2275 0.0
C2774 C 0.83768 0.77902 0.20092 0.0
H2775 H 0.82855 0.71004 0.10358 0.0
H2776 H 0.82992 0.7276 0.14775 0.0
H2777 H 0.8658 0.76485 0.1512 0.0
H2778 H 0.84891 0.79627 0.30062 0.0
H2779 H 0.85522 0.78079 0.25432 0.0
C2780 C 0.50293 0.57646 0.31701 0.0
C2781 C 0.51949 0.57788 0.32068 0.0
C2782 C 0.49268 0.57898 0.34201 0.0
C2783 C 0.49343 0.5812 0.42802 0.0
H2784 H 0.45013 0.59628 0.41754 0.0
C2785 C 0.45252 0.59337 0.53172 0.0
C2786 C 0.43844 0.58429 0.53097 0.0
C2787 C 0.46177 0.59519 0.50514 0.0
C2788 C 0.46223 0.59212 0.42076 0.0
H2789 H 0.53826 0.5839 0.35286 0.0
H2790 H 0.52055 0.5891 0.39568 0.0
H2791 H 0.46772 0.59439 0.37293 0.0
H2792 H 0.42246 0.57092 0.50144 0.0
H2793 H 0.43835 0.57454 0.45494 0.0
H2794 H 0.48795 0.57922 0.47592 0.0
C2795 C 0.51534 0.58531 0.37414 0.0
C2796 C 0.4723 0.59088 0.39516 0.0
C2797 C 0.52555 0.58244 0.34944 0.0
C2798 C 0.43325 0.57801 0.50272 0.0
C2799 C 0.44232 0.5801 0.47607 0.0
C2800 C 0.48349 0.58274 0.45358 0.0
C2801 C 0.49875 0.58331 0.37108 0.0
C2802 C 0.48804 0.58525 0.39836 0.0
C2803 C 0.45693 0.58825 0.47722 0.0
C2804 C 0.46775 0.58807 0.45022 0.0
H2805 H 0.49793 0.57291 0.2951 0.0
H2806 H 0.48004 0.5771 0.33864 0.0
H2807 H 0.50525 0.57641 0.4316 0.0
H2808 H 0.4569 0.59822 0.55318 0.0
H2809 H 0.47296 0.60159 0.50659 0.0
C2810 C 0.66197 0.18692 0.75952 0.0
C2811 C 0.65657 0.19082 0.78913 0.0
C2812 C 0.65924 0.19725 0.73482 0.0
C2813 C 0.6561 0.23917 0.71788 0.0
H2814 H 0.64003 0.2257 0.63859 0.0
C2815 C 0.65518 0.282 0.6125 0.0
C2816 C 0.6588 0.27507 0.58396 0.0
C2817 C 0.65249 0.27235 0.6384 0.0
C2818 C 0.64474 0.22966 0.66045 0.0
H2819 H 0.64372 0.20844 0.81587 0.0
H2820 H 0.63929 0.22662 0.77275 0.0
H2821 H 0.63969 0.20712 0.68164 0.0
H2822 H 0.6628 0.25257 0.56053 0.0
H2823 H 0.65878 0.23606 0.60518 0.0
H2824 H 0.66205 0.26139 0.69651 0.0
C2825 C 0.64546 0.21548 0.7687 0.0
C2826 C 0.64441 0.21901 0.68515 0.0
C2827 C 0.64787 0.20499 0.79328 0.0
C2828 C 0.65978 0.25837 0.58197 0.0
C2829 C 0.65733 0.24881 0.60772 0.0
C2830 C 0.65673 0.24976 0.69301 0.0
C2831 C 0.65135 0.21183 0.73937 0.0
C2832 C 0.65029 0.22358 0.71398 0.0
C2833 C 0.65355 0.25559 0.63633 0.0
C2834 C 0.65134 0.24505 0.66374 0.0
H2835 H 0.66878 0.17615 0.75564 0.0
H2836 H 0.66397 0.1942 0.71243 0.0
H2837 H 0.66082 0.24295 0.73988 0.0
H2838 H 0.65435 0.29483 0.61478 0.0
H2839 H 0.6495 0.27803 0.65996 0.0
C2840 C 0.97588 0.58735 0.0481 0.0
C2841 C 0.97039 0.57359 0.06333 0.0
C2842 C 0.98084 0.5867 0.0174 0.0
C2843 C 0.99453 0.55879 0.95645 0.0
H2844 H 0.98411 0.59406 0.90254 0.0
C2845 C 0.0071 0.55791 0.82448 0.0
C2846 C 0.01206 0.57229 0.81074 0.0
C2847 C 0.00223 0.55751 0.85535 0.0
C2848 C 0.98732 0.58418 0.91731 0.0
H2849 H 0.96597 0.54826 0.05781 0.0
H2850 H 0.97437 0.54719 1.00411 0.0
H2851 H 0.97503 0.59438 0.95559 0.0
H2852 H 0.01651 0.59736 0.8195 0.0
H2853 H 0.00814 0.59666 0.87298 0.0
H2854 H 0.00683 0.5486 0.91799 0.0
C2855 C 0.97498 0.55849 0.01609 0.0
C2856 C 0.98208 0.58436 0.94785 0.0
C2857 C 0.96998 0.55914 0.04685 0.0
C2858 C 0.01244 0.58614 0.829 0.0
C2859 C 0.0076 0.58574 0.85976 0.0
C2860 C -0.00022 0.5586 0.92582 0.0
C2861 C 0.98045 0.57228 1.00088 0.0
C2862 C 0.9857 0.57174 0.96798 0.0
C2863 C 0.00221 0.57148 0.87333 0.0
C2864 C -0.00364 0.57136 0.90586 0.0
H2865 H 0.97619 0.59874 0.05979 0.0
H2866 H 0.98514 0.59754 1.00671 0.0
H2867 H -0.00229 0.54893 0.97129 0.0
H2868 H 0.0065 0.54704 0.81112 0.0
H2869 H -0.00194 0.54633 0.86487 0.0
C2870 C 0.65077 0.72095 0.29612 0.0
C2871 C 0.64773 0.70493 0.30389 0.0
C2872 C 0.65173 0.72575 0.26535 0.0
C2873 C 0.65804 0.71036 0.18621 0.0
H2874 H 0.63903 0.75056 0.16207 0.0
C2875 C 0.65076 0.72872 0.05847 0.0
C2876 C 0.65298 0.74485 0.05054 0.0
C2877 C 0.65059 0.72387 0.08927 0.0
C2878 C 0.6446 0.73939 0.16841 0.0
H2879 H 0.64326 0.68143 0.28494 0.0
H2880 H 0.64496 0.68979 0.23132 0.0
H2881 H 0.63777 0.74205 0.21553 0.0
H2882 H 0.65685 0.7685 0.06928 0.0
H2883 H 0.6569 0.76002 0.12288 0.0
H2884 H 0.66487 0.7077 0.13907 0.0
C2885 C 0.64679 0.69863 0.24911 0.0
C2886 C 0.64386 0.73449 0.19916 0.0
C2887 C 0.64582 0.69382 0.27993 0.0
C2888 C 0.65524 0.75596 0.07438 0.0
C2889 C 0.65506 0.75111 0.10522 0.0
C2890 C 0.6588 0.71527 0.15545 0.0
C2891 C 0.64971 0.71468 0.24138 0.0
C2892 C 0.65055 0.7199 0.20852 0.0
C2893 C 0.65265 0.735 0.11314 0.0
C2894 C 0.65207 0.72985 0.14607 0.0
H2895 H 0.65264 0.7298 0.31386 0.0
H2896 H 0.65428 0.73814 0.26037 0.0
H2897 H 0.66355 0.69917 0.19258 0.0
H2898 H 0.64919 0.71976 0.04081 0.0
H2899 H 0.64855 0.7114 0.09437 0.0
C2900 C 0.53046 0.41219 0.54105 0.0
C2901 C 0.52802 0.39872 0.55979 0.0
C2902 C 0.52541 0.41229 0.51032 0.0
C2903 C 0.51343 0.38504 0.4466 0.0
H2904 H 0.49539 0.42337 0.41106 0.0
C2905 C 0.48196 0.38452 0.32846 0.0
C2906 C 0.48512 0.3972 0.30812 0.0
C2907 C 0.48716 0.38507 0.35901 0.0
C2908 C 0.50054 0.4126 0.42052 0.0
H2909 H 0.51846 0.37466 0.56032 0.0
H2910 H 0.5093 0.37499 0.50735 0.0
H2911 H 0.50457 0.4236 0.46428 0.0
H2912 H 0.49622 0.4205 0.3045 0.0
H2913 H 0.50513 0.42151 0.35787 0.0
H2914 H 0.50928 0.37401 0.40295 0.0
C2915 C 0.51532 0.38545 0.5162 0.0
C2916 C 0.50585 0.41273 0.45109 0.0
C2917 C 0.5204 0.38534 0.54685 0.0
C2918 C 0.49337 0.41059 0.31948 0.0
C2919 C 0.49852 0.41117 0.35013 0.0
C2920 C 0.50807 0.3849 0.41613 0.0
C2921 C 0.51775 0.39891 0.49743 0.0
C2922 C 0.51233 0.39893 0.46463 0.0
C2923 C 0.49561 0.39834 0.37024 0.0
C2924 C 0.50149 0.39865 0.40268 0.0
H2925 H 0.53613 0.42278 0.55019 0.0
H2926 H 0.52767 0.42282 0.49659 0.0
H2927 H 0.51864 0.37426 0.45589 0.0
H2928 H 0.47535 0.37415 0.32086 0.0
H2929 H 0.48441 0.3751 0.37395 0.0
C2930 C 0.82187 0.26177 0.80944 0.0
C2931 C 0.82818 0.27681 0.81706 0.0
C2932 C 0.82106 0.25676 0.77875 0.0
C2933 C 0.83821 0.2655 0.7015 0.0
H2934 H 0.80296 0.2397 0.67226 0.0
C2935 C 0.82957 0.25217 0.5727 0.0
C2936 C 0.82593 0.23637 0.56429 0.0
C2937 C 0.82905 0.25698 0.60344 0.0
C2938 C 0.81295 0.24679 0.68014 0.0
H2939 H 0.83808 0.29858 0.79814 0.0
H2940 H 0.83643 0.29003 0.74476 0.0
H2941 H 0.80355 0.24844 0.72579 0.0
H2942 H 0.81838 0.21338 0.58198 0.0
H2943 H 0.81727 0.22188 0.63569 0.0
H2944 H 0.84752 0.26399 0.65582 0.0
C2945 C 0.83249 0.28186 0.76249 0.0
C2946 C 0.81332 0.25179 0.71089 0.0
C2947 C 0.83341 0.28681 0.79316 0.0
C2948 C 0.82116 0.22567 0.58748 0.0
C2949 C 0.82055 0.23053 0.61832 0.0
C2950 C 0.83778 0.26061 0.67079 0.0
C2951 C 0.82643 0.2667 0.7548 0.0
C2952 C 0.82595 0.26126 0.72202 0.0
C2953 C 0.82476 0.24619 0.62673 0.0
C2954 C 0.82513 0.25122 0.65964 0.0
H2955 H 0.81789 0.25369 0.82729 0.0
H2956 H 0.81653 0.24493 0.77391 0.0
H2957 H 0.84833 0.27245 0.70923 0.0
H2958 H 0.8329 0.26088 0.55548 0.0
H2959 H 0.83202 0.26922 0.60897 0.0
C2960 C 0.01569 0.56973 0.54019 0.0
C2961 C 0.03239 0.56994 0.5375 0.0
C2962 C 0.00596 0.5709 0.51418 0.0
C2963 C 0.00626 0.56646 0.4289 0.0
H2964 H 0.96594 0.58871 0.43531 0.0
C2965 C 0.96436 0.5757 0.32398 0.0
C2966 C 0.94825 0.57181 0.329 0.0
C2967 C 0.97502 0.57695 0.34871 0.0
C2968 C 0.97713 0.5824 0.43316 0.0
H2969 H 0.05191 0.57159 0.505 0.0
H2970 H 0.03495 0.57397 0.45967 0.0
H2971 H 0.98387 0.58797 0.47931 0.0
H2972 H 0.93067 0.56676 0.36425 0.0
H2973 H 0.94914 0.56919 0.40717 0.0
H2974 H -0.00055 0.561 0.38257 0.0
C2975 C 0.02934 0.57262 0.48192 0.0
C2976 C 0.98742 0.5819 0.45847 0.0
C2977 C 0.0391 0.57134 0.50799 0.0
C2978 C 0.94297 0.56981 0.35945 0.0
C2979 C 0.95356 0.57125 0.38414 0.0
C2980 C -0.00399 0.56708 0.40347 0.0
C2981 C 0.0126 0.57245 0.48462 0.0
C2982 C 0.00205 0.57372 0.45692 0.0
C2983 C 0.96979 0.57456 0.37909 0.0
C2984 C 0.98121 0.57488 0.4054 0.0
H2985 H 0.01005 0.56855 0.56245 0.0
H2986 H 0.99317 0.57036 0.5173 0.0
H2987 H 0.01728 0.55987 0.42679 0.0
H2988 H 0.96888 0.57722 0.30086 0.0
H2989 H 0.9874 0.57967 0.34404 0.0
C2990 C 0.16132 0.25555 0.29458 0.0
C2991 C 0.16099 0.27218 0.29052 0.0
C2992 C 0.16024 0.2453 0.26935 0.0
C2993 C 0.14492 0.24099 0.1921 0.0
H2994 H 0.17928 0.21086 0.17991 0.0
C2995 C 0.15224 0.20474 0.07952 0.0
C2996 C 0.16121 0.19063 0.08012 0.0
C2997 C 0.15005 0.21367 0.10637 0.0
C2998 C 0.16932 0.21885 0.18318 0.0
H2999 H 0.15892 0.2911 0.25681 0.0
H3000 H 0.15656 0.27305 0.2126 0.0
H3001 H 0.17986 0.22864 0.2239 0.0
H3002 H 0.17375 0.17407 0.10951 0.0
H3003 H 0.16884 0.18882 0.15672 0.0
H3004 H 0.13403 0.23094 0.15207 0.0
C3005 C 0.15784 0.26805 0.23541 0.0
C3006 C 0.1698 0.22919 0.20833 0.0
C3007 C 0.15929 0.27834 0.26064 0.0
C3008 C 0.16674 0.1849 0.10845 0.0
C3009 C 0.16418 0.19357 0.13542 0.0
C3010 C 0.14424 0.23038 0.16724 0.0
C3011 C 0.15844 0.25143 0.23955 0.0
C3012 C 0.15769 0.24044 0.2129 0.0
C3013 C 0.15651 0.20852 0.13459 0.0
C3014 C 0.1565 0.2192 0.16223 0.0
H3015 H 0.16269 0.25041 0.31727 0.0
H3016 H 0.16071 0.23254 0.27314 0.0
H3017 H 0.13535 0.24947 0.19534 0.0
H3018 H 0.14812 0.20961 0.05788 0.0
H3019 H 0.1442 0.22511 0.10442 0.0
C3020 C 0.45954 0.40424 1.00802 0.0
C3021 C 0.46624 0.40378 0.03755 0.0
C3022 C 0.46905 0.40178 0.98201 0.0
C3023 C 0.5104 0.38942 0.95748 0.0
H3024 H 0.49973 0.4141 0.88503 0.0
C3025 C 0.55256 0.41242 0.85953 0.0
C3026 C 0.54855 0.407 0.82995 0.0
C3027 C 0.54279 0.40886 0.88468 0.0
C3028 C 0.50274 0.40703 0.90504 0.0
H3029 H 0.48813 0.40029 0.06306 0.0
H3030 H 0.50481 0.39682 0.01809 0.0
H3031 H 0.48181 0.41427 0.92897 0.0
H3032 H 0.53138 0.3933 0.80367 0.0
H3033 H 0.51403 0.38755 0.84765 0.0
H3034 H 0.53199 0.38321 0.93373 0.0
C3035 C 0.49214 0.39842 1.01463 0.0
C3036 C 0.49242 0.40699 0.93026 0.0
C3037 C 0.48256 0.4005 0.0406 0.0
C3038 C 0.5349 0.39745 0.82624 0.0
C3039 C 0.52492 0.39424 0.85128 0.0
C3040 C 0.52091 0.38979 0.93248 0.0
C3041 C 0.4856 0.39922 0.98484 0.0
C3042 C 0.49613 0.3983 0.95706 0.0
C3043 C 0.52867 0.40015 0.88057 0.0
C3044 C 0.51717 0.39866 0.90616 0.0
H3045 H 0.44696 0.40665 1.00501 0.0
H3046 H 0.46339 0.40208 0.95969 0.0
H3047 H 0.5136 0.38226 0.97721 0.0
H3048 H 0.56296 0.41988 0.86304 0.0
H3049 H 0.54584 0.41362 0.90707 0.0
C3050 C 0.30621 0.80067 0.60082 0.0
C3051 C 0.31312 0.79709 0.57226 0.0
C3052 C 0.30782 0.79023 0.62564 0.0
C3053 C 0.3304 0.75482 0.65419 0.0
H3054 H 0.2937 0.75087 0.70775 0.0
C3055 C 0.32329 0.70707 0.75192 0.0
C3056 C 0.31835 0.71337 0.78031 0.0
C3057 C 0.3235 0.71669 0.7255 0.0
C3058 C 0.30406 0.75188 0.69304 0.0
H3059 H 0.32745 0.77984 0.54759 0.0
H3060 H 0.32991 0.76138 0.59069 0.0
H3061 H 0.29259 0.76882 0.66394 0.0
H3062 H 0.30989 0.73478 0.80313 0.0
H3063 H 0.31008 0.75129 0.7573 0.0
H3064 H 0.34165 0.73749 0.68339 0.0
C3065 C 0.3235 0.77243 0.59414 0.0
C3066 C 0.3035 0.76227 0.66801 0.0
C3067 C 0.32206 0.783 0.56935 0.0
C3068 C 0.31379 0.72949 0.78172 0.0
C3069 C 0.3138 0.73897 0.7554 0.0
C3070 C 0.33088 0.74423 0.67914 0.0
C3071 C 0.31617 0.77577 0.62251 0.0
C3072 C 0.31675 0.76413 0.64849 0.0
C3073 C 0.31852 0.73268 0.72697 0.0
C3074 C 0.31779 0.74287 0.69908 0.0
H3075 H 0.29939 0.8115 0.60396 0.0
H3076 H 0.30238 0.79349 0.6473 0.0
H3077 H 0.34088 0.75598 0.63986 0.0
H3078 H 0.32694 0.69473 0.75009 0.0
H3079 H 0.32717 0.71153 0.70382 0.0
C3080 C 0.01589 0.4171 0.32207 0.0
C3081 C 0.0317 0.41324 0.31432 0.0
C3082 C 0.01088 0.41737 0.35285 0.0
C3083 C 0.02223 0.40278 0.43116 0.0
H3084 H 0.99052 0.43325 0.45809 0.0
C3085 C 0.99269 0.39829 0.55144 0.0
C3086 C 0.98892 0.41243 0.5673 0.0
C3087 C -0.00197 0.39868 0.52091 0.0
C3088 C -0.0005 0.42474 0.45115 0.0
H3089 H 0.05473 0.40704 0.33341 0.0
H3090 H 0.04612 0.4077 0.38686 0.0
H3091 H -0.0002 0.43376 0.40508 0.0
H3092 H 0.98788 0.43816 0.56274 0.0
H3093 H -0.00245 0.43889 0.50994 0.0
H3094 H 0.02225 0.39402 0.47738 0.0
C3095 C 0.03742 0.41016 0.36914 0.0
C3096 C 0.00469 0.42488 0.42047 0.0
C3097 C 0.0424 0.40981 0.33835 0.0
C3098 C 0.99077 0.42701 0.55158 0.0
C3099 C -0.00385 0.42741 0.521 0.0
C3100 C 0.01708 0.40266 0.46184 0.0
C3101 C 0.02154 0.41386 0.37694 0.0
C3102 C 0.01612 0.41387 0.4099 0.0
C3103 C -0.00014 0.41324 0.50513 0.0
C3104 C 0.00557 0.41359 0.47236 0.0
H3105 H 0.00722 0.41959 0.30426 0.0
H3106 H -0.0015 0.42 0.35766 0.0
H3107 H 0.03088 0.39396 0.42406 0.0
H3108 H 0.99167 0.38682 0.5627 0.0
H3109 H 0.00053 0.38748 0.50956 0.0
C3110 C 0.30656 0.26201 0.06468 0.0
C3111 C 0.3209 0.26468 0.04874 0.0
C3112 C 0.30669 0.25763 0.09573 0.0
C3113 C 0.33212 0.25902 0.16509 0.0
H3114 H 0.30342 0.22646 0.19594 0.0
C3115 C 0.33863 0.23365 0.28732 0.0
C3116 C 0.32469 0.23085 0.30442 0.0
C3117 C 0.33781 0.23738 0.25607 0.0
C3118 C 0.31139 0.2357 0.18779 0.0
H3119 H 0.34664 0.26492 0.05319 0.0
H3120 H 0.34688 0.25709 0.1071 0.0
H3121 H 0.30264 0.2338 0.14165 0.0
H3122 H 0.29892 0.22961 0.30183 0.0
H3123 H 0.29747 0.23623 0.2472 0.0
H3124 H 0.34083 0.26102 0.21109 0.0
C3125 C 0.33551 0.2585 0.09566 0.0
C3126 C 0.31095 0.23991 0.15664 0.0
C3127 C 0.33538 0.26281 0.06463 0.0
C3128 C 0.30989 0.23157 0.28928 0.0
C3129 C 0.30907 0.23535 0.25795 0.0
C3130 C 0.33254 0.25485 0.19617 0.0
C3131 C 0.32117 0.2559 0.11166 0.0
C3132 C 0.32138 0.25155 0.14487 0.0
C3133 C 0.32302 0.23847 0.24102 0.0
C3134 C 0.32226 0.24306 0.20793 0.0
H3135 H 0.2952 0.26318 0.05309 0.0
H3136 H 0.29543 0.25585 0.10739 0.0
H3137 H 0.34011 0.26825 0.15696 0.0
H3138 H 0.35024 0.23286 0.29808 0.0
H3139 H 0.34882 0.23933 0.24366 0.0
C3140 C 0.50478 0.60182 0.03652 0.0
C3141 C 0.50221 0.58825 0.05492 0.0
C3142 C 0.49968 0.60222 1.00586 0.0
C3143 C 0.48652 0.57624 0.94084 0.0
H3144 H 0.46968 0.6159 0.90873 0.0
C3145 C 0.45603 0.58067 0.82089 0.0
C3146 C 0.45965 0.59413 0.80282 0.0
C3147 C 0.46107 0.57971 0.8516 0.0
C3148 C 0.47449 0.60476 0.91717 0.0
H3149 H 0.49219 0.56441 0.05509 0.0
H3150 H 0.48319 0.56513 1.00178 0.0
H3151 H 0.47877 0.61459 0.96179 0.0
H3152 H 0.47124 0.61726 0.8034 0.0
H3153 H 0.48009 0.61554 0.85664 0.0
H3154 H 0.48209 0.56641 0.89614 0.0
C3155 C 0.48939 0.57542 1.0109 0.0
C3156 C 0.47976 0.604 0.9477 0.0
C3157 C 0.49456 0.575 0.04158 0.0
C3158 C 0.46835 0.60664 0.81643 0.0
C3159 C 0.47329 0.60572 0.84715 0.0
C3160 C 0.48118 0.57699 0.9103 0.0
C3161 C 0.49178 0.58909 0.9926 0.0
C3162 C 0.48594 0.58976 0.96001 0.0
C3163 C 0.46977 0.59223 0.86519 0.0
C3164 C 0.47516 0.59129 0.89797 0.0
H3165 H 0.51088 0.61215 0.04574 0.0
H3166 H 0.50209 0.61283 0.99246 0.0
H3167 H 0.49139 0.56511 0.94921 0.0
H3168 H 0.44949 0.57074 0.81117 0.0
H3169 H 0.458 0.5692 0.86479 0.0
C3170 C 0.16304 0.76227 0.78785 0.0
C3171 C 0.15393 0.75315 0.80861 0.0
C3172 C 0.16472 0.75751 0.75709 0.0
C3173 C 0.14497 0.73247 0.69791 0.0
H3174 H 0.18486 0.73682 0.65383 0.0
C3175 C 0.15316 0.70581 0.57652 0.0
C3176 C 0.162 0.71454 0.55479 0.0
C3177 C 0.15272 0.71048 0.6074 0.0
C3178 C 0.17356 0.73568 0.66564 0.0
H3179 H 0.14013 0.73138 0.81329 0.0
H3180 H 0.14299 0.72318 0.75997 0.0
H3181 H 0.18327 0.74501 0.70759 0.0
H3182 H 0.17733 0.73514 0.54884 0.0
H3183 H 0.17647 0.74338 0.6026 0.0
H3184 H 0.13518 0.7233 0.6561 0.0
C3185 C 0.14856 0.73421 0.76723 0.0
C3186 C 0.17266 0.74038 0.69655 0.0
C3187 C 0.14692 0.73893 0.79791 0.0
C3188 C 0.17054 0.72801 0.56494 0.0
C3189 C 0.17006 0.73273 0.59586 0.0
C3190 C 0.14585 0.72783 0.66705 0.0
C3191 C 0.15731 0.74351 0.74626 0.0
C3192 C 0.15836 0.73875 0.71317 0.0
C3193 C 0.16106 0.72409 0.61754 0.0
C3194 C 0.16018 0.72928 0.65045 0.0
H3195 H 0.1685 0.77335 0.7951 0.0
H3196 H 0.17144 0.76505 0.74159 0.0
H3197 H 0.13366 0.73133 0.7097 0.0
H3198 H 0.14668 0.6952 0.56973 0.0
H3199 H 0.14594 0.70329 0.62341 0.0
C3200 C 0.4633 0.92161 0.36371 0.0
C3201 C 0.47021 0.92105 0.33429 0.0
C3202 C 0.4728 0.9209 0.39018 0.0
C3203 C 0.51414 0.91064 0.41668 0.0
H3204 H 0.50186 0.93472 0.48887 0.0
C3205 C 0.55731 0.92535 0.51677 0.0
C3206 C 0.55155 0.9238 0.54699 0.0
C3207 C 0.54711 0.92346 0.49158 0.0
C3208 C 0.50536 0.92778 0.46901 0.0
H3209 H 0.49264 0.91952 0.30981 0.0
H3210 H 0.50919 0.91887 0.35561 0.0
H3211 H 0.48476 0.93494 0.44358 0.0
H3212 H 0.53053 0.91885 0.57431 0.0
H3213 H 0.51263 0.91577 0.53018 0.0
H3214 H 0.53506 0.90403 0.44194 0.0
C3215 C 0.49639 0.91935 0.35848 0.0
C3216 C 0.49552 0.92785 0.44296 0.0
C3217 C 0.48687 0.91984 0.33205 0.0
C3218 C 0.53538 0.92 0.55136 0.0
C3219 C 0.5251 0.91837 0.5261 0.0
C3220 C 0.52407 0.91076 0.44256 0.0
C3221 C 0.48953 0.91982 0.38801 0.0
C3222 C 0.49979 0.91936 0.41627 0.0
C3223 C 0.53082 0.92022 0.49591 0.0
C3224 C 0.51984 0.91939 0.46899 0.0
H3225 H 0.45049 0.92243 0.36635 0.0
H3226 H 0.46697 0.92102 0.41235 0.0
H3227 H 0.51774 0.90363 0.39701 0.0
H3228 H 0.56969 0.92829 0.51253 0.0
H3229 H 0.55188 0.92507 0.46866 0.0
C3230 C 0.32653 0.20601 0.6056 0.0
C3231 C 0.32667 0.21256 0.57585 0.0
C3232 C 0.3269 0.21597 0.63143 0.0
C3233 C 0.31476 0.25572 0.65499 0.0
H3234 H 0.34262 0.24978 0.72505 0.0
C3235 C 0.31303 0.29944 0.75681 0.0
C3236 C 0.31442 0.29289 0.78638 0.0
C3237 C 0.31644 0.29023 0.73084 0.0
C3238 C 0.33461 0.25152 0.70585 0.0
H3239 H 0.32783 0.23472 0.55002 0.0
H3240 H 0.32826 0.25192 0.59491 0.0
H3241 H 0.34476 0.23193 0.68088 0.0
H3242 H 0.32081 0.27157 0.81185 0.0
H3243 H 0.32617 0.25544 0.76687 0.0
H3244 H 0.3041 0.2748 0.68 0.0
C3245 C 0.32785 0.23913 0.59824 0.0
C3246 C 0.3359 0.2413 0.68055 0.0
C3247 C 0.32768 0.22922 0.57253 0.0
C3248 C 0.3197 0.27707 0.78943 0.0
C3249 C 0.32288 0.26779 0.76351 0.0
C3250 C 0.31329 0.26576 0.6804 0.0
C3251 C 0.3272 0.23264 0.62791 0.0
C3252 C 0.326 0.24334 0.65488 0.0
C3253 C 0.32107 0.27415 0.73382 0.0
C3254 C 0.32319 0.26382 0.70622 0.0
H3255 H 0.32577 0.19323 0.60894 0.0
H3256 H 0.32634 0.21068 0.65411 0.0
H3257 H 0.30682 0.25742 0.63563 0.0
H3258 H 0.3091 0.31163 0.75365 0.0
H3259 H 0.31525 0.29568 0.70841 0.0
C3260 C 0.93233 0.07758 1.00544 0.0
C3261 C 0.93888 0.08209 0.03382 0.0
C3262 C 0.94063 0.08033 0.97808 0.0
C3263 C 0.97746 0.09976 0.94527 0.0
H3264 H 0.9736 0.06561 0.88565 0.0
C3265 C 0.02559 0.08396 0.85486 0.0
C3266 C 0.02049 0.08139 0.82447 0.0
C3267 C 0.01455 0.08627 0.87848 0.0
C3268 C 0.97467 0.07534 0.90189 0.0
H3269 H 0.95901 0.09351 0.05579 0.0
H3270 H 0.97384 0.09777 1.00841 0.0
H3271 H 0.95624 0.0659 0.93032 0.0
H3272 H -0.00025 0.07933 0.79505 0.0
H3273 H 0.98037 0.08289 0.8367 0.0
H3274 H -0.00334 0.10853 0.91734 0.0
C3275 C 0.96206 0.09256 1.00685 0.0
C3276 C 0.96463 0.07561 0.92754 0.0
C3277 C 0.95355 0.09014 0.03418 0.0
C3278 C 0.00406 0.08132 0.8182 0.0
C3279 C 0.99297 0.0833 0.84201 0.0
C3280 C 0.98772 0.0993 0.91988 0.0
C3281 C 0.95594 0.08725 0.97843 0.0
C3282 C 0.96592 0.08775 0.94984 0.0
C3283 C -0.00188 0.08576 0.8724 0.0
C3284 C 0.9865 0.08701 0.89806 0.0
H3285 H 0.921 0.07138 1.00449 0.0
H3286 H 0.93519 0.07654 0.95674 0.0
H3287 H 0.9787 0.10949 0.96141 0.0
H3288 H 0.03817 0.08416 0.86046 0.0
H3289 H 0.01885 0.088 0.9017 0.0
C3290 C 0.15641 0.75821 0.07286 0.0
C3291 C 0.159 0.77472 0.0758 0.0
C3292 C 0.15638 0.7483 0.09875 0.0
C3293 C 0.15084 0.74716 0.18229 0.0
H3294 H 0.17919 0.71078 0.17962 0.0
C3295 C 0.16558 0.70992 0.29117 0.0
C3296 C 0.16987 0.69383 0.28778 0.0
C3297 C 0.16275 0.71951 0.26535 0.0
C3298 C 0.17092 0.72064 0.18074 0.0
H3299 H 0.16301 0.7938 0.10853 0.0
H3300 H 0.16255 0.77648 0.15386 0.0
H3301 H 0.17667 0.72791 0.13484 0.0
H3302 H 0.17377 0.67498 0.25467 0.0
H3303 H 0.16797 0.69132 0.20984 0.0
H3304 H 0.14471 0.73976 0.22784 0.0
C3305 C 0.16069 0.77125 0.1314 0.0
C3306 C 0.16958 0.73054 0.155 0.0
C3307 C 0.16101 0.78114 0.10542 0.0
C3308 C 0.17056 0.68736 0.25806 0.0
C3309 C 0.16741 0.69684 0.23228 0.0
C3310 C 0.15194 0.73707 0.20792 0.0
C3311 C 0.15866 0.75468 0.12828 0.0
C3312 C 0.15961 0.74397 0.15552 0.0
C3313 C 0.16388 0.71319 0.23541 0.0
C3314 C 0.16209 0.72368 0.20766 0.0
H3315 H 0.15489 0.75283 0.05043 0.0
H3316 H 0.15468 0.7356 0.09566 0.0
H3317 H 0.14296 0.75737 0.18326 0.0
H3318 H 0.16518 0.71535 0.31374 0.0
H3319 H 0.16031 0.73203 0.26897 0.0
C3320 C 0.51153 0.06865 0.32599 0.0
C3321 C 0.49992 0.0675 0.30273 0.0
C3322 C 0.50714 0.0687 0.3571 0.0
C3323 C 0.47384 0.05796 0.4099 0.0
H3324 H 0.49494 0.08697 0.46607 0.0
C3325 C 0.45007 0.06943 0.53308 0.0
C3326 C 0.46119 0.07159 0.55693 0.0
C3327 C 0.45503 0.0685 0.50237 0.0
C3328 C 0.48904 0.07863 0.45085 0.0
H3329 H 0.47455 0.06508 0.29437 0.0
H3330 H 0.46692 0.06543 0.34831 0.0
H3331 H 0.50323 0.086 0.41244 0.0
H3332 H 0.4864 0.07404 0.56685 0.0
H3333 H 0.49503 0.07237 0.5135 0.0
H3334 H 0.45963 0.05059 0.44826 0.0
C3335 C 0.47945 0.0662 0.34258 0.0
C3336 C 0.49381 0.07807 0.41999 0.0
C3337 C 0.48383 0.06621 0.31153 0.0
C3338 C 0.47744 0.07266 0.54914 0.0
C3339 C 0.48241 0.07171 0.51844 0.0
C3340 C 0.46908 0.05849 0.44075 0.0
C3341 C 0.49102 0.06751 0.36585 0.0
C3342 C 0.48623 0.06779 0.39901 0.0
C3343 C 0.47127 0.06967 0.49456 0.0
C3344 C 0.47655 0.06889 0.46169 0.0
H3345 H 0.52402 0.06978 0.32017 0.0
H3346 H 0.51641 0.06955 0.37432 0.0
H3347 H 0.46789 0.04968 0.39462 0.0
H3348 H 0.43744 0.06879 0.53806 0.0
H3349 H 0.44605 0.06719 0.48467 0.0
C3350 C 0.15922 0.26311 0.57978 0.0
C3351 C 0.15656 0.25176 0.55656 0.0
C3352 C 0.16013 0.25846 0.61067 0.0
C3353 C 0.16614 0.22335 0.66167 0.0
H3354 H 0.14274 0.24862 0.72092 0.0
C3355 C 0.15287 0.20069 0.78504 0.0
C3356 C 0.15311 0.21184 0.80917 0.0
C3357 C 0.15427 0.20569 0.75441 0.0
C3358 C 0.14954 0.24152 0.70483 0.0
H3359 H 0.15354 0.2265 0.54762 0.0
H3360 H 0.15498 0.21843 0.60134 0.0
H3361 H 0.14398 0.25722 0.66754 0.0
H3362 H 0.15559 0.23698 0.81987 0.0
H3363 H 0.15812 0.24565 0.76671 0.0
H3364 H 0.17166 0.20762 0.69895 0.0
C3365 C 0.15638 0.23094 0.59575 0.0
C3366 C 0.15025 0.24648 0.67414 0.0
C3367 C 0.15539 0.23559 0.56493 0.0
C3368 C 0.15503 0.22808 0.80188 0.0
C3369 C 0.15647 0.23306 0.77131 0.0
C3370 C 0.16547 0.21841 0.69241 0.0
C3371 C 0.15852 0.24233 0.6191 0.0
C3372 C 0.15847 0.23741 0.65209 0.0
C3373 C 0.15601 0.22196 0.7471 0.0
C3374 C 0.15708 0.22738 0.71441 0.0
H3375 H 0.16011 0.27567 0.57419 0.0
H3376 H 0.16199 0.26754 0.62801 0.0
H3377 H 0.17276 0.21619 0.64541 0.0
H3378 H 0.15126 0.18811 0.78978 0.0
H3379 H 0.15363 0.19679 0.73643 0.0
C3380 C 0.02689 0.88852 0.0516 0.0
C3381 C 0.03444 0.90198 0.06435 0.0
C3382 C 0.02165 0.88853 0.02104 0.0
C3383 C 0.01127 0.91551 0.95601 0.0
H3384 H 0.01583 0.877 0.90764 0.0
C3385 C -0.00199 0.91325 0.8245 0.0
C3386 C 0.99075 0.89936 0.81284 0.0
C3387 C 0.00316 0.91399 0.85518 0.0
C3388 C 0.01427 0.88781 0.92086 0.0
H3389 H 0.04219 0.92614 0.05451 0.0
H3390 H 0.03332 0.92605 1.00109 0.0
H3391 H 0.02526 0.87747 0.96049 0.0
H3392 H 0.98264 0.87562 0.82508 0.0
H3393 H 0.99157 0.87692 0.87822 0.0
H3394 H 0.00029 0.92584 0.9162 0.0
C3395 C 0.03131 0.9155 1.0149 0.0
C3396 C 0.0197 0.88808 0.9513 0.0
C3397 C 0.03659 0.91548 0.04551 0.0
C3398 C 0.98849 0.88639 0.83293 0.0
C3399 C 0.99363 0.88714 0.86352 0.0
C3400 C 0.00584 0.91524 0.92549 0.0
C3401 C 0.02378 0.90201 1.00217 0.0
C3402 C 0.01822 0.9019 0.96942 0.0
C3403 C 0.0012 0.90088 0.87506 0.0
C3404 C 0.00718 0.90135 0.90751 0.0
H3405 H 0.02517 0.87782 0.06517 0.0
H3406 H 0.01575 0.87797 1.0123 0.0
H3407 H 0.00972 0.92631 0.96927 0.0
H3408 H 0.00013 0.92342 0.80971 0.0
H3409 H 0.00907 0.92473 0.86307 0.0
C3410 C 0.32294 0.76135 0.29705 0.0
C3411 C 0.3201 0.77738 0.30484 0.0
C3412 C 0.32191 0.75619 0.2665 0.0
C3413 C 0.30557 0.76735 0.18985 0.0
H3414 H 0.33679 0.73712 0.15977 0.0
C3415 C 0.31282 0.7533 0.06028 0.0
C3416 C 0.31623 0.73753 0.05144 0.0
C3417 C 0.3127 0.75773 0.0913 0.0
C3418 C 0.32784 0.7454 0.16784 0.0
H3419 H 0.3139 0.80054 0.28621 0.0
H3420 H 0.31213 0.79157 0.23301 0.0
H3421 H 0.33769 0.7457 0.21322 0.0
H3422 H 0.32211 0.71402 0.06878 0.0
H3423 H 0.32165 0.72167 0.12291 0.0
H3424 H 0.29579 0.76712 0.14438 0.0
C3425 C 0.31496 0.7829 0.25062 0.0
C3426 C 0.32835 0.75034 0.19859 0.0
C3427 C 0.31598 0.78807 0.2812 0.0
C3428 C 0.31933 0.72625 0.07464 0.0
C3429 C 0.31925 0.73069 0.10572 0.0
C3430 C 0.30507 0.76241 0.15909 0.0
C3431 C 0.31799 0.7669 0.24278 0.0
C3432 C 0.31726 0.76144 0.21004 0.0
C3433 C 0.31599 0.74652 0.1145 0.0
C3434 C 0.31623 0.75142 0.14758 0.0
H3435 H 0.32584 0.75269 0.31465 0.0
H3436 H 0.32402 0.74372 0.26155 0.0
H3437 H 0.29666 0.77568 0.19787 0.0
H3438 H 0.31015 0.76229 0.04318 0.0
H3439 H 0.3103 0.77005 0.09703 0.0
C3440 C 0.44068 0.06344 0.85194 0.0
C3441 C 0.44542 0.06557 0.82122 0.0
C3442 C 0.45135 0.06615 0.87606 0.0
C3443 C 0.4937 0.06567 0.89531 0.0
H3444 H 0.48015 0.08843 0.96821 0.0
C3445 C 0.53472 0.07219 1.00275 0.0
C3446 C 0.5272 0.07068 0.03149 0.0
C3447 C 0.52566 0.07353 0.9757 0.0
C3448 C 0.48412 0.08188 0.9482 0.0
H3449 H 0.46519 0.0723 0.79186 0.0
H3450 H 0.48398 0.07678 0.8342 0.0
H3451 H 0.46257 0.08705 0.92377 0.0
H3452 H 0.50417 0.06945 0.0541 0.0
H3453 H 0.4886 0.07139 1.00753 0.0
H3454 H 0.51499 0.0599 0.92012 0.0
C3455 C 0.47191 0.07311 0.83946 0.0
C3456 C 0.47403 0.08118 0.92264 0.0
C3457 C 0.46111 0.07065 0.81525 0.0
C3458 C 0.51045 0.07072 0.0325 0.0
C3459 C 0.50145 0.07196 1.00562 0.0
C3460 C 0.50375 0.0662 0.92107 0.0
C3461 C 0.46714 0.07084 0.87014 0.0
C3462 C 0.47858 0.07284 0.89608 0.0
C3463 C 0.50887 0.07334 0.97676 0.0
C3464 C 0.49897 0.07406 0.94814 0.0
H3465 H 0.42871 0.05951 0.85741 0.0
H3466 H 0.44735 0.06414 0.8994 0.0
H3467 H 0.4975 0.05906 0.87523 0.0
H3468 H 0.54759 0.0722 1.00107 0.0
H3469 H 0.53183 0.07474 0.95399 0.0
C3470 C 0.64823 0.70187 0.57385 0.0
C3471 C 0.65891 0.689 0.57557 0.0
C3472 C 0.64506 0.71116 0.5999 0.0
C3473 C 0.64619 0.71265 0.68398 0.0
H3474 H 0.65881 0.75684 0.67426 0.0
C3475 C 0.65783 0.75324 0.78903 0.0
C3476 C 0.65598 0.76981 0.78619 0.0
C3477 C 0.65591 0.74325 0.76352 0.0
C3478 C 0.65483 0.74467 0.67748 0.0
H3479 H 0.67386 0.67519 0.6062 0.0
H3480 H 0.66777 0.69101 0.65191 0.0
H3481 H 0.65835 0.73931 0.6298 0.0
H3482 H 0.64996 0.78885 0.75467 0.0
H3483 H 0.64572 0.77147 0.71064 0.0
H3484 H 0.64231 0.71792 0.73142 0.0
C3485 C 0.66204 0.69403 0.63038 0.0
C3486 C 0.65466 0.7346 0.65186 0.0
C3487 C 0.66552 0.68499 0.60423 0.0
C3488 C 0.65161 0.77613 0.75753 0.0
C3489 C 0.64933 0.76612 0.73216 0.0
C3490 C 0.64601 0.72281 0.70953 0.0
C3491 C 0.65219 0.7075 0.62828 0.0
C3492 C 0.65061 0.71844 0.65493 0.0
C3493 C 0.65175 0.74953 0.73455 0.0
C3494 C 0.65063 0.73893 0.70684 0.0
H3495 H 0.64313 0.70538 0.55201 0.0
H3496 H 0.6374 0.72148 0.59772 0.0
H3497 H 0.64294 0.70024 0.68692 0.0
H3498 H 0.66137 0.74801 0.81074 0.0
H3499 H 0.65823 0.73066 0.76647 0.0
C3500 C 0.03841 0.90046 0.32926 0.0
C3501 C 0.05132 0.91089 0.33404 0.0
C3502 C 0.02843 0.89616 0.35369 0.0
C3503 C 0.02499 0.89017 0.43492 0.0
H3504 H 0.98277 0.90875 0.4314 0.0
C3505 C 0.98588 0.89583 0.54305 0.0
C3506 C 0.96925 0.8971 0.54039 0.0
C3507 C -0.00452 0.89467 0.51693 0.0
C3508 C 0.99432 0.90307 0.43265 0.0
H3509 H 0.06432 0.92439 0.36834 0.0
H3510 H 0.04723 0.91627 0.41129 0.0
H3511 H 0.00067 0.91142 0.38765 0.0
H3512 H 0.94957 0.89717 0.50821 0.0
H3513 H 0.9662 0.8942 0.46261 0.0
H3514 H 0.01873 0.8814 0.47939 0.0
C3515 C 0.04475 0.91166 0.38853 0.0
C3516 C 0.00461 0.90474 0.40756 0.0
C3517 C 0.0545 0.9163 0.36399 0.0
C3518 C 0.96236 0.89629 0.51102 0.0
C3519 C 0.97197 0.89477 0.48483 0.0
C3520 C 0.01458 0.88813 0.45976 0.0
C3521 C 0.03144 0.90186 0.38343 0.0
C3522 C 0.02012 0.8986 0.40876 0.0
C3523 C 0.98873 0.89442 0.48731 0.0
C3524 C -0.00081 0.8949 0.45937 0.0
H3525 H 0.03555 0.89624 0.30639 0.0
H3526 H 0.01819 0.88861 0.34928 0.0
H3527 H 0.0369 0.88524 0.43621 0.0
H3528 H 0.99163 0.89663 0.56528 0.0
H3529 H 0.00827 0.89476 0.52015 0.0
C3530 C 0.82964 0.28541 0.08534 0.0
C3531 C 0.82223 0.30038 0.08678 0.0
C3532 C 0.83095 0.2759 0.11173 0.0
C3533 C 0.81242 0.27175 0.18963 0.0
H3534 H 0.84455 0.23903 0.19998 0.0
C3535 C 0.81946 0.23446 0.30082 0.0
C3536 C 0.81912 0.21783 0.29667 0.0
C3537 C 0.8208 0.24471 0.27558 0.0
C3538 C 0.83549 0.24811 0.19727 0.0
H3539 H 0.81142 0.31766 0.11718 0.0
H3540 H 0.8147 0.30174 0.16346 0.0
H3541 H 0.84626 0.25733 0.15639 0.0
H3542 H 0.82025 0.19894 0.26274 0.0
H3543 H 0.82304 0.21693 0.21864 0.0
H3544 H 0.80202 0.26276 0.23116 0.0
C3545 C 0.81881 0.29683 0.14188 0.0
C3546 C 0.83639 0.25858 0.1722 0.0
C3547 C 0.81714 0.30613 0.1154 0.0
C3548 C 0.82042 0.21169 0.2667 0.0
C3549 C 0.82211 0.22196 0.24149 0.0
C3550 C 0.81174 0.26152 0.21497 0.0
C3551 C 0.82516 0.2813 0.14032 0.0
C3552 C 0.8248 0.27053 0.16784 0.0
C3553 C 0.82217 0.23857 0.24568 0.0
C3554 C 0.82319 0.24954 0.21895 0.0
H3555 H 0.83344 0.28056 0.06347 0.0
H3556 H 0.83576 0.26401 0.10924 0.0
H3557 H 0.80296 0.28039 0.1869 0.0
H3558 H 0.81843 0.23959 0.32356 0.0
H3559 H 0.82085 0.25747 0.27943 0.0
C3560 C 0.53004 0.93064 0.82691 0.0
C3561 C 0.53205 0.91586 0.81206 0.0
C3562 C 0.52481 0.93138 0.85749 0.0
C3563 C 0.50408 0.90745 0.91759 0.0
H3564 H 0.52237 0.93846 0.97345 0.0
C3565 C 0.48031 0.91508 0.04178 0.0
C3566 C 0.49174 0.91691 0.06519 0.0
C3567 C 0.48472 0.91599 1.01075 0.0
C3568 C 0.51717 0.92967 0.95823 0.0
H3569 H 0.53042 0.89026 0.81839 0.0
H3570 H 0.52135 0.89155 0.87145 0.0
H3571 H 0.5313 0.93761 0.92015 0.0
H3572 H 0.51667 0.92189 0.07406 0.0
H3573 H 0.5244 0.92323 0.02016 0.0
H3574 H 0.49025 0.89923 0.95581 0.0
C3575 C 0.52352 0.90261 0.8593 0.0
C3576 C 0.52218 0.92929 0.9275 0.0
C3577 C 0.52875 0.90187 0.82877 0.0
C3578 C 0.50759 0.92017 0.0567 0.0
C3579 C 0.51199 0.92112 0.02569 0.0
C3580 C 0.49905 0.90784 0.94829 0.0
C3581 C 0.52142 0.91737 0.87412 0.0
C3582 C 0.51579 0.9181 0.90676 0.0
C3583 C 0.50067 0.91883 1.00223 0.0
C3584 C 0.50559 0.91889 0.96914 0.0
H3585 H 0.53223 0.94169 0.81473 0.0
H3586 H 0.52314 0.94298 0.86792 0.0
H3587 H 0.49871 0.89879 0.90229 0.0
H3588 H 0.46801 0.91249 0.04741 0.0
H3589 H 0.47561 0.9144 0.99339 0.0
C3590 C 0.82861 0.78839 0.5743 0.0
C3591 C 0.84187 0.78707 0.55465 0.0
C3592 C 0.82968 0.78403 0.60541 0.0
C3593 C 0.85904 0.77716 0.66836 0.0
H3594 H 0.8244 0.75394 0.70676 0.0
C3595 C 0.86558 0.74888 0.78951 0.0
C3596 C 0.85229 0.74875 0.80923 0.0
C3597 C 0.86416 0.75383 0.75883 0.0
C3598 C 0.83412 0.76061 0.69663 0.0
H3599 H 0.86681 0.78038 0.55295 0.0
H3600 H 0.86862 0.77267 0.60681 0.0
H3601 H 0.82215 0.76214 0.65318 0.0
H3602 H 0.82707 0.75412 0.81183 0.0
H3603 H 0.82462 0.76289 0.75861 0.0
H3604 H 0.87099 0.77574 0.71175 0.0
C3605 C 0.85737 0.77714 0.59825 0.0
C3606 C 0.83283 0.76532 0.66575 0.0
C3607 C 0.85627 0.78141 0.56716 0.0
C3608 C 0.83754 0.75382 0.79731 0.0
C3609 C 0.83613 0.75884 0.76665 0.0
C3610 C 0.86031 0.77252 0.69925 0.0
C3611 C 0.84409 0.77833 0.61788 0.0
C3612 C 0.8453 0.7736 0.65108 0.0
C3613 C 0.84941 0.75889 0.74684 0.0
C3614 C 0.84791 0.7641 0.71389 0.0
H3615 H 0.81728 0.79257 0.56555 0.0
H3616 H 0.81923 0.78527 0.61978 0.0
H3617 H 0.86879 0.78375 0.65813 0.0
H3618 H 0.87708 0.74481 0.79759 0.0
H3619 H 0.87463 0.75338 0.74433 0.0
C3620 C 0.00629 0.1038 0.54065 0.0
C3621 C 0.00554 0.09003 0.55915 0.0
C3622 C 0.00115 0.10349 0.51 0.0
C3623 C 0.99177 0.07602 0.4449 0.0
H3624 H 0.96931 0.11284 0.41303 0.0
C3625 C 0.96161 0.07612 0.32426 0.0
C3626 C 0.96287 0.09013 0.30656 0.0
C3627 C 0.96663 0.07583 0.35505 0.0
C3628 C 0.97572 0.10251 0.42137 0.0
H3629 H -0.00126 0.06508 0.55937 0.0
H3630 H 0.98977 0.06454 0.50602 0.0
H3631 H 0.9785 0.11277 0.46608 0.0
H3632 H 0.97019 0.11494 0.30805 0.0
H3633 H 0.97911 0.11437 0.36126 0.0
H3634 H 0.98894 0.06577 0.4001 0.0
C3635 C 0.99453 0.07557 0.51514 0.0
C3636 C 0.98102 0.10247 0.45192 0.0
C3637 C -0.0003 0.07588 0.54584 0.0
C3638 C 0.96918 0.10386 0.3207 0.0
C3639 C 0.97415 0.10359 0.35146 0.0
C3640 C 0.98644 0.07605 0.41431 0.0
C3641 C 0.99507 0.08941 0.49679 0.0
C3642 C 0.98921 0.08927 0.46417 0.0
C3643 C 0.97298 0.08957 0.36913 0.0
C3644 C 0.97839 0.08933 0.40201 0.0
H3645 H 0.01099 0.11485 0.54978 0.0
H3646 H 0.00211 0.11431 0.49656 0.0
H3647 H -0.0018 0.06571 0.45325 0.0
H3648 H 0.95696 0.06526 0.3142 0.0
H3649 H 0.96538 0.06485 0.36791 0.0
C3650 C 0.65379 0.20226 0.08251 0.0
C3651 C 0.65547 0.21358 0.05884 0.0
C3652 C 0.65477 0.20684 0.11341 0.0
C3653 C 0.66919 0.23931 0.16475 0.0
H3654 H 0.63973 0.2204 0.2229 0.0
C3655 C 0.66242 0.26232 0.29018 0.0
C3656 C 0.66004 0.25089 0.31341 0.0
C3657 C 0.66232 0.25789 0.2591 0.0
C3658 C 0.64819 0.22567 0.20709 0.0
H3659 H 0.65994 0.23859 0.04945 0.0
H3660 H 0.66135 0.2466 0.1032 0.0
H3661 H 0.63879 0.21241 0.16918 0.0
H3662 H 0.6563 0.22567 0.32192 0.0
H3663 H 0.65613 0.21798 0.26803 0.0
H3664 H 0.67855 0.25261 0.20275 0.0
C3665 C 0.65938 0.23414 0.09789 0.0
C3666 C 0.64766 0.22107 0.1762 0.0
C3667 C 0.65837 0.22957 0.06699 0.0
C3668 C 0.65782 0.23487 0.30471 0.0
C3669 C 0.65772 0.23045 0.27372 0.0
C3670 C 0.66973 0.24392 0.1957 0.0
C3671 C 0.6575 0.22286 0.12156 0.0
C3672 C 0.65816 0.22779 0.15456 0.0
C3673 C 0.65984 0.2419 0.25043 0.0
C3674 C 0.65926 0.23713 0.21733 0.0
H3675 H 0.65141 0.18987 0.07721 0.0
H3676 H 0.65347 0.19777 0.13094 0.0
H3677 H 0.67761 0.2446 0.14888 0.0
H3678 H 0.66401 0.27478 0.29595 0.0
H3679 H 0.66382 0.26707 0.24184 0.0
C3680 C 0.09895 0.54038 0.70215 0.0
C3681 C 0.0896 0.55423 0.70054 0.0
C3682 C 0.10174 0.53295 0.73066 0.0
C3683 C 0.08154 0.52894 0.80515 0.0
H3684 H 0.12066 0.50991 0.83486 0.0
C3685 C 0.08237 0.48996 0.91441 0.0
C3686 C 0.09458 0.49308 0.93576 0.0
C3687 C 0.08292 0.49645 0.88476 0.0
C3688 C 0.10965 0.51519 0.82687 0.0
H3689 H 0.07676 0.57174 0.72735 0.0
H3690 H 0.08193 0.55915 0.77671 0.0
H3691 H 0.12046 0.52389 0.78528 0.0
H3692 H 0.1171 0.50543 0.94207 0.0
H3693 H 0.1181 0.51656 0.89036 0.0
H3694 H 0.07069 0.52047 0.84651 0.0
C3695 C 0.08689 0.55379 0.7562 0.0
C3696 C 0.10953 0.5231 0.7984 0.0
C3697 C 0.08411 0.56113 0.72795 0.0
C3698 C 0.10757 0.50254 0.92625 0.0
C3699 C 0.10816 0.50896 0.89653 0.0
C3700 C 0.08162 0.52095 0.83333 0.0
C3701 C 0.09514 0.53926 0.75784 0.0
C3702 C 0.0955 0.53026 0.78742 0.0
C3703 C 0.09573 0.50619 0.87553 0.0
C3704 C 0.09569 0.51407 0.84473 0.0
H3705 H 0.10299 0.53462 0.6813 0.0
H3706 H 0.10813 0.52175 0.73117 0.0
H3707 H 0.07045 0.53409 0.79718 0.0
H3708 H 0.07234 0.48248 0.92056 0.0
H3709 H 0.07325 0.49385 0.86904 0.0
C3710 C 0.70149 0.81143 0.95982 0.0
C3711 C 0.69213 0.82222 0.94288 0.0
C3712 C 0.70949 0.81615 0.9864 0.0
C3713 C 0.70818 0.8447 0.05011 0.0
H3714 H 0.75012 0.82755 0.0674 0.0
C3715 C 0.7411 0.85618 0.16647 0.0
C3716 C 0.74996 0.84349 0.17911 0.0
C3717 C 0.73467 0.85519 0.13672 0.0
C3718 C 0.73834 0.83232 0.06321 0.0
H3719 H 0.68408 0.84668 0.94064 0.0
H3720 H 0.69806 0.85505 0.98801 0.0
H3721 H 0.73832 0.82379 0.01684 0.0
H3722 H 0.75896 0.81979 0.16956 0.0
H3723 H 0.74748 0.81789 0.11835 0.0
H3724 H 0.70804 0.85288 0.09683 0.0
C3725 C 0.69917 0.84284 0.98027 0.0
C3726 C 0.73159 0.83024 0.03403 0.0
C3727 C 0.69127 0.83812 0.95303 0.0
C3728 C 0.75212 0.82977 0.16097 0.0
C3729 C 0.74568 0.82878 0.13125 0.0
C3730 C 0.71493 0.84675 0.07946 0.0
C3731 C 0.70833 0.83184 0.99738 0.0
C3732 C 0.71627 0.8361 0.02718 0.0
C3733 C 0.73687 0.84148 0.11855 0.0
C3734 C 0.73 0.8403 0.08667 0.0
H3735 H 0.70248 0.79909 0.9528 0.0
H3736 H 0.7162 0.80726 0.99898 0.0
H3737 H 0.69632 0.84925 0.04582 0.0
H3738 H 0.73894 0.86689 0.17971 0.0
H3739 H 0.7281 0.86529 0.12785 0.0
C3740 C 0.39425 0.49279 0.42589 0.0
C3741 C 0.40246 0.50695 0.4332 0.0
C3742 C 0.39583 0.4857 0.39693 0.0
C3743 C 0.4091 0.49328 0.31637 0.0
H3744 H 0.41178 0.44717 0.31343 0.0
C3745 C 0.41247 0.45745 0.20105 0.0
C3746 C 0.42332 0.44468 0.20057 0.0
C3747 C 0.40894 0.46537 0.22874 0.0
C3748 C 0.41112 0.46007 0.31375 0.0
H3749 H 0.41862 0.52482 0.41503 0.0
H3750 H 0.42165 0.51225 0.36476 0.0
H3751 H 0.4081 0.46045 0.36251 0.0
H3752 H 0.43871 0.43014 0.22924 0.0
H3753 H 0.43274 0.44384 0.27674 0.0
H3754 H 0.41259 0.4928 0.26749 0.0
C3755 C 0.41382 0.50673 0.38142 0.0
C3756 C 0.40881 0.46771 0.34198 0.0
C3757 C 0.41223 0.51385 0.41047 0.0
C3758 C 0.43034 0.43993 0.22849 0.0
C3759 C 0.42679 0.44774 0.25597 0.0
C3760 C 0.41139 0.4856 0.28802 0.0
C3761 C 0.40571 0.49248 0.37429 0.0
C3762 C 0.40785 0.48443 0.34381 0.0
C3763 C 0.41607 0.4606 0.25661 0.0
C3764 C 0.4126 0.46888 0.28636 0.0
H3765 H 0.38677 0.48696 0.44277 0.0
H3766 H 0.38923 0.47486 0.3923 0.0
H3767 H 0.40824 0.50615 0.31675 0.0
H3768 H 0.40687 0.46147 0.18002 0.0
H3769 H 0.40053 0.47514 0.22837 0.0
C3770 C 0.80468 0.16435 0.4837 0.0
C3771 C 0.79867 0.15905 0.4553 0.0
C3772 C 0.79702 0.16048 0.51118 0.0
C3773 C 0.78241 0.14547 0.56796 0.0
H3774 H 0.73658 0.15107 0.57018 0.0
C3775 C 0.74619 0.13475 0.67916 0.0
C3776 C 0.734 0.14567 0.68622 0.0
C3777 C 0.75368 0.13495 0.65043 0.0
C3778 C 0.74939 0.14952 0.57 0.0
H3779 H 0.78008 0.14507 0.43369 0.0
H3780 H 0.76663 0.13815 0.48206 0.0
H3781 H 0.75076 0.15314 0.52124 0.0
H3782 H 0.72008 0.16527 0.66799 0.0
H3783 H 0.73335 0.16581 0.61805 0.0
H3784 H 0.78119 0.14234 0.61669 0.0
C3785 C 0.77733 0.14538 0.48287 0.0
C3786 C 0.75749 0.15048 0.54185 0.0
C3787 C 0.78516 0.14913 0.4552 0.0
C3788 C 0.72949 0.15677 0.66355 0.0
C3789 C 0.73698 0.15694 0.63473 0.0
C3790 C 0.77432 0.14444 0.59602 0.0
C3791 C 0.78303 0.15127 0.51116 0.0
C3792 C 0.77414 0.14867 0.54052 0.0
C3793 C 0.74926 0.14609 0.62781 0.0
C3794 C 0.75771 0.14661 0.59754 0.0
H3795 H 0.81501 0.17211 0.48463 0.0
H3796 H 0.80168 0.16539 0.53237 0.0
H3797 H 0.79521 0.1439 0.56781 0.0
H3798 H 0.75016 0.12616 0.69606 0.0
H3799 H 0.76295 0.12629 0.64592 0.0
C3800 C 0.89836 0.45983 0.67322 0.0
C3801 C 0.90772 0.44596 0.67255 0.0
C3802 C 0.89381 0.46733 0.6457 0.0
C3803 C 0.89095 0.4612 0.56093 0.0
H3804 H 0.89851 0.50675 0.5562 0.0
C3805 C 0.87994 0.49675 0.44896 0.0
C3806 C 0.8913 0.50838 0.44085 0.0
C3807 C 0.88027 0.48949 0.47792 0.0
C3808 C 0.89639 0.49402 0.55709 0.0
H3809 H 0.9188 0.42857 0.64258 0.0
H3810 H 0.91079 0.44141 0.59507 0.0
H3811 H 0.90109 0.49304 0.60548 0.0
H3812 H 0.91185 0.52155 0.45728 0.0
H3813 H 0.91263 0.50865 0.50756 0.0
H3814 H 0.88681 0.46202 0.51245 0.0
C3815 C 0.90693 0.4466 0.61659 0.0
C3816 C 0.89765 0.48619 0.58546 0.0
C3817 C 0.91159 0.43925 0.64392 0.0
C3818 C 0.903 0.51255 0.46257 0.0
C3819 C 0.90332 0.50529 0.4916 0.0
C3820 C 0.88966 0.46902 0.53263 0.0
C3821 C 0.89834 0.46097 0.61704 0.0
C3822 C 0.89519 0.46963 0.58766 0.0
C3823 C 0.89198 0.49362 0.49964 0.0
C3824 C 0.89258 0.4855 0.5302 0.0
H3825 H 0.89532 0.46537 0.69491 0.0
H3826 H 0.88704 0.4783 0.64686 0.0
H3827 H 0.88883 0.44847 0.56178 0.0
H3828 H 0.87086 0.49307 0.43277 0.0
H3829 H 0.87125 0.48068 0.48332 0.0
C3830 C 0.23746 0.16563 0.1997 0.0
C3831 C 0.24442 0.15738 0.175 0.0
C3832 C 0.24329 0.16379 0.22964 0.0
C3833 C 0.27917 0.15091 0.27305 0.0
H3834 H 0.25007 0.1517 0.34216 0.0
C3835 C 0.30154 0.14743 0.39932 0.0
C3836 C 0.29547 0.15974 0.4177 0.0
C3837 C 0.29458 0.14412 0.37061 0.0
C3838 C 0.25836 0.15143 0.3231 0.0
H3839 H 0.26321 0.14082 0.16272 0.0
H3840 H 0.27308 0.13731 0.21487 0.0
H3841 H 0.23954 0.15224 0.28995 0.0
H3842 H 0.2771 0.17772 0.42149 0.0
H3843 H 0.26481 0.17177 0.37221 0.0
H3844 H 0.298 0.15034 0.30637 0.0
C3845 C 0.26319 0.14534 0.21108 0.0
C3846 C 0.25233 0.15184 0.29313 0.0
C3847 C 0.25738 0.14721 0.18114 0.0
C3848 C 0.28191 0.16806 0.4078 0.0
C3849 C 0.27485 0.16462 0.37957 0.0
C3850 C 0.2852 0.15042 0.30307 0.0
C3851 C 0.25625 0.15362 0.23577 0.0
C3852 C 0.26265 0.15193 0.26767 0.0
C3853 C 0.28132 0.15292 0.3602 0.0
C3854 C 0.27488 0.15102 0.32847 0.0
H3855 H 0.22738 0.17344 0.19598 0.0
H3856 H 0.23777 0.17055 0.24793 0.0
H3857 H 0.28753 0.15112 0.2541 0.0
H3858 H 0.31214 0.14103 0.4063 0.0
H3859 H 0.29979 0.13498 0.35624 0.0
C3860 C 0.58832 0.48039 0.96094 0.0
C3861 C 0.58598 0.48939 0.93397 0.0
C3862 C 0.58865 0.48777 0.98991 0.0
C3863 C 0.57624 0.52513 0.02957 0.0
H3864 H 0.60554 0.51155 0.09329 0.0
C3865 C 0.58172 0.56148 0.14029 0.0
C3866 C 0.58165 0.55308 0.1682 0.0
C3867 C 0.58444 0.55362 0.11246 0.0
C3868 C 0.59721 0.51543 0.07584 0.0
H3869 H 0.58267 0.51342 0.91671 0.0
H3870 H 0.58325 0.5262 0.96681 0.0
H3871 H 0.60539 0.49788 0.04359 0.0
H3872 H 0.58493 0.52986 0.1889 0.0
H3873 H 0.58975 0.516 0.14017 0.0
H3874 H 0.56795 0.54255 0.06158 0.0
C3875 C 0.58449 0.51337 0.96576 0.0
C3876 C 0.59709 0.50756 0.04729 0.0
C3877 C 0.58413 0.506 0.93688 0.0
C3878 C 0.58538 0.53674 0.16785 0.0
C3879 C 0.58797 0.52878 0.13982 0.0
C3880 C 0.57637 0.53297 0.05795 0.0
C3881 C 0.58667 0.50438 0.99278 0.0
C3882 C 0.58667 0.51239 0.02363 0.0
C3883 C 0.58689 0.53702 0.11164 0.0
C3884 C 0.58695 0.52837 0.08146 0.0
H3885 H 0.58963 0.46756 0.95973 0.0
H3886 H 0.59017 0.4804 1.01013 0.0
H3887 H 0.56776 0.52898 1.01236 0.0
H3888 H 0.57865 0.57403 0.13982 0.0
H3889 H 0.5839 0.56047 0.0914 0.0
C3890 C 0.19734 0.83706 0.90912 0.0
C3891 C 0.18638 0.82436 0.91054 0.0
C3892 C 0.20547 0.84048 0.88159 0.0
C3893 C 0.21788 0.82068 0.80946 0.0
H3894 H 0.2236 0.86334 0.777 0.0
C3895 C 0.23855 0.83112 0.68478 0.0
C3896 C 0.24877 0.844 0.67837 0.0
C3897 C 0.23176 0.82928 0.71395 0.0
C3898 C 0.22232 0.85135 0.78592 0.0
H3899 H 0.1749 0.80584 0.88348 0.0
H3900 H 0.1889 0.81176 0.83627 0.0
H3901 H 0.21028 0.85957 0.8265 0.0
H3902 H 0.26004 0.86491 0.69808 0.0
H3903 H 0.24832 0.86162 0.74904 0.0
H3904 H 0.22988 0.81238 0.76923 0.0
C3905 C 0.19149 0.81892 0.85637 0.0
C3906 C 0.21466 0.84921 0.81432 0.0
C3907 C 0.18337 0.81558 0.88358 0.0
C3908 C 0.25207 0.85496 0.70205 0.0
C3909 C 0.24532 0.85308 0.73131 0.0
C3910 C 0.22557 0.82281 0.78126 0.0
C3911 C 0.20287 0.83119 0.85508 0.0
C3912 C 0.21209 0.83381 0.82616 0.0
C3913 C 0.23505 0.84021 0.73769 0.0
C3914 C 0.22768 0.83815 0.76877 0.0
H3915 H 0.19999 0.84403 0.92943 0.0
H3916 H 0.21417 0.85003 0.88135 0.0
H3917 H 0.21643 0.80867 0.8182 0.0
H3918 H 0.23548 0.82262 0.66702 0.0
H3919 H 0.22367 0.8194 0.71768 0.0
C3920 C 0.60756 0.98292 0.41073 0.0
C3921 C 0.59992 0.99001 0.43605 0.0
C3922 C 0.60658 0.9898 0.38141 0.0
C3923 C 0.59633 0.02804 0.34193 0.0
H3924 H 0.59234 0.00129 0.26969 0.0
C3925 C 0.5717 0.05093 0.22679 0.0
C3926 C 0.57867 0.04579 0.19915 0.0
C3927 C 0.57665 0.04472 0.25497 0.0
C3928 C 0.59371 0.00893 0.28957 0.0
H3929 H 0.58489 0.00969 0.45002 0.0
H3930 H 0.58292 0.02148 0.39906 0.0
H3931 H 0.59577 0.98901 0.32014 0.0
H3932 H 0.59658 0.03034 0.17946 0.0
H3933 H 0.60523 0.01924 0.22913 0.0
H3934 H 0.59372 0.04792 0.31142 0.0
C3935 C 0.59007 0.01085 0.40187 0.0
C3936 C 0.59567 0.00189 0.31859 0.0
C3937 C 0.59114 0.00404 0.43118 0.0
C3938 C 0.5911 0.03461 0.20041 0.0
C3939 C 0.59592 0.02816 0.22878 0.0
C3940 C 0.59425 0.03504 0.31301 0.0
C3941 C 0.59786 0.0039 0.37653 0.0
C3942 C 0.59675 0.01134 0.34528 0.0
C3943 C 0.5886 0.03304 0.25637 0.0
C3944 C 0.59266 0.02558 0.28652 0.0
H3945 H 0.6146 0.97222 0.4137 0.0
H3946 H 0.61292 0.98418 0.36266 0.0
H3947 H 0.59753 0.03576 0.36171 0.0
H3948 H 0.56213 0.05957 0.22661 0.0
H3949 H 0.57064 0.04865 0.27565 0.0
C3950 C 0.17351 0.32396 0.47957 0.0
C3951 C 0.18006 0.3292 0.45163 0.0
C3952 C 0.18115 0.32711 0.50738 0.0
C3953 C 0.21303 0.35072 0.54569 0.0
H3954 H 0.213 0.3146 0.60139 0.0
C3955 C 0.25116 0.34812 0.65787 0.0
C3956 C 0.24346 0.34208 0.68415 0.0
C3957 C 0.24385 0.34727 0.62892 0.0
C3958 C 0.21302 0.32486 0.58627 0.0
H3959 H 0.19941 0.34256 0.43109 0.0
H3960 H 0.21293 0.34807 0.47997 0.0
H3961 H 0.19932 0.31259 0.55235 0.0
H3962 H 0.2221 0.33019 0.70036 0.0
H3963 H 0.20938 0.32875 0.65011 0.0
H3964 H 0.22696 0.36289 0.57985 0.0
C3965 C 0.20174 0.34162 0.48031 0.0
C3966 C 0.20511 0.32374 0.5581 0.0
C3967 C 0.19396 0.33857 0.4523 0.0
C3968 C 0.22832 0.33509 0.6807 0.0
C3969 C 0.22109 0.33413 0.6518 0.0
C3970 C 0.22104 0.35182 0.57395 0.0
C3971 C 0.1957 0.33544 0.50811 0.0
C3972 C 0.20477 0.33672 0.53758 0.0
C3973 C 0.22874 0.3402 0.62552 0.0
C3974 C 0.22094 0.33896 0.59477 0.0
H3975 H 0.16277 0.31676 0.47985 0.0
H3976 H 0.17585 0.32256 0.52832 0.0
H3977 H 0.21299 0.36097 0.53054 0.0
H3978 H 0.26277 0.35371 0.65974 0.0
H3979 H 0.25012 0.35197 0.60914 0.0
C3980 C 0.92351 -0.00024 0.91817 0.0
C3981 C 0.90863 0.00321 0.93144 0.0
C3982 C 0.92457 0.99374 0.88823 0.0
C3983 C 0.90114 0.97279 0.8279 0.0
H3984 H 0.93654 0.98562 0.7763 0.0
C3985 C 0.91109 0.94849 0.70286 0.0
C3986 C 0.92679 0.94345 0.69704 0.0
C3987 C 0.90748 0.9571 0.72977 0.0
C3988 C 0.92659 0.98187 0.79041 0.0
H3989 H 0.88313 0.00291 0.92321 0.0
H3990 H 0.885 0.9927 0.87081 0.0
H3991 H 0.93299 -0.00195 0.82634 0.0
H3992 H 0.95101 0.94399 0.71467 0.0
H3993 H 0.94475 0.95879 0.76076 0.0
H3994 H 0.89489 0.95646 0.7918 0.0
C3995 C 0.89588 0.99452 0.88374 0.0
C3996 C 0.92458 0.98896 0.81924 0.0
C3997 C 0.89482 0.00057 0.91373 0.0
C3998 C 0.93875 0.94752 0.71834 0.0
C3999 C 0.93519 0.95618 0.74479 0.0
C4000 C 0.90312 0.96571 0.79891 0.0
C4001 C 0.91077 0.991 0.87055 0.0
C4002 C 0.91204 0.9843 0.83873 0.0
C4003 C 0.91954 0.96106 0.75103 0.0
C4004 C 0.9161 0.96991 0.7801 0.0
H4005 H 0.93442 0.00178 0.93087 0.0
H4006 H 0.93625 0.99099 0.87914 0.0
H4007 H 0.89139 0.9688 0.84227 0.0
H4008 H 0.9016 0.94554 0.68697 0.0
H4009 H 0.89528 0.96073 0.73385 0.0
C4010 C 0.23641 0.6523 0.15591 0.0
C4011 C 0.24226 0.64254 0.17967 0.0
C4012 C 0.24348 0.6521 0.12671 0.0
C4013 C 0.28129 0.64198 0.08752 0.0
H4014 H 0.2559 0.64556 1.01341 0.0
C4015 C 0.30698 0.66323 0.97221 0.0
C4016 C 0.30123 0.65677 0.94456 0.0
C4017 C 0.30053 0.65863 1.00039 0.0
C4018 C 0.26316 0.64431 0.03383 0.0
H4019 H 0.26034 0.62506 0.19116 0.0
H4020 H 0.27245 0.62457 0.14038 0.0
H4021 H 0.24271 0.64351 0.06333 0.0
H4022 H 0.28453 0.64 0.92477 0.0
H4023 H 0.2731 0.63182 0.97445 0.0
H4024 H 0.30173 0.64292 0.05814 0.0
C4025 C 0.26244 0.63244 0.14429 0.0
C4026 C 0.2556 0.64337 0.06252 0.0
C4027 C 0.25537 0.6326 0.1734 0.0
C4028 C 0.28934 0.64498 0.94577 0.0
C4029 C 0.28268 0.64049 0.97415 0.0
C4030 C 0.28884 0.64299 0.05892 0.0
C4031 C 0.25664 0.64221 0.12054 0.0
C4032 C 0.26457 0.6424 0.08979 0.0
C4033 C 0.28798 0.64754 1.00175 0.0
C4034 C 0.27989 0.64442 0.03172 0.0
H4035 H 0.22627 0.65999 0.15978 0.0
H4036 H 0.23879 0.65993 0.10911 0.0
H4037 H 0.28862 0.64136 0.10797 0.0
H4038 H 0.31607 0.67243 0.97196 0.0
H4039 H 0.30481 0.66446 0.021 0.0
C4040 C 0.42065 0.92967 0.14117 0.0
C4041 C 0.41443 0.93564 0.16886 0.0
C4042 C 0.41671 0.93662 0.11301 0.0
C4043 C 0.40308 0.97466 0.07927 0.0
H4044 H 0.3993 0.94915 1.00537 0.0
C4045 C 0.40615 0.00243 0.95678 0.0
C4046 C 0.39612 0.99604 0.93393 0.0
C4047 C 0.40739 0.99515 0.98574 0.0
C4048 C 0.40016 0.95651 0.02573 0.0
H4049 H 0.39871 0.95335 0.18848 0.0
H4050 H 0.3915 0.96541 0.13897 0.0
H4051 H 0.40182 0.93607 0.055 0.0
H4052 H 0.37976 0.97667 0.92387 0.0
H4053 H 0.38163 0.96427 0.97422 0.0
H4054 H 0.40127 0.99513 0.0499 0.0
C4055 C 0.39962 0.95539 0.1392 0.0
C4056 C 0.40178 0.94897 0.05428 0.0
C4057 C 0.40353 0.94833 0.16755 0.0
C4058 C 0.38746 0.98211 0.94089 0.0
C4059 C 0.38868 0.97485 0.96977 0.0
C4060 C 0.40147 0.98223 0.05064 0.0
C4061 C 0.4064 0.94979 0.11158 0.0
C4062 C 0.40341 0.95792 0.08146 0.0
C4063 C 0.39866 0.98123 0.99268 0.0
C4064 C 0.40009 0.97326 0.0234 0.0
H4065 H 0.42905 0.91989 0.14132 0.0
H4066 H 0.42232 0.93204 0.09243 0.0
H4067 H 0.40448 0.98197 0.0996 0.0
H4068 H 0.4129 0.01322 0.95248 0.0
H4069 H 0.41535 0.00034 1.00258 0.0
C4070 C 0.79207 0.67054 0.90642 0.0
C4071 C 0.80542 0.68074 0.90655 0.0
C4072 C 0.78364 0.66758 0.879 0.0
C4073 C 0.77576 0.6863 0.80363 0.0
H4074 H 0.76238 0.64437 0.77652 0.0
C4075 C 0.75353 0.67584 0.67982 0.0
C4076 C 0.74147 0.66453 0.67439 0.0
C4077 C 0.76046 0.6774 0.70895 0.0
C4078 C 0.76579 0.65622 0.7839 0.0
H4079 H 0.82072 0.69513 0.87729 0.0
H4080 H 0.80613 0.6901 0.83028 0.0
H4081 H 0.77589 0.6474 0.82603 0.0
H4082 H 0.7271 0.64613 0.69583 0.0
H4083 H 0.73899 0.649 0.74676 0.0
H4084 H 0.76562 0.69525 0.76203 0.0
C4085 C 0.80198 0.68456 0.8513 0.0
C4086 C 0.77358 0.65792 0.81232 0.0
C4087 C 0.81041 0.68739 0.87842 0.0
C4088 C 0.73648 0.65486 0.69905 0.0
C4089 C 0.74335 0.65648 0.7283 0.0
C4090 C 0.76789 0.68463 0.77547 0.0
C4091 C 0.78831 0.67488 0.85124 0.0
C4092 C 0.77892 0.67296 0.82227 0.0
C4093 C 0.75548 0.66777 0.73372 0.0
C4094 C 0.76302 0.66954 0.76483 0.0
H4095 H 0.78785 0.66523 0.9276 0.0
H4096 H 0.77316 0.66004 0.87971 0.0
H4097 H 0.77941 0.69811 0.81085 0.0
H4098 H 0.75791 0.68329 0.66132 0.0
H4099 H 0.76999 0.68599 0.71182 0.0
C4100 C 0.09151 0.98314 0.46903 0.0
C4101 C 0.08968 0.99259 0.44249 0.0
C4102 C 0.09244 0.99015 0.49829 0.0
C4103 C 0.10077 0.02903 0.53705 0.0
H4104 H 0.07898 0.00984 0.60636 0.0
C4105 C 0.08454 0.06382 0.64701 0.0
C4106 C 0.08458 0.056 0.67556 0.0
C4107 C 0.08813 0.05559 0.61995 0.0
C4108 C 0.08539 0.01523 0.58741 0.0
H4109 H 0.08764 0.01698 0.42636 0.0
H4110 H 0.08888 0.02908 0.47704 0.0
H4111 H 0.07873 -0.00358 0.5566 0.0
H4112 H 0.08882 0.03343 0.69821 0.0
H4113 H 0.09524 0.01894 0.65078 0.0
H4114 H 0.10709 0.04803 0.56766 0.0
C4115 C 0.08978 0.01623 0.47532 0.0
C4116 C 0.08522 0.00753 0.55877 0.0
C4117 C 0.08882 0.00924 0.44615 0.0
C4118 C 0.0891 0.03988 0.67664 0.0
C4119 C 0.09248 0.03152 0.64939 0.0
C4120 C 0.1009 0.03673 0.56562 0.0
C4121 C 0.09166 0.00682 0.50187 0.0
C4122 C 0.09268 0.01445 0.533 0.0
C4123 C 0.09162 0.03919 0.62059 0.0
C4124 C 0.09302 0.03008 0.59112 0.0
H4125 H 0.09208 0.97027 0.46726 0.0
H4126 H 0.094 0.98248 0.51808 0.0
H4127 H 0.10697 0.03459 0.51803 0.0
H4128 H 0.08079 0.07615 0.64541 0.0
H4129 H 0.08716 0.06188 0.59831 0.0
C4130 C 0.7009 0.33836 0.41922 0.0
C4131 C 0.6893 0.32624 0.4202 0.0
C4132 C 0.70866 0.34204 0.39139 0.0
C4133 C 0.71991 0.32192 0.32013 0.0
H4134 H 0.72566 0.3636 0.28332 0.0
C4135 C 0.73919 0.32829 0.19418 0.0
C4136 C 0.74931 0.34089 0.18566 0.0
C4137 C 0.73276 0.32751 0.22378 0.0
C4138 C 0.72439 0.35189 0.2935 0.0
H4139 H 0.6758 0.30953 0.39238 0.0
H4140 H 0.68924 0.31582 0.3446 0.0
H4141 H 0.71271 0.36125 0.33364 0.0
H4142 H 0.76075 0.36251 0.20187 0.0
H4143 H 0.74973 0.36102 0.25378 0.0
H4144 H 0.73159 0.31244 0.28061 0.0
C4145 C 0.69263 0.32226 0.36517 0.0
C4146 C 0.71694 0.35057 0.3223 0.0
C4147 C 0.68491 0.31869 0.39262 0.0
C4148 C 0.75287 0.3527 0.2076 0.0
C4149 C 0.74651 0.35187 0.23736 0.0
C4150 C 0.72744 0.32323 0.29165 0.0
C4151 C 0.70495 0.33357 0.36434 0.0
C4152 C 0.7143 0.33552 0.33554 0.0
C4153 C 0.73637 0.33924 0.24588 0.0
C4154 C 0.72947 0.33818 0.27752 0.0
H4155 H 0.70456 0.34435 0.44011 0.0
H4156 H 0.71808 0.35088 0.39133 0.0
H4157 H 0.71831 0.31017 0.33003 0.0
H4158 H 0.73594 0.31916 0.17772 0.0
H4159 H 0.72471 0.3178 0.22912 0.0
loop_
_geom_bond_atom_site_label_1
_geom_bond_atom_site_label_2
_geom_bond_distance
_geom_bond_site_symmetry_2
_ccdc_geom_bond_type
Nd0 C2 2.836 . S
Nd0 O20 2.500 . S
Nd0 O21 2.492 . S
Nd0 O22 2.487 . S
Nd0 O23 2.682 . S
Nd0 O24 2.410 . S
Nd0 O29 2.414 . S
Nd0 O31 2.424 . S
Nd1 C11 2.836 . S
Nd1 O23 2.414 . S
Nd1 O25 2.424 . S
Nd1 O26 2.500 . S
Nd1 O27 2.492 . S
Nd1 O28 2.487 . S
Nd1 O29 2.682 . S
Nd1 O30 2.410 . S
C2 Nd0 2.836 . S
C2 C3 1.498 . S
C2 O20 1.258 . S
C2 O21 1.239 . S
C3 C2 1.498 . S
C3 C4 1.366 . S
C3 C8 1.407 . S
C4 C3 1.366 . S
C4 C5 1.392 1_554 S
C4 H32 0.930 . S
C5 C4 1.392 1_556 S
C5 C6 1.398 . S
C5 H33 0.929 . S
C6 C5 1.398 . S
C6 C7 1.352 . S
C7 C6 1.352 . S
C7 C8 1.384 1_556 S
C7 H34 0.930 . S
C8 C3 1.407 . S
C8 C7 1.384 1_554 S
C8 H35 0.929 . S
C9 O22 1.241 . S
C9 O23 1.273 . S
C10 O24 1.251 . S
C10 O25 1.268 . S
C11 Nd1 2.836 . S
C11 C12 1.498 . S
C11 O26 1.258 . S
C11 O27 1.239 . S
C12 C11 1.498 . S
C12 C13 1.366 . S
C12 C17 1.407 . S
C13 C12 1.366 . S
C13 C14 1.392 . S
C13 H36 0.930 . S
C14 C13 1.392 . S
C14 C15 1.398 . S
C14 H37 0.929 . S
C15 C14 1.398 . S
C15 C16 1.352 . S
C16 C15 1.352 . S
C16 C17 1.384 . S
C16 H38 0.930 1_455 S
C17 C12 1.407 . S
C17 C16 1.384 . S
C17 H39 0.929 . S
C18 O28 1.241 . S
C18 O29 1.273 . S
C19 O30 1.251 . S
C19 O31 1.268 . S
O20 Nd0 2.500 . S
O20 C2 1.258 . S
O21 Nd0 2.492 . S
O21 C2 1.239 . S
O22 Nd0 2.487 . S
O22 C9 1.241 . S
O23 Nd0 2.682 . S
O23 Nd1 2.414 . S
O23 C9 1.273 . S
O24 Nd0 2.410 . S
O24 C10 1.251 . S
O25 Nd1 2.424 . S
O25 C10 1.268 . S
O26 Nd1 2.500 . S
O26 C11 1.258 . S
O27 Nd1 2.492 . S
O27 C11 1.239 . S
O28 Nd1 2.487 . S
O28 C18 1.241 . S
O29 Nd0 2.414 . S
O29 Nd1 2.682 . S
O29 C18 1.273 . S
O30 Nd1 2.410 . S
O30 C19 1.251 . S
O31 Nd0 2.424 . S
O31 C19 1.268 . S
H32 C4 0.930 . S
H33 C5 0.929 . S
H34 C7 0.930 . S
H35 C8 0.929 . S
H36 C13 0.930 . S
H37 C14 0.929 . S
H38 C16 0.930 1_655 S
H39 C17 0.929 . S
Nd40 C42 2.836 . S
Nd40 O60 2.500 . S
Nd40 O61 2.492 . S
Nd40 O62 2.487 . S
Nd40 O63 2.682 . S
Nd40 O64 2.410 . S
Nd40 O69 2.414 . S
Nd40 O71 2.424 . S
Nd41 C51 2.836 . S
Nd41 O63 2.414 . S
Nd41 O65 2.424 . S
Nd41 O66 2.500 . S
Nd41 O67 2.492 . S
Nd41 O68 2.487 . S
Nd41 O69 2.682 . S
Nd41 O70 2.410 . S
C42 Nd40 2.836 . S
C42 C43 1.498 . S
C42 O60 1.258 . S
C42 O61 1.239 . S
C43 C42 1.498 . S
C43 C44 1.366 . S
C43 C48 1.407 . S
C44 C43 1.366 . S
C44 C45 1.392 . S
C44 H72 0.930 . S
C45 C44 1.392 . S
C45 C46 1.398 . S
C45 H73 0.929 . S
C46 C45 1.398 . S
C46 C47 1.352 . S
C47 C46 1.352 . S
C47 C48 1.384 . S
C47 H74 0.930 . S
C48 C43 1.407 . S
C48 C47 1.384 . S
C48 H75 0.929 . S
C49 O62 1.241 . S
C49 O63 1.273 . S
C50 O64 1.251 . S
C50 O65 1.268 . S
C51 Nd41 2.836 . S
C51 C52 1.498 . S
C51 O66 1.258 . S
C51 O67 1.239 . S
C52 C51 1.498 . S
C52 C53 1.366 . S
C52 C57 1.407 . S
C53 C52 1.366 . S
C53 C54 1.392 . S
C53 H76 0.930 . S
C54 C53 1.392 . S
C54 C55 1.398 . S
C54 H77 0.929 . S
C55 C54 1.398 . S
C55 C56 1.352 . S
C56 C55 1.352 . S
C56 C57 1.384 . S
C56 H78 0.930 . S
C57 C52 1.407 . S
C57 C56 1.384 . S
C57 H79 0.929 . S
C58 O68 1.241 . S
C58 O69 1.273 . S
C59 O70 1.251 . S
C59 O71 1.268 . S
O60 Nd40 2.500 . S
O60 C42 1.258 . S
O61 Nd40 2.492 . S
O61 C42 1.239 . S
O62 Nd40 2.487 . S
O62 C49 1.241 . S
O63 Nd40 2.682 . S
O63 Nd41 2.414 . S
O63 C49 1.273 . S
O64 Nd40 2.410 . S
O64 C50 1.251 . S
O65 Nd41 2.424 . S
O65 C50 1.268 . S
O66 Nd41 2.500 . S
O66 C51 1.258 . S
O67 Nd41 2.492 . S
O67 C51 1.239 . S
O68 Nd41 2.487 . S
O68 C58 1.241 . S
O69 Nd40 2.414 . S
O69 Nd41 2.682 . S
O69 C58 1.273 . S
O70 Nd41 2.410 . S
O70 C59 1.251 . S
O71 Nd40 2.424 . S
O71 C59 1.268 . S
H72 C44 0.930 . S
H73 C45 0.929 . S
H74 C47 0.930 . S
H75 C48 0.929 . S
H76 C53 0.930 . S
H77 C54 0.929 . S
H78 C56 0.930 . S
H79 C57 0.929 . S
Nd80 C82 2.836 . S
Nd80 O100 2.500 . S
Nd80 O101 2.492 . S
Nd80 O102 2.487 . S
Nd80 O103 2.682 . S
Nd80 O104 2.410 . S
Nd80 O109 2.414 . S
Nd80 O111 2.424 . S
Nd81 C91 2.836 . S
Nd81 O103 2.414 . S
Nd81 O105 2.424 . S
Nd81 O106 2.500 . S
Nd81 O107 2.492 . S
Nd81 O108 2.487 . S
Nd81 O109 2.682 . S
Nd81 O110 2.410 . S
C82 Nd80 2.836 . S
C82 C83 1.498 . S
C82 O100 1.258 . S
C82 O101 1.239 . S
C83 C82 1.498 . S
C83 C84 1.366 . S
C83 C88 1.407 . S
C84 C83 1.366 . S
C84 C85 1.392 . S
C84 H112 0.930 . S
C85 C84 1.392 . S
C85 C86 1.398 . S
C85 H113 0.929 . S
C86 C85 1.398 . S
C86 C87 1.352 . S
C87 C86 1.352 . S
C87 C88 1.384 . S
C87 H114 0.930 . S
C88 C83 1.407 . S
C88 C87 1.384 . S
C88 H115 0.929 . S
C89 O102 1.241 . S
C89 O103 1.273 . S
C90 O104 1.251 . S
C90 O105 1.268 . S
C91 Nd81 2.836 . S
C91 C92 1.498 . S
C91 O106 1.258 . S
C91 O107 1.239 . S
C92 C91 1.498 . S
C92 C93 1.366 . S
C92 C97 1.407 . S
C93 C92 1.366 . S
C93 C94 1.392 . S
C93 H116 0.930 . S
C94 C93 1.392 . S
C94 C95 1.398 . S
C94 H117 0.929 . S
C95 C94 1.398 . S
C95 C96 1.352 . S
C96 C95 1.352 . S
C96 C97 1.384 . S
C96 H118 0.930 . S
C97 C92 1.407 . S
C97 C96 1.384 . S
C97 H119 0.929 . S
C98 O108 1.241 . S
C98 O109 1.273 . S
C99 O110 1.251 . S
C99 O111 1.268 . S
O100 Nd80 2.500 . S
O100 C82 1.258 . S
O101 Nd80 2.492 . S
O101 C82 1.239 . S
O102 Nd80 2.487 . S
O102 C89 1.241 . S
O103 Nd80 2.682 . S
O103 Nd81 2.414 . S
O103 C89 1.273 . S
O104 Nd80 2.410 . S
O104 C90 1.251 . S
O105 Nd81 2.424 . S
O105 C90 1.268 . S
O106 Nd81 2.500 . S
O106 C91 1.258 . S
O107 Nd81 2.492 . S
O107 C91 1.239 . S
O108 Nd81 2.487 . S
O108 C98 1.241 . S
O109 Nd80 2.414 . S
O109 Nd81 2.682 . S
O109 C98 1.273 . S
O110 Nd81 2.410 . S
O110 C99 1.251 . S
O111 Nd80 2.424 . S
O111 C99 1.268 . S
H112 C84 0.930 . S
H113 C85 0.929 . S
H114 C87 0.930 . S
H115 C88 0.929 . S
H116 C93 0.930 . S
H117 C94 0.929 . S
H118 C96 0.930 . S
H119 C97 0.929 . S
Nd120 C122 2.836 . S
Nd120 O140 2.500 . S
Nd120 O141 2.492 . S
Nd120 O142 2.487 . S
Nd120 O143 2.682 . S
Nd120 O144 2.410 . S
Nd120 O149 2.414 . S
Nd120 O151 2.424 . S
Nd121 C131 2.836 . S
Nd121 O143 2.414 . S
Nd121 O145 2.424 . S
Nd121 O146 2.500 . S
Nd121 O147 2.492 . S
Nd121 O148 2.487 . S
Nd121 O149 2.682 . S
Nd121 O150 2.410 . S
C122 Nd120 2.836 . S
C122 C123 1.498 . S
C122 O140 1.258 . S
C122 O141 1.239 . S
C123 C122 1.498 . S
C123 C124 1.366 . S
C123 C128 1.407 . S
C124 C123 1.366 . S
C124 C125 1.392 . S
C124 H152 0.930 . S
C125 C124 1.392 . S
C125 C126 1.398 . S
C125 H153 0.929 . S
C126 C125 1.398 . S
C126 C127 1.352 . S
C127 C126 1.352 . S
C127 C128 1.384 . S
C127 H154 0.930 . S
C128 C123 1.407 . S
C128 C127 1.384 . S
C128 H155 0.929 . S
C129 O142 1.241 . S
C129 O143 1.273 . S
C130 O144 1.251 . S
C130 O145 1.268 . S
C131 Nd121 2.836 . S
C131 C132 1.498 1_556 S
C131 O146 1.258 . S
C131 O147 1.239 . S
C132 C131 1.498 1_554 S
C132 C133 1.366 . S
C132 C137 1.407 . S
C133 C132 1.366 . S
C133 C134 1.392 . S
C133 H156 0.930 . S
C134 C133 1.392 . S
C134 C135 1.398 . S
C134 H157 0.929 . S
C135 C134 1.398 . S
C135 C136 1.352 . S
C136 C135 1.352 . S
C136 C137 1.384 . S
C136 H158 0.930 . S
C137 C132 1.407 . S
C137 C136 1.384 . S
C137 H159 0.929 . S
C138 O148 1.241 . S
C138 O149 1.273 . S
C139 O150 1.251 . S
C139 O151 1.268 . S
O140 Nd120 2.500 . S
O140 C122 1.258 . S
O141 Nd120 2.492 . S
O141 C122 1.239 . S
O142 Nd120 2.487 . S
O142 C129 1.241 . S
O143 Nd120 2.682 . S
O143 Nd121 2.414 . S
O143 C129 1.273 . S
O144 Nd120 2.410 . S
O144 C130 1.251 . S
O145 Nd121 2.424 . S
O145 C130 1.268 . S
O146 Nd121 2.500 . S
O146 C131 1.258 . S
O147 Nd121 2.492 . S
O147 C131 1.239 . S
O148 Nd121 2.487 . S
O148 C138 1.241 . S
O149 Nd120 2.414 . S
O149 Nd121 2.682 . S
O149 C138 1.273 . S
O150 Nd121 2.410 . S
O150 C139 1.251 . S
O151 Nd120 2.424 . S
O151 C139 1.268 . S
H152 C124 0.930 . S
H153 C125 0.929 . S
H154 C127 0.930 . S
H155 C128 0.929 . S
H156 C133 0.930 . S
H157 C134 0.929 . S
H158 C136 0.930 . S
H159 C137 0.929 . S
Nd160 C162 2.836 . S
Nd160 O180 2.500 . S
Nd160 O181 2.492 . S
Nd160 O182 2.487 . S
Nd160 O183 2.682 . S
Nd160 O184 2.410 . S
Nd160 O189 2.414 . S
Nd160 O191 2.424 . S
Nd161 C171 2.836 . S
Nd161 O183 2.414 . S
Nd161 O185 2.424 . S
Nd161 O186 2.500 . S
Nd161 O187 2.492 . S
Nd161 O188 2.487 . S
Nd161 O189 2.682 . S
Nd161 O190 2.410 . S
C162 Nd160 2.836 . S
C162 C163 1.498 . S
C162 O180 1.258 . S
C162 O181 1.239 . S
C163 C162 1.498 . S
C163 C164 1.366 . S
C163 C168 1.407 . S
C164 C163 1.366 . S
C164 C165 1.392 . S
C164 H192 0.930 . S
C165 C164 1.392 . S
C165 C166 1.398 . S
C165 H193 0.929 . S
C166 C165 1.398 . S
C166 C167 1.352 . S
C167 C166 1.352 . S
C167 C168 1.384 . S
C167 H194 0.930 . S
C168 C163 1.407 . S
C168 C167 1.384 . S
C168 H195 0.929 . S
C169 O182 1.241 . S
C169 O183 1.273 . S
C170 O184 1.251 . S
C170 O185 1.268 . S
C171 Nd161 2.836 . S
C171 C172 1.498 . S
C171 O186 1.258 . S
C171 O187 1.239 . S
C172 C171 1.498 . S
C172 C173 1.366 . S
C172 C177 1.407 . S
C173 C172 1.366 . S
C173 C174 1.392 . S
C173 H196 0.930 . S
C174 C173 1.392 . S
C174 C175 1.398 . S
C174 H197 0.929 . S
C175 C174 1.398 . S
C175 C176 1.352 . S
C176 C175 1.352 . S
C176 C177 1.384 . S
C176 H198 0.930 . S
C177 C172 1.407 . S
C177 C176 1.384 . S
C177 H199 0.929 . S
C178 O188 1.241 . S
C178 O189 1.273 . S
C179 O190 1.251 . S
C179 O191 1.268 . S
O180 Nd160 2.500 . S
O180 C162 1.258 . S
O181 Nd160 2.492 . S
O181 C162 1.239 . S
O182 Nd160 2.487 . S
O182 C169 1.241 . S
O183 Nd160 2.682 . S
O183 Nd161 2.414 . S
O183 C169 1.273 . S
O184 Nd160 2.410 . S
O184 C170 1.251 . S
O185 Nd161 2.424 . S
O185 C170 1.268 . S
O186 Nd161 2.500 . S
O186 C171 1.258 . S
O187 Nd161 2.492 . S
O187 C171 1.239 . S
O188 Nd161 2.487 . S
O188 C178 1.241 . S
O189 Nd160 2.414 . S
O189 Nd161 2.682 . S
O189 C178 1.273 . S
O190 Nd161 2.410 . S
O190 C179 1.251 . S
O191 Nd160 2.424 . S
O191 C179 1.268 . S
H192 C164 0.930 . S
H193 C165 0.929 . S
H194 C167 0.930 . S
H195 C168 0.929 . S
H196 C173 0.930 . S
H197 C174 0.929 . S
H198 C176 0.930 . S
H199 C177 0.929 . S
Nd200 C202 2.836 . S
Nd200 O220 2.500 . S
Nd200 O221 2.492 . S
Nd200 O222 2.487 . S
Nd200 O223 2.682 . S
Nd200 O224 2.410 . S
Nd200 O229 2.414 . S
Nd200 O231 2.424 . S
Nd201 C211 2.836 . S
Nd201 O223 2.414 . S
Nd201 O225 2.424 . S
Nd201 O226 2.500 . S
Nd201 O227 2.492 . S
Nd201 O228 2.487 . S
Nd201 O229 2.682 . S
Nd201 O230 2.410 . S
C202 Nd200 2.836 . S
C202 C203 1.498 . S
C202 O220 1.258 . S
C202 O221 1.239 . S
C203 C202 1.498 . S
C203 C204 1.366 . S
C203 C208 1.407 . S
C204 C203 1.366 . S
C204 C205 1.392 . S
C204 H232 0.930 . S
C205 C204 1.392 . S
C205 C206 1.398 . S
C205 H233 0.929 . S
C206 C205 1.398 . S
C206 C207 1.352 . S
C207 C206 1.352 . S
C207 C208 1.384 . S
C207 H234 0.930 . S
C208 C203 1.407 . S
C208 C207 1.384 . S
C208 H235 0.929 . S
C209 O222 1.241 . S
C209 O223 1.273 . S
C210 O224 1.251 . S
C210 O225 1.268 . S
C211 Nd201 2.836 . S
C211 C212 1.498 . S
C211 O226 1.258 . S
C211 O227 1.239 . S
C212 C211 1.498 . S
C212 C213 1.366 . S
C212 C217 1.407 . S
C213 C212 1.366 . S
C213 C214 1.392 1_556 S
C213 H236 0.930 . S
C214 C213 1.392 1_554 S
C214 C215 1.398 . S
C214 H237 0.929 . S
C215 C214 1.398 . S
C215 C216 1.352 1_554 S
C216 C215 1.352 1_556 S
C216 C217 1.384 . S
C216 H238 0.930 . S
C217 C212 1.407 . S
C217 C216 1.384 . S
C217 H239 0.929 . S
C218 O228 1.241 . S
C218 O229 1.273 . S
C219 O230 1.251 . S
C219 O231 1.268 . S
O220 Nd200 2.500 . S
O220 C202 1.258 . S
O221 Nd200 2.492 . S
O221 C202 1.239 . S
O222 Nd200 2.487 . S
O222 C209 1.241 . S
O223 Nd200 2.682 . S
O223 Nd201 2.414 . S
O223 C209 1.273 . S
O224 Nd200 2.410 . S
O224 C210 1.251 . S
O225 Nd201 2.424 . S
O225 C210 1.268 . S
O226 Nd201 2.500 . S
O226 C211 1.258 . S
O227 Nd201 2.492 . S
O227 C211 1.239 . S
O228 Nd201 2.487 . S
O228 C218 1.241 . S
O229 Nd200 2.414 . S
O229 Nd201 2.682 . S
O229 C218 1.273 . S
O230 Nd201 2.410 . S
O230 C219 1.251 . S
O231 Nd200 2.424 . S
O231 C219 1.268 . S
H232 C204 0.930 . S
H233 C205 0.929 . S
H234 C207 0.930 . S
H235 C208 0.929 . S
H236 C213 0.930 . S
H237 C214 0.929 . S
H238 C216 0.930 . S
H239 C217 0.929 . S
Nd240 C242 2.836 . S
Nd240 O260 2.500 . S
Nd240 O261 2.492 . S
Nd240 O262 2.487 . S
Nd240 O263 2.682 . S
Nd240 O264 2.410 . S
Nd240 O269 2.414 . S
Nd240 O271 2.424 . S
Nd241 C251 2.836 . S
Nd241 O263 2.414 . S
Nd241 O265 2.424 . S
Nd241 O266 2.500 . S
Nd241 O267 2.492 . S
Nd241 O268 2.487 . S
Nd241 O269 2.682 . S
Nd241 O270 2.410 . S
C242 Nd240 2.836 . S
C242 C243 1.498 1_554 S
C242 O260 1.258 . S
C242 O261 1.239 . S
C243 C242 1.498 1_556 S
C243 C244 1.366 . S
C243 C248 1.407 . S
C244 C243 1.366 . S
C244 C245 1.392 . S
C244 H272 0.930 . S
C245 C244 1.392 . S
C245 C246 1.398 . S
C245 H273 0.929 . S
C246 C245 1.398 . S
C246 C247 1.352 . S
C247 C246 1.352 . S
C247 C248 1.384 . S
C247 H274 0.930 . S
C248 C243 1.407 . S
C248 C247 1.384 . S
C248 H275 0.929 . S
C249 O262 1.241 . S
C249 O263 1.273 . S
C250 O264 1.251 . S
C250 O265 1.268 . S
C251 Nd241 2.836 . S
C251 C252 1.498 . S
C251 O266 1.258 . S
C251 O267 1.239 . S
C252 C251 1.498 . S
C252 C253 1.366 . S
C252 C257 1.407 . S
C253 C252 1.366 . S
C253 C254 1.392 . S
C253 H276 0.930 . S
C254 C253 1.392 . S
C254 C255 1.398 . S
C254 H277 0.929 . S
C255 C254 1.398 . S
C255 C256 1.352 . S
C256 C255 1.352 . S
C256 C257 1.384 . S
C256 H278 0.930 . S
C257 C252 1.407 . S
C257 C256 1.384 . S
C257 H279 0.929 . S
C258 O268 1.241 . S
C258 O269 1.273 . S
C259 O270 1.251 . S
C259 O271 1.268 . S
O260 Nd240 2.500 . S
O260 C242 1.258 . S
O261 Nd240 2.492 . S
O261 C242 1.239 . S
O262 Nd240 2.487 . S
O262 C249 1.241 . S
O263 Nd240 2.682 . S
O263 Nd241 2.414 . S
O263 C249 1.273 . S
O264 Nd240 2.410 . S
O264 C250 1.251 . S
O265 Nd241 2.424 . S
O265 C250 1.268 . S
O266 Nd241 2.500 . S
O266 C251 1.258 . S
O267 Nd241 2.492 . S
O267 C251 1.239 . S
O268 Nd241 2.487 . S
O268 C258 1.241 . S
O269 Nd240 2.414 . S
O269 Nd241 2.682 . S
O269 C258 1.273 . S
O270 Nd241 2.410 . S
O270 C259 1.251 . S
O271 Nd240 2.424 . S
O271 C259 1.268 . S
H272 C244 0.930 . S
H273 C245 0.929 . S
H274 C247 0.930 . S
H275 C248 0.929 . S
H276 C253 0.930 . S
H277 C254 0.929 . S
H278 C256 0.930 . S
H279 C257 0.929 . S
Nd280 C282 2.836 . S
Nd280 O300 2.500 . S
Nd280 O301 2.492 . S
Nd280 O302 2.487 . S
Nd280 O303 2.682 . S
Nd280 O304 2.410 . S
Nd280 O309 2.414 . S
Nd280 O311 2.424 . S
Nd281 C291 2.836 . S
Nd281 O303 2.414 . S
Nd281 O305 2.424 . S
Nd281 O306 2.500 . S
Nd281 O307 2.492 . S
Nd281 O308 2.487 . S
Nd281 O309 2.682 . S
Nd281 O310 2.410 . S
C282 Nd280 2.836 . S
C282 C283 1.498 . S
C282 O300 1.258 . S
C282 O301 1.239 . S
C283 C282 1.498 . S
C283 C284 1.366 . S
C283 C288 1.407 . S
C284 C283 1.366 . S
C284 C285 1.392 . S
C284 H312 0.930 . S
C285 C284 1.392 . S
C285 C286 1.398 . S
C285 H313 0.929 . S
C286 C285 1.398 . S
C286 C287 1.352 . S
C287 C286 1.352 . S
C287 C288 1.384 . S
C287 H314 0.930 . S
C288 C283 1.407 . S
C288 C287 1.384 . S
C288 H315 0.929 . S
C289 O302 1.241 . S
C289 O303 1.273 . S
C290 O304 1.251 . S
C290 O305 1.268 . S
C291 Nd281 2.836 . S
C291 C292 1.498 . S
C291 O306 1.258 . S
C291 O307 1.239 . S
C292 C291 1.498 . S
C292 C293 1.366 . S
C292 C297 1.407 . S
C293 C292 1.366 . S
C293 C294 1.392 . S
C293 H316 0.930 . S
C294 C293 1.392 . S
C294 C295 1.398 . S
C294 H317 0.929 . S
C295 C294 1.398 . S
C295 C296 1.352 . S
C296 C295 1.352 . S
C296 C297 1.384 . S
C296 H318 0.930 . S
C297 C292 1.407 . S
C297 C296 1.384 . S
C297 H319 0.929 . S
C298 O308 1.241 . S
C298 O309 1.273 . S
C299 O310 1.251 . S
C299 O311 1.268 . S
O300 Nd280 2.500 . S
O300 C282 1.258 . S
O301 Nd280 2.492 . S
O301 C282 1.239 . S
O302 Nd280 2.487 . S
O302 C289 1.241 . S
O303 Nd280 2.682 . S
O303 Nd281 2.414 . S
O303 C289 1.273 . S
O304 Nd280 2.410 . S
O304 C290 1.251 . S
O305 Nd281 2.424 . S
O305 C290 1.268 . S
O306 Nd281 2.500 . S
O306 C291 1.258 . S
O307 Nd281 2.492 . S
O307 C291 1.239 . S
O308 Nd281 2.487 . S
O308 C298 1.241 . S
O309 Nd280 2.414 . S
O309 Nd281 2.682 . S
O309 C298 1.273 . S
O310 Nd281 2.410 . S
O310 C299 1.251 . S
O311 Nd280 2.424 . S
O311 C299 1.268 . S
H312 C284 0.930 . S
H313 C285 0.929 . S
H314 C287 0.930 . S
H315 C288 0.929 . S
H316 C293 0.930 . S
H317 C294 0.929 . S
H318 C296 0.930 . S
H319 C297 0.929 . S
Nd320 C322 2.836 . S
Nd320 O340 2.500 . S
Nd320 O341 2.492 . S
Nd320 O342 2.487 . S
Nd320 O343 2.682 . S
Nd320 O344 2.410 . S
Nd320 O349 2.414 . S
Nd320 O351 2.424 . S
Nd321 C331 2.836 . S
Nd321 O343 2.414 . S
Nd321 O345 2.424 . S
Nd321 O346 2.500 . S
Nd321 O347 2.492 . S
Nd321 O348 2.487 . S
Nd321 O349 2.682 . S
Nd321 O350 2.410 . S
C322 Nd320 2.836 . S
C322 C323 1.498 . S
C322 O340 1.258 . S
C322 O341 1.239 . S
C323 C322 1.498 . S
C323 C324 1.366 . S
C323 C328 1.407 . S
C324 C323 1.366 . S
C324 C325 1.392 . S
C324 H352 0.930 . S
C325 C324 1.392 . S
C325 C326 1.398 . S
C325 H353 0.929 . S
C326 C325 1.398 . S
C326 C327 1.352 . S
C327 C326 1.352 . S
C327 C328 1.384 . S
C327 H354 0.930 1_655 S
C328 C323 1.407 . S
C328 C327 1.384 . S
C328 H355 0.929 . S
C329 O342 1.241 . S
C329 O343 1.273 . S
C330 O344 1.251 . S
C330 O345 1.268 . S
C331 Nd321 2.836 . S
C331 C332 1.498 . S
C331 O346 1.258 . S
C331 O347 1.239 . S
C332 C331 1.498 . S
C332 C333 1.366 . S
C332 C337 1.407 . S
C333 C332 1.366 . S
C333 C334 1.392 . S
C333 H356 0.930 . S
C334 C333 1.392 . S
C334 C335 1.398 . S
C334 H357 0.929 . S
C335 C334 1.398 . S
C335 C336 1.352 . S
C336 C335 1.352 . S
C336 C337 1.384 . S
C336 H358 0.930 . S
C337 C332 1.407 . S
C337 C336 1.384 . S
C337 H359 0.929 . S
C338 O348 1.241 . S
C338 O349 1.273 . S
C339 O350 1.251 . S
C339 O351 1.268 . S
O340 Nd320 2.500 . S
O340 C322 1.258 . S
O341 Nd320 2.492 . S
O341 C322 1.239 . S
O342 Nd320 2.487 . S
O342 C329 1.241 . S
O343 Nd320 2.682 . S
O343 Nd321 2.414 . S
O343 C329 1.273 . S
O344 Nd320 2.410 . S
O344 C330 1.251 . S
O345 Nd321 2.424 . S
O345 C330 1.268 . S
O346 Nd321 2.500 . S
O346 C331 1.258 . S
O347 Nd321 2.492 . S
O347 C331 1.239 . S
O348 Nd321 2.487 . S
O348 C338 1.241 . S
O349 Nd320 2.414 . S
O349 Nd321 2.682 . S
O349 C338 1.273 . S
O350 Nd321 2.410 . S
O350 C339 1.251 . S
O351 Nd320 2.424 . S
O351 C339 1.268 . S
H352 C324 0.930 . S
H353 C325 0.929 . S
H354 C327 0.930 1_455 S
H355 C328 0.929 . S
H356 C333 0.930 . S
H357 C334 0.929 . S
H358 C336 0.930 . S
H359 C337 0.929 . S
Nd360 C362 2.836 . S
Nd360 O380 2.500 . S
Nd360 O381 2.492 . S
Nd360 O382 2.487 . S
Nd360 O383 2.682 . S
Nd360 O384 2.410 . S
Nd360 O389 2.414 . S
Nd360 O391 2.424 . S
Nd361 C371 2.836 1_556 S
Nd361 O383 2.414 . S
Nd361 O385 2.424 . S
Nd361 O386 2.500 1_556 S
Nd361 O387 2.492 1_556 S
Nd361 O388 2.487 . S
Nd361 O389 2.682 . S
Nd361 O390 2.410 . S
C362 Nd360 2.836 . S
C362 C363 1.498 . S
C362 O380 1.258 . S
C362 O381 1.239 . S
C363 C362 1.498 . S
C363 C364 1.366 . S
C363 C368 1.407 . S
C364 C363 1.366 . S
C364 C365 1.392 . S
C364 H392 0.930 . S
C365 C364 1.392 . S
C365 C366 1.398 . S
C365 H393 0.929 . S
C366 C365 1.398 . S
C366 C367 1.352 . S
C367 C366 1.352 . S
C367 C368 1.384 . S
C367 H394 0.930 . S
C368 C363 1.407 . S
C368 C367 1.384 . S
C368 H395 0.929 . S
C369 O382 1.241 . S
C369 O383 1.273 . S
C370 O384 1.251 . S
C370 O385 1.268 . S
C371 Nd361 2.836 1_554 S
C371 C372 1.498 . S
C371 O386 1.258 . S
C371 O387 1.239 . S
C372 C371 1.498 . S
C372 C373 1.366 . S
C372 C377 1.407 . S
C373 C372 1.366 . S
C373 C374 1.392 . S
C373 H396 0.930 . S
C374 C373 1.392 . S
C374 C375 1.398 . S
C374 H397 0.929 . S
C375 C374 1.398 . S
C375 C376 1.352 . S
C376 C375 1.352 . S
C376 C377 1.384 . S
C376 H398 0.930 . S
C377 C372 1.407 . S
C377 C376 1.384 . S
C377 H399 0.929 . S
C378 O388 1.241 . S
C378 O389 1.273 . S
C379 O390 1.251 . S
C379 O391 1.268 . S
O380 Nd360 2.500 . S
O380 C362 1.258 . S
O381 Nd360 2.492 . S
O381 C362 1.239 . S
O382 Nd360 2.487 . S
O382 C369 1.241 . S
O383 Nd360 2.682 . S
O383 Nd361 2.414 . S
O383 C369 1.273 . S
O384 Nd360 2.410 . S
O384 C370 1.251 . S
O385 Nd361 2.424 . S
O385 C370 1.268 . S
O386 Nd361 2.500 1_554 S
O386 C371 1.258 . S
O387 Nd361 2.492 1_554 S
O387 C371 1.239 . S
O388 Nd361 2.487 . S
O388 C378 1.241 . S
O389 Nd360 2.414 . S
O389 Nd361 2.682 . S
O389 C378 1.273 . S
O390 Nd361 2.410 . S
O390 C379 1.251 . S
O391 Nd360 2.424 . S
O391 C379 1.268 . S
H392 C364 0.930 . S
H393 C365 0.929 . S
H394 C367 0.930 . S
H395 C368 0.929 . S
H396 C373 0.930 . S
H397 C374 0.929 . S
H398 C376 0.930 . S
H399 C377 0.929 . S
Nd400 C402 2.836 . S
Nd400 O420 2.500 . S
Nd400 O421 2.492 . S
Nd400 O422 2.487 . S
Nd400 O423 2.682 . S
Nd400 O424 2.410 . S
Nd400 O429 2.414 . S
Nd400 O431 2.424 . S
Nd401 C411 2.836 . S
Nd401 O423 2.414 . S
Nd401 O425 2.424 . S
Nd401 O426 2.500 . S
Nd401 O427 2.492 . S
Nd401 O428 2.487 . S
Nd401 O429 2.682 . S
Nd401 O430 2.410 . S
C402 Nd400 2.836 . S
C402 C403 1.498 . S
C402 O420 1.258 . S
C402 O421 1.239 . S
C403 C402 1.498 . S
C403 C404 1.366 . S
C403 C408 1.407 . S
C404 C403 1.366 . S
C404 C405 1.392 . S
C404 H432 0.930 . S
C405 C404 1.392 . S
C405 C406 1.398 . S
C405 H433 0.929 . S
C406 C405 1.398 . S
C406 C407 1.352 . S
C407 C406 1.352 . S
C407 C408 1.384 . S
C407 H434 0.930 . S
C408 C403 1.407 . S
C408 C407 1.384 . S
C408 H435 0.929 . S
C409 O422 1.241 . S
C409 O423 1.273 . S
C410 O424 1.251 . S
C410 O425 1.268 . S
C411 Nd401 2.836 . S
C411 C412 1.498 . S
C411 O426 1.258 . S
C411 O427 1.239 . S
C412 C411 1.498 . S
C412 C413 1.366 . S
C412 C417 1.407 . S
C413 C412 1.366 . S
C413 C414 1.392 . S
C413 H436 0.930 . S
C414 C413 1.392 . S
C414 C415 1.398 . S
C414 H437 0.929 . S
C415 C414 1.398 . S
C415 C416 1.352 . S
C416 C415 1.352 . S
C416 C417 1.384 . S
C416 H438 0.930 . S
C417 C412 1.407 . S
C417 C416 1.384 . S
C417 H439 0.929 . S
C418 O428 1.241 . S
C418 O429 1.273 . S
C419 O430 1.251 . S
C419 O431 1.268 . S
O420 Nd400 2.500 . S
O420 C402 1.258 . S
O421 Nd400 2.492 . S
O421 C402 1.239 . S
O422 Nd400 2.487 . S
O422 C409 1.241 . S
O423 Nd400 2.682 . S
O423 Nd401 2.414 . S
O423 C409 1.273 . S
O424 Nd400 2.410 . S
O424 C410 1.251 . S
O425 Nd401 2.424 . S
O425 C410 1.268 . S
O426 Nd401 2.500 . S
O426 C411 1.258 . S
O427 Nd401 2.492 . S
O427 C411 1.239 . S
O428 Nd401 2.487 . S
O428 C418 1.241 . S
O429 Nd400 2.414 . S
O429 Nd401 2.682 . S
O429 C418 1.273 . S
O430 Nd401 2.410 . S
O430 C419 1.251 . S
O431 Nd400 2.424 . S
O431 C419 1.268 . S
H432 C404 0.930 . S
H433 C405 0.929 . S
H434 C407 0.930 . S
H435 C408 0.929 . S
H436 C413 0.930 . S
H437 C414 0.929 . S
H438 C416 0.930 . S
H439 C417 0.929 . S
Nd440 C442 2.836 . S
Nd440 O460 2.500 . S
Nd440 O461 2.492 . S
Nd440 O462 2.487 . S
Nd440 O463 2.682 . S
Nd440 O464 2.410 . S
Nd440 O469 2.414 . S
Nd440 O471 2.424 . S
Nd441 C451 2.836 . S
Nd441 O463 2.414 . S
Nd441 O465 2.424 . S
Nd441 O466 2.500 . S
Nd441 O467 2.492 . S
Nd441 O468 2.487 . S
Nd441 O469 2.682 . S
Nd441 O470 2.410 . S
C442 Nd440 2.836 . S
C442 C443 1.498 . S
C442 O460 1.258 . S
C442 O461 1.239 . S
C443 C442 1.498 . S
C443 C444 1.366 . S
C443 C448 1.407 . S
C444 C443 1.366 . S
C444 C445 1.392 . S
C444 H472 0.930 . S
C445 C444 1.392 . S
C445 C446 1.398 . S
C445 H473 0.929 . S
C446 C445 1.398 . S
C446 C447 1.352 . S
C447 C446 1.352 . S
C447 C448 1.384 . S
C447 H474 0.930 . S
C448 C443 1.407 . S
C448 C447 1.384 . S
C448 H475 0.929 . S
C449 O462 1.241 . S
C449 O463 1.273 . S
C450 O464 1.251 . S
C450 O465 1.268 . S
C451 Nd441 2.836 . S
C451 C452 1.498 . S
C451 O466 1.258 . S
C451 O467 1.239 . S
C452 C451 1.498 . S
C452 C453 1.366 . S
C452 C457 1.407 . S
C453 C452 1.366 . S
C453 C454 1.392 . S
C453 H476 0.930 . S
C454 C453 1.392 . S
C454 C455 1.398 . S
C454 H477 0.929 . S
C455 C454 1.398 . S
C455 C456 1.352 . S
C456 C455 1.352 . S
C456 C457 1.384 . S
C456 H478 0.930 . S
C457 C452 1.407 . S
C457 C456 1.384 . S
C457 H479 0.929 . S
C458 O468 1.241 . S
C458 O469 1.273 . S
C459 O470 1.251 . S
C459 O471 1.268 . S
O460 Nd440 2.500 . S
O460 C442 1.258 . S
O461 Nd440 2.492 . S
O461 C442 1.239 . S
O462 Nd440 2.487 . S
O462 C449 1.241 . S
O463 Nd440 2.682 . S
O463 Nd441 2.414 . S
O463 C449 1.273 . S
O464 Nd440 2.410 . S
O464 C450 1.251 . S
O465 Nd441 2.424 . S
O465 C450 1.268 . S
O466 Nd441 2.500 . S
O466 C451 1.258 . S
O467 Nd441 2.492 . S
O467 C451 1.239 . S
O468 Nd441 2.487 . S
O468 C458 1.241 . S
O469 Nd440 2.414 . S
O469 Nd441 2.682 . S
O469 C458 1.273 . S
O470 Nd441 2.410 . S
O470 C459 1.251 . S
O471 Nd440 2.424 . S
O471 C459 1.268 . S
H472 C444 0.930 . S
H473 C445 0.929 . S
H474 C447 0.930 . S
H475 C448 0.929 . S
H476 C453 0.930 . S
H477 C454 0.929 . S
H478 C456 0.930 . S
H479 C457 0.929 . S
Nd480 C482 2.836 . S
Nd480 O500 2.500 . S
Nd480 O501 2.492 . S
Nd480 O502 2.487 . S
Nd480 O503 2.682 . S
Nd480 O504 2.410 . S
Nd480 O509 2.414 . S
Nd480 O511 2.424 . S
Nd481 C491 2.836 . S
Nd481 O503 2.414 . S
Nd481 O505 2.424 . S
Nd481 O506 2.500 . S
Nd481 O507 2.492 . S
Nd481 O508 2.487 . S
Nd481 O509 2.682 . S
Nd481 O510 2.410 . S
C482 Nd480 2.836 . S
C482 C483 1.498 . S
C482 O500 1.258 . S
C482 O501 1.239 . S
C483 C482 1.498 . S
C483 C484 1.366 . S
C483 C488 1.407 . S
C484 C483 1.366 . S
C484 C485 1.392 . S
C484 H512 0.930 . S
C485 C484 1.392 . S
C485 C486 1.398 . S
C485 H513 0.929 . S
C486 C485 1.398 . S
C486 C487 1.352 . S
C487 C486 1.352 . S
C487 C488 1.384 . S
C487 H514 0.930 . S
C488 C483 1.407 . S
C488 C487 1.384 . S
C488 H515 0.929 . S
C489 O502 1.241 . S
C489 O503 1.273 . S
C490 O504 1.251 . S
C490 O505 1.268 . S
C491 Nd481 2.836 . S
C491 C492 1.498 . S
C491 O506 1.258 . S
C491 O507 1.239 . S
C492 C491 1.498 . S
C492 C493 1.366 . S
C492 C497 1.407 . S
C493 C492 1.366 . S
C493 C494 1.392 . S
C493 H516 0.930 . S
C494 C493 1.392 . S
C494 C495 1.398 . S
C494 H517 0.929 . S
C495 C494 1.398 . S
C495 C496 1.352 . S
C496 C495 1.352 . S
C496 C497 1.384 . S
C496 H518 0.930 . S
C497 C492 1.407 . S
C497 C496 1.384 . S
C497 H519 0.929 . S
C498 O508 1.241 . S
C498 O509 1.273 . S
C499 O510 1.251 . S
C499 O511 1.268 . S
O500 Nd480 2.500 . S
O500 C482 1.258 . S
O501 Nd480 2.492 . S
O501 C482 1.239 . S
O502 Nd480 2.487 . S
O502 C489 1.241 . S
O503 Nd480 2.682 . S
O503 Nd481 2.414 . S
O503 C489 1.273 . S
O504 Nd480 2.410 . S
O504 C490 1.251 . S
O505 Nd481 2.424 . S
O505 C490 1.268 . S
O506 Nd481 2.500 . S
O506 C491 1.258 . S
O507 Nd481 2.492 . S
O507 C491 1.239 . S
O508 Nd481 2.487 . S
O508 C498 1.241 . S
O509 Nd480 2.414 . S
O509 Nd481 2.682 . S
O509 C498 1.273 . S
O510 Nd481 2.410 . S
O510 C499 1.251 . S
O511 Nd480 2.424 . S
O511 C499 1.268 . S
H512 C484 0.930 . S
H513 C485 0.929 . S
H514 C487 0.930 . S
H515 C488 0.929 . S
H516 C493 0.930 . S
H517 C494 0.929 . S
H518 C496 0.930 . S
H519 C497 0.929 . S
Nd520 C522 2.836 . S
Nd520 O540 2.500 . S
Nd520 O541 2.492 . S
Nd520 O542 2.487 . S
Nd520 O543 2.682 . S
Nd520 O544 2.410 . S
Nd520 O549 2.414 . S
Nd520 O551 2.424 . S
Nd521 C531 2.836 . S
Nd521 O543 2.414 . S
Nd521 O545 2.424 . S
Nd521 O546 2.500 . S
Nd521 O547 2.492 . S
Nd521 O548 2.487 . S
Nd521 O549 2.682 . S
Nd521 O550 2.410 . S
C522 Nd520 2.836 . S
C522 C523 1.498 . S
C522 O540 1.258 . S
C522 O541 1.239 . S
C523 C522 1.498 . S
C523 C524 1.366 . S
C523 C528 1.407 . S
C524 C523 1.366 . S
C524 C525 1.392 . S
C524 H552 0.930 . S
C525 C524 1.392 . S
C525 C526 1.398 . S
C525 H553 0.929 . S
C526 C525 1.398 . S
C526 C527 1.352 . S
C527 C526 1.352 . S
C527 C528 1.384 . S
C527 H554 0.930 . S
C528 C523 1.407 . S
C528 C527 1.384 . S
C528 H555 0.929 . S
C529 O542 1.241 . S
C529 O543 1.273 . S
C530 O544 1.251 . S
C530 O545 1.268 . S
C531 Nd521 2.836 . S
C531 C532 1.498 . S
C531 O546 1.258 . S
C531 O547 1.239 . S
C532 C531 1.498 . S
C532 C533 1.366 . S
C532 C537 1.407 . S
C533 C532 1.366 . S
C533 C534 1.392 . S
C533 H556 0.930 . S
C534 C533 1.392 . S
C534 C535 1.398 . S
C534 H557 0.929 . S
C535 C534 1.398 . S
C535 C536 1.352 . S
C536 C535 1.352 . S
C536 C537 1.384 . S
C536 H558 0.930 . S
C537 C532 1.407 . S
C537 C536 1.384 . S
C537 H559 0.929 . S
C538 O548 1.241 . S
C538 O549 1.273 . S
C539 O550 1.251 . S
C539 O551 1.268 . S
O540 Nd520 2.500 . S
O540 C522 1.258 . S
O541 Nd520 2.492 . S
O541 C522 1.239 . S
O542 Nd520 2.487 . S
O542 C529 1.241 . S
O543 Nd520 2.682 . S
O543 Nd521 2.414 . S
O543 C529 1.273 . S
O544 Nd520 2.410 . S
O544 C530 1.251 . S
O545 Nd521 2.424 . S
O545 C530 1.268 . S
O546 Nd521 2.500 . S
O546 C531 1.258 . S
O547 Nd521 2.492 . S
O547 C531 1.239 . S
O548 Nd521 2.487 . S
O548 C538 1.241 . S
O549 Nd520 2.414 . S
O549 Nd521 2.682 . S
O549 C538 1.273 . S
O550 Nd521 2.410 . S
O550 C539 1.251 . S
O551 Nd520 2.424 . S
O551 C539 1.268 . S
H552 C524 0.930 . S
H553 C525 0.929 . S
H554 C527 0.930 . S
H555 C528 0.929 . S
H556 C533 0.930 . S
H557 C534 0.929 . S
H558 C536 0.930 . S
H559 C537 0.929 . S
Nd560 C562 2.836 . S
Nd560 O580 2.500 . S
Nd560 O581 2.492 . S
Nd560 O582 2.487 . S
Nd560 O583 2.682 . S
Nd560 O584 2.410 . S
Nd560 O589 2.414 . S
Nd560 O591 2.424 . S
Nd561 C571 2.836 . S
Nd561 O583 2.414 . S
Nd561 O585 2.424 . S
Nd561 O586 2.500 . S
Nd561 O587 2.492 . S
Nd561 O588 2.487 . S
Nd561 O589 2.682 . S
Nd561 O590 2.410 . S
C562 Nd560 2.836 . S
C562 C563 1.498 . S
C562 O580 1.258 . S
C562 O581 1.239 . S
C563 C562 1.498 . S
C563 C564 1.366 . S
C563 C568 1.407 . S
C564 C563 1.366 . S
C564 C565 1.392 . S
C564 H592 0.930 . S
C565 C564 1.392 . S
C565 C566 1.398 . S
C565 H593 0.929 . S
C566 C565 1.398 . S
C566 C567 1.352 . S
C567 C566 1.352 . S
C567 C568 1.384 . S
C567 H594 0.930 . S
C568 C563 1.407 . S
C568 C567 1.384 . S
C568 H595 0.929 . S
C569 O582 1.241 . S
C569 O583 1.273 . S
C570 O584 1.251 . S
C570 O585 1.268 . S
C571 Nd561 2.836 . S
C571 C572 1.498 . S
C571 O586 1.258 . S
C571 O587 1.239 . S
C572 C571 1.498 . S
C572 C573 1.366 . S
C572 C577 1.407 . S
C573 C572 1.366 . S
C573 C574 1.392 . S
C573 H596 0.930 . S
C574 C573 1.392 . S
C574 C575 1.398 . S
C574 H597 0.929 . S
C575 C574 1.398 . S
C575 C576 1.352 . S
C576 C575 1.352 . S
C576 C577 1.384 . S
C576 H598 0.930 . S
C577 C572 1.407 . S
C577 C576 1.384 . S
C577 H599 0.929 . S
C578 O588 1.241 . S
C578 O589 1.273 . S
C579 O590 1.251 . S
C579 O591 1.268 . S
O580 Nd560 2.500 . S
O580 C562 1.258 . S
O581 Nd560 2.492 . S
O581 C562 1.239 . S
O582 Nd560 2.487 . S
O582 C569 1.241 . S
O583 Nd560 2.682 . S
O583 Nd561 2.414 . S
O583 C569 1.273 . S
O584 Nd560 2.410 . S
O584 C570 1.251 . S
O585 Nd561 2.424 . S
O585 C570 1.268 . S
O586 Nd561 2.500 . S
O586 C571 1.258 . S
O587 Nd561 2.492 . S
O587 C571 1.239 . S
O588 Nd561 2.487 . S
O588 C578 1.241 . S
O589 Nd560 2.414 . S
O589 Nd561 2.682 . S
O589 C578 1.273 . S
O590 Nd561 2.410 . S
O590 C579 1.251 . S
O591 Nd560 2.424 . S
O591 C579 1.268 . S
H592 C564 0.930 . S
H593 C565 0.929 . S
H594 C567 0.930 . S
H595 C568 0.929 . S
H596 C573 0.930 . S
H597 C574 0.929 . S
H598 C576 0.930 . S
H599 C577 0.929 . S
Nd600 C602 2.836 . S
Nd600 O620 2.500 . S
Nd600 O621 2.492 . S
Nd600 O622 2.487 . S
Nd600 O623 2.682 1_556 S
Nd600 O624 2.410 . S
Nd600 O629 2.414 . S
Nd600 O631 2.424 1_556 S
Nd601 C611 2.836 . S
Nd601 O623 2.414 . S
Nd601 O625 2.424 1_554 S
Nd601 O626 2.500 . S
Nd601 O627 2.492 . S
Nd601 O628 2.494 . S
Nd601 O629 2.682 1_554 S
Nd601 O630 2.410 . S
C602 Nd600 2.836 . S
C602 C603 1.498 . S
C602 O620 1.258 . S
C602 O621 1.239 . S
C603 C602 1.498 . S
C603 C604 1.366 . S
C603 C608 1.407 . S
C604 C603 1.366 . S
C604 C605 1.392 . S
C604 H632 0.930 . S
C605 C604 1.392 . S
C605 C606 1.398 . S
C605 H633 0.929 . S
C606 C605 1.398 . S
C606 C607 1.352 . S
C607 C606 1.352 . S
C607 C608 1.384 . S
C607 H634 0.930 . S
C608 C603 1.407 . S
C608 C607 1.384 . S
C608 H635 0.929 . S
C609 O622 1.241 1_554 S
C609 O623 1.273 . S
C610 O624 1.251 . S
C610 O625 1.268 . S
C611 Nd601 2.836 . S
C611 C612 1.498 . S
C611 O626 1.258 . S
C611 O627 1.239 . S
C612 C611 1.498 . S
C612 C613 1.366 . S
C612 C617 1.407 . S
C613 C612 1.366 . S
C613 C614 1.392 . S
C613 H636 0.930 . S
C614 C613 1.392 . S
C614 C615 1.398 . S
C614 H637 0.929 . S
C615 C614 1.398 . S
C615 C616 1.352 . S
C616 C615 1.352 . S
C616 C617 1.384 . S
C616 H638 0.930 . S
C617 C612 1.407 . S
C617 C616 1.384 . S
C617 H639 0.929 . S
C618 O628 1.223 1_556 S
C618 O629 1.273 . S
C619 O630 1.251 . S
C619 O631 1.268 . S
O620 Nd600 2.500 . S
O620 C602 1.258 . S
O621 Nd600 2.492 . S
O621 C602 1.239 . S
O622 Nd600 2.487 . S
O622 C609 1.241 1_556 S
O623 Nd600 2.682 1_554 S
O623 Nd601 2.414 . S
O623 C609 1.273 . S
O624 Nd600 2.410 . S
O624 C610 1.251 . S
O625 Nd601 2.424 1_556 S
O625 C610 1.268 . S
O626 Nd601 2.500 . S
O626 C611 1.258 . S
O627 Nd601 2.492 . S
O627 C611 1.239 . S
O628 Nd601 2.494 . S
O628 C618 1.223 1_554 S
O629 Nd600 2.414 . S
O629 Nd601 2.682 1_556 S
O629 C618 1.273 . S
O630 Nd601 2.410 . S
O630 C619 1.251 . S
O631 Nd600 2.424 1_554 S
O631 C619 1.268 . S
H632 C604 0.930 . S
H633 C605 0.929 . S
H634 C607 0.930 . S
H635 C608 0.929 . S
H636 C613 0.930 . S
H637 C614 0.929 . S
H638 C616 0.930 . S
H639 C617 0.929 . S
Nd640 C642 2.836 . S
Nd640 O660 2.500 . S
Nd640 O661 2.492 . S
Nd640 O662 2.487 . S
Nd640 O663 2.682 . S
Nd640 O664 2.410 . S
Nd640 O669 2.414 . S
Nd640 O671 2.424 . S
Nd641 C651 2.836 . S
Nd641 O663 2.414 . S
Nd641 O665 2.424 . S
Nd641 O666 2.500 . S
Nd641 O667 2.492 . S
Nd641 O668 2.487 . S
Nd641 O669 2.682 . S
Nd641 O670 2.410 . S
C642 Nd640 2.836 . S
C642 C643 1.498 . S
C642 O660 1.258 . S
C642 O661 1.239 . S
C643 C642 1.498 . S
C643 C644 1.366 . S
C643 C648 1.407 . S
C644 C643 1.366 . S
C644 C645 1.392 . S
C644 H672 0.930 . S
C645 C644 1.392 . S
C645 C646 1.398 . S
C645 H673 0.929 . S
C646 C645 1.398 . S
C646 C647 1.352 . S
C647 C646 1.352 . S
C647 C648 1.384 . S
C647 H674 0.930 . S
C648 C643 1.407 . S
C648 C647 1.384 . S
C648 H675 0.929 . S
C649 O662 1.241 . S
C649 O663 1.273 . S
C650 O664 1.251 . S
C650 O665 1.268 . S
C651 Nd641 2.836 . S
C651 C652 1.498 . S
C651 O666 1.258 . S
C651 O667 1.239 . S
C652 C651 1.498 . S
C652 C653 1.366 . S
C652 C657 1.407 . S
C653 C652 1.366 . S
C653 C654 1.392 . S
C653 H676 0.930 . S
C654 C653 1.392 . S
C654 C655 1.398 . S
C654 H677 0.929 . S
C655 C654 1.398 . S
C655 C656 1.352 . S
C656 C655 1.352 . S
C656 C657 1.384 . S
C656 H678 0.930 . S
C657 C652 1.407 . S
C657 C656 1.384 . S
C657 H679 0.929 . S
C658 O668 1.241 . S
C658 O669 1.273 . S
C659 O670 1.251 . S
C659 O671 1.268 . S
O660 Nd640 2.500 . S
O660 C642 1.258 . S
O661 Nd640 2.492 . S
O661 C642 1.239 . S
O662 Nd640 2.487 . S
O662 C649 1.241 . S
O663 Nd640 2.682 . S
O663 Nd641 2.414 . S
O663 C649 1.273 . S
O664 Nd640 2.410 . S
O664 C650 1.251 . S
O665 Nd641 2.424 . S
O665 C650 1.268 . S
O666 Nd641 2.500 . S
O666 C651 1.258 . S
O667 Nd641 2.492 . S
O667 C651 1.239 . S
O668 Nd641 2.487 . S
O668 C658 1.241 . S
O669 Nd640 2.414 . S
O669 Nd641 2.682 . S
O669 C658 1.273 . S
O670 Nd641 2.410 . S
O670 C659 1.251 . S
O671 Nd640 2.424 . S
O671 C659 1.268 . S
H672 C644 0.930 . S
H673 C645 0.929 . S
H674 C647 0.930 . S
H675 C648 0.929 . S
H676 C653 0.930 . S
H677 C654 0.929 . S
H678 C656 0.930 . S
H679 C657 0.929 . S
Nd680 C682 2.836 . S
Nd680 O700 2.500 . S
Nd680 O701 2.492 . S
Nd680 O702 2.487 . S
Nd680 O703 2.682 . S
Nd680 O704 2.410 . S
Nd680 O709 2.414 . S
Nd680 O711 2.424 . S
Nd681 C691 2.836 . S
Nd681 O703 2.414 . S
Nd681 O705 2.424 . S
Nd681 O706 2.500 . S
Nd681 O707 2.492 . S
Nd681 O708 2.487 . S
Nd681 O709 2.682 . S
Nd681 O710 2.410 . S
C682 Nd680 2.836 . S
C682 C683 1.498 . S
C682 O700 1.258 . S
C682 O701 1.239 . S
C683 C682 1.498 . S
C683 C684 1.366 . S
C683 C688 1.407 . S
C684 C683 1.366 . S
C684 C685 1.392 . S
C684 H712 0.930 . S
C685 C684 1.392 . S
C685 C686 1.398 . S
C685 H713 0.929 . S
C686 C685 1.398 . S
C686 C687 1.352 . S
C687 C686 1.352 . S
C687 C688 1.384 . S
C687 H714 0.930 . S
C688 C683 1.407 . S
C688 C687 1.384 . S
C688 H715 0.929 . S
C689 O702 1.241 . S
C689 O703 1.273 . S
C690 O704 1.251 . S
C690 O705 1.268 . S
C691 Nd681 2.836 . S
C691 C692 1.498 1_556 S
C691 O706 1.258 . S
C691 O707 1.239 . S
C692 C691 1.498 1_554 S
C692 C693 1.366 . S
C692 C697 1.407 . S
C693 C692 1.366 . S
C693 C694 1.392 . S
C693 H716 0.930 . S
C694 C693 1.392 . S
C694 C695 1.398 . S
C694 H717 0.929 . S
C695 C694 1.398 . S
C695 C696 1.352 . S
C696 C695 1.352 . S
C696 C697 1.384 . S
C696 H718 0.930 . S
C697 C692 1.407 . S
C697 C696 1.384 . S
C697 H719 0.929 . S
C698 O708 1.241 . S
C698 O709 1.273 . S
C699 O710 1.251 . S
C699 O711 1.268 . S
O700 Nd680 2.500 . S
O700 C682 1.258 . S
O701 Nd680 2.492 . S
O701 C682 1.239 . S
O702 Nd680 2.487 . S
O702 C689 1.241 . S
O703 Nd680 2.682 . S
O703 Nd681 2.414 . S
O703 C689 1.273 . S
O704 Nd680 2.410 . S
O704 C690 1.251 . S
O705 Nd681 2.424 . S
O705 C690 1.268 . S
O706 Nd681 2.500 . S
O706 C691 1.258 . S
O707 Nd681 2.492 . S
O707 C691 1.239 . S
O708 Nd681 2.487 . S
O708 C698 1.241 . S
O709 Nd680 2.414 . S
O709 Nd681 2.682 . S
O709 C698 1.273 . S
O710 Nd681 2.410 . S
O710 C699 1.251 . S
O711 Nd680 2.424 . S
O711 C699 1.268 . S
H712 C684 0.930 . S
H713 C685 0.929 . S
H714 C687 0.930 . S
H715 C688 0.929 . S
H716 C693 0.930 . S
H717 C694 0.929 . S
H718 C696 0.930 . S
H719 C697 0.929 . S
Nd720 C722 2.836 . S
Nd720 O740 2.500 . S
Nd720 O741 2.492 . S
Nd720 O742 2.487 . S
Nd720 O743 2.682 . S
Nd720 O744 2.410 . S
Nd720 O749 2.414 . S
Nd720 O751 2.424 . S
Nd721 C731 2.836 . S
Nd721 O743 2.414 . S
Nd721 O745 2.424 . S
Nd721 O746 2.500 . S
Nd721 O747 2.492 . S
Nd721 O748 2.487 . S
Nd721 O749 2.682 . S
Nd721 O750 2.410 . S
C722 Nd720 2.836 . S
C722 C723 1.498 . S
C722 O740 1.258 . S
C722 O741 1.239 . S
C723 C722 1.498 . S
C723 C724 1.366 . S
C723 C728 1.407 . S
C724 C723 1.366 . S
C724 C725 1.392 1_554 S
C724 H752 0.930 . S
C725 C724 1.392 1_556 S
C725 C726 1.398 . S
C725 H753 0.929 . S
C726 C725 1.398 . S
C726 C727 1.352 . S
C727 C726 1.352 . S
C727 C728 1.384 1_556 S
C727 H754 0.930 . S
C728 C723 1.407 . S
C728 C727 1.384 1_554 S
C728 H755 0.929 . S
C729 O742 1.241 . S
C729 O743 1.273 . S
C730 O744 1.251 . S
C730 O745 1.268 . S
C731 Nd721 2.836 . S
C731 C732 1.498 . S
C731 O746 1.258 . S
C731 O747 1.239 . S
C732 C731 1.498 . S
C732 C733 1.366 . S
C732 C737 1.407 . S
C733 C732 1.366 . S
C733 C734 1.392 . S
C733 H756 0.930 . S
C734 C733 1.392 . S
C734 C735 1.398 . S
C734 H757 0.929 . S
C735 C734 1.398 . S
C735 C736 1.352 . S
C736 C735 1.352 . S
C736 C737 1.384 . S
C736 H758 0.930 1_655 S
C737 C732 1.407 . S
C737 C736 1.384 . S
C737 H759 0.929 . S
C738 O748 1.241 . S
C738 O749 1.273 . S
C739 O750 1.251 . S
C739 O751 1.268 . S
O740 Nd720 2.500 . S
O740 C722 1.258 . S
O741 Nd720 2.492 . S
O741 C722 1.239 . S
O742 Nd720 2.487 . S
O742 C729 1.241 . S
O743 Nd720 2.682 . S
O743 Nd721 2.414 . S
O743 C729 1.273 . S
O744 Nd720 2.410 . S
O744 C730 1.251 . S
O745 Nd721 2.424 . S
O745 C730 1.268 . S
O746 Nd721 2.500 . S
O746 C731 1.258 . S
O747 Nd721 2.492 . S
O747 C731 1.239 . S
O748 Nd721 2.487 . S
O748 C738 1.241 . S
O749 Nd720 2.414 . S
O749 Nd721 2.682 . S
O749 C738 1.273 . S
O750 Nd721 2.410 . S
O750 C739 1.251 . S
O751 Nd720 2.424 . S
O751 C739 1.268 . S
H752 C724 0.930 . S
H753 C725 0.929 . S
H754 C727 0.930 . S
H755 C728 0.929 . S
H756 C733 0.930 . S
H757 C734 0.929 . S
H758 C736 0.930 1_455 S
H759 C737 0.929 . S
Nd760 C762 2.836 . S
Nd760 O780 2.500 . S
Nd760 O781 2.492 . S
Nd760 O782 2.487 . S
Nd760 O783 2.682 . S
Nd760 O784 2.410 . S
Nd760 O789 2.414 . S
Nd760 O791 2.424 . S
Nd761 C771 2.836 . S
Nd761 O783 2.414 . S
Nd761 O785 2.424 . S
Nd761 O786 2.500 . S
Nd761 O787 2.492 . S
Nd761 O788 2.487 . S
Nd761 O789 2.682 . S
Nd761 O790 2.410 . S
C762 Nd760 2.836 . S
C762 C763 1.498 . S
C762 O780 1.258 . S
C762 O781 1.239 . S
C763 C762 1.498 . S
C763 C764 1.366 . S
C763 C768 1.407 . S
C764 C763 1.366 . S
C764 C765 1.392 . S
C764 H792 0.930 . S
C765 C764 1.392 . S
C765 C766 1.398 . S
C765 H793 0.929 . S
C766 C765 1.398 . S
C766 C767 1.352 . S
C767 C766 1.352 . S
C767 C768 1.384 . S
C767 H794 0.930 . S
C768 C763 1.407 . S
C768 C767 1.384 . S
C768 H795 0.929 . S
C769 O782 1.241 . S
C769 O783 1.273 . S
C770 O784 1.251 . S
C770 O785 1.268 . S
C771 Nd761 2.836 . S
C771 C772 1.498 . S
C771 O786 1.258 . S
C771 O787 1.239 . S
C772 C771 1.498 . S
C772 C773 1.366 . S
C772 C777 1.407 . S
C773 C772 1.366 . S
C773 C774 1.392 . S
C773 H796 0.930 . S
C774 C773 1.392 . S
C774 C775 1.398 . S
C774 H797 0.929 . S
C775 C774 1.398 . S
C775 C776 1.352 . S
C776 C775 1.352 . S
C776 C777 1.384 . S
C776 H798 0.930 . S
C777 C772 1.407 . S
C777 C776 1.384 . S
C777 H799 0.929 . S
C778 O788 1.241 . S
C778 O789 1.273 . S
C779 O790 1.251 . S
C779 O791 1.268 . S
O780 Nd760 2.500 . S
O780 C762 1.258 . S
O781 Nd760 2.492 . S
O781 C762 1.239 . S
O782 Nd760 2.487 . S
O782 C769 1.241 . S
O783 Nd760 2.682 . S
O783 Nd761 2.414 . S
O783 C769 1.273 . S
O784 Nd760 2.410 . S
O784 C770 1.251 . S
O785 Nd761 2.424 . S
O785 C770 1.268 . S
O786 Nd761 2.500 . S
O786 C771 1.258 . S
O787 Nd761 2.492 . S
O787 C771 1.239 . S
O788 Nd761 2.487 . S
O788 C778 1.241 . S
O789 Nd760 2.414 . S
O789 Nd761 2.682 . S
O789 C778 1.273 . S
O790 Nd761 2.410 . S
O790 C779 1.251 . S
O791 Nd760 2.424 . S
O791 C779 1.268 . S
H792 C764 0.930 . S
H793 C765 0.929 . S
H794 C767 0.930 . S
H795 C768 0.929 . S
H796 C773 0.930 . S
H797 C774 0.929 . S
H798 C776 0.930 . S
H799 C777 0.929 . S
Nd800 C802 2.836 . S
Nd800 O820 2.500 . S
Nd800 O821 2.492 . S
Nd800 O822 2.487 . S
Nd800 O823 2.682 . S
Nd800 O824 2.410 . S
Nd800 O829 2.414 . S
Nd800 O831 2.424 . S
Nd801 C811 2.836 . S
Nd801 O823 2.414 . S
Nd801 O825 2.424 . S
Nd801 O826 2.500 . S
Nd801 O827 2.492 . S
Nd801 O828 2.487 . S
Nd801 O829 2.682 . S
Nd801 O830 2.410 . S
C802 Nd800 2.836 . S
C802 C803 1.498 1_554 S
C802 O820 1.258 . S
C802 O821 1.239 . S
C803 C802 1.498 1_556 S
C803 C804 1.366 . S
C803 C808 1.407 1_545 S
C804 C803 1.366 . S
C804 C805 1.392 . S
C804 H832 0.930 . S
C805 C804 1.392 . S
C805 C806 1.392 . S
C805 H833 0.929 . S
C806 C805 1.392 . S
C806 C807 1.356 1_545 S
C807 C806 1.356 1_565 S
C807 C808 1.384 . S
C807 H834 0.930 . S
C808 C803 1.407 1_565 S
C808 C807 1.384 . S
C808 H835 0.929 . S
C809 O822 1.241 . S
C809 O823 1.273 . S
C810 O824 1.251 . S
C810 O825 1.268 . S
C811 Nd801 2.836 . S
C811 C812 1.498 . S
C811 O826 1.258 . S
C811 O827 1.239 . S
C812 C811 1.498 . S
C812 C813 1.366 . S
C812 C817 1.407 . S
C813 C812 1.366 . S
C813 C814 1.392 . S
C813 H836 0.930 . S
C814 C813 1.392 . S
C814 C815 1.398 . S
C814 H837 0.929 . S
C815 C814 1.398 . S
C815 C816 1.352 . S
C816 C815 1.352 . S
C816 C817 1.384 . S
C816 H838 0.930 . S
C817 C812 1.407 . S
C817 C816 1.384 . S
C817 H839 0.929 . S
C818 O828 1.241 . S
C818 O829 1.273 . S
C819 O830 1.251 . S
C819 O831 1.268 . S
O820 Nd800 2.500 . S
O820 C802 1.258 . S
O821 Nd800 2.492 . S
O821 C802 1.239 . S
O822 Nd800 2.487 . S
O822 C809 1.241 . S
O823 Nd800 2.682 . S
O823 Nd801 2.414 . S
O823 C809 1.273 . S
O824 Nd800 2.410 . S
O824 C810 1.251 . S
O825 Nd801 2.424 . S
O825 C810 1.268 . S
O826 Nd801 2.500 . S
O826 C811 1.258 . S
O827 Nd801 2.492 . S
O827 C811 1.239 . S
O828 Nd801 2.487 . S
O828 C818 1.241 . S
O829 Nd800 2.414 . S
O829 Nd801 2.682 . S
O829 C818 1.273 . S
O830 Nd801 2.410 . S
O830 C819 1.251 . S
O831 Nd800 2.424 . S
O831 C819 1.268 . S
H832 C804 0.930 . S
H833 C805 0.929 . S
H834 C807 0.930 . S
H835 C808 0.929 . S
H836 C813 0.930 . S
H837 C814 0.929 . S
H838 C816 0.930 . S
H839 C817 0.929 . S
Nd840 C842 2.836 . S
Nd840 O860 2.500 . S
Nd840 O861 2.492 . S
Nd840 O862 2.487 . S
Nd840 O863 2.682 . S
Nd840 O864 2.410 . S
Nd840 O869 2.414 . S
Nd840 O871 2.424 . S
Nd841 C851 2.836 . S
Nd841 O863 2.414 . S
Nd841 O865 2.424 . S
Nd841 O866 2.500 . S
Nd841 O867 2.492 . S
Nd841 O868 2.487 . S
Nd841 O869 2.682 . S
Nd841 O870 2.410 . S
C842 Nd840 2.836 . S
C842 C843 1.498 . S
C842 O860 1.258 . S
C842 O861 1.239 . S
C843 C842 1.498 . S
C843 C844 1.366 . S
C843 C848 1.407 . S
C844 C843 1.366 . S
C844 C845 1.392 . S
C844 H872 0.930 . S
C845 C844 1.392 . S
C845 C846 1.398 . S
C845 H873 0.929 . S
C846 C845 1.398 . S
C846 C847 1.352 . S
C847 C846 1.352 . S
C847 C848 1.384 . S
C847 H874 0.930 . S
C848 C843 1.407 . S
C848 C847 1.384 . S
C848 H875 0.929 . S
C849 O862 1.241 . S
C849 O863 1.273 . S
C850 O864 1.251 . S
C850 O865 1.268 . S
C851 Nd841 2.836 . S
C851 C852 1.498 . S
C851 O866 1.258 . S
C851 O867 1.239 . S
C852 C851 1.498 . S
C852 C853 1.366 . S
C852 C857 1.407 . S
C853 C852 1.366 . S
C853 C854 1.392 . S
C853 H876 0.930 . S
C854 C853 1.392 . S
C854 C855 1.398 . S
C854 H877 0.929 . S
C855 C854 1.398 . S
C855 C856 1.352 . S
C856 C855 1.352 . S
C856 C857 1.384 . S
C856 H878 0.930 . S
C857 C852 1.407 . S
C857 C856 1.384 . S
C857 H879 0.929 . S
C858 O868 1.241 . S
C858 O869 1.273 . S
C859 O870 1.251 . S
C859 O871 1.268 . S
O860 Nd840 2.500 . S
O860 C842 1.258 . S
O861 Nd840 2.492 . S
O861 C842 1.239 . S
O862 Nd840 2.487 . S
O862 C849 1.241 . S
O863 Nd840 2.682 . S
O863 Nd841 2.414 . S
O863 C849 1.273 . S
O864 Nd840 2.410 . S
O864 C850 1.251 . S
O865 Nd841 2.424 . S
O865 C850 1.268 . S
O866 Nd841 2.500 . S
O866 C851 1.258 . S
O867 Nd841 2.492 . S
O867 C851 1.239 . S
O868 Nd841 2.487 . S
O868 C858 1.241 . S
O869 Nd840 2.414 . S
O869 Nd841 2.682 . S
O869 C858 1.273 . S
O870 Nd841 2.410 . S
O870 C859 1.251 . S
O871 Nd840 2.424 . S
O871 C859 1.268 . S
H872 C844 0.930 . S
H873 C845 0.929 . S
H874 C847 0.930 . S
H875 C848 0.929 . S
H876 C853 0.930 . S
H877 C854 0.929 . S
H878 C856 0.930 . S
H879 C857 0.929 . S
Nd880 C882 2.836 . S
Nd880 O900 2.500 . S
Nd880 O901 2.492 . S
Nd880 O902 2.487 . S
Nd880 O903 2.682 . S
Nd880 O904 2.410 . S
Nd880 O909 2.414 . S
Nd880 O911 2.424 . S
Nd881 C891 2.836 . S
Nd881 O903 2.414 . S
Nd881 O905 2.424 . S
Nd881 O906 2.500 . S
Nd881 O907 2.492 . S
Nd881 O908 2.487 . S
Nd881 O909 2.682 . S
Nd881 O910 2.410 . S
C882 Nd880 2.836 . S
C882 C883 1.498 . S
C882 O900 1.258 . S
C882 O901 1.239 . S
C883 C882 1.498 . S
C883 C884 1.366 . S
C883 C888 1.407 1_565 S
C884 C883 1.366 . S
C884 C885 1.392 . S
C884 H912 0.930 . S
C885 C884 1.392 . S
C885 C886 1.392 . S
C885 H913 0.929 . S
C886 C885 1.392 . S
C886 C887 1.356 1_565 S
C887 C886 1.356 1_545 S
C887 C888 1.384 . S
C887 H914 0.930 . S
C888 C883 1.407 1_545 S
C888 C887 1.384 . S
C888 H915 0.929 . S
C889 O902 1.241 . S
C889 O903 1.273 . S
C890 O904 1.251 . S
C890 O905 1.268 . S
C891 Nd881 2.836 . S
C891 C892 1.498 . S
C891 O906 1.258 . S
C891 O907 1.239 . S
C892 C891 1.498 . S
C892 C893 1.366 . S
C892 C897 1.407 . S
C893 C892 1.366 . S
C893 C894 1.392 . S
C893 H916 0.930 . S
C894 C893 1.392 . S
C894 C895 1.398 . S
C894 H917 0.929 . S
C895 C894 1.398 . S
C895 C896 1.352 . S
C896 C895 1.352 . S
C896 C897 1.384 . S
C896 H918 0.930 . S
C897 C892 1.407 . S
C897 C896 1.384 . S
C897 H919 0.929 . S
C898 O908 1.241 . S
C898 O909 1.273 . S
C899 O910 1.251 . S
C899 O911 1.268 . S
O900 Nd880 2.500 . S
O900 C882 1.258 . S
O901 Nd880 2.492 . S
O901 C882 1.239 . S
O902 Nd880 2.487 . S
O902 C889 1.241 . S
O903 Nd880 2.682 . S
O903 Nd881 2.414 . S
O903 C889 1.273 . S
O904 Nd880 2.410 . S
O904 C890 1.251 . S
O905 Nd881 2.424 . S
O905 C890 1.268 . S
O906 Nd881 2.500 . S
O906 C891 1.258 . S
O907 Nd881 2.492 . S
O907 C891 1.239 . S
O908 Nd881 2.487 . S
O908 C898 1.241 . S
O909 Nd880 2.414 . S
O909 Nd881 2.682 . S
O909 C898 1.273 . S
O910 Nd881 2.410 . S
O910 C899 1.251 . S
O911 Nd880 2.424 . S
O911 C899 1.268 . S
H912 C884 0.930 . S
H913 C885 0.929 . S
H914 C887 0.930 . S
H915 C888 0.929 . S
H916 C893 0.930 . S
H917 C894 0.929 . S
H918 C896 0.930 . S
H919 C897 0.929 . S
Nd920 C922 2.836 . S
Nd920 O940 2.500 . S
Nd920 O941 2.492 . S
Nd920 O942 2.487 . S
Nd920 O943 2.682 . S
Nd920 O944 2.410 . S
Nd920 O949 2.414 . S
Nd920 O951 2.424 . S
Nd921 C931 2.836 . S
Nd921 O943 2.414 . S
Nd921 O945 2.424 . S
Nd921 O946 2.500 . S
Nd921 O947 2.492 . S
Nd921 O948 2.487 . S
Nd921 O949 2.682 . S
Nd921 O950 2.410 . S
C922 Nd920 2.836 . S
C922 C923 1.498 . S
C922 O940 1.258 . S
C922 O941 1.239 . S
C923 C922 1.498 . S
C923 C924 1.366 . S
C923 C928 1.407 . S
C924 C923 1.366 . S
C924 C925 1.392 . S
C924 H952 0.930 . S
C925 C924 1.392 . S
C925 C926 1.398 . S
C925 H953 0.929 . S
C926 C925 1.398 . S
C926 C927 1.352 . S
C927 C926 1.352 . S
C927 C928 1.384 . S
C927 H954 0.930 . S
C928 C923 1.407 . S
C928 C927 1.384 . S
C928 H955 0.929 . S
C929 O942 1.241 . S
C929 O943 1.273 . S
C930 O944 1.251 . S
C930 O945 1.268 . S
C931 Nd921 2.836 . S
C931 C932 1.498 . S
C931 O946 1.258 . S
C931 O947 1.239 . S
C932 C931 1.498 . S
C932 C933 1.366 . S
C932 C937 1.407 . S
C933 C932 1.366 . S
C933 C934 1.392 1_556 S
C933 H956 0.930 . S
C934 C933 1.392 1_554 S
C934 C935 1.398 . S
C934 H957 0.929 . S
C935 C934 1.398 . S
C935 C936 1.352 1_554 S
C936 C935 1.352 1_556 S
C936 C937 1.384 . S
C936 H958 0.930 . S
C937 C932 1.407 . S
C937 C936 1.384 . S
C937 H959 0.929 . S
C938 O948 1.241 . S
C938 O949 1.273 . S
C939 O950 1.251 . S
C939 O951 1.268 . S
O940 Nd920 2.500 . S
O940 C922 1.258 . S
O941 Nd920 2.492 . S
O941 C922 1.239 . S
O942 Nd920 2.487 . S
O942 C929 1.241 . S
O943 Nd920 2.682 . S
O943 Nd921 2.414 . S
O943 C929 1.273 . S
O944 Nd920 2.410 . S
O944 C930 1.251 . S
O945 Nd921 2.424 . S
O945 C930 1.268 . S
O946 Nd921 2.500 . S
O946 C931 1.258 . S
O947 Nd921 2.492 . S
O947 C931 1.239 . S
O948 Nd921 2.487 . S
O948 C938 1.241 . S
O949 Nd920 2.414 . S
O949 Nd921 2.682 . S
O949 C938 1.273 . S
O950 Nd921 2.410 . S
O950 C939 1.251 . S
O951 Nd920 2.424 . S
O951 C939 1.268 . S
H952 C924 0.930 . S
H953 C925 0.929 . S
H954 C927 0.930 . S
H955 C928 0.929 . S
H956 C933 0.930 . S
H957 C934 0.929 . S
H958 C936 0.930 . S
H959 C937 0.929 . S
Nd960 C962 2.836 . S
Nd960 O980 2.500 . S
Nd960 O981 2.492 . S
Nd960 O982 2.487 . S
Nd960 O983 2.682 . S
Nd960 O984 2.410 . S
Nd960 O989 2.414 . S
Nd960 O991 2.424 . S
Nd961 C971 2.836 . S
Nd961 O983 2.414 . S
Nd961 O985 2.424 . S
Nd961 O986 2.500 . S
Nd961 O987 2.492 . S
Nd961 O988 2.487 . S
Nd961 O989 2.682 . S
Nd961 O990 2.410 . S
C962 Nd960 2.836 . S
C962 C963 1.498 . S
C962 O980 1.258 . S
C962 O981 1.239 . S
C963 C962 1.498 . S
C963 C964 1.366 . S
C963 C968 1.407 . S
C964 C963 1.366 . S
C964 C965 1.392 . S
C964 H992 0.930 . S
C965 C964 1.392 . S
C965 C966 1.398 . S
C965 H993 0.929 . S
C966 C965 1.398 . S
C966 C967 1.352 . S
C967 C966 1.352 . S
C967 C968 1.384 . S
C967 H994 0.930 . S
C968 C963 1.407 . S
C968 C967 1.384 . S
C968 H995 0.929 . S
C969 O982 1.241 . S
C969 O983 1.273 . S
C970 O984 1.251 . S
C970 O985 1.268 . S
C971 Nd961 2.836 . S
C971 C972 1.498 . S
C971 O986 1.258 . S
C971 O987 1.239 . S
C972 C971 1.498 . S
C972 C973 1.366 . S
C972 C977 1.407 . S
C973 C972 1.366 . S
C973 C974 1.392 . S
C973 H996 0.930 . S
C974 C973 1.392 . S
C974 C975 1.398 . S
C974 H997 0.929 . S
C975 C974 1.398 . S
C975 C976 1.352 . S
C976 C975 1.352 . S
C976 C977 1.384 . S
C976 H998 0.930 . S
C977 C972 1.407 . S
C977 C976 1.384 . S
C977 H999 0.929 . S
C978 O988 1.241 . S
C978 O989 1.273 . S
C979 O990 1.251 . S
C979 O991 1.268 . S
O980 Nd960 2.500 . S
O980 C962 1.258 . S
O981 Nd960 2.492 . S
O981 C962 1.239 . S
O982 Nd960 2.487 . S
O982 C969 1.241 . S
O983 Nd960 2.682 . S
O983 Nd961 2.414 . S
O983 C969 1.273 . S
O984 Nd960 2.410 . S
O984 C970 1.251 . S
O985 Nd961 2.424 . S
O985 C970 1.268 . S
O986 Nd961 2.500 . S
O986 C971 1.258 . S
O987 Nd961 2.492 . S
O987 C971 1.239 . S
O988 Nd961 2.487 . S
O988 C978 1.241 . S
O989 Nd960 2.414 . S
O989 Nd961 2.682 . S
O989 C978 1.273 . S
O990 Nd961 2.410 . S
O990 C979 1.251 . S
O991 Nd960 2.424 . S
O991 C979 1.268 . S
H992 C964 0.930 . S
H993 C965 0.929 . S
H994 C967 0.930 . S
H995 C968 0.929 . S
H996 C973 0.930 . S
H997 C974 0.929 . S
H998 C976 0.930 . S
H999 C977 0.929 . S
Nd1000 C1002 2.836 . S
Nd1000 O1020 2.500 . S
Nd1000 O1021 2.492 . S
Nd1000 O1022 2.487 . S
Nd1000 O1023 2.682 . S
Nd1000 O1024 2.410 . S
Nd1000 O1029 2.414 . S
Nd1000 O1031 2.424 . S
Nd1001 C1011 2.836 . S
Nd1001 O1023 2.414 . S
Nd1001 O1025 2.424 . S
Nd1001 O1026 2.500 . S
Nd1001 O1027 2.492 . S
Nd1001 O1028 2.487 . S
Nd1001 O1029 2.682 . S
Nd1001 O1030 2.410 . S
C1002 Nd1000 2.836 . S
C1002 C1003 1.498 . S
C1002 O1020 1.258 . S
C1002 O1021 1.239 . S
C1003 C1002 1.498 . S
C1003 C1004 1.366 . S
C1003 C1008 1.407 . S
C1004 C1003 1.366 . S
C1004 C1005 1.392 . S
C1004 H1032 0.930 . S
C1005 C1004 1.392 . S
C1005 C1006 1.398 . S
C1005 H1033 0.929 . S
C1006 C1005 1.398 . S
C1006 C1007 1.352 . S
C1007 C1006 1.352 . S
C1007 C1008 1.384 . S
C1007 H1034 0.930 . S
C1008 C1003 1.407 . S
C1008 C1007 1.384 . S
C1008 H1035 0.929 . S
C1009 O1022 1.241 . S
C1009 O1023 1.273 . S
C1010 O1024 1.251 . S
C1010 O1025 1.268 . S
C1011 Nd1001 2.836 . S
C1011 C1012 1.498 . S
C1011 O1026 1.258 . S
C1011 O1027 1.239 . S
C1012 C1011 1.498 . S
C1012 C1013 1.366 . S
C1012 C1017 1.407 . S
C1013 C1012 1.366 . S
C1013 C1014 1.392 . S
C1013 H1036 0.930 . S
C1014 C1013 1.392 . S
C1014 C1015 1.398 . S
C1014 H1037 0.929 . S
C1015 C1014 1.398 . S
C1015 C1016 1.352 . S
C1016 C1015 1.352 . S
C1016 C1017 1.384 . S
C1016 H1038 0.930 . S
C1017 C1012 1.407 . S
C1017 C1016 1.384 . S
C1017 H1039 0.929 . S
C1018 O1028 1.241 . S
C1018 O1029 1.273 . S
C1019 O1030 1.251 . S
C1019 O1031 1.268 . S
O1020 Nd1000 2.500 . S
O1020 C1002 1.258 . S
O1021 Nd1000 2.492 . S
O1021 C1002 1.239 . S
O1022 Nd1000 2.487 . S
O1022 C1009 1.241 . S
O1023 Nd1000 2.682 . S
O1023 Nd1001 2.414 . S
O1023 C1009 1.273 . S
O1024 Nd1000 2.410 . S
O1024 C1010 1.251 . S
O1025 Nd1001 2.424 . S
O1025 C1010 1.268 . S
O1026 Nd1001 2.500 . S
O1026 C1011 1.258 . S
O1027 Nd1001 2.492 . S
O1027 C1011 1.239 . S
O1028 Nd1001 2.487 . S
O1028 C1018 1.241 . S
O1029 Nd1000 2.414 . S
O1029 Nd1001 2.682 . S
O1029 C1018 1.273 . S
O1030 Nd1001 2.410 . S
O1030 C1019 1.251 . S
O1031 Nd1000 2.424 . S
O1031 C1019 1.268 . S
H1032 C1004 0.930 . S
H1033 C1005 0.929 . S
H1034 C1007 0.930 . S
H1035 C1008 0.929 . S
H1036 C1013 0.930 . S
H1037 C1014 0.929 . S
H1038 C1016 0.930 . S
H1039 C1017 0.929 . S
Nd1040 C1042 2.836 . S
Nd1040 O1060 2.500 . S
Nd1040 O1061 2.492 . S
Nd1040 O1062 2.487 . S
Nd1040 O1063 2.682 . S
Nd1040 O1064 2.410 . S
Nd1040 O1069 2.414 . S
Nd1040 O1071 2.424 . S
Nd1041 C1051 2.836 . S
Nd1041 O1063 2.414 . S
Nd1041 O1065 2.424 . S
Nd1041 O1066 2.500 . S
Nd1041 O1067 2.492 . S
Nd1041 O1068 2.487 . S
Nd1041 O1069 2.682 . S
Nd1041 O1070 2.410 . S
C1042 Nd1040 2.836 . S
C1042 C1043 1.498 . S
C1042 O1060 1.258 . S
C1042 O1061 1.239 . S
C1043 C1042 1.498 . S
C1043 C1044 1.366 . S
C1043 C1048 1.407 . S
C1044 C1043 1.366 . S
C1044 C1045 1.392 . S
C1044 H1072 0.930 . S
C1045 C1044 1.392 . S
C1045 C1046 1.398 . S
C1045 H1073 0.929 . S
C1046 C1045 1.398 . S
C1046 C1047 1.352 . S
C1047 C1046 1.352 . S
C1047 C1048 1.384 . S
C1047 H1074 0.930 1_455 S
C1048 C1043 1.407 . S
C1048 C1047 1.384 . S
C1048 H1075 0.929 . S
C1049 O1062 1.241 . S
C1049 O1063 1.273 . S
C1050 O1064 1.251 . S
C1050 O1065 1.268 . S
C1051 Nd1041 2.836 . S
C1051 C1052 1.498 . S
C1051 O1066 1.258 . S
C1051 O1067 1.239 . S
C1052 C1051 1.498 . S
C1052 C1053 1.366 . S
C1052 C1057 1.407 . S
C1053 C1052 1.366 . S
C1053 C1054 1.392 . S
C1053 H1076 0.930 . S
C1054 C1053 1.392 . S
C1054 C1055 1.398 . S
C1054 H1077 0.929 . S
C1055 C1054 1.398 . S
C1055 C1056 1.352 . S
C1056 C1055 1.352 . S
C1056 C1057 1.384 . S
C1056 H1078 0.930 . S
C1057 C1052 1.407 . S
C1057 C1056 1.384 . S
C1057 H1079 0.929 . S
C1058 O1068 1.241 . S
C1058 O1069 1.273 . S
C1059 O1070 1.251 . S
C1059 O1071 1.268 . S
O1060 Nd1040 2.500 . S
O1060 C1042 1.258 . S
O1061 Nd1040 2.492 . S
O1061 C1042 1.239 . S
O1062 Nd1040 2.487 . S
O1062 C1049 1.241 . S
O1063 Nd1040 2.682 . S
O1063 Nd1041 2.414 . S
O1063 C1049 1.273 . S
O1064 Nd1040 2.410 . S
O1064 C1050 1.251 . S
O1065 Nd1041 2.424 . S
O1065 C1050 1.268 . S
O1066 Nd1041 2.500 . S
O1066 C1051 1.258 . S
O1067 Nd1041 2.492 . S
O1067 C1051 1.239 . S
O1068 Nd1041 2.487 . S
O1068 C1058 1.241 . S
O1069 Nd1040 2.414 . S
O1069 Nd1041 2.682 . S
O1069 C1058 1.273 . S
O1070 Nd1041 2.410 . S
O1070 C1059 1.251 . S
O1071 Nd1040 2.424 . S
O1071 C1059 1.268 . S
H1072 C1044 0.930 . S
H1073 C1045 0.929 . S
H1074 C1047 0.930 1_655 S
H1075 C1048 0.929 . S
H1076 C1053 0.930 . S
H1077 C1054 0.929 . S
H1078 C1056 0.930 . S
H1079 C1057 0.929 . S
Nd1080 C1082 2.836 . S
Nd1080 O1100 2.500 . S
Nd1080 O1101 2.492 . S
Nd1080 O1102 2.487 . S
Nd1080 O1103 2.682 . S
Nd1080 O1104 2.410 . S
Nd1080 O1109 2.414 . S
Nd1080 O1111 2.424 . S
Nd1081 C1091 2.836 1_556 S
Nd1081 O1103 2.414 . S
Nd1081 O1105 2.424 . S
Nd1081 O1106 2.500 1_556 S
Nd1081 O1107 2.492 1_556 S
Nd1081 O1108 2.487 . S
Nd1081 O1109 2.682 . S
Nd1081 O1110 2.410 . S
C1082 Nd1080 2.836 . S
C1082 C1083 1.498 . S
C1082 O1100 1.258 . S
C1082 O1101 1.239 . S
C1083 C1082 1.498 . S
C1083 C1084 1.366 . S
C1083 C1088 1.407 . S
C1084 C1083 1.366 . S
C1084 C1085 1.392 . S
C1084 H1112 0.930 . S
C1085 C1084 1.392 . S
C1085 C1086 1.398 . S
C1085 H1113 0.929 . S
C1086 C1085 1.398 . S
C1086 C1087 1.352 . S
C1087 C1086 1.352 . S
C1087 C1088 1.384 . S
C1087 H1114 0.930 . S
C1088 C1083 1.407 . S
C1088 C1087 1.384 . S
C1088 H1115 0.929 . S
C1089 O1102 1.241 . S
C1089 O1103 1.273 . S
C1090 O1104 1.251 . S
C1090 O1105 1.268 . S
C1091 Nd1081 2.836 1_554 S
C1091 C1092 1.498 . S
C1091 O1106 1.258 . S
C1091 O1107 1.239 . S
C1092 C1091 1.498 . S
C1092 C1093 1.366 . S
C1092 C1097 1.407 . S
C1093 C1092 1.366 . S
C1093 C1094 1.392 . S
C1093 H1116 0.930 . S
C1094 C1093 1.392 . S
C1094 C1095 1.398 . S
C1094 H1117 0.929 . S
C1095 C1094 1.398 . S
C1095 C1096 1.352 . S
C1096 C1095 1.352 . S
C1096 C1097 1.384 . S
C1096 H1118 0.930 . S
C1097 C1092 1.407 . S
C1097 C1096 1.384 . S
C1097 H1119 0.929 . S
C1098 O1108 1.241 . S
C1098 O1109 1.273 . S
C1099 O1110 1.251 . S
C1099 O1111 1.268 . S
O1100 Nd1080 2.500 . S
O1100 C1082 1.258 . S
O1101 Nd1080 2.492 . S
O1101 C1082 1.239 . S
O1102 Nd1080 2.487 . S
O1102 C1089 1.241 . S
O1103 Nd1080 2.682 . S
O1103 Nd1081 2.414 . S
O1103 C1089 1.273 . S
O1104 Nd1080 2.410 . S
O1104 C1090 1.251 . S
O1105 Nd1081 2.424 . S
O1105 C1090 1.268 . S
O1106 Nd1081 2.500 1_554 S
O1106 C1091 1.258 . S
O1107 Nd1081 2.492 1_554 S
O1107 C1091 1.239 . S
O1108 Nd1081 2.487 . S
O1108 C1098 1.241 . S
O1109 Nd1080 2.414 . S
O1109 Nd1081 2.682 . S
O1109 C1098 1.273 . S
O1110 Nd1081 2.410 . S
O1110 C1099 1.251 . S
O1111 Nd1080 2.424 . S
O1111 C1099 1.268 . S
H1112 C1084 0.930 . S
H1113 C1085 0.929 . S
H1114 C1087 0.930 . S
H1115 C1088 0.929 . S
H1116 C1093 0.930 . S
H1117 C1094 0.929 . S
H1118 C1096 0.930 . S
H1119 C1097 0.929 . S
Nd1120 C1122 2.836 . S
Nd1120 O1140 2.500 . S
Nd1120 O1141 2.492 . S
Nd1120 O1142 2.487 . S
Nd1120 O1143 2.682 . S
Nd1120 O1144 2.410 . S
Nd1120 O1149 2.414 . S
Nd1120 O1151 2.424 . S
Nd1121 C1131 2.836 . S
Nd1121 O1143 2.414 . S
Nd1121 O1145 2.424 . S
Nd1121 O1146 2.500 . S
Nd1121 O1147 2.492 . S
Nd1121 O1148 2.487 . S
Nd1121 O1149 2.682 . S
Nd1121 O1150 2.410 . S
C1122 Nd1120 2.836 . S
C1122 C1123 1.498 . S
C1122 O1140 1.258 . S
C1122 O1141 1.239 . S
C1123 C1122 1.498 . S
C1123 C1124 1.366 . S
C1123 C1128 1.407 . S
C1124 C1123 1.366 . S
C1124 C1125 1.392 . S
C1124 H1152 0.930 . S
C1125 C1124 1.392 . S
C1125 C1126 1.398 . S
C1125 H1153 0.929 . S
C1126 C1125 1.398 . S
C1126 C1127 1.352 . S
C1127 C1126 1.352 . S
C1127 C1128 1.384 . S
C1127 H1154 0.930 . S
C1128 C1123 1.407 . S
C1128 C1127 1.384 . S
C1128 H1155 0.929 . S
C1129 O1142 1.241 . S
C1129 O1143 1.273 . S
C1130 O1144 1.251 . S
C1130 O1145 1.268 . S
C1131 Nd1121 2.836 . S
C1131 C1132 1.498 . S
C1131 O1146 1.258 . S
C1131 O1147 1.239 . S
C1132 C1131 1.498 . S
C1132 C1133 1.366 . S
C1132 C1137 1.407 1_565 S
C1133 C1132 1.366 . S
C1133 C1134 1.392 . S
C1133 H1156 0.930 . S
C1134 C1133 1.392 . S
C1134 C1135 1.405 1_565 S
C1134 H1157 0.929 . S
C1135 C1134 1.405 1_545 S
C1135 C1136 1.348 . S
C1136 C1135 1.348 . S
C1136 C1137 1.384 . S
C1136 H1158 0.930 . S
C1137 C1132 1.407 1_545 S
C1137 C1136 1.384 . S
C1137 H1159 0.929 . S
C1138 O1148 1.241 . S
C1138 O1149 1.273 . S
C1139 O1150 1.251 . S
C1139 O1151 1.268 . S
O1140 Nd1120 2.500 . S
O1140 C1122 1.258 . S
O1141 Nd1120 2.492 . S
O1141 C1122 1.239 . S
O1142 Nd1120 2.487 . S
O1142 C1129 1.241 . S
O1143 Nd1120 2.682 . S
O1143 Nd1121 2.414 . S
O1143 C1129 1.273 . S
O1144 Nd1120 2.410 . S
O1144 C1130 1.251 . S
O1145 Nd1121 2.424 . S
O1145 C1130 1.268 . S
O1146 Nd1121 2.500 . S
O1146 C1131 1.258 . S
O1147 Nd1121 2.492 . S
O1147 C1131 1.239 . S
O1148 Nd1121 2.487 . S
O1148 C1138 1.241 . S
O1149 Nd1120 2.414 . S
O1149 Nd1121 2.682 . S
O1149 C1138 1.273 . S
O1150 Nd1121 2.410 . S
O1150 C1139 1.251 . S
O1151 Nd1120 2.424 . S
O1151 C1139 1.268 . S
H1152 C1124 0.930 . S
H1153 C1125 0.929 . S
H1154 C1127 0.930 . S
H1155 C1128 0.929 . S
H1156 C1133 0.930 . S
H1157 C1134 0.929 . S
H1158 C1136 0.930 . S
H1159 C1137 0.929 . S
Nd1160 C1162 2.836 . S
Nd1160 O1180 2.500 . S
Nd1160 O1181 2.492 . S
Nd1160 O1182 2.487 . S
Nd1160 O1183 2.682 1_556 S
Nd1160 O1184 2.410 . S
Nd1160 O1189 2.414 . S
Nd1160 O1191 2.424 1_556 S
Nd1161 C1171 2.836 . S
Nd1161 O1183 2.414 . S
Nd1161 O1185 2.424 1_554 S
Nd1161 O1186 2.500 . S
Nd1161 O1187 2.492 . S
Nd1161 O1188 2.494 . S
Nd1161 O1189 2.682 1_554 S
Nd1161 O1190 2.410 . S
C1162 Nd1160 2.836 . S
C1162 C1163 1.498 . S
C1162 O1180 1.258 . S
C1162 O1181 1.239 . S
C1163 C1162 1.498 . S
C1163 C1164 1.366 . S
C1163 C1168 1.407 . S
C1164 C1163 1.366 . S
C1164 C1165 1.392 . S
C1164 H1192 0.930 . S
C1165 C1164 1.392 . S
C1165 C1166 1.398 . S
C1165 H1193 0.929 . S
C1166 C1165 1.398 . S
C1166 C1167 1.352 . S
C1167 C1166 1.352 . S
C1167 C1168 1.384 . S
C1167 H1194 0.930 . S
C1168 C1163 1.407 . S
C1168 C1167 1.384 . S
C1168 H1195 0.929 . S
C1169 O1182 1.241 1_554 S
C1169 O1183 1.273 . S
C1170 O1184 1.251 . S
C1170 O1185 1.268 . S
C1171 Nd1161 2.836 . S
C1171 C1172 1.498 . S
C1171 O1186 1.258 . S
C1171 O1187 1.239 . S
C1172 C1171 1.498 . S
C1172 C1173 1.366 . S
C1172 C1177 1.407 . S
C1173 C1172 1.366 . S
C1173 C1174 1.392 . S
C1173 H1196 0.930 . S
C1174 C1173 1.392 . S
C1174 C1175 1.398 . S
C1174 H1197 0.929 . S
C1175 C1174 1.398 . S
C1175 C1176 1.352 . S
C1176 C1175 1.352 . S
C1176 C1177 1.384 . S
C1176 H1198 0.930 . S
C1177 C1172 1.407 . S
C1177 C1176 1.384 . S
C1177 H1199 0.929 . S
C1178 O1188 1.223 1_556 S
C1178 O1189 1.273 . S
C1179 O1190 1.251 . S
C1179 O1191 1.268 . S
O1180 Nd1160 2.500 . S
O1180 C1162 1.258 . S
O1181 Nd1160 2.492 . S
O1181 C1162 1.239 . S
O1182 Nd1160 2.487 . S
O1182 C1169 1.241 1_556 S
O1183 Nd1160 2.682 1_554 S
O1183 Nd1161 2.414 . S
O1183 C1169 1.273 . S
O1184 Nd1160 2.410 . S
O1184 C1170 1.251 . S
O1185 Nd1161 2.424 1_556 S
O1185 C1170 1.268 . S
O1186 Nd1161 2.500 . S
O1186 C1171 1.258 . S
O1187 Nd1161 2.492 . S
O1187 C1171 1.239 . S
O1188 Nd1161 2.494 . S
O1188 C1178 1.223 1_554 S
O1189 Nd1160 2.414 . S
O1189 Nd1161 2.682 1_556 S
O1189 C1178 1.273 . S
O1190 Nd1161 2.410 . S
O1190 C1179 1.251 . S
O1191 Nd1160 2.424 1_554 S
O1191 C1179 1.268 . S
H1192 C1164 0.930 . S
H1193 C1165 0.929 . S
H1194 C1167 0.930 . S
H1195 C1168 0.929 . S
H1196 C1173 0.930 . S
H1197 C1174 0.929 . S
H1198 C1176 0.930 . S
H1199 C1177 0.929 . S
Nd1200 C1202 2.836 . S
Nd1200 O1220 2.500 . S
Nd1200 O1221 2.492 . S
Nd1200 O1222 2.487 . S
Nd1200 O1223 2.682 . S
Nd1200 O1224 2.410 . S
Nd1200 O1229 2.414 . S
Nd1200 O1231 2.424 . S
Nd1201 C1211 2.836 . S
Nd1201 O1223 2.414 . S
Nd1201 O1225 2.424 . S
Nd1201 O1226 2.500 . S
Nd1201 O1227 2.492 . S
Nd1201 O1228 2.487 . S
Nd1201 O1229 2.682 . S
Nd1201 O1230 2.410 . S
C1202 Nd1200 2.836 . S
C1202 C1203 1.498 . S
C1202 O1220 1.258 . S
C1202 O1221 1.239 . S
C1203 C1202 1.498 . S
C1203 C1204 1.366 . S
C1203 C1208 1.407 . S
C1204 C1203 1.366 . S
C1204 C1205 1.392 . S
C1204 H1232 0.930 . S
C1205 C1204 1.392 . S
C1205 C1206 1.398 . S
C1205 H1233 0.929 . S
C1206 C1205 1.398 . S
C1206 C1207 1.352 . S
C1207 C1206 1.352 . S
C1207 C1208 1.384 . S
C1207 H1234 0.930 . S
C1208 C1203 1.407 . S
C1208 C1207 1.384 . S
C1208 H1235 0.929 . S
C1209 O1222 1.241 . S
C1209 O1223 1.273 . S
C1210 O1224 1.251 . S
C1210 O1225 1.268 . S
C1211 Nd1201 2.836 . S
C1211 C1212 1.498 . S
C1211 O1226 1.258 . S
C1211 O1227 1.239 . S
C1212 C1211 1.498 . S
C1212 C1213 1.366 . S
C1212 C1217 1.407 1_545 S
C1213 C1212 1.366 . S
C1213 C1214 1.392 . S
C1213 H1236 0.930 . S
C1214 C1213 1.392 . S
C1214 C1215 1.404 1_545 S
C1214 H1237 0.929 . S
C1215 C1214 1.404 1_565 S
C1215 C1216 1.349 . S
C1216 C1215 1.349 . S
C1216 C1217 1.384 . S
C1216 H1238 0.930 . S
C1217 C1212 1.407 1_565 S
C1217 C1216 1.384 . S
C1217 H1239 0.929 . S
C1218 O1228 1.241 . S
C1218 O1229 1.273 . S
C1219 O1230 1.251 . S
C1219 O1231 1.268 . S
O1220 Nd1200 2.500 . S
O1220 C1202 1.258 . S
O1221 Nd1200 2.492 . S
O1221 C1202 1.239 . S
O1222 Nd1200 2.487 . S
O1222 C1209 1.241 . S
O1223 Nd1200 2.682 . S
O1223 Nd1201 2.414 . S
O1223 C1209 1.273 . S
O1224 Nd1200 2.410 . S
O1224 C1210 1.251 . S
O1225 Nd1201 2.424 . S
O1225 C1210 1.268 . S
O1226 Nd1201 2.500 . S
O1226 C1211 1.258 . S
O1227 Nd1201 2.492 . S
O1227 C1211 1.239 . S
O1228 Nd1201 2.487 . S
O1228 C1218 1.241 . S
O1229 Nd1200 2.414 . S
O1229 Nd1201 2.682 . S
O1229 C1218 1.273 . S
O1230 Nd1201 2.410 . S
O1230 C1219 1.251 . S
O1231 Nd1200 2.424 . S
O1231 C1219 1.268 . S
H1232 C1204 0.930 . S
H1233 C1205 0.929 . S
H1234 C1207 0.930 . S
H1235 C1208 0.929 . S
H1236 C1213 0.930 . S
H1237 C1214 0.929 . S
H1238 C1216 0.930 . S
H1239 C1217 0.929 . S
Nd1240 C1242 2.836 . S
Nd1240 O1260 2.500 . S
Nd1240 O1261 2.492 . S
Nd1240 O1262 2.487 . S
Nd1240 O1263 2.682 . S
Nd1240 O1264 2.410 . S
Nd1240 O1269 2.414 . S
Nd1240 O1271 2.424 . S
Nd1241 C1251 2.836 . S
Nd1241 O1263 2.414 . S
Nd1241 O1265 2.424 . S
Nd1241 O1266 2.500 . S
Nd1241 O1267 2.492 . S
Nd1241 O1268 2.487 . S
Nd1241 O1269 2.682 . S
Nd1241 O1270 2.410 . S
C1242 Nd1240 2.836 . S
C1242 C1243 1.498 . S
C1242 O1260 1.258 . S
C1242 O1261 1.239 . S
C1243 C1242 1.498 . S
C1243 C1244 1.366 . S
C1243 C1248 1.407 . S
C1244 C1243 1.366 . S
C1244 C1245 1.392 . S
C1244 H1272 0.930 . S
C1245 C1244 1.392 . S
C1245 C1246 1.398 . S
C1245 H1273 0.929 . S
C1246 C1245 1.398 . S
C1246 C1247 1.352 . S
C1247 C1246 1.352 . S
C1247 C1248 1.384 . S
C1247 H1274 0.930 . S
C1248 C1243 1.407 . S
C1248 C1247 1.384 . S
C1248 H1275 0.929 . S
C1249 O1262 1.241 . S
C1249 O1263 1.273 . S
C1250 O1264 1.251 . S
C1250 O1265 1.268 . S
C1251 Nd1241 2.836 . S
C1251 C1252 1.498 . S
C1251 O1266 1.258 . S
C1251 O1267 1.239 . S
C1252 C1251 1.498 . S
C1252 C1253 1.366 . S
C1252 C1257 1.407 . S
C1253 C1252 1.366 . S
C1253 C1254 1.392 . S
C1253 H1276 0.930 . S
C1254 C1253 1.392 . S
C1254 C1255 1.398 . S
C1254 H1277 0.929 . S
C1255 C1254 1.398 . S
C1255 C1256 1.352 . S
C1256 C1255 1.352 . S
C1256 C1257 1.384 . S
C1256 H1278 0.930 . S
C1257 C1252 1.407 . S
C1257 C1256 1.384 . S
C1257 H1279 0.929 . S
C1258 O1268 1.241 . S
C1258 O1269 1.273 . S
C1259 O1270 1.251 . S
C1259 O1271 1.268 . S
O1260 Nd1240 2.500 . S
O1260 C1242 1.258 . S
O1261 Nd1240 2.492 . S
O1261 C1242 1.239 . S
O1262 Nd1240 2.487 . S
O1262 C1249 1.241 . S
O1263 Nd1240 2.682 . S
O1263 Nd1241 2.414 . S
O1263 C1249 1.273 . S
O1264 Nd1240 2.410 . S
O1264 C1250 1.251 . S
O1265 Nd1241 2.424 . S
O1265 C1250 1.268 . S
O1266 Nd1241 2.500 . S
O1266 C1251 1.258 . S
O1267 Nd1241 2.492 . S
O1267 C1251 1.239 . S
O1268 Nd1241 2.487 . S
O1268 C1258 1.241 . S
O1269 Nd1240 2.414 . S
O1269 Nd1241 2.682 . S
O1269 C1258 1.273 . S
O1270 Nd1241 2.410 . S
O1270 C1259 1.251 . S
O1271 Nd1240 2.424 . S
O1271 C1259 1.268 . S
H1272 C1244 0.930 . S
H1273 C1245 0.929 . S
H1274 C1247 0.930 . S
H1275 C1248 0.929 . S
H1276 C1253 0.930 . S
H1277 C1254 0.929 . S
H1278 C1256 0.930 . S
H1279 C1257 0.929 . S
C1280 C1281 1.349 . S
C1280 C1282 1.327 . S
C1280 H1305 0.950 . S
C1281 C1280 1.349 . S
C1281 C1297 1.349 . S
C1282 C1280 1.327 . S
C1282 C1301 1.429 . S
C1282 H1306 0.950 . S
C1283 C1300 1.574 . S
C1283 C1302 1.368 . S
C1283 H1307 0.949 . S
H1284 C1288 0.949 . S
C1285 C1286 1.349 . S
C1285 C1287 1.327 . S
C1285 H1308 0.950 . S
C1286 C1285 1.349 . S
C1286 C1298 1.349 . S
C1287 C1285 1.327 . S
C1287 C1303 1.429 . S
C1287 H1309 0.950 . S
C1288 H1284 0.949 . S
C1288 C1296 1.574 . S
C1288 C1304 1.368 . S
H1289 C1297 0.950 . S
H1290 C1295 0.950 . S
H1291 C1296 0.949 . S
H1292 C1298 0.950 . S
H1293 C1299 0.950 . S
H1294 C1300 0.949 . S
C1295 H1290 0.950 . S
C1295 C1297 1.327 . S
C1295 C1301 1.429 . S
C1296 C1288 1.574 . S
C1296 H1291 0.949 . S
C1296 C1302 1.368 . S
C1297 C1281 1.349 . S
C1297 H1289 0.950 . S
C1297 C1295 1.327 . S
C1298 C1286 1.349 . S
C1298 H1292 0.950 . S
C1298 C1299 1.327 . S
C1299 H1293 0.950 . S
C1299 C1298 1.327 . S
C1299 C1303 1.429 . S
C1300 C1283 1.574 . S
C1300 H1294 0.949 . S
C1300 C1304 1.368 . S
C1301 C1282 1.429 . S
C1301 C1295 1.429 . S
C1301 C1302 1.523 . S
C1302 C1283 1.368 . S
C1302 C1296 1.368 . S
C1302 C1301 1.523 . S
C1303 C1287 1.429 . S
C1303 C1299 1.429 . S
C1303 C1304 1.523 . S
C1304 C1288 1.368 . S
C1304 C1300 1.368 . S
C1304 C1303 1.523 . S
H1305 C1280 0.950 . S
H1306 C1282 0.950 . S
H1307 C1283 0.949 . S
H1308 C1285 0.950 . S
H1309 C1287 0.950 . S
C1310 C1311 1.349 . S
C1310 C1312 1.327 . S
C1310 H1335 0.950 . S
C1311 C1310 1.349 . S
C1311 C1327 1.349 . S
C1312 C1310 1.327 . S
C1312 C1331 1.429 . S
C1312 H1336 0.950 . S
C1313 C1330 1.574 . S
C1313 C1332 1.368 . S
C1313 H1337 0.949 . S
H1314 C1318 0.949 . S
C1315 C1316 1.349 . S
C1315 C1317 1.327 . S
C1315 H1338 0.950 . S
C1316 C1315 1.349 . S
C1316 C1328 1.349 . S
C1317 C1315 1.327 . S
C1317 C1333 1.429 . S
C1317 H1339 0.950 . S
C1318 H1314 0.949 . S
C1318 C1326 1.574 . S
C1318 C1334 1.368 . S
H1319 C1327 0.950 . S
H1320 C1325 0.950 . S
H1321 C1326 0.949 . S
H1322 C1328 0.950 . S
H1323 C1329 0.950 . S
H1324 C1330 0.949 . S
C1325 H1320 0.950 . S
C1325 C1327 1.327 . S
C1325 C1331 1.429 . S
C1326 C1318 1.574 . S
C1326 H1321 0.949 . S
C1326 C1332 1.368 . S
C1327 C1311 1.349 . S
C1327 H1319 0.950 . S
C1327 C1325 1.327 . S
C1328 C1316 1.349 . S
C1328 H1322 0.950 . S
C1328 C1329 1.327 . S
C1329 H1323 0.950 . S
C1329 C1328 1.327 . S
C1329 C1333 1.429 . S
C1330 C1313 1.574 . S
C1330 H1324 0.949 . S
C1330 C1334 1.368 . S
C1331 C1312 1.429 . S
C1331 C1325 1.429 . S
C1331 C1332 1.523 . S
C1332 C1313 1.368 . S
C1332 C1326 1.368 . S
C1332 C1331 1.523 . S
C1333 C1317 1.429 . S
C1333 C1329 1.429 . S
C1333 C1334 1.523 . S
C1334 C1318 1.368 . S
C1334 C1330 1.368 . S
C1334 C1333 1.523 . S
H1335 C1310 0.950 . S
H1336 C1312 0.950 . S
H1337 C1313 0.949 . S
H1338 C1315 0.950 . S
H1339 C1317 0.950 . S
C1340 C1341 1.349 . S
C1340 C1342 1.327 . S
C1340 H1365 0.950 . S
C1341 C1340 1.349 . S
C1341 C1357 1.349 . S
C1342 C1340 1.327 . S
C1342 C1361 1.429 . S
C1342 H1366 0.950 . S
C1343 C1360 1.574 . S
C1343 C1362 1.368 . S
C1343 H1367 0.949 . S
H1344 C1348 0.949 . S
C1345 C1346 1.349 . S
C1345 C1347 1.327 . S
C1345 H1368 0.950 . S
C1346 C1345 1.349 . S
C1346 C1358 1.349 . S
C1347 C1345 1.327 . S
C1347 C1363 1.429 . S
C1347 H1369 0.950 . S
C1348 H1344 0.949 . S
C1348 C1356 1.574 . S
C1348 C1364 1.368 . S
H1349 C1357 0.950 . S
H1350 C1355 0.950 . S
H1351 C1356 0.949 . S
H1352 C1358 0.950 . S
H1353 C1359 0.950 . S
H1354 C1360 0.949 . S
C1355 H1350 0.950 . S
C1355 C1357 1.327 . S
C1355 C1361 1.429 . S
C1356 C1348 1.574 . S
C1356 H1351 0.949 . S
C1356 C1362 1.368 . S
C1357 C1341 1.349 . S
C1357 H1349 0.950 . S
C1357 C1355 1.327 . S
C1358 C1346 1.349 . S
C1358 H1352 0.950 . S
C1358 C1359 1.327 . S
C1359 H1353 0.950 . S
C1359 C1358 1.327 . S
C1359 C1363 1.429 . S
C1360 C1343 1.574 . S
C1360 H1354 0.949 . S
C1360 C1364 1.368 . S
C1361 C1342 1.429 . S
C1361 C1355 1.429 . S
C1361 C1362 1.523 . S
C1362 C1343 1.368 . S
C1362 C1356 1.368 . S
C1362 C1361 1.523 . S
C1363 C1347 1.429 . S
C1363 C1359 1.429 . S
C1363 C1364 1.523 . S
C1364 C1348 1.368 . S
C1364 C1360 1.368 . S
C1364 C1363 1.523 . S
H1365 C1340 0.950 . S
H1366 C1342 0.950 . S
H1367 C1343 0.949 . S
H1368 C1345 0.950 . S
H1369 C1347 0.950 . S
C1370 C1371 1.349 . S
C1370 C1372 1.327 . S
C1370 H1395 0.950 . S
C1371 C1370 1.349 . S
C1371 C1387 1.349 . S
C1372 C1370 1.327 . S
C1372 C1391 1.429 . S
C1372 H1396 0.950 . S
C1373 C1390 1.574 . S
C1373 C1392 1.368 . S
C1373 H1397 0.949 . S
H1374 C1378 0.949 . S
C1375 C1376 1.349 . S
C1375 C1377 1.327 . S
C1375 H1398 0.950 . S
C1376 C1375 1.349 . S
C1376 C1388 1.349 . S
C1377 C1375 1.327 . S
C1377 C1393 1.433 . S
C1377 H1399 0.929 1_556 S
C1378 H1374 0.949 . S
C1378 C1386 1.574 . S
C1378 C1394 1.368 . S
H1379 C1387 0.950 . S
H1380 C1385 0.950 . S
H1381 C1386 0.949 . S
H1382 C1388 0.950 . S
H1383 C1389 0.950 . S
H1384 C1390 0.949 . S
C1385 H1380 0.950 . S
C1385 C1387 1.327 . S
C1385 C1391 1.429 . S
C1386 C1378 1.574 . S
C1386 H1381 0.949 . S
C1386 C1392 1.368 . S
C1387 C1371 1.349 . S
C1387 H1379 0.950 . S
C1387 C1385 1.327 . S
C1388 C1376 1.349 . S
C1388 H1382 0.950 . S
C1388 C1389 1.327 . S
C1389 H1383 0.950 . S
C1389 C1388 1.327 . S
C1389 C1393 1.437 . S
C1390 C1373 1.574 . S
C1390 H1384 0.949 . S
C1390 C1394 1.368 . S
C1391 C1372 1.429 . S
C1391 C1385 1.429 . S
C1391 C1392 1.523 . S
C1392 C1373 1.368 . S
C1392 C1386 1.368 . S
C1392 C1391 1.523 . S
C1393 C1377 1.433 . S
C1393 C1389 1.437 . S
C1393 C1394 1.512 1_556 S
C1394 C1378 1.368 . S
C1394 C1390 1.368 . S
C1394 C1393 1.512 1_554 S
H1395 C1370 0.950 . S
H1396 C1372 0.950 . S
H1397 C1373 0.949 . S
H1398 C1375 0.950 . S
H1399 C1377 0.929 1_554 S
C1400 C1401 1.349 . S
C1400 C1402 1.327 . S
C1400 H1425 0.950 . S
C1401 C1400 1.349 . S
C1401 C1417 1.349 . S
C1402 C1400 1.327 . S
C1402 C1421 1.429 . S
C1402 H1426 0.950 . S
C1403 C1420 1.574 . S
C1403 C1422 1.368 . S
C1403 H1427 0.949 . S
H1404 C1408 0.949 1_556 S
C1405 C1406 1.349 . S
C1405 C1407 1.327 . S
C1405 H1428 0.950 . S
C1406 C1405 1.349 . S
C1406 C1418 1.349 . S
C1407 C1405 1.327 . S
C1407 C1423 1.429 . S
C1407 H1429 0.950 . S
C1408 H1404 0.949 1_554 S
C1408 C1416 1.574 . S
C1408 C1424 1.368 . S
H1409 C1417 0.950 . S
H1410 C1415 0.950 . S
H1411 C1416 0.949 . S
H1412 C1418 0.950 . S
H1413 C1419 0.950 . S
H1414 C1420 0.949 . S
C1415 H1410 0.950 . S
C1415 C1417 1.327 . S
C1415 C1421 1.429 . S
C1416 C1408 1.574 . S
C1416 H1411 0.949 . S
C1416 C1422 1.368 . S
C1417 C1401 1.349 . S
C1417 H1409 0.950 . S
C1417 C1415 1.327 . S
C1418 C1406 1.349 . S
C1418 H1412 0.950 . S
C1418 C1419 1.327 . S
C1419 H1413 0.950 . S
C1419 C1418 1.327 . S
C1419 C1423 1.429 . S
C1420 C1403 1.574 . S
C1420 H1414 0.949 . S
C1420 C1424 1.368 . S
C1421 C1402 1.429 . S
C1421 C1415 1.429 . S
C1421 C1422 1.523 . S
C1422 C1403 1.368 . S
C1422 C1416 1.368 . S
C1422 C1421 1.523 . S
C1423 C1407 1.429 . S
C1423 C1419 1.429 . S
C1423 C1424 1.523 1_556 S
C1424 C1408 1.368 . S
C1424 C1420 1.368 . S
C1424 C1423 1.523 1_554 S
H1425 C1400 0.950 . S
H1426 C1402 0.950 . S
H1427 C1403 0.949 . S
H1428 C1405 0.950 . S
H1429 C1407 0.950 . S
C1430 C1431 1.349 . S
C1430 C1432 1.327 . S
C1430 H1455 0.950 . S
C1431 C1430 1.349 . S
C1431 C1447 1.349 . S
C1432 C1430 1.327 . S
C1432 C1451 1.429 . S
C1432 H1456 0.950 . S
C1433 C1450 1.574 . S
C1433 C1452 1.368 . S
C1433 H1457 0.949 . S
H1434 C1438 0.949 . S
C1435 C1436 1.349 . S
C1435 C1437 1.327 . S
C1435 H1458 0.950 . S
C1436 C1435 1.349 . S
C1436 C1448 1.349 . S
C1437 C1435 1.327 . S
C1437 C1453 1.429 . S
C1437 H1459 0.950 . S
C1438 H1434 0.949 . S
C1438 C1446 1.574 . S
C1438 C1454 1.368 . S
H1439 C1447 0.950 . S
H1440 C1445 0.950 . S
H1441 C1446 0.949 . S
H1442 C1448 0.950 . S
H1443 C1449 0.950 . S
H1444 C1450 0.949 . S
C1445 H1440 0.950 . S
C1445 C1447 1.327 . S
C1445 C1451 1.429 . S
C1446 C1438 1.574 . S
C1446 H1441 0.949 . S
C1446 C1452 1.368 . S
C1447 C1431 1.349 . S
C1447 H1439 0.950 . S
C1447 C1445 1.327 . S
C1448 C1436 1.349 . S
C1448 H1442 0.950 . S
C1448 C1449 1.327 . S
C1449 H1443 0.950 . S
C1449 C1448 1.327 . S
C1449 C1453 1.429 . S
C1450 C1433 1.574 . S
C1450 H1444 0.949 . S
C1450 C1454 1.368 . S
C1451 C1432 1.429 . S
C1451 C1445 1.429 . S
C1451 C1452 1.523 . S
C1452 C1433 1.368 . S
C1452 C1446 1.368 . S
C1452 C1451 1.523 . S
C1453 C1437 1.429 . S
C1453 C1449 1.429 . S
C1453 C1454 1.523 . S
C1454 C1438 1.368 . S
C1454 C1450 1.368 . S
C1454 C1453 1.523 . S
H1455 C1430 0.950 . S
H1456 C1432 0.950 . S
H1457 C1433 0.949 . S
H1458 C1435 0.950 . S
H1459 C1437 0.950 . S
C1460 C1461 1.349 . S
C1460 C1462 1.327 . S
C1460 H1485 0.950 . S
C1461 C1460 1.349 . S
C1461 C1477 1.349 . S
C1462 C1460 1.327 . S
C1462 C1481 1.429 . S
C1462 H1486 0.950 . S
C1463 C1480 1.574 . S
C1463 C1482 1.368 . S
C1463 H1487 0.949 . S
H1464 C1468 0.949 . S
C1465 C1466 1.349 . S
C1465 C1467 1.327 . S
C1465 H1488 0.950 . S
C1466 C1465 1.349 . S
C1466 C1478 1.349 . S
C1467 C1465 1.327 . S
C1467 C1483 1.429 . S
C1467 H1489 0.950 . S
C1468 H1464 0.949 . S
C1468 C1476 1.574 . S
C1468 C1484 1.368 . S
H1469 C1477 0.950 . S
H1470 C1475 0.950 . S
H1471 C1476 0.949 . S
H1472 C1478 0.950 . S
H1473 C1479 0.950 . S
H1474 C1480 0.949 . S
C1475 H1470 0.950 . S
C1475 C1477 1.327 . S
C1475 C1481 1.429 . S
C1476 C1468 1.574 . S
C1476 H1471 0.949 . S
C1476 C1482 1.368 . S
C1477 C1461 1.349 . S
C1477 H1469 0.950 . S
C1477 C1475 1.327 . S
C1478 C1466 1.349 . S
C1478 H1472 0.950 . S
C1478 C1479 1.327 . S
C1479 H1473 0.950 . S
C1479 C1478 1.327 . S
C1479 C1483 1.429 . S
C1480 C1463 1.574 . S
C1480 H1474 0.949 . S
C1480 C1484 1.368 . S
C1481 C1462 1.429 . S
C1481 C1475 1.429 . S
C1481 C1482 1.523 . S
C1482 C1463 1.368 . S
C1482 C1476 1.368 . S
C1482 C1481 1.523 . S
C1483 C1467 1.429 . S
C1483 C1479 1.429 . S
C1483 C1484 1.523 . S
C1484 C1468 1.368 . S
C1484 C1480 1.368 . S
C1484 C1483 1.523 . S
H1485 C1460 0.950 . S
H1486 C1462 0.950 . S
H1487 C1463 0.949 . S
H1488 C1465 0.950 . S
H1489 C1467 0.950 . S
C1490 C1491 1.349 . S
C1490 C1492 1.327 . S
C1490 H1515 0.950 . S
C1491 C1490 1.349 . S
C1491 C1507 1.349 . S
C1492 C1490 1.327 . S
C1492 C1511 1.429 . S
C1492 H1516 0.950 . S
C1493 C1510 1.574 . S
C1493 C1512 1.368 . S
C1493 H1517 0.949 . S
H1494 C1498 0.949 . S
C1495 C1496 1.349 . S
C1495 C1497 1.327 . S
C1495 H1518 0.950 . S
C1496 C1495 1.349 . S
C1496 C1508 1.349 . S
C1497 C1495 1.327 . S
C1497 C1513 1.429 . S
C1497 H1519 0.950 . S
C1498 H1494 0.949 . S
C1498 C1506 1.574 . S
C1498 C1514 1.368 . S
H1499 C1507 0.950 . S
H1500 C1505 0.950 . S
H1501 C1506 0.949 . S
H1502 C1508 0.950 . S
H1503 C1509 0.950 . S
H1504 C1510 0.949 . S
C1505 H1500 0.950 . S
C1505 C1507 1.327 . S
C1505 C1511 1.429 . S
C1506 C1498 1.574 . S
C1506 H1501 0.949 . S
C1506 C1512 1.368 . S
C1507 C1491 1.349 . S
C1507 H1499 0.950 . S
C1507 C1505 1.327 . S
C1508 C1496 1.349 . S
C1508 H1502 0.950 . S
C1508 C1509 1.327 . S
C1509 H1503 0.950 . S
C1509 C1508 1.327 . S
C1509 C1513 1.429 . S
C1510 C1493 1.574 . S
C1510 H1504 0.949 . S
C1510 C1514 1.368 . S
C1511 C1492 1.429 . S
C1511 C1505 1.429 . S
C1511 C1512 1.523 . S
C1512 C1493 1.368 . S
C1512 C1506 1.368 . S
C1512 C1511 1.523 . S
C1513 C1497 1.429 . S
C1513 C1509 1.429 . S
C1513 C1514 1.523 . S
C1514 C1498 1.368 . S
C1514 C1510 1.368 . S
C1514 C1513 1.523 . S
H1515 C1490 0.950 . S
H1516 C1492 0.950 . S
H1517 C1493 0.949 . S
H1518 C1495 0.950 . S
H1519 C1497 0.950 . S
C1520 C1521 1.346 1_565 S
C1520 C1522 1.327 . S
C1520 H1545 0.950 . S
C1521 C1520 1.346 1_545 S
C1521 C1537 1.350 . S
C1522 C1520 1.327 . S
C1522 C1541 1.429 . S
C1522 H1546 0.950 . S
C1523 C1540 1.574 . S
C1523 C1542 1.368 . S
C1523 H1547 0.949 . S
H1524 C1528 0.949 . S
C1525 C1526 1.349 . S
C1525 C1527 1.327 . S
C1525 H1548 0.950 . S
C1526 C1525 1.349 . S
C1526 C1538 1.349 . S
C1527 C1525 1.327 . S
C1527 C1543 1.429 . S
C1527 H1549 0.950 . S
C1528 H1524 0.949 . S
C1528 C1536 1.574 . S
C1528 C1544 1.368 . S
H1529 C1537 0.950 . S
H1530 C1535 0.941 1_545 S
H1531 C1536 0.949 . S
H1532 C1538 0.950 . S
H1533 C1539 0.950 . S
H1534 C1540 0.949 . S
C1535 H1530 0.941 1_565 S
C1535 C1537 1.327 1_565 S
C1535 C1541 1.429 . S
C1536 C1528 1.574 . S
C1536 H1531 0.949 . S
C1536 C1542 1.368 . S
C1537 C1521 1.350 . S
C1537 H1529 0.950 . S
C1537 C1535 1.327 1_545 S
C1538 C1526 1.349 . S
C1538 H1532 0.950 . S
C1538 C1539 1.327 . S
C1539 H1533 0.950 . S
C1539 C1538 1.327 . S
C1539 C1543 1.429 . S
C1540 C1523 1.574 . S
C1540 H1534 0.949 . S
C1540 C1544 1.368 . S
C1541 C1522 1.429 . S
C1541 C1535 1.429 . S
C1541 C1542 1.523 . S
C1542 C1523 1.368 . S
C1542 C1536 1.368 . S
C1542 C1541 1.523 . S
C1543 C1527 1.429 . S
C1543 C1539 1.429 . S
C1543 C1544 1.523 . S
C1544 C1528 1.368 . S
C1544 C1540 1.368 . S
C1544 C1543 1.523 . S
H1545 C1520 0.950 . S
H1546 C1522 0.950 . S
H1547 C1523 0.949 . S
H1548 C1525 0.950 . S
H1549 C1527 0.950 . S
C1550 C1551 1.349 . S
C1550 C1552 1.327 . S
C1550 H1575 0.950 . S
C1551 C1550 1.349 . S
C1551 C1567 1.349 . S
C1552 C1550 1.327 . S
C1552 C1571 1.437 . S
C1552 H1576 0.950 . S
C1553 C1570 1.574 . S
C1553 C1572 1.368 . S
C1553 H1577 0.949 . S
H1554 C1558 0.949 . S
C1555 C1556 1.349 . S
C1555 C1557 1.327 . S
C1555 H1578 0.950 . S
C1556 C1555 1.349 . S
C1556 C1568 1.349 . S
C1557 C1555 1.327 . S
C1557 C1573 1.429 . S
C1557 H1579 0.950 . S
C1558 H1554 0.949 . S
C1558 C1566 1.574 . S
C1558 C1574 1.368 . S
H1559 C1567 0.950 . S
H1560 C1565 0.950 1_554 S
H1561 C1566 0.949 . S
H1562 C1568 0.950 . S
H1563 C1569 0.950 . S
H1564 C1570 0.949 . S
C1565 H1560 0.950 1_556 S
C1565 C1567 1.327 . S
C1565 C1571 1.432 . S
C1566 C1558 1.574 . S
C1566 H1561 0.949 . S
C1566 C1572 1.368 . S
C1567 C1551 1.349 . S
C1567 H1559 0.950 . S
C1567 C1565 1.327 . S
C1568 C1556 1.349 . S
C1568 H1562 0.950 . S
C1568 C1569 1.327 . S
C1569 H1563 0.950 . S
C1569 C1568 1.327 . S
C1569 C1573 1.429 . S
C1570 C1553 1.574 . S
C1570 H1564 0.949 . S
C1570 C1574 1.368 . S
C1571 C1552 1.437 . S
C1571 C1565 1.432 . S
C1571 C1572 1.512 1_556 S
C1572 C1553 1.368 . S
C1572 C1566 1.368 . S
C1572 C1571 1.512 1_554 S
C1573 C1557 1.429 . S
C1573 C1569 1.429 . S
C1573 C1574 1.523 . S
C1574 C1558 1.368 . S
C1574 C1570 1.368 . S
C1574 C1573 1.523 . S
H1575 C1550 0.950 . S
H1576 C1552 0.950 . S
H1577 C1553 0.949 . S
H1578 C1555 0.950 . S
H1579 C1557 0.950 . S
C1580 C1581 1.349 . S
C1580 C1582 1.327 . S
C1580 H1605 0.950 . S
C1581 C1580 1.349 . S
C1581 C1597 1.349 . S
C1582 C1580 1.327 . S
C1582 C1601 1.429 . S
C1582 H1606 0.950 . S
C1583 C1600 1.574 . S
C1583 C1602 1.368 . S
C1583 H1607 0.949 . S
H1584 C1588 0.949 . S
C1585 C1586 1.346 1_545 S
C1585 C1587 1.327 . S
C1585 H1608 0.950 . S
C1586 C1585 1.346 1_565 S
C1586 C1598 1.350 . S
C1587 C1585 1.327 . S
C1587 C1603 1.429 . S
C1587 H1609 0.950 . S
C1588 H1584 0.949 . S
C1588 C1596 1.574 . S
C1588 C1604 1.368 . S
H1589 C1597 0.950 . S
H1590 C1595 0.950 . S
H1591 C1596 0.949 . S
H1592 C1598 0.950 . S
H1593 C1599 0.950 1_565 S
H1594 C1600 0.949 . S
C1595 H1590 0.950 . S
C1595 C1597 1.327 . S
C1595 C1601 1.429 . S
C1596 C1588 1.574 . S
C1596 H1591 0.949 . S
C1596 C1602 1.368 . S
C1597 C1581 1.349 . S
C1597 H1589 0.950 . S
C1597 C1595 1.327 . S
C1598 C1586 1.350 . S
C1598 H1592 0.950 . S
C1598 C1599 1.327 1_565 S
C1599 H1593 0.950 1_545 S
C1599 C1598 1.327 1_545 S
C1599 C1603 1.429 . S
C1600 C1583 1.574 . S
C1600 H1594 0.949 . S
C1600 C1604 1.368 . S
C1601 C1582 1.429 . S
C1601 C1595 1.429 . S
C1601 C1602 1.523 . S
C1602 C1583 1.368 . S
C1602 C1596 1.368 . S
C1602 C1601 1.523 . S
C1603 C1587 1.429 . S
C1603 C1599 1.429 . S
C1603 C1604 1.523 . S
C1604 C1588 1.368 . S
C1604 C1600 1.368 . S
C1604 C1603 1.523 . S
H1605 C1580 0.950 . S
H1606 C1582 0.950 . S
H1607 C1583 0.949 . S
H1608 C1585 0.950 . S
H1609 C1587 0.950 . S
C1610 C1611 1.349 . S
C1610 C1612 1.327 . S
C1610 H1635 0.950 . S
C1611 C1610 1.349 . S
C1611 C1627 1.349 . S
C1612 C1610 1.327 . S
C1612 C1631 1.429 . S
C1612 H1636 0.950 . S
C1613 C1630 1.574 . S
C1613 C1632 1.368 . S
C1613 H1637 0.949 . S
H1614 C1618 0.949 . S
C1615 C1616 1.349 . S
C1615 C1617 1.327 . S
C1615 H1638 0.950 . S
C1616 C1615 1.349 . S
C1616 C1628 1.349 . S
C1617 C1615 1.327 . S
C1617 C1633 1.429 . S
C1617 H1639 0.950 . S
C1618 H1614 0.949 . S
C1618 C1626 1.574 . S
C1618 C1634 1.368 . S
H1619 C1627 0.950 . S
H1620 C1625 0.950 . S
H1621 C1626 0.949 . S
H1622 C1628 0.950 . S
H1623 C1629 0.950 . S
H1624 C1630 0.949 . S
C1625 H1620 0.950 . S
C1625 C1627 1.327 . S
C1625 C1631 1.429 . S
C1626 C1618 1.574 . S
C1626 H1621 0.949 . S
C1626 C1632 1.368 . S
C1627 C1611 1.349 . S
C1627 H1619 0.950 . S
C1627 C1625 1.327 . S
C1628 C1616 1.349 . S
C1628 H1622 0.950 . S
C1628 C1629 1.327 . S
C1629 H1623 0.950 . S
C1629 C1628 1.327 . S
C1629 C1633 1.429 . S
C1630 C1613 1.574 . S
C1630 H1624 0.949 . S
C1630 C1634 1.368 . S
C1631 C1612 1.429 . S
C1631 C1625 1.429 . S
C1631 C1632 1.523 . S
C1632 C1613 1.368 . S
C1632 C1626 1.368 . S
C1632 C1631 1.523 . S
C1633 C1617 1.429 . S
C1633 C1629 1.429 . S
C1633 C1634 1.523 . S
C1634 C1618 1.368 . S
C1634 C1630 1.368 . S
C1634 C1633 1.523 . S
H1635 C1610 0.950 . S
H1636 C1612 0.950 . S
H1637 C1613 0.949 . S
H1638 C1615 0.950 . S
H1639 C1617 0.950 . S
C1640 C1641 1.349 . S
C1640 C1642 1.327 . S
C1640 H1665 0.950 . S
C1641 C1640 1.349 . S
C1641 C1657 1.349 . S
C1642 C1640 1.327 . S
C1642 C1661 1.429 . S
C1642 H1666 0.950 . S
C1643 C1660 1.574 . S
C1643 C1662 1.368 . S
C1643 H1667 0.949 . S
H1644 C1648 0.949 . S
C1645 C1646 1.349 . S
C1645 C1647 1.325 1_565 S
C1645 H1668 0.950 . S
C1646 C1645 1.349 . S
C1646 C1658 1.348 1_565 S
C1647 C1645 1.325 1_545 S
C1647 C1663 1.433 . S
C1647 H1669 0.948 1_545 S
C1648 H1644 0.949 . S
C1648 C1656 1.574 . S
C1648 C1664 1.368 . S
H1649 C1657 0.950 . S
H1650 C1655 0.950 . S
H1651 C1656 0.949 . S
H1652 C1658 0.950 . S
H1653 C1659 0.950 . S
H1654 C1660 0.949 . S
C1655 H1650 0.950 . S
C1655 C1657 1.327 . S
C1655 C1661 1.429 . S
C1656 C1648 1.574 . S
C1656 H1651 0.949 . S
C1656 C1662 1.368 . S
C1657 C1641 1.349 . S
C1657 H1649 0.950 . S
C1657 C1655 1.327 . S
C1658 C1646 1.348 1_545 S
C1658 H1652 0.950 . S
C1658 C1659 1.327 . S
C1659 H1653 0.950 . S
C1659 C1658 1.327 . S
C1659 C1663 1.429 . S
C1660 C1643 1.574 . S
C1660 H1654 0.949 . S
C1660 C1664 1.368 . S
C1661 C1642 1.429 . S
C1661 C1655 1.429 . S
C1661 C1662 1.523 . S
C1662 C1643 1.368 . S
C1662 C1656 1.368 . S
C1662 C1661 1.523 . S
C1663 C1647 1.433 . S
C1663 C1659 1.429 . S
C1663 C1664 1.523 . S
C1664 C1648 1.368 . S
C1664 C1660 1.368 . S
C1664 C1663 1.523 . S
H1665 C1640 0.950 . S
H1666 C1642 0.950 . S
H1667 C1643 0.949 . S
H1668 C1645 0.950 . S
H1669 C1647 0.948 1_565 S
C1670 C1671 1.349 . S
C1670 C1672 1.327 . S
C1670 H1695 0.950 . S
C1671 C1670 1.349 . S
C1671 C1687 1.349 . S
C1672 C1670 1.327 . S
C1672 C1691 1.429 . S
C1672 H1696 0.950 . S
C1673 C1690 1.574 . S
C1673 C1692 1.368 . S
C1673 H1697 0.949 . S
H1674 C1678 0.949 . S
C1675 C1676 1.349 . S
C1675 C1677 1.327 . S
C1675 H1698 0.950 . S
C1676 C1675 1.349 . S
C1676 C1688 1.349 . S
C1677 C1675 1.327 . S
C1677 C1693 1.429 . S
C1677 H1699 0.950 . S
C1678 H1674 0.949 . S
C1678 C1686 1.574 . S
C1678 C1694 1.368 . S
H1679 C1687 0.950 . S
H1680 C1685 0.950 . S
H1681 C1686 0.949 . S
H1682 C1688 0.950 . S
H1683 C1689 0.950 . S
H1684 C1690 0.949 . S
C1685 H1680 0.950 . S
C1685 C1687 1.327 . S
C1685 C1691 1.429 . S
C1686 C1678 1.574 . S
C1686 H1681 0.949 . S
C1686 C1692 1.368 . S
C1687 C1671 1.349 . S
C1687 H1679 0.950 . S
C1687 C1685 1.327 . S
C1688 C1676 1.349 . S
C1688 H1682 0.950 . S
C1688 C1689 1.327 . S
C1689 H1683 0.950 . S
C1689 C1688 1.327 . S
C1689 C1693 1.429 . S
C1690 C1673 1.574 . S
C1690 H1684 0.949 . S
C1690 C1694 1.368 . S
C1691 C1672 1.429 . S
C1691 C1685 1.429 . S
C1691 C1692 1.523 . S
C1692 C1673 1.368 . S
C1692 C1686 1.368 . S
C1692 C1691 1.523 . S
C1693 C1677 1.429 . S
C1693 C1689 1.429 . S
C1693 C1694 1.523 . S
C1694 C1678 1.368 . S
C1694 C1690 1.368 . S
C1694 C1693 1.523 . S
H1695 C1670 0.950 . S
H1696 C1672 0.950 . S
H1697 C1673 0.949 . S
H1698 C1675 0.950 . S
H1699 C1677 0.950 . S
C1700 C1701 1.349 . S
C1700 C1702 1.327 . S
C1700 H1725 0.950 . S
C1701 C1700 1.349 . S
C1701 C1717 1.349 . S
C1702 C1700 1.327 . S
C1702 C1721 1.429 . S
C1702 H1726 0.950 . S
C1703 C1720 1.591 . S
C1703 C1722 1.368 . S
C1703 H1727 0.949 . S
H1704 C1708 0.949 . S
C1705 C1706 1.349 1_565 S
C1705 C1707 1.327 . S
C1705 H1728 0.950 . S
C1706 C1705 1.349 1_545 S
C1706 C1718 1.349 . S
C1707 C1705 1.327 . S
C1707 C1723 1.429 . S
C1707 H1729 0.950 . S
C1708 H1704 0.949 . S
C1708 C1716 1.574 . S
C1708 C1724 1.368 . S
H1709 C1717 0.950 . S
H1710 C1715 0.950 . S
H1711 C1716 0.949 . S
H1712 C1718 0.950 . S
H1713 C1719 0.950 . S
H1714 C1720 0.932 1_556 S
C1715 H1710 0.950 . S
C1715 C1717 1.327 . S
C1715 C1721 1.429 . S
C1716 C1708 1.574 . S
C1716 H1711 0.949 . S
C1716 C1722 1.368 . S
C1717 C1701 1.349 . S
C1717 H1709 0.950 . S
C1717 C1715 1.327 . S
C1718 C1706 1.349 . S
C1718 H1712 0.950 . S
C1718 C1719 1.327 . S
C1719 H1713 0.950 . S
C1719 C1718 1.327 . S
C1719 C1723 1.429 1_545 S
C1720 C1703 1.591 . S
C1720 H1714 0.932 1_554 S
C1720 C1724 1.370 . S
C1721 C1702 1.429 . S
C1721 C1715 1.429 . S
C1721 C1722 1.523 . S
C1722 C1703 1.368 . S
C1722 C1716 1.368 . S
C1722 C1721 1.523 . S
C1723 C1707 1.429 . S
C1723 C1719 1.429 1_565 S
C1723 C1724 1.523 1_556 S
C1724 C1708 1.368 . S
C1724 C1720 1.370 . S
C1724 C1723 1.523 1_554 S
H1725 C1700 0.950 . S
H1726 C1702 0.950 . S
H1727 C1703 0.949 . S
H1728 C1705 0.950 . S
H1729 C1707 0.950 . S
C1730 C1731 1.349 . S
C1730 C1732 1.327 . S
C1730 H1755 0.950 . S
C1731 C1730 1.349 . S
C1731 C1747 1.349 . S
C1732 C1730 1.327 . S
C1732 C1751 1.429 . S
C1732 H1756 0.950 . S
C1733 C1750 1.574 . S
C1733 C1752 1.368 . S
C1733 H1757 0.949 . S
H1734 C1738 0.949 . S
C1735 C1736 1.349 . S
C1735 C1737 1.327 . S
C1735 H1758 0.950 . S
C1736 C1735 1.349 . S
C1736 C1748 1.349 . S
C1737 C1735 1.327 . S
C1737 C1753 1.429 . S
C1737 H1759 0.950 . S
C1738 H1734 0.949 . S
C1738 C1746 1.574 . S
C1738 C1754 1.368 . S
H1739 C1747 0.950 . S
H1740 C1745 0.950 . S
H1741 C1746 0.949 . S
H1742 C1748 0.950 . S
H1743 C1749 0.950 . S
H1744 C1750 0.949 . S
C1745 H1740 0.950 . S
C1745 C1747 1.327 . S
C1745 C1751 1.429 . S
C1746 C1738 1.574 . S
C1746 H1741 0.949 . S
C1746 C1752 1.368 . S
C1747 C1731 1.349 . S
C1747 H1739 0.950 . S
C1747 C1745 1.327 . S
C1748 C1736 1.349 . S
C1748 H1742 0.950 . S
C1748 C1749 1.327 . S
C1749 H1743 0.950 . S
C1749 C1748 1.327 . S
C1749 C1753 1.429 . S
C1750 C1733 1.574 . S
C1750 H1744 0.949 . S
C1750 C1754 1.368 . S
C1751 C1732 1.429 . S
C1751 C1745 1.429 . S
C1751 C1752 1.523 . S
C1752 C1733 1.368 . S
C1752 C1746 1.368 . S
C1752 C1751 1.523 . S
C1753 C1737 1.429 . S
C1753 C1749 1.429 . S
C1753 C1754 1.523 . S
C1754 C1738 1.368 . S
C1754 C1750 1.368 . S
C1754 C1753 1.523 . S
H1755 C1730 0.950 . S
H1756 C1732 0.950 . S
H1757 C1733 0.949 . S
H1758 C1735 0.950 . S
H1759 C1737 0.950 . S
C1760 C1761 1.349 . S
C1760 C1762 1.327 . S
C1760 H1785 0.950 . S
C1761 C1760 1.349 . S
C1761 C1777 1.349 . S
C1762 C1760 1.327 . S
C1762 C1781 1.429 . S
C1762 H1786 0.950 . S
C1763 C1780 1.574 . S
C1763 C1782 1.368 . S
C1763 H1787 0.949 . S
H1764 C1768 0.949 . S
C1765 C1766 1.349 . S
C1765 C1767 1.327 . S
C1765 H1788 0.950 . S
C1766 C1765 1.349 . S
C1766 C1778 1.349 . S
C1767 C1765 1.327 . S
C1767 C1783 1.429 . S
C1767 H1789 0.950 . S
C1768 H1764 0.949 . S
C1768 C1776 1.574 . S
C1768 C1784 1.368 . S
H1769 C1777 0.950 . S
H1770 C1775 0.950 . S
H1771 C1776 0.949 . S
H1772 C1778 0.950 . S
H1773 C1779 0.950 . S
H1774 C1780 0.949 . S
C1775 H1770 0.950 . S
C1775 C1777 1.327 . S
C1775 C1781 1.429 . S
C1776 C1768 1.574 . S
C1776 H1771 0.949 . S
C1776 C1782 1.368 . S
C1777 C1761 1.349 . S
C1777 H1769 0.950 . S
C1777 C1775 1.327 . S
C1778 C1766 1.349 . S
C1778 H1772 0.950 . S
C1778 C1779 1.327 . S
C1779 H1773 0.950 . S
C1779 C1778 1.327 . S
C1779 C1783 1.429 . S
C1780 C1763 1.574 . S
C1780 H1774 0.949 . S
C1780 C1784 1.368 . S
C1781 C1762 1.429 . S
C1781 C1775 1.429 . S
C1781 C1782 1.523 . S
C1782 C1763 1.368 . S
C1782 C1776 1.368 . S
C1782 C1781 1.523 . S
C1783 C1767 1.429 . S
C1783 C1779 1.429 . S
C1783 C1784 1.523 . S
C1784 C1768 1.368 . S
C1784 C1780 1.368 . S
C1784 C1783 1.523 . S
H1785 C1760 0.950 . S
H1786 C1762 0.950 . S
H1787 C1763 0.949 . S
H1788 C1765 0.950 . S
H1789 C1767 0.950 . S
C1790 C1791 1.349 . S
C1790 C1792 1.327 . S
C1790 H1815 0.950 . S
C1791 C1790 1.349 . S
C1791 C1807 1.349 . S
C1792 C1790 1.327 . S
C1792 C1811 1.429 . S
C1792 H1816 0.950 . S
C1793 C1810 1.574 . S
C1793 C1812 1.368 . S
C1793 H1817 0.949 . S
H1794 C1798 0.949 . S
C1795 C1796 1.349 . S
C1795 C1797 1.327 . S
C1795 H1818 0.950 . S
C1796 C1795 1.349 . S
C1796 C1808 1.349 . S
C1797 C1795 1.327 . S
C1797 C1813 1.429 . S
C1797 H1819 0.950 . S
C1798 H1794 0.949 . S
C1798 C1806 1.574 . S
C1798 C1814 1.368 . S
H1799 C1807 0.950 . S
H1800 C1805 0.950 . S
H1801 C1806 0.949 . S
H1802 C1808 0.950 . S
H1803 C1809 0.950 . S
H1804 C1810 0.949 . S
C1805 H1800 0.950 . S
C1805 C1807 1.327 . S
C1805 C1811 1.429 . S
C1806 C1798 1.574 . S
C1806 H1801 0.949 . S
C1806 C1812 1.368 . S
C1807 C1791 1.349 . S
C1807 H1799 0.950 . S
C1807 C1805 1.327 . S
C1808 C1796 1.349 . S
C1808 H1802 0.950 . S
C1808 C1809 1.327 . S
C1809 H1803 0.950 . S
C1809 C1808 1.327 . S
C1809 C1813 1.429 . S
C1810 C1793 1.574 . S
C1810 H1804 0.949 . S
C1810 C1814 1.368 . S
C1811 C1792 1.429 . S
C1811 C1805 1.429 . S
C1811 C1812 1.523 . S
C1812 C1793 1.368 . S
C1812 C1806 1.368 . S
C1812 C1811 1.523 . S
C1813 C1797 1.429 . S
C1813 C1809 1.429 . S
C1813 C1814 1.523 . S
C1814 C1798 1.368 . S
C1814 C1810 1.368 . S
C1814 C1813 1.523 . S
H1815 C1790 0.950 . S
H1816 C1792 0.950 . S
H1817 C1793 0.949 . S
H1818 C1795 0.950 . S
H1819 C1797 0.950 . S
C1820 C1821 1.349 . S
C1820 C1822 1.327 . S
C1820 H1845 0.950 . S
C1821 C1820 1.349 . S
C1821 C1837 1.349 . S
C1822 C1820 1.327 . S
C1822 C1841 1.429 . S
C1822 H1846 0.950 . S
C1823 C1840 1.574 . S
C1823 C1842 1.368 . S
C1823 H1847 0.949 . S
H1824 C1828 0.949 . S
C1825 C1826 1.349 . S
C1825 C1827 1.327 . S
C1825 H1848 0.950 . S
C1826 C1825 1.349 . S
C1826 C1838 1.349 . S
C1827 C1825 1.327 . S
C1827 C1843 1.429 . S
C1827 H1849 0.950 . S
C1828 H1824 0.949 . S
C1828 C1836 1.574 . S
C1828 C1844 1.368 . S
H1829 C1837 0.950 . S
H1830 C1835 0.950 . S
H1831 C1836 0.949 . S
H1832 C1838 0.950 . S
H1833 C1839 0.950 . S
H1834 C1840 0.949 . S
C1835 H1830 0.950 . S
C1835 C1837 1.327 . S
C1835 C1841 1.429 . S
C1836 C1828 1.574 . S
C1836 H1831 0.949 . S
C1836 C1842 1.368 . S
C1837 C1821 1.349 . S
C1837 H1829 0.950 . S
C1837 C1835 1.327 . S
C1838 C1826 1.349 . S
C1838 H1832 0.950 . S
C1838 C1839 1.327 . S
C1839 H1833 0.950 . S
C1839 C1838 1.327 . S
C1839 C1843 1.429 . S
C1840 C1823 1.574 . S
C1840 H1834 0.949 . S
C1840 C1844 1.368 . S
C1841 C1822 1.429 . S
C1841 C1835 1.429 . S
C1841 C1842 1.523 . S
C1842 C1823 1.368 . S
C1842 C1836 1.368 . S
C1842 C1841 1.523 . S
C1843 C1827 1.429 . S
C1843 C1839 1.429 . S
C1843 C1844 1.523 . S
C1844 C1828 1.368 . S
C1844 C1840 1.368 . S
C1844 C1843 1.523 . S
H1845 C1820 0.950 . S
H1846 C1822 0.950 . S
H1847 C1823 0.949 . S
H1848 C1825 0.950 . S
H1849 C1827 0.950 . S
C1850 C1851 1.349 . S
C1850 C1852 1.327 . S
C1850 H1875 0.950 . S
C1851 C1850 1.349 . S
C1851 C1867 1.349 . S
C1852 C1850 1.327 . S
C1852 C1871 1.429 . S
C1852 H1876 0.950 . S
C1853 C1870 1.574 1_556 S
C1853 C1872 1.368 . S
C1853 H1877 0.949 1_556 S
H1854 C1858 0.949 . S
C1855 C1856 1.349 . S
C1855 C1857 1.327 . S
C1855 H1878 0.950 . S
C1856 C1855 1.349 . S
C1856 C1868 1.349 . S
C1857 C1855 1.327 . S
C1857 C1873 1.429 . S
C1857 H1879 0.950 . S
C1858 H1854 0.949 . S
C1858 C1866 1.574 . S
C1858 C1874 1.368 1_556 S
H1859 C1867 0.950 . S
H1860 C1865 0.950 . S
H1861 C1866 0.949 . S
H1862 C1868 0.950 . S
H1863 C1869 0.950 1_556 S
H1864 C1870 0.949 . S
C1865 H1860 0.950 . S
C1865 C1867 1.327 . S
C1865 C1871 1.429 . S
C1866 C1858 1.574 . S
C1866 H1861 0.949 . S
C1866 C1872 1.368 . S
C1867 C1851 1.349 . S
C1867 H1859 0.950 . S
C1867 C1865 1.327 . S
C1868 C1856 1.349 . S
C1868 H1862 0.950 . S
C1868 C1869 1.327 . S
C1869 H1863 0.950 1_554 S
C1869 C1868 1.327 . S
C1869 C1873 1.429 . S
C1870 C1853 1.574 1_554 S
C1870 H1864 0.949 . S
C1870 C1874 1.368 . S
C1871 C1852 1.429 . S
C1871 C1865 1.429 . S
C1871 C1872 1.523 . S
C1872 C1853 1.368 . S
C1872 C1866 1.368 . S
C1872 C1871 1.523 . S
C1873 C1857 1.429 . S
C1873 C1869 1.429 . S
C1873 C1874 1.523 . S
C1874 C1858 1.368 1_554 S
C1874 C1870 1.368 . S
C1874 C1873 1.523 . S
H1875 C1850 0.950 . S
H1876 C1852 0.950 . S
H1877 C1853 0.949 1_554 S
H1878 C1855 0.950 . S
H1879 C1857 0.950 . S
C1880 C1881 1.349 . S
C1880 C1882 1.327 . S
C1880 H1905 0.950 . S
C1881 C1880 1.349 . S
C1881 C1897 1.349 . S
C1882 C1880 1.327 . S
C1882 C1901 1.429 . S
C1882 H1906 0.950 . S
C1883 C1900 1.574 . S
C1883 C1902 1.368 . S
C1883 H1907 0.949 . S
H1884 C1888 0.949 . S
C1885 C1886 1.349 . S
C1885 C1887 1.327 . S
C1885 H1908 0.950 . S
C1886 C1885 1.349 . S
C1886 C1898 1.349 . S
C1887 C1885 1.327 . S
C1887 C1903 1.429 . S
C1887 H1909 0.950 . S
C1888 H1884 0.949 . S
C1888 C1896 1.574 . S
C1888 C1904 1.368 . S
H1889 C1897 0.950 . S
H1890 C1895 0.950 . S
H1891 C1896 0.949 . S
H1892 C1898 0.950 . S
H1893 C1899 0.950 . S
H1894 C1900 0.949 . S
C1895 H1890 0.950 . S
C1895 C1897 1.327 . S
C1895 C1901 1.429 . S
C1896 C1888 1.574 . S
C1896 H1891 0.949 . S
C1896 C1902 1.368 . S
C1897 C1881 1.349 . S
C1897 H1889 0.950 . S
C1897 C1895 1.327 . S
C1898 C1886 1.349 . S
C1898 H1892 0.950 . S
C1898 C1899 1.327 . S
C1899 H1893 0.950 . S
C1899 C1898 1.327 . S
C1899 C1903 1.429 . S
C1900 C1883 1.574 . S
C1900 H1894 0.949 . S
C1900 C1904 1.368 . S
C1901 C1882 1.429 . S
C1901 C1895 1.429 . S
C1901 C1902 1.523 . S
C1902 C1883 1.368 . S
C1902 C1896 1.368 . S
C1902 C1901 1.523 . S
C1903 C1887 1.429 . S
C1903 C1899 1.429 . S
C1903 C1904 1.523 . S
C1904 C1888 1.368 . S
C1904 C1900 1.368 . S
C1904 C1903 1.523 . S
H1905 C1880 0.950 . S
H1906 C1882 0.950 . S
H1907 C1883 0.949 . S
H1908 C1885 0.950 . S
H1909 C1887 0.950 . S
C1910 C1911 1.349 . S
C1910 C1912 1.327 . S
C1910 H1935 0.950 . S
C1911 C1910 1.349 . S
C1911 C1927 1.349 . S
C1912 C1910 1.327 . S
C1912 C1931 1.429 . S
C1912 H1936 0.950 . S
C1913 C1930 1.574 . S
C1913 C1932 1.368 . S
C1913 H1937 0.949 . S
H1914 C1918 0.949 . S
C1915 C1916 1.349 . S
C1915 C1917 1.327 . S
C1915 H1938 0.950 . S
C1916 C1915 1.349 . S
C1916 C1928 1.349 . S
C1917 C1915 1.327 . S
C1917 C1933 1.429 . S
C1917 H1939 0.950 . S
C1918 H1914 0.949 . S
C1918 C1926 1.574 . S
C1918 C1934 1.368 . S
H1919 C1927 0.950 . S
H1920 C1925 0.950 . S
H1921 C1926 0.949 . S
H1922 C1928 0.950 . S
H1923 C1929 0.950 . S
H1924 C1930 0.949 . S
C1925 H1920 0.950 . S
C1925 C1927 1.327 . S
C1925 C1931 1.429 . S
C1926 C1918 1.574 . S
C1926 H1921 0.949 . S
C1926 C1932 1.368 . S
C1927 C1911 1.349 . S
C1927 H1919 0.950 . S
C1927 C1925 1.327 . S
C1928 C1916 1.349 . S
C1928 H1922 0.950 . S
C1928 C1929 1.327 . S
C1929 H1923 0.950 . S
C1929 C1928 1.327 . S
C1929 C1933 1.429 . S
C1930 C1913 1.574 . S
C1930 H1924 0.949 . S
C1930 C1934 1.368 . S
C1931 C1912 1.429 . S
C1931 C1925 1.429 . S
C1931 C1932 1.523 . S
C1932 C1913 1.368 . S
C1932 C1926 1.368 . S
C1932 C1931 1.523 . S
C1933 C1917 1.429 . S
C1933 C1929 1.429 . S
C1933 C1934 1.523 . S
C1934 C1918 1.368 . S
C1934 C1930 1.368 . S
C1934 C1933 1.523 . S
H1935 C1910 0.950 . S
H1936 C1912 0.950 . S
H1937 C1913 0.949 . S
H1938 C1915 0.950 . S
H1939 C1917 0.950 . S
C1940 C1941 1.349 . S
C1940 C1942 1.327 . S
C1940 H1965 0.950 . S
C1941 C1940 1.349 . S
C1941 C1957 1.349 . S
C1942 C1940 1.327 . S
C1942 C1961 1.429 . S
C1942 H1966 0.950 . S
C1943 C1960 1.574 . S
C1943 C1962 1.368 1_556 S
C1943 H1967 0.949 . S
H1944 C1948 0.949 1_554 S
C1945 C1946 1.349 . S
C1945 C1947 1.327 . S
C1945 H1968 0.950 . S
C1946 C1945 1.349 . S
C1946 C1958 1.349 . S
C1947 C1945 1.327 . S
C1947 C1963 1.429 . S
C1947 H1969 0.950 . S
C1948 H1944 0.949 1_556 S
C1948 C1956 1.574 1_556 S
C1948 C1964 1.368 . S
H1949 C1957 0.950 . S
H1950 C1955 0.950 1_556 S
H1951 C1956 0.949 . S
H1952 C1958 0.950 . S
H1953 C1959 0.950 . S
H1954 C1960 0.949 . S
C1955 H1950 0.950 1_554 S
C1955 C1957 1.327 . S
C1955 C1961 1.429 . S
C1956 C1948 1.574 1_554 S
C1956 H1951 0.949 . S
C1956 C1962 1.368 . S
C1957 C1941 1.349 . S
C1957 H1949 0.950 . S
C1957 C1955 1.327 . S
C1958 C1946 1.349 . S
C1958 H1952 0.950 . S
C1958 C1959 1.327 . S
C1959 H1953 0.950 . S
C1959 C1958 1.327 . S
C1959 C1963 1.429 . S
C1960 C1943 1.574 . S
C1960 H1954 0.949 . S
C1960 C1964 1.368 . S
C1961 C1942 1.429 . S
C1961 C1955 1.429 . S
C1961 C1962 1.523 . S
C1962 C1943 1.368 1_554 S
C1962 C1956 1.368 . S
C1962 C1961 1.523 . S
C1963 C1947 1.429 . S
C1963 C1959 1.429 . S
C1963 C1964 1.523 . S
C1964 C1948 1.368 . S
C1964 C1960 1.368 . S
C1964 C1963 1.523 . S
H1965 C1940 0.950 . S
H1966 C1942 0.950 . S
H1967 C1943 0.949 . S
H1968 C1945 0.950 . S
H1969 C1947 0.950 . S
C1970 C1971 1.349 . S
C1970 C1972 1.327 . S
C1970 H1995 0.950 . S
C1971 C1970 1.349 . S
C1971 C1987 1.349 . S
C1972 C1970 1.327 . S
C1972 C1991 1.429 . S
C1972 H1996 0.950 . S
C1973 C1990 1.574 . S
C1973 C1992 1.368 . S
C1973 H1997 0.949 . S
H1974 C1978 0.949 . S
C1975 C1976 1.349 . S
C1975 C1977 1.327 . S
C1975 H1998 0.950 . S
C1976 C1975 1.349 . S
C1976 C1988 1.349 . S
C1977 C1975 1.327 . S
C1977 C1993 1.429 . S
C1977 H1999 0.950 . S
C1978 H1974 0.949 . S
C1978 C1986 1.574 . S
C1978 C1994 1.368 . S
H1979 C1987 0.950 . S
H1980 C1985 0.950 . S
H1981 C1986 0.949 . S
H1982 C1988 0.950 . S
H1983 C1989 0.950 . S
H1984 C1990 0.949 . S
C1985 H1980 0.950 . S
C1985 C1987 1.327 . S
C1985 C1991 1.429 . S
C1986 C1978 1.574 . S
C1986 H1981 0.949 . S
C1986 C1992 1.368 . S
C1987 C1971 1.349 . S
C1987 H1979 0.950 . S
C1987 C1985 1.327 . S
C1988 C1976 1.349 . S
C1988 H1982 0.950 . S
C1988 C1989 1.327 . S
C1989 H1983 0.950 . S
C1989 C1988 1.327 . S
C1989 C1993 1.429 . S
C1990 C1973 1.574 . S
C1990 H1984 0.949 . S
C1990 C1994 1.368 . S
C1991 C1972 1.429 . S
C1991 C1985 1.429 . S
C1991 C1992 1.523 . S
C1992 C1973 1.368 . S
C1992 C1986 1.368 . S
C1992 C1991 1.523 . S
C1993 C1977 1.429 . S
C1993 C1989 1.429 . S
C1993 C1994 1.523 . S
C1994 C1978 1.368 . S
C1994 C1990 1.368 . S
C1994 C1993 1.523 . S
H1995 C1970 0.950 . S
H1996 C1972 0.950 . S
H1997 C1973 0.949 . S
H1998 C1975 0.950 . S
H1999 C1977 0.950 . S
C2000 C2001 1.349 . S
C2000 C2002 1.327 . S
C2000 H2025 0.950 . S
C2001 C2000 1.349 . S
C2001 C2017 1.349 . S
C2002 C2000 1.327 . S
C2002 C2021 1.429 . S
C2002 H2026 0.950 . S
C2003 C2020 1.574 . S
C2003 C2022 1.368 . S
C2003 H2027 0.949 . S
H2004 C2008 0.949 . S
C2005 C2006 1.349 . S
C2005 C2007 1.327 . S
C2005 H2028 0.950 . S
C2006 C2005 1.349 . S
C2006 C2018 1.349 . S
C2007 C2005 1.327 . S
C2007 C2023 1.429 . S
C2007 H2029 0.950 . S
C2008 H2004 0.949 . S
C2008 C2016 1.574 . S
C2008 C2024 1.368 . S
H2009 C2017 0.950 . S
H2010 C2015 0.950 . S
H2011 C2016 0.949 . S
H2012 C2018 0.950 . S
H2013 C2019 0.950 . S
H2014 C2020 0.949 . S
C2015 H2010 0.950 . S
C2015 C2017 1.327 . S
C2015 C2021 1.429 . S
C2016 C2008 1.574 . S
C2016 H2011 0.949 . S
C2016 C2022 1.368 . S
C2017 C2001 1.349 . S
C2017 H2009 0.950 . S
C2017 C2015 1.327 . S
C2018 C2006 1.349 . S
C2018 H2012 0.950 . S
C2018 C2019 1.327 . S
C2019 H2013 0.950 . S
C2019 C2018 1.327 . S
C2019 C2023 1.429 . S
C2020 C2003 1.574 . S
C2020 H2014 0.949 . S
C2020 C2024 1.368 . S
C2021 C2002 1.429 . S
C2021 C2015 1.429 . S
C2021 C2022 1.523 . S
C2022 C2003 1.368 . S
C2022 C2016 1.368 . S
C2022 C2021 1.523 . S
C2023 C2007 1.429 . S
C2023 C2019 1.429 . S
C2023 C2024 1.523 . S
C2024 C2008 1.368 . S
C2024 C2020 1.368 . S
C2024 C2023 1.523 . S
H2025 C2000 0.950 . S
H2026 C2002 0.950 . S
H2027 C2003 0.949 . S
H2028 C2005 0.950 . S
H2029 C2007 0.950 . S
C2030 C2031 1.349 . S
C2030 C2032 1.327 . S
C2030 H2055 0.950 . S
C2031 C2030 1.349 . S
C2031 C2047 1.349 . S
C2032 C2030 1.327 . S
C2032 C2051 1.429 . S
C2032 H2056 0.950 . S
C2033 C2050 1.574 . S
C2033 C2052 1.368 . S
C2033 H2057 0.949 . S
H2034 C2038 0.949 . S
C2035 C2036 1.349 . S
C2035 C2037 1.327 . S
C2035 H2058 0.950 . S
C2036 C2035 1.349 . S
C2036 C2048 1.349 . S
C2037 C2035 1.327 . S
C2037 C2053 1.429 . S
C2037 H2059 0.950 . S
C2038 H2034 0.949 . S
C2038 C2046 1.574 . S
C2038 C2054 1.368 . S
H2039 C2047 0.950 . S
H2040 C2045 0.950 . S
H2041 C2046 0.949 . S
H2042 C2048 0.950 . S
H2043 C2049 0.950 . S
H2044 C2050 0.949 . S
C2045 H2040 0.950 . S
C2045 C2047 1.327 . S
C2045 C2051 1.429 . S
C2046 C2038 1.574 . S
C2046 H2041 0.949 . S
C2046 C2052 1.368 . S
C2047 C2031 1.349 . S
C2047 H2039 0.950 . S
C2047 C2045 1.327 . S
C2048 C2036 1.349 . S
C2048 H2042 0.950 . S
C2048 C2049 1.327 . S
C2049 H2043 0.950 . S
C2049 C2048 1.327 . S
C2049 C2053 1.429 . S
C2050 C2033 1.574 . S
C2050 H2044 0.949 . S
C2050 C2054 1.368 . S
C2051 C2032 1.429 . S
C2051 C2045 1.429 . S
C2051 C2052 1.523 . S
C2052 C2033 1.368 . S
C2052 C2046 1.368 . S
C2052 C2051 1.523 . S
C2053 C2037 1.429 . S
C2053 C2049 1.429 . S
C2053 C2054 1.523 . S
C2054 C2038 1.368 . S
C2054 C2050 1.368 . S
C2054 C2053 1.523 . S
H2055 C2030 0.950 . S
H2056 C2032 0.950 . S
H2057 C2033 0.949 . S
H2058 C2035 0.950 . S
H2059 C2037 0.950 . S
C2060 C2061 1.349 . S
C2060 C2062 1.327 . S
C2060 H2085 0.950 . S
C2061 C2060 1.349 . S
C2061 C2077 1.349 . S
C2062 C2060 1.327 . S
C2062 C2081 1.429 . S
C2062 H2086 0.950 . S
C2063 C2080 1.574 . S
C2063 C2082 1.368 . S
C2063 H2087 0.949 . S
H2064 C2068 0.949 . S
C2065 C2066 1.349 . S
C2065 C2067 1.327 . S
C2065 H2088 0.950 . S
C2066 C2065 1.349 . S
C2066 C2078 1.349 . S
C2067 C2065 1.327 . S
C2067 C2083 1.429 . S
C2067 H2089 0.950 . S
C2068 H2064 0.949 . S
C2068 C2076 1.574 . S
C2068 C2084 1.368 . S
H2069 C2077 0.950 . S
H2070 C2075 0.950 . S
H2071 C2076 0.949 . S
H2072 C2078 0.950 . S
H2073 C2079 0.950 . S
H2074 C2080 0.949 . S
C2075 H2070 0.950 . S
C2075 C2077 1.327 . S
C2075 C2081 1.429 . S
C2076 C2068 1.574 . S
C2076 H2071 0.949 . S
C2076 C2082 1.368 . S
C2077 C2061 1.349 . S
C2077 H2069 0.950 . S
C2077 C2075 1.327 . S
C2078 C2066 1.349 . S
C2078 H2072 0.950 . S
C2078 C2079 1.327 . S
C2079 H2073 0.950 . S
C2079 C2078 1.327 . S
C2079 C2083 1.429 . S
C2080 C2063 1.574 . S
C2080 H2074 0.949 . S
C2080 C2084 1.368 . S
C2081 C2062 1.429 . S
C2081 C2075 1.429 . S
C2081 C2082 1.523 . S
C2082 C2063 1.368 . S
C2082 C2076 1.368 . S
C2082 C2081 1.523 . S
C2083 C2067 1.429 . S
C2083 C2079 1.429 . S
C2083 C2084 1.523 . S
C2084 C2068 1.368 . S
C2084 C2080 1.368 . S
C2084 C2083 1.523 . S
H2085 C2060 0.950 . S
H2086 C2062 0.950 . S
H2087 C2063 0.949 . S
H2088 C2065 0.950 . S
H2089 C2067 0.950 . S
C2090 C2091 1.349 . S
C2090 C2092 1.327 . S
C2090 H2115 0.950 . S
C2091 C2090 1.349 . S
C2091 C2107 1.349 . S
C2092 C2090 1.327 . S
C2092 C2111 1.429 . S
C2092 H2116 0.950 . S
C2093 C2110 1.574 . S
C2093 C2112 1.368 . S
C2093 H2117 0.949 . S
H2094 C2098 0.949 . S
C2095 C2096 1.349 . S
C2095 C2097 1.327 . S
C2095 H2118 0.950 . S
C2096 C2095 1.349 . S
C2096 C2108 1.349 . S
C2097 C2095 1.327 . S
C2097 C2113 1.429 . S
C2097 H2119 0.950 . S
C2098 H2094 0.949 . S
C2098 C2106 1.574 . S
C2098 C2114 1.368 . S
H2099 C2107 0.950 . S
H2100 C2105 0.950 . S
H2101 C2106 0.949 . S
H2102 C2108 0.950 . S
H2103 C2109 0.950 . S
H2104 C2110 0.949 . S
C2105 H2100 0.950 . S
C2105 C2107 1.327 . S
C2105 C2111 1.429 . S
C2106 C2098 1.574 . S
C2106 H2101 0.949 . S
C2106 C2112 1.368 . S
C2107 C2091 1.349 . S
C2107 H2099 0.950 . S
C2107 C2105 1.327 . S
C2108 C2096 1.349 . S
C2108 H2102 0.950 . S
C2108 C2109 1.327 . S
C2109 H2103 0.950 . S
C2109 C2108 1.327 . S
C2109 C2113 1.429 . S
C2110 C2093 1.574 . S
C2110 H2104 0.949 . S
C2110 C2114 1.368 . S
C2111 C2092 1.429 . S
C2111 C2105 1.429 . S
C2111 C2112 1.523 . S
C2112 C2093 1.368 . S
C2112 C2106 1.368 . S
C2112 C2111 1.523 . S
C2113 C2097 1.429 . S
C2113 C2109 1.429 . S
C2113 C2114 1.523 . S
C2114 C2098 1.368 . S
C2114 C2110 1.368 . S
C2114 C2113 1.523 . S
H2115 C2090 0.950 . S
H2116 C2092 0.950 . S
H2117 C2093 0.949 . S
H2118 C2095 0.950 . S
H2119 C2097 0.950 . S
C2120 C2121 1.349 . S
C2120 C2122 1.327 . S
C2120 H2145 0.950 . S
C2121 C2120 1.349 . S
C2121 C2137 1.349 . S
C2122 C2120 1.327 . S
C2122 C2141 1.429 . S
C2122 H2146 0.950 . S
C2123 C2140 1.574 . S
C2123 C2142 1.368 . S
C2123 H2147 0.949 . S
H2124 C2128 0.949 . S
C2125 C2126 1.349 . S
C2125 C2127 1.327 . S
C2125 H2148 0.950 . S
C2126 C2125 1.349 . S
C2126 C2138 1.349 . S
C2127 C2125 1.327 . S
C2127 C2143 1.429 . S
C2127 H2149 0.950 . S
C2128 H2124 0.949 . S
C2128 C2136 1.574 . S
C2128 C2144 1.368 . S
H2129 C2137 0.950 . S
H2130 C2135 0.950 . S
H2131 C2136 0.949 . S
H2132 C2138 0.950 . S
H2133 C2139 0.950 . S
H2134 C2140 0.949 . S
C2135 H2130 0.950 . S
C2135 C2137 1.327 . S
C2135 C2141 1.429 . S
C2136 C2128 1.574 . S
C2136 H2131 0.949 . S
C2136 C2142 1.368 . S
C2137 C2121 1.349 . S
C2137 H2129 0.950 . S
C2137 C2135 1.327 . S
C2138 C2126 1.349 . S
C2138 H2132 0.950 . S
C2138 C2139 1.327 . S
C2139 H2133 0.950 . S
C2139 C2138 1.327 . S
C2139 C2143 1.429 . S
C2140 C2123 1.574 . S
C2140 H2134 0.949 . S
C2140 C2144 1.368 . S
C2141 C2122 1.429 . S
C2141 C2135 1.429 . S
C2141 C2142 1.523 . S
C2142 C2123 1.368 . S
C2142 C2136 1.368 . S
C2142 C2141 1.523 . S
C2143 C2127 1.429 . S
C2143 C2139 1.429 . S
C2143 C2144 1.523 . S
C2144 C2128 1.368 . S
C2144 C2140 1.368 . S
C2144 C2143 1.523 . S
H2145 C2120 0.950 . S
H2146 C2122 0.950 . S
H2147 C2123 0.949 . S
H2148 C2125 0.950 . S
H2149 C2127 0.950 . S
C2150 C2151 1.349 . S
C2150 C2152 1.327 . S
C2150 H2175 0.950 . S
C2151 C2150 1.349 . S
C2151 C2167 1.349 . S
C2152 C2150 1.327 . S
C2152 C2171 1.429 . S
C2152 H2176 0.950 . S
C2153 C2170 1.574 . S
C2153 C2172 1.368 . S
C2153 H2177 0.949 . S
H2154 C2158 0.949 . S
C2155 C2156 1.349 . S
C2155 C2157 1.327 . S
C2155 H2178 0.950 . S
C2156 C2155 1.349 . S
C2156 C2168 1.349 . S
C2157 C2155 1.327 . S
C2157 C2173 1.429 . S
C2157 H2179 0.950 . S
C2158 H2154 0.949 . S
C2158 C2166 1.574 . S
C2158 C2174 1.368 . S
H2159 C2167 0.950 . S
H2160 C2165 0.950 . S
H2161 C2166 0.949 . S
H2162 C2168 0.950 . S
H2163 C2169 0.950 . S
H2164 C2170 0.949 . S
C2165 H2160 0.950 . S
C2165 C2167 1.327 . S
C2165 C2171 1.429 . S
C2166 C2158 1.574 . S
C2166 H2161 0.949 . S
C2166 C2172 1.368 . S
C2167 C2151 1.349 . S
C2167 H2159 0.950 . S
C2167 C2165 1.327 . S
C2168 C2156 1.349 . S
C2168 H2162 0.950 . S
C2168 C2169 1.327 . S
C2169 H2163 0.950 . S
C2169 C2168 1.327 . S
C2169 C2173 1.429 . S
C2170 C2153 1.574 . S
C2170 H2164 0.949 . S
C2170 C2174 1.368 . S
C2171 C2152 1.429 . S
C2171 C2165 1.429 . S
C2171 C2172 1.523 . S
C2172 C2153 1.368 . S
C2172 C2166 1.368 . S
C2172 C2171 1.523 . S
C2173 C2157 1.429 . S
C2173 C2169 1.429 . S
C2173 C2174 1.523 . S
C2174 C2158 1.368 . S
C2174 C2170 1.368 . S
C2174 C2173 1.523 . S
H2175 C2150 0.950 . S
H2176 C2152 0.950 . S
H2177 C2153 0.949 . S
H2178 C2155 0.950 . S
H2179 C2157 0.950 . S
C2180 C2181 1.349 . S
C2180 C2182 1.327 . S
C2180 H2205 0.950 . S
C2181 C2180 1.349 . S
C2181 C2197 1.349 . S
C2182 C2180 1.327 . S
C2182 C2201 1.429 . S
C2182 H2206 0.950 . S
C2183 C2200 1.574 . S
C2183 C2202 1.368 . S
C2183 H2207 0.949 . S
H2184 C2188 0.949 . S
C2185 C2186 1.349 . S
C2185 C2187 1.327 . S
C2185 H2208 0.950 . S
C2186 C2185 1.349 . S
C2186 C2198 1.349 . S
C2187 C2185 1.327 . S
C2187 C2203 1.429 . S
C2187 H2209 0.950 . S
C2188 H2184 0.949 . S
C2188 C2196 1.574 . S
C2188 C2204 1.368 . S
H2189 C2197 0.950 . S
H2190 C2195 0.950 . S
H2191 C2196 0.949 . S
H2192 C2198 0.950 . S
H2193 C2199 0.950 . S
H2194 C2200 0.949 . S
C2195 H2190 0.950 . S
C2195 C2197 1.327 . S
C2195 C2201 1.429 . S
C2196 C2188 1.574 . S
C2196 H2191 0.949 . S
C2196 C2202 1.368 . S
C2197 C2181 1.349 . S
C2197 H2189 0.950 . S
C2197 C2195 1.327 . S
C2198 C2186 1.349 . S
C2198 H2192 0.950 . S
C2198 C2199 1.327 . S
C2199 H2193 0.950 . S
C2199 C2198 1.327 . S
C2199 C2203 1.429 . S
C2200 C2183 1.574 . S
C2200 H2194 0.949 . S
C2200 C2204 1.368 . S
C2201 C2182 1.429 . S
C2201 C2195 1.429 . S
C2201 C2202 1.523 . S
C2202 C2183 1.368 . S
C2202 C2196 1.368 . S
C2202 C2201 1.523 . S
C2203 C2187 1.429 . S
C2203 C2199 1.429 . S
C2203 C2204 1.523 . S
C2204 C2188 1.368 . S
C2204 C2200 1.368 . S
C2204 C2203 1.523 . S
H2205 C2180 0.950 . S
H2206 C2182 0.950 . S
H2207 C2183 0.949 . S
H2208 C2185 0.950 . S
H2209 C2187 0.950 . S
C2210 C2211 1.349 . S
C2210 C2212 1.327 . S
C2210 H2235 0.950 . S
C2211 C2210 1.349 . S
C2211 C2227 1.349 . S
C2212 C2210 1.327 . S
C2212 C2231 1.429 . S
C2212 H2236 0.950 . S
C2213 C2230 1.574 . S
C2213 C2232 1.368 . S
C2213 H2237 0.949 . S
H2214 C2218 0.949 . S
C2215 C2216 1.349 . S
C2215 C2217 1.327 . S
C2215 H2238 0.950 . S
C2216 C2215 1.349 . S
C2216 C2228 1.349 . S
C2217 C2215 1.327 . S
C2217 C2233 1.429 . S
C2217 H2239 0.950 . S
C2218 H2214 0.949 . S
C2218 C2226 1.574 . S
C2218 C2234 1.368 . S
H2219 C2227 0.950 1_556 S
H2220 C2225 0.950 . S
H2221 C2226 0.949 . S
H2222 C2228 0.950 . S
H2223 C2229 0.950 . S
H2224 C2230 0.949 . S
C2225 H2220 0.950 . S
C2225 C2227 1.327 . S
C2225 C2231 1.429 . S
C2226 C2218 1.574 . S
C2226 H2221 0.949 . S
C2226 C2232 1.368 . S
C2227 C2211 1.349 . S
C2227 H2219 0.950 1_554 S
C2227 C2225 1.327 . S
C2228 C2216 1.349 . S
C2228 H2222 0.950 . S
C2228 C2229 1.327 . S
C2229 H2223 0.950 . S
C2229 C2228 1.327 . S
C2229 C2233 1.429 . S
C2230 C2213 1.574 . S
C2230 H2224 0.949 . S
C2230 C2234 1.368 . S
C2231 C2212 1.429 . S
C2231 C2225 1.429 . S
C2231 C2232 1.523 . S
C2232 C2213 1.368 . S
C2232 C2226 1.368 . S
C2232 C2231 1.523 . S
C2233 C2217 1.429 . S
C2233 C2229 1.429 . S
C2233 C2234 1.523 . S
C2234 C2218 1.368 . S
C2234 C2230 1.368 . S
C2234 C2233 1.523 . S
H2235 C2210 0.950 . S
H2236 C2212 0.950 . S
H2237 C2213 0.949 . S
H2238 C2215 0.950 . S
H2239 C2217 0.950 . S
C2240 C2241 1.349 . S
C2240 C2242 1.327 . S
C2240 H2265 0.950 . S
C2241 C2240 1.349 . S
C2241 C2257 1.349 . S
C2242 C2240 1.327 . S
C2242 C2261 1.429 . S
C2242 H2266 0.950 . S
C2243 C2260 1.601 . S
C2243 C2262 1.341 1_455 S
C2243 H2267 0.952 . S
H2244 C2248 0.949 . S
C2245 C2246 1.349 . S
C2245 C2247 1.327 . S
C2245 H2268 0.950 . S
C2246 C2245 1.349 . S
C2246 C2258 1.349 . S
C2247 C2245 1.327 . S
C2247 C2263 1.429 . S
C2247 H2269 0.950 . S
C2248 H2244 0.949 . S
C2248 C2256 1.594 . S
C2248 C2264 1.348 1_655 S
H2249 C2257 0.950 . S
H2250 C2255 0.950 . S
H2251 C2256 0.949 . S
H2252 C2258 0.950 . S
H2253 C2259 0.950 . S
H2254 C2260 0.949 . S
C2255 H2250 0.950 . S
C2255 C2257 1.327 . S
C2255 C2261 1.429 . S
C2256 C2248 1.594 . S
C2256 H2251 0.949 . S
C2256 C2262 1.368 . S
C2257 C2241 1.349 . S
C2257 H2249 0.950 . S
C2257 C2255 1.327 . S
C2258 C2246 1.349 . S
C2258 H2252 0.950 . S
C2258 C2259 1.327 . S
C2259 H2253 0.950 . S
C2259 C2258 1.327 . S
C2259 C2263 1.429 . S
C2260 C2243 1.601 . S
C2260 H2254 0.949 . S
C2260 C2264 1.368 . S
C2261 C2242 1.429 . S
C2261 C2255 1.429 . S
C2261 C2262 1.523 . S
C2262 C2243 1.341 1_655 S
C2262 C2256 1.368 . S
C2262 C2261 1.523 . S
C2263 C2247 1.429 . S
C2263 C2259 1.429 . S
C2263 C2264 1.523 . S
C2264 C2248 1.348 1_455 S
C2264 C2260 1.368 . S
C2264 C2263 1.523 . S
H2265 C2240 0.950 . S
H2266 C2242 0.950 . S
H2267 C2243 0.952 . S
H2268 C2245 0.950 . S
H2269 C2247 0.950 . S
C2270 C2271 1.349 . S
C2270 C2272 1.327 . S
C2270 H2295 0.950 . S
C2271 C2270 1.349 . S
C2271 C2287 1.349 . S
C2272 C2270 1.327 . S
C2272 C2291 1.429 . S
C2272 H2296 0.950 . S
C2273 C2290 1.574 . S
C2273 C2292 1.368 . S
C2273 H2297 0.949 . S
H2274 C2278 0.949 . S
C2275 C2276 1.349 . S
C2275 C2277 1.327 . S
C2275 H2298 0.950 . S
C2276 C2275 1.349 . S
C2276 C2288 1.349 . S
C2277 C2275 1.327 . S
C2277 C2293 1.429 . S
C2277 H2299 0.950 . S
C2278 H2274 0.949 . S
C2278 C2286 1.574 . S
C2278 C2294 1.368 . S
H2279 C2287 0.950 . S
H2280 C2285 0.950 . S
H2281 C2286 0.949 . S
H2282 C2288 0.950 . S
H2283 C2289 0.950 . S
H2284 C2290 0.949 . S
C2285 H2280 0.950 . S
C2285 C2287 1.327 . S
C2285 C2291 1.429 . S
C2286 C2278 1.574 . S
C2286 H2281 0.949 . S
C2286 C2292 1.368 . S
C2287 C2271 1.349 . S
C2287 H2279 0.950 . S
C2287 C2285 1.327 . S
C2288 C2276 1.349 . S
C2288 H2282 0.950 . S
C2288 C2289 1.327 . S
C2289 H2283 0.950 . S
C2289 C2288 1.327 . S
C2289 C2293 1.429 . S
C2290 C2273 1.574 . S
C2290 H2284 0.949 . S
C2290 C2294 1.368 . S
C2291 C2272 1.429 . S
C2291 C2285 1.429 . S
C2291 C2292 1.523 . S
C2292 C2273 1.368 . S
C2292 C2286 1.368 . S
C2292 C2291 1.523 . S
C2293 C2277 1.429 . S
C2293 C2289 1.429 . S
C2293 C2294 1.523 . S
C2294 C2278 1.368 . S
C2294 C2290 1.368 . S
C2294 C2293 1.523 . S
H2295 C2270 0.950 . S
H2296 C2272 0.950 . S
H2297 C2273 0.949 . S
H2298 C2275 0.950 . S
H2299 C2277 0.950 . S
C2300 C2301 1.349 . S
C2300 C2302 1.327 . S
C2300 H2325 0.950 . S
C2301 C2300 1.349 . S
C2301 C2317 1.349 . S
C2302 C2300 1.327 . S
C2302 C2321 1.429 . S
C2302 H2326 0.950 . S
C2303 C2320 1.574 . S
C2303 C2322 1.368 . S
C2303 H2327 0.949 . S
H2304 C2308 0.949 . S
C2305 C2306 1.349 . S
C2305 C2307 1.327 . S
C2305 H2328 0.950 . S
C2306 C2305 1.349 . S
C2306 C2318 1.349 . S
C2307 C2305 1.327 . S
C2307 C2323 1.429 . S
C2307 H2329 0.950 . S
C2308 H2304 0.949 . S
C2308 C2316 1.574 . S
C2308 C2324 1.368 . S
H2309 C2317 0.950 . S
H2310 C2315 0.950 . S
H2311 C2316 0.949 . S
H2312 C2318 0.950 . S
H2313 C2319 0.950 . S
H2314 C2320 0.949 . S
C2315 H2310 0.950 . S
C2315 C2317 1.327 . S
C2315 C2321 1.429 . S
C2316 C2308 1.574 . S
C2316 H2311 0.949 . S
C2316 C2322 1.368 . S
C2317 C2301 1.349 . S
C2317 H2309 0.950 . S
C2317 C2315 1.327 . S
C2318 C2306 1.349 . S
C2318 H2312 0.950 . S
C2318 C2319 1.327 . S
C2319 H2313 0.950 . S
C2319 C2318 1.327 . S
C2319 C2323 1.429 . S
C2320 C2303 1.574 . S
C2320 H2314 0.949 . S
C2320 C2324 1.368 . S
C2321 C2302 1.429 . S
C2321 C2315 1.429 . S
C2321 C2322 1.523 . S
C2322 C2303 1.368 . S
C2322 C2316 1.368 . S
C2322 C2321 1.523 . S
C2323 C2307 1.429 . S
C2323 C2319 1.429 . S
C2323 C2324 1.523 . S
C2324 C2308 1.368 . S
C2324 C2320 1.368 . S
C2324 C2323 1.523 . S
H2325 C2300 0.950 . S
H2326 C2302 0.950 . S
H2327 C2303 0.949 . S
H2328 C2305 0.950 . S
H2329 C2307 0.950 . S
C2330 C2331 1.349 . S
C2330 C2332 1.327 . S
C2330 H2355 0.950 . S
C2331 C2330 1.349 . S
C2331 C2347 1.349 . S
C2332 C2330 1.327 . S
C2332 C2351 1.429 . S
C2332 H2356 0.950 . S
C2333 C2350 1.574 . S
C2333 C2352 1.368 . S
C2333 H2357 0.949 . S
H2334 C2338 0.949 . S
C2335 C2336 1.349 . S
C2335 C2337 1.327 . S
C2335 H2358 0.950 1_556 S
C2336 C2335 1.349 . S
C2336 C2348 1.349 . S
C2337 C2335 1.327 . S
C2337 C2353 1.429 . S
C2337 H2359 0.950 . S
C2338 H2334 0.949 . S
C2338 C2346 1.574 . S
C2338 C2354 1.368 . S
H2339 C2347 0.950 . S
H2340 C2345 0.950 . S
H2341 C2346 0.949 . S
H2342 C2348 0.950 . S
H2343 C2349 0.950 . S
H2344 C2350 0.949 . S
C2345 H2340 0.950 . S
C2345 C2347 1.327 . S
C2345 C2351 1.429 . S
C2346 C2338 1.574 . S
C2346 H2341 0.949 . S
C2346 C2352 1.368 . S
C2347 C2331 1.349 . S
C2347 H2339 0.950 . S
C2347 C2345 1.327 . S
C2348 C2336 1.349 . S
C2348 H2342 0.950 . S
C2348 C2349 1.327 . S
C2349 H2343 0.950 . S
C2349 C2348 1.327 . S
C2349 C2353 1.429 . S
C2350 C2333 1.574 . S
C2350 H2344 0.949 . S
C2350 C2354 1.368 . S
C2351 C2332 1.429 . S
C2351 C2345 1.429 . S
C2351 C2352 1.523 . S
C2352 C2333 1.368 . S
C2352 C2346 1.368 . S
C2352 C2351 1.523 . S
C2353 C2337 1.429 . S
C2353 C2349 1.429 . S
C2353 C2354 1.523 . S
C2354 C2338 1.368 . S
C2354 C2350 1.368 . S
C2354 C2353 1.523 . S
H2355 C2330 0.950 . S
H2356 C2332 0.950 . S
H2357 C2333 0.949 . S
H2358 C2335 0.950 1_554 S
H2359 C2337 0.950 . S
C2360 C2361 1.349 . S
C2360 C2362 1.327 . S
C2360 H2385 0.950 . S
C2361 C2360 1.349 . S
C2361 C2377 1.349 . S
C2362 C2360 1.327 . S
C2362 C2381 1.429 . S
C2362 H2386 0.950 . S
C2363 C2380 1.574 1_655 S
C2363 C2382 1.368 . S
C2363 H2387 0.949 . S
H2364 C2368 0.949 . S
C2365 C2366 1.349 . S
C2365 C2367 1.327 . S
C2365 H2388 0.950 . S
C2366 C2365 1.349 . S
C2366 C2378 1.349 . S
C2367 C2365 1.327 . S
C2367 C2383 1.429 . S
C2367 H2389 0.950 . S
C2368 H2364 0.949 . S
C2368 C2376 1.574 1_455 S
C2368 C2384 1.368 . S
H2369 C2377 0.950 . S
H2370 C2375 0.950 . S
H2371 C2376 0.949 . S
H2372 C2378 0.950 . S
H2373 C2379 0.950 . S
H2374 C2380 0.949 . S
C2375 H2370 0.950 . S
C2375 C2377 1.327 . S
C2375 C2381 1.429 . S
C2376 C2368 1.574 1_655 S
C2376 H2371 0.949 . S
C2376 C2382 1.368 . S
C2377 C2361 1.349 . S
C2377 H2369 0.950 . S
C2377 C2375 1.327 . S
C2378 C2366 1.349 . S
C2378 H2372 0.950 . S
C2378 C2379 1.327 . S
C2379 H2373 0.950 . S
C2379 C2378 1.327 . S
C2379 C2383 1.429 . S
C2380 C2363 1.574 1_455 S
C2380 H2374 0.949 . S
C2380 C2384 1.368 . S
C2381 C2362 1.429 . S
C2381 C2375 1.429 . S
C2381 C2382 1.523 . S
C2382 C2363 1.368 . S
C2382 C2376 1.368 . S
C2382 C2381 1.523 . S
C2383 C2367 1.429 . S
C2383 C2379 1.429 . S
C2383 C2384 1.523 . S
C2384 C2368 1.368 . S
C2384 C2380 1.368 . S
C2384 C2383 1.523 . S
H2385 C2360 0.950 . S
H2386 C2362 0.950 . S
H2387 C2363 0.949 . S
H2388 C2365 0.950 . S
H2389 C2367 0.950 . S
C2390 C2391 1.349 . S
C2390 C2392 1.327 . S
C2390 H2415 0.950 . S
C2391 C2390 1.349 . S
C2391 C2407 1.349 . S
C2392 C2390 1.327 . S
C2392 C2411 1.429 . S
C2392 H2416 0.950 . S
C2393 C2410 1.574 . S
C2393 C2412 1.368 . S
C2393 H2417 0.949 . S
H2394 C2398 0.949 . S
C2395 C2396 1.349 . S
C2395 C2397 1.327 . S
C2395 H2418 0.950 . S
C2396 C2395 1.349 . S
C2396 C2408 1.349 . S
C2397 C2395 1.327 . S
C2397 C2413 1.429 . S
C2397 H2419 0.950 . S
C2398 H2394 0.949 . S
C2398 C2406 1.574 . S
C2398 C2414 1.368 . S
H2399 C2407 0.950 . S
H2400 C2405 0.950 . S
H2401 C2406 0.949 . S
H2402 C2408 0.950 . S
H2403 C2409 0.950 . S
H2404 C2410 0.949 . S
C2405 H2400 0.950 . S
C2405 C2407 1.327 . S
C2405 C2411 1.429 . S
C2406 C2398 1.574 . S
C2406 H2401 0.949 . S
C2406 C2412 1.368 . S
C2407 C2391 1.349 . S
C2407 H2399 0.950 . S
C2407 C2405 1.327 . S
C2408 C2396 1.349 . S
C2408 H2402 0.950 . S
C2408 C2409 1.327 . S
C2409 H2403 0.950 . S
C2409 C2408 1.327 . S
C2409 C2413 1.429 . S
C2410 C2393 1.574 . S
C2410 H2404 0.949 . S
C2410 C2414 1.368 . S
C2411 C2392 1.429 . S
C2411 C2405 1.429 . S
C2411 C2412 1.523 . S
C2412 C2393 1.368 . S
C2412 C2406 1.368 . S
C2412 C2411 1.523 . S
C2413 C2397 1.429 . S
C2413 C2409 1.429 . S
C2413 C2414 1.523 . S
C2414 C2398 1.368 . S
C2414 C2410 1.368 . S
C2414 C2413 1.523 . S
H2415 C2390 0.950 . S
H2416 C2392 0.950 . S
H2417 C2393 0.949 . S
H2418 C2395 0.950 . S
H2419 C2397 0.950 . S
C2420 C2421 1.349 . S
C2420 C2422 1.327 . S
C2420 H2445 0.950 . S
C2421 C2420 1.349 . S
C2421 C2437 1.349 . S
C2422 C2420 1.327 . S
C2422 C2441 1.429 . S
C2422 H2446 0.950 . S
C2423 C2440 1.574 . S
C2423 C2442 1.368 . S
C2423 H2447 0.949 . S
H2424 C2428 0.949 . S
C2425 C2426 1.349 . S
C2425 C2427 1.327 . S
C2425 H2448 0.950 . S
C2426 C2425 1.349 . S
C2426 C2438 1.349 . S
C2427 C2425 1.327 . S
C2427 C2443 1.429 . S
C2427 H2449 0.950 . S
C2428 H2424 0.949 . S
C2428 C2436 1.574 . S
C2428 C2444 1.368 . S
H2429 C2437 0.950 . S
H2430 C2435 0.950 . S
H2431 C2436 0.949 . S
H2432 C2438 0.950 . S
H2433 C2439 0.950 . S
H2434 C2440 0.949 . S
C2435 H2430 0.950 . S
C2435 C2437 1.327 . S
C2435 C2441 1.429 . S
C2436 C2428 1.574 . S
C2436 H2431 0.949 . S
C2436 C2442 1.368 . S
C2437 C2421 1.349 . S
C2437 H2429 0.950 . S
C2437 C2435 1.327 . S
C2438 C2426 1.349 . S
C2438 H2432 0.950 . S
C2438 C2439 1.327 . S
C2439 H2433 0.950 . S
C2439 C2438 1.327 . S
C2439 C2443 1.429 . S
C2440 C2423 1.574 . S
C2440 H2434 0.949 . S
C2440 C2444 1.368 . S
C2441 C2422 1.429 . S
C2441 C2435 1.429 . S
C2441 C2442 1.523 . S
C2442 C2423 1.368 . S
C2442 C2436 1.368 . S
C2442 C2441 1.523 . S
C2443 C2427 1.429 . S
C2443 C2439 1.429 . S
C2443 C2444 1.523 . S
C2444 C2428 1.368 . S
C2444 C2440 1.368 . S
C2444 C2443 1.523 . S
H2445 C2420 0.950 . S
H2446 C2422 0.950 . S
H2447 C2423 0.949 . S
H2448 C2425 0.950 . S
H2449 C2427 0.950 . S
C2450 C2451 1.349 . S
C2450 C2452 1.327 . S
C2450 H2475 0.950 . S
C2451 C2450 1.349 . S
C2451 C2467 1.349 . S
C2452 C2450 1.327 . S
C2452 C2471 1.429 . S
C2452 H2476 0.950 . S
C2453 C2470 1.574 . S
C2453 C2472 1.368 . S
C2453 H2477 0.949 . S
H2454 C2458 0.949 . S
C2455 C2456 1.349 . S
C2455 C2457 1.327 . S
C2455 H2478 0.950 . S
C2456 C2455 1.349 . S
C2456 C2468 1.349 . S
C2457 C2455 1.327 . S
C2457 C2473 1.429 . S
C2457 H2479 0.950 . S
C2458 H2454 0.949 . S
C2458 C2466 1.574 . S
C2458 C2474 1.368 . S
H2459 C2467 0.950 . S
H2460 C2465 0.950 . S
H2461 C2466 0.949 . S
H2462 C2468 0.950 . S
H2463 C2469 0.950 . S
H2464 C2470 0.949 . S
C2465 H2460 0.950 . S
C2465 C2467 1.327 . S
C2465 C2471 1.429 . S
C2466 C2458 1.574 . S
C2466 H2461 0.949 . S
C2466 C2472 1.368 . S
C2467 C2451 1.349 . S
C2467 H2459 0.950 . S
C2467 C2465 1.327 . S
C2468 C2456 1.349 . S
C2468 H2462 0.950 . S
C2468 C2469 1.327 . S
C2469 H2463 0.950 . S
C2469 C2468 1.327 . S
C2469 C2473 1.429 . S
C2470 C2453 1.574 . S
C2470 H2464 0.949 . S
C2470 C2474 1.368 . S
C2471 C2452 1.429 . S
C2471 C2465 1.429 . S
C2471 C2472 1.523 . S
C2472 C2453 1.368 . S
C2472 C2466 1.368 . S
C2472 C2471 1.523 . S
C2473 C2457 1.429 . S
C2473 C2469 1.429 . S
C2473 C2474 1.523 . S
C2474 C2458 1.368 . S
C2474 C2470 1.368 . S
C2474 C2473 1.523 . S
H2475 C2450 0.950 . S
H2476 C2452 0.950 . S
H2477 C2453 0.949 . S
H2478 C2455 0.950 . S
H2479 C2457 0.950 . S
C2480 C2481 1.349 . S
C2480 C2482 1.327 . S
C2480 H2505 0.950 . S
C2481 C2480 1.349 . S
C2481 C2497 1.349 . S
C2482 C2480 1.327 . S
C2482 C2501 1.429 . S
C2482 H2506 0.950 . S
C2483 C2500 1.574 . S
C2483 C2502 1.368 . S
C2483 H2507 0.949 . S
H2484 C2488 0.949 . S
C2485 C2486 1.349 . S
C2485 C2487 1.327 . S
C2485 H2508 0.950 . S
C2486 C2485 1.349 . S
C2486 C2498 1.349 . S
C2487 C2485 1.327 . S
C2487 C2503 1.429 . S
C2487 H2509 0.950 . S
C2488 H2484 0.949 . S
C2488 C2496 1.574 . S
C2488 C2504 1.368 . S
H2489 C2497 0.950 . S
H2490 C2495 0.950 . S
H2491 C2496 0.949 . S
H2492 C2498 0.950 . S
H2493 C2499 0.950 . S
H2494 C2500 0.949 . S
C2495 H2490 0.950 . S
C2495 C2497 1.327 . S
C2495 C2501 1.429 . S
C2496 C2488 1.574 . S
C2496 H2491 0.949 . S
C2496 C2502 1.368 . S
C2497 C2481 1.349 . S
C2497 H2489 0.950 . S
C2497 C2495 1.327 . S
C2498 C2486 1.349 . S
C2498 H2492 0.950 . S
C2498 C2499 1.327 . S
C2499 H2493 0.950 . S
C2499 C2498 1.327 . S
C2499 C2503 1.429 . S
C2500 C2483 1.574 . S
C2500 H2494 0.949 . S
C2500 C2504 1.368 . S
C2501 C2482 1.429 . S
C2501 C2495 1.429 . S
C2501 C2502 1.523 . S
C2502 C2483 1.368 . S
C2502 C2496 1.368 . S
C2502 C2501 1.523 . S
C2503 C2487 1.429 . S
C2503 C2499 1.429 . S
C2503 C2504 1.523 . S
C2504 C2488 1.368 . S
C2504 C2500 1.368 . S
C2504 C2503 1.523 . S
H2505 C2480 0.950 . S
H2506 C2482 0.950 . S
H2507 C2483 0.949 . S
H2508 C2485 0.950 . S
H2509 C2487 0.950 . S
C2510 C2511 1.349 . S
C2510 C2512 1.327 . S
C2510 H2535 0.950 . S
C2511 C2510 1.349 . S
C2511 C2527 1.349 . S
C2512 C2510 1.327 . S
C2512 C2531 1.429 . S
C2512 H2536 0.950 . S
C2513 C2530 1.574 . S
C2513 C2532 1.368 . S
C2513 H2537 0.949 . S
H2514 C2518 0.949 . S
C2515 C2516 1.349 . S
C2515 C2517 1.327 . S
C2515 H2538 0.950 . S
C2516 C2515 1.349 . S
C2516 C2528 1.349 . S
C2517 C2515 1.327 . S
C2517 C2533 1.429 . S
C2517 H2539 0.950 . S
C2518 H2514 0.949 . S
C2518 C2526 1.574 . S
C2518 C2534 1.368 . S
H2519 C2527 0.950 . S
H2520 C2525 0.950 . S
H2521 C2526 0.949 . S
H2522 C2528 0.950 . S
H2523 C2529 0.950 . S
H2524 C2530 0.949 . S
C2525 H2520 0.950 . S
C2525 C2527 1.327 . S
C2525 C2531 1.429 . S
C2526 C2518 1.574 . S
C2526 H2521 0.949 . S
C2526 C2532 1.368 . S
C2527 C2511 1.349 . S
C2527 H2519 0.950 . S
C2527 C2525 1.327 . S
C2528 C2516 1.349 . S
C2528 H2522 0.950 . S
C2528 C2529 1.327 . S
C2529 H2523 0.950 . S
C2529 C2528 1.327 . S
C2529 C2533 1.429 . S
C2530 C2513 1.574 . S
C2530 H2524 0.949 . S
C2530 C2534 1.368 . S
C2531 C2512 1.429 . S
C2531 C2525 1.429 . S
C2531 C2532 1.523 . S
C2532 C2513 1.368 . S
C2532 C2526 1.368 . S
C2532 C2531 1.523 . S
C2533 C2517 1.429 . S
C2533 C2529 1.429 . S
C2533 C2534 1.523 . S
C2534 C2518 1.368 . S
C2534 C2530 1.368 . S
C2534 C2533 1.523 . S
H2535 C2510 0.950 . S
H2536 C2512 0.950 . S
H2537 C2513 0.949 . S
H2538 C2515 0.950 . S
H2539 C2517 0.950 . S
C2540 C2541 1.349 . S
C2540 C2542 1.327 . S
C2540 H2565 0.950 . S
C2541 C2540 1.349 . S
C2541 C2557 1.349 . S
C2542 C2540 1.327 . S
C2542 C2561 1.429 . S
C2542 H2566 0.950 . S
C2543 C2560 1.574 . S
C2543 C2562 1.368 . S
C2543 H2567 0.949 . S
H2544 C2548 0.949 . S
C2545 C2546 1.349 . S
C2545 C2547 1.327 . S
C2545 H2568 0.950 . S
C2546 C2545 1.349 . S
C2546 C2558 1.349 . S
C2547 C2545 1.327 . S
C2547 C2563 1.429 . S
C2547 H2569 0.950 . S
C2548 H2544 0.949 . S
C2548 C2556 1.574 . S
C2548 C2564 1.368 . S
H2549 C2557 0.950 . S
H2550 C2555 0.950 . S
H2551 C2556 0.949 . S
H2552 C2558 0.950 . S
H2553 C2559 0.950 . S
H2554 C2560 0.949 . S
C2555 H2550 0.950 . S
C2555 C2557 1.327 . S
C2555 C2561 1.429 . S
C2556 C2548 1.574 . S
C2556 H2551 0.949 . S
C2556 C2562 1.368 . S
C2557 C2541 1.349 . S
C2557 H2549 0.950 . S
C2557 C2555 1.327 . S
C2558 C2546 1.349 . S
C2558 H2552 0.950 . S
C2558 C2559 1.327 . S
C2559 H2553 0.950 . S
C2559 C2558 1.327 . S
C2559 C2563 1.429 . S
C2560 C2543 1.574 . S
C2560 H2554 0.949 . S
C2560 C2564 1.368 . S
C2561 C2542 1.429 . S
C2561 C2555 1.429 . S
C2561 C2562 1.523 . S
C2562 C2543 1.368 . S
C2562 C2556 1.368 . S
C2562 C2561 1.523 . S
C2563 C2547 1.429 . S
C2563 C2559 1.429 . S
C2563 C2564 1.523 . S
C2564 C2548 1.368 . S
C2564 C2560 1.368 . S
C2564 C2563 1.523 . S
H2565 C2540 0.950 . S
H2566 C2542 0.950 . S
H2567 C2543 0.949 . S
H2568 C2545 0.950 . S
H2569 C2547 0.950 . S
C2570 C2571 1.349 . S
C2570 C2572 1.327 . S
C2570 H2595 0.950 . S
C2571 C2570 1.349 . S
C2571 C2587 1.349 . S
C2572 C2570 1.327 . S
C2572 C2591 1.429 . S
C2572 H2596 0.950 . S
C2573 C2590 1.574 . S
C2573 C2592 1.368 . S
C2573 H2597 0.949 . S
H2574 C2578 0.949 . S
C2575 C2576 1.349 1_554 S
C2575 C2577 1.327 1_554 S
C2575 H2598 0.950 . S
C2576 C2575 1.349 1_556 S
C2576 C2588 1.349 . S
C2577 C2575 1.327 1_556 S
C2577 C2593 1.429 . S
C2577 H2599 0.950 . S
C2578 H2574 0.949 . S
C2578 C2586 1.574 . S
C2578 C2594 1.368 . S
H2579 C2587 0.950 . S
H2580 C2585 0.950 . S
H2581 C2586 0.949 . S
H2582 C2588 0.950 . S
H2583 C2589 0.950 . S
H2584 C2590 0.949 . S
C2585 H2580 0.950 . S
C2585 C2587 1.327 . S
C2585 C2591 1.429 . S
C2586 C2578 1.574 . S
C2586 H2581 0.949 . S
C2586 C2592 1.368 . S
C2587 C2571 1.349 . S
C2587 H2579 0.950 . S
C2587 C2585 1.327 . S
C2588 C2576 1.349 . S
C2588 H2582 0.950 . S
C2588 C2589 1.327 . S
C2589 H2583 0.950 . S
C2589 C2588 1.327 . S
C2589 C2593 1.429 . S
C2590 C2573 1.574 . S
C2590 H2584 0.949 . S
C2590 C2594 1.368 . S
C2591 C2572 1.429 . S
C2591 C2585 1.429 . S
C2591 C2592 1.523 . S
C2592 C2573 1.368 . S
C2592 C2586 1.368 . S
C2592 C2591 1.523 . S
C2593 C2577 1.429 . S
C2593 C2589 1.429 . S
C2593 C2594 1.523 . S
C2594 C2578 1.368 . S
C2594 C2590 1.368 . S
C2594 C2593 1.523 . S
H2595 C2570 0.950 . S
H2596 C2572 0.950 . S
H2597 C2573 0.949 . S
H2598 C2575 0.950 . S
H2599 C2577 0.950 . S
C2600 C2601 1.349 . S
C2600 C2602 1.327 . S
C2600 H2625 0.950 . S
C2601 C2600 1.349 . S
C2601 C2617 1.349 . S
C2602 C2600 1.327 . S
C2602 C2621 1.429 . S
C2602 H2626 0.950 . S
C2603 C2620 1.574 . S
C2603 C2622 1.368 1_565 S
C2603 H2627 0.949 . S
H2604 C2608 0.949 . S
C2605 C2606 1.349 . S
C2605 C2607 1.327 . S
C2605 H2628 0.950 . S
C2606 C2605 1.349 . S
C2606 C2618 1.349 . S
C2607 C2605 1.327 . S
C2607 C2623 1.429 . S
C2607 H2629 0.950 . S
C2608 H2604 0.949 . S
C2608 C2616 1.574 . S
C2608 C2624 1.368 1_545 S
H2609 C2617 0.950 . S
H2610 C2615 0.950 . S
H2611 C2616 0.949 . S
H2612 C2618 0.950 . S
H2613 C2619 0.950 . S
H2614 C2620 0.949 . S
C2615 H2610 0.950 . S
C2615 C2617 1.327 . S
C2615 C2621 1.429 . S
C2616 C2608 1.574 . S
C2616 H2611 0.949 . S
C2616 C2622 1.368 . S
C2617 C2601 1.349 . S
C2617 H2609 0.950 . S
C2617 C2615 1.327 . S
C2618 C2606 1.349 . S
C2618 H2612 0.950 . S
C2618 C2619 1.327 . S
C2619 H2613 0.950 . S
C2619 C2618 1.327 . S
C2619 C2623 1.429 . S
C2620 C2603 1.574 . S
C2620 H2614 0.949 . S
C2620 C2624 1.368 . S
C2621 C2602 1.429 . S
C2621 C2615 1.429 . S
C2621 C2622 1.523 . S
C2622 C2603 1.368 1_545 S
C2622 C2616 1.368 . S
C2622 C2621 1.523 . S
C2623 C2607 1.429 . S
C2623 C2619 1.429 . S
C2623 C2624 1.523 . S
C2624 C2608 1.368 1_565 S
C2624 C2620 1.368 . S
C2624 C2623 1.523 . S
H2625 C2600 0.950 . S
H2626 C2602 0.950 . S
H2627 C2603 0.949 . S
H2628 C2605 0.950 . S
H2629 C2607 0.950 . S
C2630 C2631 1.349 . S
C2630 C2632 1.327 . S
C2630 H2655 0.950 . S
C2631 C2630 1.349 . S
C2631 C2647 1.349 . S
C2632 C2630 1.327 . S
C2632 C2651 1.429 . S
C2632 H2656 0.950 . S
C2633 C2650 1.574 . S
C2633 C2652 1.368 1_545 S
C2633 H2657 0.949 . S
H2634 C2638 0.949 . S
C2635 C2636 1.349 . S
C2635 C2637 1.327 . S
C2635 H2658 0.950 . S
C2636 C2635 1.349 . S
C2636 C2648 1.349 . S
C2637 C2635 1.327 . S
C2637 C2653 1.429 . S
C2637 H2659 0.950 . S
C2638 H2634 0.949 . S
C2638 C2646 1.574 . S
C2638 C2654 1.368 1_565 S
H2639 C2647 0.950 . S
H2640 C2645 0.950 . S
H2641 C2646 0.949 . S
H2642 C2648 0.950 . S
H2643 C2649 0.950 . S
H2644 C2650 0.949 . S
C2645 H2640 0.950 . S
C2645 C2647 1.327 . S
C2645 C2651 1.429 . S
C2646 C2638 1.574 . S
C2646 H2641 0.949 . S
C2646 C2652 1.368 1_655 S
C2647 C2631 1.349 . S
C2647 H2639 0.950 . S
C2647 C2645 1.327 . S
C2648 C2636 1.349 . S
C2648 H2642 0.950 . S
C2648 C2649 1.327 . S
C2649 H2643 0.950 . S
C2649 C2648 1.327 . S
C2649 C2653 1.429 . S
C2650 C2633 1.574 . S
C2650 H2644 0.949 . S
C2650 C2654 1.368 1_455 S
C2651 C2632 1.429 . S
C2651 C2645 1.429 . S
C2651 C2652 1.523 . S
C2652 C2633 1.368 1_565 S
C2652 C2646 1.368 1_455 S
C2652 C2651 1.523 . S
C2653 C2637 1.429 . S
C2653 C2649 1.429 . S
C2653 C2654 1.523 . S
C2654 C2638 1.368 1_545 S
C2654 C2650 1.368 1_655 S
C2654 C2653 1.523 . S
H2655 C2630 0.950 . S
H2656 C2632 0.950 . S
H2657 C2633 0.949 . S
H2658 C2635 0.950 . S
H2659 C2637 0.950 . S
C2660 C2661 1.349 . S
C2660 C2662 1.327 . S
C2660 H2685 0.950 . S
C2661 C2660 1.349 . S
C2661 C2677 1.349 . S
C2662 C2660 1.327 . S
C2662 C2681 1.429 . S
C2662 H2686 0.950 . S
C2663 C2680 1.574 . S
C2663 C2682 1.368 1_545 S
C2663 H2687 0.949 . S
H2664 C2668 0.949 . S
C2665 C2666 1.349 . S
C2665 C2667 1.327 . S
C2665 H2688 0.950 . S
C2666 C2665 1.349 . S
C2666 C2678 1.349 . S
C2667 C2665 1.327 . S
C2667 C2683 1.429 . S
C2667 H2689 0.950 . S
C2668 H2664 0.949 . S
C2668 C2676 1.574 . S
C2668 C2684 1.368 1_565 S
H2669 C2677 0.950 . S
H2670 C2675 0.950 . S
H2671 C2676 0.949 . S
H2672 C2678 0.950 . S
H2673 C2679 0.950 . S
H2674 C2680 0.949 . S
C2675 H2670 0.950 . S
C2675 C2677 1.327 . S
C2675 C2681 1.429 . S
C2676 C2668 1.574 . S
C2676 H2671 0.949 . S
C2676 C2682 1.368 . S
C2677 C2661 1.349 . S
C2677 H2669 0.950 . S
C2677 C2675 1.327 . S
C2678 C2666 1.349 . S
C2678 H2672 0.950 . S
C2678 C2679 1.327 . S
C2679 H2673 0.950 . S
C2679 C2678 1.327 . S
C2679 C2683 1.429 . S
C2680 C2663 1.574 . S
C2680 H2674 0.949 . S
C2680 C2684 1.368 . S
C2681 C2662 1.429 . S
C2681 C2675 1.429 . S
C2681 C2682 1.523 . S
C2682 C2663 1.368 1_565 S
C2682 C2676 1.368 . S
C2682 C2681 1.523 . S
C2683 C2667 1.429 . S
C2683 C2679 1.429 . S
C2683 C2684 1.523 . S
C2684 C2668 1.368 1_545 S
C2684 C2680 1.368 . S
C2684 C2683 1.523 . S
H2685 C2660 0.950 . S
H2686 C2662 0.950 . S
H2687 C2663 0.949 . S
H2688 C2665 0.950 . S
H2689 C2667 0.950 . S
C2690 C2691 1.349 . S
C2690 C2692 1.327 . S
C2690 H2715 0.950 . S
C2691 C2690 1.349 . S
C2691 C2707 1.349 . S
C2692 C2690 1.327 . S
C2692 C2711 1.429 . S
C2692 H2716 0.950 . S
C2693 C2710 1.574 1_655 S
C2693 C2712 1.368 1_545 S
C2693 H2717 0.949 . S
H2694 C2698 0.949 . S
C2695 C2696 1.349 . S
C2695 C2697 1.327 . S
C2695 H2718 0.950 . S
C2696 C2695 1.349 . S
C2696 C2708 1.349 . S
C2697 C2695 1.327 . S
C2697 C2713 1.429 . S
C2697 H2719 0.950 . S
C2698 H2694 0.949 . S
C2698 C2706 1.574 1_455 S
C2698 C2714 1.368 1_565 S
H2699 C2707 0.950 . S
H2700 C2705 0.950 1_545 S
H2701 C2706 0.949 . S
H2702 C2708 0.950 . S
H2703 C2709 0.950 1_565 S
H2704 C2710 0.949 . S
C2705 H2700 0.950 1_565 S
C2705 C2707 1.327 . S
C2705 C2711 1.429 . S
C2706 C2698 1.574 1_655 S
C2706 H2701 0.949 . S
C2706 C2712 1.368 . S
C2707 C2691 1.349 . S
C2707 H2699 0.950 . S
C2707 C2705 1.327 . S
C2708 C2696 1.349 . S
C2708 H2702 0.950 . S
C2708 C2709 1.327 . S
C2709 H2703 0.950 1_545 S
C2709 C2708 1.327 . S
C2709 C2713 1.429 . S
C2710 C2693 1.574 1_455 S
C2710 H2704 0.949 . S
C2710 C2714 1.368 . S
C2711 C2692 1.429 . S
C2711 C2705 1.429 . S
C2711 C2712 1.523 . S
C2712 C2693 1.368 1_565 S
C2712 C2706 1.368 . S
C2712 C2711 1.523 . S
C2713 C2697 1.429 . S
C2713 C2709 1.429 . S
C2713 C2714 1.523 . S
C2714 C2698 1.368 1_545 S
C2714 C2710 1.368 . S
C2714 C2713 1.523 . S
H2715 C2690 0.950 . S
H2716 C2692 0.950 . S
H2717 C2693 0.949 . S
H2718 C2695 0.950 . S
H2719 C2697 0.950 . S
C2720 C2721 1.349 . S
C2720 C2722 1.327 . S
C2720 H2745 0.950 . S
C2721 C2720 1.349 . S
C2721 C2737 1.349 . S
C2722 C2720 1.327 . S
C2722 C2741 1.429 1_554 S
C2722 H2746 0.950 1_554 S
C2723 C2740 1.574 . S
C2723 C2742 1.368 1_655 S
C2723 H2747 0.949 . S
H2724 C2728 0.949 . S
C2725 C2726 1.349 . S
C2725 C2727 1.327 . S
C2725 H2748 0.950 . S
C2726 C2725 1.349 . S
C2726 C2738 1.349 . S
C2727 C2725 1.327 . S
C2727 C2743 1.429 . S
C2727 H2749 0.950 . S
C2728 H2724 0.949 . S
C2728 C2736 1.574 1_655 S
C2728 C2744 1.368 . S
H2729 C2737 0.950 . S
H2730 C2735 0.950 . S
H2731 C2736 0.949 . S
H2732 C2738 0.950 . S
H2733 C2739 0.950 . S
H2734 C2740 0.949 . S
C2735 H2730 0.950 . S
C2735 C2737 1.327 . S
C2735 C2741 1.429 1_554 S
C2736 C2728 1.574 1_455 S
C2736 H2731 0.949 . S
C2736 C2742 1.368 . S
C2737 C2721 1.349 . S
C2737 H2729 0.950 . S
C2737 C2735 1.327 . S
C2738 C2726 1.349 . S
C2738 H2732 0.950 . S
C2738 C2739 1.327 . S
C2739 H2733 0.950 . S
C2739 C2738 1.327 . S
C2739 C2743 1.429 . S
C2740 C2723 1.574 . S
C2740 H2734 0.949 . S
C2740 C2744 1.368 . S
C2741 C2722 1.429 1_556 S
C2741 C2735 1.429 1_556 S
C2741 C2742 1.523 . S
C2742 C2723 1.368 1_455 S
C2742 C2736 1.368 . S
C2742 C2741 1.523 . S
C2743 C2727 1.429 . S
C2743 C2739 1.429 . S
C2743 C2744 1.523 . S
C2744 C2728 1.368 . S
C2744 C2740 1.368 . S
C2744 C2743 1.523 . S
H2745 C2720 0.950 . S
H2746 C2722 0.950 1_556 S
H2747 C2723 0.949 . S
H2748 C2725 0.950 . S
H2749 C2727 0.950 . S
C2750 C2751 1.349 . S
C2750 C2752 1.327 . S
C2750 H2775 0.950 . S
C2751 C2750 1.349 . S
C2751 C2767 1.349 . S
C2752 C2750 1.327 . S
C2752 C2771 1.429 . S
C2752 H2776 0.950 . S
C2753 C2770 1.574 . S
C2753 C2772 1.368 . S
C2753 H2777 0.949 . S
H2754 C2758 0.949 . S
C2755 C2756 1.349 . S
C2755 C2757 1.327 . S
C2755 H2778 0.950 . S
C2756 C2755 1.349 . S
C2756 C2768 1.349 . S
C2757 C2755 1.327 . S
C2757 C2773 1.429 . S
C2757 H2779 0.950 . S
C2758 H2754 0.949 . S
C2758 C2766 1.574 . S
C2758 C2774 1.368 . S
H2759 C2767 0.950 . S
H2760 C2765 0.950 . S
H2761 C2766 0.949 . S
H2762 C2768 0.950 . S
H2763 C2769 0.950 . S
H2764 C2770 0.949 . S
C2765 H2760 0.950 . S
C2765 C2767 1.327 . S
C2765 C2771 1.429 . S
C2766 C2758 1.574 . S
C2766 H2761 0.949 . S
C2766 C2772 1.368 . S
C2767 C2751 1.349 . S
C2767 H2759 0.950 . S
C2767 C2765 1.327 . S
C2768 C2756 1.349 . S
C2768 H2762 0.950 . S
C2768 C2769 1.327 . S
C2769 H2763 0.950 . S
C2769 C2768 1.327 . S
C2769 C2773 1.429 . S
C2770 C2753 1.574 . S
C2770 H2764 0.949 . S
C2770 C2774 1.368 . S
C2771 C2752 1.429 . S
C2771 C2765 1.429 . S
C2771 C2772 1.523 . S
C2772 C2753 1.368 . S
C2772 C2766 1.368 . S
C2772 C2771 1.523 . S
C2773 C2757 1.429 . S
C2773 C2769 1.429 . S
C2773 C2774 1.523 . S
C2774 C2758 1.368 . S
C2774 C2770 1.368 . S
C2774 C2773 1.523 . S
H2775 C2750 0.950 . S
H2776 C2752 0.950 . S
H2777 C2753 0.949 . S
H2778 C2755 0.950 . S
H2779 C2757 0.950 . S
C2780 C2781 1.349 . S
C2780 C2782 1.327 . S
C2780 H2805 0.950 . S
C2781 C2780 1.349 . S
C2781 C2797 1.349 . S
C2782 C2780 1.327 . S
C2782 C2801 1.429 . S
C2782 H2806 0.950 . S
C2783 C2800 1.574 . S
C2783 C2802 1.368 . S
C2783 H2807 0.949 . S
H2784 C2788 0.949 . S
C2785 C2786 1.349 . S
C2785 C2787 1.327 . S
C2785 H2808 0.950 . S
C2786 C2785 1.349 . S
C2786 C2798 1.349 . S
C2787 C2785 1.327 . S
C2787 C2803 1.429 . S
C2787 H2809 0.950 . S
C2788 H2784 0.949 . S
C2788 C2796 1.574 . S
C2788 C2804 1.368 . S
H2789 C2797 0.950 . S
H2790 C2795 0.950 . S
H2791 C2796 0.949 . S
H2792 C2798 0.950 . S
H2793 C2799 0.950 . S
H2794 C2800 0.949 . S
C2795 H2790 0.950 . S
C2795 C2797 1.327 . S
C2795 C2801 1.429 . S
C2796 C2788 1.574 . S
C2796 H2791 0.949 . S
C2796 C2802 1.368 . S
C2797 C2781 1.349 . S
C2797 H2789 0.950 . S
C2797 C2795 1.327 . S
C2798 C2786 1.349 . S
C2798 H2792 0.950 . S
C2798 C2799 1.327 . S
C2799 H2793 0.950 . S
C2799 C2798 1.327 . S
C2799 C2803 1.429 . S
C2800 C2783 1.574 . S
C2800 H2794 0.949 . S
C2800 C2804 1.368 . S
C2801 C2782 1.429 . S
C2801 C2795 1.429 . S
C2801 C2802 1.523 . S
C2802 C2783 1.368 . S
C2802 C2796 1.368 . S
C2802 C2801 1.523 . S
C2803 C2787 1.429 . S
C2803 C2799 1.429 . S
C2803 C2804 1.523 . S
C2804 C2788 1.368 . S
C2804 C2800 1.368 . S
C2804 C2803 1.523 . S
H2805 C2780 0.950 . S
H2806 C2782 0.950 . S
H2807 C2783 0.949 . S
H2808 C2785 0.950 . S
H2809 C2787 0.950 . S
C2810 C2811 1.349 . S
C2810 C2812 1.327 . S
C2810 H2835 0.950 . S
C2811 C2810 1.349 . S
C2811 C2827 1.349 . S
C2812 C2810 1.327 . S
C2812 C2831 1.429 . S
C2812 H2836 0.950 . S
C2813 C2830 1.574 . S
C2813 C2832 1.368 . S
C2813 H2837 0.949 . S
H2814 C2818 0.949 . S
C2815 C2816 1.349 . S
C2815 C2817 1.327 . S
C2815 H2838 0.950 . S
C2816 C2815 1.349 . S
C2816 C2828 1.349 . S
C2817 C2815 1.327 . S
C2817 C2833 1.429 . S
C2817 H2839 0.950 . S
C2818 H2814 0.949 . S
C2818 C2826 1.574 . S
C2818 C2834 1.368 . S
H2819 C2827 0.950 . S
H2820 C2825 0.950 . S
H2821 C2826 0.949 . S
H2822 C2828 0.950 . S
H2823 C2829 0.950 . S
H2824 C2830 0.949 . S
C2825 H2820 0.950 . S
C2825 C2827 1.327 . S
C2825 C2831 1.429 . S
C2826 C2818 1.574 . S
C2826 H2821 0.949 . S
C2826 C2832 1.368 . S
C2827 C2811 1.349 . S
C2827 H2819 0.950 . S
C2827 C2825 1.327 . S
C2828 C2816 1.349 . S
C2828 H2822 0.950 . S
C2828 C2829 1.327 . S
C2829 H2823 0.950 . S
C2829 C2828 1.327 . S
C2829 C2833 1.429 . S
C2830 C2813 1.574 . S
C2830 H2824 0.949 . S
C2830 C2834 1.368 . S
C2831 C2812 1.429 . S
C2831 C2825 1.429 . S
C2831 C2832 1.523 . S
C2832 C2813 1.368 . S
C2832 C2826 1.368 . S
C2832 C2831 1.523 . S
C2833 C2817 1.429 . S
C2833 C2829 1.429 . S
C2833 C2834 1.523 . S
C2834 C2818 1.368 . S
C2834 C2830 1.368 . S
C2834 C2833 1.523 . S
H2835 C2810 0.950 . S
H2836 C2812 0.950 . S
H2837 C2813 0.949 . S
H2838 C2815 0.950 . S
H2839 C2817 0.950 . S
C2840 C2841 1.349 1_556 S
C2840 C2842 1.327 1_655 S
C2840 H2865 0.950 1_556 S
C2841 C2840 1.349 1_554 S
C2841 C2857 1.349 1_554 S
C2842 C2840 1.327 1_455 S
C2842 C2861 1.429 1_455 S
C2842 H2866 0.950 . S
C2843 C2860 1.574 . S
C2843 C2862 1.368 . S
C2843 H2867 0.949 1_455 S
H2844 C2848 0.949 . S
C2845 C2846 1.349 . S
C2845 C2847 1.327 . S
C2845 H2868 0.950 . S
C2846 C2845 1.349 . S
C2846 C2858 1.349 . S
C2847 C2845 1.327 . S
C2847 C2863 1.429 . S
C2847 H2869 0.950 . S
C2848 H2844 0.949 . S
C2848 C2856 1.574 . S
C2848 C2864 1.368 . S
H2849 C2857 0.950 . S
H2850 C2855 0.950 . S
H2851 C2856 0.949 . S
H2852 C2858 0.950 . S
H2853 C2859 0.950 . S
H2854 C2860 0.949 . S
C2855 H2850 0.950 . S
C2855 C2857 1.327 . S
C2855 C2861 1.429 . S
C2856 C2848 1.574 . S
C2856 H2851 0.949 . S
C2856 C2862 1.368 . S
C2857 C2841 1.349 1_556 S
C2857 H2849 0.950 . S
C2857 C2855 1.327 . S
C2858 C2846 1.349 . S
C2858 H2852 0.950 . S
C2858 C2859 1.327 . S
C2859 H2853 0.950 . S
C2859 C2858 1.327 . S
C2859 C2863 1.429 . S
C2860 C2843 1.574 . S
C2860 H2854 0.949 . S
C2860 C2864 1.368 . S
C2861 C2842 1.429 1_655 S
C2861 C2855 1.429 . S
C2861 C2862 1.523 1_655 S
C2862 C2843 1.368 . S
C2862 C2856 1.368 . S
C2862 C2861 1.523 1_455 S
C2863 C2847 1.429 . S
C2863 C2859 1.429 . S
C2863 C2864 1.523 . S
C2864 C2848 1.368 . S
C2864 C2860 1.368 . S
C2864 C2863 1.523 . S
H2865 C2840 0.950 1_554 S
H2866 C2842 0.950 . S
H2867 C2843 0.949 1_655 S
H2868 C2845 0.950 . S
H2869 C2847 0.950 . S
C2870 C2871 1.349 . S
C2870 C2872 1.327 . S
C2870 H2895 0.950 . S
C2871 C2870 1.349 . S
C2871 C2887 1.349 . S
C2872 C2870 1.327 . S
C2872 C2891 1.429 . S
C2872 H2896 0.950 . S
C2873 C2890 1.574 . S
C2873 C2892 1.368 . S
C2873 H2897 0.949 . S
H2874 C2878 0.949 . S
C2875 C2876 1.349 . S
C2875 C2877 1.327 . S
C2875 H2898 0.950 . S
C2876 C2875 1.349 . S
C2876 C2888 1.349 . S
C2877 C2875 1.327 . S
C2877 C2893 1.429 . S
C2877 H2899 0.950 . S
C2878 H2874 0.949 . S
C2878 C2886 1.574 . S
C2878 C2894 1.368 . S
H2879 C2887 0.950 . S
H2880 C2885 0.950 . S
H2881 C2886 0.949 . S
H2882 C2888 0.950 . S
H2883 C2889 0.950 . S
H2884 C2890 0.949 . S
C2885 H2880 0.950 . S
C2885 C2887 1.327 . S
C2885 C2891 1.429 . S
C2886 C2878 1.574 . S
C2886 H2881 0.949 . S
C2886 C2892 1.368 . S
C2887 C2871 1.349 . S
C2887 H2879 0.950 . S
C2887 C2885 1.327 . S
C2888 C2876 1.349 . S
C2888 H2882 0.950 . S
C2888 C2889 1.327 . S
C2889 H2883 0.950 . S
C2889 C2888 1.327 . S
C2889 C2893 1.429 . S
C2890 C2873 1.574 . S
C2890 H2884 0.949 . S
C2890 C2894 1.368 . S
C2891 C2872 1.429 . S
C2891 C2885 1.429 . S
C2891 C2892 1.523 . S
C2892 C2873 1.368 . S
C2892 C2886 1.368 . S
C2892 C2891 1.523 . S
C2893 C2877 1.429 . S
C2893 C2889 1.429 . S
C2893 C2894 1.523 . S
C2894 C2878 1.368 . S
C2894 C2890 1.368 . S
C2894 C2893 1.523 . S
H2895 C2870 0.950 . S
H2896 C2872 0.950 . S
H2897 C2873 0.949 . S
H2898 C2875 0.950 . S
H2899 C2877 0.950 . S
C2900 C2901 1.349 . S
C2900 C2902 1.327 . S
C2900 H2925 0.950 . S
C2901 C2900 1.349 . S
C2901 C2917 1.349 . S
C2902 C2900 1.327 . S
C2902 C2921 1.429 . S
C2902 H2926 0.950 . S
C2903 C2920 1.574 . S
C2903 C2922 1.368 . S
C2903 H2927 0.949 . S
H2904 C2908 0.949 . S
C2905 C2906 1.349 . S
C2905 C2907 1.327 . S
C2905 H2928 0.950 . S
C2906 C2905 1.349 . S
C2906 C2918 1.349 . S
C2907 C2905 1.327 . S
C2907 C2923 1.429 . S
C2907 H2929 0.950 . S
C2908 H2904 0.949 . S
C2908 C2916 1.574 . S
C2908 C2924 1.368 . S
H2909 C2917 0.950 . S
H2910 C2915 0.950 . S
H2911 C2916 0.949 . S
H2912 C2918 0.950 . S
H2913 C2919 0.950 . S
H2914 C2920 0.949 . S
C2915 H2910 0.950 . S
C2915 C2917 1.327 . S
C2915 C2921 1.429 . S
C2916 C2908 1.574 . S
C2916 H2911 0.949 . S
C2916 C2922 1.368 . S
C2917 C2901 1.349 . S
C2917 H2909 0.950 . S
C2917 C2915 1.327 . S
C2918 C2906 1.349 . S
C2918 H2912 0.950 . S
C2918 C2919 1.327 . S
C2919 H2913 0.950 . S
C2919 C2918 1.327 . S
C2919 C2923 1.429 . S
C2920 C2903 1.574 . S
C2920 H2914 0.949 . S
C2920 C2924 1.368 . S
C2921 C2902 1.429 . S
C2921 C2915 1.429 . S
C2921 C2922 1.523 . S
C2922 C2903 1.368 . S
C2922 C2916 1.368 . S
C2922 C2921 1.523 . S
C2923 C2907 1.429 . S
C2923 C2919 1.429 . S
C2923 C2924 1.523 . S
C2924 C2908 1.368 . S
C2924 C2920 1.368 . S
C2924 C2923 1.523 . S
H2925 C2900 0.950 . S
H2926 C2902 0.950 . S
H2927 C2903 0.949 . S
H2928 C2905 0.950 . S
H2929 C2907 0.950 . S
C2930 C2931 1.349 . S
C2930 C2932 1.327 . S
C2930 H2955 0.950 . S
C2931 C2930 1.349 . S
C2931 C2947 1.349 . S
C2932 C2930 1.327 . S
C2932 C2951 1.429 . S
C2932 H2956 0.950 . S
C2933 C2950 1.574 . S
C2933 C2952 1.368 . S
C2933 H2957 0.949 . S
H2934 C2938 0.949 . S
C2935 C2936 1.349 . S
C2935 C2937 1.327 . S
C2935 H2958 0.950 . S
C2936 C2935 1.349 . S
C2936 C2948 1.349 . S
C2937 C2935 1.327 . S
C2937 C2953 1.429 . S
C2937 H2959 0.950 . S
C2938 H2934 0.949 . S
C2938 C2946 1.574 . S
C2938 C2954 1.368 . S
H2939 C2947 0.950 . S
H2940 C2945 0.950 . S
H2941 C2946 0.949 . S
H2942 C2948 0.950 . S
H2943 C2949 0.950 . S
H2944 C2950 0.949 . S
C2945 H2940 0.950 . S
C2945 C2947 1.327 . S
C2945 C2951 1.429 . S
C2946 C2938 1.574 . S
C2946 H2941 0.949 . S
C2946 C2952 1.368 . S
C2947 C2931 1.349 . S
C2947 H2939 0.950 . S
C2947 C2945 1.327 . S
C2948 C2936 1.349 . S
C2948 H2942 0.950 . S
C2948 C2949 1.327 . S
C2949 H2943 0.950 . S
C2949 C2948 1.327 . S
C2949 C2953 1.429 . S
C2950 C2933 1.574 . S
C2950 H2944 0.949 . S
C2950 C2954 1.368 . S
C2951 C2932 1.429 . S
C2951 C2945 1.429 . S
C2951 C2952 1.523 . S
C2952 C2933 1.368 . S
C2952 C2946 1.368 . S
C2952 C2951 1.523 . S
C2953 C2937 1.429 . S
C2953 C2949 1.429 . S
C2953 C2954 1.523 . S
C2954 C2938 1.368 . S
C2954 C2950 1.368 . S
C2954 C2953 1.523 . S
H2955 C2930 0.950 . S
H2956 C2932 0.950 . S
H2957 C2933 0.949 . S
H2958 C2935 0.950 . S
H2959 C2937 0.950 . S
C2960 C2961 1.349 . S
C2960 C2962 1.327 . S
C2960 H2985 0.950 . S
C2961 C2960 1.349 . S
C2961 C2977 1.349 . S
C2962 C2960 1.327 . S
C2962 C2981 1.429 . S
C2962 H2986 0.950 . S
C2963 C2980 1.574 1_455 S
C2963 C2982 1.368 . S
C2963 H2987 0.949 . S
H2964 C2968 0.949 . S
C2965 C2966 1.349 . S
C2965 C2967 1.327 . S
C2965 H2988 0.950 . S
C2966 C2965 1.349 . S
C2966 C2978 1.349 . S
C2967 C2965 1.327 . S
C2967 C2983 1.429 . S
C2967 H2989 0.950 . S
C2968 H2964 0.949 . S
C2968 C2976 1.574 . S
C2968 C2984 1.368 1_455 S
H2969 C2977 0.950 . S
H2970 C2975 0.950 . S
H2971 C2976 0.949 . S
H2972 C2978 0.950 . S
H2973 C2979 0.950 . S
H2974 C2980 0.949 . S
C2975 H2970 0.950 . S
C2975 C2977 1.327 . S
C2975 C2981 1.429 . S
C2976 C2968 1.574 . S
C2976 H2971 0.949 . S
C2976 C2982 1.368 . S
C2977 C2961 1.349 . S
C2977 H2969 0.950 . S
C2977 C2975 1.327 . S
C2978 C2966 1.349 . S
C2978 H2972 0.950 . S
C2978 C2979 1.327 . S
C2979 H2973 0.950 . S
C2979 C2978 1.327 . S
C2979 C2983 1.429 . S
C2980 C2963 1.574 1_655 S
C2980 H2974 0.949 . S
C2980 C2984 1.368 . S
C2981 C2962 1.429 . S
C2981 C2975 1.429 . S
C2981 C2982 1.523 . S
C2982 C2963 1.368 . S
C2982 C2976 1.368 . S
C2982 C2981 1.523 . S
C2983 C2967 1.429 . S
C2983 C2979 1.429 . S
C2983 C2984 1.523 . S
C2984 C2968 1.368 1_655 S
C2984 C2980 1.368 . S
C2984 C2983 1.523 . S
H2985 C2960 0.950 . S
H2986 C2962 0.950 . S
H2987 C2963 0.949 . S
H2988 C2965 0.950 . S
H2989 C2967 0.950 . S
C2990 C2991 1.349 . S
C2990 C2992 1.327 . S
C2990 H3015 0.950 . S
C2991 C2990 1.349 . S
C2991 C3007 1.349 . S
C2992 C2990 1.327 . S
C2992 C3011 1.429 . S
C2992 H3016 0.950 . S
C2993 C3010 1.574 . S
C2993 C3012 1.368 . S
C2993 H3017 0.949 . S
H2994 C2998 0.949 . S
C2995 C2996 1.349 . S
C2995 C2997 1.327 . S
C2995 H3018 0.950 . S
C2996 C2995 1.349 . S
C2996 C3008 1.349 . S
C2997 C2995 1.327 . S
C2997 C3013 1.429 . S
C2997 H3019 0.950 . S
C2998 H2994 0.949 . S
C2998 C3006 1.574 . S
C2998 C3014 1.368 . S
H2999 C3007 0.950 . S
H3000 C3005 0.950 . S
H3001 C3006 0.949 . S
H3002 C3008 0.950 . S
H3003 C3009 0.950 . S
H3004 C3010 0.949 . S
C3005 H3000 0.950 . S
C3005 C3007 1.327 . S
C3005 C3011 1.429 . S
C3006 C2998 1.574 . S
C3006 H3001 0.949 . S
C3006 C3012 1.368 . S
C3007 C2991 1.349 . S
C3007 H2999 0.950 . S
C3007 C3005 1.327 . S
C3008 C2996 1.349 . S
C3008 H3002 0.950 . S
C3008 C3009 1.327 . S
C3009 H3003 0.950 . S
C3009 C3008 1.327 . S
C3009 C3013 1.429 . S
C3010 C2993 1.574 . S
C3010 H3004 0.949 . S
C3010 C3014 1.368 . S
C3011 C2992 1.429 . S
C3011 C3005 1.429 . S
C3011 C3012 1.523 . S
C3012 C2993 1.368 . S
C3012 C3006 1.368 . S
C3012 C3011 1.523 . S
C3013 C2997 1.429 . S
C3013 C3009 1.429 . S
C3013 C3014 1.523 . S
C3014 C2998 1.368 . S
C3014 C3010 1.368 . S
C3014 C3013 1.523 . S
H3015 C2990 0.950 . S
H3016 C2992 0.950 . S
H3017 C2993 0.949 . S
H3018 C2995 0.950 . S
H3019 C2997 0.950 . S
C3020 C3021 1.349 . S
C3020 C3022 1.327 . S
C3020 H3045 0.950 . S
C3021 C3020 1.349 . S
C3021 C3037 1.349 . S
C3022 C3020 1.327 . S
C3022 C3041 1.429 . S
C3022 H3046 0.950 . S
C3023 C3040 1.574 . S
C3023 C3042 1.368 . S
C3023 H3047 0.949 . S
H3024 C3028 0.949 . S
C3025 C3026 1.349 . S
C3025 C3027 1.327 . S
C3025 H3048 0.950 . S
C3026 C3025 1.349 . S
C3026 C3038 1.349 . S
C3027 C3025 1.327 . S
C3027 C3043 1.429 . S
C3027 H3049 0.950 . S
C3028 H3024 0.949 . S
C3028 C3036 1.574 . S
C3028 C3044 1.368 . S
H3029 C3037 0.950 1_554 S
H3030 C3035 0.950 . S
H3031 C3036 0.949 . S
H3032 C3038 0.950 . S
H3033 C3039 0.950 . S
H3034 C3040 0.949 . S
C3035 H3030 0.950 . S
C3035 C3037 1.327 . S
C3035 C3041 1.429 . S
C3036 C3028 1.574 . S
C3036 H3031 0.949 . S
C3036 C3042 1.368 . S
C3037 C3021 1.349 . S
C3037 H3029 0.950 1_556 S
C3037 C3035 1.327 . S
C3038 C3026 1.349 . S
C3038 H3032 0.950 . S
C3038 C3039 1.327 . S
C3039 H3033 0.950 . S
C3039 C3038 1.327 . S
C3039 C3043 1.429 . S
C3040 C3023 1.574 . S
C3040 H3034 0.949 . S
C3040 C3044 1.368 . S
C3041 C3022 1.429 . S
C3041 C3035 1.429 . S
C3041 C3042 1.523 . S
C3042 C3023 1.368 . S
C3042 C3036 1.368 . S
C3042 C3041 1.523 . S
C3043 C3027 1.429 . S
C3043 C3039 1.429 . S
C3043 C3044 1.523 . S
C3044 C3028 1.368 . S
C3044 C3040 1.368 . S
C3044 C3043 1.523 . S
H3045 C3020 0.950 . S
H3046 C3022 0.950 . S
H3047 C3023 0.949 . S
H3048 C3025 0.950 . S
H3049 C3027 0.950 . S
C3050 C3051 1.349 . S
C3050 C3052 1.327 . S
C3050 H3075 0.950 . S
C3051 C3050 1.349 . S
C3051 C3067 1.349 . S
C3052 C3050 1.327 . S
C3052 C3071 1.429 . S
C3052 H3076 0.950 . S
C3053 C3070 1.574 . S
C3053 C3072 1.368 . S
C3053 H3077 0.949 . S
H3054 C3058 0.949 . S
C3055 C3056 1.349 . S
C3055 C3057 1.327 . S
C3055 H3078 0.950 . S
C3056 C3055 1.349 . S
C3056 C3068 1.349 . S
C3057 C3055 1.327 . S
C3057 C3073 1.429 . S
C3057 H3079 0.950 . S
C3058 H3054 0.949 . S
C3058 C3066 1.574 . S
C3058 C3074 1.368 . S
H3059 C3067 0.950 . S
H3060 C3065 0.950 . S
H3061 C3066 0.949 . S
H3062 C3068 0.950 . S
H3063 C3069 0.950 . S
H3064 C3070 0.949 . S
C3065 H3060 0.950 . S
C3065 C3067 1.327 . S
C3065 C3071 1.429 . S
C3066 C3058 1.574 . S
C3066 H3061 0.949 . S
C3066 C3072 1.368 . S
C3067 C3051 1.349 . S
C3067 H3059 0.950 . S
C3067 C3065 1.327 . S
C3068 C3056 1.349 . S
C3068 H3062 0.950 . S
C3068 C3069 1.327 . S
C3069 H3063 0.950 . S
C3069 C3068 1.327 . S
C3069 C3073 1.429 . S
C3070 C3053 1.574 . S
C3070 H3064 0.949 . S
C3070 C3074 1.368 . S
C3071 C3052 1.429 . S
C3071 C3065 1.429 . S
C3071 C3072 1.523 . S
C3072 C3053 1.368 . S
C3072 C3066 1.368 . S
C3072 C3071 1.523 . S
C3073 C3057 1.429 . S
C3073 C3069 1.429 . S
C3073 C3074 1.523 . S
C3074 C3058 1.368 . S
C3074 C3070 1.368 . S
C3074 C3073 1.523 . S
H3075 C3050 0.950 . S
H3076 C3052 0.950 . S
H3077 C3053 0.949 . S
H3078 C3055 0.950 . S
H3079 C3057 0.950 . S
C3080 C3081 1.349 . S
C3080 C3082 1.327 1_455 S
C3080 H3105 0.950 1_455 S
C3081 C3080 1.349 . S
C3081 C3097 1.349 . S
C3082 C3080 1.327 1_655 S
C3082 C3101 1.429 1_655 S
C3082 H3106 0.950 . S
C3083 C3100 1.574 1_455 S
C3083 C3102 1.368 1_455 S
C3083 H3107 0.949 . S
H3084 C3088 0.949 . S
C3085 C3086 1.349 . S
C3085 C3087 1.327 . S
C3085 H3108 0.950 . S
C3086 C3085 1.349 . S
C3086 C3098 1.349 . S
C3087 C3085 1.327 . S
C3087 C3103 1.429 . S
C3087 H3109 0.950 . S
C3088 H3084 0.949 . S
C3088 C3096 1.574 . S
C3088 C3104 1.368 . S
H3089 C3097 0.950 . S
H3090 C3095 0.950 . S
H3091 C3096 0.949 . S
H3092 C3098 0.950 . S
H3093 C3099 0.950 . S
H3094 C3100 0.949 . S
C3095 H3090 0.950 . S
C3095 C3097 1.327 . S
C3095 C3101 1.429 . S
C3096 C3088 1.574 . S
C3096 H3091 0.949 . S
C3096 C3102 1.368 . S
C3097 C3081 1.349 . S
C3097 H3089 0.950 . S
C3097 C3095 1.327 . S
C3098 C3086 1.349 . S
C3098 H3092 0.950 . S
C3098 C3099 1.327 . S
C3099 H3093 0.950 . S
C3099 C3098 1.327 . S
C3099 C3103 1.429 . S
C3100 C3083 1.574 1_655 S
C3100 H3094 0.949 . S
C3100 C3104 1.368 . S
C3101 C3082 1.429 1_455 S
C3101 C3095 1.429 . S
C3101 C3102 1.523 1_455 S
C3102 C3083 1.368 1_655 S
C3102 C3096 1.368 . S
C3102 C3101 1.523 1_655 S
C3103 C3087 1.429 . S
C3103 C3099 1.429 . S
C3103 C3104 1.523 . S
C3104 C3088 1.368 . S
C3104 C3100 1.368 . S
C3104 C3103 1.523 . S
H3105 C3080 0.950 1_655 S
H3106 C3082 0.950 . S
H3107 C3083 0.949 . S
H3108 C3085 0.950 . S
H3109 C3087 0.950 . S
C3110 C3111 1.349 . S
C3110 C3112 1.327 . S
C3110 H3135 0.950 . S
C3111 C3110 1.349 . S
C3111 C3127 1.349 . S
C3112 C3110 1.327 . S
C3112 C3131 1.429 . S
C3112 H3136 0.950 . S
C3113 C3130 1.574 . S
C3113 C3132 1.368 . S
C3113 H3137 0.949 . S
H3114 C3118 0.949 . S
C3115 C3116 1.349 . S
C3115 C3117 1.327 . S
C3115 H3138 0.950 . S
C3116 C3115 1.349 . S
C3116 C3128 1.349 . S
C3117 C3115 1.327 . S
C3117 C3133 1.429 . S
C3117 H3139 0.950 . S
C3118 H3114 0.949 . S
C3118 C3126 1.574 . S
C3118 C3134 1.368 . S
H3119 C3127 0.950 . S
H3120 C3125 0.950 . S
H3121 C3126 0.949 . S
H3122 C3128 0.950 . S
H3123 C3129 0.950 . S
H3124 C3130 0.949 . S
C3125 H3120 0.950 . S
C3125 C3127 1.327 . S
C3125 C3131 1.429 . S
C3126 C3118 1.574 . S
C3126 H3121 0.949 . S
C3126 C3132 1.368 . S
C3127 C3111 1.349 . S
C3127 H3119 0.950 . S
C3127 C3125 1.327 . S
C3128 C3116 1.349 . S
C3128 H3122 0.950 . S
C3128 C3129 1.327 . S
C3129 H3123 0.950 . S
C3129 C3128 1.327 . S
C3129 C3133 1.429 . S
C3130 C3113 1.574 . S
C3130 H3124 0.949 . S
C3130 C3134 1.368 . S
C3131 C3112 1.429 . S
C3131 C3125 1.429 . S
C3131 C3132 1.523 . S
C3132 C3113 1.368 . S
C3132 C3126 1.368 . S
C3132 C3131 1.523 . S
C3133 C3117 1.429 . S
C3133 C3129 1.429 . S
C3133 C3134 1.523 . S
C3134 C3118 1.368 . S
C3134 C3130 1.368 . S
C3134 C3133 1.523 . S
H3135 C3110 0.950 . S
H3136 C3112 0.950 . S
H3137 C3113 0.949 . S
H3138 C3115 0.950 . S
H3139 C3117 0.950 . S
C3140 C3141 1.349 . S
C3140 C3142 1.327 . S
C3140 H3165 0.950 . S
C3141 C3140 1.349 . S
C3141 C3157 1.349 . S
C3142 C3140 1.327 . S
C3142 C3161 1.428 . S
C3142 H3166 0.950 1_554 S
C3143 C3160 1.574 . S
C3143 C3162 1.368 . S
C3143 H3167 0.949 . S
H3144 C3148 0.949 . S
C3145 C3146 1.349 . S
C3145 C3147 1.327 . S
C3145 H3168 0.950 . S
C3146 C3145 1.349 . S
C3146 C3158 1.349 . S
C3147 C3145 1.327 . S
C3147 C3163 1.429 . S
C3147 H3169 0.950 . S
C3148 H3144 0.949 . S
C3148 C3156 1.574 . S
C3148 C3164 1.368 . S
H3149 C3157 0.950 . S
H3150 C3155 0.950 . S
H3151 C3156 0.949 . S
H3152 C3158 0.950 . S
H3153 C3159 0.950 . S
H3154 C3160 0.949 . S
C3155 H3150 0.950 . S
C3155 C3157 1.327 . S
C3155 C3161 1.427 . S
C3156 C3148 1.574 . S
C3156 H3151 0.949 . S
C3156 C3162 1.368 . S
C3157 C3141 1.349 . S
C3157 H3149 0.950 . S
C3157 C3155 1.327 . S
C3158 C3146 1.349 . S
C3158 H3152 0.950 . S
C3158 C3159 1.327 . S
C3159 H3153 0.950 . S
C3159 C3158 1.327 . S
C3159 C3163 1.429 . S
C3160 C3143 1.574 . S
C3160 H3154 0.949 . S
C3160 C3164 1.368 . S
C3161 C3142 1.428 . S
C3161 C3155 1.427 . S
C3161 C3162 1.525 1_554 S
C3162 C3143 1.368 . S
C3162 C3156 1.368 . S
C3162 C3161 1.525 1_556 S
C3163 C3147 1.429 . S
C3163 C3159 1.429 . S
C3163 C3164 1.523 . S
C3164 C3148 1.368 . S
C3164 C3160 1.368 . S
C3164 C3163 1.523 . S
H3165 C3140 0.950 . S
H3166 C3142 0.950 1_556 S
H3167 C3143 0.949 . S
H3168 C3145 0.950 . S
H3169 C3147 0.950 . S
C3170 C3171 1.349 . S
C3170 C3172 1.327 . S
C3170 H3195 0.950 . S
C3171 C3170 1.349 . S
C3171 C3187 1.349 . S
C3172 C3170 1.327 . S
C3172 C3191 1.429 . S
C3172 H3196 0.950 . S
C3173 C3190 1.574 . S
C3173 C3192 1.368 . S
C3173 H3197 0.949 . S
H3174 C3178 0.949 . S
C3175 C3176 1.349 . S
C3175 C3177 1.327 . S
C3175 H3198 0.950 . S
C3176 C3175 1.349 . S
C3176 C3188 1.349 . S
C3177 C3175 1.327 . S
C3177 C3193 1.429 . S
C3177 H3199 0.950 . S
C3178 H3174 0.949 . S
C3178 C3186 1.574 . S
C3178 C3194 1.368 . S
H3179 C3187 0.950 . S
H3180 C3185 0.950 . S
H3181 C3186 0.949 . S
H3182 C3188 0.950 . S
H3183 C3189 0.950 . S
H3184 C3190 0.949 . S
C3185 H3180 0.950 . S
C3185 C3187 1.327 . S
C3185 C3191 1.429 . S
C3186 C3178 1.574 . S
C3186 H3181 0.949 . S
C3186 C3192 1.368 . S
C3187 C3171 1.349 . S
C3187 H3179 0.950 . S
C3187 C3185 1.327 . S
C3188 C3176 1.349 . S
C3188 H3182 0.950 . S
C3188 C3189 1.327 . S
C3189 H3183 0.950 . S
C3189 C3188 1.327 . S
C3189 C3193 1.429 . S
C3190 C3173 1.574 . S
C3190 H3184 0.949 . S
C3190 C3194 1.368 . S
C3191 C3172 1.429 . S
C3191 C3185 1.429 . S
C3191 C3192 1.523 . S
C3192 C3173 1.368 . S
C3192 C3186 1.368 . S
C3192 C3191 1.523 . S
C3193 C3177 1.429 . S
C3193 C3189 1.429 . S
C3193 C3194 1.523 . S
C3194 C3178 1.368 . S
C3194 C3190 1.368 . S
C3194 C3193 1.523 . S
H3195 C3170 0.950 . S
H3196 C3172 0.950 . S
H3197 C3173 0.949 . S
H3198 C3175 0.950 . S
H3199 C3177 0.950 . S
C3200 C3201 1.349 . S
C3200 C3202 1.327 . S
C3200 H3225 0.950 . S
C3201 C3200 1.349 . S
C3201 C3217 1.349 . S
C3202 C3200 1.327 . S
C3202 C3221 1.429 . S
C3202 H3226 0.950 . S
C3203 C3220 1.574 . S
C3203 C3222 1.368 . S
C3203 H3227 0.949 . S
H3204 C3208 0.949 . S
C3205 C3206 1.349 . S
C3205 C3207 1.327 . S
C3205 H3228 0.950 . S
C3206 C3205 1.349 . S
C3206 C3218 1.349 . S
C3207 C3205 1.327 . S
C3207 C3223 1.429 . S
C3207 H3229 0.950 . S
C3208 H3204 0.949 . S
C3208 C3216 1.574 . S
C3208 C3224 1.368 . S
H3209 C3217 0.950 . S
H3210 C3215 0.950 . S
H3211 C3216 0.949 . S
H3212 C3218 0.950 . S
H3213 C3219 0.950 . S
H3214 C3220 0.949 . S
C3215 H3210 0.950 . S
C3215 C3217 1.327 . S
C3215 C3221 1.429 . S
C3216 C3208 1.574 . S
C3216 H3211 0.949 . S
C3216 C3222 1.368 . S
C3217 C3201 1.349 . S
C3217 H3209 0.950 . S
C3217 C3215 1.327 . S
C3218 C3206 1.349 . S
C3218 H3212 0.950 . S
C3218 C3219 1.327 . S
C3219 H3213 0.950 . S
C3219 C3218 1.327 . S
C3219 C3223 1.429 . S
C3220 C3203 1.574 . S
C3220 H3214 0.949 . S
C3220 C3224 1.368 . S
C3221 C3202 1.429 . S
C3221 C3215 1.429 . S
C3221 C3222 1.523 . S
C3222 C3203 1.368 . S
C3222 C3216 1.368 . S
C3222 C3221 1.523 . S
C3223 C3207 1.429 . S
C3223 C3219 1.429 . S
C3223 C3224 1.523 . S
C3224 C3208 1.368 . S
C3224 C3220 1.368 . S
C3224 C3223 1.523 . S
H3225 C3200 0.950 . S
H3226 C3202 0.950 . S
H3227 C3203 0.949 . S
H3228 C3205 0.950 . S
H3229 C3207 0.950 . S
C3230 C3231 1.349 . S
C3230 C3232 1.327 . S
C3230 H3255 0.950 . S
C3231 C3230 1.349 . S
C3231 C3247 1.349 . S
C3232 C3230 1.327 . S
C3232 C3251 1.429 . S
C3232 H3256 0.950 . S
C3233 C3250 1.574 . S
C3233 C3252 1.368 . S
C3233 H3257 0.949 . S
H3234 C3238 0.949 . S
C3235 C3236 1.349 . S
C3235 C3237 1.327 . S
C3235 H3258 0.950 . S
C3236 C3235 1.349 . S
C3236 C3248 1.349 . S
C3237 C3235 1.327 . S
C3237 C3253 1.429 . S
C3237 H3259 0.950 . S
C3238 H3234 0.949 . S
C3238 C3246 1.574 . S
C3238 C3254 1.368 . S
H3239 C3247 0.950 . S
H3240 C3245 0.950 . S
H3241 C3246 0.949 . S
H3242 C3248 0.950 . S
H3243 C3249 0.950 . S
H3244 C3250 0.949 . S
C3245 H3240 0.950 . S
C3245 C3247 1.327 . S
C3245 C3251 1.429 . S
C3246 C3238 1.574 . S
C3246 H3241 0.949 . S
C3246 C3252 1.368 . S
C3247 C3231 1.349 . S
C3247 H3239 0.950 . S
C3247 C3245 1.327 . S
C3248 C3236 1.349 . S
C3248 H3242 0.950 . S
C3248 C3249 1.327 . S
C3249 H3243 0.950 . S
C3249 C3248 1.327 . S
C3249 C3253 1.429 . S
C3250 C3233 1.574 . S
C3250 H3244 0.949 . S
C3250 C3254 1.368 . S
C3251 C3232 1.429 . S
C3251 C3245 1.429 . S
C3251 C3252 1.523 . S
C3252 C3233 1.368 . S
C3252 C3246 1.368 . S
C3252 C3251 1.523 . S
C3253 C3237 1.429 . S
C3253 C3249 1.429 . S
C3253 C3254 1.523 . S
C3254 C3238 1.368 . S
C3254 C3250 1.368 . S
C3254 C3253 1.523 . S
H3255 C3230 0.950 . S
H3256 C3232 0.950 . S
H3257 C3233 0.949 . S
H3258 C3235 0.950 . S
H3259 C3237 0.950 . S
C3260 C3261 1.349 . S
C3260 C3262 1.327 . S
C3260 H3285 0.950 . S
C3261 C3260 1.349 . S
C3261 C3277 1.349 . S
C3262 C3260 1.327 . S
C3262 C3281 1.429 1_554 S
C3262 H3286 0.950 1_554 S
C3263 C3280 1.574 . S
C3263 C3282 1.368 1_455 S
C3263 H3287 0.949 . S
H3264 C3268 0.957 . S
C3265 C3266 1.349 . S
C3265 C3267 1.327 . S
C3265 H3288 0.950 . S
C3266 C3265 1.349 . S
C3266 C3278 1.349 . S
C3267 C3265 1.327 . S
C3267 C3283 1.429 . S
C3267 H3289 0.950 . S
C3268 H3264 0.957 . S
C3268 C3276 1.587 . S
C3268 C3284 1.347 1_655 S
H3269 C3277 0.950 . S
H3270 C3275 0.950 1_455 S
H3271 C3276 0.949 . S
H3272 C3278 0.950 . S
H3273 C3279 0.950 . S
H3274 C3280 0.949 . S
C3275 H3270 0.950 1_655 S
C3275 C3277 1.327 . S
C3275 C3281 1.429 1_554 S
C3276 C3268 1.587 . S
C3276 H3271 0.949 . S
C3276 C3282 1.368 . S
C3277 C3261 1.349 . S
C3277 H3269 0.950 . S
C3277 C3275 1.327 . S
C3278 C3266 1.349 . S
C3278 H3272 0.950 . S
C3278 C3279 1.327 . S
C3279 H3273 0.950 . S
C3279 C3278 1.327 . S
C3279 C3283 1.429 . S
C3280 C3263 1.574 . S
C3280 H3274 0.949 . S
C3280 C3284 1.368 . S
C3281 C3262 1.429 1_556 S
C3281 C3275 1.429 1_556 S
C3281 C3282 1.523 . S
C3282 C3263 1.368 1_655 S
C3282 C3276 1.368 . S
C3282 C3281 1.523 . S
C3283 C3267 1.429 . S
C3283 C3279 1.429 . S
C3283 C3284 1.523 . S
C3284 C3268 1.347 1_455 S
C3284 C3280 1.368 . S
C3284 C3283 1.523 . S
H3285 C3260 0.950 . S
H3286 C3262 0.950 1_556 S
H3287 C3263 0.949 . S
H3288 C3265 0.950 . S
H3289 C3267 0.950 . S
C3290 C3291 1.349 . S
C3290 C3292 1.327 . S
C3290 H3315 0.950 . S
C3291 C3290 1.349 . S
C3291 C3307 1.349 . S
C3292 C3290 1.327 . S
C3292 C3311 1.429 . S
C3292 H3316 0.950 . S
C3293 C3310 1.574 . S
C3293 C3312 1.368 . S
C3293 H3317 0.949 . S
H3294 C3298 0.949 . S
C3295 C3296 1.349 . S
C3295 C3297 1.327 . S
C3295 H3318 0.950 . S
C3296 C3295 1.349 . S
C3296 C3308 1.349 . S
C3297 C3295 1.327 . S
C3297 C3313 1.429 . S
C3297 H3319 0.950 . S
C3298 H3294 0.949 . S
C3298 C3306 1.574 . S
C3298 C3314 1.368 . S
H3299 C3307 0.950 . S
H3300 C3305 0.950 . S
H3301 C3306 0.949 . S
H3302 C3308 0.950 . S
H3303 C3309 0.950 . S
H3304 C3310 0.949 . S
C3305 H3300 0.950 . S
C3305 C3307 1.327 . S
C3305 C3311 1.429 . S
C3306 C3298 1.574 . S
C3306 H3301 0.949 . S
C3306 C3312 1.368 . S
C3307 C3291 1.349 . S
C3307 H3299 0.950 . S
C3307 C3305 1.327 . S
C3308 C3296 1.349 . S
C3308 H3302 0.950 . S
C3308 C3309 1.327 . S
C3309 H3303 0.950 . S
C3309 C3308 1.327 . S
C3309 C3313 1.429 . S
C3310 C3293 1.574 . S
C3310 H3304 0.949 . S
C3310 C3314 1.368 . S
C3311 C3292 1.429 . S
C3311 C3305 1.429 . S
C3311 C3312 1.523 . S
C3312 C3293 1.368 . S
C3312 C3306 1.368 . S
C3312 C3311 1.523 . S
C3313 C3297 1.429 . S
C3313 C3309 1.429 . S
C3313 C3314 1.523 . S
C3314 C3298 1.368 . S
C3314 C3310 1.368 . S
C3314 C3313 1.523 . S
H3315 C3290 0.950 . S
H3316 C3292 0.950 . S
H3317 C3293 0.949 . S
H3318 C3295 0.950 . S
H3319 C3297 0.950 . S
C3320 C3321 1.349 . S
C3320 C3322 1.327 . S
C3320 H3345 0.950 . S
C3321 C3320 1.349 . S
C3321 C3337 1.349 . S
C3322 C3320 1.327 . S
C3322 C3341 1.429 . S
C3322 H3346 0.950 . S
C3323 C3340 1.574 . S
C3323 C3342 1.368 . S
C3323 H3347 0.949 . S
H3324 C3328 0.949 . S
C3325 C3326 1.349 . S
C3325 C3327 1.327 . S
C3325 H3348 0.950 . S
C3326 C3325 1.349 . S
C3326 C3338 1.349 . S
C3327 C3325 1.327 . S
C3327 C3343 1.429 . S
C3327 H3349 0.950 . S
C3328 H3324 0.949 . S
C3328 C3336 1.574 . S
C3328 C3344 1.368 . S
H3329 C3337 0.950 . S
H3330 C3335 0.950 . S
H3331 C3336 0.949 . S
H3332 C3338 0.950 . S
H3333 C3339 0.950 . S
H3334 C3340 0.949 . S
C3335 H3330 0.950 . S
C3335 C3337 1.327 . S
C3335 C3341 1.429 . S
C3336 C3328 1.574 . S
C3336 H3331 0.949 . S
C3336 C3342 1.368 . S
C3337 C3321 1.349 . S
C3337 H3329 0.950 . S
C3337 C3335 1.327 . S
C3338 C3326 1.349 . S
C3338 H3332 0.950 . S
C3338 C3339 1.327 . S
C3339 H3333 0.950 . S
C3339 C3338 1.327 . S
C3339 C3343 1.429 . S
C3340 C3323 1.574 . S
C3340 H3334 0.949 . S
C3340 C3344 1.368 . S
C3341 C3322 1.429 . S
C3341 C3335 1.429 . S
C3341 C3342 1.523 . S
C3342 C3323 1.368 . S
C3342 C3336 1.368 . S
C3342 C3341 1.523 . S
C3343 C3327 1.429 . S
C3343 C3339 1.429 . S
C3343 C3344 1.523 . S
C3344 C3328 1.368 . S
C3344 C3340 1.368 . S
C3344 C3343 1.523 . S
H3345 C3320 0.950 . S
H3346 C3322 0.950 . S
H3347 C3323 0.949 . S
H3348 C3325 0.950 . S
H3349 C3327 0.950 . S
C3350 C3351 1.349 . S
C3350 C3352 1.327 . S
C3350 H3375 0.950 . S
C3351 C3350 1.349 . S
C3351 C3367 1.349 . S
C3352 C3350 1.327 . S
C3352 C3371 1.429 . S
C3352 H3376 0.950 . S
C3353 C3370 1.574 . S
C3353 C3372 1.368 . S
C3353 H3377 0.949 . S
H3354 C3358 0.949 . S
C3355 C3356 1.349 . S
C3355 C3357 1.327 . S
C3355 H3378 0.950 . S
C3356 C3355 1.349 . S
C3356 C3368 1.349 . S
C3357 C3355 1.327 . S
C3357 C3373 1.429 . S
C3357 H3379 0.950 . S
C3358 H3354 0.949 . S
C3358 C3366 1.574 . S
C3358 C3374 1.368 . S
H3359 C3367 0.950 . S
H3360 C3365 0.950 . S
H3361 C3366 0.949 . S
H3362 C3368 0.950 . S
H3363 C3369 0.950 . S
H3364 C3370 0.949 . S
C3365 H3360 0.950 . S
C3365 C3367 1.327 . S
C3365 C3371 1.429 . S
C3366 C3358 1.574 . S
C3366 H3361 0.949 . S
C3366 C3372 1.368 . S
C3367 C3351 1.349 . S
C3367 H3359 0.950 . S
C3367 C3365 1.327 . S
C3368 C3356 1.349 . S
C3368 H3362 0.950 . S
C3368 C3369 1.327 . S
C3369 H3363 0.950 . S
C3369 C3368 1.327 . S
C3369 C3373 1.429 . S
C3370 C3353 1.574 . S
C3370 H3364 0.949 . S
C3370 C3374 1.368 . S
C3371 C3352 1.429 . S
C3371 C3365 1.429 . S
C3371 C3372 1.523 . S
C3372 C3353 1.368 . S
C3372 C3366 1.368 . S
C3372 C3371 1.523 . S
C3373 C3357 1.429 . S
C3373 C3369 1.429 . S
C3373 C3374 1.523 . S
C3374 C3358 1.368 . S
C3374 C3370 1.368 . S
C3374 C3373 1.523 . S
H3375 C3350 0.950 . S
H3376 C3352 0.950 . S
H3377 C3353 0.949 . S
H3378 C3355 0.950 . S
H3379 C3357 0.950 . S
C3380 C3381 1.349 1_556 S
C3380 C3382 1.324 1_455 S
C3380 H3405 0.950 1_556 S
C3381 C3380 1.349 1_554 S
C3381 C3397 1.349 1_554 S
C3382 C3380 1.324 1_655 S
C3382 C3401 1.428 1_655 S
C3382 H3406 0.953 . S
C3383 C3400 1.574 . S
C3383 C3402 1.368 . S
C3383 H3407 0.949 1_655 S
H3384 C3388 0.949 . S
C3385 C3386 1.349 . S
C3385 C3387 1.327 . S
C3385 H3408 0.950 . S
C3386 C3385 1.349 . S
C3386 C3398 1.349 . S
C3387 C3385 1.327 . S
C3387 C3403 1.429 . S
C3387 H3409 0.950 . S
C3388 H3384 0.949 . S
C3388 C3396 1.574 . S
C3388 C3404 1.368 . S
H3389 C3397 0.950 . S
H3390 C3395 0.950 . S
H3391 C3396 0.949 . S
H3392 C3398 0.950 . S
H3393 C3399 0.950 . S
H3394 C3400 0.949 . S
C3395 H3390 0.950 . S
C3395 C3397 1.327 . S
C3395 C3401 1.429 . S
C3396 C3388 1.574 . S
C3396 H3391 0.949 . S
C3396 C3402 1.368 . S
C3397 C3381 1.349 1_556 S
C3397 H3389 0.950 . S
C3397 C3395 1.327 . S
C3398 C3386 1.349 . S
C3398 H3392 0.950 . S
C3398 C3399 1.327 . S
C3399 H3393 0.950 . S
C3399 C3398 1.327 . S
C3399 C3403 1.429 . S
C3400 C3383 1.574 . S
C3400 H3394 0.949 . S
C3400 C3404 1.368 . S
C3401 C3382 1.428 1_455 S
C3401 C3395 1.429 . S
C3401 C3402 1.523 1_455 S
C3402 C3383 1.368 . S
C3402 C3396 1.368 . S
C3402 C3401 1.523 1_655 S
C3403 C3387 1.429 . S
C3403 C3399 1.429 . S
C3403 C3404 1.523 . S
C3404 C3388 1.368 . S
C3404 C3400 1.368 . S
C3404 C3403 1.523 . S
H3405 C3380 0.950 1_554 S
H3406 C3382 0.953 . S
H3407 C3383 0.949 1_455 S
H3408 C3385 0.950 . S
H3409 C3387 0.950 . S
C3410 C3411 1.349 . S
C3410 C3412 1.327 . S
C3410 H3435 0.950 . S
C3411 C3410 1.349 . S
C3411 C3427 1.349 . S
C3412 C3410 1.327 . S
C3412 C3431 1.429 . S
C3412 H3436 0.950 . S
C3413 C3430 1.574 . S
C3413 C3432 1.368 . S
C3413 H3437 0.949 . S
H3414 C3418 0.949 . S
C3415 C3416 1.349 . S
C3415 C3417 1.327 . S
C3415 H3438 0.950 . S
C3416 C3415 1.349 . S
C3416 C3428 1.349 . S
C3417 C3415 1.327 . S
C3417 C3433 1.429 . S
C3417 H3439 0.950 . S
C3418 H3414 0.949 . S
C3418 C3426 1.574 . S
C3418 C3434 1.368 . S
H3419 C3427 0.950 . S
H3420 C3425 0.950 . S
H3421 C3426 0.949 . S
H3422 C3428 0.950 . S
H3423 C3429 0.950 . S
H3424 C3430 0.949 . S
C3425 H3420 0.950 . S
C3425 C3427 1.327 . S
C3425 C3431 1.429 . S
C3426 C3418 1.574 . S
C3426 H3421 0.949 . S
C3426 C3432 1.368 . S
C3427 C3411 1.349 . S
C3427 H3419 0.950 . S
C3427 C3425 1.327 . S
C3428 C3416 1.349 . S
C3428 H3422 0.950 . S
C3428 C3429 1.327 . S
C3429 H3423 0.950 . S
C3429 C3428 1.327 . S
C3429 C3433 1.429 . S
C3430 C3413 1.574 . S
C3430 H3424 0.949 . S
C3430 C3434 1.368 . S
C3431 C3412 1.429 . S
C3431 C3425 1.429 . S
C3431 C3432 1.523 . S
C3432 C3413 1.368 . S
C3432 C3426 1.368 . S
C3432 C3431 1.523 . S
C3433 C3417 1.429 . S
C3433 C3429 1.429 . S
C3433 C3434 1.523 . S
C3434 C3418 1.368 . S
C3434 C3430 1.368 . S
C3434 C3433 1.523 . S
H3435 C3410 0.950 . S
H3436 C3412 0.950 . S
H3437 C3413 0.949 . S
H3438 C3415 0.950 . S
H3439 C3417 0.950 . S
C3440 C3441 1.349 . S
C3440 C3442 1.327 . S
C3440 H3465 0.950 . S
C3441 C3440 1.349 . S
C3441 C3457 1.349 . S
C3442 C3440 1.327 . S
C3442 C3461 1.429 . S
C3442 H3466 0.950 . S
C3443 C3460 1.574 . S
C3443 C3462 1.368 . S
C3443 H3467 0.949 . S
H3444 C3448 0.949 . S
C3445 C3446 1.349 . S
C3445 C3447 1.327 . S
C3445 H3468 0.950 . S
C3446 C3445 1.349 . S
C3446 C3458 1.349 . S
C3447 C3445 1.327 . S
C3447 C3463 1.429 . S
C3447 H3469 0.950 . S
C3448 H3444 0.949 . S
C3448 C3456 1.574 . S
C3448 C3464 1.368 . S
H3449 C3457 0.950 . S
H3450 C3455 0.950 . S
H3451 C3456 0.949 . S
H3452 C3458 0.950 1_554 S
H3453 C3459 0.950 . S
H3454 C3460 0.949 . S
C3455 H3450 0.950 . S
C3455 C3457 1.327 . S
C3455 C3461 1.429 . S
C3456 C3448 1.574 . S
C3456 H3451 0.949 . S
C3456 C3462 1.368 . S
C3457 C3441 1.349 . S
C3457 H3449 0.950 . S
C3457 C3455 1.327 . S
C3458 C3446 1.349 . S
C3458 H3452 0.950 1_556 S
C3458 C3459 1.327 . S
C3459 H3453 0.950 . S
C3459 C3458 1.327 . S
C3459 C3463 1.429 . S
C3460 C3443 1.574 . S
C3460 H3454 0.949 . S
C3460 C3464 1.368 . S
C3461 C3442 1.429 . S
C3461 C3455 1.429 . S
C3461 C3462 1.523 . S
C3462 C3443 1.368 . S
C3462 C3456 1.368 . S
C3462 C3461 1.523 . S
C3463 C3447 1.429 . S
C3463 C3459 1.429 . S
C3463 C3464 1.523 . S
C3464 C3448 1.368 . S
C3464 C3460 1.368 . S
C3464 C3463 1.523 . S
H3465 C3440 0.950 . S
H3466 C3442 0.950 . S
H3467 C3443 0.949 . S
H3468 C3445 0.950 . S
H3469 C3447 0.950 . S
C3470 C3471 1.349 . S
C3470 C3472 1.327 . S
C3470 H3495 0.950 . S
C3471 C3470 1.349 . S
C3471 C3487 1.349 . S
C3472 C3470 1.327 . S
C3472 C3491 1.429 . S
C3472 H3496 0.950 . S
C3473 C3490 1.574 . S
C3473 C3492 1.368 . S
C3473 H3497 0.949 . S
H3474 C3478 0.949 . S
C3475 C3476 1.349 . S
C3475 C3477 1.327 . S
C3475 H3498 0.950 . S
C3476 C3475 1.349 . S
C3476 C3488 1.349 . S
C3477 C3475 1.327 . S
C3477 C3493 1.429 . S
C3477 H3499 0.950 . S
C3478 H3474 0.949 . S
C3478 C3486 1.574 . S
C3478 C3494 1.368 . S
H3479 C3487 0.950 . S
H3480 C3485 0.950 . S
H3481 C3486 0.949 . S
H3482 C3488 0.950 . S
H3483 C3489 0.950 . S
H3484 C3490 0.949 . S
C3485 H3480 0.950 . S
C3485 C3487 1.327 . S
C3485 C3491 1.429 . S
C3486 C3478 1.574 . S
C3486 H3481 0.949 . S
C3486 C3492 1.368 . S
C3487 C3471 1.349 . S
C3487 H3479 0.950 . S
C3487 C3485 1.327 . S
C3488 C3476 1.349 . S
C3488 H3482 0.950 . S
C3488 C3489 1.327 . S
C3489 H3483 0.950 . S
C3489 C3488 1.327 . S
C3489 C3493 1.429 . S
C3490 C3473 1.574 . S
C3490 H3484 0.949 . S
C3490 C3494 1.368 . S
C3491 C3472 1.429 . S
C3491 C3485 1.429 . S
C3491 C3492 1.523 . S
C3492 C3473 1.368 . S
C3492 C3486 1.368 . S
C3492 C3491 1.523 . S
C3493 C3477 1.429 . S
C3493 C3489 1.429 . S
C3493 C3494 1.523 . S
C3494 C3478 1.368 . S
C3494 C3490 1.368 . S
C3494 C3493 1.523 . S
H3495 C3470 0.950 . S
H3496 C3472 0.950 . S
H3497 C3473 0.949 . S
H3498 C3475 0.950 . S
H3499 C3477 0.950 . S
C3500 C3501 1.349 . S
C3500 C3502 1.327 . S
C3500 H3525 0.950 . S
C3501 C3500 1.349 . S
C3501 C3517 1.349 . S
C3502 C3500 1.327 . S
C3502 C3521 1.429 . S
C3502 H3526 0.950 . S
C3503 C3520 1.574 1_455 S
C3503 C3522 1.368 . S
C3503 H3527 0.949 . S
H3504 C3508 0.949 . S
C3505 C3506 1.349 . S
C3505 C3507 1.327 . S
C3505 H3528 0.950 . S
C3506 C3505 1.349 . S
C3506 C3518 1.349 . S
C3507 C3505 1.327 . S
C3507 C3523 1.429 . S
C3507 H3529 0.950 . S
C3508 H3504 0.949 . S
C3508 C3516 1.574 . S
C3508 C3524 1.368 . S
H3509 C3517 0.950 . S
H3510 C3515 0.950 . S
H3511 C3516 0.949 . S
H3512 C3518 0.950 . S
H3513 C3519 0.950 . S
H3514 C3520 0.949 . S
C3515 H3510 0.950 . S
C3515 C3517 1.327 . S
C3515 C3521 1.429 . S
C3516 C3508 1.574 . S
C3516 H3511 0.949 . S
C3516 C3522 1.368 1_655 S
C3517 C3501 1.349 . S
C3517 H3509 0.950 . S
C3517 C3515 1.327 . S
C3518 C3506 1.349 . S
C3518 H3512 0.950 . S
C3518 C3519 1.327 . S
C3519 H3513 0.950 . S
C3519 C3518 1.327 . S
C3519 C3523 1.429 . S
C3520 C3503 1.574 1_655 S
C3520 H3514 0.949 . S
C3520 C3524 1.368 . S
C3521 C3502 1.429 . S
C3521 C3515 1.429 . S
C3521 C3522 1.523 . S
C3522 C3503 1.368 . S
C3522 C3516 1.368 1_455 S
C3522 C3521 1.523 . S
C3523 C3507 1.429 . S
C3523 C3519 1.429 . S
C3523 C3524 1.523 . S
C3524 C3508 1.368 . S
C3524 C3520 1.368 . S
C3524 C3523 1.523 . S
H3525 C3500 0.950 . S
H3526 C3502 0.950 . S
H3527 C3503 0.949 . S
H3528 C3505 0.950 . S
H3529 C3507 0.950 . S
C3530 C3531 1.349 . S
C3530 C3532 1.327 . S
C3530 H3555 0.950 . S
C3531 C3530 1.349 . S
C3531 C3547 1.349 . S
C3532 C3530 1.327 . S
C3532 C3551 1.429 . S
C3532 H3556 0.950 . S
C3533 C3550 1.574 . S
C3533 C3552 1.368 . S
C3533 H3557 0.949 . S
H3534 C3538 0.949 . S
C3535 C3536 1.349 . S
C3535 C3537 1.327 . S
C3535 H3558 0.950 . S
C3536 C3535 1.349 . S
C3536 C3548 1.349 . S
C3537 C3535 1.327 . S
C3537 C3553 1.429 . S
C3537 H3559 0.950 . S
C3538 H3534 0.949 . S
C3538 C3546 1.574 . S
C3538 C3554 1.368 . S
H3539 C3547 0.950 . S
H3540 C3545 0.950 . S
H3541 C3546 0.949 . S
H3542 C3548 0.950 . S
H3543 C3549 0.950 . S
H3544 C3550 0.949 . S
C3545 H3540 0.950 . S
C3545 C3547 1.327 . S
C3545 C3551 1.429 . S
C3546 C3538 1.574 . S
C3546 H3541 0.949 . S
C3546 C3552 1.368 . S
C3547 C3531 1.349 . S
C3547 H3539 0.950 . S
C3547 C3545 1.327 . S
C3548 C3536 1.349 . S
C3548 H3542 0.950 . S
C3548 C3549 1.327 . S
C3549 H3543 0.950 . S
C3549 C3548 1.327 . S
C3549 C3553 1.429 . S
C3550 C3533 1.574 . S
C3550 H3544 0.949 . S
C3550 C3554 1.368 . S
C3551 C3532 1.429 . S
C3551 C3545 1.429 . S
C3551 C3552 1.523 . S
C3552 C3533 1.368 . S
C3552 C3546 1.368 . S
C3552 C3551 1.523 . S
C3553 C3537 1.429 . S
C3553 C3549 1.429 . S
C3553 C3554 1.523 . S
C3554 C3538 1.368 . S
C3554 C3550 1.368 . S
C3554 C3553 1.523 . S
H3555 C3530 0.950 . S
H3556 C3532 0.950 . S
H3557 C3533 0.949 . S
H3558 C3535 0.950 . S
H3559 C3537 0.950 . S
C3560 C3561 1.349 . S
C3560 C3562 1.327 . S
C3560 H3585 0.950 . S
C3561 C3560 1.349 . S
C3561 C3577 1.349 . S
C3562 C3560 1.327 . S
C3562 C3581 1.429 . S
C3562 H3586 0.950 . S
C3563 C3580 1.574 . S
C3563 C3582 1.368 . S
C3563 H3587 0.949 . S
H3564 C3568 0.949 . S
C3565 C3566 1.349 . S
C3565 C3567 1.327 . S
C3565 H3588 0.950 . S
C3566 C3565 1.349 . S
C3566 C3578 1.349 . S
C3567 C3565 1.327 . S
C3567 C3583 1.428 . S
C3567 H3589 0.950 1_554 S
C3568 H3564 0.949 . S
C3568 C3576 1.574 . S
C3568 C3584 1.368 . S
H3569 C3577 0.950 . S
H3570 C3575 0.950 . S
H3571 C3576 0.949 . S
H3572 C3578 0.950 . S
H3573 C3579 0.950 . S
H3574 C3580 0.949 . S
C3575 H3570 0.950 . S
C3575 C3577 1.327 . S
C3575 C3581 1.429 . S
C3576 C3568 1.574 . S
C3576 H3571 0.949 . S
C3576 C3582 1.368 . S
C3577 C3561 1.349 . S
C3577 H3569 0.950 . S
C3577 C3575 1.327 . S
C3578 C3566 1.349 . S
C3578 H3572 0.950 . S
C3578 C3579 1.327 . S
C3579 H3573 0.950 . S
C3579 C3578 1.327 . S
C3579 C3583 1.427 . S
C3580 C3563 1.574 . S
C3580 H3574 0.949 . S
C3580 C3584 1.368 . S
C3581 C3562 1.429 . S
C3581 C3575 1.429 . S
C3581 C3582 1.523 . S
C3582 C3563 1.368 . S
C3582 C3576 1.368 . S
C3582 C3581 1.523 . S
C3583 C3567 1.428 . S
C3583 C3579 1.427 . S
C3583 C3584 1.525 1_554 S
C3584 C3568 1.368 . S
C3584 C3580 1.368 . S
C3584 C3583 1.525 1_556 S
H3585 C3560 0.950 . S
H3586 C3562 0.950 . S
H3587 C3563 0.949 . S
H3588 C3565 0.950 . S
H3589 C3567 0.950 1_556 S
C3590 C3591 1.349 . S
C3590 C3592 1.327 . S
C3590 H3615 0.950 . S
C3591 C3590 1.349 . S
C3591 C3607 1.349 . S
C3592 C3590 1.327 . S
C3592 C3611 1.429 . S
C3592 H3616 0.950 . S
C3593 C3610 1.574 . S
C3593 C3612 1.368 . S
C3593 H3617 0.949 . S
H3594 C3598 0.949 . S
C3595 C3596 1.349 . S
C3595 C3597 1.327 . S
C3595 H3618 0.950 . S
C3596 C3595 1.349 . S
C3596 C3608 1.349 . S
C3597 C3595 1.327 . S
C3597 C3613 1.429 . S
C3597 H3619 0.950 . S
C3598 H3594 0.949 . S
C3598 C3606 1.574 . S
C3598 C3614 1.368 . S
H3599 C3607 0.950 . S
H3600 C3605 0.950 . S
H3601 C3606 0.949 . S
H3602 C3608 0.950 . S
H3603 C3609 0.950 . S
H3604 C3610 0.949 . S
C3605 H3600 0.950 . S
C3605 C3607 1.327 . S
C3605 C3611 1.429 . S
C3606 C3598 1.574 . S
C3606 H3601 0.949 . S
C3606 C3612 1.368 . S
C3607 C3591 1.349 . S
C3607 H3599 0.950 . S
C3607 C3605 1.327 . S
C3608 C3596 1.349 . S
C3608 H3602 0.950 . S
C3608 C3609 1.327 . S
C3609 H3603 0.950 . S
C3609 C3608 1.327 . S
C3609 C3613 1.429 . S
C3610 C3593 1.574 . S
C3610 H3604 0.949 . S
C3610 C3614 1.368 . S
C3611 C3592 1.429 . S
C3611 C3605 1.429 . S
C3611 C3612 1.523 . S
C3612 C3593 1.368 . S
C3612 C3606 1.368 . S
C3612 C3611 1.523 . S
C3613 C3597 1.429 . S
C3613 C3609 1.429 . S
C3613 C3614 1.523 . S
C3614 C3598 1.368 . S
C3614 C3610 1.368 . S
C3614 C3613 1.523 . S
H3615 C3590 0.950 . S
H3616 C3592 0.950 . S
H3617 C3593 0.949 . S
H3618 C3595 0.950 . S
H3619 C3597 0.950 . S
C3620 C3621 1.349 . S
C3620 C3622 1.327 . S
C3620 H3645 0.950 . S
C3621 C3620 1.349 . S
C3621 C3637 1.349 . S
C3622 C3620 1.327 . S
C3622 C3641 1.429 . S
C3622 H3646 0.950 . S
C3623 C3640 1.574 . S
C3623 C3642 1.368 . S
C3623 H3647 0.949 . S
H3624 C3628 0.949 . S
C3625 C3626 1.349 . S
C3625 C3627 1.327 . S
C3625 H3648 0.950 . S
C3626 C3625 1.349 . S
C3626 C3638 1.349 . S
C3627 C3625 1.327 . S
C3627 C3643 1.429 . S
C3627 H3649 0.950 . S
C3628 H3624 0.949 . S
C3628 C3636 1.574 . S
C3628 C3644 1.368 . S
H3629 C3637 0.950 . S
H3630 C3635 0.950 . S
H3631 C3636 0.949 . S
H3632 C3638 0.950 . S
H3633 C3639 0.950 . S
H3634 C3640 0.949 1_655 S
C3635 H3630 0.950 . S
C3635 C3637 1.327 . S
C3635 C3641 1.429 . S
C3636 C3628 1.574 . S
C3636 H3631 0.949 . S
C3636 C3642 1.368 . S
C3637 C3621 1.349 . S
C3637 H3629 0.950 . S
C3637 C3635 1.327 . S
C3638 C3626 1.349 . S
C3638 H3632 0.950 . S
C3638 C3639 1.327 1_655 S
C3639 H3633 0.950 . S
C3639 C3638 1.327 1_455 S
C3639 C3643 1.429 1_455 S
C3640 C3623 1.574 . S
C3640 H3634 0.949 1_455 S
C3640 C3644 1.368 . S
C3641 C3622 1.429 . S
C3641 C3635 1.429 . S
C3641 C3642 1.523 . S
C3642 C3623 1.368 . S
C3642 C3636 1.368 . S
C3642 C3641 1.523 . S
C3643 C3627 1.429 . S
C3643 C3639 1.429 1_655 S
C3643 C3644 1.523 1_655 S
C3644 C3628 1.368 . S
C3644 C3640 1.368 . S
C3644 C3643 1.523 1_455 S
H3645 C3620 0.950 . S
H3646 C3622 0.950 . S
H3647 C3623 0.949 . S
H3648 C3625 0.950 . S
H3649 C3627 0.950 . S
C3650 C3651 1.349 . S
C3650 C3652 1.327 . S
C3650 H3675 0.950 . S
C3651 C3650 1.349 . S
C3651 C3667 1.349 . S
C3652 C3650 1.327 . S
C3652 C3671 1.429 . S
C3652 H3676 0.950 . S
C3653 C3670 1.574 . S
C3653 C3672 1.368 . S
C3653 H3677 0.949 . S
H3654 C3658 0.949 . S
C3655 C3656 1.349 . S
C3655 C3657 1.327 . S
C3655 H3678 0.950 . S
C3656 C3655 1.349 . S
C3656 C3668 1.349 . S
C3657 C3655 1.327 . S
C3657 C3673 1.429 . S
C3657 H3679 0.950 . S
C3658 H3654 0.949 . S
C3658 C3666 1.574 . S
C3658 C3674 1.368 . S
H3659 C3667 0.950 . S
H3660 C3665 0.950 . S
H3661 C3666 0.949 . S
H3662 C3668 0.950 . S
H3663 C3669 0.950 . S
H3664 C3670 0.949 . S
C3665 H3660 0.950 . S
C3665 C3667 1.327 . S
C3665 C3671 1.429 . S
C3666 C3658 1.574 . S
C3666 H3661 0.949 . S
C3666 C3672 1.368 . S
C3667 C3651 1.349 . S
C3667 H3659 0.950 . S
C3667 C3665 1.327 . S
C3668 C3656 1.349 . S
C3668 H3662 0.950 . S
C3668 C3669 1.327 . S
C3669 H3663 0.950 . S
C3669 C3668 1.327 . S
C3669 C3673 1.429 . S
C3670 C3653 1.574 . S
C3670 H3664 0.949 . S
C3670 C3674 1.368 . S
C3671 C3652 1.429 . S
C3671 C3665 1.429 . S
C3671 C3672 1.523 . S
C3672 C3653 1.368 . S
C3672 C3666 1.368 . S
C3672 C3671 1.523 . S
C3673 C3657 1.429 . S
C3673 C3669 1.429 . S
C3673 C3674 1.523 . S
C3674 C3658 1.368 . S
C3674 C3670 1.368 . S
C3674 C3673 1.523 . S
H3675 C3650 0.950 . S
H3676 C3652 0.950 . S
H3677 C3653 0.949 . S
H3678 C3655 0.950 . S
H3679 C3657 0.950 . S
C3680 C3681 1.349 . S
C3680 C3682 1.327 . S
C3680 H3705 0.950 . S
C3681 C3680 1.349 . S
C3681 C3697 1.349 . S
C3682 C3680 1.327 . S
C3682 C3701 1.429 . S
C3682 H3706 0.950 . S
C3683 C3700 1.574 . S
C3683 C3702 1.368 . S
C3683 H3707 0.949 . S
H3684 C3688 0.949 . S
C3685 C3686 1.349 . S
C3685 C3687 1.327 . S
C3685 H3708 0.950 . S
C3686 C3685 1.349 . S
C3686 C3698 1.349 . S
C3687 C3685 1.327 . S
C3687 C3703 1.429 . S
C3687 H3709 0.950 . S
C3688 H3684 0.949 . S
C3688 C3696 1.574 . S
C3688 C3704 1.368 . S
H3689 C3697 0.950 . S
H3690 C3695 0.950 . S
H3691 C3696 0.949 . S
H3692 C3698 0.950 . S
H3693 C3699 0.950 . S
H3694 C3700 0.949 . S
C3695 H3690 0.950 . S
C3695 C3697 1.327 . S
C3695 C3701 1.429 . S
C3696 C3688 1.574 . S
C3696 H3691 0.949 . S
C3696 C3702 1.368 . S
C3697 C3681 1.349 . S
C3697 H3689 0.950 . S
C3697 C3695 1.327 . S
C3698 C3686 1.349 . S
C3698 H3692 0.950 . S
C3698 C3699 1.327 . S
C3699 H3693 0.950 . S
C3699 C3698 1.327 . S
C3699 C3703 1.429 . S
C3700 C3683 1.574 . S
C3700 H3694 0.949 . S
C3700 C3704 1.368 . S
C3701 C3682 1.429 . S
C3701 C3695 1.429 . S
C3701 C3702 1.523 . S
C3702 C3683 1.368 . S
C3702 C3696 1.368 . S
C3702 C3701 1.523 . S
C3703 C3687 1.429 . S
C3703 C3699 1.429 . S
C3703 C3704 1.523 . S
C3704 C3688 1.368 . S
C3704 C3700 1.368 . S
C3704 C3703 1.523 . S
H3705 C3680 0.950 . S
H3706 C3682 0.950 . S
H3707 C3683 0.949 . S
H3708 C3685 0.950 . S
H3709 C3687 0.950 . S
C3710 C3711 1.349 . S
C3710 C3712 1.327 . S
C3710 H3735 0.950 . S
C3711 C3710 1.349 . S
C3711 C3727 1.349 . S
C3712 C3710 1.327 . S
C3712 C3731 1.429 . S
C3712 H3736 0.950 . S
C3713 C3730 1.574 . S
C3713 C3732 1.368 . S
C3713 H3737 0.949 . S
H3714 C3718 0.949 . S
C3715 C3716 1.349 . S
C3715 C3717 1.327 . S
C3715 H3738 0.950 . S
C3716 C3715 1.349 . S
C3716 C3728 1.349 . S
C3717 C3715 1.327 . S
C3717 C3733 1.429 . S
C3717 H3739 0.950 . S
C3718 H3714 0.949 . S
C3718 C3726 1.574 . S
C3718 C3734 1.368 . S
H3719 C3727 0.950 . S
H3720 C3725 0.955 . S
H3721 C3726 0.949 . S
H3722 C3728 0.950 . S
H3723 C3729 0.950 . S
H3724 C3730 0.949 . S
C3725 H3720 0.955 . S
C3725 C3727 1.327 . S
C3725 C3731 1.429 . S
C3726 C3718 1.574 . S
C3726 H3721 0.949 . S
C3726 C3732 1.368 . S
C3727 C3711 1.349 . S
C3727 H3719 0.950 . S
C3727 C3725 1.327 . S
C3728 C3716 1.349 . S
C3728 H3722 0.950 . S
C3728 C3729 1.327 . S
C3729 H3723 0.950 . S
C3729 C3728 1.327 . S
C3729 C3733 1.429 . S
C3730 C3713 1.574 . S
C3730 H3724 0.949 . S
C3730 C3734 1.368 . S
C3731 C3712 1.429 . S
C3731 C3725 1.429 . S
C3731 C3732 1.523 1_556 S
C3732 C3713 1.368 . S
C3732 C3726 1.368 . S
C3732 C3731 1.523 1_554 S
C3733 C3717 1.429 . S
C3733 C3729 1.429 . S
C3733 C3734 1.523 . S
C3734 C3718 1.368 . S
C3734 C3730 1.368 . S
C3734 C3733 1.523 . S
H3735 C3710 0.950 . S
H3736 C3712 0.950 . S
H3737 C3713 0.949 . S
H3738 C3715 0.950 . S
H3739 C3717 0.950 . S
C3740 C3741 1.349 . S
C3740 C3742 1.327 . S
C3740 H3765 0.950 . S
C3741 C3740 1.349 . S
C3741 C3757 1.349 . S
C3742 C3740 1.327 . S
C3742 C3761 1.429 . S
C3742 H3766 0.950 . S
C3743 C3760 1.574 . S
C3743 C3762 1.368 . S
C3743 H3767 0.949 . S
H3744 C3748 0.949 . S
C3745 C3746 1.349 . S
C3745 C3747 1.327 . S
C3745 H3768 0.950 . S
C3746 C3745 1.349 . S
C3746 C3758 1.349 . S
C3747 C3745 1.327 . S
C3747 C3763 1.429 . S
C3747 H3769 0.950 . S
C3748 H3744 0.949 . S
C3748 C3756 1.574 . S
C3748 C3764 1.368 . S
H3749 C3757 0.950 . S
H3750 C3755 0.950 . S
H3751 C3756 0.949 . S
H3752 C3758 0.950 . S
H3753 C3759 0.950 . S
H3754 C3760 0.949 . S
C3755 H3750 0.950 . S
C3755 C3757 1.327 . S
C3755 C3761 1.429 . S
C3756 C3748 1.574 . S
C3756 H3751 0.949 . S
C3756 C3762 1.368 . S
C3757 C3741 1.349 . S
C3757 H3749 0.950 . S
C3757 C3755 1.327 . S
C3758 C3746 1.349 . S
C3758 H3752 0.950 . S
C3758 C3759 1.327 . S
C3759 H3753 0.950 . S
C3759 C3758 1.327 . S
C3759 C3763 1.429 . S
C3760 C3743 1.574 . S
C3760 H3754 0.949 . S
C3760 C3764 1.368 . S
C3761 C3742 1.429 . S
C3761 C3755 1.429 . S
C3761 C3762 1.523 . S
C3762 C3743 1.368 . S
C3762 C3756 1.368 . S
C3762 C3761 1.523 . S
C3763 C3747 1.429 . S
C3763 C3759 1.429 . S
C3763 C3764 1.523 . S
C3764 C3748 1.368 . S
C3764 C3760 1.368 . S
C3764 C3763 1.523 . S
H3765 C3740 0.950 . S
H3766 C3742 0.950 . S
H3767 C3743 0.949 . S
H3768 C3745 0.950 . S
H3769 C3747 0.950 . S
C3770 C3771 1.349 . S
C3770 C3772 1.327 . S
C3770 H3795 0.950 . S
C3771 C3770 1.349 . S
C3771 C3787 1.349 . S
C3772 C3770 1.327 . S
C3772 C3791 1.429 . S
C3772 H3796 0.950 . S
C3773 C3790 1.574 . S
C3773 C3792 1.368 . S
C3773 H3797 0.949 . S
H3774 C3778 0.949 . S
C3775 C3776 1.349 . S
C3775 C3777 1.327 . S
C3775 H3798 0.950 . S
C3776 C3775 1.349 . S
C3776 C3788 1.349 . S
C3777 C3775 1.327 . S
C3777 C3793 1.429 . S
C3777 H3799 0.950 . S
C3778 H3774 0.949 . S
C3778 C3786 1.574 . S
C3778 C3794 1.368 . S
H3779 C3787 0.950 . S
H3780 C3785 0.950 . S
H3781 C3786 0.949 . S
H3782 C3788 0.950 . S
H3783 C3789 0.950 . S
H3784 C3790 0.949 . S
C3785 H3780 0.950 . S
C3785 C3787 1.327 . S
C3785 C3791 1.429 . S
C3786 C3778 1.574 . S
C3786 H3781 0.949 . S
C3786 C3792 1.368 . S
C3787 C3771 1.349 . S
C3787 H3779 0.950 . S
C3787 C3785 1.327 . S
C3788 C3776 1.349 . S
C3788 H3782 0.950 . S
C3788 C3789 1.327 . S
C3789 H3783 0.950 . S
C3789 C3788 1.327 . S
C3789 C3793 1.429 . S
C3790 C3773 1.574 . S
C3790 H3784 0.949 . S
C3790 C3794 1.368 . S
C3791 C3772 1.429 . S
C3791 C3785 1.429 . S
C3791 C3792 1.523 . S
C3792 C3773 1.368 . S
C3792 C3786 1.368 . S
C3792 C3791 1.523 . S
C3793 C3777 1.429 . S
C3793 C3789 1.429 . S
C3793 C3794 1.523 . S
C3794 C3778 1.368 . S
C3794 C3790 1.368 . S
C3794 C3793 1.523 . S
H3795 C3770 0.950 . S
H3796 C3772 0.950 . S
H3797 C3773 0.949 . S
H3798 C3775 0.950 . S
H3799 C3777 0.950 . S
C3800 C3801 1.349 . S
C3800 C3802 1.327 . S
C3800 H3825 0.950 . S
C3801 C3800 1.349 . S
C3801 C3817 1.349 . S
C3802 C3800 1.327 . S
C3802 C3821 1.429 . S
C3802 H3826 0.950 . S
C3803 C3820 1.574 . S
C3803 C3822 1.368 . S
C3803 H3827 0.949 . S
H3804 C3808 0.949 . S
C3805 C3806 1.349 . S
C3805 C3807 1.327 . S
C3805 H3828 0.950 . S
C3806 C3805 1.349 . S
C3806 C3818 1.349 . S
C3807 C3805 1.327 . S
C3807 C3823 1.429 . S
C3807 H3829 0.950 . S
C3808 H3804 0.949 . S
C3808 C3816 1.574 . S
C3808 C3824 1.368 . S
H3809 C3817 0.950 . S
H3810 C3815 0.950 . S
H3811 C3816 0.949 . S
H3812 C3818 0.950 . S
H3813 C3819 0.950 . S
H3814 C3820 0.949 . S
C3815 H3810 0.950 . S
C3815 C3817 1.327 . S
C3815 C3821 1.429 . S
C3816 C3808 1.574 . S
C3816 H3811 0.949 . S
C3816 C3822 1.368 . S
C3817 C3801 1.349 . S
C3817 H3809 0.950 . S
C3817 C3815 1.327 . S
C3818 C3806 1.349 . S
C3818 H3812 0.950 . S
C3818 C3819 1.327 . S
C3819 H3813 0.950 . S
C3819 C3818 1.327 . S
C3819 C3823 1.429 . S
C3820 C3803 1.574 . S
C3820 H3814 0.949 . S
C3820 C3824 1.368 . S
C3821 C3802 1.429 . S
C3821 C3815 1.429 . S
C3821 C3822 1.523 . S
C3822 C3803 1.368 . S
C3822 C3816 1.368 . S
C3822 C3821 1.523 . S
C3823 C3807 1.429 . S
C3823 C3819 1.429 . S
C3823 C3824 1.523 . S
C3824 C3808 1.368 . S
C3824 C3820 1.368 . S
C3824 C3823 1.523 . S
H3825 C3800 0.950 . S
H3826 C3802 0.950 . S
H3827 C3803 0.949 . S
H3828 C3805 0.950 . S
H3829 C3807 0.950 . S
C3830 C3831 1.349 . S
C3830 C3832 1.327 . S
C3830 H3855 0.950 . S
C3831 C3830 1.349 . S
C3831 C3847 1.349 . S
C3832 C3830 1.327 . S
C3832 C3851 1.429 . S
C3832 H3856 0.950 . S
C3833 C3850 1.574 . S
C3833 C3852 1.368 . S
C3833 H3857 0.949 . S
H3834 C3838 0.949 . S
C3835 C3836 1.349 . S
C3835 C3837 1.327 . S
C3835 H3858 0.950 . S
C3836 C3835 1.349 . S
C3836 C3848 1.349 . S
C3837 C3835 1.327 . S
C3837 C3853 1.429 . S
C3837 H3859 0.950 . S
C3838 H3834 0.949 . S
C3838 C3846 1.574 . S
C3838 C3854 1.368 . S
H3839 C3847 0.950 . S
H3840 C3845 0.950 . S
H3841 C3846 0.949 . S
H3842 C3848 0.950 . S
H3843 C3849 0.950 . S
H3844 C3850 0.949 . S
C3845 H3840 0.950 . S
C3845 C3847 1.327 . S
C3845 C3851 1.429 . S
C3846 C3838 1.574 . S
C3846 H3841 0.949 . S
C3846 C3852 1.368 . S
C3847 C3831 1.349 . S
C3847 H3839 0.950 . S
C3847 C3845 1.327 . S
C3848 C3836 1.349 . S
C3848 H3842 0.950 . S
C3848 C3849 1.327 . S
C3849 H3843 0.950 . S
C3849 C3848 1.327 . S
C3849 C3853 1.429 . S
C3850 C3833 1.574 . S
C3850 H3844 0.949 . S
C3850 C3854 1.368 . S
C3851 C3832 1.429 . S
C3851 C3845 1.429 . S
C3851 C3852 1.523 . S
C3852 C3833 1.368 . S
C3852 C3846 1.368 . S
C3852 C3851 1.523 . S
C3853 C3837 1.429 . S
C3853 C3849 1.429 . S
C3853 C3854 1.523 . S
C3854 C3838 1.368 . S
C3854 C3850 1.368 . S
C3854 C3853 1.523 . S
H3855 C3830 0.950 . S
H3856 C3832 0.950 . S
H3857 C3833 0.949 . S
H3858 C3835 0.950 . S
H3859 C3837 0.950 . S
C3860 C3861 1.349 . S
C3860 C3862 1.327 . S
C3860 H3885 0.950 . S
C3861 C3860 1.349 . S
C3861 C3877 1.349 . S
C3862 C3860 1.327 . S
C3862 C3881 1.429 . S
C3862 H3886 0.950 . S
C3863 C3880 1.574 . S
C3863 C3882 1.368 . S
C3863 H3887 0.949 1_554 S
H3864 C3868 0.949 . S
C3865 C3866 1.349 . S
C3865 C3867 1.327 . S
C3865 H3888 0.950 . S
C3866 C3865 1.349 . S
C3866 C3878 1.349 . S
C3867 C3865 1.327 . S
C3867 C3883 1.429 . S
C3867 H3889 0.950 . S
C3868 H3864 0.949 . S
C3868 C3876 1.574 . S
C3868 C3884 1.368 . S
H3869 C3877 0.950 . S
H3870 C3875 0.950 . S
H3871 C3876 0.949 . S
H3872 C3878 0.950 . S
H3873 C3879 0.950 . S
H3874 C3880 0.949 . S
C3875 H3870 0.950 . S
C3875 C3877 1.327 . S
C3875 C3881 1.429 . S
C3876 C3868 1.574 . S
C3876 H3871 0.949 . S
C3876 C3882 1.368 . S
C3877 C3861 1.349 . S
C3877 H3869 0.950 . S
C3877 C3875 1.327 . S
C3878 C3866 1.349 . S
C3878 H3872 0.950 . S
C3878 C3879 1.327 . S
C3879 H3873 0.950 . S
C3879 C3878 1.327 . S
C3879 C3883 1.429 . S
C3880 C3863 1.574 . S
C3880 H3874 0.949 . S
C3880 C3884 1.368 . S
C3881 C3862 1.429 . S
C3881 C3875 1.429 . S
C3881 C3882 1.523 1_556 S
C3882 C3863 1.368 . S
C3882 C3876 1.368 . S
C3882 C3881 1.523 1_554 S
C3883 C3867 1.429 . S
C3883 C3879 1.429 . S
C3883 C3884 1.523 . S
C3884 C3868 1.368 . S
C3884 C3880 1.368 . S
C3884 C3883 1.523 . S
H3885 C3860 0.950 . S
H3886 C3862 0.950 . S
H3887 C3863 0.949 1_556 S
H3888 C3865 0.950 . S
H3889 C3867 0.950 . S
C3890 C3891 1.349 . S
C3890 C3892 1.327 . S
C3890 H3915 0.950 . S
C3891 C3890 1.349 . S
C3891 C3907 1.349 . S
C3892 C3890 1.327 . S
C3892 C3911 1.429 . S
C3892 H3916 0.950 . S
C3893 C3910 1.574 . S
C3893 C3912 1.368 . S
C3893 H3917 0.949 . S
H3894 C3898 0.949 . S
C3895 C3896 1.349 . S
C3895 C3897 1.327 . S
C3895 H3918 0.950 . S
C3896 C3895 1.349 . S
C3896 C3908 1.349 . S
C3897 C3895 1.327 . S
C3897 C3913 1.429 . S
C3897 H3919 0.950 . S
C3898 H3894 0.949 . S
C3898 C3906 1.574 . S
C3898 C3914 1.368 . S
H3899 C3907 0.950 . S
H3900 C3905 0.950 . S
H3901 C3906 0.949 . S
H3902 C3908 0.950 . S
H3903 C3909 0.950 . S
H3904 C3910 0.949 . S
C3905 H3900 0.950 . S
C3905 C3907 1.327 . S
C3905 C3911 1.429 . S
C3906 C3898 1.574 . S
C3906 H3901 0.949 . S
C3906 C3912 1.368 . S
C3907 C3891 1.349 . S
C3907 H3899 0.950 . S
C3907 C3905 1.327 . S
C3908 C3896 1.349 . S
C3908 H3902 0.950 . S
C3908 C3909 1.327 . S
C3909 H3903 0.950 . S
C3909 C3908 1.327 . S
C3909 C3913 1.429 . S
C3910 C3893 1.574 . S
C3910 H3904 0.949 . S
C3910 C3914 1.368 . S
C3911 C3892 1.429 . S
C3911 C3905 1.429 . S
C3911 C3912 1.523 . S
C3912 C3893 1.368 . S
C3912 C3906 1.368 . S
C3912 C3911 1.523 . S
C3913 C3897 1.429 . S
C3913 C3909 1.429 . S
C3913 C3914 1.523 . S
C3914 C3898 1.368 . S
C3914 C3910 1.368 . S
C3914 C3913 1.523 . S
H3915 C3890 0.950 . S
H3916 C3892 0.950 . S
H3917 C3893 0.949 . S
H3918 C3895 0.950 . S
H3919 C3897 0.950 . S
C3920 C3921 1.349 . S
C3920 C3922 1.327 . S
C3920 H3945 0.950 . S
C3921 C3920 1.349 . S
C3921 C3937 1.349 . S
C3922 C3920 1.327 . S
C3922 C3941 1.429 . S
C3922 H3946 0.950 . S
C3923 C3940 1.574 . S
C3923 C3942 1.368 1_545 S
C3923 H3947 0.949 . S
H3924 C3928 0.949 . S
C3925 C3926 1.349 . S
C3925 C3927 1.327 . S
C3925 H3948 0.950 . S
C3926 C3925 1.349 . S
C3926 C3938 1.349 . S
C3927 C3925 1.327 . S
C3927 C3943 1.429 . S
C3927 H3949 0.950 . S
C3928 H3924 0.949 . S
C3928 C3936 1.574 . S
C3928 C3944 1.368 1_565 S
H3929 C3937 0.950 . S
H3930 C3935 0.950 . S
H3931 C3936 0.949 . S
H3932 C3938 0.950 . S
H3933 C3939 0.950 1_565 S
H3934 C3940 0.949 . S
C3935 H3930 0.950 . S
C3935 C3937 1.327 . S
C3935 C3941 1.429 . S
C3936 C3928 1.574 . S
C3936 H3931 0.949 . S
C3936 C3942 1.368 . S
C3937 C3921 1.349 . S
C3937 H3929 0.950 . S
C3937 C3935 1.327 . S
C3938 C3926 1.349 . S
C3938 H3932 0.950 . S
C3938 C3939 1.327 . S
C3939 H3933 0.950 1_545 S
C3939 C3938 1.327 . S
C3939 C3943 1.429 . S
C3940 C3923 1.574 . S
C3940 H3934 0.949 . S
C3940 C3944 1.368 . S
C3941 C3922 1.429 . S
C3941 C3935 1.429 . S
C3941 C3942 1.523 . S
C3942 C3923 1.368 1_565 S
C3942 C3936 1.368 . S
C3942 C3941 1.523 . S
C3943 C3927 1.429 . S
C3943 C3939 1.429 . S
C3943 C3944 1.523 . S
C3944 C3928 1.368 1_545 S
C3944 C3940 1.368 . S
C3944 C3943 1.523 . S
H3945 C3920 0.950 . S
H3946 C3922 0.950 . S
H3947 C3923 0.949 . S
H3948 C3925 0.950 . S
H3949 C3927 0.950 . S
C3950 C3951 1.349 . S
C3950 C3952 1.327 . S
C3950 H3975 0.950 . S
C3951 C3950 1.349 . S
C3951 C3967 1.349 . S
C3952 C3950 1.327 . S
C3952 C3971 1.429 . S
C3952 H3976 0.950 . S
C3953 C3970 1.574 . S
C3953 C3972 1.368 . S
C3953 H3977 0.949 . S
H3954 C3958 0.949 . S
C3955 C3956 1.349 . S
C3955 C3957 1.327 . S
C3955 H3978 0.950 . S
C3956 C3955 1.349 . S
C3956 C3968 1.349 . S
C3957 C3955 1.327 . S
C3957 C3973 1.429 . S
C3957 H3979 0.950 . S
C3958 H3954 0.949 . S
C3958 C3966 1.574 . S
C3958 C3974 1.368 . S
H3959 C3967 0.950 . S
H3960 C3965 0.950 . S
H3961 C3966 0.949 . S
H3962 C3968 0.950 . S
H3963 C3969 0.950 . S
H3964 C3970 0.949 . S
C3965 H3960 0.950 . S
C3965 C3967 1.327 . S
C3965 C3971 1.429 . S
C3966 C3958 1.574 . S
C3966 H3961 0.949 . S
C3966 C3972 1.368 . S
C3967 C3951 1.349 . S
C3967 H3959 0.950 . S
C3967 C3965 1.327 . S
C3968 C3956 1.349 . S
C3968 H3962 0.950 . S
C3968 C3969 1.327 . S
C3969 H3963 0.950 . S
C3969 C3968 1.327 . S
C3969 C3973 1.429 . S
C3970 C3953 1.574 . S
C3970 H3964 0.949 . S
C3970 C3974 1.368 . S
C3971 C3952 1.429 . S
C3971 C3965 1.429 . S
C3971 C3972 1.523 . S
C3972 C3953 1.368 . S
C3972 C3966 1.368 . S
C3972 C3971 1.523 . S
C3973 C3957 1.429 . S
C3973 C3969 1.429 . S
C3973 C3974 1.523 . S
C3974 C3958 1.368 . S
C3974 C3970 1.368 . S
C3974 C3973 1.523 . S
H3975 C3950 0.950 . S
H3976 C3952 0.950 . S
H3977 C3953 0.949 . S
H3978 C3955 0.950 . S
H3979 C3957 0.950 . S
C3980 C3981 1.349 . S
C3980 C3982 1.327 . S
C3980 H4005 0.950 . S
C3981 C3980 1.349 . S
C3981 C3997 1.349 . S
C3982 C3980 1.327 . S
C3982 C4001 1.429 . S
C3982 H4006 0.950 . S
C3983 C4000 1.574 1_545 S
C3983 C4002 1.368 . S
C3983 H4007 0.949 . S
H3984 C3988 0.949 . S
C3985 C3986 1.349 . S
C3985 C3987 1.327 . S
C3985 H4008 0.950 . S
C3986 C3985 1.349 . S
C3986 C3998 1.349 . S
C3987 C3985 1.327 . S
C3987 C4003 1.429 . S
C3987 H4009 0.950 . S
C3988 H3984 0.949 . S
C3988 C3996 1.574 . S
C3988 C4004 1.368 1_545 S
H3989 C3997 0.950 . S
H3990 C3995 0.950 . S
H3991 C3996 0.949 . S
H3992 C3998 0.950 . S
H3993 C3999 0.950 . S
H3994 C4000 0.949 . S
C3995 H3990 0.950 . S
C3995 C3997 1.327 . S
C3995 C4001 1.429 . S
C3996 C3988 1.574 . S
C3996 H3991 0.949 . S
C3996 C4002 1.368 . S
C3997 C3981 1.349 . S
C3997 H3989 0.950 . S
C3997 C3995 1.327 . S
C3998 C3986 1.349 . S
C3998 H3992 0.950 . S
C3998 C3999 1.327 . S
C3999 H3993 0.950 . S
C3999 C3998 1.327 . S
C3999 C4003 1.429 . S
C4000 C3983 1.574 1_565 S
C4000 H3994 0.949 . S
C4000 C4004 1.368 . S
C4001 C3982 1.429 . S
C4001 C3995 1.429 . S
C4001 C4002 1.523 . S
C4002 C3983 1.368 . S
C4002 C3996 1.368 . S
C4002 C4001 1.523 . S
C4003 C3987 1.429 . S
C4003 C3999 1.429 . S
C4003 C4004 1.523 . S
C4004 C3988 1.368 1_565 S
C4004 C4000 1.368 . S
C4004 C4003 1.523 . S
H4005 C3980 0.950 . S
H4006 C3982 0.950 . S
H4007 C3983 0.949 . S
H4008 C3985 0.950 . S
H4009 C3987 0.950 . S
C4010 C4011 1.349 . S
C4010 C4012 1.327 . S
C4010 H4035 0.950 . S
C4011 C4010 1.349 . S
C4011 C4027 1.349 . S
C4012 C4010 1.327 . S
C4012 C4031 1.429 . S
C4012 H4036 0.950 . S
C4013 C4030 1.574 . S
C4013 C4032 1.368 . S
C4013 H4037 0.949 . S
H4014 C4018 0.949 . S
C4015 C4016 1.349 . S
C4015 C4017 1.327 . S
C4015 H4038 0.950 . S
C4016 C4015 1.349 . S
C4016 C4028 1.349 . S
C4017 C4015 1.327 . S
C4017 C4033 1.429 . S
C4017 H4039 0.950 1_556 S
C4018 H4014 0.949 . S
C4018 C4026 1.574 . S
C4018 C4034 1.368 . S
H4019 C4027 0.950 . S
H4020 C4025 0.950 . S
H4021 C4026 0.949 . S
H4022 C4028 0.950 . S
H4023 C4029 0.950 . S
H4024 C4030 0.949 . S
C4025 H4020 0.950 . S
C4025 C4027 1.327 . S
C4025 C4031 1.429 . S
C4026 C4018 1.574 . S
C4026 H4021 0.949 . S
C4026 C4032 1.368 . S
C4027 C4011 1.349 . S
C4027 H4019 0.950 . S
C4027 C4025 1.327 . S
C4028 C4016 1.349 . S
C4028 H4022 0.950 . S
C4028 C4029 1.327 . S
C4029 H4023 0.950 . S
C4029 C4028 1.327 . S
C4029 C4033 1.429 . S
C4030 C4013 1.574 . S
C4030 H4024 0.949 . S
C4030 C4034 1.368 . S
C4031 C4012 1.429 . S
C4031 C4025 1.429 . S
C4031 C4032 1.523 . S
C4032 C4013 1.368 . S
C4032 C4026 1.368 . S
C4032 C4031 1.523 . S
C4033 C4017 1.429 . S
C4033 C4029 1.429 . S
C4033 C4034 1.523 1_556 S
C4034 C4018 1.368 . S
C4034 C4030 1.368 . S
C4034 C4033 1.523 1_554 S
H4035 C4010 0.950 . S
H4036 C4012 0.950 . S
H4037 C4013 0.949 . S
H4038 C4015 0.950 . S
H4039 C4017 0.950 1_554 S
C4040 C4041 1.349 . S
C4040 C4042 1.327 . S
C4040 H4065 0.950 . S
C4041 C4040 1.349 . S
C4041 C4057 1.349 . S
C4042 C4040 1.327 . S
C4042 C4061 1.429 . S
C4042 H4066 0.950 . S
C4043 C4060 1.574 . S
C4043 C4062 1.368 1_545 S
C4043 H4067 0.949 . S
H4044 C4048 0.949 1_556 S
C4045 C4046 1.349 . S
C4045 C4047 1.327 . S
C4045 H4068 0.950 . S
C4046 C4045 1.349 . S
C4046 C4058 1.349 . S
C4047 C4045 1.327 . S
C4047 C4063 1.429 . S
C4047 H4069 0.950 . S
C4048 H4044 0.949 1_554 S
C4048 C4056 1.574 . S
C4048 C4064 1.368 1_565 S
H4049 C4057 0.950 . S
H4050 C4055 0.950 1_545 S
H4051 C4056 0.949 . S
H4052 C4058 0.950 . S
H4053 C4059 0.950 . S
H4054 C4060 0.949 . S
C4055 H4050 0.950 1_565 S
C4055 C4057 1.327 . S
C4055 C4061 1.429 . S
C4056 C4048 1.574 . S
C4056 H4051 0.949 . S
C4056 C4062 1.368 . S
C4057 C4041 1.349 . S
C4057 H4049 0.950 . S
C4057 C4055 1.327 . S
C4058 C4046 1.349 . S
C4058 H4052 0.950 . S
C4058 C4059 1.327 . S
C4059 H4053 0.950 . S
C4059 C4058 1.327 . S
C4059 C4063 1.429 . S
C4060 C4043 1.574 . S
C4060 H4054 0.949 . S
C4060 C4064 1.368 . S
C4061 C4042 1.429 . S
C4061 C4055 1.429 . S
C4061 C4062 1.523 . S
C4062 C4043 1.368 1_565 S
C4062 C4056 1.368 . S
C4062 C4061 1.523 . S
C4063 C4047 1.429 . S
C4063 C4059 1.429 . S
C4063 C4064 1.523 1_556 S
C4064 C4048 1.368 1_545 S
C4064 C4060 1.368 . S
C4064 C4063 1.523 1_554 S
H4065 C4040 0.950 . S
H4066 C4042 0.950 . S
H4067 C4043 0.949 . S
H4068 C4045 0.950 . S
H4069 C4047 0.950 . S
C4070 C4071 1.349 . S
C4070 C4072 1.327 . S
C4070 H4095 0.950 . S
C4071 C4070 1.349 . S
C4071 C4087 1.349 . S
C4072 C4070 1.327 . S
C4072 C4091 1.429 . S
C4072 H4096 0.950 . S
C4073 C4090 1.574 . S
C4073 C4092 1.368 . S
C4073 H4097 0.949 . S
H4074 C4078 0.949 . S
C4075 C4076 1.349 . S
C4075 C4077 1.327 . S
C4075 H4098 0.950 . S
C4076 C4075 1.349 . S
C4076 C4088 1.349 . S
C4077 C4075 1.327 . S
C4077 C4093 1.429 . S
C4077 H4099 0.950 . S
C4078 H4074 0.949 . S
C4078 C4086 1.574 . S
C4078 C4094 1.368 . S
H4079 C4087 0.950 . S
H4080 C4085 0.950 . S
H4081 C4086 0.949 . S
H4082 C4088 0.950 . S
H4083 C4089 0.950 . S
H4084 C4090 0.949 . S
C4085 H4080 0.950 . S
C4085 C4087 1.327 . S
C4085 C4091 1.429 . S
C4086 C4078 1.574 . S
C4086 H4081 0.949 . S
C4086 C4092 1.368 . S
C4087 C4071 1.349 . S
C4087 H4079 0.950 . S
C4087 C4085 1.327 . S
C4088 C4076 1.349 . S
C4088 H4082 0.950 . S
C4088 C4089 1.327 . S
C4089 H4083 0.950 . S
C4089 C4088 1.327 . S
C4089 C4093 1.429 . S
C4090 C4073 1.574 . S
C4090 H4084 0.949 . S
C4090 C4094 1.368 . S
C4091 C4072 1.429 . S
C4091 C4085 1.429 . S
C4091 C4092 1.523 . S
C4092 C4073 1.368 . S
C4092 C4086 1.368 . S
C4092 C4091 1.523 . S
C4093 C4077 1.429 . S
C4093 C4089 1.429 . S
C4093 C4094 1.523 . S
C4094 C4078 1.368 . S
C4094 C4090 1.368 . S
C4094 C4093 1.523 . S
H4095 C4070 0.950 . S
H4096 C4072 0.950 . S
H4097 C4073 0.949 . S
H4098 C4075 0.950 . S
H4099 C4077 0.950 . S
C4100 C4101 1.349 . S
C4100 C4102 1.327 . S
C4100 H4125 0.950 . S
C4101 C4100 1.349 . S
C4101 C4117 1.349 . S
C4102 C4100 1.327 . S
C4102 C4121 1.429 . S
C4102 H4126 0.950 . S
C4103 C4120 1.574 . S
C4103 C4122 1.368 1_545 S
C4103 H4127 0.949 . S
H4104 C4108 0.949 . S
C4105 C4106 1.349 . S
C4105 C4107 1.327 . S
C4105 H4128 0.950 . S
C4106 C4105 1.349 . S
C4106 C4118 1.349 . S
C4107 C4105 1.327 . S
C4107 C4123 1.429 . S
C4107 H4129 0.950 . S
C4108 H4104 0.949 . S
C4108 C4116 1.574 . S
C4108 C4124 1.368 1_565 S
H4109 C4117 0.950 . S
H4110 C4115 0.944 1_545 S
H4111 C4116 0.949 . S
H4112 C4118 0.950 . S
H4113 C4119 0.950 1_565 S
H4114 C4120 0.949 . S
C4115 H4110 0.944 1_565 S
C4115 C4117 1.327 . S
C4115 C4121 1.429 . S
C4116 C4108 1.574 . S
C4116 H4111 0.949 . S
C4116 C4122 1.368 . S
C4117 C4101 1.349 . S
C4117 H4109 0.950 . S
C4117 C4115 1.327 . S
C4118 C4106 1.349 . S
C4118 H4112 0.950 . S
C4118 C4119 1.327 . S
C4119 H4113 0.950 1_545 S
C4119 C4118 1.327 . S
C4119 C4123 1.429 . S
C4120 C4103 1.574 . S
C4120 H4114 0.949 . S
C4120 C4124 1.368 . S
C4121 C4102 1.429 . S
C4121 C4115 1.429 . S
C4121 C4122 1.523 . S
C4122 C4103 1.368 1_565 S
C4122 C4116 1.368 . S
C4122 C4121 1.523 . S
C4123 C4107 1.429 . S
C4123 C4119 1.429 . S
C4123 C4124 1.523 . S
C4124 C4108 1.368 1_545 S
C4124 C4120 1.368 . S
C4124 C4123 1.523 . S
H4125 C4100 0.950 . S
H4126 C4102 0.950 . S
H4127 C4103 0.949 . S
H4128 C4105 0.950 . S
H4129 C4107 0.950 . S
C4130 C4131 1.349 . S
C4130 C4132 1.327 . S
C4130 H4155 0.950 . S
C4131 C4130 1.349 . S
C4131 C4147 1.349 . S
C4132 C4130 1.327 . S
C4132 C4151 1.429 . S
C4132 H4156 0.950 . S
C4133 C4150 1.574 . S
C4133 C4152 1.368 . S
C4133 H4157 0.949 . S
H4134 C4138 0.949 . S
C4135 C4136 1.349 . S
C4135 C4137 1.327 . S
C4135 H4158 0.950 . S
C4136 C4135 1.349 . S
C4136 C4148 1.349 . S
C4137 C4135 1.327 . S
C4137 C4153 1.429 . S
C4137 H4159 0.950 . S
C4138 H4134 0.949 . S
C4138 C4146 1.574 . S
C4138 C4154 1.368 . S
H4139 C4147 0.950 . S
H4140 C4145 0.950 . S
H4141 C4146 0.949 . S
H4142 C4148 0.950 . S
H4143 C4149 0.950 . S
H4144 C4150 0.949 . S
C4145 H4140 0.950 . S
C4145 C4147 1.327 . S
C4145 C4151 1.429 . S
C4146 C4138 1.574 . S
C4146 H4141 0.949 . S
C4146 C4152 1.368 . S
C4147 C4131 1.349 . S
C4147 H4139 0.950 . S
C4147 C4145 1.327 . S
C4148 C4136 1.349 . S
C4148 H4142 0.950 . S
C4148 C4149 1.327 . S
C4149 H4143 0.950 . S
C4149 C4148 1.327 . S
C4149 C4153 1.429 . S
C4150 C4133 1.574 . S
C4150 H4144 0.949 . S
C4150 C4154 1.368 . S
C4151 C4132 1.429 . S
C4151 C4145 1.429 . S
C4151 C4152 1.523 . S
C4152 C4133 1.368 . S
C4152 C4146 1.368 . S
C4152 C4151 1.523 . S
C4153 C4137 1.429 . S
C4153 C4149 1.429 . S
C4153 C4154 1.523 . S
C4154 C4138 1.368 . S
C4154 C4150 1.368 . S
C4154 C4153 1.523 . S
H4155 C4130 0.950 . S
H4156 C4132 0.950 . S
H4157 C4133 0.949 . S
H4158 C4135 0.950 . S
H4159 C4137 0.950 . S
C1281 C19 0.323 . S
C1286 C166 0.272 . S
C1311 C206 0.271 . S
C1316 C59 0.322 . S
C1341 C99 0.323 . S
C1346 C246 0.272 . S
C1371 C286 0.271 . S
C1376 C139 0.322 . S
C1401 C330 0.323 . S
C1406 C495 0.272 . S
C1431 C370 0.322 . S
C1436 C535 0.272 . S
C1461 C575 0.272 . S
C1466 C410 0.323 . S
C1491 C450 0.322 . S
C1496 C615 0.272 . S
C1521 C806 0.272 . S
C1526 C659 0.323 . S
C1551 C699 0.322 . S
C1556 C846 0.271 . S
C1581 C739 0.323 . S
C1586 C886 0.272 . S
C1611 C779 0.322 . S
C1616 C926 0.271 . S
C1641 C970 0.323 . S
C1646 C1135 0.272 1_565 S
C1671 C1175 0.272 . S
C1676 C1010 0.322 . S
C1701 C1050 0.323 . S
C1706 C1215 0.272 1_545 S
C1731 C1255 0.272 . S
C1736 C1090 0.322 . S
C1761 C858 1.239 . S
C1766 C9 1.236 . S
C1791 C898 1.240 . S
C1796 C49 1.237 . S
C1821 C938 1.240 . S
C1826 C89 1.236 . S
C1851 C129 1.238 . S
C1856 C818 1.242 . S
C1881 C178 1.240 . S
C1886 C769 1.237 . S
C1911 C649 1.236 . S
C1916 C218 1.240 . S
C1941 C258 1.242 . S
C1946 C689 1.238 . S
C1971 C298 1.239 . S
C1976 C729 1.236 . S
C2001 C338 1.237 . S
C2006 C1169 1.241 . S
C2031 C1209 1.241 . S
C2036 C378 1.237 . S
C2061 C1249 1.240 . S
C2066 C418 1.236 . S
C2091 C458 1.236 . S
C2096 C1129 1.240 . S
C2121 C489 1.241 . S
C2126 C1098 1.237 . S
C2151 C529 1.240 . S
C2156 C978 1.236 . S
C2181 C569 1.240 . S
C2186 C1018 1.236 . S
C2211 C609 1.241 . S
C2216 C1058 1.237 . S
C2241 C329 0.798 . S
C2246 C18 0.799 . S
C2271 C58 0.797 . S
C2276 C1009 0.797 . S
C2301 C409 0.798 . S
C2306 C98 0.799 . S
C2331 C138 0.797 . S
C2336 C1089 0.797 . S
C2361 C498 0.595 . S
C2366 C169 0.595 . S
C2391 C1178 0.597 . S
C2396 C209 0.597 . S
C2421 C249 0.595 . S
C2426 C578 0.595 . S
C2451 C289 0.597 . S
C2456 C1258 0.597 . S
C2481 C698 0.797 . S
C2486 C369 0.797 . S
C2511 C778 0.797 . S
C2516 C449 0.797 . S
C2541 C538 0.597 . S
C2546 C849 0.597 . S
C2571 C929 0.597 . S
C2576 C618 0.597 . S
C2601 C969 0.798 . S
C2606 C658 0.799 . S
C2631 C1049 0.798 . S
C2636 C738 0.799 . S
C2661 C1138 0.595 . S
C2666 C809 0.595 . S
C2691 C889 0.595 . S
C2696 C1218 0.595 . S
C2721 C10 2.035 . S
C2726 C499 2.032 . S
C2751 C1179 2.032 . S
C2756 C50 2.035 . S
C2781 C579 2.032 . S
C2786 C90 2.035 . S
C2811 C130 2.035 . S
C2816 C1259 2.032 . S
C2841 C326 0.871 . S
C2846 C175 0.869 . S
C2871 C1006 0.871 . S
C2876 C215 0.870 . S
C2901 C406 0.871 . S
C2906 C255 0.869 . S
C2931 C1086 0.871 . S
C2936 C295 0.870 . S
C2961 C170 2.033 . S
C2966 C339 2.035 . S
C2991 C850 2.032 . S
C2996 C379 2.034 1_554 S
C3021 C250 2.033 1_556 S
C3026 C419 2.035 . S
C3051 C459 2.034 . S
C3056 C930 2.032 . S
C3081 C15 0.871 . S
C3086 C486 0.869 . S
C3111 C695 0.871 . S
C3116 C526 0.870 . S
C3141 C566 0.869 . S
C3146 C95 0.871 . S
C3171 C606 0.870 . S
C3176 C775 0.871 . S
C3201 C1139 2.032 . S
C3206 C650 2.035 . S
C3231 C539 2.032 . S
C3236 C690 2.035 . S
C3261 C730 2.035 . S
C3266 C1219 2.032 . S
C3291 C619 2.032 . S
C3296 C770 2.035 . S
C3321 C815 0.869 . S
C3326 C966 0.871 . S
C3351 C855 0.870 . S
C3356 C366 0.871 . S
C3381 C1046 0.871 . S
C3386 C895 0.869 . S
C3411 C446 0.871 . S
C3416 C935 0.870 . S
C3441 C979 2.035 . S
C3446 C810 2.033 1_556 S
C3471 C1019 2.034 . S
C3476 C210 2.032 . S
C3501 C1059 2.035 . S
C3506 C890 2.033 . S
C3531 C1099 2.034 1_554 S
C3536 C290 2.032 . S
C3561 C655 0.871 . S
C3566 C1126 0.869 . S
C3591 C55 0.871 . S
C3596 C1166 0.870 . S
C3621 C1206 0.869 . S
C3626 C735 0.871 . S
C3651 C135 0.871 . S
C3656 C1246 0.870 . S
C3681 C179 2.339 . S
C3686 C6 2.318 . S
C3711 C219 2.339 . S
C3716 C46 2.318 . S
C3741 C86 2.318 . S
C3746 C259 2.339 . S
C3771 C299 2.339 . S
C3776 C126 2.318 . S
C3801 C490 2.339 . S
C3806 C335 2.318 . S
C3831 C375 2.318 . S
C3836 C530 2.339 . S
C3861 C415 2.318 . S
C3866 C570 2.338 . S
C3891 C610 2.339 . S
C3896 C455 2.318 . S
C3921 C646 2.318 . S
C3926 C819 2.339 . S
C3951 C859 2.339 . S
C3956 C686 2.318 . S
C3981 C726 2.318 . S
C3986 C899 2.339 . S
C4011 C766 2.318 . S
C4016 C939 2.339 . S
C4041 C1130 2.338 . S
C4046 C975 2.318 . S
C4071 C1170 2.339 . S
C4076 C1015 2.318 . S
C4101 C1055 2.318 . S
C4106 C1210 2.339 . S
C4131 C1250 2.339 . S
C4136 C1095 2.318 . S
