# Generated by pormake.
# Topology wgb, (5)-cn, num edge types: 1
# Building blocks:
#     Node 0, Type 0, BuildingBlock: XOMCOT_clean_sbu_1, # of connection points: 5
#     Node 1, Type 0, BuildingBlock: XOMCOT_clean_sbu_1, # of connection points: 5
#     Node 2, Type 0, BuildingBlock: XOMCOT_clean_sbu_1, # of connection points: 5
#     Node 3, Type 0, BuildingBlock: XOMCOT_clean_sbu_1, # of connection points: 5
#     Node 4, Type 0, BuildingBlock: XOMCOT_clean_sbu_1, # of connection points: 5
#     Node 5, Type 0, BuildingBlock: XOMCOT_clean_sbu_1, # of connection points: 5
#     Node 6, Type 0, BuildingBlock: XOMCOT_clean_sbu_1, # of connection points: 5
#     Node 7, Type 0, BuildingBlock: XOMCOT_clean_sbu_1, # of connection points: 5
#     Node 8, Type 0, BuildingBlock: XOMCOT_clean_sbu_1, # of connection points: 5
#     Node 9, Type 0, BuildingBlock: XOMCOT_clean_sbu_1, # of connection points: 5
#     Node 10, Type 0, BuildingBlock: XOMCOT_clean_sbu_1, # of connection points: 5
#     Node 11, Type 0, BuildingBlock: XOMCOT_clean_sbu_1, # of connection points: 5
#     Node 12, Type 0, BuildingBlock: XOMCOT_clean_sbu_1, # of connection points: 5
#     Node 13, Type 0, BuildingBlock: XOMCOT_clean_sbu_1, # of connection points: 5
#     Node 14, Type 0, BuildingBlock: XOMCOT_clean_sbu_1, # of connection points: 5
#     Node 15, Type 0, BuildingBlock: XOMCOT_clean_sbu_1, # of connection points: 5
#     Edge 16, Type (0, 0), BuildingBlock: OJICUG_clean_linker_0, # of connection points: 2
#     Edge 17, Type (0, 0), BuildingBlock: OJICUG_clean_linker_0, # of connection points: 2
#     Edge 18, Type (0, 0), BuildingBlock: OJICUG_clean_linker_0, # of connection points: 2
#     Edge 19, Type (0, 0), BuildingBlock: OJICUG_clean_linker_0, # of connection points: 2
#     Edge 20, Type (0, 0), BuildingBlock: OJICUG_clean_linker_0, # of connection points: 2
#     Edge 21, Type (0, 0), BuildingBlock: OJICUG_clean_linker_0, # of connection points: 2
#     Edge 22, Type (0, 0), BuildingBlock: OJICUG_clean_linker_0, # of connection points: 2
#     Edge 23, Type (0, 0), BuildingBlock: OJICUG_clean_linker_0, # of connection points: 2
#     Edge 24, Type (0, 0), BuildingBlock: OJICUG_clean_linker_0, # of connection points: 2
#     Edge 25, Type (0, 0), BuildingBlock: OJICUG_clean_linker_0, # of connection points: 2
#     Edge 26, Type (0, 0), BuildingBlock: OJICUG_clean_linker_0, # of connection points: 2
#     Edge 27, Type (0, 0), BuildingBlock: OJICUG_clean_linker_0, # of connection points: 2
#     Edge 28, Type (0, 0), BuildingBlock: OJICUG_clean_linker_0, # of connection points: 2
#     Edge 29, Type (0, 0), BuildingBlock: OJICUG_clean_linker_0, # of connection points: 2
#     Edge 30, Type (0, 0), BuildingBlock: OJICUG_clean_linker_0, # of connection points: 2
#     Edge 31, Type (0, 0), BuildingBlock: OJICUG_clean_linker_0, # of connection points: 2
#     Edge 32, Type (0, 0), BuildingBlock: OJICUG_clean_linker_0, # of connection points: 2
#     Edge 33, Type (0, 0), BuildingBlock: OJICUG_clean_linker_0, # of connection points: 2
#     Edge 34, Type (0, 0), BuildingBlock: OJICUG_clean_linker_0, # of connection points: 2
#     Edge 35, Type (0, 0), BuildingBlock: OJICUG_clean_linker_0, # of connection points: 2
#     Edge 36, Type (0, 0), BuildingBlock: OJICUG_clean_linker_0, # of connection points: 2
#     Edge 37, Type (0, 0), BuildingBlock: OJICUG_clean_linker_0, # of connection points: 2
#     Edge 38, Type (0, 0), BuildingBlock: OJICUG_clean_linker_0, # of connection points: 2
#     Edge 39, Type (0, 0), BuildingBlock: OJICUG_clean_linker_0, # of connection points: 2
#     Edge 40, Type (0, 0), BuildingBlock: OJICUG_clean_linker_0, # of connection points: 2
#     Edge 41, Type (0, 0), BuildingBlock: OJICUG_clean_linker_0, # of connection points: 2
#     Edge 42, Type (0, 0), BuildingBlock: OJICUG_clean_linker_0, # of connection points: 2
#     Edge 43, Type (0, 0), BuildingBlock: OJICUG_clean_linker_0, # of connection points: 2
#     Edge 44, Type (0, 0), BuildingBlock: OJICUG_clean_linker_0, # of connection points: 2
#     Edge 45, Type (0, 0), BuildingBlock: OJICUG_clean_linker_0, # of connection points: 2
#     Edge 46, Type (0, 0), BuildingBlock: OJICUG_clean_linker_0, # of connection points: 2
#     Edge 47, Type (0, 0), BuildingBlock: OJICUG_clean_linker_0, # of connection points: 2
#     Edge 48, Type (0, 0), BuildingBlock: OJICUG_clean_linker_0, # of connection points: 2
#     Edge 49, Type (0, 0), BuildingBlock: OJICUG_clean_linker_0, # of connection points: 2
#     Edge 50, Type (0, 0), BuildingBlock: OJICUG_clean_linker_0, # of connection points: 2
#     Edge 51, Type (0, 0), BuildingBlock: OJICUG_clean_linker_0, # of connection points: 2
#     Edge 52, Type (0, 0), BuildingBlock: OJICUG_clean_linker_0, # of connection points: 2
#     Edge 53, Type (0, 0), BuildingBlock: OJICUG_clean_linker_0, # of connection points: 2
#     Edge 54, Type (0, 0), BuildingBlock: OJICUG_clean_linker_0, # of connection points: 2
#     Edge 55, Type (0, 0), BuildingBlock: OJICUG_clean_linker_0, # of connection points: 2
# Relax obj value: 0.102
# Max RMSD: 0.128
# Mean RMSD: 0.128
data_MOF--net-wgb--node1-XOMCOT_clean_sbu_1--edge1-OJICUG_clean_linker_0
_symmetry_space_group_name_H-M    P1
_symmetry_Int_Tables_number       1
_symmetry_cell_setting            triclinic
loop_
_symmetry_equiv_pos_as_xyz
'x, y, z'
_cell_length_a     44.608655
_cell_length_b     44.605748
_cell_length_c     20.345598
_cell_angle_alpha  90.011486
_cell_angle_beta   89.999301
_cell_angle_gamma 90.000533
loop_
_atom_site_label
_atom_site_type_symbol
_atom_site_fract_x
_atom_site_fract_y
_atom_site_fract_z
_atom_type_partial_charge
C0 C 0.37832 0.06051 0.11256 0.0
C1 C 0.38507 0.0306 0.11835 0.0
N2 N 0.37399 0.02061 0.17594 0.0
N3 N 0.36291 0.06949 0.16598 0.0
C4 C 0.36063 0.04477 0.20391 0.0
H5 H 0.38482 0.07503 0.07247 0.0
Co6 Co 0.35116 0.109 0.17872 0.0
C7 C 0.29471 0.1068 0.255 0.0
O8 O 0.28324 0.12509 0.21105 0.0
N9 N 0.34048 0.14977 0.19143 0.0
C10 C 0.33372 0.19324 0.24348 0.0
C11 C 0.33796 0.16291 0.25102 0.0
C12 C 0.33813 0.17288 0.14856 0.0
N13 N 0.33395 0.19955 0.17878 0.0
O14 O 0.38249 0.11391 0.24174 0.0
H15 H 0.34016 0.15129 0.29743 0.0
H16 H 0.34023 0.17066 0.09618 0.0
O17 O 0.32183 0.0975 0.24833 0.0
C18 C 0.40516 0.12343 0.20966 0.0
O19 O 0.40206 0.12805 0.14621 0.0
N20 N 0.32362 0.10407 0.11057 0.0
C21 C 0.29243 0.09764 0.99341 0.0
C22 C 0.28313 0.08206 0.04969 0.0
C23 C 0.2996 0.08506 0.10794 0.0
C24 C 0.33455 0.11643 0.05434 0.0
C25 C 0.3189 0.1143 0.99571 0.0
H26 H 0.29334 0.07176 0.1501 0.0
H27 H 0.35603 0.12761 0.05486 0.0
H28 H 0.34966 0.04466 0.25131 0.0
H29 H 0.39811 0.0176 0.08376 0.0
H30 H 0.33205 0.20946 0.28286 0.0
H31 H 0.26337 0.06795 0.04873 0.0
H32 H 0.32765 0.12529 0.95225 0.0
C33 C 0.06194 0.63913 0.88423 0.0
C34 C 0.03196 0.63263 0.87922 0.0
N35 N 0.02146 0.64486 0.8232 0.0
N36 N 0.07049 0.65549 0.83185 0.0
C37 C 0.04541 0.65863 0.79534 0.0
H38 H 0.0768 0.63194 0.92314 0.0
Co39 Co 0.10988 0.66762 0.81946 0.0
C40 C 0.10734 0.72404 0.74299 0.0
O41 O 0.12538 0.7357 0.78722 0.0
N42 N 0.15058 0.67865 0.80722 0.0
C43 C 0.19416 0.68557 0.7558 0.0
C44 C 0.16384 0.6815 0.74783 0.0
C45 C 0.1736 0.68064 0.85038 0.0
N46 N 0.20035 0.6849 0.82055 0.0
O47 O 0.11523 0.63625 0.75657 0.0
H48 H 0.15232 0.6795 0.70125 0.0
H49 H 0.17127 0.67809 0.90264 0.0
O50 O 0.09828 0.69683 0.74956 0.0
C51 C 0.12555 0.61385 0.78842 0.0
O52 O 0.13064 0.61718 0.85163 0.0
N53 N 0.10452 0.69516 0.88751 0.0
C54 C 0.09745 0.72639 0.0045 0.0
C55 C 0.08194 0.73549 0.94797 0.0
C56 C 0.08527 0.71901 0.88981 0.0
C57 C 0.11681 0.68439 0.94397 0.0
C58 C 0.11439 0.70008 0.00251 0.0
H59 H 0.07204 0.72511 0.84745 0.0
H60 H 0.12812 0.66298 0.94374 0.0
H61 H 0.04486 0.6706 0.74914 0.0
H62 H 0.01921 0.61904 0.91325 0.0
H63 H 0.21046 0.68735 0.71663 0.0
H64 H 0.06764 0.75511 0.94868 0.0
H65 H 0.12533 0.69149 0.04617 0.0
C66 C 0.64015 0.95376 0.11614 0.0
C67 C 0.63318 0.98366 0.12107 0.0
N68 N 0.64399 0.99403 0.1786 0.0
N69 N 0.65541 0.94518 0.17008 0.0
C70 C 0.65739 0.97012 0.20739 0.0
H71 H 0.63399 0.93897 0.07624 0.0
Co72 Co 0.66769 0.90595 0.1843 0.0
C73 C 0.72398 0.90986 0.26089 0.0
O74 O 0.73593 0.89169 0.2173 0.0
N75 N 0.67895 0.86548 0.19869 0.0
C76 C 0.68634 0.82279 0.25345 0.0
C77 C 0.68213 0.8532 0.25907 0.0
C78 C 0.68085 0.84175 0.1573 0.0
N79 N 0.6855 0.81566 0.18928 0.0
O80 O 0.63616 0.90099 0.24684 0.0
H81 H 0.68036 0.86545 0.30478 0.0
H82 H 0.67702 0.84281 0.10511 0.0
O83 O 0.69663 0.91843 0.25404 0.0
C84 C 0.61377 0.89095 0.21453 0.0
O85 O 0.61726 0.88592 0.15132 0.0
N86 N 0.69545 0.91085 0.11659 0.0
C87 C 0.72677 0.91814 0.99977 0.0
C88 C 0.73508 0.93444 0.05581 0.0
C89 C 0.71857 0.93095 0.11382 0.0
C90 C 0.68548 0.89748 0.0606 0.0
C91 C 0.70126 0.90002 0.0022 0.0
H92 H 0.72394 0.94487 0.15563 0.0
H93 H 0.66439 0.8856 0.06076 0.0
H94 H 0.66826 0.97058 0.25488 0.0
H95 H 0.62024 0.99642 0.08586 0.0
H96 H 0.68903 0.80708 0.29356 0.0
H97 H 0.75404 0.94961 0.05474 0.0
H98 H 0.6932 0.88845 0.95883 0.0
C99 C 0.9564 0.37744 0.89007 0.0
C100 C 0.98648 0.38351 0.88574 0.0
N101 N 0.99636 0.37426 0.82648 0.0
N102 N 0.94717 0.3641 0.83423 0.0
C103 C 0.9719 0.3626 0.79613 0.0
H104 H 0.94207 0.38253 0.93144 0.0
Co105 Co 0.90757 0.35272 0.82045 0.0
C106 C 0.90966 0.29665 0.74292 0.0
O107 O 0.89118 0.28515 0.78644 0.0
N108 N 0.86675 0.34241 0.8068 0.0
C109 C 0.82338 0.33612 0.75407 0.0
C110 C 0.85374 0.34035 0.74699 0.0
C111 C 0.84353 0.33978 0.84932 0.0
N112 N 0.81693 0.33588 0.8187 0.0
O113 O 0.90307 0.38445 0.75829 0.0
H114 H 0.86548 0.34282 0.70079 0.0
H115 H 0.84561 0.3414 0.90179 0.0
O116 O 0.91912 0.32369 0.75016 0.0
C117 C 0.89395 0.4071 0.791 0.0
O118 O 0.88963 0.40383 0.85451 0.0
N119 N 0.9121 0.32469 0.88785 0.0
C120 C 0.91897 0.29308 0.00437 0.0
C121 C 0.93461 0.28419 0.94786 0.0
C122 C 0.93135 0.30084 0.88995 0.0
C123 C 0.89953 0.33515 0.9443 0.0
C124 C 0.90185 0.31927 0.00258 0.0
H125 H 0.94478 0.29497 0.84771 0.0
H126 H 0.88827 0.3566 0.94441 0.0
H127 H 0.97171 0.35368 0.74671 0.0
H128 H 0.9999 0.39382 0.92378 0.0
H129 H 0.80724 0.33471 0.71449 0.0
H130 H 0.94904 0.26467 0.94846 0.0
H131 H 0.89081 0.3277 0.04628 0.0
C132 C 0.37769 0.45448 0.13547 0.0
C133 C 0.38463 0.48438 0.1304 0.0
N134 N 0.37388 0.49466 0.07273 0.0
N135 N 0.36252 0.4458 0.08149 0.0
C136 C 0.36055 0.47068 0.04401 0.0
H137 H 0.38381 0.43976 0.17552 0.0
Co138 Co 0.35029 0.40654 0.06737 0.0
C139 C 0.29414 0.41033 0.99026 0.0
O140 O 0.28214 0.39217 0.0338 0.0
N141 N 0.33908 0.36605 0.05305 0.0
C142 C 0.3318 0.32335 0.99824 0.0
C143 C 0.33604 0.35374 0.99264 0.0
C144 C 0.33706 0.34234 0.09444 0.0
N145 N 0.33248 0.31623 0.06242 0.0
O146 O 0.38193 0.40152 0.00511 0.0
H147 H 0.33792 0.36598 0.94694 0.0
H148 H 0.34076 0.34342 0.14668 0.0
O149 O 0.32147 0.41894 0.99732 0.0
C150 C 0.40432 0.39153 0.03748 0.0
O151 O 0.40085 0.38664 0.10074 0.0
N152 N 0.32237 0.41151 0.13481 0.0
C153 C 0.29058 0.41876 0.25105 0.0
C154 C 0.2825 0.43508 0.1949 0.0
C155 C 0.29924 0.43161 0.13719 0.0
C156 C 0.33214 0.39815 0.19096 0.0
C157 C 0.31612 0.40066 0.24907 0.0
H158 H 0.29401 0.44552 0.09529 0.0
H159 H 0.35322 0.38626 0.19114 0.0
H160 H 0.34973 0.47106 0.99646 0.0
H161 H 0.3975 0.49722 0.16562 0.0
H162 H 0.32918 0.30763 0.9581 0.0
H163 H 0.26353 0.45024 0.19564 0.0
H164 H 0.32401 0.38907 0.29256 0.0
C165 C 0.45554 0.63927 0.86382 0.0
C166 C 0.48542 0.63232 0.86946 0.0
N167 N 0.49535 0.64265 0.92779 0.0
N168 N 0.44655 0.65405 0.91809 0.0
C169 C 0.47121 0.65576 0.95631 0.0
H170 H 0.44104 0.63335 0.82324 0.0
Co171 Co 0.4072 0.66599 0.93225 0.0
C172 C 0.41059 0.72231 0.00878 0.0
O173 O 0.39225 0.73407 0.96529 0.0
N174 N 0.36665 0.67694 0.94672 0.0
C175 C 0.32399 0.68416 0.00171 0.0
C176 C 0.35435 0.67967 0.0072 0.0
C177 C 0.34297 0.67945 0.90536 0.0
N178 N 0.31689 0.68401 0.93749 0.0
O179 O 0.40252 0.63444 0.99484 0.0
H180 H 0.3666 0.67753 0.05284 0.0
H181 H 0.34405 0.67627 0.85296 0.0
O182 O 0.41944 0.69505 0.00187 0.0
C183 C 0.39282 0.61195 0.96235 0.0
O184 O 0.388 0.61539 0.89906 0.0
N185 N 0.41181 0.69374 0.86446 0.0
C186 C 0.41831 0.72512 0.74754 0.0
C187 C 0.43461 0.73372 0.80338 0.0
C188 C 0.43153 0.71717 0.86146 0.0
C189 C 0.39852 0.6835 0.80863 0.0
C190 C 0.40067 0.69928 0.75018 0.0
H191 H 0.44541 0.72281 0.90315 0.0
H192 H 0.38684 0.66229 0.80908 0.0
H193 H 0.47129 0.66617 0.00431 0.0
H194 H 0.49846 0.61969 0.83421 0.0
H195 H 0.30829 0.68669 0.04189 0.0
H196 H 0.44943 0.75295 0.80214 0.0
H197 H 0.38912 0.69101 0.70697 0.0
C198 C 0.63869 0.55999 0.13792 0.0
C199 C 0.63208 0.53005 0.13212 0.0
N200 N 0.64338 0.52006 0.07471 0.0
N201 N 0.65421 0.569 0.08468 0.0
C202 C 0.65671 0.54426 0.04685 0.0
H203 H 0.63204 0.57451 0.1779 0.0
Co204 Co 0.6659 0.60854 0.07214 0.0
C205 C 0.72238 0.60653 0.99592 0.0
O206 O 0.7338 0.6248 0.03999 0.0
N207 N 0.67653 0.64933 0.05963 0.0
C208 C 0.68329 0.69283 0.00775 0.0
C209 C 0.67894 0.66253 1.00008 0.0
C210 C 0.67908 0.67239 0.10261 0.0
N211 N 0.68326 0.69907 0.07249 0.0
O212 O 0.63459 0.61346 0.00907 0.0
H213 H 0.67662 0.65095 0.95364 0.0
H214 H 0.67715 0.67011 0.15501 0.0
O215 O 0.69528 0.59715 0.00252 0.0
C216 C 0.61189 0.62289 0.04119 0.0
O217 O 0.61495 0.6274 0.10468 0.0
N218 N 0.69341 0.60361 0.14033 0.0
C219 C 0.72456 0.59732 0.25756 0.0
C220 C 0.73396 0.58179 0.20129 0.0
C221 C 0.71752 0.58471 0.143 0.0
C222 C 0.68237 0.61589 0.19655 0.0
C223 C 0.69799 0.61384 0.25522 0.0
H224 H 0.72387 0.57147 0.10081 0.0
H225 H 0.66086 0.62703 0.19595 0.0
H226 H 0.66783 0.54415 0.99962 0.0
H227 H 0.619 0.51701 0.16657 0.0
H228 H 0.68493 0.70908 0.96844 0.0
H229 H 0.7538 0.56779 0.20228 0.0
H230 H 0.68918 0.62479 0.29867 0.0
C231 C 0.5616 0.37644 0.86361 0.0
C232 C 0.53167 0.38323 0.86887 0.0
N233 N 0.52148 0.37234 0.92649 0.0
N234 N 0.5704 0.36122 0.91741 0.0
C235 C 0.54555 0.35906 0.955 0.0
H236 H 0.57625 0.38274 0.82359 0.0
Co237 Co 0.60979 0.3493 0.93116 0.0
C238 C 0.60659 0.29285 0.0074 0.0
O239 O 0.62483 0.28114 0.96364 0.0
N240 N 0.65041 0.33844 0.94506 0.0
C241 C 0.69326 0.33134 0.99936 0.0
C242 C 0.66283 0.33517 0.00528 0.0
C243 C 0.67409 0.33698 0.90346 0.0
N244 N 0.70029 0.33252 0.93516 0.0
O245 O 0.61458 0.38074 0.99394 0.0
H246 H 0.65063 0.33664 0.05112 0.0
H247 H 0.6729 0.34103 0.85136 0.0
O248 O 0.59773 0.32012 0.00073 0.0
C249 C 0.62442 0.40327 0.96185 0.0
O250 O 0.62923 0.40003 0.8985 0.0
N251 N 0.60509 0.32163 0.86323 0.0
C252 C 0.5987 0.29017 0.74638 0.0
C253 C 0.58244 0.28152 0.80223 0.0
C254 C 0.58545 0.29811 0.86029 0.0
C255 C 0.61828 0.33193 0.80736 0.0
C256 C 0.61618 0.31611 0.74893 0.0
H257 H 0.57163 0.29242 0.90203 0.0
H258 H 0.62977 0.35323 0.80771 0.0
H259 H 0.54528 0.34821 0.0025 0.0
H260 H 0.51877 0.39612 0.83384 0.0
H261 H 0.70906 0.32868 0.03932 0.0
H262 H 0.56773 0.26221 0.80105 0.0
H263 H 0.62767 0.32443 0.70569 0.0
C264 C 0.8772 0.56398 0.61608 0.0
C265 C 0.88435 0.53413 0.62142 0.0
N266 N 0.87395 0.52397 0.67949 0.0
N267 N 0.86221 0.57271 0.67028 0.0
C268 C 0.8606 0.54794 0.70818 0.0
H269 H 0.88306 0.57862 0.57573 0.0
Co270 Co 0.84985 0.61192 0.68438 0.0
C271 C 0.79363 0.60791 0.76118 0.0
O272 O 0.78161 0.62602 0.71756 0.0
N273 N 0.8385 0.65236 0.69875 0.0
C274 C 0.83105 0.69504 0.75355 0.0
C275 C 0.83533 0.66464 0.75914 0.0
C276 C 0.83651 0.67608 0.65737 0.0
N277 N 0.83182 0.70216 0.68938 0.0
O278 O 0.88146 0.61703 0.74668 0.0
H279 H 0.83718 0.6524 0.80484 0.0
H280 H 0.84032 0.67502 0.60517 0.0
O281 O 0.82101 0.59942 0.75429 0.0
C282 C 0.90371 0.62725 0.7142 0.0
O283 O 0.90007 0.63228 0.65104 0.0
N284 N 0.82203 0.60691 0.61681 0.0
C285 C 0.79058 0.59961 0.50017 0.0
C286 C 0.78237 0.58325 0.5562 0.0
C287 C 0.79895 0.58675 0.61413 0.0
C288 C 0.83191 0.62031 0.5608 0.0
C289 C 0.81606 0.61776 0.50249 0.0
H290 H 0.79366 0.57282 0.65595 0.0
H291 H 0.85297 0.63223 0.56087 0.0
H292 H 0.85005 0.54764 0.75603 0.0
H293 H 0.89714 0.52126 0.58613 0.0
H294 H 0.82837 0.71074 0.79368 0.0
H295 H 0.76345 0.56805 0.5552 0.0
H296 H 0.82405 0.62937 0.45911 0.0
C297 C 0.56182 0.13828 0.3863 0.0
C298 C 0.5319 0.13148 0.38066 0.0
N299 N 0.52192 0.14222 0.32273 0.0
N300 N 0.57079 0.15336 0.33243 0.0
C301 C 0.54608 0.15541 0.29445 0.0
H302 H 0.57635 0.13209 0.42663 0.0
Co303 Co 0.61015 0.16533 0.31859 0.0
C304 C 0.60686 0.22169 0.24217 0.0
O305 O 0.62512 0.23344 0.28584 0.0
N306 N 0.65071 0.17633 0.30445 0.0
C307 C 0.69343 0.18362 0.24976 0.0
C308 C 0.66309 0.17902 0.24405 0.0
C309 C 0.67431 0.17898 0.34598 0.0
N310 N 0.70042 0.18358 0.31403 0.0
O311 O 0.61495 0.1338 0.25594 0.0
H312 H 0.65092 0.17681 0.19833 0.0
H313 H 0.67315 0.1759 0.39841 0.0
O314 O 0.598 0.19443 0.24896 0.0
C315 C 0.62471 0.11137 0.2885 0.0
O316 O 0.6295 0.11487 0.35179 0.0
N317 N 0.60542 0.19301 0.38645 0.0
C318 C 0.59886 0.22425 0.50354 0.0
C319 C 0.58264 0.23297 0.44767 0.0
C320 C 0.58575 0.21649 0.38948 0.0
C321 C 0.6186 0.18265 0.44228 0.0
C322 C 0.61641 0.19836 0.50084 0.0
H323 H 0.57196 0.22222 0.34773 0.0
H324 H 0.63028 0.16144 0.44171 0.0
H325 H 0.54596 0.16614 0.2468 0.0
H326 H 0.51886 0.11869 0.41564 0.0
H327 H 0.70918 0.18617 0.20968 0.0
H328 H 0.5679 0.25225 0.44895 0.0
H329 H 0.6279 0.19 0.54404 0.0
C330 C 0.13605 0.45572 0.61727 0.0
C331 C 0.12932 0.48567 0.62271 0.0
N332 N 0.14263 0.49641 0.67733 0.0
N333 N 0.15363 0.44749 0.66794 0.0
C334 C 0.15726 0.47268 0.70388 0.0
H335 H 0.12818 0.44067 0.57934 0.0
Co336 Co 0.1665 0.40836 0.67976 0.0
C337 C 0.22327 0.41174 0.75492 0.0
O338 O 0.23507 0.39394 0.71042 0.0
N339 N 0.17839 0.36785 0.69163 0.0
C340 C 0.18627 0.32438 0.7428 0.0
C341 C 0.18166 0.35461 0.75093 0.0
C342 C 0.18072 0.3449 0.64835 0.0
N343 N 0.18554 0.31821 0.67804 0.0
O344 O 0.13571 0.40259 0.74361 0.0
H345 H 0.17957 0.36606 0.79758 0.0
H346 H 0.17797 0.34724 0.59613 0.0
O347 O 0.19592 0.4204 0.7488 0.0
C348 C 0.11376 0.38969 0.71496 0.0
O349 O 0.1167 0.38238 0.6527 0.0
N350 N 0.19346 0.41415 0.6109 0.0
C351 C 0.22407 0.42093 0.49313 0.0
C352 C 0.23344 0.4366 0.54925 0.0
C353 C 0.21725 0.43344 0.60782 0.0
C354 C 0.18233 0.40181 0.55486 0.0
C355 C 0.19769 0.40411 0.49588 0.0
H356 H 0.2236 0.44672 0.64995 0.0
H357 H 0.16101 0.39031 0.55593 0.0
H358 H 0.17019 0.47347 0.74879 0.0
H359 H 0.11485 0.49821 0.59008 0.0
H360 H 0.18842 0.30809 0.78191 0.0
H361 H 0.25311 0.45083 0.54798 0.0
H362 H 0.18888 0.39302 0.45259 0.0
C363 C 0.45613 0.87718 0.38736 0.0
C364 C 0.48611 0.88382 0.3823 0.0
N365 N 0.49636 0.87271 0.32493 0.0
N366 N 0.44737 0.86184 0.33367 0.0
C367 C 0.47229 0.85946 0.29637 0.0
H368 H 0.44143 0.88364 0.42718 0.0
Co369 Co 0.408 0.84996 0.31961 0.0
C370 C 0.41121 0.79351 0.24347 0.0
O371 O 0.3929 0.78185 0.28715 0.0
N372 N 0.36741 0.8391 0.30529 0.0
C373 C 0.3247 0.83199 0.25044 0.0
C374 C 0.35511 0.83614 0.24488 0.0
C375 C 0.3437 0.8371 0.34668 0.0
N376 N 0.31758 0.83262 0.31463 0.0
O377 O 0.40334 0.88141 0.25679 0.0
H378 H 0.36737 0.83796 0.19919 0.0
H379 H 0.34479 0.84067 0.39896 0.0
O380 O 0.42013 0.82076 0.25016 0.0
C381 C 0.39348 0.90394 0.28887 0.0
O382 O 0.3886 0.90069 0.35219 0.0
N383 N 0.41256 0.82232 0.3876 0.0
C384 C 0.41877 0.79099 0.50465 0.0
C385 C 0.43509 0.78226 0.44893 0.0
C386 C 0.43216 0.79879 0.39078 0.0
C387 C 0.3993 0.8327 0.44335 0.0
C388 C 0.40132 0.81694 0.50187 0.0
H389 H 0.44603 0.79303 0.34914 0.0
H390 H 0.38776 0.85398 0.44277 0.0
H391 H 0.47261 0.84844 0.24905 0.0
H392 H 0.499 0.89675 0.4173 0.0
H393 H 0.30899 0.82942 0.2103 0.0
H394 H 0.44977 0.76294 0.45028 0.0
H395 H 0.38977 0.82532 0.54499 0.0
C396 C 0.87925 0.95757 0.63749 0.0
C397 C 0.88573 0.98755 0.63189 0.0
N398 N 0.87403 0.99765 0.57498 0.0
N399 N 0.86342 0.94865 0.58461 0.0
C400 C 0.86059 0.97348 0.54722 0.0
H401 H 0.88616 0.94298 0.67712 0.0
Co402 Co 0.85163 0.90915 0.57212 0.0
C403 C 0.79523 0.91127 0.49566 0.0
O404 O 0.78372 0.89307 0.53974 0.0
N405 N 0.84088 0.8684 0.55964 0.0
C406 C 0.83406 0.82489 0.50781 0.0
C407 C 0.83848 0.85518 0.50011 0.0
C408 C 0.83826 0.84538 0.60265 0.0
N409 N 0.83404 0.81869 0.57257 0.0
O410 O 0.883 0.90408 0.50926 0.0
H411 H 0.84087 0.86673 0.45365 0.0
H412 H 0.84018 0.84768 0.65506 0.0
O413 O 0.82234 0.92058 0.50232 0.0
C414 C 0.90556 0.89434 0.54141 0.0
O415 O 0.90238 0.88971 0.60483 0.0
N416 N 0.82408 0.91422 0.64016 0.0
C417 C 0.79282 0.92053 0.75722 0.0
C418 C 0.78348 0.93608 0.70092 0.0
C419 C 0.79999 0.93314 0.64271 0.0
C420 C 0.83506 0.90195 0.69644 0.0
C421 C 0.81938 0.90402 0.75502 0.0
H422 H 0.79369 0.94638 0.60048 0.0
H423 H 0.85656 0.89078 0.69592 0.0
H424 H 0.84913 0.97369 0.50039 0.0
H425 H 0.89897 1.00054 0.66613 0.0
H426 H 0.83243 0.80862 0.46854 0.0
H427 H 0.76365 0.95008 0.70182 0.0
H428 H 0.82814 0.89306 0.79851 0.0
C429 C 0.95534 0.14035 0.36667 0.0
C430 C 0.98528 0.13368 0.37159 0.0
N431 N 0.99579 0.14553 0.42801 0.0
N432 N 0.94681 0.15643 0.41948 0.0
C433 C 0.97187 0.15924 0.45619 0.0
H434 H 0.94048 0.13341 0.32752 0.0
Co435 Co 0.90741 0.16853 0.43213 0.0
C436 C 0.91002 0.22496 0.50862 0.0
O437 O 0.8919 0.2366 0.46455 0.0
N438 N 0.86672 0.17951 0.44457 0.0
C439 C 0.82312 0.18631 0.49602 0.0
C440 C 0.85347 0.18244 0.50396 0.0
C441 C 0.84365 0.18123 0.40146 0.0
N442 N 0.8169 0.1854 0.4313 0.0
O443 O 0.90214 0.13718 0.49496 0.0
H444 H 0.86502 0.1806 0.55053 0.0
H445 H 0.84596 0.17852 0.34924 0.0
O446 O 0.91908 0.19775 0.50199 0.0
C447 C 0.89211 0.11471 0.46291 0.0
O448 O 0.88726 0.11797 0.39959 0.0
N449 N 0.91266 0.19607 0.36412 0.0
C450 C 0.91959 0.2272 0.24704 0.0
C451 C 0.93513 0.23638 0.30348 0.0
C452 C 0.93187 0.21995 0.36169 0.0
C453 C 0.90035 0.18523 0.30774 0.0
C454 C 0.90271 0.20087 0.24915 0.0
H455 H 0.94514 0.22609 0.40398 0.0
H456 H 0.88911 0.16378 0.30804 0.0
H457 H 0.97242 0.17089 0.50278 0.0
H458 H 0.99799 0.12023 0.33723 0.0
H459 H 0.80682 0.18808 0.5352 0.0
H460 H 0.94941 0.25602 0.30264 0.0
H461 H 0.89176 0.19221 0.20555 0.0
C462 C 0.13949 0.06348 0.63412 0.0
C463 C 0.1327 0.03353 0.62907 0.0
N464 N 0.14384 0.0232 0.57179 0.0
N465 N 0.15493 0.07213 0.5805 0.0
C466 C 0.15723 0.04719 0.54328 0.0
H467 H 0.13311 0.07823 0.67392 0.0
Co468 Co 0.16722 0.11139 0.56648 0.0
C469 C 0.22344 0.10756 0.48971 0.0
O470 O 0.2354 0.12567 0.53341 0.0
N471 N 0.17854 0.15186 0.55214 0.0
C472 C 0.18592 0.19447 0.49712 0.0
C473 C 0.18138 0.16412 0.49166 0.0
C474 C 0.18103 0.17555 0.59347 0.0
N475 N 0.18568 0.20161 0.56131 0.0
O476 O 0.13559 0.11647 0.50424 0.0
H477 H 0.1792 0.15187 0.44601 0.0
H478 H 0.17771 0.17451 0.64584 0.0
O479 O 0.19609 0.09898 0.49654 0.0
C480 C 0.11339 0.12674 0.53683 0.0
O481 O 0.11709 0.13175 0.59998 0.0
N482 N 0.19502 0.10641 0.63403 0.0
C483 C 0.22642 0.09928 0.75077 0.0
C484 C 0.23472 0.08293 0.69479 0.0
C485 C 0.21818 0.08634 0.6368 0.0
C486 C 0.18504 0.11978 0.68999 0.0
C487 C 0.20085 0.11732 0.74836 0.0
H488 H 0.22357 0.07244 0.59498 0.0
H489 H 0.16398 0.13173 0.68975 0.0
H490 H 0.16835 0.04677 0.49606 0.0
H491 H 0.1197 0.0207 0.66404 0.0
H492 H 0.18847 0.21016 0.45691 0.0
H493 H 0.25373 0.06783 0.69587 0.0
H494 H 0.1928 0.12894 0.79168 0.0
C495 C 0.06224 0.87934 0.36545 0.0
C496 C 0.03235 0.88616 0.3712 0.0
N497 N 0.02228 0.87498 0.42864 0.0
N498 N 0.07113 0.8638 0.41875 0.0
C499 C 0.04637 0.8615 0.45656 0.0
H500 H 0.07681 0.88583 0.32543 0.0
Co501 Co 0.11053 0.85175 0.43137 0.0
C502 C 0.10791 0.79548 0.50829 0.0
O503 O 0.12602 0.78375 0.4643 0.0
N504 N 0.15122 0.84077 0.44396 0.0
C505 C 0.19468 0.83385 0.49587 0.0
C506 C 0.16438 0.8382 0.50351 0.0
C507 C 0.17429 0.83833 0.40101 0.0
N508 N 0.20096 0.83406 0.43114 0.0
O509 O 0.11579 0.88327 0.49393 0.0
H510 H 0.1528 0.8405 0.54995 0.0
H511 H 0.17205 0.84048 0.34865 0.0
O512 O 0.09887 0.82268 0.50148 0.0
C513 C 0.12557 0.90573 0.4615 0.0
O514 O 0.13028 0.90233 0.39816 0.0
N515 N 0.10526 0.82404 0.3636 0.0
C516 C 0.09796 0.7927 0.24682 0.0
C517 C 0.08241 0.78378 0.30343 0.0
C518 C 0.08587 0.80031 0.36147 0.0
C519 C 0.11765 0.83462 0.30708 0.0
C520 C 0.11512 0.81886 0.24864 0.0
H521 H 0.07257 0.79438 0.40386 0.0
H522 H 0.1291 0.85596 0.30713 0.0
H523 H 0.04618 0.8504 0.5038 0.0
H524 H 0.01939 0.89928 0.33668 0.0
H525 H 0.21092 0.83215 0.53519 0.0
H526 H 0.06794 0.76428 0.30284 0.0
H527 H 0.12611 0.82731 0.20492 0.0
C528 C 0.2903 0.09857 0.37666 0.0
C529 C 0.2767 0.10017 0.31459 0.0
H530 H 0.28384 0.0998 0.48111 0.0
C531 C 0.24516 0.09979 0.31079 0.0
H532 H 0.31449 0.09907 0.38118 0.0
C533 C 0.22756 0.09957 0.36793 0.0
C534 C 0.2412 0.10048 0.43002 0.0
H535 H 0.23406 0.10099 0.2635 0.0
H536 H 0.2034 0.10085 0.36343 0.0
C537 C 0.27271 0.09912 0.4338 0.0
C538 C 0.0997 0.79114 0.63002 0.0
C539 C 0.10105 0.77756 0.5679 0.0
H540 H 0.10077 0.78462 0.73446 0.0
C541 C 0.10016 0.74602 0.56404 0.0
H542 H 0.10059 0.81533 0.6346 0.0
C543 C 0.09962 0.7284 0.62113 0.0
C544 C 0.10074 0.74198 0.68327 0.0
H545 H 0.10117 0.73492 0.51672 0.0
H546 H 0.10047 0.70421 0.61656 0.0
C547 C 0.09993 0.77352 0.68713 0.0
C548 C 0.79087 0.91906 0.37385 0.0
C549 C 0.77726 0.91776 0.43594 0.0
H550 H 0.78443 0.91744 0.26941 0.0
C551 C 0.74571 0.91823 0.4397 0.0
H552 H 0.81506 0.91847 0.36936 0.0
C553 C 0.72813 0.91828 0.38254 0.0
C554 C 0.74177 0.91708 0.32048 0.0
H555 H 0.7346 0.91725 0.487 0.0
H556 H 0.70396 0.91709 0.38705 0.0
C557 C 0.77329 0.91834 0.3167 0.0
C558 C 0.91729 0.24711 0.68746 0.0
C559 C 0.91656 0.27865 0.68344 0.0
H560 H 0.91679 0.20525 0.63514 0.0
C561 C 0.91801 0.29216 0.62127 0.0
H562 H 0.9162 0.23608 0.73484 0.0
C563 C 0.9177 0.27447 0.56425 0.0
C564 C 0.91674 0.24293 0.56825 0.0
H565 H 0.91721 0.31634 0.61659 0.0
H566 H 0.91692 0.28551 0.51685 0.0
C567 C 0.91778 0.22942 0.63045 0.0
C568 C 0.29017 0.41893 0.86862 0.0
C569 C 0.27643 0.41753 0.93056 0.0
H570 H 0.28387 0.41806 0.7641 0.0
C571 C 0.2449 0.41863 0.9341 0.0
H572 H 0.31435 0.41787 0.8643 0.0
C573 C 0.22741 0.41936 0.87682 0.0
C574 C 0.24113 0.41824 0.81482 0.0
H575 H 0.23369 0.41761 0.98128 0.0
H576 H 0.20322 0.41863 0.88114 0.0
C577 C 0.27268 0.4189 0.81132 0.0
C578 C 0.41884 0.7441 0.18754 0.0
C579 C 0.41802 0.77564 0.1838 0.0
H580 H 0.41811 0.70234 0.13487 0.0
C581 C 0.41918 0.78927 0.12172 0.0
H582 H 0.41796 0.73298 0.23484 0.0
C583 C 0.41863 0.77169 0.06457 0.0
C584 C 0.41768 0.74016 0.06833 0.0
H585 H 0.41832 0.81345 0.11725 0.0
H586 H 0.4176 0.78282 0.01729 0.0
C587 C 0.41906 0.72652 0.13038 0.0
C588 C 0.7268 0.59855 0.87418 0.0
C589 C 0.74039 0.60004 0.93626 0.0
H590 H 0.73324 0.60001 0.76973 0.0
C591 C 0.77194 0.59974 0.94004 0.0
H592 H 0.7026 0.599 0.86967 0.0
C593 C 0.78953 0.59968 0.88289 0.0
C594 C 0.77589 0.60069 0.82081 0.0
H595 H 0.78304 0.60087 0.98734 0.0
H596 H 0.81369 0.60101 0.88739 0.0
C597 C 0.74438 0.59926 0.81703 0.0
C598 C 0.59857 0.22589 0.12051 0.0
C599 C 0.59989 0.23954 0.18256 0.0
H600 H 0.59979 0.23232 0.01605 0.0
C601 C 0.599 0.27107 0.18631 0.0
H602 H 0.59948 0.2017 0.11604 0.0
C603 C 0.59854 0.28864 0.12914 0.0
C604 C 0.59974 0.27499 0.06707 0.0
H605 H 0.59998 0.28221 0.23358 0.0
H606 H 0.59943 0.31283 0.13361 0.0
C607 C 0.59888 0.24346 0.06334 0.0
C608 C 0.32028 0.28208 0.15431 0.0
C609 C 0.33177 0.28664 0.09081 0.0
H610 H 0.31123 0.25083 0.23142 0.0
C611 C 0.34333 0.26201 0.05614 0.0
H612 H 0.31088 0.3006 0.18187 0.0
C613 C 0.34387 0.23353 0.08467 0.0
C614 C 0.33259 0.22887 0.1485 0.0
H615 H 0.35278 0.26487 0.00756 0.0
H616 H 0.35386 0.21544 0.05693 0.0
C617 C 0.32056 0.25353 0.18271 0.0
C618 C 0.25445 0.69775 0.8175 0.0
C619 C 0.22962 0.68572 0.85108 0.0
H620 H 0.30163 0.70685 0.81894 0.0
C621 C 0.23409 0.67385 0.91448 0.0
H622 H 0.25191 0.70753 0.76917 0.0
C623 C 0.26254 0.6738 0.94314 0.0
C624 C 0.28734 0.68534 0.90904 0.0
H625 H 0.21586 0.66385 0.94172 0.0
H626 H 0.26525 0.6639 0.99133 0.0
C627 C 0.28298 0.69744 0.84603 0.0
C628 C 0.67453 0.76145 0.19559 0.0
C629 C 0.68609 0.78607 0.16085 0.0
H630 H 0.66381 0.71493 0.19472 0.0
C631 C 0.69739 0.7815 0.0972 0.0
H632 H 0.66522 0.76433 0.2443 0.0
C633 C 0.69692 0.75297 0.06867 0.0
C634 C 0.68486 0.72834 0.10292 0.0
H635 H 0.70679 0.8 0.06959 0.0
H636 H 0.7061 0.75028 0.01983 0.0
C637 C 0.67379 0.733 0.16694 0.0
C638 C 0.76304 0.32219 0.81417 0.0
C639 C 0.78759 0.33419 0.84878 0.0
H640 H 0.71606 0.31202 0.81482 0.0
C641 C 0.78282 0.34502 0.91296 0.0
H642 H 0.76582 0.31322 0.76515 0.0
C643 C 0.75438 0.34399 0.94153 0.0
C644 C 0.72985 0.33238 0.90657 0.0
H645 H 0.80082 0.35499 0.941 0.0
H646 H 0.75144 0.35308 0.99043 0.0
C647 C 0.73449 0.32142 0.84264 0.0
C648 C 0.82031 0.76481 0.56884 0.0
C649 C 0.83242 0.78944 0.60303 0.0
H650 H 0.81042 0.71779 0.56981 0.0
C651 C 0.84353 0.78479 0.66701 0.0
H652 H 0.8111 0.7675 0.52003 0.0
C653 C 0.84279 0.75635 0.69567 0.0
C654 C 0.8312 0.73174 0.66098 0.0
H655 H 0.85355 0.80287 0.69474 0.0
H656 H 0.85215 0.75349 0.74434 0.0
C657 C 0.81984 0.73629 0.59737 0.0
C658 C 0.78324 0.17385 0.33751 0.0
C659 C 0.78761 0.18591 0.40078 0.0
H660 H 0.75218 0.16356 0.26067 0.0
C661 C 0.76269 0.19786 0.4342 0.0
H662 H 0.80153 0.16389 0.31041 0.0
C663 C 0.73418 0.19732 0.4056 0.0
C664 C 0.72993 0.18508 0.34266 0.0
H665 H 0.76515 0.20776 0.48244 0.0
H666 H 0.71545 0.20668 0.43253 0.0
C667 C 0.75481 0.17358 0.30877 0.0
C668 C 0.17492 0.28435 0.58403 0.0
C669 C 0.18671 0.28895 0.64746 0.0
H670 H 0.16525 0.25306 0.50723 0.0
C671 C 0.19895 0.26423 0.6811 0.0
H672 H 0.16477 0.30247 0.55671 0.0
C673 C 0.19887 0.23568 0.65265 0.0
C674 C 0.18682 0.23119 0.58964 0.0
H675 H 0.20868 0.26686 0.72945 0.0
H676 H 0.20839 0.21711 0.67981 0.0
C677 C 0.17512 0.25588 0.55544 0.0
C678 C 0.26338 0.84353 0.30849 0.0
C679 C 0.288 0.83189 0.34304 0.0
H680 H 0.21684 0.85412 0.30943 0.0
C681 C 0.28344 0.82029 0.40643 0.0
H682 H 0.26626 0.85307 0.25999 0.0
C683 C 0.25489 0.82055 0.43487 0.0
C684 C 0.23025 0.83269 0.4008 0.0
H685 H 0.30195 0.81082 0.43389 0.0
H686 H 0.25219 0.81115 0.4835 0.0
C687 C 0.23492 0.84406 0.33705 0.0
C688 C 0.26625 0.07025 0.90227 0.0
C689 C 0.27485 0.0973 0.93217 0.0
H690 H 0.24445 0.04964 0.81959 0.0
C691 C 0.26784 0.12461 0.9017 0.0
H692 H 0.27171 0.04895 0.92485 0.0
C693 C 0.25245 0.125 0.84235 0.0
C694 C 0.24397 0.09808 0.812 0.0
H695 H 0.27421 0.14573 0.92403 0.0
H696 H 0.24723 0.14641 0.81994 0.0
C697 C 0.25107 0.07064 0.84205 0.0
C698 C 0.1241 0.76714 0.15521 0.0
C699 C 0.09704 0.77505 0.1857 0.0
H700 H 0.1452 0.74573 0.07352 0.0
C701 C 0.06972 0.7673 0.15586 0.0
H702 H 0.14541 0.77288 0.17747 0.0
C703 C 0.0696 0.75206 0.09568 0.0
C704 C 0.09679 0.74403 0.06565 0.0
H705 H 0.04862 0.77346 0.17845 0.0
H706 H 0.0484 0.74611 0.07323 0.0
C707 C 0.12398 0.75167 0.09594 0.0
C708 C 0.75131 0.94706 0.90876 0.0
C709 C 0.74425 0.91952 0.93845 0.0
H710 H 0.77195 0.969 0.82628 0.0
C711 C 0.75275 0.8927 0.90773 0.0
H712 H 0.74467 0.96799 0.93151 0.0
C713 C 0.76815 0.89328 0.8484 0.0
C714 C 0.77515 0.92069 0.81833 0.0
H715 H 0.74757 0.87122 0.92986 0.0
H716 H 0.77457 0.87223 0.8258 0.0
C717 C 0.7665 0.94763 0.84856 0.0
C718 C 0.89301 0.25228 0.15549 0.0
C719 C 0.92022 0.24474 0.18581 0.0
H720 H 0.87153 0.27329 0.07379 0.0
C721 C 0.94739 0.25273 0.15569 0.0
H722 H 0.8718 0.24636 0.17799 0.0
C723 C 0.94724 0.26784 0.09538 0.0
C724 C 0.91991 0.27549 0.06551 0.0
H725 H 0.9686 0.24684 0.17817 0.0
H726 H 0.96833 0.274 0.07273 0.0
C727 C 0.89286 0.26762 0.09607 0.0
C728 C 0.25036 0.44812 0.40181 0.0
C729 C 0.2416 0.42115 0.43179 0.0
H730 H 0.27246 0.46855 0.31931 0.0
C731 C 0.24861 0.39377 0.40155 0.0
H732 H 0.24493 0.46947 0.42422 0.0
C733 C 0.26417 0.39324 0.3424 0.0
C734 C 0.27284 0.42009 0.31202 0.0
H735 H 0.24216 0.37269 0.42395 0.0
H736 H 0.26941 0.37178 0.32021 0.0
C737 C 0.26571 0.4476 0.3418 0.0
C738 C 0.44659 0.76552 0.59609 0.0
C739 C 0.4194 0.77347 0.56597 0.0
H740 H 0.46759 0.74426 0.67892 0.0
C741 C 0.39221 0.76582 0.59628 0.0
H742 H 0.46779 0.77148 0.57367 0.0
C743 C 0.3921 0.75047 0.65568 0.0
C744 C 0.41917 0.74263 0.68623 0.0
H745 H 0.37098 0.77167 0.57379 0.0
H746 H 0.37078 0.74478 0.67798 0.0
C747 C 0.44647 0.75037 0.65633 0.0
C748 C 0.75088 0.57018 0.34883 0.0
C749 C 0.74214 0.59714 0.31879 0.0
H750 H 0.77279 0.54978 0.43161 0.0
C751 C 0.74902 0.62453 0.34912 0.0
H752 H 0.74553 0.54883 0.32636 0.0
C753 C 0.76441 0.62508 0.40847 0.0
C754 C 0.77303 0.59824 0.43896 0.0
H755 H 0.74254 0.64559 0.32668 0.0
H756 H 0.76952 0.64654 0.43077 0.0
C757 C 0.76606 0.57072 0.40904 0.0
C758 C 0.57075 0.26474 0.65506 0.0
C759 C 0.59798 0.27258 0.68516 0.0
H760 H 0.54965 0.24356 0.57222 0.0
C761 C 0.62513 0.26482 0.65484 0.0
H762 H 0.54958 0.27079 0.6775 0.0
C763 C 0.62517 0.24946 0.59544 0.0
C764 C 0.59806 0.24174 0.5649 0.0
H765 H 0.64639 0.27059 0.67731 0.0
H766 H 0.64646 0.24369 0.57311 0.0
C767 C 0.57079 0.24958 0.59482 0.0
C768 C 0.37562 0.9864 0.27146 0.0
C769 C 0.37781 0.99097 0.20339 0.0
H770 H 0.3789 0.95567 0.35127 0.0
C771 C 0.38482 0.96624 0.16291 0.0
H772 H 0.37075 1.00478 0.30444 0.0
C773 C 0.38994 0.93782 0.19008 0.0
C774 C 0.38795 0.93352 0.25822 0.0
H775 H 0.38628 0.96873 0.11013 0.0
H776 H 0.39539 0.91928 0.15781 0.0
C777 C 0.38054 0.9581 0.29842 0.0
C778 C 0.93848 0.62943 0.81171 0.0
C779 C 0.93349 0.63267 0.74402 0.0
H780 H 0.9702 0.63153 0.89039 0.0
C781 C 0.95764 0.64094 0.70339 0.0
H782 H 0.9203 0.62328 0.84432 0.0
C783 C 0.98622 0.64536 0.7294 0.0
C784 C 0.9915 0.64177 0.79694 0.0
H785 H 0.95468 0.6436 0.65088 0.0
H786 H 1.00425 0.65088 0.69602 0.0
C787 C 0.96717 0.63404 0.83794 0.0
C788 C 0.64221 0.02877 0.27319 0.0
C789 C 0.64006 0.02382 0.20524 0.0
H790 H 0.63903 0.05994 0.35218 0.0
C791 C 0.63311 0.04834 0.16409 0.0
H792 H 0.64701 0.01058 0.30668 0.0
C793 C 0.62809 0.07693 0.19052 0.0
C794 C 0.63011 0.08162 0.25855 0.0
H795 H 0.63166 0.04555 0.11139 0.0
H796 H 0.62271 0.09531 0.15777 0.0
C797 C 0.63739 0.05723 0.29939 0.0
C798 C 0.07628 0.4001 0.80418 0.0
C799 C 0.08476 0.38413 0.74785 0.0
H800 H 0.04142 0.41023 0.87236 0.0
C801 C 0.06424 0.364 0.71949 0.0
H802 H 0.09154 0.41594 0.82675 0.0
C803 C 0.03559 0.36038 0.74583 0.0
C804 C 0.02652 0.37705 0.80096 0.0
H805 H 0.07021 0.35114 0.67625 0.0
H806 H 0.0206 0.34457 0.72258 0.0
C807 C 0.04742 0.39673 0.83025 0.0
C808 C 0.38033 0.55775 0.95166 0.0
C809 C 0.38753 0.5822 0.99241 0.0
H810 H 0.37085 0.51106 0.94456 0.0
C811 C 0.38958 0.57759 0.06045 0.0
H812 H 0.37867 0.56041 0.89887 0.0
C813 C 0.38464 0.54901 0.087 0.0
C814 C 0.37777 0.52443 0.04596 0.0
H815 H 0.3949 0.59601 0.09312 0.0
H816 H 0.38611 0.54628 0.13971 0.0
C817 C 0.37559 0.5293 0.97798 0.0
C818 C 0.55759 0.63507 0.05065 0.0
C819 C 0.58233 0.62831 0.0104 0.0
H820 H 0.51084 0.64442 0.05661 0.0
C821 C 0.57819 0.62688 0.94212 0.0
H822 H 0.55988 0.63624 0.10359 0.0
C823 C 0.54978 0.63202 0.91485 0.0
C824 C 0.52492 0.6385 0.95537 0.0
H825 H 0.59684 0.6219 0.90984 0.0
H826 H 0.54741 0.63105 0.862 0.0
C827 C 0.52932 0.64002 0.02359 0.0
C828 C 0.6327 0.46566 0.08776 0.0
C829 C 0.63976 0.49038 0.0473 0.0
H830 H 0.6222 0.4187 0.09284 0.0
C831 C 0.64219 0.48576 0.97928 0.0
H832 H 0.63107 0.46819 0.1405 0.0
C833 C 0.63741 0.45742 0.95233 0.0
C834 C 0.62991 0.43286 0.9925 0.0
H835 H 0.64712 0.50412 0.94632 0.0
H836 H 0.63922 0.45495 0.89952 0.0
C837 C 0.62772 0.43721 0.0606 0.0
C838 C 0.45845 0.37858 0.04787 0.0
C839 C 0.43402 0.38604 0.0073 0.0
H840 H 0.5051 0.36886 0.05469 0.0
C841 C 0.4386 0.38821 0.93926 0.0
H842 H 0.45581 0.37681 0.10064 0.0
C843 C 0.46714 0.3832 0.91256 0.0
C844 C 0.49172 0.37614 0.95342 0.0
H845 H 0.42019 0.39372 0.90671 0.0
H846 H 0.46983 0.38479 0.85986 0.0
C847 C 0.48687 0.37378 0.02139 0.0
C848 C 0.88985 0.44113 0.69253 0.0
C849 C 0.88852 0.43678 0.76075 0.0
H850 H 0.88554 0.47215 0.61289 0.0
C851 C 0.88179 0.46139 0.80141 0.0
H852 H 0.8948 0.42258 0.65993 0.0
C853 C 0.87676 0.48974 0.7748 0.0
C854 C 0.87818 0.49433 0.70663 0.0
H855 H 0.88069 0.45893 0.85432 0.0
H856 H 0.87236 0.50812 0.80807 0.0
C857 C 0.88464 0.46961 0.66571 0.0
C858 C 0.48776 0.14041 0.22716 0.0
C859 C 0.49228 0.13839 0.29528 0.0
H860 H 0.45706 0.13725 0.1473 0.0
C861 C 0.46748 0.13171 0.33578 0.0
H862 H 0.50619 0.145 0.19414 0.0
C863 C 0.43901 0.12682 0.30858 0.0
C864 C 0.43476 0.12871 0.24039 0.0
H865 H 0.46994 0.13035 0.38858 0.0
H866 H 0.42041 0.12163 0.34084 0.0
C867 C 0.45944 0.13572 0.20018 0.0
C868 C 0.13111 0.55062 0.66365 0.0
C869 C 0.13971 0.52633 0.70391 0.0
H870 H 0.11984 0.59741 0.6584 0.0
C871 C 0.14436 0.53158 0.77114 0.0
H872 H 0.12776 0.54758 0.61143 0.0
C873 C 0.1401 0.56009 0.79765 0.0
C874 C 0.13096 0.58421 0.75785 0.0
H875 H 0.15055 0.51356 0.80398 0.0
H876 H 0.14356 0.563 0.84996 0.0
C877 C 0.1267 0.57926 0.69039 0.0
C878 C 0.57934 0.88814 0.31258 0.0
C879 C 0.58403 0.88566 0.24463 0.0
H880 H 0.54795 0.88521 0.39178 0.0
C881 C 0.55963 0.87813 0.20401 0.0
H882 H 0.59771 0.89372 0.34517 0.0
C883 C 0.53115 0.87358 0.23033 0.0
C884 C 0.52618 0.87626 0.2982 0.0
H885 H 0.56235 0.87612 0.15129 0.0
H886 H 0.51296 0.86861 0.19696 0.0
C887 C 0.55073 0.88338 0.33914 0.0
C888 C 0.88936 0.08058 0.56142 0.0
C889 C 0.88668 0.08509 0.49346 0.0
H890 H 0.88668 0.0494 0.64103 0.0
C891 C 0.87889 0.06063 0.45326 0.0
H892 H 0.89513 0.09902 0.59369 0.0
C893 C 0.87436 0.03222 0.48001 0.0
C894 C 0.87734 0.02742 0.54786 0.0
H895 H 0.8767 0.06322 0.40055 0.0
H896 H 0.86922 0.01394 0.44698 0.0
C897 C 0.88463 0.05206 0.58839 0.0
C898 C 0.05948 0.14048 0.54792 0.0
C899 C 0.08362 0.13236 0.50711 0.0
H900 H 0.01291 0.15061 0.55544 0.0
C901 C 0.07867 0.12957 0.43931 0.0
H902 H 0.06242 0.14279 0.60053 0.0
C903 C 0.05002 0.1345 0.41314 0.0
C904 C 0.0257 0.1421 0.4543 0.0
H905 H 0.09685 0.12356 0.40657 0.0
H906 H 0.04702 0.13235 0.36061 0.0
C907 C 0.03095 0.14522 0.52196 0.0
C908 C 0.1284 0.9402 0.55957 0.0
C909 C 0.13088 0.93548 0.49162 0.0
H910 H 0.13129 0.97164 0.63873 0.0
C911 C 0.13839 0.95987 0.45097 0.0
H912 H 0.12283 0.92183 0.59217 0.0
C913 C 0.14292 0.98837 0.47726 0.0
C914 C 0.14025 0.99336 0.54512 0.0
H915 H 0.1404 0.95714 0.39825 0.0
H916 H 0.14788 1.00656 0.44387 0.0
C917 C 0.13313 0.96883 0.58609 0.0
C918 C 0.98801 0.87647 0.52406 0.0
C919 C 0.99262 0.87876 0.45602 0.0
H920 H 0.95724 0.87962 0.60381 0.0
C921 C 0.96792 0.8858 0.41551 0.0
H922 H 1.00637 0.87157 0.55705 0.0
C923 C 0.93948 0.89086 0.44264 0.0
C924 C 0.93514 0.88878 0.51076 0.0
H925 H 0.97045 0.88734 0.36275 0.0
H926 H 0.92096 0.89635 0.41037 0.0
C927 C 0.95969 0.88133 0.55098 0.0
loop_
_geom_bond_atom_site_label_1
_geom_bond_atom_site_label_2
_geom_bond_distance
_geom_bond_site_symmetry_2
_ccdc_geom_bond_type
C0 C1 1.351 . S
C0 N3 1.368 . S
C0 H5 0.931 . S
C1 C0 1.351 . S
C1 N2 1.373 . S
C1 H29 0.930 1_545 S
N2 C1 1.373 . S
N2 C4 1.340 . S
N3 C0 1.368 . S
N3 C4 1.321 . S
N3 Co6 2.135 . S
C4 N2 1.340 . S
C4 N3 1.321 . S
C4 H28 0.930 . S
H5 C0 0.931 . S
Co6 N3 2.135 . S
Co6 N9 2.121 . S
Co6 O14 2.055 . S
Co6 O17 2.039 . S
Co6 N20 2.140 . S
C7 O8 1.227 . S
C7 O17 1.265 . S
O8 C7 1.227 . S
N9 Co6 2.121 . S
N9 C11 1.375 . S
N9 C12 1.313 . S
C10 C11 1.338 . S
C10 N13 1.377 . S
C10 H30 0.930 . S
C11 N9 1.375 . S
C11 C10 1.338 . S
C11 H15 0.931 . S
C12 N9 1.313 . S
C12 N13 1.344 . S
C12 H16 0.930 . S
N13 C10 1.377 . S
N13 C12 1.344 . S
O14 Co6 2.055 . S
O14 C18 1.253 . S
H15 C11 0.931 . S
H16 C12 0.930 . S
O17 Co6 2.039 . S
O17 C7 1.265 . S
C18 O14 1.253 . S
C18 O19 1.227 . S
O19 C18 1.227 . S
N20 Co6 2.140 . S
N20 C23 1.346 . S
N20 C24 1.345 . S
C21 C22 1.387 1_556 S
C21 C25 1.391 . S
C22 C21 1.387 1_554 S
C22 C23 1.369 . S
C22 H31 0.929 . S
C23 N20 1.346 . S
C23 C22 1.369 . S
C23 H26 0.928 . S
C24 N20 1.345 . S
C24 C25 1.371 1_554 S
C24 H27 0.931 . S
C25 C21 1.391 . S
C25 C24 1.371 1_556 S
C25 H32 0.930 . S
H26 C23 0.928 . S
H27 C24 0.931 . S
H28 C4 0.930 . S
H29 C1 0.930 1_565 S
H30 C10 0.930 . S
H31 C22 0.929 . S
H32 C25 0.930 . S
C33 C34 1.351 . S
C33 N36 1.368 . S
C33 H38 0.931 . S
C34 C33 1.351 . S
C34 N35 1.373 . S
C34 H62 0.930 1_455 S
N35 C34 1.373 . S
N35 C37 1.340 . S
N36 C33 1.368 . S
N36 C37 1.321 . S
N36 Co39 2.135 . S
C37 N35 1.340 . S
C37 N36 1.321 . S
C37 H61 0.930 . S
H38 C33 0.931 . S
Co39 N36 2.135 . S
Co39 N42 2.121 . S
Co39 O47 2.055 . S
Co39 O50 2.039 . S
Co39 N53 2.140 . S
C40 O41 1.227 . S
C40 O50 1.265 . S
O41 C40 1.227 . S
N42 Co39 2.121 . S
N42 C44 1.375 . S
N42 C45 1.313 . S
C43 C44 1.338 . S
C43 N46 1.377 . S
C43 H63 0.930 . S
C44 N42 1.375 . S
C44 C43 1.338 . S
C44 H48 0.931 . S
C45 N42 1.313 . S
C45 N46 1.344 . S
C45 H49 0.930 . S
N46 C43 1.377 . S
N46 C45 1.344 . S
O47 Co39 2.055 . S
O47 C51 1.253 . S
H48 C44 0.931 . S
H49 C45 0.930 . S
O50 Co39 2.039 . S
O50 C40 1.265 . S
C51 O47 1.253 . S
C51 O52 1.227 . S
O52 C51 1.227 . S
N53 Co39 2.140 . S
N53 C56 1.346 . S
N53 C57 1.345 . S
C54 C55 1.387 1_554 S
C54 C58 1.391 . S
C55 C54 1.387 1_556 S
C55 C56 1.369 . S
C55 H64 0.929 . S
C56 N53 1.346 . S
C56 C55 1.369 . S
C56 H59 0.928 . S
C57 N53 1.345 . S
C57 C58 1.371 1_556 S
C57 H60 0.931 . S
C58 C54 1.391 . S
C58 C57 1.371 1_554 S
C58 H65 0.930 . S
H59 C56 0.928 . S
H60 C57 0.931 . S
H61 C37 0.930 . S
H62 C34 0.930 1_655 S
H63 C43 0.930 . S
H64 C55 0.929 . S
H65 C58 0.930 . S
C66 C67 1.351 . S
C66 N69 1.368 . S
C66 H71 0.931 . S
C67 C66 1.351 . S
C67 N68 1.373 . S
C67 H95 0.930 1_565 S
N68 C67 1.373 . S
N68 C70 1.340 . S
N69 C66 1.368 . S
N69 C70 1.321 . S
N69 Co72 2.135 . S
C70 N68 1.340 . S
C70 N69 1.321 . S
C70 H94 0.930 . S
H71 C66 0.931 . S
Co72 N69 2.135 . S
Co72 N75 2.121 . S
Co72 O80 2.055 . S
Co72 O83 2.039 . S
Co72 N86 2.140 . S
C73 O74 1.227 . S
C73 O83 1.265 . S
O74 C73 1.227 . S
N75 Co72 2.121 . S
N75 C77 1.375 . S
N75 C78 1.313 . S
C76 C77 1.338 . S
C76 N79 1.377 . S
C76 H96 0.930 . S
C77 N75 1.375 . S
C77 C76 1.338 . S
C77 H81 0.931 . S
C78 N75 1.313 . S
C78 N79 1.344 . S
C78 H82 0.930 . S
N79 C76 1.377 . S
N79 C78 1.344 . S
O80 Co72 2.055 . S
O80 C84 1.253 . S
H81 C77 0.931 . S
H82 C78 0.930 . S
O83 Co72 2.039 . S
O83 C73 1.265 . S
C84 O80 1.253 . S
C84 O85 1.227 . S
O85 C84 1.227 . S
N86 Co72 2.140 . S
N86 C89 1.346 . S
N86 C90 1.345 . S
C87 C88 1.387 1_556 S
C87 C91 1.391 . S
C88 C87 1.387 1_554 S
C88 C89 1.369 . S
C88 H97 0.929 . S
C89 N86 1.346 . S
C89 C88 1.369 . S
C89 H92 0.928 . S
C90 N86 1.345 . S
C90 C91 1.371 1_554 S
C90 H93 0.931 . S
C91 C87 1.391 . S
C91 C90 1.371 1_556 S
C91 H98 0.930 . S
H92 C89 0.928 . S
H93 C90 0.931 . S
H94 C70 0.930 . S
H95 C67 0.930 1_545 S
H96 C76 0.930 . S
H97 C88 0.929 . S
H98 C91 0.930 . S
C99 C100 1.351 . S
C99 N102 1.368 . S
C99 H104 0.931 . S
C100 C99 1.351 . S
C100 N101 1.373 . S
C100 H128 0.930 1_655 S
N101 C100 1.373 . S
N101 C103 1.340 . S
N102 C99 1.368 . S
N102 C103 1.321 . S
N102 Co105 2.135 . S
C103 N101 1.340 . S
C103 N102 1.321 . S
C103 H127 0.930 . S
H104 C99 0.931 . S
Co105 N102 2.135 . S
Co105 N108 2.121 . S
Co105 O113 2.055 . S
Co105 O116 2.039 . S
Co105 N119 2.140 . S
C106 O107 1.227 . S
C106 O116 1.265 . S
O107 C106 1.227 . S
N108 Co105 2.121 . S
N108 C110 1.375 . S
N108 C111 1.313 . S
C109 C110 1.338 . S
C109 N112 1.377 . S
C109 H129 0.930 . S
C110 N108 1.375 . S
C110 C109 1.338 . S
C110 H114 0.931 . S
C111 N108 1.313 . S
C111 N112 1.344 . S
C111 H115 0.930 . S
N112 C109 1.377 . S
N112 C111 1.344 . S
O113 Co105 2.055 . S
O113 C117 1.253 . S
H114 C110 0.931 . S
H115 C111 0.930 . S
O116 Co105 2.039 . S
O116 C106 1.265 . S
C117 O113 1.253 . S
C117 O118 1.227 . S
O118 C117 1.227 . S
N119 Co105 2.140 . S
N119 C122 1.346 . S
N119 C123 1.345 . S
C120 C121 1.387 1_554 S
C120 C124 1.391 . S
C121 C120 1.387 1_556 S
C121 C122 1.369 . S
C121 H130 0.929 . S
C122 N119 1.346 . S
C122 C121 1.369 . S
C122 H125 0.928 . S
C123 N119 1.345 . S
C123 C124 1.371 1_556 S
C123 H126 0.931 . S
C124 C120 1.391 . S
C124 C123 1.371 1_554 S
C124 H131 0.930 . S
H125 C122 0.928 . S
H126 C123 0.931 . S
H127 C103 0.930 . S
H128 C100 0.930 1_455 S
H129 C109 0.930 . S
H130 C121 0.929 . S
H131 C124 0.930 . S
C132 C133 1.351 . S
C132 N135 1.368 . S
C132 H137 0.931 . S
C133 C132 1.351 . S
C133 N134 1.373 . S
C133 H161 0.930 . S
N134 C133 1.373 . S
N134 C136 1.340 . S
N135 C132 1.368 . S
N135 C136 1.321 . S
N135 Co138 2.135 . S
C136 N134 1.340 . S
C136 N135 1.321 . S
C136 H160 0.930 1_554 S
H137 C132 0.931 . S
Co138 N135 2.135 . S
Co138 N141 2.121 . S
Co138 O146 2.055 . S
Co138 O149 2.039 1_554 S
Co138 N152 2.140 . S
C139 O140 1.227 1_556 S
C139 O149 1.265 . S
O140 C139 1.227 1_554 S
N141 Co138 2.121 . S
N141 C143 1.375 . S
N141 C144 1.313 . S
C142 C143 1.338 . S
C142 N145 1.377 . S
C142 H162 0.930 . S
C143 N141 1.375 . S
C143 C142 1.338 . S
C143 H147 0.931 . S
C144 N141 1.313 . S
C144 N145 1.344 . S
C144 H148 0.930 . S
N145 C142 1.377 . S
N145 C144 1.344 . S
O146 Co138 2.055 . S
O146 C150 1.253 . S
H147 C143 0.931 . S
H148 C144 0.930 . S
O149 Co138 2.039 1_556 S
O149 C139 1.265 . S
C150 O146 1.253 . S
C150 O151 1.227 . S
O151 C150 1.227 . S
N152 Co138 2.140 . S
N152 C155 1.346 . S
N152 C156 1.345 . S
C153 C154 1.387 . S
C153 C157 1.391 . S
C154 C153 1.387 . S
C154 C155 1.369 . S
C154 H163 0.929 . S
C155 N152 1.346 . S
C155 C154 1.369 . S
C155 H158 0.928 . S
C156 N152 1.345 . S
C156 C157 1.371 . S
C156 H159 0.931 . S
C157 C153 1.391 . S
C157 C156 1.371 . S
C157 H164 0.930 . S
H158 C155 0.928 . S
H159 C156 0.931 . S
H160 C136 0.930 1_556 S
H161 C133 0.930 . S
H162 C142 0.930 . S
H163 C154 0.929 . S
H164 C157 0.930 . S
C165 C166 1.351 . S
C165 N168 1.368 . S
C165 H170 0.931 . S
C166 C165 1.351 . S
C166 N167 1.373 . S
C166 H194 0.930 . S
N167 C166 1.373 . S
N167 C169 1.340 . S
N168 C165 1.368 . S
N168 C169 1.321 . S
N168 Co171 2.135 . S
C169 N167 1.340 . S
C169 N168 1.321 . S
C169 H193 0.930 1_556 S
H170 C165 0.931 . S
Co171 N168 2.135 . S
Co171 N174 2.121 . S
Co171 O179 2.055 . S
Co171 O182 2.039 1_556 S
Co171 N185 2.140 . S
C172 O173 1.227 1_554 S
C172 O182 1.265 . S
O173 C172 1.227 1_556 S
N174 Co171 2.121 . S
N174 C176 1.375 . S
N174 C177 1.313 . S
C175 C176 1.338 . S
C175 N178 1.377 . S
C175 H195 0.930 . S
C176 N174 1.375 . S
C176 C175 1.338 . S
C176 H180 0.931 . S
C177 N174 1.313 . S
C177 N178 1.344 . S
C177 H181 0.930 . S
N178 C175 1.377 . S
N178 C177 1.344 . S
O179 Co171 2.055 . S
O179 C183 1.253 . S
H180 C176 0.931 . S
H181 C177 0.930 . S
O182 Co171 2.039 1_554 S
O182 C172 1.265 . S
C183 O179 1.253 . S
C183 O184 1.227 . S
O184 C183 1.227 . S
N185 Co171 2.140 . S
N185 C188 1.346 . S
N185 C189 1.345 . S
C186 C187 1.387 . S
C186 C190 1.391 . S
C187 C186 1.387 . S
C187 C188 1.369 . S
C187 H196 0.929 . S
C188 N185 1.346 . S
C188 C187 1.369 . S
C188 H191 0.928 . S
C189 N185 1.345 . S
C189 C190 1.371 . S
C189 H192 0.931 . S
C190 C186 1.391 . S
C190 C189 1.371 . S
C190 H197 0.930 . S
H191 C188 0.928 . S
H192 C189 0.931 . S
H193 C169 0.930 1_554 S
H194 C166 0.930 . S
H195 C175 0.930 . S
H196 C187 0.929 . S
H197 C190 0.930 . S
C198 C199 1.351 . S
C198 N201 1.368 . S
C198 H203 0.931 . S
C199 C198 1.351 . S
C199 N200 1.373 . S
C199 H227 0.930 . S
N200 C199 1.373 . S
N200 C202 1.340 . S
N201 C198 1.368 . S
N201 C202 1.321 . S
N201 Co204 2.135 . S
C202 N200 1.340 . S
C202 N201 1.321 . S
C202 H226 0.930 1_554 S
H203 C198 0.931 . S
Co204 N201 2.135 . S
Co204 N207 2.121 . S
Co204 O212 2.055 . S
Co204 O215 2.039 1_554 S
Co204 N218 2.140 . S
C205 O206 1.227 1_556 S
C205 O215 1.265 . S
O206 C205 1.227 1_554 S
N207 Co204 2.121 . S
N207 C209 1.375 . S
N207 C210 1.313 . S
C208 C209 1.338 . S
C208 N211 1.377 . S
C208 H228 0.930 . S
C209 N207 1.375 . S
C209 C208 1.338 . S
C209 H213 0.931 . S
C210 N207 1.313 . S
C210 N211 1.344 . S
C210 H214 0.930 . S
N211 C208 1.377 . S
N211 C210 1.344 . S
O212 Co204 2.055 . S
O212 C216 1.253 . S
H213 C209 0.931 . S
H214 C210 0.930 . S
O215 Co204 2.039 1_556 S
O215 C205 1.265 . S
C216 O212 1.253 . S
C216 O217 1.227 . S
O217 C216 1.227 . S
N218 Co204 2.140 . S
N218 C221 1.346 . S
N218 C222 1.345 . S
C219 C220 1.387 . S
C219 C223 1.391 . S
C220 C219 1.387 . S
C220 C221 1.369 . S
C220 H229 0.929 . S
C221 N218 1.346 . S
C221 C220 1.369 . S
C221 H224 0.928 . S
C222 N218 1.345 . S
C222 C223 1.371 . S
C222 H225 0.931 . S
C223 C219 1.391 . S
C223 C222 1.371 . S
C223 H230 0.930 . S
H224 C221 0.928 . S
H225 C222 0.931 . S
H226 C202 0.930 1_556 S
H227 C199 0.930 . S
H228 C208 0.930 . S
H229 C220 0.929 . S
H230 C223 0.930 . S
C231 C232 1.351 . S
C231 N234 1.368 . S
C231 H236 0.931 . S
C232 C231 1.351 . S
C232 N233 1.373 . S
C232 H260 0.930 . S
N233 C232 1.373 . S
N233 C235 1.340 . S
N234 C231 1.368 . S
N234 C235 1.321 . S
N234 Co237 2.135 . S
C235 N233 1.340 . S
C235 N234 1.321 . S
C235 H259 0.930 1_556 S
H236 C231 0.931 . S
Co237 N234 2.135 . S
Co237 N240 2.121 . S
Co237 O245 2.055 . S
Co237 O248 2.039 1_556 S
Co237 N251 2.140 . S
C238 O239 1.227 1_554 S
C238 O248 1.265 . S
O239 C238 1.227 1_556 S
N240 Co237 2.121 . S
N240 C242 1.375 . S
N240 C243 1.313 . S
C241 C242 1.338 . S
C241 N244 1.377 . S
C241 H261 0.930 . S
C242 N240 1.375 . S
C242 C241 1.338 . S
C242 H246 0.931 . S
C243 N240 1.313 . S
C243 N244 1.344 . S
C243 H247 0.930 . S
N244 C241 1.377 . S
N244 C243 1.344 . S
O245 Co237 2.055 . S
O245 C249 1.253 . S
H246 C242 0.931 . S
H247 C243 0.930 . S
O248 Co237 2.039 1_554 S
O248 C238 1.265 . S
C249 O245 1.253 . S
C249 O250 1.227 . S
O250 C249 1.227 . S
N251 Co237 2.140 . S
N251 C254 1.346 . S
N251 C255 1.345 . S
C252 C253 1.387 . S
C252 C256 1.391 . S
C253 C252 1.387 . S
C253 C254 1.369 . S
C253 H262 0.929 . S
C254 N251 1.346 . S
C254 C253 1.369 . S
C254 H257 0.928 . S
C255 N251 1.345 . S
C255 C256 1.371 . S
C255 H258 0.931 . S
C256 C252 1.391 . S
C256 C255 1.371 . S
C256 H263 0.930 . S
H257 C254 0.928 . S
H258 C255 0.931 . S
H259 C235 0.930 1_554 S
H260 C232 0.930 . S
H261 C241 0.930 . S
H262 C253 0.929 . S
H263 C256 0.930 . S
C264 C265 1.351 . S
C264 N267 1.368 . S
C264 H269 0.931 . S
C265 C264 1.351 . S
C265 N266 1.373 . S
C265 H293 0.930 . S
N266 C265 1.373 . S
N266 C268 1.340 . S
N267 C264 1.368 . S
N267 C268 1.321 . S
N267 Co270 2.135 . S
C268 N266 1.340 . S
C268 N267 1.321 . S
C268 H292 0.930 . S
H269 C264 0.931 . S
Co270 N267 2.135 . S
Co270 N273 2.121 . S
Co270 O278 2.055 . S
Co270 O281 2.039 . S
Co270 N284 2.140 . S
C271 O272 1.227 . S
C271 O281 1.265 . S
O272 C271 1.227 . S
N273 Co270 2.121 . S
N273 C275 1.375 . S
N273 C276 1.313 . S
C274 C275 1.338 . S
C274 N277 1.377 . S
C274 H294 0.930 . S
C275 N273 1.375 . S
C275 C274 1.338 . S
C275 H279 0.931 . S
C276 N273 1.313 . S
C276 N277 1.344 . S
C276 H280 0.930 . S
N277 C274 1.377 . S
N277 C276 1.344 . S
O278 Co270 2.055 . S
O278 C282 1.253 . S
H279 C275 0.931 . S
H280 C276 0.930 . S
O281 Co270 2.039 . S
O281 C271 1.265 . S
C282 O278 1.253 . S
C282 O283 1.227 . S
O283 C282 1.227 . S
N284 Co270 2.140 . S
N284 C287 1.346 . S
N284 C288 1.345 . S
C285 C286 1.387 . S
C285 C289 1.391 . S
C286 C285 1.387 . S
C286 C287 1.369 . S
C286 H295 0.929 . S
C287 N284 1.346 . S
C287 C286 1.369 . S
C287 H290 0.928 . S
C288 N284 1.345 . S
C288 C289 1.371 . S
C288 H291 0.931 . S
C289 C285 1.391 . S
C289 C288 1.371 . S
C289 H296 0.930 . S
H290 C287 0.928 . S
H291 C288 0.931 . S
H292 C268 0.930 . S
H293 C265 0.930 . S
H294 C274 0.930 . S
H295 C286 0.929 . S
H296 C289 0.930 . S
C297 C298 1.351 . S
C297 N300 1.368 . S
C297 H302 0.931 . S
C298 C297 1.351 . S
C298 N299 1.373 . S
C298 H326 0.930 . S
N299 C298 1.373 . S
N299 C301 1.340 . S
N300 C297 1.368 . S
N300 C301 1.321 . S
N300 Co303 2.135 . S
C301 N299 1.340 . S
C301 N300 1.321 . S
C301 H325 0.930 . S
H302 C297 0.931 . S
Co303 N300 2.135 . S
Co303 N306 2.121 . S
Co303 O311 2.055 . S
Co303 O314 2.039 . S
Co303 N317 2.140 . S
C304 O305 1.227 . S
C304 O314 1.265 . S
O305 C304 1.227 . S
N306 Co303 2.121 . S
N306 C308 1.375 . S
N306 C309 1.313 . S
C307 C308 1.338 . S
C307 N310 1.377 . S
C307 H327 0.930 . S
C308 N306 1.375 . S
C308 C307 1.338 . S
C308 H312 0.931 . S
C309 N306 1.313 . S
C309 N310 1.344 . S
C309 H313 0.930 . S
N310 C307 1.377 . S
N310 C309 1.344 . S
O311 Co303 2.055 . S
O311 C315 1.253 . S
H312 C308 0.931 . S
H313 C309 0.930 . S
O314 Co303 2.039 . S
O314 C304 1.265 . S
C315 O311 1.253 . S
C315 O316 1.227 . S
O316 C315 1.227 . S
N317 Co303 2.140 . S
N317 C320 1.346 . S
N317 C321 1.345 . S
C318 C319 1.387 . S
C318 C322 1.391 . S
C319 C318 1.387 . S
C319 C320 1.369 . S
C319 H328 0.929 . S
C320 N317 1.346 . S
C320 C319 1.369 . S
C320 H323 0.928 . S
C321 N317 1.345 . S
C321 C322 1.371 . S
C321 H324 0.931 . S
C322 C318 1.391 . S
C322 C321 1.371 . S
C322 H329 0.930 . S
H323 C320 0.928 . S
H324 C321 0.931 . S
H325 C301 0.930 . S
H326 C298 0.930 . S
H327 C307 0.930 . S
H328 C319 0.929 . S
H329 C322 0.930 . S
C330 C331 1.351 . S
C330 N333 1.368 . S
C330 H335 0.931 . S
C331 C330 1.351 . S
C331 N332 1.373 . S
C331 H359 0.930 . S
N332 C331 1.373 . S
N332 C334 1.340 . S
N333 C330 1.368 . S
N333 C334 1.321 . S
N333 Co336 2.135 . S
C334 N332 1.340 . S
C334 N333 1.321 . S
C334 H358 0.930 . S
H335 C330 0.931 . S
Co336 N333 2.135 . S
Co336 N339 2.121 . S
Co336 O344 2.055 . S
Co336 O347 2.039 . S
Co336 N350 2.140 . S
C337 O338 1.227 . S
C337 O347 1.265 . S
O338 C337 1.227 . S
N339 Co336 2.121 . S
N339 C341 1.375 . S
N339 C342 1.313 . S
C340 C341 1.338 . S
C340 N343 1.377 . S
C340 H360 0.930 . S
C341 N339 1.375 . S
C341 C340 1.338 . S
C341 H345 0.931 . S
C342 N339 1.313 . S
C342 N343 1.344 . S
C342 H346 0.930 . S
N343 C340 1.377 . S
N343 C342 1.344 . S
O344 Co336 2.055 . S
O344 C348 1.253 . S
H345 C341 0.931 . S
H346 C342 0.930 . S
O347 Co336 2.039 . S
O347 C337 1.265 . S
C348 O344 1.253 . S
C348 O349 1.227 . S
O349 C348 1.227 . S
N350 Co336 2.140 . S
N350 C353 1.346 . S
N350 C354 1.345 . S
C351 C352 1.387 . S
C351 C355 1.391 . S
C352 C351 1.387 . S
C352 C353 1.369 . S
C352 H361 0.929 . S
C353 N350 1.346 . S
C353 C352 1.369 . S
C353 H356 0.928 . S
C354 N350 1.345 . S
C354 C355 1.371 . S
C354 H357 0.931 . S
C355 C351 1.391 . S
C355 C354 1.371 . S
C355 H362 0.930 . S
H356 C353 0.928 . S
H357 C354 0.931 . S
H358 C334 0.930 . S
H359 C331 0.930 . S
H360 C340 0.930 . S
H361 C352 0.929 . S
H362 C355 0.930 . S
C363 C364 1.351 . S
C363 N366 1.368 . S
C363 H368 0.931 . S
C364 C363 1.351 . S
C364 N365 1.373 . S
C364 H392 0.930 . S
N365 C364 1.373 . S
N365 C367 1.340 . S
N366 C363 1.368 . S
N366 C367 1.321 . S
N366 Co369 2.135 . S
C367 N365 1.340 . S
C367 N366 1.321 . S
C367 H391 0.930 . S
H368 C363 0.931 . S
Co369 N366 2.135 . S
Co369 N372 2.121 . S
Co369 O377 2.055 . S
Co369 O380 2.039 . S
Co369 N383 2.140 . S
C370 O371 1.227 . S
C370 O380 1.265 . S
O371 C370 1.227 . S
N372 Co369 2.121 . S
N372 C374 1.375 . S
N372 C375 1.313 . S
C373 C374 1.338 . S
C373 N376 1.377 . S
C373 H393 0.930 . S
C374 N372 1.375 . S
C374 C373 1.338 . S
C374 H378 0.931 . S
C375 N372 1.313 . S
C375 N376 1.344 . S
C375 H379 0.930 . S
N376 C373 1.377 . S
N376 C375 1.344 . S
O377 Co369 2.055 . S
O377 C381 1.253 . S
H378 C374 0.931 . S
H379 C375 0.930 . S
O380 Co369 2.039 . S
O380 C370 1.265 . S
C381 O377 1.253 . S
C381 O382 1.227 . S
O382 C381 1.227 . S
N383 Co369 2.140 . S
N383 C386 1.346 . S
N383 C387 1.345 . S
C384 C385 1.387 . S
C384 C388 1.391 . S
C385 C384 1.387 . S
C385 C386 1.369 . S
C385 H394 0.929 . S
C386 N383 1.346 . S
C386 C385 1.369 . S
C386 H389 0.928 . S
C387 N383 1.345 . S
C387 C388 1.371 . S
C387 H390 0.931 . S
C388 C384 1.391 . S
C388 C387 1.371 . S
C388 H395 0.930 . S
H389 C386 0.928 . S
H390 C387 0.931 . S
H391 C367 0.930 . S
H392 C364 0.930 . S
H393 C373 0.930 . S
H394 C385 0.929 . S
H395 C388 0.930 . S
C396 C397 1.351 . S
C396 N399 1.368 . S
C396 H401 0.931 . S
C397 C396 1.351 . S
C397 N398 1.373 . S
C397 H425 0.930 1_565 S
N398 C397 1.373 . S
N398 C400 1.340 . S
N399 C396 1.368 . S
N399 C400 1.321 . S
N399 Co402 2.135 . S
C400 N398 1.340 . S
C400 N399 1.321 . S
C400 H424 0.930 . S
H401 C396 0.931 . S
Co402 N399 2.135 . S
Co402 N405 2.121 . S
Co402 O410 2.055 . S
Co402 O413 2.039 . S
Co402 N416 2.140 . S
C403 O404 1.227 . S
C403 O413 1.265 . S
O404 C403 1.227 . S
N405 Co402 2.121 . S
N405 C407 1.375 . S
N405 C408 1.313 . S
C406 C407 1.338 . S
C406 N409 1.377 . S
C406 H426 0.930 . S
C407 N405 1.375 . S
C407 C406 1.338 . S
C407 H411 0.931 . S
C408 N405 1.313 . S
C408 N409 1.344 . S
C408 H412 0.930 . S
N409 C406 1.377 . S
N409 C408 1.344 . S
O410 Co402 2.055 . S
O410 C414 1.253 . S
H411 C407 0.931 . S
H412 C408 0.930 . S
O413 Co402 2.039 . S
O413 C403 1.265 . S
C414 O410 1.253 . S
C414 O415 1.227 . S
O415 C414 1.227 . S
N416 Co402 2.140 . S
N416 C419 1.346 . S
N416 C420 1.345 . S
C417 C418 1.387 . S
C417 C421 1.391 . S
C418 C417 1.387 . S
C418 C419 1.369 . S
C418 H427 0.929 . S
C419 N416 1.346 . S
C419 C418 1.369 . S
C419 H422 0.928 . S
C420 N416 1.345 . S
C420 C421 1.371 . S
C420 H423 0.931 . S
C421 C417 1.391 . S
C421 C420 1.371 . S
C421 H428 0.930 . S
H422 C419 0.928 . S
H423 C420 0.931 . S
H424 C400 0.930 . S
H425 C397 0.930 1_545 S
H426 C406 0.930 . S
H427 C418 0.929 . S
H428 C421 0.930 . S
C429 C430 1.351 . S
C429 N432 1.368 . S
C429 H434 0.931 . S
C430 C429 1.351 . S
C430 N431 1.373 . S
C430 H458 0.930 1_655 S
N431 C430 1.373 . S
N431 C433 1.340 . S
N432 C429 1.368 . S
N432 C433 1.321 . S
N432 Co435 2.135 . S
C433 N431 1.340 . S
C433 N432 1.321 . S
C433 H457 0.930 . S
H434 C429 0.931 . S
Co435 N432 2.135 . S
Co435 N438 2.121 . S
Co435 O443 2.055 . S
Co435 O446 2.039 . S
Co435 N449 2.140 . S
C436 O437 1.227 . S
C436 O446 1.265 . S
O437 C436 1.227 . S
N438 Co435 2.121 . S
N438 C440 1.375 . S
N438 C441 1.313 . S
C439 C440 1.338 . S
C439 N442 1.377 . S
C439 H459 0.930 . S
C440 N438 1.375 . S
C440 C439 1.338 . S
C440 H444 0.931 . S
C441 N438 1.313 . S
C441 N442 1.344 . S
C441 H445 0.930 . S
N442 C439 1.377 . S
N442 C441 1.344 . S
O443 Co435 2.055 . S
O443 C447 1.253 . S
H444 C440 0.931 . S
H445 C441 0.930 . S
O446 Co435 2.039 . S
O446 C436 1.265 . S
C447 O443 1.253 . S
C447 O448 1.227 . S
O448 C447 1.227 . S
N449 Co435 2.140 . S
N449 C452 1.346 . S
N449 C453 1.345 . S
C450 C451 1.387 . S
C450 C454 1.391 . S
C451 C450 1.387 . S
C451 C452 1.369 . S
C451 H460 0.929 . S
C452 N449 1.346 . S
C452 C451 1.369 . S
C452 H455 0.928 . S
C453 N449 1.345 . S
C453 C454 1.371 . S
C453 H456 0.931 . S
C454 C450 1.391 . S
C454 C453 1.371 . S
C454 H461 0.930 . S
H455 C452 0.928 . S
H456 C453 0.931 . S
H457 C433 0.930 . S
H458 C430 0.930 1_455 S
H459 C439 0.930 . S
H460 C451 0.929 . S
H461 C454 0.930 . S
C462 C463 1.351 . S
C462 N465 1.368 . S
C462 H467 0.931 . S
C463 C462 1.351 . S
C463 N464 1.373 . S
C463 H491 0.930 1_545 S
N464 C463 1.373 . S
N464 C466 1.340 . S
N465 C462 1.368 . S
N465 C466 1.321 . S
N465 Co468 2.135 . S
C466 N464 1.340 . S
C466 N465 1.321 . S
C466 H490 0.930 . S
H467 C462 0.931 . S
Co468 N465 2.135 . S
Co468 N471 2.121 . S
Co468 O476 2.055 . S
Co468 O479 2.039 . S
Co468 N482 2.140 . S
C469 O470 1.227 . S
C469 O479 1.265 . S
O470 C469 1.227 . S
N471 Co468 2.121 . S
N471 C473 1.375 . S
N471 C474 1.313 . S
C472 C473 1.338 . S
C472 N475 1.377 . S
C472 H492 0.930 . S
C473 N471 1.375 . S
C473 C472 1.338 . S
C473 H477 0.931 . S
C474 N471 1.313 . S
C474 N475 1.344 . S
C474 H478 0.930 . S
N475 C472 1.377 . S
N475 C474 1.344 . S
O476 Co468 2.055 . S
O476 C480 1.253 . S
H477 C473 0.931 . S
H478 C474 0.930 . S
O479 Co468 2.039 . S
O479 C469 1.265 . S
C480 O476 1.253 . S
C480 O481 1.227 . S
O481 C480 1.227 . S
N482 Co468 2.140 . S
N482 C485 1.346 . S
N482 C486 1.345 . S
C483 C484 1.387 . S
C483 C487 1.391 . S
C484 C483 1.387 . S
C484 C485 1.369 . S
C484 H493 0.929 . S
C485 N482 1.346 . S
C485 C484 1.369 . S
C485 H488 0.928 . S
C486 N482 1.345 . S
C486 C487 1.371 . S
C486 H489 0.931 . S
C487 C483 1.391 . S
C487 C486 1.371 . S
C487 H494 0.930 . S
H488 C485 0.928 . S
H489 C486 0.931 . S
H490 C466 0.930 . S
H491 C463 0.930 1_565 S
H492 C472 0.930 . S
H493 C484 0.929 . S
H494 C487 0.930 . S
C495 C496 1.351 . S
C495 N498 1.368 . S
C495 H500 0.931 . S
C496 C495 1.351 . S
C496 N497 1.373 . S
C496 H524 0.930 1_455 S
N497 C496 1.373 . S
N497 C499 1.340 . S
N498 C495 1.368 . S
N498 C499 1.321 . S
N498 Co501 2.135 . S
C499 N497 1.340 . S
C499 N498 1.321 . S
C499 H523 0.930 . S
H500 C495 0.931 . S
Co501 N498 2.135 . S
Co501 N504 2.121 . S
Co501 O509 2.055 . S
Co501 O512 2.039 . S
Co501 N515 2.140 . S
C502 O503 1.227 . S
C502 O512 1.265 . S
O503 C502 1.227 . S
N504 Co501 2.121 . S
N504 C506 1.375 . S
N504 C507 1.313 . S
C505 C506 1.338 . S
C505 N508 1.377 . S
C505 H525 0.930 . S
C506 N504 1.375 . S
C506 C505 1.338 . S
C506 H510 0.931 . S
C507 N504 1.313 . S
C507 N508 1.344 . S
C507 H511 0.930 . S
N508 C505 1.377 . S
N508 C507 1.344 . S
O509 Co501 2.055 . S
O509 C513 1.253 . S
H510 C506 0.931 . S
H511 C507 0.930 . S
O512 Co501 2.039 . S
O512 C502 1.265 . S
C513 O509 1.253 . S
C513 O514 1.227 . S
O514 C513 1.227 . S
N515 Co501 2.140 . S
N515 C518 1.346 . S
N515 C519 1.345 . S
C516 C517 1.387 . S
C516 C520 1.391 . S
C517 C516 1.387 . S
C517 C518 1.369 . S
C517 H526 0.929 . S
C518 N515 1.346 . S
C518 C517 1.369 . S
C518 H521 0.928 . S
C519 N515 1.345 . S
C519 C520 1.371 . S
C519 H522 0.931 . S
C520 C516 1.391 . S
C520 C519 1.371 . S
C520 H527 0.930 . S
H521 C518 0.928 . S
H522 C519 0.931 . S
H523 C499 0.930 . S
H524 C496 0.930 1_655 S
H525 C505 0.930 . S
H526 C517 0.929 . S
H527 C520 0.930 . S
C528 C529 1.387 . S
C528 H532 0.950 . S
C528 C537 1.390 . S
C529 C528 1.387 . S
C529 C531 1.387 . S
H530 C537 0.950 . S
C531 C529 1.387 . S
C531 C533 1.390 . S
C531 H535 0.950 . S
H532 C528 0.950 . S
C533 C531 1.390 . S
C533 C534 1.387 . S
C533 H536 0.950 . S
C534 C533 1.387 . S
C534 C537 1.387 . S
H535 C531 0.950 . S
H536 C533 0.950 . S
C537 C528 1.390 . S
C537 H530 0.950 . S
C537 C534 1.387 . S
C538 C539 1.387 . S
C538 H542 0.950 . S
C538 C547 1.390 . S
C539 C538 1.387 . S
C539 C541 1.387 . S
H540 C547 0.950 . S
C541 C539 1.387 . S
C541 C543 1.390 . S
C541 H545 0.950 . S
H542 C538 0.950 . S
C543 C541 1.390 . S
C543 C544 1.387 . S
C543 H546 0.950 . S
C544 C543 1.387 . S
C544 C547 1.387 . S
H545 C541 0.950 . S
H546 C543 0.950 . S
C547 C538 1.390 . S
C547 H540 0.950 . S
C547 C544 1.387 . S
C548 C549 1.387 . S
C548 H552 0.950 . S
C548 C557 1.390 . S
C549 C548 1.387 . S
C549 C551 1.387 . S
H550 C557 0.950 . S
C551 C549 1.387 . S
C551 C553 1.390 . S
C551 H555 0.950 . S
H552 C548 0.950 . S
C553 C551 1.390 . S
C553 C554 1.387 . S
C553 H556 0.950 . S
C554 C553 1.387 . S
C554 C557 1.387 . S
H555 C551 0.950 . S
H556 C553 0.950 . S
C557 C548 1.390 . S
C557 H550 0.950 . S
C557 C554 1.387 . S
C558 C559 1.387 . S
C558 H562 0.950 . S
C558 C567 1.390 . S
C559 C558 1.387 . S
C559 C561 1.387 . S
H560 C567 0.950 . S
C561 C559 1.387 . S
C561 C563 1.390 . S
C561 H565 0.950 . S
H562 C558 0.950 . S
C563 C561 1.390 . S
C563 C564 1.387 . S
C563 H566 0.950 . S
C564 C563 1.387 . S
C564 C567 1.387 . S
H565 C561 0.950 . S
H566 C563 0.950 . S
C567 C558 1.390 . S
C567 H560 0.950 . S
C567 C564 1.387 . S
C568 C569 1.387 . S
C568 H572 0.950 . S
C568 C577 1.390 . S
C569 C568 1.387 . S
C569 C571 1.387 . S
H570 C577 0.950 . S
C571 C569 1.387 . S
C571 C573 1.390 . S
C571 H575 0.950 . S
H572 C568 0.950 . S
C573 C571 1.390 . S
C573 C574 1.387 . S
C573 H576 0.950 . S
C574 C573 1.387 . S
C574 C577 1.387 . S
H575 C571 0.950 . S
H576 C573 0.950 . S
C577 C568 1.390 . S
C577 H570 0.950 . S
C577 C574 1.387 . S
C578 C579 1.387 . S
C578 H582 0.950 . S
C578 C587 1.390 . S
C579 C578 1.387 . S
C579 C581 1.387 . S
H580 C587 0.950 . S
C581 C579 1.387 . S
C581 C583 1.390 . S
C581 H585 0.950 . S
H582 C578 0.950 . S
C583 C581 1.390 . S
C583 C584 1.387 . S
C583 H586 0.950 . S
C584 C583 1.387 . S
C584 C587 1.387 . S
H585 C581 0.950 . S
H586 C583 0.950 . S
C587 C578 1.390 . S
C587 H580 0.950 . S
C587 C584 1.387 . S
C588 C589 1.387 . S
C588 H592 0.950 . S
C588 C597 1.390 . S
C589 C588 1.387 . S
C589 C591 1.387 . S
H590 C597 0.950 . S
C591 C589 1.387 . S
C591 C593 1.390 . S
C591 H595 0.950 . S
H592 C588 0.950 . S
C593 C591 1.390 . S
C593 C594 1.387 . S
C593 H596 0.950 . S
C594 C593 1.387 . S
C594 C597 1.387 . S
H595 C591 0.950 . S
H596 C593 0.950 . S
C597 C588 1.390 . S
C597 H590 0.950 . S
C597 C594 1.387 . S
C598 C599 1.387 . S
C598 H602 0.950 . S
C598 C607 1.390 . S
C599 C598 1.387 . S
C599 C601 1.387 . S
H600 C607 0.950 . S
C601 C599 1.387 . S
C601 C603 1.390 . S
C601 H605 0.950 . S
H602 C598 0.950 . S
C603 C601 1.390 . S
C603 C604 1.387 . S
C603 H606 0.950 . S
C604 C603 1.387 . S
C604 C607 1.387 . S
H605 C601 0.950 . S
H606 C603 0.950 . S
C607 C598 1.390 . S
C607 H600 0.950 . S
C607 C604 1.387 . S
C608 C609 1.387 . S
C608 H612 0.950 . S
C608 C617 1.390 . S
C609 C608 1.387 . S
C609 C611 1.387 . S
H610 C617 0.950 . S
C611 C609 1.387 . S
C611 C613 1.390 . S
C611 H615 0.950 . S
H612 C608 0.950 . S
C613 C611 1.390 . S
C613 C614 1.387 . S
C613 H616 0.950 . S
C614 C613 1.387 . S
C614 C617 1.387 . S
H615 C611 0.950 . S
H616 C613 0.950 . S
C617 C608 1.390 . S
C617 H610 0.950 . S
C617 C614 1.387 . S
C618 C619 1.387 . S
C618 H622 0.950 . S
C618 C627 1.390 . S
C619 C618 1.387 . S
C619 C621 1.387 . S
H620 C627 0.950 . S
C621 C619 1.387 . S
C621 C623 1.390 . S
C621 H625 0.950 . S
H622 C618 0.950 . S
C623 C621 1.390 . S
C623 C624 1.387 . S
C623 H626 0.950 . S
C624 C623 1.387 . S
C624 C627 1.387 . S
H625 C621 0.950 . S
H626 C623 0.950 . S
C627 C618 1.390 . S
C627 H620 0.950 . S
C627 C624 1.387 . S
C628 C629 1.387 . S
C628 H632 0.950 . S
C628 C637 1.390 . S
C629 C628 1.387 . S
C629 C631 1.387 . S
H630 C637 0.950 . S
C631 C629 1.387 . S
C631 C633 1.390 . S
C631 H635 0.950 . S
H632 C628 0.950 . S
C633 C631 1.390 . S
C633 C634 1.387 . S
C633 H636 0.950 . S
C634 C633 1.387 . S
C634 C637 1.387 . S
H635 C631 0.950 . S
H636 C633 0.950 . S
C637 C628 1.390 . S
C637 H630 0.950 . S
C637 C634 1.387 . S
C638 C639 1.387 . S
C638 H642 0.950 . S
C638 C647 1.390 . S
C639 C638 1.387 . S
C639 C641 1.387 . S
H640 C647 0.950 . S
C641 C639 1.387 . S
C641 C643 1.390 . S
C641 H645 0.950 . S
H642 C638 0.950 . S
C643 C641 1.390 . S
C643 C644 1.387 . S
C643 H646 0.950 . S
C644 C643 1.387 . S
C644 C647 1.387 . S
H645 C641 0.950 . S
H646 C643 0.950 . S
C647 C638 1.390 . S
C647 H640 0.950 . S
C647 C644 1.387 . S
C648 C649 1.387 . S
C648 H652 0.950 . S
C648 C657 1.390 . S
C649 C648 1.387 . S
C649 C651 1.387 . S
H650 C657 0.950 . S
C651 C649 1.387 . S
C651 C653 1.390 . S
C651 H655 0.950 . S
H652 C648 0.950 . S
C653 C651 1.390 . S
C653 C654 1.387 . S
C653 H656 0.950 . S
C654 C653 1.387 . S
C654 C657 1.387 . S
H655 C651 0.950 . S
H656 C653 0.950 . S
C657 C648 1.390 . S
C657 H650 0.950 . S
C657 C654 1.387 . S
C658 C659 1.387 . S
C658 H662 0.950 . S
C658 C667 1.390 . S
C659 C658 1.387 . S
C659 C661 1.387 . S
H660 C667 0.950 . S
C661 C659 1.387 . S
C661 C663 1.390 . S
C661 H665 0.950 . S
H662 C658 0.950 . S
C663 C661 1.390 . S
C663 C664 1.387 . S
C663 H666 0.950 . S
C664 C663 1.387 . S
C664 C667 1.387 . S
H665 C661 0.950 . S
H666 C663 0.950 . S
C667 C658 1.390 . S
C667 H660 0.950 . S
C667 C664 1.387 . S
C668 C669 1.387 . S
C668 H672 0.950 . S
C668 C677 1.390 . S
C669 C668 1.387 . S
C669 C671 1.387 . S
H670 C677 0.950 . S
C671 C669 1.387 . S
C671 C673 1.390 . S
C671 H675 0.950 . S
H672 C668 0.950 . S
C673 C671 1.390 . S
C673 C674 1.387 . S
C673 H676 0.950 . S
C674 C673 1.387 . S
C674 C677 1.387 . S
H675 C671 0.950 . S
H676 C673 0.950 . S
C677 C668 1.390 . S
C677 H670 0.950 . S
C677 C674 1.387 . S
C678 C679 1.387 . S
C678 H682 0.950 . S
C678 C687 1.390 . S
C679 C678 1.387 . S
C679 C681 1.387 . S
H680 C687 0.950 . S
C681 C679 1.387 . S
C681 C683 1.390 . S
C681 H685 0.950 . S
H682 C678 0.950 . S
C683 C681 1.390 . S
C683 C684 1.387 . S
C683 H686 0.950 . S
C684 C683 1.387 . S
C684 C687 1.387 . S
H685 C681 0.950 . S
H686 C683 0.950 . S
C687 C678 1.390 . S
C687 H680 0.950 . S
C687 C684 1.387 . S
C688 C689 1.387 . S
C688 H692 0.950 . S
C688 C697 1.390 . S
C689 C688 1.387 . S
C689 C691 1.387 . S
H690 C697 0.950 . S
C691 C689 1.387 . S
C691 C693 1.390 . S
C691 H695 0.950 . S
H692 C688 0.950 . S
C693 C691 1.390 . S
C693 C694 1.387 . S
C693 H696 0.950 . S
C694 C693 1.387 . S
C694 C697 1.387 . S
H695 C691 0.950 . S
H696 C693 0.950 . S
C697 C688 1.390 . S
C697 H690 0.950 . S
C697 C694 1.387 . S
C698 C699 1.387 . S
C698 H702 0.950 . S
C698 C707 1.390 . S
C699 C698 1.387 . S
C699 C701 1.387 . S
H700 C707 0.950 . S
C701 C699 1.387 . S
C701 C703 1.390 . S
C701 H705 0.950 . S
H702 C698 0.950 . S
C703 C701 1.390 . S
C703 C704 1.387 . S
C703 H706 0.950 . S
C704 C703 1.387 . S
C704 C707 1.387 . S
H705 C701 0.950 . S
H706 C703 0.950 . S
C707 C698 1.390 . S
C707 H700 0.950 . S
C707 C704 1.387 . S
C708 C709 1.387 . S
C708 H712 0.950 . S
C708 C717 1.390 . S
C709 C708 1.387 . S
C709 C711 1.387 . S
H710 C717 0.950 . S
C711 C709 1.387 . S
C711 C713 1.390 . S
C711 H715 0.950 . S
H712 C708 0.950 . S
C713 C711 1.390 . S
C713 C714 1.387 . S
C713 H716 0.950 . S
C714 C713 1.387 . S
C714 C717 1.387 . S
H715 C711 0.950 . S
H716 C713 0.950 . S
C717 C708 1.390 . S
C717 H710 0.950 . S
C717 C714 1.387 . S
C718 C719 1.387 . S
C718 H722 0.950 . S
C718 C727 1.390 . S
C719 C718 1.387 . S
C719 C721 1.387 . S
H720 C727 0.950 . S
C721 C719 1.387 . S
C721 C723 1.390 . S
C721 H725 0.950 . S
H722 C718 0.950 . S
C723 C721 1.390 . S
C723 C724 1.387 . S
C723 H726 0.950 . S
C724 C723 1.387 . S
C724 C727 1.387 . S
H725 C721 0.950 . S
H726 C723 0.950 . S
C727 C718 1.390 . S
C727 H720 0.950 . S
C727 C724 1.387 . S
C728 C729 1.387 . S
C728 H732 0.950 . S
C728 C737 1.390 . S
C729 C728 1.387 . S
C729 C731 1.387 . S
H730 C737 0.950 . S
C731 C729 1.387 . S
C731 C733 1.390 . S
C731 H735 0.950 . S
H732 C728 0.950 . S
C733 C731 1.390 . S
C733 C734 1.387 . S
C733 H736 0.950 . S
C734 C733 1.387 . S
C734 C737 1.387 . S
H735 C731 0.950 . S
H736 C733 0.950 . S
C737 C728 1.390 . S
C737 H730 0.950 . S
C737 C734 1.387 . S
C738 C739 1.387 . S
C738 H742 0.950 . S
C738 C747 1.390 . S
C739 C738 1.387 . S
C739 C741 1.387 . S
H740 C747 0.950 . S
C741 C739 1.387 . S
C741 C743 1.390 . S
C741 H745 0.950 . S
H742 C738 0.950 . S
C743 C741 1.390 . S
C743 C744 1.387 . S
C743 H746 0.950 . S
C744 C743 1.387 . S
C744 C747 1.387 . S
H745 C741 0.950 . S
H746 C743 0.950 . S
C747 C738 1.390 . S
C747 H740 0.950 . S
C747 C744 1.387 . S
C748 C749 1.387 . S
C748 H752 0.950 . S
C748 C757 1.390 . S
C749 C748 1.387 . S
C749 C751 1.387 . S
H750 C757 0.950 . S
C751 C749 1.387 . S
C751 C753 1.390 . S
C751 H755 0.950 . S
H752 C748 0.950 . S
C753 C751 1.390 . S
C753 C754 1.387 . S
C753 H756 0.950 . S
C754 C753 1.387 . S
C754 C757 1.387 . S
H755 C751 0.950 . S
H756 C753 0.950 . S
C757 C748 1.390 . S
C757 H750 0.950 . S
C757 C754 1.387 . S
C758 C759 1.387 . S
C758 H762 0.950 . S
C758 C767 1.390 . S
C759 C758 1.387 . S
C759 C761 1.387 . S
H760 C767 0.950 . S
C761 C759 1.387 . S
C761 C763 1.390 . S
C761 H765 0.950 . S
H762 C758 0.950 . S
C763 C761 1.390 . S
C763 C764 1.387 . S
C763 H766 0.950 . S
C764 C763 1.387 . S
C764 C767 1.387 . S
H765 C761 0.950 . S
H766 C763 0.950 . S
C767 C758 1.390 . S
C767 H760 0.950 . S
C767 C764 1.387 . S
C768 C769 1.387 . S
C768 H772 0.950 . S
C768 C777 1.390 . S
C769 C768 1.387 . S
C769 C771 1.387 . S
H770 C777 0.950 . S
C771 C769 1.387 . S
C771 C773 1.390 . S
C771 H775 0.950 . S
H772 C768 0.950 . S
C773 C771 1.390 . S
C773 C774 1.387 . S
C773 H776 0.950 . S
C774 C773 1.387 . S
C774 C777 1.387 . S
H775 C771 0.950 . S
H776 C773 0.950 . S
C777 C768 1.390 . S
C777 H770 0.950 . S
C777 C774 1.387 . S
C778 C779 1.387 . S
C778 H782 0.950 . S
C778 C787 1.390 . S
C779 C778 1.387 . S
C779 C781 1.387 . S
H780 C787 0.950 . S
C781 C779 1.387 . S
C781 C783 1.390 . S
C781 H785 0.950 . S
H782 C778 0.950 . S
C783 C781 1.390 . S
C783 C784 1.387 . S
C783 H786 0.950 . S
C784 C783 1.387 . S
C784 C787 1.387 . S
H785 C781 0.950 . S
H786 C783 0.950 . S
C787 C778 1.390 . S
C787 H780 0.950 . S
C787 C784 1.387 . S
C788 C789 1.387 . S
C788 H792 0.950 . S
C788 C797 1.390 . S
C789 C788 1.387 . S
C789 C791 1.387 . S
H790 C797 0.950 . S
C791 C789 1.387 . S
C791 C793 1.390 . S
C791 H795 0.950 . S
H792 C788 0.950 . S
C793 C791 1.390 . S
C793 C794 1.387 . S
C793 H796 0.950 . S
C794 C793 1.387 . S
C794 C797 1.387 . S
H795 C791 0.950 . S
H796 C793 0.950 . S
C797 C788 1.390 . S
C797 H790 0.950 . S
C797 C794 1.387 . S
C798 C799 1.387 . S
C798 H802 0.950 . S
C798 C807 1.390 . S
C799 C798 1.387 . S
C799 C801 1.387 . S
H800 C807 0.950 . S
C801 C799 1.387 . S
C801 C803 1.390 . S
C801 H805 0.950 . S
H802 C798 0.950 . S
C803 C801 1.390 . S
C803 C804 1.387 . S
C803 H806 0.950 . S
C804 C803 1.387 . S
C804 C807 1.387 . S
H805 C801 0.950 . S
H806 C803 0.950 . S
C807 C798 1.390 . S
C807 H800 0.950 . S
C807 C804 1.387 . S
C808 C809 1.387 . S
C808 H812 0.950 . S
C808 C817 1.390 . S
C809 C808 1.387 . S
C809 C811 1.387 1_556 S
H810 C817 0.950 . S
C811 C809 1.387 1_554 S
C811 C813 1.390 . S
C811 H815 0.950 . S
H812 C808 0.950 . S
C813 C811 1.390 . S
C813 C814 1.387 . S
C813 H816 0.950 . S
C814 C813 1.387 . S
C814 C817 1.387 1_554 S
H815 C811 0.950 . S
H816 C813 0.950 . S
C817 C808 1.390 . S
C817 H810 0.950 . S
C817 C814 1.387 1_556 S
C818 C819 1.387 . S
C818 H822 0.950 . S
C818 C827 1.390 . S
C819 C818 1.387 . S
C819 C821 1.387 1_554 S
H820 C827 0.950 . S
C821 C819 1.387 1_556 S
C821 C823 1.390 . S
C821 H825 0.950 . S
H822 C818 0.950 . S
C823 C821 1.390 . S
C823 C824 1.387 . S
C823 H826 0.950 . S
C824 C823 1.387 . S
C824 C827 1.387 1_556 S
H825 C821 0.950 . S
H826 C823 0.950 . S
C827 C818 1.390 . S
C827 H820 0.950 . S
C827 C824 1.387 1_554 S
C828 C829 1.387 . S
C828 H832 0.950 . S
C828 C837 1.390 . S
C829 C828 1.387 . S
C829 C831 1.387 1_554 S
H830 C837 0.950 . S
C831 C829 1.387 1_556 S
C831 C833 1.390 . S
C831 H835 0.950 . S
H832 C828 0.950 . S
C833 C831 1.390 . S
C833 C834 1.387 . S
C833 H836 0.950 . S
C834 C833 1.387 . S
C834 C837 1.387 1_556 S
H835 C831 0.950 . S
H836 C833 0.950 . S
C837 C828 1.390 . S
C837 H830 0.950 . S
C837 C834 1.387 1_554 S
C838 C839 1.387 . S
C838 H842 0.950 . S
C838 C847 1.390 . S
C839 C838 1.387 . S
C839 C841 1.387 1_554 S
H840 C847 0.950 . S
C841 C839 1.387 1_556 S
C841 C843 1.390 . S
C841 H845 0.950 . S
H842 C838 0.950 . S
C843 C841 1.390 . S
C843 C844 1.387 . S
C843 H846 0.950 . S
C844 C843 1.387 . S
C844 C847 1.387 1_556 S
H845 C841 0.950 . S
H846 C843 0.950 . S
C847 C838 1.390 . S
C847 H840 0.950 . S
C847 C844 1.387 1_554 S
C848 C849 1.387 . S
C848 H852 0.950 . S
C848 C857 1.390 . S
C849 C848 1.387 . S
C849 C851 1.387 . S
H850 C857 0.950 . S
C851 C849 1.387 . S
C851 C853 1.390 . S
C851 H855 0.950 . S
H852 C848 0.950 . S
C853 C851 1.390 . S
C853 C854 1.387 . S
C853 H856 0.950 . S
C854 C853 1.387 . S
C854 C857 1.387 . S
H855 C851 0.950 . S
H856 C853 0.950 . S
C857 C848 1.390 . S
C857 H850 0.950 . S
C857 C854 1.387 . S
C858 C859 1.387 . S
C858 H862 0.950 . S
C858 C867 1.390 . S
C859 C858 1.387 . S
C859 C861 1.387 . S
H860 C867 0.950 . S
C861 C859 1.387 . S
C861 C863 1.390 . S
C861 H865 0.950 . S
H862 C858 0.950 . S
C863 C861 1.390 . S
C863 C864 1.387 . S
C863 H866 0.950 . S
C864 C863 1.387 . S
C864 C867 1.387 . S
H865 C861 0.950 . S
H866 C863 0.950 . S
C867 C858 1.390 . S
C867 H860 0.950 . S
C867 C864 1.387 . S
C868 C869 1.387 . S
C868 H872 0.950 . S
C868 C877 1.390 . S
C869 C868 1.387 . S
C869 C871 1.387 . S
H870 C877 0.950 . S
C871 C869 1.387 . S
C871 C873 1.390 . S
C871 H875 0.950 . S
H872 C868 0.950 . S
C873 C871 1.390 . S
C873 C874 1.387 . S
C873 H876 0.950 . S
C874 C873 1.387 . S
C874 C877 1.387 . S
H875 C871 0.950 . S
H876 C873 0.950 . S
C877 C868 1.390 . S
C877 H870 0.950 . S
C877 C874 1.387 . S
C878 C879 1.387 . S
C878 H882 0.950 . S
C878 C887 1.390 . S
C879 C878 1.387 . S
C879 C881 1.387 . S
H880 C887 0.950 . S
C881 C879 1.387 . S
C881 C883 1.390 . S
C881 H885 0.950 . S
H882 C878 0.950 . S
C883 C881 1.390 . S
C883 C884 1.387 . S
C883 H886 0.950 . S
C884 C883 1.387 . S
C884 C887 1.387 . S
H885 C881 0.950 . S
H886 C883 0.950 . S
C887 C878 1.390 . S
C887 H880 0.950 . S
C887 C884 1.387 . S
C888 C889 1.387 . S
C888 H892 0.950 . S
C888 C897 1.390 . S
C889 C888 1.387 . S
C889 C891 1.387 . S
H890 C897 0.950 . S
C891 C889 1.387 . S
C891 C893 1.390 . S
C891 H895 0.950 . S
H892 C888 0.950 . S
C893 C891 1.390 . S
C893 C894 1.387 . S
C893 H896 0.950 . S
C894 C893 1.387 . S
C894 C897 1.387 . S
H895 C891 0.950 . S
H896 C893 0.950 . S
C897 C888 1.390 . S
C897 H890 0.950 . S
C897 C894 1.387 . S
C898 C899 1.387 . S
C898 H902 0.950 . S
C898 C907 1.390 . S
C899 C898 1.387 . S
C899 C901 1.387 . S
H900 C907 0.950 . S
C901 C899 1.387 . S
C901 C903 1.390 . S
C901 H905 0.950 . S
H902 C898 0.950 . S
C903 C901 1.390 . S
C903 C904 1.387 . S
C903 H906 0.950 . S
C904 C903 1.387 . S
C904 C907 1.387 . S
H905 C901 0.950 . S
H906 C903 0.950 . S
C907 C898 1.390 . S
C907 H900 0.950 . S
C907 C904 1.387 . S
C908 C909 1.387 . S
C908 H912 0.950 . S
C908 C917 1.390 . S
C909 C908 1.387 . S
C909 C911 1.387 . S
H910 C917 0.950 . S
C911 C909 1.387 . S
C911 C913 1.390 . S
C911 H915 0.950 . S
H912 C908 0.950 . S
C913 C911 1.390 . S
C913 C914 1.387 . S
C913 H916 0.950 . S
C914 C913 1.387 . S
C914 C917 1.387 . S
H915 C911 0.950 . S
H916 C913 0.950 . S
C917 C908 1.390 . S
C917 H910 0.950 . S
C917 C914 1.387 . S
C918 C919 1.387 . S
C918 H922 0.950 . S
C918 C927 1.390 . S
C919 C918 1.387 . S
C919 C921 1.387 . S
H920 C927 0.950 . S
C921 C919 1.387 . S
C921 C923 1.390 . S
C921 H925 0.950 . S
H922 C918 0.950 . S
C923 C921 1.390 . S
C923 C924 1.387 . S
C923 H926 0.950 . S
C924 C923 1.387 . S
C924 C927 1.387 . S
H925 C921 0.950 . S
H926 C923 0.950 . S
C927 C918 1.390 . S
C927 H920 0.950 . S
C927 C924 1.387 . S
C529 C7 1.167 . S
C534 C469 1.167 . S
C539 C502 1.167 . S
C544 C40 1.167 . S
C549 C403 1.167 . S
C554 C73 1.167 . S
C559 C106 1.167 . S
C564 C436 1.167 . S
C569 C139 1.168 . S
C574 C337 1.168 . S
C579 C370 1.168 . S
C584 C172 1.168 . S
C589 C205 1.167 . S
C594 C271 1.167 . S
C599 C304 1.168 . S
C604 C238 1.168 . S
C609 N145 1.482 . S
C614 N13 1.482 . S
C619 N46 1.483 . S
C624 N178 1.483 . S
C629 N79 1.483 . S
C634 N211 1.483 . S
C639 N112 1.483 . S
C644 N244 1.483 . S
C649 N409 1.482 . S
C654 N277 1.482 . S
C659 N442 1.482 . S
C664 N310 1.482 . S
C669 N343 1.483 . S
C674 N475 1.483 . S
C679 N376 1.482 . S
C684 N508 1.482 . S
C689 C21 1.512 . S
C694 C483 1.512 . S
C699 C516 1.512 . S
C704 C54 1.512 . S
C709 C87 1.512 . S
C714 C417 1.512 . S
C719 C450 1.512 . S
C724 C120 1.512 . S
C729 C351 1.512 . S
C734 C153 1.512 . S
C739 C384 1.509 . S
C744 C186 1.509 . S
C749 C219 1.512 . S
C754 C285 1.512 . S
C759 C252 1.509 . S
C764 C318 1.509 . S
C769 N2 1.479 1_565 S
C774 C381 1.584 . S
C779 C282 1.584 . S
C784 N35 1.480 1_655 S
C789 N68 1.479 1_545 S
C794 C315 1.584 . S
C799 C348 1.584 . S
C804 N101 1.481 1_455 S
C809 C183 1.585 . S
C814 N134 1.480 . S
C819 C216 1.585 . S
C824 N167 1.483 . S
C829 N200 1.483 . S
C834 C249 1.586 . S
C839 C150 1.586 . S
C844 N233 1.483 . S
C849 C117 1.585 . S
C854 N266 1.483 . S
C859 N299 1.483 . S
C864 C18 1.586 . S
C869 N332 1.483 . S
C874 C51 1.586 . S
C879 C84 1.584 . S
C884 N365 1.479 . S
C889 C447 1.586 . S
C894 N398 1.483 1_545 S
C899 C480 1.586 . S
C904 N431 1.483 1_455 S
C909 C513 1.586 . S
C914 N464 1.483 1_565 S
C919 N497 1.483 1_655 S
C924 C414 1.586 . S
