# Generated by pormake.
# Topology uot, (4)-cn, num edge types: 1
# Building blocks:
#     Node 0, Type 0, BuildingBlock: QUQFOY_clean_sbu_3, # of connection points: 4
#     Node 1, Type 0, BuildingBlock: QUQFOY_clean_sbu_3, # of connection points: 4
#     Node 2, Type 0, BuildingBlock: QUQFOY_clean_sbu_3, # of connection points: 4
#     Node 3, Type 0, BuildingBlock: QUQFOY_clean_sbu_3, # of connection points: 4
#     Node 4, Type 0, BuildingBlock: QUQFOY_clean_sbu_3, # of connection points: 4
#     Node 5, Type 0, BuildingBlock: QUQFOY_clean_sbu_3, # of connection points: 4
#     Node 6, Type 0, BuildingBlock: QUQFOY_clean_sbu_3, # of connection points: 4
#     Node 7, Type 0, BuildingBlock: QUQFOY_clean_sbu_3, # of connection points: 4
#     Node 8, Type 0, BuildingBlock: QUQFOY_clean_sbu_3, # of connection points: 4
#     Node 9, Type 0, BuildingBlock: QUQFOY_clean_sbu_3, # of connection points: 4
#     Node 10, Type 0, BuildingBlock: QUQFOY_clean_sbu_3, # of connection points: 4
#     Node 11, Type 0, BuildingBlock: QUQFOY_clean_sbu_3, # of connection points: 4
#     Node 12, Type 0, BuildingBlock: QUQFOY_clean_sbu_3, # of connection points: 4
#     Node 13, Type 0, BuildingBlock: QUQFOY_clean_sbu_3, # of connection points: 4
#     Node 14, Type 0, BuildingBlock: QUQFOY_clean_sbu_3, # of connection points: 4
#     Node 15, Type 0, BuildingBlock: QUQFOY_clean_sbu_3, # of connection points: 4
#     Edge 16, Type (0, 0), BuildingBlock: OJICUG_clean_linker_0, # of connection points: 2
#     Edge 17, Type (0, 0), BuildingBlock: OJICUG_clean_linker_0, # of connection points: 2
#     Edge 18, Type (0, 0), BuildingBlock: OJICUG_clean_linker_0, # of connection points: 2
#     Edge 19, Type (0, 0), BuildingBlock: OJICUG_clean_linker_0, # of connection points: 2
#     Edge 20, Type (0, 0), BuildingBlock: OJICUG_clean_linker_0, # of connection points: 2
#     Edge 21, Type (0, 0), BuildingBlock: OJICUG_clean_linker_0, # of connection points: 2
#     Edge 22, Type (0, 0), BuildingBlock: OJICUG_clean_linker_0, # of connection points: 2
#     Edge 23, Type (0, 0), BuildingBlock: OJICUG_clean_linker_0, # of connection points: 2
#     Edge 24, Type (0, 0), BuildingBlock: OJICUG_clean_linker_0, # of connection points: 2
#     Edge 25, Type (0, 0), BuildingBlock: OJICUG_clean_linker_0, # of connection points: 2
#     Edge 26, Type (0, 0), BuildingBlock: OJICUG_clean_linker_0, # of connection points: 2
#     Edge 27, Type (0, 0), BuildingBlock: OJICUG_clean_linker_0, # of connection points: 2
#     Edge 28, Type (0, 0), BuildingBlock: OJICUG_clean_linker_0, # of connection points: 2
#     Edge 29, Type (0, 0), BuildingBlock: OJICUG_clean_linker_0, # of connection points: 2
#     Edge 30, Type (0, 0), BuildingBlock: OJICUG_clean_linker_0, # of connection points: 2
#     Edge 31, Type (0, 0), BuildingBlock: OJICUG_clean_linker_0, # of connection points: 2
#     Edge 32, Type (0, 0), BuildingBlock: OJICUG_clean_linker_0, # of connection points: 2
#     Edge 33, Type (0, 0), BuildingBlock: OJICUG_clean_linker_0, # of connection points: 2
#     Edge 34, Type (0, 0), BuildingBlock: OJICUG_clean_linker_0, # of connection points: 2
#     Edge 35, Type (0, 0), BuildingBlock: OJICUG_clean_linker_0, # of connection points: 2
#     Edge 36, Type (0, 0), BuildingBlock: OJICUG_clean_linker_0, # of connection points: 2
#     Edge 37, Type (0, 0), BuildingBlock: OJICUG_clean_linker_0, # of connection points: 2
#     Edge 38, Type (0, 0), BuildingBlock: OJICUG_clean_linker_0, # of connection points: 2
#     Edge 39, Type (0, 0), BuildingBlock: OJICUG_clean_linker_0, # of connection points: 2
#     Edge 40, Type (0, 0), BuildingBlock: OJICUG_clean_linker_0, # of connection points: 2
#     Edge 41, Type (0, 0), BuildingBlock: OJICUG_clean_linker_0, # of connection points: 2
#     Edge 42, Type (0, 0), BuildingBlock: OJICUG_clean_linker_0, # of connection points: 2
#     Edge 43, Type (0, 0), BuildingBlock: OJICUG_clean_linker_0, # of connection points: 2
#     Edge 44, Type (0, 0), BuildingBlock: OJICUG_clean_linker_0, # of connection points: 2
#     Edge 45, Type (0, 0), BuildingBlock: OJICUG_clean_linker_0, # of connection points: 2
#     Edge 46, Type (0, 0), BuildingBlock: OJICUG_clean_linker_0, # of connection points: 2
#     Edge 47, Type (0, 0), BuildingBlock: OJICUG_clean_linker_0, # of connection points: 2
# Relax obj value: 0.066
# Max RMSD: 0.087
# Mean RMSD: 0.087
data_MOF--net-uot--node1-QUQFOY_clean_sbu_3--edge1-OJICUG_clean_linker_0
_symmetry_space_group_name_H-M    P1
_symmetry_Int_Tables_number       1
_symmetry_cell_setting            triclinic
loop_
_symmetry_equiv_pos_as_xyz
'x, y, z'
_cell_length_a     35.843389
_cell_length_b     35.397762
_cell_length_c     31.328031
_cell_angle_alpha  89.970914
_cell_angle_beta   89.966087
_cell_angle_gamma 89.970188
loop_
_atom_site_label
_atom_site_type_symbol
_atom_site_fract_x
_atom_site_fract_y
_atom_site_fract_z
_atom_type_partial_charge
C0 C 0.0766 0.36499 0.2948 0.0
O1 O 0.06214 0.38419 0.32483 0.0
Cd2 Cd 0.09565 0.43417 0.36029 0.0
O3 O 0.11103 0.36857 0.28551 0.0
Cd4 Cd 0.16924 0.40004 0.3084 0.0
C5 C 0.12867 0.47826 0.26815 0.0
O6 O 0.15299 0.40792 0.38233 0.0
O7 O 0.20218 0.43824 0.36245 0.0
O8 O 0.19397 0.33704 0.30802 0.0
C9 C 0.17942 0.43003 0.39204 0.0
O10 O 0.10846 0.47799 0.30167 0.0
C11 C 0.22381 0.34467 0.28795 0.0
O12 O 0.15215 0.45201 0.26052 0.0
O13 O 0.2284 0.37876 0.27611 0.0
C14 C 0.36236 0.85814 0.64881 0.0
O15 O 0.38153 0.8726 0.61883 0.0
Cd16 Cd 0.43038 0.83792 0.58327 0.0
O17 O 0.36535 0.82318 0.65791 0.0
Cd18 Cd 0.39527 0.76368 0.6348 0.0
C19 C 0.47308 0.80323 0.67539 0.0
O20 O 0.40342 0.78045 0.56109 0.0
O21 O 0.43235 0.72984 0.58037 0.0
O22 O 0.33245 0.74041 0.63494 0.0
C23 C 0.42475 0.75334 0.55106 0.0
O24 O 0.47317 0.82387 0.64201 0.0
C25 C 0.33908 0.70993 0.65489 0.0
O26 O 0.4468 0.77983 0.68284 0.0
O27 O 0.3726 0.70423 0.66672 0.0
C28 C 0.85268 0.57656 0.29451 0.0
O29 O 0.86715 0.55732 0.32452 0.0
Cd30 Cd 0.83372 0.5073 0.36004 0.0
O31 O 0.81826 0.57297 0.28523 0.0
Cd32 Cd 0.76004 0.54145 0.30816 0.0
C33 C 0.80069 0.46326 0.26793 0.0
O34 O 0.77641 0.53363 0.38201 0.0
O35 O 0.72714 0.50333 0.36248 0.0
O36 O 0.73533 0.60445 0.30757 0.0
C37 C 0.75 0.51154 0.39192 0.0
O38 O 0.82091 0.46354 0.30142 0.0
C39 C 0.70547 0.59679 0.28761 0.0
O40 O 0.77718 0.48949 0.26032 0.0
O41 O 0.70085 0.56267 0.27594 0.0
C42 C 0.56806 0.08311 0.6483 0.0
O43 O 0.5489 0.06864 0.61836 0.0
Cd44 Cd 0.50001 0.10331 0.58285 0.0
O45 O 0.56504 0.11807 0.65734 0.0
Cd46 Cd 0.5351 0.17755 0.63424 0.0
C47 C 0.45732 0.13796 0.67501 0.0
O48 O 0.52686 0.16084 0.56055 0.0
O49 O 0.49794 0.21142 0.57994 0.0
O50 O 0.5979 0.20088 0.63419 0.0
C51 C 0.50549 0.18795 0.5506 0.0
O52 O 0.45722 0.11732 0.64164 0.0
C53 C 0.59127 0.2313 0.65424 0.0
O54 O 0.48359 0.16136 0.68239 0.0
O55 O 0.55776 0.23694 0.66619 0.0
C56 C 0.0769 0.57617 0.64864 0.0
O57 O 0.06245 0.55691 0.61868 0.0
Cd58 Cd 0.096 0.50693 0.58323 0.0
O59 O 0.11135 0.57267 0.65784 0.0
Cd60 Cd 0.16964 0.54131 0.63483 0.0
C61 C 0.12927 0.46316 0.67545 0.0
O62 O 0.15323 0.53328 0.56102 0.0
O63 O 0.20255 0.50306 0.58068 0.0
O64 O 0.19422 0.60434 0.63502 0.0
C65 C 0.17967 0.51119 0.5512 0.0
O66 O 0.10902 0.46332 0.64198 0.0
C67 C 0.22409 0.59679 0.65504 0.0
O68 O 0.15271 0.48944 0.68293 0.0
O69 O 0.22877 0.56272 0.66692 0.0
C70 C 0.56726 0.85803 0.29389 0.0
O71 O 0.54816 0.87252 0.32391 0.0
Cd72 Cd 0.49929 0.83794 0.35956 0.0
O73 O 0.56418 0.82309 0.28479 0.0
Cd74 Cd 0.53419 0.76364 0.3079 0.0
C75 C 0.45636 0.80345 0.26753 0.0
O76 O 0.52619 0.78035 0.38162 0.0
O77 O 0.49721 0.7298 0.36243 0.0
O78 O 0.59701 0.74033 0.30753 0.0
C79 C 0.50485 0.75328 0.39171 0.0
O80 O 0.45638 0.82407 0.30091 0.0
C81 C 0.59033 0.70985 0.28764 0.0
O82 O 0.48258 0.77998 0.26001 0.0
O83 O 0.55677 0.70416 0.27596 0.0
C84 C 0.8534 0.36521 0.64841 0.0
O85 O 0.86785 0.38452 0.61844 0.0
Cd86 Cd 0.83421 0.43454 0.58311 0.0
O87 O 0.81894 0.36869 0.65763 0.0
Cd88 Cd 0.76067 0.40006 0.6347 0.0
C89 C 0.80097 0.47813 0.67543 0.0
O90 O 0.77698 0.40827 0.56083 0.0
O91 O 0.72772 0.43848 0.58078 0.0
O92 O 0.73614 0.33701 0.63468 0.0
C93 C 0.7505 0.43038 0.55118 0.0
O94 O 0.82121 0.47806 0.64192 0.0
C95 C 0.70626 0.34446 0.65475 0.0
O96 O 0.77755 0.45182 0.6829 0.0
O97 O 0.70156 0.37848 0.66679 0.0
C98 C 0.36213 0.08355 0.29412 0.0
O99 O 0.38127 0.06902 0.32407 0.0
Cd100 Cd 0.43025 0.10352 0.35952 0.0
O101 O 0.36522 0.1185 0.28503 0.0
Cd102 Cd 0.39527 0.17791 0.30804 0.0
C103 C 0.473 0.13812 0.26733 0.0
O104 O 0.40348 0.16112 0.38173 0.0
O105 O 0.43243 0.21168 0.36237 0.0
O106 O 0.33246 0.20123 0.30802 0.0
C107 C 0.42488 0.18817 0.39169 0.0
O108 O 0.47303 0.11746 0.30071 0.0
C109 C 0.33906 0.23169 0.28803 0.0
O110 O 0.44677 0.16161 0.25992 0.0
O111 O 0.37258 0.23738 0.27615 0.0
C112 C 0.57678 0.86482 0.79459 0.0
O113 O 0.56231 0.88413 0.82452 0.0
Cd114 Cd 0.59583 0.93416 0.85985 0.0
O115 O 0.61123 0.86833 0.78534 0.0
Cd116 Cd 0.66945 0.89978 0.80822 0.0
C117 C 0.62904 -0.02209 0.76759 0.0
O118 O 0.65309 0.90786 0.88209 0.0
O119 O 0.70235 0.93807 0.86224 0.0
O120 O 0.69409 0.83676 0.80807 0.0
C121 C 0.67953 0.92996 0.8918 0.0
O122 O 0.60878 -0.02222 0.80108 0.0
C123 C 0.72396 0.8443 0.78801 0.0
O124 O 0.65249 0.95161 0.7601 0.0
O125 O 0.7286 0.87836 0.77608 0.0
C126 C 0.86203 0.35798 0.149 0.0
O127 O 0.88115 0.37247 0.11899 0.0
Cd128 Cd 0.93011 0.3379 0.08347 0.0
O129 O 0.86511 0.32304 0.15812 0.0
Cd130 Cd 0.89515 0.26358 0.13505 0.0
C131 C -0.02713 0.30333 0.17563 0.0
O132 O 0.90331 0.28034 0.06133 0.0
O133 O 0.93231 0.22979 0.08065 0.0
O134 O 0.83235 0.24027 0.13516 0.0
C135 C 0.9247 0.25327 0.05133 0.0
O136 O -0.02709 0.32396 0.14224 0.0
C137 C 0.83899 0.20978 0.15509 0.0
O138 O 0.94665 0.27986 0.18309 0.0
O139 O 0.87251 0.20408 0.16692 0.0
C140 C 0.3535 0.07659 0.79446 0.0
O141 O 0.36792 0.05734 0.82448 0.0
Cd142 Cd 0.33431 0.0074 0.85997 0.0
O143 O 0.31906 0.07308 0.78521 0.0
Cd144 Cd 0.26081 0.04169 0.8082 0.0
C145 C 0.30126 0.96347 0.76785 0.0
O146 O 0.27702 0.03372 0.88213 0.0
O147 O 0.22782 0.00345 0.86226 0.0
O148 O 0.23614 0.10471 0.80789 0.0
C149 C 0.25055 0.01164 0.89184 0.0
O150 O 0.32146 0.96366 0.80136 0.0
C151 C 0.20629 0.09713 0.78787 0.0
O152 O 0.27783 -0.01023 0.76026 0.0
O153 O 0.20168 0.06306 0.77601 0.0
C154 C 0.06752 0.58362 0.14913 0.0
O155 O 0.04845 0.56915 0.11911 0.0
Cd156 Cd -0.00041 0.6037 0.08343 0.0
O157 O 0.06444 0.61857 0.15822 0.0
Cd158 Cd 0.03445 0.67804 0.13504 0.0
C159 C 0.95659 0.63831 0.17544 0.0
O160 O 0.02648 0.66125 0.06135 0.0
O161 O -0.00255 0.71183 0.0805 0.0
O162 O 0.09724 0.70139 0.1353 0.0
C163 C 0.00511 0.68831 0.05125 0.0
O164 O 0.95664 0.61767 0.14208 0.0
C165 C 0.09051 0.73187 0.15519 0.0
O166 O -0.0172 0.66176 0.18294 0.0
O167 O 0.05695 0.73754 0.16693 0.0
C168 C 0.57679 0.07647 0.14806 0.0
O169 O 0.56234 0.05728 0.11804 0.0
Cd170 Cd 0.59582 0.00722 0.08261 0.0
O171 O 0.61121 0.07283 0.15734 0.0
Cd172 Cd 0.66946 0.0413 0.13451 0.0
C173 C 0.62873 0.9632 0.17485 0.0
O174 O 0.6532 0.03339 0.06064 0.0
O175 O 0.70242 0.00305 0.08041 0.0
O176 O 0.69413 0.10429 0.13488 0.0
C177 C 0.67962 0.01125 0.05088 0.0
O178 O 0.60855 0.96349 0.14133 0.0
C179 C 0.72396 0.09668 0.15495 0.0
O180 O 0.65225 -0.0106 0.18244 0.0
O181 O 0.72858 0.06259 0.16678 0.0
C182 C 0.0679 0.35815 0.79465 0.0
O183 O 0.04871 0.37266 0.82458 0.0
Cd184 Cd -0.00029 0.33808 0.86001 0.0
O185 O 0.06483 0.32321 0.78557 0.0
Cd186 Cd 0.03477 0.26377 0.80852 0.0
C187 C 0.9571 0.3036 0.76778 0.0
O188 O 0.0265 0.28047 0.88221 0.0
O189 O -0.00238 0.2299 0.86288 0.0
O190 O 0.09759 0.24048 0.80842 0.0
C191 C 0.00514 0.25338 0.89219 0.0
O192 O 0.957 0.32422 0.80116 0.0
C193 C 0.091 0.21005 0.78839 0.0
O194 O -0.01666 0.28013 0.76039 0.0
O195 O 0.05749 0.20437 0.77654 0.0
C196 C 0.3526 0.8653 0.14843 0.0
O197 O 0.36709 0.88452 0.11842 0.0
Cd198 Cd 0.33369 0.93461 0.08296 0.0
O199 O 0.31817 0.86893 0.15771 0.0
Cd200 Cd 0.25995 0.90048 0.13482 0.0
C201 C 0.30061 -0.02145 0.17517 0.0
O202 O 0.27638 0.9084 0.06098 0.0
O203 O 0.2271 0.93872 0.0806 0.0
O204 O 0.23533 0.83747 0.13523 0.0
C205 C 0.24999 0.93053 0.05113 0.0
O206 O 0.32085 -0.02172 0.14167 0.0
C207 C 0.20543 0.84507 0.15522 0.0
O208 O 0.27707 0.95235 0.18275 0.0
O209 O 0.20075 0.87916 0.16699 0.0
C210 C 0.86216 0.58306 0.79468 0.0
O211 O 0.8813 0.56855 0.82465 0.0
Cd212 Cd 0.9302 0.60317 0.86013 0.0
O213 O 0.86524 0.618 0.78558 0.0
Cd214 Cd 0.89524 0.67743 0.80854 0.0
C215 C -0.02697 0.63766 0.76796 0.0
O216 O 0.90341 0.66079 0.88228 0.0
O217 O 0.93234 0.71133 0.86279 0.0
O218 O 0.83244 0.70077 0.80843 0.0
C219 C 0.92477 0.68789 0.89217 0.0
O220 O -0.02693 0.61705 0.80137 0.0
C221 C 0.83907 0.73119 0.78837 0.0
O222 O 0.94678 0.66111 0.7605 0.0
O223 O 0.87259 0.73684 0.77649 0.0
C224 C 0.28903 0.3246 0.26874 0.0
C225 C 0.2526 0.3153 0.2817 0.0
H226 H 0.34535 0.30519 0.26038 0.0
C227 C 0.24436 0.27767 0.29229 0.0
H228 H 0.29615 0.35338 0.26032 0.0
C229 C 0.27228 0.25033 0.29233 0.0
C230 C 0.30916 0.2599 0.28179 0.0
H231 H 0.21649 0.26947 0.30197 0.0
H232 H 0.26509 0.22187 0.30203 0.0
C233 C 0.31715 0.29705 0.26879 0.0
C234 C 0.27235 0.69119 0.65047 0.0
C235 C 0.30923 0.6817 0.66112 0.0
H236 H 0.21663 0.67195 0.64077 0.0
C237 C 0.31727 0.64458 0.67421 0.0
H238 H 0.26512 0.71963 0.6407 0.0
C239 C 0.28922 0.61699 0.67426 0.0
C240 C 0.2528 0.62621 0.66121 0.0
H241 H 0.34546 0.63649 0.6827 0.0
H242 H 0.29639 0.58823 0.68277 0.0
C243 C 0.2445 0.6638 0.65052 0.0
C244 C 0.65712 0.6912 0.2916 0.0
C245 C 0.62019 0.68162 0.28133 0.0
H246 H 0.71292 0.67204 0.30106 0.0
C247 C 0.61213 0.64443 0.26858 0.0
H248 H 0.66436 0.71969 0.30108 0.0
C249 C 0.64023 0.61685 0.26856 0.0
C250 C 0.6767 0.62617 0.28129 0.0
H251 H 0.5839 0.63628 0.26039 0.0
H252 H 0.63306 0.58804 0.26036 0.0
C253 C 0.68501 0.66383 0.29158 0.0
C254 C 0.61309 0.29656 0.67384 0.0
C255 C 0.62112 0.25951 0.6605 0.0
H256 H 0.63398 0.35286 0.6827 0.0
C257 C 0.658 0.25009 0.64969 0.0
H258 H 0.58491 0.30459 0.68245 0.0
C259 C 0.68584 0.27748 0.64984 0.0
C260 C 0.67755 0.315 0.6608 0.0
H261 H 0.66522 0.22171 0.63972 0.0
H262 H 0.7137 0.26939 0.63997 0.0
C263 C 0.64114 0.32415 0.67399 0.0
C264 C 0.78914 0.8241 0.76884 0.0
C265 C 0.75271 0.81488 0.78185 0.0
H266 H 0.84543 0.80461 0.7605 0.0
C267 C 0.74443 0.77729 0.79255 0.0
H268 H 0.79629 0.85286 0.76032 0.0
C269 C 0.77231 0.74991 0.79265 0.0
C270 C 0.8092 0.75941 0.78206 0.0
H271 H 0.71655 0.76915 0.80226 0.0
H272 H 0.76509 0.72148 0.80244 0.0
C273 C 0.81723 0.79652 0.76894 0.0
C274 C 0.74438 0.1637 0.15071 0.0
C275 C 0.75268 0.12607 0.16124 0.0
H276 H 0.76501 0.21955 0.14108 0.0
C277 C 0.78911 0.1168 0.17421 0.0
H278 H 0.71651 0.17188 0.14103 0.0
C279 C 0.81718 0.14438 0.17423 0.0
C280 C 0.80913 0.18154 0.16129 0.0
H281 H 0.79628 0.08801 0.18259 0.0
H282 H 0.84538 0.13626 0.18264 0.0
C283 C 0.77224 0.19108 0.15074 0.0
C284 C 0.1578 0.19144 0.79256 0.0
C285 C 0.12092 0.18188 0.78204 0.0
H286 H 0.21359 0.17229 0.80207 0.0
C287 C 0.11294 0.14477 0.76894 0.0
H288 H 0.16497 0.21987 0.80233 0.0
C289 C 0.14108 0.11724 0.76878 0.0
C290 C 0.1775 0.12651 0.78172 0.0
H291 H 0.08475 0.13664 0.76055 0.0
H292 H 0.13397 0.08847 0.76029 0.0
C293 C 0.18572 0.16411 0.7924 0.0
C294 C 0.14024 0.8249 0.17433 0.0
C295 C 0.17672 0.81566 0.16148 0.0
H296 H 0.08396 0.8054 0.18261 0.0
C297 C 0.18509 0.77803 0.15105 0.0
H298 H 0.13302 0.85369 0.18263 0.0
C299 C 0.15725 0.75062 0.15103 0.0
C300 C 0.12032 0.76014 0.16145 0.0
H301 H 0.213 0.76987 0.14147 0.0
H302 H 0.16454 0.72216 0.14145 0.0
C303 C 0.1122 0.7973 0.17431 0.0
C304 C 0.11136 0.54404 0.24886 0.0
C305 C 0.12094 0.5074 0.23582 0.0
H306 H 0.0879 0.59727 0.23122 0.0
C307 C 0.11733 0.49747 0.19263 0.0
H308 H 0.1139 0.55227 0.28205 0.0
C309 C 0.10149 0.52292 0.1636 0.0
C310 C 0.08996 0.55893 0.17721 0.0
H311 H 0.12424 0.46922 0.18195 0.0
H312 H 0.09695 0.51392 0.13097 0.0
C313 C 0.0965 0.56975 0.21971 0.0
C314 C 0.49184 0.8144 0.751 0.0
C315 C 0.50182 0.81058 0.70787 0.0
H316 H 0.50786 0.83518 0.81264 0.0
C317 C 0.53815 0.81991 0.69501 0.0
H318 H 0.46383 0.80768 0.76155 0.0
C319 C 0.56348 0.8349 0.72422 0.0
C320 C 0.55259 0.84182 0.76662 0.0
H321 H 0.54642 0.81721 0.66187 0.0
H322 H 0.59075 0.84341 0.7128 0.0
C323 C 0.51692 0.83036 0.7801 0.0
C324 C 0.82803 0.41868 0.16341 0.0
C325 C 0.83953 0.38266 0.17704 0.0
H326 H 0.80528 0.47238 0.18174 0.0
C327 C 0.83289 0.37179 0.21954 0.0
H328 H 0.83265 0.42771 0.1308 0.0
C329 C 0.81798 0.39749 0.24866 0.0
C330 C 0.80845 0.43414 0.23561 0.0
H331 H 0.84146 0.34426 0.23105 0.0
H332 H 0.81539 0.38923 0.28185 0.0
C333 C 0.81215 0.4441 0.19243 0.0
C334 C 0.43852 0.12685 0.75067 0.0
C335 C 0.42857 0.13063 0.70753 0.0
H336 H 0.42245 0.10618 0.81238 0.0
C337 C 0.39224 0.1213 0.69471 0.0
H338 H 0.46653 0.13357 0.76118 0.0
C339 C 0.36688 0.10638 0.72399 0.0
C340 C 0.37774 0.09951 0.7664 0.0
H341 H 0.38399 0.12396 0.66157 0.0
H342 H 0.33961 0.09788 0.71261 0.0
C343 C 0.41341 0.11096 0.77983 0.0
C344 C 0.11767 0.44424 0.75101 0.0
C345 C 0.1216 0.43412 0.70791 0.0
H346 H 0.09696 0.42803 0.81262 0.0
C347 C 0.11228 0.39739 0.69503 0.0
H348 H 0.12437 0.47258 0.76155 0.0
C349 C 0.09734 0.37176 0.72422 0.0
C350 C 0.09046 0.38277 0.76661 0.0
H351 H 0.11504 0.38901 0.6619 0.0
H352 H 0.08894 0.34416 0.71281 0.0
C353 C 0.10176 0.41888 0.78009 0.0
C354 C 0.41236 0.83058 0.16286 0.0
C355 C 0.37678 0.84227 0.17642 0.0
H356 H 0.46541 0.80768 0.18131 0.0
C357 C 0.36597 0.83551 0.21889 0.0
H358 H 0.42135 0.83527 0.13027 0.0
C359 C 0.39132 0.82046 0.24808 0.0
C360 C 0.42757 0.8109 0.23512 0.0
H361 H 0.33877 0.84419 0.23036 0.0
H362 H 0.38312 0.81788 0.28125 0.0
C363 C 0.43745 0.81456 0.19194 0.0
C364 C 0.81792 0.54389 0.69504 0.0
C365 C 0.80862 0.50712 0.7079 0.0
H366 H 0.84118 0.59711 0.71285 0.0
C367 C 0.81254 0.49695 0.751 0.0
H368 H 0.81515 0.5523 0.66193 0.0
C369 C 0.82841 0.52229 0.78008 0.0
C370 C 0.83968 0.55843 0.76662 0.0
H371 H 0.80587 0.46859 0.76153 0.0
H372 H 0.8332 0.5131 0.81261 0.0
C373 C 0.83281 0.56949 0.72425 0.0
C374 C 0.56341 0.10628 0.21849 0.0
C375 C 0.55258 0.09947 0.17607 0.0
H376 H 0.54629 0.1239 0.28087 0.0
C377 C 0.51694 0.11104 0.16259 0.0
H378 H 0.59065 0.09769 0.2299 0.0
C379 C 0.49184 0.12701 0.19171 0.0
C380 C 0.50176 0.13073 0.23485 0.0
H381 H 0.50793 0.10631 0.13003 0.0
H382 H 0.46386 0.13381 0.18115 0.0
C383 C 0.53806 0.12128 0.24772 0.0
C384 C 0.61203 0.0437 0.74804 0.0
C385 C 0.6214 0.00697 0.73514 0.0
H386 H 0.58877 0.09698 0.73023 0.0
C387 C 0.61762 -0.0031 0.69201 0.0
H388 H 0.61469 0.05205 0.78118 0.0
C389 C 0.60182 0.02231 0.66292 0.0
C390 C 0.59048 0.05842 0.67639 0.0
H391 H 0.62436 0.96856 0.68145 0.0
H392 H 0.59713 0.0132 0.63035 0.0
C393 C 0.59721 0.06938 0.71882 0.0
C394 C 0.01677 0.33046 0.28033 0.0
C395 C 0.0524 0.34202 0.26681 0.0
H396 H 0.9637 0.30769 0.26183 0.0
C397 C 0.06325 0.33519 0.22438 0.0
H398 H 0.00774 0.33521 0.31289 0.0
C399 C 0.03791 0.32018 0.19518 0.0
C400 C 0.00162 0.31074 0.20809 0.0
H401 H 0.09049 0.34377 0.21294 0.0
H402 H 0.04615 0.31755 0.16202 0.0
C403 C -0.00831 0.31448 0.25124 0.0
C404 C 0.31271 0.94437 0.69233 0.0
C405 C 0.30896 0.93437 0.7355 0.0
H406 H 0.3332 0.92798 0.63069 0.0
C407 C 0.31838 0.89767 0.74851 0.0
H408 H 0.30593 -0.02733 0.68168 0.0
C409 C 0.33323 0.87196 0.71935 0.0
C410 C 0.33992 0.88285 0.67688 0.0
H411 H 0.31574 0.88938 0.78168 0.0
H412 H 0.34171 0.8444 0.73084 0.0
C413 C 0.32854 0.91893 0.66329 0.0
C414 C 0.91246 0.61122 0.28009 0.0
C415 C 0.87689 0.59958 0.26652 0.0
H416 H -0.03447 0.63407 0.26166 0.0
C417 C 0.86613 0.60636 0.22406 0.0
H418 H 0.92141 0.60651 0.31269 0.0
C419 C 0.89151 0.62139 0.19488 0.0
C420 C 0.92776 0.6309 0.20784 0.0
H421 H 0.83894 0.59772 0.21259 0.0
H422 H 0.88336 0.62398 0.16171 0.0
C423 C 0.93758 0.62722 0.25103 0.0
C424 C 0.61139 0.89746 0.19421 0.0
C425 C 0.62092 0.93411 0.20721 0.0
H426 H 0.58789 0.84427 0.21187 0.0
C427 C 0.61716 0.9441 0.25037 0.0
H428 H 0.61403 0.88919 0.16104 0.0
C429 C 0.60124 0.91871 0.2794 0.0
C430 C 0.58975 0.88269 0.26582 0.0
H431 H 0.62403 -0.02763 0.26102 0.0
H432 H 0.59658 0.92776 0.312 0.0
C433 C 0.59644 0.8718 0.22335 0.0
C434 C 0.86672 0.33534 0.71883 0.0
C435 C 0.87763 0.34225 0.67643 0.0
H436 H 0.88376 0.31766 0.78122 0.0
C437 C 0.91333 0.33081 0.663 0.0
H438 H 0.83943 0.34384 0.73021 0.0
C439 C 0.9384 0.31485 0.69214 0.0
C440 C 0.92839 0.31102 0.73527 0.0
H441 H 0.9224 0.33563 0.63046 0.0
H442 H -0.03357 0.30814 0.68163 0.0
C443 C 0.89205 0.32036 0.74809 0.0
C444 C 0.33284 0.0699 0.22367 0.0
C445 C 0.33959 0.05894 0.26611 0.0
H446 H 0.3152 0.05261 0.16139 0.0
C447 C 0.32813 0.0229 0.27969 0.0
H448 H 0.34137 0.09745 0.21219 0.0
C449 C 0.31218 -0.00245 0.25068 0.0
C450 C 0.30838 0.0076 0.20754 0.0
H451 H 0.33282 0.0138 0.31226 0.0
H452 H 0.30535 0.96926 0.26132 0.0
C453 C 0.31787 0.04428 0.19454 0.0
C454 C 0.06347 0.60586 0.71913 0.0
C455 C 0.05266 0.5991 0.67669 0.0
H456 H 0.04631 0.62339 0.78153 0.0
C457 C 0.01702 0.61067 0.66321 0.0
H458 H 0.09071 0.59726 0.73054 0.0
C459 C -0.00809 0.62659 0.69234 0.0
C460 C 0.00181 0.63026 0.73549 0.0
H461 H 0.00803 0.60598 0.63063 0.0
H462 H 0.96392 0.63341 0.68177 0.0
C463 C 0.0381 0.6208 0.74837 0.0
C464 C 0.14617 0.48088 0.49071 0.0
C465 C 0.17998 0.49086 0.51025 0.0
H466 H 0.11964 0.45266 0.43853 0.0
C467 C 0.21379 0.48036 0.49094 0.0
H468 H 0.11974 0.48842 0.50515 0.0
C469 C 0.21373 0.46079 0.45213 0.0
C470 C 0.17987 0.45028 0.43304 0.0
H471 H 0.24019 0.48777 0.50554 0.0
H472 H 0.24008 0.45342 0.43736 0.0
C473 C 0.14612 0.46021 0.45281 0.0
C474 C 0.47504 0.78709 0.45242 0.0
C475 C 0.48483 0.75288 0.43274 0.0
H476 H 0.44725 0.81391 0.50473 0.0
C477 C 0.47444 0.71862 0.45198 0.0
H478 H 0.4825 0.81388 0.43806 0.0
C479 C 0.45513 0.71864 0.49083 0.0
C480 C 0.4448 0.75291 0.51006 0.0
H481 H 0.48171 0.69191 0.43729 0.0
H482 H 0.44781 0.69194 0.50552 0.0
C483 C 0.45467 0.78711 0.49037 0.0
C484 C 0.71597 0.48066 0.45223 0.0
C485 C 0.74975 0.49127 0.43294 0.0
H486 H 0.68977 0.45361 0.50581 0.0
C487 C 0.78359 0.48144 0.45254 0.0
H488 H 0.68955 0.48795 0.43759 0.0
C489 C 0.78371 0.46078 0.49047 0.0
C490 C 0.75 0.4507 0.5102 0.0
H491 H 0.81 0.48908 0.43812 0.0
H492 H 0.81022 0.45332 0.50478 0.0
C493 C 0.71609 0.46109 0.49106 0.0
C494 C 0.45491 0.15429 0.45221 0.0
C495 C 0.44504 0.18852 0.4326 0.0
H496 H 0.48287 0.12742 0.50436 0.0
C497 C 0.4555 0.22276 0.45178 0.0
H498 H 0.4474 0.12751 0.43789 0.0
C499 C 0.47494 0.2227 0.49052 0.0
C500 C 0.48534 0.18841 0.50968 0.0
H501 H 0.44818 0.24948 0.43714 0.0
H502 H 0.48231 0.24939 0.50518 0.0
C503 C 0.47541 0.15424 0.49005 0.0
C504 C 0.7138 -0.01967 -0.00928 0.0
C505 C 0.67998 -0.00907 0.00992 0.0
H506 H 0.74015 0.95326 0.93725 0.0
C507 C 0.64619 -0.01896 -0.00972 0.0
H508 H 0.74019 -0.01234 0.0054 0.0
C509 C 0.64616 0.96034 0.9524 0.0
C510 C 0.67993 0.95028 0.93275 0.0
H511 H 0.61974 -0.01134 0.00463 0.0
H512 H 0.6197 0.95284 0.93805 0.0
C513 C 0.71378 0.96073 0.95193 0.0
C514 C -0.02535 0.21867 0.95236 0.0
C515 C -0.01499 0.25295 0.93315 0.0
H516 H 0.94798 0.19193 0.00584 0.0
C517 C -0.02492 0.28714 0.95279 0.0
H518 H -0.01798 0.19197 0.9377 0.0
C519 C 0.95463 0.28711 -0.00931 0.0
C520 C 0.94481 0.25289 0.01035 0.0
H521 H -0.01749 0.31394 0.93844 0.0
H522 H 0.94712 0.3139 0.00502 0.0
C523 C 0.95526 0.21864 -0.00884 0.0
C524 C 0.28374 -0.01863 0.95263 0.0
C525 C 0.25003 -0.00861 0.93287 0.0
H526 H 0.31001 0.95311 0.00501 0.0
C527 C 0.21612 -0.01902 0.95199 0.0
H528 H 0.31025 -0.01115 0.93833 0.0
C529 C 0.21598 0.96142 -0.00917 0.0
C530 C 0.24975 0.95084 0.01014 0.0
H531 H 0.1898 -0.01158 0.93722 0.0
H532 H 0.18956 0.9541 0.00545 0.0
C533 C 0.2836 0.96072 -0.00943 0.0
C534 C 0.95481 0.65425 0.95286 0.0
C535 C 0.94486 0.6884 0.93313 0.0
H536 H -0.01722 0.62759 0.00513 0.0
C537 C 0.95517 0.72272 0.95223 0.0
H538 H 0.94741 0.62742 0.93859 0.0
C539 C -0.02545 0.72282 -0.00899 0.0
C540 C -0.01498 0.68861 0.01029 0.0
H541 H 0.94778 0.74939 0.93749 0.0
H542 H -0.01821 0.74957 0.0056 0.0
C543 C -0.02475 0.65435 -0.00927 0.0
loop_
_geom_bond_atom_site_label_1
_geom_bond_atom_site_label_2
_geom_bond_distance
_geom_bond_site_symmetry_2
_ccdc_geom_bond_type
C0 O1 1.306 . S
C0 O3 1.160 . S
O1 C0 1.306 . S
O1 Cd2 2.228 . S
Cd2 O1 2.228 . S
Cd2 O6 2.273 . S
Cd2 O10 2.277 . S
O3 C0 1.160 . S
O3 Cd4 2.203 . S
Cd4 O3 2.203 . S
Cd4 O6 2.411 . S
Cd4 O7 2.333 . S
Cd4 O8 2.352 . S
Cd4 O12 2.277 . S
Cd4 O13 2.356 . S
C5 O10 1.209 . S
C5 O12 1.226 . S
O6 Cd2 2.273 . S
O6 Cd4 2.411 . S
O6 C9 1.320 . S
O7 Cd4 2.333 . S
O7 C9 1.214 . S
O8 Cd4 2.352 . S
O8 C11 1.258 . S
C9 O6 1.320 . S
C9 O7 1.214 . S
O10 Cd2 2.277 . S
O10 C5 1.209 . S
C11 O8 1.258 . S
C11 O13 1.282 . S
O12 Cd4 2.277 . S
O12 C5 1.226 . S
O13 Cd4 2.356 . S
O13 C11 1.282 . S
C14 O15 1.306 . S
C14 O17 1.160 . S
O15 C14 1.306 . S
O15 Cd16 2.228 . S
Cd16 O15 2.228 . S
Cd16 O20 2.273 . S
Cd16 O24 2.277 . S
O17 C14 1.160 . S
O17 Cd18 2.203 . S
Cd18 O17 2.203 . S
Cd18 O20 2.411 . S
Cd18 O21 2.333 . S
Cd18 O22 2.352 . S
Cd18 O26 2.277 . S
Cd18 O27 2.356 . S
C19 O24 1.209 . S
C19 O26 1.226 . S
O20 Cd16 2.273 . S
O20 Cd18 2.411 . S
O20 C23 1.320 . S
O21 Cd18 2.333 . S
O21 C23 1.214 . S
O22 Cd18 2.352 . S
O22 C25 1.258 . S
C23 O20 1.320 . S
C23 O21 1.214 . S
O24 Cd16 2.277 . S
O24 C19 1.209 . S
C25 O22 1.258 . S
C25 O27 1.282 . S
O26 Cd18 2.277 . S
O26 C19 1.226 . S
O27 Cd18 2.356 . S
O27 C25 1.282 . S
C28 O29 1.306 . S
C28 O31 1.160 . S
O29 C28 1.306 . S
O29 Cd30 2.228 . S
Cd30 O29 2.228 . S
Cd30 O34 2.273 . S
Cd30 O38 2.277 . S
O31 C28 1.160 . S
O31 Cd32 2.203 . S
Cd32 O31 2.203 . S
Cd32 O34 2.411 . S
Cd32 O35 2.333 . S
Cd32 O36 2.352 . S
Cd32 O40 2.277 . S
Cd32 O41 2.356 . S
C33 O38 1.209 . S
C33 O40 1.226 . S
O34 Cd30 2.273 . S
O34 Cd32 2.411 . S
O34 C37 1.320 . S
O35 Cd32 2.333 . S
O35 C37 1.214 . S
O36 Cd32 2.352 . S
O36 C39 1.258 . S
C37 O34 1.320 . S
C37 O35 1.214 . S
O38 Cd30 2.277 . S
O38 C33 1.209 . S
C39 O36 1.258 . S
C39 O41 1.282 . S
O40 Cd32 2.277 . S
O40 C33 1.226 . S
O41 Cd32 2.356 . S
O41 C39 1.282 . S
C42 O43 1.306 . S
C42 O45 1.160 . S
O43 C42 1.306 . S
O43 Cd44 2.228 . S
Cd44 O43 2.228 . S
Cd44 O48 2.273 . S
Cd44 O52 2.277 . S
O45 C42 1.160 . S
O45 Cd46 2.203 . S
Cd46 O45 2.203 . S
Cd46 O48 2.411 . S
Cd46 O49 2.333 . S
Cd46 O50 2.352 . S
Cd46 O54 2.277 . S
Cd46 O55 2.356 . S
C47 O52 1.209 . S
C47 O54 1.226 . S
O48 Cd44 2.273 . S
O48 Cd46 2.411 . S
O48 C51 1.320 . S
O49 Cd46 2.333 . S
O49 C51 1.214 . S
O50 Cd46 2.352 . S
O50 C53 1.258 . S
C51 O48 1.320 . S
C51 O49 1.214 . S
O52 Cd44 2.277 . S
O52 C47 1.209 . S
C53 O50 1.258 . S
C53 O55 1.282 . S
O54 Cd46 2.277 . S
O54 C47 1.226 . S
O55 Cd46 2.356 . S
O55 C53 1.282 . S
C56 O57 1.306 . S
C56 O59 1.160 . S
O57 C56 1.306 . S
O57 Cd58 2.228 . S
Cd58 O57 2.228 . S
Cd58 O62 2.273 . S
Cd58 O66 2.277 . S
O59 C56 1.160 . S
O59 Cd60 2.203 . S
Cd60 O59 2.203 . S
Cd60 O62 2.411 . S
Cd60 O63 2.333 . S
Cd60 O64 2.352 . S
Cd60 O68 2.277 . S
Cd60 O69 2.356 . S
C61 O66 1.209 . S
C61 O68 1.226 . S
O62 Cd58 2.273 . S
O62 Cd60 2.411 . S
O62 C65 1.320 . S
O63 Cd60 2.333 . S
O63 C65 1.214 . S
O64 Cd60 2.352 . S
O64 C67 1.258 . S
C65 O62 1.320 . S
C65 O63 1.214 . S
O66 Cd58 2.277 . S
O66 C61 1.209 . S
C67 O64 1.258 . S
C67 O69 1.282 . S
O68 Cd60 2.277 . S
O68 C61 1.226 . S
O69 Cd60 2.356 . S
O69 C67 1.282 . S
C70 O71 1.306 . S
C70 O73 1.160 . S
O71 C70 1.306 . S
O71 Cd72 2.228 . S
Cd72 O71 2.228 . S
Cd72 O76 2.273 . S
Cd72 O80 2.277 . S
O73 C70 1.160 . S
O73 Cd74 2.203 . S
Cd74 O73 2.203 . S
Cd74 O76 2.411 . S
Cd74 O77 2.333 . S
Cd74 O78 2.352 . S
Cd74 O82 2.277 . S
Cd74 O83 2.356 . S
C75 O80 1.209 . S
C75 O82 1.226 . S
O76 Cd72 2.273 . S
O76 Cd74 2.411 . S
O76 C79 1.320 . S
O77 Cd74 2.333 . S
O77 C79 1.214 . S
O78 Cd74 2.352 . S
O78 C81 1.258 . S
C79 O76 1.320 . S
C79 O77 1.214 . S
O80 Cd72 2.277 . S
O80 C75 1.209 . S
C81 O78 1.258 . S
C81 O83 1.282 . S
O82 Cd74 2.277 . S
O82 C75 1.226 . S
O83 Cd74 2.356 . S
O83 C81 1.282 . S
C84 O85 1.306 . S
C84 O87 1.160 . S
O85 C84 1.306 . S
O85 Cd86 2.228 . S
Cd86 O85 2.228 . S
Cd86 O90 2.273 . S
Cd86 O94 2.277 . S
O87 C84 1.160 . S
O87 Cd88 2.203 . S
Cd88 O87 2.203 . S
Cd88 O90 2.411 . S
Cd88 O91 2.333 . S
Cd88 O92 2.352 . S
Cd88 O96 2.277 . S
Cd88 O97 2.356 . S
C89 O94 1.209 . S
C89 O96 1.226 . S
O90 Cd86 2.273 . S
O90 Cd88 2.411 . S
O90 C93 1.320 . S
O91 Cd88 2.333 . S
O91 C93 1.214 . S
O92 Cd88 2.352 . S
O92 C95 1.258 . S
C93 O90 1.320 . S
C93 O91 1.214 . S
O94 Cd86 2.277 . S
O94 C89 1.209 . S
C95 O92 1.258 . S
C95 O97 1.282 . S
O96 Cd88 2.277 . S
O96 C89 1.226 . S
O97 Cd88 2.356 . S
O97 C95 1.282 . S
C98 O99 1.306 . S
C98 O101 1.160 . S
O99 C98 1.306 . S
O99 Cd100 2.228 . S
Cd100 O99 2.228 . S
Cd100 O104 2.273 . S
Cd100 O108 2.277 . S
O101 C98 1.160 . S
O101 Cd102 2.203 . S
Cd102 O101 2.203 . S
Cd102 O104 2.411 . S
Cd102 O105 2.333 . S
Cd102 O106 2.352 . S
Cd102 O110 2.277 . S
Cd102 O111 2.356 . S
C103 O108 1.209 . S
C103 O110 1.226 . S
O104 Cd100 2.273 . S
O104 Cd102 2.411 . S
O104 C107 1.320 . S
O105 Cd102 2.333 . S
O105 C107 1.214 . S
O106 Cd102 2.352 . S
O106 C109 1.258 . S
C107 O104 1.320 . S
C107 O105 1.214 . S
O108 Cd100 2.277 . S
O108 C103 1.209 . S
C109 O106 1.258 . S
C109 O111 1.282 . S
O110 Cd102 2.277 . S
O110 C103 1.226 . S
O111 Cd102 2.356 . S
O111 C109 1.282 . S
C112 O113 1.306 . S
C112 O115 1.160 . S
O113 C112 1.306 . S
O113 Cd114 2.228 . S
Cd114 O113 2.228 . S
Cd114 O118 2.273 . S
Cd114 O122 2.277 1_565 S
O115 C112 1.160 . S
O115 Cd116 2.203 . S
Cd116 O115 2.203 . S
Cd116 O118 2.411 . S
Cd116 O119 2.333 . S
Cd116 O120 2.352 . S
Cd116 O124 2.277 1_565 S
Cd116 O125 2.356 . S
C117 O122 1.209 . S
C117 O124 1.226 . S
O118 Cd114 2.273 . S
O118 Cd116 2.411 . S
O118 C121 1.320 . S
O119 Cd116 2.333 . S
O119 C121 1.214 . S
O120 Cd116 2.352 . S
O120 C123 1.258 . S
C121 O118 1.320 . S
C121 O119 1.214 . S
O122 Cd114 2.277 1_545 S
O122 C117 1.209 . S
C123 O120 1.258 . S
C123 O125 1.282 . S
O124 Cd116 2.277 1_545 S
O124 C117 1.226 . S
O125 Cd116 2.356 . S
O125 C123 1.282 . S
C126 O127 1.306 . S
C126 O129 1.160 . S
O127 C126 1.306 . S
O127 Cd128 2.228 . S
Cd128 O127 2.228 . S
Cd128 O132 2.273 . S
Cd128 O136 2.277 1_655 S
O129 C126 1.160 . S
O129 Cd130 2.203 . S
Cd130 O129 2.203 . S
Cd130 O132 2.411 . S
Cd130 O133 2.333 . S
Cd130 O134 2.352 . S
Cd130 O138 2.277 1_655 S
Cd130 O139 2.356 . S
C131 O136 1.209 . S
C131 O138 1.226 . S
O132 Cd128 2.273 . S
O132 Cd130 2.411 . S
O132 C135 1.320 . S
O133 Cd130 2.333 . S
O133 C135 1.214 . S
O134 Cd130 2.352 . S
O134 C137 1.258 . S
C135 O132 1.320 . S
C135 O133 1.214 . S
O136 Cd128 2.277 1_455 S
O136 C131 1.209 . S
C137 O134 1.258 . S
C137 O139 1.282 . S
O138 Cd130 2.277 1_455 S
O138 C131 1.226 . S
O139 Cd130 2.356 . S
O139 C137 1.282 . S
C140 O141 1.306 . S
C140 O143 1.160 . S
O141 C140 1.306 . S
O141 Cd142 2.228 . S
Cd142 O141 2.228 . S
Cd142 O146 2.273 . S
Cd142 O150 2.277 1_545 S
O143 C140 1.160 . S
O143 Cd144 2.203 . S
Cd144 O143 2.203 . S
Cd144 O146 2.411 . S
Cd144 O147 2.333 . S
Cd144 O148 2.352 . S
Cd144 O152 2.277 1_545 S
Cd144 O153 2.356 . S
C145 O150 1.209 . S
C145 O152 1.226 . S
O146 Cd142 2.273 . S
O146 Cd144 2.411 . S
O146 C149 1.320 . S
O147 Cd144 2.333 . S
O147 C149 1.214 . S
O148 Cd144 2.352 . S
O148 C151 1.258 . S
C149 O146 1.320 . S
C149 O147 1.214 . S
O150 Cd142 2.277 1_565 S
O150 C145 1.209 . S
C151 O148 1.258 . S
C151 O153 1.282 . S
O152 Cd144 2.277 1_565 S
O152 C145 1.226 . S
O153 Cd144 2.356 . S
O153 C151 1.282 . S
C154 O155 1.306 . S
C154 O157 1.160 . S
O155 C154 1.306 . S
O155 Cd156 2.228 . S
Cd156 O155 2.228 . S
Cd156 O160 2.273 . S
Cd156 O164 2.277 1_455 S
O157 C154 1.160 . S
O157 Cd158 2.203 . S
Cd158 O157 2.203 . S
Cd158 O160 2.411 . S
Cd158 O161 2.333 . S
Cd158 O162 2.352 . S
Cd158 O166 2.277 1_455 S
Cd158 O167 2.356 . S
C159 O164 1.209 . S
C159 O166 1.226 . S
O160 Cd156 2.273 . S
O160 Cd158 2.411 . S
O160 C163 1.320 . S
O161 Cd158 2.333 . S
O161 C163 1.214 . S
O162 Cd158 2.352 . S
O162 C165 1.258 . S
C163 O160 1.320 . S
C163 O161 1.214 . S
O164 Cd156 2.277 1_655 S
O164 C159 1.209 . S
C165 O162 1.258 . S
C165 O167 1.282 . S
O166 Cd158 2.277 1_655 S
O166 C159 1.226 . S
O167 Cd158 2.356 . S
O167 C165 1.282 . S
C168 O169 1.306 . S
C168 O171 1.160 . S
O169 C168 1.306 . S
O169 Cd170 2.228 . S
Cd170 O169 2.228 . S
Cd170 O174 2.273 . S
Cd170 O178 2.277 1_545 S
O171 C168 1.160 . S
O171 Cd172 2.203 . S
Cd172 O171 2.203 . S
Cd172 O174 2.411 . S
Cd172 O175 2.333 . S
Cd172 O176 2.352 . S
Cd172 O180 2.277 1_545 S
Cd172 O181 2.356 . S
C173 O178 1.209 . S
C173 O180 1.226 . S
O174 Cd170 2.273 . S
O174 Cd172 2.411 . S
O174 C177 1.320 . S
O175 Cd172 2.333 . S
O175 C177 1.214 . S
O176 Cd172 2.352 . S
O176 C179 1.258 . S
C177 O174 1.320 . S
C177 O175 1.214 . S
O178 Cd170 2.277 1_565 S
O178 C173 1.209 . S
C179 O176 1.258 . S
C179 O181 1.282 . S
O180 Cd172 2.277 1_565 S
O180 C173 1.226 . S
O181 Cd172 2.356 . S
O181 C179 1.282 . S
C182 O183 1.306 . S
C182 O185 1.160 . S
O183 C182 1.306 . S
O183 Cd184 2.228 . S
Cd184 O183 2.228 . S
Cd184 O188 2.273 . S
Cd184 O192 2.277 1_455 S
O185 C182 1.160 . S
O185 Cd186 2.203 . S
Cd186 O185 2.203 . S
Cd186 O188 2.411 . S
Cd186 O189 2.333 . S
Cd186 O190 2.352 . S
Cd186 O194 2.277 1_455 S
Cd186 O195 2.356 . S
C187 O192 1.209 . S
C187 O194 1.226 . S
O188 Cd184 2.273 . S
O188 Cd186 2.411 . S
O188 C191 1.320 . S
O189 Cd186 2.333 . S
O189 C191 1.214 . S
O190 Cd186 2.352 . S
O190 C193 1.258 . S
C191 O188 1.320 . S
C191 O189 1.214 . S
O192 Cd184 2.277 1_655 S
O192 C187 1.209 . S
C193 O190 1.258 . S
C193 O195 1.282 . S
O194 Cd186 2.277 1_655 S
O194 C187 1.226 . S
O195 Cd186 2.356 . S
O195 C193 1.282 . S
C196 O197 1.306 . S
C196 O199 1.160 . S
O197 C196 1.306 . S
O197 Cd198 2.228 . S
Cd198 O197 2.228 . S
Cd198 O202 2.273 . S
Cd198 O206 2.277 1_565 S
O199 C196 1.160 . S
O199 Cd200 2.203 . S
Cd200 O199 2.203 . S
Cd200 O202 2.411 . S
Cd200 O203 2.333 . S
Cd200 O204 2.352 . S
Cd200 O208 2.277 1_565 S
Cd200 O209 2.356 . S
C201 O206 1.209 . S
C201 O208 1.226 . S
O202 Cd198 2.273 . S
O202 Cd200 2.411 . S
O202 C205 1.320 . S
O203 Cd200 2.333 . S
O203 C205 1.214 . S
O204 Cd200 2.352 . S
O204 C207 1.258 . S
C205 O202 1.320 . S
C205 O203 1.214 . S
O206 Cd198 2.277 1_545 S
O206 C201 1.209 . S
C207 O204 1.258 . S
C207 O209 1.282 . S
O208 Cd200 2.277 1_545 S
O208 C201 1.226 . S
O209 Cd200 2.356 . S
O209 C207 1.282 . S
C210 O211 1.306 . S
C210 O213 1.160 . S
O211 C210 1.306 . S
O211 Cd212 2.228 . S
Cd212 O211 2.228 . S
Cd212 O216 2.273 . S
Cd212 O220 2.277 1_655 S
O213 C210 1.160 . S
O213 Cd214 2.203 . S
Cd214 O213 2.203 . S
Cd214 O216 2.411 . S
Cd214 O217 2.333 . S
Cd214 O218 2.352 . S
Cd214 O222 2.277 1_655 S
Cd214 O223 2.356 . S
C215 O220 1.209 . S
C215 O222 1.226 . S
O216 Cd212 2.273 . S
O216 Cd214 2.411 . S
O216 C219 1.320 . S
O217 Cd214 2.333 . S
O217 C219 1.214 . S
O218 Cd214 2.352 . S
O218 C221 1.258 . S
C219 O216 1.320 . S
C219 O217 1.214 . S
O220 Cd212 2.277 1_455 S
O220 C215 1.209 . S
C221 O218 1.258 . S
C221 O223 1.282 . S
O222 Cd214 2.277 1_455 S
O222 C215 1.226 . S
O223 Cd214 2.356 . S
O223 C221 1.282 . S
C224 C225 1.387 . S
C224 H228 0.950 . S
C224 C233 1.390 . S
C225 C224 1.387 . S
C225 C227 1.387 . S
H226 C233 0.950 . S
C227 C225 1.387 . S
C227 C229 1.390 . S
C227 H231 0.950 . S
H228 C224 0.950 . S
C229 C227 1.390 . S
C229 C230 1.387 . S
C229 H232 0.950 . S
C230 C229 1.387 . S
C230 C233 1.387 . S
H231 C227 0.950 . S
H232 C229 0.950 . S
C233 C224 1.390 . S
C233 H226 0.950 . S
C233 C230 1.387 . S
C234 C235 1.387 . S
C234 H238 0.950 . S
C234 C243 1.390 . S
C235 C234 1.387 . S
C235 C237 1.387 . S
H236 C243 0.950 . S
C237 C235 1.387 . S
C237 C239 1.390 . S
C237 H241 0.950 . S
H238 C234 0.950 . S
C239 C237 1.390 . S
C239 C240 1.387 . S
C239 H242 0.950 . S
C240 C239 1.387 . S
C240 C243 1.387 . S
H241 C237 0.950 . S
H242 C239 0.950 . S
C243 C234 1.390 . S
C243 H236 0.950 . S
C243 C240 1.387 . S
C244 C245 1.387 . S
C244 H248 0.950 . S
C244 C253 1.390 . S
C245 C244 1.387 . S
C245 C247 1.387 . S
H246 C253 0.950 . S
C247 C245 1.387 . S
C247 C249 1.390 . S
C247 H251 0.950 . S
H248 C244 0.950 . S
C249 C247 1.390 . S
C249 C250 1.387 . S
C249 H252 0.950 . S
C250 C249 1.387 . S
C250 C253 1.387 . S
H251 C247 0.950 . S
H252 C249 0.950 . S
C253 C244 1.390 . S
C253 H246 0.950 . S
C253 C250 1.387 . S
C254 C255 1.387 . S
C254 H258 0.950 . S
C254 C263 1.390 . S
C255 C254 1.387 . S
C255 C257 1.387 . S
H256 C263 0.950 . S
C257 C255 1.387 . S
C257 C259 1.390 . S
C257 H261 0.950 . S
H258 C254 0.950 . S
C259 C257 1.390 . S
C259 C260 1.387 . S
C259 H262 0.950 . S
C260 C259 1.387 . S
C260 C263 1.387 . S
H261 C257 0.950 . S
H262 C259 0.950 . S
C263 C254 1.390 . S
C263 H256 0.950 . S
C263 C260 1.387 . S
C264 C265 1.387 . S
C264 H268 0.950 . S
C264 C273 1.390 . S
C265 C264 1.387 . S
C265 C267 1.387 . S
H266 C273 0.950 . S
C267 C265 1.387 . S
C267 C269 1.390 . S
C267 H271 0.950 . S
H268 C264 0.950 . S
C269 C267 1.390 . S
C269 C270 1.387 . S
C269 H272 0.950 . S
C270 C269 1.387 . S
C270 C273 1.387 . S
H271 C267 0.950 . S
H272 C269 0.950 . S
C273 C264 1.390 . S
C273 H266 0.950 . S
C273 C270 1.387 . S
C274 C275 1.387 . S
C274 H278 0.950 . S
C274 C283 1.390 . S
C275 C274 1.387 . S
C275 C277 1.387 . S
H276 C283 0.950 . S
C277 C275 1.387 . S
C277 C279 1.390 . S
C277 H281 0.950 . S
H278 C274 0.950 . S
C279 C277 1.390 . S
C279 C280 1.387 . S
C279 H282 0.950 . S
C280 C279 1.387 . S
C280 C283 1.387 . S
H281 C277 0.950 . S
H282 C279 0.950 . S
C283 C274 1.390 . S
C283 H276 0.950 . S
C283 C280 1.387 . S
C284 C285 1.387 . S
C284 H288 0.950 . S
C284 C293 1.390 . S
C285 C284 1.387 . S
C285 C287 1.387 . S
H286 C293 0.950 . S
C287 C285 1.387 . S
C287 C289 1.390 . S
C287 H291 0.950 . S
H288 C284 0.950 . S
C289 C287 1.390 . S
C289 C290 1.387 . S
C289 H292 0.950 . S
C290 C289 1.387 . S
C290 C293 1.387 . S
H291 C287 0.950 . S
H292 C289 0.950 . S
C293 C284 1.390 . S
C293 H286 0.950 . S
C293 C290 1.387 . S
C294 C295 1.387 . S
C294 H298 0.950 . S
C294 C303 1.390 . S
C295 C294 1.387 . S
C295 C297 1.387 . S
H296 C303 0.950 . S
C297 C295 1.387 . S
C297 C299 1.390 . S
C297 H301 0.950 . S
H298 C294 0.950 . S
C299 C297 1.390 . S
C299 C300 1.387 . S
C299 H302 0.950 . S
C300 C299 1.387 . S
C300 C303 1.387 . S
H301 C297 0.950 . S
H302 C299 0.950 . S
C303 C294 1.390 . S
C303 H296 0.950 . S
C303 C300 1.387 . S
C304 C305 1.387 . S
C304 H308 0.950 . S
C304 C313 1.390 . S
C305 C304 1.387 . S
C305 C307 1.387 . S
H306 C313 0.950 . S
C307 C305 1.387 . S
C307 C309 1.390 . S
C307 H311 0.950 . S
H308 C304 0.950 . S
C309 C307 1.390 . S
C309 C310 1.387 . S
C309 H312 0.950 . S
C310 C309 1.387 . S
C310 C313 1.387 . S
H311 C307 0.950 . S
H312 C309 0.950 . S
C313 C304 1.390 . S
C313 H306 0.950 . S
C313 C310 1.387 . S
C314 C315 1.387 . S
C314 H318 0.950 . S
C314 C323 1.390 . S
C315 C314 1.387 . S
C315 C317 1.387 . S
H316 C323 0.950 . S
C317 C315 1.387 . S
C317 C319 1.390 . S
C317 H321 0.950 . S
H318 C314 0.950 . S
C319 C317 1.390 . S
C319 C320 1.387 . S
C319 H322 0.950 . S
C320 C319 1.387 . S
C320 C323 1.387 . S
H321 C317 0.950 . S
H322 C319 0.950 . S
C323 C314 1.390 . S
C323 H316 0.950 . S
C323 C320 1.387 . S
C324 C325 1.387 . S
C324 H328 0.950 . S
C324 C333 1.390 . S
C325 C324 1.387 . S
C325 C327 1.387 . S
H326 C333 0.950 . S
C327 C325 1.387 . S
C327 C329 1.390 . S
C327 H331 0.950 . S
H328 C324 0.950 . S
C329 C327 1.390 . S
C329 C330 1.387 . S
C329 H332 0.950 . S
C330 C329 1.387 . S
C330 C333 1.387 . S
H331 C327 0.950 . S
H332 C329 0.950 . S
C333 C324 1.390 . S
C333 H326 0.950 . S
C333 C330 1.387 . S
C334 C335 1.387 . S
C334 H338 0.950 . S
C334 C343 1.390 . S
C335 C334 1.387 . S
C335 C337 1.387 . S
H336 C343 0.950 . S
C337 C335 1.387 . S
C337 C339 1.390 . S
C337 H341 0.950 . S
H338 C334 0.950 . S
C339 C337 1.390 . S
C339 C340 1.387 . S
C339 H342 0.950 . S
C340 C339 1.387 . S
C340 C343 1.387 . S
H341 C337 0.950 . S
H342 C339 0.950 . S
C343 C334 1.390 . S
C343 H336 0.950 . S
C343 C340 1.387 . S
C344 C345 1.387 . S
C344 H348 0.950 . S
C344 C353 1.390 . S
C345 C344 1.387 . S
C345 C347 1.387 . S
H346 C353 0.950 . S
C347 C345 1.387 . S
C347 C349 1.390 . S
C347 H351 0.950 . S
H348 C344 0.950 . S
C349 C347 1.390 . S
C349 C350 1.387 . S
C349 H352 0.950 . S
C350 C349 1.387 . S
C350 C353 1.387 . S
H351 C347 0.950 . S
H352 C349 0.950 . S
C353 C344 1.390 . S
C353 H346 0.950 . S
C353 C350 1.387 . S
C354 C355 1.387 . S
C354 H358 0.950 . S
C354 C363 1.390 . S
C355 C354 1.387 . S
C355 C357 1.387 . S
H356 C363 0.950 . S
C357 C355 1.387 . S
C357 C359 1.390 . S
C357 H361 0.950 . S
H358 C354 0.950 . S
C359 C357 1.390 . S
C359 C360 1.387 . S
C359 H362 0.950 . S
C360 C359 1.387 . S
C360 C363 1.387 . S
H361 C357 0.950 . S
H362 C359 0.950 . S
C363 C354 1.390 . S
C363 H356 0.950 . S
C363 C360 1.387 . S
C364 C365 1.387 . S
C364 H368 0.950 . S
C364 C373 1.390 . S
C365 C364 1.387 . S
C365 C367 1.387 . S
H366 C373 0.950 . S
C367 C365 1.387 . S
C367 C369 1.390 . S
C367 H371 0.950 . S
H368 C364 0.950 . S
C369 C367 1.390 . S
C369 C370 1.387 . S
C369 H372 0.950 . S
C370 C369 1.387 . S
C370 C373 1.387 . S
H371 C367 0.950 . S
H372 C369 0.950 . S
C373 C364 1.390 . S
C373 H366 0.950 . S
C373 C370 1.387 . S
C374 C375 1.387 . S
C374 H378 0.950 . S
C374 C383 1.390 . S
C375 C374 1.387 . S
C375 C377 1.387 . S
H376 C383 0.950 . S
C377 C375 1.387 . S
C377 C379 1.390 . S
C377 H381 0.950 . S
H378 C374 0.950 . S
C379 C377 1.390 . S
C379 C380 1.387 . S
C379 H382 0.950 . S
C380 C379 1.387 . S
C380 C383 1.387 . S
H381 C377 0.950 . S
H382 C379 0.950 . S
C383 C374 1.390 . S
C383 H376 0.950 . S
C383 C380 1.387 . S
C384 C385 1.387 . S
C384 H388 0.950 . S
C384 C393 1.390 . S
C385 C384 1.387 . S
C385 C387 1.387 . S
H386 C393 0.950 . S
C387 C385 1.387 . S
C387 C389 1.390 . S
C387 H391 0.950 . S
H388 C384 0.950 . S
C389 C387 1.390 . S
C389 C390 1.387 . S
C389 H392 0.950 . S
C390 C389 1.387 . S
C390 C393 1.387 . S
H391 C387 0.950 . S
H392 C389 0.950 . S
C393 C384 1.390 . S
C393 H386 0.950 . S
C393 C390 1.387 . S
C394 C395 1.387 . S
C394 H398 0.950 . S
C394 C403 1.390 . S
C395 C394 1.387 . S
C395 C397 1.387 . S
H396 C403 0.950 . S
C397 C395 1.387 . S
C397 C399 1.390 . S
C397 H401 0.950 . S
H398 C394 0.950 . S
C399 C397 1.390 . S
C399 C400 1.387 . S
C399 H402 0.950 . S
C400 C399 1.387 . S
C400 C403 1.387 . S
H401 C397 0.950 . S
H402 C399 0.950 . S
C403 C394 1.390 . S
C403 H396 0.950 . S
C403 C400 1.387 . S
C404 C405 1.387 . S
C404 H408 0.950 . S
C404 C413 1.390 . S
C405 C404 1.387 . S
C405 C407 1.387 . S
H406 C413 0.950 . S
C407 C405 1.387 . S
C407 C409 1.390 . S
C407 H411 0.950 . S
H408 C404 0.950 . S
C409 C407 1.390 . S
C409 C410 1.387 . S
C409 H412 0.950 . S
C410 C409 1.387 . S
C410 C413 1.387 . S
H411 C407 0.950 . S
H412 C409 0.950 . S
C413 C404 1.390 . S
C413 H406 0.950 . S
C413 C410 1.387 . S
C414 C415 1.387 . S
C414 H418 0.950 . S
C414 C423 1.390 . S
C415 C414 1.387 . S
C415 C417 1.387 . S
H416 C423 0.950 . S
C417 C415 1.387 . S
C417 C419 1.390 . S
C417 H421 0.950 . S
H418 C414 0.950 . S
C419 C417 1.390 . S
C419 C420 1.387 . S
C419 H422 0.950 . S
C420 C419 1.387 . S
C420 C423 1.387 . S
H421 C417 0.950 . S
H422 C419 0.950 . S
C423 C414 1.390 . S
C423 H416 0.950 . S
C423 C420 1.387 . S
C424 C425 1.387 . S
C424 H428 0.950 . S
C424 C433 1.390 . S
C425 C424 1.387 . S
C425 C427 1.387 . S
H426 C433 0.950 . S
C427 C425 1.387 . S
C427 C429 1.390 . S
C427 H431 0.950 . S
H428 C424 0.950 . S
C429 C427 1.390 . S
C429 C430 1.387 . S
C429 H432 0.950 . S
C430 C429 1.387 . S
C430 C433 1.387 . S
H431 C427 0.950 . S
H432 C429 0.950 . S
C433 C424 1.390 . S
C433 H426 0.950 . S
C433 C430 1.387 . S
C434 C435 1.387 . S
C434 H438 0.950 . S
C434 C443 1.390 . S
C435 C434 1.387 . S
C435 C437 1.387 . S
H436 C443 0.950 . S
C437 C435 1.387 . S
C437 C439 1.390 . S
C437 H441 0.950 . S
H438 C434 0.950 . S
C439 C437 1.390 . S
C439 C440 1.387 . S
C439 H442 0.950 . S
C440 C439 1.387 . S
C440 C443 1.387 . S
H441 C437 0.950 . S
H442 C439 0.950 . S
C443 C434 1.390 . S
C443 H436 0.950 . S
C443 C440 1.387 . S
C444 C445 1.387 . S
C444 H448 0.950 . S
C444 C453 1.390 . S
C445 C444 1.387 . S
C445 C447 1.387 . S
H446 C453 0.950 . S
C447 C445 1.387 . S
C447 C449 1.390 . S
C447 H451 0.950 . S
H448 C444 0.950 . S
C449 C447 1.390 . S
C449 C450 1.387 . S
C449 H452 0.950 . S
C450 C449 1.387 . S
C450 C453 1.387 . S
H451 C447 0.950 . S
H452 C449 0.950 . S
C453 C444 1.390 . S
C453 H446 0.950 . S
C453 C450 1.387 . S
C454 C455 1.387 . S
C454 H458 0.950 . S
C454 C463 1.390 . S
C455 C454 1.387 . S
C455 C457 1.387 . S
H456 C463 0.950 . S
C457 C455 1.387 . S
C457 C459 1.390 . S
C457 H461 0.950 . S
H458 C454 0.950 . S
C459 C457 1.390 . S
C459 C460 1.387 . S
C459 H462 0.950 . S
C460 C459 1.387 . S
C460 C463 1.387 . S
H461 C457 0.950 . S
H462 C459 0.950 . S
C463 C454 1.390 . S
C463 H456 0.950 . S
C463 C460 1.387 . S
C464 C465 1.387 . S
C464 H468 0.950 . S
C464 C473 1.390 . S
C465 C464 1.387 . S
C465 C467 1.387 . S
H466 C473 0.950 . S
C467 C465 1.387 . S
C467 C469 1.390 . S
C467 H471 0.950 . S
H468 C464 0.950 . S
C469 C467 1.390 . S
C469 C470 1.387 . S
C469 H472 0.950 . S
C470 C469 1.387 . S
C470 C473 1.387 . S
H471 C467 0.950 . S
H472 C469 0.950 . S
C473 C464 1.390 . S
C473 H466 0.950 . S
C473 C470 1.387 . S
C474 C475 1.387 . S
C474 H478 0.950 . S
C474 C483 1.390 . S
C475 C474 1.387 . S
C475 C477 1.387 . S
H476 C483 0.950 . S
C477 C475 1.387 . S
C477 C479 1.390 . S
C477 H481 0.950 . S
H478 C474 0.950 . S
C479 C477 1.390 . S
C479 C480 1.387 . S
C479 H482 0.950 . S
C480 C479 1.387 . S
C480 C483 1.387 . S
H481 C477 0.950 . S
H482 C479 0.950 . S
C483 C474 1.390 . S
C483 H476 0.950 . S
C483 C480 1.387 . S
C484 C485 1.387 . S
C484 H488 0.950 . S
C484 C493 1.390 . S
C485 C484 1.387 . S
C485 C487 1.387 . S
H486 C493 0.950 . S
C487 C485 1.387 . S
C487 C489 1.390 . S
C487 H491 0.950 . S
H488 C484 0.950 . S
C489 C487 1.390 . S
C489 C490 1.387 . S
C489 H492 0.950 . S
C490 C489 1.387 . S
C490 C493 1.387 . S
H491 C487 0.950 . S
H492 C489 0.950 . S
C493 C484 1.390 . S
C493 H486 0.950 . S
C493 C490 1.387 . S
C494 C495 1.387 . S
C494 H498 0.950 . S
C494 C503 1.390 . S
C495 C494 1.387 . S
C495 C497 1.387 . S
H496 C503 0.950 . S
C497 C495 1.387 . S
C497 C499 1.390 . S
C497 H501 0.950 . S
H498 C494 0.950 . S
C499 C497 1.390 . S
C499 C500 1.387 . S
C499 H502 0.950 . S
C500 C499 1.387 . S
C500 C503 1.387 . S
H501 C497 0.950 . S
H502 C499 0.950 . S
C503 C494 1.390 . S
C503 H496 0.950 . S
C503 C500 1.387 . S
C504 C505 1.387 . S
C504 H508 0.950 . S
C504 C513 1.390 1_544 S
C505 C504 1.387 . S
C505 C507 1.387 . S
H506 C513 0.950 . S
C507 C505 1.387 . S
C507 C509 1.390 1_544 S
C507 H511 0.950 . S
H508 C504 0.950 . S
C509 C507 1.390 1_566 S
C509 C510 1.387 . S
C509 H512 0.950 . S
C510 C509 1.387 . S
C510 C513 1.387 . S
H511 C507 0.950 . S
H512 C509 0.950 . S
C513 C504 1.390 1_566 S
C513 H506 0.950 . S
C513 C510 1.387 . S
C514 C515 1.387 . S
C514 H518 0.950 . S
C514 C523 1.390 1_456 S
C515 C514 1.387 . S
C515 C517 1.387 . S
H516 C523 0.950 . S
C517 C515 1.387 . S
C517 C519 1.390 1_456 S
C517 H521 0.950 . S
H518 C514 0.950 . S
C519 C517 1.390 1_654 S
C519 C520 1.387 . S
C519 H522 0.950 . S
C520 C519 1.387 . S
C520 C523 1.387 . S
H521 C517 0.950 . S
H522 C519 0.950 . S
C523 C514 1.390 1_654 S
C523 H516 0.950 . S
C523 C520 1.387 . S
C524 C525 1.387 . S
C524 H528 0.950 . S
C524 C533 1.390 1_546 S
C525 C524 1.387 . S
C525 C527 1.387 . S
H526 C533 0.950 . S
C527 C525 1.387 . S
C527 C529 1.390 1_546 S
C527 H531 0.950 . S
H528 C524 0.950 . S
C529 C527 1.390 1_564 S
C529 C530 1.387 . S
C529 H532 0.950 . S
C530 C529 1.387 . S
C530 C533 1.387 . S
H531 C527 0.950 . S
H532 C529 0.950 . S
C533 C524 1.390 1_564 S
C533 H526 0.950 . S
C533 C530 1.387 . S
C534 C535 1.387 . S
C534 H538 0.950 . S
C534 C543 1.390 1_656 S
C535 C534 1.387 . S
C535 C537 1.387 . S
H536 C543 0.950 . S
C537 C535 1.387 . S
C537 C539 1.390 1_656 S
C537 H541 0.950 . S
H538 C534 0.950 . S
C539 C537 1.390 1_454 S
C539 C540 1.387 . S
C539 H542 0.950 . S
C540 C539 1.387 . S
C540 C543 1.387 . S
H541 C537 0.950 . S
H542 C539 0.950 . S
C543 C534 1.390 1_454 S
C543 H536 0.950 . S
C543 C540 1.387 . S
C225 C11 1.338 . S
C230 C109 1.338 . S
C235 C25 1.338 . S
C240 C67 1.338 . S
C245 C81 1.338 . S
C250 C39 1.338 . S
C255 C53 1.338 . S
C260 C95 1.338 . S
C265 C123 1.338 . S
C270 C221 1.338 . S
C275 C179 1.338 . S
C280 C137 1.338 . S
C285 C193 1.338 . S
C290 C151 1.338 . S
C295 C207 1.338 . S
C300 C165 1.338 . S
C305 C5 1.415 . S
C310 C154 1.442 . S
C315 C19 1.415 . S
C320 C112 1.442 . S
C325 C126 1.441 . S
C330 C33 1.417 . S
C335 C47 1.415 . S
C340 C140 1.442 . S
C345 C61 1.417 . S
C350 C182 1.442 . S
C355 C196 1.442 . S
C360 C75 1.415 . S
C365 C89 1.415 . S
C370 C210 1.442 . S
C375 C168 1.441 . S
C380 C103 1.417 . S
C385 C117 1.415 . S
C390 C42 1.442 . S
C395 C0 1.442 . S
C400 C131 1.416 . S
C405 C145 1.417 . S
C410 C14 1.441 . S
C415 C28 1.442 . S
C420 C159 1.415 . S
C425 C173 1.415 . S
C430 C70 1.442 . S
C435 C84 1.442 . S
C440 C187 1.416 . S
C445 C98 1.442 . S
C450 C201 1.415 . S
C455 C56 1.441 . S
C460 C215 1.417 . S
C465 C65 1.597 . S
C470 C9 1.597 . S
C475 C79 1.597 . S
C480 C23 1.597 . S
C485 C37 1.597 . S
C490 C93 1.597 . S
C495 C107 1.597 . S
C500 C51 1.597 . S
C505 C177 1.597 . S
C510 C121 1.597 . S
C515 C191 1.597 . S
C520 C135 1.597 . S
C525 C149 1.597 . S
C530 C205 1.597 . S
C535 C219 1.597 . S
C540 C163 1.597 . S
