# Generated by pormake.
# Topology mok, (4)-cn, num edge types: 1
# Building blocks:
#     Node 0, Type 0, BuildingBlock: QUQFOY_clean_sbu_3, # of connection points: 4
#     Node 1, Type 0, BuildingBlock: QUQFOY_clean_sbu_3, # of connection points: 4
#     Node 2, Type 0, BuildingBlock: QUQFOY_clean_sbu_3, # of connection points: 4
#     Node 3, Type 0, BuildingBlock: QUQFOY_clean_sbu_3, # of connection points: 4
#     Node 4, Type 0, BuildingBlock: QUQFOY_clean_sbu_3, # of connection points: 4
#     Node 5, Type 0, BuildingBlock: QUQFOY_clean_sbu_3, # of connection points: 4
#     Node 6, Type 0, BuildingBlock: QUQFOY_clean_sbu_3, # of connection points: 4
#     Node 7, Type 0, BuildingBlock: QUQFOY_clean_sbu_3, # of connection points: 4
#     Edge 8, Type (0, 0), BuildingBlock: TEMPAE_clean_linker_10, # of connection points: 2
#     Edge 9, Type (0, 0), BuildingBlock: TEMPAE_clean_linker_10, # of connection points: 2
#     Edge 10, Type (0, 0), BuildingBlock: TEMPAE_clean_linker_10, # of connection points: 2
#     Edge 11, Type (0, 0), BuildingBlock: TEMPAE_clean_linker_10, # of connection points: 2
#     Edge 12, Type (0, 0), BuildingBlock: TEMPAE_clean_linker_10, # of connection points: 2
#     Edge 13, Type (0, 0), BuildingBlock: TEMPAE_clean_linker_10, # of connection points: 2
#     Edge 14, Type (0, 0), BuildingBlock: TEMPAE_clean_linker_10, # of connection points: 2
#     Edge 15, Type (0, 0), BuildingBlock: TEMPAE_clean_linker_10, # of connection points: 2
#     Edge 16, Type (0, 0), BuildingBlock: TEMPAE_clean_linker_10, # of connection points: 2
#     Edge 17, Type (0, 0), BuildingBlock: TEMPAE_clean_linker_10, # of connection points: 2
#     Edge 18, Type (0, 0), BuildingBlock: TEMPAE_clean_linker_10, # of connection points: 2
#     Edge 19, Type (0, 0), BuildingBlock: TEMPAE_clean_linker_10, # of connection points: 2
#     Edge 20, Type (0, 0), BuildingBlock: TEMPAE_clean_linker_10, # of connection points: 2
#     Edge 21, Type (0, 0), BuildingBlock: TEMPAE_clean_linker_10, # of connection points: 2
#     Edge 22, Type (0, 0), BuildingBlock: TEMPAE_clean_linker_10, # of connection points: 2
#     Edge 23, Type (0, 0), BuildingBlock: TEMPAE_clean_linker_10, # of connection points: 2
# Relax obj value: 0.012
# Max RMSD: 0.032
# Mean RMSD: 0.032
data_MOF--net-mok--node1-QUQFOY_clean_sbu_3--edge1-TEMPAE_clean_linker_10
_symmetry_space_group_name_H-M    P1
_symmetry_Int_Tables_number       1
_symmetry_cell_setting            triclinic
loop_
_symmetry_equiv_pos_as_xyz
'x, y, z'
_cell_length_a     55.712863
_cell_length_b     16.407387
_cell_length_c     28.29512
_cell_angle_alpha  90.008045
_cell_angle_beta   90.084716
_cell_angle_gamma 90.038186
loop_
_atom_site_label
_atom_site_type_symbol
_atom_site_fract_x
_atom_site_fract_y
_atom_site_fract_z
_atom_type_partial_charge
C0 C 0.59148 0.46828 0.05794 0.0
O1 O 0.59993 0.51521 0.0264 0.0
Cd2 Cd 0.60364 0.47674 0.94503 0.0
O3 O 0.58349 0.39794 0.04726 0.0
Cd4 Cd 0.57796 0.30967 0.97796 0.0
C5 C 0.63854 0.30784 0.96783 0.0
O6 O 0.5671 0.41329 0.92102 0.0
O7 O 0.57782 0.29706 0.89237 0.0
O8 O 0.53865 0.27831 0.00989 0.0
C9 C 0.56972 0.36814 0.88504 0.0
O10 O 0.63634 0.37793 0.94889 0.0
C11 C 0.54013 0.2019 0.00358 0.0
O12 O 0.6204 0.27035 0.98471 0.0
O13 O 0.55974 0.17482 0.9868 0.0
C14 C 0.36495 0.56924 0.11375 0.0
O15 O 0.35876 0.50511 0.09181 0.0
Cd16 Cd 0.35271 0.50696 0.00767 0.0
O17 O 0.36808 0.63566 0.09154 0.0
Cd18 Cd 0.36692 0.69099 0.01138 0.0
C19 C 0.30806 0.65045 -0.00178 0.0
O20 O 0.38618 0.57553 0.97182 0.0
O21 O 0.3696 0.66658 0.92726 0.0
O22 O 0.40222 0.75742 0.04221 0.0
C23 C 0.38255 0.6034 0.93062 0.0
O24 O 0.3149 0.57701 -0.00719 0.0
C25 C 0.39846 0.82635 0.02349 0.0
O26 O 0.32303 0.70604 0.00951 0.0
O27 O 0.37928 0.83419 -0.00054 0.0
C28 C 0.62104 0.56545 0.40315 0.0
O29 O 0.6268 0.50573 0.42931 0.0
Cd30 Cd 0.63317 0.52526 0.51247 0.0
O31 O 0.61904 0.63672 0.42031 0.0
Cd32 Cd 0.62208 0.71256 0.49452 0.0
C33 C 0.68023 0.66184 0.51052 0.0
O34 O 0.60078 0.60943 0.5398 0.0
O35 O 0.61724 0.70655 0.57988 0.0
O36 O 0.58936 0.78089 0.45498 0.0
C37 C 0.60386 0.64411 0.57935 0.0
O38 O 0.67217 0.59144 0.52094 0.0
C39 C 0.59367 0.85135 0.4712 0.0
O40 O 0.66615 0.71776 0.49592 0.0
O41 O 0.61206 0.85891 0.49752 0.0
C42 C 0.39978 0.48799 0.45674 0.0
O43 O 0.39163 0.52962 0.49096 0.0
Cd44 Cd 0.38823 0.47409 0.56926 0.0
O45 O 0.40742 0.41578 0.46319 0.0
Cd46 Cd 0.4133 0.31359 0.52528 0.0
C47 C 0.35277 0.3112 0.53592 0.0
O48 O 0.42452 0.40432 0.58895 0.0
O49 O 0.41407 0.28261 0.6093 0.0
O50 O 0.45219 0.2903 0.48941 0.0
C51 C 0.42204 0.35188 0.62154 0.0
O52 O 0.35523 0.37749 0.55894 0.0
C53 C 0.45086 0.21311 0.49044 0.0
O54 O 0.37077 0.27633 0.51677 0.0
O55 O 0.43153 0.18222 0.50627 0.0
C56 C 0.08636 0.97041 0.02214 0.0
O57 O 0.09389 0.01359 0.988 0.0
Cd58 Cd 0.09775 0.96002 0.90934 0.0
O59 O 0.07946 0.89738 0.01538 0.0
Cd60 Cd 0.07444 0.79604 0.95231 0.0
C61 C 0.13496 0.80144 0.94133 0.0
O62 O 0.06229 0.88587 0.88883 0.0
O63 O 0.07402 0.76601 0.86799 0.0
O64 O 0.03592 0.76641 0.98826 0.0
C65 C 0.0655 0.83458 0.85592 0.0
O66 O 0.13178 0.86777 0.91873 0.0
C67 C 0.03823 0.68949 0.98713 0.0
O68 O 0.11735 0.76404 0.96035 0.0
O69 O 0.05786 0.66164 0.97088 0.0
C70 C 0.86722 0.05556 0.13997 0.0
O71 O 0.86 0.99189 0.1188 0.0
Cd72 Cd 0.85368 0.99032 0.03477 0.0
O73 O 0.87101 0.12088 0.11702 0.0
Cd74 Cd 0.869 0.17083 0.03543 0.0
C75 C 0.80983 0.13473 0.02341 0.0
O76 O 0.88766 0.05266 -0.00312 0.0
O77 O 0.87044 0.14122 0.95167 0.0
O78 O 0.90486 0.24144 0.06122 0.0
C79 C 0.88366 0.07877 0.95543 0.0
O80 O 0.81612 0.06072 0.01814 0.0
C81 C 0.90028 0.30833 0.04074 0.0
O82 O 0.82521 0.189 0.03464 0.0
O83 O 0.88047 0.31299 0.01858 0.0
C84 C 0.12304 0.05862 0.36419 0.0
O85 O 0.13023 0.99551 0.38591 0.0
Cd86 Cd 0.13694 -0.00288 0.46976 0.0
O87 O 0.11954 0.12483 0.38645 0.0
Cd88 Cd 0.12196 0.17849 0.46722 0.0
C89 C 0.18113 0.14152 0.47861 0.0
O90 O 0.10312 0.06187 0.50679 0.0
O91 O 0.12018 0.15174 0.5514 0.0
O92 O 0.08639 0.24862 0.43977 0.0
C93 C 0.10697 0.08914 0.54804 0.0
O94 O 0.17471 0.06773 0.48444 0.0
C95 C 0.09082 0.31594 0.45991 0.0
O96 O 0.16579 0.19589 0.46749 0.0
O97 O 0.11047 0.32111 0.48263 0.0
C98 C 0.90349 0.9702 0.48203 0.0
O99 O 0.89625 0.01302 0.51655 0.0
Cd100 Cd 0.89249 0.95698 0.59471 0.0
O101 O 0.91011 0.89677 0.48823 0.0
Cd102 Cd 0.91518 0.79333 0.55 0.0
C103 C 0.85475 0.79977 0.56183 0.0
O104 O 0.92772 0.88093 0.61426 0.0
O105 O 0.91598 0.76041 0.63391 0.0
O106 O 0.95353 0.76604 0.51297 0.0
C107 C 0.92459 0.82855 0.64663 0.0
O108 O 0.85826 0.86575 0.58462 0.0
C109 C 0.9514 0.68903 0.51321 0.0
O110 O 0.87216 0.76195 0.54241 0.0
O111 O 0.93191 0.65998 0.52947 0.0
C112 C 0.76949 0.10629 0.98848 0.0
C113 C 0.78441 0.15726 0.01547 0.0
C114 C 0.74545 0.12681 0.97978 0.0
C115 C 0.73595 0.19929 -0.00071 0.0
C116 C 0.75081 0.25047 0.02714 0.0
C117 C 0.77496 0.22926 0.03449 0.0
C118 C 0.73034 0.07157 0.94908 0.0
C119 C 0.7412 0.32766 0.04914 0.0
C120 C 0.68149 0.29932 0.94339 0.0
C121 C 0.66294 0.27352 0.97334 0.0
C122 C 0.70522 0.27388 0.95074 0.0
C123 C 0.71063 0.22268 -0.01043 0.0
C124 C 0.69192 0.19514 0.01944 0.0
C125 C 0.66823 0.22025 0.01066 0.0
C126 C 0.72458 0.30304 0.91745 0.0
C127 C 0.69706 0.14136 0.06154 0.0
H128 H 0.77673 0.05082 0.97335 0.0
H129 H 0.78636 0.2686 0.0556 0.0
H130 H 0.71433 0.05055 0.9689 0.0
H131 H 0.72377 0.10571 0.91778 0.0
H132 H 0.74044 0.0173 0.93666 0.0
H133 H 0.75479 0.35899 0.07143 0.0
H134 H 0.73523 0.37028 0.02106 0.0
H135 H 0.72529 0.31353 0.07125 0.0
H136 H 0.67746 0.34014 0.91431 0.0
H137 H 0.65399 0.20077 0.03417 0.0
H138 H 0.73466 0.25028 0.90308 0.0
H139 H 0.7376 0.34176 0.93688 0.0
H140 H 0.71719 0.33882 0.88744 0.0
H141 H 0.70642 0.0851 0.05011 0.0
H142 H 0.68045 0.12383 0.08073 0.0
H143 H 0.70918 0.17365 0.08644 0.0
C144 C 0.17801 0.79699 0.91721 0.0
C145 C 0.15979 0.77155 0.94804 0.0
C146 C 0.20201 0.77524 0.92509 0.0
C147 C 0.20802 0.72805 0.96525 0.0
C148 C 0.18968 0.70111 -0.00383 0.0
C149 C 0.16572 0.72257 0.98694 0.0
C150 C 0.22098 0.80368 0.89074 0.0
C151 C 0.19546 0.65144 0.03963 0.0
C152 C 0.26767 0.61655 0.9652 0.0
C153 C 0.28243 0.67053 -0.00947 0.0
C154 C 0.24343 0.63441 0.95684 0.0
C155 C 0.23356 0.70742 0.9749 0.0
C156 C 0.24825 0.76172 0.00106 0.0
C157 C 0.27259 0.74298 0.0082 0.0
C158 C 0.22847 0.57571 0.92805 0.0
C159 C 0.23825 0.83969 0.0214 0.0
H160 H 0.17351 0.83449 0.88692 0.0
H161 H 0.15174 0.70336 0.01111 0.0
H162 H 0.2339 0.84443 0.90903 0.0
H163 H 0.23129 0.75074 0.87723 0.0
H164 H 0.2132 0.83704 0.86019 0.0
H165 H 0.17911 0.6345 0.05982 0.0
H166 H 0.20506 0.59489 0.02952 0.0
H167 H 0.20758 0.68661 0.06319 0.0
H168 H 0.27517 0.56066 0.95112 0.0
H169 H 0.28385 0.78468 0.02803 0.0
H170 H 0.22146 0.60687 0.89608 0.0
H171 H 0.21275 0.55505 0.94886 0.0
H172 H 0.23885 0.5213 0.91675 0.0
H173 H 0.23177 0.87967 -0.00754 0.0
H174 H 0.25178 0.87374 0.04247 0.0
H175 H 0.22262 0.82595 0.04433 0.0
C176 C 0.82358 0.71994 0.51759 0.0
C177 C 0.82977 0.77081 0.55554 0.0
C178 C 0.7995 0.69925 0.50877 0.0
C179 C 0.7813 0.72916 0.53905 0.0
C180 C 0.78755 0.7783 0.57828 0.0
C181 C 0.81167 0.79894 0.58585 0.0
C182 C 0.79347 0.64724 0.46636 0.0
C183 C 0.76872 0.81018 0.6119 0.0
C184 C 0.71679 0.74787 0.49643 0.0
C185 C 0.70623 0.67832 0.51635 0.0
C186 C 0.74137 0.76405 0.50248 0.0
C187 C 0.75563 0.71002 0.52967 0.0
C188 C 0.74511 0.63952 0.54961 0.0
C189 C 0.7206 0.62427 0.54247 0.0
C190 C 0.75204 0.83944 0.48024 0.0
C191 C 0.75962 0.58109 0.57939 0.0
H192 H 0.83746 0.69851 0.49384 0.0
H193 H 0.81634 0.83787 0.61544 0.0
H194 H 0.78332 0.59237 0.47756 0.0
H195 H 0.78175 0.68195 0.44183 0.0
H196 H 0.80974 0.62738 0.44687 0.0
H197 H 0.77668 0.8449 0.64179 0.0
H198 H 0.75611 0.85066 0.59269 0.0
H199 H 0.75807 0.75887 0.62645 0.0
H200 H 0.70586 0.78964 0.47597 0.0
H201 H 0.71259 0.57051 0.55819 0.0
H202 H 0.76763 0.82267 0.45791 0.0
H203 H 0.75873 0.88108 0.50822 0.0
H204 H 0.73884 0.87295 0.45813 0.0
H205 H 0.77529 0.55856 0.55911 0.0
H206 H 0.74888 0.52785 0.59131 0.0
H207 H 0.76669 0.61317 0.611 0.0
C208 C 0.21587 0.23724 0.46836 0.0
C209 C 0.20666 0.16366 0.48585 0.0
C210 C 0.24005 0.25841 0.47545 0.0
C211 C 0.25523 0.20542 0.50137 0.0
C212 C 0.24602 0.13114 0.51911 0.0
C213 C 0.22192 0.11087 0.51081 0.0
C214 C 0.24934 0.33768 0.45544 0.0
C215 C 0.26151 0.07373 0.54763 0.0
C216 C 0.3229 0.22908 0.48979 0.0
C217 C 0.32827 0.2783 0.52893 0.0
C218 C 0.29918 0.2047 0.48036 0.0
C219 C 0.28054 0.22892 0.51129 0.0
C220 C 0.286 0.27633 0.55169 0.0
C221 C 0.30975 0.30101 0.55978 0.0
C222 C 0.29399 0.15491 0.43664 0.0
C223 C 0.2667 0.30197 0.58605 0.0
H224 H 0.20423 0.27806 0.44881 0.0
H225 H 0.21492 0.0541 0.52473 0.0
H226 H 0.25532 0.37816 0.48457 0.0
H227 H 0.26517 0.32603 0.43266 0.0
H228 H 0.23554 0.37028 0.43431 0.0
H229 H 0.25168 0.01784 0.55844 0.0
H230 H 0.27749 0.05547 0.52685 0.0
H231 H 0.26811 0.10509 0.57988 0.0
H232 H 0.3371 0.21195 0.46561 0.0
H233 H 0.31381 0.33867 0.59026 0.0
H234 H 0.28159 0.18897 0.41311 0.0
H235 H 0.28489 0.09718 0.44642 0.0
H236 H 0.31053 0.14009 0.41654 0.0
H237 H 0.25342 0.34144 0.56788 0.0
H238 H 0.27409 0.3358 0.61682 0.0
H239 H 0.25691 0.24765 0.59923 0.0
C240 C 0.61111 0.54545 0.12319 0.0
C241 C 0.59316 0.49141 0.10815 0.0
C242 C 0.61513 0.55941 0.1714 0.0
C243 C 0.60047 0.51976 0.20514 0.0
C244 C 0.5816 0.46816 0.19009 0.0
C245 C 0.57834 0.45384 0.14168 0.0
C246 C 0.63565 0.61393 0.18626 0.0
C247 C 0.56524 0.42654 0.22512 0.0
C248 C 0.62556 0.48655 0.32823 0.0
C249 C 0.61569 0.55265 0.3527 0.0
C250 C 0.62082 0.47527 0.27999 0.0
C251 C 0.60541 0.53038 0.25622 0.0
C252 C 0.59501 0.59624 0.28104 0.0
C253 C 0.60051 0.60713 0.32891 0.0
C254 C 0.63255 0.40515 0.25431 0.0
C255 C 0.57806 0.65504 0.25707 0.0
H256 H 0.62275 0.57398 0.09735 0.0
H257 H 0.56437 0.41233 0.13008 0.0
H258 H 0.62902 0.6635 0.20947 0.0
H259 H 0.64889 0.57818 0.20701 0.0
H260 H 0.645 0.64169 0.15556 0.0
H261 H 0.55034 0.39323 0.20751 0.0
H262 H 0.57569 0.38254 0.24665 0.0
H263 H 0.55748 0.47199 0.24978 0.0
H264 H 0.63737 0.44459 0.34658 0.0
H265 H 0.59262 0.65783 0.34793 0.0
H266 H 0.64349 0.42865 0.22453 0.0
H267 H 0.61864 0.36453 0.23904 0.0
H268 H 0.6443 0.36844 0.27785 0.0
H269 H 0.58744 0.68709 0.22794 0.0
H270 H 0.57082 0.70131 0.28191 0.0
H271 H 0.5628 0.62124 0.24113 0.0
C272 C 0.38394 0.6275 0.18612 0.0
C273 C 0.36979 0.56666 0.16502 0.0
C274 C 0.38983 0.62403 0.23422 0.0
C275 C 0.38103 0.55894 0.26194 0.0
C276 C 0.3662 0.49855 0.24116 0.0
C277 C 0.36094 0.50273 0.19276 0.0
C278 C 0.40602 0.68865 0.25505 0.0
C279 C 0.35618 0.42886 0.26991 0.0
C280 C 0.4125 0.48644 0.37256 0.0
C281 C 0.39769 0.51848 0.40794 0.0
C282 C 0.40807 0.5031 0.32481 0.0
C283 C 0.38806 0.5516 0.31229 0.0
C284 C 0.37379 0.58767 0.34796 0.0
C285 C 0.37894 0.57127 0.39555 0.0
C286 C 0.42405 0.46525 0.28775 0.0
C287 C 0.35217 0.63909 0.33585 0.0
H288 H 0.39097 0.67686 0.16474 0.0
H289 H 0.34988 0.45594 0.17665 0.0
H290 H 0.39731 0.71751 0.28604 0.0
H291 H 0.42291 0.66023 0.26774 0.0
H292 H 0.41061 0.73694 0.22906 0.0
H293 H 0.34383 0.38969 0.24901 0.0
H294 H 0.37108 0.3905 0.28341 0.0
H295 H 0.34633 0.45275 0.30103 0.0
H296 H 0.42713 0.44608 0.38215 0.0
H297 H 0.36735 0.59566 0.42286 0.0
H298 H 0.42977 0.51182 0.26166 0.0
H299 H 0.41392 0.4177 0.26822 0.0
H300 H 0.4403 0.43674 0.30341 0.0
H301 H 0.35699 0.68679 0.30977 0.0
H302 H 0.34434 0.66894 0.36751 0.0
H303 H 0.33819 0.60008 0.31935 0.0
C304 C 0.41101 0.50765 0.89095 0.0
C305 C 0.39153 0.56151 0.88817 0.0
C306 C 0.41968 0.46841 0.85031 0.0
C307 C 0.40817 0.48218 0.80642 0.0
C308 C 0.3884 0.53615 0.80364 0.0
C309 C 0.38051 0.57585 0.84448 0.0
C310 C 0.44115 0.41269 0.85422 0.0
C311 C 0.37536 0.55133 0.75759 0.0
C312 C 0.43442 0.44797 0.68525 0.0
C313 C 0.42249 0.37656 0.67157 0.0
C314 C 0.43167 0.47945 0.73098 0.0
C315 C 0.41617 0.43947 0.76307 0.0
C316 C 0.40543 0.36435 0.75046 0.0
C317 C 0.40896 0.33327 0.7049 0.0
C318 C 0.444 0.55843 0.74371 0.0
C319 C 0.38853 0.32043 0.78349 0.0
H320 H 0.41966 0.49708 0.92474 0.0
H321 H 0.36537 0.61716 0.84232 0.0
H322 H 0.43614 0.35003 0.84326 0.0
H323 H 0.45553 0.43358 0.82998 0.0
H324 H 0.44847 0.41035 0.89074 0.0
H325 H 0.35997 0.59374 0.76179 0.0
H326 H 0.3879 0.57748 0.7312 0.0
H327 H 0.36855 0.49291 0.74302 0.0
H328 H 0.44518 0.48084 0.6597 0.0
H329 H 0.39976 0.27776 0.69446 0.0
H330 H 0.45164 0.55528 0.77989 0.0
H331 H 0.4307 0.60874 0.74324 0.0
H332 H 0.4586 0.57369 0.7185 0.0
H333 H 0.39635 0.316 0.81945 0.0
H334 H 0.38415 0.25805 0.77083 0.0
H335 H 0.37157 0.35553 0.78642 0.0
C336 C 0.58312 0.36803 0.8013 0.0
C337 C 0.5692 0.40301 0.83714 0.0
C338 C 0.58587 0.40718 0.7577 0.0
C339 C 0.57389 0.48193 0.7495 0.0
C340 C 0.55841 0.51444 0.78432 0.0
C341 C 0.55651 0.47506 0.82814 0.0
C342 C 0.60284 0.37127 0.72169 0.0
C343 C 0.54478 0.59269 0.77617 0.0
C344 C 0.60597 0.62549 0.66641 0.0
C345 C 0.59471 0.60786 0.62335 0.0
C346 C 0.59889 0.58631 0.70804 0.0
C347 C 0.57969 0.52976 0.70663 0.0
C348 C 0.56744 0.51487 0.66367 0.0
C349 C 0.57534 0.55335 0.62225 0.0
C350 C 0.61267 0.60276 0.7531 0.0
C351 C 0.54644 0.45679 0.66124 0.0
H352 H 0.59297 0.31233 0.8082 0.0
H353 H 0.54552 0.50163 0.85573 0.0
H354 H 0.59384 0.36558 0.68687 0.0
H355 H 0.61845 0.41254 0.717 0.0
H356 H 0.60958 0.31028 0.73238 0.0
H357 H 0.53083 0.6029 0.80355 0.0
H358 H 0.55743 0.64491 0.77691 0.0
H359 H 0.53606 0.59218 0.74089 0.0
H360 H 0.62098 0.66758 0.66726 0.0
H361 H 0.56644 0.54048 0.58897 0.0
H362 H 0.6214 0.54579 0.76541 0.0
H363 H 0.60026 0.62291 0.78139 0.0
H364 H 0.62673 0.65011 0.7484 0.0
H365 H 0.55277 0.39355 0.6672 0.0
H366 H 0.53716 0.45925 0.62649 0.0
H367 H 0.53328 0.47098 0.68947 0.0
C368 C 0.0745 0.96513 0.10685 0.0
C369 C 0.08841 0.00048 0.07108 0.0
C370 C 0.079 0.9825 0.15451 0.0
C371 C 0.09818 0.03515 0.16656 0.0
C372 C 0.11152 0.07419 0.13053 0.0
C373 C 0.1063 0.05696 0.08306 0.0
C374 C 0.06401 0.94127 0.19198 0.0
C375 C 0.13228 0.12999 0.14209 0.0
C376 C 0.1022 0.11239 0.2926 0.0
C377 C 0.11763 0.05478 0.31316 0.0
C378 C 0.09582 0.10727 0.24476 0.0
C379 C 0.10546 0.04393 0.21674 0.0
C380 C 0.12153 0.98687 0.23699 0.0
C381 C 0.12724 0.99252 0.28514 0.0
C382 C 0.0783 0.16824 0.22453 0.0
C383 C 0.13248 0.91925 0.20792 0.0
H384 H 0.06053 0.92186 0.09762 0.0
H385 H 0.1172 0.08394 0.05548 0.0
H386 H 0.07511 0.8959 0.21116 0.0
H387 H 0.05766 0.9865 0.21829 0.0
H388 H 0.04818 0.90943 0.17675 0.0
H389 H 0.13941 0.16119 0.11021 0.0
H390 H 0.12678 0.17679 0.16819 0.0
H391 H 0.14699 0.09401 0.15836 0.0
H392 H 0.09458 0.16036 0.31423 0.0
H393 H 0.13929 0.94824 0.30083 0.0
H394 H 0.06189 0.13619 0.21225 0.0
H395 H 0.08622 0.19907 0.19335 0.0
H396 H 0.07301 0.21531 0.25074 0.0
H397 H 0.11816 0.87794 0.19488 0.0
H398 H 0.14565 0.88266 0.22841 0.0
H399 H 0.14165 0.94503 0.1765 0.0
C400 C 0.88351 0.05748 0.42155 0.0
C401 C 0.90147 0.00119 0.4333 0.0
C402 C 0.87825 0.07504 0.37413 0.0
C403 C 0.89161 0.0365 0.33795 0.0
C404 C 0.9109 0.98426 0.34982 0.0
C405 C 0.91544 0.96657 0.39741 0.0
C406 C 0.8574 0.13045 0.36278 0.0
C407 C 0.92592 0.94355 0.31222 0.0
C408 C 0.86271 0.99154 0.21953 0.0
C409 C 0.87234 0.05334 0.19116 0.0
C410 C 0.86827 0.98705 0.26778 0.0
C411 C 0.8842 0.04488 0.28783 0.0
C412 C 0.89375 0.10801 0.25952 0.0
C413 C 0.88754 0.11191 0.21155 0.0
C414 C 0.85741 0.91958 0.29714 0.0
C415 C 0.91109 0.16986 0.27955 0.0
H416 H 0.87257 0.08388 0.44924 0.0
H417 H 0.92946 0.92348 0.40648 0.0
H418 H 0.86271 0.17696 0.33634 0.0
H419 H 0.84262 0.09405 0.34702 0.0
H420 H 0.85044 0.16198 0.39468 0.0
H421 H 0.94185 0.91219 0.32732 0.0
H422 H 0.91488 0.89785 0.29311 0.0
H423 H 0.93211 0.989 0.28588 0.0
H424 H 0.85082 0.94654 0.20399 0.0
H425 H 0.89515 0.15961 0.18969 0.0
H426 H 0.8483 0.9455 0.32857 0.0
H427 H 0.87179 0.87852 0.31014 0.0
H428 H 0.84422 0.88268 0.27685 0.0
H429 H 0.9032 0.20013 0.31093 0.0
H430 H 0.91606 0.21731 0.25331 0.0
H431 H 0.92769 0.13862 0.29146 0.0
C432 C 0.91117 0.80892 0.72973 0.0
C433 C 0.92485 0.85264 0.69681 0.0
C434 C 0.90741 0.83947 0.77535 0.0
C435 C 0.91802 0.91455 0.78844 0.0
C436 C 0.93367 0.95494 0.75677 0.0
C437 C 0.93668 0.92394 0.71099 0.0
C438 C 0.89039 0.79501 0.80789 0.0
C439 C 0.94586 0.03393 0.76999 0.0
C440 C 0.88182 0.05023 0.86934 0.0
C441 C 0.8927 0.03618 0.91321 0.0
C442 C 0.88992 0.01059 0.82863 0.0
C443 C 0.90973 0.95684 0.83173 0.0
C444 C 0.92104 0.94307 0.87583 0.0
C445 C 0.91219 0.98238 0.91632 0.0
C446 C 0.87709 0.02578 0.78234 0.0
C447 C 0.9425 0.88743 0.88011 0.0
H448 H 0.90207 0.75356 0.71897 0.0
H449 H 0.94755 0.95721 0.68574 0.0
H450 H 0.89798 0.79055 0.84404 0.0
H451 H 0.87334 0.82971 0.81045 0.0
H452 H 0.88621 0.73262 0.79501 0.0
H453 H 0.96062 0.04944 0.74519 0.0
H454 H 0.93254 0.08414 0.76928 0.0
H455 H 0.95327 0.03061 0.80636 0.0
H456 H 0.86668 0.09149 0.86689 0.0
H457 H 0.92073 0.97199 0.95023 0.0
H458 H 0.87044 0.96733 0.76755 0.0
H459 H 0.88973 0.05225 0.75626 0.0
H460 H 0.86163 0.06794 0.7863 0.0
H461 H 0.93762 0.82489 0.86872 0.0
H462 H 0.94955 0.88464 0.91682 0.0
H463 H 0.95704 0.90876 0.85638 0.0
C464 C 0.07955 0.81842 0.773 0.0
C465 C 0.06554 0.8605 0.80607 0.0
C466 C 0.08346 0.8505 0.7278 0.0
C467 C 0.07264 0.92544 0.71522 0.0
C468 C 0.05675 0.96436 0.74702 0.0
C469 C 0.05361 0.93188 0.79242 0.0
C470 C 0.10076 0.80767 0.69512 0.0
C471 C 0.04433 0.04313 0.7343 0.0
C472 C 0.10848 0.0626 0.63441 0.0
C473 C 0.09778 0.04756 0.59046 0.0
C474 C 0.10037 0.02315 0.67519 0.0
C475 C 0.08072 0.96862 0.67207 0.0
C476 C 0.0695 0.95427 0.62794 0.0
C477 C 0.07837 0.99334 0.58741 0.0
C478 C 0.11308 0.039 0.72152 0.0
C479 C 0.04818 0.89789 0.62363 0.0
H480 H 0.08876 0.76302 0.78338 0.0
H481 H 0.04251 0.96391 0.81778 0.0
H482 H 0.09314 0.80269 0.65902 0.0
H483 H 0.11755 0.84387 0.69248 0.0
H484 H 0.10541 0.74559 0.70785 0.0
H485 H 0.02952 0.05761 0.75916 0.0
H486 H 0.05751 0.09384 0.73535 0.0
H487 H 0.03696 0.04019 0.69789 0.0
H488 H 0.12355 0.10426 0.63683 0.0
H489 H 0.06995 0.98222 0.55345 0.0
H490 H 0.12005 0.98092 0.73621 0.0
H491 H 0.10029 0.06444 0.74765 0.0
H492 H 0.12831 0.08222 0.71766 0.0
H493 H 0.05338 0.8352 0.63411 0.0
H494 H 0.04087 0.89603 0.58709 0.0
H495 H 0.03374 0.9177 0.64802 0.0
C496 C 0.43442 0.88735 0.06202 0.0
C497 C 0.41673 0.89131 0.02679 0.0
C498 C 0.45385 0.94162 0.06223 0.0
C499 C 0.45584 0.00028 0.02582 0.0
C500 C 0.43752 0.00676 -0.00878 0.0
C501 C 0.41802 0.9525 -0.00763 0.0
C502 C 0.47275 0.93392 0.1003 0.0
C503 C 0.43915 0.06817 0.95161 0.0
C504 C 0.49952 0.17682 0.038 0.0
C505 C 0.51932 0.14814 0.01234 0.0
C506 C 0.47886 0.12881 0.04347 0.0
C507 C 0.47787 0.05094 0.02208 0.0
C508 C 0.49794 0.02124 -0.00331 0.0
C509 C 0.51851 0.06998 -0.00753 0.0
C510 C 0.458 0.16175 0.07161 0.0
C511 C 0.49748 0.93871 0.97304 0.0
H512 H 0.43337 0.84045 0.08894 0.0
H513 H 0.40444 0.95542 0.96495 0.0
H514 H 0.48977 0.91188 0.08453 0.0
H515 H 0.47646 0.99426 0.11645 0.0
H516 H 0.46732 0.89085 0.12864 0.0
H517 H 0.42273 0.06884 0.92929 0.0
H518 H 0.44208 0.13022 0.96606 0.0
H519 H 0.45477 0.05356 0.92885 0.0
H520 H 0.5001 0.23716 0.05358 0.0
H521 H 0.53371 0.04778 0.97234 0.0
H522 H 0.45311 0.11835 0.10009 0.0
H523 H 0.44206 0.16839 0.0484 0.0
H524 H 0.46206 0.22191 0.0878 0.0
H525 H 0.4941 0.89041 -0.00036 0.0
H526 H 0.51455 0.92471 0.95451 0.0
H527 H 0.48258 0.93622 0.94699 0.0
C528 C 0.57405 0.97984 0.49785 0.0
C529 C 0.5763 0.91802 0.46403 0.0
C530 C 0.55439 0.03327 0.49688 0.0
C531 C 0.53695 0.02547 0.46064 0.0
C532 C 0.54028 0.96755 0.42421 0.0
C533 C 0.55979 0.91381 0.42664 0.0
C534 C 0.55137 0.09387 0.53659 0.0
C535 C 0.52246 0.95893 0.38425 0.0
C536 C 0.47333 0.08209 0.49455 0.0
C537 C 0.47173 0.1622 0.47781 0.0
C538 C 0.49436 0.03647 0.48836 0.0
C539 C 0.51404 0.07133 0.46395 0.0
C540 C 0.51206 0.1507 0.44482 0.0
C541 C 0.49099 0.19563 0.45245 0.0
C542 C 0.49585 0.95218 0.50965 0.0
C543 C 0.53242 0.18895 0.41751 0.0
H544 H 0.58674 0.983 0.52688 0.0
H545 H 0.56164 0.86645 0.40016 0.0
H546 H 0.54766 0.15552 0.52232 0.0
H547 H 0.53574 0.07604 0.55859 0.0
H548 H 0.56749 0.09716 0.55967 0.0
H549 H 0.52952 0.92023 0.3552 0.0
H550 H 0.50571 0.93075 0.39772 0.0
H551 H 0.51769 0.01957 0.36966 0.0
H552 H 0.45854 0.05618 0.51435 0.0
H553 H 0.48974 0.25747 0.43918 0.0
H554 H 0.51042 0.95034 0.53641 0.0
H555 H 0.50032 0.90685 0.48196 0.0
H556 H 0.4788 0.93348 0.52686 0.0
H557 H 0.54776 0.20075 0.44158 0.0
H558 H 0.52709 0.24744 0.40074 0.0
H559 H 0.53882 0.14672 0.38961 0.0
C560 C -0.00079 0.66584 0.02825 0.0
C561 C 0.01832 0.63534 0.00132 0.0
C562 C 0.97928 0.61689 0.03896 0.0
C563 C 0.97827 0.53619 0.02145 0.0
C564 C -0.0023 0.50469 -0.00514 0.0
C565 C 0.01761 0.55446 0.98552 0.0
C566 C 0.95917 0.65188 0.06834 0.0
C567 C -0.00286 0.41917 0.97511 0.0
C568 C 0.93705 0.37519 0.07273 0.0
C569 C 0.91832 0.37426 0.03958 0.0
C570 C 0.95613 0.43047 0.0686 0.0
C571 C 0.95671 0.48486 0.02982 0.0
C572 C 0.93737 0.48633 -0.00275 0.0
C573 C 0.91825 0.43142 0.00281 0.0
C574 C 0.97613 0.42844 0.10468 0.0
C575 C 0.93749 0.54288 0.95515 0.0
H576 H -0.00025 0.72829 0.04074 0.0
H577 H 0.03228 0.53083 0.96445 0.0
H578 H 0.94253 0.65536 0.04688 0.0
H579 H 0.95535 0.61144 0.09886 0.0
H580 H 0.96343 0.71384 0.08182 0.0
H581 H 0.01375 0.40385 0.95532 0.0
H582 H 0.99487 0.3744 0.00412 0.0
H583 H 0.98154 0.41221 0.951 0.0
H584 H 0.93706 0.33138 0.10142 0.0
H585 H 0.90386 0.43053 0.97699 0.0
H586 H 0.98 0.49082 0.11778 0.0
H587 H 0.99277 0.40516 0.08798 0.0
H588 H 0.97173 0.38886 0.13532 0.0
H589 H 0.94033 0.60674 0.96673 0.0
H590 H 0.9205 0.53967 0.93461 0.0
H591 H 0.95259 0.52671 0.93141 0.0
C592 C 0.05424 0.38187 0.42664 0.0
C593 C 0.07273 0.38159 0.46033 0.0
C594 C 0.03493 0.43624 0.43034 0.0
C595 C 0.03387 0.49031 0.46923 0.0
C596 C 0.05301 0.4927 0.50224 0.0
C597 C 0.07237 0.43873 0.4971 0.0
C598 C 0.01518 0.43334 0.39378 0.0
C599 C 0.05239 0.54897 0.54446 0.0
C600 C 0.99038 0.66829 0.47145 0.0
C601 C 0.97143 0.63614 0.49822 0.0
C602 C 0.01054 0.62077 0.46042 0.0
C603 C 0.01196 0.53985 0.47745 0.0
C604 C 0.99265 0.50659 0.5037 0.0
C605 C 0.9725 0.55495 0.51336 0.0
C606 C 0.0305 0.65761 0.43138 0.0
C607 C 0.99362 0.42075 0.5229 0.0
H608 H 0.05457 0.3381 0.39793 0.0
H609 H 0.08657 0.43835 0.52333 0.0
H610 H -0.00139 0.40821 0.4099 0.0
H611 H 0.01093 0.49565 0.38105 0.0
H612 H 0.02005 0.39483 0.36295 0.0
H613 H 0.06931 0.54691 0.56524 0.0
H614 H 0.04919 0.61267 0.53299 0.0
H615 H 0.0373 0.53147 0.56795 0.0
H616 H 0.98955 0.73097 0.45945 0.0
H617 H 0.95795 0.53003 0.53428 0.0
H618 H 0.03478 0.61758 0.40093 0.0
H619 H 0.04701 0.66267 0.45315 0.0
H620 H 0.02583 0.71916 0.41785 0.0
H621 H -0.00369 0.3767 0.49366 0.0
H622 H 0.97702 0.40383 0.54226 0.0
H623 H 0.00914 0.41451 0.54728 0.0
loop_
_geom_bond_atom_site_label_1
_geom_bond_atom_site_label_2
_geom_bond_distance
_geom_bond_site_symmetry_2
_ccdc_geom_bond_type
C0 O1 1.306 . S
C0 O3 1.160 . S
O1 C0 1.306 . S
O1 Cd2 2.228 . S
Cd2 O1 2.228 . S
Cd2 O6 2.273 1_554 S
Cd2 O10 2.277 . S
O3 C0 1.160 . S
O3 Cd4 2.203 . S
Cd4 O3 2.203 . S
Cd4 O6 2.411 1_554 S
Cd4 O7 2.333 1_554 S
Cd4 O8 2.352 . S
Cd4 O12 2.277 . S
Cd4 O13 2.356 1_554 S
C5 O10 1.209 . S
C5 O12 1.226 . S
O6 Cd2 2.273 1_556 S
O6 Cd4 2.411 1_556 S
O6 C9 1.320 . S
O7 Cd4 2.333 1_556 S
O7 C9 1.214 . S
O8 Cd4 2.352 . S
O8 C11 1.258 . S
C9 O6 1.320 . S
C9 O7 1.214 . S
O10 Cd2 2.277 . S
O10 C5 1.209 . S
C11 O8 1.258 . S
C11 O13 1.282 1_554 S
O12 Cd4 2.277 . S
O12 C5 1.226 . S
O13 Cd4 2.356 1_556 S
O13 C11 1.282 1_556 S
C14 O15 1.306 . S
C14 O17 1.160 . S
O15 C14 1.306 . S
O15 Cd16 2.228 . S
Cd16 O15 2.228 . S
Cd16 O20 2.273 1_554 S
Cd16 O24 2.277 . S
O17 C14 1.160 . S
O17 Cd18 2.203 . S
Cd18 O17 2.203 . S
Cd18 O20 2.411 1_554 S
Cd18 O21 2.333 1_554 S
Cd18 O22 2.352 . S
Cd18 O26 2.277 . S
Cd18 O27 2.356 1_554 S
C19 O24 1.209 . S
C19 O26 1.226 . S
O20 Cd16 2.273 1_556 S
O20 Cd18 2.411 1_556 S
O20 C23 1.320 . S
O21 Cd18 2.333 1_556 S
O21 C23 1.214 . S
O22 Cd18 2.352 . S
O22 C25 1.258 . S
C23 O20 1.320 . S
C23 O21 1.214 . S
O24 Cd16 2.277 . S
O24 C19 1.209 . S
C25 O22 1.258 . S
C25 O27 1.282 1_554 S
O26 Cd18 2.277 . S
O26 C19 1.226 . S
O27 Cd18 2.356 1_556 S
O27 C25 1.282 1_556 S
C28 O29 1.306 . S
C28 O31 1.160 . S
O29 C28 1.306 . S
O29 Cd30 2.228 . S
Cd30 O29 2.228 . S
Cd30 O34 2.273 . S
Cd30 O38 2.277 . S
O31 C28 1.160 . S
O31 Cd32 2.203 . S
Cd32 O31 2.203 . S
Cd32 O34 2.411 . S
Cd32 O35 2.333 . S
Cd32 O36 2.352 . S
Cd32 O40 2.277 . S
Cd32 O41 2.356 . S
C33 O38 1.209 . S
C33 O40 1.226 . S
O34 Cd30 2.273 . S
O34 Cd32 2.411 . S
O34 C37 1.320 . S
O35 Cd32 2.333 . S
O35 C37 1.214 . S
O36 Cd32 2.352 . S
O36 C39 1.258 . S
C37 O34 1.320 . S
C37 O35 1.214 . S
O38 Cd30 2.277 . S
O38 C33 1.209 . S
C39 O36 1.258 . S
C39 O41 1.282 . S
O40 Cd32 2.277 . S
O40 C33 1.226 . S
O41 Cd32 2.356 . S
O41 C39 1.282 . S
C42 O43 1.306 . S
C42 O45 1.160 . S
O43 C42 1.306 . S
O43 Cd44 2.228 . S
Cd44 O43 2.228 . S
Cd44 O48 2.273 . S
Cd44 O52 2.277 . S
O45 C42 1.160 . S
O45 Cd46 2.203 . S
Cd46 O45 2.203 . S
Cd46 O48 2.411 . S
Cd46 O49 2.333 . S
Cd46 O50 2.352 . S
Cd46 O54 2.277 . S
Cd46 O55 2.356 . S
C47 O52 1.209 . S
C47 O54 1.226 . S
O48 Cd44 2.273 . S
O48 Cd46 2.411 . S
O48 C51 1.320 . S
O49 Cd46 2.333 . S
O49 C51 1.214 . S
O50 Cd46 2.352 . S
O50 C53 1.258 . S
C51 O48 1.320 . S
C51 O49 1.214 . S
O52 Cd44 2.277 . S
O52 C47 1.209 . S
C53 O50 1.258 . S
C53 O55 1.282 . S
O54 Cd46 2.277 . S
O54 C47 1.226 . S
O55 Cd46 2.356 . S
O55 C53 1.282 . S
C56 O57 1.306 . S
C56 O59 1.160 . S
O57 C56 1.306 . S
O57 Cd58 2.228 . S
Cd58 O57 2.228 . S
Cd58 O62 2.273 1_554 S
Cd58 O66 2.277 . S
O59 C56 1.160 . S
O59 Cd60 2.203 . S
Cd60 O59 2.203 . S
Cd60 O62 2.411 1_554 S
Cd60 O63 2.333 1_554 S
Cd60 O64 2.352 . S
Cd60 O68 2.277 . S
Cd60 O69 2.356 1_554 S
C61 O66 1.209 . S
C61 O68 1.226 . S
O62 Cd58 2.273 1_556 S
O62 Cd60 2.411 1_556 S
O62 C65 1.320 . S
O63 Cd60 2.333 1_556 S
O63 C65 1.214 . S
O64 Cd60 2.352 . S
O64 C67 1.258 . S
C65 O62 1.320 . S
C65 O63 1.214 . S
O66 Cd58 2.277 . S
O66 C61 1.209 . S
C67 O64 1.258 . S
C67 O69 1.282 1_554 S
O68 Cd60 2.277 . S
O68 C61 1.226 . S
O69 Cd60 2.356 1_556 S
O69 C67 1.282 1_556 S
C70 O71 1.306 . S
C70 O73 1.160 . S
O71 C70 1.306 . S
O71 Cd72 2.228 . S
Cd72 O71 2.228 . S
Cd72 O76 2.273 1_554 S
Cd72 O80 2.277 . S
O73 C70 1.160 . S
O73 Cd74 2.203 . S
Cd74 O73 2.203 . S
Cd74 O76 2.411 1_554 S
Cd74 O77 2.333 1_554 S
Cd74 O78 2.352 . S
Cd74 O82 2.277 . S
Cd74 O83 2.356 1_554 S
C75 O80 1.209 . S
C75 O82 1.226 . S
O76 Cd72 2.273 1_556 S
O76 Cd74 2.411 1_556 S
O76 C79 1.320 . S
O77 Cd74 2.333 1_556 S
O77 C79 1.214 . S
O78 Cd74 2.352 . S
O78 C81 1.258 . S
C79 O76 1.320 . S
C79 O77 1.214 . S
O80 Cd72 2.277 . S
O80 C75 1.209 . S
C81 O78 1.258 . S
C81 O83 1.282 1_554 S
O82 Cd74 2.277 . S
O82 C75 1.226 . S
O83 Cd74 2.356 1_556 S
O83 C81 1.282 1_556 S
C84 O85 1.306 . S
C84 O87 1.160 . S
O85 C84 1.306 . S
O85 Cd86 2.228 . S
Cd86 O85 2.228 . S
Cd86 O90 2.273 . S
Cd86 O94 2.277 . S
O87 C84 1.160 . S
O87 Cd88 2.203 . S
Cd88 O87 2.203 . S
Cd88 O90 2.411 . S
Cd88 O91 2.333 . S
Cd88 O92 2.352 . S
Cd88 O96 2.277 . S
Cd88 O97 2.356 . S
C89 O94 1.209 . S
C89 O96 1.226 . S
O90 Cd86 2.273 . S
O90 Cd88 2.411 . S
O90 C93 1.320 . S
O91 Cd88 2.333 . S
O91 C93 1.214 . S
O92 Cd88 2.352 . S
O92 C95 1.258 . S
C93 O90 1.320 . S
C93 O91 1.214 . S
O94 Cd86 2.277 . S
O94 C89 1.209 . S
C95 O92 1.258 . S
C95 O97 1.282 . S
O96 Cd88 2.277 . S
O96 C89 1.226 . S
O97 Cd88 2.356 . S
O97 C95 1.282 . S
C98 O99 1.306 . S
C98 O101 1.160 . S
O99 C98 1.306 . S
O99 Cd100 2.228 . S
Cd100 O99 2.228 . S
Cd100 O104 2.273 . S
Cd100 O108 2.277 . S
O101 C98 1.160 . S
O101 Cd102 2.203 . S
Cd102 O101 2.203 . S
Cd102 O104 2.411 . S
Cd102 O105 2.333 . S
Cd102 O106 2.352 . S
Cd102 O110 2.277 . S
Cd102 O111 2.356 . S
C103 O108 1.209 . S
C103 O110 1.226 . S
O104 Cd100 2.273 . S
O104 Cd102 2.411 . S
O104 C107 1.320 . S
O105 Cd102 2.333 . S
O105 C107 1.214 . S
O106 Cd102 2.352 . S
O106 C109 1.258 . S
C107 O104 1.320 . S
C107 O105 1.214 . S
O108 Cd100 2.277 . S
O108 C103 1.209 . S
C109 O106 1.258 . S
C109 O111 1.282 . S
O110 Cd102 2.277 . S
O110 C103 1.226 . S
O111 Cd102 2.356 . S
O111 C109 1.282 . S
C112 C113 1.391 . S
C112 C114 1.394 . S
C112 H128 0.931 . S
C113 C112 1.391 . S
C113 C117 1.369 1_554 S
C114 C112 1.394 . S
C114 C115 1.369 . S
C114 C118 1.531 . S
C115 C114 1.369 . S
C115 C116 1.410 . S
C115 C123 1.503 . S
C116 C115 1.410 . S
C116 C117 1.391 1_554 S
C116 C119 1.511 1_554 S
C117 C113 1.369 1_556 S
C117 C116 1.391 1_556 S
C117 H129 0.937 . S
C118 C114 1.531 . S
C118 H130 0.960 . S
C118 H131 0.962 . S
C118 H132 0.960 . S
C119 C116 1.511 1_556 S
C119 H133 0.961 . S
C119 H134 0.961 . S
C119 H135 0.961 1_556 S
C120 C121 1.370 1_556 S
C120 C122 1.363 . S
C120 H136 0.931 . S
C121 C120 1.370 1_554 S
C121 C125 1.408 . S
C122 C120 1.363 . S
C122 C123 1.370 1_556 S
C122 C126 1.524 . S
C123 C115 1.503 . S
C123 C122 1.370 1_554 S
C123 C124 1.403 . S
C124 C123 1.403 . S
C124 C125 1.404 . S
C124 C127 1.539 . S
C125 C121 1.408 . S
C125 C124 1.404 . S
C125 H137 0.930 . S
C126 C122 1.524 . S
C126 H138 0.956 . S
C126 H139 0.961 . S
C126 H140 0.961 . S
C127 C124 1.539 . S
C127 H141 0.958 . S
C127 H142 0.961 . S
C127 H143 0.960 . S
H128 C112 0.931 . S
H129 C117 0.937 . S
H130 C118 0.960 . S
H131 C118 0.962 . S
H132 C118 0.960 . S
H133 C119 0.961 . S
H134 C119 0.961 . S
H135 C119 0.961 1_554 S
H136 C120 0.931 . S
H137 C125 0.930 . S
H138 C126 0.956 . S
H139 C126 0.961 . S
H140 C126 0.961 . S
H141 C127 0.958 . S
H142 C127 0.961 . S
H143 C127 0.960 . S
C144 C145 1.391 1_556 S
C144 C146 1.395 . S
C144 H160 0.931 . S
C145 C144 1.391 1_554 S
C145 C149 1.376 . S
C146 C144 1.395 . S
C146 C147 1.362 1_556 S
C146 C150 1.536 . S
C147 C146 1.362 1_554 S
C147 C148 1.410 . S
C147 C155 1.503 . S
C148 C147 1.410 . S
C148 C149 1.392 . S
C148 C151 1.511 . S
C149 C145 1.376 . S
C149 C148 1.392 . S
C149 H161 0.929 . S
C150 C146 1.536 . S
C150 H162 0.960 . S
C150 H163 0.962 . S
C150 H164 0.960 . S
C151 C148 1.511 . S
C151 H165 0.961 . S
C151 H166 0.961 . S
C151 H167 0.961 . S
C152 C153 1.370 1_556 S
C152 C154 1.363 . S
C152 H168 0.931 . S
C153 C152 1.370 1_554 S
C153 C157 1.408 . S
C154 C152 1.363 . S
C154 C155 1.370 1_556 S
C154 C158 1.524 . S
C155 C147 1.503 . S
C155 C154 1.370 1_554 S
C155 C156 1.403 . S
C156 C155 1.403 . S
C156 C157 1.404 . S
C156 C159 1.539 . S
C157 C153 1.408 . S
C157 C156 1.404 . S
C157 H169 0.930 . S
C158 C154 1.524 . S
C158 H170 0.956 . S
C158 H171 0.961 . S
C158 H172 0.961 . S
C159 C156 1.539 . S
C159 H173 0.958 . S
C159 H174 0.961 . S
C159 H175 0.960 . S
H160 C144 0.931 . S
H161 C149 0.929 . S
H162 C150 0.960 . S
H163 C150 0.962 . S
H164 C150 0.960 . S
H165 C151 0.961 . S
H166 C151 0.961 . S
H167 C151 0.961 . S
H168 C152 0.931 . S
H169 C157 0.930 . S
H170 C158 0.956 . S
H171 C158 0.961 . S
H172 C158 0.961 . S
H173 C159 0.958 . S
H174 C159 0.961 . S
H175 C159 0.960 . S
C176 C177 1.391 . S
C176 C178 1.394 . S
C176 H192 0.931 . S
C177 C176 1.391 . S
C177 C181 1.376 . S
C178 C176 1.394 . S
C178 C179 1.369 . S
C178 C182 1.531 . S
C179 C178 1.369 . S
C179 C180 1.410 . S
C179 C187 1.503 . S
C180 C179 1.410 . S
C180 C181 1.392 . S
C180 C183 1.511 . S
C181 C177 1.376 . S
C181 C180 1.392 . S
C181 H193 0.929 . S
C182 C178 1.531 . S
C182 H194 0.960 . S
C182 H195 0.962 . S
C182 H196 0.960 . S
C183 C180 1.511 . S
C183 H197 0.961 . S
C183 H198 0.961 . S
C183 H199 0.961 . S
C184 C185 1.370 . S
C184 C186 1.363 . S
C184 H200 0.931 . S
C185 C184 1.370 . S
C185 C189 1.408 . S
C186 C184 1.363 . S
C186 C187 1.370 . S
C186 C190 1.524 . S
C187 C179 1.503 . S
C187 C186 1.370 . S
C187 C188 1.403 . S
C188 C187 1.403 . S
C188 C189 1.404 . S
C188 C191 1.539 . S
C189 C185 1.408 . S
C189 C188 1.404 . S
C189 H201 0.930 . S
C190 C186 1.524 . S
C190 H202 0.956 . S
C190 H203 0.961 . S
C190 H204 0.961 . S
C191 C188 1.539 . S
C191 H205 0.958 . S
C191 H206 0.961 . S
C191 H207 0.960 . S
H192 C176 0.931 . S
H193 C181 0.929 . S
H194 C182 0.960 . S
H195 C182 0.962 . S
H196 C182 0.960 . S
H197 C183 0.961 . S
H198 C183 0.961 . S
H199 C183 0.961 . S
H200 C184 0.931 . S
H201 C189 0.930 . S
H202 C190 0.956 . S
H203 C190 0.961 . S
H204 C190 0.961 . S
H205 C191 0.958 . S
H206 C191 0.961 . S
H207 C191 0.960 . S
C208 C209 1.391 . S
C208 C210 1.394 . S
C208 H224 0.931 . S
C209 C208 1.391 . S
C209 C213 1.376 . S
C210 C208 1.394 . S
C210 C211 1.369 . S
C210 C214 1.531 . S
C211 C210 1.369 . S
C211 C212 1.410 . S
C211 C219 1.503 . S
C212 C211 1.410 . S
C212 C213 1.392 . S
C212 C215 1.511 . S
C213 C209 1.376 . S
C213 C212 1.392 . S
C213 H225 0.929 . S
C214 C210 1.531 . S
C214 H226 0.960 . S
C214 H227 0.962 . S
C214 H228 0.960 . S
C215 C212 1.511 . S
C215 H229 0.961 . S
C215 H230 0.961 . S
C215 H231 0.961 . S
C216 C217 1.370 . S
C216 C218 1.363 . S
C216 H232 0.931 . S
C217 C216 1.370 . S
C217 C221 1.408 . S
C218 C216 1.363 . S
C218 C219 1.370 . S
C218 C222 1.524 . S
C219 C211 1.503 . S
C219 C218 1.370 . S
C219 C220 1.403 . S
C220 C219 1.403 . S
C220 C221 1.404 . S
C220 C223 1.539 . S
C221 C217 1.408 . S
C221 C220 1.404 . S
C221 H233 0.930 . S
C222 C218 1.524 . S
C222 H234 0.956 . S
C222 H235 0.961 . S
C222 H236 0.961 . S
C223 C220 1.539 . S
C223 H237 0.958 . S
C223 H238 0.961 . S
C223 H239 0.960 . S
H224 C208 0.931 . S
H225 C213 0.929 . S
H226 C214 0.960 . S
H227 C214 0.962 . S
H228 C214 0.960 . S
H229 C215 0.961 . S
H230 C215 0.961 . S
H231 C215 0.961 . S
H232 C216 0.931 . S
H233 C221 0.930 . S
H234 C222 0.956 . S
H235 C222 0.961 . S
H236 C222 0.961 . S
H237 C223 0.958 . S
H238 C223 0.961 . S
H239 C223 0.960 . S
C240 C241 1.391 . S
C240 C242 1.394 . S
C240 H256 0.931 . S
C241 C240 1.391 . S
C241 C245 1.376 . S
C242 C240 1.394 . S
C242 C243 1.369 . S
C242 C246 1.531 . S
C243 C242 1.369 . S
C243 C244 1.410 . S
C243 C251 1.503 . S
C244 C243 1.410 . S
C244 C245 1.392 . S
C244 C247 1.511 . S
C245 C241 1.376 . S
C245 C244 1.392 . S
C245 H257 0.929 . S
C246 C242 1.531 . S
C246 H258 0.960 . S
C246 H259 0.962 . S
C246 H260 0.960 . S
C247 C244 1.511 . S
C247 H261 0.961 . S
C247 H262 0.961 . S
C247 H263 0.961 . S
C248 C249 1.370 . S
C248 C250 1.363 . S
C248 H264 0.931 . S
C249 C248 1.370 . S
C249 C253 1.408 . S
C250 C248 1.363 . S
C250 C251 1.370 . S
C250 C254 1.524 . S
C251 C243 1.503 . S
C251 C250 1.370 . S
C251 C252 1.403 . S
C252 C251 1.403 . S
C252 C253 1.404 . S
C252 C255 1.539 . S
C253 C249 1.408 . S
C253 C252 1.404 . S
C253 H265 0.930 . S
C254 C250 1.524 . S
C254 H266 0.956 . S
C254 H267 0.961 . S
C254 H268 0.961 . S
C255 C252 1.539 . S
C255 H269 0.958 . S
C255 H270 0.961 . S
C255 H271 0.960 . S
H256 C240 0.931 . S
H257 C245 0.929 . S
H258 C246 0.960 . S
H259 C246 0.962 . S
H260 C246 0.960 . S
H261 C247 0.961 . S
H262 C247 0.961 . S
H263 C247 0.961 . S
H264 C248 0.931 . S
H265 C253 0.930 . S
H266 C254 0.956 . S
H267 C254 0.961 . S
H268 C254 0.961 . S
H269 C255 0.958 . S
H270 C255 0.961 . S
H271 C255 0.960 . S
C272 C273 1.391 . S
C272 C274 1.394 . S
C272 H288 0.931 . S
C273 C272 1.391 . S
C273 C277 1.376 . S
C274 C272 1.394 . S
C274 C275 1.369 . S
C274 C278 1.531 . S
C275 C274 1.369 . S
C275 C276 1.410 . S
C275 C283 1.503 . S
C276 C275 1.410 . S
C276 C277 1.392 . S
C276 C279 1.511 . S
C277 C273 1.376 . S
C277 C276 1.392 . S
C277 H289 0.929 . S
C278 C274 1.531 . S
C278 H290 0.960 . S
C278 H291 0.962 . S
C278 H292 0.960 . S
C279 C276 1.511 . S
C279 H293 0.961 . S
C279 H294 0.961 . S
C279 H295 0.961 . S
C280 C281 1.370 . S
C280 C282 1.363 . S
C280 H296 0.931 . S
C281 C280 1.370 . S
C281 C285 1.408 . S
C282 C280 1.363 . S
C282 C283 1.370 . S
C282 C286 1.524 . S
C283 C275 1.503 . S
C283 C282 1.370 . S
C283 C284 1.403 . S
C284 C283 1.403 . S
C284 C285 1.404 . S
C284 C287 1.539 . S
C285 C281 1.408 . S
C285 C284 1.404 . S
C285 H297 0.930 . S
C286 C282 1.524 . S
C286 H298 0.956 . S
C286 H299 0.961 . S
C286 H300 0.961 . S
C287 C284 1.539 . S
C287 H301 0.958 . S
C287 H302 0.961 . S
C287 H303 0.960 . S
H288 C272 0.931 . S
H289 C277 0.929 . S
H290 C278 0.960 . S
H291 C278 0.962 . S
H292 C278 0.960 . S
H293 C279 0.961 . S
H294 C279 0.961 . S
H295 C279 0.961 . S
H296 C280 0.931 . S
H297 C285 0.930 . S
H298 C286 0.956 . S
H299 C286 0.961 . S
H300 C286 0.961 . S
H301 C287 0.958 . S
H302 C287 0.961 . S
H303 C287 0.960 . S
C304 C305 1.391 . S
C304 C306 1.394 . S
C304 H320 0.931 . S
C305 C304 1.391 . S
C305 C309 1.376 . S
C306 C304 1.394 . S
C306 C307 1.369 . S
C306 C310 1.531 . S
C307 C306 1.369 . S
C307 C308 1.410 . S
C307 C315 1.503 . S
C308 C307 1.410 . S
C308 C309 1.392 . S
C308 C311 1.511 . S
C309 C305 1.376 . S
C309 C308 1.392 . S
C309 H321 0.929 . S
C310 C306 1.531 . S
C310 H322 0.960 . S
C310 H323 0.962 . S
C310 H324 0.960 . S
C311 C308 1.511 . S
C311 H325 0.961 . S
C311 H326 0.961 . S
C311 H327 0.961 . S
C312 C313 1.370 . S
C312 C314 1.363 . S
C312 H328 0.931 . S
C313 C312 1.370 . S
C313 C317 1.408 . S
C314 C312 1.363 . S
C314 C315 1.370 . S
C314 C318 1.524 . S
C315 C307 1.503 . S
C315 C314 1.370 . S
C315 C316 1.403 . S
C316 C315 1.403 . S
C316 C317 1.404 . S
C316 C319 1.539 . S
C317 C313 1.408 . S
C317 C316 1.404 . S
C317 H329 0.930 . S
C318 C314 1.524 . S
C318 H330 0.956 . S
C318 H331 0.961 . S
C318 H332 0.961 . S
C319 C316 1.539 . S
C319 H333 0.958 . S
C319 H334 0.961 . S
C319 H335 0.960 . S
H320 C304 0.931 . S
H321 C309 0.929 . S
H322 C310 0.960 . S
H323 C310 0.962 . S
H324 C310 0.960 . S
H325 C311 0.961 . S
H326 C311 0.961 . S
H327 C311 0.961 . S
H328 C312 0.931 . S
H329 C317 0.930 . S
H330 C318 0.956 . S
H331 C318 0.961 . S
H332 C318 0.961 . S
H333 C319 0.958 . S
H334 C319 0.961 . S
H335 C319 0.960 . S
C336 C337 1.391 . S
C336 C338 1.394 . S
C336 H352 0.931 . S
C337 C336 1.391 . S
C337 C341 1.376 . S
C338 C336 1.394 . S
C338 C339 1.369 . S
C338 C342 1.531 . S
C339 C338 1.369 . S
C339 C340 1.410 . S
C339 C347 1.503 . S
C340 C339 1.410 . S
C340 C341 1.392 . S
C340 C343 1.511 . S
C341 C337 1.376 . S
C341 C340 1.392 . S
C341 H353 0.929 . S
C342 C338 1.531 . S
C342 H354 0.960 . S
C342 H355 0.962 . S
C342 H356 0.960 . S
C343 C340 1.511 . S
C343 H357 0.961 . S
C343 H358 0.961 . S
C343 H359 0.961 . S
C344 C345 1.370 . S
C344 C346 1.363 . S
C344 H360 0.931 . S
C345 C344 1.370 . S
C345 C349 1.408 . S
C346 C344 1.363 . S
C346 C347 1.370 . S
C346 C350 1.524 . S
C347 C339 1.503 . S
C347 C346 1.370 . S
C347 C348 1.403 . S
C348 C347 1.403 . S
C348 C349 1.404 . S
C348 C351 1.539 . S
C349 C345 1.408 . S
C349 C348 1.404 . S
C349 H361 0.930 . S
C350 C346 1.524 . S
C350 H362 0.956 . S
C350 H363 0.961 . S
C350 H364 0.961 . S
C351 C348 1.539 . S
C351 H365 0.958 . S
C351 H366 0.961 . S
C351 H367 0.960 . S
H352 C336 0.931 . S
H353 C341 0.929 . S
H354 C342 0.960 . S
H355 C342 0.962 . S
H356 C342 0.960 . S
H357 C343 0.961 . S
H358 C343 0.961 . S
H359 C343 0.961 . S
H360 C344 0.931 . S
H361 C349 0.930 . S
H362 C350 0.956 . S
H363 C350 0.961 . S
H364 C350 0.961 . S
H365 C351 0.958 . S
H366 C351 0.961 . S
H367 C351 0.960 . S
C368 C369 1.391 . S
C368 C370 1.394 . S
C368 H384 0.931 . S
C369 C368 1.391 . S
C369 C373 1.376 . S
C370 C368 1.394 . S
C370 C371 1.369 . S
C370 C374 1.531 . S
C371 C370 1.369 . S
C371 C372 1.410 . S
C371 C379 1.503 1_565 S
C372 C371 1.410 . S
C372 C373 1.392 . S
C372 C375 1.511 1_565 S
C373 C369 1.376 . S
C373 C372 1.392 . S
C373 H385 0.929 . S
C374 C370 1.531 . S
C374 H386 0.960 . S
C374 H387 0.962 . S
C374 H388 0.960 . S
C375 C372 1.511 1_545 S
C375 H389 0.961 . S
C375 H390 0.961 . S
C375 H391 0.961 . S
C376 C377 1.370 . S
C376 C378 1.363 . S
C376 H392 0.931 . S
C377 C376 1.370 . S
C377 C381 1.408 . S
C378 C376 1.363 . S
C378 C379 1.370 . S
C378 C382 1.524 . S
C379 C371 1.503 1_545 S
C379 C378 1.370 . S
C379 C380 1.403 1_545 S
C380 C379 1.403 1_565 S
C380 C381 1.404 1_565 S
C380 C383 1.539 . S
C381 C377 1.408 . S
C381 C380 1.404 1_545 S
C381 H393 0.930 1_545 S
C382 C378 1.524 . S
C382 H394 0.956 . S
C382 H395 0.961 . S
C382 H396 0.961 . S
C383 C380 1.539 . S
C383 H397 0.958 . S
C383 H398 0.961 . S
C383 H399 0.960 . S
H384 C368 0.931 . S
H385 C373 0.929 . S
H386 C374 0.960 . S
H387 C374 0.962 . S
H388 C374 0.960 . S
H389 C375 0.961 . S
H390 C375 0.961 . S
H391 C375 0.961 . S
H392 C376 0.931 . S
H393 C381 0.930 1_565 S
H394 C382 0.956 . S
H395 C382 0.961 . S
H396 C382 0.961 . S
H397 C383 0.958 . S
H398 C383 0.961 . S
H399 C383 0.960 . S
C400 C401 1.391 1_545 S
C400 C402 1.394 . S
C400 H416 0.931 . S
C401 C400 1.391 1_565 S
C401 C405 1.376 . S
C402 C400 1.394 . S
C402 C403 1.369 1_545 S
C402 C406 1.531 . S
C403 C402 1.369 1_565 S
C403 C404 1.410 . S
C403 C411 1.503 1_565 S
C404 C403 1.410 . S
C404 C405 1.392 . S
C404 C407 1.511 . S
C405 C401 1.376 . S
C405 C404 1.392 . S
C405 H417 0.929 . S
C406 C402 1.531 . S
C406 H418 0.960 . S
C406 H419 0.962 . S
C406 H420 0.960 . S
C407 C404 1.511 . S
C407 H421 0.961 . S
C407 H422 0.961 . S
C407 H423 0.961 . S
C408 C409 1.370 . S
C408 C410 1.363 . S
C408 H424 0.931 . S
C409 C408 1.370 . S
C409 C413 1.408 . S
C410 C408 1.363 . S
C410 C411 1.370 . S
C410 C414 1.524 1_545 S
C411 C403 1.503 1_545 S
C411 C410 1.370 . S
C411 C412 1.403 . S
C412 C411 1.403 . S
C412 C413 1.404 . S
C412 C415 1.539 . S
C413 C409 1.408 . S
C413 C412 1.404 . S
C413 H425 0.930 . S
C414 C410 1.524 1_565 S
C414 H426 0.956 . S
C414 H427 0.961 . S
C414 H428 0.961 . S
C415 C412 1.539 . S
C415 H429 0.958 . S
C415 H430 0.961 . S
C415 H431 0.960 . S
H416 C400 0.931 . S
H417 C405 0.929 . S
H418 C406 0.960 . S
H419 C406 0.962 . S
H420 C406 0.960 . S
H421 C407 0.961 . S
H422 C407 0.961 . S
H423 C407 0.961 . S
H424 C408 0.931 . S
H425 C413 0.930 . S
H426 C414 0.956 . S
H427 C414 0.961 . S
H428 C414 0.961 . S
H429 C415 0.958 . S
H430 C415 0.961 . S
H431 C415 0.960 . S
C432 C433 1.391 . S
C432 C434 1.394 . S
C432 H448 0.931 . S
C433 C432 1.391 . S
C433 C437 1.376 . S
C434 C432 1.394 . S
C434 C435 1.369 . S
C434 C438 1.531 . S
C435 C434 1.369 . S
C435 C436 1.410 . S
C435 C443 1.503 1_565 S
C436 C435 1.410 . S
C436 C437 1.392 . S
C436 C439 1.511 1_565 S
C437 C433 1.376 . S
C437 C436 1.392 . S
C437 H449 0.929 . S
C438 C434 1.531 . S
C438 H450 0.960 . S
C438 H451 0.962 . S
C438 H452 0.960 . S
C439 C436 1.511 1_545 S
C439 H453 0.961 . S
C439 H454 0.961 . S
C439 H455 0.961 1_545 S
C440 C441 1.370 . S
C440 C442 1.363 . S
C440 H456 0.931 . S
C441 C440 1.370 . S
C441 C445 1.408 1_545 S
C442 C440 1.363 . S
C442 C443 1.370 . S
C442 C446 1.524 . S
C443 C435 1.503 1_545 S
C443 C442 1.370 . S
C443 C444 1.403 1_545 S
C444 C443 1.403 1_565 S
C444 C445 1.404 . S
C444 C447 1.539 . S
C445 C441 1.408 1_565 S
C445 C444 1.404 . S
C445 H457 0.930 . S
C446 C442 1.524 . S
C446 H458 0.956 . S
C446 H459 0.961 . S
C446 H460 0.961 . S
C447 C444 1.539 . S
C447 H461 0.958 . S
C447 H462 0.961 . S
C447 H463 0.960 . S
H448 C432 0.931 . S
H449 C437 0.929 . S
H450 C438 0.960 . S
H451 C438 0.962 . S
H452 C438 0.960 . S
H453 C439 0.961 . S
H454 C439 0.961 . S
H455 C439 0.961 1_565 S
H456 C440 0.931 . S
H457 C445 0.930 . S
H458 C446 0.956 . S
H459 C446 0.961 . S
H460 C446 0.961 . S
H461 C447 0.958 . S
H462 C447 0.961 . S
H463 C447 0.960 . S
C464 C465 1.391 . S
C464 C466 1.394 . S
C464 H480 0.931 . S
C465 C464 1.391 . S
C465 C469 1.376 . S
C466 C464 1.394 . S
C466 C467 1.369 . S
C466 C470 1.531 . S
C467 C466 1.369 . S
C467 C468 1.410 . S
C467 C475 1.503 1_565 S
C468 C467 1.410 . S
C468 C469 1.392 . S
C468 C471 1.511 1_565 S
C469 C465 1.376 . S
C469 C468 1.392 . S
C469 H481 0.929 . S
C470 C466 1.531 . S
C470 H482 0.960 . S
C470 H483 0.962 . S
C470 H484 0.960 . S
C471 C468 1.511 1_545 S
C471 H485 0.961 . S
C471 H486 0.961 . S
C471 H487 0.961 1_545 S
C472 C473 1.370 . S
C472 C474 1.363 . S
C472 H488 0.931 . S
C473 C472 1.370 . S
C473 C477 1.405 1_545 S
C474 C472 1.363 . S
C474 C475 1.370 . S
C474 C478 1.524 . S
C475 C467 1.503 1_545 S
C475 C474 1.370 . S
C475 C476 1.403 1_545 S
C476 C475 1.403 1_565 S
C476 C477 1.405 . S
C476 C479 1.539 . S
C477 C473 1.405 1_565 S
C477 C476 1.405 . S
C477 H489 0.931 . S
C478 C474 1.524 . S
C478 H490 0.956 . S
C478 H491 0.961 . S
C478 H492 0.961 . S
C479 C476 1.539 . S
C479 H493 0.958 . S
C479 H494 0.961 . S
C479 H495 0.960 . S
H480 C464 0.931 . S
H481 C469 0.929 . S
H482 C470 0.960 . S
H483 C470 0.962 . S
H484 C470 0.960 . S
H485 C471 0.961 . S
H486 C471 0.961 . S
H487 C471 0.961 1_565 S
H488 C472 0.931 . S
H489 C477 0.931 . S
H490 C478 0.956 . S
H491 C478 0.961 . S
H492 C478 0.961 . S
H493 C479 0.958 . S
H494 C479 0.961 . S
H495 C479 0.960 . S
C496 C497 1.391 1_556 S
C496 C498 1.394 . S
C496 H512 0.931 . S
C497 C496 1.391 1_554 S
C497 C501 1.376 . S
C498 C496 1.394 . S
C498 C499 1.369 . S
C498 C502 1.531 . S
C499 C498 1.369 . S
C499 C500 1.414 1_556 S
C499 C507 1.503 1_565 S
C500 C499 1.414 1_554 S
C500 C501 1.402 . S
C500 C503 1.497 1_565 S
C501 C497 1.376 . S
C501 C500 1.402 . S
C501 H513 0.929 . S
C502 C498 1.531 . S
C502 H514 0.960 . S
C502 H515 0.962 1_556 S
C502 H516 0.960 . S
C503 C500 1.497 1_545 S
C503 H517 0.961 . S
C503 H518 0.961 . S
C503 H519 0.961 1_554 S
C504 C505 1.370 . S
C504 C506 1.363 . S
C504 H520 0.931 . S
C505 C504 1.370 . S
C505 C509 1.408 1_554 S
C506 C504 1.363 . S
C506 C507 1.370 1_554 S
C506 C510 1.524 . S
C507 C499 1.503 1_545 S
C507 C506 1.370 1_556 S
C507 C508 1.403 . S
C508 C507 1.403 . S
C508 C509 1.404 . S
C508 C511 1.539 . S
C509 C505 1.408 1_556 S
C509 C508 1.404 . S
C509 H521 0.930 . S
C510 C506 1.524 . S
C510 H522 0.956 1_545 S
C510 H523 0.961 . S
C510 H524 0.961 . S
C511 C508 1.539 . S
C511 H525 0.958 . S
C511 H526 0.961 . S
C511 H527 0.960 . S
H512 C496 0.931 . S
H513 C501 0.929 . S
H514 C502 0.960 . S
H515 C502 0.962 1_554 S
H516 C502 0.960 . S
H517 C503 0.961 . S
H518 C503 0.961 . S
H519 C503 0.961 1_556 S
H520 C504 0.931 . S
H521 C509 0.930 . S
H522 C510 0.956 1_565 S
H523 C510 0.961 . S
H524 C510 0.961 . S
H525 C511 0.958 . S
H526 C511 0.961 . S
H527 C511 0.960 . S
C528 C529 1.391 . S
C528 C530 1.394 . S
C528 H544 0.931 . S
C529 C528 1.391 . S
C529 C533 1.376 . S
C530 C528 1.394 . S
C530 C531 1.369 . S
C530 C534 1.531 . S
C531 C530 1.369 . S
C531 C532 1.410 . S
C531 C539 1.503 1_565 S
C532 C531 1.410 . S
C532 C533 1.392 . S
C532 C535 1.511 1_565 S
C533 C529 1.376 . S
C533 C532 1.392 . S
C533 H545 0.929 . S
C534 C530 1.531 . S
C534 H546 0.960 . S
C534 H547 0.962 . S
C534 H548 0.960 . S
C535 C532 1.511 1_545 S
C535 H549 0.961 . S
C535 H550 0.961 . S
C535 H551 0.961 . S
C536 C537 1.370 . S
C536 C538 1.363 . S
C536 H552 0.931 . S
C537 C536 1.370 . S
C537 C541 1.408 . S
C538 C536 1.363 . S
C538 C539 1.370 . S
C538 C542 1.524 1_545 S
C539 C531 1.503 1_545 S
C539 C538 1.370 . S
C539 C540 1.403 . S
C540 C539 1.403 . S
C540 C541 1.404 . S
C540 C543 1.539 . S
C541 C537 1.408 . S
C541 C540 1.404 . S
C541 H553 0.930 . S
C542 C538 1.524 1_565 S
C542 H554 0.956 . S
C542 H555 0.961 . S
C542 H556 0.961 . S
C543 C540 1.539 . S
C543 H557 0.958 . S
C543 H558 0.961 . S
C543 H559 0.960 . S
H544 C528 0.931 . S
H545 C533 0.929 . S
H546 C534 0.960 . S
H547 C534 0.962 . S
H548 C534 0.960 . S
H549 C535 0.961 . S
H550 C535 0.961 . S
H551 C535 0.961 . S
H552 C536 0.931 . S
H553 C541 0.930 . S
H554 C542 0.956 . S
H555 C542 0.961 . S
H556 C542 0.961 . S
H557 C543 0.958 . S
H558 C543 0.961 . S
H559 C543 0.960 . S
C560 C561 1.391 . S
C560 C562 1.394 . S
C560 H576 0.931 . S
C561 C560 1.391 . S
C561 C565 1.376 1_554 S
C562 C560 1.394 . S
C562 C563 1.369 1_554 S
C562 C566 1.531 1_455 S
C563 C562 1.369 1_556 S
C563 C564 1.410 . S
C563 C571 1.503 1_456 S
C564 C563 1.410 . S
C564 C565 1.392 . S
C564 C567 1.511 . S
C565 C561 1.376 1_556 S
C565 C564 1.392 . S
C565 H577 0.929 . S
C566 C562 1.531 1_655 S
C566 H578 0.960 . S
C566 H579 0.962 . S
C566 H580 0.960 . S
C567 C564 1.511 . S
C567 H581 0.961 . S
C567 H582 0.961 . S
C567 H583 0.961 . S
C568 C569 1.370 . S
C568 C570 1.363 . S
C568 H584 0.931 . S
C569 C568 1.370 . S
C569 C573 1.408 1_554 S
C570 C568 1.363 . S
C570 C571 1.386 . S
C570 C574 1.524 1_655 S
C571 C563 1.503 1_654 S
C571 C570 1.386 . S
C571 C572 1.388 1_554 S
C572 C571 1.388 1_556 S
C572 C573 1.404 . S
C572 C575 1.539 . S
C573 C569 1.408 1_556 S
C573 C572 1.404 . S
C573 H585 0.930 . S
C574 C570 1.524 1_455 S
C574 H586 0.956 . S
C574 H587 0.961 . S
C574 H588 0.961 . S
C575 C572 1.539 . S
C575 H589 0.958 . S
C575 H590 0.961 . S
C575 H591 0.960 . S
H576 C560 0.931 . S
H577 C565 0.929 . S
H578 C566 0.960 . S
H579 C566 0.962 . S
H580 C566 0.960 . S
H581 C567 0.961 . S
H582 C567 0.961 . S
H583 C567 0.961 . S
H584 C568 0.931 . S
H585 C573 0.930 . S
H586 C574 0.956 . S
H587 C574 0.961 . S
H588 C574 0.961 . S
H589 C575 0.958 . S
H590 C575 0.961 . S
H591 C575 0.960 . S
C592 C593 1.391 . S
C592 C594 1.394 . S
C592 H608 0.931 . S
C593 C592 1.391 . S
C593 C597 1.376 . S
C594 C592 1.394 . S
C594 C595 1.369 . S
C594 C598 1.531 . S
C595 C594 1.369 . S
C595 C596 1.410 . S
C595 C603 1.503 1_455 S
C596 C595 1.410 . S
C596 C597 1.392 . S
C596 C599 1.511 1_455 S
C597 C593 1.376 . S
C597 C596 1.392 . S
C597 H609 0.929 . S
C598 C594 1.531 . S
C598 H610 0.960 . S
C598 H611 0.962 . S
C598 H612 0.960 . S
C599 C596 1.511 1_655 S
C599 H613 0.961 . S
C599 H614 0.961 . S
C599 H615 0.961 . S
C600 C601 1.370 . S
C600 C602 1.363 . S
C600 H616 0.931 . S
C601 C600 1.370 . S
C601 C605 1.408 . S
C602 C600 1.363 . S
C602 C603 1.370 . S
C602 C606 1.524 1_655 S
C603 C595 1.503 1_655 S
C603 C602 1.370 . S
C603 C604 1.403 . S
C604 C603 1.403 . S
C604 C605 1.404 . S
C604 C607 1.539 . S
C605 C601 1.408 . S
C605 C604 1.404 . S
C605 H617 0.930 . S
C606 C602 1.524 1_455 S
C606 H618 0.956 . S
C606 H619 0.961 . S
C606 H620 0.961 . S
C607 C604 1.539 . S
C607 H621 0.958 . S
C607 H622 0.961 . S
C607 H623 0.960 . S
H608 C592 0.931 . S
H609 C597 0.929 . S
H610 C598 0.960 . S
H611 C598 0.962 . S
H612 C598 0.960 . S
H613 C599 0.961 . S
H614 C599 0.961 . S
H615 C599 0.961 . S
H616 C600 0.931 . S
H617 C605 0.930 . S
H618 C606 0.956 . S
H619 C606 0.961 . S
H620 C606 0.961 . S
H621 C607 0.958 . S
H622 C607 0.961 . S
H623 C607 0.960 . S
C113 C75 1.498 . S
C121 C5 1.498 . S
C145 C61 1.493 . S
C153 C19 1.500 . S
C177 C103 1.495 . S
C185 C33 1.499 . S
C209 C89 1.495 . S
C217 C47 1.499 . S
C241 C0 1.418 . S
C249 C28 1.421 . S
C273 C14 1.409 . S
C281 C42 1.412 . S
C305 C23 1.420 . S
C313 C51 1.411 . S
C337 C9 1.419 . S
C345 C37 1.413 . S
C369 C56 1.407 . S
C377 C84 1.411 . S
C401 C98 1.423 . S
C409 C70 1.422 . S
C433 C107 1.400 . S
C441 C79 1.420 . S
C465 C65 1.401 . S
C473 C93 1.420 . S
C497 C25 1.489 . S
C505 C11 1.497 . S
C529 C39 1.485 . S
C537 C53 1.500 . S
C561 C67 1.496 . S
C569 C81 1.495 . S
C593 C95 1.501 . S
C601 C109 1.494 . S
