# Generated by pormake.
# Topology sxa, (6)-cn, num edge types: 1
# Building blocks:
#     Node 0, Type 0, BuildingBlock: VOLQOD_clean_sbu_1, # of connection points: 6
#     Node 1, Type 0, BuildingBlock: VOLQOD_clean_sbu_1, # of connection points: 6
#     Node 2, Type 0, BuildingBlock: VOLQOD_clean_sbu_1, # of connection points: 6
#     Node 3, Type 0, BuildingBlock: VOLQOD_clean_sbu_1, # of connection points: 6
#     Edge 4, Type (0, 0), BuildingBlock: ZUJKAS_clean_linker_0, # of connection points: 2
#     Edge 5, Type (0, 0), BuildingBlock: ZUJKAS_clean_linker_0, # of connection points: 2
#     Edge 6, Type (0, 0), BuildingBlock: ZUJKAS_clean_linker_0, # of connection points: 2
#     Edge 7, Type (0, 0), BuildingBlock: ZUJKAS_clean_linker_0, # of connection points: 2
#     Edge 8, Type (0, 0), BuildingBlock: ZUJKAS_clean_linker_0, # of connection points: 2
#     Edge 9, Type (0, 0), BuildingBlock: ZUJKAS_clean_linker_0, # of connection points: 2
#     Edge 10, Type (0, 0), BuildingBlock: ZUJKAS_clean_linker_0, # of connection points: 2
#     Edge 11, Type (0, 0), BuildingBlock: ZUJKAS_clean_linker_0, # of connection points: 2
#     Edge 12, Type (0, 0), BuildingBlock: ZUJKAS_clean_linker_0, # of connection points: 2
#     Edge 13, Type (0, 0), BuildingBlock: ZUJKAS_clean_linker_0, # of connection points: 2
#     Edge 14, Type (0, 0), BuildingBlock: ZUJKAS_clean_linker_0, # of connection points: 2
#     Edge 15, Type (0, 0), BuildingBlock: ZUJKAS_clean_linker_0, # of connection points: 2
# Relax obj value: 0.229
# Max RMSD: 0.203
# Mean RMSD: 0.203
data_MOF--net-sxa--node1-VOLQOD_clean_sbu_1--edge1-ZUJKAS_clean_linker_0
_symmetry_space_group_name_H-M    P1
_symmetry_Int_Tables_number       1
_symmetry_cell_setting            triclinic
loop_
_symmetry_equiv_pos_as_xyz
'x, y, z'
_cell_length_a     32.077839
_cell_length_b     38.138047
_cell_length_c     22.91452
_cell_angle_alpha  89.977337
_cell_angle_beta   91.959406
_cell_angle_gamma 89.311266
loop_
_atom_site_label
_atom_site_type_symbol
_atom_site_fract_x
_atom_site_fract_y
_atom_site_fract_z
_atom_type_partial_charge
O0 O 0.93456 0.75515 0.32318 0.0
Zn1 Zn -0.00703 0.74602 0.293 0.0
O2 O 0.00437 0.78214 0.23632 0.0
Zn3 Zn 0.03057 0.76152 0.1707 0.0
Zn4 Zn 0.9543 0.80577 0.20928 0.0
Zn5 Zn 0.04194 0.81641 0.26893 0.0
O6 O 0.09298 0.76397 0.179 0.0
O7 O 0.10041 0.80561 0.24605 0.0
O8 O -0.00514 0.69629 0.25402 0.0
O9 O 0.01592 0.71166 0.16638 0.0
O10 O 0.0078 0.7825 0.09597 0.0
O11 O 0.94341 0.79371 0.12529 0.0
O12 O 0.9631 0.85793 0.20346 0.0
O13 O 0.03542 0.75281 0.36096 0.0
O14 O 0.02771 0.86539 0.23828 0.0
O15 O 0.04507 0.81062 0.35602 0.0
C16 C 0.90362 0.7743 0.30554 0.0
C17 C 0.11596 0.78343 0.21133 0.0
C18 C 0.96966 0.79041 0.08494 0.0
C19 C 0.00309 0.68855 0.20115 0.0
C20 C -0.00542 0.87745 0.21277 0.0
C21 C 0.04971 0.78137 0.3829 0.0
O22 O 0.90598 0.7943 0.26103 0.0
O23 O 0.45535 0.27378 0.35491 0.0
Zn24 Zn 0.49505 0.26814 0.28725 0.0
O25 O 0.48201 0.30643 0.2338 0.0
Zn26 Zn 0.44994 0.28924 0.16712 0.0
Zn27 Zn 0.45008 0.34231 0.2725 0.0
Zn28 Zn 0.53195 0.32728 0.20783 0.0
O29 O 0.47418 0.30475 0.09136 0.0
O30 O 0.53932 0.31427 0.12453 0.0
O31 O 0.49 0.22028 0.24442 0.0
O32 O 0.45575 0.23743 0.16343 0.0
O33 O 0.38875 0.30013 0.17494 0.0
O34 O 0.39024 0.33684 0.24999 0.0
O35 O 0.46628 0.39175 0.24667 0.0
O36 O 0.55481 0.27324 0.31835 0.0
O37 O 0.52565 0.37947 0.20383 0.0
O38 O 0.58151 0.31324 0.26003 0.0
C39 C 0.44275 0.30161 0.38066 0.0
C40 C 0.51266 0.30999 0.08266 0.0
C41 C 0.37006 0.31912 0.21188 0.0
C42 C 0.4727 0.21333 0.19466 0.0
C43 C 0.49774 0.40149 0.2183 0.0
C44 C 0.58543 0.29175 0.30266 0.0
O45 O 0.44881 0.33204 0.35911 0.0
O46 O 0.06466 0.25272 0.738 0.0
Zn47 Zn 0.00666 0.24289 0.76727 0.0
O48 O -0.00549 0.2754 0.82924 0.0
Zn49 Zn 0.96733 0.25175 0.8911 0.0
Zn50 Zn 0.04525 0.29396 0.86171 0.0
Zn51 Zn 0.9585 0.31333 0.80212 0.0
O52 O 0.90564 0.25947 0.88623 0.0
O53 O 0.89979 0.3052 0.82645 0.0
O54 O 0.00505 0.19168 0.79813 0.0
O55 O 0.97661 0.20063 0.88421 0.0
O56 O -0.00702 0.265 0.96904 0.0
O57 O 0.05776 0.27015 0.93852 0.0
O58 O 0.03637 0.34487 0.8829 0.0
O59 O 0.964 0.25368 0.70114 0.0
O60 O 0.97621 0.36003 0.83852 0.0
O61 O 0.95261 0.31102 0.71425 0.0
C62 C 0.09512 0.27107 0.75763 0.0
C63 C 0.88351 0.28216 0.85835 0.0
C64 C 0.03223 0.26571 0.97935 0.0
C65 C -0.00833 0.18019 0.84645 0.0
C66 C 0.00766 0.36754 0.87173 0.0
C67 C 0.94855 0.28316 0.68355 0.0
O68 O 0.09254 0.28824 0.80527 0.0
O69 O 0.54359 0.77318 0.70816 0.0
Zn70 Zn 0.50412 0.76711 0.776 0.0
O71 O 0.51576 0.80494 0.83039 0.0
Zn72 Zn 0.54766 0.78727 0.89757 0.0
Zn73 Zn 0.5474 0.84055 0.79279 0.0
Zn74 Zn 0.46533 0.82645 0.85544 0.0
O75 O 0.52218 0.80241 0.97311 0.0
O76 O 0.45735 0.81287 0.93826 0.0
O77 O 0.50985 0.71902 0.81814 0.0
O78 O 0.54228 0.7356 0.90048 0.0
O79 O 0.60911 0.79699 0.89059 0.0
O80 O 0.60693 0.83296 0.81443 0.0
O81 O 0.53134 0.88999 0.82015 0.0
O82 O 0.4444 0.77231 0.74522 0.0
O83 O 0.4711 0.87869 0.86054 0.0
O84 O 0.4163 0.8127 0.8025 0.0
C85 C 0.55573 0.80132 0.6836 0.0
C86 C 0.48342 0.80784 0.9808 0.0
C87 C 0.62743 0.81503 0.85247 0.0
C88 C 0.52634 0.71176 0.86842 0.0
C89 C 0.49942 0.9002 0.8477 0.0
C90 C 0.41319 0.7909 0.76031 0.0
O91 O 0.54898 0.83148 0.70614 0.0
H92 H 0.06921 0.39175 0.94667 0.0
H93 H 0.06694 0.4431 1.01005 0.0
H94 H 0.94602 0.47159 0.93561 0.0
H95 H 0.94765 0.41983 0.87243 0.0
H96 H 0.06104 0.51274 0.98616 0.0
H97 H 0.92425 0.47206 0.10992 0.0
H98 H 0.95176 0.44246 0.06282 0.0
H99 H 0.9143 0.47345 1.03236 0.0
C100 C 0.04218 0.40901 0.94325 0.0
C101 C 0.00853 0.40142 0.90431 0.0
C102 C 0.04089 0.43836 0.97984 0.0
C103 C 0.00588 0.46083 0.97878 0.0
C104 C 0.97291 0.45415 0.93845 0.0
H105 H 0.98451 0.67244 0.08875 0.0
H106 H -0.01497 0.61531 0.042 0.0
C107 C 0.97414 0.42474 0.90173 0.0
C108 C 0.00448 0.49159 1.01896 0.0
H109 H 0.94676 0.53116 0.12399 0.0
C110 C 0.03623 0.51652 1.01662 0.0
C111 C 0.97255 0.49636 0.05964 0.0
C112 C 0.93899 0.4695 0.06692 0.0
C113 C 0.03599 0.54666 0.05188 0.0
C114 C 0.00291 0.55236 0.09026 0.0
C115 C 0.972 0.52684 0.09443 0.0
C116 C -0.00176 0.58628 0.12159 0.0
C117 C 0.07091 0.57256 0.04717 0.0
C118 C 0.00366 0.58895 0.1827 0.0
C119 C 0.00322 0.62204 0.21014 0.0
C120 C -0.00253 0.65274 0.17659 0.0
C121 C -0.01023 0.64945 0.11595 0.0
C122 C -0.00995 0.61674 0.08894 0.0
H123 H 0.09895 0.56037 1.02801 0.0
H124 H 0.0603 0.59457 1.01842 0.0
H125 H 0.07984 0.58354 0.09064 0.0
H126 H 0.00974 0.56564 0.20877 0.0
H127 H 0.00924 0.6237 0.25684 0.0
H128 H 0.434 0.45026 0.20478 0.0
H129 H 0.43347 0.50269 0.14245 0.0
H130 H 0.56341 0.48527 0.10855 0.0
H131 H 0.56427 0.4331 0.17014 0.0
H132 H 0.48128 0.56491 0.14179 0.0
H133 H 0.5071 0.48487 0.94427 0.0
H134 H 0.4917 0.46601 1.01243 0.0
H135 H 0.54534 0.47686 1.00193 0.0
C136 C 0.46271 0.45804 0.18517 0.0
C137 C 0.49909 0.43721 0.19223 0.0
C138 C 0.46226 0.48787 0.14913 0.0
C139 C 0.49809 0.4973 0.11941 0.0
C140 C 0.53508 0.47796 0.12966 0.0
H141 H 0.57514 0.68495 0.95708 0.0
H142 H 0.56402 0.63212 1.01378 0.0
C143 C 0.53558 0.44827 0.16547 0.0
C144 C 0.49702 0.52679 0.0767 0.0
H145 H 0.51691 0.54674 0.93472 0.0
C146 C 0.48861 0.56088 0.09641 0.0
C147 C 0.5058 0.52152 1.01708 0.0
C148 C 0.51258 0.4853 0.99241 0.0
C149 C 0.4909 0.58996 0.0589 0.0
C150 C 0.50232 0.58488 1.00028 0.0
C151 C 0.50861 0.55066 0.97976 0.0
C152 C 0.51078 0.61504 0.96137 0.0
C153 C 0.48161 0.62604 0.08254 0.0
C154 C 0.48587 0.62212 0.9109 0.0
C155 C 0.49231 0.65253 0.87773 0.0
C156 C 0.52388 0.67616 0.89458 0.0
C157 C 0.55023 0.66761 0.94307 0.0
C158 C 0.5438 0.63747 0.9759 0.0
H159 H 0.46258 0.62478 0.12208 0.0
H160 H 0.5114 0.63906 0.09479 0.0
H161 H 0.46482 0.64252 0.04915 0.0
H162 H 0.46046 0.6049 0.89854 0.0
H163 H 0.47135 0.6584 0.84088 0.0
H164 H 0.43322 0.93189 0.89898 0.0
H165 H 0.43352 0.98476 0.95875 0.0
H166 H 0.56224 1.00176 0.91989 0.0
H167 H 0.56223 0.94869 0.85939 0.0
H168 H 0.48517 0.99502 0.05874 0.0
H169 H 0.50773 0.09894 0.89285 0.0
H170 H 0.49116 0.05529 0.87331 0.0
H171 H 0.54484 0.06323 0.89318 0.0
C172 C 0.46146 0.94716 0.90201 0.0
C173 C 0.49772 0.9359 0.87409 0.0
C174 C 0.46161 0.97734 0.93663 0.0
C175 C 0.49788 0.99727 0.94405 0.0
C176 C 0.53371 0.98705 0.91438 0.0
H177 H 0.52776 0.15866 0.2211 0.0
H178 H 0.53707 0.10442 0.16442 0.0
C179 C 0.53361 0.95673 0.87956 0.0
C180 C 0.49824 1.02765 0.98502 0.0
H181 H 0.50576 0.11689 0.99116 0.0
C182 C 0.48996 1.02167 0.04407 0.0
C183 C 0.50438 0.06241 0.96588 0.0
C184 C 0.51222 0.0706 0.90281 0.0
C185 C 0.48689 0.0495 0.08414 0.0
C186 C 0.49256 0.08428 0.06483 0.0
C187 C 0.50164 0.09019 1.00604 0.0
C188 C 0.48559 0.11521 0.1032 0.0
C189 C 0.47605 0.04166 0.14629 0.0
C190 C 0.45326 0.13894 0.0884 0.0
C191 C 0.44787 0.16963 0.12054 0.0
C192 C 0.47481 0.17765 0.16841 0.0
C193 C 0.50622 0.15316 0.18493 0.0
C194 C 0.51165 0.12221 0.15242 0.0
H195 H 0.46592 1.01414 0.15186 0.0
H196 H 0.50384 0.04599 0.17544 0.0
H197 H 0.4508 0.05956 0.16055 0.0
H198 H 0.43259 0.13405 0.05096 0.0
H199 H 0.42319 0.18771 0.10659 0.0
H200 H 0.92903 0.91248 0.15847 0.0
H201 H 0.93221 0.96326 0.09387 0.0
H202 H 0.06391 0.97209 0.13386 0.0
H203 H 0.06121 0.92103 0.19848 0.0
H204 H 0.95965 1.03321 0.11219 0.0
H205 H 0.05713 0.96193 0.95382 0.0
H206 H 0.02997 0.9397 1.01054 0.0
H207 H 0.07722 0.96281 1.02801 0.0
C208 C 0.95861 0.92551 0.15449 0.0
C209 C -0.00508 0.9124 0.18365 0.0
C210 C 0.96038 0.95452 0.11724 0.0
C211 C -0.00154 0.97098 0.10789 0.0
C212 C 0.03433 0.95931 0.1394 0.0
H213 H 0.0623 0.14373 0.87765 0.0
H214 H 0.06528 0.09066 0.93864 0.0
C215 C 0.0326 0.93034 0.17695 0.0
C216 C 0.0005 0.99973 0.06409 0.0
H217 H 0.04045 1.02112 0.93226 0.0
C218 C 0.97732 1.03058 0.07288 0.0
C219 C 0.02368 0.99632 1.01281 0.0
C220 C 0.04821 0.96334 1.0002 0.0
C221 C 0.97689 0.05819 1.03218 0.0
C222 C -0.00068 0.05452 0.98018 0.0
C223 C 0.02301 1.02384 0.97175 0.0
C224 C -0.00143 0.0825 0.93463 0.0
C225 C 0.95303 0.09135 0.04599 0.0
C226 C 0.9605 0.09427 0.90904 0.0
C227 C 0.95884 0.1245 0.87438 0.0
C228 C -0.00467 0.14294 0.8632 0.0
C229 C 0.03388 0.12942 0.88434 0.0
C230 C 0.0355 0.09935 0.91975 0.0
H231 H 0.9479 0.09386 0.09353 0.0
H232 H 0.96971 0.11494 1.03125 0.0
H233 H 0.92199 0.09079 1.02314 0.0
H234 H 0.93171 0.08124 0.9186 0.0
H235 H 0.92869 0.13479 0.8595 0.0
H236 H 0.3391 0.82506 0.77979 0.0
H237 H 0.27314 0.82008 0.72376 0.0
H238 H 0.32916 0.74359 0.61123 0.0
H239 H 0.3953 0.74856 0.66645 0.0
H240 H 0.28711 0.7972 0.55107 0.0
H241 H 0.1878 0.74046 0.72004 0.0
H242 H 0.21478 0.77951 0.7423 0.0
H243 H 0.24407 0.74034 0.72683 0.0
C244 C 0.33738 0.80698 0.74338 0.0
C245 C 0.37264 0.78723 0.72769 0.0
C246 C 0.29951 0.80399 0.71166 0.0
C247 C 0.29606 0.78109 0.66384 0.0
C248 C 0.33107 0.76126 0.64822 0.0
H249 H 0.08208 0.72347 0.44087 0.0
H250 H 0.13972 0.72247 0.51399 0.0
C251 C 0.3689 0.76418 0.67989 0.0
C252 C 0.25679 0.77933 0.62782 0.0
H253 H 0.15305 0.7601 0.63217 0.0
C254 C 0.25787 0.78894 0.56878 0.0
C255 C 0.21872 0.76826 0.65089 0.0
C256 C 0.21614 0.75623 0.71336 0.0
C257 C 0.22179 0.78846 0.53246 0.0
C258 C 0.18351 0.77842 0.55592 0.0
C259 C 0.18243 0.76809 0.6146 0.0
C260 C 0.14447 0.77888 0.51951 0.0
C261 C 0.22482 0.79862 0.46907 0.0
C262 C 0.12704 0.81092 0.50048 0.0
C263 C 0.09413 0.81163 0.459 0.0
C264 C 0.07802 0.78025 0.43556 0.0
C265 C 0.09369 0.74812 0.45787 0.0
C266 C 0.12668 0.74746 0.49957 0.0
H267 H 0.25766 0.79916 0.45522 0.0
H268 H 0.20714 0.78007 0.44055 0.0
H269 H 0.21093 0.82516 0.46226 0.0
H270 H 0.14013 0.83543 0.51587 0.0
H271 H 0.0827 0.83688 0.44329 0.0
H272 H 0.16772 0.30569 0.78626 0.0
H273 H 0.23004 0.31077 0.72811 0.0
H274 H 0.17301 0.24623 0.59405 0.0
H275 H 0.11053 0.24113 0.65148 0.0
H276 H 0.28432 0.2581 0.68379 0.0
H277 H 0.20565 0.33541 0.50571 0.0
H278 H 0.18289 0.32933 0.57593 0.0
H279 H 0.18052 0.29495 0.52235 0.0
C280 C 0.16836 0.2925 0.74444 0.0
C281 C 0.13381 0.27316 0.72353 0.0
C282 C 0.20411 0.2954 0.71129 0.0
C283 C 0.20602 0.2793 0.65633 0.0
C284 C 0.17201 0.25939 0.63587 0.0
H285 H 0.41689 0.24163 0.43469 0.0
H286 H 0.36224 0.23659 0.50601 0.0
C287 C 0.13632 0.25638 0.66899 0.0
C288 C 0.24335 0.28355 0.62013 0.0
H289 H 0.27444 0.31527 0.48924 0.0
C290 C 0.28222 0.27069 0.64133 0.0
C291 C 0.24074 0.30036 0.56501 0.0
C292 C 0.20032 0.31612 0.54096 0.0
C293 C 0.31831 0.27355 0.60836 0.0
C294 C 0.31541 0.28947 0.55253 0.0
C295 C 0.27668 0.3029 0.53189 0.0
C296 C 0.35193 0.2925 0.51441 0.0
C297 C 0.35934 0.25991 0.63382 0.0
C298 C 0.36472 0.32559 0.49561 0.0
C299 C 0.396 0.3286 0.45482 0.0
C300 C 0.41503 0.29851 0.43132 0.0
C301 C 0.40323 0.26539 0.45196 0.0
C302 C 0.37197 0.26244 0.49294 0.0
H303 H 0.3585 0.25672 0.68197 0.0
H304 H 0.36626 0.23388 0.61456 0.0
H305 H 0.38517 0.27777 0.62353 0.0
H306 H 0.3497 0.34917 0.51145 0.0
H307 H 0.40402 0.35455 0.44001 0.0
H308 H 0.92035 0.22812 0.61631 0.0
H309 H 0.86358 0.22944 0.54231 0.0
H310 H 0.85442 0.34184 0.55863 0.0
H311 H 0.91078 0.34086 0.63287 0.0
H312 H 0.77964 0.30816 0.57451 0.0
H313 H 0.85223 0.262 0.37151 0.0
H314 H 0.86241 0.23434 0.43402 0.0
H315 H 0.88248 0.27812 0.4336 0.0
C316 C 0.90702 0.25325 0.60318 0.0
C317 C 0.92009 0.28436 0.63096 0.0
C318 C 0.87457 0.25394 0.56067 0.0
C319 C 0.85482 0.28576 0.54477 0.0
C320 C 0.86921 0.317 0.57022 0.0
H321 H 0.65828 0.32566 0.2809 0.0
H322 H 0.72394 0.32335 0.3384 0.0
C323 C 0.90157 0.31635 0.61265 0.0
C324 C 0.81652 0.28623 0.50641 0.0
H325 H 0.77797 0.26524 0.37012 0.0
C326 C 0.77934 0.29891 0.52974 0.0
C327 C 0.8162 0.27433 0.44793 0.0
C328 C 0.85551 0.2617 0.41994 0.0
C329 C 0.74177 0.29963 0.49651 0.0
C330 C 0.74116 0.28685 0.43855 0.0
C331 C 0.77844 0.27468 0.41478 0.0
C332 C 0.70209 0.28651 0.40191 0.0
C333 C 0.70311 0.31451 0.5235 0.0
C334 C 0.66826 0.26602 0.41791 0.0
C335 C 0.63062 0.26727 0.38521 0.0
C336 C 0.62607 0.289 0.33567 0.0
C337 C 0.6605 0.30876 0.3189 0.0
C338 C 0.69815 0.30742 0.35161 0.0
H339 H 0.71079 0.33064 0.56269 0.0
H340 H 0.68482 0.33092 0.49155 0.0
H341 H 0.68308 0.29265 0.53712 0.0
H342 H 0.67085 0.24928 0.4561 0.0
H343 H 0.60494 0.25153 0.39929 0.0
H344 H 0.89459 0.75872 0.42086 0.0
H345 H 0.83104 0.76147 0.47646 0.0
H346 H 0.76013 0.79095 0.32029 0.0
H347 H 0.82422 0.79028 0.26528 0.0
H348 H 0.73477 0.8288 0.40242 0.0
H349 H 0.74022 0.69426 0.49043 0.0
H350 H 0.78692 0.71677 0.51193 0.0
H351 H 0.7753 0.70843 0.4356 0.0
C352 C 0.86539 0.76549 0.39824 0.0
C353 C 0.86448 0.77409 0.33852 0.0
C354 C 0.82886 0.76675 0.43005 0.0
C355 C 0.79022 0.7755 0.40258 0.0
C356 C 0.78931 0.78393 0.34274 0.0
H357 H 0.56461 0.74706 0.60559 0.0
H358 H 0.61711 0.74102 0.53075 0.0
C359 C 0.82602 0.78348 0.31121 0.0
C360 C 0.75129 0.77768 0.43678 0.0
H361 H 0.6962 0.7353 0.54014 0.0
C362 C 0.72614 0.80807 0.43192 0.0
C363 C 0.73897 0.75045 0.47447 0.0
C364 C 0.76155 0.71552 0.47787 0.0
C365 C 0.69024 0.81252 0.4649 0.0
C366 C 0.67995 0.78656 0.50617 0.0
C367 C 0.70417 0.75559 0.50943 0.0
C368 C 0.64541 0.79146 0.54784 0.0
C369 C 0.6635 0.84486 0.4542 0.0
C370 C 0.64328 0.82183 0.58237 0.0
C371 C 0.61263 0.8257 0.62394 0.0
C372 C 0.58395 0.79883 0.63349 0.0
C373 C 0.58595 0.76838 0.59901 0.0
C374 C 0.61616 0.76485 0.5564 0.0
H375 H 0.66575 0.85424 0.4085 0.0
H376 H 0.63021 0.83995 0.46267 0.0
H377 H 0.67475 0.86624 0.48333 0.0
H378 H 0.66621 0.84223 0.57866 0.0
H379 H 0.61276 0.84915 0.6506 0.0
H380 H 0.49625 0.75487 0.0591 0.0
H381 H 0.44878 0.74038 0.13727 0.0
H382 H 0.38419 0.83913 0.10972 0.0
H383 H 0.43069 0.85323 1.03118 0.0
H384 H 0.38801 0.80509 0.23637 0.0
H385 H 0.32978 0.72496 0.04722 0.0
H386 H 0.3834 0.72114 0.07258 0.0
H387 H 0.36536 0.76042 0.03629 0.0
C388 C 0.47324 0.77415 0.07194 0.0
C389 C 0.46661 0.80498 0.03922 0.0
C390 C 0.44622 0.76586 0.11647 0.0
C391 C 0.41296 0.78864 0.12874 0.0
C392 C 0.40986 0.82137 0.101 0.0
H393 H 0.17385 0.83431 0.22641 0.0
H394 H 0.24935 0.82813 0.22077 0.0
C395 C 0.43626 0.82935 0.05604 0.0
C396 C 0.37573 0.77578 0.15754 0.0
H397 H 0.28274 0.73913 0.1186 0.0
C398 C 0.36527 0.78973 0.21174 0.0
C399 C 0.34644 0.75543 0.12544 0.0
C400 C 0.35648 0.73953 0.0671 0.0
C401 C 0.32501 0.78575 0.23291 0.0
C402 C 0.29423 0.76886 0.19747 0.0
C403 C 0.30602 0.75238 0.14569 0.0
C404 C 0.24896 0.77173 0.20841 0.0
C405 C 0.31579 0.80048 0.29222 0.0
C406 C 0.22315 0.7424 0.20125 0.0
C407 C 0.17982 0.74625 0.20163 0.0
C408 C 0.16158 0.77937 0.21049 0.0
C409 C 0.18727 0.80848 0.2197 0.0
C410 C 0.23051 0.80481 0.21757 0.0
H411 H 0.34349 0.79766 0.3224 0.0
H412 H 0.30865 0.82894 0.28808 0.0
H413 H 0.28899 0.78728 0.31191 0.0
H414 H 0.2365 0.71663 0.19376 0.0
H415 H 0.16058 0.72332 0.19524 0.0
H416 H -0.00538 0.28722 0.07911 0.0
H417 H 0.02935 0.29545 0.17547 0.0
H418 H 0.14194 0.24889 0.1104 0.0
H419 H 0.10778 0.24069 1.01533 0.0
H420 H 0.1265 0.23405 0.23338 0.0
H421 H 0.1155 0.37605 0.17599 0.0
H422 H 0.06961 0.3498 0.18333 0.0
H423 H 0.10106 0.34458 0.12047 0.0
C424 C 0.02639 0.27783 0.08623 0.0
C425 C 0.04897 0.264 0.03976 0.0
C426 C 0.04609 0.28255 0.14112 0.0
C427 C 0.08824 0.27309 0.14973 0.0
C428 C 0.1093 0.25626 0.10473 0.0
H429 H 0.31716 0.2752 0.15262 0.0
H430 H 0.24325 0.2669 0.16842 0.0
C431 C 0.08993 0.2519 0.0502 0.0
C432 C 0.11392 0.28597 0.19961 0.0
H433 H 0.18026 0.35462 0.21336 0.0
C434 C 0.13726 0.26089 0.23194 0.0
C435 C 0.12729 0.32119 0.19925 0.0
C436 C 0.1021 0.34966 0.16822 0.0
C437 C 0.17753 0.26855 0.25331 0.0
C438 C 0.19411 0.30187 0.24181 0.0
C439 C 0.16767 0.32875 0.22045 0.0
C440 C 0.23936 0.30636 0.23608 0.0
C441 C 0.20373 0.23979 0.28163 0.0
C442 C 0.26105 0.33247 0.26692 0.0
C443 C 0.30336 0.33756 0.25749 0.0
C444 C 0.32436 0.31692 0.21643 0.0
C445 C 0.30201 0.29158 0.18438 0.0
C446 C 0.25994 0.28639 0.19414 0.0
H447 H 0.18406 0.22189 0.30691 0.0
H448 H 0.21868 0.22402 0.24723 0.0
H449 H 0.22856 0.25066 0.31112 0.0
H450 H 0.24535 0.34866 0.29842 0.0
H451 H 0.31972 0.3573 0.28301 0.0
H452 H 0.55809 0.3584 1.02854 0.0
H453 H 0.60495 0.34653 0.94912 0.0
H454 H 0.55325 0.2432 0.92848 0.0
H455 H 0.50526 0.25554 1.00725 0.0
H456 H 0.63667 0.24832 0.9772 0.0
H457 H 0.61872 0.32455 0.77218 0.0
H458 H 0.60744 0.34944 0.83644 0.0
H459 H 0.57504 0.31299 0.81602 0.0
C460 C 0.55515 0.33396 1.00471 0.0
C461 C 0.52844 0.3078 1.02362 0.0
C462 C 0.58169 0.32724 0.95909 0.0
C463 C 0.58242 0.29402 0.93283 0.0
C464 C 0.55264 0.26915 0.94766 0.0
H465 H 0.83644 0.22362 0.85843 0.0
H466 H 0.7604 0.22032 0.86121 0.0
C467 C 0.52535 0.27618 0.99261 0.0
C468 C 0.62117 0.28276 0.90514 0.0
H469 H 0.68931 0.30849 0.80313 0.0
C470 C 0.64796 0.26053 0.93807 0.0
C471 C 0.63566 0.29921 0.85474 0.0
C472 C 0.60758 0.32267 0.81744 0.0
C473 C 0.69016 0.257 0.92542 0.0
C474 C 0.70544 0.27495 0.87653 0.0
C475 C 0.67766 0.2949 0.84072 0.0
C476 C 0.75069 0.27653 0.86603 0.0
C477 C 0.7184 0.23672 0.96783 0.0
C478 C 0.77029 0.30926 0.86412 0.0
C479 C 0.81356 0.31118 0.86057 0.0
C480 C 0.83788 0.2804 0.86025 0.0
C481 C 0.81826 0.2477 0.86025 0.0
C482 C 0.77491 0.2458 0.86188 0.0
H483 H 0.70347 0.23218 1.01019 0.0
H484 H 0.72581 0.21069 0.94897 0.0
H485 H 0.74806 0.25076 0.97673 0.0
H486 H 0.75224 0.33335 0.86712 0.0
H487 H 0.82809 0.33667 0.85996 0.0
H488 H -0.00526 0.75735 0.98567 0.0
H489 H 0.96025 0.76164 0.88827 0.0
H490 H 0.87766 0.8419 0.95303 0.0
H491 H 0.91157 0.83763 0.04868 0.0
H492 H 0.88174 0.74273 0.87564 0.0
H493 H 0.88507 0.87556 0.78924 0.0
H494 H 0.92627 0.85877 0.83789 0.0
H495 H 0.88093 0.88056 0.86644 0.0
C496 C 0.97006 0.77662 0.9781 0.0
C497 C 0.95505 0.7967 1.02448 0.0
C498 C 0.95066 0.77922 0.92255 0.0
C499 C 0.91683 0.8025 0.9129 0.0
C500 C 0.90442 0.82447 0.9585 0.0
H501 H 0.68464 0.78566 0.92971 0.0
H502 H 0.75912 0.7771 0.91602 0.0
C503 C 0.92325 0.82154 1.01369 0.0
C504 C 0.88749 0.7985 0.86232 0.0
H505 H 0.81133 0.85155 0.80361 0.0
C506 C 0.86718 0.76621 0.85711 0.0
C507 C 0.86919 0.82841 0.83503 0.0
C508 C 0.89201 0.86262 0.83197 0.0
C509 C 0.82544 0.7649 0.83742 0.0
C510 C 0.80412 0.79665 0.82379 0.0
C511 C 0.8271 0.82738 0.81693 0.0
C512 C 0.75847 0.79998 0.82928 0.0
C513 C 0.8036 0.73012 0.83695 0.0
C514 C 0.73378 0.81726 0.78645 0.0
C515 C 0.6914 0.82306 0.79496 0.0
C516 C 0.67296 0.81166 0.84654 0.0
C517 C 0.69787 0.79467 0.88958 0.0
C518 C 0.7403 0.78921 0.88124 0.0
H519 H 0.82492 0.70896 0.82229 0.0
H520 H 0.79462 0.72353 0.88197 0.0
H521 H 0.77516 0.73062 0.80791 0.0
H522 H 0.74728 0.82631 0.74653 0.0
H523 H 0.67299 0.83594 0.76052 0.0
loop_
_geom_bond_atom_site_label_1
_geom_bond_atom_site_label_2
_geom_bond_distance
_geom_bond_site_symmetry_2
_ccdc_geom_bond_type
O0 Zn1 1.953 1_655 S
O0 C16 1.225 . S
Zn1 O0 1.953 1_455 S
Zn1 O2 1.949 . S
Zn1 O8 1.919 . S
Zn1 O13 1.924 . S
O2 Zn1 1.949 . S
O2 Zn3 1.923 . S
O2 Zn4 1.950 1_455 S
O2 Zn5 1.945 . S
Zn3 O2 1.923 . S
Zn3 O6 1.933 . S
Zn3 O9 1.941 . S
Zn3 O10 1.965 1_455 S
Zn4 O2 1.950 1_655 S
Zn4 O11 1.938 . S
Zn4 O12 1.906 . S
Zn4 O22 1.953 . S
Zn5 O2 1.945 . S
Zn5 O7 1.932 . S
Zn5 O14 1.977 . S
Zn5 O15 1.910 . S
O6 Zn3 1.933 . S
O6 C17 1.226 . S
O7 Zn5 1.932 . S
O7 C17 1.307 . S
O8 Zn1 1.919 . S
O8 C19 1.253 . S
O9 Zn3 1.941 . S
O9 C19 1.283 . S
O10 Zn3 1.965 1_655 S
O10 C18 1.303 . S
O11 Zn4 1.938 . S
O11 C18 1.247 . S
O12 Zn4 1.906 . S
O12 C20 1.304 1_655 S
O13 Zn1 1.924 . S
O13 C21 1.311 . S
O14 Zn5 1.977 . S
O14 C20 1.272 . S
O15 Zn5 1.910 . S
O15 C21 1.231 . S
C16 O0 1.225 . S
C16 O22 1.298 . S
C17 O6 1.226 . S
C17 O7 1.307 . S
C18 O10 1.303 . S
C18 O11 1.247 . S
C19 O8 1.253 . S
C19 O9 1.283 . S
C20 O12 1.304 1_455 S
C20 O14 1.272 . S
C21 O13 1.311 . S
C21 O15 1.231 . S
O22 Zn4 1.953 . S
O22 C16 1.298 . S
O23 Zn24 1.953 . S
O23 C39 1.225 . S
Zn24 O23 1.953 . S
Zn24 O25 1.949 . S
Zn24 O31 1.919 . S
Zn24 O36 1.924 . S
O25 Zn24 1.949 . S
O25 Zn26 1.923 . S
O25 Zn27 1.950 . S
O25 Zn28 1.945 . S
Zn26 O25 1.923 . S
Zn26 O29 1.933 . S
Zn26 O32 1.941 . S
Zn26 O33 1.965 . S
Zn27 O25 1.950 . S
Zn27 O34 1.938 . S
Zn27 O35 1.906 . S
Zn27 O45 1.953 . S
Zn28 O25 1.945 . S
Zn28 O30 1.932 . S
Zn28 O37 1.977 . S
Zn28 O38 1.910 . S
O29 Zn26 1.933 . S
O29 C40 1.226 . S
O30 Zn28 1.932 . S
O30 C40 1.307 . S
O31 Zn24 1.919 . S
O31 C42 1.253 . S
O32 Zn26 1.941 . S
O32 C42 1.283 . S
O33 Zn26 1.965 . S
O33 C41 1.303 . S
O34 Zn27 1.938 . S
O34 C41 1.247 . S
O35 Zn27 1.906 . S
O35 C43 1.304 . S
O36 Zn24 1.924 . S
O36 C44 1.311 . S
O37 Zn28 1.977 . S
O37 C43 1.272 . S
O38 Zn28 1.910 . S
O38 C44 1.231 . S
C39 O23 1.225 . S
C39 O45 1.298 . S
C40 O29 1.226 . S
C40 O30 1.307 . S
C41 O33 1.303 . S
C41 O34 1.247 . S
C42 O31 1.253 . S
C42 O32 1.283 . S
C43 O35 1.304 . S
C43 O37 1.272 . S
C44 O36 1.311 . S
C44 O38 1.231 . S
O45 Zn27 1.953 . S
O45 C39 1.298 . S
O46 Zn47 1.953 . S
O46 C62 1.225 . S
Zn47 O46 1.953 . S
Zn47 O48 1.949 . S
Zn47 O54 1.919 . S
Zn47 O59 1.924 1_455 S
O48 Zn47 1.949 . S
O48 Zn49 1.923 . S
O48 Zn50 1.950 . S
O48 Zn51 1.945 1_455 S
Zn49 O48 1.923 . S
Zn49 O52 1.933 1_455 S
Zn49 O55 1.941 . S
Zn49 O56 1.965 . S
Zn50 O48 1.950 . S
Zn50 O57 1.938 . S
Zn50 O58 1.906 . S
Zn50 O68 1.953 . S
Zn51 O48 1.945 1_655 S
Zn51 O53 1.932 . S
Zn51 O60 1.977 . S
Zn51 O61 1.910 . S
O52 Zn49 1.933 1_655 S
O52 C63 1.226 . S
O53 Zn51 1.932 . S
O53 C63 1.307 . S
O54 Zn47 1.919 . S
O54 C65 1.253 . S
O55 Zn49 1.941 . S
O55 C65 1.283 . S
O56 Zn49 1.965 . S
O56 C64 1.303 . S
O57 Zn50 1.938 . S
O57 C64 1.247 . S
O58 Zn50 1.906 . S
O58 C66 1.304 . S
O59 Zn47 1.924 1_655 S
O59 C67 1.311 . S
O60 Zn51 1.977 . S
O60 C66 1.272 1_655 S
O61 Zn51 1.910 . S
O61 C67 1.231 . S
C62 O46 1.225 . S
C62 O68 1.298 . S
C63 O52 1.226 . S
C63 O53 1.307 . S
C64 O56 1.303 . S
C64 O57 1.247 . S
C65 O54 1.253 . S
C65 O55 1.283 . S
C66 O58 1.304 . S
C66 O60 1.272 1_455 S
C67 O59 1.311 . S
C67 O61 1.231 . S
O68 Zn50 1.953 . S
O68 C62 1.298 . S
O69 Zn70 1.953 . S
O69 C85 1.225 . S
Zn70 O69 1.953 . S
Zn70 O71 1.949 . S
Zn70 O77 1.919 . S
Zn70 O82 1.924 . S
O71 Zn70 1.949 . S
O71 Zn72 1.923 . S
O71 Zn73 1.950 . S
O71 Zn74 1.945 . S
Zn72 O71 1.923 . S
Zn72 O75 1.933 . S
Zn72 O78 1.941 . S
Zn72 O79 1.965 . S
Zn73 O71 1.950 . S
Zn73 O80 1.938 . S
Zn73 O81 1.906 . S
Zn73 O91 1.953 . S
Zn74 O71 1.945 . S
Zn74 O76 1.932 . S
Zn74 O83 1.977 . S
Zn74 O84 1.910 . S
O75 Zn72 1.933 . S
O75 C86 1.226 . S
O76 Zn74 1.932 . S
O76 C86 1.307 . S
O77 Zn70 1.919 . S
O77 C88 1.253 . S
O78 Zn72 1.941 . S
O78 C88 1.283 . S
O79 Zn72 1.965 . S
O79 C87 1.303 . S
O80 Zn73 1.938 . S
O80 C87 1.247 . S
O81 Zn73 1.906 . S
O81 C89 1.304 . S
O82 Zn70 1.924 . S
O82 C90 1.311 . S
O83 Zn74 1.977 . S
O83 C89 1.272 . S
O84 Zn74 1.910 . S
O84 C90 1.231 . S
C85 O69 1.225 . S
C85 O91 1.298 . S
C86 O75 1.226 . S
C86 O76 1.307 . S
C87 O79 1.303 . S
C87 O80 1.247 . S
C88 O77 1.253 . S
C88 O78 1.283 . S
C89 O81 1.304 . S
C89 O83 1.272 . S
C90 O82 1.311 . S
C90 O84 1.231 . S
O91 Zn73 1.953 . S
O91 C85 1.298 . S
H92 C100 0.929 . S
H93 C102 0.930 . S
H94 C104 0.930 . S
H95 C107 0.929 . S
H96 C110 0.930 . S
H97 C112 0.960 . S
H98 C112 0.960 . S
H99 C112 0.960 . S
C100 H92 0.929 . S
C100 C101 1.377 . S
C100 C102 1.384 . S
C101 C100 1.377 . S
C101 C107 1.390 1_455 S
C102 H93 0.930 . S
C102 C100 1.384 . S
C102 C103 1.372 . S
C103 C102 1.372 . S
C103 C104 1.400 1_455 S
C103 C108 1.490 . S
C104 H94 0.930 . S
C104 C103 1.400 1_655 S
C104 C107 1.386 . S
H105 C121 0.930 . S
H106 C122 0.931 . S
C107 H95 0.929 . S
C107 C101 1.390 1_655 S
C107 C104 1.386 . S
C108 C103 1.490 . S
C108 C110 1.395 . S
C108 C111 1.403 1_456 S
H109 C115 0.924 1_655 S
C110 H96 0.930 . S
C110 C108 1.395 . S
C110 C113 1.403 . S
C111 C108 1.403 1_654 S
C111 C112 1.524 . S
C111 C115 1.399 1_655 S
C112 H97 0.960 . S
C112 H98 0.960 . S
C112 H99 0.960 . S
C112 C111 1.524 . S
C113 C110 1.403 . S
C113 C114 1.392 1_556 S
C113 C117 1.495 . S
C114 C113 1.392 1_554 S
C114 C115 1.392 . S
C114 C116 1.478 . S
C115 H109 0.924 1_455 S
C115 C111 1.399 1_455 S
C115 C114 1.392 . S
C116 C114 1.478 . S
C116 C118 1.381 . S
C116 C122 1.383 1_455 S
C117 C113 1.495 . S
C117 H123 0.959 . S
C117 H124 0.961 . S
C117 H125 0.960 . S
C118 C116 1.381 . S
C118 C119 1.394 . S
C118 H126 0.930 . S
C119 C118 1.394 . S
C119 C120 1.383 . S
C119 H127 0.929 . S
C120 C119 1.383 . S
C120 C121 1.377 1_455 S
C121 H105 0.930 . S
C121 C120 1.377 1_655 S
C121 C122 1.379 . S
C122 H106 0.931 . S
C122 C116 1.383 1_655 S
C122 C121 1.379 . S
H123 C117 0.959 . S
H124 C117 0.961 . S
H125 C117 0.960 . S
H126 C118 0.930 . S
H127 C119 0.929 . S
H128 C136 0.929 . S
H129 C138 0.930 . S
H130 C140 0.930 . S
H131 C143 0.929 . S
H132 C146 0.930 . S
H133 C148 0.960 . S
H134 C148 0.960 . S
H135 C148 0.960 . S
C136 H128 0.929 . S
C136 C137 1.377 . S
C136 C138 1.384 . S
C137 C136 1.377 . S
C137 C143 1.390 . S
C138 H129 0.930 . S
C138 C136 1.384 . S
C138 C139 1.372 . S
C139 C138 1.372 . S
C139 C140 1.400 . S
C139 C144 1.490 . S
C140 H130 0.930 . S
C140 C139 1.400 . S
C140 C143 1.386 . S
H141 C157 0.930 . S
H142 C158 0.931 . S
C143 H131 0.929 . S
C143 C137 1.390 . S
C143 C140 1.386 . S
C144 C139 1.490 . S
C144 C146 1.395 . S
C144 C147 1.403 1_554 S
H145 C151 0.930 . S
C146 H132 0.930 . S
C146 C144 1.395 . S
C146 C149 1.403 . S
C147 C144 1.403 1_556 S
C147 C148 1.524 . S
C147 C151 1.400 . S
C148 H133 0.960 . S
C148 H134 0.960 . S
C148 H135 0.960 . S
C148 C147 1.524 . S
C149 C146 1.403 . S
C149 C150 1.392 1_554 S
C149 C153 1.495 . S
C150 C149 1.392 1_556 S
C150 C151 1.385 . S
C150 C152 1.478 . S
C151 H145 0.930 . S
C151 C147 1.400 . S
C151 C150 1.385 . S
C152 C150 1.478 . S
C152 C154 1.381 . S
C152 C158 1.383 . S
C153 C149 1.495 . S
C153 H159 0.959 . S
C153 H160 0.961 . S
C153 H161 0.960 . S
C154 C152 1.381 . S
C154 C155 1.394 . S
C154 H162 0.930 . S
C155 C154 1.394 . S
C155 C156 1.383 . S
C155 H163 0.929 . S
C156 C155 1.383 . S
C156 C157 1.377 . S
C157 H141 0.930 . S
C157 C156 1.377 . S
C157 C158 1.379 . S
C158 H142 0.931 . S
C158 C152 1.383 . S
C158 C157 1.379 . S
H159 C153 0.959 . S
H160 C153 0.961 . S
H161 C153 0.960 . S
H162 C154 0.930 . S
H163 C155 0.929 . S
H164 C172 0.929 . S
H165 C174 0.930 . S
H166 C176 0.930 . S
H167 C179 0.929 . S
H168 C182 0.930 . S
H169 C184 0.960 . S
H170 C184 0.960 . S
H171 C184 0.960 . S
C172 H164 0.929 . S
C172 C173 1.377 . S
C172 C174 1.384 . S
C173 C172 1.377 . S
C173 C179 1.390 . S
C174 H165 0.930 . S
C174 C172 1.384 . S
C174 C175 1.372 . S
C175 C174 1.372 . S
C175 C176 1.400 . S
C175 C180 1.490 . S
C176 H166 0.930 . S
C176 C175 1.400 . S
C176 C179 1.386 . S
H177 C193 0.930 . S
H178 C194 0.931 . S
C179 H167 0.929 . S
C179 C173 1.390 . S
C179 C176 1.386 . S
C180 C175 1.490 . S
C180 C182 1.395 . S
C180 C183 1.403 . S
H181 C187 0.930 . S
C182 H168 0.930 . S
C182 C180 1.395 . S
C182 C185 1.403 1_566 S
C183 C180 1.403 . S
C183 C184 1.524 . S
C183 C187 1.400 1_566 S
C184 H169 0.960 . S
C184 H170 0.960 . S
C184 H171 0.960 . S
C184 C183 1.524 . S
C185 C182 1.403 1_544 S
C185 C186 1.392 . S
C185 C189 1.495 . S
C186 C185 1.392 . S
C186 C187 1.385 . S
C186 C188 1.478 . S
C187 H181 0.930 . S
C187 C183 1.400 1_544 S
C187 C186 1.385 . S
C188 C186 1.478 . S
C188 C190 1.381 . S
C188 C194 1.383 . S
C189 C185 1.495 . S
C189 H195 0.959 . S
C189 H196 0.961 . S
C189 H197 0.960 . S
C190 C188 1.381 . S
C190 C191 1.394 . S
C190 H198 0.930 . S
C191 C190 1.394 . S
C191 C192 1.383 . S
C191 H199 0.929 . S
C192 C191 1.383 . S
C192 C193 1.377 . S
C193 H177 0.930 . S
C193 C192 1.377 . S
C193 C194 1.379 . S
C194 H178 0.931 . S
C194 C188 1.383 . S
C194 C193 1.379 . S
H195 C189 0.959 . S
H196 C189 0.961 . S
H197 C189 0.960 . S
H198 C190 0.930 . S
H199 C191 0.929 . S
H200 C208 0.929 . S
H201 C210 0.921 1_556 S
H202 C212 0.930 . S
H203 C215 0.929 . S
H204 C218 0.931 . S
H205 C220 0.960 1_545 S
H206 C220 0.960 . S
H207 C220 0.960 . S
C208 H200 0.929 . S
C208 C209 1.377 . S
C208 C210 1.384 . S
C209 C208 1.377 . S
C209 C215 1.390 . S
C210 H201 0.921 1_554 S
C210 C208 1.384 . S
C210 C211 1.372 . S
C211 C210 1.372 . S
C211 C212 1.400 . S
C211 C216 1.490 . S
C212 H202 0.930 . S
C212 C211 1.400 . S
C212 C215 1.386 . S
H213 C229 0.930 . S
H214 C230 0.926 1_554 S
C215 H203 0.929 . S
C215 C209 1.390 . S
C215 C212 1.386 . S
C216 C211 1.490 . S
C216 C218 1.399 1_455 S
C216 C219 1.403 . S
H217 C223 0.930 . S
C218 H204 0.931 . S
C218 C216 1.399 1_655 S
C218 C221 1.398 1_564 S
C219 C216 1.403 . S
C219 C220 1.524 . S
C219 C223 1.400 1_564 S
C220 H205 0.960 1_565 S
C220 H206 0.960 . S
C220 H207 0.960 . S
C220 C219 1.524 . S
C221 C218 1.398 1_546 S
C221 C222 1.392 1_655 S
C221 C225 1.495 . S
C222 C221 1.392 1_455 S
C222 C223 1.385 . S
C222 C224 1.478 . S
C223 H217 0.930 . S
C223 C219 1.400 1_546 S
C223 C222 1.385 . S
C224 C222 1.478 . S
C224 C226 1.381 1_455 S
C224 C230 1.383 . S
C225 C221 1.495 . S
C225 H231 0.959 1_545 S
C225 H232 0.961 . S
C225 H233 0.960 . S
C226 C224 1.381 1_655 S
C226 C227 1.394 . S
C226 H234 0.930 . S
C227 C226 1.394 . S
C227 C228 1.383 1_655 S
C227 H235 0.929 . S
C228 C227 1.383 1_455 S
C228 C229 1.377 . S
C229 H213 0.930 . S
C229 C228 1.377 . S
C229 C230 1.379 . S
C230 H214 0.926 1_556 S
C230 C224 1.383 . S
C230 C229 1.379 . S
H231 C225 0.959 1_565 S
H232 C225 0.961 . S
H233 C225 0.960 . S
H234 C226 0.930 . S
H235 C227 0.929 . S
H236 C244 0.929 . S
H237 C246 0.930 . S
H238 C248 0.930 . S
H239 C251 0.929 . S
H240 C254 0.930 . S
H241 C256 0.960 . S
H242 C256 0.960 . S
H243 C256 0.960 . S
C244 H236 0.929 . S
C244 C245 1.377 . S
C244 C246 1.384 . S
C245 C244 1.377 . S
C245 C251 1.390 . S
C246 H237 0.930 . S
C246 C244 1.384 . S
C246 C247 1.372 . S
C247 C246 1.372 . S
C247 C248 1.400 . S
C247 C252 1.490 . S
C248 H238 0.930 . S
C248 C247 1.400 . S
C248 C251 1.386 . S
H249 C265 0.930 . S
H250 C266 0.931 . S
C251 H239 0.929 . S
C251 C245 1.390 . S
C251 C248 1.386 . S
C252 C247 1.490 . S
C252 C254 1.395 . S
C252 C255 1.403 . S
H253 C259 0.930 . S
C254 H240 0.930 . S
C254 C252 1.395 . S
C254 C257 1.403 . S
C255 C252 1.403 . S
C255 C256 1.524 . S
C255 C259 1.400 . S
C256 H241 0.960 . S
C256 H242 0.960 . S
C256 H243 0.960 . S
C256 C255 1.524 . S
C257 C254 1.403 . S
C257 C258 1.392 . S
C257 C261 1.495 . S
C258 C257 1.392 . S
C258 C259 1.385 . S
C258 C260 1.478 . S
C259 H253 0.930 . S
C259 C255 1.400 . S
C259 C258 1.385 . S
C260 C258 1.478 . S
C260 C262 1.381 . S
C260 C266 1.383 . S
C261 C257 1.495 . S
C261 H267 0.959 . S
C261 H268 0.961 . S
C261 H269 0.960 . S
C262 C260 1.381 . S
C262 C263 1.394 . S
C262 H270 0.930 . S
C263 C262 1.394 . S
C263 C264 1.383 . S
C263 H271 0.929 . S
C264 C263 1.383 . S
C264 C265 1.377 . S
C265 H249 0.930 . S
C265 C264 1.377 . S
C265 C266 1.379 . S
C266 H250 0.931 . S
C266 C260 1.383 . S
C266 C265 1.379 . S
H267 C261 0.959 . S
H268 C261 0.961 . S
H269 C261 0.960 . S
H270 C262 0.930 . S
H271 C263 0.929 . S
H272 C280 0.929 . S
H273 C282 0.930 . S
H274 C284 0.930 . S
H275 C287 0.929 . S
H276 C290 0.930 . S
H277 C292 0.960 . S
H278 C292 0.960 . S
H279 C292 0.960 . S
C280 H272 0.929 . S
C280 C281 1.377 . S
C280 C282 1.384 . S
C281 C280 1.377 . S
C281 C287 1.390 . S
C282 H273 0.930 . S
C282 C280 1.384 . S
C282 C283 1.372 . S
C283 C282 1.372 . S
C283 C284 1.400 . S
C283 C288 1.490 . S
C284 H274 0.930 . S
C284 C283 1.400 . S
C284 C287 1.386 . S
H285 C301 0.930 . S
H286 C302 0.931 . S
C287 H275 0.929 . S
C287 C281 1.390 . S
C287 C284 1.386 . S
C288 C283 1.490 . S
C288 C290 1.395 . S
C288 C291 1.403 . S
H289 C295 0.930 . S
C290 H276 0.930 . S
C290 C288 1.395 . S
C290 C293 1.403 . S
C291 C288 1.403 . S
C291 C292 1.524 . S
C291 C295 1.400 . S
C292 H277 0.960 . S
C292 H278 0.960 . S
C292 H279 0.960 . S
C292 C291 1.524 . S
C293 C290 1.403 . S
C293 C294 1.392 . S
C293 C297 1.495 . S
C294 C293 1.392 . S
C294 C295 1.385 . S
C294 C296 1.478 . S
C295 H289 0.930 . S
C295 C291 1.400 . S
C295 C294 1.385 . S
C296 C294 1.478 . S
C296 C298 1.381 . S
C296 C302 1.383 . S
C297 C293 1.495 . S
C297 H303 0.959 . S
C297 H304 0.961 . S
C297 H305 0.960 . S
C298 C296 1.381 . S
C298 C299 1.394 . S
C298 H306 0.930 . S
C299 C298 1.394 . S
C299 C300 1.383 . S
C299 H307 0.929 . S
C300 C299 1.383 . S
C300 C301 1.377 . S
C301 H285 0.930 . S
C301 C300 1.377 . S
C301 C302 1.379 . S
C302 H286 0.931 . S
C302 C296 1.383 . S
C302 C301 1.379 . S
H303 C297 0.959 . S
H304 C297 0.961 . S
H305 C297 0.960 . S
H306 C298 0.930 . S
H307 C299 0.929 . S
H308 C316 0.929 . S
H309 C318 0.930 . S
H310 C320 0.930 . S
H311 C323 0.929 . S
H312 C326 0.930 . S
H313 C328 0.960 . S
H314 C328 0.960 . S
H315 C328 0.960 . S
C316 H308 0.929 . S
C316 C317 1.377 . S
C316 C318 1.384 . S
C317 C316 1.377 . S
C317 C323 1.390 . S
C318 H309 0.930 . S
C318 C316 1.384 . S
C318 C319 1.372 . S
C319 C318 1.372 . S
C319 C320 1.400 . S
C319 C324 1.490 . S
C320 H310 0.930 . S
C320 C319 1.400 . S
C320 C323 1.386 . S
H321 C337 0.930 . S
H322 C338 0.931 . S
C323 H311 0.929 . S
C323 C317 1.390 . S
C323 C320 1.386 . S
C324 C319 1.490 . S
C324 C326 1.395 . S
C324 C327 1.403 . S
H325 C331 0.930 . S
C326 H312 0.930 . S
C326 C324 1.395 . S
C326 C329 1.403 . S
C327 C324 1.403 . S
C327 C328 1.524 . S
C327 C331 1.400 . S
C328 H313 0.960 . S
C328 H314 0.960 . S
C328 H315 0.960 . S
C328 C327 1.524 . S
C329 C326 1.403 . S
C329 C330 1.392 . S
C329 C333 1.495 . S
C330 C329 1.392 . S
C330 C331 1.385 . S
C330 C332 1.478 . S
C331 H325 0.930 . S
C331 C327 1.400 . S
C331 C330 1.385 . S
C332 C330 1.478 . S
C332 C334 1.381 . S
C332 C338 1.383 . S
C333 C329 1.495 . S
C333 H339 0.959 . S
C333 H340 0.961 . S
C333 H341 0.960 . S
C334 C332 1.381 . S
C334 C335 1.394 . S
C334 H342 0.930 . S
C335 C334 1.394 . S
C335 C336 1.383 . S
C335 H343 0.929 . S
C336 C335 1.383 . S
C336 C337 1.377 . S
C337 H321 0.930 . S
C337 C336 1.377 . S
C337 C338 1.379 . S
C338 H322 0.931 . S
C338 C332 1.383 . S
C338 C337 1.379 . S
H339 C333 0.959 . S
H340 C333 0.961 . S
H341 C333 0.960 . S
H342 C334 0.930 . S
H343 C335 0.929 . S
H344 C352 0.929 . S
H345 C354 0.930 . S
H346 C356 0.930 . S
H347 C359 0.929 . S
H348 C362 0.930 . S
H349 C364 0.960 . S
H350 C364 0.960 . S
H351 C364 0.960 . S
C352 H344 0.929 . S
C352 C353 1.377 . S
C352 C354 1.384 . S
C353 C352 1.377 . S
C353 C359 1.390 . S
C354 H345 0.930 . S
C354 C352 1.384 . S
C354 C355 1.372 . S
C355 C354 1.372 . S
C355 C356 1.400 . S
C355 C360 1.490 . S
C356 H346 0.930 . S
C356 C355 1.400 . S
C356 C359 1.386 . S
H357 C373 0.930 . S
H358 C374 0.931 . S
C359 H347 0.929 . S
C359 C353 1.390 . S
C359 C356 1.386 . S
C360 C355 1.490 . S
C360 C362 1.395 . S
C360 C363 1.403 . S
H361 C367 0.930 . S
C362 H348 0.930 . S
C362 C360 1.395 . S
C362 C365 1.403 . S
C363 C360 1.403 . S
C363 C364 1.524 . S
C363 C367 1.400 . S
C364 H349 0.960 . S
C364 H350 0.960 . S
C364 H351 0.960 . S
C364 C363 1.524 . S
C365 C362 1.403 . S
C365 C366 1.392 . S
C365 C369 1.495 . S
C366 C365 1.392 . S
C366 C367 1.385 . S
C366 C368 1.478 . S
C367 H361 0.930 . S
C367 C363 1.400 . S
C367 C366 1.385 . S
C368 C366 1.478 . S
C368 C370 1.381 . S
C368 C374 1.383 . S
C369 C365 1.495 . S
C369 H375 0.959 . S
C369 H376 0.961 . S
C369 H377 0.960 . S
C370 C368 1.381 . S
C370 C371 1.394 . S
C370 H378 0.930 . S
C371 C370 1.394 . S
C371 C372 1.383 . S
C371 H379 0.929 . S
C372 C371 1.383 . S
C372 C373 1.377 . S
C373 H357 0.930 . S
C373 C372 1.377 . S
C373 C374 1.379 . S
C374 H358 0.931 . S
C374 C368 1.383 . S
C374 C373 1.379 . S
H375 C369 0.959 . S
H376 C369 0.961 . S
H377 C369 0.960 . S
H378 C370 0.930 . S
H379 C371 0.929 . S
H380 C388 0.929 . S
H381 C390 0.930 . S
H382 C392 0.930 . S
H383 C395 0.929 . S
H384 C398 0.930 . S
H385 C400 0.960 . S
H386 C400 0.960 . S
H387 C400 0.960 . S
C388 H380 0.929 . S
C388 C389 1.377 . S
C388 C390 1.384 . S
C389 C388 1.377 . S
C389 C395 1.390 . S
C390 H381 0.930 . S
C390 C388 1.384 . S
C390 C391 1.372 . S
C391 C390 1.372 . S
C391 C392 1.400 . S
C391 C396 1.490 . S
C392 H382 0.930 . S
C392 C391 1.400 . S
C392 C395 1.386 . S
H393 C409 0.930 . S
H394 C410 0.931 . S
C395 H383 0.929 . S
C395 C389 1.390 . S
C395 C392 1.386 . S
C396 C391 1.490 . S
C396 C398 1.395 1_556 S
C396 C399 1.403 . S
H397 C403 0.930 . S
C398 H384 0.930 . S
C398 C396 1.395 1_554 S
C398 C401 1.403 . S
C399 C396 1.403 . S
C399 C400 1.524 . S
C399 C403 1.400 . S
C400 H385 0.960 . S
C400 H386 0.960 . S
C400 H387 0.960 . S
C400 C399 1.524 . S
C401 C398 1.403 . S
C401 C402 1.392 . S
C401 C405 1.495 . S
C402 C401 1.392 . S
C402 C403 1.385 1_554 S
C402 C404 1.478 . S
C403 H397 0.930 . S
C403 C399 1.400 . S
C403 C402 1.385 1_556 S
C404 C402 1.478 . S
C404 C406 1.381 . S
C404 C410 1.383 . S
C405 C401 1.495 . S
C405 H411 0.959 . S
C405 H412 0.961 . S
C405 H413 0.960 . S
C406 C404 1.381 . S
C406 C407 1.394 . S
C406 H414 0.930 . S
C407 C406 1.394 . S
C407 C408 1.383 . S
C407 H415 0.929 . S
C408 C407 1.383 . S
C408 C409 1.377 . S
C409 H393 0.930 . S
C409 C408 1.377 . S
C409 C410 1.379 . S
C410 H394 0.931 . S
C410 C404 1.383 . S
C410 C409 1.379 . S
H411 C405 0.959 . S
H412 C405 0.961 . S
H413 C405 0.960 . S
H414 C406 0.930 . S
H415 C407 0.929 . S
H416 C424 0.929 . S
H417 C426 0.930 . S
H418 C428 0.930 . S
H419 C431 0.929 . S
H420 C434 0.930 . S
H421 C436 0.960 . S
H422 C436 0.960 . S
H423 C436 0.960 . S
C424 H416 0.929 . S
C424 C425 1.377 . S
C424 C426 1.384 . S
C425 C424 1.377 . S
C425 C431 1.390 . S
C426 H417 0.930 . S
C426 C424 1.384 . S
C426 C427 1.372 . S
C427 C426 1.372 . S
C427 C428 1.400 . S
C427 C432 1.490 . S
C428 H418 0.930 . S
C428 C427 1.400 . S
C428 C431 1.386 . S
H429 C445 0.930 . S
H430 C446 0.931 . S
C431 H419 0.929 . S
C431 C425 1.390 . S
C431 C428 1.386 . S
C432 C427 1.490 . S
C432 C434 1.395 . S
C432 C435 1.403 1_556 S
H433 C439 0.930 . S
C434 H420 0.930 . S
C434 C432 1.395 . S
C434 C437 1.403 . S
C435 C432 1.403 1_554 S
C435 C436 1.524 . S
C435 C439 1.400 . S
C436 H421 0.960 . S
C436 H422 0.960 . S
C436 H423 0.960 . S
C436 C435 1.524 . S
C437 C434 1.403 . S
C437 C438 1.392 1_556 S
C437 C441 1.495 . S
C438 C437 1.392 1_554 S
C438 C439 1.385 . S
C438 C440 1.478 . S
C439 H433 0.930 . S
C439 C435 1.400 . S
C439 C438 1.385 . S
C440 C438 1.478 . S
C440 C442 1.381 . S
C440 C446 1.383 . S
C441 C437 1.495 . S
C441 H447 0.959 . S
C441 H448 0.961 . S
C441 H449 0.969 . S
C442 C440 1.381 . S
C442 C443 1.394 . S
C442 H450 0.930 . S
C443 C442 1.394 . S
C443 C444 1.383 . S
C443 H451 0.929 . S
C444 C443 1.383 . S
C444 C445 1.377 . S
C445 H429 0.930 . S
C445 C444 1.377 . S
C445 C446 1.379 . S
C446 H430 0.931 . S
C446 C440 1.383 . S
C446 C445 1.379 . S
H447 C441 0.959 . S
H448 C441 0.961 . S
H449 C441 0.969 . S
H450 C442 0.930 . S
H451 C443 0.929 . S
H452 C460 0.929 . S
H453 C462 0.930 . S
H454 C464 0.930 . S
H455 C467 0.929 . S
H456 C470 0.930 . S
H457 C472 0.960 . S
H458 C472 0.960 . S
H459 C472 0.960 . S
C460 H452 0.929 . S
C460 C461 1.377 . S
C460 C462 1.384 . S
C461 C460 1.377 . S
C461 C467 1.390 . S
C462 H453 0.930 . S
C462 C460 1.384 . S
C462 C463 1.372 . S
C463 C462 1.372 . S
C463 C464 1.400 . S
C463 C468 1.490 . S
C464 H454 0.930 . S
C464 C463 1.400 . S
C464 C467 1.386 . S
H465 C481 0.930 . S
H466 C482 0.931 . S
C467 H455 0.929 . S
C467 C461 1.390 . S
C467 C464 1.386 . S
C468 C463 1.490 . S
C468 C470 1.395 . S
C468 C471 1.403 1_554 S
H469 C475 0.930 . S
C470 H456 0.930 . S
C470 C468 1.395 . S
C470 C473 1.403 . S
C471 C468 1.403 1_556 S
C471 C472 1.524 . S
C471 C475 1.400 . S
C472 H457 0.960 . S
C472 H458 0.960 . S
C472 H459 0.960 . S
C472 C471 1.524 . S
C473 C470 1.403 . S
C473 C474 1.392 1_554 S
C473 C477 1.495 . S
C474 C473 1.392 1_556 S
C474 C475 1.385 . S
C474 C476 1.478 . S
C475 H469 0.930 . S
C475 C471 1.400 . S
C475 C474 1.385 . S
C476 C474 1.478 . S
C476 C478 1.381 . S
C476 C482 1.383 . S
C477 C473 1.495 . S
C477 H483 0.959 . S
C477 H484 0.961 . S
C477 H485 0.960 . S
C478 C476 1.381 . S
C478 C479 1.394 . S
C478 H486 0.930 . S
C479 C478 1.394 . S
C479 C480 1.383 . S
C479 H487 0.929 . S
C480 C479 1.383 . S
C480 C481 1.377 . S
C481 H465 0.930 . S
C481 C480 1.377 . S
C481 C482 1.379 . S
C482 H466 0.931 . S
C482 C476 1.383 . S
C482 C481 1.379 . S
H483 C477 0.959 . S
H484 C477 0.961 . S
H485 C477 0.960 . S
H486 C478 0.930 . S
H487 C479 0.929 . S
H488 C496 0.929 . S
H489 C498 0.930 1_556 S
H490 C500 0.930 . S
H491 C503 0.929 . S
H492 C506 0.930 . S
H493 C508 0.960 . S
H494 C508 0.960 . S
H495 C508 0.960 . S
C496 H488 0.929 . S
C496 C497 1.377 . S
C496 C498 1.384 . S
C497 C496 1.377 . S
C497 C503 1.390 . S
C498 H489 0.930 1_554 S
C498 C496 1.384 . S
C498 C499 1.372 . S
C499 C498 1.372 . S
C499 C500 1.400 . S
C499 C504 1.490 . S
C500 H490 0.930 . S
C500 C499 1.400 . S
C500 C503 1.386 . S
H501 C517 0.930 . S
H502 C518 0.931 1_554 S
C503 H491 0.929 . S
C503 C497 1.390 . S
C503 C500 1.386 . S
C504 C499 1.490 . S
C504 C506 1.395 . S
C504 C507 1.403 . S
H505 C511 0.930 . S
C506 H492 0.930 . S
C506 C504 1.395 . S
C506 C509 1.403 1_554 S
C507 C504 1.403 . S
C507 C508 1.524 . S
C507 C511 1.400 1_554 S
C508 H493 0.960 . S
C508 H494 0.960 . S
C508 H495 0.960 . S
C508 C507 1.524 . S
C509 C506 1.403 1_556 S
C509 C510 1.392 . S
C509 C513 1.495 . S
C510 C509 1.392 . S
C510 C511 1.385 . S
C510 C512 1.478 . S
C511 H505 0.930 . S
C511 C507 1.400 1_556 S
C511 C510 1.385 . S
C512 C510 1.478 . S
C512 C514 1.381 . S
C512 C518 1.383 . S
C513 C509 1.495 . S
C513 H519 0.959 . S
C513 H520 0.961 . S
C513 H521 0.960 . S
C514 C512 1.381 . S
C514 C515 1.394 . S
C514 H522 0.930 . S
C515 C514 1.394 . S
C515 C516 1.383 . S
C515 H523 0.929 . S
C516 C515 1.383 . S
C516 C517 1.377 . S
C517 H501 0.930 . S
C517 C516 1.377 . S
C517 C518 1.379 . S
C518 H502 0.931 1_556 S
C518 C512 1.383 . S
C518 C517 1.379 . S
H519 C513 0.959 . S
H520 C513 0.961 . S
H521 C513 0.960 . S
H522 C514 0.930 . S
H523 C515 0.929 . S
C101 C66 2.228 . S
C120 C19 2.163 . S
C137 C43 2.228 . S
C156 C88 2.164 . S
C173 C89 2.231 . S
C192 C42 2.152 . S
C209 C20 2.230 . S
C228 C65 2.182 . S
C245 C90 1.525 . S
C264 C21 1.504 . S
C281 C62 2.218 . S
C300 C39 2.215 . S
C317 C67 1.529 . S
C336 C44 1.545 . S
C353 C16 2.218 . S
C372 C85 2.215 . S
C389 C86 0.342 . S
C408 C17 0.255 . S
C425 C64 0.543 . S
C444 C41 0.586 . S
C461 C40 0.360 . S
C480 C63 0.442 . S
C497 C18 0.537 . S
C516 C87 0.599 . S
