# Generated by pormake.
# Topology vba, (4)-cn, num edge types: 1
# Building blocks:
#     Node 0, Type 0, BuildingBlock: KOZSID_clean_sbu_0, # of connection points: 4
#     Node 1, Type 0, BuildingBlock: KOZSID_clean_sbu_0, # of connection points: 4
#     Node 2, Type 0, BuildingBlock: KOZSID_clean_sbu_0, # of connection points: 4
#     Node 3, Type 0, BuildingBlock: KOZSID_clean_sbu_0, # of connection points: 4
#     Node 4, Type 0, BuildingBlock: KOZSID_clean_sbu_0, # of connection points: 4
#     Node 5, Type 0, BuildingBlock: KOZSID_clean_sbu_0, # of connection points: 4
#     Node 6, Type 0, BuildingBlock: KOZSID_clean_sbu_0, # of connection points: 4
#     Node 7, Type 0, BuildingBlock: KOZSID_clean_sbu_0, # of connection points: 4
#     Node 8, Type 0, BuildingBlock: KOZSID_clean_sbu_0, # of connection points: 4
#     Node 9, Type 0, BuildingBlock: KOZSID_clean_sbu_0, # of connection points: 4
#     Node 10, Type 0, BuildingBlock: KOZSID_clean_sbu_0, # of connection points: 4
#     Node 11, Type 0, BuildingBlock: KOZSID_clean_sbu_0, # of connection points: 4
#     Node 12, Type 0, BuildingBlock: KOZSID_clean_sbu_0, # of connection points: 4
#     Node 13, Type 0, BuildingBlock: KOZSID_clean_sbu_0, # of connection points: 4
#     Node 14, Type 0, BuildingBlock: KOZSID_clean_sbu_0, # of connection points: 4
#     Node 15, Type 0, BuildingBlock: KOZSID_clean_sbu_0, # of connection points: 4
#     Node 16, Type 0, BuildingBlock: KOZSID_clean_sbu_0, # of connection points: 4
#     Node 17, Type 0, BuildingBlock: KOZSID_clean_sbu_0, # of connection points: 4
#     Node 18, Type 0, BuildingBlock: KOZSID_clean_sbu_0, # of connection points: 4
#     Node 19, Type 0, BuildingBlock: KOZSID_clean_sbu_0, # of connection points: 4
#     Node 20, Type 0, BuildingBlock: KOZSID_clean_sbu_0, # of connection points: 4
#     Node 21, Type 0, BuildingBlock: KOZSID_clean_sbu_0, # of connection points: 4
#     Node 22, Type 0, BuildingBlock: KOZSID_clean_sbu_0, # of connection points: 4
#     Node 23, Type 0, BuildingBlock: KOZSID_clean_sbu_0, # of connection points: 4
#     Node 24, Type 0, BuildingBlock: KOZSID_clean_sbu_0, # of connection points: 4
#     Node 25, Type 0, BuildingBlock: KOZSID_clean_sbu_0, # of connection points: 4
#     Node 26, Type 0, BuildingBlock: KOZSID_clean_sbu_0, # of connection points: 4
#     Node 27, Type 0, BuildingBlock: KOZSID_clean_sbu_0, # of connection points: 4
#     Node 28, Type 0, BuildingBlock: KOZSID_clean_sbu_0, # of connection points: 4
#     Node 29, Type 0, BuildingBlock: KOZSID_clean_sbu_0, # of connection points: 4
#     Node 30, Type 0, BuildingBlock: KOZSID_clean_sbu_0, # of connection points: 4
#     Node 31, Type 0, BuildingBlock: KOZSID_clean_sbu_0, # of connection points: 4
#     Edge 32, Type (0, 0), BuildingBlock: OJICUG_clean_linker_0, # of connection points: 2
#     Edge 33, Type (0, 0), BuildingBlock: OJICUG_clean_linker_0, # of connection points: 2
#     Edge 34, Type (0, 0), BuildingBlock: OJICUG_clean_linker_0, # of connection points: 2
#     Edge 35, Type (0, 0), BuildingBlock: OJICUG_clean_linker_0, # of connection points: 2
#     Edge 36, Type (0, 0), BuildingBlock: OJICUG_clean_linker_0, # of connection points: 2
#     Edge 37, Type (0, 0), BuildingBlock: OJICUG_clean_linker_0, # of connection points: 2
#     Edge 38, Type (0, 0), BuildingBlock: OJICUG_clean_linker_0, # of connection points: 2
#     Edge 39, Type (0, 0), BuildingBlock: OJICUG_clean_linker_0, # of connection points: 2
#     Edge 40, Type (0, 0), BuildingBlock: OJICUG_clean_linker_0, # of connection points: 2
#     Edge 41, Type (0, 0), BuildingBlock: OJICUG_clean_linker_0, # of connection points: 2
#     Edge 42, Type (0, 0), BuildingBlock: OJICUG_clean_linker_0, # of connection points: 2
#     Edge 43, Type (0, 0), BuildingBlock: OJICUG_clean_linker_0, # of connection points: 2
#     Edge 44, Type (0, 0), BuildingBlock: OJICUG_clean_linker_0, # of connection points: 2
#     Edge 45, Type (0, 0), BuildingBlock: OJICUG_clean_linker_0, # of connection points: 2
#     Edge 46, Type (0, 0), BuildingBlock: OJICUG_clean_linker_0, # of connection points: 2
#     Edge 47, Type (0, 0), BuildingBlock: OJICUG_clean_linker_0, # of connection points: 2
#     Edge 48, Type (0, 0), BuildingBlock: OJICUG_clean_linker_0, # of connection points: 2
#     Edge 49, Type (0, 0), BuildingBlock: OJICUG_clean_linker_0, # of connection points: 2
#     Edge 50, Type (0, 0), BuildingBlock: OJICUG_clean_linker_0, # of connection points: 2
#     Edge 51, Type (0, 0), BuildingBlock: OJICUG_clean_linker_0, # of connection points: 2
#     Edge 52, Type (0, 0), BuildingBlock: OJICUG_clean_linker_0, # of connection points: 2
#     Edge 53, Type (0, 0), BuildingBlock: OJICUG_clean_linker_0, # of connection points: 2
#     Edge 54, Type (0, 0), BuildingBlock: OJICUG_clean_linker_0, # of connection points: 2
#     Edge 55, Type (0, 0), BuildingBlock: OJICUG_clean_linker_0, # of connection points: 2
#     Edge 56, Type (0, 0), BuildingBlock: OJICUG_clean_linker_0, # of connection points: 2
#     Edge 57, Type (0, 0), BuildingBlock: OJICUG_clean_linker_0, # of connection points: 2
#     Edge 58, Type (0, 0), BuildingBlock: OJICUG_clean_linker_0, # of connection points: 2
#     Edge 59, Type (0, 0), BuildingBlock: OJICUG_clean_linker_0, # of connection points: 2
#     Edge 60, Type (0, 0), BuildingBlock: OJICUG_clean_linker_0, # of connection points: 2
#     Edge 61, Type (0, 0), BuildingBlock: OJICUG_clean_linker_0, # of connection points: 2
#     Edge 62, Type (0, 0), BuildingBlock: OJICUG_clean_linker_0, # of connection points: 2
#     Edge 63, Type (0, 0), BuildingBlock: OJICUG_clean_linker_0, # of connection points: 2
#     Edge 64, Type (0, 0), BuildingBlock: OJICUG_clean_linker_0, # of connection points: 2
#     Edge 65, Type (0, 0), BuildingBlock: OJICUG_clean_linker_0, # of connection points: 2
#     Edge 66, Type (0, 0), BuildingBlock: OJICUG_clean_linker_0, # of connection points: 2
#     Edge 67, Type (0, 0), BuildingBlock: OJICUG_clean_linker_0, # of connection points: 2
#     Edge 68, Type (0, 0), BuildingBlock: OJICUG_clean_linker_0, # of connection points: 2
#     Edge 69, Type (0, 0), BuildingBlock: OJICUG_clean_linker_0, # of connection points: 2
#     Edge 70, Type (0, 0), BuildingBlock: OJICUG_clean_linker_0, # of connection points: 2
#     Edge 71, Type (0, 0), BuildingBlock: OJICUG_clean_linker_0, # of connection points: 2
#     Edge 72, Type (0, 0), BuildingBlock: OJICUG_clean_linker_0, # of connection points: 2
#     Edge 73, Type (0, 0), BuildingBlock: OJICUG_clean_linker_0, # of connection points: 2
#     Edge 74, Type (0, 0), BuildingBlock: OJICUG_clean_linker_0, # of connection points: 2
#     Edge 75, Type (0, 0), BuildingBlock: OJICUG_clean_linker_0, # of connection points: 2
#     Edge 76, Type (0, 0), BuildingBlock: OJICUG_clean_linker_0, # of connection points: 2
#     Edge 77, Type (0, 0), BuildingBlock: OJICUG_clean_linker_0, # of connection points: 2
#     Edge 78, Type (0, 0), BuildingBlock: OJICUG_clean_linker_0, # of connection points: 2
#     Edge 79, Type (0, 0), BuildingBlock: OJICUG_clean_linker_0, # of connection points: 2
#     Edge 80, Type (0, 0), BuildingBlock: OJICUG_clean_linker_0, # of connection points: 2
#     Edge 81, Type (0, 0), BuildingBlock: OJICUG_clean_linker_0, # of connection points: 2
#     Edge 82, Type (0, 0), BuildingBlock: OJICUG_clean_linker_0, # of connection points: 2
#     Edge 83, Type (0, 0), BuildingBlock: OJICUG_clean_linker_0, # of connection points: 2
#     Edge 84, Type (0, 0), BuildingBlock: OJICUG_clean_linker_0, # of connection points: 2
#     Edge 85, Type (0, 0), BuildingBlock: OJICUG_clean_linker_0, # of connection points: 2
#     Edge 86, Type (0, 0), BuildingBlock: OJICUG_clean_linker_0, # of connection points: 2
#     Edge 87, Type (0, 0), BuildingBlock: OJICUG_clean_linker_0, # of connection points: 2
#     Edge 88, Type (0, 0), BuildingBlock: OJICUG_clean_linker_0, # of connection points: 2
#     Edge 89, Type (0, 0), BuildingBlock: OJICUG_clean_linker_0, # of connection points: 2
#     Edge 90, Type (0, 0), BuildingBlock: OJICUG_clean_linker_0, # of connection points: 2
#     Edge 91, Type (0, 0), BuildingBlock: OJICUG_clean_linker_0, # of connection points: 2
#     Edge 92, Type (0, 0), BuildingBlock: OJICUG_clean_linker_0, # of connection points: 2
#     Edge 93, Type (0, 0), BuildingBlock: OJICUG_clean_linker_0, # of connection points: 2
#     Edge 94, Type (0, 0), BuildingBlock: OJICUG_clean_linker_0, # of connection points: 2
#     Edge 95, Type (0, 0), BuildingBlock: OJICUG_clean_linker_0, # of connection points: 2
# Relax obj value: 0.009
# Max RMSD: 0.110
# Mean RMSD: 0.110
data_MOF--net-vba--node1-KOZSID_clean_sbu_0--edge1-OJICUG_clean_linker_0
_symmetry_space_group_name_H-M    P1
_symmetry_Int_Tables_number       1
_symmetry_cell_setting            triclinic
loop_
_symmetry_equiv_pos_as_xyz
'x, y, z'
_cell_length_a     23.056965
_cell_length_b     101.15345
_cell_length_c     44.404061
_cell_angle_alpha  90.001654
_cell_angle_beta   89.999888
_cell_angle_gamma 90.001021
loop_
_atom_site_label
_atom_site_type_symbol
_atom_site_fract_x
_atom_site_fract_y
_atom_site_fract_z
_atom_type_partial_charge
C0 C 0.18557 0.06729 0.04374 0.0
C1 C 0.13521 0.05975 0.04268 0.0
C2 C 0.13192 0.05453 0.01434 0.0
C3 C 0.17955 0.05931 0.99943 0.0
N4 N 0.2129 0.06719 0.01667 0.0
Co5 Co 0.28232 0.07721 0.00307 0.0
N6 N 0.25979 0.0754 0.9601 0.0
C7 C 0.21936 0.0671 0.94901 0.0
C8 C 0.20905 0.06888 0.91889 0.0
C9 C 0.24606 0.07873 0.9103 0.0
C10 C 0.27787 0.08226 0.93569 0.0
N11 N 0.35188 0.08715 0.98954 0.0
C12 C 0.36608 0.09193 0.96188 0.0
C13 C 0.42142 0.09734 0.96221 0.0
C14 C 0.44259 0.09574 0.99087 0.0
C15 C 0.39932 0.08942 0.00649 0.0
N16 N 0.303 0.07904 0.04627 0.0
C17 C 0.35582 0.08204 0.05709 0.0
C18 C 0.35648 0.08298 0.08798 0.0
C19 C 0.30053 0.0804 0.09703 0.0
C20 C 0.26865 0.07809 0.07108 0.0
N21 N 0.32886 0.06062 0.00048 0.0
C22 C 0.41335 0.04001 -0.00019 0.0
C23 C 0.37573 0.04187 0.02454 0.0
C24 C 0.33375 0.05209 0.02433 0.0
C25 C 0.4051 0.0484 0.97497 0.0
C26 C 0.36313 0.05846 0.97572 0.0
N27 N 0.23886 0.09403 0.00547 0.0
C28 C 0.23685 0.11698 0.02074 0.0
C29 C 0.18444 0.11904 0.0056 0.0
C30 C 0.15912 0.10821 0.9908 0.0
C31 C 0.18651 0.09575 0.99141 0.0
C32 C 0.26349 0.10456 0.02008 0.0
H33 H 0.16579 0.08759 0.9801 0.0
H34 H 0.30486 0.1036 0.03105 0.0
H35 H 0.30658 0.05335 0.04394 0.0
H36 H 0.36056 0.06487 0.95648 0.0
C37 C 0.18539 0.05945 0.96821 0.0
C38 C 0.20697 0.07419 0.07076 0.0
C39 C 0.33169 0.09003 0.93419 0.0
C40 C 0.39939 0.08649 0.03745 0.0
H41 H 0.10293 0.0584 0.06004 0.0
H42 H 0.09646 0.04882 0.00504 0.0
H43 H 0.17732 0.06388 0.905 0.0
H44 H 0.25095 0.08249 0.88762 0.0
H45 H 0.4447 0.10167 0.94348 0.0
H46 H 0.48445 0.09886 0.9993 0.0
H47 H 0.39252 0.08584 0.10217 0.0
H48 H 0.28491 0.08029 0.12001 0.0
H49 H 0.37886 0.03555 0.04414 0.0
H50 H 0.4326 0.04763 0.95529 0.0
H51 H 0.25811 0.12506 0.03235 0.0
H52 H 0.11826 0.10933 0.97904 0.0
C53 C 0.08301 0.22376 0.04372 0.0
C54 C 0.13337 0.2313 0.04266 0.0
C55 C 0.13665 0.23653 0.01432 0.0
C56 C 0.08902 0.23175 0.99942 0.0
N57 N 0.05568 0.22386 0.01665 0.0
Co58 Co 0.98627 0.21384 0.00304 0.0
N59 N 1.0088 0.21566 0.96007 0.0
C60 C 0.04921 0.22396 0.94899 0.0
C61 C 0.05952 0.22219 0.91887 0.0
C62 C 0.02253 0.21233 0.91028 0.0
C63 C 0.99072 0.2088 0.93566 0.0
N64 N 0.91672 0.2039 0.98951 0.0
C65 C 0.90254 0.19911 0.96185 0.0
C66 C 0.8472 0.1937 0.96217 0.0
C67 C 0.82602 0.19531 0.99083 0.0
C68 C 0.86928 0.20163 0.00645 0.0
N69 N 0.96559 0.21201 0.04624 0.0
C70 C 0.91277 0.209 0.05706 0.0
C71 C 0.91211 0.20807 0.08795 0.0
C72 C 0.96807 0.21064 0.097 0.0
C73 C 0.99994 0.21295 0.07105 0.0
N74 N 0.93972 0.23043 0.00046 0.0
C75 C 0.8552 0.25103 -0.00019 0.0
C76 C 0.89283 0.24917 0.02453 0.0
C77 C 0.93482 0.23896 0.02432 0.0
C78 C 0.86346 0.24265 0.97497 0.0
C79 C 0.90544 0.23259 0.9757 0.0
N80 N 0.02975 0.19702 0.00544 0.0
C81 C 0.03179 0.17407 0.02071 0.0
C82 C 0.0842 0.17202 0.00558 0.0
C83 C 0.10952 0.18285 0.99077 0.0
C84 C 0.0821 0.19531 0.99138 0.0
C85 C 1.00513 0.18649 0.02005 0.0
H86 H 0.10281 0.20347 0.98007 0.0
H87 H 0.96375 0.18745 0.03101 0.0
H88 H 0.96201 0.2377 0.04392 0.0
H89 H 0.90801 0.22618 0.95647 0.0
C90 C 0.08317 0.23162 0.9682 0.0
C91 C 0.06162 0.21685 0.07074 0.0
C92 C 0.93694 0.20101 0.93416 0.0
C93 C 0.8692 0.20456 0.03741 0.0
H94 H 0.16565 0.23265 0.06002 0.0
H95 H 0.1721 0.24224 0.00503 0.0
H96 H 0.09123 0.2272 0.90498 0.0
H97 H 0.01765 0.20858 0.88759 0.0
H98 H 0.82394 0.18937 0.94345 0.0
H99 H 0.78416 0.19218 0.99926 0.0
H100 H 0.87607 0.2052 0.10214 0.0
H101 H 0.98368 0.21075 0.11998 0.0
H102 H 0.8897 0.25549 0.04414 0.0
H103 H 0.83595 0.24341 0.95529 0.0
H104 H 0.01053 0.166 0.03233 0.0
H105 H 0.15038 0.18173 0.97902 0.0
C106 C 0.18558 0.22374 0.2058 0.0
C107 C 0.13523 0.23128 0.20685 0.0
C108 C 0.13193 0.23651 0.23519 0.0
C109 C 0.17955 0.23172 0.25011 0.0
N110 N 0.21289 0.22383 0.23287 0.0
Co111 Co 0.28229 0.21381 0.24648 0.0
N112 N 0.25974 0.21562 0.28945 0.0
C113 C 0.21931 0.22392 0.30053 0.0
C114 C 0.20898 0.22214 0.33065 0.0
C115 C 0.24596 0.21228 0.33924 0.0
C116 C 0.27779 0.20875 0.31386 0.0
N117 N 0.35183 0.20387 0.26001 0.0
C118 C 0.36599 0.19908 0.28768 0.0
C119 C 0.42133 0.19366 0.28736 0.0
C120 C 0.44252 0.19527 0.2587 0.0
C121 C 0.39927 0.2016 0.24308 0.0
N122 N 0.30299 0.21199 0.20328 0.0
C123 C 0.35582 0.20898 0.19247 0.0
C124 C 0.35649 0.20805 0.16158 0.0
C125 C 0.30055 0.21062 0.15252 0.0
C126 C 0.26866 0.21293 0.17847 0.0
N127 N 0.32885 0.2304 0.24908 0.0
C128 C 0.41337 0.251 0.24977 0.0
C129 C 0.37576 0.24914 0.22503 0.0
C130 C 0.33376 0.23893 0.22523 0.0
C131 C 0.40509 0.24261 0.2746 0.0
C132 C 0.36311 0.23255 0.27385 0.0
N133 N 0.2388 0.19699 0.24406 0.0
C134 C 0.23678 0.17404 0.2288 0.0
C135 C 0.18437 0.17199 0.24392 0.0
C136 C 0.15904 0.18282 0.25873 0.0
C137 C 0.18645 0.19528 0.25812 0.0
C138 C 0.26343 0.18646 0.22945 0.0
H139 H 0.16573 0.20344 0.26943 0.0
H140 H 0.30481 0.18742 0.2185 0.0
H141 H 0.30659 0.23767 0.20563 0.0
H142 H 0.36052 0.22614 0.29308 0.0
C143 C 0.18537 0.23158 0.28132 0.0
C144 C 0.20699 0.21684 0.17878 0.0
C145 C 0.33158 0.20097 0.31536 0.0
C146 C 0.39937 0.20453 0.21212 0.0
H147 H 0.10297 0.23263 0.18948 0.0
H148 H 0.09648 0.24222 0.24448 0.0
H149 H 0.17725 0.22715 0.34454 0.0
H150 H 0.25082 0.20853 0.36192 0.0
H151 H 0.44458 0.18933 0.30608 0.0
H152 H 0.48438 0.19215 0.25028 0.0
H153 H 0.39254 0.20518 0.14739 0.0
H154 H 0.28494 0.21073 0.12954 0.0
H155 H 0.3789 0.25546 0.20543 0.0
H156 H 0.43259 0.24337 0.29428 0.0
H157 H 0.25804 0.16597 0.21718 0.0
H158 H 0.11818 0.1817 0.27048 0.0
C159 C 0.08299 0.06726 0.20582 0.0
C160 C 0.13335 0.05972 0.20687 0.0
C161 C 0.13665 0.05449 0.2352 0.0
C162 C 0.08902 0.05927 0.25012 0.0
N163 N 0.05567 0.06716 0.23289 0.0
Co164 Co 0.98626 0.07718 0.2465 0.0
N165 N 1.00881 0.07537 0.28946 0.0
C166 C 0.04925 0.06707 0.30055 0.0
C167 C 0.05957 0.06885 0.33066 0.0
C168 C 0.02257 0.0787 0.33926 0.0
C169 C 0.99074 0.08223 0.31388 0.0
N170 N 0.91671 0.08712 0.26003 0.0
C171 C 0.90252 0.0919 0.2877 0.0
C172 C 0.84718 0.09731 0.28738 0.0
C173 C 0.826 0.0957 0.25872 0.0
C174 C 0.86926 0.08939 0.2431 0.0
N175 N 0.96556 0.07901 0.2033 0.0
C176 C 0.91273 0.08201 0.19249 0.0
C177 C 0.91207 0.08295 0.16159 0.0
C178 C 0.96802 0.08038 0.15254 0.0
C179 C 0.99991 0.07807 0.17849 0.0
N180 N 0.93972 0.06059 0.24909 0.0
C181 C 0.85521 0.03999 0.24977 0.0
C182 C 0.89282 0.04184 0.22503 0.0
C183 C 0.93481 0.05206 0.22523 0.0
C184 C 0.86349 0.04837 0.27461 0.0
C185 C 0.90547 0.05843 0.27386 0.0
N186 N 0.02973 0.094 0.24409 0.0
C187 C 0.03174 0.11695 0.22882 0.0
C188 C 0.08415 0.119 0.24394 0.0
C189 C 0.10949 0.10817 0.25875 0.0
C190 C 0.08208 0.09572 0.25815 0.0
C191 C 1.00508 0.10453 0.22948 0.0
H192 H 0.10281 0.08755 0.26945 0.0
H193 H 0.9637 0.10357 0.21853 0.0
H194 H 0.96197 0.05332 0.20563 0.0
H195 H 0.90805 0.06484 0.29309 0.0
C196 C 0.0832 0.05941 0.28134 0.0
C197 C 0.06159 0.07417 0.1788 0.0
C198 C 0.93693 0.09 0.31539 0.0
C199 C 0.86917 0.08646 0.21214 0.0
H200 H 0.16562 0.05838 0.1895 0.0
H201 H 0.17211 0.04879 0.24449 0.0
H202 H 0.0913 0.06384 0.34455 0.0
H203 H 0.01769 0.08246 0.36195 0.0
H204 H 0.82391 0.10164 0.30611 0.0
H205 H 0.78413 0.09882 0.25029 0.0
H206 H 0.87602 0.08581 0.14741 0.0
H207 H 0.98363 0.08027 0.12956 0.0
H208 H 0.88967 0.03553 0.20542 0.0
H209 H 0.836 0.0476 0.29429 0.0
H210 H 0.01046 0.12502 0.21721 0.0
H211 H 0.15035 0.1093 0.27049 0.0
C212 C 0.74987 0.96293 0.9285 0.0
C213 C 0.71799 0.96061 0.90256 0.0
C214 C 0.66204 0.95804 0.91161 0.0
C215 C 0.6627 0.95897 0.9425 0.0
N216 N 0.71552 0.96199 0.95331 0.0
Co217 Co 0.73621 0.96382 0.99651 0.0
N218 N 0.66666 0.95388 0.01005 0.0
C219 C 0.61921 0.95161 0.99311 0.0
C220 C 0.57594 0.94529 0.00873 0.0
C221 C 0.59713 0.94369 0.0374 0.0
C222 C 0.65247 0.9491 0.03771 0.0
N223 N 0.75875 0.96564 0.03948 0.0
C224 C 0.7407 0.95877 0.06389 0.0
C225 C 0.77252 0.9623 0.08927 0.0
C226 C 0.8095 0.97216 0.08068 0.0
C227 C 0.79917 0.97393 0.05056 0.0
N228 N 0.80562 0.97384 0.98291 0.0
C229 C 0.83893 0.98174 0.00013 0.0
C230 C 0.88654 0.98652 0.98522 0.0
C231 C 0.88326 0.9813 0.95688 0.0
C232 C 0.83293 0.97374 0.95583 0.0
N233 N 0.68966 0.98041 0.9991 0.0
C234 C 0.60514 1.00101 0.99978 0.0
C235 C 0.61342 0.99263 0.02461 0.0
C236 C 0.6554 0.98257 0.02387 0.0
C237 C 0.64275 0.99915 0.97504 0.0
C238 C 0.68475 0.98894 0.97524 0.0
N239 N 0.77968 0.947 0.99411 0.0
C240 C 0.85944 0.93283 0.00878 0.0
C241 C 0.83411 0.922 0.99398 0.0
C242 C 0.78169 0.92405 0.97885 0.0
C243 C 0.75504 0.93647 0.97951 0.0
C244 C 0.83204 0.94528 0.00817 0.0
H245 H 0.71366 0.93742 0.96855 0.0
H246 H 0.85276 0.95345 0.01947 0.0
H247 H 0.65798 0.97616 0.0431 0.0
H248 H 0.71191 0.98768 0.95564 0.0
C249 C 0.61913 0.95453 0.96215 0.0
C250 C 0.81154 0.96684 0.92881 0.0
C251 C 0.68689 0.95099 0.0654 0.0
C252 C 0.8331 0.9816 0.03135 0.0
H253 H 0.7336 0.96072 0.87957 0.0
H254 H 0.626 0.95517 0.89742 0.0
H255 H 0.53408 0.94217 0.00031 0.0
H256 H 0.57386 0.93936 0.05612 0.0
H257 H 0.76764 0.95855 0.11196 0.0
H258 H 0.84121 0.97717 0.09457 0.0
H259 H 0.92197 0.99224 0.99451 0.0
H260 H 0.91553 0.98264 0.93951 0.0
H261 H 0.58592 0.99339 0.04429 0.0
H262 H 0.63961 1.00547 0.95543 0.0
H263 H 0.9003 0.9317 0.02053 0.0
H264 H 0.76042 0.91597 0.96724 0.0
C265 C 0.01857 0.82808 0.92852 0.0
C266 C 0.05045 0.83039 0.90257 0.0
C267 C 0.1064 0.83297 0.91162 0.0
C268 C 0.10573 0.83203 0.94252 0.0
N269 N 0.05292 0.82902 0.95333 0.0
Co270 Co 0.03223 0.82719 0.99653 0.0
N271 N 0.10178 0.83713 0.01006 0.0
C272 C 0.14922 0.8394 0.99313 0.0
C273 C 0.19249 0.84571 0.00875 0.0
C274 C 0.17131 0.84732 0.03741 0.0
C275 C 0.11597 0.84191 0.03773 0.0
N276 N 0.00968 0.82537 0.0395 0.0
C277 C 0.02774 0.83224 0.06391 0.0
C278 C 0.99592 0.82871 0.08929 0.0
C279 C 0.95893 0.81885 0.0807 0.0
C280 C 0.96926 0.81708 0.05058 0.0
N281 N 0.96282 0.81717 0.98292 0.0
C282 C 0.9295 0.80927 0.00015 0.0
C283 C 0.88189 0.80449 0.98524 0.0
C284 C 0.88517 0.80971 0.9569 0.0
C285 C 0.93551 0.81727 0.95585 0.0
N286 N 0.07878 0.8106 0.99912 0.0
C287 C 0.16331 0.79 0.99979 0.0
C288 C 0.15502 0.79838 0.02463 0.0
C289 C 0.11303 0.80844 0.02388 0.0
C290 C 0.12569 0.79186 0.97505 0.0
C291 C 0.0837 0.80207 0.97526 0.0
N292 N 0.98875 0.84401 0.99412 0.0
C293 C 0.90899 0.85818 0.00879 0.0
C294 C 0.93432 0.86901 0.99399 0.0
C295 C 0.98674 0.86696 0.97887 0.0
C296 C 0.01339 0.85454 0.97952 0.0
C297 C 0.9364 0.84573 0.00818 0.0
H298 H 0.05478 0.85358 0.96857 0.0
H299 H 0.91567 0.83756 0.01948 0.0
H300 H 0.11045 0.81485 0.04312 0.0
H301 H 0.05653 0.80333 0.95565 0.0
C302 C 0.14931 0.83647 0.96217 0.0
C303 C 0.9569 0.82417 0.92883 0.0
C304 C 0.08156 0.84001 0.06542 0.0
C305 C 0.93533 0.80941 0.03137 0.0
H306 H 0.03484 0.83028 0.87959 0.0
H307 H 0.14244 0.83583 0.89744 0.0
H308 H 0.23436 0.84884 0.00033 0.0
H309 H 0.19458 0.85165 0.05614 0.0
H310 H 1.0008 0.83247 0.11198 0.0
H311 H 0.92721 0.81384 0.09458 0.0
H312 H 0.84646 0.79877 0.99453 0.0
H313 H 0.85291 0.80836 0.93953 0.0
H314 H 0.18252 0.79762 0.04431 0.0
H315 H 0.12884 0.78554 0.95545 0.0
H316 H 0.86813 0.8593 0.02053 0.0
H317 H 1.00801 0.87504 0.96725 0.0
C318 C 0.74987 0.82807 0.82109 0.0
C319 C 0.71798 0.83039 0.84704 0.0
C320 C 0.66204 0.83296 0.83798 0.0
C321 C 0.66271 0.83203 0.80708 0.0
N322 N 0.71553 0.82901 0.79628 0.0
Co323 Co 0.73623 0.82718 0.75308 0.0
N324 N 0.66668 0.83712 0.73954 0.0
C325 C 0.61923 0.83939 0.75647 0.0
C326 C 0.57597 0.8457 0.74084 0.0
C327 C 0.59716 0.84731 0.71218 0.0
C328 C 0.6525 0.8419 0.71187 0.0
N329 N 0.75878 0.82536 0.71012 0.0
C330 C 0.74073 0.83223 0.6857 0.0
C331 C 0.77256 0.82869 0.66032 0.0
C332 C 0.80954 0.81884 0.66892 0.0
C333 C 0.79921 0.81706 0.69904 0.0
N334 N 0.80563 0.81716 0.76669 0.0
C335 C 0.83895 0.80926 0.74947 0.0
C336 C 0.88656 0.80447 0.76439 0.0
C337 C 0.88327 0.8097 0.79272 0.0
C338 C 0.83293 0.81726 0.79377 0.0
N339 N 0.68968 0.81059 0.75049 0.0
C340 C 0.60514 0.78999 0.74982 0.0
C341 C 0.61343 0.79837 0.72498 0.0
C342 C 0.65542 0.80843 0.72572 0.0
C343 C 0.64275 0.79185 0.77456 0.0
C344 C 0.68475 0.80206 0.77435 0.0
N345 N 0.7797 0.844 0.75549 0.0
C346 C 0.85947 0.85817 0.74083 0.0
C347 C 0.83413 0.869 0.75562 0.0
C348 C 0.78171 0.86695 0.77074 0.0
C349 C 0.75506 0.85453 0.77008 0.0
C350 C 0.83206 0.84571 0.74143 0.0
H351 H 0.71367 0.85357 0.78103 0.0
H352 H 0.85279 0.83755 0.73013 0.0
H353 H 0.65801 0.81484 0.70649 0.0
H354 H 0.71191 0.80332 0.79396 0.0
C355 C 0.61914 0.83646 0.78743 0.0
C356 C 0.81154 0.82416 0.82079 0.0
C357 C 0.68692 0.84 0.68418 0.0
C358 C 0.83313 0.8094 0.71825 0.0
H359 H 0.73359 0.83028 0.87002 0.0
H360 H 0.62599 0.83583 0.85216 0.0
H361 H 0.5341 0.84882 0.74927 0.0
H362 H 0.57389 0.85163 0.69345 0.0
H363 H 0.76769 0.83245 0.63764 0.0
H364 H 0.84126 0.81383 0.65504 0.0
H365 H 0.92199 0.79876 0.7551 0.0
H366 H 0.91553 0.80836 0.81009 0.0
H367 H 0.58594 0.79761 0.7053 0.0
H368 H 0.63959 0.78553 0.79417 0.0
H369 H 0.90034 0.85929 0.72908 0.0
H370 H 0.76044 0.87503 0.78234 0.0
C371 C 0.0186 0.96292 0.8211 0.0
C372 C 0.05047 0.9606 0.84704 0.0
C373 C 0.10642 0.95803 0.838 0.0
C374 C 0.10576 0.95896 0.8071 0.0
N375 N 0.05295 0.96198 0.79629 0.0
Co376 Co 0.03227 0.96381 0.75309 0.0
N377 N 0.10182 0.95386 0.73956 0.0
C378 C 0.14926 0.9516 0.7565 0.0
C379 C 0.19253 0.94528 0.74088 0.0
C380 C 0.17136 0.94367 0.71221 0.0
C381 C 0.11602 0.94908 0.71189 0.0
N382 N 0.00974 0.96562 0.71012 0.0
C383 C 0.0278 0.95875 0.68571 0.0
C384 C 0.99599 0.96228 0.66032 0.0
C385 C 0.95901 0.97214 0.66891 0.0
C386 C 0.96933 0.97392 0.69903 0.0
N387 N 0.96286 0.97383 0.76669 0.0
C388 C 0.92956 0.98172 0.74946 0.0
C389 C 0.88194 0.98651 0.76437 0.0
C390 C 0.88522 0.98129 0.7927 0.0
C391 C 0.93555 0.97373 0.79376 0.0
N392 N 0.07883 0.9804 0.7505 0.0
C393 C 0.16337 1.00099 0.74983 0.0
C394 C 0.15509 0.99261 0.72499 0.0
C395 C 0.11309 0.98255 0.72573 0.0
C396 C 0.12575 0.99914 0.77456 0.0
C397 C 0.08375 0.98893 0.77435 0.0
N398 N 0.98879 0.94699 0.75549 0.0
C399 C 0.90903 0.93282 0.74082 0.0
C400 C 0.93436 0.92198 0.75562 0.0
C401 C 0.98677 0.92404 0.77075 0.0
C402 C 0.01342 0.93646 0.77009 0.0
C403 C 0.93644 0.94527 0.74143 0.0
H404 H 0.0548 0.93741 0.78105 0.0
H405 H 0.91572 0.95344 0.73012 0.0
H406 H 0.11051 0.97614 0.7065 0.0
H407 H 0.05658 0.98766 0.79396 0.0
C408 C 0.14934 0.95452 0.78746 0.0
C409 C 0.95693 0.96683 0.82078 0.0
C410 C 0.08161 0.95098 0.6842 0.0
C411 C 0.93539 0.98158 0.71824 0.0
H412 H 0.03486 0.96071 0.87003 0.0
H413 H 0.14246 0.95517 0.85219 0.0
H414 H 0.23439 0.94216 0.74931 0.0
H415 H 0.19463 0.93934 0.69349 0.0
H416 H 1.00088 0.95853 0.63764 0.0
H417 H 0.9273 0.97715 0.65502 0.0
H418 H 0.84652 0.99223 0.75507 0.0
H419 H 0.85295 0.98264 0.81007 0.0
H420 H 0.18259 0.99337 0.70531 0.0
H421 H 0.1289 1.00545 0.79417 0.0
H422 H 0.86817 0.93169 0.72907 0.0
H423 H 1.00803 0.91596 0.78236 0.0
C424 C 0.18559 0.56724 0.54376 0.0
C425 C 0.13524 0.5597 0.54271 0.0
C426 C 0.13194 0.55447 0.51437 0.0
C427 C 0.17957 0.55925 0.49946 0.0
N428 N 0.21291 0.56714 0.51669 0.0
Co429 Co 0.28231 0.57716 0.50308 0.0
N430 N 0.25978 0.57535 0.46012 0.0
C431 C 0.21935 0.56705 0.44904 0.0
C432 C 0.20903 0.56882 0.41892 0.0
C433 C 0.24601 0.57868 0.41032 0.0
C434 C 0.27784 0.58221 0.4357 0.0
N435 N 0.35186 0.5871 0.48955 0.0
C436 C 0.36604 0.59189 0.46189 0.0
C437 C 0.42137 0.5973 0.46221 0.0
C438 C 0.44256 0.5957 0.49087 0.0
C439 C 0.3993 0.58937 0.50649 0.0
N440 N 0.30301 0.57899 0.54628 0.0
C441 C 0.35583 0.582 0.55709 0.0
C442 C 0.3565 0.58293 0.58799 0.0
C443 C 0.30055 0.58036 0.59704 0.0
C444 C 0.26866 0.57805 0.5711 0.0
N445 N 0.32887 0.56057 0.50049 0.0
C446 C 0.41338 0.53997 0.49982 0.0
C447 C 0.37576 0.54183 0.52455 0.0
C448 C 0.33378 0.55204 0.52435 0.0
C449 C 0.40511 0.54836 0.47498 0.0
C450 C 0.36313 0.55841 0.47573 0.0
N451 N 0.23883 0.59398 0.50549 0.0
C452 C 0.23681 0.61693 0.52076 0.0
C453 C 0.1844 0.61898 0.50563 0.0
C454 C 0.15907 0.60815 0.49082 0.0
C455 C 0.18648 0.5957 0.49143 0.0
C456 C 0.26346 0.60451 0.5201 0.0
H457 H 0.16577 0.58753 0.48012 0.0
H458 H 0.30484 0.60356 0.53106 0.0
H459 H 0.3066 0.5533 0.54395 0.0
H460 H 0.36056 0.56483 0.4565 0.0
C461 C 0.1854 0.55939 0.46824 0.0
C462 C 0.20699 0.57414 0.57078 0.0
C463 C 0.33163 0.58999 0.4342 0.0
C464 C 0.39939 0.58645 0.53745 0.0
H465 H 0.10297 0.55835 0.56008 0.0
H466 H 0.0965 0.54876 0.50508 0.0
H467 H 0.1773 0.56382 0.40503 0.0
H468 H 0.25089 0.58244 0.38764 0.0
H469 H 0.44464 0.60163 0.44348 0.0
H470 H 0.48442 0.59882 0.49929 0.0
H471 H 0.39254 0.5858 0.60218 0.0
H472 H 0.28494 0.58025 0.62003 0.0
H473 H 0.3789 0.53551 0.54416 0.0
H474 H 0.43261 0.54759 0.4553 0.0
H475 H 0.25807 0.62501 0.53237 0.0
H476 H 0.11822 0.60928 0.47907 0.0
C477 C 0.08298 0.72371 0.54375 0.0
C478 C 0.13335 0.73125 0.54269 0.0
C479 C 0.13664 0.73648 0.51435 0.0
C480 C 0.08902 0.7317 0.49944 0.0
N481 N 0.05566 0.72381 0.51668 0.0
Co482 Co 0.98626 0.71379 0.50307 0.0
N483 N 1.0088 0.7156 0.4601 0.0
C484 C 0.04923 0.7239 0.44902 0.0
C485 C 0.05955 0.72212 0.4189 0.0
C486 C 0.02255 0.71227 0.41031 0.0
C487 C 0.99073 0.70874 0.43569 0.0
N488 N 0.9167 0.70385 0.48954 0.0
C489 C 0.90252 0.69906 0.46187 0.0
C490 C 0.84718 0.69365 0.46219 0.0
C491 C 0.826 0.69526 0.49085 0.0
C492 C 0.86926 0.70158 0.50647 0.0
N493 N 0.96556 0.71196 0.54627 0.0
C494 C 0.91273 0.70896 0.55708 0.0
C495 C 0.91207 0.70802 0.58798 0.0
C496 C 0.96801 0.7106 0.59703 0.0
C497 C 0.9999 0.71291 0.57108 0.0
N498 N 0.93971 0.73038 0.50048 0.0
C499 C 0.8552 0.75098 0.4998 0.0
C500 C 0.89281 0.74913 0.52454 0.0
C501 C 0.9348 0.73891 0.52433 0.0
C502 C 0.86347 0.7426 0.47497 0.0
C503 C 0.90545 0.73254 0.47571 0.0
N504 N 0.02973 0.69697 0.50548 0.0
C505 C 0.03174 0.67402 0.52074 0.0
C506 C 0.08416 0.67197 0.50562 0.0
C507 C 0.10948 0.6828 0.49081 0.0
C508 C 0.08208 0.69525 0.49142 0.0
C509 C 1.00509 0.68644 0.52008 0.0
H510 H 0.1028 0.70342 0.48011 0.0
H511 H 0.96371 0.6874 0.53104 0.0
H512 H 0.96197 0.73765 0.54394 0.0
H513 H 0.90803 0.72613 0.45648 0.0
C514 C 0.08319 0.73156 0.46823 0.0
C515 C 0.06158 0.71681 0.57077 0.0
C516 C 0.93692 0.70096 0.43418 0.0
C517 C 0.86917 0.70451 0.53743 0.0
H518 H 0.16561 0.7326 0.56006 0.0
H519 H 0.1721 0.74219 0.50506 0.0
H520 H 0.09128 0.72713 0.40501 0.0
H521 H 0.01767 0.70851 0.38762 0.0
H522 H 0.82391 0.68933 0.44346 0.0
H523 H 0.78414 0.69214 0.49928 0.0
H524 H 0.87602 0.70516 0.60216 0.0
H525 H 0.98363 0.71071 0.62001 0.0
H526 H 0.88968 0.75544 0.54414 0.0
H527 H 0.83597 0.74336 0.45529 0.0
H528 H 0.01048 0.66594 0.53236 0.0
H529 H 0.15035 0.68167 0.47906 0.0
C530 C 0.18552 0.72372 0.70583 0.0
C531 C 0.13516 0.73127 0.70688 0.0
C532 C 0.13186 0.73649 0.73522 0.0
C533 C 0.17948 0.73171 0.75014 0.0
N534 N 0.21284 0.72383 0.73291 0.0
Co535 Co 0.28224 0.71381 0.74652 0.0
N536 N 0.25969 0.71562 0.78949 0.0
C537 C 0.21925 0.72392 0.80057 0.0
C538 C 0.20893 0.72215 0.83069 0.0
C539 C 0.24592 0.71229 0.83928 0.0
C540 C 0.27775 0.70876 0.8139 0.0
N541 N 0.35179 0.70387 0.76006 0.0
C542 C 0.36597 0.69908 0.78772 0.0
C543 C 0.42131 0.69367 0.78741 0.0
C544 C 0.4425 0.69528 0.75875 0.0
C545 C 0.39924 0.7016 0.74313 0.0
N546 N 0.30295 0.71198 0.70332 0.0
C547 C 0.35577 0.70897 0.69252 0.0
C548 C 0.35645 0.70804 0.66162 0.0
C549 C 0.3005 0.71061 0.65256 0.0
C550 C 0.26861 0.71292 0.67851 0.0
N551 N 0.32879 0.7304 0.74911 0.0
C552 C 0.4133 0.751 0.74979 0.0
C553 C 0.37569 0.74914 0.72505 0.0
C554 C 0.3337 0.73893 0.72526 0.0
C555 C 0.40503 0.74262 0.77463 0.0
C556 C 0.36304 0.73256 0.77388 0.0
N557 N 0.23877 0.69699 0.74411 0.0
C558 C 0.23676 0.67404 0.72885 0.0
C559 C 0.18435 0.67198 0.74397 0.0
C560 C 0.15902 0.68281 0.75877 0.0
C561 C 0.18642 0.69527 0.75817 0.0
C562 C 0.26341 0.68646 0.72951 0.0
H563 H 0.16569 0.70344 0.76948 0.0
H564 H 0.30479 0.68741 0.71855 0.0
H565 H 0.30653 0.73766 0.70565 0.0
H566 H 0.36046 0.72615 0.79311 0.0
C567 C 0.1853 0.73158 0.78135 0.0
C568 C 0.20693 0.71682 0.67882 0.0
C569 C 0.33156 0.70098 0.81541 0.0
C570 C 0.39933 0.70453 0.71217 0.0
H571 H 0.10289 0.73261 0.68951 0.0
H572 H 0.0964 0.7422 0.74451 0.0
H573 H 0.17719 0.72715 0.84457 0.0
H574 H 0.25079 0.70853 0.86197 0.0
H575 H 0.44457 0.68935 0.80614 0.0
H576 H 0.48436 0.69216 0.75033 0.0
H577 H 0.39249 0.70518 0.64743 0.0
H578 H 0.28489 0.71071 0.62958 0.0
H579 H 0.37883 0.75546 0.70545 0.0
H580 H 0.43252 0.74338 0.79431 0.0
H581 H 0.25804 0.66596 0.71723 0.0
H582 H 0.11815 0.68169 0.77052 0.0
C583 C 0.083 0.56725 0.70584 0.0
C584 C 0.13337 0.55971 0.7069 0.0
C585 C 0.13666 0.55449 0.73524 0.0
C586 C 0.08902 0.55927 0.75015 0.0
N587 N 0.05568 0.56715 0.73291 0.0
Co588 Co 0.98626 0.57717 0.74651 0.0
N589 N 1.00879 0.57536 0.78948 0.0
C590 C 0.04922 0.56706 0.80057 0.0
C591 C 0.05953 0.56884 0.83069 0.0
C592 C 0.02253 0.5787 0.83928 0.0
C593 C 0.99072 0.58222 0.8139 0.0
N594 N 0.9167 0.58711 0.76004 0.0
C595 C 0.90252 0.5919 0.7877 0.0
C596 C 0.84718 0.59731 0.78738 0.0
C597 C 0.826 0.5957 0.75871 0.0
C598 C 0.86927 0.58938 0.7431 0.0
N599 N 0.96558 0.57899 0.70331 0.0
C600 C 0.91276 0.582 0.6925 0.0
C601 C 0.9121 0.58293 0.6616 0.0
C602 C 0.96805 0.58036 0.65255 0.0
C603 C 0.99993 0.57805 0.6785 0.0
N604 N 0.93972 0.56058 0.74911 0.0
C605 C 0.85521 0.53998 0.74978 0.0
C606 C 0.89283 0.54183 0.72505 0.0
C607 C 0.93482 0.55205 0.72525 0.0
C608 C 0.86347 0.54836 0.77461 0.0
C609 C 0.90545 0.55842 0.77387 0.0
N610 N 0.02973 0.59399 0.7441 0.0
C611 C 0.03174 0.61694 0.72884 0.0
C612 C 0.08415 0.619 0.74397 0.0
C613 C 0.10948 0.60817 0.75878 0.0
C614 C 0.08208 0.59571 0.75817 0.0
C615 C 1.0051 0.60452 0.72949 0.0
H616 H 0.1028 0.58755 0.76948 0.0
H617 H 0.96372 0.60356 0.71853 0.0
H618 H 0.962 0.55331 0.70565 0.0
H619 H 0.90802 0.56483 0.7931 0.0
C620 C 0.08318 0.5594 0.78137 0.0
C621 C 0.0616 0.57415 0.67882 0.0
C622 C 0.93691 0.59 0.81539 0.0
C623 C 0.86919 0.58645 0.71214 0.0
H624 H 0.16564 0.55836 0.68954 0.0
H625 H 0.17211 0.54878 0.74454 0.0
H626 H 0.09125 0.56384 0.84458 0.0
H627 H 0.01765 0.58245 0.86196 0.0
H628 H 0.82391 0.60164 0.8061 0.0
H629 H 0.78414 0.59882 0.75028 0.0
H630 H 0.87606 0.58579 0.64741 0.0
H631 H 0.98367 0.58025 0.62957 0.0
H632 H 0.8897 0.53551 0.70544 0.0
H633 H 0.83597 0.5476 0.79429 0.0
H634 H 0.01048 0.62502 0.71722 0.0
H635 H 0.15033 0.60929 0.77053 0.0
C636 C 0.74995 0.4629 0.42852 0.0
C637 C 0.71807 0.46058 0.40257 0.0
C638 C 0.66213 0.458 0.41162 0.0
C639 C 0.66279 0.45894 0.44252 0.0
N640 N 0.7156 0.46196 0.45333 0.0
Co641 Co 0.73629 0.46379 0.49653 0.0
N642 N 0.66674 0.45384 0.51006 0.0
C643 C 0.6193 0.45157 0.49312 0.0
C644 C 0.57604 0.44525 0.50875 0.0
C645 C 0.59722 0.44365 0.53741 0.0
C646 C 0.65255 0.44906 0.53773 0.0
N647 N 0.75882 0.4656 0.53949 0.0
C648 C 0.74077 0.45874 0.56391 0.0
C649 C 0.77258 0.46227 0.58929 0.0
C650 C 0.80956 0.47213 0.5807 0.0
C651 C 0.79924 0.4739 0.55057 0.0
N652 N 0.80569 0.47381 0.48292 0.0
C653 C 0.839 0.48171 0.50015 0.0
C654 C 0.88661 0.4865 0.48523 0.0
C655 C 0.88333 0.48127 0.4569 0.0
C656 C 0.833 0.47371 0.45585 0.0
N657 N 0.68972 0.48038 0.49911 0.0
C658 C 0.60519 0.50097 0.49978 0.0
C659 C 0.61347 0.49259 0.52462 0.0
C660 C 0.65546 0.48253 0.52388 0.0
C661 C 0.64281 0.49912 0.47505 0.0
C662 C 0.6848 0.4889 0.47525 0.0
N663 N 0.77977 0.44697 0.49412 0.0
C664 C 0.85954 0.4328 0.50879 0.0
C665 C 0.83422 0.42197 0.49399 0.0
C666 C 0.78181 0.42402 0.47887 0.0
C667 C 0.75514 0.43644 0.47953 0.0
C668 C 0.83213 0.44525 0.50818 0.0
H669 H 0.71376 0.43739 0.46857 0.0
H670 H 0.85284 0.45342 0.51949 0.0
H671 H 0.65804 0.47612 0.54311 0.0
H672 H 0.71197 0.48764 0.45565 0.0
C673 C 0.61922 0.45449 0.46216 0.0
C674 C 0.81162 0.46681 0.42883 0.0
C675 C 0.68696 0.45096 0.56542 0.0
C676 C 0.83317 0.48157 0.53136 0.0
H677 H 0.73368 0.46069 0.37959 0.0
H678 H 0.62609 0.45513 0.39743 0.0
H679 H 0.53418 0.44213 0.50032 0.0
H680 H 0.57395 0.43932 0.55614 0.0
H681 H 0.7677 0.45852 0.61198 0.0
H682 H 0.84127 0.47714 0.59458 0.0
H683 H 0.92203 0.49221 0.49452 0.0
H684 H 0.9156 0.48262 0.43953 0.0
H685 H 0.58598 0.49335 0.5443 0.0
H686 H 0.63966 0.50543 0.45544 0.0
H687 H 0.90041 0.43168 0.52055 0.0
H688 H 0.76054 0.41594 0.46726 0.0
C689 C 0.01871 0.32806 0.42852 0.0
C690 C 0.05058 0.33037 0.40257 0.0
C691 C 0.10653 0.33295 0.41161 0.0
C692 C 0.10588 0.33201 0.44251 0.0
N693 N 0.05307 0.32899 0.45333 0.0
Co694 Co 0.03241 0.32717 0.49653 0.0
N695 N 0.10197 0.33711 0.51005 0.0
C696 C 0.1494 0.33938 0.49311 0.0
C697 C 0.19268 0.34569 0.50873 0.0
C698 C 0.17152 0.3473 0.53739 0.0
C699 C 0.11617 0.34189 0.53772 0.0
N700 N 0.00989 0.32535 0.5395 0.0
C701 C 0.02797 0.33221 0.56391 0.0
C702 C 0.99617 0.32868 0.58929 0.0
C703 C 0.95918 0.31882 0.58071 0.0
C704 C 0.96948 0.31705 0.55058 0.0
N705 N 0.96299 0.31715 0.48293 0.0
C706 C 0.92969 0.30925 0.50016 0.0
C707 C 0.88207 0.30446 0.48525 0.0
C708 C 0.88533 0.30969 0.45692 0.0
C709 C 0.93567 0.31724 0.45586 0.0
N710 N 0.07896 0.31057 0.49911 0.0
C711 C 0.16349 0.28998 0.49976 0.0
C712 C 0.15523 0.29836 0.5246 0.0
C713 C 0.11324 0.30842 0.52386 0.0
C714 C 0.12587 0.29184 0.47503 0.0
C715 C 0.08387 0.30205 0.47525 0.0
N716 N 0.98893 0.34398 0.49413 0.0
C717 C 0.90917 0.35816 0.50881 0.0
C718 C 0.93449 0.36899 0.494 0.0
C719 C 0.9869 0.36694 0.47888 0.0
C720 C 0.01356 0.35452 0.47953 0.0
C721 C 0.93658 0.3457 0.5082 0.0
H722 H 0.05494 0.35356 0.46857 0.0
H723 H 0.91587 0.33753 0.5195 0.0
H724 H 0.11067 0.31483 0.5431 0.0
H725 H 0.05669 0.30331 0.45564 0.0
C726 C 0.14947 0.33645 0.46215 0.0
C727 C 0.95704 0.32415 0.42884 0.0
C728 C 0.08178 0.33999 0.56541 0.0
C729 C 0.93554 0.30939 0.53138 0.0
H730 H 0.03495 0.33026 0.37959 0.0
H731 H 0.14256 0.33581 0.39742 0.0
H732 H 0.23454 0.34881 0.5003 0.0
H733 H 0.1948 0.35162 0.55612 0.0
H734 H 1.00106 0.33244 0.61198 0.0
H735 H 0.92747 0.31381 0.5946 0.0
H736 H 0.84664 0.29874 0.49455 0.0
H737 H 0.85305 0.30834 0.43956 0.0
H738 H 0.18274 0.2976 0.54428 0.0
H739 H 0.129 0.28552 0.45542 0.0
H740 H 0.86831 0.35928 0.52056 0.0
H741 H 1.00816 0.37501 0.46726 0.0
C742 C 0.74997 0.32806 0.32112 0.0
C743 C 0.71809 0.33037 0.34707 0.0
C744 C 0.66214 0.33295 0.33801 0.0
C745 C 0.66282 0.33201 0.30711 0.0
N746 N 0.71563 0.329 0.29631 0.0
Co747 Co 0.73633 0.32717 0.25311 0.0
N748 N 0.66679 0.33711 0.23957 0.0
C749 C 0.61934 0.33938 0.25651 0.0
C750 C 0.57608 0.3457 0.24088 0.0
C751 C 0.59728 0.34731 0.21223 0.0
C752 C 0.65262 0.3419 0.21191 0.0
N753 N 0.75888 0.32536 0.21014 0.0
C754 C 0.74084 0.33222 0.18573 0.0
C755 C 0.77265 0.32869 0.16035 0.0
C756 C 0.80962 0.31883 0.16894 0.0
C757 C 0.79929 0.31705 0.19906 0.0
N758 N 0.80572 0.31715 0.26671 0.0
C759 C 0.83903 0.30925 0.24949 0.0
C760 C 0.88663 0.30446 0.2644 0.0
C761 C 0.88335 0.30968 0.29274 0.0
C762 C 0.83303 0.31724 0.29379 0.0
N763 N 0.68976 0.31058 0.25051 0.0
C764 C 0.60522 0.28999 0.24983 0.0
C765 C 0.61351 0.29837 0.22499 0.0
C766 C 0.65551 0.30843 0.22574 0.0
C767 C 0.64283 0.29184 0.27457 0.0
C768 C 0.68483 0.30205 0.27437 0.0
N769 N 0.77982 0.34399 0.25552 0.0
C770 C 0.85958 0.35816 0.24086 0.0
C771 C 0.83425 0.36899 0.25566 0.0
C772 C 0.78183 0.36694 0.27078 0.0
C773 C 0.75518 0.35452 0.27012 0.0
C774 C 0.83217 0.3457 0.24146 0.0
H775 H 0.7138 0.35356 0.28108 0.0
H776 H 0.85289 0.33753 0.23016 0.0
H777 H 0.6581 0.31484 0.20651 0.0
H778 H 0.712 0.30331 0.29397 0.0
C779 C 0.61924 0.33646 0.28747 0.0
C780 C 0.81164 0.32414 0.32081 0.0
C781 C 0.68704 0.34 0.18422 0.0
C782 C 0.83321 0.30939 0.21827 0.0
H783 H 0.7337 0.33026 0.37005 0.0
H784 H 0.6261 0.33581 0.3522 0.0
H785 H 0.53422 0.34883 0.24931 0.0
H786 H 0.57402 0.35164 0.1935 0.0
H787 H 0.76779 0.33245 0.13767 0.0
H788 H 0.84134 0.31382 0.15506 0.0
H789 H 0.92206 0.29874 0.25511 0.0
H790 H 0.91562 0.30833 0.31011 0.0
H791 H 0.58602 0.29761 0.20531 0.0
H792 H 0.63968 0.28552 0.29417 0.0
H793 H 0.90044 0.35928 0.22911 0.0
H794 H 0.76057 0.37502 0.28239 0.0
C795 C 0.01867 0.46291 0.3211 0.0
C796 C 0.05055 0.4606 0.34704 0.0
C797 C 0.1065 0.45803 0.33799 0.0
C798 C 0.10583 0.45896 0.3071 0.0
N799 N 0.05302 0.46197 0.29629 0.0
Co800 Co 0.03232 0.4638 0.25309 0.0
N801 N 0.10188 0.45386 0.23955 0.0
C802 C 0.14933 0.4516 0.25649 0.0
C803 C 0.1926 0.44528 0.24086 0.0
C804 C 0.17142 0.44368 0.2122 0.0
C805 C 0.11607 0.44908 0.21188 0.0
N806 N 0.00977 0.46561 0.21012 0.0
C807 C 0.02783 0.45875 0.18571 0.0
C808 C 0.996 0.46228 0.16033 0.0
C809 C 0.95901 0.47213 0.16892 0.0
C810 C 0.96934 0.47391 0.19904 0.0
N811 N 0.9629 0.47382 0.2667 0.0
C812 C 0.92959 0.48171 0.24947 0.0
C813 C 0.88197 0.4865 0.26439 0.0
C814 C 0.88526 0.48127 0.29272 0.0
C815 C 0.9356 0.47372 0.29377 0.0
N816 N 0.07886 0.48039 0.2505 0.0
C817 C 0.16339 0.50099 0.24982 0.0
C818 C 0.1551 0.49261 0.22499 0.0
C819 C 0.11311 0.48255 0.22573 0.0
C820 C 0.12578 0.49913 0.27456 0.0
C821 C 0.08378 0.48892 0.27436 0.0
N822 N 0.98886 0.44698 0.2555 0.0
C823 C 0.9091 0.4328 0.24084 0.0
C824 C 0.93445 0.42197 0.25564 0.0
C825 C 0.98686 0.42403 0.27075 0.0
C826 C 0.01351 0.43645 0.27009 0.0
C827 C 0.9365 0.44526 0.24144 0.0
H828 H 0.05489 0.43741 0.28105 0.0
H829 H 0.91577 0.45343 0.23014 0.0
H830 H 0.11052 0.47614 0.20649 0.0
H831 H 0.05662 0.48766 0.29397 0.0
C832 C 0.14941 0.45452 0.28745 0.0
C833 C 0.957 0.46682 0.32079 0.0
C834 C 0.08166 0.45098 0.1842 0.0
C835 C 0.93541 0.48157 0.21825 0.0
H836 H 0.03494 0.4607 0.37003 0.0
H837 H 0.14254 0.45516 0.35218 0.0
H838 H 0.23447 0.44216 0.24929 0.0
H839 H 0.1947 0.43935 0.19347 0.0
H840 H 1.00089 0.45852 0.13764 0.0
H841 H 0.92729 0.47714 0.15504 0.0
H842 H 0.84653 0.49221 0.2551 0.0
H843 H 0.85299 0.48262 0.31009 0.0
H844 H 0.18259 0.49337 0.2053 0.0
H845 H 0.12893 0.50545 0.29417 0.0
H846 H 0.86823 0.43168 0.22909 0.0
H847 H 1.00814 0.41595 0.28236 0.0
C848 C 0.68556 0.06723 0.54374 0.0
C849 C 0.6352 0.05969 0.54269 0.0
C850 C 0.6319 0.05446 0.51435 0.0
C851 C 0.67953 0.05924 0.49944 0.0
N852 N 0.71288 0.06713 0.51667 0.0
Co853 Co 0.78228 0.07715 0.50306 0.0
N854 N 0.75974 0.07533 0.46009 0.0
C855 C 0.71932 0.06703 0.44901 0.0
C856 C 0.709 0.06881 0.41889 0.0
C857 C 0.74598 0.07866 0.4103 0.0
C858 C 0.7778 0.0822 0.43568 0.0
N859 N 0.85183 0.08709 0.48953 0.0
C860 C 0.86601 0.09188 0.46186 0.0
C861 C 0.92134 0.09729 0.46218 0.0
C862 C 0.94253 0.09568 0.49084 0.0
C863 C 0.89927 0.08936 0.50646 0.0
N864 N 0.80298 0.07898 0.54626 0.0
C865 C 0.8558 0.08199 0.55707 0.0
C866 C 0.85647 0.08292 0.58796 0.0
C867 C 0.80052 0.08035 0.59702 0.0
C868 C 0.76863 0.07804 0.57107 0.0
N869 N 0.82883 0.06056 0.50047 0.0
C870 C 0.91335 0.03996 0.4998 0.0
C871 C 0.87573 0.04182 0.52454 0.0
C872 C 0.83374 0.05203 0.52433 0.0
C873 C 0.90508 0.04834 0.47497 0.0
C874 C 0.8631 0.0584 0.47571 0.0
N875 N 0.73881 0.09397 0.50546 0.0
C876 C 0.73679 0.11692 0.52072 0.0
C877 C 0.68439 0.11897 0.50559 0.0
C878 C 0.65906 0.10814 0.49079 0.0
C879 C 0.68646 0.09569 0.4914 0.0
C880 C 0.76344 0.1045 0.52007 0.0
H881 H 0.66574 0.08752 0.48009 0.0
H882 H 0.80482 0.10354 0.53103 0.0
H883 H 0.80656 0.05329 0.54393 0.0
H884 H 0.86052 0.06481 0.45647 0.0
C885 C 0.68536 0.05938 0.46822 0.0
C886 C 0.70696 0.07413 0.57076 0.0
C887 C 0.8316 0.08998 0.43417 0.0
C888 C 0.89937 0.08643 0.53742 0.0
H889 H 0.60293 0.05834 0.56006 0.0
H890 H 0.59645 0.04875 0.50506 0.0
H891 H 0.67727 0.0638 0.40501 0.0
H892 H 0.75086 0.08242 0.38761 0.0
H893 H 0.9446 0.10162 0.44345 0.0
H894 H 0.98439 0.09881 0.49926 0.0
H895 H 0.89252 0.08578 0.60215 0.0
H896 H 0.78491 0.08024 0.62 0.0
H897 H 0.87887 0.0355 0.54414 0.0
H898 H 0.93258 0.04758 0.45529 0.0
H899 H 0.75806 0.125 0.53233 0.0
H900 H 0.6182 0.10927 0.47903 0.0
C901 C 0.58313 0.2237 0.54366 0.0
C902 C 0.6335 0.23125 0.54259 0.0
C903 C 0.63678 0.23647 0.51425 0.0
C904 C 0.58913 0.23169 0.49935 0.0
N905 N 0.55579 0.22381 0.5166 0.0
Co906 Co 0.48635 0.21379 0.50301 0.0
N907 N 0.50886 0.2156 0.46004 0.0
C908 C 0.5493 0.22389 0.44894 0.0
C909 C 0.55959 0.22211 0.41882 0.0
C910 C 0.52258 0.21226 0.41024 0.0
C911 C 0.49077 0.20873 0.43563 0.0
N912 N 0.41678 0.20385 0.4895 0.0
C913 C 0.40257 0.19906 0.46184 0.0
C914 C 0.34722 0.19366 0.46217 0.0
C915 C 0.32607 0.19527 0.49084 0.0
C916 C 0.36935 0.20159 0.50644 0.0
N917 N 0.46569 0.21197 0.54621 0.0
C918 C 0.41287 0.20897 0.55704 0.0
C919 C 0.41223 0.20803 0.58793 0.0
C920 C 0.46819 0.2106 0.59697 0.0
C921 C 0.50006 0.21291 0.57102 0.0
N922 N 0.43982 0.23038 0.50042 0.0
C923 C 0.35532 0.25098 0.49975 0.0
C924 C 0.39295 0.24913 0.52448 0.0
C925 C 0.43494 0.23892 0.52427 0.0
C926 C 0.36357 0.2426 0.47492 0.0
C927 C 0.40555 0.23254 0.47566 0.0
N928 N 0.52981 0.19697 0.50542 0.0
C929 C 0.53181 0.17402 0.52069 0.0
C930 C 0.58421 0.17196 0.50556 0.0
C931 C 0.60954 0.18279 0.49074 0.0
C932 C 0.58215 0.19524 0.49135 0.0
C933 C 0.50517 0.18644 0.52003 0.0
H934 H 0.60287 0.20341 0.48003 0.0
H935 H 0.4638 0.1874 0.531 0.0
H936 H 0.46213 0.23765 0.54387 0.0
H937 H 0.4081 0.22613 0.45643 0.0
C938 C 0.58328 0.23155 0.46814 0.0
C939 C 0.56174 0.21681 0.57069 0.0
C940 C 0.43695 0.20096 0.43414 0.0
C941 C 0.36929 0.20452 0.5374 0.0
H942 H 0.66579 0.23259 0.55995 0.0
H943 H 0.67223 0.24217 0.50495 0.0
H944 H 0.59132 0.22711 0.40492 0.0
H945 H 0.51768 0.2085 0.38756 0.0
H946 H 0.32394 0.18933 0.44345 0.0
H947 H 0.28421 0.19215 0.49927 0.0
H948 H 0.37619 0.20518 0.60213 0.0
H949 H 0.48382 0.21071 0.61995 0.0
H950 H 0.38983 0.25545 0.54409 0.0
H951 H 0.33606 0.24336 0.45525 0.0
H952 H 0.51054 0.16595 0.53232 0.0
H953 H 0.65039 0.18166 0.47898 0.0
C954 C 0.68567 0.22371 0.70575 0.0
C955 C 0.63531 0.23125 0.70678 0.0
C956 C 0.63198 0.23648 0.73512 0.0
C957 C 0.67959 0.2317 0.75005 0.0
N958 N 0.71296 0.22381 0.73283 0.0
Co959 Co 0.78236 0.21379 0.74646 0.0
N960 N 0.75977 0.21561 0.78942 0.0
C961 C 0.71932 0.22391 0.80049 0.0
C962 C 0.70897 0.22213 0.8306 0.0
C963 C 0.74596 0.21228 0.83921 0.0
C964 C 0.77782 0.20875 0.81384 0.0
N965 N 0.8519 0.20386 0.76001 0.0
C966 C 0.86606 0.19908 0.78768 0.0
C967 C 0.92141 0.19367 0.78738 0.0
C968 C 0.94261 0.19527 0.75872 0.0
C969 C 0.89936 0.20159 0.74309 0.0
N970 N 0.80309 0.21196 0.70326 0.0
C971 C 0.85593 0.20895 0.69247 0.0
C972 C 0.85662 0.20802 0.66157 0.0
C973 C 0.80069 0.21059 0.6525 0.0
C974 C 0.76877 0.2129 0.67844 0.0
N975 N 0.8289 0.23039 0.74906 0.0
C976 C 0.9134 0.25099 0.74975 0.0
C977 C 0.87582 0.24913 0.725 0.0
C978 C 0.83383 0.23891 0.72519 0.0
C979 C 0.9051 0.24261 0.77458 0.0
C980 C 0.86312 0.23255 0.77383 0.0
N981 N 0.73889 0.19697 0.74404 0.0
C982 C 0.73691 0.17402 0.7288 0.0
C983 C 0.68448 0.17197 0.74391 0.0
C984 C 0.65913 0.1828 0.7587 0.0
C985 C 0.68653 0.19525 0.75809 0.0
C986 C 0.76355 0.18644 0.72945 0.0
H987 H 0.66579 0.20342 0.76939 0.0
H988 H 0.80494 0.1874 0.7185 0.0
H989 H 0.80669 0.23765 0.70558 0.0
H990 H 0.86052 0.22614 0.79307 0.0
C991 C 0.68538 0.23156 0.78127 0.0
C992 C 0.7071 0.21681 0.67873 0.0
C993 C 0.83164 0.20098 0.81537 0.0
C994 C 0.89947 0.20451 0.71213 0.0
H995 H 0.60306 0.2326 0.68941 0.0
H996 H 0.59652 0.24219 0.7444 0.0
H997 H 0.67722 0.22714 0.84448 0.0
H998 H 0.75082 0.20853 0.8619 0.0
H999 H 0.94466 0.18934 0.80611 0.0
H1000 H 0.98448 0.19215 0.75031 0.0
H1001 H 0.89268 0.20515 0.64739 0.0
H1002 H 0.7851 0.21069 0.62952 0.0
H1003 H 0.87899 0.25544 0.70539 0.0
H1004 H 0.93257 0.24337 0.79427 0.0
H1005 H 0.75819 0.16594 0.71719 0.0
H1006 H 0.61826 0.18167 0.77044 0.0
C1007 C 0.58302 0.06724 0.70583 0.0
C1008 C 0.63337 0.05969 0.70688 0.0
C1009 C 0.63667 0.05447 0.73522 0.0
C1010 C 0.58905 0.05925 0.75013 0.0
N1011 N 0.55571 0.06714 0.7329 0.0
Co1012 Co 0.48632 0.07716 0.74652 0.0
N1013 N 0.50887 0.07535 0.78948 0.0
C1014 C 0.54929 0.06705 0.80056 0.0
C1015 C 0.55963 0.06883 0.83068 0.0
C1016 C 0.52265 0.07869 0.83927 0.0
C1017 C 0.49082 0.08222 0.8139 0.0
N1018 N 0.41678 0.08711 0.76005 0.0
C1019 C 0.40262 0.0919 0.78772 0.0
C1020 C 0.34729 0.09731 0.7874 0.0
C1021 C 0.32609 0.0957 0.75874 0.0
C1022 C 0.36934 0.08938 0.74312 0.0
N1023 N 0.46561 0.07899 0.70332 0.0
C1024 C 0.41278 0.082 0.69251 0.0
C1025 C 0.41211 0.08293 0.66162 0.0
C1026 C 0.46805 0.08036 0.65256 0.0
C1027 C 0.49994 0.07805 0.6785 0.0
N1028 N 0.43975 0.06057 0.74912 0.0
C1029 C 0.35522 0.03998 0.7498 0.0
C1030 C 0.39284 0.04183 0.72506 0.0
C1031 C 0.43484 0.05204 0.72526 0.0
C1032 C 0.3635 0.04836 0.77463 0.0
C1033 C 0.40549 0.05842 0.77388 0.0
N1034 N 0.5298 0.09398 0.7441 0.0
C1035 C 0.53184 0.11693 0.72882 0.0
C1036 C 0.58426 0.11898 0.74394 0.0
C1037 C 0.60958 0.10815 0.75875 0.0
C1038 C 0.58216 0.0957 0.75816 0.0
C1039 C 0.50518 0.10451 0.72949 0.0
H1040 H 0.60288 0.08753 0.76947 0.0
H1041 H 0.46379 0.10356 0.71854 0.0
H1042 H 0.46201 0.0533 0.70566 0.0
H1043 H 0.40807 0.06483 0.79311 0.0
C1044 C 0.58323 0.05939 0.78135 0.0
C1045 C 0.56161 0.07414 0.67881 0.0
C1046 C 0.43703 0.09 0.8154 0.0
C1047 C 0.36923 0.08645 0.71216 0.0
H1048 H 0.66563 0.05835 0.68951 0.0
H1049 H 0.67212 0.04876 0.74451 0.0
H1050 H 0.59135 0.06382 0.84457 0.0
H1051 H 0.51779 0.08245 0.86196 0.0
H1052 H 0.32403 0.10164 0.80613 0.0
H1053 H 0.28423 0.09883 0.75032 0.0
H1054 H 0.37606 0.08579 0.64743 0.0
H1055 H 0.48365 0.08025 0.62957 0.0
H1056 H 0.38969 0.03551 0.70546 0.0
H1057 H 0.336 0.0476 0.79431 0.0
H1058 H 0.51058 0.12501 0.71721 0.0
H1059 H 0.65045 0.10928 0.7705 0.0
C1060 C 0.24995 0.9629 0.42852 0.0
C1061 C 0.21806 0.96059 0.40258 0.0
C1062 C 0.16212 0.95801 0.41163 0.0
C1063 C 0.16279 0.95895 0.44253 0.0
N1064 N 0.2156 0.96196 0.45334 0.0
Co1065 Co 0.2363 0.96379 0.49654 0.0
N1066 N 0.16674 0.95385 0.51007 0.0
C1067 C 0.1193 0.95159 0.49314 0.0
C1068 C 0.07603 0.94527 0.50876 0.0
C1069 C 0.09721 0.94366 0.53742 0.0
C1070 C 0.15255 0.94907 0.53774 0.0
N1071 N 0.25884 0.96561 0.5395 0.0
C1072 C 0.24079 0.95874 0.56392 0.0
C1073 C 0.27261 0.96227 0.58929 0.0
C1074 C 0.3096 0.97213 0.5807 0.0
C1075 C 0.29927 0.97391 0.55058 0.0
N1076 N 0.30571 0.97381 0.48293 0.0
C1077 C 0.33903 0.98171 0.50016 0.0
C1078 C 0.38664 0.98649 0.48524 0.0
C1079 C 0.38335 0.98127 0.4569 0.0
C1080 C 0.33301 0.97372 0.45585 0.0
N1081 N 0.18975 0.98038 0.49913 0.0
C1082 C 0.10521 1.00098 0.49979 0.0
C1083 C 0.1135 0.9926 0.52463 0.0
C1084 C 0.15549 0.98254 0.52389 0.0
C1085 C 0.14283 0.99912 0.47506 0.0
C1086 C 0.18483 0.98891 0.47527 0.0
N1087 N 0.27977 0.94697 0.49413 0.0
C1088 C 0.35953 0.9328 0.50879 0.0
C1089 C 0.33419 0.92197 0.49399 0.0
C1090 C 0.28177 0.92402 0.47887 0.0
C1091 C 0.25512 0.93644 0.47953 0.0
C1092 C 0.33212 0.94526 0.50819 0.0
H1093 H 0.21374 0.9374 0.46858 0.0
H1094 H 0.35285 0.95342 0.51949 0.0
H1095 H 0.15808 0.97613 0.54313 0.0
H1096 H 0.212 0.98765 0.45566 0.0
C1097 C 0.11921 0.95451 0.46217 0.0
C1098 C 0.31162 0.96681 0.42883 0.0
C1099 C 0.18697 0.95097 0.56543 0.0
C1100 C 0.3332 0.98157 0.53137 0.0
H1101 H 0.23367 0.9607 0.37959 0.0
H1102 H 0.12607 0.95515 0.39744 0.0
H1103 H 0.03416 0.94215 0.50034 0.0
H1104 H 0.07393 0.93934 0.55615 0.0
H1105 H 0.26773 0.95852 0.61198 0.0
H1106 H 0.34132 0.97714 0.59459 0.0
H1107 H 0.42207 0.99221 0.49453 0.0
H1108 H 0.41562 0.98262 0.43953 0.0
H1109 H 0.086 0.99336 0.54431 0.0
H1110 H 0.13968 1.00544 0.45545 0.0
H1111 H 0.40039 0.93168 0.52054 0.0
H1112 H 0.26049 0.91594 0.46726 0.0
C1113 C 0.51862 0.82805 0.4285 0.0
C1114 C 0.55051 0.83037 0.40256 0.0
C1115 C 0.60645 0.83294 0.41161 0.0
C1116 C 0.60579 0.83201 0.4425 0.0
N1117 N 0.55297 0.82899 0.45332 0.0
Co1118 Co 0.53228 0.82716 0.49651 0.0
N1119 N 0.60183 0.8371 0.51005 0.0
C1120 C 0.64928 0.83937 0.49311 0.0
C1121 C 0.69255 0.84569 0.50874 0.0
C1122 C 0.67136 0.8473 0.5374 0.0
C1123 C 0.61602 0.84189 0.53771 0.0
N1124 N 0.50974 0.82535 0.53948 0.0
C1125 C 0.52779 0.83221 0.56389 0.0
C1126 C 0.49598 0.82868 0.58927 0.0
C1127 C 0.459 0.81882 0.58068 0.0
C1128 C 0.46932 0.81705 0.55056 0.0
N1129 N 0.46288 0.81714 0.48291 0.0
C1130 C 0.42957 0.80924 0.50013 0.0
C1131 C 0.38195 0.80446 0.48522 0.0
C1132 C 0.38523 0.80968 0.45688 0.0
C1133 C 0.43557 0.81724 0.45583 0.0
N1134 N 0.57884 0.81057 0.4991 0.0
C1135 C 0.66337 0.78998 0.49977 0.0
C1136 C 0.65509 0.79836 0.52461 0.0
C1137 C 0.6131 0.80841 0.52387 0.0
C1138 C 0.62576 0.79183 0.47504 0.0
C1139 C 0.58376 0.80204 0.47524 0.0
N1140 N 0.48881 0.84398 0.49411 0.0
C1141 C 0.40905 0.85815 0.50878 0.0
C1142 C 0.43438 0.86898 0.49398 0.0
C1143 C 0.4868 0.86693 0.47886 0.0
C1144 C 0.51345 0.85451 0.47951 0.0
C1145 C 0.43646 0.8457 0.50817 0.0
H1146 H 0.55483 0.85356 0.46856 0.0
H1147 H 0.41573 0.83753 0.51947 0.0
H1148 H 0.61051 0.81482 0.5431 0.0
H1149 H 0.55659 0.80331 0.45564 0.0
C1150 C 0.64937 0.83645 0.46215 0.0
C1151 C 0.45695 0.82414 0.42881 0.0
C1152 C 0.5816 0.83999 0.5654 0.0
C1153 C 0.4354 0.80938 0.53135 0.0
H1154 H 0.53489 0.83026 0.37957 0.0
H1155 H 0.64249 0.83581 0.39742 0.0
H1156 H 0.73441 0.84881 0.50031 0.0
H1157 H 0.69463 0.85162 0.55612 0.0
H1158 H 0.50085 0.83244 0.61196 0.0
H1159 H 0.42728 0.81381 0.59457 0.0
H1160 H 0.34652 0.79874 0.49451 0.0
H1161 H 0.35296 0.80834 0.43951 0.0
H1162 H 0.68258 0.79759 0.54429 0.0
H1163 H 0.62891 0.78552 0.45543 0.0
H1164 H 0.36819 0.85928 0.52053 0.0
H1165 H 0.50807 0.87501 0.46725 0.0
C1166 C 0.2499 0.82807 0.32109 0.0
C1167 C 0.21802 0.83038 0.34704 0.0
C1168 C 0.16207 0.83296 0.33799 0.0
C1169 C 0.16274 0.83202 0.30709 0.0
N1170 N 0.21555 0.82901 0.29628 0.0
Co1171 Co 0.23624 0.82718 0.25308 0.0
N1172 N 0.16668 0.83712 0.23955 0.0
C1173 C 0.11924 0.83939 0.25649 0.0
C1174 C 0.07597 0.84571 0.24087 0.0
C1175 C 0.09715 0.84732 0.21221 0.0
C1176 C 0.15249 0.84191 0.21189 0.0
N1177 N 0.25877 0.82537 0.21011 0.0
C1178 C 0.24071 0.83223 0.1857 0.0
C1179 C 0.27253 0.8287 0.16032 0.0
C1180 C 0.30951 0.81884 0.16891 0.0
C1181 C 0.29919 0.81707 0.19903 0.0
N1182 N 0.30564 0.81716 0.26668 0.0
C1183 C 0.33895 0.80926 0.24945 0.0
C1184 C 0.38656 0.80448 0.26437 0.0
C1185 C 0.38329 0.8097 0.2927 0.0
C1186 C 0.33295 0.81726 0.29376 0.0
N1187 N 0.18968 0.81059 0.25049 0.0
C1188 C 0.10514 0.79 0.24982 0.0
C1189 C 0.11342 0.79838 0.22498 0.0
C1190 C 0.15542 0.80843 0.22573 0.0
C1191 C 0.14276 0.79185 0.27455 0.0
C1192 C 0.18476 0.80206 0.27435 0.0
N1193 N 0.27971 0.844 0.25549 0.0
C1194 C 0.35947 0.85817 0.24082 0.0
C1195 C 0.33414 0.869 0.25562 0.0
C1196 C 0.28173 0.86695 0.27075 0.0
C1197 C 0.25508 0.85453 0.27009 0.0
C1198 C 0.33207 0.84572 0.24143 0.0
H1199 H 0.21369 0.85358 0.28105 0.0
H1200 H 0.35279 0.83755 0.23012 0.0
H1201 H 0.158 0.81484 0.20649 0.0
H1202 H 0.21193 0.80332 0.29395 0.0
C1203 C 0.11916 0.83647 0.28745 0.0
C1204 C 0.31156 0.82416 0.32078 0.0
C1205 C 0.18691 0.84001 0.1842 0.0
C1206 C 0.33312 0.8094 0.21824 0.0
H1207 H 0.23363 0.83027 0.37002 0.0
H1208 H 0.12603 0.83582 0.35218 0.0
H1209 H 0.03411 0.84883 0.24929 0.0
H1210 H 0.07388 0.85164 0.19348 0.0
H1211 H 0.26765 0.83246 0.13764 0.0
H1212 H 0.34123 0.81384 0.15502 0.0
H1213 H 0.42199 0.79876 0.25507 0.0
H1214 H 0.41555 0.80835 0.31007 0.0
H1215 H 0.08593 0.79762 0.2053 0.0
H1216 H 0.13961 0.78553 0.29416 0.0
H1217 H 0.40034 0.8593 0.22907 0.0
H1218 H 0.26046 0.87503 0.28236 0.0
C1219 C 0.51864 0.96292 0.32109 0.0
C1220 C 0.55053 0.9606 0.34703 0.0
C1221 C 0.60647 0.95803 0.33798 0.0
C1222 C 0.6058 0.95896 0.30708 0.0
N1223 N 0.55298 0.96198 0.29628 0.0
Co1224 Co 0.53227 0.96381 0.25308 0.0
N1225 N 0.60182 0.95387 0.23954 0.0
C1226 C 0.64927 0.9516 0.25647 0.0
C1227 C 0.69253 0.94528 0.24084 0.0
C1228 C 0.67134 0.94368 0.21218 0.0
C1229 C 0.61599 0.94909 0.21187 0.0
N1230 N 0.50972 0.96562 0.21012 0.0
C1231 C 0.52776 0.95876 0.1857 0.0
C1232 C 0.49593 0.96229 0.16033 0.0
C1233 C 0.45895 0.97215 0.16892 0.0
C1234 C 0.46929 0.97392 0.19904 0.0
N1235 N 0.46287 0.97383 0.26669 0.0
C1236 C 0.42956 0.98173 0.24947 0.0
C1237 C 0.38195 0.98651 0.26439 0.0
C1238 C 0.38524 0.98129 0.29273 0.0
C1239 C 0.43557 0.97373 0.29377 0.0
N1240 N 0.57883 0.9804 0.25049 0.0
C1241 C 0.66337 1.00099 0.24981 0.0
C1242 C 0.65507 0.99261 0.22497 0.0
C1243 C 0.61308 0.98256 0.22572 0.0
C1244 C 0.62576 0.99914 0.27455 0.0
C1245 C 0.58376 0.98893 0.27435 0.0
N1246 N 0.4888 0.94699 0.25549 0.0
C1247 C 0.40903 0.93282 0.24083 0.0
C1248 C 0.43436 0.92199 0.25562 0.0
C1249 C 0.48678 0.92404 0.27074 0.0
C1250 C 0.51344 0.93646 0.27008 0.0
C1251 C 0.43644 0.94527 0.24143 0.0
H1252 H 0.55483 0.93741 0.28103 0.0
H1253 H 0.41571 0.95344 0.23013 0.0
H1254 H 0.61048 0.97615 0.20648 0.0
H1255 H 0.5566 0.98766 0.29396 0.0
C1256 C 0.64937 0.95452 0.28743 0.0
C1257 C 0.45697 0.96683 0.32079 0.0
C1258 C 0.58157 0.95098 0.18418 0.0
C1259 C 0.43537 0.98159 0.21825 0.0
H1260 H 0.53492 0.96071 0.37002 0.0
H1261 H 0.64252 0.95516 0.35216 0.0
H1262 H 0.7344 0.94216 0.24926 0.0
H1263 H 0.6946 0.93935 0.19345 0.0
H1264 H 0.5008 0.95853 0.13764 0.0
H1265 H 0.42723 0.97716 0.15504 0.0
H1266 H 0.34652 0.99223 0.25511 0.0
H1267 H 0.35298 0.98263 0.3101 0.0
H1268 H 0.68256 0.99338 0.20529 0.0
H1269 H 0.62892 1.00545 0.29416 0.0
H1270 H 0.36816 0.9317 0.22908 0.0
H1271 H 0.50806 0.91596 0.28235 0.0
C1272 C 0.68552 0.56727 0.04375 0.0
C1273 C 0.63516 0.55972 0.0427 0.0
C1274 C 0.63186 0.5545 0.01436 0.0
C1275 C 0.67949 0.55928 0.99944 0.0
N1276 N 0.71284 0.56717 0.01668 0.0
Co1277 Co 0.78224 0.57719 0.00306 0.0
N1278 N 0.75969 0.57537 0.9601 0.0
C1279 C 0.71926 0.56708 0.94902 0.0
C1280 C 0.70893 0.56885 0.9189 0.0
C1281 C 0.74593 0.57871 0.9103 0.0
C1282 C 0.77775 0.58224 0.93568 0.0
N1283 N 0.85179 0.58713 0.98953 0.0
C1284 C 0.86597 0.59191 0.96186 0.0
C1285 C 0.92131 0.59733 0.96218 0.0
C1286 C 0.94249 0.59572 0.99084 0.0
C1287 C 0.89923 0.5894 0.00646 0.0
N1288 N 0.80294 0.57902 0.04626 0.0
C1289 C 0.85577 0.58203 0.05707 0.0
C1290 C 0.85644 0.58296 0.08797 0.0
C1291 C 0.8005 0.58039 0.09702 0.0
C1292 C 0.7686 0.57807 0.07108 0.0
N1293 N 0.82879 0.5606 0.00047 0.0
C1294 C 0.91332 0.54 -0.0002 0.0
C1295 C 0.8757 0.54186 0.02453 0.0
C1296 C 0.83371 0.55207 0.02433 0.0
C1297 C 0.90504 0.54838 0.97496 0.0
C1298 C 0.86305 0.55844 0.97571 0.0
N1299 N 0.73877 0.59401 0.00548 0.0
C1300 C 0.73675 0.61696 0.02074 0.0
C1301 C 0.68433 0.61901 0.00562 0.0
C1302 C 0.659 0.60818 0.99081 0.0
C1303 C 0.68641 0.59573 0.99142 0.0
C1304 C 0.7634 0.60454 0.02008 0.0
H1305 H 0.66569 0.58756 0.98011 0.0
H1306 H 0.80478 0.60358 0.03104 0.0
H1307 H 0.80653 0.55333 0.04393 0.0
H1308 H 0.86047 0.56485 0.95647 0.0
C1309 C 0.68531 0.55942 0.96823 0.0
C1310 C 0.70693 0.57417 0.07077 0.0
C1311 C 0.83156 0.59001 0.93417 0.0
C1312 C 0.89933 0.58647 0.03742 0.0
H1313 H 0.6029 0.55838 0.06007 0.0
H1314 H 0.59641 0.54879 0.00507 0.0
H1315 H 0.6772 0.56385 0.90501 0.0
H1316 H 0.7508 0.58246 0.88762 0.0
H1317 H 0.94457 0.60165 0.94345 0.0
H1318 H 0.98435 0.59884 0.99926 0.0
H1319 H 0.89249 0.58582 0.10215 0.0
H1320 H 0.78489 0.58028 0.12001 0.0
H1321 H 0.87885 0.53554 0.04414 0.0
H1322 H 0.93253 0.54762 0.95528 0.0
H1323 H 0.75802 0.62503 0.03236 0.0
H1324 H 0.61814 0.6093 0.97906 0.0
C1325 C 0.58292 0.72374 0.04376 0.0
C1326 C 0.63328 0.73128 0.04271 0.0
C1327 C 0.63658 0.73651 0.01437 0.0
C1328 C 0.58895 0.73173 0.99946 0.0
N1329 N 0.5556 0.72384 0.01669 0.0
Co1330 Co 0.4862 0.71382 0.00309 0.0
N1331 N 0.50874 0.71563 0.96012 0.0
C1332 C 0.54917 0.72393 0.94904 0.0
C1333 C 0.55949 0.72215 0.91892 0.0
C1334 C 0.5225 0.7123 0.91032 0.0
C1335 C 0.49067 0.70877 0.9357 0.0
N1336 N 0.41665 0.70388 0.98955 0.0
C1337 C 0.40247 0.69909 0.96189 0.0
C1338 C 0.34713 0.69368 0.96221 0.0
C1339 C 0.32595 0.69528 0.99087 0.0
C1340 C 0.36921 0.70161 0.00649 0.0
N1341 N 0.4655 0.71199 0.04628 0.0
C1342 C 0.41268 0.70898 0.0571 0.0
C1343 C 0.41202 0.70805 0.08799 0.0
C1344 C 0.46796 0.71062 0.09704 0.0
C1345 C 0.49985 0.71293 0.0711 0.0
N1346 N 0.43964 0.73041 0.00049 0.0
C1347 C 0.35513 0.75101 -0.00018 0.0
C1348 C 0.39275 0.74915 0.02456 0.0
C1349 C 0.43474 0.73894 0.02435 0.0
C1350 C 0.3634 0.74262 0.97498 0.0
C1351 C 0.40538 0.73257 0.97573 0.0
N1352 N 0.52967 0.697 0.00549 0.0
C1353 C 0.53169 0.67405 0.02076 0.0
C1354 C 0.5841 0.67199 0.00563 0.0
C1355 C 0.60943 0.68283 0.99082 0.0
C1356 C 0.58202 0.69528 0.99143 0.0
C1357 C 0.50504 0.68647 0.0201 0.0
H1358 H 0.60274 0.70345 0.98012 0.0
H1359 H 0.46366 0.68742 0.03106 0.0
H1360 H 0.46191 0.73768 0.04396 0.0
H1361 H 0.40796 0.72615 0.9565 0.0
C1362 C 0.58312 0.73159 0.96824 0.0
C1363 C 0.56152 0.71684 0.07078 0.0
C1364 C 0.43687 0.70099 0.9342 0.0
C1365 C 0.36912 0.70453 0.03745 0.0
H1366 H 0.66555 0.73263 0.06008 0.0
H1367 H 0.67202 0.74222 0.00508 0.0
H1368 H 0.59121 0.72716 0.90503 0.0
H1369 H 0.51762 0.70854 0.88764 0.0
H1370 H 0.32387 0.68935 0.94348 0.0
H1371 H 0.28409 0.69216 0.9993 0.0
H1372 H 0.37597 0.70519 0.10218 0.0
H1373 H 0.48358 0.71073 0.12003 0.0
H1374 H 0.38961 0.75547 0.04416 0.0
H1375 H 0.3359 0.74339 0.95531 0.0
H1376 H 0.51043 0.66597 0.03237 0.0
H1377 H 0.65029 0.6817 0.97907 0.0
C1378 C 0.6855 0.72373 0.20585 0.0
C1379 C 0.63514 0.73128 0.2069 0.0
C1380 C 0.63185 0.7365 0.23524 0.0
C1381 C 0.67948 0.73172 0.25015 0.0
N1382 N 0.71283 0.72383 0.23292 0.0
Co1383 Co 0.78224 0.71381 0.24652 0.0
N1384 N 0.7597 0.71563 0.28949 0.0
C1385 C 0.71927 0.72392 0.30057 0.0
C1386 C 0.70896 0.72215 0.33069 0.0
C1387 C 0.74595 0.71229 0.33928 0.0
C1388 C 0.77777 0.70876 0.3139 0.0
N1389 N 0.85179 0.70387 0.26005 0.0
C1390 C 0.86597 0.69909 0.28771 0.0
C1391 C 0.92131 0.69367 0.28739 0.0
C1392 C 0.94249 0.69528 0.25873 0.0
C1393 C 0.89923 0.7016 0.24311 0.0
N1394 N 0.80293 0.71199 0.20332 0.0
C1395 C 0.85575 0.70898 0.19251 0.0
C1396 C 0.85641 0.70805 0.16161 0.0
C1397 C 0.80046 0.71062 0.15256 0.0
C1398 C 0.76858 0.71293 0.17851 0.0
N1399 N 0.82878 0.73041 0.24911 0.0
C1400 C 0.9133 0.751 0.24979 0.0
C1401 C 0.87568 0.74915 0.22505 0.0
C1402 C 0.83369 0.73894 0.22526 0.0
C1403 C 0.90503 0.74262 0.27462 0.0
C1404 C 0.86305 0.73256 0.27388 0.0
N1405 N 0.73877 0.69699 0.24411 0.0
C1406 C 0.73675 0.67404 0.22884 0.0
C1407 C 0.68435 0.67199 0.24397 0.0
C1408 C 0.65902 0.68282 0.25878 0.0
C1409 C 0.68642 0.69527 0.25817 0.0
C1410 C 0.7634 0.68647 0.2295 0.0
H1411 H 0.6657 0.70344 0.26948 0.0
H1412 H 0.80478 0.68742 0.21854 0.0
H1413 H 0.80651 0.73767 0.20565 0.0
H1414 H 0.86048 0.72615 0.29311 0.0
C1415 C 0.68531 0.73158 0.28137 0.0
C1416 C 0.70691 0.71683 0.17882 0.0
C1417 C 0.83157 0.70098 0.3154 0.0
C1418 C 0.89932 0.70453 0.21215 0.0
H1419 H 0.60287 0.73262 0.18954 0.0
H1420 H 0.5964 0.74221 0.24454 0.0
H1421 H 0.67723 0.72715 0.34458 0.0
H1422 H 0.75083 0.70853 0.36197 0.0
H1423 H 0.94458 0.68935 0.30611 0.0
H1424 H 0.98435 0.69216 0.2503 0.0
H1425 H 0.89246 0.70519 0.14742 0.0
H1426 H 0.78485 0.71073 0.12957 0.0
H1427 H 0.87882 0.75547 0.20545 0.0
H1428 H 0.93253 0.74338 0.2943 0.0
H1429 H 0.75802 0.66597 0.21722 0.0
H1430 H 0.61816 0.68169 0.27053 0.0
C1431 C 0.583 0.56726 0.20584 0.0
C1432 C 0.63336 0.55972 0.20689 0.0
C1433 C 0.63667 0.55449 0.23523 0.0
C1434 C 0.58904 0.55927 0.25014 0.0
N1435 N 0.55568 0.56716 0.23291 0.0
Co1436 Co 0.48628 0.57717 0.24652 0.0
N1437 N 0.50883 0.57536 0.28949 0.0
C1438 C 0.54927 0.56707 0.30057 0.0
C1439 C 0.55959 0.56884 0.33069 0.0
C1440 C 0.5226 0.5787 0.33928 0.0
C1441 C 0.49076 0.58223 0.3139 0.0
N1442 N 0.41672 0.58711 0.26006 0.0
C1443 C 0.40254 0.5919 0.28772 0.0
C1444 C 0.3472 0.59731 0.28741 0.0
C1445 C 0.32601 0.5957 0.25875 0.0
C1446 C 0.36928 0.58938 0.24313 0.0
N1447 N 0.46557 0.579 0.20333 0.0
C1448 C 0.41274 0.58201 0.19252 0.0
C1449 C 0.41207 0.58294 0.16162 0.0
C1450 C 0.46802 0.58037 0.15257 0.0
C1451 C 0.49991 0.57806 0.17851 0.0
N1452 N 0.43973 0.56058 0.24912 0.0
C1453 C 0.35522 0.53998 0.24979 0.0
C1454 C 0.39283 0.54184 0.22506 0.0
C1455 C 0.43482 0.55205 0.22526 0.0
C1456 C 0.3635 0.54837 0.27463 0.0
C1457 C 0.40548 0.55842 0.27388 0.0
N1458 N 0.52974 0.594 0.24411 0.0
C1459 C 0.53174 0.61695 0.22885 0.0
C1460 C 0.58415 0.619 0.24397 0.0
C1461 C 0.60949 0.60817 0.25877 0.0
C1462 C 0.58209 0.59572 0.25817 0.0
C1463 C 0.5051 0.60452 0.22951 0.0
H1464 H 0.60282 0.58755 0.26948 0.0
H1465 H 0.46371 0.60357 0.21855 0.0
H1466 H 0.46199 0.55332 0.20565 0.0
H1467 H 0.40806 0.56484 0.29312 0.0
C1468 C 0.58322 0.55941 0.28136 0.0
C1469 C 0.56159 0.57416 0.17882 0.0
C1470 C 0.43695 0.59 0.31541 0.0
C1471 C 0.36918 0.58645 0.21217 0.0
H1472 H 0.66563 0.55837 0.18952 0.0
H1473 H 0.67212 0.54878 0.24451 0.0
H1474 H 0.59133 0.56384 0.34457 0.0
H1475 H 0.51772 0.58245 0.36197 0.0
H1476 H 0.32394 0.60164 0.30614 0.0
H1477 H 0.28415 0.59882 0.25033 0.0
H1478 H 0.37602 0.5858 0.14744 0.0
H1479 H 0.48362 0.58026 0.12958 0.0
H1480 H 0.38969 0.53552 0.20545 0.0
H1481 H 0.33601 0.5476 0.29431 0.0
H1482 H 0.51047 0.62502 0.21723 0.0
H1483 H 0.65035 0.6093 0.27052 0.0
C1484 C 0.24995 0.46294 0.92852 0.0
C1485 C 0.21807 0.46062 0.90257 0.0
C1486 C 0.16213 0.45805 0.91162 0.0
C1487 C 0.16279 0.45899 0.94252 0.0
N1488 N 0.2156 0.462 0.95333 0.0
Co1489 Co 0.23629 0.46384 0.99653 0.0
N1490 N 0.16675 0.45389 0.01006 0.0
C1491 C 0.1193 0.45162 0.99313 0.0
C1492 C 0.07604 0.44531 0.00875 0.0
C1493 C 0.09723 0.4437 0.03742 0.0
C1494 C 0.15257 0.44911 0.03773 0.0
N1495 N 0.25883 0.46566 0.03949 0.0
C1496 C 0.24079 0.45879 0.06391 0.0
C1497 C 0.2726 0.46233 0.08928 0.0
C1498 C 0.30957 0.47219 0.08069 0.0
C1499 C 0.29924 0.47396 0.05057 0.0
N1500 N 0.30569 0.47386 0.98292 0.0
C1501 C 0.33899 0.48176 0.00014 0.0
C1502 C 0.38661 0.48655 0.98522 0.0
C1503 C 0.38333 0.48132 0.95689 0.0
C1504 C 0.333 0.47376 0.95584 0.0
N1505 N 0.18973 0.48043 0.99911 0.0
C1506 C 0.10518 0.50102 0.99978 0.0
C1507 C 0.11347 0.49264 0.02462 0.0
C1508 C 0.15547 0.48258 0.02387 0.0
C1509 C 0.14279 0.49916 0.97504 0.0
C1510 C 0.1848 0.48895 0.97525 0.0
N1511 N 0.27978 0.44702 0.99412 0.0
C1512 C 0.35954 0.43285 0.0088 0.0
C1513 C 0.33422 0.42202 0.994 0.0
C1514 C 0.2818 0.42407 0.97888 0.0
C1515 C 0.25514 0.43649 0.97953 0.0
C1516 C 0.33213 0.44531 0.00819 0.0
H1517 H 0.21376 0.43744 0.96858 0.0
H1518 H 0.35285 0.45347 0.01949 0.0
H1519 H 0.15806 0.47617 0.04311 0.0
H1520 H 0.21197 0.48769 0.95564 0.0
C1521 C 0.11921 0.45455 0.96217 0.0
C1522 C 0.31162 0.46685 0.92883 0.0
C1523 C 0.18699 0.45101 0.06542 0.0
C1524 C 0.33316 0.48162 0.03136 0.0
H1525 H 0.23369 0.46073 0.87959 0.0
H1526 H 0.12609 0.45518 0.89744 0.0
H1527 H 0.03418 0.44218 0.00033 0.0
H1528 H 0.07397 0.43937 0.05614 0.0
H1529 H 0.26773 0.45857 0.11197 0.0
H1530 H 0.34128 0.4772 0.09457 0.0
H1531 H 0.42203 0.49227 0.99451 0.0
H1532 H 0.4156 0.48266 0.93952 0.0
H1533 H 0.08598 0.4934 0.0443 0.0
H1534 H 0.13964 0.50548 0.95543 0.0
H1535 H 0.40041 0.43173 0.02055 0.0
H1536 H 0.26053 0.41599 0.96727 0.0
C1537 C 0.51859 0.32809 0.92856 0.0
C1538 C 0.55046 0.3304 0.90261 0.0
C1539 C 0.60641 0.33297 0.91165 0.0
C1540 C 0.60576 0.33204 0.94255 0.0
N1541 N 0.55295 0.32903 0.95337 0.0
Co1542 Co 0.53228 0.32721 0.99657 0.0
N1543 N 0.60185 0.33715 0.01009 0.0
C1544 C 0.64929 0.33941 0.99315 0.0
C1545 C 0.69258 0.34573 0.00876 0.0
C1546 C 0.67142 0.34733 0.03743 0.0
C1547 C 0.61607 0.34193 0.03776 0.0
N1548 N 0.50977 0.3254 0.03954 0.0
C1549 C 0.52784 0.33226 0.06395 0.0
C1550 C 0.49603 0.32874 0.08934 0.0
C1551 C 0.45903 0.31888 0.08076 0.0
C1552 C 0.46934 0.3171 0.05063 0.0
N1553 N 0.46286 0.31719 0.98298 0.0
C1554 C 0.42954 0.30929 0.00022 0.0
C1555 C 0.38191 0.30451 0.98531 0.0
C1556 C 0.38519 0.30973 0.95697 0.0
C1557 C 0.43553 0.31728 0.95591 0.0
N1558 N 0.57882 0.31061 0.99916 0.0
C1559 C 0.66335 0.29002 -0.00018 0.0
C1560 C 0.65509 0.2984 0.02466 0.0
C1561 C 0.6131 0.30846 0.02392 0.0
C1562 C 0.62572 0.29187 0.97509 0.0
C1563 C 0.58373 0.30208 0.9753 0.0
N1564 N 0.48882 0.34403 0.99417 0.0
C1565 C 0.40908 0.3582 0.00884 0.0
C1566 C 0.43442 0.36903 0.99403 0.0
C1567 C 0.48683 0.36698 0.9789 0.0
C1568 C 0.51347 0.35455 0.97956 0.0
C1569 C 0.43648 0.34575 0.00823 0.0
H1570 H 0.55484 0.3536 0.9686 0.0
H1571 H 0.41575 0.33758 0.01954 0.0
H1572 H 0.61052 0.31487 0.04316 0.0
H1573 H 0.55654 0.30335 0.9557 0.0
C1574 C 0.64935 0.33648 0.96219 0.0
C1575 C 0.45692 0.32418 0.92888 0.0
C1576 C 0.58167 0.34003 0.06545 0.0
C1577 C 0.43539 0.30944 0.03143 0.0
H1578 H 0.53484 0.33029 0.87963 0.0
H1579 H 0.64245 0.33583 0.89746 0.0
H1580 H 0.73444 0.34884 0.00033 0.0
H1581 H 0.69471 0.35166 0.05615 0.0
H1582 H 0.50093 0.33249 0.11202 0.0
H1583 H 0.42731 0.31388 0.09465 0.0
H1584 H 0.34648 0.2988 0.99461 0.0
H1585 H 0.35291 0.30839 0.93961 0.0
H1586 H 0.68259 0.29764 0.04433 0.0
H1587 H 0.62886 0.28556 0.95548 0.0
H1588 H 0.36822 0.35933 0.02059 0.0
H1589 H 0.5081 0.37505 0.96729 0.0
C1590 C 0.24991 0.32806 0.82112 0.0
C1591 C 0.218 0.33039 0.84706 0.0
C1592 C 0.16206 0.33296 0.83799 0.0
C1593 C 0.16276 0.33202 0.80709 0.0
N1594 N 0.21558 0.329 0.7963 0.0
Co1595 Co 0.23633 0.32716 0.75311 0.0
N1596 N 0.16679 0.33711 0.73955 0.0
C1597 C 0.11933 0.33938 0.75647 0.0
C1598 C 0.07609 0.34569 0.74083 0.0
C1599 C 0.0973 0.3473 0.71217 0.0
C1600 C 0.15264 0.34189 0.71187 0.0
N1601 N 0.25892 0.32534 0.71015 0.0
C1602 C 0.24089 0.33221 0.68573 0.0
C1603 C 0.27274 0.32867 0.66036 0.0
C1604 C 0.30971 0.31881 0.66897 0.0
C1605 C 0.29934 0.31704 0.69909 0.0
N1606 N 0.30571 0.31715 0.76674 0.0
C1607 C 0.33903 0.30924 0.74953 0.0
C1608 C 0.38662 0.30446 0.76447 0.0
C1609 C 0.38332 0.30969 0.7928 0.0
C1610 C 0.33299 0.31725 0.79383 0.0
N1611 N 0.18977 0.31057 0.75051 0.0
C1612 C 0.10523 0.28998 0.74982 0.0
C1613 C 0.11355 0.29836 0.72498 0.0
C1614 C 0.15554 0.30841 0.72574 0.0
C1615 C 0.14281 0.29184 0.77457 0.0
C1616 C 0.18481 0.30205 0.77438 0.0
N1617 N 0.27981 0.34398 0.75552 0.0
C1618 C 0.35959 0.35815 0.74086 0.0
C1619 C 0.33424 0.36899 0.75565 0.0
C1620 C 0.28182 0.36694 0.77076 0.0
C1621 C 0.25516 0.35452 0.77011 0.0
C1622 C 0.33217 0.3457 0.74147 0.0
H1623 H 0.21377 0.35356 0.78105 0.0
H1624 H 0.3529 0.33753 0.73018 0.0
H1625 H 0.15815 0.31482 0.7065 0.0
H1626 H 0.21195 0.30332 0.79399 0.0
C1627 C 0.11921 0.33646 0.78743 0.0
C1628 C 0.31157 0.32415 0.82083 0.0
C1629 C 0.18709 0.33998 0.6842 0.0
C1630 C 0.33324 0.30938 0.71831 0.0
H1631 H 0.23359 0.33028 0.87005 0.0
H1632 H 0.12601 0.33583 0.85216 0.0
H1633 H 0.03421 0.34882 0.74924 0.0
H1634 H 0.07405 0.35162 0.69344 0.0
H1635 H 0.2679 0.33243 0.63767 0.0
H1636 H 0.34144 0.3138 0.6551 0.0
H1637 H 0.42206 0.29874 0.75519 0.0
H1638 H 0.41556 0.30834 0.81018 0.0
H1639 H 0.08608 0.29759 0.70529 0.0
H1640 H 0.13963 0.28553 0.79418 0.0
H1641 H 0.40046 0.35927 0.72912 0.0
H1642 H 0.26055 0.37502 0.78236 0.0
C1643 C 0.51866 0.46292 0.8211 0.0
C1644 C 0.55055 0.4606 0.84704 0.0
C1645 C 0.6065 0.45803 0.83799 0.0
C1646 C 0.60582 0.45896 0.80709 0.0
N1647 N 0.55301 0.46197 0.79628 0.0
Co1648 Co 0.53231 0.4638 0.75308 0.0
N1649 N 0.60186 0.45386 0.73955 0.0
C1650 C 0.64931 0.45159 0.75648 0.0
C1651 C 0.69258 0.44528 0.74086 0.0
C1652 C 0.6714 0.44367 0.7122 0.0
C1653 C 0.61605 0.44907 0.71188 0.0
N1654 N 0.50976 0.46561 0.71012 0.0
C1655 C 0.52781 0.45874 0.68571 0.0
C1656 C 0.49598 0.46227 0.66033 0.0
C1657 C 0.45899 0.47212 0.66892 0.0
C1658 C 0.46932 0.4739 0.69903 0.0
N1659 N 0.46289 0.47382 0.76669 0.0
C1660 C 0.42957 0.48171 0.74946 0.0
C1661 C 0.38196 0.4865 0.76437 0.0
C1662 C 0.38525 0.48127 0.79271 0.0
C1663 C 0.43559 0.47372 0.79376 0.0
N1664 N 0.57885 0.48039 0.75048 0.0
C1665 C 0.66338 0.50099 0.74981 0.0
C1666 C 0.65509 0.4926 0.72497 0.0
C1667 C 0.6131 0.48255 0.72572 0.0
C1668 C 0.62576 0.49913 0.77454 0.0
C1669 C 0.58377 0.48892 0.77434 0.0
N1670 N 0.48884 0.44698 0.7555 0.0
C1671 C 0.40909 0.4328 0.74085 0.0
C1672 C 0.43444 0.42197 0.75565 0.0
C1673 C 0.48686 0.42403 0.77076 0.0
C1674 C 0.5135 0.43645 0.7701 0.0
C1675 C 0.43648 0.44526 0.74145 0.0
H1676 H 0.55489 0.43741 0.78105 0.0
H1677 H 0.41575 0.45342 0.73015 0.0
H1678 H 0.61052 0.47613 0.70648 0.0
H1679 H 0.5566 0.48766 0.79395 0.0
C1680 C 0.6494 0.45452 0.78745 0.0
C1681 C 0.457 0.46682 0.82079 0.0
C1682 C 0.58163 0.45097 0.6842 0.0
C1683 C 0.43539 0.48157 0.71824 0.0
H1684 H 0.53495 0.46072 0.87003 0.0
H1685 H 0.64254 0.45517 0.85217 0.0
H1686 H 0.73445 0.44216 0.74929 0.0
H1687 H 0.69467 0.43934 0.69348 0.0
H1688 H 0.50086 0.45851 0.63764 0.0
H1689 H 0.42727 0.47713 0.65503 0.0
H1690 H 0.34652 0.49221 0.75508 0.0
H1691 H 0.35299 0.48262 0.81008 0.0
H1692 H 0.68259 0.49336 0.70529 0.0
H1693 H 0.62891 0.50545 0.79415 0.0
H1694 H 0.36821 0.43168 0.72911 0.0
H1695 H 0.50815 0.41595 0.78237 0.0
C1696 C 0.15248 0.0863 0.11203 0.0
C1697 C 0.17115 0.07434 0.09907 0.0
H1698 H 0.10286 0.09563 0.14734 0.0
C1699 C 0.15317 0.06242 0.11242 0.0
H1700 H 0.16567 0.09564 0.10226 0.0
C1701 C 0.11541 0.06241 0.13712 0.0
C1702 C 0.09741 0.07433 0.15049 0.0
H1703 H 0.16745 0.05304 0.10328 0.0
H1704 H 0.10115 0.05303 0.14624 0.0
C1705 C 0.11607 0.0863 0.13755 0.0
C1706 C 0.1525 0.20472 0.13751 0.0
C1707 C 0.17118 0.21669 0.15046 0.0
H1708 H 0.10288 0.19539 0.1022 0.0
C1709 C 0.15321 0.22861 0.13711 0.0
H1710 H 0.16568 0.19538 0.14729 0.0
C1711 C 0.11545 0.22861 0.11241 0.0
C1712 C 0.09745 0.2167 0.09904 0.0
H1713 H 0.16748 0.23799 0.14624 0.0
H1714 H 0.1012 0.238 0.10328 0.0
C1715 C 0.1161 0.20473 0.11199 0.0
C1716 C 0.90244 0.95471 0.86204 0.0
C1717 C 0.92111 0.96668 0.84909 0.0
H1718 H 0.85282 0.94538 0.89735 0.0
C1719 C 0.90312 0.9786 0.86244 0.0
H1720 H 0.91564 0.94537 0.85226 0.0
C1721 C 0.86535 0.9786 0.88714 0.0
C1722 C 0.84736 0.96668 0.9005 0.0
H1723 H 0.91739 0.98798 0.85332 0.0
H1724 H 0.85108 0.98798 0.89626 0.0
C1725 C 0.86602 0.95471 0.88756 0.0
C1726 C 0.86602 0.83629 0.86204 0.0
C1727 C 0.84735 0.82432 0.8491 0.0
H1728 H 0.91562 0.84562 0.89735 0.0
C1729 C 0.86533 0.8124 0.86246 0.0
H1730 H 0.85282 0.84562 0.85226 0.0
C1731 C 0.9031 0.8124 0.88716 0.0
C1732 C 0.92109 0.82432 0.90052 0.0
H1733 H 0.85106 0.80302 0.85334 0.0
H1734 H 0.91737 0.80302 0.89629 0.0
C1735 C 0.90242 0.83629 0.88757 0.0
C1736 C 0.1525 0.58627 0.61204 0.0
C1737 C 0.17117 0.5743 0.59909 0.0
H1738 H 0.10289 0.59561 0.64734 0.0
C1739 C 0.15318 0.56238 0.61246 0.0
H1740 H 0.1657 0.5956 0.60225 0.0
C1741 C 0.11542 0.56238 0.63716 0.0
C1742 C 0.09743 0.5743 0.65051 0.0
H1743 H 0.16745 0.553 0.60333 0.0
H1744 H 0.10116 0.553 0.64629 0.0
C1745 C 0.11609 0.58627 0.63756 0.0
C1746 C 0.11537 0.72858 0.61244 0.0
C1747 C 0.09739 0.71666 0.59908 0.0
H1748 H 0.16739 0.73797 0.64627 0.0
C1749 C 0.11606 0.70469 0.61204 0.0
H1750 H 0.10111 0.73796 0.60331 0.0
C1751 C 0.15246 0.7047 0.63756 0.0
C1752 C 0.17112 0.71667 0.6505 0.0
H1753 H 0.10286 0.69536 0.60225 0.0
H1754 H 0.16566 0.69536 0.64735 0.0
C1755 C 0.15313 0.72858 0.63714 0.0
C1756 C 0.90252 0.45469 0.36205 0.0
C1757 C 0.92118 0.46666 0.3491 0.0
H1758 H 0.85292 0.44535 0.39735 0.0
C1759 C 0.90318 0.47858 0.36246 0.0
H1760 H 0.91573 0.44536 0.35226 0.0
C1761 C 0.86541 0.47857 0.38716 0.0
C1762 C 0.84743 0.46666 0.40052 0.0
H1763 H 0.91744 0.48796 0.35334 0.0
H1764 H 0.85113 0.48796 0.39629 0.0
C1765 C 0.86611 0.45469 0.38757 0.0
C1766 C 0.86614 0.33627 0.36206 0.0
C1767 C 0.84746 0.3243 0.34912 0.0
H1768 H 0.91576 0.3456 0.39736 0.0
C1769 C 0.86544 0.31238 0.36248 0.0
H1770 H 0.85294 0.3456 0.35228 0.0
C1771 C 0.90321 0.31238 0.38718 0.0
C1772 C 0.92121 0.3243 0.40053 0.0
H1773 H 0.85116 0.303 0.35336 0.0
H1774 H 0.91748 0.303 0.3963 0.0
C1775 C 0.90255 0.33627 0.38758 0.0
C1776 C 0.65249 0.08626 0.61202 0.0
C1777 C 0.67114 0.07429 0.59907 0.0
H1778 H 0.6029 0.0956 0.64733 0.0
C1779 C 0.65315 0.06237 0.61243 0.0
H1780 H 0.66569 0.09559 0.60224 0.0
C1781 C 0.6154 0.06237 0.63714 0.0
C1782 C 0.59743 0.07429 0.6505 0.0
H1783 H 0.66741 0.05299 0.6033 0.0
H1784 H 0.60113 0.05299 0.64627 0.0
C1785 C 0.61609 0.08626 0.63755 0.0
C1786 C 0.61621 0.20469 0.61195 0.0
C1787 C 0.59758 0.21665 0.59899 0.0
H1788 H 0.66578 0.19535 0.64727 0.0
C1789 C 0.6156 0.22857 0.61234 0.0
H1790 H 0.60298 0.19535 0.60218 0.0
C1791 C 0.65336 0.22857 0.63705 0.0
C1792 C 0.67131 0.21665 0.65041 0.0
H1793 H 0.60136 0.23796 0.60321 0.0
H1794 H 0.66765 0.23795 0.64617 0.0
C1795 C 0.65261 0.20468 0.63747 0.0
C1796 C 0.36609 0.9547 0.38756 0.0
C1797 C 0.34743 0.96666 0.40052 0.0
H1798 H 0.4157 0.94536 0.35225 0.0
C1799 C 0.36541 0.97858 0.38717 0.0
H1800 H 0.3529 0.94536 0.39734 0.0
C1801 C 0.40317 0.97858 0.36246 0.0
C1802 C 0.42116 0.96667 0.3491 0.0
H1803 H 0.35114 0.98796 0.3963 0.0
H1804 H 0.41744 0.98797 0.35334 0.0
C1805 C 0.4025 0.9547 0.36204 0.0
C1806 C 0.40247 0.83627 0.38756 0.0
C1807 C 0.42113 0.8243 0.40051 0.0
H1808 H 0.35286 0.84561 0.35226 0.0
C1809 C 0.40313 0.81239 0.38714 0.0
H1810 H 0.41568 0.84561 0.39735 0.0
C1811 C 0.36536 0.81239 0.36244 0.0
C1812 C 0.34738 0.82431 0.34909 0.0
H1813 H 0.4174 0.803 0.39626 0.0
H1814 H 0.35109 0.80301 0.35331 0.0
C1815 C 0.36606 0.83627 0.36204 0.0
C1816 C 0.65315 0.5624 0.11244 0.0
C1817 C 0.67112 0.57432 0.09908 0.0
H1818 H 0.60114 0.55302 0.14627 0.0
C1819 C 0.65245 0.58629 0.11203 0.0
H1820 H 0.66741 0.55302 0.10331 0.0
C1821 C 0.61605 0.58628 0.13756 0.0
C1822 C 0.5974 0.57432 0.15051 0.0
H1823 H 0.66564 0.59562 0.10225 0.0
H1824 H 0.60285 0.59562 0.14735 0.0
C1825 C 0.61539 0.5624 0.13714 0.0
C1826 C 0.65309 0.7286 0.13716 0.0
C1827 C 0.67108 0.71668 0.15051 0.0
H1828 H 0.60107 0.73798 0.10333 0.0
C1829 C 0.65242 0.70471 0.13756 0.0
H1830 H 0.66736 0.73798 0.14629 0.0
C1831 C 0.61601 0.70471 0.11204 0.0
C1832 C 0.59735 0.71668 0.09909 0.0
H1833 H 0.66562 0.69538 0.14734 0.0
H1834 H 0.60281 0.69538 0.10225 0.0
C1835 C 0.61533 0.7286 0.11246 0.0
C1836 C 0.40321 0.4786 0.86245 0.0
C1837 C 0.42119 0.46668 0.8491 0.0
H1838 H 0.35118 0.48799 0.89627 0.0
C1839 C 0.40251 0.45471 0.86206 0.0
H1840 H 0.41749 0.48798 0.85331 0.0
C1841 C 0.3661 0.45472 0.88758 0.0
C1842 C 0.34745 0.46669 0.90052 0.0
H1843 H 0.4157 0.44537 0.85228 0.0
H1844 H 0.35289 0.44538 0.89738 0.0
C1845 C 0.36544 0.4786 0.88715 0.0
C1846 C 0.36605 0.33629 0.86208 0.0
C1847 C 0.34737 0.32432 0.84915 0.0
H1848 H 0.41566 0.34563 0.89737 0.0
C1849 C 0.36533 0.3124 0.86253 0.0
H1850 H 0.35287 0.34562 0.85228 0.0
C1851 C 0.4031 0.31241 0.88723 0.0
C1852 C 0.4211 0.32433 0.90057 0.0
H1853 H 0.35106 0.30302 0.85342 0.0
H1854 H 0.41735 0.30303 0.89637 0.0
C1855 C 0.40245 0.33629 0.8876 0.0
C1856 C 0.4796 0.02339 0.97321 0.0
C1857 C 0.46179 0.02981 -6e-05 0.0
H1858 H 0.53708 1.00949 0.95206 0.0
C1859 C 0.49243 0.02672 0.02652 0.0
H1860 H 0.45709 0.02522 0.95224 0.0
C1861 C 0.53888 1.01763 0.02637 0.0
C1862 C 0.55669 1.01121 0.99965 0.0
H1863 H 0.4814 0.03154 0.04752 0.0
H1864 H 0.5614 1.0158 0.04735 0.0
C1865 C 0.52606 1.0143 0.97307 0.0
C1866 C 0.72965 0.2734 0.0264 0.0
C1867 C 0.71182 0.27982 0.99968 0.0
H1868 H 0.78716 0.2595 0.04753 0.0
C1869 C 0.74245 0.27673 0.97309 0.0
H1870 H 0.70714 0.27523 0.04738 0.0
C1871 C 0.78891 0.26765 0.97323 0.0
C1872 C 0.80674 0.26123 -5e-05 0.0
H1873 H 0.7314 0.28155 0.95209 0.0
H1874 H 0.81142 0.26582 0.95225 0.0
C1875 C 0.77612 0.26432 0.02653 0.0
C1876 C 0.47964 0.26761 0.27638 0.0
C1877 C 0.46183 0.2612 0.24965 0.0
H1878 H 0.53713 0.28151 0.29753 0.0
C1879 C 0.49248 0.26429 0.22307 0.0
H1880 H 0.45711 0.26578 0.29735 0.0
C1881 C 0.53895 0.27337 0.22322 0.0
C1882 C 0.55676 0.27979 0.24995 0.0
H1883 H 0.48145 0.25947 0.20207 0.0
H1884 H 0.56148 0.2752 0.20225 0.0
C1885 C 0.52611 0.2767 0.27653 0.0
C1886 C 0.72963 1.01761 0.22321 0.0
C1887 C 0.71183 1.01119 0.24994 0.0
H1888 H 0.78712 0.03152 0.20206 0.0
C1889 C 0.74249 1.01428 0.27652 0.0
H1890 H 0.7071 1.01578 0.20224 0.0
C1891 C 0.78895 0.02336 0.27637 0.0
C1892 C 0.80675 0.02979 0.24964 0.0
H1893 H 0.73147 1.00946 0.29752 0.0
H1894 H 0.81149 0.02519 0.29734 0.0
C1895 C 0.7761 0.0267 0.22306 0.0
C1896 C 0.27604 0.7643 0.02653 0.0
C1897 C 0.30668 0.76121 -5e-05 0.0
H1898 H 0.20705 0.77521 0.04736 0.0
C1899 C 0.28887 0.76763 0.97323 0.0
H1900 H 0.28706 0.75948 0.04753 0.0
C1901 C 0.24241 0.77671 0.97308 0.0
C1902 C 0.21176 0.7798 0.99966 0.0
H1903 H 0.31139 0.7658 0.95225 0.0
H1904 H 0.23138 0.78153 0.95208 0.0
C1905 C 0.22957 0.77338 0.02639 0.0
C1906 C 0.53887 0.77337 0.72322 0.0
C1907 C 0.55668 0.77979 0.74995 0.0
H1908 H 0.48138 0.75947 0.70208 0.0
C1909 C 0.52603 0.7767 0.77653 0.0
H1910 H 0.5614 0.7752 0.70225 0.0
C1911 C 0.47956 0.76762 0.77638 0.0
C1912 C 0.46176 0.7612 0.74966 0.0
H1913 H 0.53705 0.78152 0.79753 0.0
H1914 H 0.45703 0.76579 0.79736 0.0
C1915 C 0.49241 0.76429 0.72308 0.0
C1916 C 0.24247 1.01428 0.77654 0.0
C1917 C 0.21183 1.01119 0.74996 0.0
H1918 H 0.31147 0.02519 0.79737 0.0
C1919 C 0.22965 1.01761 0.72323 0.0
H1920 H 0.23144 1.00946 0.79754 0.0
C1921 C 0.27612 0.02669 0.72309 0.0
C1922 C 0.30676 0.02978 0.74967 0.0
H1923 H 0.20712 1.01578 0.70226 0.0
H1924 H 0.28715 0.03151 0.70209 0.0
C1925 C 0.28894 0.02336 0.77639 0.0
C1926 C 0.5261 0.51426 0.47307 0.0
C1927 C 0.55674 0.51117 0.49966 0.0
H1928 H 0.45712 0.52518 0.45225 0.0
C1929 C 0.53893 0.51759 0.52638 0.0
H1930 H 0.53713 0.50945 0.45207 0.0
C1931 C 0.49247 0.52668 0.52653 0.0
C1932 C 0.46183 0.52977 0.49995 0.0
H1933 H 0.56145 0.51576 0.54736 0.0
H1934 H 0.48144 0.53149 0.54753 0.0
C1935 C 0.47964 0.52335 0.47322 0.0
C1936 C 0.74247 0.77669 0.47306 0.0
C1937 C 0.71183 0.77978 0.49964 0.0
H1938 H 0.81146 0.76577 0.45223 0.0
C1939 C 0.72964 0.77336 0.52637 0.0
H1940 H 0.73145 0.7815 0.45206 0.0
C1941 C 0.7761 0.76427 0.52651 0.0
C1942 C 0.80675 0.76118 0.49993 0.0
H1943 H 0.70711 0.77519 0.54734 0.0
H1944 H 0.78713 0.75945 0.54751 0.0
C1945 C 0.78894 0.7676 0.47321 0.0
C1946 C 0.78895 0.52336 0.77637 0.0
C1947 C 0.80676 0.52978 0.74965 0.0
H1948 H 0.73145 0.50946 0.79752 0.0
C1949 C 0.77612 0.52669 0.72307 0.0
H1950 H 0.81147 0.52519 0.79735 0.0
C1951 C 0.72965 0.5176 0.72321 0.0
C1952 C 0.71184 0.51118 0.74994 0.0
H1953 H 0.78715 0.53151 0.70207 0.0
H1954 H 0.70713 0.51577 0.70224 0.0
C1955 C 0.74248 0.51427 0.77652 0.0
C1956 C 0.22978 0.27336 0.52634 0.0
C1957 C 0.21195 0.27978 0.49962 0.0
H1958 H 0.28729 0.25946 0.54748 0.0
C1959 C 0.24257 0.27669 0.47303 0.0
H1960 H 0.20727 0.27519 0.54732 0.0
C1961 C 0.28904 0.2676 0.47317 0.0
C1962 C 0.30687 0.26118 0.49989 0.0
H1963 H 0.23153 0.28151 0.45204 0.0
H1964 H 0.31154 0.26577 0.45219 0.0
C1965 C 0.27624 0.26428 0.52648 0.0
C1966 C 0.22965 0.51761 0.22323 0.0
C1967 C 0.21185 0.51119 0.24995 0.0
H1968 H 0.28714 0.53151 0.20209 0.0
C1969 C 0.2425 0.51428 0.27653 0.0
H1970 H 0.20712 0.51578 0.20226 0.0
C1971 C 0.28897 0.52336 0.27639 0.0
C1972 C 0.30677 0.52978 0.24966 0.0
H1973 H 0.23148 0.50946 0.29753 0.0
H1974 H 0.3115 0.52519 0.29736 0.0
C1975 C 0.27612 0.52669 0.22308 0.0
C1976 C 0.03893 1.0176 0.52638 0.0
C1977 C 0.05675 1.01117 0.49966 0.0
H1978 H 0.98143 0.0315 0.54752 0.0
C1979 C 0.0261 1.01426 0.47308 0.0
H1980 H 0.06146 1.01577 0.54736 0.0
C1981 C 0.97963 0.02334 0.47322 0.0
C1982 C 0.96181 0.02976 0.49994 0.0
H1983 H 0.03713 1.00944 0.45208 0.0
H1984 H 0.9571 0.02517 0.45224 0.0
C1985 C 0.99246 0.02668 0.52652 0.0
C1986 C 0.97962 0.26761 0.77635 0.0
C1987 C 0.96185 0.26119 0.74963 0.0
H1988 H 0.03707 0.28152 0.79751 0.0
C1989 C 0.99254 0.26427 0.72306 0.0
H1990 H 0.95706 0.26579 0.79732 0.0
C1991 C 0.03901 0.27336 0.72321 0.0
C1992 C 0.05677 0.27978 0.74994 0.0
H1993 H 0.98155 0.25945 0.70206 0.0
H1994 H 0.06157 0.27518 0.70225 0.0
C1995 C 0.02608 0.2767 0.77651 0.0
C1996 C 0.03887 0.77338 0.22322 0.0
C1997 C 0.05668 0.7798 0.24995 0.0
H1998 H 0.98137 0.75948 0.20208 0.0
C1999 C 0.02604 0.77671 0.27653 0.0
H2000 H 0.06139 0.77521 0.20225 0.0
C2001 C 0.97957 0.76762 0.27638 0.0
C2002 C 0.96175 0.7612 0.24966 0.0
H2003 H 0.03707 0.78153 0.29753 0.0
H2004 H 0.95705 0.76579 0.29736 0.0
C2005 C 0.9924 0.76429 0.22308 0.0
C2006 C 0.0389 0.51764 0.02637 0.0
C2007 C 0.05672 0.51121 0.99964 0.0
H2008 H 0.9814 0.53154 0.04751 0.0
C2009 C 0.02606 0.5143 0.97306 0.0
H2010 H 0.06143 0.51581 0.04734 0.0
C2011 C 0.97959 0.52338 0.97321 0.0
C2012 C 0.96178 0.5298 -7e-05 0.0
H2013 H 0.03709 0.50948 0.95206 0.0
H2014 H 0.95706 0.52521 0.95223 0.0
C2015 C 0.99243 0.52672 0.02651 0.0
C2016 C 0.3737 0.07864 0.88945 0.0
C2017 C 0.36123 0.09057 0.90426 0.0
H2018 H 0.40329 0.06922 0.84929 0.0
C2019 C 0.3726 0.10257 0.88941 0.0
H2020 H 0.36542 0.06924 0.90035 0.0
C2021 C 0.3962 0.10257 0.86016 0.0
C2022 C 0.40754 0.09055 0.84534 0.0
H2023 H 0.36295 0.11189 0.90035 0.0
H2024 H 0.40587 0.11187 0.8492 0.0
C2025 C 0.39503 0.07863 0.86017 0.0
C2026 C 0.89489 0.21238 0.88941 0.0
C2027 C 0.90742 0.20046 0.90423 0.0
H2028 H 0.86527 0.22177 0.84923 0.0
C2029 C 0.89612 0.18845 0.8894 0.0
H2030 H 0.90312 0.22179 0.90029 0.0
C2031 C 0.87253 0.18844 0.86014 0.0
C2032 C 0.86113 0.20045 0.84531 0.0
H2033 H 0.90582 0.17914 0.90035 0.0
H2034 H 0.86292 0.17913 0.8492 0.0
C2035 C 0.87357 0.21238 0.86012 0.0
C2036 C 0.39492 0.21235 0.38941 0.0
C2037 C 0.40741 0.20042 0.40421 0.0
H2038 H 0.36532 0.22176 0.34925 0.0
C2039 C 0.39604 0.18841 0.38938 0.0
H2040 H 0.4032 0.22175 0.4003 0.0
C2041 C 0.37244 0.18842 0.36012 0.0
C2042 C 0.36108 0.20043 0.3453 0.0
H2043 H 0.40571 0.1791 0.40031 0.0
H2044 H 0.36278 0.17911 0.34917 0.0
C2045 C 0.37358 0.21235 0.36012 0.0
C2046 C 0.87244 0.10254 0.38942 0.0
C2047 C 0.8611 0.09053 0.40424 0.0
H2048 H 0.90568 0.11186 0.34922 0.0
C2049 C 0.87361 0.0786 0.38941 0.0
H2050 H 0.86276 0.11185 0.40037 0.0
C2051 C 0.89494 0.07861 0.36013 0.0
C2052 C 0.90741 0.09054 0.34532 0.0
H2053 H 0.86536 0.0692 0.40029 0.0
H2054 H 0.90323 0.06921 0.34924 0.0
C2055 C 0.89603 0.10254 0.36016 0.0
C2056 C 0.64602 0.93844 0.11016 0.0
C2057 C 0.65737 0.95045 0.09533 0.0
H2058 H 0.61279 0.92912 0.15036 0.0
C2059 C 0.64488 0.96237 0.11015 0.0
H2060 H 0.65569 0.92913 0.09921 0.0
C2061 C 0.62356 0.96237 0.13944 0.0
C2062 C 0.61109 0.95044 0.15425 0.0
H2063 H 0.65314 0.97177 0.09927 0.0
H2064 H 0.61529 0.97177 0.15033 0.0
C2065 C 0.62244 0.93843 0.13942 0.0
C2066 C 0.12356 0.82863 0.11016 0.0
C2067 C 0.11109 0.84056 0.09535 0.0
H2068 H 0.15315 0.81923 0.15033 0.0
C2069 C 0.12244 0.85257 0.11018 0.0
H2070 H 0.11529 0.81923 0.09927 0.0
C2071 C 0.14603 0.85256 0.13944 0.0
C2072 C 0.15738 0.84055 0.15427 0.0
H2073 H 0.11278 0.86188 0.09924 0.0
H2074 H 0.15569 0.86187 0.15039 0.0
C2075 C 0.14488 0.82863 0.13945 0.0
C2076 C 0.64604 0.85255 0.63942 0.0
C2077 C 0.6574 0.84054 0.65425 0.0
H2078 H 0.61279 0.86186 0.59921 0.0
C2079 C 0.64493 0.82861 0.63944 0.0
H2080 H 0.65569 0.86186 0.65037 0.0
C2081 C 0.62362 0.82861 0.61015 0.0
C2082 C 0.61113 0.84053 0.59533 0.0
H2083 H 0.6532 0.81921 0.65033 0.0
H2084 H 0.61536 0.81921 0.59927 0.0
C2085 C 0.62246 0.85255 0.61016 0.0
C2086 C 0.14607 0.93842 0.61019 0.0
C2087 C 0.15744 0.95043 0.59536 0.0
H2088 H 0.11281 0.92911 0.65039 0.0
C2089 C 0.14497 0.96236 0.61017 0.0
H2090 H 0.15572 0.92911 0.59924 0.0
C2091 C 0.12364 0.96236 0.63946 0.0
C2092 C 0.11115 0.95043 0.65428 0.0
H2093 H 0.15325 0.97176 0.59929 0.0
H2094 H 0.11538 0.97176 0.65034 0.0
C2095 C 0.12248 0.93842 0.63945 0.0
C2096 C 0.37249 0.60255 0.38944 0.0
C2097 C 0.36114 0.59054 0.40427 0.0
H2098 H 0.40573 0.61186 0.34924 0.0
C2099 C 0.37364 0.57861 0.38945 0.0
H2100 H 0.36282 0.61186 0.40039 0.0
C2101 C 0.39497 0.57861 0.36016 0.0
C2102 C 0.40745 0.59054 0.34535 0.0
H2103 H 0.36539 0.56921 0.40033 0.0
H2104 H 0.40325 0.56921 0.34927 0.0
C2105 C 0.39608 0.60255 0.36018 0.0
C2106 C 0.87243 0.68842 0.36015 0.0
C2107 C 0.86108 0.70044 0.34533 0.0
H2108 H 0.90568 0.67911 0.40035 0.0
C2109 C 0.87358 0.71236 0.36015 0.0
H2110 H 0.86276 0.67912 0.3492 0.0
C2111 C 0.89492 0.71236 0.38944 0.0
C2112 C 0.9074 0.70043 0.40425 0.0
H2113 H 0.86532 0.72176 0.34928 0.0
H2114 H 0.9032 0.72176 0.40033 0.0
C2115 C 0.89603 0.68842 0.38941 0.0
C2116 C 0.39486 0.71237 0.88945 0.0
C2117 C 0.40736 0.70044 0.90427 0.0
H2118 H 0.36527 0.72177 0.84928 0.0
C2119 C 0.39601 0.68843 0.88944 0.0
H2120 H 0.40313 0.72177 0.90034 0.0
C2121 C 0.37243 0.68843 0.86018 0.0
C2122 C 0.36106 0.70044 0.84535 0.0
H2123 H 0.40568 0.67912 0.90038 0.0
H2124 H 0.36277 0.67912 0.84923 0.0
C2125 C 0.37354 0.71237 0.86016 0.0
C2126 C 0.89489 0.57862 0.86014 0.0
C2127 C 0.90739 0.59055 0.84532 0.0
H2128 H 0.86528 0.56922 0.90031 0.0
C2129 C 0.89605 0.60256 0.86015 0.0
H2130 H 0.90315 0.56922 0.84926 0.0
C2131 C 0.87245 0.60256 0.88941 0.0
C2132 C 0.86107 0.59055 0.90424 0.0
H2133 H 0.90572 0.61187 0.8492 0.0
H2134 H 0.8628 0.61187 0.90035 0.0
C2135 C 0.87356 0.57862 0.88943 0.0
C2136 C 0.64493 0.46235 0.61016 0.0
C2137 C 0.65743 0.45042 0.59534 0.0
H2138 H 0.61534 0.47175 0.65032 0.0
C2139 C 0.6461 0.43841 0.61018 0.0
H2140 H 0.65319 0.47175 0.59927 0.0
C2141 C 0.62252 0.43841 0.63944 0.0
C2142 C 0.61115 0.45042 0.65427 0.0
H2143 H 0.65577 0.4291 0.59924 0.0
H2144 H 0.61287 0.4291 0.65039 0.0
C2145 C 0.62362 0.46235 0.63944 0.0
C2146 C 0.12383 0.3286 0.61014 0.0
C2147 C 0.11133 0.34053 0.59533 0.0
H2148 H 0.15341 0.3192 0.65031 0.0
C2149 C 0.12265 0.35254 0.61017 0.0
H2150 H 0.11557 0.3192 0.59925 0.0
C2151 C 0.14623 0.35254 0.63944 0.0
C2152 C 0.1576 0.34053 0.65426 0.0
H2153 H 0.11298 0.36185 0.59924 0.0
H2154 H 0.15587 0.36185 0.65039 0.0
C2155 C 0.14514 0.3286 0.63943 0.0
C2156 C 0.6226 0.35257 0.11021 0.0
C2157 C 0.61123 0.34057 0.09537 0.0
H2158 H 0.65587 0.36187 0.15043 0.0
C2159 C 0.6237 0.32864 0.11018 0.0
H2160 H 0.61295 0.36189 0.09928 0.0
C2161 C 0.64502 0.32863 0.13946 0.0
C2162 C 0.65752 0.34055 0.15429 0.0
H2163 H 0.61541 0.31924 0.09929 0.0
H2164 H 0.65327 0.31923 0.15034 0.0
C2165 C 0.64619 0.35257 0.13947 0.0
C2166 C 0.12365 0.46238 0.13946 0.0
C2167 C 0.11119 0.45045 0.15427 0.0
H2168 H 0.15321 0.47179 0.09929 0.0
C2169 C 0.12257 0.43844 0.13943 0.0
H2170 H 0.11535 0.47177 0.15035 0.0
C2171 C 0.14615 0.43845 0.11017 0.0
C2172 C 0.15748 0.45046 0.09535 0.0
H2173 H 0.11293 0.42913 0.15037 0.0
H2174 H 0.15583 0.42914 0.09921 0.0
C2175 C 0.14496 0.46238 0.11017 0.0
C2176 C 0.12325 0.15201 0.9781 0.0
C2177 C 0.11129 0.15858 0.00534 0.0
H2178 H 0.15416 0.13422 0.9568 0.0
C2179 C 0.12261 0.15194 0.03255 0.0
H2180 H 0.11446 0.15683 0.95679 0.0
C2181 C 0.14609 0.13913 0.03255 0.0
C2182 C 0.15738 0.13248 0.00535 0.0
H2183 H 0.1137 0.15671 0.05389 0.0
H2184 H 0.15502 0.13436 0.05389 0.0
C2185 C 0.14539 0.13904 0.9781 0.0
C2186 C 0.14533 0.15198 0.27142 0.0
C2187 C 0.1573 0.15855 0.24417 0.0
H2188 H 0.11441 0.1342 0.29273 0.0
C2189 C 0.14599 0.1519 0.21697 0.0
H2190 H 0.15411 0.1568 0.29273 0.0
C2191 C 0.12252 0.13909 0.21698 0.0
C2192 C 0.11122 0.13244 0.24418 0.0
H2193 H 0.15491 0.15667 0.19563 0.0
H2194 H 0.1136 0.13431 0.19564 0.0
C2195 C 0.12319 0.13901 0.27143 0.0
C2196 C 0.89595 0.8891 0.96703 0.0
C2197 C 0.90725 0.88245 0.99423 0.0
H2198 H 0.86356 0.90668 0.94568 0.0
C2199 C 0.89528 0.88902 0.02148 0.0
H2200 H 0.90487 0.88432 0.94569 0.0
C2201 C 0.87315 0.90199 0.02148 0.0
C2202 C 0.86118 0.90856 0.99423 0.0
H2203 H 0.90406 0.8842 0.04278 0.0
H2204 H 0.86437 0.90681 0.04278 0.0
C2205 C 0.87248 0.90191 0.96702 0.0
C2206 C 0.87249 0.88909 0.78258 0.0
C2207 C 0.86121 0.88244 0.75537 0.0
H2208 H 0.90487 0.90667 0.80392 0.0
C2209 C 0.8732 0.889 0.72813 0.0
H2210 H 0.86356 0.88432 0.80392 0.0
C2211 C 0.89533 0.90198 0.72813 0.0
C2212 C 0.90728 0.90855 0.75538 0.0
H2213 H 0.86443 0.88419 0.70682 0.0
H2214 H 0.90412 0.90679 0.70682 0.0
C2215 C 0.89597 0.9019 0.78258 0.0
C2216 C 0.12321 0.65196 0.47813 0.0
C2217 C 0.11123 0.65853 0.50538 0.0
H2218 H 0.15414 0.63417 0.45683 0.0
C2219 C 0.12253 0.65188 0.53258 0.0
H2220 H 0.11443 0.65678 0.45683 0.0
C2221 C 0.14601 0.63907 0.53258 0.0
C2222 C 0.15732 0.63242 0.50538 0.0
H2223 H 0.11361 0.65665 0.55392 0.0
H2224 H 0.15493 0.6343 0.55392 0.0
C2225 C 0.14535 0.63899 0.47813 0.0
C2226 C 0.14599 0.65189 0.71701 0.0
C2227 C 0.15728 0.65854 0.74422 0.0
H2228 H 0.1136 0.63431 0.69567 0.0
C2229 C 0.14531 0.65198 0.77146 0.0
H2230 H 0.15491 0.65667 0.69567 0.0
C2231 C 0.12318 0.639 0.77146 0.0
C2232 C 0.11121 0.63244 0.74421 0.0
H2233 H 0.15409 0.65679 0.79277 0.0
H2234 H 0.1144 0.63419 0.79277 0.0
C2235 C 0.12252 0.63909 0.71701 0.0
C2236 C 0.87329 0.40196 0.52149 0.0
C2237 C 0.8613 0.40853 0.49424 0.0
H2238 H 0.90422 0.38418 0.5428 0.0
C2239 C 0.87261 0.40188 0.46704 0.0
H2240 H 0.8645 0.40678 0.5428 0.0
C2241 C 0.89609 0.38907 0.46704 0.0
C2242 C 0.9074 0.38243 0.49425 0.0
H2243 H 0.86369 0.40665 0.4457 0.0
H2244 H 0.90501 0.3843 0.4457 0.0
C2245 C 0.89543 0.38899 0.52149 0.0
C2246 C 0.87329 0.38899 0.22815 0.0
C2247 C 0.86132 0.38243 0.2554 0.0
H2248 H 0.9042 0.40678 0.20684 0.0
C2249 C 0.87261 0.38908 0.2826 0.0
H2250 H 0.86452 0.38417 0.20685 0.0
C2251 C 0.89608 0.40189 0.2826 0.0
C2252 C 0.90738 0.40854 0.25539 0.0
H2253 H 0.86369 0.38431 0.30395 0.0
H2254 H 0.90499 0.40667 0.30394 0.0
C2255 C 0.89542 0.40197 0.22815 0.0
C2256 C 0.64603 0.13907 0.53253 0.0
C2257 C 0.65732 0.13241 0.50534 0.0
H2258 H 0.61367 0.15665 0.55387 0.0
C2259 C 0.64535 0.13898 0.47808 0.0
H2260 H 0.65496 0.13429 0.55388 0.0
C2261 C 0.62322 0.15195 0.47808 0.0
C2262 C 0.61126 0.15852 0.50532 0.0
H2263 H 0.65412 0.13416 0.45678 0.0
H2264 H 0.61444 0.15676 0.45677 0.0
C2265 C 0.62257 0.15187 0.53253 0.0
C2266 C 0.62329 0.13899 0.77143 0.0
C2267 C 0.61134 0.13242 0.74418 0.0
H2268 H 0.65419 0.15679 0.79272 0.0
C2269 C 0.62267 0.13906 0.71697 0.0
H2270 H 0.61449 0.13418 0.79273 0.0
C2271 C 0.64615 0.15187 0.71697 0.0
C2272 C 0.65742 0.15853 0.74417 0.0
H2273 H 0.61377 0.13428 0.69564 0.0
H2274 H 0.65508 0.15664 0.69562 0.0
C2275 C 0.64543 0.15196 0.77142 0.0
C2276 C 0.37323 0.90196 0.52148 0.0
C2277 C 0.36125 0.90853 0.49424 0.0
H2278 H 0.40414 0.88417 0.54278 0.0
C2279 C 0.37254 0.90188 0.46703 0.0
H2280 H 0.36446 0.90678 0.54279 0.0
C2281 C 0.39601 0.88907 0.46703 0.0
C2282 C 0.40732 0.88242 0.49423 0.0
H2283 H 0.36362 0.90666 0.44569 0.0
H2284 H 0.40492 0.8843 0.44569 0.0
C2285 C 0.39535 0.88899 0.52148 0.0
C2286 C 0.39532 0.90198 0.22813 0.0
C2287 C 0.40729 0.90855 0.25538 0.0
H2288 H 0.36441 0.88419 0.20683 0.0
C2289 C 0.39599 0.9019 0.28258 0.0
H2290 H 0.4041 0.9068 0.20682 0.0
C2291 C 0.37251 0.88909 0.28258 0.0
C2292 C 0.36121 0.88244 0.25538 0.0
H2293 H 0.4049 0.90668 0.30392 0.0
H2294 H 0.36359 0.88432 0.30392 0.0
C2295 C 0.37319 0.88901 0.22813 0.0
C2296 C 0.62315 0.65199 0.97813 0.0
C2297 C 0.61118 0.65856 0.00538 0.0
H2298 H 0.65406 0.6342 0.95682 0.0
C2299 C 0.62248 0.65191 0.03258 0.0
H2300 H 0.61436 0.65681 0.95683 0.0
C2301 C 0.64596 0.6391 0.03258 0.0
C2302 C 0.65726 0.63245 0.00537 0.0
H2303 H 0.61357 0.65668 0.05392 0.0
H2304 H 0.65488 0.63432 0.05392 0.0
C2305 C 0.64528 0.63902 0.97813 0.0
C2306 C 0.64598 0.6519 0.21701 0.0
C2307 C 0.65728 0.65855 0.24422 0.0
H2308 H 0.61359 0.63432 0.19567 0.0
C2309 C 0.64532 0.65198 0.27146 0.0
H2310 H 0.65489 0.65667 0.19567 0.0
C2311 C 0.62319 0.63901 0.27146 0.0
C2312 C 0.61122 0.63244 0.24422 0.0
H2313 H 0.6541 0.6568 0.29277 0.0
H2314 H 0.61442 0.63419 0.29277 0.0
C2315 C 0.62251 0.63909 0.21701 0.0
C2316 C 0.37258 0.40193 0.96706 0.0
C2317 C 0.36129 0.40858 0.99426 0.0
H2318 H 0.40496 0.38434 0.94573 0.0
C2319 C 0.37327 0.40202 0.02151 0.0
H2320 H 0.36366 0.4067 0.94572 0.0
C2321 C 0.39539 0.38904 0.02152 0.0
C2322 C 0.40735 0.38247 0.99427 0.0
H2323 H 0.36449 0.40684 0.04281 0.0
H2324 H 0.40418 0.38423 0.04282 0.0
C2325 C 0.39605 0.38912 0.96706 0.0
C2326 C 0.39523 0.40198 0.72816 0.0
C2327 C 0.40738 0.40853 0.7554 0.0
H2328 H 0.36418 0.3842 0.70685 0.0
C2329 C 0.39625 0.40186 0.7826 0.0
H2330 H 0.40387 0.40681 0.70685 0.0
C2331 C 0.37279 0.38906 0.7826 0.0
C2332 C 0.36132 0.38242 0.7554 0.0
H2333 H 0.4053 0.40663 0.80395 0.0
H2334 H 0.364 0.38427 0.80394 0.0
C2335 C 0.37311 0.38901 0.72815 0.0
loop_
_geom_bond_atom_site_label_1
_geom_bond_atom_site_label_2
_geom_bond_distance
_geom_bond_site_symmetry_2
_ccdc_geom_bond_type
C0 C1 1.443 . S
C0 N4 1.376 . S
C0 C38 1.389 . S
C1 C0 1.443 . S
C1 C2 1.340 . S
C1 H41 0.951 . S
C2 C1 1.340 . S
C2 C3 1.439 . S
C2 H42 0.950 . S
C3 C2 1.439 . S
C3 N4 1.374 . S
C3 C37 1.395 1_554 S
N4 C0 1.376 . S
N4 C3 1.374 . S
N4 Co5 2.008 . S
Co5 N4 2.008 . S
Co5 N6 1.995 1_554 S
Co5 N11 2.008 1_554 S
Co5 N16 1.995 . S
Co5 N21 2.282 . S
Co5 N27 2.282 . S
N6 Co5 1.995 1_556 S
N6 C7 1.376 . S
N6 C10 1.383 . S
C7 N6 1.376 . S
C7 C8 1.446 . S
C7 C37 1.391 . S
C8 C7 1.446 . S
C8 C9 1.339 . S
C8 H43 0.949 . S
C9 C8 1.339 . S
C9 C10 1.439 . S
C9 H44 0.950 . S
C10 N6 1.383 . S
C10 C9 1.439 . S
C10 C39 1.392 . S
N11 Co5 2.008 1_556 S
N11 C12 1.376 . S
N11 C15 1.374 1_556 S
C12 N11 1.376 . S
C12 C13 1.443 . S
C12 C39 1.389 . S
C13 C12 1.443 . S
C13 C14 1.340 . S
C13 H45 0.951 . S
C14 C13 1.340 . S
C14 C15 1.439 1_556 S
C14 H46 0.950 . S
C15 N11 1.374 1_554 S
C15 C14 1.439 1_554 S
C15 C40 1.395 . S
N16 Co5 1.995 . S
N16 C17 1.376 . S
N16 C20 1.383 . S
C17 N16 1.376 . S
C17 C18 1.446 . S
C17 C40 1.391 . S
C18 C17 1.446 . S
C18 C19 1.339 . S
C18 H47 0.949 . S
C19 C18 1.339 . S
C19 C20 1.439 . S
C19 H48 0.950 . S
C20 N16 1.383 . S
C20 C19 1.439 . S
C20 C38 1.392 . S
N21 Co5 2.282 . S
N21 C24 1.332 . S
N21 C26 1.332 1_554 S
C22 C23 1.386 . S
C22 C25 1.388 1_554 S
C23 C22 1.386 . S
C23 C24 1.382 . S
C23 H49 0.950 . S
C24 N21 1.332 . S
C24 C23 1.382 . S
C24 H35 0.952 . S
C25 C22 1.388 1_556 S
C25 C26 1.382 . S
C25 H50 0.950 . S
C26 N21 1.332 1_556 S
C26 C25 1.382 . S
C26 H36 0.948 . S
N27 Co5 2.282 . S
N27 C31 1.332 1_554 S
N27 C32 1.332 . S
C28 C29 1.388 . S
C28 C32 1.382 . S
C28 H51 0.950 . S
C29 C28 1.388 . S
C29 C30 1.386 1_554 S
C30 C29 1.386 1_556 S
C30 C31 1.382 . S
C30 H52 0.950 . S
C31 N27 1.332 1_556 S
C31 C30 1.382 . S
C31 H33 0.952 . S
C32 N27 1.332 . S
C32 C28 1.382 . S
C32 H34 0.948 . S
H33 C31 0.952 . S
H34 C32 0.948 . S
H35 C24 0.952 . S
H36 C26 0.948 . S
C37 C3 1.395 1_556 S
C37 C7 1.391 . S
C38 C0 1.389 . S
C38 C20 1.392 . S
C39 C10 1.392 . S
C39 C12 1.389 . S
C40 C15 1.395 . S
C40 C17 1.391 . S
H41 C1 0.951 . S
H42 C2 0.950 . S
H43 C8 0.949 . S
H44 C9 0.950 . S
H45 C13 0.951 . S
H46 C14 0.950 . S
H47 C18 0.949 . S
H48 C19 0.950 . S
H49 C23 0.950 . S
H50 C25 0.950 . S
H51 C28 0.950 . S
H52 C30 0.950 . S
C53 C54 1.443 . S
C53 N57 1.376 . S
C53 C91 1.389 . S
C54 C53 1.443 . S
C54 C55 1.340 . S
C54 H94 0.951 . S
C55 C54 1.340 . S
C55 C56 1.439 . S
C55 H95 0.950 . S
C56 C55 1.439 . S
C56 N57 1.374 . S
C56 C90 1.395 1_554 S
N57 C53 1.376 . S
N57 C56 1.374 . S
N57 Co58 2.008 1_455 S
Co58 N57 2.008 1_655 S
Co58 N59 1.995 1_654 S
Co58 N64 2.008 1_554 S
Co58 N69 1.995 . S
Co58 N74 2.282 . S
Co58 N80 2.282 1_655 S
N59 Co58 1.995 1_456 S
N59 C60 1.376 . S
N59 C63 1.383 1_455 S
C60 N59 1.376 . S
C60 C61 1.446 . S
C60 C90 1.391 . S
C61 C60 1.446 . S
C61 C62 1.339 1_455 S
C61 H96 0.949 . S
C62 C61 1.339 1_655 S
C62 C63 1.439 . S
C62 H97 0.950 . S
C63 N59 1.383 1_655 S
C63 C62 1.439 . S
C63 C92 1.392 . S
N64 Co58 2.008 1_556 S
N64 C65 1.376 . S
N64 C68 1.374 1_556 S
C65 N64 1.376 . S
C65 C66 1.443 . S
C65 C92 1.389 . S
C66 C65 1.443 . S
C66 C67 1.340 . S
C66 H98 0.951 . S
C67 C66 1.340 . S
C67 C68 1.439 1_556 S
C67 H99 0.950 . S
C68 N64 1.374 1_554 S
C68 C67 1.439 1_554 S
C68 C93 1.395 . S
N69 Co58 1.995 . S
N69 C70 1.376 . S
N69 C73 1.383 . S
C70 N69 1.376 . S
C70 C71 1.446 . S
C70 C93 1.391 . S
C71 C70 1.446 . S
C71 C72 1.339 . S
C71 H100 0.949 . S
C72 C71 1.339 . S
C72 C73 1.439 . S
C72 H101 0.950 . S
C73 N69 1.383 . S
C73 C72 1.439 . S
C73 C91 1.392 1_655 S
N74 Co58 2.282 . S
N74 C77 1.332 . S
N74 C79 1.332 1_554 S
C75 C76 1.386 . S
C75 C78 1.388 1_554 S
C76 C75 1.386 . S
C76 C77 1.382 . S
C76 H102 0.950 . S
C77 N74 1.332 . S
C77 C76 1.382 . S
C77 H88 0.952 . S
C78 C75 1.388 1_556 S
C78 C79 1.382 . S
C78 H103 0.950 . S
C79 N74 1.332 1_556 S
C79 C78 1.382 . S
C79 H89 0.948 . S
N80 Co58 2.282 1_455 S
N80 C84 1.332 1_554 S
N80 C85 1.332 . S
C81 C82 1.388 . S
C81 C85 1.382 . S
C81 H104 0.950 . S
C82 C81 1.388 . S
C82 C83 1.386 1_554 S
C83 C82 1.386 1_556 S
C83 C84 1.382 . S
C83 H105 0.950 . S
C84 N80 1.332 1_556 S
C84 C83 1.382 . S
C84 H86 0.952 . S
C85 N80 1.332 . S
C85 C81 1.382 . S
C85 H87 0.948 1_455 S
H86 C84 0.952 . S
H87 C85 0.948 1_655 S
H88 C77 0.952 . S
H89 C79 0.948 . S
C90 C56 1.395 1_556 S
C90 C60 1.391 . S
C91 C53 1.389 . S
C91 C73 1.392 1_455 S
C92 C63 1.392 . S
C92 C65 1.389 . S
C93 C68 1.395 . S
C93 C70 1.391 . S
H94 C54 0.951 . S
H95 C55 0.950 . S
H96 C61 0.949 . S
H97 C62 0.950 . S
H98 C66 0.951 . S
H99 C67 0.950 . S
H100 C71 0.949 . S
H101 C72 0.950 . S
H102 C76 0.950 . S
H103 C78 0.950 . S
H104 C81 0.950 . S
H105 C83 0.950 . S
C106 C107 1.443 . S
C106 N110 1.376 . S
C106 C144 1.389 . S
C107 C106 1.443 . S
C107 C108 1.340 . S
C107 H147 0.951 . S
C108 C107 1.340 . S
C108 C109 1.439 . S
C108 H148 0.950 . S
C109 C108 1.439 . S
C109 N110 1.374 . S
C109 C143 1.395 . S
N110 C106 1.376 . S
N110 C109 1.374 . S
N110 Co111 2.008 . S
Co111 N110 2.008 . S
Co111 N112 1.995 . S
Co111 N117 2.008 . S
Co111 N122 1.995 . S
Co111 N127 2.282 . S
Co111 N133 2.282 . S
N112 Co111 1.995 . S
N112 C113 1.376 . S
N112 C116 1.383 . S
C113 N112 1.376 . S
C113 C114 1.446 . S
C113 C143 1.391 . S
C114 C113 1.446 . S
C114 C115 1.339 . S
C114 H149 0.949 . S
C115 C114 1.339 . S
C115 C116 1.439 . S
C115 H150 0.950 . S
C116 N112 1.383 . S
C116 C115 1.439 . S
C116 C145 1.392 . S
N117 Co111 2.008 . S
N117 C118 1.376 . S
N117 C121 1.374 . S
C118 N117 1.376 . S
C118 C119 1.443 . S
C118 C145 1.389 . S
C119 C118 1.443 . S
C119 C120 1.340 . S
C119 H151 0.951 . S
C120 C119 1.340 . S
C120 C121 1.439 . S
C120 H152 0.950 . S
C121 N117 1.374 . S
C121 C120 1.439 . S
C121 C146 1.395 . S
N122 Co111 1.995 . S
N122 C123 1.376 . S
N122 C126 1.383 . S
C123 N122 1.376 . S
C123 C124 1.446 . S
C123 C146 1.391 . S
C124 C123 1.446 . S
C124 C125 1.339 . S
C124 H153 0.949 . S
C125 C124 1.339 . S
C125 C126 1.439 . S
C125 H154 0.950 . S
C126 N122 1.383 . S
C126 C125 1.439 . S
C126 C144 1.392 . S
N127 Co111 2.282 . S
N127 C130 1.332 . S
N127 C132 1.332 . S
C128 C129 1.386 . S
C128 C131 1.388 . S
C129 C128 1.386 . S
C129 C130 1.382 . S
C129 H155 0.950 . S
C130 N127 1.332 . S
C130 C129 1.382 . S
C130 H141 0.952 . S
C131 C128 1.388 . S
C131 C132 1.382 . S
C131 H156 0.950 . S
C132 N127 1.332 . S
C132 C131 1.382 . S
C132 H142 0.948 . S
N133 Co111 2.282 . S
N133 C137 1.332 . S
N133 C138 1.332 . S
C134 C135 1.388 . S
C134 C138 1.382 . S
C134 H157 0.950 . S
C135 C134 1.388 . S
C135 C136 1.386 . S
C136 C135 1.386 . S
C136 C137 1.382 . S
C136 H158 0.950 . S
C137 N133 1.332 . S
C137 C136 1.382 . S
C137 H139 0.952 . S
C138 N133 1.332 . S
C138 C134 1.382 . S
C138 H140 0.948 . S
H139 C137 0.952 . S
H140 C138 0.948 . S
H141 C130 0.952 . S
H142 C132 0.948 . S
C143 C109 1.395 . S
C143 C113 1.391 . S
C144 C106 1.389 . S
C144 C126 1.392 . S
C145 C116 1.392 . S
C145 C118 1.389 . S
C146 C121 1.395 . S
C146 C123 1.391 . S
H147 C107 0.951 . S
H148 C108 0.950 . S
H149 C114 0.949 . S
H150 C115 0.950 . S
H151 C119 0.951 . S
H152 C120 0.950 . S
H153 C124 0.949 . S
H154 C125 0.950 . S
H155 C129 0.950 . S
H156 C131 0.950 . S
H157 C134 0.950 . S
H158 C136 0.950 . S
C159 C160 1.443 . S
C159 N163 1.376 . S
C159 C197 1.389 . S
C160 C159 1.443 . S
C160 C161 1.340 . S
C160 H200 0.951 . S
C161 C160 1.340 . S
C161 C162 1.439 . S
C161 H201 0.950 . S
C162 C161 1.439 . S
C162 N163 1.374 . S
C162 C196 1.395 . S
N163 C159 1.376 . S
N163 C162 1.374 . S
N163 Co164 2.008 1_455 S
Co164 N163 2.008 1_655 S
Co164 N165 1.995 1_655 S
Co164 N170 2.008 . S
Co164 N175 1.995 . S
Co164 N180 2.282 . S
Co164 N186 2.282 1_655 S
N165 Co164 1.995 1_455 S
N165 C166 1.376 . S
N165 C169 1.383 1_455 S
C166 N165 1.376 . S
C166 C167 1.446 . S
C166 C196 1.391 . S
C167 C166 1.446 . S
C167 C168 1.339 1_455 S
C167 H202 0.949 . S
C168 C167 1.339 1_655 S
C168 C169 1.439 . S
C168 H203 0.950 . S
C169 N165 1.383 1_655 S
C169 C168 1.439 . S
C169 C198 1.392 . S
N170 Co164 2.008 . S
N170 C171 1.376 . S
N170 C174 1.374 . S
C171 N170 1.376 . S
C171 C172 1.443 . S
C171 C198 1.389 . S
C172 C171 1.443 . S
C172 C173 1.340 . S
C172 H204 0.951 . S
C173 C172 1.340 . S
C173 C174 1.439 . S
C173 H205 0.950 . S
C174 N170 1.374 . S
C174 C173 1.439 . S
C174 C199 1.395 . S
N175 Co164 1.995 . S
N175 C176 1.376 . S
N175 C179 1.383 . S
C176 N175 1.376 . S
C176 C177 1.446 . S
C176 C199 1.391 . S
C177 C176 1.446 . S
C177 C178 1.339 . S
C177 H206 0.949 . S
C178 C177 1.339 . S
C178 C179 1.439 . S
C178 H207 0.950 . S
C179 N175 1.383 . S
C179 C178 1.439 . S
C179 C197 1.392 1_655 S
N180 Co164 2.282 . S
N180 C183 1.332 . S
N180 C185 1.332 . S
C181 C182 1.386 . S
C181 C184 1.388 . S
C182 C181 1.386 . S
C182 C183 1.382 . S
C182 H208 0.950 . S
C183 N180 1.332 . S
C183 C182 1.382 . S
C183 H194 0.952 . S
C184 C181 1.388 . S
C184 C185 1.382 . S
C184 H209 0.950 . S
C185 N180 1.332 . S
C185 C184 1.382 . S
C185 H195 0.948 . S
N186 Co164 2.282 1_455 S
N186 C190 1.332 . S
N186 C191 1.332 . S
C187 C188 1.388 . S
C187 C191 1.382 . S
C187 H210 0.950 . S
C188 C187 1.388 . S
C188 C189 1.386 . S
C189 C188 1.386 . S
C189 C190 1.382 . S
C189 H211 0.950 . S
C190 N186 1.332 . S
C190 C189 1.382 . S
C190 H192 0.952 . S
C191 N186 1.332 . S
C191 C187 1.382 . S
C191 H193 0.948 1_455 S
H192 C190 0.952 . S
H193 C191 0.948 1_655 S
H194 C183 0.952 . S
H195 C185 0.948 . S
C196 C162 1.395 . S
C196 C166 1.391 . S
C197 C159 1.389 . S
C197 C179 1.392 1_455 S
C198 C169 1.392 . S
C198 C171 1.389 . S
C199 C174 1.395 . S
C199 C176 1.391 . S
H200 C160 0.951 . S
H201 C161 0.950 . S
H202 C167 0.949 . S
H203 C168 0.950 . S
H204 C172 0.951 . S
H205 C173 0.950 . S
H206 C177 0.949 . S
H207 C178 0.950 . S
H208 C182 0.950 . S
H209 C184 0.950 . S
H210 C187 0.950 . S
H211 C189 0.950 . S
C212 C213 1.443 . S
C212 N216 1.376 . S
C212 C250 1.389 . S
C213 C212 1.443 . S
C213 C214 1.340 . S
C213 H253 0.951 . S
C214 C213 1.340 . S
C214 C215 1.439 . S
C214 H254 0.950 . S
C215 C214 1.439 . S
C215 N216 1.374 . S
C215 C249 1.395 . S
N216 C212 1.376 . S
N216 C215 1.374 . S
N216 Co217 2.008 . S
Co217 N216 2.008 . S
Co217 N218 1.995 1_556 S
Co217 N223 2.008 1_556 S
Co217 N228 1.995 . S
Co217 N233 2.282 . S
Co217 N239 2.280 1_556 S
N218 Co217 1.995 1_554 S
N218 C219 1.376 1_554 S
N218 C222 1.383 . S
C219 N218 1.376 1_556 S
C219 C220 1.446 1_556 S
C219 C249 1.391 . S
C220 C219 1.446 1_554 S
C220 C221 1.339 . S
C220 H255 0.949 . S
C221 C220 1.339 . S
C221 C222 1.439 . S
C221 H256 0.950 . S
C222 N218 1.383 . S
C222 C221 1.439 . S
C222 C251 1.392 . S
N223 Co217 2.008 1_554 S
N223 C224 1.376 . S
N223 C227 1.374 . S
C224 N223 1.376 . S
C224 C225 1.443 . S
C224 C251 1.389 . S
C225 C224 1.443 . S
C225 C226 1.340 . S
C225 H257 0.951 . S
C226 C225 1.340 . S
C226 C227 1.439 . S
C226 H258 0.950 . S
C227 N223 1.374 . S
C227 C226 1.439 . S
C227 C252 1.395 . S
N228 Co217 1.995 . S
N228 C229 1.376 . S
N228 C232 1.383 . S
C229 N228 1.376 . S
C229 C230 1.446 . S
C229 C252 1.391 1_556 S
C230 C229 1.446 . S
C230 C231 1.339 . S
C230 H259 0.949 . S
C231 C230 1.339 . S
C231 C232 1.439 . S
C231 H260 0.950 . S
C232 N228 1.383 . S
C232 C231 1.439 . S
C232 C250 1.392 . S
N233 Co217 2.282 . S
N233 C236 1.332 . S
N233 C238 1.332 . S
C234 C235 1.385 1_556 S
C234 C237 1.388 . S
C235 C234 1.385 1_554 S
C235 C236 1.381 1_554 S
C235 H261 0.951 . S
C236 N233 1.332 . S
C236 C235 1.381 1_556 S
C236 H247 0.952 . S
C237 C234 1.388 . S
C237 C238 1.382 . S
C237 H262 0.950 . S
C238 N233 1.332 . S
C238 C237 1.382 . S
C238 H248 0.948 . S
N239 Co217 2.280 1_554 S
N239 C243 1.327 1_554 S
N239 C244 1.334 . S
C240 C241 1.391 . S
C240 C244 1.381 1_556 S
C240 H263 0.949 1_556 S
C241 C240 1.391 . S
C241 C242 1.386 . S
C242 C241 1.386 . S
C242 C243 1.382 . S
C242 H264 0.950 . S
C243 N239 1.327 1_556 S
C243 C242 1.382 . S
C243 H245 0.952 . S
C244 N239 1.334 . S
C244 C240 1.381 1_554 S
C244 H246 0.948 . S
H245 C243 0.952 . S
H246 C244 0.948 . S
H247 C236 0.952 . S
H248 C238 0.948 . S
C249 C215 1.395 . S
C249 C219 1.391 . S
C250 C212 1.389 . S
C250 C232 1.392 . S
C251 C222 1.392 . S
C251 C224 1.389 . S
C252 C227 1.395 . S
C252 C229 1.391 1_554 S
H253 C213 0.951 . S
H254 C214 0.950 . S
H255 C220 0.949 . S
H256 C221 0.950 . S
H257 C225 0.951 . S
H258 C226 0.950 . S
H259 C230 0.949 . S
H260 C231 0.950 . S
H261 C235 0.951 . S
H262 C237 0.950 . S
H263 C240 0.949 1_554 S
H264 C242 0.950 . S
C265 C266 1.443 . S
C265 N269 1.376 . S
C265 C303 1.389 1_455 S
C266 C265 1.443 . S
C266 C267 1.340 . S
C266 H306 0.951 . S
C267 C266 1.340 . S
C267 C268 1.439 . S
C267 H307 0.950 . S
C268 C267 1.439 . S
C268 N269 1.374 . S
C268 C302 1.395 . S
N269 C265 1.376 . S
N269 C268 1.374 . S
N269 Co270 2.008 . S
Co270 N269 2.008 . S
Co270 N271 1.995 1_556 S
Co270 N276 2.008 1_556 S
Co270 N281 1.995 1_455 S
Co270 N286 2.282 . S
Co270 N292 2.280 1_456 S
N271 Co270 1.995 1_554 S
N271 C272 1.376 1_554 S
N271 C275 1.383 . S
C272 N271 1.376 1_556 S
C272 C273 1.446 1_556 S
C272 C302 1.391 . S
C273 C272 1.446 1_554 S
C273 C274 1.339 . S
C273 H308 0.949 . S
C274 C273 1.339 . S
C274 C275 1.439 . S
C274 H309 0.950 . S
C275 N271 1.383 . S
C275 C274 1.439 . S
C275 C304 1.392 . S
N276 Co270 2.008 1_554 S
N276 C277 1.376 . S
N276 C280 1.374 1_455 S
C277 N276 1.376 . S
C277 C278 1.443 . S
C277 C304 1.389 . S
C278 C277 1.443 . S
C278 C279 1.340 1_455 S
C278 H310 0.951 . S
C279 C278 1.340 1_655 S
C279 C280 1.439 . S
C279 H311 0.950 . S
C280 N276 1.374 1_655 S
C280 C279 1.439 . S
C280 C305 1.395 . S
N281 Co270 1.995 1_655 S
N281 C282 1.376 . S
N281 C285 1.383 . S
C282 N281 1.376 . S
C282 C283 1.446 . S
C282 C305 1.391 1_556 S
C283 C282 1.446 . S
C283 C284 1.339 . S
C283 H312 0.949 . S
C284 C283 1.339 . S
C284 C285 1.439 . S
C284 H313 0.950 . S
C285 N281 1.383 . S
C285 C284 1.439 . S
C285 C303 1.392 . S
N286 Co270 2.282 . S
N286 C289 1.332 . S
N286 C291 1.332 . S
C287 C288 1.385 1_556 S
C287 C290 1.388 . S
C288 C287 1.385 1_554 S
C288 C289 1.381 1_554 S
C288 H314 0.951 . S
C289 N286 1.332 . S
C289 C288 1.381 1_556 S
C289 H300 0.952 . S
C290 C287 1.388 . S
C290 C291 1.382 . S
C290 H315 0.950 . S
C291 N286 1.332 . S
C291 C290 1.382 . S
C291 H301 0.948 . S
N292 Co270 2.280 1_654 S
N292 C296 1.327 1_554 S
N292 C297 1.334 . S
C293 C294 1.391 . S
C293 C297 1.381 1_556 S
C293 H316 0.949 1_556 S
C294 C293 1.391 . S
C294 C295 1.386 . S
C295 C294 1.386 . S
C295 C296 1.382 . S
C295 H317 0.950 . S
C296 N292 1.327 1_556 S
C296 C295 1.382 . S
C296 H298 0.952 1_655 S
C297 N292 1.334 . S
C297 C293 1.381 1_554 S
C297 H299 0.948 . S
H298 C296 0.952 1_455 S
H299 C297 0.948 . S
H300 C289 0.952 . S
H301 C291 0.948 . S
C302 C268 1.395 . S
C302 C272 1.391 . S
C303 C265 1.389 1_655 S
C303 C285 1.392 . S
C304 C275 1.392 . S
C304 C277 1.389 . S
C305 C280 1.395 . S
C305 C282 1.391 1_554 S
H306 C266 0.951 . S
H307 C267 0.950 . S
H308 C273 0.949 . S
H309 C274 0.950 . S
H310 C278 0.951 . S
H311 C279 0.950 . S
H312 C283 0.949 . S
H313 C284 0.950 . S
H314 C288 0.951 . S
H315 C290 0.950 . S
H316 C293 0.949 1_554 S
H317 C295 0.950 . S
C318 C319 1.443 . S
C318 N322 1.376 . S
C318 C356 1.389 . S
C319 C318 1.443 . S
C319 C320 1.340 . S
C319 H359 0.951 . S
C320 C319 1.340 . S
C320 C321 1.439 . S
C320 H360 0.950 . S
C321 C320 1.439 . S
C321 N322 1.374 . S
C321 C355 1.395 . S
N322 C318 1.376 . S
N322 C321 1.374 . S
N322 Co323 2.008 . S
Co323 N322 2.008 . S
Co323 N324 1.995 . S
Co323 N329 2.008 . S
Co323 N334 1.995 . S
Co323 N339 2.282 . S
Co323 N345 2.282 . S
N324 Co323 1.995 . S
N324 C325 1.376 . S
N324 C328 1.383 . S
C325 N324 1.376 . S
C325 C326 1.446 . S
C325 C355 1.391 . S
C326 C325 1.446 . S
C326 C327 1.339 . S
C326 H361 0.949 . S
C327 C326 1.339 . S
C327 C328 1.439 . S
C327 H362 0.950 . S
C328 N324 1.383 . S
C328 C327 1.439 . S
C328 C357 1.392 . S
N329 Co323 2.008 . S
N329 C330 1.376 . S
N329 C333 1.374 . S
C330 N329 1.376 . S
C330 C331 1.443 . S
C330 C357 1.389 . S
C331 C330 1.443 . S
C331 C332 1.340 . S
C331 H363 0.951 . S
C332 C331 1.340 . S
C332 C333 1.439 . S
C332 H364 0.950 . S
C333 N329 1.374 . S
C333 C332 1.439 . S
C333 C358 1.395 . S
N334 Co323 1.995 . S
N334 C335 1.376 . S
N334 C338 1.383 . S
C335 N334 1.376 . S
C335 C336 1.446 . S
C335 C358 1.391 . S
C336 C335 1.446 . S
C336 C337 1.339 . S
C336 H365 0.949 . S
C337 C336 1.339 . S
C337 C338 1.439 . S
C337 H366 0.950 . S
C338 N334 1.383 . S
C338 C337 1.439 . S
C338 C356 1.392 . S
N339 Co323 2.282 . S
N339 C342 1.332 . S
N339 C344 1.332 . S
C340 C341 1.386 . S
C340 C343 1.388 . S
C341 C340 1.386 . S
C341 C342 1.382 . S
C341 H367 0.950 . S
C342 N339 1.332 . S
C342 C341 1.382 . S
C342 H353 0.952 . S
C343 C340 1.388 . S
C343 C344 1.382 . S
C343 H368 0.950 . S
C344 N339 1.332 . S
C344 C343 1.382 . S
C344 H354 0.948 . S
N345 Co323 2.282 . S
N345 C349 1.332 . S
N345 C350 1.332 . S
C346 C347 1.388 . S
C346 C350 1.382 . S
C346 H369 0.950 . S
C347 C346 1.388 . S
C347 C348 1.386 . S
C348 C347 1.386 . S
C348 C349 1.382 . S
C348 H370 0.950 . S
C349 N345 1.332 . S
C349 C348 1.382 . S
C349 H351 0.952 . S
C350 N345 1.332 . S
C350 C346 1.382 . S
C350 H352 0.948 . S
H351 C349 0.952 . S
H352 C350 0.948 . S
H353 C342 0.952 . S
H354 C344 0.948 . S
C355 C321 1.395 . S
C355 C325 1.391 . S
C356 C318 1.389 . S
C356 C338 1.392 . S
C357 C328 1.392 . S
C357 C330 1.389 . S
C358 C333 1.395 . S
C358 C335 1.391 . S
H359 C319 0.951 . S
H360 C320 0.950 . S
H361 C326 0.949 . S
H362 C327 0.950 . S
H363 C331 0.951 . S
H364 C332 0.950 . S
H365 C336 0.949 . S
H366 C337 0.950 . S
H367 C341 0.950 . S
H368 C343 0.950 . S
H369 C346 0.950 . S
H370 C348 0.950 . S
C371 C372 1.443 . S
C371 N375 1.376 . S
C371 C409 1.389 1_455 S
C372 C371 1.443 . S
C372 C373 1.340 . S
C372 H412 0.951 . S
C373 C372 1.340 . S
C373 C374 1.439 . S
C373 H413 0.950 . S
C374 C373 1.439 . S
C374 N375 1.374 . S
C374 C408 1.395 . S
N375 C371 1.376 . S
N375 C374 1.374 . S
N375 Co376 2.008 . S
Co376 N375 2.008 . S
Co376 N377 1.995 . S
Co376 N382 2.008 . S
Co376 N387 1.995 1_455 S
Co376 N392 2.282 . S
Co376 N398 2.282 1_455 S
N377 Co376 1.995 . S
N377 C378 1.376 . S
N377 C381 1.383 . S
C378 N377 1.376 . S
C378 C379 1.446 . S
C378 C408 1.391 . S
C379 C378 1.446 . S
C379 C380 1.339 . S
C379 H414 0.949 . S
C380 C379 1.339 . S
C380 C381 1.439 . S
C380 H415 0.950 . S
C381 N377 1.383 . S
C381 C380 1.439 . S
C381 C410 1.392 . S
N382 Co376 2.008 . S
N382 C383 1.376 . S
N382 C386 1.374 1_455 S
C383 N382 1.376 . S
C383 C384 1.443 . S
C383 C410 1.389 . S
C384 C383 1.443 . S
C384 C385 1.340 1_455 S
C384 H416 0.951 . S
C385 C384 1.340 1_655 S
C385 C386 1.439 . S
C385 H417 0.950 . S
C386 N382 1.374 1_655 S
C386 C385 1.439 . S
C386 C411 1.395 . S
N387 Co376 1.995 1_655 S
N387 C388 1.376 . S
N387 C391 1.383 . S
C388 N387 1.376 . S
C388 C389 1.446 . S
C388 C411 1.391 . S
C389 C388 1.446 . S
C389 C390 1.339 . S
C389 H418 0.949 . S
C390 C389 1.339 . S
C390 C391 1.439 . S
C390 H419 0.950 . S
C391 N387 1.383 . S
C391 C390 1.439 . S
C391 C409 1.392 . S
N392 Co376 2.282 . S
N392 C395 1.332 . S
N392 C397 1.332 . S
C393 C394 1.386 . S
C393 C396 1.388 . S
C394 C393 1.386 . S
C394 C395 1.382 . S
C394 H420 0.950 . S
C395 N392 1.332 . S
C395 C394 1.382 . S
C395 H406 0.952 . S
C396 C393 1.388 . S
C396 C397 1.382 . S
C396 H421 0.950 . S
C397 N392 1.332 . S
C397 C396 1.382 . S
C397 H407 0.948 . S
N398 Co376 2.282 1_655 S
N398 C402 1.332 . S
N398 C403 1.332 . S
C399 C400 1.388 . S
C399 C403 1.382 . S
C399 H422 0.950 . S
C400 C399 1.388 . S
C400 C401 1.386 . S
C401 C400 1.386 . S
C401 C402 1.382 . S
C401 H423 0.950 . S
C402 N398 1.332 . S
C402 C401 1.382 . S
C402 H404 0.952 1_655 S
C403 N398 1.332 . S
C403 C399 1.382 . S
C403 H405 0.948 . S
H404 C402 0.952 1_455 S
H405 C403 0.948 . S
H406 C395 0.952 . S
H407 C397 0.948 . S
C408 C374 1.395 . S
C408 C378 1.391 . S
C409 C371 1.389 1_655 S
C409 C391 1.392 . S
C410 C381 1.392 . S
C410 C383 1.389 . S
C411 C386 1.395 . S
C411 C388 1.391 . S
H412 C372 0.951 . S
H413 C373 0.950 . S
H414 C379 0.949 . S
H415 C380 0.950 . S
H416 C384 0.951 . S
H417 C385 0.950 . S
H418 C389 0.949 . S
H419 C390 0.950 . S
H420 C394 0.950 . S
H421 C396 0.950 . S
H422 C399 0.950 . S
H423 C401 0.950 . S
C424 C425 1.443 . S
C424 N428 1.376 . S
C424 C462 1.389 . S
C425 C424 1.443 . S
C425 C426 1.340 . S
C425 H465 0.951 . S
C426 C425 1.340 . S
C426 C427 1.439 . S
C426 H466 0.950 . S
C427 C426 1.439 . S
C427 N428 1.374 . S
C427 C461 1.395 . S
N428 C424 1.376 . S
N428 C427 1.374 . S
N428 Co429 2.008 . S
Co429 N428 2.008 . S
Co429 N430 1.995 . S
Co429 N435 2.008 . S
Co429 N440 1.995 . S
Co429 N445 2.282 . S
Co429 N451 2.282 . S
N430 Co429 1.995 . S
N430 C431 1.376 . S
N430 C434 1.383 . S
C431 N430 1.376 . S
C431 C432 1.446 . S
C431 C461 1.391 . S
C432 C431 1.446 . S
C432 C433 1.339 . S
C432 H467 0.949 . S
C433 C432 1.339 . S
C433 C434 1.439 . S
C433 H468 0.950 . S
C434 N430 1.383 . S
C434 C433 1.439 . S
C434 C463 1.392 . S
N435 Co429 2.008 . S
N435 C436 1.376 . S
N435 C439 1.374 . S
C436 N435 1.376 . S
C436 C437 1.443 . S
C436 C463 1.389 . S
C437 C436 1.443 . S
C437 C438 1.340 . S
C437 H469 0.951 . S
C438 C437 1.340 . S
C438 C439 1.439 . S
C438 H470 0.950 . S
C439 N435 1.374 . S
C439 C438 1.439 . S
C439 C464 1.395 . S
N440 Co429 1.995 . S
N440 C441 1.376 . S
N440 C444 1.383 . S
C441 N440 1.376 . S
C441 C442 1.446 . S
C441 C464 1.391 . S
C442 C441 1.446 . S
C442 C443 1.339 . S
C442 H471 0.949 . S
C443 C442 1.339 . S
C443 C444 1.439 . S
C443 H472 0.950 . S
C444 N440 1.383 . S
C444 C443 1.439 . S
C444 C462 1.392 . S
N445 Co429 2.282 . S
N445 C448 1.332 . S
N445 C450 1.332 . S
C446 C447 1.386 . S
C446 C449 1.388 . S
C447 C446 1.386 . S
C447 C448 1.382 . S
C447 H473 0.950 . S
C448 N445 1.332 . S
C448 C447 1.382 . S
C448 H459 0.952 . S
C449 C446 1.388 . S
C449 C450 1.382 . S
C449 H474 0.950 . S
C450 N445 1.332 . S
C450 C449 1.382 . S
C450 H460 0.948 . S
N451 Co429 2.282 . S
N451 C455 1.332 . S
N451 C456 1.332 . S
C452 C453 1.388 . S
C452 C456 1.382 . S
C452 H475 0.950 . S
C453 C452 1.388 . S
C453 C454 1.386 . S
C454 C453 1.386 . S
C454 C455 1.382 . S
C454 H476 0.950 . S
C455 N451 1.332 . S
C455 C454 1.382 . S
C455 H457 0.952 . S
C456 N451 1.332 . S
C456 C452 1.382 . S
C456 H458 0.948 . S
H457 C455 0.952 . S
H458 C456 0.948 . S
H459 C448 0.952 . S
H460 C450 0.948 . S
C461 C427 1.395 . S
C461 C431 1.391 . S
C462 C424 1.389 . S
C462 C444 1.392 . S
C463 C434 1.392 . S
C463 C436 1.389 . S
C464 C439 1.395 . S
C464 C441 1.391 . S
H465 C425 0.951 . S
H466 C426 0.950 . S
H467 C432 0.949 . S
H468 C433 0.950 . S
H469 C437 0.951 . S
H470 C438 0.950 . S
H471 C442 0.949 . S
H472 C443 0.950 . S
H473 C447 0.950 . S
H474 C449 0.950 . S
H475 C452 0.950 . S
H476 C454 0.950 . S
C477 C478 1.443 . S
C477 N481 1.376 . S
C477 C515 1.389 . S
C478 C477 1.443 . S
C478 C479 1.340 . S
C478 H518 0.951 . S
C479 C478 1.340 . S
C479 C480 1.439 . S
C479 H519 0.950 . S
C480 C479 1.439 . S
C480 N481 1.374 . S
C480 C514 1.395 . S
N481 C477 1.376 . S
N481 C480 1.374 . S
N481 Co482 2.008 1_455 S
Co482 N481 2.008 1_655 S
Co482 N483 1.995 1_655 S
Co482 N488 2.008 . S
Co482 N493 1.995 . S
Co482 N498 2.282 . S
Co482 N504 2.282 1_655 S
N483 Co482 1.995 1_455 S
N483 C484 1.376 . S
N483 C487 1.383 1_455 S
C484 N483 1.376 . S
C484 C485 1.446 . S
C484 C514 1.391 . S
C485 C484 1.446 . S
C485 C486 1.339 1_455 S
C485 H520 0.949 . S
C486 C485 1.339 1_655 S
C486 C487 1.439 . S
C486 H521 0.950 . S
C487 N483 1.383 1_655 S
C487 C486 1.439 . S
C487 C516 1.392 . S
N488 Co482 2.008 . S
N488 C489 1.376 . S
N488 C492 1.374 . S
C489 N488 1.376 . S
C489 C490 1.443 . S
C489 C516 1.389 . S
C490 C489 1.443 . S
C490 C491 1.340 . S
C490 H522 0.951 . S
C491 C490 1.340 . S
C491 C492 1.439 . S
C491 H523 0.950 . S
C492 N488 1.374 . S
C492 C491 1.439 . S
C492 C517 1.395 . S
N493 Co482 1.995 . S
N493 C494 1.376 . S
N493 C497 1.383 . S
C494 N493 1.376 . S
C494 C495 1.446 . S
C494 C517 1.391 . S
C495 C494 1.446 . S
C495 C496 1.339 . S
C495 H524 0.949 . S
C496 C495 1.339 . S
C496 C497 1.439 . S
C496 H525 0.950 . S
C497 N493 1.383 . S
C497 C496 1.439 . S
C497 C515 1.392 1_655 S
N498 Co482 2.282 . S
N498 C501 1.332 . S
N498 C503 1.332 . S
C499 C500 1.386 . S
C499 C502 1.388 . S
C500 C499 1.386 . S
C500 C501 1.382 . S
C500 H526 0.950 . S
C501 N498 1.332 . S
C501 C500 1.382 . S
C501 H512 0.952 . S
C502 C499 1.388 . S
C502 C503 1.382 . S
C502 H527 0.950 . S
C503 N498 1.332 . S
C503 C502 1.382 . S
C503 H513 0.948 . S
N504 Co482 2.282 1_455 S
N504 C508 1.332 . S
N504 C509 1.332 . S
C505 C506 1.388 . S
C505 C509 1.382 . S
C505 H528 0.950 . S
C506 C505 1.388 . S
C506 C507 1.386 . S
C507 C506 1.386 . S
C507 C508 1.382 . S
C507 H529 0.950 . S
C508 N504 1.332 . S
C508 C507 1.382 . S
C508 H510 0.952 . S
C509 N504 1.332 . S
C509 C505 1.382 . S
C509 H511 0.948 1_455 S
H510 C508 0.952 . S
H511 C509 0.948 1_655 S
H512 C501 0.952 . S
H513 C503 0.948 . S
C514 C480 1.395 . S
C514 C484 1.391 . S
C515 C477 1.389 . S
C515 C497 1.392 1_455 S
C516 C487 1.392 . S
C516 C489 1.389 . S
C517 C492 1.395 . S
C517 C494 1.391 . S
H518 C478 0.951 . S
H519 C479 0.950 . S
H520 C485 0.949 . S
H521 C486 0.950 . S
H522 C490 0.951 . S
H523 C491 0.950 . S
H524 C495 0.949 . S
H525 C496 0.950 . S
H526 C500 0.950 . S
H527 C502 0.950 . S
H528 C505 0.950 . S
H529 C507 0.950 . S
C530 C531 1.443 . S
C530 N534 1.376 . S
C530 C568 1.389 . S
C531 C530 1.443 . S
C531 C532 1.340 . S
C531 H571 0.951 . S
C532 C531 1.340 . S
C532 C533 1.439 . S
C532 H572 0.950 . S
C533 C532 1.439 . S
C533 N534 1.374 . S
C533 C567 1.395 . S
N534 C530 1.376 . S
N534 C533 1.374 . S
N534 Co535 2.008 . S
Co535 N534 2.008 . S
Co535 N536 1.995 . S
Co535 N541 2.008 . S
Co535 N546 1.995 . S
Co535 N551 2.282 . S
Co535 N557 2.282 . S
N536 Co535 1.995 . S
N536 C537 1.376 . S
N536 C540 1.383 . S
C537 N536 1.376 . S
C537 C538 1.446 . S
C537 C567 1.391 . S
C538 C537 1.446 . S
C538 C539 1.339 . S
C538 H573 0.949 . S
C539 C538 1.339 . S
C539 C540 1.439 . S
C539 H574 0.950 . S
C540 N536 1.383 . S
C540 C539 1.439 . S
C540 C569 1.392 . S
N541 Co535 2.008 . S
N541 C542 1.376 . S
N541 C545 1.374 . S
C542 N541 1.376 . S
C542 C543 1.443 . S
C542 C569 1.389 . S
C543 C542 1.443 . S
C543 C544 1.340 . S
C543 H575 0.951 . S
C544 C543 1.340 . S
C544 C545 1.439 . S
C544 H576 0.950 . S
C545 N541 1.374 . S
C545 C544 1.439 . S
C545 C570 1.395 . S
N546 Co535 1.995 . S
N546 C547 1.376 . S
N546 C550 1.383 . S
C547 N546 1.376 . S
C547 C548 1.446 . S
C547 C570 1.391 . S
C548 C547 1.446 . S
C548 C549 1.339 . S
C548 H577 0.949 . S
C549 C548 1.339 . S
C549 C550 1.439 . S
C549 H578 0.950 . S
C550 N546 1.383 . S
C550 C549 1.439 . S
C550 C568 1.392 . S
N551 Co535 2.282 . S
N551 C554 1.332 . S
N551 C556 1.332 . S
C552 C553 1.386 . S
C552 C555 1.388 . S
C553 C552 1.386 . S
C553 C554 1.382 . S
C553 H579 0.950 . S
C554 N551 1.332 . S
C554 C553 1.382 . S
C554 H565 0.952 . S
C555 C552 1.388 . S
C555 C556 1.382 . S
C555 H580 0.950 . S
C556 N551 1.332 . S
C556 C555 1.382 . S
C556 H566 0.948 . S
N557 Co535 2.282 . S
N557 C561 1.332 . S
N557 C562 1.332 . S
C558 C559 1.388 . S
C558 C562 1.382 . S
C558 H581 0.950 . S
C559 C558 1.388 . S
C559 C560 1.386 . S
C560 C559 1.386 . S
C560 C561 1.382 . S
C560 H582 0.950 . S
C561 N557 1.332 . S
C561 C560 1.382 . S
C561 H563 0.952 . S
C562 N557 1.332 . S
C562 C558 1.382 . S
C562 H564 0.948 . S
H563 C561 0.952 . S
H564 C562 0.948 . S
H565 C554 0.952 . S
H566 C556 0.948 . S
C567 C533 1.395 . S
C567 C537 1.391 . S
C568 C530 1.389 . S
C568 C550 1.392 . S
C569 C540 1.392 . S
C569 C542 1.389 . S
C570 C545 1.395 . S
C570 C547 1.391 . S
H571 C531 0.951 . S
H572 C532 0.950 . S
H573 C538 0.949 . S
H574 C539 0.950 . S
H575 C543 0.951 . S
H576 C544 0.950 . S
H577 C548 0.949 . S
H578 C549 0.950 . S
H579 C553 0.950 . S
H580 C555 0.950 . S
H581 C558 0.950 . S
H582 C560 0.950 . S
C583 C584 1.443 . S
C583 N587 1.376 . S
C583 C621 1.389 . S
C584 C583 1.443 . S
C584 C585 1.340 . S
C584 H624 0.951 . S
C585 C584 1.340 . S
C585 C586 1.439 . S
C585 H625 0.950 . S
C586 C585 1.439 . S
C586 N587 1.374 . S
C586 C620 1.395 . S
N587 C583 1.376 . S
N587 C586 1.374 . S
N587 Co588 2.008 1_455 S
Co588 N587 2.008 1_655 S
Co588 N589 1.995 1_655 S
Co588 N594 2.008 . S
Co588 N599 1.995 . S
Co588 N604 2.282 . S
Co588 N610 2.282 1_655 S
N589 Co588 1.995 1_455 S
N589 C590 1.376 . S
N589 C593 1.383 1_455 S
C590 N589 1.376 . S
C590 C591 1.446 . S
C590 C620 1.391 . S
C591 C590 1.446 . S
C591 C592 1.339 1_455 S
C591 H626 0.949 . S
C592 C591 1.339 1_655 S
C592 C593 1.439 . S
C592 H627 0.950 . S
C593 N589 1.383 1_655 S
C593 C592 1.439 . S
C593 C622 1.392 . S
N594 Co588 2.008 . S
N594 C595 1.376 . S
N594 C598 1.374 . S
C595 N594 1.376 . S
C595 C596 1.443 . S
C595 C622 1.389 . S
C596 C595 1.443 . S
C596 C597 1.340 . S
C596 H628 0.951 . S
C597 C596 1.340 . S
C597 C598 1.439 . S
C597 H629 0.950 . S
C598 N594 1.374 . S
C598 C597 1.439 . S
C598 C623 1.395 . S
N599 Co588 1.995 . S
N599 C600 1.376 . S
N599 C603 1.383 . S
C600 N599 1.376 . S
C600 C601 1.446 . S
C600 C623 1.391 . S
C601 C600 1.446 . S
C601 C602 1.339 . S
C601 H630 0.949 . S
C602 C601 1.339 . S
C602 C603 1.439 . S
C602 H631 0.950 . S
C603 N599 1.383 . S
C603 C602 1.439 . S
C603 C621 1.392 1_655 S
N604 Co588 2.282 . S
N604 C607 1.332 . S
N604 C609 1.332 . S
C605 C606 1.386 . S
C605 C608 1.388 . S
C606 C605 1.386 . S
C606 C607 1.382 . S
C606 H632 0.950 . S
C607 N604 1.332 . S
C607 C606 1.382 . S
C607 H618 0.952 . S
C608 C605 1.388 . S
C608 C609 1.382 . S
C608 H633 0.950 . S
C609 N604 1.332 . S
C609 C608 1.382 . S
C609 H619 0.948 . S
N610 Co588 2.282 1_455 S
N610 C614 1.332 . S
N610 C615 1.332 . S
C611 C612 1.388 . S
C611 C615 1.382 . S
C611 H634 0.950 . S
C612 C611 1.388 . S
C612 C613 1.386 . S
C613 C612 1.386 . S
C613 C614 1.382 . S
C613 H635 0.950 . S
C614 N610 1.332 . S
C614 C613 1.382 . S
C614 H616 0.952 . S
C615 N610 1.332 . S
C615 C611 1.382 . S
C615 H617 0.948 1_455 S
H616 C614 0.952 . S
H617 C615 0.948 1_655 S
H618 C607 0.952 . S
H619 C609 0.948 . S
C620 C586 1.395 . S
C620 C590 1.391 . S
C621 C583 1.389 . S
C621 C603 1.392 1_455 S
C622 C593 1.392 . S
C622 C595 1.389 . S
C623 C598 1.395 . S
C623 C600 1.391 . S
H624 C584 0.951 . S
H625 C585 0.950 . S
H626 C591 0.949 . S
H627 C592 0.950 . S
H628 C596 0.951 . S
H629 C597 0.950 . S
H630 C601 0.949 . S
H631 C602 0.950 . S
H632 C606 0.950 . S
H633 C608 0.950 . S
H634 C611 0.950 . S
H635 C613 0.950 . S
C636 C637 1.443 . S
C636 N640 1.376 . S
C636 C674 1.389 . S
C637 C636 1.443 . S
C637 C638 1.340 . S
C637 H677 0.951 . S
C638 C637 1.340 . S
C638 C639 1.439 . S
C638 H678 0.950 . S
C639 C638 1.439 . S
C639 N640 1.374 . S
C639 C673 1.395 . S
N640 C636 1.376 . S
N640 C639 1.374 . S
N640 Co641 2.008 . S
Co641 N640 2.008 . S
Co641 N642 1.995 . S
Co641 N647 2.008 . S
Co641 N652 1.995 . S
Co641 N657 2.282 . S
Co641 N663 2.282 . S
N642 Co641 1.995 . S
N642 C643 1.376 . S
N642 C646 1.383 . S
C643 N642 1.376 . S
C643 C644 1.446 . S
C643 C673 1.391 . S
C644 C643 1.446 . S
C644 C645 1.339 . S
C644 H679 0.949 . S
C645 C644 1.339 . S
C645 C646 1.439 . S
C645 H680 0.950 . S
C646 N642 1.383 . S
C646 C645 1.439 . S
C646 C675 1.392 . S
N647 Co641 2.008 . S
N647 C648 1.376 . S
N647 C651 1.374 . S
C648 N647 1.376 . S
C648 C649 1.443 . S
C648 C675 1.389 . S
C649 C648 1.443 . S
C649 C650 1.340 . S
C649 H681 0.951 . S
C650 C649 1.340 . S
C650 C651 1.439 . S
C650 H682 0.950 . S
C651 N647 1.374 . S
C651 C650 1.439 . S
C651 C676 1.395 . S
N652 Co641 1.995 . S
N652 C653 1.376 . S
N652 C656 1.383 . S
C653 N652 1.376 . S
C653 C654 1.446 . S
C653 C676 1.391 . S
C654 C653 1.446 . S
C654 C655 1.339 . S
C654 H683 0.949 . S
C655 C654 1.339 . S
C655 C656 1.439 . S
C655 H684 0.950 . S
C656 N652 1.383 . S
C656 C655 1.439 . S
C656 C674 1.392 . S
N657 Co641 2.282 . S
N657 C660 1.332 . S
N657 C662 1.332 . S
C658 C659 1.386 . S
C658 C661 1.388 . S
C659 C658 1.386 . S
C659 C660 1.382 . S
C659 H685 0.950 . S
C660 N657 1.332 . S
C660 C659 1.382 . S
C660 H671 0.952 . S
C661 C658 1.388 . S
C661 C662 1.382 . S
C661 H686 0.950 . S
C662 N657 1.332 . S
C662 C661 1.382 . S
C662 H672 0.948 . S
N663 Co641 2.282 . S
N663 C667 1.332 . S
N663 C668 1.332 . S
C664 C665 1.388 . S
C664 C668 1.382 . S
C664 H687 0.950 . S
C665 C664 1.388 . S
C665 C666 1.386 . S
C666 C665 1.386 . S
C666 C667 1.382 . S
C666 H688 0.950 . S
C667 N663 1.332 . S
C667 C666 1.382 . S
C667 H669 0.952 . S
C668 N663 1.332 . S
C668 C664 1.382 . S
C668 H670 0.948 . S
H669 C667 0.952 . S
H670 C668 0.948 . S
H671 C660 0.952 . S
H672 C662 0.948 . S
C673 C639 1.395 . S
C673 C643 1.391 . S
C674 C636 1.389 . S
C674 C656 1.392 . S
C675 C646 1.392 . S
C675 C648 1.389 . S
C676 C651 1.395 . S
C676 C653 1.391 . S
H677 C637 0.951 . S
H678 C638 0.950 . S
H679 C644 0.949 . S
H680 C645 0.950 . S
H681 C649 0.951 . S
H682 C650 0.950 . S
H683 C654 0.949 . S
H684 C655 0.950 . S
H685 C659 0.950 . S
H686 C661 0.950 . S
H687 C664 0.950 . S
H688 C666 0.950 . S
C689 C690 1.443 . S
C689 N693 1.376 . S
C689 C727 1.389 1_455 S
C690 C689 1.443 . S
C690 C691 1.340 . S
C690 H730 0.951 . S
C691 C690 1.340 . S
C691 C692 1.439 . S
C691 H731 0.950 . S
C692 C691 1.439 . S
C692 N693 1.374 . S
C692 C726 1.395 . S
N693 C689 1.376 . S
N693 C692 1.374 . S
N693 Co694 2.008 . S
Co694 N693 2.008 . S
Co694 N695 1.995 . S
Co694 N700 2.008 . S
Co694 N705 1.995 1_455 S
Co694 N710 2.282 . S
Co694 N716 2.282 1_455 S
N695 Co694 1.995 . S
N695 C696 1.376 . S
N695 C699 1.383 . S
C696 N695 1.376 . S
C696 C697 1.446 . S
C696 C726 1.391 . S
C697 C696 1.446 . S
C697 C698 1.339 . S
C697 H732 0.949 . S
C698 C697 1.339 . S
C698 C699 1.439 . S
C698 H733 0.950 . S
C699 N695 1.383 . S
C699 C698 1.439 . S
C699 C728 1.392 . S
N700 Co694 2.008 . S
N700 C701 1.376 . S
N700 C704 1.374 1_455 S
C701 N700 1.376 . S
C701 C702 1.443 . S
C701 C728 1.389 . S
C702 C701 1.443 . S
C702 C703 1.340 1_455 S
C702 H734 0.951 . S
C703 C702 1.340 1_655 S
C703 C704 1.439 . S
C703 H735 0.950 . S
C704 N700 1.374 1_655 S
C704 C703 1.439 . S
C704 C729 1.395 . S
N705 Co694 1.995 1_655 S
N705 C706 1.376 . S
N705 C709 1.383 . S
C706 N705 1.376 . S
C706 C707 1.446 . S
C706 C729 1.391 . S
C707 C706 1.446 . S
C707 C708 1.339 . S
C707 H736 0.949 . S
C708 C707 1.339 . S
C708 C709 1.439 . S
C708 H737 0.950 . S
C709 N705 1.383 . S
C709 C708 1.439 . S
C709 C727 1.392 . S
N710 Co694 2.282 . S
N710 C713 1.332 . S
N710 C715 1.332 . S
C711 C712 1.386 . S
C711 C714 1.388 . S
C712 C711 1.386 . S
C712 C713 1.382 . S
C712 H738 0.950 . S
C713 N710 1.332 . S
C713 C712 1.382 . S
C713 H724 0.952 . S
C714 C711 1.388 . S
C714 C715 1.382 . S
C714 H739 0.950 . S
C715 N710 1.332 . S
C715 C714 1.382 . S
C715 H725 0.948 . S
N716 Co694 2.282 1_655 S
N716 C720 1.332 . S
N716 C721 1.332 . S
C717 C718 1.388 . S
C717 C721 1.382 . S
C717 H740 0.950 . S
C718 C717 1.388 . S
C718 C719 1.386 . S
C719 C718 1.386 . S
C719 C720 1.382 . S
C719 H741 0.950 . S
C720 N716 1.332 . S
C720 C719 1.382 . S
C720 H722 0.952 1_655 S
C721 N716 1.332 . S
C721 C717 1.382 . S
C721 H723 0.948 . S
H722 C720 0.952 1_455 S
H723 C721 0.948 . S
H724 C713 0.952 . S
H725 C715 0.948 . S
C726 C692 1.395 . S
C726 C696 1.391 . S
C727 C689 1.389 1_655 S
C727 C709 1.392 . S
C728 C699 1.392 . S
C728 C701 1.389 . S
C729 C704 1.395 . S
C729 C706 1.391 . S
H730 C690 0.951 . S
H731 C691 0.950 . S
H732 C697 0.949 . S
H733 C698 0.950 . S
H734 C702 0.951 . S
H735 C703 0.950 . S
H736 C707 0.949 . S
H737 C708 0.950 . S
H738 C712 0.950 . S
H739 C714 0.950 . S
H740 C717 0.950 . S
H741 C719 0.950 . S
C742 C743 1.443 . S
C742 N746 1.376 . S
C742 C780 1.389 . S
C743 C742 1.443 . S
C743 C744 1.340 . S
C743 H783 0.951 . S
C744 C743 1.340 . S
C744 C745 1.439 . S
C744 H784 0.950 . S
C745 C744 1.439 . S
C745 N746 1.374 . S
C745 C779 1.395 . S
N746 C742 1.376 . S
N746 C745 1.374 . S
N746 Co747 2.008 . S
Co747 N746 2.008 . S
Co747 N748 1.995 . S
Co747 N753 2.008 . S
Co747 N758 1.995 . S
Co747 N763 2.282 . S
Co747 N769 2.282 . S
N748 Co747 1.995 . S
N748 C749 1.376 . S
N748 C752 1.383 . S
C749 N748 1.376 . S
C749 C750 1.446 . S
C749 C779 1.391 . S
C750 C749 1.446 . S
C750 C751 1.339 . S
C750 H785 0.949 . S
C751 C750 1.339 . S
C751 C752 1.439 . S
C751 H786 0.950 . S
C752 N748 1.383 . S
C752 C751 1.439 . S
C752 C781 1.392 . S
N753 Co747 2.008 . S
N753 C754 1.376 . S
N753 C757 1.374 . S
C754 N753 1.376 . S
C754 C755 1.443 . S
C754 C781 1.389 . S
C755 C754 1.443 . S
C755 C756 1.340 . S
C755 H787 0.951 . S
C756 C755 1.340 . S
C756 C757 1.439 . S
C756 H788 0.950 . S
C757 N753 1.374 . S
C757 C756 1.439 . S
C757 C782 1.395 . S
N758 Co747 1.995 . S
N758 C759 1.376 . S
N758 C762 1.383 . S
C759 N758 1.376 . S
C759 C760 1.446 . S
C759 C782 1.391 . S
C760 C759 1.446 . S
C760 C761 1.339 . S
C760 H789 0.949 . S
C761 C760 1.339 . S
C761 C762 1.439 . S
C761 H790 0.950 . S
C762 N758 1.383 . S
C762 C761 1.439 . S
C762 C780 1.392 . S
N763 Co747 2.282 . S
N763 C766 1.332 . S
N763 C768 1.332 . S
C764 C765 1.386 . S
C764 C767 1.388 . S
C765 C764 1.386 . S
C765 C766 1.382 . S
C765 H791 0.950 . S
C766 N763 1.332 . S
C766 C765 1.382 . S
C766 H777 0.952 . S
C767 C764 1.388 . S
C767 C768 1.382 . S
C767 H792 0.950 . S
C768 N763 1.332 . S
C768 C767 1.382 . S
C768 H778 0.948 . S
N769 Co747 2.282 . S
N769 C773 1.332 . S
N769 C774 1.332 . S
C770 C771 1.388 . S
C770 C774 1.382 . S
C770 H793 0.950 . S
C771 C770 1.388 . S
C771 C772 1.386 . S
C772 C771 1.386 . S
C772 C773 1.382 . S
C772 H794 0.950 . S
C773 N769 1.332 . S
C773 C772 1.382 . S
C773 H775 0.952 . S
C774 N769 1.332 . S
C774 C770 1.382 . S
C774 H776 0.948 . S
H775 C773 0.952 . S
H776 C774 0.948 . S
H777 C766 0.952 . S
H778 C768 0.948 . S
C779 C745 1.395 . S
C779 C749 1.391 . S
C780 C742 1.389 . S
C780 C762 1.392 . S
C781 C752 1.392 . S
C781 C754 1.389 . S
C782 C757 1.395 . S
C782 C759 1.391 . S
H783 C743 0.951 . S
H784 C744 0.950 . S
H785 C750 0.949 . S
H786 C751 0.950 . S
H787 C755 0.951 . S
H788 C756 0.950 . S
H789 C760 0.949 . S
H790 C761 0.950 . S
H791 C765 0.950 . S
H792 C767 0.950 . S
H793 C770 0.950 . S
H794 C772 0.950 . S
C795 C796 1.443 . S
C795 N799 1.376 . S
C795 C833 1.389 1_455 S
C796 C795 1.443 . S
C796 C797 1.340 . S
C796 H836 0.951 . S
C797 C796 1.340 . S
C797 C798 1.439 . S
C797 H837 0.950 . S
C798 C797 1.439 . S
C798 N799 1.374 . S
C798 C832 1.395 . S
N799 C795 1.376 . S
N799 C798 1.374 . S
N799 Co800 2.008 . S
Co800 N799 2.008 . S
Co800 N801 1.995 . S
Co800 N806 2.008 . S
Co800 N811 1.995 1_455 S
Co800 N816 2.282 . S
Co800 N822 2.282 1_455 S
N801 Co800 1.995 . S
N801 C802 1.376 . S
N801 C805 1.383 . S
C802 N801 1.376 . S
C802 C803 1.446 . S
C802 C832 1.391 . S
C803 C802 1.446 . S
C803 C804 1.339 . S
C803 H838 0.949 . S
C804 C803 1.339 . S
C804 C805 1.439 . S
C804 H839 0.950 . S
C805 N801 1.383 . S
C805 C804 1.439 . S
C805 C834 1.392 . S
N806 Co800 2.008 . S
N806 C807 1.376 . S
N806 C810 1.374 1_455 S
C807 N806 1.376 . S
C807 C808 1.443 . S
C807 C834 1.389 . S
C808 C807 1.443 . S
C808 C809 1.340 1_455 S
C808 H840 0.951 . S
C809 C808 1.340 1_655 S
C809 C810 1.439 . S
C809 H841 0.950 . S
C810 N806 1.374 1_655 S
C810 C809 1.439 . S
C810 C835 1.395 . S
N811 Co800 1.995 1_655 S
N811 C812 1.376 . S
N811 C815 1.383 . S
C812 N811 1.376 . S
C812 C813 1.446 . S
C812 C835 1.391 . S
C813 C812 1.446 . S
C813 C814 1.339 . S
C813 H842 0.949 . S
C814 C813 1.339 . S
C814 C815 1.439 . S
C814 H843 0.950 . S
C815 N811 1.383 . S
C815 C814 1.439 . S
C815 C833 1.392 . S
N816 Co800 2.282 . S
N816 C819 1.332 . S
N816 C821 1.332 . S
C817 C818 1.386 . S
C817 C820 1.388 . S
C818 C817 1.386 . S
C818 C819 1.382 . S
C818 H844 0.950 . S
C819 N816 1.332 . S
C819 C818 1.382 . S
C819 H830 0.952 . S
C820 C817 1.388 . S
C820 C821 1.382 . S
C820 H845 0.950 . S
C821 N816 1.332 . S
C821 C820 1.382 . S
C821 H831 0.948 . S
N822 Co800 2.282 1_655 S
N822 C826 1.332 . S
N822 C827 1.332 . S
C823 C824 1.388 . S
C823 C827 1.382 . S
C823 H846 0.950 . S
C824 C823 1.388 . S
C824 C825 1.386 . S
C825 C824 1.386 . S
C825 C826 1.382 . S
C825 H847 0.950 . S
C826 N822 1.332 . S
C826 C825 1.382 . S
C826 H828 0.952 1_655 S
C827 N822 1.332 . S
C827 C823 1.382 . S
C827 H829 0.948 . S
H828 C826 0.952 1_455 S
H829 C827 0.948 . S
H830 C819 0.952 . S
H831 C821 0.948 . S
C832 C798 1.395 . S
C832 C802 1.391 . S
C833 C795 1.389 1_655 S
C833 C815 1.392 . S
C834 C805 1.392 . S
C834 C807 1.389 . S
C835 C810 1.395 . S
C835 C812 1.391 . S
H836 C796 0.951 . S
H837 C797 0.950 . S
H838 C803 0.949 . S
H839 C804 0.950 . S
H840 C808 0.951 . S
H841 C809 0.950 . S
H842 C813 0.949 . S
H843 C814 0.950 . S
H844 C818 0.950 . S
H845 C820 0.950 . S
H846 C823 0.950 . S
H847 C825 0.950 . S
C848 C849 1.443 . S
C848 N852 1.376 . S
C848 C886 1.389 . S
C849 C848 1.443 . S
C849 C850 1.340 . S
C849 H889 0.951 . S
C850 C849 1.340 . S
C850 C851 1.439 . S
C850 H890 0.950 . S
C851 C850 1.439 . S
C851 N852 1.374 . S
C851 C885 1.395 . S
N852 C848 1.376 . S
N852 C851 1.374 . S
N852 Co853 2.008 . S
Co853 N852 2.008 . S
Co853 N854 1.995 . S
Co853 N859 2.008 . S
Co853 N864 1.995 . S
Co853 N869 2.282 . S
Co853 N875 2.282 . S
N854 Co853 1.995 . S
N854 C855 1.376 . S
N854 C858 1.383 . S
C855 N854 1.376 . S
C855 C856 1.446 . S
C855 C885 1.391 . S
C856 C855 1.446 . S
C856 C857 1.339 . S
C856 H891 0.949 . S
C857 C856 1.339 . S
C857 C858 1.439 . S
C857 H892 0.950 . S
C858 N854 1.383 . S
C858 C857 1.439 . S
C858 C887 1.392 . S
N859 Co853 2.008 . S
N859 C860 1.376 . S
N859 C863 1.374 . S
C860 N859 1.376 . S
C860 C861 1.443 . S
C860 C887 1.389 . S
C861 C860 1.443 . S
C861 C862 1.340 . S
C861 H893 0.951 . S
C862 C861 1.340 . S
C862 C863 1.439 . S
C862 H894 0.950 . S
C863 N859 1.374 . S
C863 C862 1.439 . S
C863 C888 1.395 . S
N864 Co853 1.995 . S
N864 C865 1.376 . S
N864 C868 1.383 . S
C865 N864 1.376 . S
C865 C866 1.446 . S
C865 C888 1.391 . S
C866 C865 1.446 . S
C866 C867 1.339 . S
C866 H895 0.949 . S
C867 C866 1.339 . S
C867 C868 1.439 . S
C867 H896 0.950 . S
C868 N864 1.383 . S
C868 C867 1.439 . S
C868 C886 1.392 . S
N869 Co853 2.282 . S
N869 C872 1.332 . S
N869 C874 1.332 . S
C870 C871 1.386 . S
C870 C873 1.388 . S
C871 C870 1.386 . S
C871 C872 1.382 . S
C871 H897 0.950 . S
C872 N869 1.332 . S
C872 C871 1.382 . S
C872 H883 0.952 . S
C873 C870 1.388 . S
C873 C874 1.382 . S
C873 H898 0.950 . S
C874 N869 1.332 . S
C874 C873 1.382 . S
C874 H884 0.948 . S
N875 Co853 2.282 . S
N875 C879 1.332 . S
N875 C880 1.332 . S
C876 C877 1.388 . S
C876 C880 1.382 . S
C876 H899 0.950 . S
C877 C876 1.388 . S
C877 C878 1.386 . S
C878 C877 1.386 . S
C878 C879 1.382 . S
C878 H900 0.950 . S
C879 N875 1.332 . S
C879 C878 1.382 . S
C879 H881 0.952 . S
C880 N875 1.332 . S
C880 C876 1.382 . S
C880 H882 0.948 . S
H881 C879 0.952 . S
H882 C880 0.948 . S
H883 C872 0.952 . S
H884 C874 0.948 . S
C885 C851 1.395 . S
C885 C855 1.391 . S
C886 C848 1.389 . S
C886 C868 1.392 . S
C887 C858 1.392 . S
C887 C860 1.389 . S
C888 C863 1.395 . S
C888 C865 1.391 . S
H889 C849 0.951 . S
H890 C850 0.950 . S
H891 C856 0.949 . S
H892 C857 0.950 . S
H893 C861 0.951 . S
H894 C862 0.950 . S
H895 C866 0.949 . S
H896 C867 0.950 . S
H897 C871 0.950 . S
H898 C873 0.950 . S
H899 C876 0.950 . S
H900 C878 0.950 . S
C901 C902 1.443 . S
C901 N905 1.376 . S
C901 C939 1.389 . S
C902 C901 1.443 . S
C902 C903 1.340 . S
C902 H942 0.951 . S
C903 C902 1.340 . S
C903 C904 1.439 . S
C903 H943 0.950 . S
C904 C903 1.439 . S
C904 N905 1.374 . S
C904 C938 1.395 . S
N905 C901 1.376 . S
N905 C904 1.374 . S
N905 Co906 2.008 . S
Co906 N905 2.008 . S
Co906 N907 1.995 . S
Co906 N912 2.008 . S
Co906 N917 1.995 . S
Co906 N922 2.282 . S
Co906 N928 2.282 . S
N907 Co906 1.995 . S
N907 C908 1.376 . S
N907 C911 1.383 . S
C908 N907 1.376 . S
C908 C909 1.446 . S
C908 C938 1.391 . S
C909 C908 1.446 . S
C909 C910 1.339 . S
C909 H944 0.949 . S
C910 C909 1.339 . S
C910 C911 1.439 . S
C910 H945 0.950 . S
C911 N907 1.383 . S
C911 C910 1.439 . S
C911 C940 1.392 . S
N912 Co906 2.008 . S
N912 C913 1.376 . S
N912 C916 1.374 . S
C913 N912 1.376 . S
C913 C914 1.443 . S
C913 C940 1.389 . S
C914 C913 1.443 . S
C914 C915 1.340 . S
C914 H946 0.951 . S
C915 C914 1.340 . S
C915 C916 1.439 . S
C915 H947 0.950 . S
C916 N912 1.374 . S
C916 C915 1.439 . S
C916 C941 1.395 . S
N917 Co906 1.995 . S
N917 C918 1.376 . S
N917 C921 1.383 . S
C918 N917 1.376 . S
C918 C919 1.446 . S
C918 C941 1.391 . S
C919 C918 1.446 . S
C919 C920 1.339 . S
C919 H948 0.949 . S
C920 C919 1.339 . S
C920 C921 1.439 . S
C920 H949 0.950 . S
C921 N917 1.383 . S
C921 C920 1.439 . S
C921 C939 1.392 . S
N922 Co906 2.282 . S
N922 C925 1.332 . S
N922 C927 1.332 . S
C923 C924 1.386 . S
C923 C926 1.388 . S
C924 C923 1.386 . S
C924 C925 1.382 . S
C924 H950 0.950 . S
C925 N922 1.332 . S
C925 C924 1.382 . S
C925 H936 0.952 . S
C926 C923 1.388 . S
C926 C927 1.382 . S
C926 H951 0.950 . S
C927 N922 1.332 . S
C927 C926 1.382 . S
C927 H937 0.948 . S
N928 Co906 2.282 . S
N928 C932 1.332 . S
N928 C933 1.332 . S
C929 C930 1.388 . S
C929 C933 1.382 . S
C929 H952 0.950 . S
C930 C929 1.388 . S
C930 C931 1.386 . S
C931 C930 1.386 . S
C931 C932 1.382 . S
C931 H953 0.950 . S
C932 N928 1.332 . S
C932 C931 1.382 . S
C932 H934 0.952 . S
C933 N928 1.332 . S
C933 C929 1.382 . S
C933 H935 0.948 . S
H934 C932 0.952 . S
H935 C933 0.948 . S
H936 C925 0.952 . S
H937 C927 0.948 . S
C938 C904 1.395 . S
C938 C908 1.391 . S
C939 C901 1.389 . S
C939 C921 1.392 . S
C940 C911 1.392 . S
C940 C913 1.389 . S
C941 C916 1.395 . S
C941 C918 1.391 . S
H942 C902 0.951 . S
H943 C903 0.950 . S
H944 C909 0.949 . S
H945 C910 0.950 . S
H946 C914 0.951 . S
H947 C915 0.950 . S
H948 C919 0.949 . S
H949 C920 0.950 . S
H950 C924 0.950 . S
H951 C926 0.950 . S
H952 C929 0.950 . S
H953 C931 0.950 . S
C954 C955 1.443 . S
C954 N958 1.376 . S
C954 C992 1.389 . S
C955 C954 1.443 . S
C955 C956 1.340 . S
C955 H995 0.951 . S
C956 C955 1.340 . S
C956 C957 1.439 . S
C956 H996 0.950 . S
C957 C956 1.439 . S
C957 N958 1.374 . S
C957 C991 1.395 . S
N958 C954 1.376 . S
N958 C957 1.374 . S
N958 Co959 2.008 . S
Co959 N958 2.008 . S
Co959 N960 1.995 . S
Co959 N965 2.008 . S
Co959 N970 1.995 . S
Co959 N975 2.282 . S
Co959 N981 2.282 . S
N960 Co959 1.995 . S
N960 C961 1.376 . S
N960 C964 1.383 . S
C961 N960 1.376 . S
C961 C962 1.446 . S
C961 C991 1.391 . S
C962 C961 1.446 . S
C962 C963 1.339 . S
C962 H997 0.949 . S
C963 C962 1.339 . S
C963 C964 1.439 . S
C963 H998 0.950 . S
C964 N960 1.383 . S
C964 C963 1.439 . S
C964 C993 1.392 . S
N965 Co959 2.008 . S
N965 C966 1.376 . S
N965 C969 1.374 . S
C966 N965 1.376 . S
C966 C967 1.443 . S
C966 C993 1.389 . S
C967 C966 1.443 . S
C967 C968 1.340 . S
C967 H999 0.951 . S
C968 C967 1.340 . S
C968 C969 1.439 . S
C968 H1000 0.950 . S
C969 N965 1.374 . S
C969 C968 1.439 . S
C969 C994 1.395 . S
N970 Co959 1.995 . S
N970 C971 1.376 . S
N970 C974 1.383 . S
C971 N970 1.376 . S
C971 C972 1.446 . S
C971 C994 1.391 . S
C972 C971 1.446 . S
C972 C973 1.339 . S
C972 H1001 0.949 . S
C973 C972 1.339 . S
C973 C974 1.439 . S
C973 H1002 0.950 . S
C974 N970 1.383 . S
C974 C973 1.439 . S
C974 C992 1.392 . S
N975 Co959 2.282 . S
N975 C978 1.332 . S
N975 C980 1.332 . S
C976 C977 1.386 . S
C976 C979 1.388 . S
C977 C976 1.386 . S
C977 C978 1.382 . S
C977 H1003 0.950 . S
C978 N975 1.332 . S
C978 C977 1.382 . S
C978 H989 0.952 . S
C979 C976 1.388 . S
C979 C980 1.382 . S
C979 H1004 0.950 . S
C980 N975 1.332 . S
C980 C979 1.382 . S
C980 H990 0.948 . S
N981 Co959 2.282 . S
N981 C985 1.332 . S
N981 C986 1.332 . S
C982 C983 1.388 . S
C982 C986 1.382 . S
C982 H1005 0.950 . S
C983 C982 1.388 . S
C983 C984 1.386 . S
C984 C983 1.386 . S
C984 C985 1.382 . S
C984 H1006 0.950 . S
C985 N981 1.332 . S
C985 C984 1.382 . S
C985 H987 0.952 . S
C986 N981 1.332 . S
C986 C982 1.382 . S
C986 H988 0.948 . S
H987 C985 0.952 . S
H988 C986 0.948 . S
H989 C978 0.952 . S
H990 C980 0.948 . S
C991 C957 1.395 . S
C991 C961 1.391 . S
C992 C954 1.389 . S
C992 C974 1.392 . S
C993 C964 1.392 . S
C993 C966 1.389 . S
C994 C969 1.395 . S
C994 C971 1.391 . S
H995 C955 0.951 . S
H996 C956 0.950 . S
H997 C962 0.949 . S
H998 C963 0.950 . S
H999 C967 0.951 . S
H1000 C968 0.950 . S
H1001 C972 0.949 . S
H1002 C973 0.950 . S
H1003 C977 0.950 . S
H1004 C979 0.950 . S
H1005 C982 0.950 . S
H1006 C984 0.950 . S
C1007 C1008 1.443 . S
C1007 N1011 1.376 . S
C1007 C1045 1.389 . S
C1008 C1007 1.443 . S
C1008 C1009 1.340 . S
C1008 H1048 0.951 . S
C1009 C1008 1.340 . S
C1009 C1010 1.439 . S
C1009 H1049 0.950 . S
C1010 C1009 1.439 . S
C1010 N1011 1.374 . S
C1010 C1044 1.395 . S
N1011 C1007 1.376 . S
N1011 C1010 1.374 . S
N1011 Co1012 2.008 . S
Co1012 N1011 2.008 . S
Co1012 N1013 1.995 . S
Co1012 N1018 2.008 . S
Co1012 N1023 1.995 . S
Co1012 N1028 2.282 . S
Co1012 N1034 2.282 . S
N1013 Co1012 1.995 . S
N1013 C1014 1.376 . S
N1013 C1017 1.383 . S
C1014 N1013 1.376 . S
C1014 C1015 1.446 . S
C1014 C1044 1.391 . S
C1015 C1014 1.446 . S
C1015 C1016 1.339 . S
C1015 H1050 0.949 . S
C1016 C1015 1.339 . S
C1016 C1017 1.439 . S
C1016 H1051 0.950 . S
C1017 N1013 1.383 . S
C1017 C1016 1.439 . S
C1017 C1046 1.392 . S
N1018 Co1012 2.008 . S
N1018 C1019 1.376 . S
N1018 C1022 1.374 . S
C1019 N1018 1.376 . S
C1019 C1020 1.443 . S
C1019 C1046 1.389 . S
C1020 C1019 1.443 . S
C1020 C1021 1.340 . S
C1020 H1052 0.951 . S
C1021 C1020 1.340 . S
C1021 C1022 1.439 . S
C1021 H1053 0.950 . S
C1022 N1018 1.374 . S
C1022 C1021 1.439 . S
C1022 C1047 1.395 . S
N1023 Co1012 1.995 . S
N1023 C1024 1.376 . S
N1023 C1027 1.383 . S
C1024 N1023 1.376 . S
C1024 C1025 1.446 . S
C1024 C1047 1.391 . S
C1025 C1024 1.446 . S
C1025 C1026 1.339 . S
C1025 H1054 0.949 . S
C1026 C1025 1.339 . S
C1026 C1027 1.439 . S
C1026 H1055 0.950 . S
C1027 N1023 1.383 . S
C1027 C1026 1.439 . S
C1027 C1045 1.392 . S
N1028 Co1012 2.282 . S
N1028 C1031 1.332 . S
N1028 C1033 1.332 . S
C1029 C1030 1.386 . S
C1029 C1032 1.388 . S
C1030 C1029 1.386 . S
C1030 C1031 1.382 . S
C1030 H1056 0.950 . S
C1031 N1028 1.332 . S
C1031 C1030 1.382 . S
C1031 H1042 0.952 . S
C1032 C1029 1.388 . S
C1032 C1033 1.382 . S
C1032 H1057 0.950 . S
C1033 N1028 1.332 . S
C1033 C1032 1.382 . S
C1033 H1043 0.948 . S
N1034 Co1012 2.282 . S
N1034 C1038 1.332 . S
N1034 C1039 1.332 . S
C1035 C1036 1.388 . S
C1035 C1039 1.382 . S
C1035 H1058 0.950 . S
C1036 C1035 1.388 . S
C1036 C1037 1.386 . S
C1037 C1036 1.386 . S
C1037 C1038 1.382 . S
C1037 H1059 0.950 . S
C1038 N1034 1.332 . S
C1038 C1037 1.382 . S
C1038 H1040 0.952 . S
C1039 N1034 1.332 . S
C1039 C1035 1.382 . S
C1039 H1041 0.948 . S
H1040 C1038 0.952 . S
H1041 C1039 0.948 . S
H1042 C1031 0.952 . S
H1043 C1033 0.948 . S
C1044 C1010 1.395 . S
C1044 C1014 1.391 . S
C1045 C1007 1.389 . S
C1045 C1027 1.392 . S
C1046 C1017 1.392 . S
C1046 C1019 1.389 . S
C1047 C1022 1.395 . S
C1047 C1024 1.391 . S
H1048 C1008 0.951 . S
H1049 C1009 0.950 . S
H1050 C1015 0.949 . S
H1051 C1016 0.950 . S
H1052 C1020 0.951 . S
H1053 C1021 0.950 . S
H1054 C1025 0.949 . S
H1055 C1026 0.950 . S
H1056 C1030 0.950 . S
H1057 C1032 0.950 . S
H1058 C1035 0.950 . S
H1059 C1037 0.950 . S
C1060 C1061 1.443 . S
C1060 N1064 1.376 . S
C1060 C1098 1.389 . S
C1061 C1060 1.443 . S
C1061 C1062 1.340 . S
C1061 H1101 0.951 . S
C1062 C1061 1.340 . S
C1062 C1063 1.439 . S
C1062 H1102 0.950 . S
C1063 C1062 1.439 . S
C1063 N1064 1.374 . S
C1063 C1097 1.395 . S
N1064 C1060 1.376 . S
N1064 C1063 1.374 . S
N1064 Co1065 2.008 . S
Co1065 N1064 2.008 . S
Co1065 N1066 1.995 . S
Co1065 N1071 2.008 . S
Co1065 N1076 1.995 . S
Co1065 N1081 2.282 . S
Co1065 N1087 2.282 . S
N1066 Co1065 1.995 . S
N1066 C1067 1.376 . S
N1066 C1070 1.383 . S
C1067 N1066 1.376 . S
C1067 C1068 1.446 . S
C1067 C1097 1.391 . S
C1068 C1067 1.446 . S
C1068 C1069 1.339 . S
C1068 H1103 0.949 . S
C1069 C1068 1.339 . S
C1069 C1070 1.439 . S
C1069 H1104 0.950 . S
C1070 N1066 1.383 . S
C1070 C1069 1.439 . S
C1070 C1099 1.392 . S
N1071 Co1065 2.008 . S
N1071 C1072 1.376 . S
N1071 C1075 1.374 . S
C1072 N1071 1.376 . S
C1072 C1073 1.443 . S
C1072 C1099 1.389 . S
C1073 C1072 1.443 . S
C1073 C1074 1.340 . S
C1073 H1105 0.951 . S
C1074 C1073 1.340 . S
C1074 C1075 1.439 . S
C1074 H1106 0.950 . S
C1075 N1071 1.374 . S
C1075 C1074 1.439 . S
C1075 C1100 1.395 . S
N1076 Co1065 1.995 . S
N1076 C1077 1.376 . S
N1076 C1080 1.383 . S
C1077 N1076 1.376 . S
C1077 C1078 1.446 . S
C1077 C1100 1.391 . S
C1078 C1077 1.446 . S
C1078 C1079 1.339 . S
C1078 H1107 0.949 . S
C1079 C1078 1.339 . S
C1079 C1080 1.439 . S
C1079 H1108 0.950 . S
C1080 N1076 1.383 . S
C1080 C1079 1.439 . S
C1080 C1098 1.392 . S
N1081 Co1065 2.282 . S
N1081 C1084 1.332 . S
N1081 C1086 1.332 . S
C1082 C1083 1.386 . S
C1082 C1085 1.388 . S
C1083 C1082 1.386 . S
C1083 C1084 1.382 . S
C1083 H1109 0.950 . S
C1084 N1081 1.332 . S
C1084 C1083 1.382 . S
C1084 H1095 0.952 . S
C1085 C1082 1.388 . S
C1085 C1086 1.382 . S
C1085 H1110 0.950 . S
C1086 N1081 1.332 . S
C1086 C1085 1.382 . S
C1086 H1096 0.948 . S
N1087 Co1065 2.282 . S
N1087 C1091 1.332 . S
N1087 C1092 1.332 . S
C1088 C1089 1.388 . S
C1088 C1092 1.382 . S
C1088 H1111 0.950 . S
C1089 C1088 1.388 . S
C1089 C1090 1.386 . S
C1090 C1089 1.386 . S
C1090 C1091 1.382 . S
C1090 H1112 0.950 . S
C1091 N1087 1.332 . S
C1091 C1090 1.382 . S
C1091 H1093 0.952 . S
C1092 N1087 1.332 . S
C1092 C1088 1.382 . S
C1092 H1094 0.948 . S
H1093 C1091 0.952 . S
H1094 C1092 0.948 . S
H1095 C1084 0.952 . S
H1096 C1086 0.948 . S
C1097 C1063 1.395 . S
C1097 C1067 1.391 . S
C1098 C1060 1.389 . S
C1098 C1080 1.392 . S
C1099 C1070 1.392 . S
C1099 C1072 1.389 . S
C1100 C1075 1.395 . S
C1100 C1077 1.391 . S
H1101 C1061 0.951 . S
H1102 C1062 0.950 . S
H1103 C1068 0.949 . S
H1104 C1069 0.950 . S
H1105 C1073 0.951 . S
H1106 C1074 0.950 . S
H1107 C1078 0.949 . S
H1108 C1079 0.950 . S
H1109 C1083 0.950 . S
H1110 C1085 0.950 . S
H1111 C1088 0.950 . S
H1112 C1090 0.950 . S
C1113 C1114 1.443 . S
C1113 N1117 1.376 . S
C1113 C1151 1.389 . S
C1114 C1113 1.443 . S
C1114 C1115 1.340 . S
C1114 H1154 0.951 . S
C1115 C1114 1.340 . S
C1115 C1116 1.439 . S
C1115 H1155 0.950 . S
C1116 C1115 1.439 . S
C1116 N1117 1.374 . S
C1116 C1150 1.395 . S
N1117 C1113 1.376 . S
N1117 C1116 1.374 . S
N1117 Co1118 2.008 . S
Co1118 N1117 2.008 . S
Co1118 N1119 1.995 . S
Co1118 N1124 2.008 . S
Co1118 N1129 1.995 . S
Co1118 N1134 2.282 . S
Co1118 N1140 2.282 . S
N1119 Co1118 1.995 . S
N1119 C1120 1.376 . S
N1119 C1123 1.383 . S
C1120 N1119 1.376 . S
C1120 C1121 1.446 . S
C1120 C1150 1.391 . S
C1121 C1120 1.446 . S
C1121 C1122 1.339 . S
C1121 H1156 0.949 . S
C1122 C1121 1.339 . S
C1122 C1123 1.439 . S
C1122 H1157 0.950 . S
C1123 N1119 1.383 . S
C1123 C1122 1.439 . S
C1123 C1152 1.392 . S
N1124 Co1118 2.008 . S
N1124 C1125 1.376 . S
N1124 C1128 1.374 . S
C1125 N1124 1.376 . S
C1125 C1126 1.443 . S
C1125 C1152 1.389 . S
C1126 C1125 1.443 . S
C1126 C1127 1.340 . S
C1126 H1158 0.951 . S
C1127 C1126 1.340 . S
C1127 C1128 1.439 . S
C1127 H1159 0.950 . S
C1128 N1124 1.374 . S
C1128 C1127 1.439 . S
C1128 C1153 1.395 . S
N1129 Co1118 1.995 . S
N1129 C1130 1.376 . S
N1129 C1133 1.383 . S
C1130 N1129 1.376 . S
C1130 C1131 1.446 . S
C1130 C1153 1.391 . S
C1131 C1130 1.446 . S
C1131 C1132 1.339 . S
C1131 H1160 0.949 . S
C1132 C1131 1.339 . S
C1132 C1133 1.439 . S
C1132 H1161 0.950 . S
C1133 N1129 1.383 . S
C1133 C1132 1.439 . S
C1133 C1151 1.392 . S
N1134 Co1118 2.282 . S
N1134 C1137 1.332 . S
N1134 C1139 1.332 . S
C1135 C1136 1.386 . S
C1135 C1138 1.388 . S
C1136 C1135 1.386 . S
C1136 C1137 1.382 . S
C1136 H1162 0.950 . S
C1137 N1134 1.332 . S
C1137 C1136 1.382 . S
C1137 H1148 0.952 . S
C1138 C1135 1.388 . S
C1138 C1139 1.382 . S
C1138 H1163 0.950 . S
C1139 N1134 1.332 . S
C1139 C1138 1.382 . S
C1139 H1149 0.948 . S
N1140 Co1118 2.282 . S
N1140 C1144 1.332 . S
N1140 C1145 1.332 . S
C1141 C1142 1.388 . S
C1141 C1145 1.382 . S
C1141 H1164 0.950 . S
C1142 C1141 1.388 . S
C1142 C1143 1.386 . S
C1143 C1142 1.386 . S
C1143 C1144 1.382 . S
C1143 H1165 0.950 . S
C1144 N1140 1.332 . S
C1144 C1143 1.382 . S
C1144 H1146 0.952 . S
C1145 N1140 1.332 . S
C1145 C1141 1.382 . S
C1145 H1147 0.948 . S
H1146 C1144 0.952 . S
H1147 C1145 0.948 . S
H1148 C1137 0.952 . S
H1149 C1139 0.948 . S
C1150 C1116 1.395 . S
C1150 C1120 1.391 . S
C1151 C1113 1.389 . S
C1151 C1133 1.392 . S
C1152 C1123 1.392 . S
C1152 C1125 1.389 . S
C1153 C1128 1.395 . S
C1153 C1130 1.391 . S
H1154 C1114 0.951 . S
H1155 C1115 0.950 . S
H1156 C1121 0.949 . S
H1157 C1122 0.950 . S
H1158 C1126 0.951 . S
H1159 C1127 0.950 . S
H1160 C1131 0.949 . S
H1161 C1132 0.950 . S
H1162 C1136 0.950 . S
H1163 C1138 0.950 . S
H1164 C1141 0.950 . S
H1165 C1143 0.950 . S
C1166 C1167 1.443 . S
C1166 N1170 1.376 . S
C1166 C1204 1.389 . S
C1167 C1166 1.443 . S
C1167 C1168 1.340 . S
C1167 H1207 0.951 . S
C1168 C1167 1.340 . S
C1168 C1169 1.439 . S
C1168 H1208 0.950 . S
C1169 C1168 1.439 . S
C1169 N1170 1.374 . S
C1169 C1203 1.395 . S
N1170 C1166 1.376 . S
N1170 C1169 1.374 . S
N1170 Co1171 2.008 . S
Co1171 N1170 2.008 . S
Co1171 N1172 1.995 . S
Co1171 N1177 2.008 . S
Co1171 N1182 1.995 . S
Co1171 N1187 2.282 . S
Co1171 N1193 2.282 . S
N1172 Co1171 1.995 . S
N1172 C1173 1.376 . S
N1172 C1176 1.383 . S
C1173 N1172 1.376 . S
C1173 C1174 1.446 . S
C1173 C1203 1.391 . S
C1174 C1173 1.446 . S
C1174 C1175 1.339 . S
C1174 H1209 0.949 . S
C1175 C1174 1.339 . S
C1175 C1176 1.439 . S
C1175 H1210 0.950 . S
C1176 N1172 1.383 . S
C1176 C1175 1.439 . S
C1176 C1205 1.392 . S
N1177 Co1171 2.008 . S
N1177 C1178 1.376 . S
N1177 C1181 1.374 . S
C1178 N1177 1.376 . S
C1178 C1179 1.443 . S
C1178 C1205 1.389 . S
C1179 C1178 1.443 . S
C1179 C1180 1.340 . S
C1179 H1211 0.951 . S
C1180 C1179 1.340 . S
C1180 C1181 1.439 . S
C1180 H1212 0.950 . S
C1181 N1177 1.374 . S
C1181 C1180 1.439 . S
C1181 C1206 1.395 . S
N1182 Co1171 1.995 . S
N1182 C1183 1.376 . S
N1182 C1186 1.383 . S
C1183 N1182 1.376 . S
C1183 C1184 1.446 . S
C1183 C1206 1.391 . S
C1184 C1183 1.446 . S
C1184 C1185 1.339 . S
C1184 H1213 0.949 . S
C1185 C1184 1.339 . S
C1185 C1186 1.439 . S
C1185 H1214 0.950 . S
C1186 N1182 1.383 . S
C1186 C1185 1.439 . S
C1186 C1204 1.392 . S
N1187 Co1171 2.282 . S
N1187 C1190 1.332 . S
N1187 C1192 1.332 . S
C1188 C1189 1.386 . S
C1188 C1191 1.388 . S
C1189 C1188 1.386 . S
C1189 C1190 1.382 . S
C1189 H1215 0.950 . S
C1190 N1187 1.332 . S
C1190 C1189 1.382 . S
C1190 H1201 0.952 . S
C1191 C1188 1.388 . S
C1191 C1192 1.382 . S
C1191 H1216 0.950 . S
C1192 N1187 1.332 . S
C1192 C1191 1.382 . S
C1192 H1202 0.948 . S
N1193 Co1171 2.282 . S
N1193 C1197 1.332 . S
N1193 C1198 1.332 . S
C1194 C1195 1.388 . S
C1194 C1198 1.382 . S
C1194 H1217 0.950 . S
C1195 C1194 1.388 . S
C1195 C1196 1.386 . S
C1196 C1195 1.386 . S
C1196 C1197 1.382 . S
C1196 H1218 0.950 . S
C1197 N1193 1.332 . S
C1197 C1196 1.382 . S
C1197 H1199 0.952 . S
C1198 N1193 1.332 . S
C1198 C1194 1.382 . S
C1198 H1200 0.948 . S
H1199 C1197 0.952 . S
H1200 C1198 0.948 . S
H1201 C1190 0.952 . S
H1202 C1192 0.948 . S
C1203 C1169 1.395 . S
C1203 C1173 1.391 . S
C1204 C1166 1.389 . S
C1204 C1186 1.392 . S
C1205 C1176 1.392 . S
C1205 C1178 1.389 . S
C1206 C1181 1.395 . S
C1206 C1183 1.391 . S
H1207 C1167 0.951 . S
H1208 C1168 0.950 . S
H1209 C1174 0.949 . S
H1210 C1175 0.950 . S
H1211 C1179 0.951 . S
H1212 C1180 0.950 . S
H1213 C1184 0.949 . S
H1214 C1185 0.950 . S
H1215 C1189 0.950 . S
H1216 C1191 0.950 . S
H1217 C1194 0.950 . S
H1218 C1196 0.950 . S
C1219 C1220 1.443 . S
C1219 N1223 1.376 . S
C1219 C1257 1.389 . S
C1220 C1219 1.443 . S
C1220 C1221 1.340 . S
C1220 H1260 0.951 . S
C1221 C1220 1.340 . S
C1221 C1222 1.439 . S
C1221 H1261 0.950 . S
C1222 C1221 1.439 . S
C1222 N1223 1.374 . S
C1222 C1256 1.395 . S
N1223 C1219 1.376 . S
N1223 C1222 1.374 . S
N1223 Co1224 2.008 . S
Co1224 N1223 2.008 . S
Co1224 N1225 1.995 . S
Co1224 N1230 2.008 . S
Co1224 N1235 1.995 . S
Co1224 N1240 2.282 . S
Co1224 N1246 2.282 . S
N1225 Co1224 1.995 . S
N1225 C1226 1.376 . S
N1225 C1229 1.383 . S
C1226 N1225 1.376 . S
C1226 C1227 1.446 . S
C1226 C1256 1.391 . S
C1227 C1226 1.446 . S
C1227 C1228 1.339 . S
C1227 H1262 0.949 . S
C1228 C1227 1.339 . S
C1228 C1229 1.439 . S
C1228 H1263 0.950 . S
C1229 N1225 1.383 . S
C1229 C1228 1.439 . S
C1229 C1258 1.392 . S
N1230 Co1224 2.008 . S
N1230 C1231 1.376 . S
N1230 C1234 1.374 . S
C1231 N1230 1.376 . S
C1231 C1232 1.443 . S
C1231 C1258 1.389 . S
C1232 C1231 1.443 . S
C1232 C1233 1.340 . S
C1232 H1264 0.951 . S
C1233 C1232 1.340 . S
C1233 C1234 1.439 . S
C1233 H1265 0.950 . S
C1234 N1230 1.374 . S
C1234 C1233 1.439 . S
C1234 C1259 1.395 . S
N1235 Co1224 1.995 . S
N1235 C1236 1.376 . S
N1235 C1239 1.383 . S
C1236 N1235 1.376 . S
C1236 C1237 1.446 . S
C1236 C1259 1.391 . S
C1237 C1236 1.446 . S
C1237 C1238 1.339 . S
C1237 H1266 0.949 . S
C1238 C1237 1.339 . S
C1238 C1239 1.439 . S
C1238 H1267 0.950 . S
C1239 N1235 1.383 . S
C1239 C1238 1.439 . S
C1239 C1257 1.392 . S
N1240 Co1224 2.282 . S
N1240 C1243 1.332 . S
N1240 C1245 1.332 . S
C1241 C1242 1.386 . S
C1241 C1244 1.388 . S
C1242 C1241 1.386 . S
C1242 C1243 1.382 . S
C1242 H1268 0.950 . S
C1243 N1240 1.332 . S
C1243 C1242 1.382 . S
C1243 H1254 0.952 . S
C1244 C1241 1.388 . S
C1244 C1245 1.382 . S
C1244 H1269 0.950 . S
C1245 N1240 1.332 . S
C1245 C1244 1.382 . S
C1245 H1255 0.948 . S
N1246 Co1224 2.282 . S
N1246 C1250 1.332 . S
N1246 C1251 1.332 . S
C1247 C1248 1.388 . S
C1247 C1251 1.382 . S
C1247 H1270 0.950 . S
C1248 C1247 1.388 . S
C1248 C1249 1.386 . S
C1249 C1248 1.386 . S
C1249 C1250 1.382 . S
C1249 H1271 0.950 . S
C1250 N1246 1.332 . S
C1250 C1249 1.382 . S
C1250 H1252 0.952 . S
C1251 N1246 1.332 . S
C1251 C1247 1.382 . S
C1251 H1253 0.948 . S
H1252 C1250 0.952 . S
H1253 C1251 0.948 . S
H1254 C1243 0.952 . S
H1255 C1245 0.948 . S
C1256 C1222 1.395 . S
C1256 C1226 1.391 . S
C1257 C1219 1.389 . S
C1257 C1239 1.392 . S
C1258 C1229 1.392 . S
C1258 C1231 1.389 . S
C1259 C1234 1.395 . S
C1259 C1236 1.391 . S
H1260 C1220 0.951 . S
H1261 C1221 0.950 . S
H1262 C1227 0.949 . S
H1263 C1228 0.950 . S
H1264 C1232 0.951 . S
H1265 C1233 0.950 . S
H1266 C1237 0.949 . S
H1267 C1238 0.950 . S
H1268 C1242 0.950 . S
H1269 C1244 0.950 . S
H1270 C1247 0.950 . S
H1271 C1249 0.950 . S
C1272 C1273 1.443 . S
C1272 N1276 1.376 . S
C1272 C1310 1.389 . S
C1273 C1272 1.443 . S
C1273 C1274 1.340 . S
C1273 H1313 0.951 . S
C1274 C1273 1.340 . S
C1274 C1275 1.439 . S
C1274 H1314 0.950 . S
C1275 C1274 1.439 . S
C1275 N1276 1.374 . S
C1275 C1309 1.395 1_554 S
N1276 C1272 1.376 . S
N1276 C1275 1.374 . S
N1276 Co1277 2.008 . S
Co1277 N1276 2.008 . S
Co1277 N1278 1.995 1_554 S
Co1277 N1283 2.008 1_554 S
Co1277 N1288 1.995 . S
Co1277 N1293 2.282 . S
Co1277 N1299 2.282 . S
N1278 Co1277 1.995 1_556 S
N1278 C1279 1.376 . S
N1278 C1282 1.383 . S
C1279 N1278 1.376 . S
C1279 C1280 1.446 . S
C1279 C1309 1.391 . S
C1280 C1279 1.446 . S
C1280 C1281 1.339 . S
C1280 H1315 0.949 . S
C1281 C1280 1.339 . S
C1281 C1282 1.439 . S
C1281 H1316 0.950 . S
C1282 N1278 1.383 . S
C1282 C1281 1.439 . S
C1282 C1311 1.392 . S
N1283 Co1277 2.008 1_556 S
N1283 C1284 1.376 . S
N1283 C1287 1.374 1_556 S
C1284 N1283 1.376 . S
C1284 C1285 1.443 . S
C1284 C1311 1.389 . S
C1285 C1284 1.443 . S
C1285 C1286 1.340 . S
C1285 H1317 0.951 . S
C1286 C1285 1.340 . S
C1286 C1287 1.439 1_556 S
C1286 H1318 0.950 . S
C1287 N1283 1.374 1_554 S
C1287 C1286 1.439 1_554 S
C1287 C1312 1.395 . S
N1288 Co1277 1.995 . S
N1288 C1289 1.376 . S
N1288 C1292 1.383 . S
C1289 N1288 1.376 . S
C1289 C1290 1.446 . S
C1289 C1312 1.391 . S
C1290 C1289 1.446 . S
C1290 C1291 1.339 . S
C1290 H1319 0.949 . S
C1291 C1290 1.339 . S
C1291 C1292 1.439 . S
C1291 H1320 0.950 . S
C1292 N1288 1.383 . S
C1292 C1291 1.439 . S
C1292 C1310 1.392 . S
N1293 Co1277 2.282 . S
N1293 C1296 1.332 . S
N1293 C1298 1.332 1_554 S
C1294 C1295 1.386 . S
C1294 C1297 1.388 1_554 S
C1295 C1294 1.386 . S
C1295 C1296 1.382 . S
C1295 H1321 0.950 . S
C1296 N1293 1.332 . S
C1296 C1295 1.382 . S
C1296 H1307 0.952 . S
C1297 C1294 1.388 1_556 S
C1297 C1298 1.382 . S
C1297 H1322 0.950 . S
C1298 N1293 1.332 1_556 S
C1298 C1297 1.382 . S
C1298 H1308 0.948 . S
N1299 Co1277 2.282 . S
N1299 C1303 1.332 1_554 S
N1299 C1304 1.332 . S
C1300 C1301 1.388 . S
C1300 C1304 1.382 . S
C1300 H1323 0.950 . S
C1301 C1300 1.388 . S
C1301 C1302 1.386 1_554 S
C1302 C1301 1.386 1_556 S
C1302 C1303 1.382 . S
C1302 H1324 0.950 . S
C1303 N1299 1.332 1_556 S
C1303 C1302 1.382 . S
C1303 H1305 0.952 . S
C1304 N1299 1.332 . S
C1304 C1300 1.382 . S
C1304 H1306 0.948 . S
H1305 C1303 0.952 . S
H1306 C1304 0.948 . S
H1307 C1296 0.952 . S
H1308 C1298 0.948 . S
C1309 C1275 1.395 1_556 S
C1309 C1279 1.391 . S
C1310 C1272 1.389 . S
C1310 C1292 1.392 . S
C1311 C1282 1.392 . S
C1311 C1284 1.389 . S
C1312 C1287 1.395 . S
C1312 C1289 1.391 . S
H1313 C1273 0.951 . S
H1314 C1274 0.950 . S
H1315 C1280 0.949 . S
H1316 C1281 0.950 . S
H1317 C1285 0.951 . S
H1318 C1286 0.950 . S
H1319 C1290 0.949 . S
H1320 C1291 0.950 . S
H1321 C1295 0.950 . S
H1322 C1297 0.950 . S
H1323 C1300 0.950 . S
H1324 C1302 0.950 . S
C1325 C1326 1.443 . S
C1325 N1329 1.376 . S
C1325 C1363 1.389 . S
C1326 C1325 1.443 . S
C1326 C1327 1.340 . S
C1326 H1366 0.951 . S
C1327 C1326 1.340 . S
C1327 C1328 1.439 . S
C1327 H1367 0.950 . S
C1328 C1327 1.439 . S
C1328 N1329 1.374 . S
C1328 C1362 1.395 1_554 S
N1329 C1325 1.376 . S
N1329 C1328 1.374 . S
N1329 Co1330 2.008 . S
Co1330 N1329 2.008 . S
Co1330 N1331 1.995 1_554 S
Co1330 N1336 2.008 1_554 S
Co1330 N1341 1.995 . S
Co1330 N1346 2.282 . S
Co1330 N1352 2.282 . S
N1331 Co1330 1.995 1_556 S
N1331 C1332 1.376 . S
N1331 C1335 1.383 . S
C1332 N1331 1.376 . S
C1332 C1333 1.446 . S
C1332 C1362 1.391 . S
C1333 C1332 1.446 . S
C1333 C1334 1.339 . S
C1333 H1368 0.949 . S
C1334 C1333 1.339 . S
C1334 C1335 1.439 . S
C1334 H1369 0.950 . S
C1335 N1331 1.383 . S
C1335 C1334 1.439 . S
C1335 C1364 1.392 . S
N1336 Co1330 2.008 1_556 S
N1336 C1337 1.376 . S
N1336 C1340 1.374 1_556 S
C1337 N1336 1.376 . S
C1337 C1338 1.443 . S
C1337 C1364 1.389 . S
C1338 C1337 1.443 . S
C1338 C1339 1.340 . S
C1338 H1370 0.951 . S
C1339 C1338 1.340 . S
C1339 C1340 1.439 1_556 S
C1339 H1371 0.950 . S
C1340 N1336 1.374 1_554 S
C1340 C1339 1.439 1_554 S
C1340 C1365 1.395 . S
N1341 Co1330 1.995 . S
N1341 C1342 1.376 . S
N1341 C1345 1.383 . S
C1342 N1341 1.376 . S
C1342 C1343 1.446 . S
C1342 C1365 1.391 . S
C1343 C1342 1.446 . S
C1343 C1344 1.339 . S
C1343 H1372 0.949 . S
C1344 C1343 1.339 . S
C1344 C1345 1.439 . S
C1344 H1373 0.950 . S
C1345 N1341 1.383 . S
C1345 C1344 1.439 . S
C1345 C1363 1.392 . S
N1346 Co1330 2.282 . S
N1346 C1349 1.332 . S
N1346 C1351 1.332 1_554 S
C1347 C1348 1.386 . S
C1347 C1350 1.388 1_554 S
C1348 C1347 1.386 . S
C1348 C1349 1.382 . S
C1348 H1374 0.950 . S
C1349 N1346 1.332 . S
C1349 C1348 1.382 . S
C1349 H1360 0.952 . S
C1350 C1347 1.388 1_556 S
C1350 C1351 1.382 . S
C1350 H1375 0.950 . S
C1351 N1346 1.332 1_556 S
C1351 C1350 1.382 . S
C1351 H1361 0.948 . S
N1352 Co1330 2.282 . S
N1352 C1356 1.332 1_554 S
N1352 C1357 1.332 . S
C1353 C1354 1.388 . S
C1353 C1357 1.382 . S
C1353 H1376 0.950 . S
C1354 C1353 1.388 . S
C1354 C1355 1.386 1_554 S
C1355 C1354 1.386 1_556 S
C1355 C1356 1.382 . S
C1355 H1377 0.950 . S
C1356 N1352 1.332 1_556 S
C1356 C1355 1.382 . S
C1356 H1358 0.952 . S
C1357 N1352 1.332 . S
C1357 C1353 1.382 . S
C1357 H1359 0.948 . S
H1358 C1356 0.952 . S
H1359 C1357 0.948 . S
H1360 C1349 0.952 . S
H1361 C1351 0.948 . S
C1362 C1328 1.395 1_556 S
C1362 C1332 1.391 . S
C1363 C1325 1.389 . S
C1363 C1345 1.392 . S
C1364 C1335 1.392 . S
C1364 C1337 1.389 . S
C1365 C1340 1.395 . S
C1365 C1342 1.391 . S
H1366 C1326 0.951 . S
H1367 C1327 0.950 . S
H1368 C1333 0.949 . S
H1369 C1334 0.950 . S
H1370 C1338 0.951 . S
H1371 C1339 0.950 . S
H1372 C1343 0.949 . S
H1373 C1344 0.950 . S
H1374 C1348 0.950 . S
H1375 C1350 0.950 . S
H1376 C1353 0.950 . S
H1377 C1355 0.950 . S
C1378 C1379 1.443 . S
C1378 N1382 1.376 . S
C1378 C1416 1.389 . S
C1379 C1378 1.443 . S
C1379 C1380 1.340 . S
C1379 H1419 0.951 . S
C1380 C1379 1.340 . S
C1380 C1381 1.439 . S
C1380 H1420 0.950 . S
C1381 C1380 1.439 . S
C1381 N1382 1.374 . S
C1381 C1415 1.395 . S
N1382 C1378 1.376 . S
N1382 C1381 1.374 . S
N1382 Co1383 2.008 . S
Co1383 N1382 2.008 . S
Co1383 N1384 1.995 . S
Co1383 N1389 2.008 . S
Co1383 N1394 1.995 . S
Co1383 N1399 2.282 . S
Co1383 N1405 2.282 . S
N1384 Co1383 1.995 . S
N1384 C1385 1.376 . S
N1384 C1388 1.383 . S
C1385 N1384 1.376 . S
C1385 C1386 1.446 . S
C1385 C1415 1.391 . S
C1386 C1385 1.446 . S
C1386 C1387 1.339 . S
C1386 H1421 0.949 . S
C1387 C1386 1.339 . S
C1387 C1388 1.439 . S
C1387 H1422 0.950 . S
C1388 N1384 1.383 . S
C1388 C1387 1.439 . S
C1388 C1417 1.392 . S
N1389 Co1383 2.008 . S
N1389 C1390 1.376 . S
N1389 C1393 1.374 . S
C1390 N1389 1.376 . S
C1390 C1391 1.443 . S
C1390 C1417 1.389 . S
C1391 C1390 1.443 . S
C1391 C1392 1.340 . S
C1391 H1423 0.951 . S
C1392 C1391 1.340 . S
C1392 C1393 1.439 . S
C1392 H1424 0.950 . S
C1393 N1389 1.374 . S
C1393 C1392 1.439 . S
C1393 C1418 1.395 . S
N1394 Co1383 1.995 . S
N1394 C1395 1.376 . S
N1394 C1398 1.383 . S
C1395 N1394 1.376 . S
C1395 C1396 1.446 . S
C1395 C1418 1.391 . S
C1396 C1395 1.446 . S
C1396 C1397 1.339 . S
C1396 H1425 0.949 . S
C1397 C1396 1.339 . S
C1397 C1398 1.439 . S
C1397 H1426 0.950 . S
C1398 N1394 1.383 . S
C1398 C1397 1.439 . S
C1398 C1416 1.392 . S
N1399 Co1383 2.282 . S
N1399 C1402 1.332 . S
N1399 C1404 1.332 . S
C1400 C1401 1.386 . S
C1400 C1403 1.388 . S
C1401 C1400 1.386 . S
C1401 C1402 1.382 . S
C1401 H1427 0.950 . S
C1402 N1399 1.332 . S
C1402 C1401 1.382 . S
C1402 H1413 0.952 . S
C1403 C1400 1.388 . S
C1403 C1404 1.382 . S
C1403 H1428 0.950 . S
C1404 N1399 1.332 . S
C1404 C1403 1.382 . S
C1404 H1414 0.948 . S
N1405 Co1383 2.282 . S
N1405 C1409 1.332 . S
N1405 C1410 1.332 . S
C1406 C1407 1.388 . S
C1406 C1410 1.382 . S
C1406 H1429 0.950 . S
C1407 C1406 1.388 . S
C1407 C1408 1.386 . S
C1408 C1407 1.386 . S
C1408 C1409 1.382 . S
C1408 H1430 0.950 . S
C1409 N1405 1.332 . S
C1409 C1408 1.382 . S
C1409 H1411 0.952 . S
C1410 N1405 1.332 . S
C1410 C1406 1.382 . S
C1410 H1412 0.948 . S
H1411 C1409 0.952 . S
H1412 C1410 0.948 . S
H1413 C1402 0.952 . S
H1414 C1404 0.948 . S
C1415 C1381 1.395 . S
C1415 C1385 1.391 . S
C1416 C1378 1.389 . S
C1416 C1398 1.392 . S
C1417 C1388 1.392 . S
C1417 C1390 1.389 . S
C1418 C1393 1.395 . S
C1418 C1395 1.391 . S
H1419 C1379 0.951 . S
H1420 C1380 0.950 . S
H1421 C1386 0.949 . S
H1422 C1387 0.950 . S
H1423 C1391 0.951 . S
H1424 C1392 0.950 . S
H1425 C1396 0.949 . S
H1426 C1397 0.950 . S
H1427 C1401 0.950 . S
H1428 C1403 0.950 . S
H1429 C1406 0.950 . S
H1430 C1408 0.950 . S
C1431 C1432 1.443 . S
C1431 N1435 1.376 . S
C1431 C1469 1.389 . S
C1432 C1431 1.443 . S
C1432 C1433 1.340 . S
C1432 H1472 0.951 . S
C1433 C1432 1.340 . S
C1433 C1434 1.439 . S
C1433 H1473 0.950 . S
C1434 C1433 1.439 . S
C1434 N1435 1.374 . S
C1434 C1468 1.395 . S
N1435 C1431 1.376 . S
N1435 C1434 1.374 . S
N1435 Co1436 2.008 . S
Co1436 N1435 2.008 . S
Co1436 N1437 1.995 . S
Co1436 N1442 2.008 . S
Co1436 N1447 1.995 . S
Co1436 N1452 2.282 . S
Co1436 N1458 2.282 . S
N1437 Co1436 1.995 . S
N1437 C1438 1.376 . S
N1437 C1441 1.383 . S
C1438 N1437 1.376 . S
C1438 C1439 1.446 . S
C1438 C1468 1.391 . S
C1439 C1438 1.446 . S
C1439 C1440 1.339 . S
C1439 H1474 0.949 . S
C1440 C1439 1.339 . S
C1440 C1441 1.439 . S
C1440 H1475 0.950 . S
C1441 N1437 1.383 . S
C1441 C1440 1.439 . S
C1441 C1470 1.392 . S
N1442 Co1436 2.008 . S
N1442 C1443 1.376 . S
N1442 C1446 1.374 . S
C1443 N1442 1.376 . S
C1443 C1444 1.443 . S
C1443 C1470 1.389 . S
C1444 C1443 1.443 . S
C1444 C1445 1.340 . S
C1444 H1476 0.951 . S
C1445 C1444 1.340 . S
C1445 C1446 1.439 . S
C1445 H1477 0.950 . S
C1446 N1442 1.374 . S
C1446 C1445 1.439 . S
C1446 C1471 1.395 . S
N1447 Co1436 1.995 . S
N1447 C1448 1.376 . S
N1447 C1451 1.383 . S
C1448 N1447 1.376 . S
C1448 C1449 1.446 . S
C1448 C1471 1.391 . S
C1449 C1448 1.446 . S
C1449 C1450 1.339 . S
C1449 H1478 0.949 . S
C1450 C1449 1.339 . S
C1450 C1451 1.439 . S
C1450 H1479 0.950 . S
C1451 N1447 1.383 . S
C1451 C1450 1.439 . S
C1451 C1469 1.392 . S
N1452 Co1436 2.282 . S
N1452 C1455 1.332 . S
N1452 C1457 1.332 . S
C1453 C1454 1.386 . S
C1453 C1456 1.388 . S
C1454 C1453 1.386 . S
C1454 C1455 1.382 . S
C1454 H1480 0.950 . S
C1455 N1452 1.332 . S
C1455 C1454 1.382 . S
C1455 H1466 0.952 . S
C1456 C1453 1.388 . S
C1456 C1457 1.382 . S
C1456 H1481 0.950 . S
C1457 N1452 1.332 . S
C1457 C1456 1.382 . S
C1457 H1467 0.948 . S
N1458 Co1436 2.282 . S
N1458 C1462 1.332 . S
N1458 C1463 1.332 . S
C1459 C1460 1.388 . S
C1459 C1463 1.382 . S
C1459 H1482 0.950 . S
C1460 C1459 1.388 . S
C1460 C1461 1.386 . S
C1461 C1460 1.386 . S
C1461 C1462 1.382 . S
C1461 H1483 0.950 . S
C1462 N1458 1.332 . S
C1462 C1461 1.382 . S
C1462 H1464 0.952 . S
C1463 N1458 1.332 . S
C1463 C1459 1.382 . S
C1463 H1465 0.948 . S
H1464 C1462 0.952 . S
H1465 C1463 0.948 . S
H1466 C1455 0.952 . S
H1467 C1457 0.948 . S
C1468 C1434 1.395 . S
C1468 C1438 1.391 . S
C1469 C1431 1.389 . S
C1469 C1451 1.392 . S
C1470 C1441 1.392 . S
C1470 C1443 1.389 . S
C1471 C1446 1.395 . S
C1471 C1448 1.391 . S
H1472 C1432 0.951 . S
H1473 C1433 0.950 . S
H1474 C1439 0.949 . S
H1475 C1440 0.950 . S
H1476 C1444 0.951 . S
H1477 C1445 0.950 . S
H1478 C1449 0.949 . S
H1479 C1450 0.950 . S
H1480 C1454 0.950 . S
H1481 C1456 0.950 . S
H1482 C1459 0.950 . S
H1483 C1461 0.950 . S
C1484 C1485 1.443 . S
C1484 N1488 1.376 . S
C1484 C1522 1.389 . S
C1485 C1484 1.443 . S
C1485 C1486 1.340 . S
C1485 H1525 0.951 . S
C1486 C1485 1.340 . S
C1486 C1487 1.439 . S
C1486 H1526 0.950 . S
C1487 C1486 1.439 . S
C1487 N1488 1.374 . S
C1487 C1521 1.395 . S
N1488 C1484 1.376 . S
N1488 C1487 1.374 . S
N1488 Co1489 2.008 . S
Co1489 N1488 2.008 . S
Co1489 N1490 1.995 1_556 S
Co1489 N1495 2.008 1_556 S
Co1489 N1500 1.995 . S
Co1489 N1505 2.282 . S
Co1489 N1511 2.280 1_556 S
N1490 Co1489 1.995 1_554 S
N1490 C1491 1.376 1_554 S
N1490 C1494 1.383 . S
C1491 N1490 1.376 1_556 S
C1491 C1492 1.446 1_556 S
C1491 C1521 1.391 . S
C1492 C1491 1.446 1_554 S
C1492 C1493 1.339 . S
C1492 H1527 0.949 . S
C1493 C1492 1.339 . S
C1493 C1494 1.439 . S
C1493 H1528 0.950 . S
C1494 N1490 1.383 . S
C1494 C1493 1.439 . S
C1494 C1523 1.392 . S
N1495 Co1489 2.008 1_554 S
N1495 C1496 1.376 . S
N1495 C1499 1.374 . S
C1496 N1495 1.376 . S
C1496 C1497 1.443 . S
C1496 C1523 1.389 . S
C1497 C1496 1.443 . S
C1497 C1498 1.340 . S
C1497 H1529 0.951 . S
C1498 C1497 1.340 . S
C1498 C1499 1.439 . S
C1498 H1530 0.950 . S
C1499 N1495 1.374 . S
C1499 C1498 1.439 . S
C1499 C1524 1.395 . S
N1500 Co1489 1.995 . S
N1500 C1501 1.376 . S
N1500 C1504 1.383 . S
C1501 N1500 1.376 . S
C1501 C1502 1.446 . S
C1501 C1524 1.391 1_556 S
C1502 C1501 1.446 . S
C1502 C1503 1.339 . S
C1502 H1531 0.949 . S
C1503 C1502 1.339 . S
C1503 C1504 1.439 . S
C1503 H1532 0.950 . S
C1504 N1500 1.383 . S
C1504 C1503 1.439 . S
C1504 C1522 1.392 . S
N1505 Co1489 2.282 . S
N1505 C1508 1.332 . S
N1505 C1510 1.332 . S
C1506 C1507 1.385 1_556 S
C1506 C1509 1.388 . S
C1507 C1506 1.385 1_554 S
C1507 C1508 1.381 1_554 S
C1507 H1533 0.951 . S
C1508 N1505 1.332 . S
C1508 C1507 1.381 1_556 S
C1508 H1519 0.952 . S
C1509 C1506 1.388 . S
C1509 C1510 1.382 . S
C1509 H1534 0.950 . S
C1510 N1505 1.332 . S
C1510 C1509 1.382 . S
C1510 H1520 0.948 . S
N1511 Co1489 2.280 1_554 S
N1511 C1515 1.327 1_554 S
N1511 C1516 1.334 . S
C1512 C1513 1.391 . S
C1512 C1516 1.381 1_556 S
C1512 H1535 0.949 1_556 S
C1513 C1512 1.391 . S
C1513 C1514 1.386 . S
C1514 C1513 1.386 . S
C1514 C1515 1.382 . S
C1514 H1536 0.950 . S
C1515 N1511 1.327 1_556 S
C1515 C1514 1.382 . S
C1515 H1517 0.952 . S
C1516 N1511 1.334 . S
C1516 C1512 1.381 1_554 S
C1516 H1518 0.948 . S
H1517 C1515 0.952 . S
H1518 C1516 0.948 . S
H1519 C1508 0.952 . S
H1520 C1510 0.948 . S
C1521 C1487 1.395 . S
C1521 C1491 1.391 . S
C1522 C1484 1.389 . S
C1522 C1504 1.392 . S
C1523 C1494 1.392 . S
C1523 C1496 1.389 . S
C1524 C1499 1.395 . S
C1524 C1501 1.391 1_554 S
H1525 C1485 0.951 . S
H1526 C1486 0.950 . S
H1527 C1492 0.949 . S
H1528 C1493 0.950 . S
H1529 C1497 0.951 . S
H1530 C1498 0.950 . S
H1531 C1502 0.949 . S
H1532 C1503 0.950 . S
H1533 C1507 0.951 . S
H1534 C1509 0.950 . S
H1535 C1512 0.949 1_554 S
H1536 C1514 0.950 . S
C1537 C1538 1.443 . S
C1537 N1541 1.376 . S
C1537 C1575 1.389 . S
C1538 C1537 1.443 . S
C1538 C1539 1.340 . S
C1538 H1578 0.951 . S
C1539 C1538 1.340 . S
C1539 C1540 1.439 . S
C1539 H1579 0.950 . S
C1540 C1539 1.439 . S
C1540 N1541 1.374 . S
C1540 C1574 1.395 . S
N1541 C1537 1.376 . S
N1541 C1540 1.374 . S
N1541 Co1542 2.008 . S
Co1542 N1541 2.008 . S
Co1542 N1543 1.995 1_556 S
Co1542 N1548 2.008 1_556 S
Co1542 N1553 1.995 . S
Co1542 N1558 2.282 . S
Co1542 N1564 2.280 1_556 S
N1543 Co1542 1.995 1_554 S
N1543 C1544 1.376 1_554 S
N1543 C1547 1.383 . S
C1544 N1543 1.376 1_556 S
C1544 C1545 1.446 1_556 S
C1544 C1574 1.391 . S
C1545 C1544 1.446 1_554 S
C1545 C1546 1.339 . S
C1545 H1580 0.949 . S
C1546 C1545 1.339 . S
C1546 C1547 1.439 . S
C1546 H1581 0.950 . S
C1547 N1543 1.383 . S
C1547 C1546 1.439 . S
C1547 C1576 1.392 . S
N1548 Co1542 2.008 1_554 S
N1548 C1549 1.376 . S
N1548 C1552 1.374 . S
C1549 N1548 1.376 . S
C1549 C1550 1.443 . S
C1549 C1576 1.389 . S
C1550 C1549 1.443 . S
C1550 C1551 1.340 . S
C1550 H1582 0.951 . S
C1551 C1550 1.340 . S
C1551 C1552 1.439 . S
C1551 H1583 0.950 . S
C1552 N1548 1.374 . S
C1552 C1551 1.439 . S
C1552 C1577 1.395 . S
N1553 Co1542 1.995 . S
N1553 C1554 1.376 . S
N1553 C1557 1.383 . S
C1554 N1553 1.376 . S
C1554 C1555 1.446 . S
C1554 C1577 1.391 1_556 S
C1555 C1554 1.446 . S
C1555 C1556 1.339 . S
C1555 H1584 0.949 . S
C1556 C1555 1.339 . S
C1556 C1557 1.439 . S
C1556 H1585 0.950 . S
C1557 N1553 1.383 . S
C1557 C1556 1.439 . S
C1557 C1575 1.392 . S
N1558 Co1542 2.282 . S
N1558 C1561 1.332 . S
N1558 C1563 1.332 . S
C1559 C1560 1.385 1_556 S
C1559 C1562 1.388 . S
C1560 C1559 1.385 1_554 S
C1560 C1561 1.381 1_554 S
C1560 H1586 0.951 . S
C1561 N1558 1.332 . S
C1561 C1560 1.381 1_556 S
C1561 H1572 0.952 . S
C1562 C1559 1.388 . S
C1562 C1563 1.382 . S
C1562 H1587 0.950 . S
C1563 N1558 1.332 . S
C1563 C1562 1.382 . S
C1563 H1573 0.948 . S
N1564 Co1542 2.280 1_554 S
N1564 C1568 1.327 1_554 S
N1564 C1569 1.334 . S
C1565 C1566 1.391 . S
C1565 C1569 1.381 1_556 S
C1565 H1588 0.949 1_556 S
C1566 C1565 1.391 . S
C1566 C1567 1.386 . S
C1567 C1566 1.386 . S
C1567 C1568 1.382 . S
C1567 H1589 0.950 . S
C1568 N1564 1.327 1_556 S
C1568 C1567 1.382 . S
C1568 H1570 0.952 . S
C1569 N1564 1.334 . S
C1569 C1565 1.381 1_554 S
C1569 H1571 0.948 . S
H1570 C1568 0.952 . S
H1571 C1569 0.948 . S
H1572 C1561 0.952 . S
H1573 C1563 0.948 . S
C1574 C1540 1.395 . S
C1574 C1544 1.391 . S
C1575 C1537 1.389 . S
C1575 C1557 1.392 . S
C1576 C1547 1.392 . S
C1576 C1549 1.389 . S
C1577 C1552 1.395 . S
C1577 C1554 1.391 1_554 S
H1578 C1538 0.951 . S
H1579 C1539 0.950 . S
H1580 C1545 0.949 . S
H1581 C1546 0.950 . S
H1582 C1550 0.951 . S
H1583 C1551 0.950 . S
H1584 C1555 0.949 . S
H1585 C1556 0.950 . S
H1586 C1560 0.951 . S
H1587 C1562 0.950 . S
H1588 C1565 0.949 1_554 S
H1589 C1567 0.950 . S
C1590 C1591 1.443 . S
C1590 N1594 1.376 . S
C1590 C1628 1.389 . S
C1591 C1590 1.443 . S
C1591 C1592 1.340 . S
C1591 H1631 0.951 . S
C1592 C1591 1.340 . S
C1592 C1593 1.439 . S
C1592 H1632 0.950 . S
C1593 C1592 1.439 . S
C1593 N1594 1.374 . S
C1593 C1627 1.395 . S
N1594 C1590 1.376 . S
N1594 C1593 1.374 . S
N1594 Co1595 2.008 . S
Co1595 N1594 2.008 . S
Co1595 N1596 1.995 . S
Co1595 N1601 2.008 . S
Co1595 N1606 1.995 . S
Co1595 N1611 2.282 . S
Co1595 N1617 2.282 . S
N1596 Co1595 1.995 . S
N1596 C1597 1.376 . S
N1596 C1600 1.383 . S
C1597 N1596 1.376 . S
C1597 C1598 1.446 . S
C1597 C1627 1.391 . S
C1598 C1597 1.446 . S
C1598 C1599 1.339 . S
C1598 H1633 0.949 . S
C1599 C1598 1.339 . S
C1599 C1600 1.439 . S
C1599 H1634 0.950 . S
C1600 N1596 1.383 . S
C1600 C1599 1.439 . S
C1600 C1629 1.392 . S
N1601 Co1595 2.008 . S
N1601 C1602 1.376 . S
N1601 C1605 1.374 . S
C1602 N1601 1.376 . S
C1602 C1603 1.443 . S
C1602 C1629 1.389 . S
C1603 C1602 1.443 . S
C1603 C1604 1.340 . S
C1603 H1635 0.951 . S
C1604 C1603 1.340 . S
C1604 C1605 1.439 . S
C1604 H1636 0.950 . S
C1605 N1601 1.374 . S
C1605 C1604 1.439 . S
C1605 C1630 1.395 . S
N1606 Co1595 1.995 . S
N1606 C1607 1.376 . S
N1606 C1610 1.383 . S
C1607 N1606 1.376 . S
C1607 C1608 1.446 . S
C1607 C1630 1.391 . S
C1608 C1607 1.446 . S
C1608 C1609 1.339 . S
C1608 H1637 0.949 . S
C1609 C1608 1.339 . S
C1609 C1610 1.439 . S
C1609 H1638 0.950 . S
C1610 N1606 1.383 . S
C1610 C1609 1.439 . S
C1610 C1628 1.392 . S
N1611 Co1595 2.282 . S
N1611 C1614 1.332 . S
N1611 C1616 1.332 . S
C1612 C1613 1.386 . S
C1612 C1615 1.388 . S
C1613 C1612 1.386 . S
C1613 C1614 1.382 . S
C1613 H1639 0.950 . S
C1614 N1611 1.332 . S
C1614 C1613 1.382 . S
C1614 H1625 0.952 . S
C1615 C1612 1.388 . S
C1615 C1616 1.382 . S
C1615 H1640 0.950 . S
C1616 N1611 1.332 . S
C1616 C1615 1.382 . S
C1616 H1626 0.948 . S
N1617 Co1595 2.282 . S
N1617 C1621 1.332 . S
N1617 C1622 1.332 . S
C1618 C1619 1.388 . S
C1618 C1622 1.382 . S
C1618 H1641 0.950 . S
C1619 C1618 1.388 . S
C1619 C1620 1.386 . S
C1620 C1619 1.386 . S
C1620 C1621 1.382 . S
C1620 H1642 0.950 . S
C1621 N1617 1.332 . S
C1621 C1620 1.382 . S
C1621 H1623 0.952 . S
C1622 N1617 1.332 . S
C1622 C1618 1.382 . S
C1622 H1624 0.948 . S
H1623 C1621 0.952 . S
H1624 C1622 0.948 . S
H1625 C1614 0.952 . S
H1626 C1616 0.948 . S
C1627 C1593 1.395 . S
C1627 C1597 1.391 . S
C1628 C1590 1.389 . S
C1628 C1610 1.392 . S
C1629 C1600 1.392 . S
C1629 C1602 1.389 . S
C1630 C1605 1.395 . S
C1630 C1607 1.391 . S
H1631 C1591 0.951 . S
H1632 C1592 0.950 . S
H1633 C1598 0.949 . S
H1634 C1599 0.950 . S
H1635 C1603 0.951 . S
H1636 C1604 0.950 . S
H1637 C1608 0.949 . S
H1638 C1609 0.950 . S
H1639 C1613 0.950 . S
H1640 C1615 0.950 . S
H1641 C1618 0.950 . S
H1642 C1620 0.950 . S
C1643 C1644 1.443 . S
C1643 N1647 1.376 . S
C1643 C1681 1.389 . S
C1644 C1643 1.443 . S
C1644 C1645 1.340 . S
C1644 H1684 0.951 . S
C1645 C1644 1.340 . S
C1645 C1646 1.439 . S
C1645 H1685 0.950 . S
C1646 C1645 1.439 . S
C1646 N1647 1.374 . S
C1646 C1680 1.395 . S
N1647 C1643 1.376 . S
N1647 C1646 1.374 . S
N1647 Co1648 2.008 . S
Co1648 N1647 2.008 . S
Co1648 N1649 1.995 . S
Co1648 N1654 2.008 . S
Co1648 N1659 1.995 . S
Co1648 N1664 2.282 . S
Co1648 N1670 2.282 . S
N1649 Co1648 1.995 . S
N1649 C1650 1.376 . S
N1649 C1653 1.383 . S
C1650 N1649 1.376 . S
C1650 C1651 1.446 . S
C1650 C1680 1.391 . S
C1651 C1650 1.446 . S
C1651 C1652 1.339 . S
C1651 H1686 0.949 . S
C1652 C1651 1.339 . S
C1652 C1653 1.439 . S
C1652 H1687 0.950 . S
C1653 N1649 1.383 . S
C1653 C1652 1.439 . S
C1653 C1682 1.392 . S
N1654 Co1648 2.008 . S
N1654 C1655 1.376 . S
N1654 C1658 1.374 . S
C1655 N1654 1.376 . S
C1655 C1656 1.443 . S
C1655 C1682 1.389 . S
C1656 C1655 1.443 . S
C1656 C1657 1.340 . S
C1656 H1688 0.951 . S
C1657 C1656 1.340 . S
C1657 C1658 1.439 . S
C1657 H1689 0.950 . S
C1658 N1654 1.374 . S
C1658 C1657 1.439 . S
C1658 C1683 1.395 . S
N1659 Co1648 1.995 . S
N1659 C1660 1.376 . S
N1659 C1663 1.383 . S
C1660 N1659 1.376 . S
C1660 C1661 1.446 . S
C1660 C1683 1.391 . S
C1661 C1660 1.446 . S
C1661 C1662 1.339 . S
C1661 H1690 0.949 . S
C1662 C1661 1.339 . S
C1662 C1663 1.439 . S
C1662 H1691 0.950 . S
C1663 N1659 1.383 . S
C1663 C1662 1.439 . S
C1663 C1681 1.392 . S
N1664 Co1648 2.282 . S
N1664 C1667 1.332 . S
N1664 C1669 1.332 . S
C1665 C1666 1.386 . S
C1665 C1668 1.388 . S
C1666 C1665 1.386 . S
C1666 C1667 1.382 . S
C1666 H1692 0.950 . S
C1667 N1664 1.332 . S
C1667 C1666 1.382 . S
C1667 H1678 0.952 . S
C1668 C1665 1.388 . S
C1668 C1669 1.382 . S
C1668 H1693 0.950 . S
C1669 N1664 1.332 . S
C1669 C1668 1.382 . S
C1669 H1679 0.948 . S
N1670 Co1648 2.282 . S
N1670 C1674 1.332 . S
N1670 C1675 1.332 . S
C1671 C1672 1.388 . S
C1671 C1675 1.382 . S
C1671 H1694 0.950 . S
C1672 C1671 1.388 . S
C1672 C1673 1.386 . S
C1673 C1672 1.386 . S
C1673 C1674 1.382 . S
C1673 H1695 0.950 . S
C1674 N1670 1.332 . S
C1674 C1673 1.382 . S
C1674 H1676 0.952 . S
C1675 N1670 1.332 . S
C1675 C1671 1.382 . S
C1675 H1677 0.948 . S
H1676 C1674 0.952 . S
H1677 C1675 0.948 . S
H1678 C1667 0.952 . S
H1679 C1669 0.948 . S
C1680 C1646 1.395 . S
C1680 C1650 1.391 . S
C1681 C1643 1.389 . S
C1681 C1663 1.392 . S
C1682 C1653 1.392 . S
C1682 C1655 1.389 . S
C1683 C1658 1.395 . S
C1683 C1660 1.391 . S
H1684 C1644 0.951 . S
H1685 C1645 0.950 . S
H1686 C1651 0.949 . S
H1687 C1652 0.950 . S
H1688 C1656 0.951 . S
H1689 C1657 0.950 . S
H1690 C1661 0.949 . S
H1691 C1662 0.950 . S
H1692 C1666 0.950 . S
H1693 C1668 0.950 . S
H1694 C1671 0.950 . S
H1695 C1673 0.950 . S
C1696 C1697 1.387 . S
C1696 H1700 0.950 . S
C1696 C1705 1.390 . S
C1697 C1696 1.387 . S
C1697 C1699 1.387 . S
H1698 C1705 0.950 . S
C1699 C1697 1.387 . S
C1699 C1701 1.390 . S
C1699 H1703 0.950 . S
H1700 C1696 0.950 . S
C1701 C1699 1.390 . S
C1701 C1702 1.387 . S
C1701 H1704 0.950 . S
C1702 C1701 1.387 . S
C1702 C1705 1.387 . S
H1703 C1699 0.950 . S
H1704 C1701 0.950 . S
C1705 C1696 1.390 . S
C1705 H1698 0.950 . S
C1705 C1702 1.387 . S
C1706 C1707 1.387 . S
C1706 H1710 0.950 . S
C1706 C1715 1.390 . S
C1707 C1706 1.387 . S
C1707 C1709 1.387 . S
H1708 C1715 0.950 . S
C1709 C1707 1.387 . S
C1709 C1711 1.390 . S
C1709 H1713 0.950 . S
H1710 C1706 0.950 . S
C1711 C1709 1.390 . S
C1711 C1712 1.387 . S
C1711 H1714 0.950 . S
C1712 C1711 1.387 . S
C1712 C1715 1.387 . S
H1713 C1709 0.950 . S
H1714 C1711 0.950 . S
C1715 C1706 1.390 . S
C1715 H1708 0.950 . S
C1715 C1712 1.387 . S
C1716 C1717 1.387 . S
C1716 H1720 0.950 . S
C1716 C1725 1.390 . S
C1717 C1716 1.387 . S
C1717 C1719 1.387 . S
H1718 C1725 0.950 . S
C1719 C1717 1.387 . S
C1719 C1721 1.390 . S
C1719 H1723 0.950 . S
H1720 C1716 0.950 . S
C1721 C1719 1.390 . S
C1721 C1722 1.387 . S
C1721 H1724 0.950 . S
C1722 C1721 1.387 . S
C1722 C1725 1.387 . S
H1723 C1719 0.950 . S
H1724 C1721 0.950 . S
C1725 C1716 1.390 . S
C1725 H1718 0.950 . S
C1725 C1722 1.387 . S
C1726 C1727 1.387 . S
C1726 H1730 0.950 . S
C1726 C1735 1.390 . S
C1727 C1726 1.387 . S
C1727 C1729 1.387 . S
H1728 C1735 0.950 . S
C1729 C1727 1.387 . S
C1729 C1731 1.390 . S
C1729 H1733 0.950 . S
H1730 C1726 0.950 . S
C1731 C1729 1.390 . S
C1731 C1732 1.387 . S
C1731 H1734 0.950 . S
C1732 C1731 1.387 . S
C1732 C1735 1.387 . S
H1733 C1729 0.950 . S
H1734 C1731 0.950 . S
C1735 C1726 1.390 . S
C1735 H1728 0.950 . S
C1735 C1732 1.387 . S
C1736 C1737 1.387 . S
C1736 H1740 0.950 . S
C1736 C1745 1.390 . S
C1737 C1736 1.387 . S
C1737 C1739 1.387 . S
H1738 C1745 0.950 . S
C1739 C1737 1.387 . S
C1739 C1741 1.390 . S
C1739 H1743 0.950 . S
H1740 C1736 0.950 . S
C1741 C1739 1.390 . S
C1741 C1742 1.387 . S
C1741 H1744 0.950 . S
C1742 C1741 1.387 . S
C1742 C1745 1.387 . S
H1743 C1739 0.950 . S
H1744 C1741 0.950 . S
C1745 C1736 1.390 . S
C1745 H1738 0.950 . S
C1745 C1742 1.387 . S
C1746 C1747 1.387 . S
C1746 H1750 0.950 . S
C1746 C1755 1.390 . S
C1747 C1746 1.387 . S
C1747 C1749 1.387 . S
H1748 C1755 0.950 . S
C1749 C1747 1.387 . S
C1749 C1751 1.390 . S
C1749 H1753 0.950 . S
H1750 C1746 0.950 . S
C1751 C1749 1.390 . S
C1751 C1752 1.387 . S
C1751 H1754 0.950 . S
C1752 C1751 1.387 . S
C1752 C1755 1.387 . S
H1753 C1749 0.950 . S
H1754 C1751 0.950 . S
C1755 C1746 1.390 . S
C1755 H1748 0.950 . S
C1755 C1752 1.387 . S
C1756 C1757 1.387 . S
C1756 H1760 0.950 . S
C1756 C1765 1.390 . S
C1757 C1756 1.387 . S
C1757 C1759 1.387 . S
H1758 C1765 0.950 . S
C1759 C1757 1.387 . S
C1759 C1761 1.390 . S
C1759 H1763 0.950 . S
H1760 C1756 0.950 . S
C1761 C1759 1.390 . S
C1761 C1762 1.387 . S
C1761 H1764 0.950 . S
C1762 C1761 1.387 . S
C1762 C1765 1.387 . S
H1763 C1759 0.950 . S
H1764 C1761 0.950 . S
C1765 C1756 1.390 . S
C1765 H1758 0.950 . S
C1765 C1762 1.387 . S
C1766 C1767 1.387 . S
C1766 H1770 0.950 . S
C1766 C1775 1.390 . S
C1767 C1766 1.387 . S
C1767 C1769 1.387 . S
H1768 C1775 0.950 . S
C1769 C1767 1.387 . S
C1769 C1771 1.390 . S
C1769 H1773 0.950 . S
H1770 C1766 0.950 . S
C1771 C1769 1.390 . S
C1771 C1772 1.387 . S
C1771 H1774 0.950 . S
C1772 C1771 1.387 . S
C1772 C1775 1.387 . S
H1773 C1769 0.950 . S
H1774 C1771 0.950 . S
C1775 C1766 1.390 . S
C1775 H1768 0.950 . S
C1775 C1772 1.387 . S
C1776 C1777 1.387 . S
C1776 H1780 0.950 . S
C1776 C1785 1.390 . S
C1777 C1776 1.387 . S
C1777 C1779 1.387 . S
H1778 C1785 0.950 . S
C1779 C1777 1.387 . S
C1779 C1781 1.390 . S
C1779 H1783 0.950 . S
H1780 C1776 0.950 . S
C1781 C1779 1.390 . S
C1781 C1782 1.387 . S
C1781 H1784 0.950 . S
C1782 C1781 1.387 . S
C1782 C1785 1.387 . S
H1783 C1779 0.950 . S
H1784 C1781 0.950 . S
C1785 C1776 1.390 . S
C1785 H1778 0.950 . S
C1785 C1782 1.387 . S
C1786 C1787 1.387 . S
C1786 H1790 0.950 . S
C1786 C1795 1.390 . S
C1787 C1786 1.387 . S
C1787 C1789 1.387 . S
H1788 C1795 0.950 . S
C1789 C1787 1.387 . S
C1789 C1791 1.390 . S
C1789 H1793 0.950 . S
H1790 C1786 0.950 . S
C1791 C1789 1.390 . S
C1791 C1792 1.387 . S
C1791 H1794 0.950 . S
C1792 C1791 1.387 . S
C1792 C1795 1.387 . S
H1793 C1789 0.950 . S
H1794 C1791 0.950 . S
C1795 C1786 1.390 . S
C1795 H1788 0.950 . S
C1795 C1792 1.387 . S
C1796 C1797 1.387 . S
C1796 H1800 0.950 . S
C1796 C1805 1.390 . S
C1797 C1796 1.387 . S
C1797 C1799 1.387 . S
H1798 C1805 0.950 . S
C1799 C1797 1.387 . S
C1799 C1801 1.390 . S
C1799 H1803 0.950 . S
H1800 C1796 0.950 . S
C1801 C1799 1.390 . S
C1801 C1802 1.387 . S
C1801 H1804 0.950 . S
C1802 C1801 1.387 . S
C1802 C1805 1.387 . S
H1803 C1799 0.950 . S
H1804 C1801 0.950 . S
C1805 C1796 1.390 . S
C1805 H1798 0.950 . S
C1805 C1802 1.387 . S
C1806 C1807 1.387 . S
C1806 H1810 0.950 . S
C1806 C1815 1.390 . S
C1807 C1806 1.387 . S
C1807 C1809 1.387 . S
H1808 C1815 0.950 . S
C1809 C1807 1.387 . S
C1809 C1811 1.390 . S
C1809 H1813 0.950 . S
H1810 C1806 0.950 . S
C1811 C1809 1.390 . S
C1811 C1812 1.387 . S
C1811 H1814 0.950 . S
C1812 C1811 1.387 . S
C1812 C1815 1.387 . S
H1813 C1809 0.950 . S
H1814 C1811 0.950 . S
C1815 C1806 1.390 . S
C1815 H1808 0.950 . S
C1815 C1812 1.387 . S
C1816 C1817 1.387 . S
C1816 H1820 0.950 . S
C1816 C1825 1.390 . S
C1817 C1816 1.387 . S
C1817 C1819 1.387 . S
H1818 C1825 0.950 . S
C1819 C1817 1.387 . S
C1819 C1821 1.390 . S
C1819 H1823 0.950 . S
H1820 C1816 0.950 . S
C1821 C1819 1.390 . S
C1821 C1822 1.387 . S
C1821 H1824 0.950 . S
C1822 C1821 1.387 . S
C1822 C1825 1.387 . S
H1823 C1819 0.950 . S
H1824 C1821 0.950 . S
C1825 C1816 1.390 . S
C1825 H1818 0.950 . S
C1825 C1822 1.387 . S
C1826 C1827 1.387 . S
C1826 H1830 0.950 . S
C1826 C1835 1.390 . S
C1827 C1826 1.387 . S
C1827 C1829 1.387 . S
H1828 C1835 0.950 . S
C1829 C1827 1.387 . S
C1829 C1831 1.390 . S
C1829 H1833 0.950 . S
H1830 C1826 0.950 . S
C1831 C1829 1.390 . S
C1831 C1832 1.387 . S
C1831 H1834 0.950 . S
C1832 C1831 1.387 . S
C1832 C1835 1.387 . S
H1833 C1829 0.950 . S
H1834 C1831 0.950 . S
C1835 C1826 1.390 . S
C1835 H1828 0.950 . S
C1835 C1832 1.387 . S
C1836 C1837 1.387 . S
C1836 H1840 0.950 . S
C1836 C1845 1.390 . S
C1837 C1836 1.387 . S
C1837 C1839 1.387 . S
H1838 C1845 0.950 . S
C1839 C1837 1.387 . S
C1839 C1841 1.390 . S
C1839 H1843 0.950 . S
H1840 C1836 0.950 . S
C1841 C1839 1.390 . S
C1841 C1842 1.387 . S
C1841 H1844 0.950 . S
C1842 C1841 1.387 . S
C1842 C1845 1.387 . S
H1843 C1839 0.950 . S
H1844 C1841 0.950 . S
C1845 C1836 1.390 . S
C1845 H1838 0.950 . S
C1845 C1842 1.387 . S
C1846 C1847 1.387 . S
C1846 H1850 0.950 . S
C1846 C1855 1.390 . S
C1847 C1846 1.387 . S
C1847 C1849 1.387 . S
H1848 C1855 0.950 . S
C1849 C1847 1.387 . S
C1849 C1851 1.390 . S
C1849 H1853 0.950 . S
H1850 C1846 0.950 . S
C1851 C1849 1.390 . S
C1851 C1852 1.387 . S
C1851 H1854 0.950 . S
C1852 C1851 1.387 . S
C1852 C1855 1.387 . S
H1853 C1849 0.950 . S
H1854 C1851 0.950 . S
C1855 C1846 1.390 . S
C1855 H1848 0.950 . S
C1855 C1852 1.387 . S
C1856 C1857 1.375 1_556 S
C1856 H1860 0.950 . S
C1856 C1865 1.390 1_545 S
C1857 C1856 1.375 1_554 S
C1857 C1859 1.400 . S
H1858 C1865 0.950 . S
C1859 C1857 1.400 . S
C1859 C1861 1.390 1_545 S
C1859 H1863 0.950 . S
H1860 C1856 0.950 . S
C1861 C1859 1.390 1_565 S
C1861 C1862 1.375 1_554 S
C1861 H1864 0.950 . S
C1862 C1861 1.375 1_556 S
C1862 C1865 1.400 . S
H1863 C1859 0.950 . S
H1864 C1861 0.950 . S
C1865 C1856 1.390 1_565 S
C1865 H1858 0.950 . S
C1865 C1862 1.400 . S
C1866 C1867 1.374 1_554 S
C1866 H1870 0.950 . S
C1866 C1875 1.390 . S
C1867 C1866 1.374 1_556 S
C1867 C1869 1.401 . S
H1868 C1875 0.950 . S
C1869 C1867 1.401 . S
C1869 C1871 1.390 . S
C1869 H1873 0.950 . S
H1870 C1866 0.950 . S
C1871 C1869 1.390 . S
C1871 C1872 1.375 1_556 S
C1871 H1874 0.950 . S
C1872 C1871 1.375 1_554 S
C1872 C1875 1.400 . S
H1873 C1869 0.950 . S
H1874 C1871 0.950 . S
C1875 C1866 1.390 . S
C1875 H1868 0.950 . S
C1875 C1872 1.400 . S
C1876 C1877 1.387 . S
C1876 H1880 0.950 . S
C1876 C1885 1.390 . S
C1877 C1876 1.387 . S
C1877 C1879 1.387 . S
H1878 C1885 0.950 . S
C1879 C1877 1.387 . S
C1879 C1881 1.390 . S
C1879 H1883 0.950 . S
H1880 C1876 0.950 . S
C1881 C1879 1.390 . S
C1881 C1882 1.387 . S
C1881 H1884 0.950 . S
C1882 C1881 1.387 . S
C1882 C1885 1.387 . S
H1883 C1879 0.950 . S
H1884 C1881 0.950 . S
C1885 C1876 1.390 . S
C1885 H1878 0.950 . S
C1885 C1882 1.387 . S
C1886 C1887 1.387 . S
C1886 H1890 0.950 . S
C1886 C1895 1.390 1_565 S
C1887 C1886 1.387 . S
C1887 C1889 1.387 . S
H1888 C1895 0.950 . S
C1889 C1887 1.387 . S
C1889 C1891 1.390 1_565 S
C1889 H1893 0.950 . S
H1890 C1886 0.950 . S
C1891 C1889 1.390 1_545 S
C1891 C1892 1.387 . S
C1891 H1894 0.950 . S
C1892 C1891 1.387 . S
C1892 C1895 1.387 . S
H1893 C1889 0.950 . S
H1894 C1891 0.950 . S
C1895 C1886 1.390 1_545 S
C1895 H1888 0.950 . S
C1895 C1892 1.387 . S
C1896 C1897 1.401 . S
C1896 H1900 0.950 . S
C1896 C1905 1.390 . S
C1897 C1896 1.401 . S
C1897 C1899 1.374 1_554 S
H1898 C1905 0.950 . S
C1899 C1897 1.374 1_556 S
C1899 C1901 1.390 . S
C1899 H1903 0.950 . S
H1900 C1896 0.950 . S
C1901 C1899 1.390 . S
C1901 C1902 1.400 . S
C1901 H1904 0.950 . S
C1902 C1901 1.400 . S
C1902 C1905 1.375 1_556 S
H1903 C1899 0.950 . S
H1904 C1901 0.950 . S
C1905 C1896 1.390 . S
C1905 H1898 0.950 . S
C1905 C1902 1.375 1_554 S
C1906 C1907 1.387 . S
C1906 H1910 0.950 . S
C1906 C1915 1.390 . S
C1907 C1906 1.387 . S
C1907 C1909 1.387 . S
H1908 C1915 0.950 . S
C1909 C1907 1.387 . S
C1909 C1911 1.390 . S
C1909 H1913 0.950 . S
H1910 C1906 0.950 . S
C1911 C1909 1.390 . S
C1911 C1912 1.387 . S
C1911 H1914 0.950 . S
C1912 C1911 1.387 . S
C1912 C1915 1.387 . S
H1913 C1909 0.950 . S
H1914 C1911 0.950 . S
C1915 C1906 1.390 . S
C1915 H1908 0.950 . S
C1915 C1912 1.387 . S
C1916 C1917 1.387 . S
C1916 H1920 0.950 . S
C1916 C1925 1.390 1_565 S
C1917 C1916 1.387 . S
C1917 C1919 1.387 . S
H1918 C1925 0.950 . S
C1919 C1917 1.387 . S
C1919 C1921 1.390 1_565 S
C1919 H1923 0.950 . S
H1920 C1916 0.950 . S
C1921 C1919 1.390 1_545 S
C1921 C1922 1.387 . S
C1921 H1924 0.950 . S
C1922 C1921 1.387 . S
C1922 C1925 1.387 . S
H1923 C1919 0.950 . S
H1924 C1921 0.950 . S
C1925 C1916 1.390 1_545 S
C1925 H1918 0.950 . S
C1925 C1922 1.387 . S
C1926 C1927 1.387 . S
C1926 H1930 0.950 . S
C1926 C1935 1.390 . S
C1927 C1926 1.387 . S
C1927 C1929 1.387 . S
H1928 C1935 0.950 . S
C1929 C1927 1.387 . S
C1929 C1931 1.390 . S
C1929 H1933 0.950 . S
H1930 C1926 0.950 . S
C1931 C1929 1.390 . S
C1931 C1932 1.387 . S
C1931 H1934 0.950 . S
C1932 C1931 1.387 . S
C1932 C1935 1.387 . S
H1933 C1929 0.950 . S
H1934 C1931 0.950 . S
C1935 C1926 1.390 . S
C1935 H1928 0.950 . S
C1935 C1932 1.387 . S
C1936 C1937 1.387 . S
C1936 H1940 0.950 . S
C1936 C1945 1.390 . S
C1937 C1936 1.387 . S
C1937 C1939 1.387 . S
H1938 C1945 0.950 . S
C1939 C1937 1.387 . S
C1939 C1941 1.390 . S
C1939 H1943 0.950 . S
H1940 C1936 0.950 . S
C1941 C1939 1.390 . S
C1941 C1942 1.387 . S
C1941 H1944 0.950 . S
C1942 C1941 1.387 . S
C1942 C1945 1.387 . S
H1943 C1939 0.950 . S
H1944 C1941 0.950 . S
C1945 C1936 1.390 . S
C1945 H1938 0.950 . S
C1945 C1942 1.387 . S
C1946 C1947 1.387 . S
C1946 H1950 0.950 . S
C1946 C1955 1.390 . S
C1947 C1946 1.387 . S
C1947 C1949 1.387 . S
H1948 C1955 0.950 . S
C1949 C1947 1.387 . S
C1949 C1951 1.390 . S
C1949 H1953 0.950 . S
H1950 C1946 0.950 . S
C1951 C1949 1.390 . S
C1951 C1952 1.387 . S
C1951 H1954 0.950 . S
C1952 C1951 1.387 . S
C1952 C1955 1.387 . S
H1953 C1949 0.950 . S
H1954 C1951 0.950 . S
C1955 C1946 1.390 . S
C1955 H1948 0.950 . S
C1955 C1952 1.387 . S
C1956 C1957 1.387 . S
C1956 H1960 0.950 . S
C1956 C1965 1.390 . S
C1957 C1956 1.387 . S
C1957 C1959 1.387 . S
H1958 C1965 0.950 . S
C1959 C1957 1.387 . S
C1959 C1961 1.390 . S
C1959 H1963 0.950 . S
H1960 C1956 0.950 . S
C1961 C1959 1.390 . S
C1961 C1962 1.387 . S
C1961 H1964 0.950 . S
C1962 C1961 1.387 . S
C1962 C1965 1.387 . S
H1963 C1959 0.950 . S
H1964 C1961 0.950 . S
C1965 C1956 1.390 . S
C1965 H1958 0.950 . S
C1965 C1962 1.387 . S
C1966 C1967 1.387 . S
C1966 H1970 0.950 . S
C1966 C1975 1.390 . S
C1967 C1966 1.387 . S
C1967 C1969 1.387 . S
H1968 C1975 0.950 . S
C1969 C1967 1.387 . S
C1969 C1971 1.390 . S
C1969 H1973 0.950 . S
H1970 C1966 0.950 . S
C1971 C1969 1.390 . S
C1971 C1972 1.387 . S
C1971 H1974 0.950 . S
C1972 C1971 1.387 . S
C1972 C1975 1.387 . S
H1973 C1969 0.950 . S
H1974 C1971 0.950 . S
C1975 C1966 1.390 . S
C1975 H1968 0.950 . S
C1975 C1972 1.387 . S
C1976 C1977 1.387 . S
C1976 H1980 0.950 . S
C1976 C1985 1.390 1_465 S
C1977 C1976 1.387 . S
C1977 C1979 1.387 . S
H1978 C1985 0.950 . S
C1979 C1977 1.387 . S
C1979 C1981 1.390 1_465 S
C1979 H1983 0.950 . S
H1980 C1976 0.950 . S
C1981 C1979 1.390 1_645 S
C1981 C1982 1.387 . S
C1981 H1984 0.950 . S
C1982 C1981 1.387 . S
C1982 C1985 1.387 . S
H1983 C1979 0.950 . S
H1984 C1981 0.950 . S
C1985 C1976 1.390 1_645 S
C1985 H1978 0.950 . S
C1985 C1982 1.387 . S
C1986 C1987 1.387 . S
C1986 H1990 0.950 . S
C1986 C1995 1.390 1_655 S
C1987 C1986 1.387 . S
C1987 C1989 1.387 . S
H1988 C1995 0.950 . S
C1989 C1987 1.387 . S
C1989 C1991 1.390 1_655 S
C1989 H1993 0.950 . S
H1990 C1986 0.950 . S
C1991 C1989 1.390 1_455 S
C1991 C1992 1.387 . S
C1991 H1994 0.950 . S
C1992 C1991 1.387 . S
C1992 C1995 1.387 . S
H1993 C1989 0.950 . S
H1994 C1991 0.950 . S
C1995 C1986 1.390 1_455 S
C1995 H1988 0.950 . S
C1995 C1992 1.387 . S
C1996 C1997 1.387 . S
C1996 H2000 0.950 . S
C1996 C2005 1.390 1_455 S
C1997 C1996 1.387 . S
C1997 C1999 1.387 . S
H1998 C2005 0.950 . S
C1999 C1997 1.387 . S
C1999 C2001 1.390 1_455 S
C1999 H2003 0.950 . S
H2000 C1996 0.950 . S
C2001 C1999 1.390 1_655 S
C2001 C2002 1.387 . S
C2001 H2004 0.950 . S
C2002 C2001 1.387 . S
C2002 C2005 1.387 . S
H2003 C1999 0.950 . S
H2004 C2001 0.950 . S
C2005 C1996 1.390 1_655 S
C2005 H1998 0.950 . S
C2005 C2002 1.387 . S
C2006 C2007 1.375 1_554 S
C2006 H2010 0.950 . S
C2006 C2015 1.390 1_455 S
C2007 C2006 1.375 1_556 S
C2007 C2009 1.400 . S
H2008 C2015 0.950 . S
C2009 C2007 1.400 . S
C2009 C2011 1.390 1_455 S
C2009 H2013 0.950 . S
H2010 C2006 0.950 . S
C2011 C2009 1.390 1_655 S
C2011 C2012 1.375 1_556 S
C2011 H2014 0.950 . S
C2012 C2011 1.375 1_554 S
C2012 C2015 1.400 . S
H2013 C2009 0.950 . S
H2014 C2011 0.950 . S
C2015 C2006 1.390 1_655 S
C2015 H2008 0.950 . S
C2015 C2012 1.400 . S
C2016 C2017 1.387 . S
C2016 H2020 0.950 . S
C2016 C2025 1.390 . S
C2017 C2016 1.387 . S
C2017 C2019 1.387 . S
H2018 C2025 0.950 . S
C2019 C2017 1.387 . S
C2019 C2021 1.390 . S
C2019 H2023 0.950 . S
H2020 C2016 0.950 . S
C2021 C2019 1.390 . S
C2021 C2022 1.387 . S
C2021 H2024 0.950 . S
C2022 C2021 1.387 . S
C2022 C2025 1.387 . S
H2023 C2019 0.950 . S
H2024 C2021 0.950 . S
C2025 C2016 1.390 . S
C2025 H2018 0.950 . S
C2025 C2022 1.387 . S
C2026 C2027 1.387 . S
C2026 H2030 0.950 . S
C2026 C2035 1.390 . S
C2027 C2026 1.387 . S
C2027 C2029 1.387 . S
H2028 C2035 0.950 . S
C2029 C2027 1.387 . S
C2029 C2031 1.390 . S
C2029 H2033 0.950 . S
H2030 C2026 0.950 . S
C2031 C2029 1.390 . S
C2031 C2032 1.387 . S
C2031 H2034 0.950 . S
C2032 C2031 1.387 . S
C2032 C2035 1.387 . S
H2033 C2029 0.950 . S
H2034 C2031 0.950 . S
C2035 C2026 1.390 . S
C2035 H2028 0.950 . S
C2035 C2032 1.387 . S
C2036 C2037 1.387 . S
C2036 H2040 0.950 . S
C2036 C2045 1.390 . S
C2037 C2036 1.387 . S
C2037 C2039 1.387 . S
H2038 C2045 0.950 . S
C2039 C2037 1.387 . S
C2039 C2041 1.390 . S
C2039 H2043 0.950 . S
H2040 C2036 0.950 . S
C2041 C2039 1.390 . S
C2041 C2042 1.387 . S
C2041 H2044 0.950 . S
C2042 C2041 1.387 . S
C2042 C2045 1.387 . S
H2043 C2039 0.950 . S
H2044 C2041 0.950 . S
C2045 C2036 1.390 . S
C2045 H2038 0.950 . S
C2045 C2042 1.387 . S
C2046 C2047 1.387 . S
C2046 H2050 0.950 . S
C2046 C2055 1.390 . S
C2047 C2046 1.387 . S
C2047 C2049 1.387 . S
H2048 C2055 0.950 . S
C2049 C2047 1.387 . S
C2049 C2051 1.390 . S
C2049 H2053 0.950 . S
H2050 C2046 0.950 . S
C2051 C2049 1.390 . S
C2051 C2052 1.387 . S
C2051 H2054 0.950 . S
C2052 C2051 1.387 . S
C2052 C2055 1.387 . S
H2053 C2049 0.950 . S
H2054 C2051 0.950 . S
C2055 C2046 1.390 . S
C2055 H2048 0.950 . S
C2055 C2052 1.387 . S
C2056 C2057 1.387 . S
C2056 H2060 0.950 . S
C2056 C2065 1.390 . S
C2057 C2056 1.387 . S
C2057 C2059 1.387 . S
H2058 C2065 0.950 . S
C2059 C2057 1.387 . S
C2059 C2061 1.390 . S
C2059 H2063 0.950 . S
H2060 C2056 0.950 . S
C2061 C2059 1.390 . S
C2061 C2062 1.387 . S
C2061 H2064 0.950 . S
C2062 C2061 1.387 . S
C2062 C2065 1.387 . S
H2063 C2059 0.950 . S
H2064 C2061 0.950 . S
C2065 C2056 1.390 . S
C2065 H2058 0.950 . S
C2065 C2062 1.387 . S
C2066 C2067 1.387 . S
C2066 H2070 0.950 . S
C2066 C2075 1.390 . S
C2067 C2066 1.387 . S
C2067 C2069 1.387 . S
H2068 C2075 0.950 . S
C2069 C2067 1.387 . S
C2069 C2071 1.390 . S
C2069 H2073 0.950 . S
H2070 C2066 0.950 . S
C2071 C2069 1.390 . S
C2071 C2072 1.387 . S
C2071 H2074 0.950 . S
C2072 C2071 1.387 . S
C2072 C2075 1.387 . S
H2073 C2069 0.950 . S
H2074 C2071 0.950 . S
C2075 C2066 1.390 . S
C2075 H2068 0.950 . S
C2075 C2072 1.387 . S
C2076 C2077 1.387 . S
C2076 H2080 0.950 . S
C2076 C2085 1.390 . S
C2077 C2076 1.387 . S
C2077 C2079 1.387 . S
H2078 C2085 0.950 . S
C2079 C2077 1.387 . S
C2079 C2081 1.390 . S
C2079 H2083 0.950 . S
H2080 C2076 0.950 . S
C2081 C2079 1.390 . S
C2081 C2082 1.387 . S
C2081 H2084 0.950 . S
C2082 C2081 1.387 . S
C2082 C2085 1.387 . S
H2083 C2079 0.950 . S
H2084 C2081 0.950 . S
C2085 C2076 1.390 . S
C2085 H2078 0.950 . S
C2085 C2082 1.387 . S
C2086 C2087 1.387 . S
C2086 H2090 0.950 . S
C2086 C2095 1.390 . S
C2087 C2086 1.387 . S
C2087 C2089 1.387 . S
H2088 C2095 0.950 . S
C2089 C2087 1.387 . S
C2089 C2091 1.390 . S
C2089 H2093 0.950 . S
H2090 C2086 0.950 . S
C2091 C2089 1.390 . S
C2091 C2092 1.387 . S
C2091 H2094 0.950 . S
C2092 C2091 1.387 . S
C2092 C2095 1.387 . S
H2093 C2089 0.950 . S
H2094 C2091 0.950 . S
C2095 C2086 1.390 . S
C2095 H2088 0.950 . S
C2095 C2092 1.387 . S
C2096 C2097 1.387 . S
C2096 H2100 0.950 . S
C2096 C2105 1.390 . S
C2097 C2096 1.387 . S
C2097 C2099 1.387 . S
H2098 C2105 0.950 . S
C2099 C2097 1.387 . S
C2099 C2101 1.390 . S
C2099 H2103 0.950 . S
H2100 C2096 0.950 . S
C2101 C2099 1.390 . S
C2101 C2102 1.387 . S
C2101 H2104 0.950 . S
C2102 C2101 1.387 . S
C2102 C2105 1.387 . S
H2103 C2099 0.950 . S
H2104 C2101 0.950 . S
C2105 C2096 1.390 . S
C2105 H2098 0.950 . S
C2105 C2102 1.387 . S
C2106 C2107 1.387 . S
C2106 H2110 0.950 . S
C2106 C2115 1.390 . S
C2107 C2106 1.387 . S
C2107 C2109 1.387 . S
H2108 C2115 0.950 . S
C2109 C2107 1.387 . S
C2109 C2111 1.390 . S
C2109 H2113 0.950 . S
H2110 C2106 0.950 . S
C2111 C2109 1.390 . S
C2111 C2112 1.387 . S
C2111 H2114 0.950 . S
C2112 C2111 1.387 . S
C2112 C2115 1.387 . S
H2113 C2109 0.950 . S
H2114 C2111 0.950 . S
C2115 C2106 1.390 . S
C2115 H2108 0.950 . S
C2115 C2112 1.387 . S
C2116 C2117 1.387 . S
C2116 H2120 0.950 . S
C2116 C2125 1.390 . S
C2117 C2116 1.387 . S
C2117 C2119 1.387 . S
H2118 C2125 0.950 . S
C2119 C2117 1.387 . S
C2119 C2121 1.390 . S
C2119 H2123 0.950 . S
H2120 C2116 0.950 . S
C2121 C2119 1.390 . S
C2121 C2122 1.387 . S
C2121 H2124 0.950 . S
C2122 C2121 1.387 . S
C2122 C2125 1.387 . S
H2123 C2119 0.950 . S
H2124 C2121 0.950 . S
C2125 C2116 1.390 . S
C2125 H2118 0.950 . S
C2125 C2122 1.387 . S
C2126 C2127 1.387 . S
C2126 H2130 0.950 . S
C2126 C2135 1.390 . S
C2127 C2126 1.387 . S
C2127 C2129 1.387 . S
H2128 C2135 0.950 . S
C2129 C2127 1.387 . S
C2129 C2131 1.390 . S
C2129 H2133 0.950 . S
H2130 C2126 0.950 . S
C2131 C2129 1.390 . S
C2131 C2132 1.387 . S
C2131 H2134 0.950 . S
C2132 C2131 1.387 . S
C2132 C2135 1.387 . S
H2133 C2129 0.950 . S
H2134 C2131 0.950 . S
C2135 C2126 1.390 . S
C2135 H2128 0.950 . S
C2135 C2132 1.387 . S
C2136 C2137 1.387 . S
C2136 H2140 0.950 . S
C2136 C2145 1.390 . S
C2137 C2136 1.387 . S
C2137 C2139 1.387 . S
H2138 C2145 0.950 . S
C2139 C2137 1.387 . S
C2139 C2141 1.390 . S
C2139 H2143 0.950 . S
H2140 C2136 0.950 . S
C2141 C2139 1.390 . S
C2141 C2142 1.387 . S
C2141 H2144 0.950 . S
C2142 C2141 1.387 . S
C2142 C2145 1.387 . S
H2143 C2139 0.950 . S
H2144 C2141 0.950 . S
C2145 C2136 1.390 . S
C2145 H2138 0.950 . S
C2145 C2142 1.387 . S
C2146 C2147 1.387 . S
C2146 H2150 0.950 . S
C2146 C2155 1.390 . S
C2147 C2146 1.387 . S
C2147 C2149 1.387 . S
H2148 C2155 0.950 . S
C2149 C2147 1.387 . S
C2149 C2151 1.390 . S
C2149 H2153 0.950 . S
H2150 C2146 0.950 . S
C2151 C2149 1.390 . S
C2151 C2152 1.387 . S
C2151 H2154 0.950 . S
C2152 C2151 1.387 . S
C2152 C2155 1.387 . S
H2153 C2149 0.950 . S
H2154 C2151 0.950 . S
C2155 C2146 1.390 . S
C2155 H2148 0.950 . S
C2155 C2152 1.387 . S
C2156 C2157 1.387 . S
C2156 H2160 0.950 . S
C2156 C2165 1.390 . S
C2157 C2156 1.387 . S
C2157 C2159 1.387 . S
H2158 C2165 0.950 . S
C2159 C2157 1.387 . S
C2159 C2161 1.390 . S
C2159 H2163 0.950 . S
H2160 C2156 0.950 . S
C2161 C2159 1.390 . S
C2161 C2162 1.387 . S
C2161 H2164 0.950 . S
C2162 C2161 1.387 . S
C2162 C2165 1.387 . S
H2163 C2159 0.950 . S
H2164 C2161 0.950 . S
C2165 C2156 1.390 . S
C2165 H2158 0.950 . S
C2165 C2162 1.387 . S
C2166 C2167 1.387 . S
C2166 H2170 0.950 . S
C2166 C2175 1.390 . S
C2167 C2166 1.387 . S
C2167 C2169 1.387 . S
H2168 C2175 0.950 . S
C2169 C2167 1.387 . S
C2169 C2171 1.390 . S
C2169 H2173 0.950 . S
H2170 C2166 0.950 . S
C2171 C2169 1.390 . S
C2171 C2172 1.387 . S
C2171 H2174 0.950 . S
C2172 C2171 1.387 . S
C2172 C2175 1.387 . S
H2173 C2169 0.950 . S
H2174 C2171 0.950 . S
C2175 C2166 1.390 . S
C2175 H2168 0.950 . S
C2175 C2172 1.387 . S
C2176 C2177 1.387 1_556 S
C2176 H2180 0.950 . S
C2176 C2185 1.390 . S
C2177 C2176 1.387 1_554 S
C2177 C2179 1.387 . S
H2178 C2185 0.950 . S
C2179 C2177 1.387 . S
C2179 C2181 1.390 . S
C2179 H2183 0.950 . S
H2180 C2176 0.950 . S
C2181 C2179 1.390 . S
C2181 C2182 1.387 . S
C2181 H2184 0.950 . S
C2182 C2181 1.387 . S
C2182 C2185 1.387 1_554 S
H2183 C2179 0.950 . S
H2184 C2181 0.950 . S
C2185 C2176 1.390 . S
C2185 H2178 0.950 . S
C2185 C2182 1.387 1_556 S
C2186 C2187 1.387 . S
C2186 H2190 0.950 . S
C2186 C2195 1.390 . S
C2187 C2186 1.387 . S
C2187 C2189 1.387 . S
H2188 C2195 0.950 . S
C2189 C2187 1.387 . S
C2189 C2191 1.390 . S
C2189 H2193 0.950 . S
H2190 C2186 0.950 . S
C2191 C2189 1.390 . S
C2191 C2192 1.387 . S
C2191 H2194 0.950 . S
C2192 C2191 1.387 . S
C2192 C2195 1.387 . S
H2193 C2189 0.950 . S
H2194 C2191 0.950 . S
C2195 C2186 1.390 . S
C2195 H2188 0.950 . S
C2195 C2192 1.387 . S
C2196 C2197 1.387 . S
C2196 H2200 0.950 . S
C2196 C2205 1.390 . S
C2197 C2196 1.387 . S
C2197 C2199 1.387 1_556 S
H2198 C2205 0.950 . S
C2199 C2197 1.387 1_554 S
C2199 C2201 1.390 . S
C2199 H2203 0.950 . S
H2200 C2196 0.950 . S
C2201 C2199 1.390 . S
C2201 C2202 1.387 1_554 S
C2201 H2204 0.950 . S
C2202 C2201 1.387 1_556 S
C2202 C2205 1.387 . S
H2203 C2199 0.950 . S
H2204 C2201 0.950 . S
C2205 C2196 1.390 . S
C2205 H2198 0.950 . S
C2205 C2202 1.387 . S
C2206 C2207 1.387 . S
C2206 H2210 0.950 . S
C2206 C2215 1.390 . S
C2207 C2206 1.387 . S
C2207 C2209 1.387 . S
H2208 C2215 0.950 . S
C2209 C2207 1.387 . S
C2209 C2211 1.390 . S
C2209 H2213 0.950 . S
H2210 C2206 0.950 . S
C2211 C2209 1.390 . S
C2211 C2212 1.387 . S
C2211 H2214 0.950 . S
C2212 C2211 1.387 . S
C2212 C2215 1.387 . S
H2213 C2209 0.950 . S
H2214 C2211 0.950 . S
C2215 C2206 1.390 . S
C2215 H2208 0.950 . S
C2215 C2212 1.387 . S
C2216 C2217 1.387 . S
C2216 H2220 0.950 . S
C2216 C2225 1.390 . S
C2217 C2216 1.387 . S
C2217 C2219 1.387 . S
H2218 C2225 0.950 . S
C2219 C2217 1.387 . S
C2219 C2221 1.390 . S
C2219 H2223 0.950 . S
H2220 C2216 0.950 . S
C2221 C2219 1.390 . S
C2221 C2222 1.387 . S
C2221 H2224 0.950 . S
C2222 C2221 1.387 . S
C2222 C2225 1.387 . S
H2223 C2219 0.950 . S
H2224 C2221 0.950 . S
C2225 C2216 1.390 . S
C2225 H2218 0.950 . S
C2225 C2222 1.387 . S
C2226 C2227 1.387 . S
C2226 H2230 0.950 . S
C2226 C2235 1.390 . S
C2227 C2226 1.387 . S
C2227 C2229 1.387 . S
H2228 C2235 0.950 . S
C2229 C2227 1.387 . S
C2229 C2231 1.390 . S
C2229 H2233 0.950 . S
H2230 C2226 0.950 . S
C2231 C2229 1.390 . S
C2231 C2232 1.387 . S
C2231 H2234 0.950 . S
C2232 C2231 1.387 . S
C2232 C2235 1.387 . S
H2233 C2229 0.950 . S
H2234 C2231 0.950 . S
C2235 C2226 1.390 . S
C2235 H2228 0.950 . S
C2235 C2232 1.387 . S
C2236 C2237 1.387 . S
C2236 H2240 0.950 . S
C2236 C2245 1.390 . S
C2237 C2236 1.387 . S
C2237 C2239 1.387 . S
H2238 C2245 0.950 . S
C2239 C2237 1.387 . S
C2239 C2241 1.390 . S
C2239 H2243 0.950 . S
H2240 C2236 0.950 . S
C2241 C2239 1.390 . S
C2241 C2242 1.387 . S
C2241 H2244 0.950 . S
C2242 C2241 1.387 . S
C2242 C2245 1.387 . S
H2243 C2239 0.950 . S
H2244 C2241 0.950 . S
C2245 C2236 1.390 . S
C2245 H2238 0.950 . S
C2245 C2242 1.387 . S
C2246 C2247 1.387 . S
C2246 H2250 0.950 . S
C2246 C2255 1.390 . S
C2247 C2246 1.387 . S
C2247 C2249 1.387 . S
H2248 C2255 0.950 . S
C2249 C2247 1.387 . S
C2249 C2251 1.390 . S
C2249 H2253 0.950 . S
H2250 C2246 0.950 . S
C2251 C2249 1.390 . S
C2251 C2252 1.387 . S
C2251 H2254 0.950 . S
C2252 C2251 1.387 . S
C2252 C2255 1.387 . S
H2253 C2249 0.950 . S
H2254 C2251 0.950 . S
C2255 C2246 1.390 . S
C2255 H2248 0.950 . S
C2255 C2252 1.387 . S
C2256 C2257 1.387 . S
C2256 H2260 0.950 . S
C2256 C2265 1.390 . S
C2257 C2256 1.387 . S
C2257 C2259 1.387 . S
H2258 C2265 0.950 . S
C2259 C2257 1.387 . S
C2259 C2261 1.390 . S
C2259 H2263 0.950 . S
H2260 C2256 0.950 . S
C2261 C2259 1.390 . S
C2261 C2262 1.387 . S
C2261 H2264 0.950 . S
C2262 C2261 1.387 . S
C2262 C2265 1.387 . S
H2263 C2259 0.950 . S
H2264 C2261 0.950 . S
C2265 C2256 1.390 . S
C2265 H2258 0.950 . S
C2265 C2262 1.387 . S
C2266 C2267 1.387 . S
C2266 H2270 0.950 . S
C2266 C2275 1.390 . S
C2267 C2266 1.387 . S
C2267 C2269 1.387 . S
H2268 C2275 0.950 . S
C2269 C2267 1.387 . S
C2269 C2271 1.390 . S
C2269 H2273 0.950 . S
H2270 C2266 0.950 . S
C2271 C2269 1.390 . S
C2271 C2272 1.387 . S
C2271 H2274 0.950 . S
C2272 C2271 1.387 . S
C2272 C2275 1.387 . S
H2273 C2269 0.950 . S
H2274 C2271 0.950 . S
C2275 C2266 1.390 . S
C2275 H2268 0.950 . S
C2275 C2272 1.387 . S
C2276 C2277 1.387 . S
C2276 H2280 0.950 . S
C2276 C2285 1.390 . S
C2277 C2276 1.387 . S
C2277 C2279 1.387 . S
H2278 C2285 0.950 . S
C2279 C2277 1.387 . S
C2279 C2281 1.390 . S
C2279 H2283 0.950 . S
H2280 C2276 0.950 . S
C2281 C2279 1.390 . S
C2281 C2282 1.387 . S
C2281 H2284 0.950 . S
C2282 C2281 1.387 . S
C2282 C2285 1.387 . S
H2283 C2279 0.950 . S
H2284 C2281 0.950 . S
C2285 C2276 1.390 . S
C2285 H2278 0.950 . S
C2285 C2282 1.387 . S
C2286 C2287 1.387 . S
C2286 H2290 0.950 . S
C2286 C2295 1.390 . S
C2287 C2286 1.387 . S
C2287 C2289 1.387 . S
H2288 C2295 0.950 . S
C2289 C2287 1.387 . S
C2289 C2291 1.390 . S
C2289 H2293 0.950 . S
H2290 C2286 0.950 . S
C2291 C2289 1.390 . S
C2291 C2292 1.387 . S
C2291 H2294 0.950 . S
C2292 C2291 1.387 . S
C2292 C2295 1.387 . S
H2293 C2289 0.950 . S
H2294 C2291 0.950 . S
C2295 C2286 1.390 . S
C2295 H2288 0.950 . S
C2295 C2292 1.387 . S
C2296 C2297 1.387 1_556 S
C2296 H2300 0.950 . S
C2296 C2305 1.390 . S
C2297 C2296 1.387 1_554 S
C2297 C2299 1.387 . S
H2298 C2305 0.950 . S
C2299 C2297 1.387 . S
C2299 C2301 1.390 . S
C2299 H2303 0.950 . S
H2300 C2296 0.950 . S
C2301 C2299 1.390 . S
C2301 C2302 1.387 . S
C2301 H2304 0.950 . S
C2302 C2301 1.387 . S
C2302 C2305 1.387 1_554 S
H2303 C2299 0.950 . S
H2304 C2301 0.950 . S
C2305 C2296 1.390 . S
C2305 H2298 0.950 . S
C2305 C2302 1.387 1_556 S
C2306 C2307 1.387 . S
C2306 H2310 0.950 . S
C2306 C2315 1.390 . S
C2307 C2306 1.387 . S
C2307 C2309 1.387 . S
H2308 C2315 0.950 . S
C2309 C2307 1.387 . S
C2309 C2311 1.390 . S
C2309 H2313 0.950 . S
H2310 C2306 0.950 . S
C2311 C2309 1.390 . S
C2311 C2312 1.387 . S
C2311 H2314 0.950 . S
C2312 C2311 1.387 . S
C2312 C2315 1.387 . S
H2313 C2309 0.950 . S
H2314 C2311 0.950 . S
C2315 C2306 1.390 . S
C2315 H2308 0.950 . S
C2315 C2312 1.387 . S
C2316 C2317 1.387 . S
C2316 H2320 0.950 . S
C2316 C2325 1.390 . S
C2317 C2316 1.387 . S
C2317 C2319 1.387 1_556 S
H2318 C2325 0.950 . S
C2319 C2317 1.387 1_554 S
C2319 C2321 1.390 . S
C2319 H2323 0.950 . S
H2320 C2316 0.950 . S
C2321 C2319 1.390 . S
C2321 C2322 1.387 1_554 S
C2321 H2324 0.950 . S
C2322 C2321 1.387 1_556 S
C2322 C2325 1.387 . S
H2323 C2319 0.950 . S
H2324 C2321 0.950 . S
C2325 C2316 1.390 . S
C2325 H2318 0.950 . S
C2325 C2322 1.387 . S
C2326 C2327 1.387 . S
C2326 H2330 0.950 . S
C2326 C2335 1.390 . S
C2327 C2326 1.387 . S
C2327 C2329 1.387 . S
H2328 C2335 0.950 . S
C2329 C2327 1.387 . S
C2329 C2331 1.390 . S
C2329 H2333 0.950 . S
H2330 C2326 0.950 . S
C2331 C2329 1.390 . S
C2331 C2332 1.387 . S
C2331 H2334 0.950 . S
C2332 C2331 1.387 . S
C2332 C2335 1.387 . S
H2333 C2329 0.950 . S
H2334 C2331 0.950 . S
C2335 C2326 1.390 . S
C2335 H2328 0.950 . S
C2335 C2332 1.387 . S
C1697 C38 1.615 . S
C1702 C197 1.615 . S
C1707 C144 1.615 . S
C1712 C91 1.615 . S
C1717 C409 1.617 . S
C1722 C250 1.617 . S
C1727 C356 1.617 . S
C1732 C303 1.617 . S
C1737 C462 1.615 . S
C1742 C621 1.615 . S
C1747 C515 1.614 . S
C1752 C568 1.614 . S
C1757 C833 1.618 . S
C1762 C674 1.618 . S
C1767 C780 1.618 . S
C1772 C727 1.618 . S
C1777 C886 1.615 . S
C1782 C1045 1.615 . S
C1787 C939 1.615 . S
C1792 C992 1.615 . S
C1797 C1098 1.618 . S
C1802 C1257 1.618 . S
C1807 C1151 1.618 . S
C1812 C1204 1.618 . S
C1817 C1310 1.614 . S
C1822 C1469 1.614 . S
C1827 C1416 1.614 . S
C1832 C1363 1.614 . S
C1837 C1681 1.618 . S
C1842 C1522 1.618 . S
C1847 C1628 1.617 . S
C1852 C1575 1.617 . S
C1857 C22 1.732 . S
C1862 C234 1.725 . S
C1867 C1559 1.723 . S
C1872 C75 1.730 . S
C1877 C128 1.732 . S
C1882 C764 1.725 . S
C1887 C1241 1.723 . S
C1892 C181 1.730 . S
C1897 C1347 1.730 . S
C1902 C287 1.723 . S
C1907 C340 1.722 . S
C1912 C552 1.729 . S
C1917 C393 1.725 . S
C1922 C1029 1.732 . S
C1927 C658 1.725 . S
C1932 C446 1.732 . S
C1937 C1135 1.725 . S
C1942 C499 1.732 . S
C1947 C605 1.731 . S
C1952 C1665 1.724 . S
C1957 C711 1.723 . S
C1962 C923 1.730 . S
C1967 C817 1.722 . S
C1972 C1453 1.729 . S
C1977 C1082 1.723 . S
C1982 C870 1.730 . S
C1987 C976 1.731 . S
C1992 C1612 1.724 . S
C1997 C1188 1.722 . S
C2002 C1400 1.729 . S
C2007 C1506 1.723 . S
C2012 C1294 1.730 . S
C2017 C39 1.470 . S
C2022 C1046 1.470 . S
C2027 C92 1.470 . S
C2032 C993 1.470 . S
C2037 C940 1.469 . S
C2042 C145 1.469 . S
C2047 C887 1.468 . S
C2052 C198 1.468 . S
C2057 C251 1.466 . S
C2062 C1258 1.466 . S
C2067 C304 1.465 . S
C2072 C1205 1.465 . S
C2077 C357 1.466 . S
C2082 C1152 1.466 . S
C2087 C1099 1.466 . S
C2092 C410 1.466 . S
C2097 C463 1.468 . S
C2102 C1470 1.468 . S
C2107 C1417 1.468 . S
C2112 C516 1.468 . S
C2117 C1364 1.470 . S
C2122 C569 1.470 . S
C2127 C622 1.470 . S
C2132 C1311 1.470 . S
C2137 C675 1.464 . S
C2142 C1682 1.464 . S
C2147 C728 1.464 . S
C2152 C1629 1.464 . S
C2157 C1576 1.466 . S
C2162 C781 1.466 . S
C2167 C834 1.465 . S
C2172 C1523 1.465 . S
C2177 C82 1.712 . S
C2182 C29 1.712 . S
C2187 C135 1.712 . S
C2192 C188 1.712 . S
C2197 C294 1.719 . S
C2202 C241 1.719 . S
C2207 C347 1.719 . S
C2212 C400 1.719 . S
C2217 C506 1.712 . S
C2222 C453 1.712 . S
C2227 C559 1.714 . S
C2232 C612 1.714 . S
C2237 C665 1.722 . S
C2242 C718 1.722 . S
C2247 C771 1.721 . S
C2252 C824 1.721 . S
C2257 C877 1.715 . S
C2262 C930 1.715 . S
C2267 C1036 1.712 . S
C2272 C983 1.712 . S
C2277 C1089 1.722 . S
C2282 C1142 1.722 . S
C2287 C1248 1.722 . S
C2292 C1195 1.722 . S
C2297 C1354 1.712 . S
C2302 C1301 1.712 . S
C2307 C1407 1.714 . S
C2312 C1460 1.714 . S
C2317 C1513 1.719 . S
C2322 C1566 1.719 . S
C2327 C1672 1.721 . S
C2332 C1619 1.721 . S
