# Generated by pormake.
# Topology ske, (6)-cn, num edge types: 1
# Building blocks:
#     Node 0, Type 0, BuildingBlock: CUWYAW_clean_sbu_0, # of connection points: 6
#     Node 1, Type 0, BuildingBlock: CUWYAW_clean_sbu_0, # of connection points: 6
#     Node 2, Type 0, BuildingBlock: CUWYAW_clean_sbu_0, # of connection points: 6
#     Node 3, Type 0, BuildingBlock: CUWYAW_clean_sbu_0, # of connection points: 6
#     Node 4, Type 0, BuildingBlock: CUWYAW_clean_sbu_0, # of connection points: 6
#     Node 5, Type 0, BuildingBlock: CUWYAW_clean_sbu_0, # of connection points: 6
#     Node 6, Type 0, BuildingBlock: CUWYAW_clean_sbu_0, # of connection points: 6
#     Node 7, Type 0, BuildingBlock: CUWYAW_clean_sbu_0, # of connection points: 6
#     Edge 8, Type (0, 0), BuildingBlock: XIVTED_clean_linker_0, # of connection points: 2
#     Edge 9, Type (0, 0), BuildingBlock: XIVTED_clean_linker_0, # of connection points: 2
#     Edge 10, Type (0, 0), BuildingBlock: XIVTED_clean_linker_0, # of connection points: 2
#     Edge 11, Type (0, 0), BuildingBlock: XIVTED_clean_linker_0, # of connection points: 2
#     Edge 12, Type (0, 0), BuildingBlock: XIVTED_clean_linker_0, # of connection points: 2
#     Edge 13, Type (0, 0), BuildingBlock: XIVTED_clean_linker_0, # of connection points: 2
#     Edge 14, Type (0, 0), BuildingBlock: XIVTED_clean_linker_0, # of connection points: 2
#     Edge 15, Type (0, 0), BuildingBlock: XIVTED_clean_linker_0, # of connection points: 2
#     Edge 16, Type (0, 0), BuildingBlock: XIVTED_clean_linker_0, # of connection points: 2
#     Edge 17, Type (0, 0), BuildingBlock: XIVTED_clean_linker_0, # of connection points: 2
#     Edge 18, Type (0, 0), BuildingBlock: XIVTED_clean_linker_0, # of connection points: 2
#     Edge 19, Type (0, 0), BuildingBlock: XIVTED_clean_linker_0, # of connection points: 2
#     Edge 20, Type (0, 0), BuildingBlock: XIVTED_clean_linker_0, # of connection points: 2
#     Edge 21, Type (0, 0), BuildingBlock: XIVTED_clean_linker_0, # of connection points: 2
#     Edge 22, Type (0, 0), BuildingBlock: XIVTED_clean_linker_0, # of connection points: 2
#     Edge 23, Type (0, 0), BuildingBlock: XIVTED_clean_linker_0, # of connection points: 2
#     Edge 24, Type (0, 0), BuildingBlock: XIVTED_clean_linker_0, # of connection points: 2
#     Edge 25, Type (0, 0), BuildingBlock: XIVTED_clean_linker_0, # of connection points: 2
#     Edge 26, Type (0, 0), BuildingBlock: XIVTED_clean_linker_0, # of connection points: 2
#     Edge 27, Type (0, 0), BuildingBlock: XIVTED_clean_linker_0, # of connection points: 2
#     Edge 28, Type (0, 0), BuildingBlock: XIVTED_clean_linker_0, # of connection points: 2
#     Edge 29, Type (0, 0), BuildingBlock: XIVTED_clean_linker_0, # of connection points: 2
#     Edge 30, Type (0, 0), BuildingBlock: XIVTED_clean_linker_0, # of connection points: 2
#     Edge 31, Type (0, 0), BuildingBlock: XIVTED_clean_linker_0, # of connection points: 2
# Relax obj value: 0.182
# Max RMSD: 0.194
# Mean RMSD: 0.187
data_MOF--net-ske--node1-CUWYAW_clean_sbu_0--edge1-XIVTED_clean_linker_0
_symmetry_space_group_name_H-M    P1
_symmetry_Int_Tables_number       1
_symmetry_cell_setting            triclinic
loop_
_symmetry_equiv_pos_as_xyz
'x, y, z'
_cell_length_a     103.19363
_cell_length_b     29.158572
_cell_length_c     15.709782
_cell_angle_alpha  89.876313
_cell_angle_beta   89.990368
_cell_angle_gamma 98.153924
loop_
_atom_site_label
_atom_site_type_symbol
_atom_site_fract_x
_atom_site_fract_y
_atom_site_fract_z
_atom_type_partial_charge
C0 C 0.18356 0.23261 0.52069 0.0
Eu1 Eu 0.1599 0.25393 0.50745 0.0
C2 C 0.1959 0.23863 0.56999 0.0
C3 C 0.20345 0.28231 0.58078 0.0
C4 C 0.21592 0.28607 0.61762 0.0
C5 C 0.22112 0.24624 0.64408 0.0
C6 C 0.21332 0.20282 0.63594 0.0
C7 C 0.20088 0.1991 0.59916 0.0
C8 C 0.15292 0.34015 0.49529 0.0
C9 C 0.14515 0.25798 0.69228 0.0
C10 C 0.10617 0.26195 0.4947 0.0
Eu11 Eu 0.13075 0.25398 0.51312 0.0
C12 C 0.0921 0.26537 0.48364 0.0
C13 C 0.08337 0.2264 0.45827 0.0
C14 C 0.07003 0.22897 0.44914 0.0
C15 C 0.06506 0.27065 0.46491 0.0
C16 C 0.07383 0.30977 0.48989 0.0
C17 C 0.08721 0.30714 0.4992 0.0
C18 C 0.13874 0.16973 0.5304 0.0
C19 C 0.14544 0.25573 0.3319 0.0
O20 O 0.17327 0.20776 0.55451 0.0
O21 O 0.18064 0.26787 0.47658 0.0
O22 O 0.16321 0.32793 0.45935 0.0
O23 O 0.14749 0.30792 0.54231 0.0
O24 O 0.15573 0.25007 0.64996 0.0
O25 O 0.13434 0.26535 0.65279 0.0
O26 O 0.11463 0.29535 0.52596 0.0
O27 O 0.1111 0.22476 0.47323 0.0
O28 O 0.1296 0.18354 0.57617 0.0
O29 O 0.14317 0.20051 0.47745 0.0
O30 O 0.13621 0.27224 0.37573 0.0
O31 O 0.15476 0.23743 0.37116 0.0
H32 H 0.1999 0.31344 0.5585 0.0
H33 H 0.22168 0.32002 0.6223 0.0
H34 H 0.21689 0.17152 0.65698 0.0
H35 H 0.19528 0.16502 0.59122 0.0
H36 H 0.08683 0.19362 0.44627 0.0
H37 H 0.06356 0.19794 0.43128 0.0
H38 H 0.07038 0.34257 0.50162 0.0
H39 H 0.09371 0.3378 0.51858 0.0
C40 C 0.85096 0.27995 0.53131 0.0
Eu41 Eu 0.87456 0.25764 0.52182 0.0
C42 C 0.83861 0.2741 0.58042 0.0
C43 C 0.83136 0.2302 0.59482 0.0
C44 C 0.81888 0.22615 0.63159 0.0
C45 C 0.81338 0.26589 0.65457 0.0
C46 C 0.82088 0.30965 0.64278 0.0
C47 C 0.83333 0.31365 0.60596 0.0
C48 C 0.88034 0.16953 0.51028 0.0
C49 C 0.88773 0.24689 0.70717 0.0
C50 C 0.92669 0.22831 0.52674 0.0
Eu51 Eu 0.90305 0.25039 0.53282 0.0
C52 C 0.94012 0.23999 0.49339 0.0
C53 C 0.94681 0.28542 0.49652 0.0
C54 C 0.96026 0.29406 0.47941 0.0
C55 C 0.96725 0.25748 0.45884 0.0
C56 C 0.96034 0.21248 0.45136 0.0
C57 C 0.94692 0.20388 0.46861 0.0
C58 C 0.89736 0.33892 0.54058 0.0
C59 C 0.88962 0.25877 0.34687 0.0
O60 O 0.86123 0.30496 0.56481 0.0
O61 O 0.85391 0.24425 0.48905 0.0
O62 O 0.87124 0.18489 0.46648 0.0
O63 O 0.88549 0.20008 0.56102 0.0
O64 O 0.87855 0.2646 0.6646 0.0
O65 O 0.89704 0.22942 0.66628 0.0
O66 O 0.91736 0.21093 0.47479 0.0
O67 O 0.92278 0.25636 0.58291 0.0
O68 O 0.90662 0.32423 0.58371 0.0
O69 O 0.89217 0.30759 0.49172 0.0
O70 O 0.89893 0.24199 0.3901 0.0
O71 O 0.88018 0.27599 0.38687 0.0
H72 H 0.83514 0.19902 0.57545 0.0
H73 H 0.81336 0.19193 0.63904 0.0
H74 H 0.81707 0.34094 0.6611 0.0
H75 H 0.8387 0.34789 0.59523 0.0
H76 H 0.94178 0.31395 0.51538 0.0
H77 H 0.96524 0.32923 0.48439 0.0
H78 H 0.9654 0.1834 0.43658 0.0
H79 H 0.94198 0.16853 0.46657 0.0
C80 C 0.10708 0.78507 0.50794 0.0
Eu81 Eu 0.1303 0.75918 0.50034 0.0
C82 C 0.0935 0.7744 0.54055 0.0
C83 C 0.08488 0.73643 0.50943 0.0
C84 C 0.07152 0.73141 0.52903 0.0
C85 C 0.06643 0.76422 0.58019 0.0
C86 C 0.07519 0.80095 0.61451 0.0
C87 C 0.08854 0.80605 0.59462 0.0
C88 C 0.13522 0.66974 0.4966 0.0
C89 C 0.14403 0.75134 0.68506 0.0
C90 C 0.18241 0.72459 0.49946 0.0
Eu91 Eu 0.15909 0.74919 0.5099 0.0
C92 C 0.19495 0.7322 0.45236 0.0
C93 C 0.20259 0.77609 0.44776 0.0
C94 C 0.21512 0.78117 0.41156 0.0
C95 C 0.22026 0.74254 0.37914 0.0
C96 C 0.21241 0.69897 0.38155 0.0
C97 C 0.19992 0.6939 0.41796 0.0
C98 C 0.15388 0.83797 0.51847 0.0
C99 C 0.14562 0.75868 0.32497 0.0
O100 O 0.11651 0.7998 0.56118 0.0
O101 O 0.11075 0.7582 0.4488 0.0
O102 O 0.1253 0.68379 0.45953 0.0
O103 O 0.14113 0.70183 0.54099 0.0
O104 O 0.13492 0.76914 0.64169 0.0
O105 O 0.15321 0.7323 0.64545 0.0
O106 O 0.17217 0.70267 0.46037 0.0
O107 O 0.17954 0.75807 0.54809 0.0
O108 O 0.16324 0.82279 0.56001 0.0
O109 O 0.14835 0.80698 0.46994 0.0
O110 O 0.15485 0.7415 0.36795 0.0
O111 O 0.13626 0.77648 0.36493 0.0
H112 H 0.08833 0.71154 0.46699 0.0
H113 H 0.0651 0.70296 0.50059 0.0
H114 H 0.07169 0.82643 0.65535 0.0
H115 H 0.09493 0.83582 0.61902 0.0
H116 H 0.19903 0.80633 0.47374 0.0
H117 H 0.22083 0.81533 0.40963 0.0
H118 H 0.2161 0.66839 0.35816 0.0
H119 H 0.19428 0.65964 0.42152 0.0
C120 C 0.92798 0.7313 0.50687 0.0
Eu121 Eu 0.90417 0.75213 0.50014 0.0
C122 C 0.94146 0.74208 0.54117 0.0
C123 C 0.95009 0.78034 0.51096 0.0
C124 C 0.96343 0.7853 0.53099 0.0
C125 C 0.96849 0.75211 0.58161 0.0
C126 C 0.95972 0.7151 0.61518 0.0
C127 C 0.94638 0.71007 0.59488 0.0
C128 C 0.89817 0.84021 0.49045 0.0
C129 C 0.89074 0.76077 0.68609 0.0
C130 C 0.85181 0.77876 0.50114 0.0
Eu131 Eu 0.87562 0.75826 0.51123 0.0
C132 C 0.83943 0.77211 0.45175 0.0
C133 C 0.83015 0.73233 0.46336 0.0
C134 C 0.81773 0.72924 0.4262 0.0
C135 C 0.81425 0.76593 0.37688 0.0
C136 C 0.82369 0.80506 0.36309 0.0
C137 C 0.8361 0.80816 0.40032 0.0
C138 C 0.88172 0.67067 0.52546 0.0
C139 C 0.88882 0.7476 0.32593 0.0
O140 O 0.91855 0.7125 0.55701 0.0
O141 O 0.92407 0.76005 0.4518 0.0
O142 O 0.90744 0.82568 0.44724 0.0
O143 O 0.89307 0.80898 0.54009 0.0
O144 O 0.90013 0.7444 0.6431 0.0
O145 O 0.88119 0.77734 0.64586 0.0
O146 O 0.86201 0.80454 0.46819 0.0
O147 O 0.85496 0.7434 0.54375 0.0
O148 O 0.87264 0.68612 0.56922 0.0
O149 O 0.88671 0.70091 0.47327 0.0
O150 O 0.87957 0.76494 0.36835 0.0
O151 O 0.89823 0.73073 0.36691 0.0
H152 H 0.94668 0.80544 0.46863 0.0
H153 H 0.96986 0.81397 0.5031 0.0
H154 H 0.9632 0.6893 0.65555 0.0
H155 H 0.94 0.68 0.61848 0.0
H156 H 0.83229 0.70414 0.50357 0.0
H157 H 0.81069 0.69883 0.43912 0.0
H158 H 0.82142 0.83368 0.32446 0.0
H159 H 0.84297 0.83947 0.39087 0.0
C160 C 0.68417 0.73521 0.03693 0.0
Eu161 Eu 0.66041 0.75552 0.02268 0.0
C162 C 0.69645 0.74258 0.08739 0.0
C163 C 0.70577 0.78213 0.07485 0.0
C164 C 0.71812 0.78558 0.11322 0.0
C165 C 0.72147 0.74947 0.16463 0.0
C166 C 0.71196 0.71067 0.17944 0.0
C167 C 0.69963 0.70721 0.14107 0.0
C168 C 0.65345 0.84163 1.00802 0.0
C169 C 0.64574 0.75953 0.20762 0.0
C170 C 0.60673 0.76287 1.01124 0.0
Eu171 Eu 0.63136 0.75513 0.02855 0.0
C172 C 0.59265 0.76626 1.00075 0.0
C173 C 0.58402 0.728 0.97128 0.0
C174 C 0.57064 0.7304 0.9633 0.0
C175 C 0.56555 0.77119 0.98443 0.0
C176 C 0.57423 0.80961 1.0135 0.0
C177 C 0.58763 0.80716 0.02158 0.0
C178 C 0.63942 0.67073 0.04475 0.0
C179 C 0.64594 0.75684 0.84723 0.0
O180 O 0.6739 0.71015 0.07056 0.0
O181 O 0.68114 0.76975 0.99132 0.0
O182 O 0.6637 0.8289 0.97255 0.0
O183 O 0.64799 0.80994 0.05631 0.0
O184 O 0.65633 0.752 0.16524 0.0
O185 O 0.63489 0.76635 0.1682 0.0
O186 O 0.61514 0.79581 0.04437 0.0
O187 O 0.61175 0.72631 0.98695 0.0
O188 O 0.6303 0.68438 0.091 0.0
O189 O 0.64379 0.70178 0.99227 0.0
O190 O 0.63673 0.77347 0.89108 0.0
O191 O 0.65525 0.73847 0.88659 0.0
H192 H 0.70373 0.80979 0.03301 0.0
H193 H 0.72522 0.81574 0.09957 0.0
H194 H 0.71413 0.68252 0.21967 0.0
H195 H 0.69272 0.67609 0.15135 0.0
H196 H 0.58756 0.69587 0.95523 0.0
H197 H 0.56425 0.69988 0.94212 0.0
H198 H 0.57068 0.84174 0.02942 0.0
H199 H 0.59406 0.83725 0.04431 0.0
C200 C 0.35116 0.78416 0.05109 0.0
Eu201 Eu 0.37431 0.75858 0.037 0.0
C202 C 0.33874 0.77678 0.09943 0.0
C203 C 0.33114 0.73289 0.10557 0.0
C204 C 0.31868 0.728 0.14272 0.0
C205 C 0.31357 0.76683 0.17458 0.0
C206 C 0.32141 0.8104 0.17089 0.0
C207 C 0.33383 0.81528 0.13353 0.0
C208 C 0.37971 0.66975 0.02905 0.0
C209 C 0.38858 0.7506 0.2189 0.0
C210 C 0.42666 0.72638 0.03112 0.0
Eu211 Eu 0.40333 0.75095 0.04056 0.0
C212 C 0.44033 0.73925 1.00303 0.0
C213 C 0.44711 0.78401 0.01579 0.0
C214 C 0.46065 0.79303 1.00237 0.0
C215 C 0.46766 0.75751 0.97591 0.0
C216 C 0.4607 0.71336 0.95932 0.0
C217 C 0.44719 0.70438 0.97288 0.0
C218 C 0.39786 0.84016 0.04261 0.0
C219 C 0.38864 0.75477 0.85895 0.0
O220 O 0.36156 0.80535 0.08964 0.0
O221 O 0.35378 0.75085 1.00105 0.0
O222 O 0.3695 0.68358 0.99506 0.0
O223 O 0.38575 0.70175 0.07364 0.0
O224 O 0.37907 0.76707 0.17776 0.0
O225 O 0.39793 0.73368 0.17717 0.0
O226 O 0.41761 0.71485 0.97373 0.0
O227 O 0.42265 0.74996 0.09408 0.0
O228 O 0.4081 0.82716 0.07755 0.0
O229 O 0.39192 0.80697 1.00081 0.0
O230 O 0.39804 0.738 0.90111 0.0
O231 O 0.3795 0.77349 0.89962 0.0
H232 H 0.33467 0.7025 0.07995 0.0
H233 H 0.31299 0.69385 0.14568 0.0
H234 H 0.31775 0.84112 0.1939 0.0
H235 H 0.33945 0.84953 0.12888 0.0
H236 H 0.44203 0.81155 0.03904 0.0
H237 H 0.46567 0.82759 0.01447 0.0
H238 H 0.46576 0.68504 0.93987 0.0
H239 H 0.44217 0.66951 0.96346 0.0
C240 C 0.6076 0.28707 0.99653 0.0
Eu241 Eu 0.63078 0.26078 0.98871 0.0
C242 C 0.59363 0.27373 0.0193 0.0
C243 C 0.58556 0.23965 0.97298 0.0
C244 C 0.57198 0.23345 0.98425 0.0
C245 C 0.56614 0.26106 0.04215 0.0
C246 C 0.57428 0.29337 0.09174 0.0
C247 C 0.58787 0.29979 0.08007 0.0
C248 C 0.63542 0.17089 0.98546 0.0
C249 C 0.64463 0.25407 0.17288 0.0
C250 C 0.68267 0.22454 0.98764 0.0
Eu251 Eu 0.65946 0.25008 0.99803 0.0
C252 C 0.69507 0.23084 0.93917 0.0
C253 C 0.70227 0.27489 0.92537 0.0
C254 C 0.71474 0.27927 0.88828 0.0
C255 C 0.72026 0.23973 0.86437 0.0
C256 C 0.71279 0.19585 0.87549 0.0
C257 C 0.70036 0.19151 0.91263 0.0
C258 C 0.65446 0.33906 1.00918 0.0
C259 C 0.64615 0.26095 0.81317 0.0
O260 O 0.61627 0.29501 0.05742 0.0
O261 O 0.61204 0.26698 0.93056 0.0
O262 O 0.62551 0.18524 0.94876 0.0
O263 O 0.64143 0.20299 0.02932 0.0
O264 O 0.6358 0.27311 0.1291 0.0
O265 O 0.65352 0.23347 0.13348 0.0
O266 O 0.6723 0.20211 0.95075 0.0
O267 O 0.68 0.25918 0.0341 0.0
O268 O 0.66376 0.32322 0.05023 0.0
O269 O 0.64887 0.30863 0.95968 0.0
O270 O 0.65534 0.24341 0.85589 0.0
O271 O 0.63679 0.27856 0.85343 0.0
H272 H 0.58966 0.21896 0.92552 0.0
H273 H 0.566 0.20778 0.94599 0.0
H274 H 0.57009 0.31542 0.13644 0.0
H275 H 0.59383 0.32665 0.11591 0.0
H276 H 0.69845 0.30588 0.94534 0.0
H277 H 0.72023 0.31357 0.88126 0.0
H278 H 0.71661 0.16472 0.85639 0.0
H279 H 0.695 0.15719 0.92267 0.0
C280 C 0.42676 0.22586 1.00235 0.0
Eu281 Eu 0.40344 0.25087 0.99311 0.0
C282 C 0.44071 0.23951 0.02468 0.0
C283 C 0.44841 0.27672 0.98357 0.0
C284 C 0.46203 0.28362 0.99331 0.0
C285 C 0.46824 0.25358 0.04444 0.0
C286 C 0.46045 0.21798 0.08921 0.0
C287 C 0.44683 0.21093 0.07908 0.0
C288 C 0.39814 0.34024 0.99228 0.0
C289 C 0.38885 0.25313 0.17524 0.0
C290 C 0.35131 0.28533 0.98638 0.0
Eu291 Eu 0.3744 0.25899 0.99853 0.0
C292 C 0.33891 0.2798 0.93785 0.0
C293 C 0.33139 0.23621 0.92555 0.0
C294 C 0.31895 0.23277 0.88833 0.0
C295 C 0.31377 0.27282 0.86284 0.0
C296 C 0.32156 0.31618 0.87257 0.0
C297 C 0.33396 0.31958 0.9098 0.0
C298 C 0.37976 0.17007 1.00641 0.0
C299 C 0.38839 0.25113 0.81552 0.0
O300 O 0.41811 0.21813 0.06348 0.0
O301 O 0.42228 0.24543 0.93575 0.0
O302 O 0.40837 0.32725 0.95715 0.0
O303 O 0.39212 0.30694 0.03378 0.0
O304 O 0.39802 0.23581 0.13191 0.0
O305 O 0.3798 0.27294 0.13571 0.0
O306 O 0.36177 0.30725 0.94943 0.0
O307 O 0.3538 0.25057 0.03352 0.0
O308 O 0.36961 0.18393 0.04105 0.0
O309 O 0.38572 0.20213 0.96132 0.0
O310 O 0.37891 0.26726 0.85741 0.0
O311 O 0.39789 0.23449 0.85642 0.0
H312 H 0.44399 0.29942 0.94118 0.0
H313 H 0.46773 0.3118 0.95899 0.0
H314 H 0.46492 0.19402 0.12857 0.0
H315 H 0.44114 0.18172 0.11076 0.0
H316 H 0.33494 0.2049 0.94675 0.0
H317 H 0.3132 0.19885 0.88243 0.0
H318 H 0.31801 0.34766 0.85226 0.0
H319 H 0.33956 0.35357 0.91872 0.0
H320 H 0.23932 0.18858 0.61062 0.0
H321 H 0.29554 0.33041 0.89639 0.0
H322 H 0.23423 0.31186 0.75098 0.0
H323 H 0.30077 0.20785 0.75418 0.0
H324 H 0.27316 0.32447 0.84301 0.0
H325 H 0.26175 0.19478 0.66329 0.0
C326 C 0.24287 0.21678 0.65313 0.0
C327 C 0.23479 0.24962 0.67668 0.0
C328 C 0.2792 0.29889 0.82331 0.0
C329 C 0.26065 0.25729 0.7364 0.0
C330 C 0.29204 0.30244 0.85331 0.0
C331 C 0.30014 0.26969 0.82955 0.0
C332 C 0.27432 0.26228 0.76903 0.0
C333 C 0.29489 0.23365 0.77498 0.0
C334 C 0.25574 0.22046 0.68271 0.0
C335 C 0.24009 0.28595 0.73046 0.0
N336 N 0.28234 0.23095 0.74659 0.0
N337 N 0.25265 0.28875 0.75854 0.0
H338 H 0.7328 0.30472 0.75347 0.0
H339 H 0.80083 0.20142 0.76616 0.0
H340 H 0.73901 0.18464 0.90084 0.0
H341 H 0.79464 0.32101 0.61726 0.0
H342 H 0.77819 0.19468 0.81592 0.0
H343 H 0.75544 0.31162 0.70346 0.0
C344 C 0.73891 0.27986 0.77552 0.0
C345 C 0.73393 0.24396 0.83138 0.0
C346 C 0.78179 0.22246 0.77248 0.0
C347 C 0.7599 0.2515 0.77383 0.0
C348 C 0.79472 0.22621 0.7437 0.0
C349 C 0.79971 0.26191 0.68746 0.0
C350 C 0.77373 0.25457 0.74482 0.0
C351 C 0.79133 0.29336 0.66158 0.0
C352 C 0.75184 0.2837 0.74661 0.0
C353 C 0.74232 0.21245 0.85681 0.0
N354 N 0.77878 0.28891 0.69032 0.0
N355 N 0.75486 0.21699 0.82799 0.0
H356 H 0.30441 0.80973 0.31352 0.0
H357 H 0.22947 0.70046 0.23957 0.0
H358 H 0.29154 0.71442 0.11077 0.0
H359 H 0.24229 0.79466 0.44408 0.0
H360 H 0.25213 0.70547 0.19114 0.0
H361 H 0.28174 0.80489 0.36217 0.0
C362 C 0.29682 0.78781 0.27914 0.0
C363 C 0.29992 0.76245 0.20784 0.0
C364 C 0.25 0.72513 0.24653 0.0
C365 C 0.27389 0.75662 0.26349 0.0
C366 C 0.23705 0.72216 0.27442 0.0
C367 C 0.23393 0.74712 0.34617 0.0
C368 C 0.25997 0.7532 0.2907 0.0
C369 C 0.24418 0.77524 0.38788 0.0
C370 C 0.28388 0.78495 0.30714 0.0
C371 C 0.28967 0.73412 0.16665 0.0
N372 N 0.25672 0.7774 0.35972 0.0
N373 N 0.27714 0.73209 0.19488 0.0
H374 H 0.73632 0.67865 0.17544 0.0
H375 H 0.79925 0.83651 0.36934 0.0
H376 H 0.73766 0.82422 0.23052 0.0
H377 H 0.79809 0.69156 0.30952 0.0
H378 H 0.77676 0.83274 0.31868 0.0
H379 H 0.75876 0.68245 0.22687 0.0
C380 C 0.74127 0.71136 0.19914 0.0
C381 C 0.73502 0.75116 0.19876 0.0
C382 C 0.78142 0.80176 0.31647 0.0
C383 C 0.76091 0.7559 0.25664 0.0
C384 C 0.79433 0.80395 0.34478 0.0
C385 C 0.80065 0.76431 0.34356 0.0
C386 C 0.77471 0.75959 0.28661 0.0
C387 C 0.79361 0.7229 0.31262 0.0
C388 C 0.75415 0.71357 0.2279 0.0
C389 C 0.74209 0.79274 0.2287 0.0
N390 N 0.78105 0.72165 0.28545 0.0
N391 N 0.75463 0.79401 0.25637 0.0
H392 H 0.14321 0.88569 0.39234 0.0
H393 H 0.13649 0.10871 0.66251 0.0
H394 H 0.1591 0.90062 0.64623 0.0
H395 H 0.14739 0.12154 0.39767 0.0
H396 H 0.14039 0.02747 0.65994 0.0
H397 H 0.14008 0.96786 0.39444 0.0
C398 C 0.14596 0.90623 0.44858 0.0
C399 C 0.15146 0.88665 0.51914 0.0
C400 C 0.14195 0.04822 0.60259 0.0
C401 C 0.1477 0.9797 0.52242 0.0
C402 C 0.13973 0.09436 0.60394 0.0
C403 C 0.14168 0.12167 0.53027 0.0
C404 C 0.14576 0.02897 0.52635 0.0
C405 C 0.14586 0.10158 0.45591 0.0
C406 C 0.14425 0.95297 0.44951 0.0
C407 C 0.15489 0.91464 0.59042 0.0
N408 N 0.1476 0.05615 0.45545 0.0
N409 N 0.15283 0.95969 0.59067 0.0
H410 H 0.88736 0.3843 0.40874 0.0
H411 H 0.87856 0.61146 0.66031 0.0
H412 H 0.90202 0.40428 0.66493 0.0
H413 H 0.89101 0.62011 0.3981 0.0
H414 H 0.88268 0.53046 0.6646 0.0
H415 H 0.88405 0.46622 0.40412 0.0
C416 C 0.88982 0.4059 0.46407 0.0
C417 C 0.89501 0.38773 0.53727 0.0
C418 C 0.88452 0.55021 0.60629 0.0
C419 C 0.89102 0.48065 0.53289 0.0
C420 C 0.88214 0.59621 0.60368 0.0
C421 C 0.88447 0.62233 0.52879 0.0
C422 C 0.88887 0.52985 0.53271 0.0
C423 C 0.88915 0.6011 0.45716 0.0
C424 C 0.888 0.45253 0.46118 0.0
C425 C 0.89806 0.41714 0.60719 0.0
N426 N 0.89104 0.55582 0.46048 0.0
N427 N 0.89588 0.46208 0.6037 0.0
H428 H 0.90202 0.90415 0.36255 0.0
H429 H 0.8905 0.12115 0.63723 0.0
H430 H 0.88831 0.88631 0.62138 0.0
H431 H 0.87674 0.10854 0.37805 0.0
H432 H 0.89467 0.04016 0.63259 0.0
H433 H 0.89757 0.9849 0.36629 0.0
C434 C 0.89812 0.91734 0.42016 0.0
C435 C 0.8955 0.88869 0.49172 0.0
C436 C 0.89075 0.05527 0.57688 0.0
C437 C 0.89073 0.98077 0.497 0.0
C438 C 0.88842 0.10137 0.5793 0.0
C439 C 0.8832 0.12129 0.50802 0.0
C440 C 0.88822 0.02951 0.50183 0.0
C441 C 0.88068 0.09423 0.4345 0.0
C442 C 0.89556 0.96318 0.4221 0.0
C443 C 0.89041 0.9073 0.56477 0.0
N444 N 0.88335 0.04981 0.43291 0.0
N445 N 0.88834 0.95239 0.56596 0.0
H446 H 0.15747 0.63739 0.54949 0.0
H447 H 0.13022 0.37127 0.54414 0.0
H448 H 0.11887 0.59166 0.44983 0.0
H449 H 0.16917 0.419 0.45223 0.0
H450 H 0.12563 0.45175 0.54391 0.0
H451 H 0.16187 0.55675 0.54846 0.0
C452 C 0.14994 0.61041 0.52732 0.0
C453 C 0.13786 0.6212 0.4986 0.0
C454 C 0.13516 0.44438 0.52377 0.0
C455 C 0.14266 0.52915 0.50027 0.0
C456 C 0.13778 0.3986 0.52386 0.0
C457 C 0.15003 0.38842 0.49724 0.0
C458 C 0.14502 0.48026 0.49968 0.0
C459 C 0.15956 0.42531 0.47261 0.0
C460 C 0.15246 0.56455 0.52685 0.0
C461 C 0.12836 0.5848 0.47181 0.0
N462 N 0.15691 0.4697 0.47528 0.0
N463 N 0.13091 0.54026 0.47407 0.0
H464 H 0.63678 0.60686 0.17275 0.0
H465 H 0.64373 0.38915 0.88671 0.0
H466 H 0.64788 0.62457 0.90884 0.0
H467 H 0.65934 0.39889 0.14161 0.0
H468 H 0.64039 0.47102 0.89497 0.0
H469 H 0.64045 0.52543 0.16457 0.0
C470 C 0.63999 0.59355 0.1132 0.0
C471 C 0.64209 0.62232 0.04146 0.0
C472 C 0.64453 0.45505 0.94893 0.0
C473 C 0.64591 0.52943 0.03112 0.0
C474 C 0.64637 0.40847 0.94447 0.0
C475 C 0.65189 0.38754 1.01346 0.0
C476 C 0.64786 0.48023 0.02381 0.0
C477 C 0.65515 0.41399 0.08687 0.0
C478 C 0.64209 0.54728 0.10865 0.0
C479 C 0.64624 0.6035 0.96571 0.0
N480 N 0.65297 0.45888 0.09052 0.0
N481 N 0.64786 0.558 0.96214 0.0
H482 H 0.41478 0.919 0.07765 0.0
H483 H 0.36258 0.09247 0.04169 0.0
H484 H 0.37553 0.87266 0.98989 0.0
H485 H 0.40294 0.13687 0.97504 0.0
H486 H 0.36702 0.01205 0.04689 0.0
H487 H 0.41061 0.99967 0.06422 0.0
C488 C 0.40527 0.92579 0.05588 0.0
C489 C 0.39546 0.88904 0.03511 0.0
C490 C 0.37489 0.03938 0.03088 0.0
C491 C 0.3906 0.98112 0.02109 0.0
C492 C 0.37238 0.08527 0.02816 0.0
C493 C 0.38241 0.12136 1.00763 0.0
C494 C 0.3876 0.02951 0.01537 0.0
C495 C 0.39493 0.11001 0.99069 0.0
C496 C 0.40294 0.97178 0.04787 0.0
C497 C 0.38334 0.89989 1.00689 0.0
N498 N 0.39722 0.06512 0.99592 0.0
N499 N 0.3812 0.94488 1.00164 0.0
H500 H 0.4149 0.41928 0.95484 0.0
H501 H 0.36261 0.59205 0.99328 0.0
H502 H 0.37591 0.37254 0.04716 0.0
H503 H 0.40293 0.63672 0.06008 0.0
H504 H 0.36715 0.51175 0.98762 0.0
H505 H 0.41067 0.49988 0.96806 0.0
C506 C 0.40544 0.42595 0.97752 0.0
C507 C 0.39571 0.38911 0.99957 0.0
C508 C 0.37499 0.53913 1.0037 0.0
C509 C 0.39076 0.48108 1.01332 0.0
C510 C 0.37243 0.58495 1.0067 0.0
C511 C 0.38241 0.62108 0.0274 0.0
C512 C 0.38772 0.5294 0.01908 0.0
C513 C 0.39495 0.60985 0.04419 0.0
C514 C 0.40306 0.4719 0.98539 0.0
C515 C 0.38365 0.39983 0.02896 0.0
N516 N 0.3973 0.56504 0.03868 0.0
N517 N 0.38146 0.44476 0.03404 0.0
H518 H 0.61863 0.09314 0.94151 0.0
H519 H 0.67033 0.91926 0.9689 0.0
H520 H 0.65728 0.1373 0.04169 0.0
H521 H 0.63046 0.87447 0.04621 0.0
H522 H 0.6658 0.99956 0.96646 0.0
H523 H 0.62272 0.01214 0.95108 0.0
C524 C 0.62799 0.08581 0.96507 0.0
C525 C 0.63768 0.12194 0.99037 0.0
C526 C 0.65806 0.97207 0.98398 0.0
C527 C 0.64245 0.02989 0.99982 0.0
C528 C 0.6606 0.9263 0.98513 0.0
C529 C 0.65073 0.89014 1.0078 0.0
C530 C 0.64545 0.98169 1.00314 0.0
C531 C 0.63832 0.90129 0.02842 0.0
C532 C 0.63027 0.0397 0.97086 0.0
C533 C 0.6496 0.11052 0.02088 0.0
N534 N 0.63596 0.94609 0.0246 0.0
N535 N 0.65172 0.06554 0.02376 0.0
H536 H 0.12688 0.28466 0.22729 0.0
H537 H 0.16492 0.23911 0.79773 0.0
H538 H 0.16371 0.23052 0.22156 0.0
H539 H 0.12615 0.27876 0.80212 0.0
H540 H 0.1651 0.23953 0.95313 0.0
H541 H 0.12688 0.28637 0.07166 0.0
C542 C 0.13498 0.27318 0.19341 0.0
C543 C 0.1453 0.25734 0.23769 0.0
C544 C 0.15655 0.24816 0.9201 0.0
C545 C 0.14537 0.25929 0.05941 0.0
C546 C 0.15645 0.24801 0.83124 0.0
C547 C 0.14549 0.25886 0.78656 0.0
C548 C 0.14565 0.25939 0.96489 0.0
C549 C 0.13481 0.27007 0.8337 0.0
C550 C 0.13496 0.27411 0.10449 0.0
C551 C 0.15552 0.24289 0.19025 0.0
N552 N 0.13516 0.27005 0.92021 0.0
N553 N 0.1553 0.24425 0.10381 0.0
H554 H 0.87236 0.29279 0.23995 0.0
H555 H 0.90497 0.21212 0.81347 0.0
H556 H 0.90665 0.22343 0.23821 0.0
H557 H 0.8707 0.28153 0.81637 0.0
H558 H 0.90565 0.21532 0.96855 0.0
H559 H 0.87169 0.28909 0.08512 0.0
C560 C 0.8798 0.27689 0.20709 0.0
C561 C 0.88959 0.25837 0.25248 0.0
C562 C 0.89795 0.22975 0.93538 0.0
C563 C 0.88882 0.25386 0.07427 0.0
C564 C 0.89753 0.22786 0.84664 0.0
C565 C 0.88775 0.24659 0.80154 0.0
C566 C 0.88853 0.25057 0.9798 0.0
C567 C 0.87841 0.2666 0.8483 0.0
C568 C 0.87938 0.27474 0.11843 0.0
C569 C 0.89894 0.23822 0.20602 0.0
N570 N 0.87905 0.26812 0.9348 0.0
N571 N 0.89831 0.23644 0.11949 0.0
H572 H 0.1633 0.72578 0.2186 0.0
H573 H 0.12663 0.78614 0.7911 0.0
H574 H 0.12832 0.79135 0.21593 0.0
H575 H 0.16132 0.71892 0.79441 0.0
H576 H 0.12714 0.78879 0.94668 0.0
H577 H 0.1629 0.72395 0.06305 0.0
C578 C 0.15556 0.73993 0.18542 0.0
C579 C 0.14583 0.75873 0.23062 0.0
C580 C 0.13463 0.77341 0.91333 0.0
C581 C 0.14528 0.75657 0.05225 0.0
C582 C 0.13434 0.77182 0.82442 0.0
C583 C 0.14394 0.75221 0.77941 0.0
C584 C 0.14461 0.75534 0.95772 0.0
C585 C 0.15369 0.73431 0.82622 0.0
C586 C 0.15532 0.73881 0.0965 0.0
C587 C 0.13603 0.77652 0.18396 0.0
N588 N 0.15378 0.73634 0.91264 0.0
N589 N 0.136 0.77493 0.09748 0.0
H590 H 0.87331 0.79385 0.79294 0.0
H591 H 0.90619 0.71368 0.21956 0.0
H592 H 0.90792 0.72621 0.79488 0.0
H593 H 0.87163 0.78156 0.2167 0.0
H594 H 0.90686 0.71724 0.06445 0.0
H595 H 0.87262 0.78975 0.94783 0.0
C596 C 0.88082 0.77827 0.82586 0.0
C597 C 0.89071 0.76035 0.7805 0.0
C598 C 0.89911 0.73125 0.09764 0.0
C599 C 0.8899 0.75534 0.95874 0.0
C600 C 0.89869 0.72915 0.1864 0.0
C601 C 0.88883 0.74735 0.23152 0.0
C602 C 0.88961 0.75177 0.05323 0.0
C603 C 0.8794 0.76702 0.18476 0.0
C604 C 0.88039 0.77587 0.91454 0.0
C605 C 0.90013 0.74055 0.82703 0.0
N606 N 0.88005 0.76878 0.09826 0.0
N607 N 0.89948 0.73852 0.91355 0.0
H608 H 0.66555 0.74107 0.3131 0.0
H609 H 0.62739 0.78576 0.74261 0.0
H610 H 0.62669 0.77984 0.31747 0.0
H611 H 0.66421 0.73159 0.73697 0.0
H612 H 0.62742 0.78757 0.58698 0.0
H613 H 0.66571 0.74133 0.46853 0.0
C614 C 0.65705 0.74975 0.34661 0.0
C615 C 0.64608 0.7604 0.30192 0.0
C616 C 0.63549 0.77529 0.61983 0.0
C617 C 0.6462 0.76072 0.48025 0.0
C618 C 0.63549 0.77429 0.70874 0.0
C619 C 0.64581 0.75842 0.75304 0.0
C620 C 0.64591 0.76051 0.57477 0.0
C621 C 0.65603 0.74398 0.70563 0.0
C622 C 0.65714 0.7498 0.43548 0.0
C623 C 0.63536 0.77131 0.34905 0.0
N624 N 0.65583 0.74542 0.61919 0.0
N625 N 0.63569 0.77121 0.43556 0.0
H626 H 0.37085 0.78576 0.75165 0.0
H627 H 0.40638 0.71872 0.3255 0.0
H628 H 0.40614 0.72196 0.75086 0.0
H629 H 0.37082 0.78095 0.32777 0.0
H630 H 0.40643 0.71923 0.48096 0.0
H631 H 0.37071 0.78407 0.59647 0.0
C632 C 0.37859 0.77141 0.71894 0.0
C633 C 0.38854 0.75402 0.76462 0.0
C634 C 0.39861 0.7327 0.44747 0.0
C635 C 0.38841 0.75195 0.58626 0.0
C636 C 0.39856 0.7324 0.35857 0.0
C637 C 0.38857 0.74981 0.31326 0.0
C638 C 0.38861 0.75059 0.49168 0.0
C639 C 0.37872 0.76715 0.35983 0.0
C640 C 0.37849 0.77043 0.63014 0.0
C641 C 0.39828 0.73579 0.71845 0.0
N642 N 0.379 0.76713 0.44637 0.0
N643 N 0.39798 0.73526 0.63186 0.0
H644 H 0.62763 0.29123 0.27865 0.0
H645 H 0.66377 0.22793 0.70649 0.0
H646 H 0.66164 0.22043 0.28257 0.0
H647 H 0.62901 0.29477 0.70419 0.0
H648 H 0.66343 0.22665 0.55095 0.0
H649 H 0.62815 0.29412 0.43431 0.0
C650 C 0.63519 0.27622 0.31211 0.0
C651 C 0.64459 0.25548 0.26725 0.0
C652 C 0.65589 0.24167 0.58446 0.0
C653 C 0.64528 0.25885 0.44563 0.0
C654 C 0.65609 0.2425 0.6734 0.0
C655 C 0.6464 0.26147 0.71873 0.0
C656 C 0.64592 0.25993 0.54024 0.0
C657 C 0.63669 0.27978 0.67212 0.0
C658 C 0.63549 0.27793 0.40106 0.0
C659 C 0.65417 0.23669 0.31424 0.0
N660 N 0.63669 0.27849 0.58558 0.0
N661 N 0.65427 0.23885 0.40066 0.0
H662 H 0.40644 0.21895 0.28095 0.0
H663 H 0.37029 0.28106 0.70873 0.0
H664 H 0.37137 0.284 0.28492 0.0
H665 H 0.40599 0.21968 0.70676 0.0
H666 H 0.37032 0.2808 0.55333 0.0
H667 H 0.40626 0.21745 0.43666 0.0
C668 C 0.3987 0.2329 0.31443 0.0
C669 C 0.38891 0.2517 0.26958 0.0
C670 C 0.37815 0.26733 0.58684 0.0
C671 C 0.38865 0.25003 0.44803 0.0
C672 C 0.37813 0.26743 0.67574 0.0
C673 C 0.38815 0.25037 0.72114 0.0
C674 C 0.38826 0.25006 0.54266 0.0
C675 C 0.39805 0.23318 0.67461 0.0
C676 C 0.39861 0.23203 0.40342 0.0
C677 C 0.37913 0.26924 0.31659 0.0
N678 N 0.39786 0.2335 0.58803 0.0
N679 N 0.37926 0.26797 0.40306 0.0
H680 H 0.04795 0.22969 0.34413 0.0
H681 H 0.98482 0.3131 0.55801 0.0
H682 H 0.04949 0.31641 0.56731 0.0
H683 H 0.98291 0.21906 0.3451 0.0
H684 H 1.00867 0.32038 0.55404 0.0
H685 H 0.02432 0.23006 0.33682 0.0
C686 C 0.04334 0.24879 0.39172 0.0
C687 C 0.05077 0.2728 0.45683 0.0
C688 C 1.00305 0.29837 0.50781 0.0
C689 C 0.02365 0.2738 0.44813 0.0
C690 C 0.98941 0.29449 0.50952 0.0
C691 C 0.9818 0.26533 0.45185 0.0
C692 C 1.0092 0.27291 0.448 0.0
C693 C 0.98835 0.24147 0.39153 0.0
C694 C 0.02983 0.24918 0.38718 0.0
C695 C 0.04423 0.29772 0.51554 0.0
N696 N 1.00165 0.24565 0.3914 0.0
N697 N 0.03106 0.29738 0.51001 0.0
H698 H 0.98694 0.82921 0.60569 0.0
H699 H 0.04799 0.68686 0.6027 0.0
H700 H 0.98312 0.68028 0.58465 0.0
H701 H 0.05178 0.83597 0.58517 0.0
H702 H 0.02423 0.68375 0.61147 0.0
H703 H 1.0107 0.83221 0.61368 0.0
C704 C 0.99106 0.7971 0.60293 0.0
C705 C 0.98293 0.75443 0.59409 0.0
C706 C 0.03027 0.71716 0.60621 0.0
C707 C 1.01023 0.75765 0.60401 0.0
C708 C 0.04386 0.71898 0.60084 0.0
C709 C 0.05199 0.76174 0.59279 0.0
C710 C 0.02469 0.75838 0.60368 0.0
C711 C 0.046 0.8022 0.59238 0.0
C712 C 1.00465 0.79885 0.60783 0.0
C713 C 0.98891 0.71397 0.59249 0.0
N714 N 0.03276 0.79949 0.59733 0.0
N715 N 1.00216 0.71661 0.59698 0.0
H716 H 0.54858 0.73439 0.85945 0.0
H717 H 0.48497 0.8071 0.08564 0.0
H718 H 0.5498 0.81227 0.0934 0.0
H719 H 0.48363 0.72493 0.85677 0.0
H720 H 0.50884 0.81433 0.08365 0.0
H721 H 0.52495 0.73449 0.85293 0.0
C722 C 0.54389 0.75148 0.90959 0.0
C723 C 0.55124 0.77312 0.97739 0.0
C724 C 0.50333 0.79494 0.03355 0.0
C725 C 0.5241 0.77379 0.96973 0.0
C726 C 0.48969 0.79111 0.03421 0.0
C727 C 0.48223 0.76528 0.9713 0.0
C728 C 0.50964 0.77279 0.96955 0.0
C729 C 0.48894 0.74466 0.90721 0.0
C730 C 0.53038 0.75174 0.90553 0.0
C731 C 0.5446 0.7955 0.03951 0.0
N732 N 0.50223 0.74872 0.90818 0.0
N733 N 0.53142 0.79506 0.03437 0.0
H734 H 0.48513 0.26861 0.90988 0.0
H735 H 0.55034 0.26181 0.18346 0.0
H736 H 0.48449 0.24547 0.18131 0.0
H737 H 0.54891 0.2558 0.90919 0.0
H738 H 0.52654 0.26122 0.18613 0.0
H739 H 0.50884 0.27048 0.91071 0.0
C740 C 0.49 0.26445 0.96992 0.0
C741 C 0.48278 0.25706 0.04573 0.0
C742 C 0.53144 0.25983 0.12545 0.0
C743 C 0.51003 0.25854 0.04695 0.0
C744 C 0.54503 0.26031 0.12387 0.0
C745 C 0.55164 0.25861 0.046 0.0
C746 C 0.52443 0.25825 0.04855 0.0
C747 C 0.54423 0.25645 0.97076 0.0
C748 C 0.50354 0.26508 0.97021 0.0
C749 C 0.48964 0.25096 0.12131 0.0
N750 N 0.53107 0.25654 0.97393 0.0
N751 N 0.50287 0.25194 0.12006 0.0
loop_
_geom_bond_atom_site_label_1
_geom_bond_atom_site_label_2
_geom_bond_distance
_geom_bond_site_symmetry_2
_ccdc_geom_bond_type
C0 Eu1 2.835 . S
C0 C2 1.500 . S
C0 O20 1.257 . S
C0 O21 1.260 . S
Eu1 C0 2.835 . S
Eu1 O20 2.473 . S
Eu1 O21 2.480 . S
Eu1 O22 2.430 . S
Eu1 O23 2.670 . S
Eu1 O24 2.394 . S
Eu1 O29 2.355 . S
Eu1 O31 2.374 . S
C2 C0 1.500 . S
C2 C3 1.377 . S
C2 C7 1.377 . S
C3 C2 1.377 . S
C3 C4 1.395 . S
C3 H32 0.931 . S
C4 C3 1.395 . S
C4 C5 1.383 . S
C4 H33 0.931 . S
C5 C4 1.383 . S
C5 C6 1.394 . S
C6 C5 1.394 . S
C6 C7 1.378 . S
C6 H34 0.931 . S
C7 C2 1.377 . S
C7 C6 1.378 . S
C7 H35 0.931 . S
C8 O22 1.259 . S
C8 O23 1.270 . S
C9 O24 1.251 . S
C9 O25 1.251 . S
C10 Eu11 2.835 . S
C10 C12 1.500 . S
C10 O26 1.257 . S
C10 O27 1.260 . S
Eu11 C10 2.835 . S
Eu11 O23 2.355 . S
Eu11 O25 2.374 . S
Eu11 O26 2.473 . S
Eu11 O27 2.480 . S
Eu11 O28 2.430 . S
Eu11 O29 2.670 . S
Eu11 O30 2.394 . S
C12 C10 1.500 . S
C12 C13 1.377 . S
C12 C17 1.377 . S
C13 C12 1.377 . S
C13 C14 1.395 . S
C13 H36 0.931 . S
C14 C13 1.395 . S
C14 C15 1.383 . S
C14 H37 0.931 . S
C15 C14 1.383 . S
C15 C16 1.394 . S
C16 C15 1.394 . S
C16 C17 1.378 . S
C16 H38 0.931 . S
C17 C12 1.377 . S
C17 C16 1.378 . S
C17 H39 0.931 . S
C18 O28 1.259 . S
C18 O29 1.270 . S
C19 O30 1.251 . S
C19 O31 1.251 . S
O20 C0 1.257 . S
O20 Eu1 2.473 . S
O21 C0 1.260 . S
O21 Eu1 2.480 . S
O22 Eu1 2.430 . S
O22 C8 1.259 . S
O23 Eu1 2.670 . S
O23 C8 1.270 . S
O23 Eu11 2.355 . S
O24 Eu1 2.394 . S
O24 C9 1.251 . S
O25 C9 1.251 . S
O25 Eu11 2.374 . S
O26 C10 1.257 . S
O26 Eu11 2.473 . S
O27 C10 1.260 . S
O27 Eu11 2.480 . S
O28 Eu11 2.430 . S
O28 C18 1.259 . S
O29 Eu1 2.355 . S
O29 Eu11 2.670 . S
O29 C18 1.270 . S
O30 Eu11 2.394 . S
O30 C19 1.251 . S
O31 Eu1 2.374 . S
O31 C19 1.251 . S
H32 C3 0.931 . S
H33 C4 0.931 . S
H34 C6 0.931 . S
H35 C7 0.931 . S
H36 C13 0.931 . S
H37 C14 0.931 . S
H38 C16 0.931 . S
H39 C17 0.931 . S
C40 Eu41 2.835 . S
C40 C42 1.500 . S
C40 O60 1.257 . S
C40 O61 1.260 . S
Eu41 C40 2.835 . S
Eu41 O60 2.473 . S
Eu41 O61 2.480 . S
Eu41 O62 2.430 . S
Eu41 O63 2.670 . S
Eu41 O64 2.394 . S
Eu41 O69 2.355 . S
Eu41 O71 2.374 . S
C42 C40 1.500 . S
C42 C43 1.377 . S
C42 C47 1.377 . S
C43 C42 1.377 . S
C43 C44 1.395 . S
C43 H72 0.931 . S
C44 C43 1.395 . S
C44 C45 1.383 . S
C44 H73 0.931 . S
C45 C44 1.383 . S
C45 C46 1.394 . S
C46 C45 1.394 . S
C46 C47 1.378 . S
C46 H74 0.931 . S
C47 C42 1.377 . S
C47 C46 1.378 . S
C47 H75 0.931 . S
C48 O62 1.259 . S
C48 O63 1.270 . S
C49 O64 1.251 . S
C49 O65 1.251 . S
C50 Eu51 2.835 . S
C50 C52 1.500 . S
C50 O66 1.257 . S
C50 O67 1.260 . S
Eu51 C50 2.835 . S
Eu51 O63 2.355 . S
Eu51 O65 2.374 . S
Eu51 O66 2.473 . S
Eu51 O67 2.480 . S
Eu51 O68 2.430 . S
Eu51 O69 2.670 . S
Eu51 O70 2.394 . S
C52 C50 1.500 . S
C52 C53 1.377 . S
C52 C57 1.377 . S
C53 C52 1.377 . S
C53 C54 1.395 . S
C53 H76 0.931 . S
C54 C53 1.395 . S
C54 C55 1.383 . S
C54 H77 0.931 . S
C55 C54 1.383 . S
C55 C56 1.394 . S
C56 C55 1.394 . S
C56 C57 1.378 . S
C56 H78 0.931 . S
C57 C52 1.377 . S
C57 C56 1.378 . S
C57 H79 0.931 . S
C58 O68 1.259 . S
C58 O69 1.270 . S
C59 O70 1.251 . S
C59 O71 1.251 . S
O60 C40 1.257 . S
O60 Eu41 2.473 . S
O61 C40 1.260 . S
O61 Eu41 2.480 . S
O62 Eu41 2.430 . S
O62 C48 1.259 . S
O63 Eu41 2.670 . S
O63 C48 1.270 . S
O63 Eu51 2.355 . S
O64 Eu41 2.394 . S
O64 C49 1.251 . S
O65 C49 1.251 . S
O65 Eu51 2.374 . S
O66 C50 1.257 . S
O66 Eu51 2.473 . S
O67 C50 1.260 . S
O67 Eu51 2.480 . S
O68 Eu51 2.430 . S
O68 C58 1.259 . S
O69 Eu41 2.355 . S
O69 Eu51 2.670 . S
O69 C58 1.270 . S
O70 Eu51 2.394 . S
O70 C59 1.251 . S
O71 Eu41 2.374 . S
O71 C59 1.251 . S
H72 C43 0.931 . S
H73 C44 0.931 . S
H74 C46 0.931 . S
H75 C47 0.931 . S
H76 C53 0.931 . S
H77 C54 0.931 . S
H78 C56 0.931 . S
H79 C57 0.931 . S
C80 Eu81 2.835 . S
C80 C82 1.500 . S
C80 O100 1.257 . S
C80 O101 1.260 . S
Eu81 C80 2.835 . S
Eu81 O100 2.473 . S
Eu81 O101 2.480 . S
Eu81 O102 2.430 . S
Eu81 O103 2.670 . S
Eu81 O104 2.394 . S
Eu81 O109 2.355 . S
Eu81 O111 2.374 . S
C82 C80 1.500 . S
C82 C83 1.377 . S
C82 C87 1.377 . S
C83 C82 1.377 . S
C83 C84 1.395 . S
C83 H112 0.931 . S
C84 C83 1.395 . S
C84 C85 1.383 . S
C84 H113 0.931 . S
C85 C84 1.383 . S
C85 C86 1.394 . S
C86 C85 1.394 . S
C86 C87 1.378 . S
C86 H114 0.931 . S
C87 C82 1.377 . S
C87 C86 1.378 . S
C87 H115 0.931 . S
C88 O102 1.259 . S
C88 O103 1.270 . S
C89 O104 1.251 . S
C89 O105 1.251 . S
C90 Eu91 2.835 . S
C90 C92 1.500 . S
C90 O106 1.257 . S
C90 O107 1.260 . S
Eu91 C90 2.835 . S
Eu91 O103 2.355 . S
Eu91 O105 2.374 . S
Eu91 O106 2.473 . S
Eu91 O107 2.480 . S
Eu91 O108 2.430 . S
Eu91 O109 2.670 . S
Eu91 O110 2.394 . S
C92 C90 1.500 . S
C92 C93 1.377 . S
C92 C97 1.377 . S
C93 C92 1.377 . S
C93 C94 1.395 . S
C93 H116 0.931 . S
C94 C93 1.395 . S
C94 C95 1.383 . S
C94 H117 0.931 . S
C95 C94 1.383 . S
C95 C96 1.394 . S
C96 C95 1.394 . S
C96 C97 1.378 . S
C96 H118 0.931 . S
C97 C92 1.377 . S
C97 C96 1.378 . S
C97 H119 0.931 . S
C98 O108 1.259 . S
C98 O109 1.270 . S
C99 O110 1.251 . S
C99 O111 1.251 . S
O100 C80 1.257 . S
O100 Eu81 2.473 . S
O101 C80 1.260 . S
O101 Eu81 2.480 . S
O102 Eu81 2.430 . S
O102 C88 1.259 . S
O103 Eu81 2.670 . S
O103 C88 1.270 . S
O103 Eu91 2.355 . S
O104 Eu81 2.394 . S
O104 C89 1.251 . S
O105 C89 1.251 . S
O105 Eu91 2.374 . S
O106 C90 1.257 . S
O106 Eu91 2.473 . S
O107 C90 1.260 . S
O107 Eu91 2.480 . S
O108 Eu91 2.430 . S
O108 C98 1.259 . S
O109 Eu81 2.355 . S
O109 Eu91 2.670 . S
O109 C98 1.270 . S
O110 Eu91 2.394 . S
O110 C99 1.251 . S
O111 Eu81 2.374 . S
O111 C99 1.251 . S
H112 C83 0.931 . S
H113 C84 0.931 . S
H114 C86 0.931 . S
H115 C87 0.931 . S
H116 C93 0.931 . S
H117 C94 0.931 . S
H118 C96 0.931 . S
H119 C97 0.931 . S
C120 Eu121 2.835 . S
C120 C122 1.500 . S
C120 O140 1.257 . S
C120 O141 1.260 . S
Eu121 C120 2.835 . S
Eu121 O140 2.473 . S
Eu121 O141 2.480 . S
Eu121 O142 2.430 . S
Eu121 O143 2.670 . S
Eu121 O144 2.394 . S
Eu121 O149 2.355 . S
Eu121 O151 2.374 . S
C122 C120 1.500 . S
C122 C123 1.377 . S
C122 C127 1.377 . S
C123 C122 1.377 . S
C123 C124 1.395 . S
C123 H152 0.931 . S
C124 C123 1.395 . S
C124 C125 1.383 . S
C124 H153 0.931 . S
C125 C124 1.383 . S
C125 C126 1.394 . S
C126 C125 1.394 . S
C126 C127 1.378 . S
C126 H154 0.931 . S
C127 C122 1.377 . S
C127 C126 1.378 . S
C127 H155 0.931 . S
C128 O142 1.259 . S
C128 O143 1.270 . S
C129 O144 1.251 . S
C129 O145 1.251 . S
C130 Eu131 2.835 . S
C130 C132 1.500 . S
C130 O146 1.257 . S
C130 O147 1.260 . S
Eu131 C130 2.835 . S
Eu131 O143 2.355 . S
Eu131 O145 2.374 . S
Eu131 O146 2.473 . S
Eu131 O147 2.480 . S
Eu131 O148 2.430 . S
Eu131 O149 2.670 . S
Eu131 O150 2.394 . S
C132 C130 1.500 . S
C132 C133 1.377 . S
C132 C137 1.377 . S
C133 C132 1.377 . S
C133 C134 1.395 . S
C133 H156 0.931 . S
C134 C133 1.395 . S
C134 C135 1.383 . S
C134 H157 0.931 . S
C135 C134 1.383 . S
C135 C136 1.394 . S
C136 C135 1.394 . S
C136 C137 1.378 . S
C136 H158 0.931 . S
C137 C132 1.377 . S
C137 C136 1.378 . S
C137 H159 0.931 . S
C138 O148 1.259 . S
C138 O149 1.270 . S
C139 O150 1.251 . S
C139 O151 1.251 . S
O140 C120 1.257 . S
O140 Eu121 2.473 . S
O141 C120 1.260 . S
O141 Eu121 2.480 . S
O142 Eu121 2.430 . S
O142 C128 1.259 . S
O143 Eu121 2.670 . S
O143 C128 1.270 . S
O143 Eu131 2.355 . S
O144 Eu121 2.394 . S
O144 C129 1.251 . S
O145 C129 1.251 . S
O145 Eu131 2.374 . S
O146 C130 1.257 . S
O146 Eu131 2.473 . S
O147 C130 1.260 . S
O147 Eu131 2.480 . S
O148 Eu131 2.430 . S
O148 C138 1.259 . S
O149 Eu121 2.355 . S
O149 Eu131 2.670 . S
O149 C138 1.270 . S
O150 Eu131 2.394 . S
O150 C139 1.251 . S
O151 Eu121 2.374 . S
O151 C139 1.251 . S
H152 C123 0.931 . S
H153 C124 0.931 . S
H154 C126 0.931 . S
H155 C127 0.931 . S
H156 C133 0.931 . S
H157 C134 0.931 . S
H158 C136 0.931 . S
H159 C137 0.931 . S
C160 Eu161 2.835 1_554 S
C160 C162 1.500 . S
C160 O180 1.257 . S
C160 O181 1.260 . S
Eu161 C160 2.835 1_556 S
Eu161 O180 2.473 1_556 S
Eu161 O181 2.480 1_556 S
Eu161 O182 2.430 . S
Eu161 O183 2.670 . S
Eu161 O184 2.394 1_556 S
Eu161 O189 2.355 1_556 S
Eu161 O191 2.374 . S
C162 C160 1.500 . S
C162 C163 1.377 . S
C162 C167 1.377 . S
C163 C162 1.377 . S
C163 C164 1.395 . S
C163 H192 0.931 . S
C164 C163 1.395 . S
C164 C165 1.383 . S
C164 H193 0.931 . S
C165 C164 1.383 . S
C165 C166 1.394 . S
C166 C165 1.394 . S
C166 C167 1.378 . S
C166 H194 0.931 . S
C167 C162 1.377 . S
C167 C166 1.378 . S
C167 H195 0.931 . S
C168 O182 1.259 . S
C168 O183 1.270 . S
C169 O184 1.251 . S
C169 O185 1.251 . S
C170 Eu171 2.835 1_556 S
C170 C172 1.500 . S
C170 O186 1.257 . S
C170 O187 1.260 . S
Eu171 C170 2.835 1_554 S
Eu171 O183 2.355 1_554 S
Eu171 O185 2.374 . S
Eu171 O186 2.473 1_554 S
Eu171 O187 2.480 1_554 S
Eu171 O188 2.430 . S
Eu171 O189 2.670 . S
Eu171 O190 2.394 1_554 S
C172 C170 1.500 . S
C172 C173 1.377 . S
C172 C177 1.377 . S
C173 C172 1.377 . S
C173 C174 1.395 . S
C173 H196 0.931 . S
C174 C173 1.395 . S
C174 C175 1.383 . S
C174 H197 0.931 . S
C175 C174 1.383 . S
C175 C176 1.394 . S
C176 C175 1.394 . S
C176 C177 1.378 . S
C176 H198 0.931 . S
C177 C172 1.377 . S
C177 C176 1.378 . S
C177 H199 0.931 . S
C178 O188 1.259 . S
C178 O189 1.270 . S
C179 O190 1.251 . S
C179 O191 1.251 . S
O180 C160 1.257 . S
O180 Eu161 2.473 1_554 S
O181 C160 1.260 . S
O181 Eu161 2.480 1_554 S
O182 Eu161 2.430 . S
O182 C168 1.259 . S
O183 Eu161 2.670 . S
O183 C168 1.270 . S
O183 Eu171 2.355 1_556 S
O184 Eu161 2.394 1_554 S
O184 C169 1.251 . S
O185 C169 1.251 . S
O185 Eu171 2.374 . S
O186 C170 1.257 . S
O186 Eu171 2.473 1_556 S
O187 C170 1.260 . S
O187 Eu171 2.480 1_556 S
O188 Eu171 2.430 . S
O188 C178 1.259 . S
O189 Eu161 2.355 1_554 S
O189 Eu171 2.670 . S
O189 C178 1.270 . S
O190 Eu171 2.394 1_556 S
O190 C179 1.251 . S
O191 Eu161 2.374 . S
O191 C179 1.251 . S
H192 C163 0.931 . S
H193 C164 0.931 . S
H194 C166 0.931 . S
H195 C167 0.931 . S
H196 C173 0.931 . S
H197 C174 0.931 . S
H198 C176 0.931 . S
H199 C177 0.931 . S
C200 Eu201 2.835 1_554 S
C200 C202 1.500 . S
C200 O220 1.257 . S
C200 O221 1.260 . S
Eu201 C200 2.835 1_556 S
Eu201 O220 2.473 1_556 S
Eu201 O221 2.480 1_556 S
Eu201 O222 2.430 . S
Eu201 O223 2.670 . S
Eu201 O224 2.394 1_556 S
Eu201 O229 2.355 1_556 S
Eu201 O231 2.374 . S
C202 C200 1.500 . S
C202 C203 1.377 . S
C202 C207 1.377 . S
C203 C202 1.377 . S
C203 C204 1.395 . S
C203 H232 0.931 . S
C204 C203 1.395 . S
C204 C205 1.383 . S
C204 H233 0.931 . S
C205 C204 1.383 . S
C205 C206 1.394 . S
C206 C205 1.394 . S
C206 C207 1.378 . S
C206 H234 0.931 . S
C207 C202 1.377 . S
C207 C206 1.378 . S
C207 H235 0.931 . S
C208 O222 1.259 . S
C208 O223 1.270 . S
C209 O224 1.251 . S
C209 O225 1.251 . S
C210 Eu211 2.835 1_556 S
C210 C212 1.500 . S
C210 O226 1.257 . S
C210 O227 1.260 . S
Eu211 C210 2.835 1_554 S
Eu211 O223 2.355 1_554 S
Eu211 O225 2.374 . S
Eu211 O226 2.473 1_554 S
Eu211 O227 2.480 1_554 S
Eu211 O228 2.430 . S
Eu211 O229 2.670 . S
Eu211 O230 2.394 1_554 S
C212 C210 1.500 . S
C212 C213 1.377 . S
C212 C217 1.377 . S
C213 C212 1.377 . S
C213 C214 1.395 . S
C213 H236 0.931 . S
C214 C213 1.395 . S
C214 C215 1.383 . S
C214 H237 0.931 . S
C215 C214 1.383 . S
C215 C216 1.394 . S
C216 C215 1.394 . S
C216 C217 1.378 . S
C216 H238 0.931 . S
C217 C212 1.377 . S
C217 C216 1.378 . S
C217 H239 0.931 . S
C218 O228 1.259 . S
C218 O229 1.270 . S
C219 O230 1.251 . S
C219 O231 1.251 . S
O220 C200 1.257 . S
O220 Eu201 2.473 1_554 S
O221 C200 1.260 . S
O221 Eu201 2.480 1_554 S
O222 Eu201 2.430 . S
O222 C208 1.259 . S
O223 Eu201 2.670 . S
O223 C208 1.270 . S
O223 Eu211 2.355 1_556 S
O224 Eu201 2.394 1_554 S
O224 C209 1.251 . S
O225 C209 1.251 . S
O225 Eu211 2.374 . S
O226 C210 1.257 . S
O226 Eu211 2.473 1_556 S
O227 C210 1.260 . S
O227 Eu211 2.480 1_556 S
O228 Eu211 2.430 . S
O228 C218 1.259 . S
O229 Eu201 2.355 1_554 S
O229 Eu211 2.670 . S
O229 C218 1.270 . S
O230 Eu211 2.394 1_556 S
O230 C219 1.251 . S
O231 Eu201 2.374 . S
O231 C219 1.251 . S
H232 C203 0.931 . S
H233 C204 0.931 . S
H234 C206 0.931 . S
H235 C207 0.931 . S
H236 C213 0.931 . S
H237 C214 0.931 . S
H238 C216 0.931 . S
H239 C217 0.931 . S
C240 Eu241 2.835 1_554 S
C240 C242 1.500 . S
C240 O260 1.257 . S
C240 O261 1.260 . S
Eu241 C240 2.835 1_556 S
Eu241 O260 2.473 1_556 S
Eu241 O261 2.480 1_556 S
Eu241 O262 2.430 . S
Eu241 O263 2.670 . S
Eu241 O264 2.394 1_556 S
Eu241 O269 2.355 1_556 S
Eu241 O271 2.374 . S
C242 C240 1.500 . S
C242 C243 1.377 . S
C242 C247 1.377 . S
C243 C242 1.377 . S
C243 C244 1.395 . S
C243 H272 0.931 . S
C244 C243 1.395 . S
C244 C245 1.383 . S
C244 H273 0.931 . S
C245 C244 1.383 . S
C245 C246 1.394 . S
C246 C245 1.394 . S
C246 C247 1.378 . S
C246 H274 0.931 . S
C247 C242 1.377 . S
C247 C246 1.378 . S
C247 H275 0.931 . S
C248 O262 1.259 . S
C248 O263 1.270 . S
C249 O264 1.251 . S
C249 O265 1.251 . S
C250 Eu251 2.835 1_556 S
C250 C252 1.500 . S
C250 O266 1.257 . S
C250 O267 1.260 . S
Eu251 C250 2.835 1_554 S
Eu251 O263 2.355 1_554 S
Eu251 O265 2.374 . S
Eu251 O266 2.473 1_554 S
Eu251 O267 2.480 1_554 S
Eu251 O268 2.430 . S
Eu251 O269 2.670 . S
Eu251 O270 2.394 1_554 S
C252 C250 1.500 . S
C252 C253 1.377 . S
C252 C257 1.377 . S
C253 C252 1.377 . S
C253 C254 1.395 . S
C253 H276 0.931 . S
C254 C253 1.395 . S
C254 C255 1.383 . S
C254 H277 0.931 . S
C255 C254 1.383 . S
C255 C256 1.394 . S
C256 C255 1.394 . S
C256 C257 1.378 . S
C256 H278 0.931 . S
C257 C252 1.377 . S
C257 C256 1.378 . S
C257 H279 0.931 . S
C258 O268 1.259 . S
C258 O269 1.270 . S
C259 O270 1.251 . S
C259 O271 1.251 . S
O260 C240 1.257 . S
O260 Eu241 2.473 1_554 S
O261 C240 1.260 . S
O261 Eu241 2.480 1_554 S
O262 Eu241 2.430 . S
O262 C248 1.259 . S
O263 Eu241 2.670 . S
O263 C248 1.270 . S
O263 Eu251 2.355 1_556 S
O264 Eu241 2.394 1_554 S
O264 C249 1.251 . S
O265 C249 1.251 . S
O265 Eu251 2.374 . S
O266 C250 1.257 . S
O266 Eu251 2.473 1_556 S
O267 C250 1.260 . S
O267 Eu251 2.480 1_556 S
O268 Eu251 2.430 . S
O268 C258 1.259 . S
O269 Eu241 2.355 1_554 S
O269 Eu251 2.670 . S
O269 C258 1.270 . S
O270 Eu251 2.394 1_556 S
O270 C259 1.251 . S
O271 Eu241 2.374 . S
O271 C259 1.251 . S
H272 C243 0.931 . S
H273 C244 0.931 . S
H274 C246 0.931 . S
H275 C247 0.931 . S
H276 C253 0.931 . S
H277 C254 0.931 . S
H278 C256 0.931 . S
H279 C257 0.931 . S
C280 Eu281 2.835 1_554 S
C280 C282 1.500 . S
C280 O300 1.257 . S
C280 O301 1.260 . S
Eu281 C280 2.835 1_556 S
Eu281 O300 2.473 1_556 S
Eu281 O301 2.480 1_556 S
Eu281 O302 2.430 . S
Eu281 O303 2.670 . S
Eu281 O304 2.394 1_556 S
Eu281 O309 2.355 1_556 S
Eu281 O311 2.374 . S
C282 C280 1.500 . S
C282 C283 1.377 . S
C282 C287 1.377 . S
C283 C282 1.377 . S
C283 C284 1.395 . S
C283 H312 0.931 . S
C284 C283 1.395 . S
C284 C285 1.383 . S
C284 H313 0.931 . S
C285 C284 1.383 . S
C285 C286 1.394 . S
C286 C285 1.394 . S
C286 C287 1.378 . S
C286 H314 0.931 . S
C287 C282 1.377 . S
C287 C286 1.378 . S
C287 H315 0.931 . S
C288 O302 1.259 . S
C288 O303 1.270 . S
C289 O304 1.251 . S
C289 O305 1.251 . S
C290 Eu291 2.835 1_556 S
C290 C292 1.500 . S
C290 O306 1.257 . S
C290 O307 1.260 . S
Eu291 C290 2.835 1_554 S
Eu291 O303 2.355 1_554 S
Eu291 O305 2.374 . S
Eu291 O306 2.473 1_554 S
Eu291 O307 2.480 1_554 S
Eu291 O308 2.430 . S
Eu291 O309 2.670 . S
Eu291 O310 2.394 1_554 S
C292 C290 1.500 . S
C292 C293 1.377 . S
C292 C297 1.377 . S
C293 C292 1.377 . S
C293 C294 1.395 . S
C293 H316 0.931 . S
C294 C293 1.395 . S
C294 C295 1.383 . S
C294 H317 0.931 . S
C295 C294 1.383 . S
C295 C296 1.394 . S
C296 C295 1.394 . S
C296 C297 1.378 . S
C296 H318 0.931 . S
C297 C292 1.377 . S
C297 C296 1.378 . S
C297 H319 0.931 . S
C298 O308 1.259 . S
C298 O309 1.270 . S
C299 O310 1.251 . S
C299 O311 1.251 . S
O300 C280 1.257 . S
O300 Eu281 2.473 1_554 S
O301 C280 1.260 . S
O301 Eu281 2.480 1_554 S
O302 Eu281 2.430 . S
O302 C288 1.259 . S
O303 Eu281 2.670 . S
O303 C288 1.270 . S
O303 Eu291 2.355 1_556 S
O304 Eu281 2.394 1_554 S
O304 C289 1.251 . S
O305 C289 1.251 . S
O305 Eu291 2.374 . S
O306 C290 1.257 . S
O306 Eu291 2.473 1_556 S
O307 C290 1.260 . S
O307 Eu291 2.480 1_556 S
O308 Eu291 2.430 . S
O308 C298 1.259 . S
O309 Eu281 2.355 1_554 S
O309 Eu291 2.670 . S
O309 C298 1.270 . S
O310 Eu291 2.394 1_556 S
O310 C299 1.251 . S
O311 Eu281 2.374 . S
O311 C299 1.251 . S
H312 C283 0.931 . S
H313 C284 0.931 . S
H314 C286 0.931 . S
H315 C287 0.931 . S
H316 C293 0.931 . S
H317 C294 0.931 . S
H318 C296 0.931 . S
H319 C297 0.931 . S
H320 C326 0.930 . S
H321 C330 0.930 . S
H322 C335 0.929 . S
H323 C333 0.929 . S
H324 C328 0.929 . S
H325 C334 0.929 . S
C326 H320 0.930 . S
C326 C327 1.367 . S
C326 C334 1.378 . S
C327 C326 1.367 . S
C327 C335 1.433 . S
C328 H324 0.929 . S
C328 C330 1.378 . S
C328 C332 1.350 . S
C329 C332 1.463 . S
C329 C334 1.350 . S
C329 N337 1.427 . S
C330 H321 0.930 . S
C330 C328 1.378 . S
C330 C331 1.367 . S
C331 C330 1.367 . S
C331 C333 1.433 . S
C332 C328 1.350 . S
C332 C329 1.463 . S
C332 N336 1.427 . S
C333 H323 0.929 . S
C333 C331 1.433 . S
C333 N336 1.384 . S
C334 H325 0.929 . S
C334 C326 1.378 . S
C334 C329 1.350 . S
C335 H322 0.929 . S
C335 C327 1.433 . S
C335 N337 1.384 . S
N336 C332 1.427 . S
N336 C333 1.384 . S
N337 C329 1.427 . S
N337 C335 1.384 . S
H338 C344 0.930 . S
H339 C348 0.930 . S
H340 C353 0.929 . S
H341 C351 0.929 . S
H342 C346 0.929 . S
H343 C352 0.929 . S
C344 H338 0.930 . S
C344 C345 1.367 . S
C344 C352 1.378 . S
C345 C344 1.367 . S
C345 C353 1.433 . S
C346 H342 0.929 . S
C346 C348 1.378 . S
C346 C350 1.350 . S
C347 C350 1.463 . S
C347 C352 1.350 . S
C347 N355 1.427 . S
C348 H339 0.930 . S
C348 C346 1.378 . S
C348 C349 1.367 . S
C349 C348 1.367 . S
C349 C351 1.433 . S
C350 C346 1.350 . S
C350 C347 1.463 . S
C350 N354 1.427 . S
C351 H341 0.929 . S
C351 C349 1.433 . S
C351 N354 1.384 . S
C352 H343 0.929 . S
C352 C344 1.378 . S
C352 C347 1.350 . S
C353 H340 0.929 . S
C353 C345 1.433 . S
C353 N355 1.384 . S
N354 C350 1.427 . S
N354 C351 1.384 . S
N355 C347 1.427 . S
N355 C353 1.384 . S
H356 C362 0.930 . S
H357 C366 0.930 . S
H358 C371 0.929 . S
H359 C369 0.929 . S
H360 C364 0.929 . S
H361 C370 0.929 . S
C362 H356 0.930 . S
C362 C363 1.367 . S
C362 C370 1.378 . S
C363 C362 1.367 . S
C363 C371 1.433 . S
C364 H360 0.929 . S
C364 C366 1.378 . S
C364 C368 1.350 . S
C365 C368 1.463 . S
C365 C370 1.350 . S
C365 N373 1.427 . S
C366 H357 0.930 . S
C366 C364 1.378 . S
C366 C367 1.367 . S
C367 C366 1.367 . S
C367 C369 1.433 . S
C368 C364 1.350 . S
C368 C365 1.463 . S
C368 N372 1.427 . S
C369 H359 0.929 . S
C369 C367 1.433 . S
C369 N372 1.384 . S
C370 H361 0.929 . S
C370 C362 1.378 . S
C370 C365 1.350 . S
C371 H358 0.929 . S
C371 C363 1.433 . S
C371 N373 1.384 . S
N372 C368 1.427 . S
N372 C369 1.384 . S
N373 C365 1.427 . S
N373 C371 1.384 . S
H374 C380 0.930 . S
H375 C384 0.930 . S
H376 C389 0.929 . S
H377 C387 0.929 . S
H378 C382 0.929 . S
H379 C388 0.929 . S
C380 H374 0.930 . S
C380 C381 1.367 . S
C380 C388 1.378 . S
C381 C380 1.367 . S
C381 C389 1.433 . S
C382 H378 0.929 . S
C382 C384 1.378 . S
C382 C386 1.350 . S
C383 C386 1.463 . S
C383 C388 1.350 . S
C383 N391 1.427 . S
C384 H375 0.930 . S
C384 C382 1.378 . S
C384 C385 1.367 . S
C385 C384 1.367 . S
C385 C387 1.433 . S
C386 C382 1.350 . S
C386 C383 1.463 . S
C386 N390 1.427 . S
C387 H377 0.929 . S
C387 C385 1.433 . S
C387 N390 1.384 . S
C388 H379 0.929 . S
C388 C380 1.378 . S
C388 C383 1.350 . S
C389 H376 0.929 . S
C389 C381 1.433 . S
C389 N391 1.384 . S
N390 C386 1.427 . S
N390 C387 1.384 . S
N391 C383 1.427 . S
N391 C389 1.384 . S
H392 C398 0.930 . S
H393 C402 0.930 . S
H394 C407 0.929 . S
H395 C405 0.929 . S
H396 C400 0.929 . S
H397 C406 0.929 . S
C398 H392 0.930 . S
C398 C399 1.367 . S
C398 C406 1.378 . S
C399 C398 1.367 . S
C399 C407 1.433 . S
C400 H396 0.929 . S
C400 C402 1.378 . S
C400 C404 1.350 . S
C401 C404 1.463 1_565 S
C401 C406 1.350 . S
C401 N409 1.427 . S
C402 H393 0.930 . S
C402 C400 1.378 . S
C402 C403 1.367 . S
C403 C402 1.367 . S
C403 C405 1.433 . S
C404 C400 1.350 . S
C404 C401 1.463 1_545 S
C404 N408 1.427 . S
C405 H395 0.929 . S
C405 C403 1.433 . S
C405 N408 1.384 . S
C406 H397 0.929 . S
C406 C398 1.378 . S
C406 C401 1.350 . S
C407 H394 0.929 . S
C407 C399 1.433 . S
C407 N409 1.384 . S
N408 C404 1.427 . S
N408 C405 1.384 . S
N409 C401 1.427 . S
N409 C407 1.384 . S
H410 C416 0.930 . S
H411 C420 0.930 . S
H412 C425 0.929 . S
H413 C423 0.929 . S
H414 C418 0.929 . S
H415 C424 0.929 . S
C416 H410 0.930 . S
C416 C417 1.367 . S
C416 C424 1.378 . S
C417 C416 1.367 . S
C417 C425 1.433 . S
C418 H414 0.929 . S
C418 C420 1.378 . S
C418 C422 1.350 . S
C419 C422 1.463 . S
C419 C424 1.350 . S
C419 N427 1.427 . S
C420 H411 0.930 . S
C420 C418 1.378 . S
C420 C421 1.367 . S
C421 C420 1.367 . S
C421 C423 1.433 . S
C422 C418 1.350 . S
C422 C419 1.463 . S
C422 N426 1.427 . S
C423 H413 0.929 . S
C423 C421 1.433 . S
C423 N426 1.384 . S
C424 H415 0.929 . S
C424 C416 1.378 . S
C424 C419 1.350 . S
C425 H412 0.929 . S
C425 C417 1.433 . S
C425 N427 1.384 . S
N426 C422 1.427 . S
N426 C423 1.384 . S
N427 C419 1.427 . S
N427 C425 1.384 . S
H428 C434 0.930 . S
H429 C438 0.930 . S
H430 C443 0.929 . S
H431 C441 0.929 . S
H432 C436 0.929 . S
H433 C442 0.929 . S
C434 H428 0.930 . S
C434 C435 1.367 . S
C434 C442 1.378 . S
C435 C434 1.367 . S
C435 C443 1.433 . S
C436 H432 0.929 . S
C436 C438 1.378 . S
C436 C440 1.350 . S
C437 C440 1.463 1_565 S
C437 C442 1.350 . S
C437 N445 1.427 . S
C438 H429 0.930 . S
C438 C436 1.378 . S
C438 C439 1.367 . S
C439 C438 1.367 . S
C439 C441 1.433 . S
C440 C436 1.350 . S
C440 C437 1.463 1_545 S
C440 N444 1.427 . S
C441 H431 0.929 . S
C441 C439 1.433 . S
C441 N444 1.384 . S
C442 H433 0.929 . S
C442 C434 1.378 . S
C442 C437 1.350 . S
C443 H430 0.929 . S
C443 C435 1.433 . S
C443 N445 1.384 . S
N444 C440 1.427 . S
N444 C441 1.384 . S
N445 C437 1.427 . S
N445 C443 1.384 . S
H446 C452 0.930 . S
H447 C456 0.930 . S
H448 C461 0.929 . S
H449 C459 0.929 . S
H450 C454 0.929 . S
H451 C460 0.929 . S
C452 H446 0.930 . S
C452 C453 1.367 . S
C452 C460 1.378 . S
C453 C452 1.367 . S
C453 C461 1.433 . S
C454 H450 0.929 . S
C454 C456 1.378 . S
C454 C458 1.350 . S
C455 C458 1.463 . S
C455 C460 1.350 . S
C455 N463 1.427 . S
C456 H447 0.930 . S
C456 C454 1.378 . S
C456 C457 1.367 . S
C457 C456 1.367 . S
C457 C459 1.433 . S
C458 C454 1.350 . S
C458 C455 1.463 . S
C458 N462 1.427 . S
C459 H449 0.929 . S
C459 C457 1.433 . S
C459 N462 1.384 . S
C460 H451 0.929 . S
C460 C452 1.378 . S
C460 C455 1.350 . S
C461 H448 0.929 . S
C461 C453 1.433 . S
C461 N463 1.384 . S
N462 C458 1.427 . S
N462 C459 1.384 . S
N463 C455 1.427 . S
N463 C461 1.384 . S
H464 C470 0.930 . S
H465 C474 0.930 . S
H466 C479 0.929 . S
H467 C477 0.929 . S
H468 C472 0.929 . S
H469 C478 0.929 . S
C470 H464 0.930 . S
C470 C471 1.367 1_554 S
C470 C478 1.378 . S
C471 C470 1.367 1_556 S
C471 C479 1.433 . S
C472 H468 0.929 . S
C472 C474 1.378 . S
C472 C476 1.350 . S
C473 C476 1.463 . S
C473 C478 1.350 1_556 S
C473 N481 1.427 . S
C474 H465 0.930 . S
C474 C472 1.378 . S
C474 C475 1.367 . S
C475 C474 1.367 . S
C475 C477 1.433 1_556 S
C476 C472 1.350 . S
C476 C473 1.463 . S
C476 N480 1.427 1_556 S
C477 H467 0.929 . S
C477 C475 1.433 1_554 S
C477 N480 1.384 . S
C478 H469 0.929 . S
C478 C470 1.378 . S
C478 C473 1.350 1_554 S
C479 H466 0.929 . S
C479 C471 1.433 . S
C479 N481 1.384 . S
N480 C476 1.427 1_554 S
N480 C477 1.384 . S
N481 C473 1.427 . S
N481 C479 1.384 . S
H482 C488 0.930 . S
H483 C492 0.930 . S
H484 C497 0.929 . S
H485 C495 0.929 . S
H486 C490 0.929 . S
H487 C496 0.929 . S
C488 H482 0.930 . S
C488 C489 1.367 1_554 S
C488 C496 1.378 . S
C489 C488 1.367 1_556 S
C489 C497 1.433 . S
C490 H486 0.929 . S
C490 C492 1.378 . S
C490 C494 1.350 . S
C491 C494 1.463 1_565 S
C491 C496 1.350 1_556 S
C491 N499 1.427 . S
C492 H483 0.930 . S
C492 C490 1.378 . S
C492 C493 1.367 . S
C493 C492 1.367 . S
C493 C495 1.433 1_556 S
C494 C490 1.350 . S
C494 C491 1.463 1_545 S
C494 N498 1.427 1_556 S
C495 H485 0.929 . S
C495 C493 1.433 1_554 S
C495 N498 1.384 . S
C496 H487 0.929 . S
C496 C488 1.378 . S
C496 C491 1.350 1_554 S
C497 H484 0.929 . S
C497 C489 1.433 . S
C497 N499 1.384 . S
N498 C494 1.427 1_554 S
N498 C495 1.384 . S
N499 C491 1.427 . S
N499 C497 1.384 . S
H500 C506 0.930 . S
H501 C510 0.930 . S
H502 C515 0.929 . S
H503 C513 0.929 . S
H504 C508 0.929 . S
H505 C514 0.929 . S
C506 H500 0.930 . S
C506 C507 1.367 . S
C506 C514 1.378 . S
C507 C506 1.367 . S
C507 C515 1.433 1_554 S
C508 H504 0.929 . S
C508 C510 1.378 . S
C508 C512 1.350 1_556 S
C509 C512 1.463 . S
C509 C514 1.350 . S
C509 N517 1.427 1_554 S
C510 H501 0.930 . S
C510 C508 1.378 . S
C510 C511 1.367 1_556 S
C511 C510 1.367 1_554 S
C511 C513 1.433 . S
C512 C508 1.350 1_554 S
C512 C509 1.463 . S
C512 N516 1.427 . S
C513 H503 0.929 . S
C513 C511 1.433 . S
C513 N516 1.384 . S
C514 H505 0.929 . S
C514 C506 1.378 . S
C514 C509 1.350 . S
C515 H502 0.929 . S
C515 C507 1.433 1_556 S
C515 N517 1.384 . S
N516 C512 1.427 . S
N516 C513 1.384 . S
N517 C509 1.427 1_556 S
N517 C515 1.384 . S
H518 C524 0.930 . S
H519 C528 0.930 . S
H520 C533 0.929 . S
H521 C531 0.929 . S
H522 C526 0.929 . S
H523 C532 0.929 . S
C524 H518 0.930 . S
C524 C525 1.367 . S
C524 C532 1.378 . S
C525 C524 1.367 . S
C525 C533 1.433 1_554 S
C526 H522 0.929 . S
C526 C528 1.378 . S
C526 C530 1.350 1_556 S
C527 C530 1.463 1_545 S
C527 C532 1.350 . S
C527 N535 1.427 1_554 S
C528 H519 0.930 . S
C528 C526 1.378 . S
C528 C529 1.367 1_556 S
C529 C528 1.367 1_554 S
C529 C531 1.433 . S
C530 C526 1.350 1_554 S
C530 C527 1.463 1_565 S
C530 N534 1.427 . S
C531 H521 0.929 . S
C531 C529 1.433 . S
C531 N534 1.384 . S
C532 H523 0.929 . S
C532 C524 1.378 . S
C532 C527 1.350 . S
C533 H520 0.929 . S
C533 C525 1.433 1_556 S
C533 N535 1.384 . S
N534 C530 1.427 . S
N534 C531 1.384 . S
N535 C527 1.427 1_556 S
N535 C533 1.384 . S
H536 C542 0.930 . S
H537 C546 0.930 . S
H538 C551 0.929 . S
H539 C549 0.929 . S
H540 C544 0.929 . S
H541 C550 0.929 1_556 S
C542 H536 0.930 . S
C542 C543 1.367 . S
C542 C550 1.378 . S
C543 C542 1.367 . S
C543 C551 1.433 . S
C544 H540 0.929 . S
C544 C546 1.378 . S
C544 C548 1.350 . S
C545 C548 1.463 . S
C545 C550 1.350 1_556 S
C545 N553 1.427 1_556 S
C546 H537 0.930 . S
C546 C544 1.378 . S
C546 C547 1.367 . S
C547 C546 1.367 . S
C547 C549 1.433 . S
C548 C544 1.350 . S
C548 C545 1.463 . S
C548 N552 1.427 . S
C549 H539 0.929 . S
C549 C547 1.433 . S
C549 N552 1.384 . S
C550 H541 0.929 1_554 S
C550 C542 1.378 . S
C550 C545 1.350 1_554 S
C551 H538 0.929 . S
C551 C543 1.433 . S
C551 N553 1.384 . S
N552 C548 1.427 . S
N552 C549 1.384 . S
N553 C545 1.427 1_554 S
N553 C551 1.384 . S
H554 C560 0.930 . S
H555 C564 0.930 . S
H556 C569 0.929 . S
H557 C567 0.929 . S
H558 C562 0.929 . S
H559 C568 0.932 . S
C560 H554 0.930 . S
C560 C561 1.367 . S
C560 C568 1.378 . S
C561 C560 1.367 . S
C561 C569 1.433 . S
C562 H558 0.929 . S
C562 C564 1.378 . S
C562 C566 1.350 . S
C563 C566 1.463 . S
C563 C568 1.350 1_556 S
C563 N571 1.427 1_556 S
C564 H555 0.930 . S
C564 C562 1.378 . S
C564 C565 1.367 . S
C565 C564 1.367 . S
C565 C567 1.433 . S
C566 C562 1.350 . S
C566 C563 1.463 . S
C566 N570 1.427 . S
C567 H557 0.929 . S
C567 C565 1.433 . S
C567 N570 1.384 . S
C568 H559 0.932 . S
C568 C560 1.378 . S
C568 C563 1.350 1_554 S
C569 H556 0.929 . S
C569 C561 1.433 . S
C569 N571 1.384 . S
N570 C566 1.427 . S
N570 C567 1.384 . S
N571 C563 1.427 1_554 S
N571 C569 1.384 . S
H572 C578 0.930 . S
H573 C582 0.930 . S
H574 C587 0.929 . S
H575 C585 0.929 . S
H576 C580 0.929 1_554 S
H577 C586 0.929 . S
C578 H572 0.930 . S
C578 C579 1.367 . S
C578 C586 1.378 . S
C579 C578 1.367 . S
C579 C587 1.433 . S
C580 H576 0.929 1_556 S
C580 C582 1.378 . S
C580 C584 1.350 1_556 S
C581 C584 1.463 . S
C581 C586 1.350 . S
C581 N589 1.427 . S
C582 H573 0.930 . S
C582 C580 1.378 . S
C582 C583 1.367 . S
C583 C582 1.367 . S
C583 C585 1.433 . S
C584 C580 1.350 1_554 S
C584 C581 1.463 . S
C584 N588 1.427 1_554 S
C585 H575 0.929 . S
C585 C583 1.433 . S
C585 N588 1.384 . S
C586 H577 0.929 . S
C586 C578 1.378 . S
C586 C581 1.350 . S
C587 H574 0.929 . S
C587 C579 1.433 . S
C587 N589 1.384 . S
N588 C584 1.427 1_556 S
N588 C585 1.384 . S
N589 C581 1.427 . S
N589 C587 1.384 . S
H590 C596 0.930 . S
H591 C600 0.930 . S
H592 C605 0.929 . S
H593 C603 0.929 . S
H594 C598 0.929 . S
H595 C604 0.929 . S
C596 H590 0.930 . S
C596 C597 1.367 . S
C596 C604 1.378 . S
C597 C596 1.367 . S
C597 C605 1.433 . S
C598 H594 0.929 . S
C598 C600 1.378 . S
C598 C602 1.350 . S
C599 C602 1.463 . S
C599 C604 1.350 1_554 S
C599 N607 1.427 1_554 S
C600 H591 0.930 . S
C600 C598 1.378 . S
C600 C601 1.367 . S
C601 C600 1.367 . S
C601 C603 1.433 . S
C602 C598 1.350 . S
C602 C599 1.463 . S
C602 N606 1.427 . S
C603 H593 0.929 . S
C603 C601 1.433 . S
C603 N606 1.384 . S
C604 H595 0.929 . S
C604 C596 1.378 . S
C604 C599 1.350 1_556 S
C605 H592 0.929 . S
C605 C597 1.433 . S
C605 N607 1.384 . S
N606 C602 1.427 . S
N606 C603 1.384 . S
N607 C599 1.427 1_556 S
N607 C605 1.384 . S
H608 C614 0.930 . S
H609 C618 0.930 . S
H610 C623 0.929 . S
H611 C621 0.929 . S
H612 C616 0.929 . S
H613 C622 0.929 . S
C614 H608 0.930 . S
C614 C615 1.367 . S
C614 C622 1.378 . S
C615 C614 1.367 . S
C615 C623 1.433 . S
C616 H612 0.929 . S
C616 C618 1.378 . S
C616 C620 1.350 . S
C617 C620 1.463 . S
C617 C622 1.350 . S
C617 N625 1.427 . S
C618 H609 0.930 . S
C618 C616 1.378 . S
C618 C619 1.367 . S
C619 C618 1.367 . S
C619 C621 1.433 . S
C620 C616 1.350 . S
C620 C617 1.463 . S
C620 N624 1.427 . S
C621 H611 0.929 . S
C621 C619 1.433 . S
C621 N624 1.384 . S
C622 H613 0.929 . S
C622 C614 1.378 . S
C622 C617 1.350 . S
C623 H610 0.929 . S
C623 C615 1.433 . S
C623 N625 1.384 . S
N624 C620 1.427 . S
N624 C621 1.384 . S
N625 C617 1.427 . S
N625 C623 1.384 . S
H626 C632 0.930 . S
H627 C636 0.930 . S
H628 C641 0.929 . S
H629 C639 0.929 . S
H630 C634 0.929 . S
H631 C640 0.929 . S
C632 H626 0.930 . S
C632 C633 1.367 . S
C632 C640 1.378 . S
C633 C632 1.367 . S
C633 C641 1.433 . S
C634 H630 0.929 . S
C634 C636 1.378 . S
C634 C638 1.350 . S
C635 C638 1.463 . S
C635 C640 1.350 . S
C635 N643 1.427 . S
C636 H627 0.930 . S
C636 C634 1.378 . S
C636 C637 1.367 . S
C637 C636 1.367 . S
C637 C639 1.433 . S
C638 C634 1.350 . S
C638 C635 1.463 . S
C638 N642 1.427 . S
C639 H629 0.929 . S
C639 C637 1.433 . S
C639 N642 1.384 . S
C640 H631 0.929 . S
C640 C632 1.378 . S
C640 C635 1.350 . S
C641 H628 0.929 . S
C641 C633 1.433 . S
C641 N643 1.384 . S
N642 C638 1.427 . S
N642 C639 1.384 . S
N643 C635 1.427 . S
N643 C641 1.384 . S
H644 C650 0.930 . S
H645 C654 0.930 . S
H646 C659 0.929 . S
H647 C657 0.929 . S
H648 C652 0.929 . S
H649 C658 0.929 . S
C650 H644 0.930 . S
C650 C651 1.367 . S
C650 C658 1.378 . S
C651 C650 1.367 . S
C651 C659 1.433 . S
C652 H648 0.929 . S
C652 C654 1.378 . S
C652 C656 1.350 . S
C653 C656 1.463 . S
C653 C658 1.350 . S
C653 N661 1.427 . S
C654 H645 0.930 . S
C654 C652 1.378 . S
C654 C655 1.367 . S
C655 C654 1.367 . S
C655 C657 1.433 . S
C656 C652 1.350 . S
C656 C653 1.463 . S
C656 N660 1.427 . S
C657 H647 0.929 . S
C657 C655 1.433 . S
C657 N660 1.384 . S
C658 H649 0.929 . S
C658 C650 1.378 . S
C658 C653 1.350 . S
C659 H646 0.929 . S
C659 C651 1.433 . S
C659 N661 1.384 . S
N660 C656 1.427 . S
N660 C657 1.384 . S
N661 C653 1.427 . S
N661 C659 1.384 . S
H662 C668 0.930 . S
H663 C672 0.930 . S
H664 C677 0.929 . S
H665 C675 0.929 . S
H666 C670 0.929 . S
H667 C676 0.929 . S
C668 H662 0.930 . S
C668 C669 1.367 . S
C668 C676 1.378 . S
C669 C668 1.367 . S
C669 C677 1.433 . S
C670 H666 0.929 . S
C670 C672 1.378 . S
C670 C674 1.350 . S
C671 C674 1.463 . S
C671 C676 1.350 . S
C671 N679 1.427 . S
C672 H663 0.930 . S
C672 C670 1.378 . S
C672 C673 1.367 . S
C673 C672 1.367 . S
C673 C675 1.433 . S
C674 C670 1.350 . S
C674 C671 1.463 . S
C674 N678 1.427 . S
C675 H665 0.929 . S
C675 C673 1.433 . S
C675 N678 1.384 . S
C676 H667 0.929 . S
C676 C668 1.378 . S
C676 C671 1.350 . S
C677 H664 0.929 . S
C677 C669 1.433 . S
C677 N679 1.384 . S
N678 C674 1.427 . S
N678 C675 1.384 . S
N679 C671 1.427 . S
N679 C677 1.384 . S
H680 C686 0.930 . S
H681 C690 0.930 . S
H682 C695 0.929 . S
H683 C693 0.929 . S
H684 C688 0.929 . S
H685 C694 0.929 . S
C686 H680 0.930 . S
C686 C687 1.367 . S
C686 C694 1.378 . S
C687 C686 1.367 . S
C687 C695 1.433 . S
C688 H684 0.929 . S
C688 C690 1.378 . S
C688 C692 1.350 . S
C689 C692 1.463 1_455 S
C689 C694 1.350 . S
C689 N697 1.427 . S
C690 H681 0.930 . S
C690 C688 1.378 . S
C690 C691 1.367 . S
C691 C690 1.367 . S
C691 C693 1.433 . S
C692 C688 1.350 . S
C692 C689 1.463 1_655 S
C692 N696 1.427 . S
C693 H683 0.929 . S
C693 C691 1.433 . S
C693 N696 1.384 . S
C694 H685 0.929 . S
C694 C686 1.378 . S
C694 C689 1.350 . S
C695 H682 0.929 . S
C695 C687 1.433 . S
C695 N697 1.384 . S
N696 C692 1.427 . S
N696 C693 1.384 . S
N697 C689 1.427 . S
N697 C695 1.384 . S
H698 C704 0.930 . S
H699 C708 0.930 . S
H700 C713 0.929 . S
H701 C711 0.929 . S
H702 C706 0.929 . S
H703 C712 0.929 . S
C704 H698 0.930 . S
C704 C705 1.367 . S
C704 C712 1.378 . S
C705 C704 1.367 . S
C705 C713 1.433 . S
C706 H702 0.929 . S
C706 C708 1.378 . S
C706 C710 1.350 . S
C707 C710 1.463 1_655 S
C707 C712 1.350 . S
C707 N715 1.427 . S
C708 H699 0.930 . S
C708 C706 1.378 . S
C708 C709 1.367 . S
C709 C708 1.367 . S
C709 C711 1.433 . S
C710 C706 1.350 . S
C710 C707 1.463 1_455 S
C710 N714 1.427 . S
C711 H701 0.929 . S
C711 C709 1.433 . S
C711 N714 1.384 . S
C712 H703 0.929 . S
C712 C704 1.378 . S
C712 C707 1.350 . S
C713 H700 0.929 . S
C713 C705 1.433 . S
C713 N715 1.384 . S
N714 C710 1.427 . S
N714 C711 1.384 . S
N715 C707 1.427 . S
N715 C713 1.384 . S
H716 C722 0.930 . S
H717 C726 0.930 . S
H718 C731 0.929 . S
H719 C729 0.929 . S
H720 C724 0.929 . S
H721 C730 0.929 . S
C722 H716 0.930 . S
C722 C723 1.367 . S
C722 C730 1.378 . S
C723 C722 1.367 . S
C723 C731 1.433 . S
C724 H720 0.929 . S
C724 C726 1.378 . S
C724 C728 1.350 . S
C725 C728 1.463 . S
C725 C730 1.350 . S
C725 N733 1.427 . S
C726 H717 0.930 . S
C726 C724 1.378 . S
C726 C727 1.367 . S
C727 C726 1.367 . S
C727 C729 1.433 . S
C728 C724 1.350 . S
C728 C725 1.463 . S
C728 N732 1.427 . S
C729 H719 0.929 . S
C729 C727 1.433 . S
C729 N732 1.384 . S
C730 H721 0.929 . S
C730 C722 1.378 . S
C730 C725 1.350 . S
C731 H718 0.929 . S
C731 C723 1.433 . S
C731 N733 1.384 . S
N732 C728 1.427 . S
N732 C729 1.384 . S
N733 C725 1.427 . S
N733 C731 1.384 . S
H734 C740 0.930 . S
H735 C744 0.930 . S
H736 C749 0.929 . S
H737 C747 0.929 . S
H738 C742 0.929 . S
H739 C748 0.929 . S
C740 H734 0.930 . S
C740 C741 1.367 . S
C740 C748 1.378 . S
C741 C740 1.367 . S
C741 C749 1.433 . S
C742 H738 0.929 . S
C742 C744 1.378 . S
C742 C746 1.350 . S
C743 C746 1.463 . S
C743 C748 1.350 . S
C743 N751 1.427 . S
C744 H735 0.930 . S
C744 C742 1.378 . S
C744 C745 1.367 . S
C745 C744 1.367 . S
C745 C747 1.433 . S
C746 C742 1.350 . S
C746 C743 1.463 . S
C746 N750 1.427 . S
C747 H737 0.929 . S
C747 C745 1.433 . S
C747 N750 1.384 . S
C748 H739 0.929 . S
C748 C740 1.378 . S
C748 C743 1.350 . S
C749 H736 0.929 . S
C749 C741 1.433 . S
C749 N751 1.384 . S
N750 C746 1.427 . S
N750 C747 1.384 . S
N751 C743 1.427 . S
N751 C749 1.384 . S
C327 C5 1.658 . S
C331 C295 1.658 . S
C345 C255 1.660 . S
C349 C45 1.660 . S
C363 C205 1.662 . S
C367 C95 1.661 . S
C381 C165 1.661 . S
C385 C135 1.660 . S
C399 C98 1.561 . S
C403 C18 1.518 . S
C417 C58 1.528 . S
C421 C138 1.562 . S
C435 C128 1.515 . S
C439 C48 1.559 . S
C453 C88 1.519 . S
C457 C8 1.562 . S
C471 C178 1.435 1_556 S
C475 C258 1.440 1_556 S
C489 C218 1.432 1_556 S
C493 C298 1.436 1_556 S
C507 C288 1.436 1_554 S
C511 C208 1.431 1_554 S
C525 C248 1.436 1_554 S
C529 C168 1.432 1_554 S
C543 C19 2.002 . S
C547 C9 2.002 . S
C561 C59 1.997 . S
C565 C49 1.997 . S
C579 C99 2.000 . S
C583 C89 2.000 . S
C597 C129 1.995 . S
C601 C139 1.995 . S
C615 C169 2.003 . S
C619 C179 2.003 . S
C633 C219 1.996 . S
C637 C209 1.996 . S
C651 C249 2.002 . S
C655 C259 2.002 . S
C669 C289 2.005 . S
C673 C299 2.005 . S
C687 C15 2.257 . S
C691 C55 2.251 . S
C705 C125 2.253 . S
C709 C85 2.254 . S
C723 C175 2.258 . S
C727 C215 2.252 . S
C741 C285 2.252 . S
C745 C245 2.259 . S
