# Generated by pormake.
# Topology lhb, (8)-cn, num edge types: 1
# Building blocks:
#     Node 0, Type 0, BuildingBlock: TAGTUT_clean_sbu_3, # of connection points: 8
#     Node 1, Type 0, BuildingBlock: TAGTUT_clean_sbu_3, # of connection points: 8
#     Node 2, Type 0, BuildingBlock: TAGTUT_clean_sbu_3, # of connection points: 8
#     Node 3, Type 0, BuildingBlock: TAGTUT_clean_sbu_3, # of connection points: 8
#     Node 4, Type 0, BuildingBlock: TAGTUT_clean_sbu_3, # of connection points: 8
#     Node 5, Type 0, BuildingBlock: TAGTUT_clean_sbu_3, # of connection points: 8
#     Node 6, Type 0, BuildingBlock: TAGTUT_clean_sbu_3, # of connection points: 8
#     Node 7, Type 0, BuildingBlock: TAGTUT_clean_sbu_3, # of connection points: 8
#     Edge 8, Type (0, 0), BuildingBlock: EZIPEK_clean_linker_0, # of connection points: 2
#     Edge 9, Type (0, 0), BuildingBlock: EZIPEK_clean_linker_0, # of connection points: 2
#     Edge 10, Type (0, 0), BuildingBlock: EZIPEK_clean_linker_0, # of connection points: 2
#     Edge 11, Type (0, 0), BuildingBlock: EZIPEK_clean_linker_0, # of connection points: 2
#     Edge 12, Type (0, 0), BuildingBlock: EZIPEK_clean_linker_0, # of connection points: 2
#     Edge 13, Type (0, 0), BuildingBlock: EZIPEK_clean_linker_0, # of connection points: 2
#     Edge 14, Type (0, 0), BuildingBlock: EZIPEK_clean_linker_0, # of connection points: 2
#     Edge 15, Type (0, 0), BuildingBlock: EZIPEK_clean_linker_0, # of connection points: 2
#     Edge 16, Type (0, 0), BuildingBlock: EZIPEK_clean_linker_0, # of connection points: 2
#     Edge 17, Type (0, 0), BuildingBlock: EZIPEK_clean_linker_0, # of connection points: 2
#     Edge 18, Type (0, 0), BuildingBlock: EZIPEK_clean_linker_0, # of connection points: 2
#     Edge 19, Type (0, 0), BuildingBlock: EZIPEK_clean_linker_0, # of connection points: 2
#     Edge 20, Type (0, 0), BuildingBlock: EZIPEK_clean_linker_0, # of connection points: 2
#     Edge 21, Type (0, 0), BuildingBlock: EZIPEK_clean_linker_0, # of connection points: 2
#     Edge 22, Type (0, 0), BuildingBlock: EZIPEK_clean_linker_0, # of connection points: 2
#     Edge 23, Type (0, 0), BuildingBlock: EZIPEK_clean_linker_0, # of connection points: 2
#     Edge 24, Type (0, 0), BuildingBlock: EZIPEK_clean_linker_0, # of connection points: 2
#     Edge 25, Type (0, 0), BuildingBlock: EZIPEK_clean_linker_0, # of connection points: 2
#     Edge 26, Type (0, 0), BuildingBlock: EZIPEK_clean_linker_0, # of connection points: 2
#     Edge 27, Type (0, 0), BuildingBlock: EZIPEK_clean_linker_0, # of connection points: 2
#     Edge 28, Type (0, 0), BuildingBlock: EZIPEK_clean_linker_0, # of connection points: 2
#     Edge 29, Type (0, 0), BuildingBlock: EZIPEK_clean_linker_0, # of connection points: 2
#     Edge 30, Type (0, 0), BuildingBlock: EZIPEK_clean_linker_0, # of connection points: 2
#     Edge 31, Type (0, 0), BuildingBlock: EZIPEK_clean_linker_0, # of connection points: 2
#     Edge 32, Type (0, 0), BuildingBlock: EZIPEK_clean_linker_0, # of connection points: 2
#     Edge 33, Type (0, 0), BuildingBlock: EZIPEK_clean_linker_0, # of connection points: 2
#     Edge 34, Type (0, 0), BuildingBlock: EZIPEK_clean_linker_0, # of connection points: 2
#     Edge 35, Type (0, 0), BuildingBlock: EZIPEK_clean_linker_0, # of connection points: 2
#     Edge 36, Type (0, 0), BuildingBlock: EZIPEK_clean_linker_0, # of connection points: 2
#     Edge 37, Type (0, 0), BuildingBlock: EZIPEK_clean_linker_0, # of connection points: 2
#     Edge 38, Type (0, 0), BuildingBlock: EZIPEK_clean_linker_0, # of connection points: 2
#     Edge 39, Type (0, 0), BuildingBlock: EZIPEK_clean_linker_0, # of connection points: 2
# Relax obj value: 0.094
# Max RMSD: 0.191
# Mean RMSD: 0.191
data_MOF--net-lhb--node1-TAGTUT_clean_sbu_3--edge1-EZIPEK_clean_linker_0
_symmetry_space_group_name_H-M    P1
_symmetry_Int_Tables_number       1
_symmetry_cell_setting            triclinic
loop_
_symmetry_equiv_pos_as_xyz
'x, y, z'
_cell_length_a     26.477901
_cell_length_b     11.212693
_cell_length_c     44.525704
_cell_angle_alpha  95.203016
_cell_angle_beta   90.093348
_cell_angle_gamma 90.172092
loop_
_atom_site_label
_atom_site_type_symbol
_atom_site_fract_x
_atom_site_fract_y
_atom_site_fract_z
_atom_type_partial_charge
C0 C 0.96767 0.09404 0.98725 0.0
C1 C 0.88687 0.92076 0.90413 0.0
C2 C 0.84938 0.61087 0.95634 0.0
Mg3 Mg 0.04418 0.02307 0.03401 0.0
Mg4 Mg 0.10552 0.7723 0.03312 0.0
O5 O 0.04282 0.84511 0.03031 0.0
Mg6 Mg 0.99784 0.82459 0.99373 0.0
O7 O 0.94989 0.81702 0.95961 0.0
Mg8 Mg 0.88731 0.89141 0.97805 0.0
Mg9 Mg 0.94529 0.70434 0.92642 0.0
C10 C 0.03796 0.56183 0.00651 0.0
O11 O 0.06101 0.79719 0.95937 0.0
O12 O 0.08625 0.01285 0.07863 0.0
O13 O 0.02671 0.67714 0.92096 0.0
O14 O 0.12174 0.03242 0.00727 0.0
O15 O 0.12494 0.83465 0.0786 0.0
O16 O 0.15378 0.84938 0.00298 0.0
O17 O 0.92906 0.85419 0.02428 0.0
O18 O 0.96745 -0.01098 0.05695 0.0
C19 C 0.92994 0.91843 0.04969 0.0
C20 C 0.11314 0.93739 0.09149 0.0
O21 O 0.00286 0.6297 0.99803 0.0
O22 O 0.86319 0.93687 0.92941 0.0
O23 O 0.07985 0.59701 0.01869 0.0
O24 O 0.84833 0.71204 0.97179 0.0
O25 O 0.91915 0.83688 0.89884 0.0
O26 O 0.88418 0.58215 0.93708 0.0
O27 O 1.00082 0.01629 0.99089 0.0
O28 O 0.92189 0.06861 0.9824 0.0
C29 C 0.15499 0.95677 0.99638 0.0
C30 C 0.06428 0.73409 0.93397 0.0
C31 C 0.33406 0.40638 0.30474 0.0
C32 C 0.16041 0.35717 0.34823 0.0
C33 C 0.10559 0.29515 0.25791 0.0
Mg34 Mg 0.37971 0.33568 0.2353 0.0
Mg35 Mg 0.34584 0.09131 0.19304 0.0
O36 O 0.32647 0.22328 0.21918 0.0
Mg37 Mg 0.27742 0.23447 0.25308 0.0
O38 O 0.23033 0.26197 0.288 0.0
Mg39 Mg 0.21396 0.43401 0.28486 0.0
Mg40 Mg 0.17643 0.16397 0.29621 0.0
C41 C 0.22655 0.06299 0.1973 0.0
O42 O 0.2894 0.04573 0.26739 0.0
O43 O 0.39994 0.35168 0.18494 0.0
O44 O 0.21541 -0.00026 0.28847 0.0
O45 O 0.43429 0.18035 0.24064 0.0
O46 O 0.37321 0.18878 0.15669 0.0
O47 O 0.40827 0.01133 0.21454 0.0
O48 O 0.25453 0.41852 0.23985 0.0
O49 O 0.32953 0.4838 0.22839 0.0
C50 C 0.28247 0.50061 0.2308 0.0
C51 C 0.39137 0.29513 0.15902 0.0
O52 O 0.22104 0.1435 0.21952 0.0
O53 O 0.17797 0.43471 0.33153 0.0
O54 O 0.26949 0.02164 0.1878 0.0
O55 O 0.13459 0.3865 0.26312 0.0
O56 O 0.15728 0.24536 0.33973 0.0
O57 O 0.11672 0.19308 0.26624 0.0
O58 O 0.34123 0.32105 0.28373 0.0
O59 O 0.2919 0.46279 0.30653 0.0
C60 C 0.43963 0.06927 0.23217 0.0
C61 C 0.2593 0.97042 0.27846 0.0
C62 C 0.85399 0.7857 0.30957 0.0
C63 C 0.68047 0.81199 0.3593 0.0
C64 C 0.62352 0.85448 0.27032 0.0
Mg65 Mg 0.88686 0.74798 0.23609 0.0
Mg66 Mg 0.82193 0.5452 0.19305 0.0
O67 O 0.82121 0.68192 0.22007 0.0
Mg68 Mg 0.7782 0.69397 0.25633 0.0
O69 O 0.73773 0.71903 0.29432 0.0
Mg70 Mg 0.74108 0.89805 0.299 0.0
Mg71 Mg 0.67454 0.64971 0.29941 0.0
C72 C 0.70566 0.59423 0.2007 0.0
O73 O 0.77215 0.49718 0.26119 0.0
O74 O 0.90711 0.76707 0.18544 0.0
O75 O 0.69642 0.46926 0.2836 0.0
O76 O 0.92205 0.56214 0.23242 0.0
O77 O 0.8544 0.63911 0.1587 0.0
O78 O 0.876 0.41824 0.20742 0.0
O79 O 0.77729 0.88737 0.25338 0.0
O80 O 0.85417 0.93436 0.23859 0.0
C81 C 0.80955 0.96335 0.24652 0.0
C82 C 0.88716 0.72349 0.16035 0.0
O83 O 0.711 0.66711 0.22442 0.0
O84 O 0.70506 0.88741 0.34508 0.0
O85 O 0.74108 0.52631 0.18939 0.0
O86 O 0.66147 0.92078 0.27845 0.0
O87 O 0.66537 0.7114 0.34629 0.0
O88 O 0.6217 0.74335 0.27414 0.0
O89 O 0.85045 0.72115 0.28431 0.0
O90 O 0.81892 0.85998 0.3181 0.0
C91 C 0.91535 0.45329 0.2223 0.0
C92 C 0.73719 0.43056 0.27061 0.0
C93 C 0.95932 0.82556 0.50299 0.0
C94 C 0.87757 0.58003 0.41973 0.0
C95 C 0.84316 0.32973 0.48907 0.0
Mg96 Mg 0.03335 0.7583 0.55195 0.0
Mg97 Mg 0.09959 0.51504 0.54162 0.0
O98 O 0.03495 0.57821 0.54767 0.0
Mg99 Mg 0.98846 0.55496 0.51218 0.0
O100 O 0.94187 0.5439 0.47797 0.0
Mg101 Mg 0.8792 0.61978 0.49523 0.0
Mg102 Mg 0.93661 0.39711 0.45513 0.0
C103 C 0.03303 0.29326 0.52225 0.0
O104 O 0.05072 0.52454 0.4778 0.0
O105 O 0.0802 0.74654 0.59481 0.0
O106 O 0.01701 0.36751 0.44928 0.0
O107 O 0.10752 0.7843 0.52577 0.0
O108 O 0.12616 0.57796 0.58523 0.0
O109 O 0.14006 0.60703 0.50953 0.0
O110 O 0.91948 0.5868 0.54327 0.0
O111 O 0.95951 0.71796 0.57579 0.0
C112 C 0.92791 0.63133 0.57044 0.0
C113 C 0.11358 0.67168 0.60211 0.0
O114 O 0.99525 0.3586 0.51646 0.0
O115 O 0.85943 0.63423 0.4442 0.0
O116 O 0.07684 0.3333 0.5302 0.0
O117 O 0.83777 0.4423 0.49408 0.0
O118 O 0.905 0.4861 0.41948 0.0
O119 O 0.88327 0.28497 0.47687 0.0
O120 O 0.98989 0.74616 0.50929 0.0
O121 O 0.91405 0.80163 0.49576 0.0
C122 C 0.13978 0.72047 0.51024 0.0
C123 C 0.05342 0.44079 0.45633 0.0
C124 C 0.3597 -0.00163 0.75225 0.0
C125 C 0.44525 0.85756 0.66117 0.0
C126 C 0.48125 0.53244 0.70938 0.0
Mg127 Mg 0.27982 0.89816 0.79224 0.0
Mg128 Mg 0.22134 0.65382 0.77456 0.0
O129 O 0.28443 0.72196 0.7821 0.0
Mg130 Mg 0.33267 0.72556 0.74741 0.0
O131 O 0.3811 0.74106 0.71432 0.0
Mg132 Mg 0.44118 0.80846 0.73641 0.0
Mg133 Mg 0.38985 0.6325 0.67994 0.0
C134 C 0.29234 0.46083 0.74648 0.0
O135 O 0.27219 0.70977 0.71232 0.0
O136 O 0.23316 0.85588 0.83338 0.0
O137 O 0.30857 0.61498 0.67071 0.0
O138 O 0.2017 0.92583 0.76621 0.0
O139 O 0.19254 0.68266 0.81938 0.0
O140 O 0.17858 0.74598 0.74533 0.0
O141 O 0.39974 0.73725 0.78051 0.0
O142 O 0.35505 0.85044 0.81505 0.0
C143 C 0.39244 0.77976 0.80811 0.0
C144 C 0.2027 0.77115 0.83868 0.0
O145 O 0.32985 0.5316 0.74461 0.0
O146 O 0.45708 0.88705 0.68903 0.0
O147 O 0.24753 0.49089 0.7544 0.0
O148 O 0.48253 0.63403 0.72464 0.0
O149 O 0.42671 0.7544 0.65284 0.0
O150 O 0.44522 0.50183 0.69113 0.0
O151 O 0.3266 0.91772 0.75142 0.0
O152 O 0.40567 -0.02162 0.74717 0.0
C153 C 0.17207 0.85779 0.74924 0.0
C154 C 0.27017 0.65986 0.68539 0.0
C155 C 0.84482 0.44507 0.75351 0.0
C156 C 0.93554 0.30205 0.6655 0.0
C157 C 0.97543 -0.00983 0.71407 0.0
Mg158 Mg 0.76617 0.34516 0.79291 0.0
Mg159 Mg 0.70663 0.10203 0.77399 0.0
O160 O 0.76976 0.16898 0.78238 0.0
Mg161 Mg 0.81977 0.17203 0.7485 0.0
O162 O 0.87012 0.18686 0.71648 0.0
Mg163 Mg 0.92853 0.26012 0.73974 0.0
Mg164 Mg 0.88173 0.07399 0.68329 0.0
C165 C 0.78007 0.90903 0.74716 0.0
O166 O 0.76107 0.1504 0.71187 0.0
O167 O 0.71817 0.30462 0.8329 0.0
O168 O 0.80051 0.05296 0.67164 0.0
O169 O 0.69098 0.37762 0.76615 0.0
O170 O 0.67829 0.12992 0.81921 0.0
O171 O 0.66459 0.20044 0.74517 0.0
O172 O 0.88529 0.18905 0.78216 0.0
O173 O 0.83957 0.29595 0.81703 0.0
C174 C 0.87866 0.23203 0.80958 0.0
C175 C 0.68861 0.21878 0.8384 0.0
O176 O 0.81809 -0.02091 0.74668 0.0
O177 O 0.94554 0.33474 0.69333 0.0
O178 O 0.73452 0.94019 0.7531 0.0
O179 O 0.97319 0.0921 0.72892 0.0
O180 O 0.9195 0.19664 0.65716 0.0
O181 O 0.94054 0.95163 0.69575 0.0
O182 O 0.81279 0.36262 0.75228 0.0
O183 O 0.89113 0.42807 0.74919 0.0
C184 C 0.66043 0.31314 0.7491 0.0
C185 C 0.76082 0.09718 0.68519 0.0
C186 C 0.49646 0.3443 0.49563 0.0
C187 C 0.3821 0.21637 0.41381 0.0
C188 C 0.32115 0.96052 0.47589 0.0
Mg189 Mg 0.54965 0.23247 0.54902 0.0
Mg190 Mg 0.57989 0.95512 0.54407 0.0
O191 O 0.52682 0.06187 0.54333 0.0
Mg192 Mg 0.48338 0.07078 0.50643 0.0
O193 O 0.44059 0.09751 0.47095 0.0
Mg194 Mg 0.39058 0.21187 0.48994 0.0
Mg195 Mg 0.41941 -0.01692 0.44033 0.0
C196 C 0.48804 0.7966 0.51809 0.0
O197 O 0.54096 -0.00913 0.4732 0.0
O198 O 0.58081 0.18963 0.59494 0.0
O199 O 0.49513 0.90668 0.43365 0.0
O200 O 0.62859 0.19315 0.52876 0.0
O201 O 0.5995 -0.00564 0.59021 0.0
O202 O 0.64297 -0.00079 0.51764 0.0
O203 O 0.4192 0.14908 0.53809 0.0
O204 O 0.46946 0.26914 0.56648 0.0
C205 C 0.43567 0.18723 0.56453 0.0
C206 C 0.59696 0.09525 0.60606 0.0
O207 O 0.45967 0.88049 0.51017 0.0
O208 O 0.3758 0.26404 0.44093 0.0
O209 O 0.53306 0.81188 0.52839 0.0
O210 O 0.32831 0.06958 0.48577 0.0
O211 O 0.39667 0.10762 0.40838 0.0
O212 O 0.354 0.90152 0.45962 0.0
O213 O 0.51738 0.25088 0.50317 0.0
O214 O 0.44919 0.3486 0.49158 0.0
C215 C 0.65652 0.10779 0.5175 0.0
C216 C 0.53711 0.92814 0.44777 0.0
C217 C 0.47232 0.64298 0.98113 0.0
C218 C 0.38601 0.4509 0.9003 0.0
C219 C 0.33725 0.17759 0.9609 0.0
Mg220 Mg 0.54673 0.58216 0.02956 0.0
Mg221 Mg 0.59833 0.32686 0.03885 0.0
O222 O 0.5394 0.40655 0.0309 0.0
Mg223 Mg 0.49365 0.37296 0.99501 0.0
O224 O 0.44539 0.35634 0.96091 0.0
Mg225 Mg 0.3863 0.45132 0.97622 0.0
Mg226 Mg 0.43682 0.23998 0.92906 0.0
C227 C 0.52668 0.11575 0.01856 0.0
O228 O 0.55476 0.31704 0.961 0.0
O229 O 0.58463 0.58983 0.07595 0.0
O230 O 0.51534 0.18453 0.92715 0.0
O231 O 0.62717 0.5631 0.00512 0.0
O232 O 0.61596 0.40824 0.08259 0.0
O233 O 0.65229 0.37348 0.00745 0.0
O234 O 0.42531 0.4279 0.0253 0.0
O235 O 0.46907 0.57225 0.05212 0.0
C236 C 0.42984 0.50411 0.04871 0.0
C237 C 0.6068 0.5169 0.09207 0.0
O238 O 0.49472 0.18056 0.0056 0.0
O239 O 0.36513 0.47918 0.92602 0.0
O240 O 0.56663 0.15478 0.03223 0.0
O241 O 0.33934 0.28103 0.97536 0.0
O242 O 0.41729 0.36404 0.89701 0.0
O243 O 0.371 0.13977 0.94181 0.0
O244 O 0.50328 0.56178 0.9864 0.0
O245 O 0.42713 0.62019 0.97394 0.0
C246 C 0.65882 0.47726 -0.00121 0.0
C247 C 0.55494 0.24008 0.93783 0.0
C248 C 0.16232 0.08595 0.12471 0.0
C249 C 0.13532 -0.02395 0.12112 0.0
C250 C 0.15984 0.93222 0.17199 0.0
C251 C 0.18512 0.04376 0.17562 0.0
N252 N 0.19855 0.24122 0.15926 0.0
N253 N 0.09776 0.80878 0.14357 0.0
C254 C 0.1815 0.12616 0.15342 0.0
C255 C 0.13066 0.9033 0.14551 0.0
N256 N 0.17378 0.1468 0.10028 0.0
N257 N 0.16509 0.85319 0.19339 0.0
H258 H 0.07488 0.78733 0.12474 0.0
H259 H 0.0898 0.75873 0.1616 0.0
H260 H 0.18436 0.87537 0.21363 0.0
H261 H 0.15243 0.76483 0.19049 0.0
H262 H 0.19737 0.22152 0.10144 0.0
H263 H 0.16478 0.1159 0.07814 0.0
H264 H 0.19194 0.30781 0.14487 0.0
H265 H 0.21469 0.27382 0.17974 0.0
C266 C 0.89505 0.95346 0.10231 0.0
C267 C 0.90132 0.87578 0.07558 0.0
C268 C 0.90285 0.70351 0.10509 0.0
C269 C 0.89679 0.77961 0.13204 0.0
N270 N 0.87041 -0.0258 0.15484 0.0
N271 N 0.88169 0.67784 0.05229 0.0
C272 C 0.88815 0.90426 0.13038 0.0
C273 C 0.89584 0.75083 0.07707 0.0
N274 N 0.8952 0.0743 0.10068 0.0
N275 N 0.91586 0.58618 0.10613 0.0
H276 H 0.86884 0.71155 0.03262 0.0
H277 H 0.87467 0.58668 0.05307 0.0
H278 H 0.92417 0.54938 0.12625 0.0
H279 H 0.92338 0.52949 0.08682 0.0
H280 H 0.89813 0.1365 0.11946 0.0
H281 H 0.89317 0.11117 0.08008 0.0
H282 H 0.85866 0.06232 0.15388 0.0
H283 H 0.86266 0.94182 0.17551 0.0
C284 C 0.07427 0.50896 0.40712 0.0
C285 C 0.09059 0.45281 0.43258 0.0
C286 C 0.16001 0.35665 0.40426 0.0
C287 C 0.13968 0.39977 0.37771 0.0
N288 N 0.07512 0.50822 0.35289 0.0
N289 N 0.15695 0.36227 0.45896 0.0
C290 C 0.09698 0.47646 0.37891 0.0
C291 C 0.13611 0.38846 0.43229 0.0
N292 N 0.03665 0.5926 0.41015 0.0
N293 N 0.20041 0.28076 0.40233 0.0
H294 H 0.14013 0.38974 0.47961 0.0
H295 H 0.19236 0.32366 0.46089 0.0
H296 H 0.22082 0.26119 0.38248 0.0
H297 H 0.21288 0.23401 0.42007 0.0
H298 H 0.02614 0.64582 0.39322 0.0
H299 H 0.01904 0.61715 0.43071 0.0
H300 H 0.04044 0.55134 0.35218 0.0
H301 H 0.08913 0.48302 0.33141 0.0
C302 C 0.88304 0.61198 0.33603 0.0
C303 C 0.88182 0.73736 0.33497 0.0
C304 C 0.89119 0.7597 0.39003 0.0
C305 C 0.87588 0.63777 0.39096 0.0
N306 N 0.85431 0.44865 0.36328 0.0
N307 N 0.89384 0.93263 0.36097 0.0
C308 C 0.8711 0.56394 0.36344 0.0
C309 C 0.88914 0.81191 0.3621 0.0
N310 N 0.89708 0.53934 0.31129 0.0
N311 N 0.91101 0.82308 0.415 0.0
H312 H 0.89772 0.9705 0.34052 0.0
H313 H 0.89239 -0.00604 0.37998 0.0
H314 H 0.91743 0.78621 0.43526 0.0
H315 H 0.92667 0.90826 0.41464 0.0
H316 H 0.90196 0.44744 0.3118 0.0
H317 H 0.91142 0.57389 0.29207 0.0
H318 H 0.84904 0.39341 0.34345 0.0
H319 H 0.8411 0.41242 0.38257 0.0
C320 C 0.17699 0.78891 0.63366 0.0
C321 C 0.14138 0.69397 0.63046 0.0
C322 C 0.18525 0.58667 0.66786 0.0
C323 C 0.22338 0.67549 0.66888 0.0
N324 N 0.25015 0.87564 0.66031 0.0
N325 N 0.10186 0.52405 0.64983 0.0
C326 C 0.21727 0.78196 0.65434 0.0
C327 C 0.14218 0.60038 0.64969 0.0
N328 N 0.17424 0.88104 0.6156 0.0
N329 N 0.19138 0.48752 0.68318 0.0
H330 H 0.07015 0.53338 0.63628 0.0
H331 H 0.0978 0.45856 0.66479 0.0
H332 H 0.22205 0.47725 0.69734 0.0
H333 H 0.16755 0.41329 0.68099 0.0
H334 H 0.20273 0.94408 0.61384 0.0
H335 H 0.14401 0.89284 0.60121 0.0
H336 H 0.24549 0.95962 0.65251 0.0
H337 H 0.28039 0.87321 0.67526 0.0
C338 C 0.90075 0.36408 0.6166 0.0
C339 C 0.9307 0.3932 0.64279 0.0
C340 C 0.93613 0.59476 0.62586 0.0
C341 C 0.92252 0.55041 0.59572 0.0
N342 N 0.90608 0.36209 0.56359 0.0
N343 N 0.9826 0.5474 0.66991 0.0
C344 C 0.90924 0.42612 0.59109 0.0
C345 C 0.95029 0.51203 0.6469 0.0
N346 N 0.86144 0.28479 0.61621 0.0
N347 N 0.93372 0.7141 0.63497 0.0
H348 H 0.9985 0.48876 0.68404 0.0
H349 H 0.99887 0.63263 0.6722 0.0
H350 H 0.91777 0.77595 0.62162 0.0
H351 H 0.94062 0.7476 0.65722 0.0
H352 H 0.83899 0.26556 0.59709 0.0
H353 H 0.8461 0.25538 0.63581 0.0
H354 H 0.89801 0.27045 0.56167 0.0
H355 H 0.91447 0.39243 0.54296 0.0
C356 C 0.18314 0.69172 0.88786 0.0
C357 C 0.17499 0.77924 0.86726 0.0
C358 C 0.09993 0.85188 0.89473 0.0
C359 C 0.10668 0.76044 0.91442 0.0
N360 N 0.16073 0.61906 0.93587 0.0
N361 N 0.13338 0.95964 0.85445 0.0
C362 C 0.15036 0.68822 0.91296 0.0
C363 C 0.13622 0.86583 0.87202 0.0
N364 N 0.2217 0.61141 0.88303 0.0
N365 N 0.05725 0.92091 0.89677 0.0
H366 H 0.15696 0.96934 0.83613 0.0
H367 H 0.10984 0.03309 0.85916 0.0
H368 H 0.03072 0.91733 0.91394 0.0
H369 H 0.04641 -0.02239 0.88068 0.0
H370 H 0.22652 0.53722 0.89518 0.0
H371 H 0.2483 0.61683 0.86593 0.0
H372 H 0.19312 0.56736 0.93705 0.0
H373 H 0.13966 0.62564 0.9557 0.0
C374 C 0.89372 0.21188 0.86461 0.0
C375 C 0.89817 0.16237 0.83427 0.0
C376 C 0.88667 0.96187 0.85014 0.0
C377 C 0.88278 0.00834 0.88077 0.0
N378 N 0.89365 0.18109 0.91753 0.0
N379 N 0.92654 -0.01056 0.80267 0.0
C380 C 0.88935 0.13456 0.88823 0.0
C381 C 0.90346 0.03702 0.82836 0.0
N382 N 0.89317 0.33356 0.87065 0.0
N383 N 0.87381 0.84571 0.84166 0.0
H384 H 0.94558 0.04263 0.7883 0.0
H385 H 0.93363 0.89812 0.79842 0.0
H386 H 0.85825 0.78961 0.8567 0.0
H387 H 0.87341 0.81032 0.8192 0.0
H388 H 0.88236 0.37694 0.89131 0.0
H389 H 0.90224 0.39107 0.85426 0.0
H390 H 0.90585 0.26811 0.92391 0.0
H391 H 0.88754 0.13236 0.93581 0.0
C392 C 0.69681 0.20825 0.65818 0.0
C393 C 0.7129 0.09869 0.66863 0.0
C394 C 0.63548 -0.00015 0.64927 0.0
C395 C 0.62309 0.10579 0.63577 0.0
N396 N 0.62533 0.32118 0.64236 0.0
N397 N 0.69318 0.89874 0.68092 0.0
C398 C 0.64835 0.21394 0.64509 0.0
C399 C 0.68063 -0.00309 0.66648 0.0
N400 N 0.72833 0.30548 0.6599 0.0
N401 N 0.60412 0.90273 0.64505 0.0
H402 H 0.72651 0.89399 0.69309 0.0
H403 H 0.67018 0.82412 0.6821 0.0
H404 H 0.56858 0.90823 0.6351 0.0
H405 H 0.6126 0.81788 0.65126 0.0
H406 H 0.72041 0.38311 0.64958 0.0
H407 H 0.76422 0.3055 0.66959 0.0
H408 H 0.6418 0.40352 0.64916 0.0
H409 H 0.58699 0.32675 0.63723 0.0
C410 C 0.40888 -0.00777 0.58874 0.0
C411 C 0.43298 0.10736 0.59069 0.0
C412 C 0.46801 0.06075 0.64018 0.0
C413 C 0.4409 0.95059 0.63851 0.0
N414 N 0.36131 0.86674 0.61905 0.0
N415 N 0.463 0.26554 0.62763 0.0
C416 C 0.40403 0.93238 0.61521 0.0
C417 C 0.45603 0.14644 0.61922 0.0
N418 N 0.39011 0.93596 0.56263 0.0
N419 N 0.50454 0.08603 0.66146 0.0
H420 H 0.44761 0.33243 0.61566 0.0
H421 H 0.47659 0.2974 0.64886 0.0
H422 H 0.5167 0.02511 0.67617 0.0
H423 H 0.52646 0.16365 0.66227 0.0
H424 H 0.3765 0.84815 0.56159 0.0
H425 H 0.39118 0.96772 0.54163 0.0
H426 H 0.33228 0.85906 0.60309 0.0
H427 H 0.35112 0.83759 0.63977 0.0
C428 C 0.63776 0.17161 0.91565 0.0
C429 C 0.59584 0.24944 0.91623 0.0
C430 C 0.61754 0.31348 0.86706 0.0
C431 C 0.65903 0.23383 0.86605 0.0
N432 N 0.71555 0.10514 0.89056 0.0
N433 N 0.55308 0.41771 0.89738 0.0
C434 C 0.67146 0.16842 0.89082 0.0
C435 C 0.58825 0.32831 0.89351 0.0
N436 N 0.64429 0.09967 0.93848 0.0
N437 N 0.60458 0.37016 0.84219 0.0
H438 H 0.53024 0.43102 0.91644 0.0
H439 H 0.54962 0.48573 0.88308 0.0
H440 H 0.62574 0.36434 0.82238 0.0
H441 H 0.57081 0.41623 0.84025 0.0
H442 H 0.67095 0.03159 0.93821 0.0
H443 H 0.62142 0.10692 0.95758 0.0
H444 H 0.72898 0.06315 0.90887 0.0
H445 H 0.74068 0.10121 0.87245 0.0
C446 C 0.37275 0.6588 0.88225 0.0
C447 C 0.38309 0.53443 0.87539 0.0
C448 C 0.41924 0.58156 0.82657 0.0
C449 C 0.40663 0.70377 0.83317 0.0
N450 N 0.3948 0.86174 0.87256 0.0
N451 N 0.40192 0.37693 0.83631 0.0
C452 C 0.39122 0.74297 0.86287 0.0
C453 C 0.40269 0.49577 0.84623 0.0
N454 N 0.34116 0.69695 0.90537 0.0
N455 N 0.45002 0.5486 0.8027 0.0
H456 H 0.38467 0.31305 0.84851 0.0
H457 H 0.41169 0.34421 0.81446 0.0
H458 H 0.46764 0.61175 0.79039 0.0
H459 H 0.46399 0.46215 0.79803 0.0
H460 H 0.33039 0.78609 0.9099 0.0
H461 H 0.31844 0.63913 0.91644 0.0
H462 H 0.38838 0.89517 0.89484 0.0
H463 H 0.41024 0.92366 0.85895 0.0
C464 C 0.60486 0.49693 0.14748 0.0
C465 C 0.622 0.5595 0.12293 0.0
C466 C 0.67486 0.68861 0.15706 0.0
C467 C 0.66427 0.61292 0.17993 0.0
N468 N 0.60767 0.47968 0.20165 0.0
N469 N 0.6752 0.71131 0.10364 0.0
C470 C 0.62535 0.52769 0.1766 0.0
C471 C 0.65629 0.6572 0.12761 0.0
N472 N 0.57098 0.40497 0.14258 0.0
N473 N 0.70409 0.78829 0.16362 0.0
H474 H 0.66478 0.68768 0.08133 0.0
H475 H 0.70456 0.77345 0.10537 0.0
H476 H 0.71839 0.81141 0.18521 0.0
H477 H 0.70986 0.85383 0.14885 0.0
H478 H 0.56205 0.34599 0.15853 0.0
H479 H 0.55197 0.38617 0.12216 0.0
H480 H 0.57697 0.42156 0.2017 0.0
H481 H 0.6216 0.50812 0.22309 0.0
C482 C 0.35949 0.33615 0.10679 0.0
C483 C 0.39443 0.36212 0.1312 0.0
C484 C 0.42316 0.5331 0.10519 0.0
C485 C 0.40327 0.48018 0.07753 0.0
N486 N 0.3411 0.3457 0.05364 0.0
N487 N 0.4632 0.4902 0.15141 0.0
C488 C 0.36805 0.38527 0.07873 0.0
C489 C 0.427 0.46296 0.13 0.0
N490 N 0.31567 0.2752 0.11107 0.0
N491 N 0.43763 0.65045 0.10788 0.0
H492 H 0.47256 0.43438 0.16799 0.0
H493 H 0.48867 0.56067 0.15011 0.0
H494 H 0.43101 0.706 0.0907 0.0
H495 H 0.44935 0.69499 0.1283 0.0
H496 H 0.28788 0.26083 0.09456 0.0
H497 H 0.30327 0.25485 0.1322 0.0
H498 H 0.32082 0.26552 0.05181 0.0
H499 H 0.33905 0.3944 0.03479 0.0
C500 C 0.60434 -0.00489 0.41461 0.0
C501 C 0.5838 0.9037 0.43091 0.0
C502 C 0.646 0.76139 0.40916 0.0
C503 C 0.66198 0.84928 0.3902 0.0
N504 N 0.67854 0.0613 0.38954 0.0
N505 N 0.59585 0.71712 0.45253 0.0
C506 C 0.64832 0.97041 0.39744 0.0
C507 C 0.60819 0.79177 0.43111 0.0
N508 N 0.58141 0.10435 0.41493 0.0
N509 N 0.66703 0.64998 0.40593 0.0
H510 H 0.56974 0.74162 0.46944 0.0
H511 H 0.61426 0.63693 0.45521 0.0
H512 H 0.69867 0.63126 0.39236 0.0
H513 H 0.65341 0.57724 0.41646 0.0
H514 H 0.59206 0.16849 0.40059 0.0
H515 H 0.54966 0.12799 0.42796 0.0
H516 H 0.67128 0.1512 0.39611 0.0
H517 H 0.71486 0.04631 0.38106 0.0
C518 C 0.41521 0.27999 0.36419 0.0
C519 C 0.37836 0.29259 0.38781 0.0
C520 C 0.33866 0.44942 0.36119 0.0
C521 C 0.36232 0.40328 0.33409 0.0
N522 N 0.43675 0.31248 0.31213 0.0
N523 N 0.30455 0.39938 0.40852 0.0
C524 C 0.40516 0.32978 0.3363 0.0
C525 C 0.34051 0.38205 0.38662 0.0
N526 N 0.46037 0.226 0.36906 0.0
N527 N 0.31559 0.55844 0.36272 0.0
H528 H 0.30098 0.34659 0.42643 0.0
H529 H 0.27461 0.45875 0.40705 0.0
H530 H 0.31793 0.61332 0.34502 0.0
H531 H 0.30076 0.6002 0.38264 0.0
H532 H 0.48949 0.2168 0.35341 0.0
H533 H 0.47098 0.20079 0.39014 0.0
H534 H 0.46786 0.25603 0.31109 0.0
H535 H 0.43214 0.35934 0.29309 0.0
C536 C 0.00363 0.3851 0.02625 0.0
C537 C 0.02809 0.43617 0.00248 0.0
C538 C 0.01148 0.26134 0.96787 0.0
C539 C 0.98269 0.21643 0.99097 0.0
N540 N 0.9407 0.24361 0.03913 0.0
N541 N 0.05356 0.43251 0.95042 0.0
C542 C 0.97561 0.28032 0.01939 0.0
C543 C 0.03191 0.37672 0.97316 0.0
N544 N 0.00725 0.43678 0.05519 0.0
N545 N 0.01898 0.19363 0.94109 0.0
H546 H 0.07119 0.51511 0.95436 0.0
H547 H 0.05219 0.40017 0.92777 0.0
H548 H 1.00073 0.11195 0.93562 0.0
H549 H 0.04467 0.21567 0.92479 0.0
H550 H 0.9947 0.39479 0.07376 0.0
H551 H 0.02721 0.51601 0.0609 0.0
H552 H 0.93089 0.29402 0.05907 0.0
H553 H 0.91749 0.16946 0.0339 0.0
C554 C 0.22447 0.6598 0.25162 0.0
C555 C 0.26675 0.62737 0.23383 0.0
C556 C 0.31048 0.80831 0.25276 0.0
C557 C 0.269 0.84087 0.27147 0.0
N558 N 0.19621 0.76948 0.29744 0.0
N559 N 0.33694 0.69979 0.20635 0.0
C560 C 0.22841 0.75859 0.27348 0.0
C561 C 0.30515 0.71262 0.23048 0.0
N562 N 0.17998 0.60078 0.24618 0.0
N563 N 0.35619 0.86167 0.25821 0.0
H564 H 0.33196 0.63087 0.18915 0.0
H565 H 0.36411 0.76393 0.20225 0.0
H566 H 0.36174 0.92279 0.27701 0.0
H567 H 0.38897 0.83166 0.24702 0.0
H568 H 0.14638 0.6278 0.25688 0.0
H569 H 0.17641 0.53418 0.22829 0.0
H570 H 0.16818 0.70639 0.30071 0.0
H571 H 0.20241 0.83187 0.31595 0.0
C572 C 0.80103 0.14648 0.28031 0.0
C573 C 0.79496 0.08765 0.2511 0.0
C574 C 0.73975 0.2452 0.23655 0.0
C575 C 0.74561 0.30262 0.26595 0.0
N576 N 0.76758 0.29357 0.31803 0.0
N577 N 0.75569 0.06958 0.20201 0.0
C578 C 0.77172 0.24847 0.28862 0.0
C579 C 0.76343 0.13376 0.22927 0.0
N580 N 0.83617 0.10724 0.29958 0.0
N581 N 0.71148 0.29828 0.21589 0.0
H582 H 0.77513 -0.00929 0.19547 0.0
H583 H 0.72921 0.09166 0.18617 0.0
H584 H 0.68968 0.37345 0.22213 0.0
H585 H 0.70971 0.26954 0.19303 0.0
H586 H 0.86061 0.03682 0.29314 0.0
H587 H 0.84496 0.15258 0.3204 0.0
H588 H 0.78088 0.24877 0.33595 0.0
H589 H 0.74623 0.36956 0.32461 0.0
C590 C 0.01326 -0.01581 0.48659 0.0
C591 C 0.97686 0.94727 0.50712 0.0
C592 C 0.99369 0.12098 0.54218 0.0
C593 C 0.02428 0.16577 0.51991 0.0
N594 N 0.06663 0.14394 0.47198 0.0
N595 N 0.92912 -0.02085 0.55338 0.0
C596 C 0.03564 0.09781 0.49251 0.0
C597 C 0.96603 0.01516 0.5347 0.0
N598 N 0.02673 0.90972 0.46182 0.0
N599 N 0.99231 0.17899 0.57054 0.0
H600 H 0.9083 0.90058 0.5487 0.0
H601 H 0.9164 0.03144 0.57237 0.0
H602 H 0.01322 0.25675 0.57644 0.0
H603 H 0.97417 0.1453 0.58872 0.0
H604 H 0.05734 0.9252 0.44806 0.0
H605 H 0.00856 0.82848 0.45566 0.0
H606 H 0.07138 0.10685 0.44989 0.0
H607 H 0.08692 0.22254 0.47717 0.0
C608 C 0.33653 0.15695 0.72206 0.0
C609 C 0.34274 0.11631 0.75098 0.0
C610 C 0.30772 0.29551 0.77625 0.0
C611 C 0.30443 0.33911 0.74733 0.0
N612 N 0.32039 0.32538 0.69371 0.0
N613 N 0.33729 0.13699 0.80513 0.0
C614 C 0.31991 0.27385 0.72041 0.0
C615 C 0.3288 0.18226 0.77805 0.0
N616 N 0.34488 0.08238 0.69641 0.0
N617 N 0.29396 0.36572 0.8018 0.0
H618 H 0.35934 0.06144 0.80703 0.0
H619 H 0.32403 0.17372 0.82586 0.0
H620 H 0.28235 0.45445 0.80198 0.0
H621 H 0.29409 0.3383 0.82345 0.0
H622 H 0.33524 0.10344 0.67484 0.0
H623 H 0.35818 -0.00499 0.69658 0.0
H624 H 0.33779 0.28742 0.67419 0.0
H625 H 0.30603 0.41036 0.69149 0.0
C626 C 0.81052 0.62674 0.77861 0.0
C627 C 0.8264 0.56116 0.75195 0.0
C628 C 0.81111 0.72306 0.72167 0.0
C629 C 0.7913 0.78655 0.74781 0.0
N630 N 0.76727 0.8009 0.80083 0.0
N631 N 0.83159 0.52927 0.69744 0.0
C632 C 0.78845 0.73823 0.77616 0.0
C633 C 0.82335 0.60346 0.72315 0.0
N634 N 0.81946 0.58535 0.8061 0.0
N635 N 0.8205 0.77805 0.6961 0.0
H636 H 0.84133 0.43921 0.69756 0.0
H637 H 0.82445 0.55429 0.67586 0.0
H638 H 0.81254 0.86762 0.69432 0.0
H639 H 0.84041 0.73788 0.67773 0.0
H640 H 0.81104 0.63216 0.8267 0.0
H641 H 0.83972 0.50743 0.80847 0.0
H642 H 0.75846 0.76266 0.82062 0.0
H643 H 0.75633 0.89025 0.80156 0.0
C644 C 0.48888 0.60326 0.53507 0.0
C645 C 0.47358 0.6727 0.51183 0.0
C646 C 0.50832 0.52523 0.47422 0.0
C647 C 0.52266 0.45757 0.4979 0.0
N648 N 0.55642 0.47273 0.54773 0.0
N649 N 0.45565 0.68684 0.45942 0.0
C650 C 0.52265 0.50959 0.52756 0.0
C651 C 0.47887 0.62897 0.48122 0.0
N652 N 0.47665 0.63797 0.56426 0.0
N653 N 0.51924 0.48212 0.44536 0.0
H654 H 0.43182 0.75929 0.46493 0.0
H655 H 0.45671 0.65811 0.43654 0.0
H656 H 0.53947 0.40248 0.44103 0.0
H657 H 0.51132 0.52739 0.42651 0.0
H658 H 0.48639 0.58798 0.58204 0.0
H659 H 0.45339 0.71188 0.56972 0.0
H660 H 0.55939 0.51184 0.56983 0.0
H661 H 0.58518 0.41345 0.54053 0.0
C662 C 0.45556 0.82958 0.01421 0.0
C663 C 0.48548 0.76468 0.99169 0.0
C664 C 0.55149 0.91421 0.99777 0.0
C665 C 0.51786 -0.01169 0.0157 0.0
N666 N 0.43866 0.02096 0.04168 0.0
N667 N 0.55749 0.75325 0.9583 0.0
C668 C 0.47016 0.94697 0.02427 0.0
C669 C 0.53233 0.80899 0.98247 0.0
N670 N 0.41478 0.77875 0.02702 0.0
N671 N 0.60142 0.943 0.99533 0.0
H672 H 0.54364 0.67709 0.9457 0.0
H673 H 0.58936 0.78958 0.94883 0.0
H674 H 0.61816 0.01843 0.00649 0.0
H675 H 0.62774 0.88453 0.98473 0.0
H676 H 0.39639 0.81811 0.04605 0.0
H677 H 0.40081 0.69376 0.02055 0.0
H678 H 0.40049 0.00276 0.04473 0.0
H679 H 0.45033 0.10375 0.05205 0.0
C680 C 0.29143 -0.00612 0.97435 0.0
C681 C 0.29015 0.10846 0.96371 0.0
C682 C 0.19723 0.10593 0.96462 0.0
C683 C 0.19899 -0.00396 0.97815 0.0
N684 N 0.24621 0.80944 0.97707 0.0
N685 N 0.24305 0.25796 0.93986 0.0
C686 C 0.24549 0.93128 0.97732 0.0
C687 C 0.24325 0.16002 0.95612 0.0
N688 N 0.33615 0.94579 0.98262 0.0
N689 N 0.15156 0.15576 0.95896 0.0
H690 H 0.27607 0.29621 0.93224 0.0
H691 H 0.21059 0.29633 0.93181 0.0
H692 H 0.11789 0.10738 0.95938 0.0
H693 H 0.14687 0.24299 0.95326 0.0
H694 H 0.33801 0.86799 0.99371 0.0
H695 H 0.37091 -0.0116 0.98071 0.0
H696 H 0.27923 0.75931 0.97428 0.0
H697 H 0.214 0.75672 0.97418 0.0
C698 C 0.76099 0.55207 0.94278 0.0
C699 C 0.80493 0.53391 0.9601 0.0
C700 C 0.75312 0.47971 0.00196 0.0
C701 C 0.70863 0.49955 0.98506 0.0
N702 N 0.67006 0.52688 0.93712 0.0
N703 N 0.84361 0.44401 0.00097 0.0
C704 C 0.71247 0.52681 0.95464 0.0
C705 C 0.80099 0.48409 0.98787 0.0
N706 N 0.76582 0.59931 0.91572 0.0
N707 N 0.74993 0.46468 0.03205 0.0
H708 H 0.87895 0.44796 0.99069 0.0
H709 H 0.84311 0.39678 0.02007 0.0
H710 H 0.71588 0.46724 0.04384 0.0
H711 H 0.78142 0.46162 0.04601 0.0
H712 H 0.73543 0.62859 0.90349 0.0
H713 H 0.80102 0.61267 0.90602 0.0
H714 H 0.67087 0.53425 0.91398 0.0
H715 H 0.63406 0.51093 0.9454 0.0
C716 C 0.04912 0.34613 0.21577 0.0
C717 C 0.05466 0.31132 0.24539 0.0
C718 C 0.96277 0.31528 0.25188 0.0
C719 C 0.95849 0.37272 0.2252 0.0
N720 N 0.99542 0.43821 0.18017 0.0
N721 N 0.01706 0.27104 0.29305 0.0
C722 C 1.001 0.38465 0.20635 0.0
C723 C 0.01149 0.29549 0.26368 0.0
N724 N 0.0897 0.34148 0.19678 0.0
N725 N 0.92006 0.28209 0.26609 0.0
H726 H 0.05203 0.25995 0.30319 0.0
H727 H 0.98718 0.27219 0.30826 0.0
H728 H 0.88408 0.29734 0.25762 0.0
H729 H 0.92055 0.23051 0.28438 0.0
H730 H 0.08733 0.35551 0.17403 0.0
H731 H 0.12535 0.3139 0.20332 0.0
H732 H 0.02553 0.46343 0.16711 0.0
H733 H 0.96005 0.46113 0.17209 0.0
C734 C 0.26015 0.89891 0.51499 0.0
C735 C 0.27334 0.90176 0.48406 0.0
C736 C 0.19489 0.79223 0.46952 0.0
C737 C 0.18571 0.77942 0.50035 0.0
N738 N 0.21721 0.78927 0.55138 0.0
N739 N 0.25353 0.84907 0.43141 0.0
C740 C 0.22056 0.82343 0.52272 0.0
C741 C 0.24094 0.84679 0.46111 0.0
N742 N 0.28378 0.97026 0.53729 0.0
N743 N 0.159 0.7554 0.44855 0.0
H744 H 0.2837 0.89889 0.42412 0.0
H745 H 0.23508 0.79852 0.41392 0.0
H746 H 0.12542 0.71403 0.45425 0.0
H747 H 0.16076 0.77207 0.42597 0.0
H748 H 0.27099 -0.02081 0.55952 0.0
H749 H 0.31238 0.03058 0.53374 0.0
H750 H 0.24558 0.80671 0.56746 0.0
H751 H 0.18905 0.73241 0.55814 0.0
C752 C 0.77855 0.27283 0.52679 0.0
C753 C 0.80049 0.25267 0.49745 0.0
C754 C 0.73192 0.10966 0.4825 0.0
C755 C 0.70965 0.13721 0.51113 0.0
N756 N 0.72291 0.19801 0.56372 0.0
N757 N 0.79519 0.15915 0.44625 0.0
C758 C 0.73668 0.20368 0.53425 0.0
C759 C 0.77728 0.17002 0.47519 0.0
N760 N 0.79464 0.36382 0.54711 0.0
N761 N 0.71011 0.02501 0.46257 0.0
H762 H 0.82665 0.20501 0.43926 0.0
H763 H 0.77691 0.11152 0.42825 0.0
H764 H 0.676 -0.01657 0.46688 0.0
H765 H 0.72778 -0.01216 0.4431 0.0
H766 H 0.77495 0.39096 0.56678 0.0
H767 H 0.8245 0.42073 0.54364 0.0
H768 H 0.74449 0.23454 0.5819 0.0
H769 H 0.6932 0.14434 0.57007 0.0
C770 C 0.03053 0.85811 0.7406 0.0
C771 C 0.02412 0.92812 0.71624 0.0
C772 C 0.1162 0.95707 0.71318 0.0
C773 C 0.1218 0.89839 0.73982 0.0
N774 N 0.08405 0.80861 0.78172 0.0
N775 N 0.05898 0.04253 0.67807 0.0
C776 C 0.07881 0.85268 0.75424 0.0
C777 C 0.06666 -0.02423 0.70187 0.0
N778 N 0.99008 0.79708 0.75059 0.0
N779 N 0.1582 -0.00558 0.69889 0.0
H780 H 0.02335 0.0511 0.66842 0.0
H781 H 0.08707 0.09096 0.66823 0.0
H782 H 0.19441 -0.01199 0.70788 0.0
H783 H 0.15768 0.02839 0.67792 0.0
H784 H 0.99273 0.73544 0.76665 0.0
H785 H 0.95452 0.80022 0.74049 0.0
H786 H 0.05369 0.78452 0.79474 0.0
H787 H 0.11863 0.80715 0.79292 0.0
C788 C 0.56645 0.31977 0.7442 0.0
C789 C 0.61464 0.36564 0.7366 0.0
C790 C 0.57389 0.50289 0.70442 0.0
C791 C 0.52605 0.45627 0.71211 0.0
N792 N 0.47698 0.30243 0.73258 0.0
N793 N 0.66561 0.49038 0.70732 0.0
C794 C 0.52251 0.35791 0.72958 0.0
C795 C 0.61882 0.4543 0.71599 0.0
N796 N 0.56222 0.24674 0.7671 0.0
N797 N 0.57574 0.5951 0.68633 0.0
H798 H 0.69909 0.45554 0.7152 0.0
H799 H 0.67198 0.55016 0.6912 0.0
H800 H 0.54371 0.62553 0.67568 0.0
H801 H 0.60827 0.64277 0.68208 0.0
H802 H 0.52778 0.22133 0.77584 0.0
H803 H 0.59292 0.22105 0.77967 0.0
H804 H 0.47275 0.22252 0.74256 0.0
H805 H 0.44402 0.32999 0.72242 0.0
C806 C 0.5675 0.91546 0.22909 0.0
C807 C 0.57716 0.91122 0.26025 0.0
C808 C 0.49436 -0.00136 0.27276 0.0
C809 C 0.48585 0.00961 0.24166 0.0
N810 N 0.51712 -0.00198 0.19054 0.0
N811 N 0.55397 0.96171 0.31223 0.0
C812 C 0.52303 -0.02741 0.21982 0.0
C813 C 0.54174 0.95644 0.28225 0.0
N814 N 0.60078 0.86409 0.20842 0.0
N815 N 0.45658 0.02552 0.29313 0.0
H816 H 0.5878 0.92876 0.32018 0.0
H817 H 0.53242 0.00637 0.32923 0.0
H818 H 0.42237 0.06312 0.28735 0.0
H819 H 0.45783 0.00501 0.31545 0.0
H820 H 0.59318 0.85063 0.18541 0.0
H821 H 0.6351 0.82825 0.21463 0.0
H822 H 0.54531 -0.01446 0.1743 0.0
H823 H 0.48538 0.04085 0.1828 0.0
loop_
_geom_bond_atom_site_label_1
_geom_bond_atom_site_label_2
_geom_bond_distance
_geom_bond_site_symmetry_2
_ccdc_geom_bond_type
C0 O27 1.312 1_556 S
C0 O28 1.208 1_455 S
C1 O22 1.331 . S
C1 O25 1.244 1_545 S
C2 O24 1.264 . S
C2 O26 1.273 . S
Mg3 O5 1.936 1_545 S
Mg3 O12 2.081 . S
Mg3 O14 2.023 . S
Mg3 O18 2.031 . S
Mg3 O27 2.291 . S
Mg4 O5 1.963 . S
Mg4 O15 1.942 . S
Mg4 O16 1.955 1_565 S
Mg4 O23 1.986 . S
O5 Mg3 1.936 1_565 S
O5 Mg4 1.963 . S
O5 Mg6 1.912 . S
Mg6 O5 1.912 . S
Mg6 O7 1.919 1_454 S
Mg6 O11 2.016 1_554 S
Mg6 O17 2.111 1_465 S
Mg6 O21 2.012 1_554 S
Mg6 O27 2.113 1_565 S
O7 Mg6 1.919 1_656 S
O7 Mg8 1.932 1_565 S
O7 Mg9 1.969 . S
Mg8 O7 1.932 1_545 S
Mg8 O17 2.291 1_556 S
Mg8 O22 2.081 . S
Mg8 O24 2.023 1_545 S
Mg8 O28 2.031 . S
Mg9 O7 1.969 . S
Mg9 O13 1.986 1_655 S
Mg9 O25 1.942 . S
Mg9 O26 1.955 . S
C10 O21 1.191 1_554 S
C10 O23 1.307 . S
O11 Mg6 2.016 1_556 S
O11 C30 1.191 . S
O12 Mg3 2.081 . S
O12 C20 1.331 1_545 S
O13 Mg9 1.986 1_455 S
O13 C30 1.307 . S
O14 Mg3 2.023 . S
O14 C29 1.264 . S
O15 Mg4 1.942 . S
O15 C20 1.244 . S
O16 Mg4 1.955 1_545 S
O16 C29 1.273 . S
O17 Mg6 2.111 1_645 S
O17 Mg8 2.291 1_554 S
O17 C19 1.312 . S
O18 Mg3 2.031 . S
O18 C19 1.208 1_455 S
C19 O17 1.312 . S
C19 O18 1.208 1_655 S
C20 O12 1.331 1_565 S
C20 O15 1.244 . S
O21 Mg6 2.012 1_556 S
O21 C10 1.191 1_556 S
O22 C1 1.331 . S
O22 Mg8 2.081 . S
O23 Mg4 1.986 . S
O23 C10 1.307 . S
O24 C2 1.264 . S
O24 Mg8 2.023 1_565 S
O25 C1 1.244 1_565 S
O25 Mg9 1.942 . S
O26 C2 1.273 . S
O26 Mg9 1.955 . S
O27 C0 1.312 1_554 S
O27 Mg3 2.291 . S
O27 Mg6 2.113 1_545 S
O28 C0 1.208 1_655 S
O28 Mg8 2.031 . S
C29 O14 1.264 . S
C29 O16 1.273 . S
C30 O11 1.191 . S
C30 O13 1.307 . S
C31 O58 1.312 . S
C31 O59 1.208 . S
C32 O53 1.331 . S
C32 O56 1.244 . S
C33 O55 1.264 . S
C33 O57 1.273 . S
Mg34 O36 1.936 . S
Mg34 O43 2.081 . S
Mg34 O45 2.023 . S
Mg34 O49 2.031 . S
Mg34 O58 2.291 . S
Mg35 O36 1.963 . S
Mg35 O46 1.942 . S
Mg35 O47 1.955 . S
Mg35 O54 1.986 . S
O36 Mg34 1.936 . S
O36 Mg35 1.963 . S
O36 Mg37 1.915 . S
Mg37 O36 1.915 . S
Mg37 O38 1.915 . S
Mg37 O42 2.013 . S
Mg37 O48 2.114 . S
Mg37 O52 2.013 . S
Mg37 O58 2.114 . S
O38 Mg37 1.915 . S
O38 Mg39 1.936 . S
O38 Mg40 1.963 . S
Mg39 O38 1.936 . S
Mg39 O48 2.291 . S
Mg39 O53 2.081 . S
Mg39 O55 2.023 . S
Mg39 O59 2.031 . S
Mg40 O38 1.963 . S
Mg40 O44 1.986 1_545 S
Mg40 O56 1.942 . S
Mg40 O57 1.955 . S
C41 O52 1.191 . S
C41 O54 1.307 . S
O42 Mg37 2.013 . S
O42 C61 1.191 1_545 S
O43 Mg34 2.081 . S
O43 C51 1.331 . S
O44 Mg40 1.986 1_565 S
O44 C61 1.307 . S
O45 Mg34 2.023 . S
O45 C60 1.264 . S
O46 Mg35 1.942 . S
O46 C51 1.244 . S
O47 Mg35 1.955 . S
O47 C60 1.273 . S
O48 Mg37 2.114 . S
O48 Mg39 2.291 . S
O48 C50 1.312 . S
O49 Mg34 2.031 . S
O49 C50 1.208 . S
C50 O48 1.312 . S
C50 O49 1.208 . S
C51 O43 1.331 . S
C51 O46 1.244 . S
O52 Mg37 2.013 . S
O52 C41 1.191 . S
O53 C32 1.331 . S
O53 Mg39 2.081 . S
O54 Mg35 1.986 . S
O54 C41 1.307 . S
O55 C33 1.264 . S
O55 Mg39 2.023 . S
O56 C32 1.244 . S
O56 Mg40 1.942 . S
O57 C33 1.273 . S
O57 Mg40 1.955 . S
O58 C31 1.312 . S
O58 Mg34 2.291 . S
O58 Mg37 2.114 . S
O59 C31 1.208 . S
O59 Mg39 2.031 . S
C60 O45 1.264 . S
C60 O47 1.273 . S
C61 O42 1.191 1_565 S
C61 O44 1.307 . S
C62 O89 1.312 . S
C62 O90 1.208 . S
C63 O84 1.331 . S
C63 O87 1.244 . S
C64 O86 1.264 . S
C64 O88 1.273 . S
Mg65 O67 1.936 . S
Mg65 O74 2.081 . S
Mg65 O76 2.023 . S
Mg65 O80 2.036 . S
Mg65 O89 2.291 . S
Mg66 O67 1.963 . S
Mg66 O77 1.942 . S
Mg66 O78 1.955 . S
Mg66 O85 1.986 . S
O67 Mg65 1.936 . S
O67 Mg66 1.963 . S
O67 Mg68 1.915 . S
Mg68 O67 1.915 . S
Mg68 O69 1.915 . S
Mg68 O73 2.013 . S
Mg68 O79 2.114 . S
Mg68 O83 2.013 . S
Mg68 O89 2.114 . S
O69 Mg68 1.915 . S
O69 Mg70 1.936 . S
O69 Mg71 1.963 . S
Mg70 O69 1.936 . S
Mg70 O79 2.291 . S
Mg70 O84 2.081 . S
Mg70 O86 2.023 . S
Mg70 O90 2.031 . S
Mg71 O69 1.963 . S
Mg71 O75 1.986 . S
Mg71 O87 1.942 . S
Mg71 O88 1.955 . S
C72 O83 1.191 . S
C72 O85 1.307 . S
O73 Mg68 2.013 . S
O73 C92 1.191 . S
O74 Mg65 2.081 . S
O74 C82 1.331 . S
O75 Mg71 1.986 . S
O75 C92 1.307 . S
O76 Mg65 2.023 . S
O76 C91 1.264 . S
O77 Mg66 1.942 . S
O77 C82 1.244 . S
O78 Mg66 1.955 . S
O78 C91 1.273 . S
O79 Mg68 2.114 . S
O79 Mg70 2.291 . S
O79 C81 1.312 1_565 S
O80 Mg65 2.036 . S
O80 C81 1.207 1_565 S
C81 O79 1.312 1_545 S
C81 O80 1.207 1_545 S
C82 O74 1.331 . S
C82 O77 1.244 . S
O83 Mg68 2.013 . S
O83 C72 1.191 . S
O84 C63 1.331 . S
O84 Mg70 2.081 . S
O85 Mg66 1.986 . S
O85 C72 1.307 . S
O86 C64 1.264 . S
O86 Mg70 2.023 . S
O87 C63 1.244 . S
O87 Mg71 1.942 . S
O88 C64 1.273 . S
O88 Mg71 1.955 . S
O89 C62 1.312 . S
O89 Mg65 2.291 . S
O89 Mg68 2.114 . S
O90 C62 1.208 . S
O90 Mg70 2.031 . S
C91 O76 1.264 . S
C91 O78 1.273 . S
C92 O73 1.191 . S
C92 O75 1.307 . S
C93 O120 1.312 . S
C93 O121 1.208 1_455 S
C94 O115 1.331 . S
C94 O118 1.244 . S
C95 O117 1.264 . S
C95 O119 1.273 . S
Mg96 O98 1.936 . S
Mg96 O105 2.081 . S
Mg96 O107 2.023 . S
Mg96 O111 2.031 . S
Mg96 O120 2.291 . S
Mg97 O98 1.963 . S
Mg97 O108 1.942 . S
Mg97 O109 1.955 . S
Mg97 O116 1.986 . S
O98 Mg96 1.936 . S
O98 Mg97 1.963 . S
O98 Mg99 1.915 . S
Mg99 O98 1.915 . S
Mg99 O100 1.915 1_455 S
Mg99 O104 2.013 . S
Mg99 O110 2.114 1_455 S
Mg99 O114 2.013 . S
Mg99 O120 2.114 . S
O100 Mg99 1.915 1_655 S
O100 Mg101 1.936 . S
O100 Mg102 1.963 . S
Mg101 O100 1.936 . S
Mg101 O110 2.291 . S
Mg101 O115 2.081 . S
Mg101 O117 2.023 . S
Mg101 O121 2.031 . S
Mg102 O100 1.963 . S
Mg102 O106 1.986 1_655 S
Mg102 O118 1.942 . S
Mg102 O119 1.955 . S
C103 O114 1.191 . S
C103 O116 1.307 . S
O104 Mg99 2.013 . S
O104 C123 1.191 . S
O105 Mg96 2.081 . S
O105 C113 1.331 . S
O106 Mg102 1.986 1_455 S
O106 C123 1.307 . S
O107 Mg96 2.023 . S
O107 C122 1.264 . S
O108 Mg97 1.942 . S
O108 C113 1.244 . S
O109 Mg97 1.955 . S
O109 C122 1.273 . S
O110 Mg99 2.114 1_655 S
O110 Mg101 2.291 . S
O110 C112 1.312 . S
O111 Mg96 2.031 . S
O111 C112 1.208 1_455 S
C112 O110 1.312 . S
C112 O111 1.208 1_655 S
C113 O105 1.331 . S
C113 O108 1.244 . S
O114 Mg99 2.013 . S
O114 C103 1.191 . S
O115 C94 1.331 . S
O115 Mg101 2.081 . S
O116 Mg97 1.986 . S
O116 C103 1.307 . S
O117 C95 1.264 . S
O117 Mg101 2.023 . S
O118 C94 1.244 . S
O118 Mg102 1.942 . S
O119 C95 1.273 . S
O119 Mg102 1.955 . S
O120 C93 1.312 . S
O120 Mg96 2.291 . S
O120 Mg99 2.114 . S
O121 C93 1.208 1_655 S
O121 Mg101 2.031 . S
C122 O107 1.264 . S
C122 O109 1.273 . S
C123 O104 1.191 . S
C123 O106 1.307 . S
C124 O151 1.312 1_545 S
C124 O152 1.207 1_545 S
C125 O146 1.331 . S
C125 O149 1.244 . S
C126 O148 1.264 . S
C126 O150 1.273 . S
Mg127 O129 1.936 . S
Mg127 O136 2.081 . S
Mg127 O138 2.023 . S
Mg127 O142 2.031 . S
Mg127 O151 2.291 . S
Mg128 O129 1.963 . S
Mg128 O139 1.942 . S
Mg128 O140 1.955 . S
Mg128 O147 1.986 . S
O129 Mg127 1.936 . S
O129 Mg128 1.963 . S
O129 Mg130 1.915 . S
Mg130 O129 1.915 . S
Mg130 O131 1.915 . S
Mg130 O135 2.013 . S
Mg130 O141 2.114 . S
Mg130 O145 2.013 . S
Mg130 O151 2.114 . S
O131 Mg130 1.915 . S
O131 Mg132 1.936 . S
O131 Mg133 1.963 . S
Mg132 O131 1.936 . S
Mg132 O141 2.291 . S
Mg132 O146 2.081 . S
Mg132 O148 2.023 . S
Mg132 O152 2.036 . S
Mg133 O131 1.963 . S
Mg133 O137 1.986 . S
Mg133 O149 1.942 . S
Mg133 O150 1.955 . S
C134 O145 1.191 . S
C134 O147 1.307 . S
O135 Mg130 2.013 . S
O135 C154 1.191 . S
O136 Mg127 2.081 . S
O136 C144 1.331 . S
O137 Mg133 1.986 . S
O137 C154 1.307 . S
O138 Mg127 2.023 . S
O138 C153 1.264 . S
O139 Mg128 1.942 . S
O139 C144 1.244 . S
O140 Mg128 1.955 . S
O140 C153 1.273 . S
O141 Mg130 2.114 . S
O141 Mg132 2.291 . S
O141 C143 1.312 . S
O142 Mg127 2.031 . S
O142 C143 1.208 . S
C143 O141 1.312 . S
C143 O142 1.208 . S
C144 O136 1.331 . S
C144 O139 1.244 . S
O145 Mg130 2.013 . S
O145 C134 1.191 . S
O146 C125 1.331 . S
O146 Mg132 2.081 . S
O147 Mg128 1.986 . S
O147 C134 1.307 . S
O148 C126 1.264 . S
O148 Mg132 2.023 . S
O149 C125 1.244 . S
O149 Mg133 1.942 . S
O150 C126 1.273 . S
O150 Mg133 1.955 . S
O151 C124 1.312 1_565 S
O151 Mg127 2.291 . S
O151 Mg130 2.114 . S
O152 C124 1.207 1_565 S
O152 Mg132 2.036 . S
C153 O138 1.264 . S
C153 O140 1.273 . S
C154 O135 1.191 . S
C154 O137 1.307 . S
C155 O182 1.312 . S
C155 O183 1.208 . S
C156 O177 1.331 . S
C156 O180 1.244 . S
C157 O179 1.264 . S
C157 O181 1.273 . S
Mg158 O160 1.936 . S
Mg158 O167 2.081 . S
Mg158 O169 2.023 . S
Mg158 O173 2.031 . S
Mg158 O182 2.291 . S
Mg159 O160 1.963 . S
Mg159 O170 1.942 . S
Mg159 O171 1.955 . S
Mg159 O178 1.986 1_545 S
O160 Mg158 1.936 . S
O160 Mg159 1.963 . S
O160 Mg161 1.915 . S
Mg161 O160 1.915 . S
Mg161 O162 1.915 . S
Mg161 O166 2.013 . S
Mg161 O172 2.114 . S
Mg161 O176 2.013 . S
Mg161 O182 2.114 . S
O162 Mg161 1.915 . S
O162 Mg163 1.936 . S
O162 Mg164 1.963 . S
Mg163 O162 1.936 . S
Mg163 O172 2.291 . S
Mg163 O177 2.081 . S
Mg163 O179 2.023 . S
Mg163 O183 2.031 . S
Mg164 O162 1.963 . S
Mg164 O168 1.986 . S
Mg164 O180 1.942 . S
Mg164 O181 1.955 . S
C165 O176 1.191 1_565 S
C165 O178 1.307 . S
O166 Mg161 2.013 . S
O166 C185 1.191 . S
O167 Mg158 2.081 . S
O167 C175 1.331 . S
O168 Mg164 1.986 . S
O168 C185 1.307 . S
O169 Mg158 2.023 . S
O169 C184 1.264 . S
O170 Mg159 1.942 . S
O170 C175 1.244 . S
O171 Mg159 1.955 . S
O171 C184 1.273 . S
O172 Mg161 2.114 . S
O172 Mg163 2.291 . S
O172 C174 1.312 . S
O173 Mg158 2.031 . S
O173 C174 1.208 . S
C174 O172 1.312 . S
C174 O173 1.208 . S
C175 O167 1.331 . S
C175 O170 1.244 . S
O176 Mg161 2.013 . S
O176 C165 1.191 1_545 S
O177 C156 1.331 . S
O177 Mg163 2.081 . S
O178 Mg159 1.986 1_565 S
O178 C165 1.307 . S
O179 C157 1.264 . S
O179 Mg163 2.023 . S
O180 C156 1.244 . S
O180 Mg164 1.942 . S
O181 C157 1.273 . S
O181 Mg164 1.955 . S
O182 C155 1.312 . S
O182 Mg158 2.291 . S
O182 Mg161 2.114 . S
O183 C155 1.208 . S
O183 Mg163 2.031 . S
C184 O169 1.264 . S
C184 O171 1.273 . S
C185 O166 1.191 . S
C185 O168 1.307 . S
C186 O213 1.312 . S
C186 O214 1.208 . S
C187 O208 1.331 . S
C187 O211 1.244 1_545 S
C188 O210 1.264 . S
C188 O212 1.273 . S
Mg189 O191 1.936 1_545 S
Mg189 O198 2.081 . S
Mg189 O200 2.023 . S
Mg189 O204 2.031 . S
Mg189 O213 2.291 . S
Mg190 O191 1.963 . S
Mg190 O201 1.942 . S
Mg190 O202 1.955 1_565 S
Mg190 O209 1.986 . S
O191 Mg189 1.936 1_565 S
O191 Mg190 1.963 . S
O191 Mg192 1.915 . S
Mg192 O191 1.915 . S
Mg192 O193 1.916 . S
Mg192 O197 2.013 . S
Mg192 O203 2.114 1_565 S
Mg192 O207 2.013 . S
Mg192 O213 2.114 1_565 S
O193 Mg192 1.916 . S
O193 Mg194 1.932 1_565 S
O193 Mg195 1.970 . S
Mg194 O193 1.932 1_545 S
Mg194 O203 2.291 . S
Mg194 O208 2.081 . S
Mg194 O210 2.023 1_545 S
Mg194 O214 2.031 . S
Mg195 O193 1.970 . S
Mg195 O199 1.986 . S
Mg195 O211 1.942 . S
Mg195 O212 1.955 . S
C196 O207 1.191 . S
C196 O209 1.307 . S
O197 Mg192 2.013 . S
O197 C216 1.191 . S
O198 Mg189 2.081 . S
O198 C206 1.331 1_545 S
O199 Mg195 1.986 . S
O199 C216 1.307 . S
O200 Mg189 2.023 . S
O200 C215 1.264 . S
O201 Mg190 1.942 . S
O201 C206 1.244 . S
O202 Mg190 1.955 1_545 S
O202 C215 1.273 . S
O203 Mg192 2.114 1_545 S
O203 Mg194 2.291 . S
O203 C205 1.312 . S
O204 Mg189 2.031 . S
O204 C205 1.208 . S
C205 O203 1.312 . S
C205 O204 1.208 . S
C206 O198 1.331 1_565 S
C206 O201 1.244 . S
O207 Mg192 2.013 . S
O207 C196 1.191 . S
O208 C187 1.331 . S
O208 Mg194 2.081 . S
O209 Mg190 1.986 . S
O209 C196 1.307 . S
O210 C188 1.264 . S
O210 Mg194 2.023 1_565 S
O211 C187 1.244 1_565 S
O211 Mg195 1.942 . S
O212 C188 1.273 . S
O212 Mg195 1.955 . S
O213 C186 1.312 . S
O213 Mg189 2.291 . S
O213 Mg192 2.114 1_545 S
O214 C186 1.208 . S
O214 Mg194 2.031 . S
C215 O200 1.264 . S
C215 O202 1.273 . S
C216 O197 1.191 . S
C216 O199 1.307 . S
C217 O244 1.312 1_556 S
C217 O245 1.208 . S
C218 O239 1.331 . S
C218 O242 1.244 . S
C219 O241 1.264 . S
C219 O243 1.273 . S
Mg220 O222 1.936 . S
Mg220 O229 2.081 . S
Mg220 O231 2.023 . S
Mg220 O235 2.031 . S
Mg220 O244 2.291 . S
Mg221 O222 1.963 . S
Mg221 O232 1.942 . S
Mg221 O233 1.955 . S
Mg221 O240 1.986 . S
O222 Mg220 1.936 . S
O222 Mg221 1.963 . S
O222 Mg223 1.913 . S
Mg223 O222 1.913 . S
Mg223 O224 1.918 1_554 S
Mg223 O228 2.015 1_554 S
Mg223 O234 2.111 . S
Mg223 O238 2.012 1_554 S
Mg223 O244 2.113 . S
O224 Mg223 1.918 1_556 S
O224 Mg225 1.936 . S
O224 Mg226 1.963 . S
Mg225 O224 1.936 . S
Mg225 O234 2.291 1_556 S
Mg225 O239 2.081 . S
Mg225 O241 2.023 . S
Mg225 O245 2.031 . S
Mg226 O224 1.963 . S
Mg226 O230 1.986 . S
Mg226 O242 1.942 . S
Mg226 O243 1.955 . S
C227 O238 1.191 1_554 S
C227 O240 1.307 . S
O228 Mg223 2.015 1_556 S
O228 C247 1.191 . S
O229 Mg220 2.081 . S
O229 C237 1.331 . S
O230 Mg226 1.986 . S
O230 C247 1.307 . S
O231 Mg220 2.023 . S
O231 C246 1.264 . S
O232 Mg221 1.942 . S
O232 C237 1.244 . S
O233 Mg221 1.955 . S
O233 C246 1.273 . S
O234 Mg223 2.111 . S
O234 Mg225 2.291 1_554 S
O234 C236 1.312 . S
O235 Mg220 2.031 . S
O235 C236 1.208 . S
C236 O234 1.312 . S
C236 O235 1.208 . S
C237 O229 1.331 . S
C237 O232 1.244 . S
O238 Mg223 2.012 1_556 S
O238 C227 1.191 1_556 S
O239 C218 1.331 . S
O239 Mg225 2.081 . S
O240 Mg221 1.986 . S
O240 C227 1.307 . S
O241 C219 1.264 . S
O241 Mg225 2.023 . S
O242 C218 1.244 . S
O242 Mg226 1.942 . S
O243 C219 1.273 . S
O243 Mg226 1.955 . S
O244 C217 1.312 1_554 S
O244 Mg220 2.291 . S
O244 Mg223 2.113 . S
O245 C217 1.208 . S
O245 Mg225 2.031 . S
C246 O231 1.264 . S
C246 O233 1.273 . S
C247 O228 1.191 . S
C247 O230 1.307 . S
C248 C249 1.363 1_545 S
C248 C254 1.379 . S
C248 N256 1.356 . S
C249 C248 1.363 1_565 S
C249 C255 1.363 . S
C250 C251 1.363 . S
C250 C255 1.379 1_545 S
C250 N257 1.356 . S
C251 C250 1.363 . S
C251 C254 1.363 . S
N252 C254 1.356 . S
N252 H264 0.984 . S
N252 H265 0.985 . S
N253 C255 1.356 . S
N253 H258 0.984 . S
N253 H259 0.985 . S
C254 C248 1.379 . S
C254 C251 1.363 . S
C254 N252 1.356 . S
C255 C249 1.363 . S
C255 C250 1.379 1_565 S
C255 N253 1.356 . S
N256 C248 1.356 . S
N256 H262 0.984 . S
N256 H263 0.984 . S
N257 C250 1.356 . S
N257 H260 0.984 . S
N257 H261 0.985 1_545 S
H258 N253 0.984 . S
H259 N253 0.985 . S
H260 N257 0.984 . S
H261 N257 0.985 1_565 S
H262 N256 0.984 . S
H263 N256 0.984 . S
H264 N252 0.984 . S
H265 N252 0.985 . S
C266 C267 1.363 . S
C266 C272 1.379 . S
C266 N274 1.356 . S
C267 C266 1.363 . S
C267 C273 1.363 1_545 S
C268 C269 1.363 . S
C268 C273 1.379 . S
C268 N275 1.356 . S
C269 C268 1.363 . S
C269 C272 1.363 1_565 S
N270 C272 1.356 . S
N270 H282 0.984 . S
N270 H283 0.985 . S
N271 C273 1.356 . S
N271 H276 0.984 . S
N271 H277 0.985 . S
C272 C266 1.379 . S
C272 C269 1.363 1_545 S
C272 N270 1.356 . S
C273 C267 1.363 1_565 S
C273 C268 1.379 . S
C273 N271 1.356 . S
N274 C266 1.356 . S
N274 H280 0.984 . S
N274 H281 0.984 . S
N275 C268 1.356 . S
N275 H278 0.984 . S
N275 H279 0.985 . S
H276 N271 0.984 . S
H277 N271 0.985 . S
H278 N275 0.984 . S
H279 N275 0.985 . S
H280 N274 0.984 . S
H281 N274 0.984 . S
H282 N270 0.984 . S
H283 N270 0.985 . S
C284 C285 1.363 . S
C284 C290 1.379 . S
C284 N292 1.356 . S
C285 C284 1.363 . S
C285 C291 1.363 . S
C286 C287 1.363 . S
C286 C291 1.379 . S
C286 N293 1.356 . S
C287 C286 1.363 . S
C287 C290 1.363 . S
N288 C290 1.356 . S
N288 H300 0.984 . S
N288 H301 0.985 . S
N289 C291 1.356 . S
N289 H294 0.984 . S
N289 H295 0.985 . S
C290 C284 1.379 . S
C290 C287 1.363 . S
C290 N288 1.356 . S
C291 C285 1.363 . S
C291 C286 1.379 . S
C291 N289 1.356 . S
N292 C284 1.356 . S
N292 H298 0.984 . S
N292 H299 0.984 . S
N293 C286 1.356 . S
N293 H296 0.984 . S
N293 H297 0.985 . S
H294 N289 0.984 . S
H295 N289 0.985 . S
H296 N293 0.984 . S
H297 N293 0.985 . S
H298 N292 0.984 . S
H299 N292 0.984 . S
H300 N288 0.984 . S
H301 N288 0.985 . S
C302 C303 1.363 . S
C302 C308 1.379 . S
C302 N310 1.356 . S
C303 C302 1.363 . S
C303 C309 1.363 . S
C304 C305 1.363 . S
C304 C309 1.379 . S
C304 N311 1.356 . S
C305 C304 1.363 . S
C305 C308 1.363 . S
N306 C308 1.356 . S
N306 H318 0.984 . S
N306 H319 0.985 . S
N307 C309 1.356 . S
N307 H312 0.984 . S
N307 H313 0.985 . S
C308 C302 1.379 . S
C308 C305 1.363 . S
C308 N306 1.356 . S
C309 C303 1.363 . S
C309 C304 1.379 . S
C309 N307 1.356 . S
N310 C302 1.356 . S
N310 H316 0.984 . S
N310 H317 0.984 . S
N311 C304 1.356 . S
N311 H314 0.984 . S
N311 H315 0.985 . S
H312 N307 0.984 . S
H313 N307 0.985 . S
H314 N311 0.984 . S
H315 N311 0.985 . S
H316 N310 0.984 . S
H317 N310 0.984 . S
H318 N306 0.984 . S
H319 N306 0.985 . S
C320 C321 1.363 . S
C320 C326 1.379 . S
C320 N328 1.356 . S
C321 C320 1.363 . S
C321 C327 1.363 . S
C322 C323 1.363 . S
C322 C327 1.379 . S
C322 N329 1.356 . S
C323 C322 1.363 . S
C323 C326 1.363 . S
N324 C326 1.356 . S
N324 H336 0.984 . S
N324 H337 0.985 . S
N325 C327 1.356 . S
N325 H330 0.984 . S
N325 H331 0.985 . S
C326 C320 1.379 . S
C326 C323 1.363 . S
C326 N324 1.356 . S
C327 C321 1.363 . S
C327 C322 1.379 . S
C327 N325 1.356 . S
N328 C320 1.356 . S
N328 H334 0.984 . S
N328 H335 0.984 . S
N329 C322 1.356 . S
N329 H332 0.984 . S
N329 H333 0.985 . S
H330 N325 0.984 . S
H331 N325 0.985 . S
H332 N329 0.984 . S
H333 N329 0.985 . S
H334 N328 0.984 . S
H335 N328 0.984 . S
H336 N324 0.984 . S
H337 N324 0.985 . S
C338 C339 1.363 . S
C338 C344 1.379 . S
C338 N346 1.356 . S
C339 C338 1.363 . S
C339 C345 1.363 . S
C340 C341 1.363 . S
C340 C345 1.379 . S
C340 N347 1.357 1_655 S
C341 C340 1.363 . S
C341 C344 1.363 . S
N342 C344 1.356 . S
N342 H354 0.984 . S
N342 H355 0.985 . S
N343 C345 1.356 . S
N343 H348 0.984 . S
N343 H349 0.985 . S
C344 C338 1.379 . S
C344 C341 1.363 . S
C344 N342 1.356 . S
C345 C339 1.363 . S
C345 C340 1.379 . S
C345 N343 1.356 . S
N346 C338 1.356 . S
N346 H352 0.984 . S
N346 H353 0.984 . S
N347 C340 1.357 1_455 S
N347 H350 0.984 . S
N347 H351 0.984 . S
H348 N343 0.984 . S
H349 N343 0.985 . S
H350 N347 0.984 . S
H351 N347 0.984 . S
H352 N346 0.984 . S
H353 N346 0.984 . S
H354 N342 0.984 . S
H355 N342 0.985 . S
C356 C357 1.363 . S
C356 C362 1.379 . S
C356 N364 1.356 . S
C357 C356 1.363 . S
C357 C363 1.363 . S
C358 C359 1.363 . S
C358 C363 1.379 . S
C358 N365 1.356 1_565 S
C359 C358 1.363 . S
C359 C362 1.363 . S
N360 C362 1.356 . S
N360 H372 0.984 . S
N360 H373 0.985 . S
N361 C363 1.356 . S
N361 H366 0.984 . S
N361 H367 0.985 . S
C362 C356 1.379 . S
C362 C359 1.363 . S
C362 N360 1.356 . S
C363 C357 1.363 . S
C363 C358 1.379 . S
C363 N361 1.356 . S
N364 C356 1.356 . S
N364 H370 0.984 . S
N364 H371 0.984 . S
N365 C358 1.356 1_545 S
N365 H368 0.984 . S
N365 H369 0.985 . S
H366 N361 0.984 . S
H367 N361 0.985 . S
H368 N365 0.984 . S
H369 N365 0.985 . S
H370 N364 0.984 . S
H371 N364 0.984 . S
H372 N360 0.984 . S
H373 N360 0.985 . S
C374 C375 1.363 . S
C374 C380 1.379 . S
C374 N382 1.356 . S
C375 C374 1.363 . S
C375 C381 1.363 . S
C376 C377 1.363 . S
C376 C381 1.379 . S
C376 N383 1.356 1_545 S
C377 C376 1.363 . S
C377 C380 1.363 . S
N378 C380 1.356 . S
N378 H390 0.984 . S
N378 H391 0.985 . S
N379 C381 1.356 . S
N379 H384 0.984 . S
N379 H385 0.985 . S
C380 C374 1.379 . S
C380 C377 1.363 . S
C380 N378 1.356 . S
C381 C375 1.363 . S
C381 C376 1.379 . S
C381 N379 1.356 . S
N382 C374 1.356 . S
N382 H388 0.984 . S
N382 H389 0.984 . S
N383 C376 1.356 1_565 S
N383 H386 0.984 . S
N383 H387 0.985 . S
H384 N379 0.984 . S
H385 N379 0.985 . S
H386 N383 0.984 . S
H387 N383 0.985 . S
H388 N382 0.984 . S
H389 N382 0.984 . S
H390 N378 0.984 . S
H391 N378 0.985 . S
C392 C393 1.363 . S
C392 C398 1.379 . S
C392 N400 1.356 . S
C393 C392 1.363 . S
C393 C399 1.363 . S
C394 C395 1.363 . S
C394 C399 1.379 1_565 S
C394 N401 1.356 . S
C395 C394 1.363 . S
C395 C398 1.363 1_565 S
N396 C398 1.356 . S
N396 H408 0.984 . S
N396 H409 0.985 . S
N397 C399 1.356 . S
N397 H402 0.984 . S
N397 H403 0.985 1_545 S
C398 C392 1.379 . S
C398 C395 1.363 1_545 S
C398 N396 1.356 . S
C399 C393 1.363 . S
C399 C394 1.379 1_545 S
C399 N397 1.356 . S
N400 C392 1.356 . S
N400 H406 0.984 . S
N400 H407 0.984 . S
N401 C394 1.356 . S
N401 H404 0.984 . S
N401 H405 0.985 . S
H402 N397 0.984 . S
H403 N397 0.985 1_565 S
H404 N401 0.984 . S
H405 N401 0.985 . S
H406 N400 0.984 . S
H407 N400 0.984 . S
H408 N396 0.984 . S
H409 N396 0.985 . S
C410 C411 1.363 1_565 S
C410 C416 1.379 . S
C410 N418 1.356 . S
C411 C410 1.363 1_545 S
C411 C417 1.363 . S
C412 C413 1.363 . S
C412 C417 1.379 1_565 S
C412 N419 1.356 . S
C413 C412 1.363 . S
C413 C416 1.363 . S
N414 C416 1.356 . S
N414 H426 0.984 . S
N414 H427 0.985 . S
N415 C417 1.356 . S
N415 H420 0.984 . S
N415 H421 0.985 . S
C416 C410 1.379 . S
C416 C413 1.363 . S
C416 N414 1.356 . S
C417 C411 1.363 . S
C417 C412 1.379 1_545 S
C417 N415 1.356 . S
N418 C410 1.356 . S
N418 H424 0.984 . S
N418 H425 0.984 . S
N419 C412 1.356 . S
N419 H422 0.984 . S
N419 H423 0.985 1_565 S
H420 N415 0.984 . S
H421 N415 0.985 . S
H422 N419 0.984 . S
H423 N419 0.985 1_545 S
H424 N418 0.984 . S
H425 N418 0.984 . S
H426 N414 0.984 . S
H427 N414 0.985 . S
C428 C429 1.363 . S
C428 C434 1.379 . S
C428 N436 1.356 . S
C429 C428 1.363 . S
C429 C435 1.363 . S
C430 C431 1.363 . S
C430 C435 1.379 . S
C430 N437 1.356 . S
C431 C430 1.363 . S
C431 C434 1.363 . S
N432 C434 1.356 . S
N432 H444 0.984 . S
N432 H445 0.985 . S
N433 C435 1.356 . S
N433 H438 0.984 . S
N433 H439 0.985 . S
C434 C428 1.379 . S
C434 C431 1.363 . S
C434 N432 1.356 . S
C435 C429 1.363 . S
C435 C430 1.379 . S
C435 N433 1.356 . S
N436 C428 1.356 . S
N436 H442 0.984 . S
N436 H443 0.984 . S
N437 C430 1.356 . S
N437 H440 0.984 . S
N437 H441 0.985 . S
H438 N433 0.984 . S
H439 N433 0.985 . S
H440 N437 0.984 . S
H441 N437 0.985 . S
H442 N436 0.984 . S
H443 N436 0.984 . S
H444 N432 0.984 . S
H445 N432 0.985 . S
C446 C447 1.363 . S
C446 C452 1.379 . S
C446 N454 1.356 . S
C447 C446 1.363 . S
C447 C453 1.363 . S
C448 C449 1.363 . S
C448 C453 1.379 . S
C448 N455 1.356 . S
C449 C448 1.363 . S
C449 C452 1.363 . S
N450 C452 1.356 . S
N450 H462 0.984 . S
N450 H463 0.985 . S
N451 C453 1.356 . S
N451 H456 0.984 . S
N451 H457 0.985 . S
C452 C446 1.379 . S
C452 C449 1.363 . S
C452 N450 1.356 . S
C453 C447 1.363 . S
C453 C448 1.379 . S
C453 N451 1.356 . S
N454 C446 1.356 . S
N454 H460 0.984 . S
N454 H461 0.984 . S
N455 C448 1.356 . S
N455 H458 0.984 . S
N455 H459 0.985 . S
H456 N451 0.984 . S
H457 N451 0.985 . S
H458 N455 0.984 . S
H459 N455 0.985 . S
H460 N454 0.984 . S
H461 N454 0.984 . S
H462 N450 0.984 . S
H463 N450 0.985 . S
C464 C465 1.363 . S
C464 C470 1.379 . S
C464 N472 1.356 . S
C465 C464 1.363 . S
C465 C471 1.363 . S
C466 C467 1.363 . S
C466 C471 1.379 . S
C466 N473 1.356 . S
C467 C466 1.363 . S
C467 C470 1.363 . S
N468 C470 1.356 . S
N468 H480 0.984 . S
N468 H481 0.985 . S
N469 C471 1.356 . S
N469 H474 0.984 . S
N469 H475 0.985 . S
C470 C464 1.379 . S
C470 C467 1.363 . S
C470 N468 1.356 . S
C471 C465 1.363 . S
C471 C466 1.379 . S
C471 N469 1.356 . S
N472 C464 1.356 . S
N472 H478 0.984 . S
N472 H479 0.984 . S
N473 C466 1.356 . S
N473 H476 0.984 . S
N473 H477 0.985 . S
H474 N469 0.984 . S
H475 N469 0.985 . S
H476 N473 0.984 . S
H477 N473 0.985 . S
H478 N472 0.984 . S
H479 N472 0.984 . S
H480 N468 0.984 . S
H481 N468 0.985 . S
C482 C483 1.363 . S
C482 C488 1.379 . S
C482 N490 1.356 . S
C483 C482 1.363 . S
C483 C489 1.363 . S
C484 C485 1.363 . S
C484 C489 1.379 . S
C484 N491 1.356 . S
C485 C484 1.363 . S
C485 C488 1.363 . S
N486 C488 1.356 . S
N486 H498 0.984 . S
N486 H499 0.985 . S
N487 C489 1.356 . S
N487 H492 0.984 . S
N487 H493 0.985 . S
C488 C482 1.379 . S
C488 C485 1.363 . S
C488 N486 1.356 . S
C489 C483 1.363 . S
C489 C484 1.379 . S
C489 N487 1.356 . S
N490 C482 1.356 . S
N490 H496 0.984 . S
N490 H497 0.984 . S
N491 C484 1.356 . S
N491 H494 0.984 . S
N491 H495 0.985 . S
H492 N487 0.984 . S
H493 N487 0.985 . S
H494 N491 0.984 . S
H495 N491 0.985 . S
H496 N490 0.984 . S
H497 N490 0.984 . S
H498 N486 0.984 . S
H499 N486 0.985 . S
C500 C501 1.363 . S
C500 C506 1.379 . S
C500 N508 1.356 1_565 S
C501 C500 1.363 . S
C501 C507 1.363 . S
C502 C503 1.363 . S
C502 C507 1.379 . S
C502 N509 1.356 . S
C503 C502 1.363 . S
C503 C506 1.363 . S
N504 C506 1.356 . S
N504 H516 0.984 . S
N504 H517 0.985 . S
N505 C507 1.356 . S
N505 H510 0.984 . S
N505 H511 0.985 . S
C506 C500 1.379 . S
C506 C503 1.363 . S
C506 N504 1.356 . S
C507 C501 1.363 . S
C507 C502 1.379 . S
C507 N505 1.356 . S
N508 C500 1.356 1_545 S
N508 H514 0.984 . S
N508 H515 0.984 . S
N509 C502 1.356 . S
N509 H512 0.984 . S
N509 H513 0.985 . S
H510 N505 0.984 . S
H511 N505 0.985 . S
H512 N509 0.984 . S
H513 N509 0.985 . S
H514 N508 0.984 . S
H515 N508 0.984 . S
H516 N504 0.984 . S
H517 N504 0.985 . S
C518 C519 1.363 . S
C518 C524 1.379 . S
C518 N526 1.356 . S
C519 C518 1.363 . S
C519 C525 1.363 . S
C520 C521 1.363 . S
C520 C525 1.379 . S
C520 N527 1.356 . S
C521 C520 1.363 . S
C521 C524 1.363 . S
N522 C524 1.356 . S
N522 H534 0.984 . S
N522 H535 0.985 . S
N523 C525 1.356 . S
N523 H528 0.984 . S
N523 H529 0.985 . S
C524 C518 1.379 . S
C524 C521 1.363 . S
C524 N522 1.356 . S
C525 C519 1.363 . S
C525 C520 1.379 . S
C525 N523 1.356 . S
N526 C518 1.356 . S
N526 H532 0.984 1_545 S
N526 H533 0.984 . S
N527 C520 1.356 . S
N527 H530 0.984 . S
N527 H531 0.985 . S
H528 N523 0.984 . S
H529 N523 0.985 . S
H530 N527 0.984 . S
H531 N527 0.985 . S
H532 N526 0.984 1_565 S
H533 N526 0.984 . S
H534 N522 0.984 . S
H535 N522 0.985 . S
C536 C537 1.363 . S
C536 C542 1.379 . S
C536 N544 1.356 . S
C537 C536 1.363 . S
C537 C543 1.363 1_554 S
C538 C539 1.363 1_655 S
C538 C543 1.379 1_655 S
C538 N545 1.356 . S
C539 C538 1.363 1_455 S
C539 C542 1.363 1_556 S
N540 C542 1.356 . S
N540 H552 0.984 . S
N540 H553 0.985 . S
N541 C543 1.356 1_655 S
N541 H546 0.984 1_655 S
N541 H547 0.985 . S
C542 C536 1.379 . S
C542 C539 1.363 1_554 S
C542 N540 1.356 . S
C543 C537 1.363 1_556 S
C543 C538 1.379 1_455 S
C543 N541 1.356 1_455 S
N544 C536 1.356 . S
N544 H550 0.984 . S
N544 H551 0.984 . S
N545 C538 1.356 . S
N545 H548 0.984 . S
N545 H549 0.985 . S
H546 N541 0.984 1_455 S
H547 N541 0.985 . S
H548 N545 0.984 . S
H549 N545 0.985 . S
H550 N544 0.984 . S
H551 N544 0.984 . S
H552 N540 0.984 . S
H553 N540 0.985 . S
C554 C555 1.363 . S
C554 C560 1.379 . S
C554 N562 1.356 . S
C555 C554 1.363 . S
C555 C561 1.363 . S
C556 C557 1.363 . S
C556 C561 1.379 . S
C556 N563 1.356 . S
C557 C556 1.363 . S
C557 C560 1.363 . S
N558 C560 1.356 . S
N558 H570 0.984 . S
N558 H571 0.985 . S
N559 C561 1.356 . S
N559 H564 0.984 . S
N559 H565 0.985 . S
C560 C554 1.379 . S
C560 C557 1.363 . S
C560 N558 1.356 . S
C561 C555 1.363 . S
C561 C556 1.379 . S
C561 N559 1.356 . S
N562 C554 1.356 . S
N562 H568 0.984 . S
N562 H569 0.984 . S
N563 C556 1.356 . S
N563 H566 0.984 1_565 S
N563 H567 0.985 . S
H564 N559 0.984 . S
H565 N559 0.985 . S
H566 N563 0.984 1_545 S
H567 N563 0.985 . S
H568 N562 0.984 . S
H569 N562 0.984 . S
H570 N558 0.984 . S
H571 N558 0.985 . S
C572 C573 1.363 . S
C572 C578 1.379 . S
C572 N580 1.356 . S
C573 C572 1.363 . S
C573 C579 1.363 . S
C574 C575 1.363 . S
C574 C579 1.379 . S
C574 N581 1.356 . S
C575 C574 1.363 . S
C575 C578 1.363 . S
N576 C578 1.356 . S
N576 H588 0.984 . S
N576 H589 0.985 . S
N577 C579 1.356 . S
N577 H582 0.984 . S
N577 H583 0.985 . S
C578 C572 1.379 . S
C578 C575 1.363 . S
C578 N576 1.356 . S
C579 C573 1.363 . S
C579 C574 1.379 . S
C579 N577 1.356 . S
N580 C572 1.356 . S
N580 H586 0.984 . S
N580 H587 0.984 1_545 S
N581 C574 1.356 . S
N581 H584 0.984 . S
N581 H585 0.985 . S
H582 N577 0.984 . S
H583 N577 0.985 . S
H584 N581 0.984 . S
H585 N581 0.985 . S
H586 N580 0.984 . S
H587 N580 0.984 1_565 S
H588 N576 0.984 . S
H589 N576 0.985 . S
C590 C591 1.363 . S
C590 C596 1.379 1_565 S
C590 N598 1.356 . S
C591 C590 1.363 . S
C591 C597 1.363 1_455 S
C592 C593 1.363 . S
C592 C597 1.379 1_445 S
C592 N599 1.356 1_455 S
C593 C592 1.363 . S
C593 C596 1.363 . S
N594 C596 1.356 . S
N594 H606 0.984 . S
N594 H607 0.985 . S
N595 C597 1.356 . S
N595 H600 0.984 . S
N595 H601 0.985 . S
C596 C590 1.379 1_545 S
C596 C593 1.363 . S
C596 N594 1.356 . S
C597 C591 1.363 1_655 S
C597 C592 1.379 1_665 S
C597 N595 1.356 . S
N598 C590 1.356 . S
N598 H604 0.984 . S
N598 H605 0.984 . S
N599 C592 1.356 1_655 S
N599 H602 0.984 1_655 S
N599 H603 0.985 . S
H600 N595 0.984 . S
H601 N595 0.985 . S
H602 N599 0.984 1_455 S
H603 N599 0.985 . S
H604 N598 0.984 . S
H605 N598 0.984 . S
H606 N594 0.984 . S
H607 N594 0.985 . S
C608 C609 1.363 . S
C608 C614 1.379 . S
C608 N616 1.356 . S
C609 C608 1.363 . S
C609 C615 1.363 . S
C610 C611 1.363 . S
C610 C615 1.379 . S
C610 N617 1.356 . S
C611 C610 1.363 . S
C611 C614 1.363 . S
N612 C614 1.356 . S
N612 H624 0.984 . S
N612 H625 0.985 . S
N613 C615 1.356 . S
N613 H618 0.984 1_545 S
N613 H619 0.985 . S
C614 C608 1.379 . S
C614 C611 1.363 . S
C614 N612 1.356 . S
C615 C609 1.363 . S
C615 C610 1.379 . S
C615 N613 1.356 . S
N616 C608 1.356 . S
N616 H622 0.984 . S
N616 H623 0.984 . S
N617 C610 1.356 . S
N617 H620 0.984 . S
N617 H621 0.985 . S
H618 N613 0.984 1_565 S
H619 N613 0.985 . S
H620 N617 0.984 . S
H621 N617 0.985 . S
H622 N616 0.984 . S
H623 N616 0.984 . S
H624 N612 0.984 . S
H625 N612 0.985 . S
C626 C627 1.363 . S
C626 C632 1.379 . S
C626 N634 1.356 . S
C627 C626 1.363 . S
C627 C633 1.363 . S
C628 C629 1.363 . S
C628 C633 1.379 . S
C628 N635 1.356 . S
C629 C628 1.363 . S
C629 C632 1.363 . S
N630 C632 1.356 . S
N630 H642 0.984 . S
N630 H643 0.985 . S
N631 C633 1.356 . S
N631 H636 0.984 . S
N631 H637 0.985 . S
C632 C626 1.379 . S
C632 C629 1.363 . S
C632 N630 1.356 . S
C633 C627 1.363 . S
C633 C628 1.379 . S
C633 N631 1.356 . S
N634 C626 1.356 . S
N634 H640 0.984 . S
N634 H641 0.984 . S
N635 C628 1.356 . S
N635 H638 0.984 1_565 S
N635 H639 0.985 . S
H636 N631 0.984 . S
H637 N631 0.985 . S
H638 N635 0.984 1_545 S
H639 N635 0.985 . S
H640 N634 0.984 . S
H641 N634 0.984 . S
H642 N630 0.984 . S
H643 N630 0.985 . S
C644 C645 1.363 . S
C644 C650 1.379 . S
C644 N652 1.356 . S
C645 C644 1.363 . S
C645 C651 1.363 . S
C646 C647 1.363 . S
C646 C651 1.379 . S
C646 N653 1.356 . S
C647 C646 1.363 . S
C647 C650 1.363 . S
N648 C650 1.356 . S
N648 H660 0.984 . S
N648 H661 0.985 . S
N649 C651 1.356 . S
N649 H654 0.984 . S
N649 H655 0.985 . S
C650 C644 1.379 . S
C650 C647 1.363 . S
C650 N648 1.356 . S
C651 C645 1.363 . S
C651 C646 1.379 . S
C651 N649 1.356 . S
N652 C644 1.356 . S
N652 H658 0.984 . S
N652 H659 0.984 . S
N653 C646 1.356 . S
N653 H656 0.984 . S
N653 H657 0.985 . S
H654 N649 0.984 . S
H655 N649 0.985 . S
H656 N653 0.984 . S
H657 N653 0.985 . S
H658 N652 0.984 . S
H659 N652 0.984 . S
H660 N648 0.984 . S
H661 N648 0.985 . S
C662 C663 1.363 1_554 S
C662 C668 1.379 1_565 S
C662 N670 1.356 . S
C663 C662 1.363 1_556 S
C663 C669 1.363 . S
C664 C665 1.363 1_556 S
C664 C669 1.379 1_545 S
C664 N671 1.356 . S
C665 C664 1.363 1_554 S
C665 C668 1.363 . S
N666 C668 1.356 . S
N666 H678 0.984 . S
N666 H679 0.985 . S
N667 C669 1.356 . S
N667 H672 0.984 . S
N667 H673 0.985 . S
C668 C662 1.379 1_545 S
C668 C665 1.363 . S
C668 N666 1.356 . S
C669 C663 1.363 . S
C669 C664 1.379 1_565 S
C669 N667 1.356 . S
N670 C662 1.356 . S
N670 H676 0.984 . S
N670 H677 0.984 . S
N671 C664 1.356 . S
N671 H674 0.984 . S
N671 H675 0.985 . S
H672 N667 0.984 . S
H673 N667 0.985 . S
H674 N671 0.984 . S
H675 N671 0.985 . S
H676 N670 0.984 . S
H677 N670 0.984 . S
H678 N666 0.984 . S
H679 N666 0.985 . S
C680 C681 1.363 . S
C680 C686 1.379 . S
C680 N688 1.356 . S
C681 C680 1.363 . S
C681 C687 1.363 1_556 S
C682 C683 1.363 . S
C682 C687 1.379 . S
C682 N689 1.356 . S
C683 C682 1.363 . S
C683 C686 1.363 1_554 S
N684 C686 1.356 . S
N684 H696 0.984 1_545 S
N684 H697 0.985 . S
N685 C687 1.356 . S
N685 H690 0.984 . S
N685 H691 0.985 . S
C686 C680 1.379 . S
C686 C683 1.363 1_556 S
C686 N684 1.356 . S
C687 C681 1.363 1_554 S
C687 C682 1.379 . S
C687 N685 1.356 . S
N688 C680 1.356 . S
N688 H694 0.984 1_545 S
N688 H695 0.984 . S
N689 C682 1.356 . S
N689 H692 0.984 . S
N689 H693 0.985 . S
H690 N685 0.984 . S
H691 N685 0.985 . S
H692 N689 0.984 . S
H693 N689 0.985 . S
H694 N688 0.984 1_565 S
H695 N688 0.984 . S
H696 N684 0.984 1_565 S
H697 N684 0.985 . S
C698 C699 1.363 . S
C698 C704 1.379 . S
C698 N706 1.356 . S
C699 C698 1.363 . S
C699 C705 1.363 1_556 S
C700 C701 1.363 . S
C700 C705 1.379 . S
C700 N707 1.356 . S
C701 C700 1.363 . S
C701 C704 1.363 1_554 S
N702 C704 1.356 . S
N702 H714 0.984 . S
N702 H715 0.985 . S
N703 C705 1.356 . S
N703 H708 0.984 . S
N703 H709 0.985 . S
C704 C698 1.379 . S
C704 C701 1.363 1_556 S
C704 N702 1.356 . S
C705 C699 1.363 1_554 S
C705 C700 1.379 . S
C705 N703 1.356 . S
N706 C698 1.356 . S
N706 H712 0.984 . S
N706 H713 0.984 . S
N707 C700 1.356 . S
N707 H710 0.984 . S
N707 H711 0.985 . S
H708 N703 0.984 . S
H709 N703 0.985 . S
H710 N707 0.984 . S
H711 N707 0.985 . S
H712 N706 0.984 . S
H713 N706 0.984 . S
H714 N702 0.984 . S
H715 N702 0.985 . S
C716 C717 1.363 . S
C716 C722 1.379 . S
C716 N724 1.356 . S
C717 C716 1.363 . S
C717 C723 1.363 . S
C718 C719 1.363 . S
C718 C723 1.379 1_655 S
C718 N725 1.356 . S
C719 C718 1.363 . S
C719 C722 1.363 1_655 S
N720 C722 1.356 1_655 S
N720 H732 0.984 . S
N720 H733 0.985 . S
N721 C723 1.356 . S
N721 H726 0.984 . S
N721 H727 0.985 . S
C722 C716 1.379 . S
C722 C719 1.363 1_455 S
C722 N720 1.356 1_455 S
C723 C717 1.363 . S
C723 C718 1.379 1_455 S
C723 N721 1.356 . S
N724 C716 1.356 . S
N724 H730 0.984 . S
N724 H731 0.984 . S
N725 C718 1.356 . S
N725 H728 0.984 . S
N725 H729 0.985 . S
H726 N721 0.984 . S
H727 N721 0.985 . S
H728 N725 0.984 . S
H729 N725 0.985 . S
H730 N724 0.984 . S
H731 N724 0.984 . S
H732 N720 0.984 . S
H733 N720 0.985 . S
C734 C735 1.363 . S
C734 C740 1.379 . S
C734 N742 1.356 . S
C735 C734 1.363 . S
C735 C741 1.363 . S
C736 C737 1.363 . S
C736 C741 1.379 . S
C736 N743 1.356 . S
C737 C736 1.363 . S
C737 C740 1.363 . S
N738 C740 1.356 . S
N738 H750 0.984 . S
N738 H751 0.985 . S
N739 C741 1.356 . S
N739 H744 0.984 . S
N739 H745 0.985 . S
C740 C734 1.379 . S
C740 C737 1.363 . S
C740 N738 1.356 . S
C741 C735 1.363 . S
C741 C736 1.379 . S
C741 N739 1.356 . S
N742 C734 1.356 . S
N742 H748 0.984 . S
N742 H749 0.984 . S
N743 C736 1.356 . S
N743 H746 0.984 . S
N743 H747 0.985 . S
H744 N739 0.984 . S
H745 N739 0.985 . S
H746 N743 0.984 . S
H747 N743 0.985 . S
H748 N742 0.984 . S
H749 N742 0.984 . S
H750 N738 0.984 . S
H751 N738 0.985 . S
C752 C753 1.363 . S
C752 C758 1.379 . S
C752 N760 1.356 . S
C753 C752 1.363 . S
C753 C759 1.363 . S
C754 C755 1.363 . S
C754 C759 1.379 . S
C754 N761 1.356 . S
C755 C754 1.363 . S
C755 C758 1.363 . S
N756 C758 1.356 . S
N756 H768 0.984 . S
N756 H769 0.985 . S
N757 C759 1.356 . S
N757 H762 0.984 . S
N757 H763 0.985 . S
C758 C752 1.379 . S
C758 C755 1.363 . S
C758 N756 1.356 . S
C759 C753 1.363 . S
C759 C754 1.379 . S
C759 N757 1.356 . S
N760 C752 1.356 . S
N760 H766 0.984 . S
N760 H767 0.984 . S
N761 C754 1.356 . S
N761 H764 0.984 . S
N761 H765 0.985 1_545 S
H762 N757 0.984 . S
H763 N757 0.985 . S
H764 N761 0.984 . S
H765 N761 0.985 1_565 S
H766 N760 0.984 . S
H767 N760 0.984 . S
H768 N756 0.984 . S
H769 N756 0.985 . S
C770 C771 1.363 1_565 S
C770 C776 1.379 1_655 S
C770 N778 1.356 . S
C771 C770 1.363 1_545 S
C771 C777 1.377 . S
C772 C773 1.363 1_545 S
C772 C777 1.359 1_455 S
C772 N779 1.356 . S
C773 C772 1.363 1_565 S
C773 C776 1.363 . S
N774 C776 1.356 . S
N774 H786 0.984 . S
N774 H787 0.985 . S
N775 C777 1.368 . S
N775 H780 0.984 . S
N775 H781 0.985 . S
C776 C770 1.379 1_455 S
C776 C773 1.363 . S
C776 N774 1.356 . S
C777 C771 1.377 . S
C777 C772 1.359 1_655 S
C777 N775 1.368 . S
N778 C770 1.356 . S
N778 H784 0.984 . S
N778 H785 0.984 . S
N779 C772 1.356 . S
N779 H782 0.984 . S
N779 H783 0.985 . S
H780 N775 0.984 . S
H781 N775 0.985 . S
H782 N779 0.984 . S
H783 N779 0.985 . S
H784 N778 0.984 . S
H785 N778 0.984 . S
H786 N774 0.984 . S
H787 N774 0.985 . S
C788 C789 1.363 . S
C788 C794 1.379 . S
C788 N796 1.356 . S
C789 C788 1.363 . S
C789 C795 1.363 . S
C790 C791 1.363 . S
C790 C795 1.379 . S
C790 N797 1.356 . S
C791 C790 1.363 . S
C791 C794 1.363 . S
N792 C794 1.356 . S
N792 H804 0.984 . S
N792 H805 0.985 . S
N793 C795 1.356 . S
N793 H798 0.984 . S
N793 H799 0.985 . S
C794 C788 1.379 . S
C794 C791 1.363 . S
C794 N792 1.356 . S
C795 C789 1.363 . S
C795 C790 1.379 . S
C795 N793 1.356 . S
N796 C788 1.356 . S
N796 H802 0.984 . S
N796 H803 0.984 . S
N797 C790 1.356 . S
N797 H800 0.984 . S
N797 H801 0.985 . S
H798 N793 0.984 . S
H799 N793 0.985 . S
H800 N797 0.984 . S
H801 N797 0.985 . S
H802 N796 0.984 . S
H803 N796 0.984 . S
H804 N792 0.984 . S
H805 N792 0.985 . S
C806 C807 1.367 . S
C806 C812 1.377 1_565 S
C806 N814 1.356 1_565 S
C807 C806 1.367 . S
C807 C813 1.363 . S
C808 C809 1.363 1_565 S
C808 C813 1.379 . S
C808 N815 1.356 . S
C809 C808 1.363 1_545 S
C809 C812 1.363 . S
N810 C812 1.356 . S
N810 H822 0.984 . S
N810 H823 0.985 . S
N811 C813 1.356 . S
N811 H816 0.984 . S
N811 H817 0.985 . S
C812 C806 1.377 1_545 S
C812 C809 1.363 . S
C812 N810 1.356 . S
C813 C807 1.363 . S
C813 C808 1.379 . S
C813 N811 1.356 . S
N814 C806 1.356 1_545 S
N814 H820 0.984 . S
N814 H821 0.984 1_545 S
N815 C808 1.356 . S
N815 H818 0.984 . S
N815 H819 0.985 . S
H816 N811 0.984 . S
H817 N811 0.985 . S
H818 N815 0.984 . S
H819 N815 0.985 . S
H820 N814 0.984 . S
H821 N814 0.984 1_565 S
H822 N810 0.984 . S
H823 N810 0.985 . S
C249 C20 1.386 . S
C251 C41 1.450 . S
C267 C19 1.717 . S
C269 C82 1.758 . S
C285 C123 1.450 . S
C287 C32 1.386 . S
C303 C62 1.717 . S
C305 C94 1.758 . S
C321 C113 1.387 . S
C323 C154 1.450 . S
C339 C156 1.758 . S
C341 C112 1.717 . S
C357 C144 1.386 . S
C359 C30 1.450 . S
C375 C174 1.717 . S
C377 C1 1.758 . S
C393 C185 1.450 . S
C395 C206 1.386 . S
C411 C205 1.717 . S
C413 C125 1.758 . S
C429 C247 1.450 . S
C431 C175 1.387 . S
C447 C218 1.758 . S
C449 C143 1.717 . S
C465 C237 1.386 . S
C467 C72 1.449 . S
C483 C51 1.758 . S
C485 C236 1.717 . S
C501 C216 1.450 . S
C503 C63 1.386 . S
C519 C187 1.758 . S
C521 C31 1.717 . S
C537 C10 1.089 . S
C539 C0 1.075 . S
C555 C50 1.075 . S
C557 C61 1.089 . S
C573 C81 1.075 . S
C575 C92 1.089 . S
C591 C93 1.075 . S
C593 C103 1.089 . S
C609 C124 1.075 . S
C611 C134 1.089 . S
C627 C155 1.075 . S
C629 C165 1.089 . S
C645 C196 1.089 . S
C647 C186 1.075 . S
C663 C217 1.075 . S
C665 C227 1.089 . S
C681 C219 1.597 . S
C683 C29 1.615 . S
C699 C2 1.597 . S
C701 C246 1.615 . S
C717 C33 1.615 . S
C719 C91 1.597 . S
C735 C188 1.597 . S
C737 C122 1.615 . S
C753 C95 1.597 . S
C755 C215 1.615 . S
C771 C157 1.597 . S
C773 C153 1.615 . S
C789 C184 1.615 . S
C791 C126 1.597 . S
C807 C64 1.615 . S
C809 C60 1.597 . S
