# Generated by pormake.
# Topology bsn, (6)-cn, num edge types: 1
# Building blocks:
#     Node 0, Type 0, BuildingBlock: PAMTOO_clean_sbu_0, # of connection points: 6
#     Node 1, Type 0, BuildingBlock: PAMTOO_clean_sbu_0, # of connection points: 6
#     Node 2, Type 0, BuildingBlock: PAMTOO_clean_sbu_0, # of connection points: 6
#     Node 3, Type 0, BuildingBlock: PAMTOO_clean_sbu_0, # of connection points: 6
#     Edge 4, Type (0, 0), BuildingBlock: UVAHIK_clean_linker_0, # of connection points: 2
#     Edge 5, Type (0, 0), BuildingBlock: UVAHIK_clean_linker_0, # of connection points: 2
#     Edge 6, Type (0, 0), BuildingBlock: UVAHIK_clean_linker_0, # of connection points: 2
#     Edge 7, Type (0, 0), BuildingBlock: UVAHIK_clean_linker_0, # of connection points: 2
#     Edge 8, Type (0, 0), BuildingBlock: UVAHIK_clean_linker_0, # of connection points: 2
#     Edge 9, Type (0, 0), BuildingBlock: UVAHIK_clean_linker_0, # of connection points: 2
#     Edge 10, Type (0, 0), BuildingBlock: UVAHIK_clean_linker_0, # of connection points: 2
#     Edge 11, Type (0, 0), BuildingBlock: UVAHIK_clean_linker_0, # of connection points: 2
#     Edge 12, Type (0, 0), BuildingBlock: UVAHIK_clean_linker_0, # of connection points: 2
#     Edge 13, Type (0, 0), BuildingBlock: UVAHIK_clean_linker_0, # of connection points: 2
#     Edge 14, Type (0, 0), BuildingBlock: UVAHIK_clean_linker_0, # of connection points: 2
#     Edge 15, Type (0, 0), BuildingBlock: UVAHIK_clean_linker_0, # of connection points: 2
# Relax obj value: 0.044
# Max RMSD: 0.152
# Mean RMSD: 0.152
data_MOF--net-bsn--node1-PAMTOO_clean_sbu_0--edge1-UVAHIK_clean_linker_0
_symmetry_space_group_name_H-M    P1
_symmetry_Int_Tables_number       1
_symmetry_cell_setting            triclinic
loop_
_symmetry_equiv_pos_as_xyz
'x, y, z'
_cell_length_a     59.849098
_cell_length_b     37.858502
_cell_length_c     18.756997
_cell_angle_alpha  84.257191
_cell_angle_beta   96.606183
_cell_angle_gamma 118.49334
loop_
_atom_site_label
_atom_site_type_symbol
_atom_site_fract_x
_atom_site_fract_y
_atom_site_fract_z
_atom_type_partial_charge
Dy0 Dy 0.10728 0.29383 0.37269 0.0
Dy1 Dy 0.04351 0.2527 0.36108 0.0
C2 C 0.07265 0.24335 0.24151 0.0
O3 O 0.09735 0.3437 0.37365 0.0
O4 O 0.05901 0.31422 0.30768 0.0
O5 O 0.14281 0.3359 0.32741 0.0
O6 O 0.14297 0.30057 0.42553 0.0
O7 O 0.05696 0.28775 0.45902 0.0
O8 O 0.09562 0.28797 0.48322 0.0
O9 O 0.05327 0.20894 0.42694 0.0
O10 O 0.09293 0.22736 0.38941 0.0
O11 O 1.0072 0.22485 0.40849 0.0
O12 O 1.00878 0.2338 0.29261 0.0
C13 C 0.07816 0.34612 0.33602 0.0
O14 O 0.09254 0.27711 0.2603 0.0
O15 O 0.05366 0.22396 0.28224 0.0
C16 C 0.17584 0.31767 0.34931 0.0
C17 C 0.21412 0.30262 0.30589 0.0
C18 C 0.18854 0.27214 0.30498 0.0
C19 C 0.16957 0.27961 0.3265 0.0
C20 C 0.20112 0.34829 0.34897 0.0
C21 C 0.22006 0.34092 0.32742 0.0
C22 C 0.15654 0.32577 0.3757 0.0
C23 C 0.07609 0.2902 0.50383 0.0
C24 C 0.0724 0.20162 0.42175 0.0
C25 C 0.97412 0.2344 0.34177 0.0
C26 C 0.93221 0.25023 0.32388 0.0
C27 C 0.93219 0.21979 0.37342 0.0
C28 C 0.95292 0.21189 0.38203 0.0
C29 C 0.97466 0.26592 0.29429 0.0
C30 C 0.95384 0.27366 0.28527 0.0
C31 C 0.99438 0.22244 0.3464 0.0
H32 H 0.18327 0.24223 0.28936 0.0
H33 H 0.15011 0.25555 0.32636 0.0
H34 H 0.2063 0.37792 0.36609 0.0
H35 H 0.2394 0.36532 0.32758 0.0
H36 H 0.91573 0.20101 0.40349 0.0
H37 H 0.95208 0.18737 0.41875 0.0
H38 H 0.99088 0.28397 0.26289 0.0
H39 H 0.95454 0.29766 0.24742 0.0
Dy40 Dy 0.07943 0.76152 0.57577 0.0
Dy41 Dy 1.01609 0.71639 0.5875 0.0
C42 C 0.03991 0.7598 0.44116 0.0
O43 O 0.06908 0.81074 0.56205 0.0
O44 O 0.0314 0.78036 0.61759 0.0
O45 O 0.11152 0.76944 0.52187 0.0
O46 O 0.11775 0.80299 0.61584 0.0
O47 O 0.03522 0.69866 0.68167 0.0
O48 O 0.07163 0.75776 0.68991 0.0
O49 O 1.02504 0.67409 0.53538 0.0
O50 O 0.06575 0.69557 0.58713 0.0
O51 O 0.98633 0.69499 0.65998 0.0
O52 O 0.97645 0.68467 0.54647 0.0
C53 C 0.05108 0.81269 0.59266 0.0
O54 O 0.06134 0.75923 0.46446 0.0
O55 O 1.0214 0.75046 0.48237 0.0
C56 C 0.15028 0.78778 0.59337 0.0
C57 C 0.19396 0.77768 0.63133 0.0
C58 C 0.16969 0.74398 0.62261 0.0
C59 C 0.14801 0.74899 0.60379 0.0
C60 C 0.1743 0.82133 0.60391 0.0
C61 C 0.19593 0.81637 0.62281 0.0
C62 C 0.12828 0.79428 0.56798 0.0
C63 C 0.05356 0.72612 0.72081 0.0
C64 C 0.04536 0.66895 0.55155 0.0
C65 C 0.94771 0.69308 0.61174 0.0
C66 C 0.90873 0.71277 0.62976 0.0
C67 C 0.93414 0.74315 0.62494 0.0
C68 C 0.95345 0.7334 0.61596 0.0
C69 C 0.9224 0.66283 0.615 0.0
C70 C 0.90309 0.67252 0.62383 0.0
C71 C 0.96798 0.68178 0.60903 0.0
H72 H 0.16753 0.71378 0.62826 0.0
H73 H 0.12959 0.72266 0.59598 0.0
H74 H 0.17639 0.85149 0.59635 0.0
H75 H 0.21423 0.84292 0.63044 0.0
H76 H 0.93914 0.77448 0.62834 0.0
H77 H 0.97292 0.75721 0.6136 0.0
H78 H 0.91764 0.63152 0.61239 0.0
H79 H 0.88386 0.64828 0.62825 0.0
Dy80 Dy 0.59837 0.78964 0.82261 0.0
Dy81 Dy 0.5349 0.74491 0.83486 0.0
C82 C 0.56051 0.77484 0.68948 0.0
O83 O 0.58954 0.83355 0.86922 0.0
O84 O 0.5486 0.8108 0.81813 0.0
O85 O 0.62751 0.80784 0.74916 0.0
O86 O 0.63823 0.82379 0.86035 0.0
O87 O 0.5531 0.74833 0.94653 0.0
O88 O 0.59364 0.75884 0.93032 0.0
O89 O 0.54489 0.69545 0.85483 0.0
O90 O 0.58366 0.72409 0.80453 0.0
O91 O 0.50297 0.7377 0.88874 0.0
O92 O 0.49645 0.70403 0.7947 0.0
C93 C 0.56925 0.83853 0.85092 0.0
O94 O 0.5783 0.80391 0.72673 0.0
O95 O 0.54265 0.74394 0.72238 0.0
C96 C 0.66679 0.81279 0.79883 0.0
C97 C 0.70627 0.79361 0.78456 0.0
C98 C 0.68094 0.76299 0.78971 0.0
C99 C 0.66138 0.7725 0.79684 0.0
C100 C 0.69204 0.84329 0.79564 0.0
C101 C 0.7116 0.83385 0.78869 0.0
C102 C 0.64622 0.82375 0.79845 0.0
C103 C 0.57483 0.74892 -0.02929 0.0
C104 C 0.56373 0.6927 0.83084 0.0
C105 C 0.46425 0.71998 0.81738 0.0
C106 C 0.42086 0.73095 0.78009 0.0
C107 C 0.44525 0.76438 0.78867 0.0
C108 C 0.4668 0.75895 0.80716 0.0
C109 C 0.44011 0.6867 0.80693 0.0
C110 C 0.41863 0.69208 0.78835 0.0
C111 C 0.48609 0.71303 0.84263 0.0
H112 H 0.67619 0.73167 0.78771 0.0
H113 H 0.64198 0.74848 0.7992 0.0
H114 H 0.69656 0.87458 0.79657 0.0
H115 H 0.73077 0.85824 0.78406 0.0
H116 H 0.44762 0.7947 0.78319 0.0
H117 H 0.48531 0.78509 0.81491 0.0
H118 H 0.43781 0.65642 0.81434 0.0
H119 H 0.40022 0.66572 0.7808 0.0
Dy120 Dy 0.58764 0.26969 0.0956 0.0
Dy121 Dy 0.52412 0.22666 0.10606 0.0
C122 C 0.54843 0.26711 0.95893 0.0
O123 O 0.57845 0.32003 0.07515 0.0
O124 O 0.5394 0.29239 0.12372 0.0
O125 O 0.61934 0.27587 0.04138 0.0
O126 O 0.62619 0.30927 0.13595 0.0
O127 O 0.54357 0.21264 0.20376 0.0
O128 O 0.57987 0.27188 0.20749 0.0
O129 O 0.53262 0.18196 0.06106 0.0
O130 O 0.57319 0.20372 0.11424 0.0
O131 O 0.49454 0.20918 0.17766 0.0
O132 O 0.4844 0.19331 0.06633 0.0
C133 C 0.55966 0.32342 0.09807 0.0
O134 O 0.56969 0.26623 -0.01641 0.0
O135 O 0.52968 0.25814 -0.00106 0.0
C136 C 0.65808 0.29307 0.11129 0.0
C137 C 0.70055 0.28025 0.15293 0.0
C138 C 0.70127 0.30738 0.09512 0.0
C139 C 0.68025 0.31366 0.07456 0.0
C140 C 0.6571 0.26594 0.16913 0.0
C141 C 0.67825 0.25967 0.19001 0.0
C142 C 0.63637 0.30041 0.08729 0.0
C143 C 0.56158 0.24177 0.24053 0.0
C144 C 0.55255 0.17624 0.081 0.0
C145 C 0.45582 0.20554 0.12533 0.0
C146 C 0.41653 0.22555 0.13692 0.0
C147 C 0.44222 0.25555 0.13869 0.0
C148 C 0.46168 0.24565 0.13282 0.0
C149 C 0.43023 0.17577 0.12128 0.0
C150 C 0.41076 0.18565 0.12684 0.0
C151 C 0.4761 0.19376 0.12747 0.0
H152 H 0.71825 0.3242 0.06618 0.0
H153 H 0.68131 0.33475 0.02984 0.0
H154 H 0.64002 0.24962 0.19784 0.0
H155 H 0.67704 0.23837 0.23441 0.0
H156 H 0.44731 0.28665 0.14537 0.0
H157 H 0.48133 0.26913 0.13592 0.0
H158 H 0.42534 0.14462 0.11589 0.0
H159 H 0.39126 0.16173 0.12597 0.0
C160 C 0.05308 0.38402 0.30968 0.0
C161 C 0.07581 0.38333 0.33667 0.0
C162 C 0.04914 0.41649 0.32138 0.0
C163 C 0.08202 0.52159 0.38014 0.0
H164 H 1.01672 0.4932 0.45029 0.0
C165 C 0.0685 0.62966 0.54163 0.0
C166 C 0.0464 0.63411 0.52543 0.0
C167 C 0.0709 0.59941 0.51203 0.0
C168 C 0.03491 0.50169 0.42985 0.0
H169 H 0.11277 0.41735 0.39363 0.0
H170 H 0.10589 0.47369 0.41417 0.0
H171 H 1.02373 0.44115 0.40568 0.0
H172 H 1.00917 0.60932 0.46673 0.0
H173 H 1.01336 0.55601 0.41521 0.0
H174 H 0.0934 0.58192 0.40594 0.0
C175 C 0.09112 0.4493 0.38363 0.0
C176 C 0.03893 0.4719 0.40408 0.0
C177 C 0.09505 0.41685 0.37205 0.0
C178 C 1.02641 0.60669 0.48047 0.0
C179 C 0.0288 0.57616 0.45096 0.0
C180 C 0.07802 0.55129 0.40603 0.0
C181 C 0.06787 0.44906 0.36006 0.0
C182 C 0.06271 0.48138 0.38013 0.0
C183 C 0.05128 0.57267 0.46553 0.0
C184 C 0.0546 0.54155 0.43249 0.0
H185 H 0.03784 0.35875 0.28206 0.0
H186 H 0.03118 0.41567 0.30149 0.0
H187 H 0.10038 0.53007 0.36086 0.0
H188 H 0.08427 0.65004 0.57629 0.0
H189 H 0.08823 0.59699 0.52559 0.0
C190 C 0.75154 0.8049 0.80605 0.0
C191 C 0.7269 0.78393 0.77203 0.0
C192 C 0.77117 0.7971 0.7916 0.0
C193 C 0.78334 0.72128 0.71614 0.0
H194 H 0.8509 0.81102 0.6953 0.0
C195 C 0.8636 0.70213 0.6092 0.0
C196 C 0.88827 0.72265 0.64326 0.0
C197 C 0.8441 0.71002 0.62446 0.0
C198 C 0.83222 0.78555 0.70169 0.0
H199 H 0.70374 0.73833 0.69575 0.0
H200 H 0.73789 0.72475 0.6706 0.0
H201 H 0.81659 0.82332 0.72417 0.0
H202 H 0.91164 0.76769 0.72031 0.0
H203 H 0.8777 0.78152 0.74672 0.0
H204 H 0.79896 0.68353 0.69352 0.0
C205 C 0.74198 0.74683 0.70936 0.0
C206 C 0.81252 0.7926 0.71836 0.0
C207 C 0.72235 0.7546 0.72386 0.0
C208 C 0.893 0.75173 0.6922 0.0
C209 C 0.87349 0.75964 0.70745 0.0
C210 C 0.80303 0.71424 0.69943 0.0
C211 C 0.76671 0.76815 0.74268 0.0
C212 C 0.78779 0.76056 0.72575 0.0
C213 C 0.84873 0.73867 0.67419 0.0
C214 C 0.82774 0.74628 0.69188 0.0
H215 H 0.75565 0.82727 0.84425 0.0
H216 H 0.78983 0.8136 0.81926 0.0
H217 H 0.76467 0.69579 0.72252 0.0
H218 H 0.85934 0.68002 0.57034 0.0
H219 H 0.8254 0.69383 0.5968 0.0
C220 C 0.58349 0.39743 0.07209 0.0
C221 C 0.56032 0.36301 0.08558 0.0
C222 C 0.5839 0.43362 0.04692 0.0
C223 C 0.54301 0.47043 0.94292 0.0
H224 H 0.59651 0.57519 -0.00078 0.0
C225 C 0.54043 0.61856 0.8553 0.0
C226 C 0.56346 0.65336 0.84231 0.0
C227 C 0.54032 0.58248 0.87951 0.0
C228 C 0.58169 0.54615 -0.01789 0.0
H229 H 0.51954 0.34012 0.08728 0.0
H230 H 0.5203 0.40376 0.04383 0.0
H231 H 0.59512 0.51451 0.06143 0.0
H232 H 0.6043 0.6771 0.84042 0.0
H233 H 0.60408 0.6136 0.88222 0.0
H234 H 0.52957 0.50205 0.86362 0.0
C235 C 0.5381 0.40243 0.05186 0.0
C236 C 0.58079 0.51142 0.01809 0.0
C237 C 0.5377 0.36615 0.07751 0.0
C238 C 0.58625 0.65075 0.84984 0.0
C239 C 0.58616 0.61455 0.87453 0.0
C240 C 0.54392 0.50516 0.90692 0.0
C241 C 0.56114 0.4362 0.03447 0.0
C242 C 0.56141 0.47319 -0.00104 0.0
C243 C 0.56325 0.58035 0.89146 0.0
C244 C 0.56324 0.5434 0.92621 0.0
H245 H 0.60128 0.39604 0.07814 0.0
H246 H 0.60194 0.45898 0.03374 0.0
H247 H 0.52816 0.44139 0.9259 0.0
H248 H 0.52252 0.61955 0.84962 0.0
H249 H 0.52238 0.55681 0.8924 0.0
C250 C 0.89541 0.25498 0.36639 0.0
C251 C 0.90915 0.25588 0.30967 0.0
C252 C 0.873 0.25831 0.35236 0.0
C253 C 0.83719 0.29052 0.20926 0.0
H254 H 0.77933 0.22295 0.32065 0.0
C255 C 0.73717 0.27164 0.12113 0.0
C256 C 0.72317 0.27399 0.17409 0.0
C257 C 0.75952 0.26881 0.14018 0.0
C258 C 0.7954 0.24228 0.28956 0.0
H259 H 0.90998 0.26053 0.19378 0.0
H260 H 0.87087 0.26592 0.16921 0.0
H261 H 0.81942 0.22044 0.34937 0.0
H262 H 0.72139 0.27415 0.28886 0.0
H263 H 0.76048 0.26893 0.32225 0.0
H264 H 0.81311 0.31195 0.14889 0.0
C265 C 0.87765 0.26357 0.22466 0.0
C266 C 0.81841 0.24095 0.30609 0.0
C267 C 0.9001 0.26048 0.2387 0.0
C268 C 0.73162 0.27207 0.24681 0.0
C269 C 0.75402 0.26915 0.26592 0.0
C270 C 0.8142 0.29169 0.19257 0.0
C271 C 0.86375 0.2624 0.28126 0.0
C272 C 0.83954 0.26485 0.26577 0.0
C273 C 0.76843 0.26814 0.21269 0.0
C274 C 0.79298 0.26738 0.23212 0.0
H275 H 0.90206 0.25185 0.42168 0.0
H276 H 0.86301 0.25793 0.39728 0.0
H277 H 0.8532 0.30995 0.17801 0.0
H278 H 0.73089 0.27215 0.0647 0.0
H279 H 0.76986 0.26717 0.09797 0.0
C280 C 0.39966 0.26145 0.2029 0.0
C281 C 0.39594 0.23534 0.14921 0.0
C282 C 0.37994 0.26891 0.21758 0.0
C283 C 0.31839 0.26325 0.14197 0.0
H284 H 0.30801 0.26465 0.34171 0.0
C285 C 0.2305 0.2702 0.22884 0.0
C286 C 0.23465 0.29447 0.28618 0.0
C287 C 0.24989 0.26271 0.21078 0.0
C288 C 0.31079 0.26487 0.2856 0.0
H289 H 0.36864 0.1975 0.06749 0.0
H290 H 0.33414 0.21031 0.09346 0.0
H291 H 0.34244 0.25305 0.31198 0.0
H292 H 0.2625 0.32931 0.37007 0.0
H293 H 0.29631 0.3171 0.33764 0.0
H294 H 0.28678 0.27529 0.11563 0.0
C295 C 0.35238 0.22512 0.12409 0.0
C296 C 0.33057 0.25819 0.26854 0.0
C297 C 0.3721 0.21748 0.10963 0.0
C298 C 0.25866 0.31093 0.32499 0.0
C299 C 0.27801 0.30346 0.30695 0.0
C300 C 0.29861 0.27006 0.15904 0.0
C301 C 0.35597 0.25059 0.17881 0.0
C302 C 0.33471 0.25745 0.19653 0.0
C303 C 0.2739 0.27919 0.24971 0.0
C304 C 0.29461 0.27114 0.23113 0.0
H305 H 0.41766 0.2754 0.23498 0.0
H306 H 0.38348 0.28909 0.25947 0.0
H307 H 0.32119 0.26329 0.08593 0.0
H308 H 0.21234 0.25731 0.19734 0.0
H309 H 0.24593 0.24356 0.16681 0.0
C310 C 0.37539 0.71074 0.7992 0.0
C311 C 0.39769 0.73633 0.76469 0.0
C312 C 0.35354 0.71552 0.78501 0.0
C313 C 0.32243 0.75931 0.65024 0.0
H314 H 0.28193 0.74784 0.80661 0.0
C315 C 0.23958 0.79854 0.61283 0.0
C316 C 0.21728 0.77272 0.64716 0.0
C317 C 0.26154 0.79408 0.62728 0.0
C318 C 0.29286 0.75067 0.76223 0.0
H319 H 0.41442 0.78704 0.688 0.0
H320 H 0.37635 0.79585 0.6641 0.0
H321 H 0.32051 0.74074 0.83172 0.0
H322 H 0.20068 0.722 0.7239 0.0
H323 H 0.23894 0.71376 0.74825 0.0
H324 H 0.29476 0.76922 0.58074 0.0
C325 C 0.37572 0.77176 0.7016 0.0
C326 C 0.31499 0.74663 0.77661 0.0
C327 C 0.39763 0.76699 0.71586 0.0
C328 C 0.21746 0.74221 0.69616 0.0
C329 C 0.23948 0.73777 0.71068 0.0
C330 C 0.30029 0.76334 0.63585 0.0
C331 C 0.35341 0.74605 0.73601 0.0
C332 C 0.33004 0.75086 0.72078 0.0
C333 C 0.26178 0.76366 0.67637 0.0
C334 C 0.28523 0.75907 0.69167 0.0
H335 H 0.37487 0.68716 0.83786 0.0
H336 H 0.33662 0.69494 0.8119 0.0
H337 H 0.33334 0.76211 0.60584 0.0
H338 H 0.24001 0.82202 0.57406 0.0
H339 H 0.27845 0.8148 0.60047 0.0
C340 C 0.54751 0.88107 0.8482 0.0
C341 C 0.56887 0.87526 0.87006 0.0
C342 C 0.54597 0.91386 0.87047 0.0
C343 C 0.57057 0.98581 0.01357 0.0
H344 H 0.54275 0.0439 0.88351 0.0
C345 C 0.5737 0.13275 0.08556 0.0
C346 C 0.55259 0.13908 0.06284 0.0
C347 C 0.57501 0.09964 0.06388 0.0
C348 C 0.55023 0.02762 0.92077 0.0
H349 H 0.60563 0.90001 0.9313 0.0
H350 H 0.60301 0.95765 -0.03027 0.0
H351 H 0.54761 0.98966 0.83953 0.0
H352 H 0.51595 0.1148 0.00097 0.0
H353 H 0.51814 0.05657 0.96367 0.0
H354 H 0.57318 0.02376 0.09481 0.0
C355 C 0.58733 0.93642 0.93596 0.0
C356 C 0.55309 0.99663 0.8955 0.0
C357 C 0.58892 0.90358 0.91348 0.0
C358 C 0.53249 0.11086 0.01938 0.0
C359 C 0.53383 0.07768 -0.00245 0.0
C360 C 0.56769 0.01679 0.03885 0.0
C361 C 0.56571 0.94169 0.91524 0.0
C362 C 0.56331 0.97537 0.9416 0.0
C363 C 0.55526 0.07196 0.01891 0.0
C364 C 0.55751 0.03809 -0.00728 0.0
H365 H 0.53166 0.85986 0.81486 0.0
H366 H 0.52893 0.91675 0.85419 0.0
H367 H 0.57808 0.96956 0.05077 0.0
H368 H 0.58958 0.15386 0.119 0.0
H369 H 0.59191 0.09642 0.08068 0.0
C370 C 0.03185 0.85723 0.61038 0.0
C371 C 0.05285 0.85283 0.59554 0.0
C372 C 0.03331 0.89542 0.60593 0.0
C373 C 0.0793 1.00486 0.59548 0.0
H374 H 1.0235 0.01425 0.48406 0.0
C375 C 0.09021 0.1533 0.45053 0.0
C376 C 0.07016 0.16257 0.45211 0.0
C377 C 0.08766 0.11602 0.47838 0.0
C378 C 0.03909 0.0121 0.51618 0.0
H379 H 0.09223 0.88522 0.56794 0.0
H380 H 0.0946 0.95108 0.55945 0.0
H381 H 1.01944 0.94777 0.51844 0.0
H382 H 0.03187 0.14007 0.48535 0.0
H383 H 0.02756 0.07526 0.53357 0.0
H384 H 0.09925 0.06929 0.59108 0.0
C385 C 0.07707 0.92537 0.57504 0.0
C386 C 0.03672 0.974 0.53614 0.0
C387 C 0.07559 0.88741 0.57922 0.0
C388 C 0.04768 0.13393 0.48285 0.0
C389 C 0.04512 0.09668 0.51034 0.0
C390 C 0.08171 0.04295 0.57525 0.0
C391 C 0.05586 0.92982 0.58712 0.0
C392 C 0.057 0.96996 0.57473 0.0
C393 C 0.06501 0.08723 0.50806 0.0
C394 C 0.0618 0.04695 0.53427 0.0
H395 H 1.01408 0.83117 0.62328 0.0
H396 H 1.01672 0.89798 0.61619 0.0
H397 H 0.09511 1.00273 0.62626 0.0
H398 H 0.10779 0.17468 0.42737 0.0
H399 H 0.10322 0.10937 0.47518 0.0
C400 C 0.0919 0.24459 0.13041 0.0
C401 C 0.07037 0.22917 0.1699 0.0
C402 C 0.08909 0.23727 0.05793 0.0
C403 C 0.0447 0.23211 0.9128 0.0
H404 H 0.09174 0.22251 0.80013 0.0
C405 C 0.04879 0.26793 0.60619 0.0
C406 C 0.07327 0.28682 0.58105 0.0
C407 C 0.04554 0.25464 0.67804 0.0
C408 C 0.07855 0.22542 0.83108 0.0
H409 H 0.02939 0.19062 0.16733 0.0
H410 H 1.02449 0.17867 0.03966 0.0
H411 H 0.09044 0.20178 0.92776 0.0
H412 H 0.11368 0.31031 0.61176 0.0
H413 H 0.10809 0.28864 0.73797 0.0
H414 H 0.03391 0.25811 0.81769 0.0
C415 C 0.04344 0.1963 0.06496 0.0
C416 C 0.0776 0.21308 0.90356 0.0
C417 C 0.04628 0.20325 0.13775 0.0
C418 C 0.09459 0.29542 0.62981 0.0
C419 C 0.09136 0.28251 0.70167 0.0
C420 C 0.04579 0.24477 0.84049 0.0
C421 C 0.06469 0.21476 0.02404 0.0
C422 C 0.06128 0.21761 0.94536 0.0
C423 C 0.06676 0.2605 0.72567 0.0
C424 C 0.06338 0.24287 0.79974 0.0
H425 H 0.11073 0.2641 0.15443 0.0
H426 H 0.10575 0.25202 0.02724 0.0
H427 H 0.03222 0.23645 0.94437 0.0
H428 H 0.03199 0.26069 0.56957 0.0
H429 H 1.02637 0.23789 0.69528 0.0
C430 C 0.06936 0.7566 0.83964 0.0
C431 C 0.05014 0.72689 0.79682 0.0
C432 C 0.06435 0.76271 0.90674 0.0
C433 C 1.01967 0.71625 0.04851 0.0
H434 H 0.04999 0.82677 0.1038 0.0
C435 C 1.0114 0.74988 0.32914 0.0
C436 C 0.03596 0.7683 0.36423 0.0
C437 C 1.00834 0.75107 0.25426 0.0
C438 C 0.0411 0.79586 0.0884 0.0
H439 H 1.01105 0.67869 0.79215 0.0
H440 H 1.00225 0.68982 0.90867 0.0
H441 H 0.05484 0.81296 -0.01632 0.0
H442 H 0.07618 0.80613 0.35006 0.0
H443 H 0.07082 0.80854 0.21942 0.0
H444 H 1.00649 0.69918 0.15383 0.0
C445 C 1.0212 0.70825 0.89072 0.0
C446 C 0.04413 0.78789 0.02027 0.0
C447 C 1.02629 0.70185 0.82396 0.0
C448 C 0.0571 0.79124 0.32398 0.0
C449 C 0.054 0.79297 0.24934 0.0
C450 C 1.01643 0.72425 0.1163 0.0
C451 C 0.03998 0.73944 0.93189 0.0
C452 C 0.03424 0.74795 0.0007 0.0
C453 C 0.02975 0.77131 0.21403 0.0
C454 C 0.02786 0.76404 0.13755 0.0
H455 H 0.08798 0.77612 0.82028 0.0
H456 H 0.07946 0.78615 0.93837 0.0
H457 H 1.01193 0.68519 0.03515 0.0
H458 H 0.9948 0.73212 0.35925 0.0
H459 H 0.98947 0.73429 0.22783 0.0
C460 C 0.60311 0.755 0.08203 0.0
C461 C 0.57848 0.7393 0.04729 0.0
C462 C 0.60631 0.75119 0.15664 0.0
C463 C 0.57385 0.70383 0.32166 0.0
H464 H 0.60435 0.81333 0.38212 0.0
C465 C 0.54576 0.74114 0.57339 0.0
C466 C 0.56457 0.77187 0.61518 0.0
C467 C 0.55118 0.73433 0.5074 0.0
C468 C 0.59632 0.78251 0.36701 0.0
H469 H 0.53806 0.70356 0.0614 0.0
H470 H 0.54366 0.69692 0.19175 0.0
H471 H 0.60948 0.80139 0.262 0.0
H472 H 0.60354 0.82046 0.61998 0.0
H473 H 0.61319 0.80779 0.50632 0.0
H474 H 0.56018 0.68496 0.4263 0.0
C475 C 0.56044 0.71225 0.1616 0.0
C476 C 0.59937 0.7757 0.29822 0.0
C477 C 0.55723 0.71656 0.08724 0.0
C478 C 0.58858 0.79658 0.58886 0.0
C479 C 0.59414 0.78932 0.52363 0.0
C480 C 0.57113 0.71059 0.39104 0.0
C481 C 0.58492 0.73107 0.1969 0.0
C482 C 0.58734 0.73647 0.27423 0.0
C483 C 0.57561 0.7578 0.48265 0.0
C484 C 0.58148 0.75012 0.4133 0.0
H485 H 0.61982 0.77239 0.05217 0.0
H486 H 0.62533 0.7659 0.18315 0.0
H487 H 0.56447 0.67334 0.30393 0.0
H488 H 0.52705 0.72178 0.59235 0.0
H489 H 0.53624 0.71059 0.47599 0.0
C490 C 0.53316 0.22305 0.33955 0.0
C491 C 0.55752 0.24577 0.31426 0.0
C492 C 0.52791 0.23132 0.40432 0.0
C493 C 0.55352 0.30942 0.53934 0.0
H494 H 0.51216 0.21926 0.66528 0.0
C495 C 0.56681 0.29888 0.84293 0.0
C496 C 0.54531 0.27766 0.88251 0.0
C497 C 0.56386 0.30439 0.76874 0.0
C498 C 0.52315 0.24486 0.62995 0.0
H499 H 0.59585 0.29348 0.33819 0.0
H500 H 0.58716 0.30624 0.45399 0.0
H501 H 0.51653 0.20723 0.54456 0.0
H502 H 0.50396 0.2486 0.87721 0.0
H503 H 0.49885 0.25711 0.7465 0.0
H504 H 0.5618 0.3464 0.62812 0.0
C505 C 0.57177 0.28336 0.42208 0.0
C506 C 0.52574 0.238 0.56075 0.0
C507 C 0.57688 0.27563 0.35644 0.0
C508 C 0.52084 0.26472 0.84766 0.0
C509 C 0.51788 0.26973 0.7732 0.0
C510 C 0.55125 0.31618 0.60917 0.0
C511 C 0.54708 0.2618 0.44601 0.0
C512 C 0.54164 0.27001 0.51556 0.0
C513 C 0.53938 0.2883 0.73319 0.0
C514 C 0.53669 0.28372 0.65551 0.0
H515 H 0.51778 0.19994 0.30805 0.0
H516 H 0.50866 0.21437 0.42085 0.0
H517 H 0.56534 0.33484 0.50498 0.0
H518 H 0.5859 0.30983 0.86885 0.0
H519 H 0.5807 0.31846 0.73876 0.0
loop_
_geom_bond_atom_site_label_1
_geom_bond_atom_site_label_2
_geom_bond_distance
_geom_bond_site_symmetry_2
_ccdc_geom_bond_type
Dy0 O3 2.307 . S
Dy0 O5 2.395 . S
Dy0 O6 2.379 . S
Dy0 O8 2.339 . S
Dy0 O10 2.298 . S
Dy0 O14 2.275 . S
Dy0 C22 2.738 . S
Dy1 O4 2.298 . S
Dy1 O7 2.276 . S
Dy1 O9 2.308 . S
Dy1 O11 2.394 1_455 S
Dy1 O12 2.377 1_455 S
Dy1 O15 2.339 . S
Dy1 C31 2.737 1_455 S
C2 O14 1.254 . S
C2 O15 1.257 . S
O3 Dy0 2.307 . S
O3 C13 1.266 . S
O4 Dy1 2.298 . S
O4 C13 1.236 . S
O5 Dy0 2.395 . S
O5 C22 1.255 . S
O6 Dy0 2.379 . S
O6 C22 1.249 . S
O7 Dy1 2.276 . S
O7 C23 1.254 . S
O8 Dy0 2.339 . S
O8 C23 1.257 . S
O9 Dy1 2.308 . S
O9 C24 1.266 . S
O10 Dy0 2.298 . S
O10 C24 1.236 . S
O11 Dy1 2.394 1_655 S
O11 C31 1.255 . S
O12 Dy1 2.377 1_655 S
O12 C31 1.249 . S
C13 O3 1.266 . S
C13 O4 1.236 . S
O14 Dy0 2.275 . S
O14 C2 1.254 . S
O15 Dy1 2.339 . S
O15 C2 1.257 . S
C16 C19 1.344 . S
C16 C20 1.328 . S
C16 C22 1.516 . S
C17 C18 1.304 . S
C17 C21 1.323 . S
C18 C17 1.304 . S
C18 C19 1.371 . S
C18 H32 0.930 . S
C19 C16 1.344 . S
C19 C18 1.371 . S
C19 H33 0.931 . S
C20 C16 1.328 . S
C20 C21 1.433 . S
C20 H34 0.931 . S
C21 C17 1.323 . S
C21 C20 1.433 . S
C21 H35 0.933 . S
C22 Dy0 2.738 . S
C22 O5 1.255 . S
C22 O6 1.249 . S
C22 C16 1.516 . S
C23 O7 1.254 . S
C23 O8 1.257 . S
C24 O9 1.266 . S
C24 O10 1.236 . S
C25 C28 1.344 . S
C25 C29 1.328 . S
C25 C31 1.516 . S
C26 C27 1.304 . S
C26 C30 1.323 . S
C27 C26 1.304 . S
C27 C28 1.371 . S
C27 H36 0.930 . S
C28 C25 1.344 . S
C28 C27 1.371 . S
C28 H37 0.931 . S
C29 C25 1.328 . S
C29 C30 1.433 . S
C29 H38 0.931 . S
C30 C26 1.323 . S
C30 C29 1.433 . S
C30 H39 0.933 . S
C31 Dy1 2.737 1_655 S
C31 O11 1.255 . S
C31 O12 1.249 . S
C31 C25 1.516 . S
H32 C18 0.930 . S
H33 C19 0.931 . S
H34 C20 0.931 . S
H35 C21 0.933 . S
H36 C27 0.930 . S
H37 C28 0.931 . S
H38 C29 0.931 . S
H39 C30 0.933 . S
Dy40 O43 2.307 . S
Dy40 O45 2.395 . S
Dy40 O46 2.379 . S
Dy40 O48 2.339 . S
Dy40 O50 2.298 . S
Dy40 O54 2.275 . S
Dy40 C62 2.738 . S
Dy41 O44 2.298 1_655 S
Dy41 O47 2.275 1_655 S
Dy41 O49 2.307 1_655 S
Dy41 O51 2.395 . S
Dy41 O52 2.379 . S
Dy41 O55 2.339 1_655 S
Dy41 C71 2.738 . S
C42 O54 1.254 . S
C42 O55 1.257 . S
O43 Dy40 2.307 . S
O43 C53 1.266 . S
O44 Dy41 2.298 1_455 S
O44 C53 1.236 . S
O45 Dy40 2.395 . S
O45 C62 1.255 . S
O46 Dy40 2.379 . S
O46 C62 1.249 . S
O47 Dy41 2.275 1_455 S
O47 C63 1.254 . S
O48 Dy40 2.339 . S
O48 C63 1.257 . S
O49 Dy41 2.307 1_455 S
O49 C64 1.266 . S
O50 Dy40 2.298 . S
O50 C64 1.236 . S
O51 Dy41 2.395 . S
O51 C71 1.255 . S
O52 Dy41 2.379 . S
O52 C71 1.249 . S
C53 O43 1.266 . S
C53 O44 1.236 . S
O54 Dy40 2.275 . S
O54 C42 1.254 . S
O55 Dy41 2.339 1_455 S
O55 C42 1.257 . S
C56 C59 1.344 . S
C56 C60 1.328 . S
C56 C62 1.516 . S
C57 C58 1.304 . S
C57 C61 1.323 . S
C58 C57 1.304 . S
C58 C59 1.371 . S
C58 H72 0.930 . S
C59 C56 1.344 . S
C59 C58 1.371 . S
C59 H73 0.931 . S
C60 C56 1.328 . S
C60 C61 1.433 . S
C60 H74 0.931 . S
C61 C57 1.323 . S
C61 C60 1.433 . S
C61 H75 0.933 . S
C62 Dy40 2.738 . S
C62 O45 1.255 . S
C62 O46 1.249 . S
C62 C56 1.516 . S
C63 O47 1.254 . S
C63 O48 1.257 . S
C64 O49 1.266 . S
C64 O50 1.236 . S
C65 C68 1.344 . S
C65 C69 1.328 . S
C65 C71 1.516 . S
C66 C67 1.304 . S
C66 C70 1.323 . S
C67 C66 1.304 . S
C67 C68 1.371 . S
C67 H76 0.930 . S
C68 C65 1.344 . S
C68 C67 1.371 . S
C68 H77 0.931 . S
C69 C65 1.328 . S
C69 C70 1.433 . S
C69 H78 0.931 . S
C70 C66 1.323 . S
C70 C69 1.433 . S
C70 H79 0.933 . S
C71 Dy41 2.738 . S
C71 O51 1.255 . S
C71 O52 1.249 . S
C71 C65 1.516 . S
H72 C58 0.930 . S
H73 C59 0.931 . S
H74 C60 0.931 . S
H75 C61 0.933 . S
H76 C67 0.930 . S
H77 C68 0.931 . S
H78 C69 0.931 . S
H79 C70 0.933 . S
Dy80 O83 2.307 . S
Dy80 O85 2.395 . S
Dy80 O86 2.379 . S
Dy80 O88 2.339 1_556 S
Dy80 O90 2.298 . S
Dy80 O94 2.275 . S
Dy80 C102 2.738 . S
Dy81 O84 2.298 . S
Dy81 O87 2.275 . S
Dy81 O89 2.307 . S
Dy81 O91 2.395 . S
Dy81 O92 2.379 . S
Dy81 O95 2.339 . S
Dy81 C111 2.738 . S
C82 O94 1.254 . S
C82 O95 1.257 . S
O83 Dy80 2.307 . S
O83 C93 1.266 . S
O84 Dy81 2.298 . S
O84 C93 1.236 . S
O85 Dy80 2.395 . S
O85 C102 1.255 . S
O86 Dy80 2.379 . S
O86 C102 1.249 . S
O87 Dy81 2.275 . S
O87 C103 1.254 1_556 S
O88 Dy80 2.339 1_554 S
O88 C103 1.257 . S
O89 Dy81 2.307 . S
O89 C104 1.266 . S
O90 Dy80 2.298 . S
O90 C104 1.236 . S
O91 Dy81 2.395 . S
O91 C111 1.255 . S
O92 Dy81 2.379 . S
O92 C111 1.249 . S
C93 O83 1.266 . S
C93 O84 1.236 . S
O94 Dy80 2.275 . S
O94 C82 1.254 . S
O95 Dy81 2.339 . S
O95 C82 1.257 . S
C96 C99 1.344 . S
C96 C100 1.328 . S
C96 C102 1.516 . S
C97 C98 1.304 . S
C97 C101 1.323 . S
C98 C97 1.304 . S
C98 C99 1.371 . S
C98 H112 0.930 . S
C99 C96 1.344 . S
C99 C98 1.371 . S
C99 H113 0.931 . S
C100 C96 1.328 . S
C100 C101 1.433 . S
C100 H114 0.931 . S
C101 C97 1.323 . S
C101 C100 1.433 . S
C101 H115 0.933 . S
C102 Dy80 2.738 . S
C102 O85 1.255 . S
C102 O86 1.249 . S
C102 C96 1.516 . S
C103 O87 1.254 1_554 S
C103 O88 1.257 . S
C104 O89 1.266 . S
C104 O90 1.236 . S
C105 C108 1.344 . S
C105 C109 1.328 . S
C105 C111 1.516 . S
C106 C107 1.304 . S
C106 C110 1.323 . S
C107 C106 1.304 . S
C107 C108 1.371 . S
C107 H116 0.930 . S
C108 C105 1.344 . S
C108 C107 1.371 . S
C108 H117 0.931 . S
C109 C105 1.328 . S
C109 C110 1.433 . S
C109 H118 0.931 . S
C110 C106 1.323 . S
C110 C109 1.433 . S
C110 H119 0.933 . S
C111 Dy81 2.738 . S
C111 O91 1.255 . S
C111 O92 1.249 . S
C111 C105 1.516 . S
H112 C98 0.930 . S
H113 C99 0.931 . S
H114 C100 0.931 . S
H115 C101 0.933 . S
H116 C107 0.930 . S
H117 C108 0.931 . S
H118 C109 0.931 . S
H119 C110 0.933 . S
Dy120 O123 2.307 . S
Dy120 O125 2.395 . S
Dy120 O126 2.379 . S
Dy120 O128 2.339 . S
Dy120 O130 2.298 . S
Dy120 O134 2.275 . S
Dy120 C142 2.738 . S
Dy121 O124 2.298 . S
Dy121 O127 2.275 . S
Dy121 O129 2.307 . S
Dy121 O131 2.395 . S
Dy121 O132 2.379 . S
Dy121 O135 2.339 1_554 S
Dy121 C151 2.738 . S
C122 O134 1.254 1_556 S
C122 O135 1.257 . S
O123 Dy120 2.307 . S
O123 C133 1.266 . S
O124 Dy121 2.298 . S
O124 C133 1.236 . S
O125 Dy120 2.395 . S
O125 C142 1.255 . S
O126 Dy120 2.379 . S
O126 C142 1.249 . S
O127 Dy121 2.275 . S
O127 C143 1.254 . S
O128 Dy120 2.339 . S
O128 C143 1.257 . S
O129 Dy121 2.307 . S
O129 C144 1.266 . S
O130 Dy120 2.298 . S
O130 C144 1.236 . S
O131 Dy121 2.395 . S
O131 C151 1.255 . S
O132 Dy121 2.379 . S
O132 C151 1.249 . S
C133 O123 1.266 . S
C133 O124 1.236 . S
O134 Dy120 2.275 . S
O134 C122 1.254 1_554 S
O135 Dy121 2.339 1_556 S
O135 C122 1.257 . S
C136 C139 1.344 . S
C136 C140 1.328 . S
C136 C142 1.516 . S
C137 C138 1.304 . S
C137 C141 1.323 . S
C138 C137 1.304 . S
C138 C139 1.371 . S
C138 H152 0.930 . S
C139 C136 1.344 . S
C139 C138 1.371 . S
C139 H153 0.931 . S
C140 C136 1.328 . S
C140 C141 1.433 . S
C140 H154 0.931 . S
C141 C137 1.323 . S
C141 C140 1.433 . S
C141 H155 0.933 . S
C142 Dy120 2.738 . S
C142 O125 1.255 . S
C142 O126 1.249 . S
C142 C136 1.516 . S
C143 O127 1.254 . S
C143 O128 1.257 . S
C144 O129 1.266 . S
C144 O130 1.236 . S
C145 C148 1.344 . S
C145 C149 1.328 . S
C145 C151 1.516 . S
C146 C147 1.304 . S
C146 C150 1.323 . S
C147 C146 1.304 . S
C147 C148 1.371 . S
C147 H156 0.930 . S
C148 C145 1.344 . S
C148 C147 1.371 . S
C148 H157 0.931 . S
C149 C145 1.328 . S
C149 C150 1.433 . S
C149 H158 0.931 . S
C150 C146 1.323 . S
C150 C149 1.433 . S
C150 H159 0.933 . S
C151 Dy121 2.738 . S
C151 O131 1.255 . S
C151 O132 1.249 . S
C151 C145 1.516 . S
H152 C138 0.930 . S
H153 C139 0.931 . S
H154 C140 0.931 . S
H155 C141 0.933 . S
H156 C147 0.930 . S
H157 C148 0.931 . S
H158 C149 0.931 . S
H159 C150 0.933 . S
C160 C161 1.349 . S
C160 C162 1.327 . S
C160 H185 0.950 . S
C161 C160 1.349 . S
C161 C177 1.349 . S
C162 C160 1.327 . S
C162 C181 1.429 . S
C162 H186 0.950 . S
C163 C180 1.574 . S
C163 C182 1.368 . S
C163 H187 0.949 . S
H164 C168 0.940 1_655 S
C165 C166 1.349 . S
C165 C167 1.327 . S
C165 H188 0.950 . S
C166 C165 1.349 . S
C166 C178 1.349 . S
C167 C165 1.327 . S
C167 C183 1.429 . S
C167 H189 0.950 . S
C168 H164 0.940 1_455 S
C168 C176 1.574 . S
C168 C184 1.368 . S
H169 C177 0.950 . S
H170 C175 0.950 . S
H171 C176 0.949 . S
H172 C178 0.950 1_655 S
H173 C179 0.926 1_655 S
H174 C180 0.949 . S
C175 H170 0.950 . S
C175 C177 1.327 . S
C175 C181 1.429 . S
C176 C168 1.574 . S
C176 H171 0.949 . S
C176 C182 1.368 . S
C177 C161 1.349 . S
C177 H169 0.950 . S
C177 C175 1.327 . S
C178 C166 1.349 . S
C178 H172 0.950 1_455 S
C178 C179 1.327 . S
C179 H173 0.926 1_455 S
C179 C178 1.327 . S
C179 C183 1.429 . S
C180 C163 1.574 . S
C180 H174 0.949 . S
C180 C184 1.368 . S
C181 C162 1.429 . S
C181 C175 1.429 . S
C181 C182 1.523 . S
C182 C163 1.368 . S
C182 C176 1.368 . S
C182 C181 1.523 . S
C183 C167 1.429 . S
C183 C179 1.429 . S
C183 C184 1.523 . S
C184 C168 1.368 . S
C184 C180 1.368 . S
C184 C183 1.523 . S
H185 C160 0.950 . S
H186 C162 0.950 . S
H187 C163 0.949 . S
H188 C165 0.950 . S
H189 C167 0.950 . S
C190 C191 1.349 . S
C190 C192 1.327 . S
C190 H215 0.950 . S
C191 C190 1.349 . S
C191 C207 1.349 . S
C192 C190 1.327 . S
C192 C211 1.429 . S
C192 H216 0.950 . S
C193 C210 1.574 . S
C193 C212 1.368 . S
C193 H217 0.949 . S
H194 C198 0.949 . S
C195 C196 1.349 . S
C195 C197 1.327 . S
C195 H218 0.950 . S
C196 C195 1.349 . S
C196 C208 1.349 . S
C197 C195 1.327 . S
C197 C213 1.429 . S
C197 H219 0.950 . S
C198 H194 0.949 . S
C198 C206 1.574 . S
C198 C214 1.368 . S
H199 C207 0.950 . S
H200 C205 0.950 . S
H201 C206 0.949 . S
H202 C208 0.950 . S
H203 C209 0.950 . S
H204 C210 0.949 . S
C205 H200 0.950 . S
C205 C207 1.327 . S
C205 C211 1.429 . S
C206 C198 1.574 . S
C206 H201 0.949 . S
C206 C212 1.368 . S
C207 C191 1.349 . S
C207 H199 0.950 . S
C207 C205 1.327 . S
C208 C196 1.349 . S
C208 H202 0.950 . S
C208 C209 1.327 . S
C209 H203 0.950 . S
C209 C208 1.327 . S
C209 C213 1.429 . S
C210 C193 1.574 . S
C210 H204 0.949 . S
C210 C214 1.368 . S
C211 C192 1.429 . S
C211 C205 1.429 . S
C211 C212 1.523 . S
C212 C193 1.368 . S
C212 C206 1.368 . S
C212 C211 1.523 . S
C213 C197 1.429 . S
C213 C209 1.429 . S
C213 C214 1.523 . S
C214 C198 1.368 . S
C214 C210 1.368 . S
C214 C213 1.523 . S
H215 C190 0.950 . S
H216 C192 0.950 . S
H217 C193 0.949 . S
H218 C195 0.950 . S
H219 C197 0.950 . S
C220 C221 1.349 . S
C220 C222 1.327 . S
C220 H245 0.950 . S
C221 C220 1.349 . S
C221 C237 1.349 . S
C222 C220 1.327 . S
C222 C241 1.429 . S
C222 H246 0.950 . S
C223 C240 1.574 . S
C223 C242 1.368 1_556 S
C223 H247 0.949 . S
H224 C228 0.949 . S
C225 C226 1.349 . S
C225 C227 1.327 . S
C225 H248 0.950 . S
C226 C225 1.349 . S
C226 C238 1.349 . S
C227 C225 1.327 . S
C227 C243 1.429 . S
C227 H249 0.950 . S
C228 H224 0.949 . S
C228 C236 1.574 . S
C228 C244 1.368 1_554 S
H229 C237 0.950 . S
H230 C235 0.950 1_556 S
H231 C236 0.949 . S
H232 C238 0.949 1_554 S
H233 C239 0.950 1_554 S
H234 C240 0.949 . S
C235 H230 0.950 1_554 S
C235 C237 1.327 . S
C235 C241 1.429 . S
C236 C228 1.574 . S
C236 H231 0.949 . S
C236 C242 1.368 . S
C237 C221 1.349 . S
C237 H229 0.950 . S
C237 C235 1.327 . S
C238 C226 1.349 . S
C238 H232 0.949 1_556 S
C238 C239 1.327 . S
C239 H233 0.950 1_556 S
C239 C238 1.327 . S
C239 C243 1.429 . S
C240 C223 1.574 . S
C240 H234 0.949 . S
C240 C244 1.368 . S
C241 C222 1.429 . S
C241 C235 1.429 . S
C241 C242 1.523 . S
C242 C223 1.368 1_554 S
C242 C236 1.368 . S
C242 C241 1.523 . S
C243 C227 1.429 . S
C243 C239 1.429 . S
C243 C244 1.523 . S
C244 C228 1.368 1_556 S
C244 C240 1.368 . S
C244 C243 1.523 . S
H245 C220 0.950 . S
H246 C222 0.950 . S
H247 C223 0.949 . S
H248 C225 0.950 . S
H249 C227 0.950 . S
C250 C251 1.349 . S
C250 C252 1.327 . S
C250 H275 0.950 . S
C251 C250 1.349 . S
C251 C267 1.349 . S
C252 C250 1.327 . S
C252 C271 1.429 . S
C252 H276 0.950 . S
C253 C270 1.574 . S
C253 C272 1.368 . S
C253 H277 0.949 . S
H254 C258 0.949 . S
C255 C256 1.349 . S
C255 C257 1.327 . S
C255 H278 0.950 . S
C256 C255 1.349 . S
C256 C268 1.349 . S
C257 C255 1.327 . S
C257 C273 1.429 . S
C257 H279 0.950 . S
C258 H254 0.949 . S
C258 C266 1.574 . S
C258 C274 1.368 . S
H259 C267 0.950 . S
H260 C265 0.950 . S
H261 C266 0.949 . S
H262 C268 0.950 . S
H263 C269 0.950 . S
H264 C270 0.949 . S
C265 H260 0.950 . S
C265 C267 1.327 . S
C265 C271 1.429 . S
C266 C258 1.574 . S
C266 H261 0.949 . S
C266 C272 1.368 . S
C267 C251 1.349 . S
C267 H259 0.950 . S
C267 C265 1.327 . S
C268 C256 1.349 . S
C268 H262 0.950 . S
C268 C269 1.327 . S
C269 H263 0.950 . S
C269 C268 1.327 . S
C269 C273 1.429 . S
C270 C253 1.574 . S
C270 H264 0.949 . S
C270 C274 1.368 . S
C271 C252 1.429 . S
C271 C265 1.429 . S
C271 C272 1.523 . S
C272 C253 1.368 . S
C272 C266 1.368 . S
C272 C271 1.523 . S
C273 C257 1.429 . S
C273 C269 1.429 . S
C273 C274 1.523 . S
C274 C258 1.368 . S
C274 C270 1.368 . S
C274 C273 1.523 . S
H275 C250 0.950 . S
H276 C252 0.950 . S
H277 C253 0.949 . S
H278 C255 0.950 . S
H279 C257 0.950 . S
C280 C281 1.349 . S
C280 C282 1.327 . S
C280 H305 0.950 . S
C281 C280 1.349 . S
C281 C297 1.349 . S
C282 C280 1.327 . S
C282 C301 1.429 . S
C282 H306 0.950 . S
C283 C300 1.574 . S
C283 C302 1.368 . S
C283 H307 0.949 . S
H284 C288 0.949 . S
C285 C286 1.349 . S
C285 C287 1.327 . S
C285 H308 0.950 . S
C286 C285 1.349 . S
C286 C298 1.349 . S
C287 C285 1.327 . S
C287 C303 1.429 . S
C287 H309 0.950 . S
C288 H284 0.949 . S
C288 C296 1.574 . S
C288 C304 1.368 . S
H289 C297 0.950 . S
H290 C295 0.950 . S
H291 C296 0.949 . S
H292 C298 0.950 . S
H293 C299 0.950 . S
H294 C300 0.949 . S
C295 H290 0.950 . S
C295 C297 1.327 . S
C295 C301 1.429 . S
C296 C288 1.574 . S
C296 H291 0.949 . S
C296 C302 1.368 . S
C297 C281 1.349 . S
C297 H289 0.950 . S
C297 C295 1.327 . S
C298 C286 1.349 . S
C298 H292 0.950 . S
C298 C299 1.327 . S
C299 H293 0.950 . S
C299 C298 1.327 . S
C299 C303 1.429 . S
C300 C283 1.574 . S
C300 H294 0.949 . S
C300 C304 1.368 . S
C301 C282 1.429 . S
C301 C295 1.429 . S
C301 C302 1.523 . S
C302 C283 1.368 . S
C302 C296 1.368 . S
C302 C301 1.523 . S
C303 C287 1.429 . S
C303 C299 1.429 . S
C303 C304 1.523 . S
C304 C288 1.368 . S
C304 C300 1.368 . S
C304 C303 1.523 . S
H305 C280 0.950 . S
H306 C282 0.950 . S
H307 C283 0.949 . S
H308 C285 0.950 . S
H309 C287 0.950 . S
C310 C311 1.349 . S
C310 C312 1.327 . S
C310 H335 0.950 . S
C311 C310 1.349 . S
C311 C327 1.349 . S
C312 C310 1.327 . S
C312 C331 1.429 . S
C312 H336 0.950 . S
C313 C330 1.574 . S
C313 C332 1.368 . S
C313 H337 0.949 . S
H314 C318 0.949 . S
C315 C316 1.349 . S
C315 C317 1.327 . S
C315 H338 0.950 . S
C316 C315 1.349 . S
C316 C328 1.349 . S
C317 C315 1.327 . S
C317 C333 1.429 . S
C317 H339 0.950 . S
C318 H314 0.949 . S
C318 C326 1.574 . S
C318 C334 1.368 . S
H319 C327 0.950 . S
H320 C325 0.950 . S
H321 C326 0.949 . S
H322 C328 0.950 . S
H323 C329 0.950 . S
H324 C330 0.949 . S
C325 H320 0.950 . S
C325 C327 1.327 . S
C325 C331 1.429 . S
C326 C318 1.574 . S
C326 H321 0.949 . S
C326 C332 1.368 . S
C327 C311 1.349 . S
C327 H319 0.950 . S
C327 C325 1.327 . S
C328 C316 1.349 . S
C328 H322 0.950 . S
C328 C329 1.327 . S
C329 H323 0.950 . S
C329 C328 1.327 . S
C329 C333 1.429 . S
C330 C313 1.574 . S
C330 H324 0.949 . S
C330 C334 1.368 . S
C331 C312 1.429 . S
C331 C325 1.429 . S
C331 C332 1.523 . S
C332 C313 1.368 . S
C332 C326 1.368 . S
C332 C331 1.523 . S
C333 C317 1.429 . S
C333 C329 1.429 . S
C333 C334 1.523 . S
C334 C318 1.368 . S
C334 C330 1.368 . S
C334 C333 1.523 . S
H335 C310 0.950 . S
H336 C312 0.950 . S
H337 C313 0.949 . S
H338 C315 0.950 . S
H339 C317 0.950 . S
C340 C341 1.349 . S
C340 C342 1.327 . S
C340 H365 0.950 . S
C341 C340 1.349 . S
C341 C357 1.349 . S
C342 C340 1.327 . S
C342 C361 1.429 . S
C342 H366 0.950 . S
C343 C360 1.574 1_565 S
C343 C362 1.368 1_554 S
C343 H367 0.949 . S
H344 C348 0.949 . S
C345 C346 1.349 . S
C345 C347 1.327 . S
C345 H368 0.950 . S
C346 C345 1.349 . S
C346 C358 1.349 . S
C347 C345 1.327 . S
C347 C363 1.429 . S
C347 H369 0.950 . S
C348 H344 0.949 . S
C348 C356 1.574 1_545 S
C348 C364 1.368 1_556 S
H349 C357 0.950 1_554 S
H350 C355 0.950 1_554 S
H351 C356 0.949 . S
H352 C358 0.950 1_556 S
H353 C359 0.950 1_556 S
H354 C360 0.949 . S
C355 H350 0.950 1_556 S
C355 C357 1.327 . S
C355 C361 1.429 . S
C356 C348 1.574 1_565 S
C356 H351 0.949 . S
C356 C362 1.368 . S
C357 C341 1.349 . S
C357 H349 0.950 1_556 S
C357 C355 1.327 . S
C358 C346 1.349 . S
C358 H352 0.950 1_554 S
C358 C359 1.327 . S
C359 H353 0.950 1_554 S
C359 C358 1.327 . S
C359 C363 1.429 . S
C360 C343 1.574 1_545 S
C360 H354 0.949 . S
C360 C364 1.368 . S
C361 C342 1.429 . S
C361 C355 1.429 . S
C361 C362 1.523 . S
C362 C343 1.368 1_556 S
C362 C356 1.368 . S
C362 C361 1.523 . S
C363 C347 1.429 . S
C363 C359 1.429 . S
C363 C364 1.523 . S
C364 C348 1.368 1_554 S
C364 C360 1.368 . S
C364 C363 1.523 . S
H365 C340 0.950 . S
H366 C342 0.950 . S
H367 C343 0.949 . S
H368 C345 0.950 . S
H369 C347 0.950 . S
C370 C371 1.349 . S
C370 C372 1.327 . S
C370 H395 0.950 . S
C371 C370 1.349 . S
C371 C387 1.349 . S
C372 C370 1.327 . S
C372 C391 1.429 . S
C372 H396 0.950 . S
C373 C390 1.574 1_565 S
C373 C392 1.368 . S
C373 H397 0.949 . S
H374 C378 0.949 . S
C375 C376 1.349 . S
C375 C377 1.327 . S
C375 H398 0.950 . S
C376 C375 1.349 . S
C376 C388 1.349 . S
C377 C375 1.327 . S
C377 C393 1.429 . S
C377 H399 0.950 . S
C378 H374 0.949 . S
C378 C386 1.574 1_545 S
C378 C394 1.368 . S
H379 C387 0.950 . S
H380 C385 0.950 . S
H381 C386 0.949 . S
H382 C388 0.950 . S
H383 C389 0.950 . S
H384 C390 0.949 . S
C385 H380 0.950 . S
C385 C387 1.327 . S
C385 C391 1.429 . S
C386 C378 1.574 1_565 S
C386 H381 0.949 . S
C386 C392 1.368 . S
C387 C371 1.349 . S
C387 H379 0.950 . S
C387 C385 1.327 . S
C388 C376 1.349 . S
C388 H382 0.950 . S
C388 C389 1.327 . S
C389 H383 0.950 . S
C389 C388 1.327 . S
C389 C393 1.429 . S
C390 C373 1.574 1_545 S
C390 H384 0.949 . S
C390 C394 1.368 . S
C391 C372 1.429 . S
C391 C385 1.429 . S
C391 C392 1.523 . S
C392 C373 1.368 . S
C392 C386 1.368 . S
C392 C391 1.523 . S
C393 C377 1.429 . S
C393 C389 1.429 . S
C393 C394 1.523 . S
C394 C378 1.368 . S
C394 C390 1.368 . S
C394 C393 1.523 . S
H395 C370 0.950 . S
H396 C372 0.950 . S
H397 C373 0.949 . S
H398 C375 0.950 . S
H399 C377 0.950 . S
C400 C401 1.349 . S
C400 C402 1.327 . S
C400 H425 0.950 . S
C401 C400 1.349 . S
C401 C417 1.349 . S
C402 C400 1.327 . S
C402 C421 1.429 . S
C402 H426 0.950 . S
C403 C420 1.574 . S
C403 C422 1.368 . S
C403 H427 0.949 . S
H404 C408 0.949 . S
C405 C406 1.349 . S
C405 C407 1.327 . S
C405 H428 0.950 . S
C406 C405 1.349 . S
C406 C418 1.349 . S
C407 C405 1.327 . S
C407 C423 1.429 . S
C407 H429 0.950 . S
C408 H404 0.949 . S
C408 C416 1.574 . S
C408 C424 1.368 . S
H409 C417 0.950 . S
H410 C415 0.950 . S
H411 C416 0.949 . S
H412 C418 0.950 . S
H413 C419 0.950 . S
H414 C420 0.949 . S
C415 H410 0.950 . S
C415 C417 1.327 . S
C415 C421 1.429 . S
C416 C408 1.574 . S
C416 H411 0.949 . S
C416 C422 1.368 . S
C417 C401 1.349 . S
C417 H409 0.950 . S
C417 C415 1.327 . S
C418 C406 1.349 . S
C418 H412 0.950 . S
C418 C419 1.327 . S
C419 H413 0.950 . S
C419 C418 1.327 . S
C419 C423 1.429 . S
C420 C403 1.574 . S
C420 H414 0.949 . S
C420 C424 1.368 . S
C421 C402 1.429 . S
C421 C415 1.429 . S
C421 C422 1.523 1_554 S
C422 C403 1.368 . S
C422 C416 1.368 . S
C422 C421 1.523 1_556 S
C423 C407 1.429 . S
C423 C419 1.429 . S
C423 C424 1.523 . S
C424 C408 1.368 . S
C424 C420 1.368 . S
C424 C423 1.523 . S
H425 C400 0.950 . S
H426 C402 0.950 . S
H427 C403 0.949 . S
H428 C405 0.950 . S
H429 C407 0.950 . S
C430 C431 1.349 . S
C430 C432 1.327 . S
C430 H455 0.950 . S
C431 C430 1.349 . S
C431 C447 1.349 . S
C432 C430 1.327 . S
C432 C451 1.429 . S
C432 H456 0.950 . S
C433 C450 1.574 . S
C433 C452 1.368 . S
C433 H457 0.949 . S
H434 C438 0.949 . S
C435 C436 1.349 . S
C435 C437 1.327 . S
C435 H458 0.950 . S
C436 C435 1.349 . S
C436 C448 1.349 . S
C437 C435 1.327 . S
C437 C453 1.429 . S
C437 H459 0.950 . S
C438 H434 0.949 . S
C438 C446 1.574 . S
C438 C454 1.368 . S
H439 C447 0.950 . S
H440 C445 0.950 . S
H441 C446 0.949 . S
H442 C448 0.950 . S
H443 C449 0.950 . S
H444 C450 0.949 . S
C445 H440 0.950 . S
C445 C447 1.327 . S
C445 C451 1.429 . S
C446 C438 1.574 . S
C446 H441 0.949 . S
C446 C452 1.368 . S
C447 C431 1.349 . S
C447 H439 0.950 . S
C447 C445 1.327 . S
C448 C436 1.349 . S
C448 H442 0.950 . S
C448 C449 1.327 . S
C449 H443 0.950 . S
C449 C448 1.327 . S
C449 C453 1.429 . S
C450 C433 1.574 . S
C450 H444 0.949 . S
C450 C454 1.368 . S
C451 C432 1.429 . S
C451 C445 1.429 . S
C451 C452 1.523 1_556 S
C452 C433 1.368 . S
C452 C446 1.368 . S
C452 C451 1.523 1_554 S
C453 C437 1.429 . S
C453 C449 1.429 . S
C453 C454 1.523 . S
C454 C438 1.368 . S
C454 C450 1.368 . S
C454 C453 1.523 . S
H455 C430 0.950 . S
H456 C432 0.950 . S
H457 C433 0.949 . S
H458 C435 0.950 . S
H459 C437 0.950 . S
C460 C461 1.349 . S
C460 C462 1.327 . S
C460 H485 0.950 . S
C461 C460 1.349 . S
C461 C477 1.349 . S
C462 C460 1.327 . S
C462 C481 1.429 . S
C462 H486 0.950 . S
C463 C480 1.574 . S
C463 C482 1.368 . S
C463 H487 0.949 . S
H464 C468 0.949 . S
C465 C466 1.349 . S
C465 C467 1.327 . S
C465 H488 0.950 . S
C466 C465 1.349 . S
C466 C478 1.349 . S
C467 C465 1.327 . S
C467 C483 1.429 . S
C467 H489 0.950 . S
C468 H464 0.949 . S
C468 C476 1.574 . S
C468 C484 1.368 . S
H469 C477 0.950 . S
H470 C475 0.950 . S
H471 C476 0.949 . S
H472 C478 0.950 . S
H473 C479 0.950 . S
H474 C480 0.949 . S
C475 H470 0.950 . S
C475 C477 1.327 . S
C475 C481 1.429 . S
C476 C468 1.574 . S
C476 H471 0.949 . S
C476 C482 1.368 . S
C477 C461 1.349 . S
C477 H469 0.950 . S
C477 C475 1.327 . S
C478 C466 1.349 . S
C478 H472 0.950 . S
C478 C479 1.327 . S
C479 H473 0.950 . S
C479 C478 1.327 . S
C479 C483 1.429 . S
C480 C463 1.574 . S
C480 H474 0.949 . S
C480 C484 1.368 . S
C481 C462 1.429 . S
C481 C475 1.429 . S
C481 C482 1.523 . S
C482 C463 1.368 . S
C482 C476 1.368 . S
C482 C481 1.523 . S
C483 C467 1.429 . S
C483 C479 1.429 . S
C483 C484 1.523 . S
C484 C468 1.368 . S
C484 C480 1.368 . S
C484 C483 1.523 . S
H485 C460 0.950 . S
H486 C462 0.950 . S
H487 C463 0.949 . S
H488 C465 0.950 . S
H489 C467 0.950 . S
C490 C491 1.349 . S
C490 C492 1.327 . S
C490 H515 0.950 . S
C491 C490 1.349 . S
C491 C507 1.349 . S
C492 C490 1.327 . S
C492 C511 1.429 . S
C492 H516 0.950 . S
C493 C510 1.574 . S
C493 C512 1.368 . S
C493 H517 0.949 . S
H494 C498 0.949 . S
C495 C496 1.349 . S
C495 C497 1.327 . S
C495 H518 0.950 . S
C496 C495 1.349 . S
C496 C508 1.349 . S
C497 C495 1.327 . S
C497 C513 1.429 . S
C497 H519 0.950 . S
C498 H494 0.949 . S
C498 C506 1.574 . S
C498 C514 1.368 . S
H499 C507 0.950 . S
H500 C505 0.950 . S
H501 C506 0.949 . S
H502 C508 0.950 . S
H503 C509 0.950 . S
H504 C510 0.949 . S
C505 H500 0.950 . S
C505 C507 1.327 . S
C505 C511 1.429 . S
C506 C498 1.574 . S
C506 H501 0.949 . S
C506 C512 1.368 . S
C507 C491 1.349 . S
C507 H499 0.950 . S
C507 C505 1.327 . S
C508 C496 1.349 . S
C508 H502 0.950 . S
C508 C509 1.327 . S
C509 H503 0.950 . S
C509 C508 1.327 . S
C509 C513 1.429 . S
C510 C493 1.574 . S
C510 H504 0.949 . S
C510 C514 1.368 . S
C511 C492 1.429 . S
C511 C505 1.429 . S
C511 C512 1.523 . S
C512 C493 1.368 . S
C512 C506 1.368 . S
C512 C511 1.523 . S
C513 C497 1.429 . S
C513 C509 1.429 . S
C513 C514 1.523 . S
C514 C498 1.368 . S
C514 C510 1.368 . S
C514 C513 1.523 . S
H515 C490 0.950 . S
H516 C492 0.950 . S
H517 C493 0.949 . S
H518 C495 0.950 . S
H519 C497 0.950 . S
C161 C13 1.958 . S
C166 C64 1.958 . S
C191 C97 1.987 . S
C196 C66 1.987 . S
C221 C133 1.577 . S
C226 C104 1.577 . S
C251 C26 1.607 . S
C256 C137 1.607 . S
C281 C146 1.987 . S
C286 C17 1.987 . S
C311 C106 1.607 . S
C316 C57 1.607 . S
C341 C93 1.958 . S
C346 C144 1.958 . S
C371 C53 1.577 . S
C376 C24 1.577 . S
C401 C2 0.743 . S
C406 C23 0.743 . S
C431 C63 0.743 . S
C436 C42 0.743 . S
C461 C103 0.743 . S
C466 C82 0.743 . S
C491 C143 0.743 . S
C496 C122 0.743 . S
