# Generated by pormake.
# Topology eci, (8)-cn, num edge types: 1
# Building blocks:
#     Node 0, Type 0, BuildingBlock: TAGTUT_clean_sbu_1, # of connection points: 8
#     Node 1, Type 0, BuildingBlock: TAGTUT_clean_sbu_1, # of connection points: 8
#     Node 2, Type 0, BuildingBlock: TAGTUT_clean_sbu_1, # of connection points: 8
#     Node 3, Type 0, BuildingBlock: TAGTUT_clean_sbu_1, # of connection points: 8
#     Edge 4, Type (0, 0), BuildingBlock: FUNLAD_clean_linker_1, # of connection points: 2
#     Edge 5, Type (0, 0), BuildingBlock: FUNLAD_clean_linker_1, # of connection points: 2
#     Edge 6, Type (0, 0), BuildingBlock: FUNLAD_clean_linker_1, # of connection points: 2
#     Edge 7, Type (0, 0), BuildingBlock: FUNLAD_clean_linker_1, # of connection points: 2
#     Edge 8, Type (0, 0), BuildingBlock: FUNLAD_clean_linker_1, # of connection points: 2
#     Edge 9, Type (0, 0), BuildingBlock: FUNLAD_clean_linker_1, # of connection points: 2
#     Edge 10, Type (0, 0), BuildingBlock: FUNLAD_clean_linker_1, # of connection points: 2
#     Edge 11, Type (0, 0), BuildingBlock: FUNLAD_clean_linker_1, # of connection points: 2
#     Edge 12, Type (0, 0), BuildingBlock: FUNLAD_clean_linker_1, # of connection points: 2
#     Edge 13, Type (0, 0), BuildingBlock: FUNLAD_clean_linker_1, # of connection points: 2
#     Edge 14, Type (0, 0), BuildingBlock: FUNLAD_clean_linker_1, # of connection points: 2
#     Edge 15, Type (0, 0), BuildingBlock: FUNLAD_clean_linker_1, # of connection points: 2
#     Edge 16, Type (0, 0), BuildingBlock: FUNLAD_clean_linker_1, # of connection points: 2
#     Edge 17, Type (0, 0), BuildingBlock: FUNLAD_clean_linker_1, # of connection points: 2
#     Edge 18, Type (0, 0), BuildingBlock: FUNLAD_clean_linker_1, # of connection points: 2
#     Edge 19, Type (0, 0), BuildingBlock: FUNLAD_clean_linker_1, # of connection points: 2
# Relax obj value: 0.209
# Max RMSD: 0.267
# Mean RMSD: 0.257
data_MOF--net-eci--node1-TAGTUT_clean_sbu_1--edge1-FUNLAD_clean_linker_1
_symmetry_space_group_name_H-M    P1
_symmetry_Int_Tables_number       1
_symmetry_cell_setting            triclinic
loop_
_symmetry_equiv_pos_as_xyz
'x, y, z'
_cell_length_a     29.423521
_cell_length_b     31.833327
_cell_length_c     19.098801
_cell_angle_alpha  92.961507
_cell_angle_beta   93.157244
_cell_angle_gamma 90.155725
loop_
_atom_site_label
_atom_site_type_symbol
_atom_site_fract_x
_atom_site_fract_y
_atom_site_fract_z
_atom_type_partial_charge
C0 C 0.78303 0.69665 0.15173 0.0
C1 C 0.83132 0.8129 0.25846 0.0
C2 C 0.7529 0.88908 0.03561 0.0
Mg3 Mg 0.86506 0.75599 0.13994 0.0
O4 O 0.82241 0.77894 0.07628 0.0
Mg5 Mg 0.76226 0.79683 0.11112 0.0
Mg6 Mg 0.83754 0.8299 0.02795 0.0
O7 O 0.8522 0.88024 0.97484 0.0
Mg8 Mg 0.80741 0.89252 0.90406 0.0
Mg9 Mg 0.91394 0.86261 0.94389 0.0
C10 C 0.93282 0.77566 0.02229 0.0
C11 C 0.91968 0.88305 0.11358 0.0
O12 O 0.75538 0.72692 0.13926 0.0
O13 O 0.82639 0.70063 0.15434 0.0
O14 O 0.7936 0.81489 0.22237 0.0
O15 O 0.86588 0.79412 0.23478 0.0
O16 O 0.92507 0.75676 0.0783 0.0
O17 O 0.90254 0.79823 0.99108 0.0
C18 C 0.74766 0.78632 0.94216 0.0
O19 O 0.78736 0.80232 0.93583 0.0
O20 O 0.7326 0.78111 0.00247 0.0
O21 O 0.91564 0.92868 0.89797 0.0
O22 O 0.84272 0.94823 0.87531 0.0
O23 O 0.88799 0.83573 0.83488 0.0
C24 C 0.88577 0.95512 0.87608 0.0
O25 O 0.8141 0.84944 0.81593 0.0
O26 O 0.74878 0.88155 0.96907 0.0
C27 C 0.85109 0.83297 0.79661 0.0
O28 O 0.77655 0.86416 0.07361 0.0
O29 O 0.88417 0.86008 0.11793 0.0
O30 O 0.93695 0.88875 0.05454 0.0
C31 C 0.77122 0.2 0.08003 0.0
C32 C 0.67868 0.28898 0.97938 0.0
C33 C 0.74293 0.39612 0.18861 0.0
Mg34 Mg 0.6734 0.23237 0.10334 0.0
O35 O 0.70929 0.2698 0.16083 0.0
Mg36 Mg 0.75691 0.30296 0.11614 0.0
Mg37 Mg 0.67939 0.31543 0.21424 0.0
O38 O 0.64992 0.36143 0.26873 0.0
Mg39 Mg 0.69021 0.39312 0.32977 0.0
Mg40 Mg 0.60305 0.32768 0.31364 0.0
C41 C 0.61237 0.23672 0.23528 0.0
C42 C 0.57864 0.32925 0.14559 0.0
O43 O 0.78735 0.23767 0.08278 0.0
O44 O 0.72905 0.19165 0.08661 0.0
O45 O 0.71534 0.3045 0.00956 0.0
O46 O 0.65439 0.26247 0.00844 0.0
O47 O 0.62082 0.21939 0.17527 0.0
O48 O 0.6354 0.26801 0.26356 0.0
C49 C 0.78026 0.3048 0.28417 0.0
O50 O 0.73823 0.30979 0.29585 0.0
O51 O 0.7944 0.30169 0.22195 0.0
O52 O 0.57775 0.39302 0.35746 0.0
O53 O 0.63918 0.43615 0.36378 0.0
O54 O 0.64577 0.32192 0.41802 0.0
C55 C 0.59687 0.42922 0.37136 0.0
O56 O 0.71095 0.35787 0.41854 0.0
O57 O 0.73755 0.40992 0.25216 0.0
C58 C 0.68417 0.33346 0.44752 0.0
O59 O 0.72211 0.36319 0.16175 0.0
O60 O 0.62045 0.32189 0.1342 0.0
O61 O 0.56413 0.33285 0.20768 0.0
C62 C 0.30343 0.19047 0.42155 0.0
C63 C 0.1771 0.15912 0.30212 0.0
C64 C 0.10391 0.27479 0.48598 0.0
Mg65 Mg 0.22091 0.13433 0.44334 0.0
O66 O 0.20221 0.18471 0.48759 0.0
Mg67 Mg 0.2001 0.23537 0.43048 0.0
Mg68 Mg 0.14284 0.18891 0.53159 0.0
O69 O 0.08307 0.19319 0.58244 0.0
Mg70 Mg 0.0801 0.25126 0.631 0.0
Mg71 Mg 0.08597 0.13323 0.63261 0.0
C72 C 0.17995 0.09768 0.57851 0.0
C73 C 0.07788 0.10998 0.46362 0.0
O74 O 0.27682 0.22213 0.4137 0.0
O75 O 0.28939 0.154 0.43569 0.0
O76 O 0.18012 0.197 0.32757 0.0
O77 O 0.18852 0.12811 0.33883 0.0
O78 O 0.20363 0.0928 0.52427 0.0
O79 O 0.15958 0.13235 0.59505 0.0
C80 C 0.20435 0.27175 0.59222 0.0
O81 O 0.17877 0.24136 0.60941 0.0
O82 O 0.21751 0.27353 0.52992 0.0
O83 O 0.04262 0.1907 0.60709 0.0
O84 O 0.00618 0.24728 0.63836 0.0
O85 O 0.10955 0.16832 0.73709 0.0
C86 C 0.00644 0.20728 0.63185 0.0
O87 O 0.112 0.23914 0.73479 0.0
O88 O 0.11276 0.28577 0.5506 0.0
C89 C 0.11813 0.20483 0.76659 0.0
O90 O 0.12401 0.24278 0.45891 0.0
O91 O 0.10671 0.13918 0.45371 0.0
O92 O 0.0649 0.10277 0.52482 0.0
C93 C 0.23726 0.78874 0.62116 0.0
C94 C 0.31084 0.68798 0.51209 0.0
C95 C 0.25992 0.58986 0.72716 0.0
Mg96 Mg 0.33365 0.75063 0.63884 0.0
O97 O 0.30144 0.71538 0.69531 0.0
Mg98 Mg 0.24654 0.68394 0.65388 0.0
Mg99 Mg 0.33231 0.66938 0.74342 0.0
O100 O 0.3648 0.62405 0.79256 0.0
Mg101 Mg 0.33418 0.59425 0.85666 0.0
Mg102 Mg 0.42145 0.65496 0.82831 0.0
C103 C 0.41357 0.74189 0.75651 0.0
C104 C 0.41963 0.64196 0.65731 0.0
O105 O 0.22018 0.75146 0.62354 0.0
O106 O 0.28024 0.79608 0.62854 0.0
O107 O 0.27777 0.67357 0.54478 0.0
O108 O 0.3376 0.71663 0.53956 0.0
O109 O 0.39874 0.76005 0.7012 0.0
O110 O 0.38938 0.71504 0.7862 0.0
C111 C 0.24057 0.69408 0.82334 0.0
O112 O 0.2831 0.68546 0.83264 0.0
O113 O 0.22087 0.69449 0.76193 0.0
O114 O 0.44773 0.59055 0.86326 0.0
O115 O 0.38673 0.54869 0.87301 0.0
O116 O 0.39482 0.66927 0.9402 0.0
C117 C 0.42985 0.55489 0.87457 0.0
O118 O 0.33087 0.63263 0.95109 0.0
O119 O 0.27464 0.57904 0.78826 0.0
C120 C 0.36125 0.65885 0.97574 0.0
O121 O 0.2782 0.62079 0.69684 0.0
O122 O 0.37799 0.65329 0.65419 0.0
O123 O 0.44283 0.64009 0.71598 0.0
H124 H 0.80231 0.84338 0.35177 0.0
C125 C 0.83237 0.82771 0.33264 0.0
H126 H 0.89506 0.79897 0.36151 0.0
H127 H 0.88096 0.89613 0.66642 0.0
H128 H 0.93027 0.94614 0.61537 0.0
H129 H 0.94603 0.93929 0.48978 0.0
H130 H 0.91383 0.88137 0.41482 0.0
C131 C 0.86534 0.81593 0.37875 0.0
C132 C 0.85802 0.81912 0.45479 0.0
C133 C 0.87718 0.85299 0.49739 0.0
C134 C 0.86761 0.85717 0.56946 0.0
C135 C 0.88709 0.89139 0.61123 0.0
C136 C 0.91537 0.92038 0.58256 0.0
C137 C 0.92439 0.91644 0.51186 0.0
C138 C 0.90561 0.88318 0.46945 0.0
H139 H 0.8825 0.79706 0.71021 0.0
C140 C 0.85381 0.81679 0.72365 0.0
H141 H 0.80077 0.85536 0.68469 0.0
H142 H 0.81978 0.74797 0.38838 0.0
H143 H 0.77185 0.69711 0.43994 0.0
H144 H 0.75385 0.70538 0.56457 0.0
H145 H 0.78398 0.76453 0.63847 0.0
C146 C 0.82739 0.833 0.67243 0.0
C147 C 0.83901 0.82732 0.59826 0.0
C148 C 0.82087 0.79283 0.55608 0.0
C149 C 0.83073 0.78847 0.4842 0.0
C150 C 0.81277 0.75329 0.44313 0.0
C151 C 0.78534 0.72374 0.47213 0.0
C152 C 0.77524 0.72838 0.54231 0.0
C153 C 0.79274 0.76245 0.58411 0.0
H154 H 0.72853 0.33262 0.54436 0.0
C155 C 0.6953 0.32326 0.52085 0.0
H156 H 0.62934 0.30165 0.53957 0.0
H157 H 0.75348 0.25907 0.83144 0.0
H158 H 0.79464 0.20972 0.75793 0.0
H159 H 0.7791 0.20464 0.62952 0.0
H160 H 0.72244 0.24903 0.57389 0.0
C161 C 0.66352 0.30874 0.56161 0.0
C162 C 0.67126 0.30954 0.63929 0.0
C163 C 0.70416 0.283 0.67095 0.0
C164 C 0.71262 0.28553 0.74506 0.0
C165 C 0.7457 0.25863 0.77538 0.0
C166 C 0.76953 0.23003 0.73381 0.0
C167 C 0.76082 0.22721 0.66152 0.0
C168 C 0.72842 0.25313 0.63021 0.0
H169 H 0.63384 0.28619 0.88282 0.0
C170 C 0.66623 0.29815 0.90599 0.0
H171 H 0.72963 0.32512 0.88629 0.0
H172 H 0.60534 0.36477 0.59548 0.0
H173 H 0.56405 0.41377 0.66931 0.0
H174 H 0.57883 0.41804 0.79782 0.0
H175 H 0.63506 0.37313 0.85339 0.0
C176 C 0.69602 0.31541 0.8649 0.0
C177 C 0.68752 0.31399 0.78741 0.0
C178 C 0.65427 0.34021 0.75592 0.0
C179 C 0.64597 0.33787 0.68174 0.0
C180 C 0.61294 0.36489 0.65155 0.0
C181 C 0.58899 0.3933 0.69331 0.0
C182 C 0.59738 0.39574 0.76567 0.0
C183 C 0.6296 0.36962 0.79691 0.0
H184 H 0.13093 0.2382 0.87034 0.0
C185 C 0.13172 0.20758 0.84246 0.0
H186 H 0.14168 0.14237 0.8506 0.0
H187 H 0.22199 0.22837 0.16173 0.0
H188 H 0.27645 0.26553 0.09693 0.0
H189 H 0.27324 0.26011 0.96749 0.0
H190 H 0.21525 0.2178 0.90217 0.0
C191 C 0.14142 0.17303 0.87836 0.0
C192 C 0.1461 0.17423 0.95673 0.0
C193 C 0.18076 0.19858 0.99427 0.0
C194 C 0.18313 0.20098 0.06905 0.0
C195 C 0.21815 0.22562 0.10503 0.0
C196 C 0.24991 0.24696 0.06848 0.0
C197 C 0.24806 0.24396 0.99562 0.0
C198 C 0.21421 0.21989 0.95872 0.0
H199 H 0.16908 0.11987 0.20302 0.0
C200 C 0.16496 0.15143 0.22625 0.0
H201 H 0.15064 0.2149 0.20773 0.0
H202 H 0.07757 0.12162 0.90145 0.0
H203 H 0.02686 0.08037 0.96629 0.0
H204 H 0.03113 0.08466 0.09554 0.0
H205 H 0.08564 0.13047 0.16103 0.0
C206 C 0.15341 0.18312 0.18474 0.0
C207 C 0.1516 0.17821 0.10643 0.0
C208 C 0.1182 0.15236 0.06892 0.0
C209 C 0.11565 0.15016 0.99407 0.0
C210 C 0.08175 0.12419 0.9581 0.0
C211 C 0.05204 0.10053 0.99467 0.0
C212 C 0.05433 0.10301 0.06749 0.0
C213 C 0.08636 0.12907 0.10445 0.0
H214 H 0.38375 0.69936 0.06908 0.0
C215 C 0.36022 0.67445 0.04985 0.0
H216 H 0.31293 0.62884 0.07728 0.0
H217 H 0.38353 0.61986 0.39217 0.0
H218 H 0.41228 0.55428 0.34223 0.0
H219 H 0.40929 0.53957 0.21395 0.0
H220 H 0.37618 0.58988 0.13489 0.0
C221 C 0.33441 0.65553 0.09517 0.0
C222 C 0.33864 0.66594 0.17211 0.0
C223 C 0.35814 0.63615 0.2176 0.0
C224 C 0.36024 0.6447 0.29157 0.0
C225 C 0.38039 0.61467 0.33568 0.0
C226 C 0.39737 0.57701 0.30766 0.0
C227 C 0.39557 0.5687 0.23545 0.0
C228 C 0.37633 0.59782 0.19068 0.0
H229 H 0.29304 0.6486 0.41562 0.0
C230 C 0.31575 0.6733 0.43827 0.0
H231 H 0.36562 0.71842 0.41812 0.0
H232 H 0.29677 0.72872 0.10011 0.0
H233 H 0.2677 0.79411 0.1502 0.0
H234 H 0.27296 0.80969 0.27827 0.0
H235 H 0.307 0.7598 0.35704 0.0
C236 C 0.34433 0.69229 0.39706 0.0
C237 C 0.34279 0.68299 0.31985 0.0
C238 C 0.32387 0.71303 0.27435 0.0
C239 C 0.32138 0.70432 0.20042 0.0
C240 C 0.30052 0.73409 0.1565 0.0
C241 C 0.28346 0.7717 0.1846 0.0
C242 C 0.28639 0.78045 0.2567 0.0
C243 C 0.30615 0.75155 0.30131 0.0
H244 H 0.47226 0.73309 0.83132 0.0
C245 C 0.46194 0.74704 0.78218 0.0
H246 H 0.4846 0.77902 0.69608 0.0
H247 H 0.66378 0.84728 0.87001 0.0
H248 H 0.62322 0.912 0.84958 0.0
H249 H 0.54602 0.91069 0.79216 0.0
H250 H 0.50875 0.8445 0.75522 0.0
C251 C 0.49407 0.76476 0.74521 0.0
C252 C 0.54325 0.76571 0.77074 0.0
C253 C 0.56526 0.80465 0.79 0.0
C254 C 0.61007 0.80539 0.82282 0.0
C255 C 0.63014 0.84474 0.84443 0.0
C256 C 0.6072 0.88221 0.83302 0.0
C257 C 0.56372 0.88147 0.80068 0.0
C258 C 0.54275 0.84325 0.77963 0.0
H259 H 0.72446 0.78878 0.82904 0.0
C260 C 0.71504 0.77932 0.88015 0.0
H261 H 0.66297 0.75649 0.94042 0.0
H262 H 0.5164 0.68657 0.72338 0.0
H263 H 0.55768 0.62162 0.74123 0.0
H264 H 0.63391 0.62278 0.80187 0.0
H265 H 0.66951 0.68895 0.84457 0.0
C266 C 0.67191 0.76661 0.88945 0.0
C267 C 0.633 0.76714 0.83588 0.0
C268 C 0.61249 0.72848 0.81112 0.0
C269 C 0.56798 0.72776 0.77766 0.0
C270 C 0.54916 0.68866 0.7518 0.0
C271 C 0.57273 0.65126 0.76096 0.0
C272 C 0.61569 0.65191 0.79507 0.0
C273 C 0.6356 0.69 0.8197 0.0
H274 H 0.83196 0.16591 0.04231 0.0
C275 C 0.80206 0.16398 0.07297 0.0
H276 H 0.76194 0.12756 0.13508 0.0
H277 H 0.77347 0.96753 0.93996 0.0
H278 H 0.7505 0.00867 0.84174 0.0
H279 H 0.75631 0.08605 0.8509 0.0
H280 H 0.78396 0.12225 0.95881 0.0
C281 C 0.79017 0.12789 0.10061 0.0
C282 C 0.80949 0.08616 0.08306 0.0
C283 C 0.79593 0.06555 0.01771 0.0
C284 C 0.79347 0.02098 0.01205 0.0
C285 C 0.77647 0.00121 0.94768 0.0
C286 C 0.76308 0.02452 0.89052 0.0
C287 C 0.76633 0.06801 0.89568 0.0
C288 C 0.78223 0.08845 0.95844 0.0
H289 H 0.72878 0.95405 0.04841 0.0
C290 C 0.75823 0.9339 0.05595 0.0
H291 H 0.82958 0.93123 0.07452 0.0
H292 H 0.84535 0.11692 0.20976 0.0
H293 H 0.87348 0.07576 0.30716 0.0
H294 H 0.87347 0.99818 0.2957 0.0
H295 H 0.84419 0.96122 0.18819 0.0
C296 C 0.79987 0.95109 0.06828 0.0
C297 C 0.80698 0.99732 0.0708 0.0
C298 C 0.82668 0.01801 0.13262 0.0
C299 C 0.82717 0.0626 0.13907 0.0
C300 C 0.84397 0.08294 0.20295 0.0
C301 C 0.86032 0.05975 0.25886 0.0
C302 C 0.86036 0.01605 0.25237 0.0
C303 C 0.84366 0.99523 0.1902 0.0
H304 H 0.37433 0.17122 0.43767 0.0
C305 C 0.35247 0.19534 0.41578 0.0
H306 H 0.34968 0.25032 0.35837 0.0
H307 H 0.55666 0.29951 0.41441 0.0
H308 H 0.51982 0.35824 0.47126 0.0
H309 H 0.43666 0.35781 0.48462 0.0
H310 H 0.39042 0.29794 0.44015 0.0
C311 C 0.37077 0.22572 0.38029 0.0
C312 C 0.42055 0.22639 0.37137 0.0
C313 C 0.44693 0.26147 0.39859 0.0
C314 C 0.49476 0.26175 0.3916 0.0
C315 C 0.52027 0.29749 0.41782 0.0
C316 C 0.49939 0.33159 0.45102 0.0
C317 C 0.45272 0.33122 0.45857 0.0
C318 C 0.42659 0.29664 0.43276 0.0
H319 H 0.54244 0.21345 0.22852 0.0
C320 C 0.56968 0.22543 0.265 0.0
H321 H 0.58999 0.24334 0.36973 0.0
H322 H 0.38011 0.15626 0.30271 0.0
H323 H 0.41876 0.09376 0.25985 0.0
H324 H 0.50267 0.08988 0.26792 0.0
H325 H 0.54816 0.14972 0.31569 0.0
C326 C 0.56261 0.23147 0.33355 0.0
C327 C 0.5159 0.22682 0.35808 0.0
C328 C 0.49013 0.19016 0.33762 0.0
C329 C 0.44212 0.19093 0.33962 0.0
C330 C 0.41686 0.15617 0.30833 0.0
C331 C 0.43864 0.12022 0.28261 0.0
C332 C 0.48583 0.11813 0.28673 0.0
C333 C 0.51147 0.15268 0.3137 0.0
H334 H 0.17014 0.81879 0.5992 0.0
C335 C 0.20606 0.82488 0.61216 0.0
H336 H 0.25673 0.87108 0.63792 0.0
H337 H 0.13471 0.00228 0.46426 0.0
H338 H 0.14445 0.95616 0.36219 0.0
H339 H 0.17551 0.88486 0.37376 0.0
H340 H 0.19733 0.85953 0.48807 0.0
C341 C 0.22128 0.86488 0.6216 0.0
C342 C 0.19147 0.90251 0.61516 0.0
C343 C 0.17745 0.91643 0.54805 0.0
C344 C 0.15905 0.95754 0.54158 0.0
C345 C 0.14801 0.97134 0.47329 0.0
C346 C 0.15364 0.94516 0.41375 0.0
C347 C 0.17107 0.90502 0.42026 0.0
C348 C 0.18332 0.89082 0.48637 0.0
H349 H 0.20341 0.05122 0.65182 0.0
C350 C 0.17423 0.05997 0.61843 0.0
H351 H 0.11657 0.03855 0.55767 0.0
H352 H 0.2096 0.88355 0.75171 0.0
H353 H 0.19543 0.92814 0.85541 0.0
H354 H 0.15862 0.99716 0.84449 0.0
H355 H 0.13765 0.02303 0.72967 0.0
C356 C 0.14388 0.03011 0.59467 0.0
C357 C 0.15408 0.98444 0.60257 0.0
C358 C 0.16356 0.96863 0.66986 0.0
C359 C 0.18319 0.92808 0.67611 0.0
C360 C 0.19456 0.91408 0.74401 0.0
C361 C 0.18622 0.93915 0.8039 0.0
C362 C 0.16568 0.97813 0.79776 0.0
C363 C 0.1542 0.99277 0.73166 0.0
H364 H 0.98261 0.78022 0.9404 0.0
C365 C 0.97845 0.77193 0.99418 0.0
H366 H 0.01007 0.74972 0.08701 0.0
H367 H 0.16125 0.6454 0.9352 0.0
H368 H 0.12196 0.59199 0.99512 0.0
H369 H 0.05351 0.60952 0.0594 0.0
H370 H 0.0239 0.68041 0.06401 0.0
C371 C 0.01428 0.75778 0.03315 0.0
C372 C 0.05905 0.74878 0.00284 0.0
C373 C 0.07652 0.70719 0.00231 0.0
C374 C 0.11599 0.69698 0.96516 0.0
C375 C 0.13163 0.65493 0.96294 0.0
C376 C 0.10937 0.62393 0.99709 0.0
C377 C 0.07085 0.63381 0.03331 0.0
C378 C 0.0543 0.67479 0.03573 0.0
H379 H 0.22768 0.70348 0.93713 0.0
C380 C 0.2127 0.7047 0.88399 0.0
H381 H 0.15447 0.71866 0.81952 0.0
H382 H 0.04196 0.83348 0.00978 0.0
H383 H 0.08258 0.88713 0.95197 0.0
H384 H 0.14871 0.86857 0.88287 0.0
H385 H 0.17536 0.79651 0.87254 0.0
C386 C 0.16887 0.71609 0.87275 0.0
C387 C 0.13772 0.72831 0.92872 0.0
C388 C 0.12259 0.77049 0.93444 0.0
C389 C 0.08365 0.78092 0.97249 0.0
C390 C 0.0702 0.82356 0.97907 0.0
C391 C 0.09348 0.85472 0.94673 0.0
C392 C 0.13079 0.84431 0.90795 0.0
C393 C 0.14551 0.8028 0.90201 0.0
H394 H 0.75014 0.42187 0.08504 0.0
C395 C 0.76031 0.4264 0.14052 0.0
H396 H 0.78362 0.46925 0.2222 0.0
H397 H 0.80754 0.61403 0.00519 0.0
H398 H 0.8705 0.57367 0.9594 0.0
H399 H 0.88329 0.50029 0.99135 0.0
H400 H 0.8331 0.4668 0.0694 0.0
C401 C 0.77433 0.46452 0.16645 0.0
C402 C 0.76038 0.50304 0.13102 0.0
C403 C 0.78907 0.52134 0.08401 0.0
C404 C 0.78167 0.56355 0.06573 0.0
C405 C 0.81176 0.582 0.02072 0.0
C406 C 0.84791 0.55917 0.99407 0.0
C407 C 0.85511 0.51784 0.01207 0.0
C408 C 0.82621 0.49901 0.05683 0.0
H409 H 0.77501 0.63697 0.20155 0.0
C410 C 0.7651 0.6542 0.15546 0.0
H411 H 0.74244 0.64945 0.04836 0.0
H412 H 0.69267 0.47376 0.20977 0.0
H413 H 0.62771 0.51291 0.24985 0.0
H414 H 0.61503 0.58614 0.21713 0.0
H415 H 0.66829 0.62073 0.1451 0.0
C416 C 0.74781 0.63345 0.09705 0.0
C417 C 0.74595 0.58699 0.09541 0.0
C418 C 0.71391 0.56694 0.13494 0.0
C419 C 0.72112 0.52481 0.15307 0.0
C420 C 0.68927 0.50585 0.19484 0.0
C421 C 0.65156 0.52793 0.21777 0.0
C422 C 0.64449 0.56918 0.19951 0.0
C423 C 0.67528 0.58867 0.15859 0.0
H424 H 0.80226 0.30533 0.39707 0.0
C425 C 0.81367 0.30302 0.34383 0.0
H426 H 0.8697 0.29594 0.2795 0.0
H427 H 0.00266 0.37118 0.52914 0.0
H428 H 0.9631 0.4372 0.51479 0.0
H429 H 0.89081 0.43968 0.44316 0.0
H430 H 0.85771 0.37609 0.38567 0.0
C431 C 0.85799 0.29911 0.33249 0.0
C432 C 0.89312 0.29661 0.38988 0.0
C433 C 0.91106 0.33396 0.42438 0.0
C434 C 0.95268 0.33255 0.4653 0.0
C435 C 0.97102 0.37043 0.49749 0.0
C436 C 0.94865 0.40856 0.48967 0.0
C437 C 0.90797 0.40995 0.44935 0.0
C438 C 0.88933 0.37322 0.41665 0.0
H439 H 0.04862 0.26917 0.40416 0.0
C440 C 0.05699 0.2801 0.45827 0.0
H441 H 0.03129 0.30562 0.55265 0.0
H442 H 0.86239 0.21889 0.34034 0.0
H443 H 0.89943 0.15198 0.36021 0.0
H444 H 0.97129 0.1492 0.43294 0.0
H445 H 0.00685 0.21319 0.48435 0.0
C446 C 0.02376 0.29392 0.49885 0.0
C447 C 0.97603 0.29391 0.4703 0.0
C448 C 0.95528 0.25589 0.44228 0.0
C449 C 0.91376 0.25737 0.40146 0.0
C450 C 0.89416 0.21934 0.37178 0.0
C451 C 0.91491 0.18078 0.38304 0.0
C452 C 0.95537 0.17921 0.42386 0.0
C453 C 0.97548 0.21621 0.4531 0.0
H454 H 0.20075 0.31106 0.6925 0.0
C455 C 0.20979 0.31105 0.63813 0.0
H456 H 0.22548 0.34791 0.55326 0.0
H457 H 0.1438 0.52034 0.63922 0.0
H458 H 0.07968 0.49074 0.56706 0.0
H459 H 0.07764 0.41541 0.52935 0.0
H460 H 0.13932 0.36905 0.56407 0.0
C461 C 0.21929 0.34785 0.60882 0.0
C462 C 0.21645 0.39075 0.64399 0.0
C463 C 0.18013 0.4177 0.62352 0.0
C464 C 0.18129 0.46132 0.64509 0.0
C465 C 0.14445 0.48711 0.62419 0.0
C466 C 0.10756 0.47053 0.58276 0.0
C467 C 0.10641 0.42811 0.56148 0.0
C468 C 0.14213 0.40187 0.5815 0.0
H469 H 0.23703 0.55401 0.62848 0.0
C470 C 0.23389 0.55611 0.68495 0.0
H471 H 0.21587 0.5249 0.77432 0.0
H472 H 0.29174 0.34862 0.69151 0.0
H473 H 0.35661 0.37842 0.76122 0.0
H474 H 0.35905 0.45385 0.79781 0.0
H475 H 0.29701 0.49987 0.76531 0.0
C476 C 0.21832 0.52245 0.71766 0.0
C477 C 0.21885 0.47822 0.68687 0.0
C478 C 0.25519 0.45122 0.70741 0.0
C479 C 0.25392 0.4076 0.68608 0.0
C480 C 0.29105 0.38186 0.70629 0.0
C481 C 0.32845 0.39853 0.74637 0.0
C482 C 0.3298 0.44098 0.76712 0.0
C483 C 0.29375 0.46709 0.7482 0.0
H484 H 0.07624 0.08512 0.35304 0.0
C485 C 0.06029 0.08286 0.40272 0.0
H486 H 0.01027 0.05251 0.45747 0.0
H487 H 0.94802 0.00324 0.12099 0.0
H488 H 0.93644 0.07781 0.10911 0.0
H489 H 0.95784 0.12895 0.20685 0.0
H490 H 0.99088 0.10573 0.31705 0.0
C491 C 0.02597 0.05518 0.40767 0.0
C492 C 0.01109 0.02461 0.34875 0.0
C493 C 0.99161 0.03872 0.28452 0.0
C494 C 0.97879 0.00911 0.22835 0.0
C495 C 0.95903 0.02418 0.16511 0.0
C496 C 0.95187 0.06697 0.15766 0.0
C497 C 0.96398 0.09577 0.21264 0.0
C498 C 0.98332 0.08199 0.27553 0.0
H499 H 0.92061 0.904 0.22592 0.0
C500 C 0.93799 0.90698 0.17762 0.0
H501 H 0.9885 0.93935 0.12727 0.0
H502 H 0.0438 0.98652 0.46668 0.0
H503 H 0.05331 0.91182 0.47988 0.0
H504 H 0.03328 0.86071 0.38153 0.0
H505 H 0.00323 0.88403 0.26962 0.0
C506 C 0.97229 0.93499 0.17617 0.0
C507 C 0.9847 0.96532 0.23666 0.0
C508 C 0.00315 0.95116 0.3015 0.0
C509 C 0.01569 0.98078 0.35782 0.0
C510 C 0.03366 0.96563 0.42208 0.0
C511 C 0.03944 0.92274 0.4304 0.0
C512 C 0.02814 0.89398 0.37506 0.0
C513 C 0.01052 0.90783 0.31116 0.0
H514 H 0.58972 0.49317 0.41696 0.0
C515 C 0.57078 0.46458 0.40061 0.0
H516 H 0.50671 0.43418 0.39765 0.0
H517 H 0.46038 0.5444 0.67216 0.0
H518 H 0.45563 0.47346 0.71078 0.0
H519 H 0.47328 0.41259 0.63171 0.0
H520 H 0.49574 0.42281 0.51356 0.0
C521 C 0.52621 0.46272 0.41152 0.0
C522 C 0.50525 0.49795 0.45228 0.0
C523 C 0.49162 0.4914 0.52088 0.0
C524 C 0.48181 0.5264 0.56649 0.0
C525 C 0.46877 0.51904 0.63527 0.0
C526 C 0.46575 0.47838 0.65821 0.0
C527 C 0.47564 0.44417 0.6137 0.0
C528 C 0.48863 0.45046 0.54597 0.0
H529 H 0.41465 0.61938 0.54642 0.0
C530 C 0.43795 0.62355 0.59254 0.0
H531 H 0.50063 0.60616 0.64059 0.0
H532 H 0.52013 0.5202 0.31903 0.0
H533 H 0.52141 0.59122 0.27803 0.0
H534 H 0.50626 0.65233 0.35815 0.0
H535 H 0.48989 0.6428 0.47973 0.0
C536 C 0.47805 0.60373 0.5936 0.0
C537 C 0.48523 0.5678 0.54302 0.0
C538 C 0.49505 0.57419 0.47259 0.0
C539 C 0.50471 0.53908 0.42689 0.0
C540 C 0.51393 0.54599 0.35641 0.0
C541 C 0.51446 0.58652 0.33216 0.0
C542 C 0.50581 0.62091 0.37724 0.0
C543 C 0.49632 0.61502 0.44679 0.0
H544 H 0.94545 0.19814 0.69211 0.0
C545 C 0.97313 0.18215 0.66655 0.0
H546 H 0.00415 0.12408 0.64161 0.0
H547 H 0.89281 0.0735 0.91691 0.0
H548 H 0.93656 0.12815 0.98411 0.0
H549 H 0.9871 0.17551 0.9253 0.0
H550 H 0.9933 0.16932 0.79933 0.0
C551 C 0.97772 0.14037 0.66953 0.0
C552 C 0.94588 0.11402 0.70616 0.0
C553 C 0.94431 0.11738 0.78046 0.0
C554 C 0.91726 0.08867 0.81493 0.0
C555 C 0.91435 0.09358 0.88867 0.0
C556 C 0.93899 0.12495 0.92773 0.0
C557 C 0.96728 0.15171 0.89456 0.0
C558 C 0.97028 0.14797 0.82192 0.0
H559 H 0.9387 1.00043 0.85255 0.0
C560 C 0.90229 0.99408 0.84777 0.0
H561 H 0.83865 0.01299 0.80328 0.0
H562 H 0.93784 0.10184 0.56286 0.0
H563 H 0.89413 0.04699 0.49661 0.0
H564 H 0.84955 0.99555 0.55712 0.0
H565 H 0.84883 0.99836 0.6842 0.0
C566 C 0.87469 0.02001 0.81207 0.0
C567 C 0.89421 0.05535 0.77561 0.0
C568 C 0.89375 0.05339 0.70129 0.0
C569 C 0.91965 0.08282 0.66649 0.0
C570 C 0.91915 0.07996 0.59211 0.0
C571 C 0.89406 0.04873 0.55338 0.0
C572 C 0.86894 0.01981 0.58745 0.0
C573 C 0.86883 0.02179 0.6605 0.0
H574 H 0.51214 0.34595 0.0984 0.0
C575 C 0.54782 0.34175 0.08761 0.0
H576 H 0.60009 0.35787 0.02158 0.0
H577 H 0.44351 0.42678 0.80575 0.0
H578 H 0.4628 0.36271 0.73933 0.0
H579 H 0.5161 0.3114 0.79064 0.0
H580 H 0.5506 0.32402 0.90867 0.0
C581 C 0.56421 0.35977 0.03212 0.0
C582 C 0.53677 0.39233 0.99727 0.0
C583 C 0.51715 0.38439 0.92864 0.0
C584 C 0.48656 0.41396 0.89917 0.0
C585 C 0.46716 0.4054 0.83044 0.0
C586 C 0.47784 0.36871 0.79192 0.0
C587 C 0.50776 0.33976 0.82088 0.0
C588 C 0.52725 0.34731 0.88857 0.0
H589 H 0.49683 0.52729 0.89988 0.0
C590 C 0.46054 0.52053 0.89327 0.0
H591 H 0.40896 0.47464 0.90074 0.0
H592 H 0.57654 0.42133 0.12456 0.0
H593 H 0.55526 0.48369 0.19297 0.0
H594 H 0.49599 0.53129 0.14727 0.0
H595 H 0.45829 0.51703 0.03252 0.0
C596 C 0.44489 0.48253 0.90785 0.0
C597 C 0.47604 0.45124 0.93867 0.0
C598 C 0.49596 0.45926 0.0074 0.0
C599 C 0.52789 0.4306 0.03551 0.0
C600 C 0.55003 0.44081 0.10216 0.0
C601 C 0.53857 0.47682 0.14173 0.0
C602 C 0.50532 0.50365 0.11591 0.0
C603 C 0.4842 0.4952 0.04959 0.0
loop_
_geom_bond_atom_site_label_1
_geom_bond_atom_site_label_2
_geom_bond_distance
_geom_bond_site_symmetry_2
_ccdc_geom_bond_type
C0 O12 1.241 . S
C0 O13 1.280 . S
C1 O14 1.277 . S
C1 O15 1.245 . S
C2 O26 1.247 1_554 S
C2 O28 1.289 . S
Mg3 O4 1.926 . S
Mg3 O13 1.984 . S
Mg3 O15 1.988 . S
Mg3 O16 2.061 . S
O4 Mg3 1.926 . S
O4 Mg5 1.986 . S
O4 Mg6 1.917 . S
Mg5 O4 1.986 . S
Mg5 O12 2.042 . S
Mg5 O14 2.041 . S
Mg5 O20 2.038 . S
Mg5 O28 2.238 . S
Mg6 O4 1.917 . S
Mg6 O7 1.917 1_554 S
Mg6 O17 2.106 1_554 S
Mg6 O19 2.079 1_554 S
Mg6 O28 2.106 . S
Mg6 O29 2.079 . S
O7 Mg6 1.917 1_556 S
O7 Mg8 1.926 . S
O7 Mg9 1.986 . S
Mg8 O7 1.926 . S
Mg8 O22 1.984 . S
Mg8 O25 1.988 . S
Mg8 O26 2.061 . S
Mg9 O7 1.986 . S
Mg9 O17 2.238 . S
Mg9 O21 2.042 . S
Mg9 O23 2.041 . S
Mg9 O30 2.038 1_556 S
C10 O16 1.247 1_556 S
C10 O17 1.289 . S
C11 O29 1.245 . S
C11 O30 1.274 . S
O12 C0 1.241 . S
O12 Mg5 2.042 . S
O13 C0 1.280 . S
O13 Mg3 1.984 . S
O14 C1 1.277 . S
O14 Mg5 2.041 . S
O15 C1 1.245 . S
O15 Mg3 1.988 . S
O16 Mg3 2.061 . S
O16 C10 1.247 1_554 S
O17 Mg6 2.106 1_556 S
O17 Mg9 2.238 . S
O17 C10 1.289 . S
C18 O19 1.245 . S
C18 O20 1.274 1_556 S
O19 Mg6 2.079 1_556 S
O19 C18 1.245 . S
O20 Mg5 2.038 . S
O20 C18 1.274 1_554 S
O21 Mg9 2.042 . S
O21 C24 1.241 . S
O22 Mg8 1.984 . S
O22 C24 1.280 . S
O23 Mg9 2.041 . S
O23 C27 1.277 . S
C24 O21 1.241 . S
C24 O22 1.280 . S
O25 Mg8 1.988 . S
O25 C27 1.245 . S
O26 C2 1.247 1_556 S
O26 Mg8 2.061 . S
C27 O23 1.277 . S
C27 O25 1.245 . S
O28 C2 1.289 . S
O28 Mg5 2.238 . S
O28 Mg6 2.106 . S
O29 Mg6 2.079 . S
O29 C11 1.245 . S
O30 Mg9 2.038 1_554 S
O30 C11 1.274 . S
C31 O43 1.241 . S
C31 O44 1.280 . S
C32 O45 1.277 . S
C32 O46 1.245 . S
C33 O57 1.247 . S
C33 O59 1.289 . S
Mg34 O35 1.926 . S
Mg34 O44 1.984 . S
Mg34 O46 1.988 . S
Mg34 O47 2.061 . S
O35 Mg34 1.926 . S
O35 Mg36 1.986 . S
O35 Mg37 1.917 . S
Mg36 O35 1.986 . S
Mg36 O43 2.042 . S
Mg36 O45 2.041 . S
Mg36 O51 2.038 . S
Mg36 O59 2.238 . S
Mg37 O35 1.917 . S
Mg37 O38 1.917 . S
Mg37 O48 2.106 . S
Mg37 O50 2.079 . S
Mg37 O59 2.106 . S
Mg37 O60 2.079 . S
O38 Mg37 1.917 . S
O38 Mg39 1.926 . S
O38 Mg40 1.986 . S
Mg39 O38 1.926 . S
Mg39 O53 1.984 . S
Mg39 O56 1.988 . S
Mg39 O57 2.061 . S
Mg40 O38 1.986 . S
Mg40 O48 2.238 . S
Mg40 O52 2.042 . S
Mg40 O54 2.041 . S
Mg40 O61 2.038 . S
C41 O47 1.247 . S
C41 O48 1.289 . S
C42 O60 1.245 . S
C42 O61 1.274 . S
O43 C31 1.241 . S
O43 Mg36 2.042 . S
O44 C31 1.280 . S
O44 Mg34 1.984 . S
O45 C32 1.277 . S
O45 Mg36 2.041 . S
O46 C32 1.245 . S
O46 Mg34 1.988 . S
O47 Mg34 2.061 . S
O47 C41 1.247 . S
O48 Mg37 2.106 . S
O48 Mg40 2.238 . S
O48 C41 1.289 . S
C49 O50 1.245 . S
C49 O51 1.274 . S
O50 Mg37 2.079 . S
O50 C49 1.245 . S
O51 Mg36 2.038 . S
O51 C49 1.274 . S
O52 Mg40 2.042 . S
O52 C55 1.241 . S
O53 Mg39 1.984 . S
O53 C55 1.280 . S
O54 Mg40 2.041 . S
O54 C58 1.277 . S
C55 O52 1.241 . S
C55 O53 1.280 . S
O56 Mg39 1.988 . S
O56 C58 1.245 . S
O57 C33 1.247 . S
O57 Mg39 2.061 . S
C58 O54 1.277 . S
C58 O56 1.245 . S
O59 C33 1.289 . S
O59 Mg36 2.238 . S
O59 Mg37 2.106 . S
O60 Mg37 2.079 . S
O60 C42 1.245 . S
O61 Mg40 2.038 . S
O61 C42 1.274 . S
C62 O74 1.241 . S
C62 O75 1.280 . S
C63 O76 1.277 . S
C63 O77 1.245 . S
C64 O88 1.247 . S
C64 O90 1.289 . S
Mg65 O66 1.926 . S
Mg65 O75 1.984 . S
Mg65 O77 1.988 . S
Mg65 O78 2.061 . S
O66 Mg65 1.926 . S
O66 Mg67 1.986 . S
O66 Mg68 1.917 . S
Mg67 O66 1.986 . S
Mg67 O74 2.042 . S
Mg67 O76 2.041 . S
Mg67 O82 2.038 . S
Mg67 O90 2.238 . S
Mg68 O66 1.917 . S
Mg68 O69 1.917 . S
Mg68 O79 2.106 . S
Mg68 O81 2.079 . S
Mg68 O90 2.106 . S
Mg68 O91 2.079 . S
O69 Mg68 1.917 . S
O69 Mg70 1.926 . S
O69 Mg71 1.986 . S
Mg70 O69 1.926 . S
Mg70 O84 1.984 . S
Mg70 O87 1.988 . S
Mg70 O88 2.061 . S
Mg71 O69 1.986 . S
Mg71 O79 2.238 . S
Mg71 O83 2.042 . S
Mg71 O85 2.041 . S
Mg71 O92 2.038 . S
C72 O78 1.247 . S
C72 O79 1.289 . S
C73 O91 1.245 . S
C73 O92 1.274 . S
O74 C62 1.241 . S
O74 Mg67 2.042 . S
O75 C62 1.280 . S
O75 Mg65 1.984 . S
O76 C63 1.277 . S
O76 Mg67 2.041 . S
O77 C63 1.245 . S
O77 Mg65 1.988 . S
O78 Mg65 2.061 . S
O78 C72 1.247 . S
O79 Mg68 2.106 . S
O79 Mg71 2.238 . S
O79 C72 1.289 . S
C80 O81 1.245 . S
C80 O82 1.274 . S
O81 Mg68 2.079 . S
O81 C80 1.245 . S
O82 Mg67 2.038 . S
O82 C80 1.274 . S
O83 Mg71 2.042 . S
O83 C86 1.241 . S
O84 Mg70 1.984 . S
O84 C86 1.280 . S
O85 Mg71 2.041 . S
O85 C89 1.277 . S
C86 O83 1.241 . S
C86 O84 1.280 . S
O87 Mg70 1.988 . S
O87 C89 1.245 . S
O88 C64 1.247 . S
O88 Mg70 2.061 . S
C89 O85 1.277 . S
C89 O87 1.245 . S
O90 C64 1.289 . S
O90 Mg67 2.238 . S
O90 Mg68 2.106 . S
O91 Mg68 2.079 . S
O91 C73 1.245 . S
O92 Mg71 2.038 . S
O92 C73 1.274 . S
C93 O105 1.241 . S
C93 O106 1.280 . S
C94 O107 1.277 . S
C94 O108 1.245 . S
C95 O119 1.247 . S
C95 O121 1.289 . S
Mg96 O97 1.926 . S
Mg96 O106 1.984 . S
Mg96 O108 1.988 . S
Mg96 O109 2.061 . S
O97 Mg96 1.926 . S
O97 Mg98 1.986 . S
O97 Mg99 1.917 . S
Mg98 O97 1.986 . S
Mg98 O105 2.042 . S
Mg98 O107 2.041 . S
Mg98 O113 2.038 . S
Mg98 O121 2.238 . S
Mg99 O97 1.917 . S
Mg99 O100 1.917 . S
Mg99 O110 2.106 . S
Mg99 O112 2.079 . S
Mg99 O121 2.106 . S
Mg99 O122 2.079 . S
O100 Mg99 1.917 . S
O100 Mg101 1.926 . S
O100 Mg102 1.986 . S
Mg101 O100 1.926 . S
Mg101 O115 1.984 . S
Mg101 O118 1.988 . S
Mg101 O119 2.061 . S
Mg102 O100 1.986 . S
Mg102 O110 2.238 . S
Mg102 O114 2.042 . S
Mg102 O116 2.041 . S
Mg102 O123 2.038 . S
C103 O109 1.247 . S
C103 O110 1.289 . S
C104 O122 1.245 . S
C104 O123 1.274 . S
O105 C93 1.241 . S
O105 Mg98 2.042 . S
O106 C93 1.280 . S
O106 Mg96 1.984 . S
O107 C94 1.277 . S
O107 Mg98 2.041 . S
O108 C94 1.245 . S
O108 Mg96 1.988 . S
O109 Mg96 2.061 . S
O109 C103 1.247 . S
O110 Mg99 2.106 . S
O110 Mg102 2.238 . S
O110 C103 1.289 . S
C111 O112 1.245 . S
C111 O113 1.274 . S
O112 Mg99 2.079 . S
O112 C111 1.245 . S
O113 Mg98 2.038 . S
O113 C111 1.274 . S
O114 Mg102 2.042 . S
O114 C117 1.241 . S
O115 Mg101 1.984 . S
O115 C117 1.280 . S
O116 Mg102 2.041 . S
O116 C120 1.277 . S
C117 O114 1.241 . S
C117 O115 1.280 . S
O118 Mg101 1.988 . S
O118 C120 1.245 . S
O119 C95 1.247 . S
O119 Mg101 2.061 . S
C120 O116 1.277 . S
C120 O118 1.245 . S
O121 C95 1.289 . S
O121 Mg98 2.238 . S
O121 Mg99 2.106 . S
O122 Mg99 2.079 . S
O122 C104 1.245 . S
O123 Mg102 2.038 . S
O123 C104 1.274 . S
H124 C125 0.951 . S
C125 H124 0.951 . S
C125 C131 1.265 . S
H126 C131 0.950 . S
H127 C135 0.949 . S
H128 C136 0.950 . S
H129 C137 0.955 . S
H130 C138 0.951 . S
C131 C125 1.265 . S
C131 H126 0.950 . S
C131 C132 1.478 . S
C132 C131 1.478 . S
C132 C133 1.397 . S
C132 C149 1.394 . S
C133 C132 1.397 . S
C133 C134 1.438 . S
C133 C138 1.429 . S
C134 C133 1.438 . S
C134 C135 1.428 . S
C134 C147 1.394 . S
C135 H127 0.949 . S
C135 C134 1.428 . S
C135 C136 1.345 . S
C136 H128 0.950 . S
C136 C135 1.345 . S
C136 C137 1.424 . S
C137 H129 0.955 . S
C137 C136 1.424 . S
C137 C138 1.347 . S
C138 H130 0.951 . S
C138 C133 1.429 . S
C138 C137 1.347 . S
H139 C140 0.951 . S
C140 H139 0.951 . S
C140 C146 1.265 . S
H141 C146 0.950 . S
H142 C150 0.949 . S
H143 C151 0.950 . S
H144 C152 0.951 . S
H145 C153 0.951 . S
C146 C140 1.265 . S
C146 H141 0.950 . S
C146 C147 1.478 . S
C147 C134 1.394 . S
C147 C146 1.478 . S
C147 C148 1.397 . S
C148 C147 1.397 . S
C148 C149 1.438 . S
C148 C153 1.429 . S
C149 C132 1.394 . S
C149 C148 1.438 . S
C149 C150 1.428 . S
C150 H142 0.949 . S
C150 C149 1.428 . S
C150 C151 1.345 . S
C151 H143 0.950 . S
C151 C150 1.345 . S
C151 C152 1.424 . S
C152 H144 0.951 . S
C152 C151 1.424 . S
C152 C153 1.347 . S
C153 H145 0.951 . S
C153 C148 1.429 . S
C153 C152 1.347 . S
H154 C155 0.951 . S
C155 H154 0.951 . S
C155 C161 1.265 . S
H156 C161 0.950 . S
H157 C165 0.949 . S
H158 C166 0.950 . S
H159 C167 0.951 . S
H160 C168 0.951 . S
C161 C155 1.265 . S
C161 H156 0.950 . S
C161 C162 1.478 . S
C162 C161 1.478 . S
C162 C163 1.397 . S
C162 C179 1.394 . S
C163 C162 1.397 . S
C163 C164 1.438 . S
C163 C168 1.429 . S
C164 C163 1.438 . S
C164 C165 1.428 . S
C164 C177 1.394 . S
C165 H157 0.949 . S
C165 C164 1.428 . S
C165 C166 1.345 . S
C166 H158 0.950 . S
C166 C165 1.345 . S
C166 C167 1.424 . S
C167 H159 0.951 . S
C167 C166 1.424 . S
C167 C168 1.347 . S
C168 H160 0.951 . S
C168 C163 1.429 . S
C168 C167 1.347 . S
H169 C170 0.951 . S
C170 H169 0.951 . S
C170 C176 1.265 . S
H171 C176 0.950 . S
H172 C180 0.949 . S
H173 C181 0.950 . S
H174 C182 0.951 . S
H175 C183 0.951 . S
C176 C170 1.265 . S
C176 H171 0.950 . S
C176 C177 1.478 . S
C177 C164 1.394 . S
C177 C176 1.478 . S
C177 C178 1.397 . S
C178 C177 1.397 . S
C178 C179 1.438 . S
C178 C183 1.429 . S
C179 C162 1.394 . S
C179 C178 1.438 . S
C179 C180 1.428 . S
C180 H172 0.949 . S
C180 C179 1.428 . S
C180 C181 1.345 . S
C181 H173 0.950 . S
C181 C180 1.345 . S
C181 C182 1.424 . S
C182 H174 0.951 . S
C182 C181 1.424 . S
C182 C183 1.347 . S
C183 H175 0.951 . S
C183 C178 1.429 . S
C183 C182 1.347 . S
H184 C185 0.951 . S
C185 H184 0.951 . S
C185 C191 1.265 . S
H186 C191 0.950 . S
H187 C195 0.949 . S
H188 C196 0.950 . S
H189 C197 0.951 . S
H190 C198 0.951 . S
C191 C185 1.265 . S
C191 H186 0.950 . S
C191 C192 1.478 . S
C192 C191 1.478 . S
C192 C193 1.397 . S
C192 C209 1.394 . S
C193 C192 1.397 . S
C193 C194 1.438 1_556 S
C193 C198 1.429 . S
C194 C193 1.438 1_554 S
C194 C195 1.428 . S
C194 C207 1.394 . S
C195 H187 0.949 . S
C195 C194 1.428 . S
C195 C196 1.345 . S
C196 H188 0.950 . S
C196 C195 1.345 . S
C196 C197 1.424 1_554 S
C197 H189 0.951 . S
C197 C196 1.424 1_556 S
C197 C198 1.347 . S
C198 H190 0.951 . S
C198 C193 1.429 . S
C198 C197 1.347 . S
H199 C200 0.951 . S
C200 H199 0.951 . S
C200 C206 1.265 . S
H201 C206 0.950 . S
H202 C210 0.949 . S
H203 C211 0.950 . S
H204 C212 0.951 1_554 S
H205 C213 0.951 . S
C206 C200 1.265 . S
C206 H201 0.950 . S
C206 C207 1.478 . S
C207 C194 1.394 . S
C207 C206 1.478 . S
C207 C208 1.397 . S
C208 C207 1.397 . S
C208 C209 1.438 1_554 S
C208 C213 1.429 . S
C209 C192 1.394 . S
C209 C208 1.438 1_556 S
C209 C210 1.428 . S
C210 H202 0.949 . S
C210 C209 1.428 . S
C210 C211 1.345 . S
C211 H203 0.950 . S
C211 C210 1.345 . S
C211 C212 1.424 . S
C212 H204 0.951 1_556 S
C212 C211 1.424 . S
C212 C213 1.347 1_556 S
C213 H205 0.951 . S
C213 C208 1.429 . S
C213 C212 1.347 1_554 S
H214 C215 0.951 . S
C215 H214 0.951 . S
C215 C221 1.265 . S
H216 C221 0.950 . S
H217 C225 0.949 . S
H218 C226 0.950 . S
H219 C227 0.951 . S
H220 C228 0.951 . S
C221 C215 1.265 . S
C221 H216 0.950 . S
C221 C222 1.478 . S
C222 C221 1.478 . S
C222 C223 1.397 . S
C222 C239 1.394 . S
C223 C222 1.397 . S
C223 C224 1.438 . S
C223 C228 1.429 . S
C224 C223 1.438 . S
C224 C225 1.428 . S
C224 C237 1.394 . S
C225 H217 0.949 . S
C225 C224 1.428 . S
C225 C226 1.345 . S
C226 H218 0.950 . S
C226 C225 1.345 . S
C226 C227 1.424 . S
C227 H219 0.951 . S
C227 C226 1.424 . S
C227 C228 1.347 . S
C228 H220 0.951 . S
C228 C223 1.429 . S
C228 C227 1.347 . S
H229 C230 0.951 . S
C230 H229 0.951 . S
C230 C236 1.265 . S
H231 C236 0.950 . S
H232 C240 0.949 . S
H233 C241 0.950 . S
H234 C242 0.951 . S
H235 C243 0.951 . S
C236 C230 1.265 . S
C236 H231 0.950 . S
C236 C237 1.478 . S
C237 C224 1.394 . S
C237 C236 1.478 . S
C237 C238 1.397 . S
C238 C237 1.397 . S
C238 C239 1.438 . S
C238 C243 1.429 . S
C239 C222 1.394 . S
C239 C238 1.438 . S
C239 C240 1.428 . S
C240 H232 0.949 . S
C240 C239 1.428 . S
C240 C241 1.345 . S
C241 H233 0.950 . S
C241 C240 1.345 . S
C241 C242 1.424 . S
C242 H234 0.951 . S
C242 C241 1.424 . S
C242 C243 1.347 . S
C243 H235 0.951 . S
C243 C238 1.429 . S
C243 C242 1.347 . S
H244 C245 0.951 . S
C245 H244 0.951 . S
C245 C251 1.265 . S
H246 C251 0.950 . S
H247 C255 0.949 . S
H248 C256 0.950 . S
H249 C257 0.951 . S
H250 C258 0.951 . S
C251 C245 1.265 . S
C251 H246 0.950 . S
C251 C252 1.478 . S
C252 C251 1.478 . S
C252 C253 1.397 . S
C252 C269 1.394 . S
C253 C252 1.397 . S
C253 C254 1.438 . S
C253 C258 1.429 . S
C254 C253 1.438 . S
C254 C255 1.428 . S
C254 C267 1.394 . S
C255 H247 0.949 . S
C255 C254 1.428 . S
C255 C256 1.345 . S
C256 H248 0.950 . S
C256 C255 1.345 . S
C256 C257 1.424 . S
C257 H249 0.951 . S
C257 C256 1.424 . S
C257 C258 1.347 . S
C258 H250 0.951 . S
C258 C253 1.429 . S
C258 C257 1.347 . S
H259 C260 0.951 . S
C260 H259 0.951 . S
C260 C266 1.265 . S
H261 C266 0.950 . S
H262 C270 0.949 . S
H263 C271 0.950 . S
H264 C272 0.951 . S
H265 C273 0.951 . S
C266 C260 1.265 . S
C266 H261 0.950 . S
C266 C267 1.478 . S
C267 C254 1.394 . S
C267 C266 1.478 . S
C267 C268 1.397 . S
C268 C267 1.397 . S
C268 C269 1.438 . S
C268 C273 1.429 . S
C269 C252 1.394 . S
C269 C268 1.438 . S
C269 C270 1.428 . S
C270 H262 0.949 . S
C270 C269 1.428 . S
C270 C271 1.345 . S
C271 H263 0.950 . S
C271 C270 1.345 . S
C271 C272 1.424 1_556 S
C272 H264 0.951 . S
C272 C271 1.424 1_554 S
C272 C273 1.347 1_554 S
C273 H265 0.951 . S
C273 C268 1.429 . S
C273 C272 1.347 1_556 S
H274 C275 0.951 . S
C275 H274 0.951 . S
C275 C281 1.265 . S
H276 C281 0.950 . S
H277 C285 0.949 . S
H278 C286 0.950 . S
H279 C287 0.951 . S
H280 C288 0.951 . S
C281 C275 1.265 . S
C281 H276 0.950 . S
C281 C282 1.478 . S
C282 C281 1.478 . S
C282 C283 1.397 . S
C282 C299 1.394 . S
C283 C282 1.397 . S
C283 C284 1.438 . S
C283 C288 1.429 1_554 S
C284 C283 1.438 . S
C284 C285 1.428 1_554 S
C284 C297 1.394 . S
C285 H277 0.949 . S
C285 C284 1.428 1_556 S
C285 C286 1.345 . S
C286 H278 0.950 . S
C286 C285 1.345 . S
C286 C287 1.424 . S
C287 H279 0.951 . S
C287 C286 1.424 . S
C287 C288 1.347 . S
C288 H280 0.951 . S
C288 C283 1.429 1_556 S
C288 C287 1.347 . S
H289 C290 0.951 . S
C290 H289 0.951 . S
C290 C296 1.265 . S
H291 C296 0.950 . S
H292 C300 0.949 . S
H293 C301 0.950 . S
H294 C302 0.951 . S
H295 C303 0.951 . S
C296 C290 1.265 . S
C296 H291 0.950 . S
C296 C297 1.478 1_565 S
C297 C284 1.394 . S
C297 C296 1.478 1_545 S
C297 C298 1.397 . S
C298 C297 1.397 . S
C298 C299 1.438 . S
C298 C303 1.429 . S
C299 C282 1.394 . S
C299 C298 1.438 . S
C299 C300 1.428 . S
C300 H292 0.949 . S
C300 C299 1.428 . S
C300 C301 1.345 . S
C301 H293 0.950 . S
C301 C300 1.345 . S
C301 C302 1.424 . S
C302 H294 0.951 . S
C302 C301 1.424 . S
C302 C303 1.347 . S
C303 H295 0.951 . S
C303 C298 1.429 . S
C303 C302 1.347 . S
H304 C305 0.951 . S
C305 H304 0.951 . S
C305 C311 1.265 . S
H306 C311 0.950 . S
H307 C315 0.949 . S
H308 C316 0.950 . S
H309 C317 0.951 . S
H310 C318 0.951 . S
C311 C305 1.265 . S
C311 H306 0.950 . S
C311 C312 1.478 . S
C312 C311 1.478 . S
C312 C313 1.397 . S
C312 C329 1.394 . S
C313 C312 1.397 . S
C313 C314 1.438 . S
C313 C318 1.429 . S
C314 C313 1.438 . S
C314 C315 1.428 . S
C314 C327 1.394 . S
C315 H307 0.949 . S
C315 C314 1.428 . S
C315 C316 1.345 . S
C316 H308 0.950 . S
C316 C315 1.345 . S
C316 C317 1.424 . S
C317 H309 0.951 . S
C317 C316 1.424 . S
C317 C318 1.347 . S
C318 H310 0.951 . S
C318 C313 1.429 . S
C318 C317 1.347 . S
H319 C320 0.951 . S
C320 H319 0.951 . S
C320 C326 1.265 . S
H321 C326 0.950 . S
H322 C330 0.949 . S
H323 C331 0.950 . S
H324 C332 0.951 . S
H325 C333 0.951 . S
C326 C320 1.265 . S
C326 H321 0.950 . S
C326 C327 1.478 . S
C327 C314 1.394 . S
C327 C326 1.478 . S
C327 C328 1.397 . S
C328 C327 1.397 . S
C328 C329 1.438 . S
C328 C333 1.429 . S
C329 C312 1.394 . S
C329 C328 1.438 . S
C329 C330 1.428 . S
C330 H322 0.949 . S
C330 C329 1.428 . S
C330 C331 1.345 . S
C331 H323 0.950 . S
C331 C330 1.345 . S
C331 C332 1.424 . S
C332 H324 0.951 . S
C332 C331 1.424 . S
C332 C333 1.347 . S
C333 H325 0.951 . S
C333 C328 1.429 . S
C333 C332 1.347 . S
H334 C335 0.951 . S
C335 H334 0.951 . S
C335 C341 1.265 . S
H336 C341 0.950 . S
H337 C345 0.949 . S
H338 C346 0.950 . S
H339 C347 0.951 . S
H340 C348 0.951 . S
C341 C335 1.265 . S
C341 H336 0.950 . S
C341 C342 1.478 . S
C342 C341 1.478 . S
C342 C343 1.397 . S
C342 C359 1.394 . S
C343 C342 1.397 . S
C343 C344 1.438 . S
C343 C348 1.429 . S
C344 C343 1.438 . S
C344 C345 1.428 . S
C344 C357 1.394 . S
C345 H337 0.949 . S
C345 C344 1.428 . S
C345 C346 1.345 . S
C346 H338 0.950 . S
C346 C345 1.345 . S
C346 C347 1.424 . S
C347 H339 0.951 . S
C347 C346 1.424 . S
C347 C348 1.347 . S
C348 H340 0.951 . S
C348 C343 1.429 . S
C348 C347 1.347 . S
H349 C350 0.951 . S
C350 H349 0.951 . S
C350 C356 1.265 . S
H351 C356 0.950 . S
H352 C360 0.949 . S
H353 C361 0.950 . S
H354 C362 0.951 . S
H355 C363 0.944 1_545 S
C356 C350 1.265 . S
C356 H351 0.950 . S
C356 C357 1.478 1_545 S
C357 C344 1.394 . S
C357 C356 1.478 1_565 S
C357 C358 1.397 . S
C358 C357 1.397 . S
C358 C359 1.438 . S
C358 C363 1.429 . S
C359 C342 1.394 . S
C359 C358 1.438 . S
C359 C360 1.428 . S
C360 H352 0.949 . S
C360 C359 1.428 . S
C360 C361 1.345 . S
C361 H353 0.950 . S
C361 C360 1.345 . S
C361 C362 1.424 . S
C362 H354 0.951 . S
C362 C361 1.424 . S
C362 C363 1.347 . S
C363 H355 0.944 1_565 S
C363 C358 1.429 . S
C363 C362 1.347 . S
H364 C365 0.951 . S
C365 H364 0.951 . S
C365 C371 1.265 1_655 S
H366 C371 0.950 1_554 S
H367 C375 0.949 . S
H368 C376 0.950 1_554 S
H369 C377 0.951 . S
H370 C378 0.951 1_554 S
C371 C365 1.265 1_455 S
C371 H366 0.950 1_556 S
C371 C372 1.478 . S
C372 C371 1.478 . S
C372 C373 1.397 . S
C372 C389 1.394 . S
C373 C372 1.397 . S
C373 C374 1.438 . S
C373 C378 1.429 . S
C374 C373 1.438 . S
C374 C375 1.428 . S
C374 C387 1.394 . S
C375 H367 0.949 . S
C375 C374 1.428 . S
C375 C376 1.345 . S
C376 H368 0.950 1_556 S
C376 C375 1.345 . S
C376 C377 1.424 1_556 S
C377 H369 0.951 . S
C377 C376 1.424 1_554 S
C377 C378 1.347 1_554 S
C378 H370 0.951 1_556 S
C378 C373 1.429 . S
C378 C377 1.347 1_556 S
H379 C380 0.951 . S
C380 H379 0.951 . S
C380 C386 1.265 . S
H381 C386 0.950 . S
H382 C390 0.949 . S
H383 C391 0.950 . S
H384 C392 0.951 . S
H385 C393 0.951 . S
C386 C380 1.265 . S
C386 H381 0.950 . S
C386 C387 1.478 . S
C387 C374 1.394 . S
C387 C386 1.478 . S
C387 C388 1.397 . S
C388 C387 1.397 . S
C388 C389 1.438 . S
C388 C393 1.429 . S
C389 C372 1.394 . S
C389 C388 1.438 . S
C389 C390 1.428 . S
C390 H382 0.949 . S
C390 C389 1.428 . S
C390 C391 1.345 . S
C391 H383 0.950 . S
C391 C390 1.345 . S
C391 C392 1.424 . S
C392 H384 0.951 . S
C392 C391 1.424 . S
C392 C393 1.347 . S
C393 H385 0.951 . S
C393 C388 1.429 . S
C393 C392 1.347 . S
H394 C395 0.951 . S
C395 H394 0.951 . S
C395 C401 1.265 . S
H396 C401 0.950 . S
H397 C405 0.949 . S
H398 C406 0.950 . S
H399 C407 0.951 1_556 S
H400 C408 0.951 . S
C401 C395 1.265 . S
C401 H396 0.950 . S
C401 C402 1.478 . S
C402 C401 1.478 . S
C402 C403 1.397 . S
C402 C419 1.394 . S
C403 C402 1.397 . S
C403 C404 1.438 . S
C403 C408 1.429 . S
C404 C403 1.438 . S
C404 C405 1.428 . S
C404 C417 1.394 . S
C405 H397 0.949 . S
C405 C404 1.428 . S
C405 C406 1.345 1_554 S
C406 H398 0.950 . S
C406 C405 1.345 1_556 S
C406 C407 1.424 1_556 S
C407 H399 0.951 1_554 S
C407 C406 1.424 1_554 S
C407 C408 1.347 . S
C408 H400 0.951 . S
C408 C403 1.429 . S
C408 C407 1.347 . S
H409 C410 0.951 . S
C410 H409 0.951 . S
C410 C416 1.265 . S
H411 C416 0.950 . S
H412 C420 0.949 . S
H413 C421 0.950 . S
H414 C422 0.951 . S
H415 C423 0.951 . S
C416 C410 1.265 . S
C416 H411 0.950 . S
C416 C417 1.478 . S
C417 C404 1.394 . S
C417 C416 1.478 . S
C417 C418 1.397 . S
C418 C417 1.397 . S
C418 C419 1.438 . S
C418 C423 1.429 . S
C419 C402 1.394 . S
C419 C418 1.438 . S
C419 C420 1.428 . S
C420 H412 0.949 . S
C420 C419 1.428 . S
C420 C421 1.345 . S
C421 H413 0.950 . S
C421 C420 1.345 . S
C421 C422 1.424 . S
C422 H414 0.951 . S
C422 C421 1.424 . S
C422 C423 1.347 . S
C423 H415 0.951 . S
C423 C418 1.429 . S
C423 C422 1.347 . S
H424 C425 0.951 . S
C425 H424 0.951 . S
C425 C431 1.265 . S
H426 C431 0.950 . S
H427 C435 0.949 . S
H428 C436 0.950 . S
H429 C437 0.951 . S
H430 C438 0.951 . S
C431 C425 1.265 . S
C431 H426 0.950 . S
C431 C432 1.478 . S
C432 C431 1.478 . S
C432 C433 1.397 . S
C432 C449 1.394 . S
C433 C432 1.397 . S
C433 C434 1.438 . S
C433 C438 1.429 . S
C434 C433 1.438 . S
C434 C435 1.428 . S
C434 C447 1.394 . S
C435 H427 0.949 . S
C435 C434 1.428 . S
C435 C436 1.345 . S
C436 H428 0.950 . S
C436 C435 1.345 . S
C436 C437 1.424 . S
C437 H429 0.951 . S
C437 C436 1.424 . S
C437 C438 1.347 . S
C438 H430 0.951 . S
C438 C433 1.429 . S
C438 C437 1.347 . S
H439 C440 0.951 . S
C440 H439 0.951 . S
C440 C446 1.265 1_455 S
H441 C446 0.950 . S
H442 C450 0.949 . S
H443 C451 0.950 . S
H444 C452 0.951 . S
H445 C453 0.951 . S
C446 C440 1.265 1_655 S
C446 H441 0.950 . S
C446 C447 1.478 . S
C447 C434 1.394 . S
C447 C446 1.478 . S
C447 C448 1.397 . S
C448 C447 1.397 . S
C448 C449 1.438 . S
C448 C453 1.429 . S
C449 C432 1.394 . S
C449 C448 1.438 . S
C449 C450 1.428 . S
C450 H442 0.949 . S
C450 C449 1.428 . S
C450 C451 1.345 . S
C451 H443 0.950 . S
C451 C450 1.345 . S
C451 C452 1.424 . S
C452 H444 0.951 . S
C452 C451 1.424 . S
C452 C453 1.347 . S
C453 H445 0.951 . S
C453 C448 1.429 . S
C453 C452 1.347 . S
H454 C455 0.951 . S
C455 H454 0.951 . S
C455 C461 1.265 . S
H456 C461 0.950 . S
H457 C465 0.949 . S
H458 C466 0.950 . S
H459 C467 0.951 . S
H460 C468 0.951 . S
C461 C455 1.265 . S
C461 H456 0.950 . S
C461 C462 1.478 . S
C462 C461 1.478 . S
C462 C463 1.397 . S
C462 C479 1.394 . S
C463 C462 1.397 . S
C463 C464 1.438 . S
C463 C468 1.429 . S
C464 C463 1.438 . S
C464 C465 1.428 . S
C464 C477 1.394 . S
C465 H457 0.949 . S
C465 C464 1.428 . S
C465 C466 1.345 . S
C466 H458 0.950 . S
C466 C465 1.345 . S
C466 C467 1.424 . S
C467 H459 0.951 . S
C467 C466 1.424 . S
C467 C468 1.347 . S
C468 H460 0.951 . S
C468 C463 1.429 . S
C468 C467 1.347 . S
H469 C470 0.951 . S
C470 H469 0.951 . S
C470 C476 1.265 . S
H471 C476 0.950 . S
H472 C480 0.949 . S
H473 C481 0.950 . S
H474 C482 0.951 . S
H475 C483 0.951 . S
C476 C470 1.265 . S
C476 H471 0.950 . S
C476 C477 1.478 . S
C477 C464 1.394 . S
C477 C476 1.478 . S
C477 C478 1.397 . S
C478 C477 1.397 . S
C478 C479 1.438 . S
C478 C483 1.429 . S
C479 C462 1.394 . S
C479 C478 1.438 . S
C479 C480 1.428 . S
C480 H472 0.949 . S
C480 C479 1.428 . S
C480 C481 1.345 . S
C481 H473 0.950 . S
C481 C480 1.345 . S
C481 C482 1.424 . S
C482 H474 0.951 . S
C482 C481 1.424 . S
C482 C483 1.347 . S
C483 H475 0.951 . S
C483 C478 1.429 . S
C483 C482 1.347 . S
H484 C485 0.951 . S
C485 H484 0.951 . S
C485 C491 1.265 . S
H486 C491 0.950 . S
H487 C495 0.951 . S
H488 C496 0.950 . S
H489 C497 0.951 . S
H490 C498 0.951 . S
C491 C485 1.265 . S
C491 H486 0.950 . S
C491 C492 1.478 . S
C492 C491 1.478 . S
C492 C493 1.397 . S
C492 C509 1.394 1_545 S
C493 C492 1.397 . S
C493 C494 1.438 1_455 S
C493 C498 1.429 . S
C494 C493 1.438 1_655 S
C494 C495 1.428 . S
C494 C507 1.394 1_545 S
C495 H487 0.951 . S
C495 C494 1.428 . S
C495 C496 1.345 . S
C496 H488 0.950 . S
C496 C495 1.345 . S
C496 C497 1.424 . S
C497 H489 0.951 . S
C497 C496 1.424 . S
C497 C498 1.347 1_655 S
C498 H490 0.951 . S
C498 C493 1.429 . S
C498 C497 1.347 1_455 S
H499 C500 0.951 . S
C500 H499 0.951 . S
C500 C506 1.265 . S
H501 C506 0.950 1_455 S
H502 C510 0.949 . S
H503 C511 0.950 . S
H504 C512 0.951 . S
H505 C513 0.951 . S
C506 C500 1.265 . S
C506 H501 0.950 1_655 S
C506 C507 1.478 . S
C507 C494 1.394 1_565 S
C507 C506 1.478 . S
C507 C508 1.397 1_655 S
C508 C507 1.397 1_455 S
C508 C509 1.438 . S
C508 C513 1.429 . S
C509 C492 1.394 1_565 S
C509 C508 1.438 . S
C509 C510 1.428 . S
C510 H502 0.949 . S
C510 C509 1.428 . S
C510 C511 1.345 . S
C511 H503 0.950 . S
C511 C510 1.345 . S
C511 C512 1.424 . S
C512 H504 0.951 . S
C512 C511 1.424 . S
C512 C513 1.347 . S
C513 H505 0.951 . S
C513 C508 1.429 . S
C513 C512 1.347 . S
H514 C515 0.951 . S
C515 H514 0.951 . S
C515 C521 1.265 . S
H516 C521 0.950 . S
H517 C525 0.949 . S
H518 C526 0.950 . S
H519 C527 0.951 . S
H520 C528 0.951 . S
C521 C515 1.265 . S
C521 H516 0.950 . S
C521 C522 1.478 . S
C522 C521 1.478 . S
C522 C523 1.397 . S
C522 C539 1.394 . S
C523 C522 1.397 . S
C523 C524 1.438 . S
C523 C528 1.429 . S
C524 C523 1.438 . S
C524 C525 1.428 . S
C524 C537 1.394 . S
C525 H517 0.949 . S
C525 C524 1.428 . S
C525 C526 1.345 . S
C526 H518 0.950 . S
C526 C525 1.345 . S
C526 C527 1.424 . S
C527 H519 0.951 . S
C527 C526 1.424 . S
C527 C528 1.347 . S
C528 H520 0.951 . S
C528 C523 1.429 . S
C528 C527 1.347 . S
H529 C530 0.951 . S
C530 H529 0.951 . S
C530 C536 1.265 . S
H531 C536 0.950 . S
H532 C540 0.949 . S
H533 C541 0.950 . S
H534 C542 0.951 . S
H535 C543 0.951 . S
C536 C530 1.265 . S
C536 H531 0.950 . S
C536 C537 1.478 . S
C537 C524 1.394 . S
C537 C536 1.478 . S
C537 C538 1.397 . S
C538 C537 1.397 . S
C538 C539 1.438 . S
C538 C543 1.429 . S
C539 C522 1.394 . S
C539 C538 1.438 . S
C539 C540 1.428 . S
C540 H532 0.949 . S
C540 C539 1.428 . S
C540 C541 1.345 . S
C541 H533 0.950 . S
C541 C540 1.345 . S
C541 C542 1.424 . S
C542 H534 0.951 . S
C542 C541 1.424 . S
C542 C543 1.347 . S
C543 H535 0.951 . S
C543 C538 1.429 . S
C543 C542 1.347 . S
H544 C545 0.951 . S
C545 H544 0.951 . S
C545 C551 1.265 1_655 S
H546 C551 0.950 . S
H547 C555 0.949 . S
H548 C556 0.950 . S
H549 C557 0.951 . S
H550 C558 0.951 . S
C551 C545 1.265 1_455 S
C551 H546 0.950 . S
C551 C552 1.478 1_455 S
C552 C551 1.478 1_655 S
C552 C553 1.397 . S
C552 C569 1.394 . S
C553 C552 1.397 . S
C553 C554 1.438 . S
C553 C558 1.429 1_655 S
C554 C553 1.438 . S
C554 C555 1.428 . S
C554 C567 1.394 . S
C555 H547 0.949 . S
C555 C554 1.428 . S
C555 C556 1.345 . S
C556 H548 0.950 . S
C556 C555 1.345 . S
C556 C557 1.424 1_655 S
C557 H549 0.951 . S
C557 C556 1.424 1_455 S
C557 C558 1.347 . S
C558 H550 0.951 . S
C558 C553 1.429 1_455 S
C558 C557 1.347 . S
H559 C560 0.951 . S
C560 H559 0.951 . S
C560 C566 1.265 1_565 S
H561 C566 0.950 . S
H562 C570 0.949 . S
H563 C571 0.950 . S
H564 C572 0.951 . S
H565 C573 0.951 . S
C566 C560 1.265 1_545 S
C566 H561 0.950 . S
C566 C567 1.478 . S
C567 C554 1.394 . S
C567 C566 1.478 . S
C567 C568 1.397 . S
C568 C567 1.397 . S
C568 C569 1.438 . S
C568 C573 1.429 1_545 S
C569 C552 1.394 . S
C569 C568 1.438 . S
C569 C570 1.428 . S
C570 H562 0.949 . S
C570 C569 1.428 . S
C570 C571 1.345 1_545 S
C571 H563 0.950 . S
C571 C570 1.345 1_565 S
C571 C572 1.424 . S
C572 H564 0.951 . S
C572 C571 1.424 . S
C572 C573 1.347 . S
C573 H565 0.951 . S
C573 C568 1.429 1_565 S
C573 C572 1.347 . S
H574 C575 0.951 . S
C575 H574 0.951 . S
C575 C581 1.265 . S
H576 C581 0.950 . S
H577 C585 0.949 . S
H578 C586 0.950 . S
H579 C587 0.951 . S
H580 C588 0.951 1_554 S
C581 C575 1.265 . S
C581 H576 0.950 . S
C581 C582 1.478 . S
C582 C581 1.478 . S
C582 C583 1.397 . S
C582 C599 1.394 . S
C583 C582 1.397 . S
C583 C584 1.438 1_554 S
C583 C588 1.429 1_554 S
C584 C583 1.438 1_556 S
C584 C585 1.428 . S
C584 C597 1.394 . S
C585 H577 0.949 . S
C585 C584 1.428 . S
C585 C586 1.345 . S
C586 H578 0.950 . S
C586 C585 1.345 . S
C586 C587 1.424 . S
C587 H579 0.951 . S
C587 C586 1.424 . S
C587 C588 1.347 . S
C588 H580 0.951 1_556 S
C588 C583 1.429 1_556 S
C588 C587 1.347 . S
H589 C590 0.951 . S
C590 H589 0.951 . S
C590 C596 1.265 . S
H591 C596 0.950 . S
H592 C600 0.949 . S
H593 C601 0.950 . S
H594 C602 0.951 . S
H595 C603 0.951 . S
C596 C590 1.265 . S
C596 H591 0.950 . S
C596 C597 1.478 . S
C597 C584 1.394 . S
C597 C596 1.478 . S
C597 C598 1.397 1_556 S
C598 C597 1.397 1_554 S
C598 C599 1.438 . S
C598 C603 1.429 . S
C599 C582 1.394 . S
C599 C598 1.438 . S
C599 C600 1.428 . S
C600 H592 0.949 . S
C600 C599 1.428 . S
C600 C601 1.345 . S
C601 H593 0.950 . S
C601 C600 1.345 . S
C601 C602 1.424 . S
C602 H594 0.951 . S
C602 C601 1.424 . S
C602 C603 1.347 . S
C603 H595 0.951 . S
C603 C598 1.429 . S
C603 C602 1.347 . S
C125 C1 1.550 . S
C140 C27 1.550 . S
C155 C58 1.528 . S
C170 C32 1.528 1_556 S
C185 C89 1.468 . S
C200 C63 1.468 . S
C215 C120 1.537 1_554 S
C230 C94 1.537 . S
C245 C103 1.643 . S
C260 C18 1.663 . S
C275 C31 1.340 . S
C290 C2 1.270 . S
C305 C62 1.313 . S
C320 C41 1.101 . S
C335 C93 1.915 . S
C350 C72 1.780 . S
C365 C10 2.156 . S
C380 C111 2.182 . S
C395 C33 1.653 . S
C410 C0 1.706 . S
C425 C49 1.517 . S
C440 C64 1.559 . S
C455 C80 2.101 . S
C470 C95 2.191 . S
C485 C73 1.002 . S
C500 C11 1.015 . S
C515 C55 0.767 . S
C530 C104 0.664 . S
C545 C86 0.839 1_655 S
C560 C24 0.725 . S
C575 C42 0.610 . S
C590 C117 0.749 . S
