# Generated by pormake.
# Topology lcv-e, (6)-cn, num edge types: 1
# Building blocks:
#     Node 0, Type 0, BuildingBlock: OJICUG_clean_sbu_0, # of connection points: 6
#     Node 1, Type 0, BuildingBlock: OJICUG_clean_sbu_0, # of connection points: 6
#     Node 2, Type 0, BuildingBlock: OJICUG_clean_sbu_0, # of connection points: 6
#     Node 3, Type 0, BuildingBlock: OJICUG_clean_sbu_0, # of connection points: 6
#     Node 4, Type 0, BuildingBlock: OJICUG_clean_sbu_0, # of connection points: 6
#     Node 5, Type 0, BuildingBlock: OJICUG_clean_sbu_0, # of connection points: 6
#     Node 6, Type 0, BuildingBlock: OJICUG_clean_sbu_0, # of connection points: 6
#     Node 7, Type 0, BuildingBlock: OJICUG_clean_sbu_0, # of connection points: 6
#     Node 8, Type 0, BuildingBlock: OJICUG_clean_sbu_0, # of connection points: 6
#     Node 9, Type 0, BuildingBlock: OJICUG_clean_sbu_0, # of connection points: 6
#     Node 10, Type 0, BuildingBlock: OJICUG_clean_sbu_0, # of connection points: 6
#     Node 11, Type 0, BuildingBlock: OJICUG_clean_sbu_0, # of connection points: 6
#     Node 12, Type 0, BuildingBlock: OJICUG_clean_sbu_0, # of connection points: 6
#     Node 13, Type 0, BuildingBlock: OJICUG_clean_sbu_0, # of connection points: 6
#     Node 14, Type 0, BuildingBlock: OJICUG_clean_sbu_0, # of connection points: 6
#     Node 15, Type 0, BuildingBlock: OJICUG_clean_sbu_0, # of connection points: 6
#     Node 16, Type 0, BuildingBlock: OJICUG_clean_sbu_0, # of connection points: 6
#     Node 17, Type 0, BuildingBlock: OJICUG_clean_sbu_0, # of connection points: 6
#     Node 18, Type 0, BuildingBlock: OJICUG_clean_sbu_0, # of connection points: 6
#     Node 19, Type 0, BuildingBlock: OJICUG_clean_sbu_0, # of connection points: 6
#     Node 20, Type 0, BuildingBlock: OJICUG_clean_sbu_0, # of connection points: 6
#     Node 21, Type 0, BuildingBlock: OJICUG_clean_sbu_0, # of connection points: 6
#     Node 22, Type 0, BuildingBlock: OJICUG_clean_sbu_0, # of connection points: 6
#     Node 23, Type 0, BuildingBlock: OJICUG_clean_sbu_0, # of connection points: 6
#     Edge 24, Type (0, 0), BuildingBlock: KIFKEQ_clean_linker_1, # of connection points: 2
#     Edge 25, Type (0, 0), BuildingBlock: KIFKEQ_clean_linker_1, # of connection points: 2
#     Edge 26, Type (0, 0), BuildingBlock: KIFKEQ_clean_linker_1, # of connection points: 2
#     Edge 27, Type (0, 0), BuildingBlock: KIFKEQ_clean_linker_1, # of connection points: 2
#     Edge 28, Type (0, 0), BuildingBlock: KIFKEQ_clean_linker_1, # of connection points: 2
#     Edge 29, Type (0, 0), BuildingBlock: KIFKEQ_clean_linker_1, # of connection points: 2
#     Edge 30, Type (0, 0), BuildingBlock: KIFKEQ_clean_linker_1, # of connection points: 2
#     Edge 31, Type (0, 0), BuildingBlock: KIFKEQ_clean_linker_1, # of connection points: 2
#     Edge 32, Type (0, 0), BuildingBlock: KIFKEQ_clean_linker_1, # of connection points: 2
#     Edge 33, Type (0, 0), BuildingBlock: KIFKEQ_clean_linker_1, # of connection points: 2
#     Edge 34, Type (0, 0), BuildingBlock: KIFKEQ_clean_linker_1, # of connection points: 2
#     Edge 35, Type (0, 0), BuildingBlock: KIFKEQ_clean_linker_1, # of connection points: 2
#     Edge 36, Type (0, 0), BuildingBlock: KIFKEQ_clean_linker_1, # of connection points: 2
#     Edge 37, Type (0, 0), BuildingBlock: KIFKEQ_clean_linker_1, # of connection points: 2
#     Edge 38, Type (0, 0), BuildingBlock: KIFKEQ_clean_linker_1, # of connection points: 2
#     Edge 39, Type (0, 0), BuildingBlock: KIFKEQ_clean_linker_1, # of connection points: 2
#     Edge 40, Type (0, 0), BuildingBlock: KIFKEQ_clean_linker_1, # of connection points: 2
#     Edge 41, Type (0, 0), BuildingBlock: KIFKEQ_clean_linker_1, # of connection points: 2
#     Edge 42, Type (0, 0), BuildingBlock: KIFKEQ_clean_linker_1, # of connection points: 2
#     Edge 43, Type (0, 0), BuildingBlock: KIFKEQ_clean_linker_1, # of connection points: 2
#     Edge 44, Type (0, 0), BuildingBlock: KIFKEQ_clean_linker_1, # of connection points: 2
#     Edge 45, Type (0, 0), BuildingBlock: KIFKEQ_clean_linker_1, # of connection points: 2
#     Edge 46, Type (0, 0), BuildingBlock: KIFKEQ_clean_linker_1, # of connection points: 2
#     Edge 47, Type (0, 0), BuildingBlock: KIFKEQ_clean_linker_1, # of connection points: 2
#     Edge 48, Type (0, 0), BuildingBlock: KIFKEQ_clean_linker_1, # of connection points: 2
#     Edge 49, Type (0, 0), BuildingBlock: KIFKEQ_clean_linker_1, # of connection points: 2
#     Edge 50, Type (0, 0), BuildingBlock: KIFKEQ_clean_linker_1, # of connection points: 2
#     Edge 51, Type (0, 0), BuildingBlock: KIFKEQ_clean_linker_1, # of connection points: 2
#     Edge 52, Type (0, 0), BuildingBlock: KIFKEQ_clean_linker_1, # of connection points: 2
#     Edge 53, Type (0, 0), BuildingBlock: KIFKEQ_clean_linker_1, # of connection points: 2
#     Edge 54, Type (0, 0), BuildingBlock: KIFKEQ_clean_linker_1, # of connection points: 2
#     Edge 55, Type (0, 0), BuildingBlock: KIFKEQ_clean_linker_1, # of connection points: 2
#     Edge 56, Type (0, 0), BuildingBlock: KIFKEQ_clean_linker_1, # of connection points: 2
#     Edge 57, Type (0, 0), BuildingBlock: KIFKEQ_clean_linker_1, # of connection points: 2
#     Edge 58, Type (0, 0), BuildingBlock: KIFKEQ_clean_linker_1, # of connection points: 2
#     Edge 59, Type (0, 0), BuildingBlock: KIFKEQ_clean_linker_1, # of connection points: 2
#     Edge 60, Type (0, 0), BuildingBlock: KIFKEQ_clean_linker_1, # of connection points: 2
#     Edge 61, Type (0, 0), BuildingBlock: KIFKEQ_clean_linker_1, # of connection points: 2
#     Edge 62, Type (0, 0), BuildingBlock: KIFKEQ_clean_linker_1, # of connection points: 2
#     Edge 63, Type (0, 0), BuildingBlock: KIFKEQ_clean_linker_1, # of connection points: 2
#     Edge 64, Type (0, 0), BuildingBlock: KIFKEQ_clean_linker_1, # of connection points: 2
#     Edge 65, Type (0, 0), BuildingBlock: KIFKEQ_clean_linker_1, # of connection points: 2
#     Edge 66, Type (0, 0), BuildingBlock: KIFKEQ_clean_linker_1, # of connection points: 2
#     Edge 67, Type (0, 0), BuildingBlock: KIFKEQ_clean_linker_1, # of connection points: 2
#     Edge 68, Type (0, 0), BuildingBlock: KIFKEQ_clean_linker_1, # of connection points: 2
#     Edge 69, Type (0, 0), BuildingBlock: KIFKEQ_clean_linker_1, # of connection points: 2
#     Edge 70, Type (0, 0), BuildingBlock: KIFKEQ_clean_linker_1, # of connection points: 2
#     Edge 71, Type (0, 0), BuildingBlock: KIFKEQ_clean_linker_1, # of connection points: 2
#     Edge 72, Type (0, 0), BuildingBlock: KIFKEQ_clean_linker_1, # of connection points: 2
#     Edge 73, Type (0, 0), BuildingBlock: KIFKEQ_clean_linker_1, # of connection points: 2
#     Edge 74, Type (0, 0), BuildingBlock: KIFKEQ_clean_linker_1, # of connection points: 2
#     Edge 75, Type (0, 0), BuildingBlock: KIFKEQ_clean_linker_1, # of connection points: 2
#     Edge 76, Type (0, 0), BuildingBlock: KIFKEQ_clean_linker_1, # of connection points: 2
#     Edge 77, Type (0, 0), BuildingBlock: KIFKEQ_clean_linker_1, # of connection points: 2
#     Edge 78, Type (0, 0), BuildingBlock: KIFKEQ_clean_linker_1, # of connection points: 2
#     Edge 79, Type (0, 0), BuildingBlock: KIFKEQ_clean_linker_1, # of connection points: 2
#     Edge 80, Type (0, 0), BuildingBlock: KIFKEQ_clean_linker_1, # of connection points: 2
#     Edge 81, Type (0, 0), BuildingBlock: KIFKEQ_clean_linker_1, # of connection points: 2
#     Edge 82, Type (0, 0), BuildingBlock: KIFKEQ_clean_linker_1, # of connection points: 2
#     Edge 83, Type (0, 0), BuildingBlock: KIFKEQ_clean_linker_1, # of connection points: 2
#     Edge 84, Type (0, 0), BuildingBlock: KIFKEQ_clean_linker_1, # of connection points: 2
#     Edge 85, Type (0, 0), BuildingBlock: KIFKEQ_clean_linker_1, # of connection points: 2
#     Edge 86, Type (0, 0), BuildingBlock: KIFKEQ_clean_linker_1, # of connection points: 2
#     Edge 87, Type (0, 0), BuildingBlock: KIFKEQ_clean_linker_1, # of connection points: 2
#     Edge 88, Type (0, 0), BuildingBlock: KIFKEQ_clean_linker_1, # of connection points: 2
#     Edge 89, Type (0, 0), BuildingBlock: KIFKEQ_clean_linker_1, # of connection points: 2
#     Edge 90, Type (0, 0), BuildingBlock: KIFKEQ_clean_linker_1, # of connection points: 2
#     Edge 91, Type (0, 0), BuildingBlock: KIFKEQ_clean_linker_1, # of connection points: 2
#     Edge 92, Type (0, 0), BuildingBlock: KIFKEQ_clean_linker_1, # of connection points: 2
#     Edge 93, Type (0, 0), BuildingBlock: KIFKEQ_clean_linker_1, # of connection points: 2
#     Edge 94, Type (0, 0), BuildingBlock: KIFKEQ_clean_linker_1, # of connection points: 2
#     Edge 95, Type (0, 0), BuildingBlock: KIFKEQ_clean_linker_1, # of connection points: 2
# Relax obj value: 0.527
# Max RMSD: 0.261
# Mean RMSD: 0.261
data_MOF--net-lcv-e--node1-OJICUG_clean_sbu_0--edge1-KIFKEQ_clean_linker_1
_symmetry_space_group_name_H-M    P1
_symmetry_Int_Tables_number       1
_symmetry_cell_setting            triclinic
loop_
_symmetry_equiv_pos_as_xyz
'x, y, z'
_cell_length_a     53.677194
_cell_length_b     53.921008
_cell_length_c     53.746432
_cell_angle_alpha  90.655483
_cell_angle_beta   89.884478
_cell_angle_gamma 90.633608
loop_
_atom_site_label
_atom_site_type_symbol
_atom_site_fract_x
_atom_site_fract_y
_atom_site_fract_z
_atom_type_partial_charge
Sc0 Sc 0.06285 0.13578 0.24517 0.0
Sc1 Sc 0.06364 0.11359 0.18425 0.0
Sc2 Sc 0.0179 0.09337 0.22469 0.0
O3 O 0.04788 0.11358 0.21801 0.0
C4 C 0.05977 0.08321 0.26846 0.0
C5 C 0.10822 0.1134 0.21943 0.0
C6 C 0.04345 0.05816 0.18518 0.0
C7 C 0.05799 0.16757 0.20027 0.0
C8 C 0.00731 0.14044 0.25828 0.0
C9 C 1.00639 0.1201 0.17157 0.0
O10 O 0.07155 0.10362 0.26577 0.0
O11 O 0.0969 0.10155 0.20218 0.0
O12 O 0.03113 0.06148 0.20505 0.0
O13 O 0.05203 0.16687 0.22309 0.0
O14 O 1.00026 0.12441 0.24244 0.0
O15 O 0.02938 0.12423 0.16702 0.0
O16 O 0.02931 0.14059 0.2666 0.0
O17 O 0.07343 0.15195 0.19161 0.0
O18 O 0.99892 0.10807 0.19091 0.0
O19 O 0.09947 0.13339 0.22846 0.0
O20 O 0.03875 0.0781 0.25752 0.0
O21 O 0.05504 0.07547 0.1741 0.0
Sc22 Sc 0.13879 0.8196 0.48453 0.0
Sc23 Sc 0.13917 0.75751 0.46564 0.0
Sc24 Sc 0.0994 0.77769 0.51304 0.0
O25 O 0.12551 0.785 0.48722 0.0
C26 C 0.13288 0.82093 0.54045 0.0
C27 C 0.18787 0.78699 0.47882 0.0
C28 C 0.14221 0.74038 0.52031 0.0
C29 C 0.13219 0.80275 0.42876 0.0
C30 C 0.07967 0.82603 0.49185 0.0
C31 C 0.08348 0.74082 0.46667 0.0
O32 O 0.14808 0.82149 0.52261 0.0
O33 O 0.17688 0.76658 0.47443 0.0
O34 O 0.12601 0.75412 0.5307 0.0
O35 O 0.13087 0.81893 0.446 0.0
O36 O 0.07526 0.80315 0.49564 0.0
O37 O 0.10299 0.74572 0.45447 0.0
O38 O 0.10168 0.83539 0.49111 0.0
O39 O 0.13802 0.78017 0.43235 0.0
O40 O 0.08101 0.74751 0.48965 0.0
O41 O 0.17666 0.80766 0.47937 0.0
O42 O 0.11241 0.80835 0.53905 0.0
O43 O 0.13962 0.73336 0.49767 0.0
Sc44 Sc 0.437 0.8636 0.68163 0.0
Sc45 Sc 0.44299 0.84856 0.74471 0.0
Sc46 Sc 0.48708 0.88611 0.71504 0.0
O47 O 0.45597 0.8652 0.71376 0.0
C48 C 0.49473 0.85645 0.66451 0.0
C49 C 0.43639 0.8083 0.70142 0.0
C50 C 0.49987 0.84458 0.75454 0.0
C51 C 0.39316 0.86845 0.72137 0.0
C52 C 0.45526 0.91801 0.68002 0.0
C53 C 0.45336 0.90413 0.76182 0.0
O54 O 0.47159 0.8598 0.6598 0.0
O55 O 0.43716 0.81415 0.72442 0.0
O56 O 0.50519 0.86468 0.74359 0.0
O57 O 0.401 0.867 0.69909 0.0
O58 O 0.47656 0.91005 0.68536 0.0
O59 O 0.44883 0.88153 0.76712 0.0
O60 O 0.43635 0.90375 0.67998 0.0
O61 O 0.40618 0.86221 0.7398 0.0
O62 O 0.46688 0.9101 0.74282 0.0
O63 O 0.43617 0.82399 0.68386 0.0
O64 O 0.50417 0.86227 0.68588 0.0
O65 O 0.47843 0.83464 0.75389 0.0
Sc66 Sc 0.39247 0.23779 0.01513 0.0
Sc67 Sc 0.35392 0.2745 0.97967 0.0
Sc68 Sc 0.36713 0.21459 0.96134 0.0
O69 O 0.36996 0.24185 0.98605 0.0
C70 C 0.42333 0.21478 0.9731 0.0
C71 C 0.40719 0.28894 0.99236 0.0
C72 C 0.37256 0.26204 0.92738 0.0
C73 C 0.34599 0.26708 0.03594 0.0
C74 C 0.36596 0.18633 0.0143 0.0
C75 C 0.31363 0.23408 0.96179 0.0
O76 O 0.41655 0.21262 0.99556 0.0
O77 O 0.38463 0.29472 0.99637 0.0
O78 O 0.36463 0.23987 0.93022 0.0
O79 O 0.36891 0.26132 0.0384 0.0
O80 O 0.36807 0.18616 0.99049 0.0
O81 O 0.32167 0.25649 0.96189 0.0
O82 O 0.37097 0.20576 0.0274 0.0
O83 O 0.33604 0.27102 0.01488 0.0
O84 O 0.32758 0.21559 0.9658 0.0
O85 O 0.41505 0.26804 0.99969 0.0
O86 O 0.40721 0.21589 0.95591 0.0
O87 O 0.37311 0.2778 0.945 0.0
Sc88 Sc 0.0553 0.90272 0.28645 0.0
Sc89 Sc 0.994 0.91969 0.28807 0.0
Sc90 Sc 0.01463 0.87248 0.24898 0.0
O91 O 0.021 0.89862 0.274 0.0
C92 C 0.06588 0.89321 0.2306 0.0
C93 C 0.03947 0.95612 0.27668 0.0
C94 C 0.98198 0.91713 0.23137 0.0
C95 C 0.02549 0.90989 0.33391 0.0
C96 C 0.04978 0.84664 0.28657 0.0
C97 C 0.97131 0.86643 0.28963 0.0
O98 O 0.07266 0.88881 0.25275 0.0
O99 O 0.01924 0.9521 0.28884 0.0
O100 O 0.98601 0.89386 0.2308 0.0
O101 O 0.04237 0.91942 0.32061 0.0
O102 O 0.04336 0.84918 0.26398 0.0
O103 O 0.96719 0.88953 0.28755 0.0
O104 O 0.05291 0.86533 0.30111 0.0
O105 O 1.00379 0.90708 0.32498 0.0
O106 O 0.98817 0.85579 0.27632 0.0
O107 O 0.05406 0.93853 0.27044 0.0
O108 O 0.0429 0.89033 0.22439 0.0
O109 O 0.98467 0.93029 0.25104 0.0
Sc110 Sc 0.3614 0.73074 0.53731 0.0
Sc111 Sc 0.40752 0.77114 0.5164 0.0
Sc112 Sc 0.37722 0.78262 0.57259 0.0
O113 O 0.38182 0.76131 0.54227 0.0
C114 C 0.32099 0.76544 0.56253 0.0
C115 C 0.35736 0.76642 0.4877 0.0
C116 C 0.39033 0.82303 0.5345 0.0
C117 C 0.4089 0.71346 0.50849 0.0
C118 C 0.37755 0.72804 0.59549 0.0
C119 C 0.43604 0.77322 0.56551 0.0
O120 O 0.32795 0.74651 0.55051 0.0
O121 O 0.37804 0.7777 0.49117 0.0
O122 O 0.37461 0.81478 0.54996 0.0
O123 O 0.39241 0.70932 0.52466 0.0
O124 O 0.37903 0.75157 0.59737 0.0
O125 O 0.43522 0.76394 0.54364 0.0
O126 O 0.37164 0.7169 0.57493 0.0
O127 O 0.41305 0.73492 0.50022 0.0
O128 O 0.41803 0.78532 0.5755 0.0
O129 O 0.35026 0.74724 0.50046 0.0
O130 O 0.33626 0.7813 0.5718 0.0
O131 O 0.40792 0.81006 0.52598 0.0
Sc132 Sc 0.43613 0.14611 0.77776 0.0
Sc133 Sc 0.46976 0.10296 0.80958 0.0
Sc134 Sc 0.4943 0.13184 0.75745 0.0
O135 O 0.46731 0.12684 0.78188 0.0
C136 C 0.44663 0.13464 0.72467 0.0
C137 C 0.4188 0.09208 0.78164 0.0
C138 C 0.49289 0.07362 0.76432 0.0
C139 C 0.43984 0.14439 0.83354 0.0
C140 C 0.47739 0.18527 0.77484 0.0
C141 C 0.52295 0.12999 0.81 0.0
O142 O 0.44259 0.15282 0.73907 0.0
O143 O 0.43141 0.09018 0.80181 0.0
O144 O 0.5032 0.09288 0.75519 0.0
O145 O 0.42525 0.14032 0.81559 0.0
O146 O 0.48695 0.17148 0.75784 0.0
O147 O 0.50798 0.11337 0.81806 0.0
O148 O 0.45769 0.17892 0.78674 0.0
O149 O 0.46007 0.13271 0.83499 0.0
O150 O 0.52053 0.13975 0.78843 0.0
O151 O 0.41868 0.11176 0.76875 0.0
O152 O 0.46686 0.1228 0.72761 0.0
O153 O 0.48011 0.0741 0.78425 0.0
Sc154 Sc 0.13129 0.21954 0.09503 0.0
Sc155 Sc 0.10321 0.18976 0.04429 0.0
Sc156 Sc 0.14581 0.23847 0.0362 0.0
O157 O 0.12723 0.21538 0.05794 0.0
C158 C 0.13379 0.27362 0.08168 0.0
C159 C 0.07417 0.22071 0.0863 0.0
C160 C 0.09403 0.23325 0.00708 0.0
C161 C 0.12763 0.16471 0.0881 0.0
C162 C 0.18504 0.22147 0.0785 0.0
C163 C 0.1505 0.18555 0.00764 0.0
O164 O 0.14433 0.25718 0.09417 0.0
O165 O 0.07538 0.20155 0.07189 0.0
O166 O 0.11536 0.24344 0.01004 0.0
O167 O 0.11836 0.1824 0.10036 0.0
O168 O 0.1784 0.2351 0.06032 0.0
O169 O 0.12927 0.17837 0.0158 0.0
O170 O 0.16968 0.20976 0.09231 0.0
O171 O 0.12035 0.16144 0.06603 0.0
O172 O 0.16035 0.20663 0.01389 0.0
O173 O 0.09343 0.23118 0.09573 0.0
O174 O 0.12993 0.26989 0.05842 0.0
O175 O 0.08633 0.21491 0.01958 0.0
Sc176 Sc 0.29009 0.03882 0.15748 0.0
Sc177 Sc 0.22734 0.04449 0.14539 0.0
Sc178 Sc 0.25898 0.9969 0.11873 0.0
O179 O 0.25867 0.0258 0.142 0.0
C180 C 0.30516 0.03032 0.10361 0.0
C181 C 0.26693 0.08803 0.14268 0.0
C182 C 0.22916 0.0336 0.08947 0.0
C183 C 0.24788 0.04538 0.19885 0.0
C184 C 0.29563 0.9822 0.16239 0.0
C185 C 0.20849 0.98735 0.14562 0.0
O186 O 0.31233 0.028 0.12593 0.0
O187 O 0.24603 0.07989 0.15041 0.0
O188 O 0.22903 0.01155 0.09717 0.0
O189 O 0.26979 0.05047 0.19084 0.0
O190 O 0.28772 0.97853 0.14021 0.0
O191 O 0.20431 0.01053 0.14279 0.0
O192 O 0.29523 1.0033 0.17328 0.0
O193 O 0.2299 0.03881 0.18461 0.0
O194 O 0.23002 0.97815 0.1409 0.0
O195 O 0.28574 0.07426 0.14027 0.0
O196 O 0.28551 0.01883 0.09613 0.0
O197 O 0.22797 0.05124 0.10529 0.0
Sc198 Sc 0.17311 0.91733 0.38581 0.0
Sc199 Sc 0.21036 0.88062 0.34767 0.0
Sc200 Sc 0.23204 0.93871 0.36791 0.0
O201 O 0.20569 0.91278 0.36714 0.0
C202 C 0.17937 0.96636 0.35405 0.0
C203 C 0.15834 0.89689 0.33562 0.0
C204 C 0.24452 0.91489 0.31467 0.0
C205 C 0.19118 0.86646 0.39835 0.0
C206 C 0.20682 0.95207 0.4198 0.0
C207 C 0.2591 0.8858 0.38105 0.0
O208 O 0.1657 0.94954 0.36401 0.0
O209 O 0.17886 0.89118 0.32548 0.0
O210 O 0.24412 0.93261 0.33033 0.0
O211 O 0.18367 0.88658 0.40808 0.0
O212 O 0.22542 0.95082 0.40537 0.0
O213 O 0.24286 0.87285 0.36914 0.0
O214 O 0.18622 0.94144 0.41514 0.0
O215 O 0.18775 0.86245 0.37529 0.0
O216 O 0.25852 0.90987 0.38233 0.0
O217 O 0.15561 0.89323 0.35869 0.0
O218 O 0.20358 0.96578 0.35401 0.0
O219 O 0.23356 0.89442 0.31846 0.0
Sc220 Sc 0.29091 0.96257 0.6234 0.0
Sc221 Sc 0.30968 0.01864 0.59959 0.0
Sc222 Sc 0.2534 0.01408 0.62995 0.0
O223 O 0.28375 0.99785 0.61698 0.0
C224 C 0.2318 0.96072 0.6135 0.0
C225 C 0.31528 0.96749 0.57236 0.0
C226 C 0.26102 0.03037 0.57297 0.0
C227 C 0.33868 0.99185 0.63918 0.0
C228 C 0.26734 0.97803 0.67479 0.0
C229 C 0.29474 0.05521 0.63777 0.0
O230 O 0.25277 0.9508 0.61784 0.0
O231 O 0.32573 0.98741 0.58004 0.0
O232 O 0.24998 0.03318 0.59409 0.0
O233 O 0.32982 0.9721 0.62919 0.0
O234 O 0.25426 0.99474 0.66473 0.0
O235 O 0.29643 0.05267 0.61461 0.0
O236 O 0.28391 0.96591 0.66293 0.0
O237 O 0.33303 0.01328 0.63153 0.0
O238 O 0.27829 0.04213 0.64886 0.0
O239 O 0.29751 0.95739 0.58432 0.0
O240 O 0.22869 0.98436 0.61439 0.0
O241 O 0.28346 0.02301 0.57073 0.0
Sc242 Sc 0.2766 0.01469 0.88684 0.0
Sc243 Sc 0.30347 0.06729 0.86426 0.0
Sc244 Sc 0.24089 0.05335 0.85024 0.0
O245 O 0.27381 0.04474 0.86558 0.0
C246 C 0.24013 0.99609 0.84503 0.0
C247 C 0.32484 0.01106 0.85459 0.0
C248 C 0.28132 0.06633 0.80935 0.0
C249 C 0.30651 0.04988 0.91806 0.0
C250 C 0.22991 0.04532 0.9054 0.0
C251 C 0.25866 0.10573 0.87013 0.0
O252 O 0.24773 0.9936 0.86727 0.0
O253 O 0.32818 0.03456 0.85851 0.0
O254 O 0.25864 0.06364 0.81579 0.0
O255 O 0.30795 0.02958 0.90658 0.0
O256 O 0.22138 0.04232 0.88349 0.0
O257 O 0.28169 0.10047 0.8688 0.0
O258 O 0.25024 0.03471 0.91169 0.0
O259 O 0.30528 0.06924 0.9051 0.0
O260 O 0.2413 0.09042 0.86502 0.0
O261 O 0.30469 0.99982 0.86137 0.0
O262 O 0.23866 0.01705 0.83481 0.0
O263 O 0.29958 0.06748 0.82455 0.0
Sc264 Sc 0.65385 0.28307 0.93645 0.0
Sc265 Sc 0.67558 0.22303 0.93784 0.0
Sc266 Sc 0.64065 0.24718 0.98645 0.0
O267 O 0.65787 0.25149 0.95399 0.0
C268 C 0.66305 0.30026 0.99374 0.0
C269 C 0.70746 0.27083 0.92214 0.0
C270 C 0.6919 0.22086 0.99269 0.0
C271 C 0.64765 0.24262 0.8929 0.0
C272 C 0.60114 0.27446 0.95739 0.0
C273 C 0.62659 0.20028 0.95427 0.0
O274 O 0.65609 0.30484 0.97142 0.0
O275 O 0.70184 0.24788 0.91928 0.0
O276 O 0.66899 0.22172 0.99904 0.0
O277 O 0.65273 0.26472 0.90026 0.0
O278 O 0.61234 0.27351 0.97801 0.0
O279 O 0.64994 0.1965 0.95395 0.0
O280 O 0.61344 0.27821 0.93755 0.0
O281 O 0.65145 0.22378 0.9062 0.0
O282 O 0.61817 0.21842 0.96716 0.0
O283 O 0.69359 0.28588 0.93406 0.0
O284 O 0.66204 0.27821 1.00254 0.0
O285 O 0.69896 0.22254 0.9701 0.0
Sc286 Sc 0.01884 0.40269 0.2066 0.0
Sc287 Sc 0.96349 0.36754 0.21175 0.0
Sc288 Sc 1.00619 0.36966 0.26023 0.0
O289 O 0.99536 0.38045 0.22635 0.0
C290 C 0.0536 0.36508 0.22627 0.0
C291 C 1.00539 0.36002 0.16896 0.0
C292 C 0.97892 0.32 0.24236 0.0
C293 C 0.96662 0.42104 0.18788 0.0
C294 C 0.01871 0.42757 0.25848 0.0
C295 C 0.94859 0.38349 0.26802 0.0
O296 O 0.05118 0.38817 0.22418 0.0
O297 O 0.98342 0.35697 0.17796 0.0
O298 O 0.9919 0.33278 0.25745 0.0
O299 O 0.99017 0.42133 0.18695 0.0
O300 O 0.02153 0.40655 0.26882 0.0
O301 O 0.94326 0.37774 0.24544 0.0
O302 O 0.01569 0.42984 0.2352 0.0
O303 O 0.95421 0.40367 0.19799 0.0
O304 O 0.97082 0.38226 0.27685 0.0
O305 O 0.02136 0.37537 0.17773 0.0
O306 O 0.03908 0.35373 0.24118 0.0
O307 O 0.96808 0.32954 0.22384 0.0
Sc308 Sc 0.87769 0.76752 0.49679 0.0
Sc309 Sc 0.89804 0.72024 0.45792 0.0
Sc310 Sc 0.92819 0.73101 0.51387 0.0
O311 O 0.90104 0.74005 0.48954 0.0
C312 C 0.92601 0.78896 0.52386 0.0
C313 C 0.89715 0.77628 0.43961 0.0
C314 C 0.9552 0.72868 0.4643 0.0
C315 C 0.84116 0.73405 0.46479 0.0
C316 C 0.87791 0.73012 0.54489 0.0
C317 C 0.90741 0.67956 0.49569 0.0
O318 O 0.90586 0.79153 0.51215 0.0
O319 O 0.90287 0.7535 0.43653 0.0
O320 O 0.95499 0.7398 0.48521 0.0
O321 O 0.84575 0.74948 0.48197 0.0
O322 O 0.90035 0.72314 0.54158 0.0
O323 O 0.89228 0.68809 0.47989 0.0
O324 O 0.8678 0.74742 0.5319 0.0
O325 O 0.85802 0.72261 0.45298 0.0
O326 O 0.92612 0.69187 0.50372 0.0
O327 O 0.88728 0.78473 0.45999 0.0
O328 O 0.93501 0.76785 0.52816 0.0
O329 O 0.93786 0.71356 0.45825 0.0
Sc330 Sc 0.90702 0.66915 0.27613 0.0
Sc331 Sc 0.92087 0.63342 0.3287 0.0
Sc332 Sc 0.96173 0.63611 0.27856 0.0
O333 O 0.92985 0.6462 0.29477 0.0
C334 C 0.92164 0.63059 0.23507 0.0
C335 C 0.87148 0.62699 0.29598 0.0
C336 C 0.94743 0.58645 0.30733 0.0
C337 C 0.90343 0.68918 0.33125 0.0
C338 C 0.95908 0.69287 0.26721 0.0
C339 C 0.97857 0.6498 0.33465 0.0
O340 O 0.91564 0.65284 0.24012 0.0
O341 O 0.8829 0.62589 0.31679 0.0
O342 O 0.96139 0.59963 0.29367 0.0
O343 O 0.89608 0.68994 0.30886 0.0
O344 O 0.96747 0.67171 0.26101 0.0
O345 O 0.95821 0.64065 0.34315 0.0
O346 O 0.93662 0.69581 0.2739 0.0
O347 O 0.91295 0.6701 0.3407 0.0
O348 O 0.98293 0.65116 0.3111 0.0
O349 O 0.87782 0.64179 0.27873 0.0
O350 O 0.93889 0.6201 0.24752 0.0
O351 O 0.92947 0.5952 0.31994 0.0
Sc352 Sc 0.58774 0.39703 0.81948 0.0
Sc353 Sc 0.5476 0.42286 0.86288 0.0
Sc354 Sc 0.52605 0.39904 0.80603 0.0
O355 O 0.55316 0.40622 0.82986 0.0
C356 C 0.56962 0.41493 0.77027 0.0
C357 C 0.58955 0.45239 0.83416 0.0
C358 C 0.50726 0.44951 0.83154 0.0
C359 C 0.58889 0.38614 0.87344 0.0
C360 C 0.55834 0.35026 0.80712 0.0
C361 C 0.50282 0.38314 0.85885 0.0
O362 O 0.57983 0.39657 0.78032 0.0
O363 O 0.57918 0.44793 0.85523 0.0
O364 O 0.50525 0.4318 0.81578 0.0
O365 O 0.60005 0.39865 0.85721 0.0
O366 O 0.54351 0.36425 0.79526 0.0
O367 O 0.51542 0.39993 0.87027 0.0
O368 O 0.57611 0.35869 0.82068 0.0
O369 O 0.56794 0.39369 0.88076 0.0
O370 O 0.50526 0.37857 0.83537 0.0
O371 O 0.59449 0.43562 0.81804 0.0
O372 O 0.54771 0.42091 0.7777 0.0
O373 O 0.52433 0.45074 0.84785 0.0
Sc374 Sc 0.5007 0.60419 0.74559 0.0
Sc375 Sc 0.55145 0.62915 0.77624 0.0
Sc376 Sc 0.4931 0.64401 0.79615 0.0
O377 O 0.51449 0.62644 0.77186 0.0
C378 C 0.4641 0.6508 0.74401 0.0
C379 C 0.54725 0.62479 0.71914 0.0
C380 C 0.5373 0.68262 0.78115 0.0
C381 C 0.54477 0.57344 0.77051 0.0
C382 C 0.46266 0.5934 0.78864 0.0
C383 C 0.53774 0.62724 0.82978 0.0
O384 O 0.47214 0.62991 0.73647 0.0
O385 O 0.55987 0.61979 0.73824 0.0
O386 O 0.51898 0.67596 0.79508 0.0
O387 O 0.52901 0.57668 0.75302 0.0
O388 O 0.46568 0.61449 0.79912 0.0
O389 O 0.54978 0.64008 0.81451 0.0
O390 O 0.47602 0.58589 0.77058 0.0
O391 O 0.55074 0.59082 0.78566 0.0
O392 O 0.51425 0.62453 0.82635 0.0
O393 O 0.52372 0.6226 0.71885 0.0
O394 O 0.47112 0.66068 0.76495 0.0
O395 O 0.54967 0.66748 0.76775 0.0
Sc396 Sc 0.88485 0.25269 1.00492 0.0
Sc397 Sc 0.91857 0.30622 0.99372 0.0
Sc398 Sc 0.90337 0.29115 0.05383 0.0
O399 O 0.90208 0.28279 0.01789 0.0
C400 C 0.84865 0.26835 0.04905 0.0
C401 C 0.86489 0.30203 0.97507 0.0
C402 C 0.90182 0.34333 0.0318 0.0
C403 C 0.92687 0.25853 0.96607 0.0
C404 C 0.91257 0.23266 0.05469 0.0
C405 C 0.95918 0.29645 0.03055 0.0
O406 O 0.85335 0.25749 0.02853 0.0
O407 O 0.88259 0.31635 0.98213 0.0
O408 O 0.89054 0.3279 0.0455 0.0
O409 O 0.91689 0.24435 0.98188 0.0
O410 O 0.91438 0.25448 0.06391 0.0
O411 O 0.95373 0.29496 0.00751 0.0
O412 O 0.90252 0.22832 0.03325 0.0
O413 O 0.91835 0.27996 0.96359 0.0
O414 O 0.94304 0.29975 0.04804 0.0
O415 O 0.86511 0.27809 0.978 0.0
O416 O 0.8645 0.28154 0.06108 0.0
O417 O 0.92067 0.33663 0.01962 0.0
Sc418 Sc 0.6158 0.73272 0.48135 0.0
Sc419 Sc 0.65047 0.73771 0.53627 0.0
Sc420 Sc 0.6354 0.67934 0.51151 0.0
O421 O 0.63344 0.71642 0.50972 0.0
C422 C 0.57946 0.68768 0.49284 0.0
C423 C 0.59848 0.76279 0.53298 0.0
C424 C 0.63052 0.69257 0.5678 0.0
C425 C 0.66377 0.76497 0.48792 0.0
C426 C 0.64332 0.68538 0.45412 0.0
C427 C 0.69115 0.69972 0.52178 0.0
O428 O 0.58367 0.70971 0.48566 0.0
O429 O 0.61601 0.75394 0.5458 0.0
O430 O 0.62422 0.68011 0.54884 0.0
O431 O 0.64842 0.75436 0.47343 0.0
O432 O 0.64622 0.67439 0.47441 0.0
O433 O 0.68531 0.7219 0.52696 0.0
O434 O 0.63193 0.70629 0.45265 0.0
O435 O 0.65877 0.76735 0.51087 0.0
O436 O 0.67512 0.68206 0.51963 0.0
O437 O 0.5975 0.75984 0.50893 0.0
O438 O 0.59614 0.67397 0.50228 0.0
O439 O 0.64409 0.71197 0.56658 0.0
Sc440 Sc 0.74533 0.55349 0.65924 0.0
Sc441 Sc 0.72825 0.61506 0.67139 0.0
Sc442 Sc 0.68986 0.57579 0.63574 0.0
O443 O 0.72144 0.58094 0.65581 0.0
C444 C 0.72343 0.5373 0.6067 0.0
C445 C 0.77861 0.603 0.64339 0.0
C446 C 0.71451 0.62296 0.61728 0.0
C447 C 0.75354 0.58128 0.71171 0.0
C448 C 0.68903 0.53062 0.67276 0.0
C449 C 0.67406 0.6047 0.68105 0.0
O450 O 0.74141 0.53961 0.62179 0.0
O451 O 0.76306 0.61812 0.6527 0.0
O452 O 0.70522 0.60215 0.61078 0.0
O453 O 0.75362 0.56236 0.69746 0.0
O454 O 0.67761 0.54759 0.66099 0.0
O455 O 0.69415 0.61134 0.69145 0.0
O456 O 0.71326 0.52923 0.67309 0.0
O457 O 0.74585 0.60221 0.7047 0.0
O458 O 0.67286 0.60456 0.65757 0.0
O459 O 0.77577 0.57907 0.64455 0.0
O460 O 0.70266 0.54759 0.6104 0.0
O461 O 0.71136 0.63154 0.63921 0.0
Sc462 Sc 0.68232 0.46358 0.86493 0.0
Sc463 Sc 0.74516 0.46384 0.85264 0.0
Sc464 Sc 0.72352 0.48604 0.90854 0.0
O465 O 0.71697 0.47151 0.87552 0.0
C466 C 0.67416 0.51546 0.88734 0.0
C467 C 0.70818 0.4864 0.81786 0.0
C468 C 0.76182 0.51371 0.87555 0.0
C469 C 0.71047 0.41797 0.84716 0.0
C470 C 0.67938 0.45553 0.92379 0.0
C471 C 0.76362 0.44115 0.90188 0.0
O472 O 0.67204 0.50148 0.86824 0.0
O473 O 0.72964 0.48983 0.82727 0.0
O474 O 0.74411 0.51584 0.89109 0.0
O475 O 0.69339 0.42552 0.86184 0.0
O476 O 0.70283 0.45633 0.92454 0.0
O477 O 0.75939 0.43855 0.87874 0.0
O478 O 0.668 0.45945 0.90338 0.0
O479 O 0.7248 0.43306 0.83577 0.0
O480 O 0.75583 0.46023 0.91438 0.0
O481 O 0.69307 0.4699 0.82617 0.0
O482 O 0.6899 0.51102 0.90498 0.0
O483 O 0.76892 0.49247 0.86837 0.0
Sc484 Sc 0.75285 0.4969 0.1151 0.0
Sc485 Sc 0.80254 0.46438 0.09392 0.0
Sc486 Sc 0.79648 0.52576 0.07718 0.0
O487 O 0.78371 0.49544 0.09455 0.0
C488 C 0.73974 0.52551 0.0671 0.0
C489 C 0.7456 0.44559 0.08837 0.0
C490 C 0.80924 0.48151 0.03974 0.0
C491 C 0.78641 0.46614 0.14896 0.0
C492 C 0.7854 0.54377 0.12999 0.0
C493 C 0.84547 0.50581 0.09784 0.0
O494 O 0.73647 0.524 0.09054 0.0
O495 O 0.76854 0.44151 0.09322 0.0
O496 O 0.81206 0.5041 0.04658 0.0
O497 O 0.76453 0.46919 0.14091 0.0
O498 O 0.7834 0.54956 0.10715 0.0
O499 O 0.83813 0.48363 0.09346 0.0
O500 O 0.7736 0.52465 0.13798 0.0
O501 O 0.80491 0.46553 0.13421 0.0
O502 O 0.83133 0.52445 0.09647 0.0
O503 O 0.73587 0.46694 0.09244 0.0
O504 O 0.76152 0.52624 0.05768 0.0
O505 O 0.80099 0.46475 0.05419 0.0
Sc506 Sc 0.76732 0.49273 0.38095 0.0
Sc507 Sc 0.82618 0.48715 0.40672 0.0
Sc508 Sc 0.81123 0.53994 0.37494 0.0
O509 O 0.80086 0.50733 0.38836 0.0
C510 C 0.78304 0.51548 0.32904 0.0
C511 C 0.8039 0.44789 0.37451 0.0
C512 C 0.85628 0.50479 0.36213 0.0
C513 C 0.7791 0.48307 0.43929 0.0
C514 C 0.75362 0.54979 0.38997 0.0
C515 C 0.83799 0.54109 0.42534 0.0
O516 O 0.76718 0.50465 0.34293 0.0
O517 O 0.80903 0.45259 0.39689 0.0
O518 O 0.84879 0.5266 0.36756 0.0
O519 O 0.76523 0.48005 0.41993 0.0
O520 O 0.77505 0.55656 0.38199 0.0
O521 O 0.84606 0.51944 0.42069 0.0
O522 O 0.74772 0.52681 0.3928 0.0
O523 O 0.80227 0.48845 0.43808 0.0
O524 O 0.82176 0.5513 0.41176 0.0
O525 O 0.78663 0.46027 0.36452 0.0
O526 O 0.80111 0.52852 0.33754 0.0
O527 O 0.84828 0.48579 0.37346 0.0
H528 H 0.05574 0.16065 0.15067 0.0
H529 H 0.02465 0.20529 0.21013 0.0
H530 H 0.03075 0.18098 0.12127 0.0
H531 H 1.00156 0.22918 0.17913 0.0
H532 H 0.06464 0.25635 0.12188 0.0
H533 H 0.0285 0.25639 0.1485 0.0
H534 H 0.99138 0.20484 0.09977 0.0
H535 H 0.02685 0.20564 0.07132 0.0
C536 C 0.04339 0.17494 0.15754 0.0
C537 C 0.04254 0.18151 0.18276 0.0
C538 C 0.02856 0.18667 0.14049 0.0
C539 C 0.01419 0.20732 0.14754 0.0
C540 C 0.01221 0.21326 0.17306 0.0
C541 C 0.02598 0.2001 0.19065 0.0
C542 C 0.04846 0.2458 0.11593 0.0
C543 C 0.04964 0.22888 0.09577 0.0
C544 C 0.02732 0.24611 0.13109 0.0
C545 C 0.01013 0.2265 0.12832 0.0
C546 C 0.00659 0.21758 0.1038 0.0
C547 C 0.02731 0.21736 0.08781 0.0
H548 H 0.14593 0.83667 0.39431 0.0
H549 H 0.08731 0.78596 0.41512 0.0
H550 H 0.11591 0.86199 0.3725 0.0
H551 H 0.05668 0.81216 0.39559 0.0
H552 H 0.0619 0.92094 0.36705 0.0
H553 H 0.08772 0.89053 0.38725 0.0
H554 H 0.0359 0.83249 0.36494 0.0
H555 H 0.00909 0.86362 0.34646 0.0
C556 C 0.12673 0.83043 0.39323 0.0
C557 C 0.11887 0.8094 0.40618 0.0
C558 C 0.1093 0.84534 0.38154 0.0
C559 C 0.08359 0.83995 0.38346 0.0
C560 C 0.07617 0.81721 0.39387 0.0
C561 C 0.09379 0.80189 0.40478 0.0
C562 C 0.05561 0.90178 0.36733 0.0
C563 C 0.03407 0.89437 0.35443 0.0
C564 C 0.07074 0.88419 0.37826 0.0
C565 C 0.06491 0.85874 0.37607 0.0
C566 C 0.04152 0.85178 0.36624 0.0
C567 C 0.02601 0.8696 0.35581 0.0
H568 H 0.48071 0.78657 0.70683 0.0
H569 H 0.40714 0.7753 0.67657 0.0
H570 H 0.49822 0.76168 0.673 0.0
H571 H 0.42447 0.75012 0.64345 0.0
H572 H 0.44455 0.72641 0.57942 0.0
H573 H 0.45813 0.71629 0.62128 0.0
H574 H 0.48516 0.79133 0.63153 0.0
H575 H 0.46985 0.80186 0.5905 0.0
C576 C 0.46806 0.77691 0.69426 0.0
C577 C 0.44264 0.783 0.69391 0.0
C578 C 0.47816 0.76267 0.67489 0.0
C579 C 0.46265 0.75396 0.65566 0.0
C580 C 0.43669 0.75592 0.65844 0.0
C581 C 0.4267 0.7706 0.67735 0.0
C582 C 0.45491 0.74027 0.59003 0.0
C583 C 0.45566 0.76506 0.58228 0.0
C584 C 0.46297 0.73434 0.6139 0.0
C585 C 0.47186 0.75325 0.62982 0.0
C586 C 0.47804 0.77648 0.61968 0.0
C587 C 0.46909 0.78267 0.59625 0.0
H588 H 0.35662 0.2623 0.87948 0.0
H589 H 0.42201 0.26926 0.92541 0.0
H590 H 0.38092 0.24079 0.84788 0.0
H591 H 0.44613 0.24699 0.89439 0.0
H592 H 0.47286 0.18225 0.84287 0.0
H593 H 0.46158 0.2246 0.85592 0.0
H594 H 0.38568 0.19948 0.86763 0.0
H595 H 0.39684 0.15804 0.85436 0.0
C596 C 0.37657 0.26084 0.88201 0.0
C597 C 0.38739 0.26648 0.90508 0.0
C598 C 0.3905 0.24833 0.86405 0.0
C599 C 0.41473 0.24056 0.86985 0.0
C600 C 0.42712 0.2518 0.89003 0.0
C601 C 0.41332 0.26489 0.90774 0.0
C602 C 0.45397 0.18588 0.84896 0.0
C603 C 0.43565 0.16705 0.84797 0.0
C604 C 0.44744 0.2101 0.85583 0.0
C605 C 0.42253 0.2156 0.86155 0.0
C606 C 0.40478 0.1962 0.86205 0.0
C607 C 0.41124 0.17228 0.85518 0.0
H608 H 0.14286 0.13644 0.24963 0.0
H609 H 0.12397 0.06607 0.21492 0.0
H610 H 0.18166 0.11887 0.26507 0.0
H611 H 0.16214 0.04874 0.22985 0.0
H612 H 0.25232 0.09155 0.21795 0.0
H613 H 0.21808 0.10927 0.24104 0.0
H614 H 0.19199 0.03572 0.25975 0.0
H615 H 0.2255 0.01805 0.23496 0.0
C616 C 0.14689 0.11719 0.2455 0.0
C617 C 0.13093 0.10288 0.23022 0.0
C618 C 0.16894 0.10707 0.25458 0.0
C619 C 0.17523 0.08244 0.24867 0.0
C620 C 0.15804 0.06769 0.23515 0.0
C621 C 0.13629 0.07782 0.22596 0.0
C622 C 0.24024 0.07919 0.22838 0.0
C623 C 0.24063 0.05356 0.22383 0.0
C624 C 0.22044 0.08938 0.24172 0.0
C625 C 0.2013 0.07376 0.25064 0.0
C626 C 0.20582 0.04815 0.2519 0.0
C627 C 0.22514 0.03797 0.23787 0.0
H628 H 0.21899 0.88198 0.43799 0.0
H629 H 0.20912 0.82066 0.38659 0.0
H630 H 0.24968 0.85906 0.46048 0.0
H631 H 0.23949 0.79711 0.40914 0.0
H632 H 0.22069 0.75631 0.45402 0.0
H633 H 0.25986 0.77313 0.43752 0.0
H634 H 0.2587 0.83196 0.49031 0.0
H635 H 0.21872 0.81735 0.50683 0.0
C636 C 0.22308 0.86328 0.43177 0.0
C637 C 0.21038 0.8524 0.41156 0.0
C638 C 0.24104 0.85008 0.44455 0.0
C639 C 0.24601 0.82512 0.43825 0.0
C640 C 0.23551 0.81562 0.41588 0.0
C641 C 0.21772 0.829 0.40291 0.0
C642 C 0.22877 0.77281 0.46255 0.0
C643 C 0.21514 0.78746 0.4795 0.0
C644 C 0.25121 0.78248 0.45319 0.0
C645 C 0.25593 0.80787 0.45775 0.0
C646 C 0.2504 0.81532 0.48233 0.0
C647 C 0.22762 0.80702 0.49193 0.0
H648 H 0.38258 0.97017 0.64695 0.0
H649 H 0.32011 1.00355 0.68452 0.0
H650 H 0.38714 0.94152 0.68094 0.0
H651 H 0.32512 0.97486 0.71927 0.0
H652 H 0.39178 0.9043 0.75693 0.0
H653 H 0.37624 0.94539 0.74769 0.0
H654 H 0.33291 0.91448 0.68726 0.0
H655 H 0.35001 0.87366 0.6951 0.0
C656 C 0.3712 0.97274 0.66345 0.0
C657 C 0.35089 0.98871 0.66311 0.0
C658 C 0.37373 0.95627 0.68291 0.0
C659 C 0.35638 0.95604 0.70248 0.0
C660 C 0.33859 0.97476 0.70424 0.0
C661 C 0.33605 0.99138 0.68458 0.0
C662 C 0.37774 0.90591 0.74265 0.0
C663 C 0.37282 0.88602 0.72604 0.0
C664 C 0.36882 0.92953 0.73748 0.0
C665 C 0.35394 0.93294 0.71651 0.0
C666 C 0.34453 0.9121 0.70352 0.0
C667 C 0.35426 0.8887 0.708 0.0
H668 H 0.30016 0.2416 0.91445 0.0
H669 H 0.27388 0.21148 0.98373 0.0
H670 H 0.27233 0.21409 0.89169 0.0
H671 H 0.24406 0.18524 0.9612 0.0
H672 H 0.25999 0.11125 0.91928 0.0
H673 H 0.25828 0.14939 0.94301 0.0
H674 H 0.24041 0.18934 0.87594 0.0
H675 H 0.2431 0.15035 0.85204 0.0
C676 C 0.28708 0.23025 0.92484 0.0
C677 C 0.28941 0.22813 0.95067 0.0
C678 C 0.27098 0.21435 0.91178 0.0
C679 C 0.25676 0.19639 0.92454 0.0
C680 C 0.25565 0.19796 0.95072 0.0
C681 C 0.27243 0.21323 0.96372 0.0
C682 C 0.25509 0.12815 0.9098 0.0
C683 C 0.25222 0.12824 0.88396 0.0
C684 C 0.25373 0.15014 0.92343 0.0
C685 C 0.24962 0.17284 0.91143 0.0
C686 C 0.24419 0.17236 0.88574 0.0
C687 C 0.24567 0.15015 0.87202 0.0
H688 H 0.06906 0.98079 0.24109 0.0
H689 H 0.03941 0.99279 0.31378 0.0
H690 H 0.1096 0.9716 0.25822 0.0
H691 H 0.08001 0.98571 0.33201 0.0
H692 H 0.11185 0.90949 0.34957 0.0
H693 H 0.0872 0.94331 0.33477 0.0
H694 H 0.14459 0.96166 0.28118 0.0
H695 H 0.16926 0.92703 0.296 0.0
C696 C 0.0717 0.98323 0.26096 0.0
C697 C 0.05109 0.98115 0.27707 0.0
C698 C 0.09505 0.9775 0.27085 0.0
C699 C 0.09731 0.97493 0.29685 0.0
C700 C 0.0783 0.98509 0.31195 0.0
C701 C 0.05507 0.98979 0.3014 0.0
C702 C 0.11914 0.92062 0.33452 0.0
C703 C 0.14232 0.91541 0.32383 0.0
C704 C 0.10526 0.9405 0.32633 0.0
C705 C 0.11412 0.95588 0.30715 0.0
C706 C 0.13719 0.95037 0.29605 0.0
C707 C 0.15119 0.93032 0.30432 0.0
H708 H 0.29604 0.92762 0.54711 0.0
H709 H 0.36126 0.97523 0.55159 0.0
H710 H 0.31964 0.89733 0.52361 0.0
H711 H 0.38494 0.94481 0.52777 0.0
H712 H 0.36228 0.83827 0.4963 0.0
H713 H 0.34695 0.88043 0.49081 0.0
H714 H 0.39614 0.90622 0.54953 0.0
H715 H 0.41127 0.86421 0.55467 0.0
C716 C 0.31521 0.93197 0.54235 0.0
C717 C 0.32711 0.95322 0.5521 0.0
C718 C 0.3287 0.91475 0.52853 0.0
C719 C 0.35435 0.91847 0.52441 0.0
C720 C 0.3653 0.94135 0.53108 0.0
C721 C 0.35173 0.95868 0.54482 0.0
C722 C 0.37044 0.85329 0.50718 0.0
C723 C 0.38756 0.84838 0.52609 0.0
C724 C 0.36179 0.87733 0.50402 0.0
C725 C 0.37004 0.89652 0.51999 0.0
C726 C 0.38952 0.89191 0.53679 0.0
C727 C 0.39809 0.86787 0.53994 0.0
H728 H 0.40676 0.07874 0.73455 0.0
H729 H 0.39155 0.06077 0.81103 0.0
H730 H 0.36759 0.05896 0.72184 0.0
H731 H 0.35262 0.04076 0.79827 0.0
H732 H 0.28367 0.02198 0.78657 0.0
H733 H 0.32096 0.01259 0.7626 0.0
H734 H 0.33278 0.09079 0.75063 0.0
H735 H 0.29646 0.10008 0.77544 0.0
C736 C 0.39544 0.0697 0.74845 0.0
C737 C 0.40126 0.07237 0.77386 0.0
C738 C 0.37333 0.05802 0.74108 0.0
C739 C 0.35702 0.04884 0.75915 0.0
C740 C 0.36518 0.04744 0.78398 0.0
C741 C 0.38722 0.0593 0.79139 0.0
C742 C 0.29309 0.037 0.77699 0.0
C743 C 0.28802 0.0618 0.78342 0.0
C744 C 0.31444 0.03154 0.76319 0.0
C745 C 0.33003 0.051 0.75546 0.0
C746 C 0.321 0.07541 0.75629 0.0
C747 C 0.30017 0.08087 0.77072 0.0
H748 H 0.14833 0.15895 0.13359 0.0
H749 H 0.16542 0.15611 0.05507 0.0
H750 H 0.19156 0.15102 0.14312 0.0
H751 H 0.20899 0.15005 0.06433 0.0
H752 H 0.26791 0.09554 0.09356 0.0
H753 H 0.23664 0.12195 0.07625 0.0
H754 H 0.23228 0.16227 0.14622 0.0
H755 H 0.26182 0.13364 0.16409 0.0
C756 C 0.16145 0.15668 0.1184 0.0
C757 C 0.15341 0.15761 0.0937 0.0
C758 C 0.18648 0.15278 0.12377 0.0
C759 C 0.20428 0.15032 0.10452 0.0
C760 C 0.19608 0.15156 0.07974 0.0
C761 C 0.17093 0.15483 0.07438 0.0
C762 C 0.26129 0.11096 0.10478 0.0
C763 C 0.26615 0.11194 0.13036 0.0
C764 C 0.24296 0.1261 0.09493 0.0
C765 C 0.23029 0.143 0.11051 0.0
C766 C 0.24028 0.14816 0.13425 0.0
C767 C 0.25783 0.13229 0.14436 0.0
H768 H 0.71004 0.2621 0.87276 0.0
H769 H 0.74204 0.30688 0.93186 0.0
H770 H 0.71898 0.295 0.84326 0.0
H771 H 0.75206 0.33928 0.90208 0.0
H772 H 0.67858 0.37857 0.85075 0.0
H773 H 0.68991 0.3359 0.85988 0.0
H774 H 0.76786 0.35554 0.85398 0.0
H775 H 0.75652 0.39797 0.84343 0.0
C776 C 0.72073 0.27812 0.8791 0.0
C777 C 0.72494 0.2823 0.90461 0.0
C778 C 0.72573 0.29698 0.86218 0.0
C779 C 0.73573 0.31967 0.87061 0.0
C780 C 0.74431 0.32186 0.89521 0.0
C781 C 0.73865 0.30332 0.91227 0.0
C782 C 0.69805 0.3735 0.85036 0.0
C783 C 0.71666 0.39149 0.84661 0.0
C784 C 0.70456 0.34911 0.85538 0.0
C785 C 0.72977 0.34258 0.85741 0.0
C786 C 0.74836 0.36014 0.85209 0.0
C787 C 0.74181 0.38437 0.8462 0.0
H788 H 0.91902 0.43565 0.19731 0.0
H789 H 0.98433 0.45393 0.1537 0.0
H790 H 0.89608 0.46821 0.17663 0.0
H791 H 0.96117 0.48645 0.13289 0.0
H792 H 0.85743 0.52727 0.14194 0.0
H793 H 0.89326 0.51534 0.16703 0.0
H794 H 0.92442 0.47729 0.1032 0.0
H795 H 0.88846 0.48875 0.07852 0.0
C796 C 0.92854 0.4468 0.18352 0.0
C797 C 0.95328 0.44191 0.17675 0.0
C798 C 0.91556 0.46573 0.17201 0.0
C799 C 0.92699 0.47992 0.15332 0.0
C800 C 0.95207 0.47584 0.14737 0.0
C801 C 0.96518 0.45712 0.15914 0.0
C802 C 0.87266 0.51758 0.13303 0.0
C803 C 0.87033 0.50865 0.10853 0.0
C804 C 0.89302 0.51061 0.14738 0.0
C805 C 0.91128 0.49506 0.1371 0.0
C806 C 0.91063 0.48934 0.11155 0.0
C807 C 0.89009 0.49587 0.0974 0.0
H808 H 0.87179 0.6594 0.5246 0.0
H809 H 0.93556 0.64168 0.47915 0.0
H810 H 0.85621 0.61692 0.51982 0.0
H811 H 0.91976 0.59953 0.47348 0.0
H812 H 0.88097 0.53167 0.45077 0.0
H813 H 0.9011 0.55838 0.48199 0.0
H814 H 0.83915 0.60878 0.47827 0.0
H815 H 0.81915 0.58226 0.44755 0.0
C816 C 0.88305 0.64596 0.51466 0.0
C817 C 0.90453 0.6535 0.50185 0.0
C818 C 0.87416 0.62174 0.51185 0.0
C819 C 0.88631 0.60526 0.49555 0.0
C820 C 0.9099 0.61183 0.48607 0.0
C821 C 0.91897 0.63598 0.4892 0.0
C822 C 0.87148 0.54823 0.45705 0.0
C823 C 0.84884 0.55532 0.44625 0.0
C824 C 0.88294 0.56337 0.47502 0.0
C825 C 0.87176 0.58564 0.48258 0.0
C826 C 0.84815 0.59156 0.47318 0.0
C827 C 0.83686 0.57661 0.45516 0.0
H828 H 0.90112 0.52358 0.34738 0.0
H829 H 0.83736 0.48155 0.32155 0.0
H830 H 0.90114 0.54684 0.30916 0.0
H831 H 0.83761 0.50504 0.28321 0.0
H832 H 0.87351 0.60174 0.25248 0.0
H833 H 0.8751 0.55638 0.25209 0.0
H834 H 0.83775 0.55585 0.32308 0.0
H835 H 0.83843 0.60081 0.32443 0.0
C836 C 0.88848 0.5178 0.33267 0.0
C837 C 0.86835 0.50191 0.33786 0.0
C838 C 0.88856 0.53109 0.31056 0.0
C839 C 0.86805 0.52898 0.29444 0.0
C840 C 0.85251 0.50807 0.29635 0.0
C841 C 0.85271 0.4943 0.31822 0.0
C842 C 0.86446 0.5918 0.26728 0.0
C843 C 0.85699 0.60462 0.28896 0.0
C844 C 0.8653 0.56586 0.26697 0.0
C845 C 0.85683 0.55277 0.28767 0.0
C846 C 0.84418 0.5656 0.30676 0.0
C847 C 0.84451 0.59144 0.30757 0.0
H848 H 0.7019 0.53555 0.82711 0.0
H849 H 0.68916 0.47869 0.77166 0.0
H850 H 0.66034 0.55136 0.82014 0.0
H851 H 0.64791 0.49406 0.76485 0.0
H852 H 0.61268 0.48897 0.86196 0.0
H853 H 0.63722 0.52232 0.84376 0.0
H854 H 0.60688 0.50453 0.77146 0.0
H855 H 0.58058 0.47318 0.79019 0.0
C856 C 0.69099 0.5276 0.81201 0.0
C857 C 0.69771 0.50482 0.80116 0.0
C858 C 0.66695 0.53654 0.80815 0.0
C859 C 0.64992 0.5219 0.79435 0.0
C860 C 0.65988 0.50469 0.7772 0.0
C861 C 0.68381 0.49575 0.78097 0.0
C862 C 0.61024 0.49332 0.8425 0.0
C863 C 0.59615 0.47775 0.82701 0.0
C864 C 0.62435 0.51243 0.83193 0.0
C865 C 0.62548 0.51509 0.80585 0.0
C866 C 0.60733 0.50267 0.79146 0.0
C867 C 0.59259 0.4843 0.8021 0.0
H868 H 0.52655 0.64919 0.68059 0.0
H869 H 0.59732 0.62525 0.70975 0.0
H870 H 0.54802 0.669 0.64619 0.0
H871 H 0.61877 0.64475 0.67476 0.0
H872 H 0.64664 0.70272 0.61573 0.0
H873 H 0.62704 0.68778 0.65438 0.0
H874 H 0.5706 0.64952 0.61093 0.0
H875 H 0.58938 0.66431 0.5732 0.0
C876 C 0.54665 0.64791 0.6795 0.0
C877 C 0.56022 0.63531 0.69758 0.0
C878 C 0.55893 0.65943 0.65995 0.0
C879 C 0.58498 0.65831 0.65794 0.0
C880 C 0.59868 0.64609 0.67616 0.0
C881 C 0.58638 0.63467 0.6959 0.0
C882 C 0.63 0.69122 0.61465 0.0
C883 C 0.61966 0.68455 0.59152 0.0
C884 C 0.61892 0.68263 0.6366 0.0
C885 C 0.59726 0.66773 0.63545 0.0
C886 C 0.58705 0.66129 0.61233 0.0
C887 C 0.59805 0.66961 0.59069 0.0
H888 H 0.65734 0.25109 0.8433 0.0
H889 H 0.5986 0.23178 0.89394 0.0
H890 H 0.63348 0.28625 0.82921 0.0
H891 H 0.57573 0.26765 0.88227 0.0
H892 H 0.63234 0.36332 0.86323 0.0
H893 H 0.63847 0.31991 0.85451 0.0
H894 H 0.56125 0.30475 0.87324 0.0
H895 H 0.55559 0.34836 0.8828 0.0
C896 C 0.63859 0.25345 0.85038 0.0
C897 C 0.63078 0.24073 0.87165 0.0
C898 C 0.62524 0.27417 0.84299 0.0
C899 C 0.60441 0.28166 0.85712 0.0
C900 C 0.59271 0.26379 0.87221 0.0
C901 C 0.60569 0.24253 0.87859 0.0
C902 C 0.61678 0.35061 0.86576 0.0
C903 C 0.59354 0.35928 0.87361 0.0
C904 C 0.62 0.32565 0.86002 0.0
C905 C 0.59996 0.30858 0.86174 0.0
C906 C 0.57705 0.31715 0.87107 0.0
C907 C 0.57387 0.34221 0.87698 0.0
H908 H 0.9871 0.26121 0.05195 0.0
H909 H 0.98866 0.33684 0.02701 0.0
H910 H 0.01689 0.27191 0.0844 0.0
H911 H 0.01747 0.34791 0.06 0.0
H912 H 0.04009 0.3716 0.13348 0.0
H913 H 0.04686 0.34988 0.0939 0.0
H914 H 0.99422 0.29301 0.11647 0.0
H915 H 0.98759 0.31462 0.15546 0.0
C916 C 0.99514 0.27974 0.05243 0.0
C917 C 0.98525 0.29848 0.03775 0.0
C918 C 0.01214 0.28593 0.0711 0.0
C919 C 0.01824 0.31098 0.07574 0.0
C920 C 0.01267 0.3285 0.05742 0.0
C921 C 0.99606 0.32221 0.03841 0.0
C922 C 0.03037 0.3542 0.13003 0.0
C923 C 0.01256 0.34521 0.147 0.0
C924 C 0.03434 0.34174 0.10746 0.0
C925 C 0.02093 0.31987 0.1018 0.0
C926 C 1.00513 0.30967 0.12009 0.0
C927 C 1.00088 0.3223 0.14235 0.0
H928 H 0.93172 0.72737 0.3148 0.0
H929 H 0.89091 0.70081 0.37845 0.0
H930 H 0.9606 0.75 0.34238 0.0
H931 H 0.91947 0.72306 0.40566 0.0
H932 H 0.98405 0.70139 0.43346 0.0
H933 H 0.97686 0.70671 0.38937 0.0
H934 H 0.95259 0.78116 0.40292 0.0
H935 H 0.95912 0.77589 0.44742 0.0
C936 C 0.92778 0.72793 0.33454 0.0
C937 C 0.90908 0.71241 0.3446 0.0
C938 C 0.94451 0.74064 0.35027 0.0
C939 C 0.94195 0.73853 0.37606 0.0
C940 C 0.92124 0.72572 0.38582 0.0
C941 C 0.90476 0.71301 0.37024 0.0
C942 C 0.97929 0.71968 0.42692 0.0
C943 C 0.97074 0.73771 0.44377 0.0
C944 C 0.9753 0.72276 0.40152 0.0
C945 C 0.96273 0.74375 0.39325 0.0
C946 C 0.96107 0.76434 0.40926 0.0
C947 C 0.96521 0.76137 0.43476 0.0
H948 H 0.62569 0.5941 0.67064 0.0
H949 H 0.68511 0.57722 0.72166 0.0
H950 H 0.5973 0.56824 0.69448 0.0
H951 H 0.65713 0.55022 0.7448 0.0
H952 H 0.58781 0.56644 0.79663 0.0
H953 H 0.62496 0.56343 0.77195 0.0
H954 H 0.58255 0.5298 0.71192 0.0
H955 H 0.54467 0.5351 0.73608 0.0
C956 C 0.63267 0.58458 0.6868 0.0
C957 C 0.65713 0.58849 0.69498 0.0
C958 C 0.61664 0.56925 0.70015 0.0
C959 C 0.62498 0.5572 0.72167 0.0
C960 C 0.65008 0.55957 0.72859 0.0
C961 C 0.66594 0.57534 0.71556 0.0
C962 C 0.58643 0.55727 0.77862 0.0
C963 C 0.56324 0.55365 0.767 0.0
C964 C 0.60796 0.55548 0.76437 0.0
C965 C 0.60645 0.54749 0.73944 0.0
C966 C 0.58403 0.53687 0.7308 0.0
C967 C 0.56234 0.5396 0.74483 0.0
H968 H 0.92235 0.38235 0.00657 0.0
H969 H 0.85407 0.35688 0.04119 0.0
H970 H 0.90124 0.41978 0.99273 0.0
H971 H 0.83326 0.39392 0.02756 0.0
H972 H 0.79248 0.44994 1.00358 0.0
H973 H 0.81891 0.41602 0.98998 0.0
H974 H 0.88371 0.45643 0.01601 0.0
H975 H 0.85746 0.49065 0.02874 0.0
C976 C 0.90288 0.38477 0.01126 0.0
C977 C 0.88992 0.36686 0.02527 0.0
C978 C 0.89081 0.40602 1.0031 0.0
C979 C 0.86551 0.40948 0.0085 0.0
C980 C 0.85261 0.39146 0.0224 0.0
C981 C 0.86467 0.37045 0.03074 0.0
C982 C 0.81253 0.45238 1.00454 0.0
C983 C 0.82297 0.4723 0.01805 0.0
C984 C 0.82763 0.43284 0.99701 0.0
C985 C 0.85303 0.43314 1.0032 0.0
C986 C 0.86407 0.45548 0.01145 0.0
C987 C 0.84898 0.47526 0.0186 0.0
H988 H 0.71368 0.6596 0.49982 0.0
H989 H 0.7306 0.7277 0.53969 0.0
H990 H 0.75301 0.64285 0.51336 0.0
H991 H 0.76994 0.71023 0.55308 0.0
H992 H 0.73299 0.67041 0.61979 0.0
H993 H 0.75695 0.69148 0.58833 0.0
H994 H 0.76384 0.6224 0.54703 0.0
H995 H 0.73895 0.6018 0.57827 0.0
C996 C 0.72583 0.67101 0.51137 0.0
C997 C 0.7178 0.69373 0.52127 0.0
C998 C 0.74863 0.66161 0.51903 0.0
C999 C 0.76083 0.6733 0.53932 0.0
C1000 C 0.75803 0.69919 0.54095 0.0
C1001 C 0.73532 0.70914 0.53354 0.0
C1002 C 0.73954 0.65985 0.60386 0.0
C1003 C 0.73215 0.63512 0.60023 0.0
C1004 C 0.75373 0.6718 0.58574 0.0
C1005 C 0.76014 0.6593 0.56332 0.0
C1006 C 0.75723 0.63332 0.56266 0.0
C1007 C 0.74267 0.62149 0.58049 0.0
H1008 H 0.00827 0.90593 0.18961 0.0
H1009 H 0.95735 0.95954 0.22054 0.0
H1010 H 0.02513 0.93739 0.16181 0.0
H1011 H 0.9734 0.99055 0.19195 0.0
H1012 H 0.06738 0.01541 0.19506 0.0
H1013 H 0.04822 0.97443 0.19003 0.0
H1014 H 0.98953 0.006 0.14613 0.0
H1015 H 0.0094 0.04686 0.15036 0.0
C1016 C 0.99951 0.92392 0.18936 0.0
C1017 C 0.98193 0.93056 0.20766 0.0
C1018 C 0.00927 0.94191 0.17344 0.0
C1019 C 1.00085 0.96639 0.1751 0.0
C1020 C 0.98019 0.97175 0.19028 0.0
C1021 C 0.97095 0.954 0.20668 0.0
C1022 C 0.05145 0.01322 0.18284 0.0
C1023 C 0.03988 0.03405 0.17294 0.0
C1024 C 0.04041 0.9898 0.17995 0.0
C1025 C 0.01729 0.9872 0.16782 0.0
C1026 C 0.00742 0.00756 0.15535 0.0
C1027 C 0.01883 0.03087 0.15773 0.0
H1028 H 0.29521 0.77653 0.52202 0.0
H1029 H 0.28609 0.76021 0.59979 0.0
H1030 H 0.25153 0.76763 0.5148 0.0
H1031 H 0.24136 0.75204 0.59274 0.0
H1032 H 0.15715 0.76128 0.56484 0.0
H1033 H 0.19979 0.77009 0.57812 0.0
H1034 H 0.22745 0.72839 0.51508 0.0
H1035 H 0.18493 0.7196 0.50163 0.0
C1036 C 0.28348 0.77239 0.53787 0.0
C1037 C 0.29395 0.76976 0.56158 0.0
C1038 C 0.25844 0.76685 0.53364 0.0
C1039 C 0.24294 0.75888 0.55309 0.0
C1040 C 0.25285 0.75815 0.57735 0.0
C1041 C 0.27831 0.76322 0.58151 0.0
C1042 C 0.17226 0.75337 0.55411 0.0
C1043 C 0.16744 0.73992 0.53189 0.0
C1044 C 0.19675 0.75854 0.56176 0.0
C1045 C 0.217 0.75044 0.54738 0.0
C1046 C 0.21222 0.7354 0.52629 0.0
C1047 C 0.18779 0.7301 0.51871 0.0
H1048 H 0.4218 0.94448 0.70653 0.0
H1049 H 0.48534 0.9518 0.65785 0.0
H1050 H 0.42923 0.98631 0.7225 0.0
H1051 H 0.4942 0.9928 0.6754 0.0
H1052 H 0.47868 0.02723 0.77846 0.0
H1053 H 0.46421 0.99378 0.75148 0.0
H1054 H 0.48489 0.03621 0.68683 0.0
H1055 H 0.49979 0.06985 0.71393 0.0
C1056 C 0.43633 0.95563 0.69804 0.0
C1057 C 0.45276 0.94508 0.68072 0.0
C1058 C 0.44114 0.97929 0.70778 0.0
C1059 C 0.46292 0.99229 0.70096 0.0
C1060 C 0.47743 0.98312 0.68122 0.0
C1061 C 0.47228 0.95969 0.67108 0.0
C1062 C 0.48064 0.02929 0.75852 0.0
C1063 C 0.49045 0.05121 0.74841 0.0
C1064 C 0.47184 0.01031 0.74301 0.0
C1065 C 0.4726 0.01273 0.717 0.0
C1066 C 0.48379 0.03397 0.7068 0.0
C1067 C 0.49265 0.05306 0.72237 0.0
H1068 H 0.34502 0.22882 0.06813 0.0
H1069 H 0.30746 0.29647 0.04957 0.0
H1070 H 0.30786 0.21439 0.09031 0.0
H1071 H 0.27077 0.28254 0.07253 0.0
H1072 H 0.22296 0.19464 0.05932 0.0
H1073 H 0.26719 0.20548 0.06209 0.0
H1074 H 0.25002 0.26464 0.11393 0.0
H1075 H 0.20576 0.25302 0.11182 0.0
C1076 C 0.32938 0.24122 0.07006 0.0
C1077 C 0.32893 0.26369 0.05707 0.0
C1078 C 0.30811 0.23289 0.08264 0.0
C1079 C 0.28649 0.24729 0.08296 0.0
C1080 C 0.28728 0.27117 0.07274 0.0
C1081 C 0.30825 0.27918 0.0596 0.0
C1082 C 0.22887 0.20896 0.07238 0.0
C1083 C 0.21128 0.22279 0.08566 0.0
C1084 C 0.25413 0.21522 0.07398 0.0
C1085 C 0.26194 0.23589 0.08827 0.0
C1086 C 0.24445 0.24852 0.10299 0.0
C1087 C 0.21924 0.24189 0.1018 0.0
H1088 H 0.30331 0.08814 0.95332 0.0
H1089 H 0.28712 0.01025 0.94146 0.0
H1090 H 0.28405 0.08569 0.99476 0.0
H1091 H 0.26539 0.00854 0.97973 0.0
H1092 H 0.23163 0.07742 0.0625 0.0
H1093 H 0.25036 0.08296 0.02117 0.0
H1094 H 0.26776 0.00464 0.0193 0.0
H1095 H 0.24706 0.99907 0.05776 0.0
C1096 C 0.29576 0.07056 0.95954 0.0
C1097 C 0.29708 0.04937 0.94409 0.0
C1098 C 0.28439 0.06915 0.98319 0.0
C1099 C 0.27332 0.04672 0.99138 0.0
C1100 C 0.27459 0.0259 0.97541 0.0
C1101 C 0.28694 0.02698 0.9528 0.0
C1102 C 0.2389 0.06144 0.05266 0.0
C1103 C 0.23759 0.03781 0.06347 0.0
C1104 C 0.24997 0.0646 0.02907 0.0
C1105 C 0.26055 0.04426 0.01617 0.0
C1106 C 0.25898 0.02079 0.02735 0.0
C1107 C 0.24722 0.01756 0.05008 0.0
H1108 H 0.33153 0.97756 0.19753 0.0
H1109 H 0.26886 0.93943 0.1638 0.0
H1110 H 0.3268 0.9523 0.23459 0.0
H1111 H 0.26319 0.91516 0.20118 0.0
H1112 H 0.27179 0.9554 0.30107 0.0
H1113 H 0.29311 0.96238 0.26219 0.0
H1114 H 0.27184 0.88891 0.23642 0.0
H1115 H 0.24976 0.882 0.27559 0.0
C1116 C 0.31748 0.96298 0.19764 0.0
C1117 C 0.30021 0.96074 0.17819 0.0
C1118 C 0.31458 0.94869 0.21892 0.0
C1119 C 0.29396 0.93257 0.2212 0.0
C1120 C 0.27916 0.92756 0.20013 0.0
C1121 C 0.28242 0.94148 0.17861 0.0
C1122 C 0.27177 0.94055 0.28729 0.0
C1123 C 0.25871 0.91828 0.29134 0.0
C1124 C 0.28443 0.94442 0.26505 0.0
C1125 C 0.28444 0.92607 0.24623 0.0
C1126 C 0.27215 0.90339 0.25056 0.0
C1127 C 0.25943 0.89949 0.27294 0.0
H1128 H 0.22576 0.99848 0.42034 0.0
H1129 H 0.19128 0.9437 0.46747 0.0
H1130 H 0.23118 0.02628 0.45592 0.0
H1131 H 0.19829 0.97068 0.5037 0.0
H1132 H 0.27798 0.04094 0.52676 0.0
H1133 H 0.25922 0.02673 0.48836 0.0
H1134 H 0.19179 0.00691 0.52805 0.0
H1135 H 0.21134 0.0203 0.56699 0.0
C1136 C 0.2195 0.9924 0.43848 0.0
C1137 C 0.20868 0.96883 0.44144 0.0
C1138 C 0.22256 0.0083 0.45887 0.0
C1139 C 0.21563 1.00064 0.48285 0.0
C1140 C 0.20363 0.97741 0.48553 0.0
C1141 C 0.1999 0.96175 0.4649 0.0
C1142 C 0.25883 0.03437 0.52718 0.0
C1143 C 0.24632 0.03128 0.54989 0.0
C1144 C 0.24792 0.02624 0.50505 0.0
C1145 C 0.22412 0.01503 0.5051 0.0
C1146 C 0.21041 0.01482 0.52746 0.0
C1147 C 0.22144 0.0229 0.54973 0.0
H1148 H 0.27925 0.9684 0.83118 0.0
H1149 H 0.20079 0.97818 0.81853 0.0
H1150 H 0.28468 0.95491 0.78825 0.0
H1151 H 0.20567 0.96286 0.77599 0.0
H1152 H 0.28851 0.94221 0.70429 0.0
H1153 H 0.27868 0.93341 0.74795 0.0
H1154 H 0.22452 0.99215 0.74801 0.0
H1155 H 0.23396 1.00068 0.70522 0.0
C1156 C 0.26283 0.96582 0.81975 0.0
C1157 C 0.2397 0.97476 0.8279 0.0
C1158 C 0.26596 0.95819 0.795 0.0
C1159 C 0.24576 0.95888 0.77844 0.0
C1160 C 0.22175 0.96303 0.78814 0.0
C1161 C 0.2188 0.97135 0.81264 0.0
C1162 C 0.27439 0.95309 0.71368 0.0
C1163 C 0.26209 0.97223 0.7012 0.0
C1164 C 0.26869 0.94794 0.73861 0.0
C1165 C 0.25036 0.96163 0.75133 0.0
C1166 C 0.23808 0.98057 0.73866 0.0
C1167 C 0.24382 0.98577 0.71405 0.0
H1168 H 0.95319 0.21563 0.96991 0.0
H1169 H 0.95962 0.29144 0.94505 0.0
H1170 H 0.9983 0.21222 0.96895 0.0
H1171 H 1.00483 0.288 0.94445 0.0
H1172 H 0.07791 0.20739 0.96725 0.0
H1173 H 0.03887 0.21435 0.94529 0.0
H1174 H 0.03113 0.28452 0.98399 0.0
H1175 H 0.07042 0.27755 1.00567 0.0
C1176 C 0.96415 0.23127 0.96342 0.0
C1177 C 0.95282 0.25393 0.95811 0.0
C1178 C 0.99003 0.22931 0.96277 0.0
C1179 C 1.00504 0.25001 0.95694 0.0
C1180 C 0.99366 0.27188 0.94923 0.0
C1181 C 0.96775 0.27374 0.94952 0.0
C1182 C 0.06842 0.22485 0.97004 0.0
C1183 C 0.07697 0.242 0.98799 0.0
C1184 C 0.04607 0.22874 0.95763 0.0
C1185 C 0.03186 0.24976 0.9632 0.0
C1186 C 0.04185 0.26824 0.97914 0.0
C1187 C 0.06433 0.26435 0.99153 0.0
H1188 H 0.44832 0.21727 0.92801 0.0
H1189 H 0.45815 0.2275 0.00725 0.0
H1190 H 0.4914 0.23201 0.92123 0.0
H1191 H 0.49964 0.24292 1.00062 0.0
H1192 H 0.56381 0.28433 0.92314 0.0
H1193 H 0.52049 0.26843 0.92417 0.0
H1194 H 0.538 0.22672 0.98997 0.0
H1195 H 0.57949 0.2436 0.98997 0.0
C1196 C 0.45963 0.22256 0.94389 0.0
C1197 C 0.44986 0.22088 0.96815 0.0
C1198 C 0.48416 0.23119 0.94002 0.0
C1199 C 0.49918 0.23833 0.9604 0.0
C1200 C 0.48908 0.23684 0.98448 0.0
C1201 C 0.46506 0.22793 0.98831 0.0
C1202 C 0.55812 0.27188 0.9378 0.0
C1203 C 0.57492 0.26567 0.95673 0.0
C1204 C 0.53346 0.26262 0.9383 0.0
C1205 C 0.52557 0.24669 0.95749 0.0
C1206 C 0.54297 0.23967 0.97547 0.0
C1207 C 0.56696 0.24939 0.97541 0.0
H1208 H 0.97815 0.16108 0.22309 0.0
H1209 H 1.00534 0.17262 0.29792 0.0
H1210 H 0.96639 0.20426 0.22106 0.0
H1211 H 0.99185 0.21562 0.29669 0.0
H1212 H 0.94537 0.28535 0.2235 0.0
H1213 H 0.94466 0.24061 0.23121 0.0
H1214 H 0.0103 0.24915 0.2772 0.0
H1215 H 0.01028 0.29315 0.27049 0.0
C1216 C 0.98047 0.17257 0.23962 0.0
C1217 C 0.99291 0.16353 0.26064 0.0
C1218 C 0.9737 0.19747 0.23843 0.0
C1219 C 0.97876 0.21375 0.25845 0.0
C1220 C 0.98851 0.20388 0.28054 0.0
C1221 C 0.99593 0.17914 0.28146 0.0
C1222 C 0.95944 0.27755 0.23542 0.0
C1223 C 0.97775 0.29287 0.24648 0.0
C1224 C 0.95908 0.25193 0.23984 0.0
C1225 C 0.97721 0.24114 0.25518 0.0
C1226 C 0.99547 0.25665 0.26604 0.0
C1227 C 0.99563 0.28205 0.26191 0.0
H1228 H 0.06765 0.8559 0.53044 0.0
H1229 H 0.04205 0.82957 0.45885 0.0
H1230 H 0.02458 0.86256 0.54348 0.0
H1231 H 0.99919 0.83662 0.47145 0.0
H1232 H 0.92553 0.83196 0.49759 0.0
H1233 H 0.96172 0.85867 0.4907 0.0
H1234 H 1.0006 0.82187 0.54979 0.0
H1235 H 0.96469 0.79495 0.55642 0.0
C1236 C 0.0529 0.85328 0.51689 0.0
C1237 C 0.05795 0.84212 0.49373 0.0
C1238 C 0.02824 0.85689 0.52443 0.0
C1239 C 0.00852 0.84962 0.5087 0.0
C1240 C 0.01394 0.84248 0.48402 0.0
C1241 C 0.03853 0.83847 0.47669 0.0
C1242 C 0.94132 0.83037 0.50998 0.0
C1243 C 0.94257 0.81086 0.52712 0.0
C1244 C 0.96207 0.84572 0.50595 0.0
C1245 C 0.98413 0.84205 0.51933 0.0
C1246 C 0.98387 0.82521 0.53914 0.0
C1247 C 0.96331 0.8096 0.54289 0.0
H1248 H 0.55413 0.65343 0.52139 0.0
H1249 H 0.5464 0.70128 0.45809 0.0
H1250 H 0.50899 0.64607 0.52143 0.0
H1251 H 0.50209 0.69522 0.4587 0.0
H1252 H 0.4249 0.6965 0.46337 0.0
H1253 H 0.46437 0.67581 0.45548 0.0
H1254 H 0.47628 0.67072 0.53491 0.0
H1255 H 0.43587 0.68906 0.54234 0.0
C1256 C 0.54287 0.66189 0.50718 0.0
C1257 C 0.55361 0.67845 0.49018 0.0
C1258 C 0.51699 0.65786 0.50727 0.0
C1259 C 0.50158 0.6704 0.49041 0.0
C1260 C 0.51296 0.68494 0.47193 0.0
C1261 C 0.53856 0.68882 0.47179 0.0
C1262 C 0.43553 0.68978 0.47897 0.0
C1263 C 0.4277 0.69454 0.50339 0.0
C1264 C 0.45829 0.6782 0.47457 0.0
C1265 C 0.47419 0.67258 0.49454 0.0
C1266 C 0.4648 0.67475 0.51895 0.0
C1267 C 0.44159 0.68542 0.5233 0.0
H1268 H 0.07373 0.8064 0.26851 0.0
H1269 H 0.01884 0.82957 0.32216 0.0
H1270 H 0.05446 0.76527 0.2667 0.0
H1271 H 1.00063 0.7882 0.32188 0.0
H1272 H 0.01001 0.69143 0.27076 0.0
H1273 H 0.038 0.72531 0.28365 0.0
H1274 H 0.9757 0.77527 0.28527 0.0
H1275 H 0.94792 0.74179 0.27254 0.0
C1276 C 0.0587 0.80216 0.28132 0.0
C1277 C 0.048 0.82115 0.29579 0.0
C1278 C 0.04751 0.77864 0.28014 0.0
C1279 C 0.02553 0.77384 0.29354 0.0
C1280 C 0.01722 0.79164 0.31088 0.0
C1281 C 0.0282 0.81522 0.31175 0.0
C1282 C 1.00239 0.70978 0.27344 0.0
C1283 C 0.9767 0.71393 0.27055 0.0
C1284 C 0.01839 0.72907 0.28113 0.0
C1285 C 0.00896 0.7528 0.28617 0.0
C1286 C 0.98345 0.75704 0.28242 0.0
C1287 C 0.96755 0.7379 0.27469 0.0
H1288 H 0.52494 0.198 0.76289 0.0
H1289 H 0.46001 0.22537 0.80166 0.0
H1290 H 0.54773 0.23556 0.77376 0.0
H1291 H 0.48272 0.26369 0.81189 0.0
H1292 H 0.53377 0.32351 0.84125 0.0
H1293 H 0.51582 0.28196 0.83576 0.0
H1294 H 0.54879 0.27777 0.76233 0.0
H1295 H 0.56763 0.31875 0.76875 0.0
C1296 C 0.51535 0.21223 0.77344 0.0
C1297 C 0.49045 0.20886 0.78102 0.0
C1298 C 0.5285 0.23382 0.77971 0.0
C1299 C 0.51707 0.2528 0.79351 0.0
C1300 C 0.49223 0.24933 0.80145 0.0
C1301 C 0.47909 0.2275 0.79538 0.0
C1302 C 0.53812 0.31302 0.82455 0.0
C1303 C 0.55288 0.32364 0.80587 0.0
C1304 C 0.52738 0.28953 0.82109 0.0
C1305 C 0.53071 0.2765 0.79854 0.0
C1306 C 0.54616 0.287 0.78012 0.0
C1307 C 0.55705 0.31042 0.78374 0.0
H1308 H 0.51012 0.49478 0.85414 0.0
H1309 H 0.4606 0.44731 0.81123 0.0
H1310 H 0.48038 0.52777 0.8524 0.0
H1311 H 0.42998 0.48037 0.81014 0.0
H1312 H 0.43831 0.55523 0.76568 0.0
H1313 H 0.43267 0.51554 0.78506 0.0
H1314 H 0.44261 0.54991 0.85746 0.0
H1315 H 0.44933 0.58981 0.83769 0.0
C1316 C 0.4926 0.49126 0.8447 0.0
C1317 C 0.48813 0.46885 0.83194 0.0
C1318 C 0.47513 0.51007 0.84415 0.0
C1319 C 0.45268 0.50692 0.83086 0.0
C1320 C 0.44723 0.48358 0.82015 0.0
C1321 C 0.46491 0.46479 0.82046 0.0
C1322 C 0.43811 0.55451 0.78583 0.0
C1323 C 0.44603 0.57501 0.80015 0.0
C1324 C 0.4346 0.53166 0.7971 0.0
C1325 C 0.43933 0.52934 0.8227 0.0
C1326 C 0.44037 0.55106 0.83748 0.0
C1327 C 0.44418 0.57397 0.82616 0.0
H1328 H 0.83197 0.22638 0.06983 0.0
H1329 H 0.80902 0.29904 0.04718 0.0
H1330 H 0.78909 0.21121 0.06609 0.0
H1331 H 0.76596 0.28402 0.04376 0.0
H1332 H 0.69009 0.2474 0.03592 0.0
H1333 H 0.72567 0.25923 0.06216 0.0
H1334 H 0.77256 0.21014 0.0193 0.0
H1335 H 0.73737 0.19911 0.99254 0.0
C1336 C 0.81742 0.23948 0.06566 0.0
C1337 C 0.8236 0.26386 0.05893 0.0
C1338 C 0.79297 0.23075 0.06331 0.0
C1339 C 0.77439 0.24637 0.05434 0.0
C1340 C 0.77995 0.27166 0.05091 0.0
C1341 C 0.80454 0.28034 0.05302 0.0
C1342 C 0.70782 0.23849 0.03269 0.0
C1343 C 0.71108 0.22234 0.01222 0.0
C1344 C 0.72812 0.24535 0.04765 0.0
C1345 C 0.75173 0.23551 0.0428 0.0
C1346 C 0.75444 0.21773 0.02365 0.0
C1347 C 0.73436 0.21145 0.00829 0.0
H1348 H 0.0312 0.47495 0.24741 0.0
H1349 H 0.99489 0.43048 0.30344 0.0
H1350 H 0.01169 0.51195 0.2646 0.0
H1351 H 0.97516 0.46783 0.32063 0.0
H1352 H 0.94241 0.55661 0.26761 0.0
H1353 H 0.96208 0.51648 0.26142 0.0
H1354 H 0.98481 0.51661 0.33842 0.0
H1355 H 0.96476 0.55718 0.34465 0.0
C1356 C 0.01977 0.47324 0.26396 0.0
C1357 C 0.01441 0.44986 0.27396 0.0
C1358 C 0.00846 0.49435 0.27366 0.0
C1359 C 0.9915 0.4925 0.29349 0.0
C1360 C 0.98811 0.46961 0.30526 0.0
C1361 C 0.99956 0.44833 0.29554 0.0
C1362 C 0.95086 0.54765 0.28341 0.0
C1363 C 0.95214 0.55976 0.30656 0.0
C1364 C 0.96229 0.52487 0.27984 0.0
C1365 C 0.97544 0.51389 0.29931 0.0
C1366 C 0.97487 0.52488 0.32314 0.0
C1367 C 0.96329 0.54787 0.32674 0.0
H1368 H 0.68204 0.75901 0.44054 0.0
H1369 H 0.70539 0.77193 0.51662 0.0
H1370 H 0.72469 0.74792 0.42927 0.0
H1371 H 0.74772 0.76061 0.50522 0.0
H1372 H 0.80695 0.70614 0.4885 0.0
H1373 H 0.76251 0.71536 0.48998 0.0
H1374 H 0.77191 0.76762 0.43053 0.0
H1375 H 0.81648 0.758 0.42867 0.0
C1376 C 0.69632 0.76016 0.45472 0.0
C1377 C 0.69014 0.76603 0.47962 0.0
C1378 C 0.72066 0.75361 0.44824 0.0
C1379 C 0.73914 0.75268 0.46656 0.0
C1380 C 0.73353 0.76059 0.4909 0.0
C1381 C 0.70934 0.76742 0.49734 0.0
C1382 C 0.79924 0.71856 0.47487 0.0
C1383 C 0.81488 0.7311 0.45822 0.0
C1384 C 0.77399 0.72424 0.47609 0.0
C1385 C 0.76411 0.74274 0.46094 0.0
C1386 C 0.77918 0.75338 0.44248 0.0
C1387 C 0.80454 0.74765 0.4412 0.0
H1388 H 0.70069 0.54406 0.56198 0.0
H1389 H 0.7549 0.49867 0.59868 0.0
H1390 H 0.71112 0.52468 0.52225 0.0
H1391 H 0.76438 0.47815 0.55924 0.0
H1392 H 0.80351 0.48159 0.48351 0.0
H1393 H 0.78687 0.4897 0.52438 0.0
H1394 H 0.71231 0.49077 0.49406 0.0
H1395 H 0.72939 0.48379 0.45237 0.0
C1396 C 0.7144 0.52946 0.56162 0.0
C1397 C 0.7273 0.52316 0.58332 0.0
C1398 C 0.72026 0.51815 0.53884 0.0
C1399 C 0.73886 0.49999 0.53735 0.0
C1400 C 0.75045 0.49253 0.55948 0.0
C1401 C 0.74498 0.5042 0.58214 0.0
C1402 C 0.78349 0.48317 0.48546 0.0
C1403 C 0.76784 0.48246 0.4645 0.0
C1404 C 0.77385 0.4876 0.50913 0.0
C1405 C 0.74818 0.49116 0.51268 0.0
C1406 C 0.73224 0.48862 0.49197 0.0
C1407 C 0.74198 0.48435 0.46809 0.0
H1408 H 0.74632 0.61302 0.75143 0.0
H1409 H 0.77836 0.54235 0.73139 0.0
H1410 H 0.75487 0.60503 0.79529 0.0
H1411 H 0.78642 0.53428 0.77481 0.0
H1412 H 0.80514 0.52109 0.85014 0.0
H1413 H 0.80923 0.54503 0.81213 0.0
H1414 H 0.73647 0.57616 0.82512 0.0
H1415 H 0.73285 0.553 0.8635 0.0
C1416 C 0.75556 0.59601 0.7563 0.0
C1417 C 0.76144 0.57821 0.7379 0.0
C1418 C 0.76039 0.59142 0.78143 0.0
C1419 C 0.77139 0.56906 0.7886 0.0
C1420 C 0.77836 0.55191 0.77002 0.0
C1421 C 0.77345 0.55641 0.74504 0.0
C1422 C 0.79057 0.53397 0.84546 0.0
C1423 C 0.76851 0.53483 0.85952 0.0
C1424 C 0.79277 0.54748 0.82356 0.0
C1425 C 0.77282 0.56183 0.81517 0.0
C1426 C 0.75219 0.56526 0.83097 0.0
C1427 C 0.75013 0.55197 0.85309 0.0
H1428 H 0.69778 0.49785 0.07612 0.0
H1429 H 0.73421 0.54119 0.01932 0.0
H1430 H 0.66958 0.47997 0.04477 0.0
H1431 H 0.70541 0.52409 0.98833 0.0
H1432 H 0.68327 0.42975 0.96676 0.0
H1433 H 0.68739 0.4508 0.00696 0.0
H1434 H 0.65683 0.51711 0.97561 0.0
H1435 H 0.65177 0.49567 0.93575 0.0
C1436 C 0.6991 0.50439 0.05718 0.0
C1437 C 0.71838 0.52083 0.05015 0.0
C1438 C 0.68297 0.49407 0.03927 0.0
C1439 C 0.68529 0.50066 0.01418 0.0
C1440 C 0.70299 0.51889 0.0076 0.0
C1441 C 0.71954 0.52865 0.02534 0.0
C1442 C 0.67565 0.44818 0.96894 0.0
C1443 C 0.66749 0.46117 0.94797 0.0
C1444 C 0.67828 0.46038 0.99194 0.0
C1445 C 0.67301 0.48579 0.99417 0.0
C1446 C 0.66122 0.49758 0.9743 0.0
C1447 C 0.65801 0.48515 0.95149 0.0
H1448 H 0.77051 0.47082 0.30978 0.0
H1449 H 0.79645 0.54367 0.28853 0.0
H1450 H 0.77461 0.45629 0.26714 0.0
H1451 H 0.80004 0.52913 0.2451 0.0
H1452 H 0.8257 0.4866 0.17474 0.0
H1453 H 0.82549 0.49896 0.21885 0.0
H1454 H 0.75364 0.46323 0.22784 0.0
H1455 H 0.75397 0.45086 0.18427 0.0
C1456 C 0.77659 0.48392 0.29582 0.0
C1457 C 0.78294 0.50847 0.30242 0.0
C1458 C 0.77909 0.47552 0.27139 0.0
C1459 C 0.78772 0.49151 0.25278 0.0
C1460 C 0.79364 0.51629 0.25916 0.0
C1461 C 0.79134 0.5247 0.28387 0.0
C1462 C 0.81032 0.48068 0.18643 0.0
C1463 C 0.78988 0.4677 0.17615 0.0
C1464 C 0.80998 0.48815 0.21151 0.0
C1465 C 0.78939 0.48235 0.2267 0.0
C1466 C 0.7698 0.46795 0.21668 0.0
C1467 C 0.77003 0.46076 0.19173 0.0
H1468 H 0.54941 0.71074 0.74134 0.0
H1469 H 0.54245 0.71311 0.82128 0.0
H1470 H 0.55359 0.75563 0.74069 0.0
H1471 H 0.54866 0.75798 0.82111 0.0
H1472 H 0.49703 0.82328 0.79935 0.0
H1473 H 0.51889 0.78638 0.8108 0.0
H1474 H 0.56875 0.79596 0.74811 0.0
H1475 H 0.54576 0.83291 0.73626 0.0
C1476 C 0.54966 0.72094 0.75884 0.0
C1477 C 0.54474 0.70884 0.78126 0.0
C1478 C 0.55244 0.74669 0.75859 0.0
C1479 C 0.55088 0.76066 0.78087 0.0
C1480 C 0.54911 0.74795 0.80355 0.0
C1481 C 0.5455 0.72231 0.80369 0.0
C1482 C 0.51339 0.8181 0.78871 0.0
C1483 C 0.5194 0.83037 0.76666 0.0
C1484 C 0.52614 0.7969 0.7953 0.0
C1485 C 0.5451 0.78754 0.77981 0.0
C1486 C 0.55369 0.80223 0.75996 0.0
C1487 C 0.54078 0.82356 0.75333 0.0
H1488 H 0.06568 0.07817 0.31875 0.0
H1489 H 0.08926 0.04779 0.24834 0.0
H1490 H 0.09747 0.05419 0.33995 0.0
H1491 H 0.1215 0.02409 0.26913 0.0
H1492 H 0.188 0.99257 0.31022 0.0
H1493 H 0.15951 0.02168 0.29021 0.0
H1494 H 0.10955 0.01589 0.35304 0.0
H1495 H 0.13767 0.9874 0.37256 0.0
C1496 C 0.07707 0.06557 0.3079 0.0
C1497 C 0.07397 0.06392 0.28198 0.0
C1498 C 0.09567 0.05197 0.32 0.0
C1499 C 0.11233 0.03669 0.30652 0.0
C1500 C 0.10932 0.03544 0.28044 0.0
C1501 C 0.09035 0.04862 0.26846 0.0
C1502 C 0.17122 0.99807 0.31993 0.0
C1503 C 0.16524 0.98751 0.34306 0.0
C1504 C 0.15459 0.01455 0.30832 0.0
C1505 C 0.13173 0.02125 0.31967 0.0
C1506 C 0.12677 0.01169 0.34347 0.0
C1507 C 0.14302 0.99506 0.35475 0.0
H1508 H 0.17108 0.81896 0.57303 0.0
H1509 H 0.11076 0.86541 0.55034 0.0
H1510 H 0.19132 0.85428 0.59331 0.0
H1511 H 0.13081 0.9012 0.57102 0.0
H1512 H 0.1947 0.96273 0.57734 0.0
H1513 H 0.16624 0.9288 0.5646 0.0
H1514 H 0.19331 0.88437 0.62497 0.0
H1515 H 0.2219 0.91761 0.6369 0.0
C1516 C 0.16142 0.83651 0.5736 0.0
C1517 C 0.13878 0.83901 0.56083 0.0
C1518 C 0.17321 0.85704 0.58503 0.0
C1519 C 0.16295 0.88101 0.58387 0.0
C1520 C 0.13955 0.88326 0.57222 0.0
C1521 C 0.12765 0.86255 0.56088 0.0
C1522 C 0.1941 0.9459 0.58815 0.0
C1523 C 0.21075 0.94293 0.60807 0.0
C1524 C 0.17778 0.92633 0.58086 0.0
C1525 C 0.17758 0.90336 0.59341 0.0
C1526 C 0.19319 0.90127 0.61428 0.0
C1527 C 0.20954 0.92055 0.62132 0.0
H1528 H 0.44375 0.95411 0.75291 0.0
H1529 H 0.42967 0.89672 0.80634 0.0
H1530 H 0.41381 0.98107 0.77498 0.0
H1531 H 0.39991 0.92289 0.82772 0.0
H1532 H 0.32495 0.96151 0.84033 0.0
H1533 H 0.35739 0.93831 0.81862 0.0
H1534 H 0.40385 1.00397 0.81666 0.0
H1535 H 0.37157 0.02715 0.83905 0.0
C1536 C 0.43475 0.9474 0.76952 0.0
C1537 C 0.43938 0.92306 0.77748 0.0
C1538 C 0.4174 0.96278 0.78219 0.0
C1539 C 0.40382 0.95409 0.80303 0.0
C1540 C 0.40937 0.93021 0.81153 0.0
C1541 C 0.42682 0.91518 0.79921 0.0
C1542 C 0.34205 0.97114 0.83546 0.0
C1543 C 0.34525 0.99648 0.84159 0.0
C1544 C 0.36082 0.95772 0.82292 0.0
C1545 C 0.38351 0.96909 0.81572 0.0
C1546 C 0.38669 0.99447 0.8216 0.0
C1547 C 0.36806 0.0078 0.83458 0.0
H1548 H 0.34214 0.06324 0.1175 0.0
H1549 H 0.29453 0.04437 0.05566 0.0
H1550 H 0.35685 0.09993 0.09588 0.0
H1551 H 0.30852 0.08173 0.03409 0.0
H1552 H 0.35492 0.14082 0.99297 0.0
H1553 H 0.34166 0.10266 0.01317 0.0
H1554 H 0.34394 0.14023 0.08453 0.0
H1555 H 0.3577 0.17831 0.06434 0.0
C1556 C 0.33485 0.06673 0.09911 0.0
C1557 C 0.31682 0.05065 0.08841 0.0
C1558 C 0.3431 0.08814 0.08679 0.0
C1559 C 0.3337 0.09434 0.06324 0.0
C1560 C 0.31637 0.07776 0.05211 0.0
C1561 C 0.30815 0.05629 0.0645 0.0
C1562 C 0.35269 0.14102 0.013 0.0
C1563 C 0.35767 0.16286 0.02693 0.0
C1564 C 0.34487 0.11902 0.02463 0.0
C1565 C 0.34177 0.11801 0.05064 0.0
C1566 C 0.34654 0.13993 0.06455 0.0
C1567 C 0.35435 0.16195 0.05291 0.0
H1568 H 0.116 0.88614 0.23338 0.0
H1569 H 0.0613 0.92374 0.18943 0.0
H1570 H 0.14932 0.90713 0.21118 0.0
H1571 H 0.09497 0.94467 0.16649 0.0
H1572 H 0.15995 1.00083 0.15434 0.0
H1573 H 0.12572 0.97654 0.17139 0.0
H1574 H 0.17334 0.91269 0.17481 0.0
H1575 H 0.20801 0.93735 0.15815 0.0
C1576 C 0.111 0.89852 0.2185 0.0
C1577 C 0.08569 0.90296 0.2132 0.0
C1578 C 0.13033 0.91061 0.20559 0.0
C1579 C 0.12527 0.92785 0.18683 0.0
C1580 C 0.0999 0.93178 0.18092 0.0
C1581 C 0.08043 0.91947 0.19384 0.0
C1582 C 0.16327 0.98155 0.15853 0.0
C1583 C 0.18712 0.97127 0.15475 0.0
C1584 C 0.14335 0.96745 0.16823 0.0
C1585 C 0.14634 0.9424 0.17466 0.0
C1586 C 0.17009 0.93194 0.17049 0.0
C1587 C 0.1901 0.94609 0.1607 0.0
H1588 H 0.28525 0.89652 0.42498 0.0
H1589 H 0.27568 0.83993 0.36836 0.0
H1590 H 0.30939 0.86734 0.44989 0.0
H1591 H 0.29844 0.81088 0.39317 0.0
H1592 H 0.35392 0.76475 0.43668 0.0
H1593 H 0.33435 0.79547 0.41012 0.0
H1594 H 0.30515 0.83262 0.4754 0.0
H1595 H 0.32505 0.802 0.50155 0.0
C1596 C 0.28873 0.87813 0.41753 0.0
C1597 C 0.27828 0.87078 0.39456 0.0
C1598 C 0.30226 0.86111 0.43203 0.0
C1599 C 0.30583 0.83625 0.42396 0.0
C1600 C 0.29661 0.82963 0.40027 0.0
C1601 C 0.28325 0.84648 0.38594 0.0
C1602 C 0.34238 0.77885 0.44521 0.0
C1603 C 0.33983 0.77992 0.47123 0.0
C1604 C 0.33132 0.79682 0.42999 0.0
C1605 C 0.31778 0.81687 0.4403 0.0
C1606 C 0.31531 0.81777 0.46643 0.0
C1607 C 0.32611 0.79965 0.48154 0.0
H1608 H 0.34012 0.06754 0.61829 0.0
H1609 H 0.29899 0.07131 0.68732 0.0
H1610 H 0.37632 0.08595 0.63842 0.0
H1611 H 0.33546 0.09109 0.70728 0.0
H1612 H 0.39768 0.1482 0.72733 0.0
H1613 H 0.36142 0.1292 0.70756 0.0
H1614 H 0.40895 0.07715 0.66938 0.0
H1615 H 0.44563 0.09606 0.68967 0.0
C1616 C 0.3386 0.07246 0.63782 0.0
C1617 C 0.31624 0.06782 0.65105 0.0
C1618 C 0.35968 0.08291 0.64944 0.0
C1619 C 0.35921 0.08983 0.67469 0.0
C1620 C 0.3367 0.08584 0.6879 0.0
C1621 C 0.31567 0.07456 0.67641 0.0
C1622 C 0.40066 0.13284 0.71455 0.0
C1623 C 0.42495 0.1239 0.7101 0.0
C1624 C 0.37962 0.12172 0.70337 0.0
C1625 C 0.38196 0.10149 0.68685 0.0
C1626 C 0.40628 0.09283 0.68183 0.0
C1627 C 0.42743 0.10371 0.69344 0.0
H1628 H 0.12941 0.1512 0.97671 0.0
H1629 H 0.20152 0.17756 1.00132 0.0
H1630 H 0.14879 0.11772 0.95364 0.0
H1631 H 0.22133 0.14364 0.97755 0.0
H1632 H 0.24297 0.06185 0.95273 0.0
H1633 H 0.22615 0.09718 0.97645 0.0
H1634 H 0.17321 0.10926 0.91762 0.0
H1635 H 0.18985 0.07432 0.89452 0.0
C1636 C 0.14955 0.1501 0.97693 0.0
C1637 C 0.16377 0.16741 0.99088 0.0
C1638 C 0.16076 0.13077 0.96352 0.0
C1639 C 0.18677 0.12771 0.9635 0.0
C1640 C 0.20124 0.14518 0.97718 0.0
C1641 C 0.18991 0.16488 0.99056 0.0
C1642 C 0.22769 0.07195 0.94508 0.0
C1643 C 0.21791 0.06481 0.92175 0.0
C1644 C 0.2181 0.09244 0.95854 0.0
C1645 C 0.19815 0.10634 0.94911 0.0
C1646 C 0.18827 0.099 0.92587 0.0
C1647 C 0.19789 0.07871 0.91253 0.0
H1648 H 0.08411 0.28296 0.0876 0.0
H1649 H 0.15672 0.30708 0.11236 0.0
H1650 H 0.06525 0.30386 0.12364 0.0
H1651 H 0.13786 0.32934 0.14737 0.0
H1652 H 0.09278 0.38198 0.1984 0.0
H1653 H 0.1112 0.36329 0.1612 0.0
H1654 H 0.06287 0.29939 0.16915 0.0
H1655 H 0.04446 0.31817 0.20659 0.0
C1656 C 0.09593 0.29385 0.09996 0.0
C1657 C 0.12193 0.2938 0.09664 0.0
C1658 C 0.08512 0.30564 0.12086 0.0
C1659 C 0.09985 0.31854 0.13856 0.0
C1660 C 0.12573 0.3199 0.13418 0.0
C1661 C 0.13659 0.3074 0.11383 0.0
C1662 C 0.08638 0.36371 0.19255 0.0
C1663 C 0.06738 0.35148 0.20597 0.0
C1664 C 0.09692 0.35298 0.17106 0.0
C1665 C 0.0886 0.32977 0.16187 0.0
C1666 C 0.06972 0.31737 0.1754 0.0
C1667 C 0.05941 0.32796 0.1972 0.0
H1668 H 0.53672 0.17858 0.81958 0.0
H1669 H 0.55025 0.1039 0.84348 0.0
H1670 H 0.56086 0.19474 0.85523 0.0
H1671 H 0.57478 0.11992 0.87858 0.0
H1672 H 0.63828 0.1607 0.92379 0.0
H1673 H 0.61503 0.14406 0.88818 0.0
H1674 H 0.5555 0.19501 0.90364 0.0
H1675 H 0.57859 0.21146 0.93958 0.0
C1676 C 0.54545 0.16558 0.83196 0.0
C1677 C 0.54182 0.13986 0.82831 0.0
C1678 C 0.55898 0.17485 0.85267 0.0
C1679 C 0.56971 0.15867 0.87002 0.0
C1680 C 0.56693 0.13298 0.86568 0.0
C1681 C 0.55295 0.12377 0.84541 0.0
C1682 C 0.62004 0.16814 0.91998 0.0
C1683 C 0.61045 0.18752 0.9349 0.0
C1684 C 0.60671 0.15861 0.89938 0.0
C1685 C 0.58346 0.16835 0.89267 0.0
C1686 C 0.57348 0.18722 0.90795 0.0
C1687 C 0.58665 0.19649 0.92885 0.0
H1688 H 0.96795 0.81585 0.29951 0.0
H1689 H 0.94409 0.88689 0.32767 0.0
H1690 H 0.94814 0.79565 0.33545 0.0
H1691 H 0.92469 0.86702 0.36323 0.0
H1692 H 0.91878 0.82344 0.43874 0.0
H1693 H 0.93548 0.8451 0.40212 0.0
H1694 H 0.90632 0.7869 0.35436 0.0
H1695 H 0.88909 0.76595 0.39067 0.0
C1696 C 0.95836 0.82713 0.31314 0.0
C1697 C 0.9576 0.85302 0.31021 0.0
C1698 C 0.94692 0.81559 0.33384 0.0
C1699 C 0.93473 0.82964 0.35256 0.0
C1700 C 0.934 0.85548 0.34955 0.0
C1701 C 0.94501 0.86688 0.32878 0.0
C1702 C 0.9153 0.81569 0.42038 0.0
C1703 C 0.90275 0.79275 0.41781 0.0
C1704 C 0.92511 0.82797 0.39929 0.0
C1705 C 0.92282 0.81756 0.37506 0.0
C1706 C 0.90911 0.7953 0.37256 0.0
C1707 C 0.8991 0.78329 0.39348 0.0
H1708 H 0.91777 0.23342 0.10506 0.0
H1709 H 0.93025 0.18567 0.04137 0.0
H1710 H 0.93703 0.20349 0.13199 0.0
H1711 H 0.94964 0.15513 0.06881 0.0
H1712 H 0.01288 0.12671 0.12173 0.0
H1713 H 0.98778 0.15065 0.09316 0.0
H1714 H 0.93402 0.16349 0.15159 0.0
H1715 H 0.95952 0.13955 0.1804 0.0
C1716 C 0.92439 0.21633 0.09671 0.0
C1717 C 0.92239 0.21221 0.07077 0.0
C1718 C 0.93531 0.19892 0.11239 0.0
C1719 C 0.94493 0.1766 0.10287 0.0
C1720 C 0.94258 0.17211 0.07695 0.0
C1721 C 0.93128 0.18957 0.06115 0.0
C1722 C 0.99542 0.13418 0.12843 0.0
C1723 C 0.98829 0.13102 0.15351 0.0
C1724 C 0.9809 0.1479 0.11189 0.0
C1725 C 0.95873 0.15924 0.11982 0.0
C1726 C 0.95106 0.15531 0.1447 0.0
C1727 C 0.96554 0.1413 0.16125 0.0
H1728 H 0.45455 0.70136 0.73605 0.0
H1729 H 0.43422 0.62789 0.70997 0.0
H1730 H 0.43114 0.71904 0.70107 0.0
H1731 H 0.41177 0.64529 0.67539 0.0
H1732 H 0.40426 0.6846 0.59876 0.0
H1733 H 0.42297 0.66696 0.63617 0.0
H1734 H 0.38772 0.72301 0.68153 0.0
H1735 H 0.36919 0.74064 0.64421 0.0
C1736 C 0.4448 0.68898 0.7233 0.0
C1737 C 0.44659 0.6631 0.72605 0.0
C1738 C 0.43147 0.69909 0.70305 0.0
C1739 C 0.41984 0.68359 0.68492 0.0
C1740 C 0.42084 0.65789 0.68844 0.0
C1741 C 0.43373 0.64791 0.70857 0.0
C1742 C 0.39994 0.69275 0.61675 0.0
C1743 C 0.38499 0.71397 0.6183 0.0
C1744 C 0.41087 0.68279 0.63829 0.0
C1745 C 0.40722 0.69372 0.66207 0.0
C1746 C 0.39136 0.71426 0.66367 0.0
C1747 C 0.38047 0.7242 0.64219 0.0
H1748 H 0.06936 0.69138 0.46819 0.0
H1749 H 0.05498 0.75922 0.42969 0.0
H1750 H 0.04651 0.66797 0.43589 0.0
H1751 H 0.0325 0.73617 0.39731 0.0
H1752 H 0.0136 0.68786 0.3295 0.0
H1753 H 0.03787 0.70883 0.36233 0.0
H1754 H 0.00754 0.65817 0.4164 0.0
H1755 H 0.98359 0.63733 0.38374 0.0
C1756 C 0.06055 0.70144 0.45333 0.0
C1757 C 0.06353 0.72737 0.45205 0.0
C1758 C 0.04769 0.68796 0.43445 0.0
C1759 C 0.03782 0.69989 0.41336 0.0
C1760 C 0.04022 0.72596 0.41266 0.0
C1761 C 0.05276 0.73936 0.43161 0.0
C1762 C 0.01251 0.68084 0.34828 0.0
C1763 C 0.99654 0.66067 0.35367 0.0
C1764 C 0.02627 0.6931 0.36732 0.0
C1765 C 0.0248 0.6855 0.39245 0.0
C1766 C 0.00963 0.66464 0.39751 0.0
C1767 C 0.99567 0.65266 0.37861 0.0
H1768 H 0.45356 0.27889 0.97215 0.0
H1769 H 0.39419 0.33214 0.96963 0.0
H1770 H 0.47465 0.30018 0.93786 0.0
H1771 H 0.41504 0.35315 0.93552 0.0
H1772 H 0.47386 0.40111 0.89588 0.0
H1773 H 0.4516 0.37846 0.92795 0.0
H1774 H 0.47063 0.30925 0.8919 0.0
H1775 H 0.49319 0.33233 0.85937 0.0
C1776 C 0.44514 0.2953 0.9646 0.0
C1777 C 0.42214 0.30377 0.97399 0.0
C1778 C 0.45709 0.30734 0.94464 0.0
C1779 C 0.44655 0.32839 0.93366 0.0
C1780 C 0.4239 0.33714 0.94348 0.0
C1781 C 0.41192 0.32507 0.96324 0.0
C1782 C 0.47292 0.38106 0.89442 0.0
C1783 C 0.48525 0.36862 0.87487 0.0
C1784 C 0.46012 0.368 0.91292 0.0
C1785 C 0.45934 0.34193 0.91278 0.0
C1786 C 0.47106 0.32932 0.89282 0.0
C1787 C 0.4837 0.34254 0.87395 0.0
H1788 H 0.62638 0.51148 0.90418 0.0
H1789 H 0.67748 0.56325 0.87059 0.0
H1790 H 0.59159 0.5387 0.89497 0.0
H1791 H 0.64274 0.59051 0.86092 0.0
H1792 H 0.53427 0.57708 0.84127 0.0
H1793 H 0.56715 0.55176 0.85966 0.0
H1794 H 0.61074 0.618 0.87444 0.0
H1795 H 0.57828 0.6429 0.85583 0.0
C1796 C 0.63041 0.52931 0.89596 0.0
C1797 C 0.6551 0.53558 0.88925 0.0
C1798 C 0.61023 0.54473 0.89002 0.0
C1799 C 0.61393 0.56705 0.87703 0.0
C1800 C 0.63884 0.57382 0.87129 0.0
C1801 C 0.659 0.55829 0.87713 0.0
C1802 C 0.55041 0.5863 0.84935 0.0
C1803 C 0.55321 0.61223 0.84738 0.0
C1804 C 0.56954 0.57173 0.85974 0.0
C1805 C 0.59211 0.5826 0.86845 0.0
C1806 C 0.59412 0.60865 0.86763 0.0
C1807 C 0.57516 0.62308 0.85727 0.0
H1808 H 0.69991 0.44625 0.0639 0.0
H1809 H 0.75774 0.39639 0.0865 0.0
H1810 H 0.6784 0.41167 0.04264 0.0
H1811 H 0.73668 0.36226 0.06524 0.0
H1812 H 0.68494 0.29938 0.04043 0.0
H1813 H 0.70228 0.3341 0.06467 0.0
H1814 H 0.6813 0.3846 0.0068 0.0
H1815 H 0.66365 0.35007 0.98286 0.0
C1816 C 0.70795 0.42796 0.06461 0.0
C1817 C 0.73067 0.42439 0.07711 0.0
C1818 C 0.6957 0.40804 0.05218 0.0
C1819 C 0.70564 0.38383 0.05205 0.0
C1820 C 0.72805 0.3803 0.06505 0.0
C1821 C 0.74031 0.40013 0.07723 0.0
C1822 C 0.68379 0.31789 0.03293 0.0
C1823 C 0.67276 0.32162 0.00952 0.0
C1824 C 0.69396 0.33793 0.04681 0.0
C1825 C 0.69341 0.36249 0.03786 0.0
C1826 C 0.68193 0.36622 0.01467 0.0
C1827 C 0.67188 0.34621 1.00076 0.0
H1828 H 0.80339 0.43639 0.32391 0.0
H1829 H 0.84892 0.43031 0.38955 0.0
H1830 H 0.83731 0.41967 0.29873 0.0
H1831 H 0.88319 0.41572 0.36463 0.0
H1832 H 0.94034 0.37547 0.31799 0.0
H1833 H 0.90447 0.38766 0.34294 0.0
H1834 H 0.87412 0.42565 0.27948 0.0
H1835 H 0.90901 0.4116 0.25439 0.0
C1836 C 0.82054 0.43135 0.33304 0.0
C1837 C 0.82311 0.43472 0.35891 0.0
C1838 C 0.84038 0.42209 0.31849 0.0
C1839 C 0.86369 0.41631 0.32923 0.0
C1840 C 0.86582 0.41925 0.35524 0.0
C1841 C 0.84591 0.42789 0.36975 0.0
C1842 C 0.92597 0.38645 0.30945 0.0
C1843 C 0.92763 0.39244 0.28414 0.0
C1844 C 0.90523 0.39369 0.32384 0.0
C1845 C 0.88575 0.40787 0.3136 0.0
C1846 C 0.88794 0.41426 0.28829 0.0
C1847 C 0.90828 0.40641 0.2738 0.0
H1848 H 0.81113 0.63711 0.66214 0.0
H1849 H 0.7914 0.60002 0.59353 0.0
H1850 H 0.83469 0.66831 0.63918 0.0
H1851 H 0.81487 0.63167 0.57017 0.0
H1852 H 0.83059 0.71098 0.53759 0.0
H1853 H 0.81021 0.67721 0.56048 0.0
H1854 H 0.87102 0.6772 0.61269 0.0
H1855 H 0.89161 0.71039 0.58952 0.0
C1856 C 0.81266 0.63501 0.64212 0.0
C1857 C 0.79971 0.61554 0.62986 0.0
C1858 C 0.82598 0.6532 0.62883 0.0
C1859 C 0.82653 0.653 0.60263 0.0
C1860 C 0.81465 0.63281 0.5903 0.0
C1861 C 0.80158 0.61428 0.60373 0.0
C1862 C 0.83927 0.7043 0.55438 0.0
C1863 C 0.86255 0.71407 0.56198 0.0
C1864 C 0.82776 0.68452 0.5673 0.0
C1865 C 0.83882 0.67415 0.58856 0.0
C1866 C 0.86168 0.68458 0.59659 0.0
C1867 C 0.87345 0.70389 0.58338 0.0
H1868 H 0.63856 0.5242 0.66771 0.0
H1869 H 0.70059 0.49477 0.70836 0.0
H1870 H 0.61026 0.49663 0.689 0.0
H1871 H 0.67187 0.46697 0.73029 0.0
H1872 H 0.61807 0.40716 0.75637 0.0
H1873 H 0.64627 0.43327 0.73301 0.0
H1874 H 0.58731 0.48595 0.72274 0.0
H1875 H 0.55875 0.45928 0.74596 0.0
C1876 C 0.64635 0.51187 0.68134 0.0
C1877 C 0.67229 0.51211 0.68612 0.0
C1878 C 0.62976 0.49596 0.69392 0.0
C1879 C 0.63812 0.47934 0.71204 0.0
C1880 C 0.66421 0.47918 0.71653 0.0
C1881 C 0.68094 0.49528 0.7039 0.0
C1882 C 0.61084 0.42425 0.74902 0.0
C1883 C 0.58573 0.43084 0.75335 0.0
C1884 C 0.6274 0.43961 0.7357 0.0
C1885 C 0.61979 0.46245 0.72593 0.0
C1886 C 0.59441 0.46873 0.72965 0.0
C1887 C 0.57773 0.45327 0.74306 0.0
H1888 H 0.81887 0.31576 0.99252 0.0
H1889 H 0.86754 0.32108 0.9291 0.0
H1890 H 0.79283 0.34875 0.97565 0.0
H1891 H 0.84282 0.35442 0.91274 0.0
H1892 H 0.78912 0.40469 0.87788 0.0
H1893 H 0.80814 0.36824 0.89404 0.0
H1894 H 0.7896 0.39171 0.96882 0.0
H1895 H 0.76928 0.42867 0.95217 0.0
C1896 C 0.82338 0.32325 0.97442 0.0
C1897 C 0.84468 0.31495 0.96159 0.0
C1898 C 0.80883 0.34271 0.96501 0.0
C1899 C 0.8154 0.35469 0.94263 0.0
C1900 C 0.83636 0.34562 0.92959 0.0
C1901 C 0.85064 0.32617 0.93888 0.0
C1902 C 0.78911 0.4025 0.89788 0.0
C1903 C 0.77773 0.42023 0.91361 0.0
C1904 C 0.80041 0.38134 0.90728 0.0
C1905 C 0.80139 0.37691 0.93299 0.0
C1906 C 0.78972 0.39442 0.94893 0.0
C1907 C 0.7782 0.41586 0.9394 0.0
H1908 H 0.80242 0.53253 0.17746 0.0
H1909 H 0.81395 0.58473 0.11829 0.0
H1910 H 0.83741 0.55148 0.20051 0.0
H1911 H 0.84848 0.60363 0.14116 0.0
H1912 H 0.91683 0.57951 0.22564 0.0
H1913 H 0.88431 0.55821 0.2008 0.0
H1914 H 0.85678 0.62904 0.17746 0.0
H1915 H 0.88877 0.65003 0.20183 0.0
C1916 C 0.81219 0.54813 0.16938 0.0
C1917 C 0.8049 0.55701 0.14588 0.0
C1918 C 0.83254 0.55892 0.18256 0.0
C1919 C 0.84616 0.57924 0.17287 0.0
C1920 C 0.83857 0.58826 0.14956 0.0
C1921 C 0.81851 0.57735 0.13635 0.0
C1922 C 0.90429 0.59053 0.21467 0.0
C1923 C 0.90578 0.6167 0.21598 0.0
C1924 C 0.88526 0.57828 0.2007 0.0
C1925 C 0.86744 0.59175 0.18712 0.0
C1926 C 0.86994 0.61779 0.18742 0.0
C1927 C 0.88856 0.62994 0.20153 0.0
H1928 H 0.68664 0.69433 0.42818 0.0
H1929 H 0.62602 0.64209 0.43515 0.0
H1930 H 0.7123 0.66213 0.40929 0.0
H1931 H 0.65171 0.6094 0.41834 0.0
H1932 H 0.70199 0.55001 0.3861 0.0
H1933 H 0.67382 0.5845 0.39383 0.0
H1934 H 0.73646 0.63003 0.41763 0.0
H1935 H 0.76427 0.59621 0.40809 0.0
C1936 C 0.67835 0.67622 0.4246 0.0
C1937 C 0.65386 0.6712 0.43256 0.0
C1938 C 0.69344 0.65723 0.41454 0.0
C1939 C 0.68485 0.63227 0.41277 0.0
C1940 C 0.6596 0.62792 0.41895 0.0
C1941 C 0.64446 0.64699 0.42842 0.0
C1942 C 0.70965 0.56743 0.393 0.0
C1943 C 0.73553 0.57012 0.39642 0.0
C1944 C 0.69341 0.58748 0.39759 0.0
C1945 C 0.70233 0.61085 0.40641 0.0
C1946 C 0.72831 0.6131 0.4102 0.0
C1947 C 0.7445 0.59333 0.40501 0.0
H1948 H 0.48573 0.8549 0.61398 0.0
H1949 H 0.53918 0.83071 0.66805 0.0
H1950 H 0.5087 0.83345 0.58097 0.0
H1951 H 0.56207 0.80901 0.63501 0.0
H1952 H 0.58124 0.74929 0.57817 0.0
H1953 H 0.55723 0.77266 0.60841 0.0
H1954 H 0.54752 0.83089 0.55509 0.0
H1955 H 0.5722 0.8071 0.52429 0.0
C1956 C 0.50253 0.84519 0.61892 0.0
C1957 C 0.51043 0.84477 0.64403 0.0
C1958 C 0.51584 0.83288 0.59978 0.0
C1959 C 0.53734 0.81912 0.60496 0.0
C1960 C 0.54547 0.81902 0.63003 0.0
C1961 C 0.53241 0.83172 0.64913 0.0
C1962 C 0.57384 0.76698 0.57255 0.0
C1963 C 0.57894 0.7761 0.54847 0.0
C1964 C 0.56017 0.78062 0.59022 0.0
C1965 C 0.55071 0.80416 0.58479 0.0
C1966 C 0.55451 0.8129 0.56023 0.0
C1967 C 0.56852 0.79914 0.54236 0.0
loop_
_geom_bond_atom_site_label_1
_geom_bond_atom_site_label_2
_geom_bond_distance
_geom_bond_site_symmetry_2
_ccdc_geom_bond_type
Sc0 O3 2.025 . S
Sc0 O10 2.105 . S
Sc0 O13 2.105 . S
Sc0 O16 2.105 . S
Sc0 O19 2.105 . S
Sc1 O3 2.025 . S
Sc1 O11 2.105 . S
Sc1 O15 2.105 1_455 S
Sc1 O17 2.105 . S
Sc1 O21 2.105 1_455 S
Sc2 O3 2.025 1_655 S
Sc2 O12 2.105 . S
Sc2 O14 2.105 . S
Sc2 O18 2.105 . S
Sc2 O20 2.105 1_655 S
O3 Sc0 2.025 . S
O3 Sc1 2.025 . S
O3 Sc2 2.025 1_455 S
C4 O10 1.268 . S
C4 O20 1.268 . S
C5 O11 1.268 . S
C5 O19 1.268 . S
C6 O12 1.268 . S
C6 O21 1.268 . S
C7 O13 1.268 . S
C7 O17 1.268 . S
C8 O14 1.268 1_455 S
C8 O16 1.268 . S
C9 O15 1.268 . S
C9 O18 1.268 . S
O10 Sc0 2.105 . S
O10 C4 1.268 . S
O11 Sc1 2.105 . S
O11 C5 1.268 . S
O12 Sc2 2.105 . S
O12 C6 1.268 . S
O13 Sc0 2.105 . S
O13 C7 1.268 . S
O14 Sc2 2.105 . S
O14 C8 1.268 1_655 S
O15 Sc1 2.105 1_655 S
O15 C9 1.268 . S
O16 Sc0 2.105 . S
O16 C8 1.268 . S
O17 Sc1 2.105 . S
O17 C7 1.268 . S
O18 Sc2 2.105 . S
O18 C9 1.268 . S
O19 Sc0 2.105 . S
O19 C5 1.268 . S
O20 Sc2 2.105 1_455 S
O20 C4 1.268 . S
O21 Sc1 2.105 1_655 S
O21 C6 1.268 . S
Sc22 O25 2.025 . S
Sc22 O32 2.105 . S
Sc22 O35 2.105 . S
Sc22 O38 2.105 . S
Sc22 O41 2.105 . S
Sc23 O25 2.025 . S
Sc23 O33 2.105 . S
Sc23 O37 2.105 . S
Sc23 O39 2.105 . S
Sc23 O43 2.105 . S
Sc24 O25 2.025 . S
Sc24 O34 2.105 . S
Sc24 O36 2.105 . S
Sc24 O40 2.105 . S
Sc24 O42 2.105 . S
O25 Sc22 2.025 . S
O25 Sc23 2.025 . S
O25 Sc24 2.025 . S
C26 O32 1.268 . S
C26 O42 1.268 . S
C27 O33 1.268 . S
C27 O41 1.268 . S
C28 O34 1.268 . S
C28 O43 1.268 . S
C29 O35 1.268 . S
C29 O39 1.268 . S
C30 O36 1.268 . S
C30 O38 1.268 . S
C31 O37 1.268 . S
C31 O40 1.268 . S
O32 Sc22 2.105 . S
O32 C26 1.268 . S
O33 Sc23 2.105 . S
O33 C27 1.268 . S
O34 Sc24 2.105 . S
O34 C28 1.268 . S
O35 Sc22 2.105 . S
O35 C29 1.268 . S
O36 Sc24 2.105 . S
O36 C30 1.268 . S
O37 Sc23 2.105 . S
O37 C31 1.268 . S
O38 Sc22 2.105 . S
O38 C30 1.268 . S
O39 Sc23 2.105 . S
O39 C29 1.268 . S
O40 Sc24 2.105 . S
O40 C31 1.268 . S
O41 Sc22 2.105 . S
O41 C27 1.268 . S
O42 Sc24 2.105 . S
O42 C26 1.268 . S
O43 Sc23 2.105 . S
O43 C28 1.268 . S
Sc44 O47 2.025 . S
Sc44 O54 2.105 . S
Sc44 O57 2.105 . S
Sc44 O60 2.105 . S
Sc44 O63 2.105 . S
Sc45 O47 2.025 . S
Sc45 O55 2.105 . S
Sc45 O59 2.105 . S
Sc45 O61 2.105 . S
Sc45 O65 2.105 . S
Sc46 O47 2.025 . S
Sc46 O56 2.105 . S
Sc46 O58 2.105 . S
Sc46 O62 2.105 . S
Sc46 O64 2.105 . S
O47 Sc44 2.025 . S
O47 Sc45 2.025 . S
O47 Sc46 2.025 . S
C48 O54 1.268 . S
C48 O64 1.268 . S
C49 O55 1.268 . S
C49 O63 1.268 . S
C50 O56 1.268 . S
C50 O65 1.268 . S
C51 O57 1.268 . S
C51 O61 1.268 . S
C52 O58 1.268 . S
C52 O60 1.268 . S
C53 O59 1.268 . S
C53 O62 1.268 . S
O54 Sc44 2.105 . S
O54 C48 1.268 . S
O55 Sc45 2.105 . S
O55 C49 1.268 . S
O56 Sc46 2.105 . S
O56 C50 1.268 . S
O57 Sc44 2.105 . S
O57 C51 1.268 . S
O58 Sc46 2.105 . S
O58 C52 1.268 . S
O59 Sc45 2.105 . S
O59 C53 1.268 . S
O60 Sc44 2.105 . S
O60 C52 1.268 . S
O61 Sc45 2.105 . S
O61 C51 1.268 . S
O62 Sc46 2.105 . S
O62 C53 1.268 . S
O63 Sc44 2.105 . S
O63 C49 1.268 . S
O64 Sc46 2.105 . S
O64 C48 1.268 . S
O65 Sc45 2.105 . S
O65 C50 1.268 . S
Sc66 O69 2.025 1_554 S
Sc66 O76 2.105 . S
Sc66 O79 2.105 . S
Sc66 O82 2.105 . S
Sc66 O85 2.105 1_554 S
Sc67 O69 2.025 . S
Sc67 O77 2.105 . S
Sc67 O81 2.105 . S
Sc67 O83 2.105 . S
Sc67 O87 2.105 . S
Sc68 O69 2.025 . S
Sc68 O78 2.105 . S
Sc68 O80 2.105 1_556 S
Sc68 O84 2.105 . S
Sc68 O86 2.105 1_556 S
O69 Sc66 2.025 1_556 S
O69 Sc67 2.025 . S
O69 Sc68 2.025 . S
C70 O76 1.268 . S
C70 O86 1.268 . S
C71 O77 1.268 . S
C71 O85 1.268 . S
C72 O78 1.268 . S
C72 O87 1.268 . S
C73 O79 1.268 1_556 S
C73 O83 1.268 . S
C74 O80 1.268 . S
C74 O82 1.268 . S
C75 O81 1.268 . S
C75 O84 1.268 . S
O76 Sc66 2.105 . S
O76 C70 1.268 . S
O77 Sc67 2.105 . S
O77 C71 1.268 . S
O78 Sc68 2.105 . S
O78 C72 1.268 . S
O79 Sc66 2.105 . S
O79 C73 1.268 1_554 S
O80 Sc68 2.105 1_554 S
O80 C74 1.268 . S
O81 Sc67 2.105 . S
O81 C75 1.268 . S
O82 Sc66 2.105 . S
O82 C74 1.268 . S
O83 Sc67 2.105 . S
O83 C73 1.268 . S
O84 Sc68 2.105 . S
O84 C75 1.268 . S
O85 Sc66 2.105 1_556 S
O85 C71 1.268 . S
O86 Sc68 2.105 1_554 S
O86 C70 1.268 . S
O87 Sc67 2.105 . S
O87 C72 1.268 . S
Sc88 O91 2.025 . S
Sc88 O98 2.105 . S
Sc88 O101 2.105 . S
Sc88 O104 2.105 . S
Sc88 O107 2.105 . S
Sc89 O91 2.025 . S
Sc89 O99 2.105 . S
Sc89 O103 2.105 1_455 S
Sc89 O105 2.105 . S
Sc89 O109 2.105 1_455 S
Sc90 O91 2.025 1_655 S
Sc90 O100 2.105 . S
Sc90 O102 2.105 . S
Sc90 O106 2.105 . S
Sc90 O108 2.105 1_655 S
O91 Sc88 2.025 . S
O91 Sc89 2.025 . S
O91 Sc90 2.025 1_455 S
C92 O98 1.268 . S
C92 O108 1.268 . S
C93 O99 1.268 . S
C93 O107 1.268 . S
C94 O100 1.268 . S
C94 O109 1.268 . S
C95 O101 1.268 . S
C95 O105 1.268 . S
C96 O102 1.268 1_455 S
C96 O104 1.268 . S
C97 O103 1.268 . S
C97 O106 1.268 . S
O98 Sc88 2.105 . S
O98 C92 1.268 . S
O99 Sc89 2.105 . S
O99 C93 1.268 . S
O100 Sc90 2.105 . S
O100 C94 1.268 . S
O101 Sc88 2.105 . S
O101 C95 1.268 . S
O102 Sc90 2.105 . S
O102 C96 1.268 1_655 S
O103 Sc89 2.105 1_655 S
O103 C97 1.268 . S
O104 Sc88 2.105 . S
O104 C96 1.268 . S
O105 Sc89 2.105 . S
O105 C95 1.268 . S
O106 Sc90 2.105 . S
O106 C97 1.268 . S
O107 Sc88 2.105 . S
O107 C93 1.268 . S
O108 Sc90 2.105 1_455 S
O108 C92 1.268 . S
O109 Sc89 2.105 1_655 S
O109 C94 1.268 . S
Sc110 O113 2.025 . S
Sc110 O120 2.105 . S
Sc110 O123 2.105 . S
Sc110 O126 2.105 . S
Sc110 O129 2.105 . S
Sc111 O113 2.025 . S
Sc111 O121 2.105 . S
Sc111 O125 2.105 . S
Sc111 O127 2.105 . S
Sc111 O131 2.105 . S
Sc112 O113 2.025 . S
Sc112 O122 2.105 . S
Sc112 O124 2.105 . S
Sc112 O128 2.105 . S
Sc112 O130 2.105 . S
O113 Sc110 2.025 . S
O113 Sc111 2.025 . S
O113 Sc112 2.025 . S
C114 O120 1.268 . S
C114 O130 1.268 . S
C115 O121 1.268 . S
C115 O129 1.268 . S
C116 O122 1.268 . S
C116 O131 1.268 . S
C117 O123 1.268 . S
C117 O127 1.268 . S
C118 O124 1.268 . S
C118 O126 1.268 . S
C119 O125 1.268 . S
C119 O128 1.268 . S
O120 Sc110 2.105 . S
O120 C114 1.268 . S
O121 Sc111 2.105 . S
O121 C115 1.268 . S
O122 Sc112 2.105 . S
O122 C116 1.268 . S
O123 Sc110 2.105 . S
O123 C117 1.268 . S
O124 Sc112 2.105 . S
O124 C118 1.268 . S
O125 Sc111 2.105 . S
O125 C119 1.268 . S
O126 Sc110 2.105 . S
O126 C118 1.268 . S
O127 Sc111 2.105 . S
O127 C117 1.268 . S
O128 Sc112 2.105 . S
O128 C119 1.268 . S
O129 Sc110 2.105 . S
O129 C115 1.268 . S
O130 Sc112 2.105 . S
O130 C114 1.268 . S
O131 Sc111 2.105 . S
O131 C116 1.268 . S
Sc132 O135 2.025 . S
Sc132 O142 2.105 . S
Sc132 O145 2.105 . S
Sc132 O148 2.105 . S
Sc132 O151 2.105 . S
Sc133 O135 2.025 . S
Sc133 O143 2.105 . S
Sc133 O147 2.105 . S
Sc133 O149 2.105 . S
Sc133 O153 2.105 . S
Sc134 O135 2.025 . S
Sc134 O144 2.105 . S
Sc134 O146 2.105 . S
Sc134 O150 2.105 . S
Sc134 O152 2.105 . S
O135 Sc132 2.025 . S
O135 Sc133 2.025 . S
O135 Sc134 2.025 . S
C136 O142 1.268 . S
C136 O152 1.268 . S
C137 O143 1.268 . S
C137 O151 1.268 . S
C138 O144 1.268 . S
C138 O153 1.268 . S
C139 O145 1.268 . S
C139 O149 1.268 . S
C140 O146 1.268 . S
C140 O148 1.268 . S
C141 O147 1.268 . S
C141 O150 1.268 . S
O142 Sc132 2.105 . S
O142 C136 1.268 . S
O143 Sc133 2.105 . S
O143 C137 1.268 . S
O144 Sc134 2.105 . S
O144 C138 1.268 . S
O145 Sc132 2.105 . S
O145 C139 1.268 . S
O146 Sc134 2.105 . S
O146 C140 1.268 . S
O147 Sc133 2.105 . S
O147 C141 1.268 . S
O148 Sc132 2.105 . S
O148 C140 1.268 . S
O149 Sc133 2.105 . S
O149 C139 1.268 . S
O150 Sc134 2.105 . S
O150 C141 1.268 . S
O151 Sc132 2.105 . S
O151 C137 1.268 . S
O152 Sc134 2.105 . S
O152 C136 1.268 . S
O153 Sc133 2.105 . S
O153 C138 1.268 . S
Sc154 O157 2.025 . S
Sc154 O164 2.105 . S
Sc154 O167 2.105 . S
Sc154 O170 2.105 . S
Sc154 O173 2.105 . S
Sc155 O157 2.025 . S
Sc155 O165 2.105 . S
Sc155 O169 2.105 1_554 S
Sc155 O171 2.105 . S
Sc155 O175 2.105 1_554 S
Sc156 O157 2.025 1_556 S
Sc156 O166 2.105 . S
Sc156 O168 2.105 . S
Sc156 O172 2.105 . S
Sc156 O174 2.105 1_556 S
O157 Sc154 2.025 . S
O157 Sc155 2.025 . S
O157 Sc156 2.025 1_554 S
C158 O164 1.268 . S
C158 O174 1.268 . S
C159 O165 1.268 . S
C159 O173 1.268 . S
C160 O166 1.268 . S
C160 O175 1.268 . S
C161 O167 1.268 . S
C161 O171 1.268 . S
C162 O168 1.268 1_554 S
C162 O170 1.268 . S
C163 O169 1.268 . S
C163 O172 1.268 . S
O164 Sc154 2.105 . S
O164 C158 1.268 . S
O165 Sc155 2.105 . S
O165 C159 1.268 . S
O166 Sc156 2.105 . S
O166 C160 1.268 . S
O167 Sc154 2.105 . S
O167 C161 1.268 . S
O168 Sc156 2.105 . S
O168 C162 1.268 1_556 S
O169 Sc155 2.105 1_556 S
O169 C163 1.268 . S
O170 Sc154 2.105 . S
O170 C162 1.268 . S
O171 Sc155 2.105 . S
O171 C161 1.268 . S
O172 Sc156 2.105 . S
O172 C163 1.268 . S
O173 Sc154 2.105 . S
O173 C159 1.268 . S
O174 Sc156 2.105 1_554 S
O174 C158 1.268 . S
O175 Sc155 2.105 1_556 S
O175 C160 1.268 . S
Sc176 O179 2.025 . S
Sc176 O186 2.105 . S
Sc176 O189 2.105 . S
Sc176 O192 2.105 . S
Sc176 O195 2.105 . S
Sc177 O179 2.025 . S
Sc177 O187 2.105 . S
Sc177 O191 2.105 1_545 S
Sc177 O193 2.105 . S
Sc177 O197 2.105 1_545 S
Sc178 O179 2.025 1_565 S
Sc178 O188 2.105 . S
Sc178 O190 2.105 . S
Sc178 O194 2.105 . S
Sc178 O196 2.105 1_565 S
O179 Sc176 2.025 . S
O179 Sc177 2.025 . S
O179 Sc178 2.025 1_545 S
C180 O186 1.268 . S
C180 O196 1.268 . S
C181 O187 1.268 . S
C181 O195 1.268 . S
C182 O188 1.268 . S
C182 O197 1.268 . S
C183 O189 1.268 . S
C183 O193 1.268 . S
C184 O190 1.268 1_545 S
C184 O192 1.268 . S
C185 O191 1.268 . S
C185 O194 1.268 . S
O186 Sc176 2.105 . S
O186 C180 1.268 . S
O187 Sc177 2.105 . S
O187 C181 1.268 . S
O188 Sc178 2.105 . S
O188 C182 1.268 . S
O189 Sc176 2.105 . S
O189 C183 1.268 . S
O190 Sc178 2.105 . S
O190 C184 1.268 1_565 S
O191 Sc177 2.105 1_565 S
O191 C185 1.268 . S
O192 Sc176 2.105 . S
O192 C184 1.268 . S
O193 Sc177 2.105 . S
O193 C183 1.268 . S
O194 Sc178 2.105 . S
O194 C185 1.268 . S
O195 Sc176 2.105 . S
O195 C181 1.268 . S
O196 Sc178 2.105 1_545 S
O196 C180 1.268 . S
O197 Sc177 2.105 1_565 S
O197 C182 1.268 . S
Sc198 O201 2.025 . S
Sc198 O208 2.105 1_565 S
Sc198 O211 2.105 . S
Sc198 O214 2.105 1_565 S
Sc198 O217 2.105 . S
Sc199 O201 2.025 . S
Sc199 O209 2.105 . S
Sc199 O213 2.105 . S
Sc199 O215 2.105 . S
Sc199 O219 2.105 . S
Sc200 O201 2.025 1_545 S
Sc200 O210 2.105 . S
Sc200 O212 2.105 . S
Sc200 O216 2.105 1_545 S
Sc200 O218 2.105 . S
O201 Sc198 2.025 . S
O201 Sc199 2.025 . S
O201 Sc200 2.025 1_565 S
C202 O208 1.268 . S
C202 O218 1.268 . S
C203 O209 1.268 . S
C203 O217 1.268 . S
C204 O210 1.268 1_565 S
C204 O219 1.268 . S
C205 O211 1.268 . S
C205 O215 1.268 . S
C206 O212 1.268 . S
C206 O214 1.268 . S
C207 O213 1.268 . S
C207 O216 1.268 . S
O208 Sc198 2.105 1_545 S
O208 C202 1.268 . S
O209 Sc199 2.105 . S
O209 C203 1.268 . S
O210 Sc200 2.105 . S
O210 C204 1.268 1_545 S
O211 Sc198 2.105 . S
O211 C205 1.268 . S
O212 Sc200 2.105 . S
O212 C206 1.268 . S
O213 Sc199 2.105 . S
O213 C207 1.268 . S
O214 Sc198 2.105 1_545 S
O214 C206 1.268 . S
O215 Sc199 2.105 . S
O215 C205 1.268 . S
O216 Sc200 2.105 1_565 S
O216 C207 1.268 . S
O217 Sc198 2.105 . S
O217 C203 1.268 . S
O218 Sc200 2.105 . S
O218 C202 1.268 . S
O219 Sc199 2.105 . S
O219 C204 1.268 . S
Sc220 O223 2.025 . S
Sc220 O230 2.105 . S
Sc220 O233 2.105 . S
Sc220 O236 2.105 . S
Sc220 O239 2.105 . S
Sc221 O223 2.025 . S
Sc221 O231 2.105 . S
Sc221 O235 2.105 1_565 S
Sc221 O237 2.105 . S
Sc221 O241 2.105 1_565 S
Sc222 O223 2.025 1_545 S
Sc222 O232 2.105 . S
Sc222 O234 2.105 . S
Sc222 O238 2.105 . S
Sc222 O240 2.105 1_545 S
O223 Sc220 2.025 . S
O223 Sc221 2.025 . S
O223 Sc222 2.025 1_565 S
C224 O230 1.268 . S
C224 O240 1.268 . S
C225 O231 1.268 . S
C225 O239 1.268 . S
C226 O232 1.268 . S
C226 O241 1.268 . S
C227 O233 1.268 . S
C227 O237 1.268 . S
C228 O234 1.268 1_565 S
C228 O236 1.268 . S
C229 O235 1.268 . S
C229 O238 1.268 . S
O230 Sc220 2.105 . S
O230 C224 1.268 . S
O231 Sc221 2.105 . S
O231 C225 1.268 . S
O232 Sc222 2.105 . S
O232 C226 1.268 . S
O233 Sc220 2.105 . S
O233 C227 1.268 . S
O234 Sc222 2.105 . S
O234 C228 1.268 1_545 S
O235 Sc221 2.105 1_545 S
O235 C229 1.268 . S
O236 Sc220 2.105 . S
O236 C228 1.268 . S
O237 Sc221 2.105 . S
O237 C227 1.268 . S
O238 Sc222 2.105 . S
O238 C229 1.268 . S
O239 Sc220 2.105 . S
O239 C225 1.268 . S
O240 Sc222 2.105 1_565 S
O240 C224 1.268 . S
O241 Sc221 2.105 1_545 S
O241 C226 1.268 . S
Sc242 O245 2.025 1_565 S
Sc242 O252 2.105 . S
Sc242 O255 2.105 . S
Sc242 O258 2.105 1_565 S
Sc242 O261 2.105 . S
Sc243 O245 2.025 . S
Sc243 O253 2.105 1_545 S
Sc243 O257 2.105 . S
Sc243 O259 2.105 1_545 S
Sc243 O263 2.105 . S
Sc244 O245 2.025 . S
Sc244 O254 2.105 . S
Sc244 O256 2.105 . S
Sc244 O260 2.105 . S
Sc244 O262 2.105 . S
O245 Sc242 2.025 1_545 S
O245 Sc243 2.025 . S
O245 Sc244 2.025 . S
C246 O252 1.268 1_545 S
C246 O262 1.268 . S
C247 O253 1.268 . S
C247 O261 1.268 . S
C248 O254 1.268 . S
C248 O263 1.268 . S
C249 O255 1.268 . S
C249 O259 1.268 . S
C250 O256 1.268 . S
C250 O258 1.268 . S
C251 O257 1.268 . S
C251 O260 1.268 . S
O252 Sc242 2.105 . S
O252 C246 1.268 1_565 S
O253 Sc243 2.105 1_565 S
O253 C247 1.268 . S
O254 Sc244 2.105 . S
O254 C248 1.268 . S
O255 Sc242 2.105 . S
O255 C249 1.268 . S
O256 Sc244 2.105 . S
O256 C250 1.268 . S
O257 Sc243 2.105 . S
O257 C251 1.268 . S
O258 Sc242 2.105 1_545 S
O258 C250 1.268 . S
O259 Sc243 2.105 1_565 S
O259 C249 1.268 . S
O260 Sc244 2.105 . S
O260 C251 1.268 . S
O261 Sc242 2.105 . S
O261 C247 1.268 . S
O262 Sc244 2.105 . S
O262 C246 1.268 . S
O263 Sc243 2.105 . S
O263 C248 1.268 . S
Sc264 O267 2.025 . S
Sc264 O274 2.105 1_556 S
Sc264 O277 2.105 . S
Sc264 O280 2.105 1_556 S
Sc264 O283 2.105 . S
Sc265 O267 2.025 . S
Sc265 O275 2.105 . S
Sc265 O279 2.105 . S
Sc265 O281 2.105 . S
Sc265 O285 2.105 . S
Sc266 O267 2.025 1_554 S
Sc266 O276 2.105 . S
Sc266 O278 2.105 . S
Sc266 O282 2.105 1_554 S
Sc266 O284 2.105 . S
O267 Sc264 2.025 . S
O267 Sc265 2.025 . S
O267 Sc266 2.025 1_556 S
C268 O274 1.268 . S
C268 O284 1.268 . S
C269 O275 1.268 . S
C269 O283 1.268 . S
C270 O276 1.268 1_556 S
C270 O285 1.268 . S
C271 O277 1.268 . S
C271 O281 1.268 . S
C272 O278 1.268 . S
C272 O280 1.268 . S
C273 O279 1.268 . S
C273 O282 1.268 . S
O274 Sc264 2.105 1_554 S
O274 C268 1.268 . S
O275 Sc265 2.105 . S
O275 C269 1.268 . S
O276 Sc266 2.105 . S
O276 C270 1.268 1_554 S
O277 Sc264 2.105 . S
O277 C271 1.268 . S
O278 Sc266 2.105 . S
O278 C272 1.268 . S
O279 Sc265 2.105 . S
O279 C273 1.268 . S
O280 Sc264 2.105 1_554 S
O280 C272 1.268 . S
O281 Sc265 2.105 . S
O281 C271 1.268 . S
O282 Sc266 2.105 1_556 S
O282 C273 1.268 . S
O283 Sc264 2.105 . S
O283 C269 1.268 . S
O284 Sc266 2.105 . S
O284 C268 1.268 . S
O285 Sc265 2.105 . S
O285 C270 1.268 . S
Sc286 O289 2.025 . S
Sc286 O296 2.105 1_655 S
Sc286 O299 2.105 . S
Sc286 O302 2.105 1_655 S
Sc286 O305 2.105 . S
Sc287 O289 2.025 . S
Sc287 O297 2.105 . S
Sc287 O301 2.105 . S
Sc287 O303 2.105 . S
Sc287 O307 2.105 . S
Sc288 O289 2.025 1_455 S
Sc288 O298 2.105 . S
Sc288 O300 2.105 . S
Sc288 O304 2.105 1_455 S
Sc288 O306 2.105 . S
O289 Sc286 2.025 . S
O289 Sc287 2.025 . S
O289 Sc288 2.025 1_655 S
C290 O296 1.268 . S
C290 O306 1.268 . S
C291 O297 1.268 . S
C291 O305 1.268 . S
C292 O298 1.268 1_655 S
C292 O307 1.268 . S
C293 O299 1.268 . S
C293 O303 1.268 . S
C294 O300 1.268 . S
C294 O302 1.268 . S
C295 O301 1.268 . S
C295 O304 1.268 . S
O296 Sc286 2.105 1_455 S
O296 C290 1.268 . S
O297 Sc287 2.105 . S
O297 C291 1.268 . S
O298 Sc288 2.105 . S
O298 C292 1.268 1_455 S
O299 Sc286 2.105 . S
O299 C293 1.268 . S
O300 Sc288 2.105 . S
O300 C294 1.268 . S
O301 Sc287 2.105 . S
O301 C295 1.268 . S
O302 Sc286 2.105 1_455 S
O302 C294 1.268 . S
O303 Sc287 2.105 . S
O303 C293 1.268 . S
O304 Sc288 2.105 1_655 S
O304 C295 1.268 . S
O305 Sc286 2.105 . S
O305 C291 1.268 . S
O306 Sc288 2.105 . S
O306 C290 1.268 . S
O307 Sc287 2.105 . S
O307 C292 1.268 . S
Sc308 O311 2.025 . S
Sc308 O318 2.105 . S
Sc308 O321 2.105 . S
Sc308 O324 2.105 . S
Sc308 O327 2.105 . S
Sc309 O311 2.025 . S
Sc309 O319 2.105 . S
Sc309 O323 2.105 . S
Sc309 O325 2.105 . S
Sc309 O329 2.105 . S
Sc310 O311 2.025 . S
Sc310 O320 2.105 . S
Sc310 O322 2.105 . S
Sc310 O326 2.105 . S
Sc310 O328 2.105 . S
O311 Sc308 2.025 . S
O311 Sc309 2.025 . S
O311 Sc310 2.025 . S
C312 O318 1.268 . S
C312 O328 1.268 . S
C313 O319 1.268 . S
C313 O327 1.268 . S
C314 O320 1.268 . S
C314 O329 1.268 . S
C315 O321 1.268 . S
C315 O325 1.268 . S
C316 O322 1.268 . S
C316 O324 1.268 . S
C317 O323 1.268 . S
C317 O326 1.268 . S
O318 Sc308 2.105 . S
O318 C312 1.268 . S
O319 Sc309 2.105 . S
O319 C313 1.268 . S
O320 Sc310 2.105 . S
O320 C314 1.268 . S
O321 Sc308 2.105 . S
O321 C315 1.268 . S
O322 Sc310 2.105 . S
O322 C316 1.268 . S
O323 Sc309 2.105 . S
O323 C317 1.268 . S
O324 Sc308 2.105 . S
O324 C316 1.268 . S
O325 Sc309 2.105 . S
O325 C315 1.268 . S
O326 Sc310 2.105 . S
O326 C317 1.268 . S
O327 Sc308 2.105 . S
O327 C313 1.268 . S
O328 Sc310 2.105 . S
O328 C312 1.268 . S
O329 Sc309 2.105 . S
O329 C314 1.268 . S
Sc330 O333 2.025 . S
Sc330 O340 2.105 . S
Sc330 O343 2.105 . S
Sc330 O346 2.105 . S
Sc330 O349 2.105 . S
Sc331 O333 2.025 . S
Sc331 O341 2.105 . S
Sc331 O345 2.105 1_655 S
Sc331 O347 2.105 . S
Sc331 O351 2.105 1_655 S
Sc332 O333 2.025 1_455 S
Sc332 O342 2.105 . S
Sc332 O344 2.105 . S
Sc332 O348 2.105 . S
Sc332 O350 2.105 1_455 S
O333 Sc330 2.025 . S
O333 Sc331 2.025 . S
O333 Sc332 2.025 1_655 S
C334 O340 1.268 . S
C334 O350 1.268 . S
C335 O341 1.268 . S
C335 O349 1.268 . S
C336 O342 1.268 . S
C336 O351 1.268 . S
C337 O343 1.268 . S
C337 O347 1.268 . S
C338 O344 1.268 1_655 S
C338 O346 1.268 . S
C339 O345 1.268 . S
C339 O348 1.268 . S
O340 Sc330 2.105 . S
O340 C334 1.268 . S
O341 Sc331 2.105 . S
O341 C335 1.268 . S
O342 Sc332 2.105 . S
O342 C336 1.268 . S
O343 Sc330 2.105 . S
O343 C337 1.268 . S
O344 Sc332 2.105 . S
O344 C338 1.268 1_455 S
O345 Sc331 2.105 1_455 S
O345 C339 1.268 . S
O346 Sc330 2.105 . S
O346 C338 1.268 . S
O347 Sc331 2.105 . S
O347 C337 1.268 . S
O348 Sc332 2.105 . S
O348 C339 1.268 . S
O349 Sc330 2.105 . S
O349 C335 1.268 . S
O350 Sc332 2.105 1_655 S
O350 C334 1.268 . S
O351 Sc331 2.105 1_455 S
O351 C336 1.268 . S
Sc352 O355 2.025 . S
Sc352 O362 2.105 . S
Sc352 O365 2.105 . S
Sc352 O368 2.105 . S
Sc352 O371 2.105 . S
Sc353 O355 2.025 . S
Sc353 O363 2.105 . S
Sc353 O367 2.105 . S
Sc353 O369 2.105 . S
Sc353 O373 2.105 . S
Sc354 O355 2.025 . S
Sc354 O364 2.105 . S
Sc354 O366 2.105 . S
Sc354 O370 2.105 . S
Sc354 O372 2.105 . S
O355 Sc352 2.025 . S
O355 Sc353 2.025 . S
O355 Sc354 2.025 . S
C356 O362 1.268 . S
C356 O372 1.268 . S
C357 O363 1.268 . S
C357 O371 1.268 . S
C358 O364 1.268 . S
C358 O373 1.268 . S
C359 O365 1.268 . S
C359 O369 1.268 . S
C360 O366 1.268 . S
C360 O368 1.268 . S
C361 O367 1.268 . S
C361 O370 1.268 . S
O362 Sc352 2.105 . S
O362 C356 1.268 . S
O363 Sc353 2.105 . S
O363 C357 1.268 . S
O364 Sc354 2.105 . S
O364 C358 1.268 . S
O365 Sc352 2.105 . S
O365 C359 1.268 . S
O366 Sc354 2.105 . S
O366 C360 1.268 . S
O367 Sc353 2.105 . S
O367 C361 1.268 . S
O368 Sc352 2.105 . S
O368 C360 1.268 . S
O369 Sc353 2.105 . S
O369 C359 1.268 . S
O370 Sc354 2.105 . S
O370 C361 1.268 . S
O371 Sc352 2.105 . S
O371 C357 1.268 . S
O372 Sc354 2.105 . S
O372 C356 1.268 . S
O373 Sc353 2.105 . S
O373 C358 1.268 . S
Sc374 O377 2.025 . S
Sc374 O384 2.105 . S
Sc374 O387 2.105 . S
Sc374 O390 2.105 . S
Sc374 O393 2.105 . S
Sc375 O377 2.025 . S
Sc375 O385 2.105 . S
Sc375 O389 2.105 . S
Sc375 O391 2.105 . S
Sc375 O395 2.105 . S
Sc376 O377 2.025 . S
Sc376 O386 2.105 . S
Sc376 O388 2.105 . S
Sc376 O392 2.105 . S
Sc376 O394 2.105 . S
O377 Sc374 2.025 . S
O377 Sc375 2.025 . S
O377 Sc376 2.025 . S
C378 O384 1.268 . S
C378 O394 1.268 . S
C379 O385 1.268 . S
C379 O393 1.268 . S
C380 O386 1.268 . S
C380 O395 1.268 . S
C381 O387 1.268 . S
C381 O391 1.268 . S
C382 O388 1.268 . S
C382 O390 1.268 . S
C383 O389 1.268 . S
C383 O392 1.268 . S
O384 Sc374 2.105 . S
O384 C378 1.268 . S
O385 Sc375 2.105 . S
O385 C379 1.268 . S
O386 Sc376 2.105 . S
O386 C380 1.268 . S
O387 Sc374 2.105 . S
O387 C381 1.268 . S
O388 Sc376 2.105 . S
O388 C382 1.268 . S
O389 Sc375 2.105 . S
O389 C383 1.268 . S
O390 Sc374 2.105 . S
O390 C382 1.268 . S
O391 Sc375 2.105 . S
O391 C381 1.268 . S
O392 Sc376 2.105 . S
O392 C383 1.268 . S
O393 Sc374 2.105 . S
O393 C379 1.268 . S
O394 Sc376 2.105 . S
O394 C378 1.268 . S
O395 Sc375 2.105 . S
O395 C380 1.268 . S
Sc396 O399 2.025 1_556 S
Sc396 O406 2.105 . S
Sc396 O409 2.105 . S
Sc396 O412 2.105 1_556 S
Sc396 O415 2.105 . S
Sc397 O399 2.025 . S
Sc397 O407 2.105 1_554 S
Sc397 O411 2.105 . S
Sc397 O413 2.105 1_554 S
Sc397 O417 2.105 . S
Sc398 O399 2.025 . S
Sc398 O408 2.105 . S
Sc398 O410 2.105 . S
Sc398 O414 2.105 . S
Sc398 O416 2.105 . S
O399 Sc396 2.025 1_554 S
O399 Sc397 2.025 . S
O399 Sc398 2.025 . S
C400 O406 1.268 1_554 S
C400 O416 1.268 . S
C401 O407 1.268 . S
C401 O415 1.268 . S
C402 O408 1.268 . S
C402 O417 1.268 . S
C403 O409 1.268 . S
C403 O413 1.268 . S
C404 O410 1.268 . S
C404 O412 1.268 . S
C405 O411 1.268 . S
C405 O414 1.268 . S
O406 Sc396 2.105 . S
O406 C400 1.268 1_556 S
O407 Sc397 2.105 1_556 S
O407 C401 1.268 . S
O408 Sc398 2.105 . S
O408 C402 1.268 . S
O409 Sc396 2.105 . S
O409 C403 1.268 . S
O410 Sc398 2.105 . S
O410 C404 1.268 . S
O411 Sc397 2.105 . S
O411 C405 1.268 . S
O412 Sc396 2.105 1_554 S
O412 C404 1.268 . S
O413 Sc397 2.105 1_556 S
O413 C403 1.268 . S
O414 Sc398 2.105 . S
O414 C405 1.268 . S
O415 Sc396 2.105 . S
O415 C401 1.268 . S
O416 Sc398 2.105 . S
O416 C400 1.268 . S
O417 Sc397 2.105 . S
O417 C402 1.268 . S
Sc418 O421 2.025 . S
Sc418 O428 2.105 . S
Sc418 O431 2.105 . S
Sc418 O434 2.105 . S
Sc418 O437 2.105 . S
Sc419 O421 2.025 . S
Sc419 O429 2.105 . S
Sc419 O433 2.105 . S
Sc419 O435 2.105 . S
Sc419 O439 2.105 . S
Sc420 O421 2.025 . S
Sc420 O430 2.105 . S
Sc420 O432 2.105 . S
Sc420 O436 2.105 . S
Sc420 O438 2.105 . S
O421 Sc418 2.025 . S
O421 Sc419 2.025 . S
O421 Sc420 2.025 . S
C422 O428 1.268 . S
C422 O438 1.268 . S
C423 O429 1.268 . S
C423 O437 1.268 . S
C424 O430 1.268 . S
C424 O439 1.268 . S
C425 O431 1.268 . S
C425 O435 1.268 . S
C426 O432 1.268 . S
C426 O434 1.268 . S
C427 O433 1.268 . S
C427 O436 1.268 . S
O428 Sc418 2.105 . S
O428 C422 1.268 . S
O429 Sc419 2.105 . S
O429 C423 1.268 . S
O430 Sc420 2.105 . S
O430 C424 1.268 . S
O431 Sc418 2.105 . S
O431 C425 1.268 . S
O432 Sc420 2.105 . S
O432 C426 1.268 . S
O433 Sc419 2.105 . S
O433 C427 1.268 . S
O434 Sc418 2.105 . S
O434 C426 1.268 . S
O435 Sc419 2.105 . S
O435 C425 1.268 . S
O436 Sc420 2.105 . S
O436 C427 1.268 . S
O437 Sc418 2.105 . S
O437 C423 1.268 . S
O438 Sc420 2.105 . S
O438 C422 1.268 . S
O439 Sc419 2.105 . S
O439 C424 1.268 . S
Sc440 O443 2.025 . S
Sc440 O450 2.105 . S
Sc440 O453 2.105 . S
Sc440 O456 2.105 . S
Sc440 O459 2.105 . S
Sc441 O443 2.025 . S
Sc441 O451 2.105 . S
Sc441 O455 2.105 . S
Sc441 O457 2.105 . S
Sc441 O461 2.105 . S
Sc442 O443 2.025 . S
Sc442 O452 2.105 . S
Sc442 O454 2.105 . S
Sc442 O458 2.105 . S
Sc442 O460 2.105 . S
O443 Sc440 2.025 . S
O443 Sc441 2.025 . S
O443 Sc442 2.025 . S
C444 O450 1.268 . S
C444 O460 1.268 . S
C445 O451 1.268 . S
C445 O459 1.268 . S
C446 O452 1.268 . S
C446 O461 1.268 . S
C447 O453 1.268 . S
C447 O457 1.268 . S
C448 O454 1.268 . S
C448 O456 1.268 . S
C449 O455 1.268 . S
C449 O458 1.268 . S
O450 Sc440 2.105 . S
O450 C444 1.268 . S
O451 Sc441 2.105 . S
O451 C445 1.268 . S
O452 Sc442 2.105 . S
O452 C446 1.268 . S
O453 Sc440 2.105 . S
O453 C447 1.268 . S
O454 Sc442 2.105 . S
O454 C448 1.268 . S
O455 Sc441 2.105 . S
O455 C449 1.268 . S
O456 Sc440 2.105 . S
O456 C448 1.268 . S
O457 Sc441 2.105 . S
O457 C447 1.268 . S
O458 Sc442 2.105 . S
O458 C449 1.268 . S
O459 Sc440 2.105 . S
O459 C445 1.268 . S
O460 Sc442 2.105 . S
O460 C444 1.268 . S
O461 Sc441 2.105 . S
O461 C446 1.268 . S
Sc462 O465 2.025 . S
Sc462 O472 2.105 . S
Sc462 O475 2.105 . S
Sc462 O478 2.105 . S
Sc462 O481 2.105 . S
Sc463 O465 2.025 . S
Sc463 O473 2.105 . S
Sc463 O477 2.105 . S
Sc463 O479 2.105 . S
Sc463 O483 2.105 . S
Sc464 O465 2.025 . S
Sc464 O474 2.105 . S
Sc464 O476 2.105 . S
Sc464 O480 2.105 . S
Sc464 O482 2.105 . S
O465 Sc462 2.025 . S
O465 Sc463 2.025 . S
O465 Sc464 2.025 . S
C466 O472 1.268 . S
C466 O482 1.268 . S
C467 O473 1.268 . S
C467 O481 1.268 . S
C468 O474 1.268 . S
C468 O483 1.268 . S
C469 O475 1.268 . S
C469 O479 1.268 . S
C470 O476 1.268 . S
C470 O478 1.268 . S
C471 O477 1.268 . S
C471 O480 1.268 . S
O472 Sc462 2.105 . S
O472 C466 1.268 . S
O473 Sc463 2.105 . S
O473 C467 1.268 . S
O474 Sc464 2.105 . S
O474 C468 1.268 . S
O475 Sc462 2.105 . S
O475 C469 1.268 . S
O476 Sc464 2.105 . S
O476 C470 1.268 . S
O477 Sc463 2.105 . S
O477 C471 1.268 . S
O478 Sc462 2.105 . S
O478 C470 1.268 . S
O479 Sc463 2.105 . S
O479 C469 1.268 . S
O480 Sc464 2.105 . S
O480 C471 1.268 . S
O481 Sc462 2.105 . S
O481 C467 1.268 . S
O482 Sc464 2.105 . S
O482 C466 1.268 . S
O483 Sc463 2.105 . S
O483 C468 1.268 . S
Sc484 O487 2.025 . S
Sc484 O494 2.105 . S
Sc484 O497 2.105 . S
Sc484 O500 2.105 . S
Sc484 O503 2.105 . S
Sc485 O487 2.025 . S
Sc485 O495 2.105 . S
Sc485 O499 2.105 . S
Sc485 O501 2.105 . S
Sc485 O505 2.105 . S
Sc486 O487 2.025 . S
Sc486 O496 2.105 . S
Sc486 O498 2.105 . S
Sc486 O502 2.105 . S
Sc486 O504 2.105 . S
O487 Sc484 2.025 . S
O487 Sc485 2.025 . S
O487 Sc486 2.025 . S
C488 O494 1.268 . S
C488 O504 1.268 . S
C489 O495 1.268 . S
C489 O503 1.268 . S
C490 O496 1.268 . S
C490 O505 1.268 . S
C491 O497 1.268 . S
C491 O501 1.268 . S
C492 O498 1.268 . S
C492 O500 1.268 . S
C493 O499 1.268 . S
C493 O502 1.268 . S
O494 Sc484 2.105 . S
O494 C488 1.268 . S
O495 Sc485 2.105 . S
O495 C489 1.268 . S
O496 Sc486 2.105 . S
O496 C490 1.268 . S
O497 Sc484 2.105 . S
O497 C491 1.268 . S
O498 Sc486 2.105 . S
O498 C492 1.268 . S
O499 Sc485 2.105 . S
O499 C493 1.268 . S
O500 Sc484 2.105 . S
O500 C492 1.268 . S
O501 Sc485 2.105 . S
O501 C491 1.268 . S
O502 Sc486 2.105 . S
O502 C493 1.268 . S
O503 Sc484 2.105 . S
O503 C489 1.268 . S
O504 Sc486 2.105 . S
O504 C488 1.268 . S
O505 Sc485 2.105 . S
O505 C490 1.268 . S
Sc506 O509 2.025 . S
Sc506 O516 2.105 . S
Sc506 O519 2.105 . S
Sc506 O522 2.105 . S
Sc506 O525 2.105 . S
Sc507 O509 2.025 . S
Sc507 O517 2.105 . S
Sc507 O521 2.105 . S
Sc507 O523 2.105 . S
Sc507 O527 2.105 . S
Sc508 O509 2.025 . S
Sc508 O518 2.105 . S
Sc508 O520 2.105 . S
Sc508 O524 2.105 . S
Sc508 O526 2.105 . S
O509 Sc506 2.025 . S
O509 Sc507 2.025 . S
O509 Sc508 2.025 . S
C510 O516 1.268 . S
C510 O526 1.268 . S
C511 O517 1.268 . S
C511 O525 1.268 . S
C512 O518 1.268 . S
C512 O527 1.268 . S
C513 O519 1.268 . S
C513 O523 1.268 . S
C514 O520 1.268 . S
C514 O522 1.268 . S
C515 O521 1.268 . S
C515 O524 1.268 . S
O516 Sc506 2.105 . S
O516 C510 1.268 . S
O517 Sc507 2.105 . S
O517 C511 1.268 . S
O518 Sc508 2.105 . S
O518 C512 1.268 . S
O519 Sc506 2.105 . S
O519 C513 1.268 . S
O520 Sc508 2.105 . S
O520 C514 1.268 . S
O521 Sc507 2.105 . S
O521 C515 1.268 . S
O522 Sc506 2.105 . S
O522 C514 1.268 . S
O523 Sc507 2.105 . S
O523 C513 1.268 . S
O524 Sc508 2.105 . S
O524 C515 1.268 . S
O525 Sc506 2.105 . S
O525 C511 1.268 . S
O526 Sc508 2.105 . S
O526 C510 1.268 . S
O527 Sc507 2.105 . S
O527 C512 1.268 . S
H528 C536 0.950 . S
H529 C541 0.950 . S
H530 C538 0.950 . S
H531 C540 0.950 . S
H532 C542 0.950 . S
H533 C544 0.950 . S
H534 C546 0.950 . S
H535 C547 0.950 . S
C536 H528 0.950 . S
C536 C537 1.386 . S
C536 C538 1.391 . S
C537 C536 1.386 . S
C537 C541 1.393 . S
C538 H530 0.950 . S
C538 C536 1.391 . S
C538 C539 1.400 . S
C539 C538 1.400 . S
C539 C540 1.398 . S
C539 C545 1.491 . S
C540 H531 0.950 . S
C540 C539 1.398 . S
C540 C541 1.391 . S
C541 H529 0.950 . S
C541 C537 1.393 . S
C541 C540 1.391 . S
C542 H532 0.950 . S
C542 C543 1.386 . S
C542 C544 1.391 . S
C543 C542 1.386 . S
C543 C547 1.393 . S
C544 H533 0.950 . S
C544 C542 1.391 . S
C544 C545 1.400 . S
C545 C539 1.491 . S
C545 C544 1.400 . S
C545 C546 1.398 . S
C546 H534 0.950 . S
C546 C545 1.398 . S
C546 C547 1.391 . S
C547 H535 0.950 . S
C547 C543 1.393 . S
C547 C546 1.391 . S
H548 C556 0.950 . S
H549 C561 0.950 . S
H550 C558 0.950 . S
H551 C560 0.950 . S
H552 C562 0.950 . S
H553 C564 0.950 . S
H554 C566 0.950 . S
H555 C567 0.950 . S
C556 H548 0.950 . S
C556 C557 1.386 . S
C556 C558 1.391 . S
C557 C556 1.386 . S
C557 C561 1.393 . S
C558 H550 0.950 . S
C558 C556 1.391 . S
C558 C559 1.400 . S
C559 C558 1.400 . S
C559 C560 1.398 . S
C559 C565 1.491 . S
C560 H551 0.950 . S
C560 C559 1.398 . S
C560 C561 1.391 . S
C561 H549 0.950 . S
C561 C557 1.393 . S
C561 C560 1.391 . S
C562 H552 0.950 . S
C562 C563 1.386 . S
C562 C564 1.391 . S
C563 C562 1.386 . S
C563 C567 1.393 . S
C564 H553 0.950 . S
C564 C562 1.391 . S
C564 C565 1.400 . S
C565 C559 1.491 . S
C565 C564 1.400 . S
C565 C566 1.398 . S
C566 H554 0.950 . S
C566 C565 1.398 . S
C566 C567 1.391 . S
C567 H555 0.950 . S
C567 C563 1.393 . S
C567 C566 1.391 . S
H568 C576 0.950 . S
H569 C581 0.950 . S
H570 C578 0.950 . S
H571 C580 0.950 . S
H572 C582 0.950 . S
H573 C584 0.950 . S
H574 C586 0.950 . S
H575 C587 0.950 . S
C576 H568 0.950 . S
C576 C577 1.386 . S
C576 C578 1.391 . S
C577 C576 1.386 . S
C577 C581 1.393 . S
C578 H570 0.950 . S
C578 C576 1.391 . S
C578 C579 1.400 . S
C579 C578 1.400 . S
C579 C580 1.398 . S
C579 C585 1.491 . S
C580 H571 0.950 . S
C580 C579 1.398 . S
C580 C581 1.391 . S
C581 H569 0.950 . S
C581 C577 1.393 . S
C581 C580 1.391 . S
C582 H572 0.950 . S
C582 C583 1.386 . S
C582 C584 1.391 . S
C583 C582 1.386 . S
C583 C587 1.393 . S
C584 H573 0.950 . S
C584 C582 1.391 . S
C584 C585 1.400 . S
C585 C579 1.491 . S
C585 C584 1.400 . S
C585 C586 1.398 . S
C586 H574 0.950 . S
C586 C585 1.398 . S
C586 C587 1.391 . S
C587 H575 0.950 . S
C587 C583 1.393 . S
C587 C586 1.391 . S
H588 C596 0.950 . S
H589 C601 0.950 . S
H590 C598 0.950 . S
H591 C600 0.950 . S
H592 C602 0.950 . S
H593 C604 0.950 . S
H594 C606 0.950 . S
H595 C607 0.950 . S
C596 H588 0.950 . S
C596 C597 1.386 . S
C596 C598 1.391 . S
C597 C596 1.386 . S
C597 C601 1.393 . S
C598 H590 0.950 . S
C598 C596 1.391 . S
C598 C599 1.400 . S
C599 C598 1.400 . S
C599 C600 1.398 . S
C599 C605 1.491 . S
C600 H591 0.950 . S
C600 C599 1.398 . S
C600 C601 1.391 . S
C601 H589 0.950 . S
C601 C597 1.393 . S
C601 C600 1.391 . S
C602 H592 0.950 . S
C602 C603 1.386 . S
C602 C604 1.391 . S
C603 C602 1.386 . S
C603 C607 1.393 . S
C604 H593 0.950 . S
C604 C602 1.391 . S
C604 C605 1.400 . S
C605 C599 1.491 . S
C605 C604 1.400 . S
C605 C606 1.398 . S
C606 H594 0.950 . S
C606 C605 1.398 . S
C606 C607 1.391 . S
C607 H595 0.950 . S
C607 C603 1.393 . S
C607 C606 1.391 . S
H608 C616 0.950 . S
H609 C621 0.950 . S
H610 C618 0.950 . S
H611 C620 0.950 . S
H612 C622 0.950 . S
H613 C624 0.950 . S
H614 C626 0.950 . S
H615 C627 0.950 . S
C616 H608 0.950 . S
C616 C617 1.386 . S
C616 C618 1.391 . S
C617 C616 1.386 . S
C617 C621 1.393 . S
C618 H610 0.950 . S
C618 C616 1.391 . S
C618 C619 1.400 . S
C619 C618 1.400 . S
C619 C620 1.398 . S
C619 C625 1.491 . S
C620 H611 0.950 . S
C620 C619 1.398 . S
C620 C621 1.391 . S
C621 H609 0.950 . S
C621 C617 1.393 . S
C621 C620 1.391 . S
C622 H612 0.950 . S
C622 C623 1.386 . S
C622 C624 1.391 . S
C623 C622 1.386 . S
C623 C627 1.393 . S
C624 H613 0.950 . S
C624 C622 1.391 . S
C624 C625 1.400 . S
C625 C619 1.491 . S
C625 C624 1.400 . S
C625 C626 1.398 . S
C626 H614 0.950 . S
C626 C625 1.398 . S
C626 C627 1.391 . S
C627 H615 0.950 . S
C627 C623 1.393 . S
C627 C626 1.391 . S
H628 C636 0.950 . S
H629 C641 0.950 . S
H630 C638 0.950 . S
H631 C640 0.950 . S
H632 C642 0.950 . S
H633 C644 0.950 . S
H634 C646 0.950 . S
H635 C647 0.950 . S
C636 H628 0.950 . S
C636 C637 1.386 . S
C636 C638 1.391 . S
C637 C636 1.386 . S
C637 C641 1.393 . S
C638 H630 0.950 . S
C638 C636 1.391 . S
C638 C639 1.400 . S
C639 C638 1.400 . S
C639 C640 1.398 . S
C639 C645 1.491 . S
C640 H631 0.950 . S
C640 C639 1.398 . S
C640 C641 1.391 . S
C641 H629 0.950 . S
C641 C637 1.393 . S
C641 C640 1.391 . S
C642 H632 0.950 . S
C642 C643 1.386 . S
C642 C644 1.391 . S
C643 C642 1.386 . S
C643 C647 1.393 . S
C644 H633 0.950 . S
C644 C642 1.391 . S
C644 C645 1.400 . S
C645 C639 1.491 . S
C645 C644 1.400 . S
C645 C646 1.398 . S
C646 H634 0.950 . S
C646 C645 1.398 . S
C646 C647 1.391 . S
C647 H635 0.950 . S
C647 C643 1.393 . S
C647 C646 1.391 . S
H648 C656 0.950 . S
H649 C661 0.950 . S
H650 C658 0.950 . S
H651 C660 0.950 . S
H652 C662 0.950 . S
H653 C664 0.950 . S
H654 C666 0.950 . S
H655 C667 0.950 . S
C656 H648 0.950 . S
C656 C657 1.386 . S
C656 C658 1.391 . S
C657 C656 1.386 . S
C657 C661 1.393 . S
C658 H650 0.950 . S
C658 C656 1.391 . S
C658 C659 1.400 . S
C659 C658 1.400 . S
C659 C660 1.398 . S
C659 C665 1.491 . S
C660 H651 0.950 . S
C660 C659 1.398 . S
C660 C661 1.391 . S
C661 H649 0.950 . S
C661 C657 1.393 . S
C661 C660 1.391 . S
C662 H652 0.950 . S
C662 C663 1.386 . S
C662 C664 1.391 . S
C663 C662 1.386 . S
C663 C667 1.393 . S
C664 H653 0.950 . S
C664 C662 1.391 . S
C664 C665 1.400 . S
C665 C659 1.491 . S
C665 C664 1.400 . S
C665 C666 1.398 . S
C666 H654 0.950 . S
C666 C665 1.398 . S
C666 C667 1.391 . S
C667 H655 0.950 . S
C667 C663 1.393 . S
C667 C666 1.391 . S
H668 C676 0.950 . S
H669 C681 0.958 . S
H670 C678 0.950 . S
H671 C680 0.950 . S
H672 C682 0.950 . S
H673 C684 0.950 . S
H674 C686 0.950 . S
H675 C687 0.950 . S
C676 H668 0.950 . S
C676 C677 1.386 . S
C676 C678 1.391 . S
C677 C676 1.386 . S
C677 C681 1.393 . S
C678 H670 0.950 . S
C678 C676 1.391 . S
C678 C679 1.400 . S
C679 C678 1.400 . S
C679 C680 1.398 . S
C679 C685 1.491 . S
C680 H671 0.950 . S
C680 C679 1.398 . S
C680 C681 1.391 . S
C681 H669 0.958 . S
C681 C677 1.393 . S
C681 C680 1.391 . S
C682 H672 0.950 . S
C682 C683 1.386 . S
C682 C684 1.391 . S
C683 C682 1.386 . S
C683 C687 1.393 . S
C684 H673 0.950 . S
C684 C682 1.391 . S
C684 C685 1.400 . S
C685 C679 1.491 . S
C685 C684 1.400 . S
C685 C686 1.398 . S
C686 H674 0.950 . S
C686 C685 1.398 . S
C686 C687 1.391 . S
C687 H675 0.950 . S
C687 C683 1.393 . S
C687 C686 1.391 . S
H688 C696 0.950 . S
H689 C701 0.950 . S
H690 C698 0.950 . S
H691 C700 0.950 . S
H692 C702 0.950 . S
H693 C704 0.950 . S
H694 C706 0.950 . S
H695 C707 0.950 . S
C696 H688 0.950 . S
C696 C697 1.386 . S
C696 C698 1.391 . S
C697 C696 1.386 . S
C697 C701 1.393 . S
C698 H690 0.950 . S
C698 C696 1.391 . S
C698 C699 1.400 . S
C699 C698 1.400 . S
C699 C700 1.398 . S
C699 C705 1.491 . S
C700 H691 0.950 . S
C700 C699 1.398 . S
C700 C701 1.391 . S
C701 H689 0.950 . S
C701 C697 1.393 . S
C701 C700 1.391 . S
C702 H692 0.950 . S
C702 C703 1.386 . S
C702 C704 1.391 . S
C703 C702 1.386 . S
C703 C707 1.393 . S
C704 H693 0.950 . S
C704 C702 1.391 . S
C704 C705 1.400 . S
C705 C699 1.491 . S
C705 C704 1.400 . S
C705 C706 1.398 . S
C706 H694 0.950 . S
C706 C705 1.398 . S
C706 C707 1.391 . S
C707 H695 0.950 . S
C707 C703 1.393 . S
C707 C706 1.391 . S
H708 C716 0.950 . S
H709 C721 0.950 . S
H710 C718 0.950 . S
H711 C720 0.950 . S
H712 C722 0.950 . S
H713 C724 0.950 . S
H714 C726 0.950 . S
H715 C727 0.950 . S
C716 H708 0.950 . S
C716 C717 1.386 . S
C716 C718 1.391 . S
C717 C716 1.386 . S
C717 C721 1.393 . S
C718 H710 0.950 . S
C718 C716 1.391 . S
C718 C719 1.400 . S
C719 C718 1.400 . S
C719 C720 1.398 . S
C719 C725 1.491 . S
C720 H711 0.950 . S
C720 C719 1.398 . S
C720 C721 1.391 . S
C721 H709 0.950 . S
C721 C717 1.393 . S
C721 C720 1.391 . S
C722 H712 0.950 . S
C722 C723 1.386 . S
C722 C724 1.391 . S
C723 C722 1.386 . S
C723 C727 1.393 . S
C724 H713 0.950 . S
C724 C722 1.391 . S
C724 C725 1.400 . S
C725 C719 1.491 . S
C725 C724 1.400 . S
C725 C726 1.398 . S
C726 H714 0.950 . S
C726 C725 1.398 . S
C726 C727 1.391 . S
C727 H715 0.950 . S
C727 C723 1.393 . S
C727 C726 1.391 . S
H728 C736 0.950 . S
H729 C741 0.950 . S
H730 C738 0.950 . S
H731 C740 0.950 . S
H732 C742 0.985 . S
H733 C744 0.950 . S
H734 C746 0.950 . S
H735 C747 0.950 . S
C736 H728 0.950 . S
C736 C737 1.386 . S
C736 C738 1.391 . S
C737 C736 1.386 . S
C737 C741 1.393 . S
C738 H730 0.950 . S
C738 C736 1.391 . S
C738 C739 1.400 . S
C739 C738 1.400 . S
C739 C740 1.398 . S
C739 C745 1.491 . S
C740 H731 0.950 . S
C740 C739 1.398 . S
C740 C741 1.391 . S
C741 H729 0.950 . S
C741 C737 1.393 . S
C741 C740 1.391 . S
C742 H732 0.985 . S
C742 C743 1.386 . S
C742 C744 1.391 . S
C743 C742 1.386 . S
C743 C747 1.393 . S
C744 H733 0.950 . S
C744 C742 1.391 . S
C744 C745 1.400 . S
C745 C739 1.491 . S
C745 C744 1.400 . S
C745 C746 1.398 . S
C746 H734 0.950 . S
C746 C745 1.398 . S
C746 C747 1.391 . S
C747 H735 0.950 . S
C747 C743 1.393 . S
C747 C746 1.391 . S
H748 C756 0.950 . S
H749 C761 0.950 . S
H750 C758 0.950 . S
H751 C760 0.950 . S
H752 C762 0.950 . S
H753 C764 0.950 . S
H754 C766 0.950 . S
H755 C767 0.950 . S
C756 H748 0.950 . S
C756 C757 1.386 . S
C756 C758 1.391 . S
C757 C756 1.386 . S
C757 C761 1.393 . S
C758 H750 0.950 . S
C758 C756 1.391 . S
C758 C759 1.400 . S
C759 C758 1.400 . S
C759 C760 1.398 . S
C759 C765 1.491 . S
C760 H751 0.950 . S
C760 C759 1.398 . S
C760 C761 1.391 . S
C761 H749 0.950 . S
C761 C757 1.393 . S
C761 C760 1.391 . S
C762 H752 0.950 . S
C762 C763 1.386 . S
C762 C764 1.391 . S
C763 C762 1.386 . S
C763 C767 1.393 . S
C764 H753 0.950 . S
C764 C762 1.391 . S
C764 C765 1.400 . S
C765 C759 1.491 . S
C765 C764 1.400 . S
C765 C766 1.398 . S
C766 H754 0.950 . S
C766 C765 1.398 . S
C766 C767 1.391 . S
C767 H755 0.950 . S
C767 C763 1.393 . S
C767 C766 1.391 . S
H768 C776 0.950 . S
H769 C781 0.985 . S
H770 C778 0.950 . S
H771 C780 0.950 . S
H772 C782 0.950 . S
H773 C784 0.950 . S
H774 C786 0.950 . S
H775 C787 0.950 . S
C776 H768 0.950 . S
C776 C777 1.386 . S
C776 C778 1.391 . S
C777 C776 1.386 . S
C777 C781 1.393 . S
C778 H770 0.950 . S
C778 C776 1.391 . S
C778 C779 1.400 . S
C779 C778 1.400 . S
C779 C780 1.398 . S
C779 C785 1.491 . S
C780 H771 0.950 . S
C780 C779 1.398 . S
C780 C781 1.391 . S
C781 H769 0.985 . S
C781 C777 1.393 . S
C781 C780 1.391 . S
C782 H772 0.950 . S
C782 C783 1.386 . S
C782 C784 1.391 . S
C783 C782 1.386 . S
C783 C787 1.393 . S
C784 H773 0.950 . S
C784 C782 1.391 . S
C784 C785 1.400 . S
C785 C779 1.491 . S
C785 C784 1.400 . S
C785 C786 1.398 . S
C786 H774 0.950 . S
C786 C785 1.398 . S
C786 C787 1.391 . S
C787 H775 0.950 . S
C787 C783 1.393 . S
C787 C786 1.391 . S
H788 C796 0.950 . S
H789 C801 0.950 . S
H790 C798 0.950 . S
H791 C800 0.950 . S
H792 C802 0.950 . S
H793 C804 0.950 . S
H794 C806 0.950 . S
H795 C807 0.950 . S
C796 H788 0.950 . S
C796 C797 1.386 . S
C796 C798 1.391 . S
C797 C796 1.386 . S
C797 C801 1.393 . S
C798 H790 0.950 . S
C798 C796 1.391 . S
C798 C799 1.400 . S
C799 C798 1.400 . S
C799 C800 1.398 . S
C799 C805 1.491 . S
C800 H791 0.950 . S
C800 C799 1.398 . S
C800 C801 1.391 . S
C801 H789 0.950 . S
C801 C797 1.393 . S
C801 C800 1.391 . S
C802 H792 0.950 . S
C802 C803 1.386 . S
C802 C804 1.391 . S
C803 C802 1.386 . S
C803 C807 1.393 . S
C804 H793 0.950 . S
C804 C802 1.391 . S
C804 C805 1.400 . S
C805 C799 1.491 . S
C805 C804 1.400 . S
C805 C806 1.398 . S
C806 H794 0.950 . S
C806 C805 1.398 . S
C806 C807 1.391 . S
C807 H795 0.950 . S
C807 C803 1.393 . S
C807 C806 1.391 . S
H808 C816 0.950 . S
H809 C821 0.950 . S
H810 C818 0.950 . S
H811 C820 0.950 . S
H812 C822 0.950 . S
H813 C824 0.950 . S
H814 C826 0.950 . S
H815 C827 0.950 . S
C816 H808 0.950 . S
C816 C817 1.386 . S
C816 C818 1.391 . S
C817 C816 1.386 . S
C817 C821 1.393 . S
C818 H810 0.950 . S
C818 C816 1.391 . S
C818 C819 1.400 . S
C819 C818 1.400 . S
C819 C820 1.398 . S
C819 C825 1.491 . S
C820 H811 0.950 . S
C820 C819 1.398 . S
C820 C821 1.391 . S
C821 H809 0.950 . S
C821 C817 1.393 . S
C821 C820 1.391 . S
C822 H812 0.950 . S
C822 C823 1.386 . S
C822 C824 1.391 . S
C823 C822 1.386 . S
C823 C827 1.393 . S
C824 H813 0.950 . S
C824 C822 1.391 . S
C824 C825 1.400 . S
C825 C819 1.491 . S
C825 C824 1.400 . S
C825 C826 1.398 . S
C826 H814 0.950 . S
C826 C825 1.398 . S
C826 C827 1.391 . S
C827 H815 0.950 . S
C827 C823 1.393 . S
C827 C826 1.391 . S
H828 C836 0.950 . S
H829 C841 0.950 . S
H830 C838 0.950 . S
H831 C840 0.950 . S
H832 C842 0.950 . S
H833 C844 0.950 . S
H834 C846 0.950 . S
H835 C847 0.950 . S
C836 H828 0.950 . S
C836 C837 1.386 . S
C836 C838 1.391 . S
C837 C836 1.386 . S
C837 C841 1.393 . S
C838 H830 0.950 . S
C838 C836 1.391 . S
C838 C839 1.400 . S
C839 C838 1.400 . S
C839 C840 1.398 . S
C839 C845 1.491 . S
C840 H831 0.950 . S
C840 C839 1.398 . S
C840 C841 1.391 . S
C841 H829 0.950 . S
C841 C837 1.393 . S
C841 C840 1.391 . S
C842 H832 0.950 . S
C842 C843 1.386 . S
C842 C844 1.391 . S
C843 C842 1.386 . S
C843 C847 1.393 . S
C844 H833 0.950 . S
C844 C842 1.391 . S
C844 C845 1.400 . S
C845 C839 1.491 . S
C845 C844 1.400 . S
C845 C846 1.398 . S
C846 H834 0.950 . S
C846 C845 1.398 . S
C846 C847 1.391 . S
C847 H835 0.950 . S
C847 C843 1.393 . S
C847 C846 1.391 . S
H848 C856 0.950 . S
H849 C861 0.950 . S
H850 C858 0.950 . S
H851 C860 0.950 . S
H852 C862 0.950 . S
H853 C864 0.950 . S
H854 C866 0.950 . S
H855 C867 0.950 . S
C856 H848 0.950 . S
C856 C857 1.386 . S
C856 C858 1.391 . S
C857 C856 1.386 . S
C857 C861 1.393 . S
C858 H850 0.950 . S
C858 C856 1.391 . S
C858 C859 1.400 . S
C859 C858 1.400 . S
C859 C860 1.398 . S
C859 C865 1.491 . S
C860 H851 0.950 . S
C860 C859 1.398 . S
C860 C861 1.391 . S
C861 H849 0.950 . S
C861 C857 1.393 . S
C861 C860 1.391 . S
C862 H852 0.950 . S
C862 C863 1.386 . S
C862 C864 1.391 . S
C863 C862 1.386 . S
C863 C867 1.393 . S
C864 H853 0.950 . S
C864 C862 1.391 . S
C864 C865 1.400 . S
C865 C859 1.491 . S
C865 C864 1.400 . S
C865 C866 1.398 . S
C866 H854 0.950 . S
C866 C865 1.398 . S
C866 C867 1.391 . S
C867 H855 0.950 . S
C867 C863 1.393 . S
C867 C866 1.391 . S
H868 C876 0.950 . S
H869 C881 0.950 . S
H870 C878 0.950 . S
H871 C880 0.950 . S
H872 C882 0.950 . S
H873 C884 0.950 . S
H874 C886 0.950 . S
H875 C887 0.950 . S
C876 H868 0.950 . S
C876 C877 1.386 . S
C876 C878 1.391 . S
C877 C876 1.386 . S
C877 C881 1.393 . S
C878 H870 0.950 . S
C878 C876 1.391 . S
C878 C879 1.400 . S
C879 C878 1.400 . S
C879 C880 1.398 . S
C879 C885 1.491 . S
C880 H871 0.950 . S
C880 C879 1.398 . S
C880 C881 1.391 . S
C881 H869 0.950 . S
C881 C877 1.393 . S
C881 C880 1.391 . S
C882 H872 0.950 . S
C882 C883 1.386 . S
C882 C884 1.391 . S
C883 C882 1.386 . S
C883 C887 1.393 . S
C884 H873 0.950 . S
C884 C882 1.391 . S
C884 C885 1.400 . S
C885 C879 1.491 . S
C885 C884 1.400 . S
C885 C886 1.398 . S
C886 H874 0.950 . S
C886 C885 1.398 . S
C886 C887 1.391 . S
C887 H875 0.950 . S
C887 C883 1.393 . S
C887 C886 1.391 . S
H888 C896 0.950 . S
H889 C901 0.950 . S
H890 C898 0.950 . S
H891 C900 0.950 . S
H892 C902 0.950 . S
H893 C904 0.950 . S
H894 C906 0.950 . S
H895 C907 0.950 . S
C896 H888 0.950 . S
C896 C897 1.386 . S
C896 C898 1.391 . S
C897 C896 1.386 . S
C897 C901 1.393 . S
C898 H890 0.950 . S
C898 C896 1.391 . S
C898 C899 1.400 . S
C899 C898 1.400 . S
C899 C900 1.398 . S
C899 C905 1.491 . S
C900 H891 0.950 . S
C900 C899 1.398 . S
C900 C901 1.391 . S
C901 H889 0.950 . S
C901 C897 1.393 . S
C901 C900 1.391 . S
C902 H892 0.950 . S
C902 C903 1.386 . S
C902 C904 1.391 . S
C903 C902 1.386 . S
C903 C907 1.393 . S
C904 H893 0.950 . S
C904 C902 1.391 . S
C904 C905 1.400 . S
C905 C899 1.491 . S
C905 C904 1.400 . S
C905 C906 1.398 . S
C906 H894 0.950 . S
C906 C905 1.398 . S
C906 C907 1.391 . S
C907 H895 0.950 . S
C907 C903 1.393 . S
C907 C906 1.391 . S
H908 C916 0.950 . S
H909 C921 0.950 . S
H910 C918 0.950 . S
H911 C920 0.950 . S
H912 C922 0.950 . S
H913 C924 0.950 . S
H914 C926 0.950 . S
H915 C927 0.950 . S
C916 H908 0.950 . S
C916 C917 1.386 . S
C916 C918 1.391 . S
C917 C916 1.386 . S
C917 C921 1.393 . S
C918 H910 0.950 . S
C918 C916 1.391 . S
C918 C919 1.400 . S
C919 C918 1.400 . S
C919 C920 1.398 . S
C919 C925 1.491 . S
C920 H911 0.950 . S
C920 C919 1.398 . S
C920 C921 1.391 . S
C921 H909 0.950 . S
C921 C917 1.393 . S
C921 C920 1.391 . S
C922 H912 0.950 . S
C922 C923 1.386 . S
C922 C924 1.391 . S
C923 C922 1.386 . S
C923 C927 1.393 . S
C924 H913 0.950 . S
C924 C922 1.391 . S
C924 C925 1.400 . S
C925 C919 1.491 . S
C925 C924 1.400 . S
C925 C926 1.398 . S
C926 H914 0.950 . S
C926 C925 1.398 . S
C926 C927 1.391 . S
C927 H915 0.950 . S
C927 C923 1.393 . S
C927 C926 1.391 . S
H928 C936 0.959 . S
H929 C941 0.950 . S
H930 C938 0.950 . S
H931 C940 0.950 . S
H932 C942 0.950 . S
H933 C944 0.950 . S
H934 C946 0.950 . S
H935 C947 0.950 . S
C936 H928 0.959 . S
C936 C937 1.386 . S
C936 C938 1.391 . S
C937 C936 1.386 . S
C937 C941 1.393 . S
C938 H930 0.950 . S
C938 C936 1.391 . S
C938 C939 1.400 . S
C939 C938 1.400 . S
C939 C940 1.398 . S
C939 C945 1.491 . S
C940 H931 0.950 . S
C940 C939 1.398 . S
C940 C941 1.391 . S
C941 H929 0.950 . S
C941 C937 1.393 . S
C941 C940 1.391 . S
C942 H932 0.950 . S
C942 C943 1.386 . S
C942 C944 1.391 . S
C943 C942 1.386 . S
C943 C947 1.393 . S
C944 H933 0.950 . S
C944 C942 1.391 . S
C944 C945 1.400 . S
C945 C939 1.491 . S
C945 C944 1.400 . S
C945 C946 1.398 . S
C946 H934 0.950 . S
C946 C945 1.398 . S
C946 C947 1.391 . S
C947 H935 0.950 . S
C947 C943 1.393 . S
C947 C946 1.391 . S
H948 C956 0.950 . S
H949 C961 0.950 . S
H950 C958 0.950 . S
H951 C960 0.950 . S
H952 C962 0.950 . S
H953 C964 0.950 . S
H954 C966 0.950 . S
H955 C967 0.950 . S
C956 H948 0.950 . S
C956 C957 1.386 . S
C956 C958 1.391 . S
C957 C956 1.386 . S
C957 C961 1.393 . S
C958 H950 0.950 . S
C958 C956 1.391 . S
C958 C959 1.400 . S
C959 C958 1.400 . S
C959 C960 1.398 . S
C959 C965 1.491 . S
C960 H951 0.950 . S
C960 C959 1.398 . S
C960 C961 1.391 . S
C961 H949 0.950 . S
C961 C957 1.393 . S
C961 C960 1.391 . S
C962 H952 0.950 . S
C962 C963 1.386 . S
C962 C964 1.391 . S
C963 C962 1.386 . S
C963 C967 1.393 . S
C964 H953 0.950 . S
C964 C962 1.391 . S
C964 C965 1.400 . S
C965 C959 1.491 . S
C965 C964 1.400 . S
C965 C966 1.398 . S
C966 H954 0.950 . S
C966 C965 1.398 . S
C966 C967 1.391 . S
C967 H955 0.950 . S
C967 C963 1.393 . S
C967 C966 1.391 . S
H968 C976 0.950 . S
H969 C981 0.950 . S
H970 C978 0.950 . S
H971 C980 0.950 . S
H972 C982 0.950 . S
H973 C984 0.950 . S
H974 C986 0.950 . S
H975 C987 0.950 . S
C976 H968 0.950 . S
C976 C977 1.386 . S
C976 C978 1.391 . S
C977 C976 1.386 . S
C977 C981 1.393 . S
C978 H970 0.950 . S
C978 C976 1.391 . S
C978 C979 1.400 . S
C979 C978 1.400 . S
C979 C980 1.398 . S
C979 C985 1.491 . S
C980 H971 0.950 . S
C980 C979 1.398 . S
C980 C981 1.391 . S
C981 H969 0.950 . S
C981 C977 1.393 . S
C981 C980 1.391 . S
C982 H972 0.950 . S
C982 C983 1.386 . S
C982 C984 1.391 . S
C983 C982 1.386 . S
C983 C987 1.393 . S
C984 H973 0.950 . S
C984 C982 1.391 . S
C984 C985 1.400 . S
C985 C979 1.491 . S
C985 C984 1.400 . S
C985 C986 1.398 . S
C986 H974 0.950 . S
C986 C985 1.398 . S
C986 C987 1.391 . S
C987 H975 0.950 . S
C987 C983 1.393 . S
C987 C986 1.391 . S
H988 C996 0.950 . S
H989 C1001 0.950 . S
H990 C998 0.950 . S
H991 C1000 0.950 . S
H992 C1002 0.950 . S
H993 C1004 0.950 . S
H994 C1006 0.950 . S
H995 C1007 0.950 . S
C996 H988 0.950 . S
C996 C997 1.386 . S
C996 C998 1.391 . S
C997 C996 1.386 . S
C997 C1001 1.393 . S
C998 H990 0.950 . S
C998 C996 1.391 . S
C998 C999 1.400 . S
C999 C998 1.400 . S
C999 C1000 1.398 . S
C999 C1005 1.491 . S
C1000 H991 0.950 . S
C1000 C999 1.398 . S
C1000 C1001 1.391 . S
C1001 H989 0.950 . S
C1001 C997 1.393 . S
C1001 C1000 1.391 . S
C1002 H992 0.950 . S
C1002 C1003 1.386 . S
C1002 C1004 1.391 . S
C1003 C1002 1.386 . S
C1003 C1007 1.393 . S
C1004 H993 0.950 . S
C1004 C1002 1.391 . S
C1004 C1005 1.400 . S
C1005 C999 1.491 . S
C1005 C1004 1.400 . S
C1005 C1006 1.398 . S
C1006 H994 0.950 . S
C1006 C1005 1.398 . S
C1006 C1007 1.391 . S
C1007 H995 0.950 . S
C1007 C1003 1.393 . S
C1007 C1006 1.391 . S
H1008 C1016 0.950 . S
H1009 C1021 0.950 . S
H1010 C1018 0.950 . S
H1011 C1020 0.950 . S
H1012 C1022 0.950 . S
H1013 C1024 0.950 . S
H1014 C1026 0.950 . S
H1015 C1027 0.950 . S
C1016 H1008 0.950 . S
C1016 C1017 1.386 . S
C1016 C1018 1.391 . S
C1017 C1016 1.386 . S
C1017 C1021 1.393 . S
C1018 H1010 0.950 . S
C1018 C1016 1.391 . S
C1018 C1019 1.400 . S
C1019 C1018 1.400 . S
C1019 C1020 1.398 . S
C1019 C1025 1.491 1_565 S
C1020 H1011 0.950 . S
C1020 C1019 1.398 . S
C1020 C1021 1.391 . S
C1021 H1009 0.950 . S
C1021 C1017 1.393 . S
C1021 C1020 1.391 . S
C1022 H1012 0.950 . S
C1022 C1023 1.386 . S
C1022 C1024 1.391 . S
C1023 C1022 1.386 . S
C1023 C1027 1.393 . S
C1024 H1013 0.950 . S
C1024 C1022 1.391 . S
C1024 C1025 1.400 . S
C1025 C1019 1.491 1_545 S
C1025 C1024 1.400 . S
C1025 C1026 1.398 . S
C1026 H1014 0.950 . S
C1026 C1025 1.398 . S
C1026 C1027 1.391 . S
C1027 H1015 0.950 . S
C1027 C1023 1.393 . S
C1027 C1026 1.391 . S
H1028 C1036 0.950 . S
H1029 C1041 0.950 . S
H1030 C1038 0.950 . S
H1031 C1040 0.950 . S
H1032 C1042 0.950 . S
H1033 C1044 0.950 . S
H1034 C1046 0.950 . S
H1035 C1047 0.950 . S
C1036 H1028 0.950 . S
C1036 C1037 1.386 . S
C1036 C1038 1.391 . S
C1037 C1036 1.386 . S
C1037 C1041 1.393 . S
C1038 H1030 0.950 . S
C1038 C1036 1.391 . S
C1038 C1039 1.400 . S
C1039 C1038 1.400 . S
C1039 C1040 1.398 . S
C1039 C1045 1.491 . S
C1040 H1031 0.950 . S
C1040 C1039 1.398 . S
C1040 C1041 1.391 . S
C1041 H1029 0.950 . S
C1041 C1037 1.393 . S
C1041 C1040 1.391 . S
C1042 H1032 0.950 . S
C1042 C1043 1.386 . S
C1042 C1044 1.391 . S
C1043 C1042 1.386 . S
C1043 C1047 1.393 . S
C1044 H1033 0.950 . S
C1044 C1042 1.391 . S
C1044 C1045 1.400 . S
C1045 C1039 1.491 . S
C1045 C1044 1.400 . S
C1045 C1046 1.398 . S
C1046 H1034 0.950 . S
C1046 C1045 1.398 . S
C1046 C1047 1.391 . S
C1047 H1035 0.950 . S
C1047 C1043 1.393 . S
C1047 C1046 1.391 . S
H1048 C1056 0.950 . S
H1049 C1061 0.950 . S
H1050 C1058 0.950 . S
H1051 C1060 0.950 . S
H1052 C1062 0.950 . S
H1053 C1064 0.950 . S
H1054 C1066 0.950 . S
H1055 C1067 0.950 . S
C1056 H1048 0.950 . S
C1056 C1057 1.386 . S
C1056 C1058 1.391 . S
C1057 C1056 1.386 . S
C1057 C1061 1.393 . S
C1058 H1050 0.950 . S
C1058 C1056 1.391 . S
C1058 C1059 1.400 . S
C1059 C1058 1.400 . S
C1059 C1060 1.398 . S
C1059 C1065 1.491 1_565 S
C1060 H1051 0.950 . S
C1060 C1059 1.398 . S
C1060 C1061 1.391 . S
C1061 H1049 0.950 . S
C1061 C1057 1.393 . S
C1061 C1060 1.391 . S
C1062 H1052 0.950 . S
C1062 C1063 1.386 . S
C1062 C1064 1.391 . S
C1063 C1062 1.386 . S
C1063 C1067 1.393 . S
C1064 H1053 0.950 . S
C1064 C1062 1.391 . S
C1064 C1065 1.400 . S
C1065 C1059 1.491 1_545 S
C1065 C1064 1.400 . S
C1065 C1066 1.398 . S
C1066 H1054 0.950 . S
C1066 C1065 1.398 . S
C1066 C1067 1.391 . S
C1067 H1055 0.950 . S
C1067 C1063 1.393 . S
C1067 C1066 1.391 . S
H1068 C1076 0.950 . S
H1069 C1081 0.950 . S
H1070 C1078 0.950 . S
H1071 C1080 0.950 . S
H1072 C1082 0.950 . S
H1073 C1084 0.950 . S
H1074 C1086 0.950 . S
H1075 C1087 0.950 . S
C1076 H1068 0.950 . S
C1076 C1077 1.386 1_554 S
C1076 C1078 1.391 . S
C1077 C1076 1.386 1_556 S
C1077 C1081 1.393 . S
C1078 H1070 0.950 . S
C1078 C1076 1.391 . S
C1078 C1079 1.380 1_554 S
C1079 C1078 1.380 1_556 S
C1079 C1080 1.419 . S
C1079 C1085 1.489 1_556 S
C1080 H1071 0.950 . S
C1080 C1079 1.419 . S
C1080 C1081 1.391 . S
C1081 H1069 0.950 . S
C1081 C1077 1.393 . S
C1081 C1080 1.391 . S
C1082 H1072 0.950 . S
C1082 C1083 1.386 1_556 S
C1082 C1084 1.391 . S
C1083 C1082 1.386 1_554 S
C1083 C1087 1.393 . S
C1084 H1073 0.950 . S
C1084 C1082 1.391 . S
C1084 C1085 1.379 1_556 S
C1085 C1079 1.489 1_554 S
C1085 C1084 1.379 1_554 S
C1085 C1086 1.420 . S
C1086 H1074 0.950 . S
C1086 C1085 1.420 . S
C1086 C1087 1.391 . S
C1087 H1075 0.950 . S
C1087 C1083 1.393 . S
C1087 C1086 1.391 . S
H1088 C1096 0.950 . S
H1089 C1101 0.950 . S
H1090 C1098 0.950 . S
H1091 C1100 0.950 . S
H1092 C1102 0.950 . S
H1093 C1104 0.950 . S
H1094 C1106 0.950 . S
H1095 C1107 0.950 . S
C1096 H1088 0.950 . S
C1096 C1097 1.386 . S
C1096 C1098 1.391 . S
C1097 C1096 1.386 . S
C1097 C1101 1.393 1_565 S
C1098 H1090 0.950 . S
C1098 C1096 1.391 . S
C1098 C1099 1.400 . S
C1099 C1098 1.400 . S
C1099 C1100 1.398 1_565 S
C1099 C1105 1.491 1_556 S
C1100 H1091 0.950 . S
C1100 C1099 1.398 1_545 S
C1100 C1101 1.391 . S
C1101 H1089 0.950 . S
C1101 C1097 1.393 1_545 S
C1101 C1100 1.391 . S
C1102 H1092 0.950 . S
C1102 C1103 1.386 1_545 S
C1102 C1104 1.391 . S
C1103 C1102 1.386 1_565 S
C1103 C1107 1.393 . S
C1104 H1093 0.950 . S
C1104 C1102 1.391 . S
C1104 C1105 1.400 1_545 S
C1105 C1099 1.491 1_554 S
C1105 C1104 1.400 1_565 S
C1105 C1106 1.398 . S
C1106 H1094 0.950 . S
C1106 C1105 1.398 . S
C1106 C1107 1.391 . S
C1107 H1095 0.950 . S
C1107 C1103 1.393 . S
C1107 C1106 1.391 . S
H1108 C1116 0.950 . S
H1109 C1121 0.950 . S
H1110 C1118 0.950 . S
H1111 C1120 0.950 . S
H1112 C1122 0.950 . S
H1113 C1124 0.950 . S
H1114 C1126 0.950 . S
H1115 C1127 0.950 . S
C1116 H1108 0.950 . S
C1116 C1117 1.386 . S
C1116 C1118 1.391 . S
C1117 C1116 1.386 . S
C1117 C1121 1.393 1_545 S
C1118 H1110 0.950 . S
C1118 C1116 1.391 . S
C1118 C1119 1.415 . S
C1119 C1118 1.415 . S
C1119 C1120 1.389 1_545 S
C1119 C1125 1.487 1_545 S
C1120 H1111 0.950 . S
C1120 C1119 1.389 1_565 S
C1120 C1121 1.391 . S
C1121 H1109 0.950 . S
C1121 C1117 1.393 1_565 S
C1121 C1120 1.391 . S
C1122 H1112 0.950 . S
C1122 C1123 1.386 . S
C1122 C1124 1.391 . S
C1123 C1122 1.386 . S
C1123 C1127 1.393 1_565 S
C1124 H1113 0.950 . S
C1124 C1122 1.391 . S
C1124 C1125 1.414 . S
C1125 C1119 1.487 1_565 S
C1125 C1124 1.414 . S
C1125 C1126 1.389 1_565 S
C1126 H1114 0.950 . S
C1126 C1125 1.389 1_545 S
C1126 C1127 1.391 . S
C1127 H1115 0.950 . S
C1127 C1123 1.393 1_545 S
C1127 C1126 1.391 . S
H1128 C1136 0.950 . S
H1129 C1141 0.950 . S
H1130 C1138 0.950 . S
H1131 C1140 0.950 . S
H1132 C1142 0.950 . S
H1133 C1144 0.950 . S
H1134 C1146 0.950 . S
H1135 C1147 0.950 . S
C1136 H1128 0.950 . S
C1136 C1137 1.386 . S
C1136 C1138 1.391 . S
C1137 C1136 1.386 . S
C1137 C1141 1.393 . S
C1138 H1130 0.950 . S
C1138 C1136 1.391 . S
C1138 C1139 1.400 . S
C1139 C1138 1.400 . S
C1139 C1140 1.398 . S
C1139 C1145 1.491 . S
C1140 H1131 0.950 . S
C1140 C1139 1.398 . S
C1140 C1141 1.391 . S
C1141 H1129 0.950 . S
C1141 C1137 1.393 . S
C1141 C1140 1.391 . S
C1142 H1132 0.950 . S
C1142 C1143 1.386 . S
C1142 C1144 1.391 . S
C1143 C1142 1.386 . S
C1143 C1147 1.393 . S
C1144 H1133 0.950 . S
C1144 C1142 1.391 . S
C1144 C1145 1.400 . S
C1145 C1139 1.491 . S
C1145 C1144 1.400 . S
C1145 C1146 1.398 . S
C1146 H1134 0.950 . S
C1146 C1145 1.398 . S
C1146 C1147 1.391 . S
C1147 H1135 0.950 . S
C1147 C1143 1.393 . S
C1147 C1146 1.391 . S
H1148 C1156 0.950 . S
H1149 C1161 0.950 . S
H1150 C1158 0.950 . S
H1151 C1160 0.950 . S
H1152 C1162 0.950 . S
H1153 C1164 0.950 . S
H1154 C1166 0.950 . S
H1155 C1167 0.950 . S
C1156 H1148 0.950 . S
C1156 C1157 1.386 . S
C1156 C1158 1.391 . S
C1157 C1156 1.386 . S
C1157 C1161 1.393 1_545 S
C1158 H1150 0.950 . S
C1158 C1156 1.391 . S
C1158 C1159 1.399 . S
C1159 C1158 1.399 . S
C1159 C1160 1.399 1_545 S
C1159 C1165 1.491 1_545 S
C1160 H1151 0.950 . S
C1160 C1159 1.399 1_565 S
C1160 C1161 1.391 . S
C1161 H1149 0.950 . S
C1161 C1157 1.393 1_565 S
C1161 C1160 1.391 . S
C1162 H1152 0.950 . S
C1162 C1163 1.386 . S
C1162 C1164 1.391 . S
C1163 C1162 1.386 . S
C1163 C1167 1.393 1_565 S
C1164 H1153 0.950 . S
C1164 C1162 1.391 . S
C1164 C1165 1.400 . S
C1165 C1159 1.491 1_565 S
C1165 C1164 1.400 . S
C1165 C1166 1.399 1_565 S
C1166 H1154 0.950 . S
C1166 C1165 1.399 1_545 S
C1166 C1167 1.391 . S
C1167 H1155 0.950 . S
C1167 C1163 1.393 1_545 S
C1167 C1166 1.391 . S
H1168 C1176 0.957 . S
H1169 C1181 0.950 . S
H1170 C1178 0.951 . S
H1171 C1180 0.950 . S
H1172 C1182 0.950 . S
H1173 C1184 0.950 . S
H1174 C1186 0.950 1_554 S
H1175 C1187 0.924 1_554 S
C1176 H1168 0.957 . S
C1176 C1177 1.379 1_554 S
C1176 C1178 1.391 . S
C1177 C1176 1.379 1_556 S
C1177 C1181 1.393 . S
C1178 H1170 0.951 . S
C1178 C1176 1.391 . S
C1178 C1179 1.399 1_554 S
C1179 C1178 1.399 1_556 S
C1179 C1180 1.398 . S
C1179 C1185 1.491 1_655 S
C1180 H1171 0.950 . S
C1180 C1179 1.398 . S
C1180 C1181 1.391 . S
C1181 H1169 0.950 . S
C1181 C1177 1.393 . S
C1181 C1180 1.391 . S
C1182 H1172 0.950 . S
C1182 C1183 1.386 . S
C1182 C1184 1.391 . S
C1183 C1182 1.386 . S
C1183 C1187 1.419 . S
C1184 H1173 0.950 . S
C1184 C1182 1.391 . S
C1184 C1185 1.400 . S
C1185 C1179 1.491 1_455 S
C1185 C1184 1.400 . S
C1185 C1186 1.398 . S
C1186 H1174 0.950 1_556 S
C1186 C1185 1.398 . S
C1186 C1187 1.392 . S
C1187 H1175 0.924 1_556 S
C1187 C1183 1.419 . S
C1187 C1186 1.392 . S
H1188 C1196 0.950 . S
H1189 C1201 0.950 . S
H1190 C1198 0.950 . S
H1191 C1200 0.950 . S
H1192 C1202 0.950 . S
H1193 C1204 0.950 . S
H1194 C1206 0.950 . S
H1195 C1207 0.950 . S
C1196 H1188 0.950 . S
C1196 C1197 1.386 1_556 S
C1196 C1198 1.391 . S
C1197 C1196 1.386 1_554 S
C1197 C1201 1.393 . S
C1198 H1190 0.950 . S
C1198 C1196 1.391 . S
C1198 C1199 1.400 1_556 S
C1199 C1198 1.400 1_554 S
C1199 C1200 1.398 . S
C1199 C1205 1.491 . S
C1200 H1191 0.950 . S
C1200 C1199 1.398 . S
C1200 C1201 1.391 . S
C1201 H1189 0.950 . S
C1201 C1197 1.393 . S
C1201 C1200 1.391 . S
C1202 H1192 0.950 . S
C1202 C1203 1.386 . S
C1202 C1204 1.391 . S
C1203 C1202 1.386 . S
C1203 C1207 1.393 1_554 S
C1204 H1193 0.950 . S
C1204 C1202 1.391 . S
C1204 C1205 1.400 . S
C1205 C1199 1.491 . S
C1205 C1204 1.400 . S
C1205 C1206 1.398 1_554 S
C1206 H1194 0.950 . S
C1206 C1205 1.398 1_556 S
C1206 C1207 1.391 . S
C1207 H1195 0.950 . S
C1207 C1203 1.393 1_556 S
C1207 C1206 1.391 . S
H1208 C1216 0.950 . S
H1209 C1221 0.950 . S
H1210 C1218 0.950 . S
H1211 C1220 0.950 . S
H1212 C1222 0.950 . S
H1213 C1224 0.950 . S
H1214 C1226 0.950 . S
H1215 C1227 0.950 . S
C1216 H1208 0.950 . S
C1216 C1217 1.386 1_655 S
C1216 C1218 1.391 . S
C1217 C1216 1.386 1_455 S
C1217 C1221 1.393 . S
C1218 H1210 0.950 . S
C1218 C1216 1.391 . S
C1218 C1219 1.401 1_655 S
C1219 C1218 1.401 1_455 S
C1219 C1220 1.398 . S
C1219 C1225 1.491 1_455 S
C1220 H1211 0.950 . S
C1220 C1219 1.398 . S
C1220 C1221 1.391 . S
C1221 H1209 0.950 . S
C1221 C1217 1.393 . S
C1221 C1220 1.391 . S
C1222 H1212 0.950 . S
C1222 C1223 1.386 1_455 S
C1222 C1224 1.391 . S
C1223 C1222 1.386 1_655 S
C1223 C1227 1.393 . S
C1224 H1213 0.950 . S
C1224 C1222 1.391 . S
C1224 C1225 1.401 1_455 S
C1225 C1219 1.491 1_655 S
C1225 C1224 1.401 1_655 S
C1225 C1226 1.398 . S
C1226 H1214 0.950 . S
C1226 C1225 1.398 . S
C1226 C1227 1.391 . S
C1227 H1215 0.950 . S
C1227 C1223 1.393 . S
C1227 C1226 1.391 . S
H1228 C1236 0.950 . S
H1229 C1241 0.950 . S
H1230 C1238 0.950 . S
H1231 C1240 0.950 . S
H1232 C1242 0.950 . S
H1233 C1244 0.950 . S
H1234 C1246 0.950 . S
H1235 C1247 0.950 . S
C1236 H1228 0.950 . S
C1236 C1237 1.386 . S
C1236 C1238 1.391 . S
C1237 C1236 1.386 . S
C1237 C1241 1.393 . S
C1238 H1230 0.950 . S
C1238 C1236 1.391 . S
C1238 C1239 1.400 . S
C1239 C1238 1.400 . S
C1239 C1240 1.398 . S
C1239 C1245 1.491 1_455 S
C1240 H1231 0.950 . S
C1240 C1239 1.398 . S
C1240 C1241 1.391 . S
C1241 H1229 0.950 . S
C1241 C1237 1.393 . S
C1241 C1240 1.391 . S
C1242 H1232 0.950 . S
C1242 C1243 1.386 . S
C1242 C1244 1.391 . S
C1243 C1242 1.386 . S
C1243 C1247 1.393 . S
C1244 H1233 0.950 . S
C1244 C1242 1.391 . S
C1244 C1245 1.400 . S
C1245 C1239 1.491 1_655 S
C1245 C1244 1.400 . S
C1245 C1246 1.398 . S
C1246 H1234 0.950 . S
C1246 C1245 1.398 . S
C1246 C1247 1.391 . S
C1247 H1235 0.950 . S
C1247 C1243 1.393 . S
C1247 C1246 1.391 . S
H1248 C1256 0.950 . S
H1249 C1261 0.950 . S
H1250 C1258 0.950 . S
H1251 C1260 0.950 . S
H1252 C1262 0.950 . S
H1253 C1264 0.950 . S
H1254 C1266 0.950 . S
H1255 C1267 0.950 . S
C1256 H1248 0.950 . S
C1256 C1257 1.386 . S
C1256 C1258 1.391 . S
C1257 C1256 1.386 . S
C1257 C1261 1.393 . S
C1258 H1250 0.950 . S
C1258 C1256 1.391 . S
C1258 C1259 1.400 . S
C1259 C1258 1.400 . S
C1259 C1260 1.398 . S
C1259 C1265 1.491 . S
C1260 H1251 0.950 . S
C1260 C1259 1.398 . S
C1260 C1261 1.391 . S
C1261 H1249 0.950 . S
C1261 C1257 1.393 . S
C1261 C1260 1.391 . S
C1262 H1252 0.950 . S
C1262 C1263 1.386 . S
C1262 C1264 1.391 . S
C1263 C1262 1.386 . S
C1263 C1267 1.393 . S
C1264 H1253 0.950 . S
C1264 C1262 1.391 . S
C1264 C1265 1.400 . S
C1265 C1259 1.491 . S
C1265 C1264 1.400 . S
C1265 C1266 1.398 . S
C1266 H1254 0.950 . S
C1266 C1265 1.398 . S
C1266 C1267 1.391 . S
C1267 H1255 0.950 . S
C1267 C1263 1.393 . S
C1267 C1266 1.391 . S
H1268 C1276 0.950 . S
H1269 C1281 0.950 . S
H1270 C1278 0.950 . S
H1271 C1280 0.950 . S
H1272 C1282 0.950 . S
H1273 C1284 0.950 . S
H1274 C1286 0.950 . S
H1275 C1287 0.950 . S
C1276 H1268 0.950 . S
C1276 C1277 1.386 1_655 S
C1276 C1278 1.391 . S
C1277 C1276 1.386 1_455 S
C1277 C1281 1.393 . S
C1278 H1270 0.950 . S
C1278 C1276 1.391 . S
C1278 C1279 1.381 1_655 S
C1279 C1278 1.381 1_455 S
C1279 C1280 1.422 . S
C1279 C1285 1.487 1_455 S
C1280 H1271 0.950 . S
C1280 C1279 1.422 . S
C1280 C1281 1.391 . S
C1281 H1269 0.950 . S
C1281 C1277 1.393 . S
C1281 C1280 1.391 . S
C1282 H1272 0.950 . S
C1282 C1283 1.386 1_455 S
C1282 C1284 1.391 . S
C1283 C1282 1.386 1_655 S
C1283 C1287 1.393 . S
C1284 H1273 0.950 . S
C1284 C1282 1.391 . S
C1284 C1285 1.380 1_455 S
C1285 C1279 1.487 1_655 S
C1285 C1284 1.380 1_655 S
C1285 C1286 1.422 . S
C1286 H1274 0.950 . S
C1286 C1285 1.422 . S
C1286 C1287 1.391 . S
C1287 H1275 0.950 . S
C1287 C1283 1.393 . S
C1287 C1286 1.391 . S
H1288 C1296 0.950 . S
H1289 C1301 0.950 . S
H1290 C1298 0.950 . S
H1291 C1300 0.950 . S
H1292 C1302 0.950 . S
H1293 C1304 0.950 . S
H1294 C1306 0.950 . S
H1295 C1307 0.950 . S
C1296 H1288 0.950 . S
C1296 C1297 1.386 . S
C1296 C1298 1.391 . S
C1297 C1296 1.386 . S
C1297 C1301 1.393 . S
C1298 H1290 0.950 . S
C1298 C1296 1.391 . S
C1298 C1299 1.400 . S
C1299 C1298 1.400 . S
C1299 C1300 1.398 . S
C1299 C1305 1.491 . S
C1300 H1291 0.950 . S
C1300 C1299 1.398 . S
C1300 C1301 1.391 . S
C1301 H1289 0.950 . S
C1301 C1297 1.393 . S
C1301 C1300 1.391 . S
C1302 H1292 0.950 . S
C1302 C1303 1.386 . S
C1302 C1304 1.391 . S
C1303 C1302 1.386 . S
C1303 C1307 1.393 . S
C1304 H1293 0.950 . S
C1304 C1302 1.391 . S
C1304 C1305 1.400 . S
C1305 C1299 1.491 . S
C1305 C1304 1.400 . S
C1305 C1306 1.398 . S
C1306 H1294 0.950 . S
C1306 C1305 1.398 . S
C1306 C1307 1.391 . S
C1307 H1295 0.950 . S
C1307 C1303 1.393 . S
C1307 C1306 1.391 . S
H1308 C1316 0.950 . S
H1309 C1321 0.950 . S
H1310 C1318 0.950 . S
H1311 C1320 0.950 . S
H1312 C1322 0.950 . S
H1313 C1324 0.950 . S
H1314 C1326 0.950 . S
H1315 C1327 0.950 . S
C1316 H1308 0.950 . S
C1316 C1317 1.386 . S
C1316 C1318 1.391 . S
C1317 C1316 1.386 . S
C1317 C1321 1.393 . S
C1318 H1310 0.950 . S
C1318 C1316 1.391 . S
C1318 C1319 1.400 . S
C1319 C1318 1.400 . S
C1319 C1320 1.398 . S
C1319 C1325 1.491 . S
C1320 H1311 0.950 . S
C1320 C1319 1.398 . S
C1320 C1321 1.391 . S
C1321 H1309 0.950 . S
C1321 C1317 1.393 . S
C1321 C1320 1.391 . S
C1322 H1312 0.950 . S
C1322 C1323 1.386 . S
C1322 C1324 1.391 . S
C1323 C1322 1.386 . S
C1323 C1327 1.393 . S
C1324 H1313 0.950 . S
C1324 C1322 1.391 . S
C1324 C1325 1.400 . S
C1325 C1319 1.491 . S
C1325 C1324 1.400 . S
C1325 C1326 1.398 . S
C1326 H1314 0.950 . S
C1326 C1325 1.398 . S
C1326 C1327 1.391 . S
C1327 H1315 0.950 . S
C1327 C1323 1.393 . S
C1327 C1326 1.391 . S
H1328 C1336 0.950 . S
H1329 C1341 0.950 . S
H1330 C1338 0.950 . S
H1331 C1340 0.950 . S
H1332 C1342 0.950 . S
H1333 C1344 0.950 . S
H1334 C1346 0.950 . S
H1335 C1347 0.950 . S
C1336 H1328 0.950 . S
C1336 C1337 1.386 1_556 S
C1336 C1338 1.391 . S
C1337 C1336 1.386 1_554 S
C1337 C1341 1.393 . S
C1338 H1330 0.950 . S
C1338 C1336 1.391 . S
C1338 C1339 1.385 1_556 S
C1339 C1338 1.385 1_554 S
C1339 C1340 1.418 . S
C1339 C1345 1.487 1_554 S
C1340 H1331 0.950 . S
C1340 C1339 1.418 . S
C1340 C1341 1.391 . S
C1341 H1329 0.950 . S
C1341 C1337 1.393 . S
C1341 C1340 1.391 . S
C1342 H1332 0.950 . S
C1342 C1343 1.386 1_554 S
C1342 C1344 1.391 . S
C1343 C1342 1.386 1_556 S
C1343 C1347 1.393 . S
C1344 H1333 0.950 . S
C1344 C1342 1.391 . S
C1344 C1345 1.384 1_554 S
C1345 C1339 1.487 1_556 S
C1345 C1344 1.384 1_556 S
C1345 C1346 1.419 . S
C1346 H1334 0.950 . S
C1346 C1345 1.419 . S
C1346 C1347 1.391 . S
C1347 H1335 0.950 . S
C1347 C1343 1.393 . S
C1347 C1346 1.391 . S
H1348 C1356 0.950 . S
H1349 C1361 0.950 . S
H1350 C1358 0.950 . S
H1351 C1360 0.950 . S
H1352 C1362 0.950 . S
H1353 C1364 0.950 . S
H1354 C1366 0.950 . S
H1355 C1367 0.950 . S
C1356 H1348 0.950 . S
C1356 C1357 1.386 . S
C1356 C1358 1.391 . S
C1357 C1356 1.386 . S
C1357 C1361 1.393 1_455 S
C1358 H1350 0.950 . S
C1358 C1356 1.391 . S
C1358 C1359 1.400 . S
C1359 C1358 1.400 . S
C1359 C1360 1.398 1_455 S
C1359 C1365 1.491 . S
C1360 H1351 0.950 . S
C1360 C1359 1.398 1_655 S
C1360 C1361 1.391 . S
C1361 H1349 0.950 . S
C1361 C1357 1.393 1_655 S
C1361 C1360 1.391 . S
C1362 H1352 0.950 . S
C1362 C1363 1.386 1_655 S
C1362 C1364 1.391 . S
C1363 C1362 1.386 1_455 S
C1363 C1367 1.393 . S
C1364 H1353 0.950 . S
C1364 C1362 1.391 . S
C1364 C1365 1.400 1_655 S
C1365 C1359 1.491 . S
C1365 C1364 1.400 1_455 S
C1365 C1366 1.398 . S
C1366 H1354 0.950 . S
C1366 C1365 1.398 . S
C1366 C1367 1.391 . S
C1367 H1355 0.950 . S
C1367 C1363 1.393 . S
C1367 C1366 1.391 . S
H1368 C1376 0.950 . S
H1369 C1381 0.950 . S
H1370 C1378 0.950 . S
H1371 C1380 0.950 . S
H1372 C1382 0.950 . S
H1373 C1384 0.950 . S
H1374 C1386 0.950 . S
H1375 C1387 0.950 . S
C1376 H1368 0.950 . S
C1376 C1377 1.386 . S
C1376 C1378 1.391 . S
C1377 C1376 1.386 . S
C1377 C1381 1.393 . S
C1378 H1370 0.950 . S
C1378 C1376 1.391 . S
C1378 C1379 1.400 . S
C1379 C1378 1.400 . S
C1379 C1380 1.398 . S
C1379 C1385 1.491 . S
C1380 H1371 0.950 . S
C1380 C1379 1.398 . S
C1380 C1381 1.391 . S
C1381 H1369 0.950 . S
C1381 C1377 1.393 . S
C1381 C1380 1.391 . S
C1382 H1372 0.950 . S
C1382 C1383 1.386 . S
C1382 C1384 1.391 . S
C1383 C1382 1.386 . S
C1383 C1387 1.393 . S
C1384 H1373 0.950 . S
C1384 C1382 1.391 . S
C1384 C1385 1.400 . S
C1385 C1379 1.491 . S
C1385 C1384 1.400 . S
C1385 C1386 1.398 . S
C1386 H1374 0.950 . S
C1386 C1385 1.398 . S
C1386 C1387 1.391 . S
C1387 H1375 0.950 . S
C1387 C1383 1.393 . S
C1387 C1386 1.391 . S
H1388 C1396 0.950 . S
H1389 C1401 0.950 . S
H1390 C1398 0.950 . S
H1391 C1400 0.950 . S
H1392 C1402 0.950 . S
H1393 C1404 0.950 . S
H1394 C1406 0.950 . S
H1395 C1407 0.950 . S
C1396 H1388 0.950 . S
C1396 C1397 1.386 . S
C1396 C1398 1.391 . S
C1397 C1396 1.386 . S
C1397 C1401 1.393 . S
C1398 H1390 0.950 . S
C1398 C1396 1.391 . S
C1398 C1399 1.400 . S
C1399 C1398 1.400 . S
C1399 C1400 1.398 . S
C1399 C1405 1.491 . S
C1400 H1391 0.950 . S
C1400 C1399 1.398 . S
C1400 C1401 1.391 . S
C1401 H1389 0.950 . S
C1401 C1397 1.393 . S
C1401 C1400 1.391 . S
C1402 H1392 0.950 . S
C1402 C1403 1.386 . S
C1402 C1404 1.391 . S
C1403 C1402 1.386 . S
C1403 C1407 1.393 . S
C1404 H1393 0.950 . S
C1404 C1402 1.391 . S
C1404 C1405 1.400 . S
C1405 C1399 1.491 . S
C1405 C1404 1.400 . S
C1405 C1406 1.398 . S
C1406 H1394 0.950 . S
C1406 C1405 1.398 . S
C1406 C1407 1.391 . S
C1407 H1395 0.950 . S
C1407 C1403 1.393 . S
C1407 C1406 1.391 . S
H1408 C1416 0.950 . S
H1409 C1421 0.950 . S
H1410 C1418 0.950 . S
H1411 C1420 0.950 . S
H1412 C1422 0.950 . S
H1413 C1424 0.950 . S
H1414 C1426 0.950 . S
H1415 C1427 0.950 . S
C1416 H1408 0.950 . S
C1416 C1417 1.386 . S
C1416 C1418 1.391 . S
C1417 C1416 1.386 . S
C1417 C1421 1.393 . S
C1418 H1410 0.950 . S
C1418 C1416 1.391 . S
C1418 C1419 1.400 . S
C1419 C1418 1.400 . S
C1419 C1420 1.398 . S
C1419 C1425 1.491 . S
C1420 H1411 0.950 . S
C1420 C1419 1.398 . S
C1420 C1421 1.391 . S
C1421 H1409 0.950 . S
C1421 C1417 1.393 . S
C1421 C1420 1.391 . S
C1422 H1412 0.950 . S
C1422 C1423 1.386 . S
C1422 C1424 1.391 . S
C1423 C1422 1.386 . S
C1423 C1427 1.393 . S
C1424 H1413 0.950 . S
C1424 C1422 1.391 . S
C1424 C1425 1.400 . S
C1425 C1419 1.491 . S
C1425 C1424 1.400 . S
C1425 C1426 1.398 . S
C1426 H1414 0.950 . S
C1426 C1425 1.398 . S
C1426 C1427 1.391 . S
C1427 H1415 0.950 . S
C1427 C1423 1.393 . S
C1427 C1426 1.391 . S
H1428 C1436 0.950 . S
H1429 C1441 0.950 . S
H1430 C1438 0.950 . S
H1431 C1440 0.950 . S
H1432 C1442 0.950 . S
H1433 C1444 0.950 . S
H1434 C1446 0.950 . S
H1435 C1447 0.950 . S
C1436 H1428 0.950 . S
C1436 C1437 1.386 . S
C1436 C1438 1.391 . S
C1437 C1436 1.386 . S
C1437 C1441 1.393 . S
C1438 H1430 0.950 . S
C1438 C1436 1.391 . S
C1438 C1439 1.400 . S
C1439 C1438 1.400 . S
C1439 C1440 1.398 . S
C1439 C1445 1.491 1_554 S
C1440 H1431 0.950 . S
C1440 C1439 1.398 . S
C1440 C1441 1.391 . S
C1441 H1429 0.950 . S
C1441 C1437 1.393 . S
C1441 C1440 1.391 . S
C1442 H1432 0.950 . S
C1442 C1443 1.386 . S
C1442 C1444 1.391 . S
C1443 C1442 1.386 . S
C1443 C1447 1.393 . S
C1444 H1433 0.950 . S
C1444 C1442 1.391 . S
C1444 C1445 1.400 . S
C1445 C1439 1.491 1_556 S
C1445 C1444 1.400 . S
C1445 C1446 1.398 . S
C1446 H1434 0.950 . S
C1446 C1445 1.398 . S
C1446 C1447 1.391 . S
C1447 H1435 0.950 . S
C1447 C1443 1.393 . S
C1447 C1446 1.391 . S
H1448 C1456 0.950 . S
H1449 C1461 0.950 . S
H1450 C1458 0.950 . S
H1451 C1460 0.950 . S
H1452 C1462 0.950 . S
H1453 C1464 0.950 . S
H1454 C1466 0.950 . S
H1455 C1467 0.950 . S
C1456 H1448 0.950 . S
C1456 C1457 1.386 . S
C1456 C1458 1.391 . S
C1457 C1456 1.386 . S
C1457 C1461 1.393 . S
C1458 H1450 0.950 . S
C1458 C1456 1.391 . S
C1458 C1459 1.400 . S
C1459 C1458 1.400 . S
C1459 C1460 1.398 . S
C1459 C1465 1.491 . S
C1460 H1451 0.950 . S
C1460 C1459 1.398 . S
C1460 C1461 1.391 . S
C1461 H1449 0.950 . S
C1461 C1457 1.393 . S
C1461 C1460 1.391 . S
C1462 H1452 0.950 . S
C1462 C1463 1.386 . S
C1462 C1464 1.391 . S
C1463 C1462 1.386 . S
C1463 C1467 1.393 . S
C1464 H1453 0.950 . S
C1464 C1462 1.391 . S
C1464 C1465 1.400 . S
C1465 C1459 1.491 . S
C1465 C1464 1.400 . S
C1465 C1466 1.398 . S
C1466 H1454 0.950 . S
C1466 C1465 1.398 . S
C1466 C1467 1.391 . S
C1467 H1455 0.950 . S
C1467 C1463 1.393 . S
C1467 C1466 1.391 . S
H1468 C1476 0.950 . S
H1469 C1481 0.950 . S
H1470 C1478 0.950 . S
H1471 C1480 0.950 . S
H1472 C1482 0.950 . S
H1473 C1484 0.950 . S
H1474 C1486 0.950 . S
H1475 C1487 0.950 . S
C1476 H1468 0.950 . S
C1476 C1477 1.386 . S
C1476 C1478 1.391 . S
C1477 C1476 1.386 . S
C1477 C1481 1.393 . S
C1478 H1470 0.950 . S
C1478 C1476 1.391 . S
C1478 C1479 1.400 . S
C1479 C1478 1.400 . S
C1479 C1480 1.398 . S
C1479 C1485 1.491 . S
C1480 H1471 0.950 . S
C1480 C1479 1.398 . S
C1480 C1481 1.391 . S
C1481 H1469 0.950 . S
C1481 C1477 1.393 . S
C1481 C1480 1.391 . S
C1482 H1472 0.950 . S
C1482 C1483 1.386 . S
C1482 C1484 1.391 . S
C1483 C1482 1.386 . S
C1483 C1487 1.393 . S
C1484 H1473 0.950 . S
C1484 C1482 1.391 . S
C1484 C1485 1.400 . S
C1485 C1479 1.491 . S
C1485 C1484 1.400 . S
C1485 C1486 1.398 . S
C1486 H1474 0.950 . S
C1486 C1485 1.398 . S
C1486 C1487 1.391 . S
C1487 H1475 0.950 . S
C1487 C1483 1.393 . S
C1487 C1486 1.391 . S
H1488 C1496 0.950 . S
H1489 C1501 0.950 . S
H1490 C1498 0.950 . S
H1491 C1500 0.950 . S
H1492 C1502 0.950 . S
H1493 C1504 0.950 . S
H1494 C1506 0.950 . S
H1495 C1507 0.950 . S
C1496 H1488 0.950 . S
C1496 C1497 1.386 . S
C1496 C1498 1.391 . S
C1497 C1496 1.386 . S
C1497 C1501 1.393 . S
C1498 H1490 0.950 . S
C1498 C1496 1.391 . S
C1498 C1499 1.400 . S
C1499 C1498 1.400 . S
C1499 C1500 1.398 . S
C1499 C1505 1.491 . S
C1500 H1491 0.950 . S
C1500 C1499 1.398 . S
C1500 C1501 1.391 . S
C1501 H1489 0.950 . S
C1501 C1497 1.393 . S
C1501 C1500 1.391 . S
C1502 H1492 0.950 . S
C1502 C1503 1.386 . S
C1502 C1504 1.391 . S
C1503 C1502 1.386 . S
C1503 C1507 1.393 . S
C1504 H1493 0.950 . S
C1504 C1502 1.391 . S
C1504 C1505 1.400 . S
C1505 C1499 1.491 . S
C1505 C1504 1.400 . S
C1505 C1506 1.398 . S
C1506 H1494 0.950 . S
C1506 C1505 1.398 . S
C1506 C1507 1.391 . S
C1507 H1495 0.950 . S
C1507 C1503 1.393 . S
C1507 C1506 1.391 . S
H1508 C1516 0.950 . S
H1509 C1521 0.950 . S
H1510 C1518 0.950 . S
H1511 C1520 0.950 . S
H1512 C1522 0.950 . S
H1513 C1524 0.950 . S
H1514 C1526 0.950 . S
H1515 C1527 0.950 . S
C1516 H1508 0.950 . S
C1516 C1517 1.386 . S
C1516 C1518 1.391 . S
C1517 C1516 1.386 . S
C1517 C1521 1.393 . S
C1518 H1510 0.950 . S
C1518 C1516 1.391 . S
C1518 C1519 1.400 . S
C1519 C1518 1.400 . S
C1519 C1520 1.398 . S
C1519 C1525 1.491 . S
C1520 H1511 0.950 . S
C1520 C1519 1.398 . S
C1520 C1521 1.391 . S
C1521 H1509 0.950 . S
C1521 C1517 1.393 . S
C1521 C1520 1.391 . S
C1522 H1512 0.950 . S
C1522 C1523 1.386 . S
C1522 C1524 1.391 . S
C1523 C1522 1.386 . S
C1523 C1527 1.393 . S
C1524 H1513 0.950 . S
C1524 C1522 1.391 . S
C1524 C1525 1.400 . S
C1525 C1519 1.491 . S
C1525 C1524 1.400 . S
C1525 C1526 1.398 . S
C1526 H1514 0.950 . S
C1526 C1525 1.398 . S
C1526 C1527 1.391 . S
C1527 H1515 0.950 . S
C1527 C1523 1.393 . S
C1527 C1526 1.391 . S
H1528 C1536 0.950 . S
H1529 C1541 0.950 . S
H1530 C1538 0.950 . S
H1531 C1540 0.950 . S
H1532 C1542 0.950 . S
H1533 C1544 0.950 . S
H1534 C1546 0.950 . S
H1535 C1547 0.950 . S
C1536 H1528 0.950 . S
C1536 C1537 1.386 . S
C1536 C1538 1.391 . S
C1537 C1536 1.386 . S
C1537 C1541 1.393 . S
C1538 H1530 0.950 . S
C1538 C1536 1.391 . S
C1538 C1539 1.400 . S
C1539 C1538 1.400 . S
C1539 C1540 1.398 . S
C1539 C1545 1.491 . S
C1540 H1531 0.950 . S
C1540 C1539 1.398 . S
C1540 C1541 1.391 . S
C1541 H1529 0.950 . S
C1541 C1537 1.393 . S
C1541 C1540 1.391 . S
C1542 H1532 0.950 . S
C1542 C1543 1.386 . S
C1542 C1544 1.391 . S
C1543 C1542 1.386 . S
C1543 C1547 1.393 . S
C1544 H1533 0.950 . S
C1544 C1542 1.391 . S
C1544 C1545 1.400 . S
C1545 C1539 1.491 . S
C1545 C1544 1.400 . S
C1545 C1546 1.398 . S
C1546 H1534 0.950 . S
C1546 C1545 1.398 . S
C1546 C1547 1.391 . S
C1547 H1535 0.950 . S
C1547 C1543 1.393 . S
C1547 C1546 1.391 . S
H1548 C1556 0.950 . S
H1549 C1561 0.950 . S
H1550 C1558 0.950 . S
H1551 C1560 0.950 . S
H1552 C1562 0.950 . S
H1553 C1564 0.950 . S
H1554 C1566 0.950 . S
H1555 C1567 0.950 . S
C1556 H1548 0.950 . S
C1556 C1557 1.386 . S
C1556 C1558 1.391 . S
C1557 C1556 1.386 . S
C1557 C1561 1.393 . S
C1558 H1550 0.950 . S
C1558 C1556 1.391 . S
C1558 C1559 1.400 . S
C1559 C1558 1.400 . S
C1559 C1560 1.398 . S
C1559 C1565 1.491 . S
C1560 H1551 0.950 . S
C1560 C1559 1.398 . S
C1560 C1561 1.391 . S
C1561 H1549 0.950 . S
C1561 C1557 1.393 . S
C1561 C1560 1.391 . S
C1562 H1552 0.950 . S
C1562 C1563 1.386 . S
C1562 C1564 1.391 . S
C1563 C1562 1.386 . S
C1563 C1567 1.393 . S
C1564 H1553 0.950 . S
C1564 C1562 1.391 . S
C1564 C1565 1.400 . S
C1565 C1559 1.491 . S
C1565 C1564 1.400 . S
C1565 C1566 1.398 . S
C1566 H1554 0.950 . S
C1566 C1565 1.398 . S
C1566 C1567 1.391 . S
C1567 H1555 0.950 . S
C1567 C1563 1.393 . S
C1567 C1566 1.391 . S
H1568 C1576 0.950 . S
H1569 C1581 0.950 . S
H1570 C1578 0.950 . S
H1571 C1580 0.950 . S
H1572 C1582 0.950 . S
H1573 C1584 0.950 . S
H1574 C1586 0.950 . S
H1575 C1587 0.950 . S
C1576 H1568 0.950 . S
C1576 C1577 1.386 . S
C1576 C1578 1.391 . S
C1577 C1576 1.386 . S
C1577 C1581 1.393 . S
C1578 H1570 0.950 . S
C1578 C1576 1.391 . S
C1578 C1579 1.400 . S
C1579 C1578 1.400 . S
C1579 C1580 1.398 . S
C1579 C1585 1.491 . S
C1580 H1571 0.950 . S
C1580 C1579 1.398 . S
C1580 C1581 1.391 . S
C1581 H1569 0.950 . S
C1581 C1577 1.393 . S
C1581 C1580 1.391 . S
C1582 H1572 0.950 . S
C1582 C1583 1.386 . S
C1582 C1584 1.391 . S
C1583 C1582 1.386 . S
C1583 C1587 1.393 . S
C1584 H1573 0.950 . S
C1584 C1582 1.391 . S
C1584 C1585 1.400 . S
C1585 C1579 1.491 . S
C1585 C1584 1.400 . S
C1585 C1586 1.398 . S
C1586 H1574 0.950 . S
C1586 C1585 1.398 . S
C1586 C1587 1.391 . S
C1587 H1575 0.950 . S
C1587 C1583 1.393 . S
C1587 C1586 1.391 . S
H1588 C1596 0.950 . S
H1589 C1601 0.950 . S
H1590 C1598 0.950 . S
H1591 C1600 0.950 . S
H1592 C1602 0.950 . S
H1593 C1604 0.950 . S
H1594 C1606 0.950 . S
H1595 C1607 0.950 . S
C1596 H1588 0.950 . S
C1596 C1597 1.386 . S
C1596 C1598 1.391 . S
C1597 C1596 1.386 . S
C1597 C1601 1.393 . S
C1598 H1590 0.950 . S
C1598 C1596 1.391 . S
C1598 C1599 1.400 . S
C1599 C1598 1.400 . S
C1599 C1600 1.398 . S
C1599 C1605 1.491 . S
C1600 H1591 0.950 . S
C1600 C1599 1.398 . S
C1600 C1601 1.391 . S
C1601 H1589 0.950 . S
C1601 C1597 1.393 . S
C1601 C1600 1.391 . S
C1602 H1592 0.950 . S
C1602 C1603 1.386 . S
C1602 C1604 1.391 . S
C1603 C1602 1.386 . S
C1603 C1607 1.393 . S
C1604 H1593 0.950 . S
C1604 C1602 1.391 . S
C1604 C1605 1.400 . S
C1605 C1599 1.491 . S
C1605 C1604 1.400 . S
C1605 C1606 1.398 . S
C1606 H1594 0.950 . S
C1606 C1605 1.398 . S
C1606 C1607 1.391 . S
C1607 H1595 0.950 . S
C1607 C1603 1.393 . S
C1607 C1606 1.391 . S
H1608 C1616 0.950 . S
H1609 C1621 0.950 . S
H1610 C1618 0.950 . S
H1611 C1620 0.950 . S
H1612 C1622 0.950 . S
H1613 C1624 0.950 . S
H1614 C1626 0.950 . S
H1615 C1627 0.950 . S
C1616 H1608 0.950 . S
C1616 C1617 1.386 . S
C1616 C1618 1.391 . S
C1617 C1616 1.386 . S
C1617 C1621 1.393 . S
C1618 H1610 0.950 . S
C1618 C1616 1.391 . S
C1618 C1619 1.400 . S
C1619 C1618 1.400 . S
C1619 C1620 1.398 . S
C1619 C1625 1.491 . S
C1620 H1611 0.950 . S
C1620 C1619 1.398 . S
C1620 C1621 1.391 . S
C1621 H1609 0.950 . S
C1621 C1617 1.393 . S
C1621 C1620 1.391 . S
C1622 H1612 0.950 . S
C1622 C1623 1.386 . S
C1622 C1624 1.391 . S
C1623 C1622 1.386 . S
C1623 C1627 1.393 . S
C1624 H1613 0.950 . S
C1624 C1622 1.391 . S
C1624 C1625 1.400 . S
C1625 C1619 1.491 . S
C1625 C1624 1.400 . S
C1625 C1626 1.398 . S
C1626 H1614 0.950 . S
C1626 C1625 1.398 . S
C1626 C1627 1.391 . S
C1627 H1615 0.950 . S
C1627 C1623 1.393 . S
C1627 C1626 1.391 . S
H1628 C1636 0.950 . S
H1629 C1641 0.950 . S
H1630 C1638 0.950 . S
H1631 C1640 0.950 . S
H1632 C1642 0.950 . S
H1633 C1644 0.950 . S
H1634 C1646 0.950 . S
H1635 C1647 0.950 . S
C1636 H1628 0.950 . S
C1636 C1637 1.386 . S
C1636 C1638 1.391 . S
C1637 C1636 1.386 . S
C1637 C1641 1.393 . S
C1638 H1630 0.950 . S
C1638 C1636 1.391 . S
C1638 C1639 1.400 . S
C1639 C1638 1.400 . S
C1639 C1640 1.398 . S
C1639 C1645 1.491 . S
C1640 H1631 0.950 . S
C1640 C1639 1.398 . S
C1640 C1641 1.391 . S
C1641 H1629 0.950 . S
C1641 C1637 1.393 . S
C1641 C1640 1.391 . S
C1642 H1632 0.950 . S
C1642 C1643 1.386 . S
C1642 C1644 1.391 . S
C1643 C1642 1.386 . S
C1643 C1647 1.393 . S
C1644 H1633 0.950 . S
C1644 C1642 1.391 . S
C1644 C1645 1.400 . S
C1645 C1639 1.491 . S
C1645 C1644 1.400 . S
C1645 C1646 1.398 . S
C1646 H1634 0.950 . S
C1646 C1645 1.398 . S
C1646 C1647 1.391 . S
C1647 H1635 0.950 . S
C1647 C1643 1.393 . S
C1647 C1646 1.391 . S
H1648 C1656 0.950 . S
H1649 C1661 0.950 . S
H1650 C1658 0.950 . S
H1651 C1660 0.950 . S
H1652 C1662 0.950 . S
H1653 C1664 0.950 . S
H1654 C1666 0.950 . S
H1655 C1667 0.950 . S
C1656 H1648 0.950 . S
C1656 C1657 1.386 . S
C1656 C1658 1.391 . S
C1657 C1656 1.386 . S
C1657 C1661 1.393 . S
C1658 H1650 0.950 . S
C1658 C1656 1.391 . S
C1658 C1659 1.400 . S
C1659 C1658 1.400 . S
C1659 C1660 1.398 . S
C1659 C1665 1.491 . S
C1660 H1651 0.950 . S
C1660 C1659 1.398 . S
C1660 C1661 1.391 . S
C1661 H1649 0.950 . S
C1661 C1657 1.393 . S
C1661 C1660 1.391 . S
C1662 H1652 0.950 . S
C1662 C1663 1.386 . S
C1662 C1664 1.391 . S
C1663 C1662 1.386 . S
C1663 C1667 1.393 . S
C1664 H1653 0.950 . S
C1664 C1662 1.391 . S
C1664 C1665 1.400 . S
C1665 C1659 1.491 . S
C1665 C1664 1.400 . S
C1665 C1666 1.398 . S
C1666 H1654 0.950 . S
C1666 C1665 1.398 . S
C1666 C1667 1.391 . S
C1667 H1655 0.950 . S
C1667 C1663 1.393 . S
C1667 C1666 1.391 . S
H1668 C1676 0.950 . S
H1669 C1681 0.950 . S
H1670 C1678 0.950 . S
H1671 C1680 0.950 . S
H1672 C1682 0.950 . S
H1673 C1684 0.950 . S
H1674 C1686 0.950 . S
H1675 C1687 0.950 . S
C1676 H1668 0.950 . S
C1676 C1677 1.386 . S
C1676 C1678 1.391 . S
C1677 C1676 1.386 . S
C1677 C1681 1.393 . S
C1678 H1670 0.950 . S
C1678 C1676 1.391 . S
C1678 C1679 1.400 . S
C1679 C1678 1.400 . S
C1679 C1680 1.398 . S
C1679 C1685 1.491 . S
C1680 H1671 0.950 . S
C1680 C1679 1.398 . S
C1680 C1681 1.391 . S
C1681 H1669 0.950 . S
C1681 C1677 1.393 . S
C1681 C1680 1.391 . S
C1682 H1672 0.950 . S
C1682 C1683 1.386 . S
C1682 C1684 1.391 . S
C1683 C1682 1.386 . S
C1683 C1687 1.393 . S
C1684 H1673 0.950 . S
C1684 C1682 1.391 . S
C1684 C1685 1.400 . S
C1685 C1679 1.491 . S
C1685 C1684 1.400 . S
C1685 C1686 1.398 . S
C1686 H1674 0.950 . S
C1686 C1685 1.398 . S
C1686 C1687 1.391 . S
C1687 H1675 0.950 . S
C1687 C1683 1.393 . S
C1687 C1686 1.391 . S
H1688 C1696 0.950 . S
H1689 C1701 0.950 . S
H1690 C1698 0.950 . S
H1691 C1700 0.950 . S
H1692 C1702 0.950 . S
H1693 C1704 0.950 . S
H1694 C1706 0.950 . S
H1695 C1707 0.950 . S
C1696 H1688 0.950 . S
C1696 C1697 1.386 . S
C1696 C1698 1.391 . S
C1697 C1696 1.386 . S
C1697 C1701 1.393 . S
C1698 H1690 0.950 . S
C1698 C1696 1.391 . S
C1698 C1699 1.400 . S
C1699 C1698 1.400 . S
C1699 C1700 1.398 . S
C1699 C1705 1.491 . S
C1700 H1691 0.950 . S
C1700 C1699 1.398 . S
C1700 C1701 1.391 . S
C1701 H1689 0.950 . S
C1701 C1697 1.393 . S
C1701 C1700 1.391 . S
C1702 H1692 0.950 . S
C1702 C1703 1.386 . S
C1702 C1704 1.391 . S
C1703 C1702 1.386 . S
C1703 C1707 1.393 . S
C1704 H1693 0.950 . S
C1704 C1702 1.391 . S
C1704 C1705 1.400 . S
C1705 C1699 1.491 . S
C1705 C1704 1.400 . S
C1705 C1706 1.398 . S
C1706 H1694 0.950 . S
C1706 C1705 1.398 . S
C1706 C1707 1.391 . S
C1707 H1695 0.950 . S
C1707 C1703 1.393 . S
C1707 C1706 1.391 . S
H1708 C1716 0.950 . S
H1709 C1721 0.950 . S
H1710 C1718 0.950 . S
H1711 C1720 0.950 . S
H1712 C1722 0.950 . S
H1713 C1724 0.950 . S
H1714 C1726 0.950 . S
H1715 C1727 0.950 . S
C1716 H1708 0.950 . S
C1716 C1717 1.386 . S
C1716 C1718 1.391 . S
C1717 C1716 1.386 . S
C1717 C1721 1.393 . S
C1718 H1710 0.950 . S
C1718 C1716 1.391 . S
C1718 C1719 1.400 . S
C1719 C1718 1.400 . S
C1719 C1720 1.398 . S
C1719 C1725 1.491 . S
C1720 H1711 0.950 . S
C1720 C1719 1.398 . S
C1720 C1721 1.391 . S
C1721 H1709 0.950 . S
C1721 C1717 1.393 . S
C1721 C1720 1.391 . S
C1722 H1712 0.950 . S
C1722 C1723 1.386 . S
C1722 C1724 1.391 . S
C1723 C1722 1.386 . S
C1723 C1727 1.393 . S
C1724 H1713 0.950 . S
C1724 C1722 1.391 . S
C1724 C1725 1.400 . S
C1725 C1719 1.491 . S
C1725 C1724 1.400 . S
C1725 C1726 1.398 . S
C1726 H1714 0.950 . S
C1726 C1725 1.398 . S
C1726 C1727 1.391 . S
C1727 H1715 0.950 . S
C1727 C1723 1.393 . S
C1727 C1726 1.391 . S
H1728 C1736 0.950 . S
H1729 C1741 0.950 . S
H1730 C1738 0.950 . S
H1731 C1740 0.950 . S
H1732 C1742 0.950 . S
H1733 C1744 0.950 . S
H1734 C1746 0.950 . S
H1735 C1747 0.950 . S
C1736 H1728 0.950 . S
C1736 C1737 1.386 . S
C1736 C1738 1.391 . S
C1737 C1736 1.386 . S
C1737 C1741 1.393 . S
C1738 H1730 0.950 . S
C1738 C1736 1.391 . S
C1738 C1739 1.400 . S
C1739 C1738 1.400 . S
C1739 C1740 1.398 . S
C1739 C1745 1.491 . S
C1740 H1731 0.950 . S
C1740 C1739 1.398 . S
C1740 C1741 1.391 . S
C1741 H1729 0.950 . S
C1741 C1737 1.393 . S
C1741 C1740 1.391 . S
C1742 H1732 0.950 . S
C1742 C1743 1.386 . S
C1742 C1744 1.391 . S
C1743 C1742 1.386 . S
C1743 C1747 1.393 . S
C1744 H1733 0.950 . S
C1744 C1742 1.391 . S
C1744 C1745 1.400 . S
C1745 C1739 1.491 . S
C1745 C1744 1.400 . S
C1745 C1746 1.398 . S
C1746 H1734 0.950 . S
C1746 C1745 1.398 . S
C1746 C1747 1.391 . S
C1747 H1735 0.950 . S
C1747 C1743 1.393 . S
C1747 C1746 1.391 . S
H1748 C1756 0.950 . S
H1749 C1761 0.950 . S
H1750 C1758 0.950 . S
H1751 C1760 0.950 . S
H1752 C1762 0.950 . S
H1753 C1764 0.950 . S
H1754 C1766 0.950 . S
H1755 C1767 0.950 . S
C1756 H1748 0.950 . S
C1756 C1757 1.386 . S
C1756 C1758 1.391 . S
C1757 C1756 1.386 . S
C1757 C1761 1.393 . S
C1758 H1750 0.950 . S
C1758 C1756 1.391 . S
C1758 C1759 1.400 . S
C1759 C1758 1.400 . S
C1759 C1760 1.398 . S
C1759 C1765 1.491 . S
C1760 H1751 0.950 . S
C1760 C1759 1.398 . S
C1760 C1761 1.391 . S
C1761 H1749 0.950 . S
C1761 C1757 1.393 . S
C1761 C1760 1.391 . S
C1762 H1752 0.950 . S
C1762 C1763 1.386 . S
C1762 C1764 1.391 . S
C1763 C1762 1.386 . S
C1763 C1767 1.393 . S
C1764 H1753 0.950 . S
C1764 C1762 1.391 . S
C1764 C1765 1.400 . S
C1765 C1759 1.491 . S
C1765 C1764 1.400 . S
C1765 C1766 1.398 . S
C1766 H1754 0.950 . S
C1766 C1765 1.398 . S
C1766 C1767 1.391 . S
C1767 H1755 0.950 . S
C1767 C1763 1.393 . S
C1767 C1766 1.391 . S
H1768 C1776 0.950 . S
H1769 C1781 0.950 . S
H1770 C1778 0.950 . S
H1771 C1780 0.950 . S
H1772 C1782 0.950 . S
H1773 C1784 0.950 . S
H1774 C1786 0.950 . S
H1775 C1787 0.950 . S
C1776 H1768 0.950 . S
C1776 C1777 1.386 . S
C1776 C1778 1.391 . S
C1777 C1776 1.386 . S
C1777 C1781 1.393 . S
C1778 H1770 0.950 . S
C1778 C1776 1.391 . S
C1778 C1779 1.400 . S
C1779 C1778 1.400 . S
C1779 C1780 1.398 . S
C1779 C1785 1.491 . S
C1780 H1771 0.950 . S
C1780 C1779 1.398 . S
C1780 C1781 1.391 . S
C1781 H1769 0.950 . S
C1781 C1777 1.393 . S
C1781 C1780 1.391 . S
C1782 H1772 0.950 . S
C1782 C1783 1.386 . S
C1782 C1784 1.391 . S
C1783 C1782 1.386 . S
C1783 C1787 1.393 . S
C1784 H1773 0.950 . S
C1784 C1782 1.391 . S
C1784 C1785 1.400 . S
C1785 C1779 1.491 . S
C1785 C1784 1.400 . S
C1785 C1786 1.398 . S
C1786 H1774 0.950 . S
C1786 C1785 1.398 . S
C1786 C1787 1.391 . S
C1787 H1775 0.950 . S
C1787 C1783 1.393 . S
C1787 C1786 1.391 . S
H1788 C1796 0.950 . S
H1789 C1801 0.950 . S
H1790 C1798 0.950 . S
H1791 C1800 0.950 . S
H1792 C1802 0.950 . S
H1793 C1804 0.950 . S
H1794 C1806 0.950 . S
H1795 C1807 0.950 . S
C1796 H1788 0.950 . S
C1796 C1797 1.386 . S
C1796 C1798 1.391 . S
C1797 C1796 1.386 . S
C1797 C1801 1.393 . S
C1798 H1790 0.950 . S
C1798 C1796 1.391 . S
C1798 C1799 1.400 . S
C1799 C1798 1.400 . S
C1799 C1800 1.398 . S
C1799 C1805 1.491 . S
C1800 H1791 0.950 . S
C1800 C1799 1.398 . S
C1800 C1801 1.391 . S
C1801 H1789 0.950 . S
C1801 C1797 1.393 . S
C1801 C1800 1.391 . S
C1802 H1792 0.950 . S
C1802 C1803 1.386 . S
C1802 C1804 1.391 . S
C1803 C1802 1.386 . S
C1803 C1807 1.393 . S
C1804 H1793 0.950 . S
C1804 C1802 1.391 . S
C1804 C1805 1.400 . S
C1805 C1799 1.491 . S
C1805 C1804 1.400 . S
C1805 C1806 1.398 . S
C1806 H1794 0.950 . S
C1806 C1805 1.398 . S
C1806 C1807 1.391 . S
C1807 H1795 0.950 . S
C1807 C1803 1.393 . S
C1807 C1806 1.391 . S
H1808 C1816 0.950 . S
H1809 C1821 0.950 . S
H1810 C1818 0.950 . S
H1811 C1820 0.950 . S
H1812 C1822 0.950 . S
H1813 C1824 0.950 . S
H1814 C1826 0.950 . S
H1815 C1827 0.950 . S
C1816 H1808 0.950 . S
C1816 C1817 1.386 . S
C1816 C1818 1.391 . S
C1817 C1816 1.386 . S
C1817 C1821 1.393 . S
C1818 H1810 0.950 . S
C1818 C1816 1.391 . S
C1818 C1819 1.400 . S
C1819 C1818 1.400 . S
C1819 C1820 1.398 . S
C1819 C1825 1.491 . S
C1820 H1811 0.950 . S
C1820 C1819 1.398 . S
C1820 C1821 1.391 . S
C1821 H1809 0.950 . S
C1821 C1817 1.393 . S
C1821 C1820 1.391 . S
C1822 H1812 0.950 . S
C1822 C1823 1.386 . S
C1822 C1824 1.391 . S
C1823 C1822 1.386 . S
C1823 C1827 1.393 . S
C1824 H1813 0.950 . S
C1824 C1822 1.391 . S
C1824 C1825 1.400 . S
C1825 C1819 1.491 . S
C1825 C1824 1.400 . S
C1825 C1826 1.398 . S
C1826 H1814 0.950 . S
C1826 C1825 1.398 . S
C1826 C1827 1.391 . S
C1827 H1815 0.950 . S
C1827 C1823 1.393 . S
C1827 C1826 1.391 . S
H1828 C1836 0.950 . S
H1829 C1841 0.950 . S
H1830 C1838 0.950 . S
H1831 C1840 0.950 . S
H1832 C1842 0.950 . S
H1833 C1844 0.950 . S
H1834 C1846 0.950 . S
H1835 C1847 0.950 . S
C1836 H1828 0.950 . S
C1836 C1837 1.386 . S
C1836 C1838 1.391 . S
C1837 C1836 1.386 . S
C1837 C1841 1.393 . S
C1838 H1830 0.950 . S
C1838 C1836 1.391 . S
C1838 C1839 1.400 . S
C1839 C1838 1.400 . S
C1839 C1840 1.398 . S
C1839 C1845 1.491 . S
C1840 H1831 0.950 . S
C1840 C1839 1.398 . S
C1840 C1841 1.391 . S
C1841 H1829 0.950 . S
C1841 C1837 1.393 . S
C1841 C1840 1.391 . S
C1842 H1832 0.950 . S
C1842 C1843 1.386 . S
C1842 C1844 1.391 . S
C1843 C1842 1.386 . S
C1843 C1847 1.393 . S
C1844 H1833 0.950 . S
C1844 C1842 1.391 . S
C1844 C1845 1.400 . S
C1845 C1839 1.491 . S
C1845 C1844 1.400 . S
C1845 C1846 1.398 . S
C1846 H1834 0.950 . S
C1846 C1845 1.398 . S
C1846 C1847 1.391 . S
C1847 H1835 0.950 . S
C1847 C1843 1.393 . S
C1847 C1846 1.391 . S
H1848 C1856 0.950 . S
H1849 C1861 0.950 . S
H1850 C1858 0.950 . S
H1851 C1860 0.950 . S
H1852 C1862 0.950 . S
H1853 C1864 0.950 . S
H1854 C1866 0.950 . S
H1855 C1867 0.950 . S
C1856 H1848 0.950 . S
C1856 C1857 1.386 . S
C1856 C1858 1.391 . S
C1857 C1856 1.386 . S
C1857 C1861 1.393 . S
C1858 H1850 0.950 . S
C1858 C1856 1.391 . S
C1858 C1859 1.400 . S
C1859 C1858 1.400 . S
C1859 C1860 1.398 . S
C1859 C1865 1.491 . S
C1860 H1851 0.950 . S
C1860 C1859 1.398 . S
C1860 C1861 1.391 . S
C1861 H1849 0.950 . S
C1861 C1857 1.393 . S
C1861 C1860 1.391 . S
C1862 H1852 0.950 . S
C1862 C1863 1.386 . S
C1862 C1864 1.391 . S
C1863 C1862 1.386 . S
C1863 C1867 1.393 . S
C1864 H1853 0.950 . S
C1864 C1862 1.391 . S
C1864 C1865 1.400 . S
C1865 C1859 1.491 . S
C1865 C1864 1.400 . S
C1865 C1866 1.398 . S
C1866 H1854 0.950 . S
C1866 C1865 1.398 . S
C1866 C1867 1.391 . S
C1867 H1855 0.950 . S
C1867 C1863 1.393 . S
C1867 C1866 1.391 . S
H1868 C1876 0.950 . S
H1869 C1881 0.950 . S
H1870 C1878 0.950 . S
H1871 C1880 0.950 . S
H1872 C1882 0.950 . S
H1873 C1884 0.950 . S
H1874 C1886 0.950 . S
H1875 C1887 0.950 . S
C1876 H1868 0.950 . S
C1876 C1877 1.386 . S
C1876 C1878 1.391 . S
C1877 C1876 1.386 . S
C1877 C1881 1.393 . S
C1878 H1870 0.950 . S
C1878 C1876 1.391 . S
C1878 C1879 1.400 . S
C1879 C1878 1.400 . S
C1879 C1880 1.398 . S
C1879 C1885 1.491 . S
C1880 H1871 0.950 . S
C1880 C1879 1.398 . S
C1880 C1881 1.391 . S
C1881 H1869 0.950 . S
C1881 C1877 1.393 . S
C1881 C1880 1.391 . S
C1882 H1872 0.950 . S
C1882 C1883 1.386 . S
C1882 C1884 1.391 . S
C1883 C1882 1.386 . S
C1883 C1887 1.393 . S
C1884 H1873 0.950 . S
C1884 C1882 1.391 . S
C1884 C1885 1.400 . S
C1885 C1879 1.491 . S
C1885 C1884 1.400 . S
C1885 C1886 1.398 . S
C1886 H1874 0.950 . S
C1886 C1885 1.398 . S
C1886 C1887 1.391 . S
C1887 H1875 0.950 . S
C1887 C1883 1.393 . S
C1887 C1886 1.391 . S
H1888 C1896 0.950 . S
H1889 C1901 0.950 . S
H1890 C1898 0.950 . S
H1891 C1900 0.950 . S
H1892 C1902 0.950 . S
H1893 C1904 0.950 . S
H1894 C1906 0.950 . S
H1895 C1907 0.950 . S
C1896 H1888 0.950 . S
C1896 C1897 1.386 . S
C1896 C1898 1.391 . S
C1897 C1896 1.386 . S
C1897 C1901 1.393 . S
C1898 H1890 0.950 . S
C1898 C1896 1.391 . S
C1898 C1899 1.400 . S
C1899 C1898 1.400 . S
C1899 C1900 1.398 . S
C1899 C1905 1.491 . S
C1900 H1891 0.950 . S
C1900 C1899 1.398 . S
C1900 C1901 1.391 . S
C1901 H1889 0.950 . S
C1901 C1897 1.393 . S
C1901 C1900 1.391 . S
C1902 H1892 0.950 . S
C1902 C1903 1.386 . S
C1902 C1904 1.391 . S
C1903 C1902 1.386 . S
C1903 C1907 1.393 . S
C1904 H1893 0.950 . S
C1904 C1902 1.391 . S
C1904 C1905 1.400 . S
C1905 C1899 1.491 . S
C1905 C1904 1.400 . S
C1905 C1906 1.398 . S
C1906 H1894 0.950 . S
C1906 C1905 1.398 . S
C1906 C1907 1.391 . S
C1907 H1895 0.950 . S
C1907 C1903 1.393 . S
C1907 C1906 1.391 . S
H1908 C1916 0.950 . S
H1909 C1921 0.950 . S
H1910 C1918 0.950 . S
H1911 C1920 0.950 . S
H1912 C1922 0.950 . S
H1913 C1924 0.950 . S
H1914 C1926 0.950 . S
H1915 C1927 0.950 . S
C1916 H1908 0.950 . S
C1916 C1917 1.386 . S
C1916 C1918 1.391 . S
C1917 C1916 1.386 . S
C1917 C1921 1.393 . S
C1918 H1910 0.950 . S
C1918 C1916 1.391 . S
C1918 C1919 1.400 . S
C1919 C1918 1.400 . S
C1919 C1920 1.398 . S
C1919 C1925 1.491 . S
C1920 H1911 0.950 . S
C1920 C1919 1.398 . S
C1920 C1921 1.391 . S
C1921 H1909 0.950 . S
C1921 C1917 1.393 . S
C1921 C1920 1.391 . S
C1922 H1912 0.950 . S
C1922 C1923 1.386 . S
C1922 C1924 1.391 . S
C1923 C1922 1.386 . S
C1923 C1927 1.393 . S
C1924 H1913 0.950 . S
C1924 C1922 1.391 . S
C1924 C1925 1.400 . S
C1925 C1919 1.491 . S
C1925 C1924 1.400 . S
C1925 C1926 1.398 . S
C1926 H1914 0.950 . S
C1926 C1925 1.398 . S
C1926 C1927 1.391 . S
C1927 H1915 0.950 . S
C1927 C1923 1.393 . S
C1927 C1926 1.391 . S
H1928 C1936 0.950 . S
H1929 C1941 0.950 . S
H1930 C1938 0.950 . S
H1931 C1940 0.950 . S
H1932 C1942 0.950 . S
H1933 C1944 0.950 . S
H1934 C1946 0.950 . S
H1935 C1947 0.950 . S
C1936 H1928 0.950 . S
C1936 C1937 1.386 . S
C1936 C1938 1.391 . S
C1937 C1936 1.386 . S
C1937 C1941 1.393 . S
C1938 H1930 0.950 . S
C1938 C1936 1.391 . S
C1938 C1939 1.400 . S
C1939 C1938 1.400 . S
C1939 C1940 1.398 . S
C1939 C1945 1.491 . S
C1940 H1931 0.950 . S
C1940 C1939 1.398 . S
C1940 C1941 1.391 . S
C1941 H1929 0.950 . S
C1941 C1937 1.393 . S
C1941 C1940 1.391 . S
C1942 H1932 0.950 . S
C1942 C1943 1.386 . S
C1942 C1944 1.391 . S
C1943 C1942 1.386 . S
C1943 C1947 1.393 . S
C1944 H1933 0.950 . S
C1944 C1942 1.391 . S
C1944 C1945 1.400 . S
C1945 C1939 1.491 . S
C1945 C1944 1.400 . S
C1945 C1946 1.398 . S
C1946 H1934 0.950 . S
C1946 C1945 1.398 . S
C1946 C1947 1.391 . S
C1947 H1935 0.950 . S
C1947 C1943 1.393 . S
C1947 C1946 1.391 . S
H1948 C1956 0.950 . S
H1949 C1961 0.950 . S
H1950 C1958 0.950 . S
H1951 C1960 0.950 . S
H1952 C1962 0.950 . S
H1953 C1964 0.950 . S
H1954 C1966 0.950 . S
H1955 C1967 0.950 . S
C1956 H1948 0.950 . S
C1956 C1957 1.386 . S
C1956 C1958 1.391 . S
C1957 C1956 1.386 . S
C1957 C1961 1.393 . S
C1958 H1950 0.950 . S
C1958 C1956 1.391 . S
C1958 C1959 1.400 . S
C1959 C1958 1.400 . S
C1959 C1960 1.398 . S
C1959 C1965 1.491 . S
C1960 H1951 0.950 . S
C1960 C1959 1.398 . S
C1960 C1961 1.391 . S
C1961 H1949 0.950 . S
C1961 C1957 1.393 . S
C1961 C1960 1.391 . S
C1962 H1952 0.950 . S
C1962 C1963 1.386 . S
C1962 C1964 1.391 . S
C1963 C1962 1.386 . S
C1963 C1967 1.393 . S
C1964 H1953 0.950 . S
C1964 C1962 1.391 . S
C1964 C1965 1.400 . S
C1965 C1959 1.491 . S
C1965 C1964 1.400 . S
C1965 C1966 1.398 . S
C1966 H1954 0.950 . S
C1966 C1965 1.398 . S
C1966 C1967 1.391 . S
C1967 H1955 0.950 . S
C1967 C1963 1.393 . S
C1967 C1966 1.391 . S
C537 C7 0.792 . S
C543 C159 0.749 . S
C557 C29 0.792 . S
C563 C95 0.749 . S
C577 C49 0.793 . S
C583 C119 0.746 . S
C597 C72 0.769 . S
C603 C139 0.764 . S
C617 C5 0.775 . S
C623 C183 0.770 . S
C637 C205 0.755 . S
C643 C27 0.788 . S
C657 C227 0.781 . S
C663 C51 0.753 . S
C677 C75 0.758 . S
C683 C251 0.775 . S
C697 C93 0.790 . S
C703 C203 0.746 . S
C717 C225 0.768 . S
C723 C116 0.764 . S
C737 C137 0.780 . S
C743 C248 0.754 . S
C757 C161 0.746 . S
C763 C181 0.789 . S
C777 C269 0.750 . S
C783 C469 0.784 . S
C797 C293 0.763 . S
C803 C493 0.770 . S
C817 C317 0.745 . S
C823 C515 0.793 . S
C837 C512 0.754 . S
C843 C335 0.780 . S
C857 C467 0.752 . S
C863 C357 0.790 . S
C877 C379 0.789 . S
C883 C424 0.747 . S
C897 C271 0.792 . S
C903 C359 0.745 . S
C917 C405 0.793 . S
C923 C291 0.745 . S
C937 C337 0.783 . S
C943 C314 0.761 . S
C957 C449 0.791 . S
C963 C381 0.750 . S
C977 C402 0.780 . S
C983 C490 0.753 . S
C997 C427 0.793 . S
C1003 C446 0.745 . S
C1017 C94 0.362 . S
C1023 C6 0.342 . S
C1037 C114 0.361 . S
C1043 C28 0.342 . S
C1057 C52 0.383 . S
C1063 C138 0.377 . S
C1077 C73 0.366 . S
C1083 C162 0.346 . S
C1097 C249 0.334 . S
C1103 C182 0.340 . S
C1117 C184 0.334 . S
C1123 C204 0.343 . S
C1137 C206 0.361 . S
C1143 C226 0.378 . S
C1157 C246 0.376 . S
C1163 C228 0.383 . S
C1177 C403 0.373 . S
C1183 C160 0.383 . S
C1197 C70 0.377 . S
C1203 C272 0.383 . S
C1217 C8 0.383 . S
C1223 C292 0.376 . S
C1237 C30 0.345 . S
C1243 C312 0.334 . S
C1257 C422 0.371 . S
C1263 C117 0.382 . S
C1277 C96 0.344 . S
C1283 C338 0.334 . S
C1297 C140 0.346 . S
C1303 C360 0.366 . S
C1317 C358 0.334 . S
C1323 C382 0.345 . S
C1337 C400 0.341 . S
C1343 C270 0.334 . S
C1357 C294 0.335 . S
C1363 C336 0.337 . S
C1377 C425 0.354 . S
C1383 C315 0.337 . S
C1397 C444 0.373 . S
C1403 C513 0.383 . S
C1417 C447 0.371 . S
C1423 C468 0.382 . S
C1437 C488 0.369 . S
C1443 C470 0.349 . S
C1457 C510 0.368 . S
C1463 C491 0.348 . S
C1477 C380 0.372 . S
C1483 C50 0.383 . S
C1497 C4 2.161 . S
C1503 C202 2.160 . S
C1517 C26 2.150 . S
C1523 C224 2.156 . S
C1537 C53 2.139 . S
C1543 C247 2.143 . S
C1557 C180 2.153 . S
C1563 C74 2.146 . S
C1577 C92 2.161 . S
C1583 C185 2.160 . S
C1597 C207 2.146 . S
C1603 C115 2.141 . S
C1617 C229 2.158 . S
C1623 C136 2.152 . S
C1637 C163 2.161 . S
C1643 C250 2.158 . S
C1657 C158 2.138 . S
C1663 C290 2.142 . S
C1677 C141 2.137 . S
C1683 C273 2.139 . S
C1697 C97 2.140 . S
C1703 C313 2.145 . S
C1717 C404 2.140 . S
C1723 C9 2.138 . S
C1737 C378 2.148 . S
C1743 C118 2.154 . S
C1757 C31 2.159 . S
C1763 C339 2.159 . S
C1777 C71 2.142 . S
C1783 C361 2.139 . S
C1797 C466 2.157 . S
C1803 C383 2.161 . S
C1817 C489 2.155 . S
C1823 C268 2.159 . S
C1837 C511 2.138 . S
C1843 C295 2.140 . S
C1857 C445 2.161 . S
C1863 C316 2.159 . S
C1877 C448 2.159 . S
C1883 C356 2.154 . S
C1897 C401 2.145 . S
C1903 C471 2.140 . S
C1917 C492 2.144 . S
C1923 C334 2.151 . S
C1937 C426 2.138 . S
C1943 C514 2.139 . S
C1957 C48 2.152 . S
C1963 C423 2.157 . S
