# Generated by pormake.
# Topology wiv, (6)-cn, num edge types: 1
# Building blocks:
#     Node 0, Type 0, BuildingBlock: UKALOJ_clean_sbu_0, # of connection points: 6
#     Node 1, Type 0, BuildingBlock: UKALOJ_clean_sbu_0, # of connection points: 6
#     Node 2, Type 0, BuildingBlock: UKALOJ_clean_sbu_0, # of connection points: 6
#     Node 3, Type 0, BuildingBlock: UKALOJ_clean_sbu_0, # of connection points: 6
#     Node 4, Type 0, BuildingBlock: UKALOJ_clean_sbu_0, # of connection points: 6
#     Node 5, Type 0, BuildingBlock: UKALOJ_clean_sbu_0, # of connection points: 6
#     Node 6, Type 0, BuildingBlock: UKALOJ_clean_sbu_0, # of connection points: 6
#     Node 7, Type 0, BuildingBlock: UKALOJ_clean_sbu_0, # of connection points: 6
#     Node 8, Type 0, BuildingBlock: UKALOJ_clean_sbu_0, # of connection points: 6
#     Node 9, Type 0, BuildingBlock: UKALOJ_clean_sbu_0, # of connection points: 6
#     Node 10, Type 0, BuildingBlock: UKALOJ_clean_sbu_0, # of connection points: 6
#     Node 11, Type 0, BuildingBlock: UKALOJ_clean_sbu_0, # of connection points: 6
#     Node 12, Type 0, BuildingBlock: UKALOJ_clean_sbu_0, # of connection points: 6
#     Node 13, Type 0, BuildingBlock: UKALOJ_clean_sbu_0, # of connection points: 6
#     Node 14, Type 0, BuildingBlock: UKALOJ_clean_sbu_0, # of connection points: 6
#     Node 15, Type 0, BuildingBlock: UKALOJ_clean_sbu_0, # of connection points: 6
#     Edge 16, Type (0, 0), BuildingBlock: AJUNOK_clean_linker_0, # of connection points: 2
#     Edge 17, Type (0, 0), BuildingBlock: AJUNOK_clean_linker_0, # of connection points: 2
#     Edge 18, Type (0, 0), BuildingBlock: AJUNOK_clean_linker_0, # of connection points: 2
#     Edge 19, Type (0, 0), BuildingBlock: AJUNOK_clean_linker_0, # of connection points: 2
#     Edge 20, Type (0, 0), BuildingBlock: AJUNOK_clean_linker_0, # of connection points: 2
#     Edge 21, Type (0, 0), BuildingBlock: AJUNOK_clean_linker_0, # of connection points: 2
#     Edge 22, Type (0, 0), BuildingBlock: AJUNOK_clean_linker_0, # of connection points: 2
#     Edge 23, Type (0, 0), BuildingBlock: AJUNOK_clean_linker_0, # of connection points: 2
#     Edge 24, Type (0, 0), BuildingBlock: AJUNOK_clean_linker_0, # of connection points: 2
#     Edge 25, Type (0, 0), BuildingBlock: AJUNOK_clean_linker_0, # of connection points: 2
#     Edge 26, Type (0, 0), BuildingBlock: AJUNOK_clean_linker_0, # of connection points: 2
#     Edge 27, Type (0, 0), BuildingBlock: AJUNOK_clean_linker_0, # of connection points: 2
#     Edge 28, Type (0, 0), BuildingBlock: AJUNOK_clean_linker_0, # of connection points: 2
#     Edge 29, Type (0, 0), BuildingBlock: AJUNOK_clean_linker_0, # of connection points: 2
#     Edge 30, Type (0, 0), BuildingBlock: AJUNOK_clean_linker_0, # of connection points: 2
#     Edge 31, Type (0, 0), BuildingBlock: AJUNOK_clean_linker_0, # of connection points: 2
#     Edge 32, Type (0, 0), BuildingBlock: AJUNOK_clean_linker_0, # of connection points: 2
#     Edge 33, Type (0, 0), BuildingBlock: AJUNOK_clean_linker_0, # of connection points: 2
#     Edge 34, Type (0, 0), BuildingBlock: AJUNOK_clean_linker_0, # of connection points: 2
#     Edge 35, Type (0, 0), BuildingBlock: AJUNOK_clean_linker_0, # of connection points: 2
#     Edge 36, Type (0, 0), BuildingBlock: AJUNOK_clean_linker_0, # of connection points: 2
#     Edge 37, Type (0, 0), BuildingBlock: AJUNOK_clean_linker_0, # of connection points: 2
#     Edge 38, Type (0, 0), BuildingBlock: AJUNOK_clean_linker_0, # of connection points: 2
#     Edge 39, Type (0, 0), BuildingBlock: AJUNOK_clean_linker_0, # of connection points: 2
#     Edge 40, Type (0, 0), BuildingBlock: AJUNOK_clean_linker_0, # of connection points: 2
#     Edge 41, Type (0, 0), BuildingBlock: AJUNOK_clean_linker_0, # of connection points: 2
#     Edge 42, Type (0, 0), BuildingBlock: AJUNOK_clean_linker_0, # of connection points: 2
#     Edge 43, Type (0, 0), BuildingBlock: AJUNOK_clean_linker_0, # of connection points: 2
#     Edge 44, Type (0, 0), BuildingBlock: AJUNOK_clean_linker_0, # of connection points: 2
#     Edge 45, Type (0, 0), BuildingBlock: AJUNOK_clean_linker_0, # of connection points: 2
#     Edge 46, Type (0, 0), BuildingBlock: AJUNOK_clean_linker_0, # of connection points: 2
#     Edge 47, Type (0, 0), BuildingBlock: AJUNOK_clean_linker_0, # of connection points: 2
#     Edge 48, Type (0, 0), BuildingBlock: AJUNOK_clean_linker_0, # of connection points: 2
#     Edge 49, Type (0, 0), BuildingBlock: AJUNOK_clean_linker_0, # of connection points: 2
#     Edge 50, Type (0, 0), BuildingBlock: AJUNOK_clean_linker_0, # of connection points: 2
#     Edge 51, Type (0, 0), BuildingBlock: AJUNOK_clean_linker_0, # of connection points: 2
#     Edge 52, Type (0, 0), BuildingBlock: AJUNOK_clean_linker_0, # of connection points: 2
#     Edge 53, Type (0, 0), BuildingBlock: AJUNOK_clean_linker_0, # of connection points: 2
#     Edge 54, Type (0, 0), BuildingBlock: AJUNOK_clean_linker_0, # of connection points: 2
#     Edge 55, Type (0, 0), BuildingBlock: AJUNOK_clean_linker_0, # of connection points: 2
#     Edge 56, Type (0, 0), BuildingBlock: AJUNOK_clean_linker_0, # of connection points: 2
#     Edge 57, Type (0, 0), BuildingBlock: AJUNOK_clean_linker_0, # of connection points: 2
#     Edge 58, Type (0, 0), BuildingBlock: AJUNOK_clean_linker_0, # of connection points: 2
#     Edge 59, Type (0, 0), BuildingBlock: AJUNOK_clean_linker_0, # of connection points: 2
#     Edge 60, Type (0, 0), BuildingBlock: AJUNOK_clean_linker_0, # of connection points: 2
#     Edge 61, Type (0, 0), BuildingBlock: AJUNOK_clean_linker_0, # of connection points: 2
#     Edge 62, Type (0, 0), BuildingBlock: AJUNOK_clean_linker_0, # of connection points: 2
#     Edge 63, Type (0, 0), BuildingBlock: AJUNOK_clean_linker_0, # of connection points: 2
# Relax obj value: 0.138
# Max RMSD: 0.134
# Mean RMSD: 0.134
data_MOF--net-wiv--node1-UKALOJ_clean_sbu_0--edge1-AJUNOK_clean_linker_0
_symmetry_space_group_name_H-M    P1
_symmetry_Int_Tables_number       1
_symmetry_cell_setting            triclinic
loop_
_symmetry_equiv_pos_as_xyz
'x, y, z'
_cell_length_a     52.815833
_cell_length_b     52.829344
_cell_length_c     10.874498
_cell_angle_alpha  90.010819
_cell_angle_beta   90.108014
_cell_angle_gamma 90.18307
loop_
_atom_site_label
_atom_site_type_symbol
_atom_site_fract_x
_atom_site_fract_y
_atom_site_fract_z
_atom_type_partial_charge
Zn0 Zn 0.35971 0.13569 0.06236 0.0
O1 O 0.36944 0.13806 0.87699 0.0
C2 C 0.31637 0.1029 0.97278 0.0
Zn3 Zn 0.36938 0.0944 0.06575 0.0
C4 C 0.37536 0.11766 0.82188 0.0
O5 O 0.37919 0.09753 0.88278 0.0
C6 C 0.35242 0.11248 0.30563 0.0
O7 O 0.4075 0.10538 0.12358 0.0
O8 O 0.39674 0.14549 0.12191 0.0
N9 N 0.37979 0.05647 0.06649 0.0
C10 C 0.38966 0.04142 0.15504 0.0
C11 C 0.38535 0.01874 -0.00555 0.0
N12 N 0.37723 0.04226 0.96681 0.0
N13 N 0.39328 0.01769 0.11217 0.0
C14 C 0.35943 0.19537 0.06967 0.0
C15 C 0.32026 0.20216 0.10323 0.0
N16 N 0.34766 0.17266 0.06973 0.0
N17 N 0.32335 0.17702 0.09058 0.0
N18 N 0.34266 0.21412 0.09217 0.0
H19 H 0.3982 0.19679 0.12576 0.0
H20 H 0.39036 0.21841 0.00352 0.0
H21 H 0.39319 0.1848 0.97275 0.0
C22 C 0.38688 0.19914 0.04056 0.0
C23 C 0.39685 0.0501 0.28156 0.0
H24 H 0.40152 0.07053 0.28264 0.0
H25 H 0.4133 0.03918 0.31626 0.0
H26 H 0.38073 0.04668 0.34444 0.0
O27 O 0.35875 0.09232 0.25029 0.0
O28 O 0.34989 0.13283 0.2456 0.0
C29 C 0.41323 0.12853 0.14284 0.0
O30 O 0.32315 0.1253 0.00017 0.0
O31 O 0.33113 0.0846 -0.00021 0.0
Zn32 Zn 0.12909 0.66175 0.93622 0.0
O33 O 0.12667 0.65304 0.12102 0.0
C34 C 0.10163 0.70907 0.00848 0.0
Zn35 Zn 0.08698 0.65551 0.92959 0.0
C36 C 0.10621 0.64732 0.17496 0.0
O37 O 0.08575 0.64543 0.11442 0.0
C38 C 0.10931 0.66876 0.69016 0.0
O39 O 0.0942 0.61616 0.8718 0.0
O40 O 0.13481 0.62387 0.89033 0.0
N41 N 0.04794 0.65057 0.91544 0.0
C42 C 0.03276 0.63806 0.83499 0.0
C43 C 1.00869 0.6572 0.96112 0.0
N44 N 0.03281 0.66233 -0.0063 0.0
N45 N 1.00807 0.6418 0.86243 0.0
C46 C 0.18731 0.6743 0.88832 0.0
C47 C 0.20324 0.65945 0.05348 0.0
N48 N 0.16789 0.66568 0.95777 0.0
N49 N 0.17798 0.65658 0.06019 0.0
N50 N 0.20965 0.67058 0.94674 0.0
H51 H 0.17769 0.66867 0.70018 0.0
H52 H 0.17018 0.69955 0.75862 0.0
H53 H 0.20255 0.69117 0.72154 0.0
C54 C 0.18445 0.68419 0.76006 0.0
C55 C 0.0419 0.62333 0.72614 0.0
H56 H 0.06168 0.62815 0.70245 0.0
H57 H 0.0409 0.60285 0.74786 0.0
H58 H 0.02945 0.62682 0.6456 0.0
O59 O 0.0885 0.66591 0.74636 0.0
O60 O 0.13 0.66958 0.74972 0.0
C61 C 0.11712 0.60869 0.8615 0.0
O62 O 0.1234 0.70009 -0.01602 0.0
O63 O 0.08215 0.6951 -0.01002 0.0
Zn64 Zn 0.66186 0.94288 0.05929 0.0
O65 O 0.62326 0.93315 0.11369 0.0
C66 C 0.67614 0.9256 0.30579 0.0
Zn67 Zn 0.67135 0.90116 0.06578 0.0
C68 C 0.61733 0.91009 0.13496 0.0
O69 O 0.63374 0.89299 0.11581 0.0
C70 C 0.71645 0.93171 -0.01355 0.0
O71 O 0.66356 0.89819 0.88073 0.0
O72 O 0.65303 0.93859 0.87423 0.0
N73 N 0.68127 0.86344 0.0746 0.0
C74 C 0.6689 0.8415 0.05159 0.0
C75 C 0.70574 0.83184 0.11594 0.0
N76 N 0.70419 0.85729 0.11401 0.0
N77 N 0.68387 0.82146 0.07672 0.0
C78 C 0.6423 0.99804 0.13273 0.0
C79 C 0.64964 0.01919 0.9702 0.0
N80 N 0.65271 0.98177 0.05082 0.0
N81 N 0.65714 0.99511 0.94982 0.0
N82 N 0.64017 0.02156 0.08449 0.0
H83 H 0.62042 0.9737 0.2465 0.0
H84 H 0.62136 1.00598 0.29912 0.0
H85 H 0.64878 0.98611 0.3178 0.0
C86 C 0.63262 0.99062 0.25655 0.0
C87 C 0.64288 0.83957 -0.00233 0.0
H88 H 0.63704 0.85768 0.95495 0.0
H89 H 0.62927 0.83438 0.07082 0.0
H90 H 0.64235 0.82427 0.92776 0.0
O91 O 0.70853 0.90983 0.01604 0.0
O92 O 0.7016 0.95061 0.00087 0.0
C93 C 0.6568 0.91759 0.82048 0.0
O94 O 0.67056 0.94547 0.24586 0.0
O95 O 0.67937 0.90473 0.25079 0.0
Zn96 Zn 0.9422 0.36484 0.85584 0.0
O97 O 0.93272 0.40375 0.80295 0.0
C98 C 0.9265 0.34919 0.61089 0.0
Zn99 Zn 0.9009 0.35526 0.84999 0.0
C100 C 0.90973 0.40978 0.78156 0.0
O101 O 0.89257 0.39305 0.79554 0.0
C102 C 0.93142 0.31052 0.93584 0.0
O103 O 0.89667 0.36381 0.03461 0.0
O104 O 0.93731 0.37341 0.03948 0.0
N105 N 0.86372 0.34452 0.82734 0.0
C106 C 0.84123 0.35379 0.86435 0.0
C107 C 0.83345 0.32345 0.74016 0.0
N108 N 0.85875 0.32562 0.75075 0.0
N109 N 0.82198 0.34086 0.81074 0.0
C110 C 0.99637 0.38742 0.79669 0.0
C111 C 0.01873 0.36976 0.93503 0.0
N112 N 0.98043 0.37369 0.868 0.0
N113 N 0.99446 0.36294 0.95434 0.0
N114 N 0.02052 0.38532 0.83722 0.0
H115 H 0.98816 0.42236 0.70669 0.0
H116 H 1.00242 0.39898 0.60929 0.0
H117 H 0.96942 0.39636 0.65315 0.0
C118 C 0.98854 0.40188 0.68446 0.0
C119 C 0.83823 0.3761 0.94798 0.0
H120 H 0.85473 0.389 0.94088 0.0
H121 H 0.82056 0.38652 0.92653 0.0
H122 H 0.83716 0.36927 0.04431 0.0
O123 O 0.90936 0.31795 0.9064 0.0
O124 O 0.95007 0.32551 0.91669 0.0
C125 C 0.91648 0.3697 0.095 0.0
O126 O 0.94631 0.35563 0.66935 0.0
O127 O 0.90585 0.34657 0.66793 0.0
Zn128 Zn 0.36549 0.40076 0.12966 0.0
O129 O 0.3737 0.39887 0.31531 0.0
C130 C 0.31686 0.42401 0.20726 0.0
Zn131 Zn 0.36999 0.44287 0.12587 0.0
C132 C 0.3784 0.41975 0.36936 0.0
O133 O 0.38048 0.44001 0.30745 0.0
C134 C 0.35638 0.42443 0.88615 0.0
O135 O 0.40971 0.43906 0.06521 0.0
O136 O 0.40395 0.39832 0.08467 0.0
N137 N 0.37336 0.48231 0.13345 0.0
C138 C 0.38461 0.49978 0.05991 0.0
C139 C 0.36576 0.51991 0.20208 0.0
N140 N 0.36183 0.49501 0.22195 0.0
N141 N 0.38001 0.52358 0.10078 0.0
C142 C 0.35544 0.34129 0.16314 0.0
C143 C 0.37252 0.32915 -0.00443 0.0
N144 N 0.36434 0.36219 0.1059 0.0
N145 N 0.37499 0.35439 0.00237 0.0
N146 N 0.36044 0.32042 0.09545 0.0
H147 H 0.33855 0.36095 0.31628 0.0
H148 H 0.35238 0.33045 0.35162 0.0
H149 H 0.32291 0.33173 0.27042 0.0
C150 C 0.34145 0.34136 0.28248 0.0
C151 C 0.39934 0.49366 0.94622 0.0
H152 H 0.39593 0.47402 0.91524 0.0
H153 H 0.41983 0.49582 0.96622 0.0
H154 H 0.39442 0.50707 0.87143 0.0
O155 O 0.35904 0.44505 0.94412 0.0
O156 O 0.35719 0.4037 0.94423 0.0
C157 C 0.4184 0.4166 0.05672 0.0
O158 O 0.32693 0.40301 0.17766 0.0
O159 O 0.32983 0.44435 0.19156 0.0
Zn160 Zn 0.43584 0.67013 0.8333 0.0
O161 O 0.42685 0.63094 0.8884 0.0
C162 C 0.41804 0.68472 0.07584 0.0
Zn163 Zn 0.39396 0.67712 0.83488 0.0
C164 C 0.40396 0.62361 0.90365 0.0
O165 O 0.38622 0.63928 0.88315 0.0
C166 C 0.42301 0.72344 0.75374 0.0
O167 O 0.39131 0.66916 0.6518 0.0
O168 O 0.43213 0.66093 0.6487 0.0
N169 N 0.35645 0.68679 0.84757 0.0
C170 C 0.33423 0.67564 0.81794 0.0
C171 C 0.32562 0.71012 0.91015 0.0
N172 N 0.35095 0.70825 0.90419 0.0
N173 N 0.3145 0.68993 0.85665 0.0
C174 C 0.49046 0.65143 0.91329 0.0
C175 C 0.51269 0.6598 0.7554 0.0
N176 N 0.47466 0.66184 0.82908 0.0
N177 N 0.48864 0.66692 0.73098 0.0
N178 N 0.51435 0.65003 0.86955 0.0
H179 H 0.49228 0.62323 0.05478 0.0
H180 H 0.48873 0.65504 0.10792 0.0
H181 H 0.46188 0.63861 0.04155 0.0
C182 C 0.48259 0.64144 0.03611 0.0
C183 C 0.33205 0.65147 0.74661 0.0
H184 H 0.3488 0.6487 0.68717 0.0
H185 H 0.33107 0.63532 0.81125 0.0
H186 H 0.31462 0.65146 0.68948 0.0
O187 O 0.40159 0.71458 0.78423 0.0
O188 O 0.44263 0.70972 0.77136 0.0
C189 C 0.41125 0.664 0.59226 0.0
O190 O 0.43845 0.68013 0.01878 0.0
O191 O 0.39732 0.68533 0.01759 0.0
Zn192 Zn 0.66221 0.63635 0.17564 0.0
O193 O 0.65365 0.63443 0.36034 0.0
C194 C 0.71012 0.60853 0.24965 0.0
Zn195 Zn 0.65719 0.59415 0.16968 0.0
C196 C 0.64871 0.61379 0.41472 0.0
O197 O 0.64661 0.59345 0.3534 0.0
C198 C 0.67114 0.616 0.9309 0.0
O199 O 0.61843 0.60096 0.10941 0.0
O200 O 0.62351 0.64205 0.12991 0.0
N201 N 0.65192 0.55516 0.15676 0.0
C202 C 0.64056 0.54004 0.07225 0.0
C203 C 0.65684 0.5159 0.20745 0.0
N204 N 0.66189 0.53999 0.24079 0.0
N205 N 0.64324 0.5154 0.10254 0.0
C206 C 0.66515 0.69498 0.1182 0.0
C207 C 0.6754 0.70946 0.29438 0.0
N208 N 0.66749 0.67494 0.19453 0.0
N209 N 0.67387 0.68409 0.30378 0.0
N210 N 0.67002 0.71679 0.17885 0.0
H211 H 0.64212 0.67855 -0.02384 0.0
H212 H 0.6735 0.6878 0.92976 0.0
H213 H 0.64972 0.7117 0.95317 0.0
C214 C 0.65699 0.69326 -0.01332 0.0
C215 C 0.62779 0.549 0.95728 0.0
H216 H 0.60714 0.54544 0.965 0.0
H217 H 0.63476 0.538 0.8773 0.0
H218 H 0.63102 0.56937 0.94103 0.0
O219 O 0.6683 0.59542 -0.011 0.0
O220 O 0.67064 0.63695 -0.0116 0.0
C221 C 0.60954 0.62334 0.1008 0.0
O222 O 0.70101 0.63027 0.225 0.0
O223 O 0.69622 0.58905 0.23151 0.0
Zn224 Zn 0.63542 0.36721 0.79015 0.0
O225 O 0.63708 0.37493 0.60446 0.0
C226 C 0.61111 0.31865 0.71409 0.0
Zn227 Zn 0.5933 0.37203 0.79318 0.0
C228 C 0.61628 0.3799 0.55023 0.0
O229 O 0.596 0.38231 0.61171 0.0
C230 C 0.61193 0.35858 0.03304 0.0
O231 O 0.59786 0.41151 0.85179 0.0
O232 O 0.63847 0.40587 0.83263 0.0
N233 N 0.55391 0.37671 0.79151 0.0
C234 C 0.53837 0.39047 0.86484 0.0
C235 C 0.51493 0.37076 0.73739 0.0
N236 N 0.53917 0.36458 0.71224 0.0
N237 N 0.51386 0.38728 0.83181 0.0
C238 C 0.69498 0.35484 0.76703 0.0
C239 C 0.70676 0.37612 0.92383 0.0
N240 N 0.67411 0.36595 0.81419 0.0
N241 N 0.68174 0.37918 0.91092 0.0
N242 N 0.7157 0.36077 0.83553 0.0
H243 H 0.70306 0.34772 0.57793 0.0
H244 H 0.70647 0.32065 0.67644 0.0
H245 H 0.67518 0.332 0.63324 0.0
C246 C 0.69477 0.33763 0.65776 0.0
C247 C 0.54689 0.40609 0.97246 0.0
H248 H 0.54957 0.42594 0.94184 0.0
H249 H 0.53235 0.40597 0.046 0.0
H250 H 0.56501 0.39924 0.01055 0.0
O251 O 0.59136 0.3612 -0.02529 0.0
O252 O 0.63269 0.3594 -0.02451 0.0
C253 C 0.62027 0.42034 0.8595 0.0
O254 O 0.6323 0.32848 0.74432 0.0
O255 O 0.59096 0.3319 0.72802 0.0
Zn256 Zn 0.85844 0.63189 0.57088 0.0
O257 O 0.86686 0.62801 0.38609 0.0
C258 C 0.80957 0.60662 0.49908 0.0
Zn259 Zn 0.86274 0.58933 0.57264 0.0
C260 C 0.87063 0.60733 0.32967 0.0
O261 O 0.87187 0.58658 0.38865 0.0
C262 C 0.84989 0.61327 0.81364 0.0
O263 O 0.90254 0.59415 0.62595 0.0
O264 O 0.89708 0.63528 0.61546 0.0
N265 N 0.86398 0.55015 0.60228 0.0
C266 C 0.88196 0.53189 0.5981 0.0
C267 C 0.84894 0.51516 0.67548 0.0
N268 N 0.84355 0.53949 0.65026 0.0
N269 N 0.87306 0.50972 0.64515 0.0
C270 C 0.86027 0.69123 0.61923 0.0
C271 C 0.85019 0.70515 0.44203 0.0
N272 N 0.85596 0.67084 0.54657 0.0
N273 N 0.8497 0.67969 0.43672 0.0
N274 N 0.85684 0.71297 0.55548 0.0
H275 H 0.85231 0.68669 0.81015 0.0
H276 H 0.87857 0.70755 0.77839 0.0
H277 H 0.88209 0.6736 0.76223 0.0
C278 C 0.86899 0.68976 0.75001 0.0
C279 C 0.90742 0.53559 0.5409 0.0
H280 H 0.90639 0.55006 0.46711 0.0
H281 H 0.91465 0.51749 0.50314 0.0
H282 H 0.92083 0.5425 0.61171 0.0
O283 O 0.85327 0.59286 0.75507 0.0
O284 O 0.85006 0.63432 0.75717 0.0
C285 C 0.91147 0.61657 0.63759 0.0
O286 O 0.81957 0.62803 0.52298 0.0
O287 O 0.82276 0.58667 0.51646 0.0
Zn288 Zn 0.63532 0.17259 0.35481 0.0
O289 O 0.63726 0.16387 0.53732 0.0
C290 C 0.61326 0.22215 0.43482 0.0
Zn291 Zn 0.59259 0.16978 0.35334 0.0
C292 C 0.61664 0.16095 0.59606 0.0
O293 O 0.59549 0.16032 0.53912 0.0
C294 C 0.61145 0.1823 0.11262 0.0
O295 O 0.59451 0.13008 0.29614 0.0
O296 O 0.63572 0.13363 0.30918 0.0
N297 N 0.55282 0.16962 0.3534 0.0
C298 C 0.53452 0.15184 0.33642 0.0
C299 C 0.51646 0.18774 0.33057 0.0
N300 N 0.54132 0.19183 0.35002 0.0
N301 N 0.51145 0.16277 0.32077 0.0
C302 C 0.69642 0.17936 0.37784 0.0
C303 C 0.70574 0.16081 0.2101 0.0
N304 N 0.67434 0.17169 0.32612 0.0
N305 N 0.68048 0.1601 0.22242 0.0
N306 N 0.71645 0.17291 0.30587 0.0
H307 H 0.67928 0.20151 0.51949 0.0
H308 H 0.70396 0.18079 0.57042 0.0
H309 H 0.71225 0.20921 0.48821 0.0
C310 C 0.69804 0.19377 0.49565 0.0
C311 C 0.53918 0.12393 0.34151 0.0
H312 H 0.55394 0.11971 0.41119 0.0
H313 H 0.52163 0.11349 0.36578 0.0
H314 H 0.54589 0.11733 0.25037 0.0
O315 O 0.59074 0.17948 0.16937 0.0
O316 O 0.63212 0.18142 0.17124 0.0
C317 C 0.61638 0.12009 0.28715 0.0
O318 O 0.63439 0.2118 0.40783 0.0
O319 O 0.59282 0.20975 0.41391 0.0
Zn320 Zn 0.16664 0.43832 0.56346 0.0
O321 O 0.12726 0.43294 0.61902 0.0
C322 C 0.18047 0.41949 0.8029 0.0
Zn323 Zn 0.17139 0.39612 0.55902 0.0
C324 C 0.11842 0.41058 0.6284 0.0
O325 O 0.13291 0.39216 0.60451 0.0
C326 C 0.21967 0.42174 0.48111 0.0
O327 O 0.16301 0.39467 0.37363 0.0
O328 O 0.15658 0.43589 0.38127 0.0
N329 N 0.17372 0.3573 0.58067 0.0
C330 C 0.18023 0.33623 0.51763 0.0
C331 C 0.16823 0.32432 0.69579 0.0
N332 N 0.16617 0.34959 0.69067 0.0
N333 N 0.17684 0.31535 0.5883 0.0
C334 C 0.14756 0.49231 0.64434 0.0
C335 C 0.16425 0.51677 0.51173 0.0
N336 N 0.16089 0.47749 0.56574 0.0
N337 N 0.17114 0.49286 0.48331 0.0
N338 N 0.14911 0.51692 0.61144 0.0
H339 H 0.11354 0.48419 0.74305 0.0
H340 H 0.13878 0.49596 0.83629 0.0
H341 H 0.1392 0.46365 0.78268 0.0
C342 C 0.13425 0.48325 0.75798 0.0
C343 C 0.1902 0.33617 0.38912 0.0
H344 H 0.17515 0.32929 0.326 0.0
H345 H 0.20647 0.32301 0.382 0.0
H346 H 0.19597 0.35551 0.36077 0.0
O347 O 0.21002 0.40031 0.50898 0.0
O348 O 0.20653 0.44176 0.50016 0.0
C349 C 0.15856 0.41558 0.31955 0.0
O350 O 0.17743 0.44003 0.7452 0.0
O351 O 0.17989 0.39879 0.74467 0.0
Zn352 Zn 0.39899 0.87046 0.41553 0.0
O353 O 0.39865 0.87783 0.60052 0.0
C354 C 0.42264 0.82082 0.48688 0.0
Zn355 Zn 0.44141 0.87298 0.40899 0.0
C356 C 0.41967 0.88211 0.65387 0.0
O357 O 0.43998 0.88373 0.59178 0.0
C358 C 0.42094 0.86077 0.17082 0.0
O359 O 0.4387 0.9118 0.34815 0.0
O360 O 0.39771 0.90983 0.37545 0.0
N361 N 0.48076 0.87593 0.40853 0.0
C362 C 0.49728 0.88702 0.32965 0.0
C363 C 0.51907 0.86983 0.4713 0.0
N364 N 0.49447 0.8654 0.49664 0.0
N365 N 0.52149 0.88342 0.3669 0.0
C366 C 0.33954 0.85797 0.44633 0.0
C367 C 0.3253 0.88587 0.32274 0.0
N368 N 0.35977 0.87072 0.40133 0.0
N369 N 0.35064 0.88795 0.3247 0.0
N370 N 0.31773 0.86717 0.39799 0.0
H371 H 0.32457 0.83836 0.60334 0.0
H372 H 0.34076 0.8189 0.49374 0.0
H373 H 0.35897 0.83912 0.59422 0.0
C374 C 0.34113 0.83749 0.54076 0.0
C375 C 0.48987 0.90079 0.21461 0.0
H376 H 0.47044 0.89607 0.18509 0.0
H377 H 0.49071 0.92145 0.23222 0.0
H378 H 0.50324 0.89636 0.1391 0.0
O379 O 0.44176 0.86163 0.22852 0.0
O380 O 0.40032 0.86315 0.22892 0.0
C381 C 0.41713 0.92243 0.3444 0.0
O382 O 0.40137 0.83095 0.45996 0.0
O383 O 0.44287 0.83384 0.47239 0.0
Zn384 Zn 0.8685 0.94085 0.64904 0.0
O385 O 0.90722 0.93151 0.59176 0.0
C386 C 0.85306 0.92129 0.40947 0.0
Zn387 Zn 0.86001 0.89895 0.65302 0.0
C388 C 0.91367 0.90837 0.57781 0.0
O389 O 0.8977 0.89107 0.60325 0.0
C390 C 0.81442 0.92981 0.72732 0.0
O391 O 0.86865 0.8985 0.83835 0.0
O392 O 0.8784 0.93909 0.83205 0.0
N393 N 0.8504 0.86072 0.65388 0.0
C394 C 0.86325 0.83893 0.67279 0.0
C395 C 0.82554 0.82868 0.62354 0.0
N396 N 0.82695 0.85415 0.62398 0.0
N397 N 0.84806 0.8186 0.65401 0.0
C398 C 0.88912 0.99496 0.56502 0.0
C399 C 0.87099 0.01895 0.6949 0.0
N400 N 0.8761 0.97976 0.64339 0.0
N401 N 0.865 0.99486 0.72401 0.0
N402 N 0.88626 0.01967 0.59583 0.0
H403 H 0.92374 0.98331 0.48194 0.0
H404 H 0.90264 0.9997 0.37949 0.0
H405 H 0.89641 0.96719 0.42332 0.0
C406 C 0.90359 0.98573 0.45553 0.0
C407 C 0.89009 0.83753 0.71625 0.0
H408 H 0.89536 0.8549 0.7677 0.0
H409 H 0.90279 0.83556 0.63606 0.0
H410 H 0.89276 0.82066 0.77563 0.0
O411 O 0.82236 0.90767 0.70289 0.0
O412 O 0.82938 0.9485 0.70973 0.0
C413 C 0.87482 0.91889 0.89301 0.0
O414 O 0.85799 0.94156 0.46709 0.0
O415 O 0.8515 0.90049 0.46731 0.0
Zn416 Zn 0.90408 0.17082 0.31622 0.0
O417 O 0.89999 0.16296 0.13165 0.0
C418 C 0.93375 0.21678 0.23307 0.0
Zn419 Zn 0.94615 0.163 0.31203 0.0
C420 C 0.91993 0.15753 0.07203 0.0
O421 O 0.94084 0.15425 0.12793 0.0
C422 C 0.92995 0.17741 0.55651 0.0
O423 O 0.93725 0.12411 0.36653 0.0
O424 O 0.8966 0.13264 0.36536 0.0
N425 N 0.98496 0.15419 0.29892 0.0
C426 C 1.00191 0.14509 0.38152 0.0
C427 C 0.02174 0.15006 0.21313 0.0
N428 N 0.99747 0.15715 0.1943 0.0
N429 N 0.02509 0.14244 0.33021 0.0
C430 C 0.84395 0.17173 0.29685 0.0
C431 C 0.83571 0.20038 0.42891 0.0
N432 N 0.86636 0.18052 0.33951 0.0
N433 N 0.86105 0.19836 0.42112 0.0
N434 N 0.82444 0.18392 0.35177 0.0
H435 H 0.85693 0.13673 0.21849 0.0
H436 H 0.8228 0.14082 0.21665 0.0
H437 H 0.84268 0.15833 0.11199 0.0
C438 C 0.84134 0.15051 0.20647 0.0
C439 C 0.99557 0.13766 0.51047 0.0
H440 H 0.97619 0.12964 0.51457 0.0
H441 H 1.00927 0.12358 0.54625 0.0
H442 H 0.99649 0.15474 0.56969 0.0
O443 O 0.9501 0.17228 0.49827 0.0
O444 O 0.90911 0.17882 0.49958 0.0
C445 C 0.91439 0.11684 0.38301 0.0
O446 O 0.91201 0.2085 0.26371 0.0
O447 O 0.95298 0.20248 0.2504 0.0
Zn448 Zn 0.17831 0.12851 0.59111 0.0
O449 O 0.17013 0.12873 0.77484 0.0
C450 C 0.22507 0.09941 0.66658 0.0
Zn451 Zn 0.17142 0.08651 0.58855 0.0
C452 C 0.16407 0.10848 0.8309 0.0
O453 O 0.16154 0.08771 0.77251 0.0
C454 C 0.18486 0.10709 0.34781 0.0
O455 O 0.13254 0.09414 0.53147 0.0
O456 O 0.13948 0.13516 0.54646 0.0
N457 N 0.16708 0.04747 0.57524 0.0
C458 C 0.14779 0.03051 0.57098 0.0
C459 C 0.18186 1.01019 0.53783 0.0
N460 N 0.1881 0.03461 0.55456 0.0
N461 N 0.15663 1.00687 0.54654 0.0
C462 C 0.17544 0.18891 0.59097 0.0
C463 C 0.21422 0.19719 0.5538 0.0
N464 N 0.18777 0.16656 0.58589 0.0
N465 N 0.21181 0.17192 0.56251 0.0
N466 N 0.19164 0.20839 0.56975 0.0
H467 H 0.14258 0.17687 0.69071 0.0
H468 H 0.13656 0.18855 0.53807 0.0
H469 H 0.14392 0.21061 0.6598 0.0
C470 C 0.14803 0.19151 0.62245 0.0
C471 C 0.12083 0.03712 0.59756 0.0
H472 H 0.12007 0.05206 0.66925 0.0
H473 H 0.11004 0.02024 0.62848 0.0
H474 H 0.11194 0.0448 0.51297 0.0
O475 O 0.1813 0.08633 0.4036 0.0
O476 O 0.1861 0.12748 0.4081 0.0
C477 C 0.1244 0.11686 0.52345 0.0
O478 O 0.21675 0.12122 0.63937 0.0
O479 O 0.21049 0.08041 0.6511 0.0
Zn480 Zn 0.0902 0.86042 0.34949 0.0
O481 O 0.09855 0.89953 0.39837 0.0
C482 C 0.1073 0.84572 0.59389 0.0
Zn483 Zn 0.13211 0.85261 0.35487 0.0
C484 C 0.12129 0.90653 0.41964 0.0
O485 O 0.13914 0.89059 0.4078 0.0
C486 C 0.10252 0.8065 0.27438 0.0
O487 O 0.13541 0.86126 0.17068 0.0
O488 O 0.09437 0.86864 0.16541 0.0
N489 N 0.17003 0.8433 0.37199 0.0
C490 C 0.19198 0.85614 0.35709 0.0
C491 C 0.2014 0.81971 0.42709 0.0
N492 N 0.17604 0.82069 0.41541 0.0
N493 N 0.21204 0.84174 0.39159 0.0
C494 C 0.03511 0.88094 0.41315 0.0
C495 C 1.01374 0.86574 0.26451 0.0
N496 N 0.05153 0.8684 0.33932 0.0
N497 N 0.03809 0.85924 0.2466 0.0
N498 N 1.0111 0.87934 0.36881 0.0
H499 H 0.04092 0.91502 0.51521 0.0
H500 H 0.02962 0.88879 0.6051 0.0
H501 H 0.06234 0.89032 0.55491 0.0
C502 C 0.04253 0.8943 0.52923 0.0
C503 C 0.19353 0.88227 0.30429 0.0
H504 H 0.19267 0.89629 0.38015 0.0
H505 H 0.21154 0.88497 0.25352 0.0
H506 H 0.17733 0.88578 0.24166 0.0
O507 O 0.12444 0.81501 0.30022 0.0
O508 O 0.08339 0.82076 0.29331 0.0
C509 C 0.11537 0.86604 0.11019 0.0
O510 O 0.08724 0.85143 0.53587 0.0
O511 O 0.12803 0.8438 0.53671 0.0
C512 C 0.39522 0.96443 0.34205 0.0
C513 C 0.41383 0.94826 0.29316 0.0
C514 C 0.38934 0.98763 0.28556 0.0
C515 C 0.40148 0.99527 0.17665 0.0
H516 H 0.38474 0.95884 0.42323 0.0
H517 H 0.37443 0.99914 0.32425 0.0
S518 S 0.45111 0.95976 0.0098 0.0
N519 N 0.44431 0.94169 0.12927 0.0
N520 N 0.43288 0.985 0.02221 0.0
C521 C 0.42023 0.97944 0.12746 0.0
C522 C 0.42655 0.95606 0.18611 0.0
C523 C 0.94578 0.64716 0.69773 0.0
C524 C 0.93768 0.62177 0.68478 0.0
C525 C 0.96903 0.65338 0.75267 0.0
C526 C 0.98553 0.63458 0.79561 0.0
H527 H 0.93378 0.66259 0.66809 0.0
H528 H 0.97408 0.67314 0.76339 0.0
S529 S 0.97422 0.56537 0.78458 0.0
N530 N 0.94871 0.57766 0.72007 0.0
N531 N 0.99256 0.58958 0.82201 0.0
C532 C 0.97823 0.60915 0.78112 0.0
C533 C 0.95433 0.60271 0.726 0.0
C534 C 0.61233 0.05933 0.09682 0.0
C535 C 0.63263 0.04493 0.14315 0.0
C536 C 0.60598 0.08302 0.14857 0.0
C537 C 0.6202 0.0934 0.24627 0.0
H538 H 0.60153 0.05233 0.01916 0.0
H539 H 0.59065 0.09377 0.10816 0.0
S540 S 0.67492 0.06287 0.40094 0.0
N541 N 0.66638 0.04241 0.29362 0.0
N542 N 0.6551 0.08687 0.38887 0.0
C543 C 0.64028 0.07887 0.29413 0.0
C544 C 0.64635 0.05469 0.24308 0.0
C545 C 0.06168 0.3737 0.74922 0.0
C546 C 0.04389 0.39246 0.77778 0.0
C547 C 0.08523 0.37986 0.69809 0.0
C548 C 0.09226 0.40518 0.67413 0.0
H549 H 0.05734 0.35401 0.7675 0.0
H550 H 0.09821 0.3645 0.67961 0.0
S551 S 0.05217 0.46153 0.733 0.0
N552 N 0.03464 0.43741 0.77953 0.0
N553 N 0.07883 0.44919 0.68147 0.0
C554 C 0.07439 0.42419 0.7008 0.0
C555 C 0.05025 0.4178 0.75304 0.0
C556 C 0.41047 0.55419 0.00607 0.0
C557 C 0.38583 0.54795 0.04581 0.0
C558 C 0.41628 0.57852 0.95937 0.0
C559 C 0.39765 0.59755 0.95017 0.0
H560 H 0.42552 0.54045 0.01413 0.0
H561 H 0.43555 0.58246 0.93122 0.0
S562 S 0.33016 0.59055 0.04296 0.0
N563 N 0.34277 0.56265 0.07208 0.0
N564 N 0.35342 0.60803 -0.01253 0.0
C565 C 0.37293 0.59133 -0.01026 0.0
C566 C 0.36713 0.5667 0.03687 0.0
C567 C 0.56838 0.64708 0.09671 0.0
C568 C 0.58402 0.62809 0.04727 0.0
C569 C 0.54523 0.65359 0.04057 0.0
C570 C 0.53717 0.64181 0.93115 0.0
H571 H 0.57421 0.65718 0.17879 0.0
H572 H 0.53397 0.66855 0.08054 0.0
S573 S 0.57155 0.59186 0.76104 0.0
N574 N 0.5898 0.59793 0.88108 0.0
N575 N 0.54675 0.61066 0.77445 0.0
C576 C 0.55264 0.62294 0.88048 0.0
C577 C 0.57591 0.61591 0.93894 0.0
C578 C 0.6121 0.48515 0.01376 0.0
C579 C 0.63728 0.49313 0.03134 0.0
C580 C 0.6065 0.462 0.95438 0.0
C581 C 0.62592 0.4462 0.90954 0.0
H582 H 0.59675 0.49647 0.04976 0.0
H583 H 0.58689 0.45619 0.94649 0.0
S584 S 0.69501 0.46049 0.92426 0.0
N585 N 0.68153 0.48466 -0.00585 0.0
N586 N 0.67157 0.44177 0.88081 0.0
C587 C 0.65118 0.45485 0.92256 0.0
C588 C 0.65671 0.47812 -0.01602 0.0
C589 C 0.45086 0.38476 -0.00844 0.0
C590 C 0.44411 0.41048 0.0062 0.0
C591 C 0.47364 0.37753 0.93575 0.0
C592 C 0.49106 0.39557 0.89327 0.0
H593 H 0.43821 0.3698 0.02131 0.0
H594 H 0.4777 0.35757 0.92537 0.0
S595 S 0.48333 0.46525 0.9077 0.0
N596 N 0.4573 0.45408 0.9724 0.0
N597 N 0.50031 0.4403 0.8684 0.0
C598 C 0.48503 0.42133 0.9084 0.0
C599 C 0.46156 0.42881 0.96458 0.0
C600 C 0.87912 0.43902 0.67681 0.0
C601 C 0.90242 0.43571 0.73809 0.0
C602 C 0.87054 0.46308 0.64124 0.0
C603 C 0.88471 0.48517 0.66514 0.0
H604 H 0.8671 0.42285 0.65736 0.0
H605 H 0.85221 0.46453 0.59704 0.0
S606 S 0.94679 0.48731 0.82599 0.0
N607 N 0.93976 0.45683 0.82019 0.0
N608 N 0.92311 0.50212 0.75775 0.0
C609 C 0.90825 0.48223 0.72489 0.0
C610 C 0.91721 0.45754 0.75999 0.0
C611 C 0.48472 0.13224 0.20105 0.0
C612 C 0.48695 0.15218 0.28706 0.0
C613 C 0.46085 0.12402 0.15747 0.0
C614 C 0.43833 0.1359 0.19526 0.0
H615 H 0.50151 0.12357 0.16323 0.0
H616 H 0.4601 0.10893 0.09005 0.0
S617 S 0.4334 0.18763 0.42477 0.0
N618 N 0.46411 0.18233 0.41354 0.0
N619 N 0.4197 0.16756 0.32902 0.0
C620 C 0.44025 0.15544 0.28268 0.0
C621 C 0.46438 0.16344 0.32875 0.0
C622 C 0.15007 0.57868 0.78285 0.0
C623 C 0.12419 0.58383 0.80469 0.0
C624 C 0.15791 0.5569 0.71989 0.0
C625 C 0.14034 0.53902 0.67692 0.0
H626 H 0.16461 0.59185 0.81248 0.0
H627 H 0.17794 0.55394 0.7047 0.0
S628 S 0.07053 0.54294 0.70646 0.0
N629 N 0.08101 0.56873 0.77622 0.0
N630 N 0.09593 0.5278 0.65753 0.0
C631 C 0.11448 0.54357 0.69822 0.0
C632 C 0.10638 0.56592 0.76214 0.0
C633 C 0.57246 0.92059 0.19941 0.0
C634 C 0.59242 0.90301 0.1912 0.0
C635 C 0.54928 0.91421 0.25611 0.0
C636 C 0.54509 0.88997 0.30662 0.0
H637 H 0.57479 0.93951 0.16267 0.0
H638 H 0.53479 0.92855 0.26274 0.0
S639 S 0.59146 0.83746 0.31684 0.0
N640 N 0.60656 0.8606 0.24601 0.0
N641 N 0.56307 0.84866 0.3478 0.0
C642 C 0.56495 0.87241 0.30058 0.0
C643 C 0.5885 0.87887 0.24385 0.0
C644 C 0.87567 0.06061 0.49999 0.0
C645 C 0.89396 0.04251 0.53222 0.0
C646 C 0.88251 0.08405 0.44863 0.0
C647 C 0.90808 0.09073 0.42845 0.0
H648 H 0.85582 0.05665 0.51615 0.0
H649 H 0.8675 0.09725 0.42707 0.0
S650 S 0.96342 0.04992 0.49939 0.0
N651 N 0.93874 0.0327 0.54137 0.0
N652 N 0.95184 0.07671 0.44504 0.0
C653 C 0.92662 0.07255 0.459 0.0
C654 C 0.91952 0.04851 0.51081 0.0
C655 C 0.08629 0.10753 0.39008 0.0
C656 C 0.09793 0.1223 0.48237 0.0
C657 C 0.06235 0.11402 0.34156 0.0
C658 C 0.04885 0.13506 0.38591 0.0
H659 H 0.09613 0.09138 0.35194 0.0
H660 H 0.05436 0.10263 0.26827 0.0
S661 S 0.07017 0.17917 0.63008 0.0
N662 N 0.09351 0.15857 0.61818 0.0
N663 N 0.04861 0.17031 0.52842 0.0
C664 C 0.05992 0.14952 0.48015 0.0
C665 C 0.0844 0.14325 0.52797 0.0
C666 C 0.14772 0.93639 0.54358 0.0
C667 C 0.12742 0.93269 0.46159 0.0
C668 C 0.15581 0.96074 0.57704 0.0
C669 C 0.14424 0.98262 0.5291 0.0
H670 H 0.15782 0.92027 0.58071 0.0
H671 H 0.17198 0.96254 0.63782 0.0
S672 S 0.09053 0.98332 0.30841 0.0
N673 N 0.09546 0.95293 0.33476 0.0
N674 N 0.11156 0.99879 0.39263 0.0
C675 C 0.12354 0.97924 0.44871 0.0
C676 C 0.11492 0.95428 0.41635 0.0
C677 C 0.98353 0.91051 0.47928 0.0
C678 C 0.9871 0.88664 0.42352 0.0
C679 C 0.95986 0.9176 0.52901 0.0
C680 C 0.9388 0.90113 0.5248 0.0
H681 H 0.99886 0.92408 0.48204 0.0
H682 H 0.95807 0.9361 0.57103 0.0
S683 S 0.93757 0.83748 0.37873 0.0
N684 N 0.96711 0.84712 0.36305 0.0
N685 N 0.92286 0.86063 0.45063 0.0
C686 C 0.94205 0.87756 0.46609 0.0
C687 C 0.96604 0.87032 0.41681 0.0
C688 C 0.33155 0.25737 0.02914 0.0
C689 C 0.34642 0.24103 0.10094 0.0
C690 C 0.33517 0.28365 0.03366 0.0
C691 C 0.35332 0.29447 0.11239 0.0
H692 H 0.31762 0.24965 0.96613 0.0
H693 H 0.32436 0.29563 0.97229 0.0
S694 S 0.39539 0.26018 0.32729 0.0
N695 N 0.37866 0.23762 0.2597 0.0
N696 N 0.38554 0.28717 0.26725 0.0
C697 C 0.36756 0.27848 0.18837 0.0
C698 C 0.36406 0.25168 0.18302 0.0
C699 C 0.27885 0.66016 0.89051 0.0
C700 C 0.28768 0.68455 0.86042 0.0
C701 C 0.2531 0.65559 0.91298 0.0
C702 C 0.23522 0.67521 0.90722 0.0
H703 H 0.29197 0.64475 0.90377 0.0
H704 H 0.24716 0.63671 0.9392 0.0
S705 S 0.24848 0.74256 0.83765 0.0
N706 N 0.27629 0.72855 0.82605 0.0
N707 N 0.2281 0.72003 0.87438 0.0
C708 C 0.24366 0.69961 0.87699 0.0
C709 C 0.26982 0.70424 0.85235 0.0
C710 C 0.65833 0.78669 0.16342 0.0
C711 C 0.67758 0.79499 0.08376 0.0
C712 C 0.65514 0.76084 0.18972 0.0
C713 C 0.67073 0.74247 0.13527 0.0
H714 H 0.64673 0.80037 0.21125 0.0
H715 H 0.641 0.75516 0.2563 0.0
S716 S 0.72304 0.7544 0.91666 0.0
N717 N 0.71192 0.78288 0.94845 0.0
N718 N 0.70547 0.73422 -0.00435 0.0
C719 C 0.68926 0.75045 0.05151 0.0
C720 C 0.69282 0.77675 0.02646 0.0
C721 C 0.78116 0.34996 0.7098 0.0
C722 C 0.79515 0.34495 0.81731 0.0
C723 C 0.7549 0.35418 0.71457 0.0
C724 C 0.74179 0.35301 0.82686 0.0
H725 H 0.79077 0.35128 0.62215 0.0
H726 H 0.74509 0.35936 0.631 0.0
S727 S 0.76959 0.3376 0.13159 0.0
N728 N 0.79395 0.33718 0.03659 0.0
N729 N 0.74466 0.34468 0.04646 0.0
C730 C 0.75559 0.34704 0.93402 0.0
C731 C 0.78225 0.34307 0.92907 0.0
C732 C 0.84324 0.74797 0.69154 0.0
C733 C 0.85835 0.73906 0.5944 0.0
C734 C 0.84097 0.77409 0.71517 0.0
C735 C 0.85419 0.7921 0.64437 0.0
H736 H 0.83199 0.73476 0.74466 0.0
H737 H 0.82811 0.78038 0.78624 0.0
S738 S 0.89674 0.7784 0.38263 0.0
N739 N 0.88713 0.75022 0.42943 0.0
N740 N 0.88315 0.79912 0.47502 0.0
C741 C 0.87012 0.78333 0.55056 0.0
C742 C 0.87211 0.75686 0.5253 0.0
C743 C 0.78231 0.17575 0.44224 0.0
C744 C 0.79747 0.18068 0.33849 0.0
C745 C 0.75579 0.17374 0.43252 0.0
C746 C 0.74343 0.1772 0.319 0.0
H747 H 0.79115 0.17307 0.5312 0.0
H748 H 0.7451 0.16873 0.51362 0.0
S749 S 0.7746 0.19282 0.02228 0.0
N750 N 0.79828 0.19032 0.12093 0.0
N751 N 0.7486 0.18708 0.10185 0.0
C752 C 0.7585 0.18272 0.21526 0.0
C753 C 0.78544 0.1844 0.22517 0.0
C754 C 0.2007 0.27727 0.64188 0.0
C755 C 0.18254 0.28915 0.56727 0.0
C756 C 0.20346 0.2509 0.6419 0.0
C757 C 0.18772 0.23536 0.56961 0.0
H758 H 0.21239 0.28852 0.70305 0.0
H759 H 0.21764 0.24247 0.70103 0.0
S760 S 0.1379 0.25727 0.35452 0.0
N761 N 0.14903 0.28361 0.41687 0.0
N762 N 0.1543 0.23384 0.41601 0.0
C763 C 0.16983 0.24701 0.49244 0.0
C764 C 0.16721 0.27398 0.49157 0.0
C765 C 0.2733 0.87723 0.44444 0.0
C766 C 0.29176 0.85931 0.41195 0.0
C767 C 0.24734 0.87142 0.43896 0.0
C768 C 0.23881 0.84764 0.39738 0.0
H769 H 0.27908 0.89605 0.47263 0.0
H770 H 0.23393 0.88565 0.46775 0.0
S771 S 0.27964 0.79427 0.29913 0.0
N772 N 0.29985 0.81694 0.33662 0.0
N773 N 0.25114 0.80593 0.3247 0.0
C774 C 0.25718 0.8294 0.36665 0.0
C775 C 0.28361 0.83528 0.37373 0.0
C776 C 0.25435 0.07919 0.82431 0.0
C777 C 0.25015 0.0973 0.73065 0.0
C778 C 0.2761 0.08026 0.90099 0.0
C779 C 0.29425 0.09968 0.88759 0.0
H780 H 0.24017 0.06481 0.84237 0.0
H781 H 0.27815 0.0665 -0.02591 0.0
S782 S 0.2945 0.14885 0.64305 0.0
N783 N 0.26783 0.13315 0.62029 0.0
N784 N 0.3081 0.13526 0.76262 0.0
C785 C 0.29095 0.11683 0.78948 0.0
C786 C 0.2691 0.11564 0.71173 0.0
C787 C 0.12282 0.7473 0.09972 0.0
C788 C 0.10012 0.73449 0.07082 0.0
C789 C 0.12306 0.76994 0.16704 0.0
C790 C 0.10061 0.78142 0.20912 0.0
H791 H 0.14091 0.73965 0.07151 0.0
H792 H 0.14131 0.77861 0.18502 0.0
S793 S 0.0357 0.75627 0.15716 0.0
N794 N 0.05423 0.7353 0.08979 0.0
N795 N 0.05468 0.77826 0.21435 0.0
C796 C 0.07759 0.76913 0.17986 0.0
C797 C 0.07735 0.74568 0.11154 0.0
C798 C 0.75145 0.91082 0.87063 0.0
C799 C 0.74142 0.93332 0.92035 0.0
C800 C 0.77428 0.91043 0.80562 0.0
C801 C 0.78883 0.93247 0.78673 0.0
H802 H 0.74148 0.893 0.88096 0.0
H803 H 0.7807 0.89229 0.77142 0.0
S804 S 0.77125 0.99682 0.89474 0.0
N805 N 0.74767 0.97869 0.94261 0.0
N806 N 0.79117 0.97791 0.82237 0.0
C807 C 0.77904 0.95536 0.8342 0.0
C808 C 0.7553 0.9558 0.90013 0.0
C809 C 0.91157 0.27409 0.04843 0.0
C810 C 0.93387 0.28615 0.00738 0.0
C811 C 0.91214 0.25251 0.12346 0.0
C812 C 0.93504 0.24128 0.16173 0.0
H813 H 0.89315 0.28153 0.02394 0.0
H814 H 0.8941 0.24439 0.15009 0.0
S815 S 0.9992 0.26492 0.08048 0.0
N816 N 0.97989 0.28513 0.01237 0.0
N817 N 0.98095 0.24401 0.15099 0.0
C818 C 0.95766 0.25292 0.1212 0.0
C819 C 0.95707 0.27537 0.04511 0.0
C820 C 0.28038 0.44613 0.31932 0.0
C821 C 0.29142 0.42385 0.27149 0.0
C822 C 0.2575 0.44551 0.38785 0.0
C823 C 0.24476 0.42254 0.41385 0.0
H824 H 0.28957 0.46423 0.3046 0.0
H825 H 0.2498 0.46321 0.42112 0.0
S826 S 0.26512 0.35874 0.30743 0.0
N827 N 0.28688 0.37813 0.25298 0.0
N828 N 0.24512 0.37691 0.38257 0.0
C829 C 0.25565 0.4002 0.36609 0.0
C830 C 0.27853 0.40086 0.29505 0.0
C831 C 0.44558 0.76305 0.67312 0.0
C832 C 0.4236 0.74798 0.68317 0.0
C833 C 0.44545 0.78617 0.60677 0.0
C834 C 0.42346 0.79504 0.54602 0.0
H835 H 0.46285 0.75723 0.71872 0.0
H836 H 0.46263 0.79741 0.60534 0.0
S837 S 0.36175 0.7612 0.53078 0.0
N838 N 0.3797 0.74297 0.61745 0.0
N839 N 0.3798 0.78548 0.49289 0.0
C840 C 0.40176 0.77956 0.55141 0.0
C841 C 0.40175 0.75636 0.61962 0.0
C842 C 0.74842 0.62913 0.34551 0.0
C843 C 0.73575 0.60674 0.31008 0.0
C844 C 0.77166 0.62866 0.40864 0.0
C845 C 0.78377 0.60576 0.43972 0.0
H846 H 0.74023 0.64744 0.32536 0.0
H847 H 0.7803 0.64664 0.43208 0.0
S848 S 0.75894 0.54148 0.36878 0.0
N849 N 0.73725 0.56072 0.3122 0.0
N850 N 0.7811 0.55984 0.42902 0.0
C851 C 0.77142 0.58311 0.40492 0.0
C852 C 0.74749 0.58359 0.34086 0.0
C853 C 0.59034 0.26143 0.51545 0.0
C854 C 0.61273 0.24699 0.50434 0.0
C855 C 0.58953 0.28407 0.5858 0.0
C856 C 0.61096 0.29315 0.65046 0.0
H857 H 0.57328 0.25533 0.46843 0.0
H858 H 0.57206 0.29472 0.58781 0.0
S859 S 0.67369 0.26125 0.66225 0.0
N860 N 0.65651 0.24321 0.5706 0.0
N861 N 0.65485 0.28452 0.70409 0.0
C862 C 0.63319 0.27839 0.64306 0.0
C863 C 0.63411 0.25575 0.57002 0.0
C864 C 0.36401 0.13655 0.49275 0.0
C865 C 0.35503 0.1139 0.43958 0.0
C866 C 0.37165 0.13741 0.6156 0.0
C867 C 0.37071 0.11564 0.68915 0.0
H868 H 0.36605 0.15358 0.43812 0.0
H869 H 0.37834 0.15522 0.65316 0.0
S870 S 0.34548 0.05255 0.59722 0.0
N871 N 0.3434 0.06996 0.47167 0.0
N872 N 0.35787 0.07127 0.70304 0.0
C873 C 0.36099 0.09304 0.63796 0.0
C874 C 0.35304 0.09228 0.51311 0.0
C875 C 0.08828 0.67089 0.48688 0.0
C876 C 0.1095 0.66422 0.5576 0.0
C877 C 0.08639 0.66358 0.36386 0.0
C878 C 0.10567 0.64935 0.3084 0.0
H879 H 0.07305 0.68182 0.52696 0.0
H880 H 0.07029 0.67005 0.31059 0.0
S881 S 0.16318 0.62389 0.45798 0.0
N882 N 0.14865 0.63997 0.56705 0.0
N883 N 0.14548 0.62716 0.33375 0.0
C884 C 0.12652 0.64182 0.3788 0.0
C885 C 0.12838 0.64907 0.50408 0.0
C886 C 0.68912 0.91307 0.51564 0.0
C887 C 0.67161 0.92478 0.43758 0.0
C888 C 0.6835 0.90964 0.63991 0.0
C889 C 0.66019 0.9177 0.68826 0.0
H890 H 0.70717 0.90662 0.48048 0.0
H891 H 0.69777 0.90137 0.69927 0.0
S892 S 0.60646 0.94511 0.51713 0.0
N893 N 0.62879 0.94092 0.41315 0.0
N894 N 0.61887 0.93576 0.64894 0.0
C895 C 0.64228 0.92864 0.61069 0.0
C896 C 0.64783 0.9318 0.48423 0.0
C897 C 0.93854 0.37458 0.29461 0.0
C898 C 0.91739 0.36575 0.22842 0.0
C899 C 0.94256 0.36735 0.41634 0.0
C900 C 0.92544 0.35123 0.47663 0.0
H901 H 0.95232 0.38696 0.25161 0.0
H902 H 0.95872 0.37523 0.46439 0.0
S903 S 0.86827 0.32101 0.34147 0.0
N904 N 0.87992 0.33867 0.22985 0.0
N905 N 0.88745 0.32526 0.45971 0.0
C906 C 0.90455 0.3417 0.41078 0.0
C907 C 0.90041 0.34908 0.28677 0.0
C908 C 0.37076 0.39942 0.57103 0.0
C909 C 0.37483 0.42161 0.50288 0.0
C910 C 0.36296 0.40056 0.69308 0.0
C911 C 0.35901 0.42396 0.7519 0.0
H912 H 0.37327 0.38095 0.52952 0.0
H913 H 0.36071 0.38288 0.74235 0.0
S914 S 0.36557 0.48771 0.6121 0.0
N915 N 0.37359 0.46784 0.50204 0.0
N916 N 0.35837 0.46982 0.7313 0.0
C917 C 0.3624 0.44632 0.68419 0.0
C918 C 0.37067 0.4452 0.5601 0.0
C919 C 0.43694 0.67093 0.27273 0.0
C920 C 0.4171 0.68298 0.21012 0.0
C921 C 0.43424 0.6634 0.39455 0.0
C922 C 0.4117 0.66801 0.45898 0.0
H923 H 0.45442 0.66647 0.22662 0.0
H924 H 0.45012 0.65418 0.43882 0.0
S925 S 0.35482 0.70133 0.33953 0.0
N926 N 0.37476 0.70085 0.22304 0.0
N927 N 0.36952 0.68676 0.45308 0.0
C928 C 0.39186 0.68073 0.39847 0.0
C929 C 0.39469 0.68842 0.2742 0.0
C930 C 0.65798 0.63683 0.73754 0.0
C931 C 0.66812 0.61553 0.79694 0.0
C932 C 0.65006 0.63556 0.61549 0.0
C933 C 0.65201 0.61295 0.54831 0.0
H934 H 0.65539 0.65448 0.78628 0.0
H935 H 0.64271 0.65256 0.5728 0.0
S936 S 0.67847 0.55207 0.65973 0.0
N937 N 0.68052 0.57134 0.77879 0.0
N938 N 0.66557 0.5689 0.54837 0.0
C939 C 0.6622 0.59146 0.60623 0.0
C940 C 0.67043 0.59282 0.73052 0.0
C941 C 0.63672 0.37268 0.349 0.0
C942 C 0.61447 0.37649 0.41673 0.0
C943 C 0.63566 0.36506 0.22666 0.0
C944 C 0.61229 0.36109 0.16719 0.0
H945 H 0.65517 0.37524 0.39104 0.0
H946 H 0.65338 0.36298 0.17773 0.0
S947 S 0.54841 0.36717 0.30546 0.0
N948 N 0.56823 0.37503 0.41654 0.0
N949 N 0.56638 0.36027 0.18635 0.0
C950 C 0.58986 0.36429 0.23437 0.0
C951 C 0.5909 0.37232 0.35886 0.0
C952 C 0.86391 0.63254 0.00919 0.0
C953 C 0.85214 0.61234 0.9475 0.0
C954 C 0.87139 0.63011 0.13153 0.0
C955 C 0.86733 0.60742 0.19621 0.0
H956 H 0.86823 0.65004 0.96174 0.0
H957 H 0.88018 0.64623 0.17631 0.0
S958 S 0.83544 0.54961 0.07814 0.0
N959 N 0.83559 0.56938 0.96066 0.0
N960 N 0.84958 0.56482 0.19179 0.0
C961 C 0.85525 0.58717 0.13608 0.0
C962 C 0.84752 0.5897 0.0116 0.0
C963 C 0.59393 0.1608 0.79518 0.0
C964 C 0.6165 0.16474 0.72968 0.0
C965 C 0.59178 0.16829 0.91756 0.0
C966 C 0.61217 0.17998 -0.02132 0.0
H967 H 0.57766 0.15205 0.75137 0.0
H968 H 0.5743 0.16408 0.96549 0.0
S969 S 0.67496 0.19597 0.84715 0.0
N970 N 0.65947 0.18186 0.73444 0.0
N971 N 0.65519 0.19628 0.96427 0.0
C972 C 0.63467 0.18453 0.91388 0.0
C973 C 0.63698 0.17667 0.78971 0.0
C974 C 0.16521 0.39499 0.11787 0.0
C975 C 0.16223 0.41732 0.18617 0.0
C976 C 0.17297 0.39584 -0.00429 0.0
C977 C 0.17795 0.41906 0.93707 0.0
H978 H 0.16183 0.37664 0.15931 0.0
H979 H 0.17431 0.3781 0.9462 0.0
S980 S 0.17467 0.48298 0.07749 0.0
N981 N 0.1658 0.46344 0.1876 0.0
N982 N 0.18083 0.46485 0.95788 0.0
C983 C 0.17568 0.44154 0.00495 0.0
C984 C 0.16751 0.44073 0.12918 0.0
C985 C 0.39856 0.87175 -0.02146 0.0
C986 C 0.42087 0.86357 0.03689 0.0
C987 C 0.39871 0.87929 0.85605 0.0
C988 C 0.42115 0.87887 0.78727 0.0
H989 H 0.38086 0.87301 0.02837 0.0
H990 H 0.38101 0.88516 0.81452 0.0
S991 S 0.48445 0.85767 0.89529 0.0
N992 N 0.4658 0.85444 0.01579 0.0
N993 N 0.46623 0.86888 0.7848 0.0
C994 C 0.44363 0.87057 0.84404 0.0
C995 C 0.44341 0.86267 0.96878 0.0
C996 C 0.86229 0.89818 0.21715 0.0
C997 C 0.85579 0.921 0.27557 0.0
C998 C 0.86997 0.89789 0.09475 0.0
C999 C 0.87138 0.92038 0.02638 0.0
H1000 H 0.86224 0.88043 0.26706 0.0
H1001 H 0.87456 0.87985 0.05303 0.0
S1002 S 0.85487 0.98498 0.13515 0.0
N1003 N 0.85019 0.9665 0.25528 0.0
N1004 N 0.86472 0.96608 0.02448 0.0
C1005 C 0.8647 0.94336 0.08334 0.0
C1006 C 0.85671 0.94361 0.20789 0.0
C1007 C 0.94094 0.15113 0.87176 0.0
C1008 C 0.92075 0.16139 0.93888 0.0
C1009 C 0.94499 0.15797 0.74968 0.0
C1010 C 0.92902 0.17533 0.69049 0.0
H1011 H 0.95386 0.13781 0.91419 0.0
H1012 H 0.96012 0.14877 0.70049 0.0
S1013 S 0.87466 0.20927 0.82823 0.0
N1014 N 0.88538 0.19096 0.93957 0.0
N1015 N 0.89303 0.20366 0.70871 0.0
C1016 C 0.90905 0.18617 0.75707 0.0
C1017 C 0.90482 0.17914 0.88143 0.0
C1018 C 0.17374 0.08562 0.02313 0.0
C1019 C 0.16612 0.10808 0.96467 0.0
C1020 C 0.18108 0.08571 0.14616 0.0
C1021 C 0.18104 0.10823 0.21464 0.0
H1022 H 0.17495 0.06799 0.9726 0.0
H1023 H 0.1867 0.06797 0.18799 0.0
S1024 S 0.16072 0.17175 0.10532 0.0
N1025 N 0.15755 0.15307 -0.01531 0.0
N1026 N 0.17149 0.15346 0.21651 0.0
C1027 C 0.17302 0.13079 0.15755 0.0
C1028 C 0.16538 0.13062 0.03255 0.0
C1029 C 0.08985 0.8622 0.78866 0.0
C1030 C 0.1082 0.84767 0.72804 0.0
C1031 C 0.09319 0.86947 0.91068 0.0
C1032 C 0.11486 0.86221 -0.02313 0.0
H1033 H 0.07315 0.86879 0.74082 0.0
H1034 H 0.07849 0.88061 0.95387 0.0
S1035 S 0.1673 0.82182 0.86305 0.0
N1036 N 0.14799 0.82478 0.74455 0.0
N1037 N 0.15426 0.83825 -0.02481 0.0
C1038 C 0.13311 0.84709 0.91825 0.0
C1039 C 0.12966 0.83969 0.79384 0.0
loop_
_geom_bond_atom_site_label_1
_geom_bond_atom_site_label_2
_geom_bond_distance
_geom_bond_site_symmetry_2
_ccdc_geom_bond_type
Zn0 O1 2.055 1_554 S
Zn0 O8 2.046 . S
Zn0 N16 2.036 . S
Zn0 O28 2.053 . S
Zn0 O30 2.066 . S
O1 Zn0 2.055 1_556 S
O1 C4 1.259 . S
C2 O30 1.256 . S
C2 O31 1.244 . S
Zn3 O5 2.046 1_554 S
Zn3 O7 2.055 . S
Zn3 N9 2.036 . S
Zn3 O27 2.066 . S
Zn3 O31 2.053 . S
C4 O1 1.259 . S
C4 O5 1.254 . S
O5 Zn3 2.046 1_556 S
O5 C4 1.254 . S
C6 O27 1.256 . S
C6 O28 1.244 . S
O7 Zn3 2.055 . S
O7 C29 1.259 . S
O8 Zn0 2.046 . S
O8 C29 1.254 . S
N9 Zn3 2.036 . S
N9 C10 1.298 . S
N9 N12 1.398 . S
C10 N9 1.298 . S
C10 N13 1.367 1_545 S
C10 C23 1.481 . S
C11 N12 1.307 . S
C11 N13 1.378 1_545 S
N12 N9 1.398 . S
N12 C11 1.307 . S
N13 C10 1.367 1_565 S
N13 C11 1.378 1_565 S
C14 N16 1.298 . S
C14 N18 1.367 . S
C14 C22 1.481 1_554 S
C15 N17 1.299 . S
C15 N18 1.379 . S
N16 Zn0 2.036 . S
N16 C14 1.298 . S
N16 N17 1.398 . S
N17 C15 1.299 . S
N17 N16 1.398 . S
N18 C14 1.367 . S
N18 C15 1.379 . S
H19 C22 0.980 . S
H20 C22 0.981 . S
H21 C22 0.981 . S
C22 C14 1.481 1_556 S
C22 H19 0.980 . S
C22 H20 0.981 . S
C22 H21 0.981 . S
C23 C10 1.481 . S
C23 H24 0.980 . S
C23 H25 0.981 . S
C23 H26 0.981 . S
H24 C23 0.980 . S
H25 C23 0.981 . S
H26 C23 0.981 . S
O27 Zn3 2.066 . S
O27 C6 1.256 . S
O28 Zn0 2.053 . S
O28 C6 1.244 . S
C29 O7 1.259 . S
C29 O8 1.254 . S
O30 Zn0 2.066 . S
O30 C2 1.256 . S
O31 C2 1.244 . S
O31 Zn3 2.053 . S
Zn32 O33 2.055 1_556 S
Zn32 O40 2.046 . S
Zn32 N48 2.036 . S
Zn32 O60 2.053 . S
Zn32 O62 2.066 . S
O33 Zn32 2.055 1_554 S
O33 C36 1.259 . S
C34 O62 1.256 . S
C34 O63 1.244 . S
Zn35 O37 2.046 1_556 S
Zn35 O39 2.055 . S
Zn35 N41 2.036 . S
Zn35 O59 2.066 . S
Zn35 O63 2.053 . S
C36 O33 1.259 . S
C36 O37 1.254 . S
O37 Zn35 2.046 1_554 S
O37 C36 1.254 . S
C38 O59 1.256 . S
C38 O60 1.244 . S
O39 Zn35 2.055 . S
O39 C61 1.259 . S
O40 Zn32 2.046 . S
O40 C61 1.254 . S
N41 Zn35 2.036 . S
N41 C42 1.298 . S
N41 N44 1.398 . S
C42 N41 1.298 . S
C42 N45 1.367 1_455 S
C42 C55 1.481 . S
C43 N44 1.307 . S
C43 N45 1.378 1_455 S
N44 N41 1.398 . S
N44 C43 1.307 . S
N45 C42 1.367 1_655 S
N45 C43 1.378 1_655 S
C46 N48 1.298 . S
C46 N50 1.367 . S
C46 C54 1.481 1_556 S
C47 N49 1.299 . S
C47 N50 1.379 . S
N48 Zn32 2.036 . S
N48 C46 1.298 . S
N48 N49 1.398 . S
N49 C47 1.299 . S
N49 N48 1.398 . S
N50 C46 1.367 . S
N50 C47 1.379 . S
H51 C54 0.980 . S
H52 C54 0.981 . S
H53 C54 0.981 . S
C54 C46 1.481 1_554 S
C54 H51 0.980 . S
C54 H52 0.981 . S
C54 H53 0.981 . S
C55 C42 1.481 . S
C55 H56 0.980 . S
C55 H57 0.981 . S
C55 H58 0.981 . S
H56 C55 0.980 . S
H57 C55 0.981 . S
H58 C55 0.981 . S
O59 Zn35 2.066 . S
O59 C38 1.256 . S
O60 Zn32 2.053 . S
O60 C38 1.244 . S
C61 O39 1.259 . S
C61 O40 1.254 . S
O62 Zn32 2.066 . S
O62 C34 1.256 . S
O63 C34 1.244 . S
O63 Zn35 2.053 . S
Zn64 O65 2.055 . S
Zn64 O72 2.046 1_554 S
Zn64 N80 2.036 . S
Zn64 O92 2.053 . S
Zn64 O94 2.066 . S
O65 Zn64 2.055 . S
O65 C68 1.259 . S
C66 O94 1.256 . S
C66 O95 1.244 . S
Zn67 O69 2.046 . S
Zn67 O71 2.055 1_554 S
Zn67 N73 2.036 . S
Zn67 O91 2.066 . S
Zn67 O95 2.053 . S
C68 O65 1.259 . S
C68 O69 1.254 . S
O69 Zn67 2.046 . S
O69 C68 1.254 . S
C70 O91 1.256 . S
C70 O92 1.244 . S
O71 Zn67 2.055 1_556 S
O71 C93 1.259 . S
O72 Zn64 2.046 1_556 S
O72 C93 1.254 . S
N73 Zn67 2.036 . S
N73 C74 1.298 . S
N73 N76 1.398 . S
C74 N73 1.298 . S
C74 N77 1.367 . S
C74 C87 1.481 1_554 S
C75 N76 1.299 . S
C75 N77 1.379 . S
N76 N73 1.398 . S
N76 C75 1.299 . S
N77 C74 1.367 . S
N77 C75 1.379 . S
C78 N80 1.298 . S
C78 N82 1.367 1_565 S
C78 C86 1.481 . S
C79 N81 1.307 . S
C79 N82 1.378 1_565 S
N80 Zn64 2.036 . S
N80 C78 1.298 . S
N80 N81 1.398 . S
N81 C79 1.307 . S
N81 N80 1.398 . S
N82 C78 1.367 1_545 S
N82 C79 1.378 1_545 S
H83 C86 0.980 . S
H84 C86 0.981 . S
H85 C86 0.981 . S
C86 C78 1.481 . S
C86 H83 0.980 . S
C86 H84 0.981 . S
C86 H85 0.981 . S
C87 C74 1.481 1_556 S
C87 H88 0.980 . S
C87 H89 0.981 . S
C87 H90 0.981 . S
H88 C87 0.980 . S
H89 C87 0.981 . S
H90 C87 0.981 . S
O91 Zn67 2.066 . S
O91 C70 1.256 . S
O92 Zn64 2.053 . S
O92 C70 1.244 . S
C93 O71 1.259 . S
C93 O72 1.254 . S
O94 Zn64 2.066 . S
O94 C66 1.256 . S
O95 C66 1.244 . S
O95 Zn67 2.053 . S
Zn96 O97 2.055 . S
Zn96 O104 2.046 1_556 S
Zn96 N112 2.036 . S
Zn96 O124 2.053 . S
Zn96 O126 2.066 . S
O97 Zn96 2.055 . S
O97 C100 1.259 . S
C98 O126 1.256 . S
C98 O127 1.244 . S
Zn99 O101 2.046 . S
Zn99 O103 2.055 1_556 S
Zn99 N105 2.036 . S
Zn99 O123 2.066 . S
Zn99 O127 2.053 . S
C100 O97 1.259 . S
C100 O101 1.254 . S
O101 Zn99 2.046 . S
O101 C100 1.254 . S
C102 O123 1.256 . S
C102 O124 1.244 . S
O103 Zn99 2.055 1_554 S
O103 C125 1.259 . S
O104 Zn96 2.046 1_554 S
O104 C125 1.254 . S
N105 Zn99 2.036 . S
N105 C106 1.298 . S
N105 N108 1.398 . S
C106 N105 1.298 . S
C106 N109 1.367 . S
C106 C119 1.481 1_556 S
C107 N108 1.299 . S
C107 N109 1.379 . S
N108 N105 1.398 . S
N108 C107 1.299 . S
N109 C106 1.367 . S
N109 C107 1.379 . S
C110 N112 1.298 . S
C110 N114 1.367 1_655 S
C110 C118 1.481 . S
C111 N113 1.307 . S
C111 N114 1.378 1_655 S
N112 Zn96 2.036 . S
N112 C110 1.298 . S
N112 N113 1.398 . S
N113 C111 1.307 . S
N113 N112 1.398 . S
N114 C110 1.367 1_455 S
N114 C111 1.378 1_455 S
H115 C118 0.980 . S
H116 C118 0.981 . S
H117 C118 0.981 . S
C118 C110 1.481 . S
C118 H115 0.980 . S
C118 H116 0.981 . S
C118 H117 0.981 . S
C119 C106 1.481 1_554 S
C119 H120 0.980 . S
C119 H121 0.981 . S
C119 H122 0.981 . S
H120 C119 0.980 . S
H121 C119 0.981 . S
H122 C119 0.981 . S
O123 Zn99 2.066 . S
O123 C102 1.256 . S
O124 Zn96 2.053 . S
O124 C102 1.244 . S
C125 O103 1.259 . S
C125 O104 1.254 . S
O126 Zn96 2.066 . S
O126 C98 1.256 . S
O127 C98 1.244 . S
O127 Zn99 2.053 . S
Zn128 O129 2.055 . S
Zn128 O136 2.046 . S
Zn128 N144 2.036 . S
Zn128 O156 2.053 1_554 S
Zn128 O158 2.066 . S
O129 Zn128 2.055 . S
O129 C132 1.259 . S
C130 O158 1.256 . S
C130 O159 1.244 . S
Zn131 O133 2.046 . S
Zn131 O135 2.055 . S
Zn131 N137 2.036 . S
Zn131 O155 2.066 1_554 S
Zn131 O159 2.053 . S
C132 O129 1.259 . S
C132 O133 1.254 . S
O133 Zn131 2.046 . S
O133 C132 1.254 . S
C134 O155 1.256 . S
C134 O156 1.244 . S
O135 Zn131 2.055 . S
O135 C157 1.259 . S
O136 Zn128 2.046 . S
O136 C157 1.254 . S
N137 Zn131 2.036 . S
N137 C138 1.298 . S
N137 N140 1.398 . S
C138 N137 1.298 . S
C138 N141 1.367 . S
C138 C151 1.481 1_554 S
C139 N140 1.299 . S
C139 N141 1.379 . S
N140 N137 1.398 . S
N140 C139 1.299 . S
N141 C138 1.367 . S
N141 C139 1.379 . S
C142 N144 1.298 . S
C142 N146 1.367 . S
C142 C150 1.481 . S
C143 N145 1.299 1_554 S
C143 N146 1.379 . S
N144 Zn128 2.036 . S
N144 C142 1.298 . S
N144 N145 1.396 1_554 S
N145 C143 1.299 1_556 S
N145 N144 1.396 1_556 S
N146 C142 1.367 . S
N146 C143 1.379 . S
H147 C150 0.980 . S
H148 C150 0.981 . S
H149 C150 0.981 . S
C150 C142 1.481 . S
C150 H147 0.980 . S
C150 H148 0.981 . S
C150 H149 0.981 . S
C151 C138 1.481 1_556 S
C151 H152 0.980 1_556 S
C151 H153 0.981 . S
C151 H154 0.981 . S
H152 C151 0.980 1_554 S
H153 C151 0.981 . S
H154 C151 0.981 . S
O155 Zn131 2.066 1_556 S
O155 C134 1.256 . S
O156 Zn128 2.053 1_556 S
O156 C134 1.244 . S
C157 O135 1.259 . S
C157 O136 1.254 . S
O158 Zn128 2.066 . S
O158 C130 1.256 . S
O159 C130 1.244 . S
O159 Zn131 2.053 . S
Zn160 O161 2.055 . S
Zn160 O168 2.046 . S
Zn160 N176 2.036 . S
Zn160 O188 2.053 . S
Zn160 O190 2.066 1_556 S
O161 Zn160 2.055 . S
O161 C164 1.259 . S
C162 O190 1.256 . S
C162 O191 1.244 . S
Zn163 O165 2.046 . S
Zn163 O167 2.055 . S
Zn163 N169 2.036 . S
Zn163 O187 2.066 . S
Zn163 O191 2.053 1_556 S
C164 O161 1.259 . S
C164 O165 1.254 . S
O165 Zn163 2.046 . S
O165 C164 1.254 . S
C166 O187 1.256 . S
C166 O188 1.244 . S
O167 Zn163 2.055 . S
O167 C189 1.259 . S
O168 Zn160 2.046 . S
O168 C189 1.254 . S
N169 Zn163 2.036 . S
N169 C170 1.298 . S
N169 N172 1.396 1_556 S
C170 N169 1.298 . S
C170 N173 1.367 . S
C170 C183 1.481 . S
C171 N172 1.299 1_556 S
C171 N173 1.379 . S
N172 N169 1.396 1_554 S
N172 C171 1.299 1_554 S
N173 C170 1.367 . S
N173 C171 1.379 . S
C174 N176 1.298 . S
C174 N178 1.367 . S
C174 C182 1.481 1_556 S
C175 N177 1.299 . S
C175 N178 1.379 . S
N176 Zn160 2.036 . S
N176 C174 1.298 . S
N176 N177 1.398 . S
N177 C175 1.299 . S
N177 N176 1.398 . S
N178 C174 1.367 . S
N178 C175 1.379 . S
H179 C182 0.980 1_556 S
H180 C182 0.981 . S
H181 C182 0.981 . S
C182 C174 1.481 1_554 S
C182 H179 0.980 1_554 S
C182 H180 0.981 . S
C182 H181 0.981 . S
C183 C170 1.481 . S
C183 H184 0.980 . S
C183 H185 0.981 . S
C183 H186 0.981 . S
H184 C183 0.980 . S
H185 C183 0.981 . S
H186 C183 0.981 . S
O187 Zn163 2.066 . S
O187 C166 1.256 . S
O188 Zn160 2.053 . S
O188 C166 1.244 . S
C189 O167 1.259 . S
C189 O168 1.254 . S
O190 Zn160 2.066 1_554 S
O190 C162 1.256 . S
O191 C162 1.244 . S
O191 Zn163 2.053 1_554 S
Zn192 O193 2.055 . S
Zn192 O200 2.046 . S
Zn192 N208 2.036 . S
Zn192 O220 2.053 1_554 S
Zn192 O222 2.066 . S
O193 Zn192 2.055 . S
O193 C196 1.259 . S
C194 O222 1.256 . S
C194 O223 1.244 . S
Zn195 O197 2.046 . S
Zn195 O199 2.055 . S
Zn195 N201 2.036 . S
Zn195 O219 2.066 1_554 S
Zn195 O223 2.053 . S
C196 O193 1.259 . S
C196 O197 1.254 . S
O197 Zn195 2.046 . S
O197 C196 1.254 . S
C198 O219 1.256 . S
C198 O220 1.244 . S
O199 Zn195 2.055 . S
O199 C221 1.259 . S
O200 Zn192 2.046 . S
O200 C221 1.254 . S
N201 Zn195 2.036 . S
N201 C202 1.298 . S
N201 N204 1.398 . S
C202 N201 1.298 . S
C202 N205 1.367 . S
C202 C215 1.481 1_554 S
C203 N204 1.299 . S
C203 N205 1.379 . S
N204 N201 1.398 . S
N204 C203 1.299 . S
N205 C202 1.367 . S
N205 C203 1.379 . S
C206 N208 1.298 . S
C206 N210 1.367 . S
C206 C214 1.481 . S
C207 N209 1.299 1_554 S
C207 N210 1.379 . S
N208 Zn192 2.036 . S
N208 C206 1.298 . S
N208 N209 1.396 1_554 S
N209 C207 1.299 1_556 S
N209 N208 1.396 1_556 S
N210 C206 1.367 . S
N210 C207 1.379 . S
H211 C214 0.980 . S
H212 C214 0.981 . S
H213 C214 0.981 . S
C214 C206 1.481 . S
C214 H211 0.980 . S
C214 H212 0.981 . S
C214 H213 0.981 . S
C215 C202 1.481 1_556 S
C215 H216 0.980 1_556 S
C215 H217 0.981 . S
C215 H218 0.981 . S
H216 C215 0.980 1_554 S
H217 C215 0.981 . S
H218 C215 0.981 . S
O219 Zn195 2.066 1_556 S
O219 C198 1.256 . S
O220 Zn192 2.053 1_556 S
O220 C198 1.244 . S
C221 O199 1.259 . S
C221 O200 1.254 . S
O222 Zn192 2.066 . S
O222 C194 1.256 . S
O223 C194 1.244 . S
O223 Zn195 2.053 . S
Zn224 O225 2.055 . S
Zn224 O232 2.046 . S
Zn224 N240 2.036 . S
Zn224 O252 2.053 1_556 S
Zn224 O254 2.066 . S
O225 Zn224 2.055 . S
O225 C228 1.259 . S
C226 O254 1.256 . S
C226 O255 1.244 . S
Zn227 O229 2.046 . S
Zn227 O231 2.055 . S
Zn227 N233 2.036 . S
Zn227 O251 2.066 1_556 S
Zn227 O255 2.053 . S
C228 O225 1.259 . S
C228 O229 1.254 . S
O229 Zn227 2.046 . S
O229 C228 1.254 . S
C230 O251 1.256 . S
C230 O252 1.244 . S
O231 Zn227 2.055 . S
O231 C253 1.259 . S
O232 Zn224 2.046 . S
O232 C253 1.254 . S
N233 Zn227 2.036 . S
N233 C234 1.298 . S
N233 N236 1.398 . S
C234 N233 1.298 . S
C234 N237 1.367 . S
C234 C247 1.481 1_556 S
C235 N236 1.299 . S
C235 N237 1.379 . S
N236 N233 1.398 . S
N236 C235 1.299 . S
N237 C234 1.367 . S
N237 C235 1.379 . S
C238 N240 1.298 . S
C238 N242 1.367 . S
C238 C246 1.481 . S
C239 N241 1.299 1_556 S
C239 N242 1.379 . S
N240 Zn224 2.036 . S
N240 C238 1.298 . S
N240 N241 1.396 1_556 S
N241 C239 1.299 1_554 S
N241 N240 1.396 1_554 S
N242 C238 1.367 . S
N242 C239 1.379 . S
H243 C246 0.980 . S
H244 C246 0.981 . S
H245 C246 0.981 . S
C246 C238 1.481 . S
C246 H243 0.980 . S
C246 H244 0.981 . S
C246 H245 0.981 . S
C247 C234 1.481 1_554 S
C247 H248 0.980 1_554 S
C247 H249 0.981 . S
C247 H250 0.981 . S
H248 C247 0.980 1_556 S
H249 C247 0.981 . S
H250 C247 0.981 . S
O251 Zn227 2.066 1_554 S
O251 C230 1.256 . S
O252 Zn224 2.053 1_554 S
O252 C230 1.244 . S
C253 O231 1.259 . S
C253 O232 1.254 . S
O254 Zn224 2.066 . S
O254 C226 1.256 . S
O255 C226 1.244 . S
O255 Zn227 2.053 . S
Zn256 O257 2.055 . S
Zn256 O264 2.046 . S
Zn256 N272 2.036 . S
Zn256 O284 2.053 . S
Zn256 O286 2.066 . S
O257 Zn256 2.055 . S
O257 C260 1.259 . S
C258 O286 1.256 . S
C258 O287 1.244 . S
Zn259 O261 2.046 . S
Zn259 O263 2.055 . S
Zn259 N265 2.036 . S
Zn259 O283 2.066 . S
Zn259 O287 2.053 . S
C260 O257 1.259 . S
C260 O261 1.254 . S
O261 Zn259 2.046 . S
O261 C260 1.254 . S
C262 O283 1.256 . S
C262 O284 1.244 . S
O263 Zn259 2.055 . S
O263 C285 1.259 . S
O264 Zn256 2.046 . S
O264 C285 1.254 . S
N265 Zn259 2.036 . S
N265 C266 1.298 . S
N265 N268 1.398 . S
C266 N265 1.298 . S
C266 N269 1.367 . S
C266 C279 1.481 . S
C267 N268 1.299 . S
C267 N269 1.379 . S
N268 N265 1.398 . S
N268 C267 1.299 . S
N269 C266 1.367 . S
N269 C267 1.379 . S
C270 N272 1.298 . S
C270 N274 1.367 . S
C270 C278 1.481 . S
C271 N273 1.299 . S
C271 N274 1.379 . S
N272 Zn256 2.036 . S
N272 C270 1.298 . S
N272 N273 1.398 . S
N273 C271 1.299 . S
N273 N272 1.398 . S
N274 C270 1.367 . S
N274 C271 1.379 . S
H275 C278 0.980 . S
H276 C278 0.981 . S
H277 C278 0.981 . S
C278 C270 1.481 . S
C278 H275 0.980 . S
C278 H276 0.981 . S
C278 H277 0.981 . S
C279 C266 1.481 . S
C279 H280 0.980 . S
C279 H281 0.981 . S
C279 H282 0.981 . S
H280 C279 0.980 . S
H281 C279 0.981 . S
H282 C279 0.981 . S
O283 Zn259 2.066 . S
O283 C262 1.256 . S
O284 Zn256 2.053 . S
O284 C262 1.244 . S
C285 O263 1.259 . S
C285 O264 1.254 . S
O286 Zn256 2.066 . S
O286 C258 1.256 . S
O287 C258 1.244 . S
O287 Zn259 2.053 . S
Zn288 O289 2.055 . S
Zn288 O296 2.046 . S
Zn288 N304 2.036 . S
Zn288 O316 2.053 . S
Zn288 O318 2.066 . S
O289 Zn288 2.055 . S
O289 C292 1.259 . S
C290 O318 1.256 . S
C290 O319 1.244 . S
Zn291 O293 2.046 . S
Zn291 O295 2.055 . S
Zn291 N297 2.036 . S
Zn291 O315 2.066 . S
Zn291 O319 2.053 . S
C292 O289 1.259 . S
C292 O293 1.254 . S
O293 Zn291 2.046 . S
O293 C292 1.254 . S
C294 O315 1.256 . S
C294 O316 1.244 . S
O295 Zn291 2.055 . S
O295 C317 1.259 . S
O296 Zn288 2.046 . S
O296 C317 1.254 . S
N297 Zn291 2.036 . S
N297 C298 1.298 . S
N297 N300 1.398 . S
C298 N297 1.298 . S
C298 N301 1.367 . S
C298 C311 1.481 . S
C299 N300 1.299 . S
C299 N301 1.379 . S
N300 N297 1.398 . S
N300 C299 1.299 . S
N301 C298 1.367 . S
N301 C299 1.379 . S
C302 N304 1.298 . S
C302 N306 1.367 . S
C302 C310 1.481 . S
C303 N305 1.299 . S
C303 N306 1.379 . S
N304 Zn288 2.036 . S
N304 C302 1.298 . S
N304 N305 1.398 . S
N305 C303 1.299 . S
N305 N304 1.398 . S
N306 C302 1.367 . S
N306 C303 1.379 . S
H307 C310 0.980 . S
H308 C310 0.981 . S
H309 C310 0.981 . S
C310 C302 1.481 . S
C310 H307 0.980 . S
C310 H308 0.981 . S
C310 H309 0.981 . S
C311 C298 1.481 . S
C311 H312 0.980 . S
C311 H313 0.981 . S
C311 H314 0.981 . S
H312 C311 0.980 . S
H313 C311 0.981 . S
H314 C311 0.981 . S
O315 Zn291 2.066 . S
O315 C294 1.256 . S
O316 Zn288 2.053 . S
O316 C294 1.244 . S
C317 O295 1.259 . S
C317 O296 1.254 . S
O318 Zn288 2.066 . S
O318 C290 1.256 . S
O319 C290 1.244 . S
O319 Zn291 2.053 . S
Zn320 O321 2.055 . S
Zn320 O328 2.046 . S
Zn320 N336 2.036 . S
Zn320 O348 2.053 . S
Zn320 O350 2.066 . S
O321 Zn320 2.055 . S
O321 C324 1.259 . S
C322 O350 1.256 . S
C322 O351 1.244 . S
Zn323 O325 2.046 . S
Zn323 O327 2.055 . S
Zn323 N329 2.036 . S
Zn323 O347 2.066 . S
Zn323 O351 2.053 . S
C324 O321 1.259 . S
C324 O325 1.254 . S
O325 Zn323 2.046 . S
O325 C324 1.254 . S
C326 O347 1.256 . S
C326 O348 1.244 . S
O327 Zn323 2.055 . S
O327 C349 1.259 . S
O328 Zn320 2.046 . S
O328 C349 1.254 . S
N329 Zn323 2.036 . S
N329 C330 1.298 . S
N329 N332 1.398 . S
C330 N329 1.298 . S
C330 N333 1.367 . S
C330 C343 1.481 . S
C331 N332 1.299 . S
C331 N333 1.379 . S
N332 N329 1.398 . S
N332 C331 1.299 . S
N333 C330 1.367 . S
N333 C331 1.379 . S
C334 N336 1.298 . S
C334 N338 1.367 . S
C334 C342 1.481 . S
C335 N337 1.299 . S
C335 N338 1.379 . S
N336 Zn320 2.036 . S
N336 C334 1.298 . S
N336 N337 1.398 . S
N337 C335 1.299 . S
N337 N336 1.398 . S
N338 C334 1.367 . S
N338 C335 1.379 . S
H339 C342 0.980 . S
H340 C342 0.981 . S
H341 C342 0.981 . S
C342 C334 1.481 . S
C342 H339 0.980 . S
C342 H340 0.981 . S
C342 H341 0.981 . S
C343 C330 1.481 . S
C343 H344 0.980 . S
C343 H345 0.981 . S
C343 H346 0.981 . S
H344 C343 0.980 . S
H345 C343 0.981 . S
H346 C343 0.981 . S
O347 Zn323 2.066 . S
O347 C326 1.256 . S
O348 Zn320 2.053 . S
O348 C326 1.244 . S
C349 O327 1.259 . S
C349 O328 1.254 . S
O350 Zn320 2.066 . S
O350 C322 1.256 . S
O351 C322 1.244 . S
O351 Zn323 2.053 . S
Zn352 O353 2.055 . S
Zn352 O360 2.046 . S
Zn352 N368 2.036 . S
Zn352 O380 2.053 . S
Zn352 O382 2.066 . S
O353 Zn352 2.055 . S
O353 C356 1.259 . S
C354 O382 1.256 . S
C354 O383 1.244 . S
Zn355 O357 2.046 . S
Zn355 O359 2.055 . S
Zn355 N361 2.036 . S
Zn355 O379 2.066 . S
Zn355 O383 2.053 . S
C356 O353 1.259 . S
C356 O357 1.254 . S
O357 Zn355 2.046 . S
O357 C356 1.254 . S
C358 O379 1.256 . S
C358 O380 1.244 . S
O359 Zn355 2.055 . S
O359 C381 1.259 . S
O360 Zn352 2.046 . S
O360 C381 1.254 . S
N361 Zn355 2.036 . S
N361 C362 1.298 . S
N361 N364 1.398 . S
C362 N361 1.298 . S
C362 N365 1.367 . S
C362 C375 1.481 . S
C363 N364 1.299 . S
C363 N365 1.379 . S
N364 N361 1.398 . S
N364 C363 1.299 . S
N365 C362 1.367 . S
N365 C363 1.379 . S
C366 N368 1.298 . S
C366 N370 1.367 . S
C366 C374 1.481 . S
C367 N369 1.299 . S
C367 N370 1.379 . S
N368 Zn352 2.036 . S
N368 C366 1.298 . S
N368 N369 1.398 . S
N369 C367 1.299 . S
N369 N368 1.398 . S
N370 C366 1.367 . S
N370 C367 1.379 . S
H371 C374 0.980 . S
H372 C374 0.981 . S
H373 C374 0.981 . S
C374 C366 1.481 . S
C374 H371 0.980 . S
C374 H372 0.981 . S
C374 H373 0.981 . S
C375 C362 1.481 . S
C375 H376 0.980 . S
C375 H377 0.981 . S
C375 H378 0.981 . S
H376 C375 0.980 . S
H377 C375 0.981 . S
H378 C375 0.981 . S
O379 Zn355 2.066 . S
O379 C358 1.256 . S
O380 Zn352 2.053 . S
O380 C358 1.244 . S
C381 O359 1.259 . S
C381 O360 1.254 . S
O382 Zn352 2.066 . S
O382 C354 1.256 . S
O383 C354 1.244 . S
O383 Zn355 2.053 . S
Zn384 O385 2.055 . S
Zn384 O392 2.046 . S
Zn384 N400 2.036 . S
Zn384 O412 2.053 . S
Zn384 O414 2.066 . S
O385 Zn384 2.055 . S
O385 C388 1.259 . S
C386 O414 1.256 . S
C386 O415 1.244 . S
Zn387 O389 2.046 . S
Zn387 O391 2.055 . S
Zn387 N393 2.036 . S
Zn387 O411 2.066 . S
Zn387 O415 2.053 . S
C388 O385 1.259 . S
C388 O389 1.254 . S
O389 Zn387 2.046 . S
O389 C388 1.254 . S
C390 O411 1.256 . S
C390 O412 1.244 . S
O391 Zn387 2.055 . S
O391 C413 1.259 . S
O392 Zn384 2.046 . S
O392 C413 1.254 . S
N393 Zn387 2.036 . S
N393 C394 1.298 . S
N393 N396 1.398 . S
C394 N393 1.298 . S
C394 N397 1.367 . S
C394 C407 1.481 . S
C395 N396 1.299 . S
C395 N397 1.379 . S
N396 N393 1.398 . S
N396 C395 1.299 . S
N397 C394 1.367 . S
N397 C395 1.379 . S
C398 N400 1.298 . S
C398 N402 1.367 1_565 S
C398 C406 1.481 . S
C399 N401 1.307 . S
C399 N402 1.378 1_565 S
N400 Zn384 2.036 . S
N400 C398 1.298 . S
N400 N401 1.398 . S
N401 C399 1.307 . S
N401 N400 1.398 . S
N402 C398 1.367 1_545 S
N402 C399 1.378 1_545 S
H403 C406 0.980 . S
H404 C406 0.981 . S
H405 C406 0.981 . S
C406 C398 1.481 . S
C406 H403 0.980 . S
C406 H404 0.981 . S
C406 H405 0.981 . S
C407 C394 1.481 . S
C407 H408 0.980 . S
C407 H409 0.981 . S
C407 H410 0.981 . S
H408 C407 0.980 . S
H409 C407 0.981 . S
H410 C407 0.981 . S
O411 Zn387 2.066 . S
O411 C390 1.256 . S
O412 Zn384 2.053 . S
O412 C390 1.244 . S
C413 O391 1.259 . S
C413 O392 1.254 . S
O414 Zn384 2.066 . S
O414 C386 1.256 . S
O415 C386 1.244 . S
O415 Zn387 2.053 . S
Zn416 O417 2.055 . S
Zn416 O424 2.046 . S
Zn416 N432 2.036 . S
Zn416 O444 2.053 . S
Zn416 O446 2.066 . S
O417 Zn416 2.055 . S
O417 C420 1.259 . S
C418 O446 1.256 . S
C418 O447 1.244 . S
Zn419 O421 2.046 . S
Zn419 O423 2.055 . S
Zn419 N425 2.036 . S
Zn419 O443 2.066 . S
Zn419 O447 2.053 . S
C420 O417 1.259 . S
C420 O421 1.254 . S
O421 Zn419 2.046 . S
O421 C420 1.254 . S
C422 O443 1.256 . S
C422 O444 1.244 . S
O423 Zn419 2.055 . S
O423 C445 1.259 . S
O424 Zn416 2.046 . S
O424 C445 1.254 . S
N425 Zn419 2.036 . S
N425 C426 1.298 . S
N425 N428 1.398 . S
C426 N425 1.298 . S
C426 N429 1.367 1_655 S
C426 C439 1.481 . S
C427 N428 1.307 . S
C427 N429 1.378 1_655 S
N428 N425 1.398 . S
N428 C427 1.307 . S
N429 C426 1.367 1_455 S
N429 C427 1.378 1_455 S
C430 N432 1.298 . S
C430 N434 1.367 . S
C430 C438 1.481 . S
C431 N433 1.299 . S
C431 N434 1.379 . S
N432 Zn416 2.036 . S
N432 C430 1.298 . S
N432 N433 1.398 . S
N433 C431 1.299 . S
N433 N432 1.398 . S
N434 C430 1.367 . S
N434 C431 1.379 . S
H435 C438 0.980 . S
H436 C438 0.981 . S
H437 C438 0.981 . S
C438 C430 1.481 . S
C438 H435 0.980 . S
C438 H436 0.981 . S
C438 H437 0.981 . S
C439 C426 1.481 . S
C439 H440 0.980 . S
C439 H441 0.981 . S
C439 H442 0.981 . S
H440 C439 0.980 . S
H441 C439 0.981 . S
H442 C439 0.981 . S
O443 Zn419 2.066 . S
O443 C422 1.256 . S
O444 Zn416 2.053 . S
O444 C422 1.244 . S
C445 O423 1.259 . S
C445 O424 1.254 . S
O446 Zn416 2.066 . S
O446 C418 1.256 . S
O447 C418 1.244 . S
O447 Zn419 2.053 . S
Zn448 O449 2.055 . S
Zn448 O456 2.046 . S
Zn448 N464 2.036 . S
Zn448 O476 2.053 . S
Zn448 O478 2.066 . S
O449 Zn448 2.055 . S
O449 C452 1.259 . S
C450 O478 1.256 . S
C450 O479 1.244 . S
Zn451 O453 2.046 . S
Zn451 O455 2.055 . S
Zn451 N457 2.036 . S
Zn451 O475 2.066 . S
Zn451 O479 2.053 . S
C452 O449 1.259 . S
C452 O453 1.254 . S
O453 Zn451 2.046 . S
O453 C452 1.254 . S
C454 O475 1.256 . S
C454 O476 1.244 . S
O455 Zn451 2.055 . S
O455 C477 1.259 . S
O456 Zn448 2.046 . S
O456 C477 1.254 . S
N457 Zn451 2.036 . S
N457 C458 1.298 . S
N457 N460 1.398 . S
C458 N457 1.298 . S
C458 N461 1.367 1_545 S
C458 C471 1.481 . S
C459 N460 1.307 . S
C459 N461 1.378 1_545 S
N460 N457 1.398 . S
N460 C459 1.307 . S
N461 C458 1.367 1_565 S
N461 C459 1.378 1_565 S
C462 N464 1.298 . S
C462 N466 1.367 . S
C462 C470 1.481 . S
C463 N465 1.299 . S
C463 N466 1.379 . S
N464 Zn448 2.036 . S
N464 C462 1.298 . S
N464 N465 1.398 . S
N465 C463 1.299 . S
N465 N464 1.398 . S
N466 C462 1.367 . S
N466 C463 1.379 . S
H467 C470 0.980 . S
H468 C470 0.981 . S
H469 C470 0.981 . S
C470 C462 1.481 . S
C470 H467 0.980 . S
C470 H468 0.981 . S
C470 H469 0.981 . S
C471 C458 1.481 . S
C471 H472 0.980 . S
C471 H473 0.981 . S
C471 H474 0.981 . S
H472 C471 0.980 . S
H473 C471 0.981 . S
H474 C471 0.981 . S
O475 Zn451 2.066 . S
O475 C454 1.256 . S
O476 Zn448 2.053 . S
O476 C454 1.244 . S
C477 O455 1.259 . S
C477 O456 1.254 . S
O478 Zn448 2.066 . S
O478 C450 1.256 . S
O479 C450 1.244 . S
O479 Zn451 2.053 . S
Zn480 O481 2.055 . S
Zn480 O488 2.046 . S
Zn480 N496 2.036 . S
Zn480 O508 2.053 . S
Zn480 O510 2.066 . S
O481 Zn480 2.055 . S
O481 C484 1.259 . S
C482 O510 1.256 . S
C482 O511 1.244 . S
Zn483 O485 2.046 . S
Zn483 O487 2.055 . S
Zn483 N489 2.036 . S
Zn483 O507 2.066 . S
Zn483 O511 2.053 . S
C484 O481 1.259 . S
C484 O485 1.254 . S
O485 Zn483 2.046 . S
O485 C484 1.254 . S
C486 O507 1.256 . S
C486 O508 1.244 . S
O487 Zn483 2.055 . S
O487 C509 1.259 . S
O488 Zn480 2.046 . S
O488 C509 1.254 . S
N489 Zn483 2.036 . S
N489 C490 1.298 . S
N489 N492 1.398 . S
C490 N489 1.298 . S
C490 N493 1.367 . S
C490 C503 1.481 . S
C491 N492 1.299 . S
C491 N493 1.379 . S
N492 N489 1.398 . S
N492 C491 1.299 . S
N493 C490 1.367 . S
N493 C491 1.379 . S
C494 N496 1.298 . S
C494 N498 1.367 1_455 S
C494 C502 1.481 . S
C495 N497 1.307 . S
C495 N498 1.378 1_455 S
N496 Zn480 2.036 . S
N496 C494 1.298 . S
N496 N497 1.398 . S
N497 C495 1.307 . S
N497 N496 1.398 . S
N498 C494 1.367 1_655 S
N498 C495 1.378 1_655 S
H499 C502 0.980 . S
H500 C502 0.981 . S
H501 C502 0.981 . S
C502 C494 1.481 . S
C502 H499 0.980 . S
C502 H500 0.981 . S
C502 H501 0.981 . S
C503 C490 1.481 . S
C503 H504 0.980 . S
C503 H505 0.981 . S
C503 H506 0.981 . S
H504 C503 0.980 . S
H505 C503 0.981 . S
H506 C503 0.981 . S
O507 Zn483 2.066 . S
O507 C486 1.256 . S
O508 Zn480 2.053 . S
O508 C486 1.244 . S
C509 O487 1.259 . S
C509 O488 1.254 . S
O510 Zn480 2.066 . S
O510 C482 1.256 . S
O511 C482 1.244 . S
O511 Zn483 2.053 . S
C512 C513 1.369 . S
C512 C514 1.419 . S
C512 H516 0.930 . S
C513 C512 1.369 . S
C513 C522 1.429 . S
C514 C512 1.419 . S
C514 C515 1.363 . S
C514 H517 0.929 . S
C515 C514 1.363 . S
C515 C521 1.428 . S
H516 C512 0.930 . S
H517 C514 0.929 . S
S518 N519 1.613 1_556 S
S518 N520 1.610 1_556 S
N519 S518 1.613 1_554 S
N519 C522 1.350 . S
N520 S518 1.610 1_554 S
N520 C521 1.351 . S
C521 C515 1.428 . S
C521 N520 1.351 . S
C521 C522 1.434 . S
C522 C513 1.429 . S
C522 N519 1.350 . S
C522 C521 1.434 . S
C523 C524 1.369 . S
C523 C525 1.419 . S
C523 H527 0.930 . S
C524 C523 1.369 . S
C524 C533 1.429 . S
C525 C523 1.419 . S
C525 C526 1.363 . S
C525 H528 0.929 . S
C526 C525 1.363 . S
C526 C532 1.428 . S
H527 C523 0.930 . S
H528 C525 0.929 . S
S529 N530 1.613 . S
S529 N531 1.610 . S
N530 S529 1.613 . S
N530 C533 1.350 . S
N531 S529 1.610 . S
N531 C532 1.351 . S
C532 C526 1.428 . S
C532 N531 1.351 . S
C532 C533 1.434 . S
C533 C524 1.429 . S
C533 N530 1.350 . S
C533 C532 1.434 . S
C534 C535 1.369 . S
C534 C536 1.419 . S
C534 H538 0.930 . S
C535 C534 1.369 . S
C535 C544 1.429 . S
C536 C534 1.419 . S
C536 C537 1.363 . S
C536 H539 0.929 . S
C537 C536 1.363 . S
C537 C543 1.428 . S
H538 C534 0.930 . S
H539 C536 0.929 . S
S540 N541 1.613 . S
S540 N542 1.610 . S
N541 S540 1.613 . S
N541 C544 1.350 . S
N542 S540 1.610 . S
N542 C543 1.351 . S
C543 C537 1.428 . S
C543 N542 1.351 . S
C543 C544 1.434 . S
C544 C535 1.429 . S
C544 N541 1.350 . S
C544 C543 1.434 . S
C545 C546 1.369 . S
C545 C547 1.419 . S
C545 H549 0.930 . S
C546 C545 1.369 . S
C546 C555 1.429 . S
C547 C545 1.419 . S
C547 C548 1.363 . S
C547 H550 0.929 . S
C548 C547 1.363 . S
C548 C554 1.428 . S
H549 C545 0.930 . S
H550 C547 0.929 . S
S551 N552 1.613 . S
S551 N553 1.610 . S
N552 S551 1.613 . S
N552 C555 1.350 . S
N553 S551 1.610 . S
N553 C554 1.351 . S
C554 C548 1.428 . S
C554 N553 1.351 . S
C554 C555 1.434 . S
C555 C546 1.429 . S
C555 N552 1.350 . S
C555 C554 1.434 . S
C556 C557 1.369 1_556 S
C556 C558 1.419 . S
C556 H560 0.930 . S
C557 C556 1.369 1_554 S
C557 C566 1.429 . S
C558 C556 1.419 . S
C558 C559 1.363 . S
C558 H561 0.929 . S
C559 C558 1.363 . S
C559 C565 1.428 . S
H560 C556 0.930 . S
H561 C558 0.929 . S
S562 N563 1.613 . S
S562 N564 1.610 . S
N563 S562 1.613 . S
N563 C566 1.350 . S
N564 S562 1.610 . S
N564 C565 1.351 1_554 S
C565 C559 1.428 . S
C565 N564 1.351 1_556 S
C565 C566 1.434 1_556 S
C566 C557 1.429 . S
C566 N563 1.350 . S
C566 C565 1.434 1_554 S
C567 C568 1.369 . S
C567 C569 1.419 . S
C567 H571 0.930 . S
C568 C567 1.369 . S
C568 C577 1.429 1_554 S
C569 C567 1.419 . S
C569 C570 1.363 1_554 S
C569 H572 0.929 . S
C570 C569 1.363 1_556 S
C570 C576 1.428 . S
H571 C567 0.930 . S
H572 C569 0.929 . S
S573 N574 1.613 . S
S573 N575 1.610 . S
N574 S573 1.613 . S
N574 C577 1.350 . S
N575 S573 1.610 . S
N575 C576 1.351 . S
C576 C570 1.428 . S
C576 N575 1.351 . S
C576 C577 1.434 . S
C577 C568 1.429 1_556 S
C577 N574 1.350 . S
C577 C576 1.434 . S
C578 C579 1.369 . S
C578 C580 1.419 . S
C578 H582 0.930 . S
C579 C578 1.369 . S
C579 C588 1.429 1_554 S
C580 C578 1.419 . S
C580 C581 1.363 1_554 S
C580 H583 0.929 . S
C581 C580 1.363 1_556 S
C581 C587 1.428 . S
H582 C578 0.930 . S
H583 C580 0.929 . S
S584 N585 1.613 . S
S584 N586 1.610 . S
N585 S584 1.613 . S
N585 C588 1.350 . S
N586 S584 1.610 . S
N586 C587 1.351 . S
C587 C581 1.428 . S
C587 N586 1.351 . S
C587 C588 1.434 . S
C588 C579 1.429 1_556 S
C588 N585 1.350 . S
C588 C587 1.434 . S
C589 C590 1.369 . S
C589 C591 1.419 . S
C589 H593 0.930 . S
C590 C589 1.369 . S
C590 C599 1.429 1_554 S
C591 C589 1.419 . S
C591 C592 1.363 1_554 S
C591 H594 0.929 . S
C592 C591 1.363 1_556 S
C592 C598 1.428 . S
H593 C589 0.930 . S
H594 C591 0.929 . S
S595 N596 1.613 . S
S595 N597 1.610 . S
N596 S595 1.613 . S
N596 C599 1.350 . S
N597 S595 1.610 . S
N597 C598 1.351 . S
C598 C592 1.428 . S
C598 N597 1.351 . S
C598 C599 1.434 . S
C599 C590 1.429 1_556 S
C599 N596 1.350 . S
C599 C598 1.434 . S
C600 C601 1.369 . S
C600 C602 1.419 . S
C600 H604 0.930 . S
C601 C600 1.369 . S
C601 C610 1.429 . S
C602 C600 1.419 . S
C602 C603 1.363 . S
C602 H605 0.929 . S
C603 C602 1.363 . S
C603 C609 1.428 . S
H604 C600 0.930 . S
H605 C602 0.929 . S
S606 N607 1.613 1_554 S
S606 N608 1.610 1_554 S
N607 S606 1.613 1_556 S
N607 C610 1.350 . S
N608 S606 1.610 1_556 S
N608 C609 1.351 . S
C609 C603 1.428 . S
C609 N608 1.351 . S
C609 C610 1.434 . S
C610 C601 1.429 . S
C610 N607 1.350 . S
C610 C609 1.434 . S
C611 C612 1.369 . S
C611 C613 1.419 . S
C611 H615 0.930 . S
C612 C611 1.369 . S
C612 C621 1.429 . S
C613 C611 1.419 . S
C613 C614 1.363 . S
C613 H616 0.929 . S
C614 C613 1.363 . S
C614 C620 1.428 . S
H615 C611 0.930 . S
H616 C613 0.929 . S
S617 N618 1.613 . S
S617 N619 1.610 . S
N618 S617 1.613 . S
N618 C621 1.350 . S
N619 S617 1.610 . S
N619 C620 1.351 . S
C620 C614 1.428 . S
C620 N619 1.351 . S
C620 C621 1.434 . S
C621 C612 1.429 . S
C621 N618 1.350 . S
C621 C620 1.434 . S
C622 C623 1.369 . S
C622 C624 1.419 . S
C622 H626 0.930 . S
C623 C622 1.369 . S
C623 C632 1.429 . S
C624 C622 1.419 . S
C624 C625 1.363 . S
C624 H627 0.929 . S
C625 C624 1.363 . S
C625 C631 1.428 . S
H626 C622 0.930 . S
H627 C624 0.929 . S
S628 N629 1.613 . S
S628 N630 1.610 . S
N629 S628 1.613 . S
N629 C632 1.350 . S
N630 S628 1.610 . S
N630 C631 1.351 . S
C631 C625 1.428 . S
C631 N630 1.351 . S
C631 C632 1.434 . S
C632 C623 1.429 . S
C632 N629 1.350 . S
C632 C631 1.434 . S
C633 C634 1.369 . S
C633 C635 1.419 . S
C633 H637 0.930 . S
C634 C633 1.369 . S
C634 C643 1.429 . S
C635 C633 1.419 . S
C635 C636 1.363 . S
C635 H638 0.929 . S
C636 C635 1.363 . S
C636 C642 1.428 . S
H637 C633 0.930 . S
H638 C635 0.929 . S
S639 N640 1.613 1_556 S
S639 N641 1.610 1_556 S
N640 S639 1.613 1_554 S
N640 C643 1.350 . S
N641 S639 1.610 1_554 S
N641 C642 1.351 . S
C642 C636 1.428 . S
C642 N641 1.351 . S
C642 C643 1.434 . S
C643 C634 1.429 . S
C643 N640 1.350 . S
C643 C642 1.434 . S
C644 C645 1.369 . S
C644 C646 1.419 . S
C644 H648 0.930 . S
C645 C644 1.369 . S
C645 C654 1.429 . S
C646 C644 1.419 . S
C646 C647 1.363 . S
C646 H649 0.929 . S
C647 C646 1.363 . S
C647 C653 1.428 . S
H648 C644 0.930 . S
H649 C646 0.929 . S
S650 N651 1.613 . S
S650 N652 1.610 . S
N651 S650 1.613 . S
N651 C654 1.350 . S
N652 S650 1.610 . S
N652 C653 1.351 . S
C653 C647 1.428 . S
C653 N652 1.351 . S
C653 C654 1.434 . S
C654 C645 1.429 . S
C654 N651 1.350 . S
C654 C653 1.434 . S
C655 C656 1.369 . S
C655 C657 1.419 . S
C655 H659 0.930 . S
C656 C655 1.369 . S
C656 C665 1.429 . S
C657 C655 1.419 . S
C657 C658 1.363 . S
C657 H660 0.929 . S
C658 C657 1.363 . S
C658 C664 1.428 . S
H659 C655 0.930 . S
H660 C657 0.929 . S
S661 N662 1.613 . S
S661 N663 1.610 . S
N662 S661 1.613 . S
N662 C665 1.350 . S
N663 S661 1.610 . S
N663 C664 1.351 . S
C664 C658 1.428 . S
C664 N663 1.351 . S
C664 C665 1.434 . S
C665 C656 1.429 . S
C665 N662 1.350 . S
C665 C664 1.434 . S
C666 C667 1.369 . S
C666 C668 1.419 . S
C666 H670 0.930 . S
C667 C666 1.369 . S
C667 C676 1.429 . S
C668 C666 1.419 . S
C668 C669 1.363 . S
C668 H671 0.929 . S
C669 C668 1.363 . S
C669 C675 1.428 . S
H670 C666 0.930 . S
H671 C668 0.929 . S
S672 N673 1.613 . S
S672 N674 1.610 . S
N673 S672 1.613 . S
N673 C676 1.350 . S
N674 S672 1.610 . S
N674 C675 1.351 . S
C675 C669 1.428 . S
C675 N674 1.351 . S
C675 C676 1.434 . S
C676 C667 1.429 . S
C676 N673 1.350 . S
C676 C675 1.434 . S
C677 C678 1.369 . S
C677 C679 1.419 . S
C677 H681 0.930 . S
C678 C677 1.369 . S
C678 C687 1.429 . S
C679 C677 1.419 . S
C679 C680 1.363 . S
C679 H682 0.929 . S
C680 C679 1.363 . S
C680 C686 1.428 . S
H681 C677 0.930 . S
H682 C679 0.929 . S
S683 N684 1.613 . S
S683 N685 1.610 . S
N684 S683 1.613 . S
N684 C687 1.350 . S
N685 S683 1.610 . S
N685 C686 1.351 . S
C686 C680 1.428 . S
C686 N685 1.351 . S
C686 C687 1.434 . S
C687 C678 1.429 . S
C687 N684 1.350 . S
C687 C686 1.434 . S
C688 C689 1.369 . S
C688 C690 1.419 . S
C688 H692 0.930 . S
C689 C688 1.369 . S
C689 C698 1.429 . S
C690 C688 1.419 . S
C690 C691 1.363 . S
C690 H693 0.929 . S
C691 C690 1.363 . S
C691 C697 1.428 . S
H692 C688 0.930 . S
H693 C690 0.929 . S
S694 N695 1.613 . S
S694 N696 1.610 . S
N695 S694 1.613 . S
N695 C698 1.350 . S
N696 S694 1.610 . S
N696 C697 1.351 . S
C697 C691 1.428 . S
C697 N696 1.351 . S
C697 C698 1.434 . S
C698 C689 1.429 . S
C698 N695 1.350 . S
C698 C697 1.434 . S
C699 C700 1.369 . S
C699 C701 1.419 . S
C699 H703 0.930 . S
C700 C699 1.369 . S
C700 C709 1.429 . S
C701 C699 1.419 . S
C701 C702 1.363 . S
C701 H704 0.929 . S
C702 C701 1.363 . S
C702 C708 1.428 1_556 S
H703 C699 0.930 . S
H704 C701 0.929 . S
S705 N706 1.613 . S
S705 N707 1.610 . S
N706 S705 1.613 . S
N706 C709 1.350 1_554 S
N707 S705 1.610 . S
N707 C708 1.351 . S
C708 C702 1.428 1_554 S
C708 N707 1.351 . S
C708 C709 1.434 1_554 S
C709 C700 1.429 . S
C709 N706 1.350 1_556 S
C709 C708 1.434 1_556 S
C710 C711 1.369 . S
C710 C712 1.419 . S
C710 H714 0.930 1_554 S
C711 C710 1.369 . S
C711 C720 1.429 . S
C712 C710 1.419 . S
C712 C713 1.363 . S
C712 H715 0.929 1_554 S
C713 C712 1.363 . S
C713 C719 1.428 . S
H714 C710 0.930 1_556 S
H715 C712 0.929 1_556 S
S716 N717 1.613 . S
S716 N718 1.610 . S
N717 S716 1.613 . S
N717 C720 1.350 . S
N718 S716 1.610 . S
N718 C719 1.351 . S
C719 C713 1.428 . S
C719 N718 1.351 . S
C719 C720 1.434 . S
C720 C711 1.429 . S
C720 N717 1.350 . S
C720 C719 1.434 . S
C721 C722 1.369 . S
C721 C723 1.419 . S
C721 H725 0.930 . S
C722 C721 1.369 . S
C722 C731 1.429 . S
C723 C721 1.419 . S
C723 C724 1.363 . S
C723 H726 0.929 . S
C724 C723 1.363 . S
C724 C730 1.428 . S
H725 C721 0.930 . S
H726 C723 0.929 . S
S727 N728 1.613 . S
S727 N729 1.610 . S
N728 S727 1.613 . S
N728 C731 1.350 1_554 S
N729 S727 1.610 . S
N729 C730 1.351 1_554 S
C730 C724 1.428 . S
C730 N729 1.351 1_556 S
C730 C731 1.434 . S
C731 C722 1.429 . S
C731 N728 1.350 1_556 S
C731 C730 1.434 . S
C732 C733 1.369 . S
C732 C734 1.419 . S
C732 H736 0.930 . S
C733 C732 1.369 . S
C733 C742 1.429 . S
C734 C732 1.419 . S
C734 C735 1.363 . S
C734 H737 0.929 . S
C735 C734 1.363 . S
C735 C741 1.428 . S
H736 C732 0.930 . S
H737 C734 0.929 . S
S738 N739 1.613 . S
S738 N740 1.610 . S
N739 S738 1.613 . S
N739 C742 1.350 . S
N740 S738 1.610 . S
N740 C741 1.351 . S
C741 C735 1.428 . S
C741 N740 1.351 . S
C741 C742 1.434 . S
C742 C733 1.429 . S
C742 N739 1.350 . S
C742 C741 1.434 . S
C743 C744 1.369 . S
C743 C745 1.419 . S
C743 H747 0.930 . S
C744 C743 1.369 . S
C744 C753 1.429 . S
C745 C743 1.419 . S
C745 C746 1.363 . S
C745 H748 0.929 . S
C746 C745 1.363 . S
C746 C752 1.428 . S
H747 C743 0.930 . S
H748 C745 0.929 . S
S749 N750 1.613 . S
S749 N751 1.610 . S
N750 S749 1.613 . S
N750 C753 1.350 . S
N751 S749 1.610 . S
N751 C752 1.351 . S
C752 C746 1.428 . S
C752 N751 1.351 . S
C752 C753 1.434 . S
C753 C744 1.429 . S
C753 N750 1.350 . S
C753 C752 1.434 . S
C754 C755 1.369 . S
C754 C756 1.419 . S
C754 H758 0.930 . S
C755 C754 1.369 . S
C755 C764 1.429 . S
C756 C754 1.419 . S
C756 C757 1.363 . S
C756 H759 0.929 . S
C757 C756 1.363 . S
C757 C763 1.428 . S
H758 C754 0.930 . S
H759 C756 0.929 . S
S760 N761 1.613 . S
S760 N762 1.610 . S
N761 S760 1.613 . S
N761 C764 1.350 . S
N762 S760 1.610 . S
N762 C763 1.351 . S
C763 C757 1.428 . S
C763 N762 1.351 . S
C763 C764 1.434 . S
C764 C755 1.429 . S
C764 N761 1.350 . S
C764 C763 1.434 . S
C765 C766 1.369 . S
C765 C767 1.419 . S
C765 H769 0.930 . S
C766 C765 1.369 . S
C766 C775 1.429 . S
C767 C765 1.419 . S
C767 C768 1.363 . S
C767 H770 0.929 . S
C768 C767 1.363 . S
C768 C774 1.428 . S
H769 C765 0.930 . S
H770 C767 0.929 . S
S771 N772 1.613 . S
S771 N773 1.610 . S
N772 S771 1.613 . S
N772 C775 1.350 . S
N773 S771 1.610 . S
N773 C774 1.351 . S
C774 C768 1.428 . S
C774 N773 1.351 . S
C774 C775 1.434 . S
C775 C766 1.429 . S
C775 N772 1.350 . S
C775 C774 1.434 . S
C776 C777 1.369 . S
C776 C778 1.416 1_556 S
C776 H780 0.930 . S
C777 C776 1.369 . S
C777 C786 1.429 . S
C778 C776 1.416 1_554 S
C778 C779 1.362 1_554 S
C778 H781 0.933 . S
C779 C778 1.362 1_556 S
C779 C785 1.428 . S
H780 C776 0.930 . S
H781 C778 0.933 . S
S782 N783 1.613 . S
S782 N784 1.610 . S
N783 S782 1.613 . S
N783 C786 1.350 . S
N784 S782 1.610 . S
N784 C785 1.351 . S
C785 C779 1.428 . S
C785 N784 1.351 . S
C785 C786 1.434 . S
C786 C777 1.429 . S
C786 N783 1.350 . S
C786 C785 1.434 . S
C787 C788 1.369 . S
C787 C789 1.419 . S
C787 H791 0.930 1_554 S
C788 C787 1.369 . S
C788 C797 1.429 . S
C789 C787 1.419 . S
C789 C790 1.363 . S
C789 H792 0.929 . S
C790 C789 1.363 . S
C790 C796 1.428 . S
H791 C787 0.930 1_556 S
H792 C789 0.929 . S
S793 N794 1.613 . S
S793 N795 1.610 . S
N794 S793 1.613 . S
N794 C797 1.350 . S
N795 S793 1.610 . S
N795 C796 1.351 . S
C796 C790 1.428 . S
C796 N795 1.351 . S
C796 C797 1.434 . S
C797 C788 1.429 . S
C797 N794 1.350 . S
C797 C796 1.434 . S
C798 C799 1.369 . S
C798 C800 1.419 . S
C798 H802 0.930 1_556 S
C799 C798 1.369 . S
C799 C808 1.429 . S
C800 C798 1.419 . S
C800 C801 1.363 . S
C800 H803 0.929 . S
C801 C800 1.363 . S
C801 C807 1.428 . S
H802 C798 0.930 1_554 S
H803 C800 0.929 . S
S804 N805 1.613 . S
S804 N806 1.610 . S
N805 S804 1.613 . S
N805 C808 1.350 . S
N806 S804 1.610 . S
N806 C807 1.351 . S
C807 C801 1.428 . S
C807 N806 1.351 . S
C807 C808 1.434 . S
C808 C799 1.429 . S
C808 N805 1.350 . S
C808 C807 1.434 . S
C809 C810 1.369 . S
C809 C811 1.419 . S
C809 H813 0.930 . S
C810 C809 1.369 . S
C810 C819 1.429 1_554 S
C811 C809 1.419 . S
C811 C812 1.363 . S
C811 H814 0.929 . S
C812 C811 1.363 . S
C812 C818 1.428 . S
H813 C809 0.930 . S
H814 C811 0.929 . S
S815 N816 1.613 . S
S815 N817 1.610 1_556 S
N816 S815 1.613 . S
N816 C819 1.350 . S
N817 S815 1.610 1_554 S
N817 C818 1.351 . S
C818 C812 1.428 . S
C818 N817 1.351 . S
C818 C819 1.434 1_554 S
C819 C810 1.429 1_556 S
C819 N816 1.350 . S
C819 C818 1.434 1_556 S
C820 C821 1.369 . S
C820 C822 1.419 . S
C820 H824 0.930 . S
C821 C820 1.369 . S
C821 C830 1.429 . S
C822 C820 1.419 . S
C822 C823 1.363 . S
C822 H825 0.929 . S
C823 C822 1.363 . S
C823 C829 1.428 . S
H824 C820 0.930 . S
H825 C822 0.929 . S
S826 N827 1.613 . S
S826 N828 1.610 . S
N827 S826 1.613 . S
N827 C830 1.350 . S
N828 S826 1.610 . S
N828 C829 1.351 . S
C829 C823 1.428 . S
C829 N828 1.351 . S
C829 C830 1.434 . S
C830 C821 1.429 . S
C830 N827 1.350 . S
C830 C829 1.434 . S
C831 C832 1.369 . S
C831 C833 1.419 . S
C831 H835 0.930 . S
C832 C831 1.369 . S
C832 C841 1.429 . S
C833 C831 1.419 . S
C833 C834 1.363 . S
C833 H836 0.929 . S
C834 C833 1.363 . S
C834 C840 1.428 . S
H835 C831 0.930 . S
H836 C833 0.929 . S
S837 N838 1.613 . S
S837 N839 1.610 . S
N838 S837 1.613 . S
N838 C841 1.350 . S
N839 S837 1.610 . S
N839 C840 1.351 . S
C840 C834 1.428 . S
C840 N839 1.351 . S
C840 C841 1.434 . S
C841 C832 1.429 . S
C841 N838 1.350 . S
C841 C840 1.434 . S
C842 C843 1.369 . S
C842 C844 1.419 . S
C842 H846 0.930 . S
C843 C842 1.369 . S
C843 C852 1.429 . S
C844 C842 1.419 . S
C844 C845 1.363 . S
C844 H847 0.929 . S
C845 C844 1.363 . S
C845 C851 1.428 . S
H846 C842 0.930 . S
H847 C844 0.929 . S
S848 N849 1.613 . S
S848 N850 1.610 . S
N849 S848 1.613 . S
N849 C852 1.350 . S
N850 S848 1.610 . S
N850 C851 1.351 . S
C851 C845 1.428 . S
C851 N850 1.351 . S
C851 C852 1.434 . S
C852 C843 1.429 . S
C852 N849 1.350 . S
C852 C851 1.434 . S
C853 C854 1.369 . S
C853 C855 1.419 . S
C853 H857 0.930 . S
C854 C853 1.369 . S
C854 C863 1.429 . S
C855 C853 1.419 . S
C855 C856 1.363 . S
C855 H858 0.929 . S
C856 C855 1.363 . S
C856 C862 1.428 . S
H857 C853 0.930 . S
H858 C855 0.929 . S
S859 N860 1.613 . S
S859 N861 1.610 . S
N860 S859 1.613 . S
N860 C863 1.350 . S
N861 S859 1.610 . S
N861 C862 1.351 . S
C862 C856 1.428 . S
C862 N861 1.351 . S
C862 C863 1.434 . S
C863 C854 1.429 . S
C863 N860 1.350 . S
C863 C862 1.434 . S
C864 C865 1.369 . S
C864 C866 1.419 . S
C864 H868 0.930 . S
C865 C864 1.369 . S
C865 C874 1.429 . S
C866 C864 1.419 . S
C866 C867 1.363 . S
C866 H869 0.929 . S
C867 C866 1.363 . S
C867 C873 1.428 . S
H868 C864 0.930 . S
H869 C866 0.929 . S
S870 N871 1.613 . S
S870 N872 1.610 . S
N871 S870 1.613 . S
N871 C874 1.350 . S
N872 S870 1.610 . S
N872 C873 1.351 . S
C873 C867 1.428 . S
C873 N872 1.351 . S
C873 C874 1.434 . S
C874 C865 1.429 . S
C874 N871 1.350 . S
C874 C873 1.434 . S
C875 C876 1.369 . S
C875 C877 1.419 . S
C875 H879 0.930 . S
C876 C875 1.369 . S
C876 C885 1.429 . S
C877 C875 1.419 . S
C877 C878 1.363 . S
C877 H880 0.929 . S
C878 C877 1.363 . S
C878 C884 1.428 . S
H879 C875 0.930 . S
H880 C877 0.929 . S
S881 N882 1.613 . S
S881 N883 1.610 . S
N882 S881 1.613 . S
N882 C885 1.350 . S
N883 S881 1.610 . S
N883 C884 1.351 . S
C884 C878 1.428 . S
C884 N883 1.351 . S
C884 C885 1.434 . S
C885 C876 1.429 . S
C885 N882 1.350 . S
C885 C884 1.434 . S
C886 C887 1.369 . S
C886 C888 1.419 . S
C886 H890 0.930 . S
C887 C886 1.369 . S
C887 C896 1.429 . S
C888 C886 1.419 . S
C888 C889 1.363 . S
C888 H891 0.929 . S
C889 C888 1.363 . S
C889 C895 1.428 . S
H890 C886 0.930 . S
H891 C888 0.929 . S
S892 N893 1.613 . S
S892 N894 1.610 . S
N893 S892 1.613 . S
N893 C896 1.350 . S
N894 S892 1.610 . S
N894 C895 1.351 . S
C895 C889 1.428 . S
C895 N894 1.351 . S
C895 C896 1.434 . S
C896 C887 1.429 . S
C896 N893 1.350 . S
C896 C895 1.434 . S
C897 C898 1.369 . S
C897 C899 1.419 . S
C897 H901 0.930 . S
C898 C897 1.369 . S
C898 C907 1.429 . S
C899 C897 1.419 . S
C899 C900 1.363 . S
C899 H902 0.929 . S
C900 C899 1.363 . S
C900 C906 1.428 . S
H901 C897 0.930 . S
H902 C899 0.929 . S
S903 N904 1.613 . S
S903 N905 1.610 . S
N904 S903 1.613 . S
N904 C907 1.350 . S
N905 S903 1.610 . S
N905 C906 1.351 . S
C906 C900 1.428 . S
C906 N905 1.351 . S
C906 C907 1.434 . S
C907 C898 1.429 . S
C907 N904 1.350 . S
C907 C906 1.434 . S
C908 C909 1.369 . S
C908 C910 1.419 . S
C908 H912 0.930 . S
C909 C908 1.369 . S
C909 C918 1.429 . S
C910 C908 1.419 . S
C910 C911 1.363 . S
C910 H913 0.929 . S
C911 C910 1.363 . S
C911 C917 1.428 . S
H912 C908 0.930 . S
H913 C910 0.929 . S
S914 N915 1.613 . S
S914 N916 1.610 . S
N915 S914 1.613 . S
N915 C918 1.350 . S
N916 S914 1.610 . S
N916 C917 1.351 . S
C917 C911 1.428 . S
C917 N916 1.351 . S
C917 C918 1.434 . S
C918 C909 1.429 . S
C918 N915 1.350 . S
C918 C917 1.434 . S
C919 C920 1.369 . S
C919 C921 1.419 . S
C919 H923 0.930 . S
C920 C919 1.369 . S
C920 C929 1.429 . S
C921 C919 1.419 . S
C921 C922 1.363 . S
C921 H924 0.929 . S
C922 C921 1.363 . S
C922 C928 1.428 . S
H923 C919 0.930 . S
H924 C921 0.929 . S
S925 N926 1.613 . S
S925 N927 1.610 . S
N926 S925 1.613 . S
N926 C929 1.350 . S
N927 S925 1.610 . S
N927 C928 1.351 . S
C928 C922 1.428 . S
C928 N927 1.351 . S
C928 C929 1.434 . S
C929 C920 1.429 . S
C929 N926 1.350 . S
C929 C928 1.434 . S
C930 C931 1.369 . S
C930 C932 1.419 . S
C930 H934 0.930 . S
C931 C930 1.369 . S
C931 C940 1.429 . S
C932 C930 1.419 . S
C932 C933 1.363 . S
C932 H935 0.929 . S
C933 C932 1.363 . S
C933 C939 1.428 . S
H934 C930 0.930 . S
H935 C932 0.929 . S
S936 N937 1.613 . S
S936 N938 1.610 . S
N937 S936 1.613 . S
N937 C940 1.350 . S
N938 S936 1.610 . S
N938 C939 1.351 . S
C939 C933 1.428 . S
C939 N938 1.351 . S
C939 C940 1.434 . S
C940 C931 1.429 . S
C940 N937 1.350 . S
C940 C939 1.434 . S
C941 C942 1.369 . S
C941 C943 1.419 . S
C941 H945 0.930 . S
C942 C941 1.369 . S
C942 C951 1.429 . S
C943 C941 1.419 . S
C943 C944 1.363 . S
C943 H946 0.929 . S
C944 C943 1.363 . S
C944 C950 1.428 . S
H945 C941 0.930 . S
H946 C943 0.929 . S
S947 N948 1.613 . S
S947 N949 1.610 . S
N948 S947 1.613 . S
N948 C951 1.350 . S
N949 S947 1.610 . S
N949 C950 1.351 . S
C950 C944 1.428 . S
C950 N949 1.351 . S
C950 C951 1.434 . S
C951 C942 1.429 . S
C951 N948 1.350 . S
C951 C950 1.434 . S
C952 C953 1.369 1_554 S
C952 C954 1.419 . S
C952 H956 0.930 1_554 S
C953 C952 1.369 1_556 S
C953 C962 1.429 1_556 S
C954 C952 1.419 . S
C954 C955 1.363 . S
C954 H957 0.929 . S
C955 C954 1.363 . S
C955 C961 1.428 . S
H956 C952 0.930 1_556 S
H957 C954 0.929 . S
S958 N959 1.613 . S
S958 N960 1.610 . S
N959 S958 1.613 . S
N959 C962 1.350 . S
N960 S958 1.610 . S
N960 C961 1.351 . S
C961 C955 1.428 . S
C961 N960 1.351 . S
C961 C962 1.434 . S
C962 C953 1.429 1_554 S
C962 N959 1.350 . S
C962 C961 1.434 . S
C963 C964 1.369 . S
C963 C965 1.419 . S
C963 H967 0.930 . S
C964 C963 1.369 . S
C964 C973 1.429 . S
C965 C963 1.419 . S
C965 C966 1.363 1_556 S
C965 H968 0.929 . S
C966 C965 1.363 1_554 S
C966 C972 1.428 1_554 S
H967 C963 0.930 . S
H968 C965 0.929 . S
S969 N970 1.613 . S
S969 N971 1.610 1_556 S
N970 S969 1.613 . S
N970 C973 1.350 . S
N971 S969 1.610 1_554 S
N971 C972 1.351 1_554 S
C972 C966 1.428 1_556 S
C972 N971 1.351 1_556 S
C972 C973 1.434 . S
C973 C964 1.429 . S
C973 N970 1.350 . S
C973 C972 1.434 . S
C974 C975 1.369 . S
C974 C976 1.419 . S
C974 H978 0.930 . S
C975 C974 1.369 . S
C975 C984 1.429 . S
C976 C974 1.419 . S
C976 C977 1.363 1_554 S
C976 H979 0.929 1_554 S
C977 C976 1.363 1_556 S
C977 C983 1.428 1_556 S
H978 C974 0.930 . S
H979 C976 0.929 1_556 S
S980 N981 1.613 . S
S980 N982 1.610 . S
N981 S980 1.613 . S
N981 C984 1.350 . S
N982 S980 1.610 . S
N982 C983 1.351 . S
C983 C977 1.428 1_554 S
C983 N982 1.351 . S
C983 C984 1.434 . S
C984 C975 1.429 . S
C984 N981 1.350 . S
C984 C983 1.434 . S
C985 C986 1.369 1_556 S
C985 C987 1.419 . S
C985 H989 0.930 . S
C986 C985 1.369 1_554 S
C986 C995 1.429 1_554 S
C987 C985 1.419 . S
C987 C988 1.363 . S
C987 H990 0.929 . S
C988 C987 1.363 . S
C988 C994 1.428 . S
H989 C985 0.930 . S
H990 C987 0.929 . S
S991 N992 1.613 1_556 S
S991 N993 1.610 . S
N992 S991 1.613 1_554 S
N992 C995 1.350 1_554 S
N993 S991 1.610 . S
N993 C994 1.351 . S
C994 C988 1.428 . S
C994 N993 1.351 . S
C994 C995 1.434 . S
C995 C986 1.429 1_556 S
C995 N992 1.350 1_556 S
C995 C994 1.434 . S
C996 C997 1.369 . S
C996 C998 1.419 . S
C996 H1000 0.930 . S
C997 C996 1.369 . S
C997 C1006 1.429 . S
C998 C996 1.419 . S
C998 C999 1.363 1_554 S
C998 H1001 0.929 . S
C999 C998 1.363 1_556 S
C999 C1005 1.428 1_556 S
H1000 C996 0.930 . S
H1001 C998 0.929 . S
S1002 N1003 1.613 . S
S1002 N1004 1.610 1_554 S
N1003 S1002 1.613 . S
N1003 C1006 1.350 . S
N1004 S1002 1.610 1_556 S
N1004 C1005 1.351 1_556 S
C1005 C999 1.428 1_554 S
C1005 N1004 1.351 1_554 S
C1005 C1006 1.434 . S
C1006 C997 1.429 . S
C1006 N1003 1.350 . S
C1006 C1005 1.434 . S
C1007 C1008 1.369 1_556 S
C1007 C1009 1.419 . S
C1007 H1011 0.930 . S
C1008 C1007 1.369 1_554 S
C1008 C1017 1.429 1_554 S
C1009 C1007 1.419 . S
C1009 C1010 1.363 . S
C1009 H1012 0.929 . S
C1010 C1009 1.363 . S
C1010 C1016 1.428 . S
H1011 C1007 0.930 . S
H1012 C1009 0.929 . S
S1013 N1014 1.613 1_556 S
S1013 N1015 1.610 . S
N1014 S1013 1.613 1_554 S
N1014 C1017 1.350 1_554 S
N1015 S1013 1.610 . S
N1015 C1016 1.351 . S
C1016 C1010 1.428 . S
C1016 N1015 1.351 . S
C1016 C1017 1.434 . S
C1017 C1008 1.429 1_556 S
C1017 N1014 1.350 1_556 S
C1017 C1016 1.434 . S
C1018 C1019 1.369 1_554 S
C1018 C1020 1.419 . S
C1018 H1022 0.930 . S
C1019 C1018 1.369 1_556 S
C1019 C1028 1.429 1_556 S
C1020 C1018 1.419 . S
C1020 C1021 1.363 . S
C1020 H1023 0.929 . S
C1021 C1020 1.363 . S
C1021 C1027 1.428 . S
H1022 C1018 0.930 . S
H1023 C1020 0.929 . S
S1024 N1025 1.613 . S
S1024 N1026 1.610 . S
N1025 S1024 1.613 . S
N1025 C1028 1.350 . S
N1026 S1024 1.610 . S
N1026 C1027 1.351 . S
C1027 C1021 1.428 . S
C1027 N1026 1.351 . S
C1027 C1028 1.434 . S
C1028 C1019 1.429 1_554 S
C1028 N1025 1.350 . S
C1028 C1027 1.434 . S
C1029 C1030 1.369 . S
C1029 C1031 1.419 . S
C1029 H1033 0.930 . S
C1030 C1029 1.369 . S
C1030 C1039 1.429 . S
C1031 C1029 1.419 . S
C1031 C1032 1.363 1_556 S
C1031 H1034 0.929 . S
C1032 C1031 1.363 1_554 S
C1032 C1038 1.428 1_554 S
H1033 C1029 0.930 . S
H1034 C1031 0.929 . S
S1035 N1036 1.613 . S
S1035 N1037 1.610 1_556 S
N1036 S1035 1.613 . S
N1036 C1039 1.350 . S
N1037 S1035 1.610 1_554 S
N1037 C1038 1.351 1_554 S
C1038 C1032 1.428 1_556 S
C1038 N1037 1.351 1_556 S
C1038 C1039 1.434 . S
C1039 C1030 1.429 . S
C1039 N1036 1.350 . S
C1039 C1038 1.434 . S
C513 C381 1.604 . S
C515 N13 1.608 . S
C524 C285 1.605 . S
C526 N45 1.610 . S
C535 N82 1.612 . S
C537 C317 1.601 . S
C546 N114 1.608 . S
C548 C324 1.604 . S
C557 N141 1.611 . S
C559 C164 1.599 . S
C568 C221 1.604 . S
C570 N178 1.608 . S
C579 N205 1.613 . S
C581 C253 1.600 . S
C590 C157 1.604 . S
C592 N237 1.608 . S
C601 C100 1.600 . S
C603 N269 1.612 . S
C612 N301 1.607 . S
C614 C29 1.603 . S
C623 C61 1.605 . S
C625 N338 1.608 . S
C634 C68 1.599 . S
C636 N365 1.612 . S
C645 N402 1.607 . S
C647 C445 1.603 . S
C656 C477 1.601 . S
C658 N429 1.612 . S
C667 C484 1.601 . S
C669 N461 1.612 . S
C678 N498 1.612 . S
C680 C388 1.599 . S
C689 N18 1.217 . S
C691 N146 1.221 . S
C700 N173 1.216 . S
C702 N50 1.227 . S
C711 N77 1.219 . S
C713 N210 1.229 . S
C722 N109 1.231 . S
C724 N242 1.225 . S
C733 N274 1.219 . S
C735 N397 1.229 . S
C744 N434 1.232 . S
C746 N306 1.222 . S
C755 N333 1.221 . S
C757 N466 1.219 . S
C766 N370 1.229 . S
C768 N493 1.227 . S
C777 C450 2.189 . S
C779 C2 2.185 1_556 S
C788 C34 2.186 1_554 S
C790 C486 2.188 . S
C799 C70 2.185 1_556 S
C801 C390 2.188 . S
C810 C102 2.189 1_554 S
C812 C418 2.185 . S
C821 C130 2.187 . S
C823 C326 2.186 . S
C832 C166 2.187 . S
C834 C354 2.186 . S
C843 C194 2.184 . S
C845 C258 2.188 . S
C854 C290 2.185 . S
C856 C226 2.188 . S
C865 C6 1.169 . S
C867 C4 1.171 . S
C876 C38 1.170 . S
C878 C36 1.171 . S
C887 C66 1.168 . S
C889 C93 1.171 . S
C898 C125 1.171 . S
C900 C98 1.170 . S
C909 C132 1.171 . S
C911 C134 1.169 . S
C920 C162 1.170 . S
C922 C189 1.171 . S
C931 C198 1.169 . S
C933 C196 1.171 . S
C942 C228 1.171 . S
C944 C230 1.170 . S
C953 C262 1.170 . S
C955 C260 1.171 . S
C964 C292 1.172 . S
C966 C294 1.168 . S
C975 C349 1.171 . S
C977 C322 1.169 . S
C986 C358 1.167 . S
C988 C356 1.172 . S
C997 C386 1.170 . S
C999 C413 1.171 . S
C1008 C420 1.171 . S
C1010 C422 1.170 . S
C1019 C452 1.172 . S
C1021 C454 1.169 . S
C1030 C482 1.170 . S
C1032 C509 1.171 . S
