# Generated by pormake.
# Topology wld, (5)-cn, num edge types: 1
# Building blocks:
#     Node 0, Type 0, BuildingBlock: XOMCOT_clean_sbu_0, # of connection points: 5
#     Node 1, Type 0, BuildingBlock: XOMCOT_clean_sbu_0, # of connection points: 5
#     Node 2, Type 0, BuildingBlock: XOMCOT_clean_sbu_0, # of connection points: 5
#     Node 3, Type 0, BuildingBlock: XOMCOT_clean_sbu_0, # of connection points: 5
#     Node 4, Type 0, BuildingBlock: XOMCOT_clean_sbu_0, # of connection points: 5
#     Node 5, Type 0, BuildingBlock: XOMCOT_clean_sbu_0, # of connection points: 5
#     Node 6, Type 0, BuildingBlock: XOMCOT_clean_sbu_0, # of connection points: 5
#     Node 7, Type 0, BuildingBlock: XOMCOT_clean_sbu_0, # of connection points: 5
#     Node 8, Type 0, BuildingBlock: XOMCOT_clean_sbu_0, # of connection points: 5
#     Node 9, Type 0, BuildingBlock: XOMCOT_clean_sbu_0, # of connection points: 5
#     Node 10, Type 0, BuildingBlock: XOMCOT_clean_sbu_0, # of connection points: 5
#     Node 11, Type 0, BuildingBlock: XOMCOT_clean_sbu_0, # of connection points: 5
#     Edge 12, Type (0, 0), BuildingBlock: KIFKEQ_clean_linker_1, # of connection points: 2
#     Edge 13, Type (0, 0), BuildingBlock: KIFKEQ_clean_linker_1, # of connection points: 2
#     Edge 14, Type (0, 0), BuildingBlock: KIFKEQ_clean_linker_1, # of connection points: 2
#     Edge 15, Type (0, 0), BuildingBlock: KIFKEQ_clean_linker_1, # of connection points: 2
#     Edge 16, Type (0, 0), BuildingBlock: KIFKEQ_clean_linker_1, # of connection points: 2
#     Edge 17, Type (0, 0), BuildingBlock: KIFKEQ_clean_linker_1, # of connection points: 2
#     Edge 18, Type (0, 0), BuildingBlock: KIFKEQ_clean_linker_1, # of connection points: 2
#     Edge 19, Type (0, 0), BuildingBlock: KIFKEQ_clean_linker_1, # of connection points: 2
#     Edge 20, Type (0, 0), BuildingBlock: KIFKEQ_clean_linker_1, # of connection points: 2
#     Edge 21, Type (0, 0), BuildingBlock: KIFKEQ_clean_linker_1, # of connection points: 2
#     Edge 22, Type (0, 0), BuildingBlock: KIFKEQ_clean_linker_1, # of connection points: 2
#     Edge 23, Type (0, 0), BuildingBlock: KIFKEQ_clean_linker_1, # of connection points: 2
#     Edge 24, Type (0, 0), BuildingBlock: KIFKEQ_clean_linker_1, # of connection points: 2
#     Edge 25, Type (0, 0), BuildingBlock: KIFKEQ_clean_linker_1, # of connection points: 2
#     Edge 26, Type (0, 0), BuildingBlock: KIFKEQ_clean_linker_1, # of connection points: 2
#     Edge 27, Type (0, 0), BuildingBlock: KIFKEQ_clean_linker_1, # of connection points: 2
#     Edge 28, Type (0, 0), BuildingBlock: KIFKEQ_clean_linker_1, # of connection points: 2
#     Edge 29, Type (0, 0), BuildingBlock: KIFKEQ_clean_linker_1, # of connection points: 2
#     Edge 30, Type (0, 0), BuildingBlock: KIFKEQ_clean_linker_1, # of connection points: 2
#     Edge 31, Type (0, 0), BuildingBlock: KIFKEQ_clean_linker_1, # of connection points: 2
#     Edge 32, Type (0, 0), BuildingBlock: KIFKEQ_clean_linker_1, # of connection points: 2
#     Edge 33, Type (0, 0), BuildingBlock: KIFKEQ_clean_linker_1, # of connection points: 2
#     Edge 34, Type (0, 0), BuildingBlock: KIFKEQ_clean_linker_1, # of connection points: 2
#     Edge 35, Type (0, 0), BuildingBlock: KIFKEQ_clean_linker_1, # of connection points: 2
#     Edge 36, Type (0, 0), BuildingBlock: KIFKEQ_clean_linker_1, # of connection points: 2
#     Edge 37, Type (0, 0), BuildingBlock: KIFKEQ_clean_linker_1, # of connection points: 2
#     Edge 38, Type (0, 0), BuildingBlock: KIFKEQ_clean_linker_1, # of connection points: 2
#     Edge 39, Type (0, 0), BuildingBlock: KIFKEQ_clean_linker_1, # of connection points: 2
#     Edge 40, Type (0, 0), BuildingBlock: KIFKEQ_clean_linker_1, # of connection points: 2
#     Edge 41, Type (0, 0), BuildingBlock: KIFKEQ_clean_linker_1, # of connection points: 2
# Relax obj value: 0.214
# Max RMSD: 0.221
# Mean RMSD: 0.221
data_MOF--net-wld--node1-XOMCOT_clean_sbu_0--edge1-KIFKEQ_clean_linker_1
_symmetry_space_group_name_H-M    P1
_symmetry_Int_Tables_number       1
_symmetry_cell_setting            triclinic
loop_
_symmetry_equiv_pos_as_xyz
'x, y, z'
_cell_length_a     38.559305
_cell_length_b     38.559167
_cell_length_c     52.183974
_cell_angle_alpha  90.005318
_cell_angle_beta   90.000314
_cell_angle_gamma 120.0024
loop_
_atom_site_label
_atom_site_type_symbol
_atom_site_fract_x
_atom_site_fract_y
_atom_site_fract_z
_atom_type_partial_charge
Co0 Co 0.3942 0.25578 0.0848 0.0
C1 C 0.34176 0.28326 0.05994 0.0
C2 C 0.40223 0.31325 0.04614 0.0
C3 C 0.38056 0.32515 0.03148 0.0
N4 N 0.37826 0.28745 0.0643 0.0
N5 N 0.34265 0.30628 0.04017 0.0
H6 H 0.31447 0.26178 0.06931 0.0
H7 H 0.43301 0.32117 0.04281 0.0
C8 C 0.45765 0.34 0.09498 0.0
O9 O 0.42892 0.34835 0.09883 0.0
N10 N 0.41145 0.22449 0.10394 0.0
C11 C 0.39153 0.19673 0.12208 0.0
C12 C 0.41455 0.18013 0.12917 0.0
C13 C 0.44577 0.22427 0.10003 0.0
N14 N 0.44867 0.19744 0.1152 0.0
C15 C 0.33467 0.25133 0.12017 0.0
C16 C 0.38671 0.28918 0.16039 0.0
C17 C 0.34582 0.27536 0.16403 0.0
C18 C 0.31962 0.25586 0.14354 0.0
C19 C 0.40033 0.28355 0.13689 0.0
N20 N 0.37479 0.26661 0.11664 0.0
H21 H 0.31372 0.23376 0.10541 0.0
H22 H 0.43146 0.29193 0.13531 0.0
H23 H 0.36217 0.18871 0.12933 0.0
H24 H 0.46733 0.24243 0.08556 0.0
O25 O 0.34654 0.20717 0.07464 0.0
O26 O 0.40408 0.23571 0.05339 0.0
O27 O 0.44907 0.3043 0.08936 0.0
C28 C 0.36733 0.20634 0.05524 0.0
H29 H 0.39139 0.34496 0.01508 0.0
H30 H 0.40643 0.15689 0.14336 0.0
H31 H 0.40823 0.30405 0.17561 0.0
H32 H 0.28758 0.24298 0.14573 0.0
Co33 Co 0.7454 0.14007 0.08766 0.0
C34 C 0.71691 0.06035 0.0625 0.0
C35 C 0.68756 0.0915 0.04883 0.0
C36 C 0.67576 0.05825 0.03385 0.0
N37 N 0.71286 0.09268 0.06714 0.0
N38 N 0.69428 0.0388 0.04243 0.0
H39 H 0.73828 0.05432 0.07182 0.0
H40 H 0.68008 0.11468 0.04556 0.0
C41 C 0.66165 0.12101 0.09753 0.0
O42 O 0.65209 0.08335 0.10017 0.0
N43 N 0.77793 0.18834 0.10682 0.0
C44 C 0.80963 0.19675 0.12181 0.0
C45 C 0.82759 0.23646 0.12897 0.0
C46 C 0.77682 0.22257 0.10507 0.0
N47 N 0.80681 0.25247 0.11841 0.0
C48 C 0.74837 0.08431 0.12334 0.0
C49 C 0.71252 0.10143 0.16342 0.0
C50 C 0.72565 0.07393 0.16748 0.0
C51 C 0.74391 0.0655 0.14703 0.0
C52 C 0.71797 0.11978 0.13965 0.0
N53 N 0.73411 0.10996 0.11953 0.0
H54 H 0.76517 0.07977 0.10856 0.0
H55 H 0.71036 0.14305 0.13783 0.0
H56 H 0.81976 0.17592 0.12641 0.0
H57 H 0.75586 0.2261 0.09309 0.0
O58 O 0.7932 0.1396 0.07721 0.0
O59 O 0.76562 0.16987 0.05628 0.0
O60 O 0.69778 0.14778 0.09258 0.0
C61 C 0.79431 0.16146 0.05787 0.0
H62 H 0.65638 0.04988 0.01724 0.0
H63 H 0.85432 0.25253 0.14053 0.0
H64 H 0.69848 0.10926 0.17857 0.0
H65 H 0.756 0.0457 0.14953 0.0
Co66 Co 0.86018 0.60387 0.0867 0.0
C67 C 0.94002 0.65415 0.06166 0.0
C68 C 0.91215 0.59196 0.05183 0.0
C69 C 0.9457 0.61259 0.03695 0.0
N70 N 0.90877 0.61773 0.06775 0.0
N71 N 0.96311 0.6516 0.04316 0.0
H72 H 0.944 0.68225 0.06857 0.0
H73 H 0.89017 0.56055 0.04986 0.0
C74 C 0.87893 0.54049 0.1019 0.0
O75 O 0.91587 0.56908 0.10639 0.0
N76 N 0.8109 0.58911 0.10433 0.0
C77 C 0.80173 0.61326 0.11779 0.0
C78 C 0.76151 0.59218 0.12372 0.0
C79 C 0.77658 0.55389 0.10227 0.0
N80 N 0.7459 0.55493 0.11393 0.0
C81 C 0.91573 0.66536 0.12128 0.0
C82 C 0.89842 0.61528 0.16309 0.0
C83 C 0.92841 0.65537 0.1653 0.0
C84 C 0.93626 0.68095 0.14435 0.0
C85 C 0.87817 0.60125 0.13994 0.0
N86 N 0.88879 0.62545 0.11883 0.0
H87 H 0.92083 0.68561 0.10569 0.0
H88 H 0.8538 0.57071 0.13907 0.0
H89 H 0.82244 0.64441 0.12203 0.0
H90 H 0.77363 0.52886 0.09114 0.0
O91 O 0.8604 0.65088 0.07342 0.0
O92 O 0.83191 0.59129 0.0546 0.0
O93 O 0.85272 0.54917 0.09417 0.0
C94 C 0.8395 0.62818 0.05437 0.0
H95 H 0.95556 0.6002 0.02189 0.0
H96 H 0.74482 0.60363 0.13384 0.0
H97 H 0.89039 0.59504 0.17924 0.0
H98 H 0.95834 0.71249 0.1457 0.0
Co99 Co 0.25593 0.39492 0.41414 0.0
C100 C 0.28792 0.34505 0.43761 0.0
C101 C 0.31629 0.40548 0.45139 0.0
C102 C 0.33217 0.38571 0.46428 0.0
N103 N 0.28939 0.38054 0.43407 0.0
N104 N 0.31435 0.34776 0.45563 0.0
H105 H 0.26738 0.31752 0.42809 0.0
H106 H 0.32305 0.43585 0.45498 0.0
C107 C 0.33926 0.45972 0.40265 0.0
O108 O 0.34911 0.43186 0.39989 0.0
N109 N 0.22293 0.41077 0.39567 0.0
C110 C 0.19428 0.39018 0.37814 0.0
C111 C 0.17663 0.41251 0.37165 0.0
C112 C 0.22223 0.44482 0.39978 0.0
N113 N 0.19424 0.44689 0.38537 0.0
C114 C 0.25094 0.33511 0.37879 0.0
C115 C 0.28737 0.38674 0.33817 0.0
C116 C 0.27407 0.34592 0.33473 0.0
C117 C 0.25524 0.31991 0.35541 0.0
C118 C 0.28201 0.4005 0.36169 0.0
N119 N 0.26587 0.37522 0.38213 0.0
H120 H 0.23398 0.3143 0.39378 0.0
H121 H 0.28991 0.43151 0.36309 0.0
H122 H 0.18634 0.36081 0.37095 0.0
H123 H 0.24092 0.46676 0.41391 0.0
O124 O 0.20853 0.34694 0.42527 0.0
O125 O 0.23691 0.40502 0.44593 0.0
O126 O 0.30331 0.45017 0.40835 0.0
C127 C 0.20801 0.36797 0.44462 0.0
H128 H 0.35387 0.39781 0.47967 0.0
H129 H 0.15247 0.40378 0.35807 0.0
H130 H 0.30168 0.4081 0.3228 0.0
H131 H 0.24279 0.2879 0.35338 0.0
Co132 Co 0.60308 0.85976 0.41463 0.0
C133 C 0.65532 0.93858 0.44081 0.0
C134 C 0.59625 0.905 0.45666 0.0
C135 C 0.61816 0.93791 0.47182 0.0
N136 N 0.61921 0.90547 0.43699 0.0
N137 N 0.65522 0.95889 0.46187 0.0
H138 H 0.68189 0.94647 0.4298 0.0
H139 H 0.56602 0.88117 0.46038 0.0
C140 C 0.53914 0.88133 0.40792 0.0
O141 O 0.56713 0.91927 0.40745 0.0
N142 N 0.58559 0.81297 0.39362 0.0
C143 C 0.60516 0.80623 0.37467 0.0
C144 C 0.58195 0.76702 0.36671 0.0
C145 C 0.55127 0.77825 0.39706 0.0
N146 N 0.54807 0.74945 0.3809 0.0
C147 C 0.66368 0.91607 0.38045 0.0
C148 C 0.61204 0.91018 0.34177 0.0
C149 C 0.6532 0.93558 0.33843 0.0
C150 C 0.67929 0.93795 0.35787 0.0
C151 C 0.59782 0.88828 0.36437 0.0
N152 N 0.6233 0.89291 0.384 0.0
H153 H 0.68427 0.91664 0.39464 0.0
H154 H 0.56636 0.86648 0.3655 0.0
H155 H 0.6345 0.82791 0.36758 0.0
H156 H 0.53005 0.77391 0.41201 0.0
O157 O 0.65024 0.85729 0.42408 0.0
O158 O 0.59223 0.82696 0.44478 0.0
O159 O 0.54849 0.85407 0.41058 0.0
C160 C 0.62891 0.83423 0.44283 0.0
H161 H 0.60803 0.94527 0.48926 0.0
H162 H 0.58983 0.75258 0.35188 0.0
H163 H 0.5911 0.90622 0.32666 0.0
H164 H 0.71142 0.95639 0.3556 0.0
Co165 Co 0.13726 0.74346 0.41477 0.0
C166 C 0.05726 0.71586 0.43967 0.0
C167 C 0.08965 0.68879 0.45507 0.0
C168 C 0.05626 0.67727 0.46984 0.0
N169 N 0.09023 0.71257 0.4359 0.0
N170 N 0.03603 0.69432 0.46017 0.0
H171 H 0.05027 0.73567 0.4292 0.0
H172 H 0.11319 0.682 0.45888 0.0
C173 C 0.1164 0.65855 0.4066 0.0
O174 O 0.07863 0.64895 0.40484 0.0
N175 N 0.18533 0.77411 0.39507 0.0
C176 C 0.19311 0.80181 0.37689 0.0
C177 C 0.23291 0.81889 0.37006 0.0
C178 C 0.22005 0.77477 0.3992 0.0
N179 N 0.24982 0.80188 0.38421 0.0
C180 C 0.08238 0.7481 0.37926 0.0
C181 C 0.09472 0.70772 0.33981 0.0
C182 C 0.06926 0.72332 0.33555 0.0
C183 C 0.06322 0.74381 0.35572 0.0
C184 C 0.1136 0.71316 0.36341 0.0
N185 N 0.10619 0.73171 0.38324 0.0
H186 H 0.07968 0.76647 0.39378 0.0
H187 H 0.13558 0.70381 0.36519 0.0
H188 H 0.17172 0.80974 0.36962 0.0
H189 H 0.22366 0.75702 0.41388 0.0
O190 O 0.1387 0.79248 0.42461 0.0
O191 O 0.1681 0.76427 0.44578 0.0
O192 O 0.14356 0.6949 0.41046 0.0
C193 C 0.16085 0.7937 0.44381 0.0
H194 H 0.04818 0.65895 0.48694 0.0
H195 H 0.2482 0.84243 0.35606 0.0
H196 H 0.10067 0.69185 0.32491 0.0
H197 H 0.04512 0.75778 0.3531 0.0
Co198 Co 0.60663 0.74545 0.91564 0.0
C199 C 0.65822 0.71467 0.93811 0.0
C200 C 0.59851 0.68628 0.95315 0.0
C201 C 0.61902 0.67062 0.96541 0.0
N202 N 0.62251 0.71305 0.93545 0.0
N203 N 0.6565 0.68844 0.95596 0.0
H204 H 0.6852 0.73504 0.928 0.0
H205 H 0.56824 0.67932 0.95736 0.0
C206 C 0.54203 0.66148 0.90547 0.0
O207 O 0.57021 0.65238 0.90151 0.0
N208 N 0.5894 0.7774 0.8972 0.0
C209 C 0.60903 0.80519 0.87903 0.0
C210 C 0.58599 0.82195 0.87233 0.0
C211 C 0.5552 0.77776 0.9015 0.0
N212 N 0.55212 0.8047 0.88655 0.0
C213 C 0.66505 0.74962 0.87926 0.0
C214 C 0.61115 0.70943 0.84028 0.0
C215 C 0.65158 0.72184 0.83647 0.0
C216 C 0.67896 0.74315 0.85599 0.0
C217 C 0.59875 0.71727 0.86354 0.0
N218 N 0.62508 0.73471 0.88337 0.0
H219 H 0.68662 0.76767 0.89364 0.0
H220 H 0.5679 0.70981 0.86536 0.0
H221 H 0.63815 0.81304 0.87144 0.0
H222 H 0.5338 0.75945 0.916 0.0
O223 O 0.65476 0.79362 0.92578 0.0
O224 O 0.59758 0.76515 0.94745 0.0
O225 O 0.55139 0.69739 0.91119 0.0
C226 C 0.63438 0.79434 0.94547 0.0
H227 H 0.60774 0.64896 0.98084 0.0
H228 H 0.59388 0.84517 0.85815 0.0
H229 H 0.5894 0.69453 0.82515 0.0
H230 H 0.7107 0.75448 0.85333 0.0
Co231 Co 0.25318 0.85939 0.913 0.0
C232 C 0.28207 0.93923 0.93829 0.0
C233 C 0.31053 0.90729 0.95216 0.0
C234 C 0.32268 0.94061 0.96712 0.0
N235 N 0.28553 0.90651 0.93377 0.0
N236 N 0.30474 0.96056 0.95842 0.0
H237 H 0.26126 0.94582 0.92875 0.0
H238 H 0.31768 0.88386 0.95541 0.0
C239 C 0.33724 0.8792 0.90302 0.0
O240 O 0.34661 0.91683 0.90065 0.0
N241 N 0.2209 0.81139 0.89358 0.0
C242 C 0.18911 0.80295 0.87869 0.0
C243 C 0.17084 0.76313 0.87179 0.0
C244 C 0.2218 0.77707 0.89552 0.0
N245 N 0.19155 0.74708 0.8824 0.0
C246 C 0.24864 0.91479 0.8778 0.0
C247 C 0.28475 0.89902 0.83725 0.0
C248 C 0.27023 0.92545 0.83341 0.0
C249 C 0.25198 0.93332 0.85412 0.0
C250 C 0.28044 0.88096 0.86103 0.0
N251 N 0.26399 0.89 0.88135 0.0
H252 H 0.2317 0.91873 0.89277 0.0
H253 H 0.28895 0.85832 0.86264 0.0
H254 H 0.17895 0.82378 0.87413 0.0
H255 H 0.24262 0.7735 0.90761 0.0
O256 O 0.20507 0.85905 0.92382 0.0
O257 O 0.23326 0.82894 0.94422 0.0
O258 O 0.3011 0.8522 0.90773 0.0
C259 C 0.20419 0.83681 0.94287 0.0
H260 H 0.34198 0.94876 0.98376 0.0
H261 H 0.14383 0.74695 0.86049 0.0
H262 H 0.29888 0.8917 0.8219 0.0
H263 H 0.23893 0.95231 0.85183 0.0
Co264 Co 0.13793 0.39564 0.91413 0.0
C265 C 0.05839 0.34273 0.939 0.0
C266 C 0.08629 0.40403 0.95099 0.0
C267 C 0.05304 0.38216 0.96587 0.0
N268 N 0.08947 0.37965 0.93374 0.0
N269 N 0.03563 0.34373 0.95832 0.0
H270 H 0.05429 0.31525 0.93083 0.0
H271 H 0.10825 0.43526 0.9538 0.0
C272 C 0.11779 0.45907 0.90235 0.0
O273 O 0.08095 0.43032 0.89781 0.0
N274 N 0.1873 0.41287 0.896 0.0
C275 C 0.19694 0.39165 0.87998 0.0
C276 C 0.23727 0.41418 0.87445 0.0
C277 C 0.22139 0.44758 0.9001 0.0
N278 N 0.25261 0.44925 0.88729 0.0
C279 C 0.08299 0.33657 0.87843 0.0
C280 C 0.09899 0.38903 0.83815 0.0
C281 C 0.07016 0.34869 0.83496 0.0
C282 C 0.06288 0.32204 0.85517 0.0
C283 C 0.11897 0.40206 0.86149 0.0
N284 N 0.10909 0.37648 0.88185 0.0
H285 H 0.07844 0.31546 0.89334 0.0
H286 H 0.14273 0.43281 0.86305 0.0
H287 H 0.17652 0.36142 0.87365 0.0
H288 H 0.22329 0.47054 0.91289 0.0
O289 O 0.13821 0.34785 0.92465 0.0
O290 O 0.1665 0.40524 0.94611 0.0
O291 O 0.14453 0.45055 0.90911 0.0
C292 C 0.15908 0.36846 0.94433 0.0
H293 H 0.04339 0.39326 0.98181 0.0
H294 H 0.25424 0.40459 0.86289 0.0
H295 H 0.10655 0.41018 0.82256 0.0
H296 H 0.04167 0.29037 0.85305 0.0
Co297 Co 0.74164 0.60227 0.58674 0.0
C298 C 0.71258 0.65229 0.56067 0.0
C299 C 0.68083 0.59057 0.54944 0.0
C300 C 0.6684 0.61116 0.53414 0.0
N301 N 0.70802 0.61603 0.56648 0.0
N302 N 0.6884 0.64987 0.54121 0.0
H303 H 0.73534 0.68033 0.5686 0.0
H304 H 0.67247 0.55948 0.54713 0.0
C305 C 0.65886 0.53793 0.59917 0.0
O306 O 0.65005 0.56635 0.60298 0.0
N307 N 0.7751 0.58745 0.6056 0.0
C308 C 0.80743 0.61133 0.61995 0.0
C309 C 0.82635 0.59023 0.62647 0.0
C310 C 0.77453 0.55239 0.60363 0.0
N311 N 0.80549 0.55325 0.61618 0.0
C312 C 0.74366 0.66176 0.62144 0.0
C313 C 0.70893 0.61014 0.66232 0.0
C314 C 0.71884 0.65013 0.66497 0.0
C315 C 0.73739 0.67643 0.64447 0.0
C316 C 0.71651 0.59703 0.63925 0.0
N317 N 0.73125 0.62203 0.61856 0.0
H318 H 0.75965 0.68266 0.6063 0.0
H319 H 0.71073 0.56663 0.63816 0.0
H320 H 0.81747 0.64234 0.62436 0.0
H321 H 0.75336 0.52768 0.59188 0.0
O322 O 0.78882 0.65043 0.57549 0.0
O323 O 0.76112 0.59208 0.55518 0.0
O324 O 0.69433 0.5469 0.59254 0.0
C325 C 0.78969 0.6293 0.55631 0.0
H326 H 0.64752 0.59897 0.51831 0.0
H327 H 0.85386 0.60151 0.63729 0.0
H328 H 0.69613 0.58934 0.67816 0.0
H329 H 0.74675 0.70791 0.64619 0.0
Co330 Co 0.39512 0.13897 0.58694 0.0
C331 C 0.34519 0.06013 0.56049 0.0
C332 C 0.40602 0.09234 0.54741 0.0
C333 C 0.38526 0.05938 0.53206 0.0
N334 N 0.3812 0.09271 0.56551 0.0
N335 N 0.34709 0.03927 0.54028 0.0
H336 H 0.31755 0.05321 0.56983 0.0
H337 H 0.43678 0.11572 0.54473 0.0
C338 C 0.45805 0.1175 0.59818 0.0
O339 O 0.4298 0.07966 0.59896 0.0
N340 N 0.41005 0.18608 0.60711 0.0
C341 C 0.38603 0.19429 0.62148 0.0
C342 C 0.40747 0.23387 0.62898 0.0
C343 C 0.44553 0.22027 0.60609 0.0
N344 N 0.44481 0.24998 0.61925 0.0
C345 C 0.33146 0.0827 0.61983 0.0
C346 C 0.38026 0.09019 0.66075 0.0
C347 C 0.33914 0.06347 0.66266 0.0
C348 C 0.31436 0.06049 0.64216 0.0
C349 C 0.39588 0.11233 0.63841 0.0
N350 N 0.37202 0.10664 0.61762 0.0
H351 H 0.31193 0.08153 0.60467 0.0
H352 H 0.4272 0.13479 0.63822 0.0
H353 H 0.3547 0.17357 0.62518 0.0
H354 H 0.47046 0.22404 0.59449 0.0
O355 O 0.34906 0.14118 0.57418 0.0
O356 O 0.40939 0.17109 0.55639 0.0
O357 O 0.4492 0.14481 0.59401 0.0
C358 C 0.37266 0.16391 0.55601 0.0
H359 H 0.39695 0.05151 0.51557 0.0
H360 H 0.39615 0.2499 0.63998 0.0
H361 H 0.40009 0.09464 0.67669 0.0
H362 H 0.2822 0.04112 0.64336 0.0
Co363 Co 0.86095 0.25622 0.58546 0.0
C364 C 0.94092 0.2842 0.56066 0.0
C365 C 0.91045 0.31429 0.54702 0.0
C366 C 0.94403 0.32628 0.53235 0.0
N367 N 0.90862 0.28839 0.56511 0.0
N368 N 0.96306 0.30735 0.54094 0.0
H369 H 0.94661 0.26254 0.56987 0.0
H370 H 0.88755 0.32215 0.54371 0.0
C371 C 0.88071 0.34003 0.59575 0.0
O372 O 0.91784 0.3486 0.5997 0.0
N373 N 0.81236 0.22426 0.60445 0.0
C374 C 0.80493 0.19631 0.62238 0.0
C375 C 0.76524 0.17894 0.62944 0.0
C376 C 0.77746 0.22338 0.60062 0.0
N377 N 0.74795 0.19594 0.61566 0.0
C378 C 0.91644 0.25302 0.6212 0.0
C379 C 0.90024 0.28971 0.66119 0.0
C380 C 0.92789 0.27672 0.66514 0.0
C381 C 0.93567 0.25784 0.64475 0.0
C382 C 0.88135 0.28375 0.63756 0.0
N383 N 0.8909 0.26741 0.61743 0.0
H384 H 0.92063 0.2359 0.60649 0.0
H385 H 0.85808 0.29139 0.63578 0.0
H386 H 0.82661 0.18866 0.62949 0.0
H387 H 0.77367 0.24151 0.58632 0.0
O388 O 0.86086 0.20803 0.57535 0.0
O389 O 0.83135 0.23595 0.55397 0.0
O390 O 0.85382 0.30431 0.58994 0.0
C391 C 0.83922 0.20692 0.55588 0.0
H392 H 0.95297 0.34614 0.51597 0.0
H393 H 0.75038 0.1554 0.64349 0.0
H394 H 0.89281 0.30418 0.67627 0.0
H395 H 0.95539 0.24565 0.64717 0.0
H396 H 0.67339 0.19561 0.10753 0.0
H397 H 0.58056 0.07264 0.09641 0.0
H398 H 0.62266 0.21466 0.11434 0.0
H399 H 0.52974 0.09183 0.10204 0.0
H400 H 0.4461 0.13031 0.13417 0.0
H401 H 0.49844 0.11294 0.13205 0.0
H402 H 0.5749 0.22369 0.09211 0.0
H403 H 0.52388 0.24237 0.09585 0.0
C404 C 0.6421 0.17271 0.10631 0.0
C405 C 0.63091 0.13265 0.10138 0.0
C406 C 0.61297 0.18364 0.11011 0.0
C407 C 0.57197 0.15484 0.1087 0.0
C408 C 0.56093 0.11473 0.10376 0.0
C409 C 0.59007 0.10373 0.10032 0.0
C410 C 0.47424 0.15136 0.12532 0.0
C411 C 0.48031 0.18768 0.11498 0.0
C412 C 0.50419 0.14108 0.12379 0.0
C413 C 0.54088 0.16667 0.11167 0.0
C414 C 0.54725 0.20332 0.1018 0.0
C415 C 0.51754 0.2138 0.1036 0.0
H416 H 0.75531 0.28055 0.11927 0.0
H417 H 0.88091 0.31752 0.11793 0.0
H418 H 0.77195 0.35044 0.11751 0.0
H419 H 0.89791 0.3873 0.11504 0.0
H420 H 0.919 0.51165 0.1297 0.0
H421 H 0.90057 0.442 0.13628 0.0
H422 H 0.79556 0.40432 0.08898 0.0
H423 H 0.81308 0.47386 0.08356 0.0
C424 C 0.7865 0.30376 0.11851 0.0
C425 C 0.81683 0.29374 0.11875 0.0
C426 C 0.79612 0.34381 0.11734 0.0
C427 C 0.83633 0.37474 0.11595 0.0
C428 C 0.86665 0.36452 0.11655 0.0
C429 C 0.85699 0.32449 0.11814 0.0
C430 C 0.89192 0.48842 0.1208 0.0
C431 C 0.86755 0.49821 0.10606 0.0
C432 C 0.88142 0.44844 0.12444 0.0
C433 C 0.84661 0.4173 0.11309 0.0
C434 C 0.82218 0.42728 0.09843 0.0
C435 C 0.83237 0.46723 0.09513 0.0
H436 H 0.68183 0.56515 0.10938 0.0
H437 H 0.71649 0.47521 0.11652 0.0
H438 H 0.61198 0.513 0.10512 0.0
H439 H 0.64646 0.42266 0.11339 0.0
H440 H 0.52444 0.33933 0.07842 0.0
H441 H 0.59402 0.39143 0.08382 0.0
H442 H 0.5558 0.46279 0.1263 0.0
H443 H 0.48624 0.41147 0.11974 0.0
C444 C 0.6743 0.53412 0.11054 0.0
C445 C 0.70446 0.52414 0.11325 0.0
C446 C 0.63424 0.50414 0.10816 0.0
C447 C 0.62336 0.46343 0.10884 0.0
C448 C 0.65365 0.45359 0.1122 0.0
C449 C 0.69376 0.48362 0.11416 0.0
C450 C 0.53097 0.36622 0.08886 0.0
C451 C 0.49989 0.37143 0.09852 0.0
C452 C 0.57092 0.39601 0.09216 0.0
C453 C 0.58076 0.43147 0.10556 0.0
C454 C 0.5495 0.43633 0.11546 0.0
C455 C 0.50954 0.40679 0.11181 0.0
H456 H 0.12504 0.44257 0.36895 0.0
H457 H 0.23983 0.5228 0.4034 0.0
H458 H 0.10683 0.49431 0.37206 0.0
H459 H 0.22051 0.57318 0.40819 0.0
H460 H 0.19024 0.67024 0.39429 0.0
H461 H 0.20914 0.61966 0.38662 0.0
H462 H 0.08764 0.52659 0.40261 0.0
H463 H 0.06847 0.57733 0.40907 0.0
C464 C 0.14649 0.47112 0.37715 0.0
C465 C 0.18385 0.47809 0.38612 0.0
C466 C 0.13577 0.50072 0.37928 0.0
C467 C 0.16199 0.53795 0.3906 0.0
C468 C 0.19961 0.54513 0.39911 0.0
C469 C 0.21049 0.51579 0.39672 0.0
C470 C 0.16758 0.63896 0.39616 0.0
C471 C 0.12789 0.62774 0.40237 0.0
C472 C 0.17844 0.60989 0.39187 0.0
C473 C 0.15 0.56889 0.39408 0.0
C474 C 0.11024 0.55778 0.40028 0.0
C475 C 0.09927 0.58687 0.4042 0.0
H476 H 0.55134 0.6855 0.36153 0.0
H477 H 0.47279 0.71859 0.39998 0.0
H478 H 0.49976 0.61539 0.36416 0.0
H479 H 0.42264 0.64868 0.40427 0.0
H480 H 0.32566 0.52113 0.39183 0.0
H481 H 0.37506 0.59077 0.38327 0.0
H482 H 0.47014 0.56372 0.39477 0.0
H483 H 0.42054 0.49373 0.4021 0.0
C484 C 0.52314 0.67802 0.37047 0.0
C485 C 0.51665 0.70798 0.38082 0.0
C486 C 0.49367 0.63762 0.3723 0.0
C487 C 0.45708 0.62614 0.38471 0.0
C488 C 0.4502 0.6562 0.39438 0.0
C489 C 0.47941 0.69651 0.39227 0.0
C490 C 0.35714 0.53011 0.39249 0.0
C491 C 0.36927 0.50204 0.39774 0.0
C492 C 0.38553 0.5701 0.38768 0.0
C493 C 0.42674 0.58309 0.3884 0.0
C494 C 0.43874 0.5548 0.39357 0.0
C495 C 0.41031 0.51469 0.398 0.0
H496 H 0.50515 0.92868 0.41082 0.0
H497 H 0.47781 0.80784 0.39418 0.0
H498 H 0.43526 0.90915 0.40357 0.0
H499 H 0.40847 0.78867 0.38586 0.0
H500 H 0.28016 0.75643 0.40217 0.0
H501 H 0.35 0.77623 0.40749 0.0
H502 H 0.38466 0.89032 0.37202 0.0
H503 H 0.31453 0.87148 0.36827 0.0
C504 C 0.48426 0.89803 0.4054 0.0
C505 C 0.49691 0.86975 0.40327 0.0
C506 C 0.44423 0.88687 0.40104 0.0
C507 C 0.41606 0.84727 0.39414 0.0
C508 C 0.42904 0.81921 0.39163 0.0
C509 C 0.46889 0.83024 0.39631 0.0
C510 C 0.30253 0.78592 0.39571 0.0
C511 C 0.29143 0.81249 0.3851 0.0
C512 C 0.34279 0.7971 0.39842 0.0
C513 C 0.37316 0.83499 0.39027 0.0
C514 C 0.36212 0.86116 0.37893 0.0
C515 C 0.32176 0.8501 0.37644 0.0
H516 H 0.41831 0.92821 0.90395 0.0
H517 H 0.32635 0.80465 0.89378 0.0
H518 H 0.46962 0.90958 0.89889 0.0
H519 H 0.37759 0.78614 0.88757 0.0
H520 H 0.47724 0.75992 0.90655 0.0
H521 H 0.42586 0.77816 0.91009 0.0
H522 H 0.50137 0.88833 0.86933 0.0
H523 H 0.55404 0.87143 0.86735 0.0
C524 C 0.40907 0.8971 0.90036 0.0
C525 C 0.36831 0.86788 0.89939 0.0
C526 C 0.43852 0.88642 0.89726 0.0
C527 C 0.4279 0.84631 0.89277 0.0
C528 C 0.38699 0.81719 0.89146 0.0
C529 C 0.35755 0.82781 0.8949 0.0
C530 C 0.48332 0.78829 0.89857 0.0
C531 C 0.52036 0.81435 0.88695 0.0
C532 C 0.45339 0.7985 0.90027 0.0
C533 C 0.45934 0.83483 0.89008 0.0
C534 C 0.49591 0.86042 0.87783 0.0
C535 C 0.52606 0.85041 0.87638 0.0
H536 H 0.07679 0.48748 0.87522 0.0
H537 H 0.18371 0.5259 0.92045 0.0
H538 H 0.09532 0.557 0.86808 0.0
H539 H 0.20138 0.59543 0.91445 0.0
H540 H 0.2422 0.71803 0.88171 0.0
H541 H 0.22474 0.64801 0.88484 0.0
H542 H 0.09928 0.61288 0.88852 0.0
H543 H 0.11706 0.68275 0.88426 0.0
C544 C 0.10407 0.51083 0.88387 0.0
C545 C 0.12876 0.50127 0.89844 0.0
C546 C 0.11464 0.55075 0.87989 0.0
C547 C 0.14985 0.58205 0.89072 0.0
C548 C 0.17445 0.57229 0.90538 0.0
C549 C 0.16418 0.53238 0.90902 0.0
C550 C 0.21094 0.69515 0.88302 0.0
C551 C 0.18097 0.70567 0.8827 0.0
C552 C 0.20086 0.65505 0.88499 0.0
C553 C 0.16055 0.6246 0.88714 0.0
C554 C 0.13058 0.63529 0.88646 0.0
C555 C 0.14069 0.67535 0.88407 0.0
H556 H 0.51161 0.58413 0.88938 0.0
H557 H 0.47616 0.66917 0.91357 0.0
H558 H 0.44136 0.53321 0.88399 0.0
H559 H 0.40602 0.6183 0.90794 0.0
H560 H 0.28797 0.50308 0.92585 0.0
H561 H 0.35771 0.55487 0.92912 0.0
H562 H 0.38234 0.51776 0.85657 0.0
H563 H 0.31198 0.46594 0.85298 0.0
C564 C 0.48887 0.59201 0.8935 0.0
C565 C 0.49948 0.63065 0.90205 0.0
C566 C 0.44866 0.5629 0.89023 0.0
C567 C 0.41821 0.57176 0.89557 0.0
C568 C 0.42883 0.61047 0.90395 0.0
C569 C 0.46902 0.63963 0.9071 0.0
C570 C 0.30788 0.50617 0.91032 0.0
C571 C 0.29408 0.48031 0.88903 0.0
C572 C 0.34801 0.53592 0.91227 0.0
C573 C 0.37547 0.54047 0.89308 0.0
C574 C 0.36189 0.51468 0.87179 0.0
C575 C 0.32159 0.48497 0.86976 0.0
H576 H 0.88011 0.56402 0.61282 0.0
H577 H 0.75544 0.47348 0.6179 0.0
H578 H 0.89827 0.51223 0.60827 0.0
H579 H 0.77333 0.42125 0.61453 0.0
H580 H 0.8135 0.33957 0.57884 0.0
H581 H 0.79555 0.39125 0.58479 0.0
H582 H 0.90387 0.46138 0.62872 0.0
H583 H 0.92262 0.41058 0.62158 0.0
C584 C 0.85669 0.53292 0.6135 0.0
C585 C 0.8164 0.52266 0.61567 0.0
C586 C 0.86702 0.50314 0.61095 0.0
C587 C 0.83729 0.46236 0.61092 0.0
C588 C 0.79701 0.45224 0.61386 0.0
C589 C 0.78669 0.48208 0.61598 0.0
C590 C 0.83348 0.36611 0.58971 0.0
C591 C 0.86957 0.37115 0.59959 0.0
C592 C 0.82305 0.39565 0.59333 0.0
C593 C 0.84819 0.43065 0.6073 0.0
C594 C 0.8841 0.43531 0.61744 0.0
C595 C 0.8948 0.40606 0.61346 0.0
H596 H 0.65913 0.47092 0.58254 0.0
H597 H 0.58934 0.50963 0.62609 0.0
H598 H 0.6075 0.40137 0.58895 0.0
H599 H 0.53861 0.44018 0.63366 0.0
H600 H 0.43494 0.31446 0.61695 0.0
H601 H 0.48727 0.38426 0.61304 0.0
H602 H 0.57726 0.34887 0.61859 0.0
H603 H 0.52446 0.27887 0.62137 0.0
C604 C 0.63291 0.4645 0.59371 0.0
C605 C 0.62811 0.4957 0.60362 0.0
C606 C 0.60339 0.42459 0.5976 0.0
C607 C 0.56869 0.41494 0.61185 0.0
C608 C 0.56442 0.44633 0.62215 0.0
C609 C 0.59363 0.48621 0.61792 0.0
C610 C 0.46593 0.32177 0.61767 0.0
C611 C 0.47573 0.29137 0.61943 0.0
C612 C 0.49603 0.36181 0.61547 0.0
C613 C 0.53669 0.37242 0.61538 0.0
C614 C 0.54636 0.34189 0.61799 0.0
C615 C 0.5162 0.30181 0.61977 0.0
H616 H 0.68402 0.12736 0.63363 0.0
H617 H 0.71664 0.2406 0.59755 0.0
H618 H 0.61395 0.10899 0.63195 0.0
H619 H 0.64661 0.22107 0.5943 0.0
H620 H 0.52017 0.19126 0.61067 0.0
H621 H 0.5899 0.21037 0.61755 0.0
H622 H 0.56116 0.08867 0.60204 0.0
H623 H 0.49108 0.06931 0.59626 0.0
C624 C 0.67647 0.14846 0.62538 0.0
C625 C 0.70634 0.18545 0.61557 0.0
C626 C 0.63607 0.13763 0.62411 0.0
C627 C 0.62444 0.16337 0.61281 0.0
C628 C 0.65433 0.2006 0.6034 0.0
C629 C 0.69469 0.21159 0.60491 0.0
C630 C 0.52875 0.16857 0.60882 0.0
C631 C 0.50019 0.1288 0.60282 0.0
C632 C 0.5688 0.17956 0.61264 0.0
C633 C 0.58136 0.15116 0.61021 0.0
C634 C 0.55257 0.11125 0.60447 0.0
C635 C 0.5124 0.10016 0.60098 0.0
H636 H 0.29818 0.13483 0.06017 0.0
H637 H 0.40037 0.19992 0.01046 0.0
H638 H 0.27641 0.07471 0.03423 0.0
H639 H 0.37834 0.13973 0.98443 0.0
H640 H 0.30228 0.97262 0.00892 0.0
H641 H 0.31116 0.03314 0.02979 0.0
H642 H 0.3203 0.08714 0.95576 0.0
H643 H 0.3109 0.02579 0.93482 0.0
C644 C 0.31557 0.13652 0.04343 0.0
C645 C 0.35121 0.17194 0.03748 0.0
C646 C 0.30314 0.1021 0.02864 0.0
C647 C 0.32583 0.10259 0.00744 0.0
C648 C 0.36015 0.13864 0.00057 0.0
C649 C 0.37287 0.17298 0.01556 0.0
C650 C 0.30581 0.9973 0.99715 0.0
C651 C 0.30625 0.99486 0.97033 0.0
C652 C 0.31053 0.03176 0.00904 0.0
C653 C 0.31637 0.06477 0.99437 0.0
C654 C 0.3159 0.06207 0.96748 0.0
C655 C 0.31038 0.02711 0.95553 0.0
H656 H 0.79935 0.19796 0.01215 0.0
H657 H 0.8662 0.16475 0.06314 0.0
H658 H 0.85894 0.23516 0.9855 0.0
H659 H 0.92581 0.20228 0.03657 0.0
H660 H 0.02478 0.33148 0.00903 0.0
H661 H 0.96559 0.2791 0.0307 0.0
H662 H 0.91204 0.22882 0.95739 0.0
H663 H 0.97212 0.28143 0.93567 0.0
C664 C 0.82656 0.19803 0.0174 0.0
C665 C 0.8283 0.17884 0.03984 0.0
C666 C 0.86054 0.21907 0.00205 0.0
C667 C 0.89691 0.22167 0.00909 0.0
C668 C 0.89811 0.20082 0.03083 0.0
C669 C 0.86401 0.17933 0.04598 0.0
C670 C 0.00053 0.3089 0.99762 0.0
C671 C 0.00261 0.31044 0.97077 0.0
C672 C 0.96688 0.27879 0.00996 0.0
C673 C 0.93433 0.24997 0.99568 0.0
C674 C 0.9368 0.25078 0.96879 0.0
C675 C 0.971 0.28059 0.95641 0.0
H676 H 0.79987 0.58885 0.01114 0.0
H677 H 0.83846 0.69862 0.05328 0.0
H678 H 0.76135 0.60641 0.98233 0.0
H679 H 0.7992 0.71586 0.02466 0.0
H680 H 0.7354 0.74346 0.96109 0.0
H681 H 0.78706 0.73237 0.98053 0.0
H682 H 0.69949 0.60719 0.99054 0.0
H683 H 0.64869 0.61825 0.97088 0.0
C684 C 0.80058 0.61702 0.01404 0.0
C685 C 0.82173 0.64211 0.03468 0.0
C686 C 0.77841 0.62701 0.99757 0.0
C687 C 0.77675 0.66222 0.00144 0.0
C688 C 0.80004 0.68863 0.02108 0.0
C689 C 0.82238 0.67866 0.03755 0.0
C690 C 0.72761 0.71352 0.96701 0.0
C691 C 0.68805 0.68173 0.96468 0.0
C692 C 0.75701 0.70722 0.97829 0.0
C693 C 0.74736 0.66892 0.98708 0.0
C694 C 0.70811 0.63696 0.98371 0.0
C695 C 0.67886 0.64332 0.9727 0.0
H696 H 0.97567 0.30503 0.49054 0.0
H697 H 0.02749 0.31247 0.56496 0.0
H698 H 0.03618 0.3131 0.47005 0.0
H699 H 0.08888 0.32121 0.54441 0.0
H700 H 0.13698 0.29818 0.4405 0.0
H701 H 0.07703 0.27674 0.46652 0.0
H702 H 0.14199 0.37984 0.51541 0.0
H703 H 0.20204 0.40164 0.48926 0.0
C704 C 5e-05 0.30811 0.50245 0.0
C705 C 0.99727 0.30843 0.52924 0.0
C706 C 0.03447 0.31239 0.49078 0.0
C707 C 0.0671 0.3177 0.50568 0.0
C708 C 0.06407 0.31716 0.53255 0.0
C709 C 0.02911 0.31203 0.54426 0.0
C710 C 0.13874 0.31588 0.45709 0.0
C711 C 0.17405 0.35182 0.4627 0.0
C712 C 0.10441 0.30362 0.47192 0.0
C713 C 0.10492 0.32678 0.49284 0.0
C714 C 0.14092 0.36132 0.49948 0.0
C715 C 0.17517 0.37389 0.48443 0.0
H716 H 0.69524 0.82731 0.43588 0.0
H717 H 0.5975 0.79706 0.48836 0.0
H718 H 0.71624 0.78803 0.46163 0.0
H719 H 0.61887 0.7582 0.51422 0.0
H720 H 0.68593 0.65946 0.49035 0.0
H721 H 0.67797 0.711 0.46843 0.0
H722 H 0.67941 0.76466 0.54135 0.0
H723 H 0.68795 0.71293 0.56331 0.0
C724 C 0.67872 0.81291 0.45316 0.0
C725 C 0.64454 0.8149 0.46003 0.0
C726 C 0.69069 0.79041 0.46783 0.0
C727 C 0.66909 0.77009 0.48982 0.0
C728 C 0.63621 0.77387 0.49745 0.0
C729 C 0.62386 0.79585 0.48257 0.0
C730 C 0.68489 0.6825 0.50163 0.0
C731 C 0.6872 0.68223 0.52846 0.0
C732 C 0.68071 0.71213 0.48912 0.0
C733 C 0.67811 0.74174 0.50324 0.0
C734 C 0.6813 0.74206 0.53008 0.0
C735 C 0.68631 0.71274 0.54259 0.0
H736 H 0.33484 0.02647 0.48957 0.0
H737 H 0.28616 0.97497 0.56343 0.0
H738 H 0.28284 0.96638 0.46848 0.0
H739 H 0.23386 0.91416 0.54227 0.0
H740 H 0.19882 0.79964 0.48908 0.0
H741 H 0.23828 0.86003 0.51467 0.0
H742 H 0.2063 0.92695 0.463 0.0
H743 H 0.16655 0.86656 0.43749 0.0
C744 C 0.3128 0.00225 0.50124 0.0
C745 C 0.31457 0.00505 0.52808 0.0
C746 C 0.28284 0.96807 0.48921 0.0
C747 C 0.25434 0.93571 0.50377 0.0
C748 C 0.25556 0.93874 0.53064 0.0
C749 C 0.28523 0.9734 0.54271 0.0
C750 C 0.19963 0.82708 0.48346 0.0
C751 C 0.17991 0.82851 0.46118 0.0
C752 C 0.222 0.86154 0.49819 0.0
C753 C 0.22546 0.89812 0.4907 0.0
C754 C 0.20428 0.89913 0.46907 0.0
C755 C 0.18146 0.86456 0.45455 0.0
H756 H 0.69609 0.02664 0.99186 0.0
H757 H 0.69036 0.97452 0.06594 0.0
H758 H 0.68849 0.96662 0.97098 0.0
H759 H 0.68229 0.91371 0.04499 0.0
H760 H 0.60248 0.8001 0.99087 0.0
H761 H 0.62428 0.8602 0.0169 0.0
H762 H 0.72454 0.92635 0.96605 0.0
H763 H 0.703 0.86627 0.94008 0.0
C764 C 0.69346 0.00231 0.00363 0.0
C765 C 0.69343 0.00486 0.03045 0.0
C766 C 0.6895 0.96816 0.99172 0.0
C767 C 0.68486 0.93559 0.00639 0.0
C768 C 0.68579 0.93845 0.03327 0.0
C769 C 0.69053 0.9731 0.04523 0.0
C770 C 0.62962 0.82727 0.98555 0.0
C771 C 0.65082 0.82863 0.96331 0.0
C772 C 0.6422 0.86157 0.00053 0.0
C773 C 0.67592 0.8979 0.99335 0.0
C774 C 0.69828 0.89873 0.97187 0.0
C775 C 0.68599 0.86433 0.95707 0.0
H776 H 0.02546 0.7164 0.06476 0.0
H777 H 0.97567 0.65946 0.9923 0.0
H778 H 0.08521 0.76854 0.04249 0.0
H779 H 0.03453 0.71149 0.97007 0.0
H780 H 0.13041 0.82883 0.93653 0.0
H781 H 0.07081 0.78918 0.96277 0.0
H782 H 0.14075 0.76269 0.01543 0.0
H783 H 0.20033 0.80184 0.98903 0.0
C784 C 0.02716 0.71552 0.04408 0.0
C785 C 0.99638 0.68397 0.03018 0.0
C786 C 0.06118 0.74508 0.0314 0.0
C787 C 0.06428 0.74398 0.0046 0.0
C788 C 0.0327 0.71322 0.99071 0.0
C789 C -0.00075 0.68334 0.0034 0.0
C790 C 0.13324 0.81519 0.95396 0.0
C791 C 0.1699 0.81813 0.96066 0.0
C792 C 0.09914 0.79245 0.9689 0.0
C793 C 0.10128 0.77287 0.99102 0.0
C794 C 0.13842 0.77776 0.99855 0.0
C795 C 0.1724 0.79995 0.98338 0.0
H796 H 0.16014 0.29862 0.93993 0.0
H797 H 0.1987 0.40171 0.98907 0.0
H798 H 0.19832 0.27672 0.96588 0.0
H799 H 0.23668 0.37948 0.01512 0.0
H800 H 0.32741 0.30383 0.98982 0.0
H801 H 0.27519 0.31234 0.96946 0.0
H802 H 0.23116 0.3209 0.04392 0.0
H803 H 0.28365 0.31177 0.06435 0.0
C804 C 0.17607 0.31616 0.95657 0.0
C805 C 0.17683 0.35213 0.96232 0.0
C806 C 0.19795 0.30363 0.97137 0.0
C807 C 0.22057 0.32656 0.99237 0.0
C808 C 0.21925 0.36114 0.99913 0.0
C809 C 0.19773 0.37395 0.98413 0.0
C810 C 0.30628 0.3071 0.00179 0.0
C811 C 0.30951 0.30745 0.02857 0.0
C812 C 0.27625 0.31163 0.99019 0.0
C813 C 0.24917 0.31721 0.00515 0.0
C814 C 0.25175 0.31666 0.03201 0.0
C815 C 0.28148 0.3113 0.04366 0.0
H816 H 0.0244 0.70102 0.5102 0.0
H817 H 0.96974 0.68407 0.43576 0.0
H818 H 0.96327 0.69158 0.53045 0.0
H819 H 0.90773 0.67406 0.45609 0.0
H820 H 0.79697 0.59455 0.51253 0.0
H821 H 0.85699 0.61738 0.48622 0.0
H822 H 0.91911 0.72346 0.53302 0.0
H823 H 0.8592 0.70086 0.55927 0.0
C824 C -0.00074 0.69562 0.49821 0.0
C825 C 0.00145 0.69295 0.47151 0.0
C826 C 0.96444 0.69056 0.50974 0.0
C827 C 0.93081 0.68213 0.49482 0.0
C828 C 0.93327 0.68048 0.46799 0.0
C829 C 0.9686 0.68635 0.45639 0.0
C830 C 0.82319 0.62311 0.51688 0.0
C831 C 0.82355 0.64571 0.53812 0.0
C832 C 0.85742 0.63628 0.50172 0.0
C833 C 0.89269 0.67204 0.50772 0.0
C834 C 0.89235 0.69563 0.52812 0.0
C835 C 0.85804 0.68271 0.54309 0.0
H836 H 0.41351 0.20569 0.51383 0.0
H837 H 0.30269 0.16596 0.55494 0.0
H838 H 0.39671 0.24494 0.4852 0.0
H839 H 0.28619 0.20604 0.52649 0.0
H840 H 0.25944 0.26894 0.46155 0.0
H841 H 0.27046 0.21803 0.48214 0.0
H842 H 0.39521 0.3064 0.49291 0.0
H843 H 0.38429 0.35644 0.47201 0.0
C844 C 0.38534 0.20502 0.51659 0.0
C845 C 0.35965 0.18318 0.53683 0.0
C846 C 0.37578 0.22761 0.50022 0.0
C847 C 0.34039 0.22904 0.5038 0.0
C848 C 0.31356 0.20536 0.52315 0.0
C849 C 0.3231 0.18258 0.53952 0.0
C850 C 0.28929 0.27708 0.4679 0.0
C851 C 0.321 0.31665 0.46535 0.0
C852 C 0.29552 0.24812 0.47987 0.0
C853 C 0.33369 0.25819 0.48916 0.0
C854 C 0.36555 0.29746 0.48571 0.0
C855 C 0.35926 0.32629 0.47398 0.0
H856 H 0.79804 0.19922 0.51169 0.0
H857 H 0.83933 0.13653 0.56033 0.0
H858 H 0.75992 0.13859 0.48611 0.0
H859 H 0.80112 0.07597 0.53476 0.0
H860 H 0.67328 0.97155 0.51197 0.0
H861 H 0.72542 0.03276 0.53185 0.0
H862 H 0.76428 0.08653 0.4571 0.0
H863 H 0.71172 0.02456 0.43715 0.0
C864 C 0.79957 0.17273 0.51662 0.0
C865 C 0.82128 0.17246 0.53817 0.0
C866 C 0.77796 0.13813 0.50188 0.0
C867 C 0.77739 0.10258 0.50859 0.0
C868 C 0.80082 0.10294 0.52932 0.0
C869 C 0.82274 0.13762 0.54389 0.0
C870 C 0.6932 0.99634 0.49981 0.0
C871 C 0.6884 0.99365 0.4731 0.0
C872 C 0.72327 0.0312 0.51113 0.0
C873 C 0.74889 0.06434 0.49599 0.0
C874 C 0.74482 0.06138 0.46918 0.0
C875 C 0.71503 0.02606 0.45779 0.0
H876 H 0.26858 0.37146 0.2866 0.0
H877 H 0.29091 0.2857 0.3257 0.0
H878 H 0.28313 0.35127 0.24589 0.0
H879 H 0.3024 0.26322 0.28467 0.0
H880 H 0.37241 0.27129 0.21213 0.0
H881 H 0.35184 0.2854 0.25285 0.0
H882 H 0.26186 0.30177 0.2142 0.0
H883 H 0.28466 0.29077 0.17315 0.0
C884 C 0.2764 0.34812 0.28655 0.0
C885 C 0.27924 0.33075 0.30959 0.0
C886 C 0.28405 0.33597 0.26305 0.0
C887 C 0.29416 0.30566 0.26186 0.0
C888 C 0.29545 0.28717 0.28482 0.0
C889 C 0.28829 0.29969 0.30839 0.0
C890 C 0.34857 0.27841 0.2122 0.0
C891 C 0.33071 0.28054 0.18919 0.0
C892 C 0.33622 0.28579 0.23571 0.0
C893 C 0.30522 0.29492 0.23694 0.0
C894 C 0.28632 0.29557 0.21402 0.0
C895 C 0.29905 0.28869 0.19044 0.0
H896 H 0.73397 0.10867 0.21459 0.0
H897 H 0.70743 0.99695 0.17866 0.0
H898 H 0.71975 0.07646 0.25641 0.0
H899 H 0.6948 0.9653 0.22087 0.0
H900 H 0.70995 0.93718 0.30632 0.0
H901 H 0.73197 0.97191 0.26495 0.0
H902 H 0.65254 0.01945 0.27514 0.0
H903 H 0.63025 0.98444 0.31615 0.0
C904 C 0.72512 0.07726 0.21554 0.0
C905 C 0.72107 0.05522 0.19313 0.0
C906 C 0.71729 0.05897 0.23955 0.0
C907 C 0.70593 0.01841 0.24177 0.0
C908 C 0.70375 0.99673 0.21962 0.0
C909 C 0.71106 0.0149 0.19549 0.0
C910 C 0.69758 0.95539 0.29973 0.0
C911 C 0.66849 0.95828 0.3143 0.0
C912 C 0.70993 0.97495 0.27609 0.0
C913 C 0.69395 0.99832 0.26698 0.0
C914 C 0.66552 0.00185 0.28186 0.0
C915 C 0.65266 0.98175 0.3052 0.0
H916 H 0.93781 0.71729 0.19575 0.0
H917 H 0.97004 0.6254 0.1891 0.0
H918 H 0.97318 0.73811 0.23708 0.0
H919 H 0.00586 0.64658 0.22989 0.0
H920 H 0.10165 0.7263 0.28825 0.0
H921 H 0.06878 0.71311 0.2467 0.0
H922 H 0.96219 0.70016 0.2826 0.0
H923 H 0.99426 0.71151 0.32462 0.0
C924 C 0.95283 0.70194 0.20304 0.0
C925 C 0.95134 0.66981 0.1894 0.0
C926 C 0.97277 0.71363 0.22663 0.0
C927 C 0.99222 0.69395 0.23653 0.0
C928 C 0.99132 0.66239 0.22256 0.0
C929 C 0.97078 0.65021 0.19934 0.0
C930 C 0.07106 0.72024 0.28748 0.0
C931 C 0.05037 0.71915 0.30997 0.0
C932 C 0.05243 0.71306 0.2636 0.0
C933 C 0.01297 0.70543 0.26155 0.0
C934 C 0.99278 0.70623 0.28373 0.0
C935 C 0.01121 0.7128 0.30775 0.0
H936 H 0.77089 0.71144 0.69585 0.0
H937 H 0.64706 0.61936 0.68869 0.0
H938 H 0.75685 0.72973 0.73791 0.0
H939 H 0.63222 0.63865 0.72984 0.0
H940 H 0.62333 0.64902 0.81459 0.0
H941 H 0.64142 0.6333 0.7733 0.0
H942 H 0.72574 0.7591 0.7612 0.0
H943 H 0.70881 0.77419 0.80338 0.0
C944 C 0.74054 0.69565 0.70317 0.0
C945 C 0.71007 0.66387 0.68927 0.0
C946 C 0.73239 0.70613 0.7272 0.0
C947 C 0.69345 0.68536 0.73755 0.0
C948 C 0.6628 0.65456 0.72296 0.0
C949 C 0.67112 0.64368 0.69926 0.0
C950 C 0.64592 0.67317 0.8031 0.0
C951 C 0.66462 0.71275 0.812 0.0
C952 C 0.65608 0.66432 0.77931 0.0
C953 C 0.68461 0.69498 0.76357 0.0
C954 C 0.70392 0.73463 0.77281 0.0
C955 C 0.6942 0.74337 0.79691 0.0
H956 H 0.28572 0.0015 0.82189 0.0
H957 H 0.2609 0.89001 0.78647 0.0
H958 H 0.29617 0.03223 0.77947 0.0
H959 H 0.27282 0.92126 0.74441 0.0
H960 H 0.36132 0.01384 0.6844 0.0
H961 H 0.33884 0.9783 0.72517 0.0
H962 H 0.25877 0.02508 0.73549 0.0
H963 H 0.281 0.06032 0.69422 0.0
C964 C 0.28197 0.98339 0.80513 0.0
C965 C 0.2732 0.94347 0.80768 0.0
C966 C 0.28797 0.00101 0.78087 0.0
C967 C 0.28567 0.97916 0.75876 0.0
C968 C 0.27533 0.9389 0.76121 0.0
C969 C 0.26885 0.92116 0.78534 0.0
C970 C 0.33858 0.01611 0.69527 0.0
C971 C 0.32277 0.03963 0.68627 0.0
C972 C 0.32563 0.99572 0.7185 0.0
C973 C 0.29709 0.99899 0.73341 0.0
C974 C 0.2809 0.02222 0.72433 0.0
C975 C 0.29335 0.04207 0.70075 0.0
H976 H 0.02742 0.37769 0.81132 0.0
H977 H 0.06356 0.28878 0.80375 0.0
H978 H 0.99167 0.35613 0.77047 0.0
H979 H 0.02836 0.26769 0.76242 0.0
H980 H 0.00477 0.29353 0.67533 0.0
H981 H 0.03793 0.30673 0.71705 0.0
H982 H 0.92954 0.28702 0.75404 0.0
H983 H 0.89556 0.27178 0.71279 0.0
C984 C 0.02767 0.35355 0.80084 0.0
C985 C 0.04807 0.33479 0.81055 0.0
C986 C 0.00716 0.34115 0.77761 0.0
C987 C 0.00734 0.31029 0.76344 0.0
C988 C 0.02794 0.29162 0.77305 0.0
C989 C 0.0478 0.30349 0.79662 0.0
C990 C 0.98767 0.29112 0.69236 0.0
C991 C 0.94758 0.28215 0.69055 0.0
C992 C 0.00675 0.2988 0.7162 0.0
C993 C 0.98628 0.29821 0.73858 0.0
C994 C 0.94604 0.28816 0.73695 0.0
C995 C 0.92677 0.2798 0.71325 0.0
loop_
_geom_bond_atom_site_label_1
_geom_bond_atom_site_label_2
_geom_bond_distance
_geom_bond_site_symmetry_2
_ccdc_geom_bond_type
Co0 N4 2.148 . S
Co0 N10 2.128 . S
Co0 N20 2.194 . S
Co0 O25 2.351 . S
Co0 O26 2.155 . S
Co0 O27 2.096 . S
C1 N4 1.301 . S
C1 N5 1.328 . S
C1 H6 0.930 . S
C2 C3 1.333 . S
C2 N4 1.317 . S
C2 H7 0.930 . S
C3 C2 1.333 . S
C3 N5 1.350 . S
C3 H29 0.931 . S
N4 Co0 2.148 . S
N4 C1 1.301 . S
N4 C2 1.317 . S
N5 C1 1.328 . S
N5 C3 1.350 . S
H6 C1 0.930 . S
H7 C2 0.930 . S
C8 O9 1.224 . S
C8 O27 1.247 . S
O9 C8 1.224 . S
N10 Co0 2.128 . S
N10 C11 1.355 . S
N10 C13 1.311 . S
C11 N10 1.355 . S
C11 C12 1.363 . S
C11 H23 0.929 . S
C12 C11 1.363 . S
C12 N14 1.375 . S
C12 H30 0.931 . S
C13 N10 1.311 . S
C13 N14 1.347 . S
C13 H24 0.929 . S
N14 C12 1.375 . S
N14 C13 1.347 . S
C15 C18 1.365 . S
C15 N20 1.328 . S
C15 H21 0.929 . S
C16 C17 1.362 . S
C16 C19 1.378 . S
C16 H31 0.929 . S
C17 C16 1.362 . S
C17 C18 1.366 . S
C18 C15 1.365 . S
C18 C17 1.366 . S
C18 H32 0.930 . S
C19 C16 1.378 . S
C19 N20 1.315 . S
C19 H22 0.930 . S
N20 Co0 2.194 . S
N20 C15 1.328 . S
N20 C19 1.315 . S
H21 C15 0.929 . S
H22 C19 0.930 . S
H23 C11 0.929 . S
H24 C13 0.929 . S
O25 Co0 2.351 . S
O25 C28 1.244 . S
O26 Co0 2.155 . S
O26 C28 1.240 . S
O27 Co0 2.096 . S
O27 C8 1.247 . S
C28 O25 1.244 . S
C28 O26 1.240 . S
H29 C3 0.931 . S
H30 C12 0.931 . S
H31 C16 0.929 . S
H32 C18 0.930 . S
Co33 N37 2.148 . S
Co33 N43 2.128 . S
Co33 N53 2.194 . S
Co33 O58 2.351 . S
Co33 O59 2.155 . S
Co33 O60 2.096 . S
C34 N37 1.301 . S
C34 N38 1.328 . S
C34 H39 0.930 . S
C35 C36 1.333 . S
C35 N37 1.317 . S
C35 H40 0.930 . S
C36 C35 1.333 . S
C36 N38 1.350 . S
C36 H62 0.931 . S
N37 Co33 2.148 . S
N37 C34 1.301 . S
N37 C35 1.317 . S
N38 C34 1.328 . S
N38 C36 1.350 . S
H39 C34 0.930 . S
H40 C35 0.930 . S
C41 O42 1.224 . S
C41 O60 1.247 . S
O42 C41 1.224 . S
N43 Co33 2.128 . S
N43 C44 1.355 . S
N43 C46 1.311 . S
C44 N43 1.355 . S
C44 C45 1.363 . S
C44 H56 0.929 . S
C45 C44 1.363 . S
C45 N47 1.375 . S
C45 H63 0.931 . S
C46 N43 1.311 . S
C46 N47 1.347 . S
C46 H57 0.929 . S
N47 C45 1.375 . S
N47 C46 1.347 . S
C48 C51 1.365 . S
C48 N53 1.328 . S
C48 H54 0.929 . S
C49 C50 1.362 . S
C49 C52 1.378 . S
C49 H64 0.929 . S
C50 C49 1.362 . S
C50 C51 1.366 . S
C51 C48 1.365 . S
C51 C50 1.366 . S
C51 H65 0.930 . S
C52 C49 1.378 . S
C52 N53 1.315 . S
C52 H55 0.930 . S
N53 Co33 2.194 . S
N53 C48 1.328 . S
N53 C52 1.315 . S
H54 C48 0.929 . S
H55 C52 0.930 . S
H56 C44 0.929 . S
H57 C46 0.929 . S
O58 Co33 2.351 . S
O58 C61 1.244 . S
O59 Co33 2.155 . S
O59 C61 1.240 . S
O60 Co33 2.096 . S
O60 C41 1.247 . S
C61 O58 1.244 . S
C61 O59 1.240 . S
H62 C36 0.931 . S
H63 C45 0.931 . S
H64 C49 0.929 . S
H65 C51 0.930 . S
Co66 N70 2.148 . S
Co66 N76 2.128 . S
Co66 N86 2.194 . S
Co66 O91 2.351 . S
Co66 O92 2.155 . S
Co66 O93 2.096 . S
C67 N70 1.301 . S
C67 N71 1.328 . S
C67 H72 0.930 . S
C68 C69 1.333 . S
C68 N70 1.317 . S
C68 H73 0.930 . S
C69 C68 1.333 . S
C69 N71 1.350 . S
C69 H95 0.931 . S
N70 Co66 2.148 . S
N70 C67 1.301 . S
N70 C68 1.317 . S
N71 C67 1.328 . S
N71 C69 1.350 . S
H72 C67 0.930 . S
H73 C68 0.930 . S
C74 O75 1.224 . S
C74 O93 1.247 . S
O75 C74 1.224 . S
N76 Co66 2.128 . S
N76 C77 1.355 . S
N76 C79 1.311 . S
C77 N76 1.355 . S
C77 C78 1.363 . S
C77 H89 0.929 . S
C78 C77 1.363 . S
C78 N80 1.375 . S
C78 H96 0.931 . S
C79 N76 1.311 . S
C79 N80 1.347 . S
C79 H90 0.929 . S
N80 C78 1.375 . S
N80 C79 1.347 . S
C81 C84 1.365 . S
C81 N86 1.328 . S
C81 H87 0.929 . S
C82 C83 1.362 . S
C82 C85 1.378 . S
C82 H97 0.929 . S
C83 C82 1.362 . S
C83 C84 1.366 . S
C84 C81 1.365 . S
C84 C83 1.366 . S
C84 H98 0.930 . S
C85 C82 1.378 . S
C85 N86 1.315 . S
C85 H88 0.930 . S
N86 Co66 2.194 . S
N86 C81 1.328 . S
N86 C85 1.315 . S
H87 C81 0.929 . S
H88 C85 0.930 . S
H89 C77 0.929 . S
H90 C79 0.929 . S
O91 Co66 2.351 . S
O91 C94 1.244 . S
O92 Co66 2.155 . S
O92 C94 1.240 . S
O93 Co66 2.096 . S
O93 C74 1.247 . S
C94 O91 1.244 . S
C94 O92 1.240 . S
H95 C69 0.931 . S
H96 C78 0.931 . S
H97 C82 0.929 . S
H98 C84 0.930 . S
Co99 N103 2.148 . S
Co99 N109 2.128 . S
Co99 N119 2.194 . S
Co99 O124 2.351 . S
Co99 O125 2.155 . S
Co99 O126 2.096 . S
C100 N103 1.301 . S
C100 N104 1.328 . S
C100 H105 0.930 . S
C101 C102 1.333 . S
C101 N103 1.317 . S
C101 H106 0.930 . S
C102 C101 1.333 . S
C102 N104 1.350 . S
C102 H128 0.931 . S
N103 Co99 2.148 . S
N103 C100 1.301 . S
N103 C101 1.317 . S
N104 C100 1.328 . S
N104 C102 1.350 . S
H105 C100 0.930 . S
H106 C101 0.930 . S
C107 O108 1.224 . S
C107 O126 1.247 . S
O108 C107 1.224 . S
N109 Co99 2.128 . S
N109 C110 1.355 . S
N109 C112 1.311 . S
C110 N109 1.355 . S
C110 C111 1.363 . S
C110 H122 0.929 . S
C111 C110 1.363 . S
C111 N113 1.375 . S
C111 H129 0.931 . S
C112 N109 1.311 . S
C112 N113 1.347 . S
C112 H123 0.929 . S
N113 C111 1.375 . S
N113 C112 1.347 . S
C114 C117 1.365 . S
C114 N119 1.328 . S
C114 H120 0.929 . S
C115 C116 1.362 . S
C115 C118 1.378 . S
C115 H130 0.929 . S
C116 C115 1.362 . S
C116 C117 1.366 . S
C117 C114 1.365 . S
C117 C116 1.366 . S
C117 H131 0.930 . S
C118 C115 1.378 . S
C118 N119 1.315 . S
C118 H121 0.930 . S
N119 Co99 2.194 . S
N119 C114 1.328 . S
N119 C118 1.315 . S
H120 C114 0.929 . S
H121 C118 0.930 . S
H122 C110 0.929 . S
H123 C112 0.929 . S
O124 Co99 2.351 . S
O124 C127 1.244 . S
O125 Co99 2.155 . S
O125 C127 1.240 . S
O126 Co99 2.096 . S
O126 C107 1.247 . S
C127 O124 1.244 . S
C127 O125 1.240 . S
H128 C102 0.931 . S
H129 C111 0.931 . S
H130 C115 0.929 . S
H131 C117 0.930 . S
Co132 N136 2.148 . S
Co132 N142 2.128 . S
Co132 N152 2.194 . S
Co132 O157 2.351 . S
Co132 O158 2.155 . S
Co132 O159 2.096 . S
C133 N136 1.301 . S
C133 N137 1.328 . S
C133 H138 0.930 . S
C134 C135 1.333 . S
C134 N136 1.317 . S
C134 H139 0.930 . S
C135 C134 1.333 . S
C135 N137 1.350 . S
C135 H161 0.931 . S
N136 Co132 2.148 . S
N136 C133 1.301 . S
N136 C134 1.317 . S
N137 C133 1.328 . S
N137 C135 1.350 . S
H138 C133 0.930 . S
H139 C134 0.930 . S
C140 O141 1.224 . S
C140 O159 1.247 . S
O141 C140 1.224 . S
N142 Co132 2.128 . S
N142 C143 1.355 . S
N142 C145 1.311 . S
C143 N142 1.355 . S
C143 C144 1.363 . S
C143 H155 0.929 . S
C144 C143 1.363 . S
C144 N146 1.375 . S
C144 H162 0.931 . S
C145 N142 1.311 . S
C145 N146 1.347 . S
C145 H156 0.929 . S
N146 C144 1.375 . S
N146 C145 1.347 . S
C147 C150 1.365 . S
C147 N152 1.328 . S
C147 H153 0.929 . S
C148 C149 1.362 . S
C148 C151 1.378 . S
C148 H163 0.929 . S
C149 C148 1.362 . S
C149 C150 1.366 . S
C150 C147 1.365 . S
C150 C149 1.366 . S
C150 H164 0.930 . S
C151 C148 1.378 . S
C151 N152 1.315 . S
C151 H154 0.930 . S
N152 Co132 2.194 . S
N152 C147 1.328 . S
N152 C151 1.315 . S
H153 C147 0.929 . S
H154 C151 0.930 . S
H155 C143 0.929 . S
H156 C145 0.929 . S
O157 Co132 2.351 . S
O157 C160 1.244 . S
O158 Co132 2.155 . S
O158 C160 1.240 . S
O159 Co132 2.096 . S
O159 C140 1.247 . S
C160 O157 1.244 . S
C160 O158 1.240 . S
H161 C135 0.931 . S
H162 C144 0.931 . S
H163 C148 0.929 . S
H164 C150 0.930 . S
Co165 N169 2.148 . S
Co165 N175 2.128 . S
Co165 N185 2.194 . S
Co165 O190 2.351 . S
Co165 O191 2.155 . S
Co165 O192 2.096 . S
C166 N169 1.301 . S
C166 N170 1.328 . S
C166 H171 0.930 . S
C167 C168 1.333 . S
C167 N169 1.317 . S
C167 H172 0.930 . S
C168 C167 1.333 . S
C168 N170 1.350 . S
C168 H194 0.931 . S
N169 Co165 2.148 . S
N169 C166 1.301 . S
N169 C167 1.317 . S
N170 C166 1.328 . S
N170 C168 1.350 . S
H171 C166 0.930 . S
H172 C167 0.930 . S
C173 O174 1.224 . S
C173 O192 1.247 . S
O174 C173 1.224 . S
N175 Co165 2.128 . S
N175 C176 1.355 . S
N175 C178 1.311 . S
C176 N175 1.355 . S
C176 C177 1.363 . S
C176 H188 0.929 . S
C177 C176 1.363 . S
C177 N179 1.375 . S
C177 H195 0.931 . S
C178 N175 1.311 . S
C178 N179 1.347 . S
C178 H189 0.929 . S
N179 C177 1.375 . S
N179 C178 1.347 . S
C180 C183 1.365 . S
C180 N185 1.328 . S
C180 H186 0.929 . S
C181 C182 1.362 . S
C181 C184 1.378 . S
C181 H196 0.929 . S
C182 C181 1.362 . S
C182 C183 1.366 . S
C183 C180 1.365 . S
C183 C182 1.366 . S
C183 H197 0.930 . S
C184 C181 1.378 . S
C184 N185 1.315 . S
C184 H187 0.930 . S
N185 Co165 2.194 . S
N185 C180 1.328 . S
N185 C184 1.315 . S
H186 C180 0.929 . S
H187 C184 0.930 . S
H188 C176 0.929 . S
H189 C178 0.929 . S
O190 Co165 2.351 . S
O190 C193 1.244 . S
O191 Co165 2.155 . S
O191 C193 1.240 . S
O192 Co165 2.096 . S
O192 C173 1.247 . S
C193 O190 1.244 . S
C193 O191 1.240 . S
H194 C168 0.931 . S
H195 C177 0.931 . S
H196 C181 0.929 . S
H197 C183 0.930 . S
Co198 N202 2.148 . S
Co198 N208 2.128 . S
Co198 N218 2.194 . S
Co198 O223 2.351 . S
Co198 O224 2.155 . S
Co198 O225 2.096 . S
C199 N202 1.301 . S
C199 N203 1.328 . S
C199 H204 0.930 . S
C200 C201 1.333 . S
C200 N202 1.317 . S
C200 H205 0.930 . S
C201 C200 1.333 . S
C201 N203 1.350 . S
C201 H227 0.931 . S
N202 Co198 2.148 . S
N202 C199 1.301 . S
N202 C200 1.317 . S
N203 C199 1.328 . S
N203 C201 1.350 . S
H204 C199 0.930 . S
H205 C200 0.930 . S
C206 O207 1.224 . S
C206 O225 1.247 . S
O207 C206 1.224 . S
N208 Co198 2.128 . S
N208 C209 1.355 . S
N208 C211 1.311 . S
C209 N208 1.355 . S
C209 C210 1.363 . S
C209 H221 0.929 . S
C210 C209 1.363 . S
C210 N212 1.375 . S
C210 H228 0.931 . S
C211 N208 1.311 . S
C211 N212 1.347 . S
C211 H222 0.929 . S
N212 C210 1.375 . S
N212 C211 1.347 . S
C213 C216 1.365 . S
C213 N218 1.328 . S
C213 H219 0.929 . S
C214 C215 1.362 . S
C214 C217 1.378 . S
C214 H229 0.929 . S
C215 C214 1.362 . S
C215 C216 1.366 . S
C216 C213 1.365 . S
C216 C215 1.366 . S
C216 H230 0.930 . S
C217 C214 1.378 . S
C217 N218 1.315 . S
C217 H220 0.930 . S
N218 Co198 2.194 . S
N218 C213 1.328 . S
N218 C217 1.315 . S
H219 C213 0.929 . S
H220 C217 0.930 . S
H221 C209 0.929 . S
H222 C211 0.929 . S
O223 Co198 2.351 . S
O223 C226 1.244 . S
O224 Co198 2.155 . S
O224 C226 1.240 . S
O225 Co198 2.096 . S
O225 C206 1.247 . S
C226 O223 1.244 . S
C226 O224 1.240 . S
H227 C201 0.931 . S
H228 C210 0.931 . S
H229 C214 0.929 . S
H230 C216 0.930 . S
Co231 N235 2.148 . S
Co231 N241 2.128 . S
Co231 N251 2.194 . S
Co231 O256 2.351 . S
Co231 O257 2.155 . S
Co231 O258 2.096 . S
C232 N235 1.301 . S
C232 N236 1.328 . S
C232 H237 0.930 . S
C233 C234 1.333 . S
C233 N235 1.317 . S
C233 H238 0.930 . S
C234 C233 1.333 . S
C234 N236 1.350 . S
C234 H260 0.931 . S
N235 Co231 2.148 . S
N235 C232 1.301 . S
N235 C233 1.317 . S
N236 C232 1.328 . S
N236 C234 1.350 . S
H237 C232 0.930 . S
H238 C233 0.930 . S
C239 O240 1.224 . S
C239 O258 1.247 . S
O240 C239 1.224 . S
N241 Co231 2.128 . S
N241 C242 1.355 . S
N241 C244 1.311 . S
C242 N241 1.355 . S
C242 C243 1.363 . S
C242 H254 0.929 . S
C243 C242 1.363 . S
C243 N245 1.375 . S
C243 H261 0.931 . S
C244 N241 1.311 . S
C244 N245 1.347 . S
C244 H255 0.929 . S
N245 C243 1.375 . S
N245 C244 1.347 . S
C246 C249 1.365 . S
C246 N251 1.328 . S
C246 H252 0.929 . S
C247 C248 1.362 . S
C247 C250 1.378 . S
C247 H262 0.929 . S
C248 C247 1.362 . S
C248 C249 1.366 . S
C249 C246 1.365 . S
C249 C248 1.366 . S
C249 H263 0.930 . S
C250 C247 1.378 . S
C250 N251 1.315 . S
C250 H253 0.930 . S
N251 Co231 2.194 . S
N251 C246 1.328 . S
N251 C250 1.315 . S
H252 C246 0.929 . S
H253 C250 0.930 . S
H254 C242 0.929 . S
H255 C244 0.929 . S
O256 Co231 2.351 . S
O256 C259 1.244 . S
O257 Co231 2.155 . S
O257 C259 1.240 . S
O258 Co231 2.096 . S
O258 C239 1.247 . S
C259 O256 1.244 . S
C259 O257 1.240 . S
H260 C234 0.931 . S
H261 C243 0.931 . S
H262 C247 0.929 . S
H263 C249 0.930 . S
Co264 N268 2.148 . S
Co264 N274 2.128 . S
Co264 N284 2.194 . S
Co264 O289 2.351 . S
Co264 O290 2.155 . S
Co264 O291 2.096 . S
C265 N268 1.301 . S
C265 N269 1.328 . S
C265 H270 0.930 . S
C266 C267 1.333 . S
C266 N268 1.317 . S
C266 H271 0.930 . S
C267 C266 1.333 . S
C267 N269 1.350 . S
C267 H293 0.931 . S
N268 Co264 2.148 . S
N268 C265 1.301 . S
N268 C266 1.317 . S
N269 C265 1.328 . S
N269 C267 1.350 . S
H270 C265 0.930 . S
H271 C266 0.930 . S
C272 O273 1.224 . S
C272 O291 1.247 . S
O273 C272 1.224 . S
N274 Co264 2.128 . S
N274 C275 1.355 . S
N274 C277 1.311 . S
C275 N274 1.355 . S
C275 C276 1.363 . S
C275 H287 0.929 . S
C276 C275 1.363 . S
C276 N278 1.375 . S
C276 H294 0.931 . S
C277 N274 1.311 . S
C277 N278 1.347 . S
C277 H288 0.929 . S
N278 C276 1.375 . S
N278 C277 1.347 . S
C279 C282 1.365 . S
C279 N284 1.328 . S
C279 H285 0.929 . S
C280 C281 1.362 . S
C280 C283 1.378 . S
C280 H295 0.929 . S
C281 C280 1.362 . S
C281 C282 1.366 . S
C282 C279 1.365 . S
C282 C281 1.366 . S
C282 H296 0.930 . S
C283 C280 1.378 . S
C283 N284 1.315 . S
C283 H286 0.930 . S
N284 Co264 2.194 . S
N284 C279 1.328 . S
N284 C283 1.315 . S
H285 C279 0.929 . S
H286 C283 0.930 . S
H287 C275 0.929 . S
H288 C277 0.929 . S
O289 Co264 2.351 . S
O289 C292 1.244 . S
O290 Co264 2.155 . S
O290 C292 1.240 . S
O291 Co264 2.096 . S
O291 C272 1.247 . S
C292 O289 1.244 . S
C292 O290 1.240 . S
H293 C267 0.931 . S
H294 C276 0.931 . S
H295 C280 0.929 . S
H296 C282 0.930 . S
Co297 N301 2.148 . S
Co297 N307 2.128 . S
Co297 N317 2.194 . S
Co297 O322 2.351 . S
Co297 O323 2.155 . S
Co297 O324 2.096 . S
C298 N301 1.301 . S
C298 N302 1.328 . S
C298 H303 0.930 . S
C299 C300 1.333 . S
C299 N301 1.317 . S
C299 H304 0.930 . S
C300 C299 1.333 . S
C300 N302 1.350 . S
C300 H326 0.931 . S
N301 Co297 2.148 . S
N301 C298 1.301 . S
N301 C299 1.317 . S
N302 C298 1.328 . S
N302 C300 1.350 . S
H303 C298 0.930 . S
H304 C299 0.930 . S
C305 O306 1.224 . S
C305 O324 1.247 . S
O306 C305 1.224 . S
N307 Co297 2.128 . S
N307 C308 1.355 . S
N307 C310 1.311 . S
C308 N307 1.355 . S
C308 C309 1.363 . S
C308 H320 0.929 . S
C309 C308 1.363 . S
C309 N311 1.375 . S
C309 H327 0.931 . S
C310 N307 1.311 . S
C310 N311 1.347 . S
C310 H321 0.929 . S
N311 C309 1.375 . S
N311 C310 1.347 . S
C312 C315 1.365 . S
C312 N317 1.328 . S
C312 H318 0.929 . S
C313 C314 1.362 . S
C313 C316 1.378 . S
C313 H328 0.929 . S
C314 C313 1.362 . S
C314 C315 1.366 . S
C315 C312 1.365 . S
C315 C314 1.366 . S
C315 H329 0.930 . S
C316 C313 1.378 . S
C316 N317 1.315 . S
C316 H319 0.930 . S
N317 Co297 2.194 . S
N317 C312 1.328 . S
N317 C316 1.315 . S
H318 C312 0.929 . S
H319 C316 0.930 . S
H320 C308 0.929 . S
H321 C310 0.929 . S
O322 Co297 2.351 . S
O322 C325 1.244 . S
O323 Co297 2.155 . S
O323 C325 1.240 . S
O324 Co297 2.096 . S
O324 C305 1.247 . S
C325 O322 1.244 . S
C325 O323 1.240 . S
H326 C300 0.931 . S
H327 C309 0.931 . S
H328 C313 0.929 . S
H329 C315 0.930 . S
Co330 N334 2.148 . S
Co330 N340 2.128 . S
Co330 N350 2.194 . S
Co330 O355 2.351 . S
Co330 O356 2.155 . S
Co330 O357 2.096 . S
C331 N334 1.301 . S
C331 N335 1.328 . S
C331 H336 0.930 . S
C332 C333 1.333 . S
C332 N334 1.317 . S
C332 H337 0.930 . S
C333 C332 1.333 . S
C333 N335 1.350 . S
C333 H359 0.931 . S
N334 Co330 2.148 . S
N334 C331 1.301 . S
N334 C332 1.317 . S
N335 C331 1.328 . S
N335 C333 1.350 . S
H336 C331 0.930 . S
H337 C332 0.930 . S
C338 O339 1.224 . S
C338 O357 1.247 . S
O339 C338 1.224 . S
N340 Co330 2.128 . S
N340 C341 1.355 . S
N340 C343 1.311 . S
C341 N340 1.355 . S
C341 C342 1.363 . S
C341 H353 0.929 . S
C342 C341 1.363 . S
C342 N344 1.375 . S
C342 H360 0.931 . S
C343 N340 1.311 . S
C343 N344 1.347 . S
C343 H354 0.929 . S
N344 C342 1.375 . S
N344 C343 1.347 . S
C345 C348 1.365 . S
C345 N350 1.328 . S
C345 H351 0.929 . S
C346 C347 1.362 . S
C346 C349 1.378 . S
C346 H361 0.929 . S
C347 C346 1.362 . S
C347 C348 1.366 . S
C348 C345 1.365 . S
C348 C347 1.366 . S
C348 H362 0.930 . S
C349 C346 1.378 . S
C349 N350 1.315 . S
C349 H352 0.930 . S
N350 Co330 2.194 . S
N350 C345 1.328 . S
N350 C349 1.315 . S
H351 C345 0.929 . S
H352 C349 0.930 . S
H353 C341 0.929 . S
H354 C343 0.929 . S
O355 Co330 2.351 . S
O355 C358 1.244 . S
O356 Co330 2.155 . S
O356 C358 1.240 . S
O357 Co330 2.096 . S
O357 C338 1.247 . S
C358 O355 1.244 . S
C358 O356 1.240 . S
H359 C333 0.931 . S
H360 C342 0.931 . S
H361 C346 0.929 . S
H362 C348 0.930 . S
Co363 N367 2.148 . S
Co363 N373 2.128 . S
Co363 N383 2.194 . S
Co363 O388 2.351 . S
Co363 O389 2.155 . S
Co363 O390 2.096 . S
C364 N367 1.301 . S
C364 N368 1.328 . S
C364 H369 0.930 . S
C365 C366 1.333 . S
C365 N367 1.317 . S
C365 H370 0.930 . S
C366 C365 1.333 . S
C366 N368 1.350 . S
C366 H392 0.931 . S
N367 Co363 2.148 . S
N367 C364 1.301 . S
N367 C365 1.317 . S
N368 C364 1.328 . S
N368 C366 1.350 . S
H369 C364 0.930 . S
H370 C365 0.930 . S
C371 O372 1.224 . S
C371 O390 1.247 . S
O372 C371 1.224 . S
N373 Co363 2.128 . S
N373 C374 1.355 . S
N373 C376 1.311 . S
C374 N373 1.355 . S
C374 C375 1.363 . S
C374 H386 0.929 . S
C375 C374 1.363 . S
C375 N377 1.375 . S
C375 H393 0.931 . S
C376 N373 1.311 . S
C376 N377 1.347 . S
C376 H387 0.929 . S
N377 C375 1.375 . S
N377 C376 1.347 . S
C378 C381 1.365 . S
C378 N383 1.328 . S
C378 H384 0.929 . S
C379 C380 1.362 . S
C379 C382 1.378 . S
C379 H394 0.929 . S
C380 C379 1.362 . S
C380 C381 1.366 . S
C381 C378 1.365 . S
C381 C380 1.366 . S
C381 H395 0.930 . S
C382 C379 1.378 . S
C382 N383 1.315 . S
C382 H385 0.930 . S
N383 Co363 2.194 . S
N383 C378 1.328 . S
N383 C382 1.315 . S
H384 C378 0.929 . S
H385 C382 0.930 . S
H386 C374 0.929 . S
H387 C376 0.929 . S
O388 Co363 2.351 . S
O388 C391 1.244 . S
O389 Co363 2.155 . S
O389 C391 1.240 . S
O390 Co363 2.096 . S
O390 C371 1.247 . S
C391 O388 1.244 . S
C391 O389 1.240 . S
H392 C366 0.931 . S
H393 C375 0.931 . S
H394 C379 0.929 . S
H395 C381 0.930 . S
H396 C404 0.950 . S
H397 C409 0.950 . S
H398 C406 0.950 . S
H399 C408 0.950 . S
H400 C410 0.950 . S
H401 C412 0.950 . S
H402 C414 0.950 . S
H403 C415 0.950 . S
C404 H396 0.950 . S
C404 C405 1.386 . S
C404 C406 1.391 . S
C405 C404 1.386 . S
C405 C409 1.393 . S
C406 H398 0.950 . S
C406 C404 1.391 . S
C406 C407 1.400 . S
C407 C406 1.400 . S
C407 C408 1.398 . S
C407 C413 1.491 . S
C408 H399 0.950 . S
C408 C407 1.398 . S
C408 C409 1.391 . S
C409 H397 0.950 . S
C409 C405 1.393 . S
C409 C408 1.391 . S
C410 H400 0.950 . S
C410 C411 1.386 . S
C410 C412 1.391 . S
C411 C410 1.386 . S
C411 C415 1.393 . S
C412 H401 0.950 . S
C412 C410 1.391 . S
C412 C413 1.400 . S
C413 C407 1.491 . S
C413 C412 1.400 . S
C413 C414 1.398 . S
C414 H402 0.950 . S
C414 C413 1.398 . S
C414 C415 1.391 . S
C415 H403 0.950 . S
C415 C411 1.393 . S
C415 C414 1.391 . S
H416 C424 0.950 . S
H417 C429 0.950 . S
H418 C426 0.950 . S
H419 C428 0.950 . S
H420 C430 0.950 . S
H421 C432 0.950 . S
H422 C434 0.950 . S
H423 C435 0.950 . S
C424 H416 0.950 . S
C424 C425 1.386 . S
C424 C426 1.391 . S
C425 C424 1.386 . S
C425 C429 1.393 . S
C426 H418 0.950 . S
C426 C424 1.391 . S
C426 C427 1.400 . S
C427 C426 1.400 . S
C427 C428 1.398 . S
C427 C433 1.491 . S
C428 H419 0.950 . S
C428 C427 1.398 . S
C428 C429 1.391 . S
C429 H417 0.950 . S
C429 C425 1.393 . S
C429 C428 1.391 . S
C430 H420 0.950 . S
C430 C431 1.386 . S
C430 C432 1.391 . S
C431 C430 1.386 . S
C431 C435 1.393 . S
C432 H421 0.950 . S
C432 C430 1.391 . S
C432 C433 1.400 . S
C433 C427 1.491 . S
C433 C432 1.400 . S
C433 C434 1.398 . S
C434 H422 0.950 . S
C434 C433 1.398 . S
C434 C435 1.391 . S
C435 H423 0.950 . S
C435 C431 1.393 . S
C435 C434 1.391 . S
H436 C444 0.950 . S
H437 C449 0.950 . S
H438 C446 0.950 . S
H439 C448 0.950 . S
H440 C450 0.950 . S
H441 C452 0.950 . S
H442 C454 0.950 . S
H443 C455 0.950 . S
C444 H436 0.950 . S
C444 C445 1.386 . S
C444 C446 1.391 . S
C445 C444 1.386 . S
C445 C449 1.393 . S
C446 H438 0.950 . S
C446 C444 1.391 . S
C446 C447 1.400 . S
C447 C446 1.400 . S
C447 C448 1.398 . S
C447 C453 1.491 . S
C448 H439 0.950 . S
C448 C447 1.398 . S
C448 C449 1.391 . S
C449 H437 0.950 . S
C449 C445 1.393 . S
C449 C448 1.391 . S
C450 H440 0.950 . S
C450 C451 1.386 . S
C450 C452 1.391 . S
C451 C450 1.386 . S
C451 C455 1.393 . S
C452 H441 0.950 . S
C452 C450 1.391 . S
C452 C453 1.400 . S
C453 C447 1.491 . S
C453 C452 1.400 . S
C453 C454 1.398 . S
C454 H442 0.950 . S
C454 C453 1.398 . S
C454 C455 1.391 . S
C455 H443 0.950 . S
C455 C451 1.393 . S
C455 C454 1.391 . S
H456 C464 0.950 . S
H457 C469 0.950 . S
H458 C466 0.950 . S
H459 C468 0.950 . S
H460 C470 0.950 . S
H461 C472 0.950 . S
H462 C474 0.950 . S
H463 C475 0.950 . S
C464 H456 0.950 . S
C464 C465 1.386 . S
C464 C466 1.391 . S
C465 C464 1.386 . S
C465 C469 1.393 . S
C466 H458 0.950 . S
C466 C464 1.391 . S
C466 C467 1.400 . S
C467 C466 1.400 . S
C467 C468 1.398 . S
C467 C473 1.491 . S
C468 H459 0.950 . S
C468 C467 1.398 . S
C468 C469 1.391 . S
C469 H457 0.950 . S
C469 C465 1.393 . S
C469 C468 1.391 . S
C470 H460 0.950 . S
C470 C471 1.386 . S
C470 C472 1.391 . S
C471 C470 1.386 . S
C471 C475 1.393 . S
C472 H461 0.950 . S
C472 C470 1.391 . S
C472 C473 1.400 . S
C473 C467 1.491 . S
C473 C472 1.400 . S
C473 C474 1.398 . S
C474 H462 0.950 . S
C474 C473 1.398 . S
C474 C475 1.391 . S
C475 H463 0.950 . S
C475 C471 1.393 . S
C475 C474 1.391 . S
H476 C484 0.950 . S
H477 C489 0.950 . S
H478 C486 0.950 . S
H479 C488 0.950 . S
H480 C490 0.950 . S
H481 C492 0.950 . S
H482 C494 0.950 . S
H483 C495 0.950 . S
C484 H476 0.950 . S
C484 C485 1.386 . S
C484 C486 1.391 . S
C485 C484 1.386 . S
C485 C489 1.393 . S
C486 H478 0.950 . S
C486 C484 1.391 . S
C486 C487 1.400 . S
C487 C486 1.400 . S
C487 C488 1.398 . S
C487 C493 1.491 . S
C488 H479 0.950 . S
C488 C487 1.398 . S
C488 C489 1.391 . S
C489 H477 0.950 . S
C489 C485 1.393 . S
C489 C488 1.391 . S
C490 H480 0.950 . S
C490 C491 1.386 . S
C490 C492 1.391 . S
C491 C490 1.386 . S
C491 C495 1.393 . S
C492 H481 0.950 . S
C492 C490 1.391 . S
C492 C493 1.400 . S
C493 C487 1.491 . S
C493 C492 1.400 . S
C493 C494 1.398 . S
C494 H482 0.950 . S
C494 C493 1.398 . S
C494 C495 1.391 . S
C495 H483 0.950 . S
C495 C491 1.393 . S
C495 C494 1.391 . S
H496 C504 0.950 . S
H497 C509 0.950 . S
H498 C506 0.950 . S
H499 C508 0.950 . S
H500 C510 0.950 . S
H501 C512 0.950 . S
H502 C514 0.950 . S
H503 C515 0.950 . S
C504 H496 0.950 . S
C504 C505 1.386 . S
C504 C506 1.391 . S
C505 C504 1.386 . S
C505 C509 1.393 . S
C506 H498 0.950 . S
C506 C504 1.391 . S
C506 C507 1.400 . S
C507 C506 1.400 . S
C507 C508 1.398 . S
C507 C513 1.491 . S
C508 H499 0.950 . S
C508 C507 1.398 . S
C508 C509 1.391 . S
C509 H497 0.950 . S
C509 C505 1.393 . S
C509 C508 1.391 . S
C510 H500 0.950 . S
C510 C511 1.386 . S
C510 C512 1.391 . S
C511 C510 1.386 . S
C511 C515 1.393 . S
C512 H501 0.950 . S
C512 C510 1.391 . S
C512 C513 1.400 . S
C513 C507 1.491 . S
C513 C512 1.400 . S
C513 C514 1.398 . S
C514 H502 0.950 . S
C514 C513 1.398 . S
C514 C515 1.391 . S
C515 H503 0.950 . S
C515 C511 1.393 . S
C515 C514 1.391 . S
H516 C524 0.950 . S
H517 C529 0.950 . S
H518 C526 0.950 . S
H519 C528 0.950 . S
H520 C530 0.950 . S
H521 C532 0.950 . S
H522 C534 0.950 . S
H523 C535 0.950 . S
C524 H516 0.950 . S
C524 C525 1.386 . S
C524 C526 1.391 . S
C525 C524 1.386 . S
C525 C529 1.393 . S
C526 H518 0.950 . S
C526 C524 1.391 . S
C526 C527 1.400 . S
C527 C526 1.400 . S
C527 C528 1.398 . S
C527 C533 1.491 . S
C528 H519 0.950 . S
C528 C527 1.398 . S
C528 C529 1.391 . S
C529 H517 0.950 . S
C529 C525 1.393 . S
C529 C528 1.391 . S
C530 H520 0.950 . S
C530 C531 1.386 . S
C530 C532 1.391 . S
C531 C530 1.386 . S
C531 C535 1.393 . S
C532 H521 0.950 . S
C532 C530 1.391 . S
C532 C533 1.400 . S
C533 C527 1.491 . S
C533 C532 1.400 . S
C533 C534 1.398 . S
C534 H522 0.950 . S
C534 C533 1.398 . S
C534 C535 1.391 . S
C535 H523 0.950 . S
C535 C531 1.393 . S
C535 C534 1.391 . S
H536 C544 0.950 . S
H537 C549 0.950 . S
H538 C546 0.950 . S
H539 C548 0.950 . S
H540 C550 0.950 . S
H541 C552 0.950 . S
H542 C554 0.950 . S
H543 C555 0.950 . S
C544 H536 0.950 . S
C544 C545 1.386 . S
C544 C546 1.391 . S
C545 C544 1.386 . S
C545 C549 1.393 . S
C546 H538 0.950 . S
C546 C544 1.391 . S
C546 C547 1.400 . S
C547 C546 1.400 . S
C547 C548 1.398 . S
C547 C553 1.491 . S
C548 H539 0.950 . S
C548 C547 1.398 . S
C548 C549 1.391 . S
C549 H537 0.950 . S
C549 C545 1.393 . S
C549 C548 1.391 . S
C550 H540 0.950 . S
C550 C551 1.386 . S
C550 C552 1.391 . S
C551 C550 1.386 . S
C551 C555 1.393 . S
C552 H541 0.950 . S
C552 C550 1.391 . S
C552 C553 1.400 . S
C553 C547 1.491 . S
C553 C552 1.400 . S
C553 C554 1.398 . S
C554 H542 0.950 . S
C554 C553 1.398 . S
C554 C555 1.391 . S
C555 H543 0.950 . S
C555 C551 1.393 . S
C555 C554 1.391 . S
H556 C564 0.950 . S
H557 C569 0.950 . S
H558 C566 0.950 . S
H559 C568 0.950 . S
H560 C570 0.950 . S
H561 C572 0.950 . S
H562 C574 0.950 . S
H563 C575 0.950 . S
C564 H556 0.950 . S
C564 C565 1.386 . S
C564 C566 1.391 . S
C565 C564 1.386 . S
C565 C569 1.393 . S
C566 H558 0.950 . S
C566 C564 1.391 . S
C566 C567 1.400 . S
C567 C566 1.400 . S
C567 C568 1.398 . S
C567 C573 1.491 . S
C568 H559 0.950 . S
C568 C567 1.398 . S
C568 C569 1.391 . S
C569 H557 0.950 . S
C569 C565 1.393 . S
C569 C568 1.391 . S
C570 H560 0.950 . S
C570 C571 1.386 . S
C570 C572 1.391 . S
C571 C570 1.386 . S
C571 C575 1.393 . S
C572 H561 0.950 . S
C572 C570 1.391 . S
C572 C573 1.400 . S
C573 C567 1.491 . S
C573 C572 1.400 . S
C573 C574 1.398 . S
C574 H562 0.950 . S
C574 C573 1.398 . S
C574 C575 1.391 . S
C575 H563 0.950 . S
C575 C571 1.393 . S
C575 C574 1.391 . S
H576 C584 0.950 . S
H577 C589 0.950 . S
H578 C586 0.950 . S
H579 C588 0.950 . S
H580 C590 0.950 . S
H581 C592 0.950 . S
H582 C594 0.950 . S
H583 C595 0.950 . S
C584 H576 0.950 . S
C584 C585 1.386 . S
C584 C586 1.391 . S
C585 C584 1.386 . S
C585 C589 1.393 . S
C586 H578 0.950 . S
C586 C584 1.391 . S
C586 C587 1.400 . S
C587 C586 1.400 . S
C587 C588 1.398 . S
C587 C593 1.491 . S
C588 H579 0.950 . S
C588 C587 1.398 . S
C588 C589 1.391 . S
C589 H577 0.950 . S
C589 C585 1.393 . S
C589 C588 1.391 . S
C590 H580 0.950 . S
C590 C591 1.386 . S
C590 C592 1.391 . S
C591 C590 1.386 . S
C591 C595 1.393 . S
C592 H581 0.950 . S
C592 C590 1.391 . S
C592 C593 1.400 . S
C593 C587 1.491 . S
C593 C592 1.400 . S
C593 C594 1.398 . S
C594 H582 0.950 . S
C594 C593 1.398 . S
C594 C595 1.391 . S
C595 H583 0.950 . S
C595 C591 1.393 . S
C595 C594 1.391 . S
H596 C604 0.950 . S
H597 C609 0.950 . S
H598 C606 0.950 . S
H599 C608 0.950 . S
H600 C610 0.950 . S
H601 C612 0.950 . S
H602 C614 0.950 . S
H603 C615 0.950 . S
C604 H596 0.950 . S
C604 C605 1.386 . S
C604 C606 1.391 . S
C605 C604 1.386 . S
C605 C609 1.393 . S
C606 H598 0.950 . S
C606 C604 1.391 . S
C606 C607 1.400 . S
C607 C606 1.400 . S
C607 C608 1.398 . S
C607 C613 1.491 . S
C608 H599 0.950 . S
C608 C607 1.398 . S
C608 C609 1.391 . S
C609 H597 0.950 . S
C609 C605 1.393 . S
C609 C608 1.391 . S
C610 H600 0.950 . S
C610 C611 1.386 . S
C610 C612 1.391 . S
C611 C610 1.386 . S
C611 C615 1.393 . S
C612 H601 0.950 . S
C612 C610 1.391 . S
C612 C613 1.400 . S
C613 C607 1.491 . S
C613 C612 1.400 . S
C613 C614 1.398 . S
C614 H602 0.950 . S
C614 C613 1.398 . S
C614 C615 1.391 . S
C615 H603 0.950 . S
C615 C611 1.393 . S
C615 C614 1.391 . S
H616 C624 0.950 . S
H617 C629 0.950 . S
H618 C626 0.950 . S
H619 C628 0.950 . S
H620 C630 0.950 . S
H621 C632 0.950 . S
H622 C634 0.950 . S
H623 C635 0.950 . S
C624 H616 0.950 . S
C624 C625 1.386 . S
C624 C626 1.391 . S
C625 C624 1.386 . S
C625 C629 1.393 . S
C626 H618 0.950 . S
C626 C624 1.391 . S
C626 C627 1.400 . S
C627 C626 1.400 . S
C627 C628 1.398 . S
C627 C633 1.491 . S
C628 H619 0.950 . S
C628 C627 1.398 . S
C628 C629 1.391 . S
C629 H617 0.950 . S
C629 C625 1.393 . S
C629 C628 1.391 . S
C630 H620 0.950 . S
C630 C631 1.386 . S
C630 C632 1.391 . S
C631 C630 1.386 . S
C631 C635 1.393 . S
C632 H621 0.950 . S
C632 C630 1.391 . S
C632 C633 1.400 . S
C633 C627 1.491 . S
C633 C632 1.400 . S
C633 C634 1.398 . S
C634 H622 0.950 . S
C634 C633 1.398 . S
C634 C635 1.391 . S
C635 H623 0.950 . S
C635 C631 1.393 . S
C635 C634 1.391 . S
H636 C644 0.950 . S
H637 C649 0.950 . S
H638 C646 0.950 1_556 S
H639 C648 0.950 . S
H640 C650 0.950 . S
H641 C652 0.950 1_554 S
H642 C654 0.950 . S
H643 C655 0.950 . S
C644 H636 0.950 . S
C644 C645 1.386 . S
C644 C646 1.391 . S
C645 C644 1.386 . S
C645 C649 1.393 . S
C646 H638 0.950 1_554 S
C646 C644 1.391 . S
C646 C647 1.400 . S
C647 C646 1.400 . S
C647 C648 1.398 . S
C647 C653 1.491 1_554 S
C648 H639 0.950 . S
C648 C647 1.398 . S
C648 C649 1.391 . S
C649 H637 0.950 . S
C649 C645 1.393 . S
C649 C648 1.391 . S
C650 H640 0.950 . S
C650 C651 1.386 . S
C650 C652 1.391 1_565 S
C651 C650 1.386 . S
C651 C655 1.393 1_565 S
C652 H641 0.950 1_556 S
C652 C650 1.391 1_545 S
C652 C653 1.400 . S
C653 C647 1.491 1_556 S
C653 C652 1.400 . S
C653 C654 1.398 . S
C654 H642 0.950 . S
C654 C653 1.398 . S
C654 C655 1.391 . S
C655 H643 0.950 . S
C655 C651 1.393 1_545 S
C655 C654 1.391 . S
H656 C664 0.950 . S
H657 C669 0.950 . S
H658 C666 0.961 . S
H659 C668 0.950 . S
H660 C670 0.950 . S
H661 C672 0.950 1_554 S
H662 C674 0.950 . S
H663 C675 0.950 . S
C664 H656 0.950 . S
C664 C665 1.386 . S
C664 C666 1.391 . S
C665 C664 1.386 . S
C665 C669 1.393 . S
C666 H658 0.961 . S
C666 C664 1.391 . S
C666 C667 1.400 . S
C667 C666 1.400 . S
C667 C668 1.398 . S
C667 C673 1.491 1_554 S
C668 H659 0.950 . S
C668 C667 1.398 . S
C668 C669 1.391 . S
C669 H657 0.950 . S
C669 C665 1.393 . S
C669 C668 1.391 . S
C670 H660 0.950 . S
C670 C671 1.386 . S
C670 C672 1.391 1_455 S
C671 C670 1.386 . S
C671 C675 1.393 1_455 S
C672 H661 0.950 1_556 S
C672 C670 1.391 1_655 S
C672 C673 1.400 . S
C673 C667 1.491 1_556 S
C673 C672 1.400 . S
C673 C674 1.398 . S
C674 H662 0.950 . S
C674 C673 1.398 . S
C674 C675 1.391 . S
C675 H663 0.950 . S
C675 C671 1.393 1_655 S
C675 C674 1.391 . S
H676 C684 0.950 . S
H677 C689 0.950 . S
H678 C686 0.950 1_556 S
H679 C688 0.950 . S
H680 C690 0.950 . S
H681 C692 0.909 1_554 S
H682 C694 0.950 . S
H683 C695 0.950 . S
C684 H676 0.950 . S
C684 C685 1.386 . S
C684 C686 1.391 . S
C685 C684 1.386 . S
C685 C689 1.393 . S
C686 H678 0.950 1_554 S
C686 C684 1.391 . S
C686 C687 1.400 . S
C687 C686 1.400 . S
C687 C688 1.398 . S
C687 C693 1.491 1_554 S
C688 H679 0.950 . S
C688 C687 1.398 . S
C688 C689 1.391 . S
C689 H677 0.950 . S
C689 C685 1.393 . S
C689 C688 1.391 . S
C690 H680 0.950 . S
C690 C691 1.386 . S
C690 C692 1.421 . S
C691 C690 1.386 . S
C691 C695 1.393 . S
C692 H681 0.909 1_556 S
C692 C690 1.421 . S
C692 C693 1.411 . S
C693 C687 1.491 1_556 S
C693 C692 1.411 . S
C693 C694 1.398 . S
C694 H682 0.950 . S
C694 C693 1.398 . S
C694 C695 1.391 . S
C695 H683 0.950 . S
C695 C691 1.393 . S
C695 C694 1.391 . S
H696 C704 0.950 . S
H697 C709 0.950 . S
H698 C706 0.950 . S
H699 C708 0.950 . S
H700 C710 0.950 . S
H701 C712 0.950 . S
H702 C714 0.950 . S
H703 C715 0.950 . S
C704 H696 0.950 . S
C704 C705 1.386 . S
C704 C706 1.391 1_655 S
C705 C704 1.386 . S
C705 C709 1.393 1_655 S
C706 H698 0.950 . S
C706 C704 1.391 1_455 S
C706 C707 1.400 . S
C707 C706 1.400 . S
C707 C708 1.398 . S
C707 C713 1.491 . S
C708 H699 0.950 . S
C708 C707 1.398 . S
C708 C709 1.391 . S
C709 H697 0.950 . S
C709 C705 1.393 1_455 S
C709 C708 1.391 . S
C710 H700 0.950 . S
C710 C711 1.386 . S
C710 C712 1.391 . S
C711 C710 1.386 . S
C711 C715 1.393 . S
C712 H701 0.950 . S
C712 C710 1.391 . S
C712 C713 1.400 . S
C713 C707 1.491 . S
C713 C712 1.400 . S
C713 C714 1.398 . S
C714 H702 0.950 . S
C714 C713 1.398 . S
C714 C715 1.391 . S
C715 H703 0.950 . S
C715 C711 1.393 . S
C715 C714 1.391 . S
H716 C724 0.950 . S
H717 C729 0.950 . S
H718 C726 0.950 . S
H719 C728 0.950 . S
H720 C730 0.950 . S
H721 C732 0.950 . S
H722 C734 0.950 . S
H723 C735 0.950 . S
C724 H716 0.950 . S
C724 C725 1.386 . S
C724 C726 1.391 . S
C725 C724 1.386 . S
C725 C729 1.393 . S
C726 H718 0.950 . S
C726 C724 1.391 . S
C726 C727 1.400 . S
C727 C726 1.400 . S
C727 C728 1.398 . S
C727 C733 1.491 . S
C728 H719 0.950 . S
C728 C727 1.398 . S
C728 C729 1.391 . S
C729 H717 0.950 . S
C729 C725 1.393 . S
C729 C728 1.391 . S
C730 H720 0.950 . S
C730 C731 1.386 . S
C730 C732 1.391 . S
C731 C730 1.386 . S
C731 C735 1.393 . S
C732 H721 0.950 . S
C732 C730 1.391 . S
C732 C733 1.400 . S
C733 C727 1.491 . S
C733 C732 1.400 . S
C733 C734 1.398 . S
C734 H722 0.950 . S
C734 C733 1.398 . S
C734 C735 1.391 . S
C735 H723 0.950 . S
C735 C731 1.393 . S
C735 C734 1.391 . S
H736 C744 0.950 . S
H737 C749 0.950 . S
H738 C746 0.950 . S
H739 C748 0.950 . S
H740 C750 0.950 . S
H741 C752 0.950 . S
H742 C754 0.950 . S
H743 C755 0.950 . S
C744 H736 0.950 . S
C744 C745 1.386 . S
C744 C746 1.391 1_545 S
C745 C744 1.386 . S
C745 C749 1.393 1_545 S
C746 H738 0.950 . S
C746 C744 1.391 1_565 S
C746 C747 1.400 . S
C747 C746 1.400 . S
C747 C748 1.398 . S
C747 C753 1.491 . S
C748 H739 0.950 . S
C748 C747 1.398 . S
C748 C749 1.391 . S
C749 H737 0.950 . S
C749 C745 1.393 1_565 S
C749 C748 1.391 . S
C750 H740 0.950 . S
C750 C751 1.386 . S
C750 C752 1.391 . S
C751 C750 1.386 . S
C751 C755 1.393 . S
C752 H741 0.950 . S
C752 C750 1.391 . S
C752 C753 1.400 . S
C753 C747 1.491 . S
C753 C752 1.400 . S
C753 C754 1.398 . S
C754 H742 0.950 . S
C754 C753 1.398 . S
C754 C755 1.391 . S
C755 H743 0.950 . S
C755 C751 1.393 . S
C755 C754 1.391 . S
H756 C764 0.950 . S
H757 C769 0.950 . S
H758 C766 0.950 . S
H759 C768 0.950 . S
H760 C770 0.950 . S
H761 C772 0.950 . S
H762 C774 0.950 . S
H763 C775 0.950 . S
C764 H756 0.950 . S
C764 C765 1.386 . S
C764 C766 1.391 1_545 S
C765 C764 1.386 . S
C765 C769 1.393 1_545 S
C766 H758 0.950 . S
C766 C764 1.391 1_565 S
C766 C767 1.400 . S
C767 C766 1.400 . S
C767 C768 1.398 . S
C767 C773 1.491 1_554 S
C768 H759 0.950 . S
C768 C767 1.398 . S
C768 C769 1.391 . S
C769 H757 0.950 . S
C769 C765 1.393 1_565 S
C769 C768 1.391 . S
C770 H760 0.950 . S
C770 C771 1.386 . S
C770 C772 1.391 . S
C771 C770 1.386 . S
C771 C775 1.393 . S
C772 H761 0.950 . S
C772 C770 1.391 . S
C772 C773 1.400 . S
C773 C767 1.491 1_556 S
C773 C772 1.400 . S
C773 C774 1.398 . S
C774 H762 0.950 . S
C774 C773 1.398 . S
C774 C775 1.391 . S
C775 H763 0.950 . S
C775 C771 1.393 . S
C775 C774 1.391 . S
H776 C784 0.950 . S
H777 C789 0.950 . S
H778 C786 0.950 . S
H779 C788 0.950 . S
H780 C790 0.950 . S
H781 C792 0.950 . S
H782 C794 0.950 . S
H783 C795 0.950 . S
C784 H776 0.950 . S
C784 C785 1.386 1_455 S
C784 C786 1.391 . S
C785 C784 1.386 1_655 S
C785 C789 1.393 . S
C786 H778 0.950 . S
C786 C784 1.391 . S
C786 C787 1.400 . S
C787 C786 1.400 . S
C787 C788 1.398 . S
C787 C793 1.491 1_554 S
C788 H779 0.950 . S
C788 C787 1.398 . S
C788 C789 1.391 1_455 S
C789 H777 0.950 . S
C789 C785 1.393 . S
C789 C788 1.391 1_655 S
C790 H780 0.950 . S
C790 C791 1.386 . S
C790 C792 1.391 . S
C791 C790 1.386 . S
C791 C795 1.393 . S
C792 H781 0.950 . S
C792 C790 1.391 . S
C792 C793 1.400 . S
C793 C787 1.491 1_556 S
C793 C792 1.400 . S
C793 C794 1.398 . S
C794 H782 0.950 . S
C794 C793 1.398 . S
C794 C795 1.391 . S
C795 H783 0.950 . S
C795 C791 1.393 . S
C795 C794 1.391 . S
H796 C804 0.950 . S
H797 C809 0.950 . S
H798 C806 0.950 1_554 S
H799 C808 0.950 . S
H800 C810 0.950 . S
H801 C812 0.950 1_556 S
H802 C814 0.950 . S
H803 C815 0.950 . S
C804 H796 0.950 . S
C804 C805 1.386 . S
C804 C806 1.391 . S
C805 C804 1.386 . S
C805 C809 1.393 . S
C806 H798 0.950 1_556 S
C806 C804 1.391 . S
C806 C807 1.400 . S
C807 C806 1.400 . S
C807 C808 1.398 . S
C807 C813 1.491 1_556 S
C808 H799 0.950 . S
C808 C807 1.398 . S
C808 C809 1.391 . S
C809 H797 0.950 . S
C809 C805 1.393 . S
C809 C808 1.391 . S
C810 H800 0.950 . S
C810 C811 1.386 . S
C810 C812 1.391 . S
C811 C810 1.386 . S
C811 C815 1.393 . S
C812 H801 0.950 1_554 S
C812 C810 1.391 . S
C812 C813 1.400 . S
C813 C807 1.491 1_554 S
C813 C812 1.400 . S
C813 C814 1.398 . S
C814 H802 0.950 . S
C814 C813 1.398 . S
C814 C815 1.391 . S
C815 H803 0.950 . S
C815 C811 1.393 . S
C815 C814 1.391 . S
H816 C824 0.950 . S
H817 C829 0.950 . S
H818 C826 0.950 . S
H819 C828 0.950 . S
H820 C830 0.950 . S
H821 C832 0.950 . S
H822 C834 0.950 . S
H823 C835 0.950 . S
C824 H816 0.950 . S
C824 C825 1.386 . S
C824 C826 1.391 1_455 S
C825 C824 1.386 . S
C825 C829 1.393 1_455 S
C826 H818 0.950 . S
C826 C824 1.391 1_655 S
C826 C827 1.400 . S
C827 C826 1.400 . S
C827 C828 1.398 . S
C827 C833 1.491 . S
C828 H819 0.950 . S
C828 C827 1.398 . S
C828 C829 1.391 . S
C829 H817 0.950 . S
C829 C825 1.393 1_655 S
C829 C828 1.391 . S
C830 H820 0.950 . S
C830 C831 1.386 . S
C830 C832 1.391 . S
C831 C830 1.386 . S
C831 C835 1.393 . S
C832 H821 0.950 . S
C832 C830 1.391 . S
C832 C833 1.400 . S
C833 C827 1.491 . S
C833 C832 1.400 . S
C833 C834 1.398 . S
C834 H822 0.950 . S
C834 C833 1.398 . S
C834 C835 1.391 . S
C835 H823 0.950 . S
C835 C831 1.393 . S
C835 C834 1.391 . S
H836 C844 0.950 . S
H837 C849 0.950 . S
H838 C846 0.950 . S
H839 C848 0.950 . S
H840 C850 0.950 . S
H841 C852 0.950 . S
H842 C854 0.950 . S
H843 C855 0.950 . S
C844 H836 0.950 . S
C844 C845 1.386 . S
C844 C846 1.391 . S
C845 C844 1.386 . S
C845 C849 1.393 . S
C846 H838 0.950 . S
C846 C844 1.391 . S
C846 C847 1.400 . S
C847 C846 1.400 . S
C847 C848 1.398 . S
C847 C853 1.491 . S
C848 H839 0.950 . S
C848 C847 1.398 . S
C848 C849 1.391 . S
C849 H837 0.950 . S
C849 C845 1.393 . S
C849 C848 1.391 . S
C850 H840 0.950 . S
C850 C851 1.386 . S
C850 C852 1.391 . S
C851 C850 1.386 . S
C851 C855 1.393 . S
C852 H841 0.950 . S
C852 C850 1.391 . S
C852 C853 1.400 . S
C853 C847 1.491 . S
C853 C852 1.400 . S
C853 C854 1.398 . S
C854 H842 0.950 . S
C854 C853 1.398 . S
C854 C855 1.391 . S
C855 H843 0.950 . S
C855 C851 1.393 . S
C855 C854 1.391 . S
H856 C864 0.950 . S
H857 C869 0.950 . S
H858 C866 0.950 . S
H859 C868 0.950 . S
H860 C870 0.950 . S
H861 C872 0.950 . S
H862 C874 0.950 . S
H863 C875 0.950 . S
C864 H856 0.950 . S
C864 C865 1.386 . S
C864 C866 1.391 . S
C865 C864 1.386 . S
C865 C869 1.393 . S
C866 H858 0.950 . S
C866 C864 1.391 . S
C866 C867 1.400 . S
C867 C866 1.400 . S
C867 C868 1.398 . S
C867 C873 1.491 . S
C868 H859 0.950 . S
C868 C867 1.398 . S
C868 C869 1.391 . S
C869 H857 0.950 . S
C869 C865 1.393 . S
C869 C868 1.391 . S
C870 H860 0.950 . S
C870 C871 1.386 . S
C870 C872 1.391 1_565 S
C871 C870 1.386 . S
C871 C875 1.393 1_565 S
C872 H861 0.950 . S
C872 C870 1.391 1_545 S
C872 C873 1.400 . S
C873 C867 1.491 . S
C873 C872 1.400 . S
C873 C874 1.398 . S
C874 H862 0.950 . S
C874 C873 1.398 . S
C874 C875 1.391 . S
C875 H863 0.950 . S
C875 C871 1.393 1_545 S
C875 C874 1.391 . S
H876 C884 0.950 . S
H877 C889 0.950 . S
H878 C886 0.950 . S
H879 C888 0.950 . S
H880 C890 0.950 . S
H881 C892 0.950 . S
H882 C894 0.950 . S
H883 C895 0.950 . S
C884 H876 0.950 . S
C884 C885 1.386 . S
C884 C886 1.391 . S
C885 C884 1.386 . S
C885 C889 1.393 . S
C886 H878 0.950 . S
C886 C884 1.391 . S
C886 C887 1.400 . S
C887 C886 1.400 . S
C887 C888 1.398 . S
C887 C893 1.491 . S
C888 H879 0.950 . S
C888 C887 1.398 . S
C888 C889 1.391 . S
C889 H877 0.950 . S
C889 C885 1.393 . S
C889 C888 1.391 . S
C890 H880 0.950 . S
C890 C891 1.386 . S
C890 C892 1.391 . S
C891 C890 1.386 . S
C891 C895 1.393 . S
C892 H881 0.950 . S
C892 C890 1.391 . S
C892 C893 1.400 . S
C893 C887 1.491 . S
C893 C892 1.400 . S
C893 C894 1.398 . S
C894 H882 0.950 . S
C894 C893 1.398 . S
C894 C895 1.391 . S
C895 H883 0.950 . S
C895 C891 1.393 . S
C895 C894 1.391 . S
H896 C904 0.950 . S
H897 C909 0.950 . S
H898 C906 0.950 . S
H899 C908 0.950 1_565 S
H900 C910 0.950 . S
H901 C912 0.950 . S
H902 C914 0.950 1_545 S
H903 C915 0.950 . S
C904 H896 0.950 . S
C904 C905 1.386 . S
C904 C906 1.391 . S
C905 C904 1.386 . S
C905 C909 1.393 . S
C906 H898 0.950 . S
C906 C904 1.391 . S
C906 C907 1.400 . S
C907 C906 1.400 . S
C907 C908 1.398 . S
C907 C913 1.491 1_545 S
C908 H899 0.950 1_545 S
C908 C907 1.398 . S
C908 C909 1.391 . S
C909 H897 0.950 . S
C909 C905 1.393 . S
C909 C908 1.391 . S
C910 H900 0.950 . S
C910 C911 1.386 . S
C910 C912 1.391 . S
C911 C910 1.386 . S
C911 C915 1.393 . S
C912 H901 0.950 . S
C912 C910 1.391 . S
C912 C913 1.400 . S
C913 C907 1.491 1_565 S
C913 C912 1.400 . S
C913 C914 1.398 . S
C914 H902 0.950 1_565 S
C914 C913 1.398 . S
C914 C915 1.391 . S
C915 H903 0.950 . S
C915 C911 1.393 . S
C915 C914 1.391 . S
H916 C924 0.950 . S
H917 C929 0.950 . S
H918 C926 0.950 . S
H919 C928 0.950 . S
H920 C930 0.950 . S
H921 C932 0.950 . S
H922 C934 0.950 . S
H923 C935 0.950 . S
C924 H916 0.950 . S
C924 C925 1.386 . S
C924 C926 1.391 . S
C925 C924 1.386 . S
C925 C929 1.393 . S
C926 H918 0.950 . S
C926 C924 1.391 . S
C926 C927 1.400 . S
C927 C926 1.400 . S
C927 C928 1.398 . S
C927 C933 1.491 1_655 S
C928 H919 0.950 . S
C928 C927 1.398 . S
C928 C929 1.391 . S
C929 H917 0.950 . S
C929 C925 1.393 . S
C929 C928 1.391 . S
C930 H920 0.950 . S
C930 C931 1.386 . S
C930 C932 1.391 . S
C931 C930 1.386 . S
C931 C935 1.393 . S
C932 H921 0.950 . S
C932 C930 1.391 . S
C932 C933 1.400 . S
C933 C927 1.491 1_455 S
C933 C932 1.400 . S
C933 C934 1.398 . S
C934 H922 0.950 . S
C934 C933 1.398 . S
C934 C935 1.391 . S
C935 H923 0.950 . S
C935 C931 1.393 . S
C935 C934 1.391 . S
H936 C944 0.950 . S
H937 C949 0.950 . S
H938 C946 0.950 . S
H939 C948 0.950 . S
H940 C950 0.950 . S
H941 C952 0.950 . S
H942 C954 0.950 . S
H943 C955 0.950 . S
C944 H936 0.950 . S
C944 C945 1.386 . S
C944 C946 1.391 . S
C945 C944 1.386 . S
C945 C949 1.393 . S
C946 H938 0.950 . S
C946 C944 1.391 . S
C946 C947 1.400 . S
C947 C946 1.400 . S
C947 C948 1.398 . S
C947 C953 1.491 . S
C948 H939 0.950 . S
C948 C947 1.398 . S
C948 C949 1.391 . S
C949 H937 0.950 . S
C949 C945 1.393 . S
C949 C948 1.391 . S
C950 H940 0.950 . S
C950 C951 1.386 . S
C950 C952 1.391 . S
C951 C950 1.386 . S
C951 C955 1.393 . S
C952 H941 0.950 . S
C952 C950 1.391 . S
C952 C953 1.400 . S
C953 C947 1.491 . S
C953 C952 1.400 . S
C953 C954 1.398 . S
C954 H942 0.950 . S
C954 C953 1.398 . S
C954 C955 1.391 . S
C955 H943 0.950 . S
C955 C951 1.393 . S
C955 C954 1.391 . S
H956 C964 0.950 . S
H957 C969 0.950 . S
H958 C966 0.950 1_545 S
H959 C968 0.950 . S
H960 C970 0.950 . S
H961 C972 0.950 1_565 S
H962 C974 0.950 . S
H963 C975 0.950 . S
C964 H956 0.950 . S
C964 C965 1.386 . S
C964 C966 1.391 . S
C965 C964 1.386 . S
C965 C969 1.393 . S
C966 H958 0.950 1_565 S
C966 C964 1.391 . S
C966 C967 1.400 . S
C967 C966 1.400 . S
C967 C968 1.398 . S
C967 C973 1.491 1_565 S
C968 H959 0.950 . S
C968 C967 1.398 . S
C968 C969 1.391 . S
C969 H957 0.950 . S
C969 C965 1.393 . S
C969 C968 1.391 . S
C970 H960 0.950 . S
C970 C971 1.386 . S
C970 C972 1.391 . S
C971 C970 1.386 . S
C971 C975 1.393 . S
C972 H961 0.950 1_545 S
C972 C970 1.391 . S
C972 C973 1.400 . S
C973 C967 1.491 1_545 S
C973 C972 1.400 . S
C973 C974 1.398 . S
C974 H962 0.950 . S
C974 C973 1.398 . S
C974 C975 1.391 . S
C975 H963 0.950 . S
C975 C971 1.393 . S
C975 C974 1.391 . S
H976 C984 0.950 . S
H977 C989 0.950 . S
H978 C986 0.950 1_655 S
H979 C988 0.950 . S
H980 C990 0.950 . S
H981 C992 0.950 1_455 S
H982 C994 0.950 . S
H983 C995 0.950 . S
C984 H976 0.950 . S
C984 C985 1.386 . S
C984 C986 1.391 . S
C985 C984 1.386 . S
C985 C989 1.393 . S
C986 H978 0.950 1_455 S
C986 C984 1.391 . S
C986 C987 1.400 . S
C987 C986 1.400 . S
C987 C988 1.398 . S
C987 C993 1.491 1_455 S
C988 H979 0.950 . S
C988 C987 1.398 . S
C988 C989 1.391 . S
C989 H977 0.950 . S
C989 C985 1.393 . S
C989 C988 1.391 . S
C990 H980 0.950 . S
C990 C991 1.386 . S
C990 C992 1.391 . S
C991 C990 1.386 . S
C991 C995 1.393 . S
C992 H981 0.950 1_655 S
C992 C990 1.391 . S
C992 C993 1.400 . S
C993 C987 1.491 1_655 S
C993 C992 1.400 . S
C993 C994 1.398 . S
C994 H982 0.950 . S
C994 C993 1.398 . S
C994 C995 1.391 . S
C995 H983 0.950 . S
C995 C991 1.393 . S
C995 C994 1.391 . S
C405 C41 1.613 . S
C411 N14 1.592 . S
C425 N47 1.592 . S
C431 C74 1.605 . S
C445 N80 1.573 . S
C451 C8 1.596 . S
C465 N113 1.575 . S
C471 C173 1.591 . S
C485 N146 1.574 . S
C491 C107 1.591 . S
C505 C140 1.590 . S
C511 N179 1.572 . S
C525 C239 1.611 . S
C531 N212 1.589 . S
C545 C272 1.606 . S
C551 N245 1.593 . S
C565 C206 1.608 . S
C571 N278 1.595 . S
C585 N311 1.590 . S
C591 C371 1.603 . S
C605 C305 1.599 . S
C611 N344 1.576 . S
C625 N377 1.596 . S
C631 C338 1.615 . S
C645 C28 1.321 . S
C651 N236 1.296 . S
C665 C61 1.326 . S
C671 N269 1.305 . S
C685 C94 1.321 . S
C691 N203 1.303 . S
C705 N368 1.291 . S
C711 C127 1.335 . S
C725 C160 1.323 . S
C731 N302 1.288 . S
C745 N335 1.277 . S
C751 C193 1.330 . S
C765 N38 1.300 . S
C771 C226 1.331 . S
C785 N71 1.279 . S
C791 C259 1.328 . S
C805 C292 1.334 . S
C811 N5 1.293 . S
C825 N170 1.302 . S
C831 C325 1.329 . S
C845 C358 1.336 . S
C851 N104 1.285 . S
C865 C391 1.330 . S
C871 N137 1.277 . S
C885 C116 1.291 . S
C891 C17 1.301 . S
C905 C50 1.290 . S
C911 C149 1.297 . S
C925 C83 1.307 . S
C931 C182 1.314 . S
C945 C314 1.292 . S
C951 C215 1.293 . S
C965 C248 1.291 . S
C971 C347 1.302 . S
C985 C281 1.308 . S
C991 C380 1.314 . S
