# Generated by pormake.
# Topology uob, (4)-cn, num edge types: 1
# Building blocks:
#     Node 0, Type 0, BuildingBlock: ICAMEG_clean_sbu_1, # of connection points: 4
#     Node 1, Type 0, BuildingBlock: ICAMEG_clean_sbu_1, # of connection points: 4
#     Node 2, Type 0, BuildingBlock: ICAMEG_clean_sbu_1, # of connection points: 4
#     Node 3, Type 0, BuildingBlock: ICAMEG_clean_sbu_1, # of connection points: 4
#     Node 4, Type 0, BuildingBlock: ICAMEG_clean_sbu_1, # of connection points: 4
#     Node 5, Type 0, BuildingBlock: ICAMEG_clean_sbu_1, # of connection points: 4
#     Node 6, Type 0, BuildingBlock: ICAMEG_clean_sbu_1, # of connection points: 4
#     Node 7, Type 0, BuildingBlock: ICAMEG_clean_sbu_1, # of connection points: 4
#     Node 8, Type 0, BuildingBlock: ICAMEG_clean_sbu_1, # of connection points: 4
#     Node 9, Type 0, BuildingBlock: ICAMEG_clean_sbu_1, # of connection points: 4
#     Node 10, Type 0, BuildingBlock: ICAMEG_clean_sbu_1, # of connection points: 4
#     Node 11, Type 0, BuildingBlock: ICAMEG_clean_sbu_1, # of connection points: 4
#     Node 12, Type 0, BuildingBlock: ICAMEG_clean_sbu_1, # of connection points: 4
#     Node 13, Type 0, BuildingBlock: ICAMEG_clean_sbu_1, # of connection points: 4
#     Node 14, Type 0, BuildingBlock: ICAMEG_clean_sbu_1, # of connection points: 4
#     Node 15, Type 0, BuildingBlock: ICAMEG_clean_sbu_1, # of connection points: 4
#     Edge 16, Type (0, 0), None
#     Edge 17, Type (0, 0), None
#     Edge 18, Type (0, 0), None
#     Edge 19, Type (0, 0), None
#     Edge 20, Type (0, 0), None
#     Edge 21, Type (0, 0), None
#     Edge 22, Type (0, 0), None
#     Edge 23, Type (0, 0), None
#     Edge 24, Type (0, 0), None
#     Edge 25, Type (0, 0), None
#     Edge 26, Type (0, 0), None
#     Edge 27, Type (0, 0), None
#     Edge 28, Type (0, 0), None
#     Edge 29, Type (0, 0), None
#     Edge 30, Type (0, 0), None
#     Edge 31, Type (0, 0), None
#     Edge 32, Type (0, 0), None
#     Edge 33, Type (0, 0), None
#     Edge 34, Type (0, 0), None
#     Edge 35, Type (0, 0), None
#     Edge 36, Type (0, 0), None
#     Edge 37, Type (0, 0), None
#     Edge 38, Type (0, 0), None
#     Edge 39, Type (0, 0), None
#     Edge 40, Type (0, 0), None
#     Edge 41, Type (0, 0), None
#     Edge 42, Type (0, 0), None
#     Edge 43, Type (0, 0), None
#     Edge 44, Type (0, 0), None
#     Edge 45, Type (0, 0), None
#     Edge 46, Type (0, 0), None
#     Edge 47, Type (0, 0), None
# Relax obj value: 0.077
# Max RMSD: 0.125
# Mean RMSD: 0.125
data_MOF--net-uob--node1-ICAMEG_clean_sbu_1--edge1-none
_symmetry_space_group_name_H-M    P1
_symmetry_Int_Tables_number       1
_symmetry_cell_setting            triclinic
loop_
_symmetry_equiv_pos_as_xyz
'x, y, z'
_cell_length_a     28.347558
_cell_length_b     28.352262
_cell_length_c     14.304057
_cell_angle_alpha  90.00632
_cell_angle_beta   89.990251
_cell_angle_gamma 90.086575
loop_
_atom_site_label
_atom_site_type_symbol
_atom_site_fract_x
_atom_site_fract_y
_atom_site_fract_z
_atom_type_partial_charge
Co0 Co 0.0789 0.08864 0.31913 0.0
Co1 Co 0.12671 0.98875 0.40857 0.0
O2 O 0.1221 0.03823 0.32237 0.0
C3 C 0.04382 0.07605 0.12607 0.0
O4 O 0.00173 0.07503 0.16428 0.0
C5 C 0.21626 0.04214 0.44031 0.0
O6 O 0.19104 0.07945 0.45985 0.0
O7 O 0.11524 0.03057 0.51827 0.0
O8 O 0.07602 0.0934 0.46165 0.0
H9 H 0.11157 0.8992 0.7087 0.0
H10 H 0.16985 0.092 0.21315 0.0
O11 O 0.08047 0.08153 0.17745 0.0
H12 H 0.18248 0.20813 0.46774 0.0
H13 H 0.01837 0.21604 0.12377 0.0
H14 H 0.98804 0.11564 0.39697 0.0
H15 H 0.10575 0.17325 0.42777 0.0
H16 H 0.08202 0.17264 0.19922 0.0
O17 O 0.19638 0.00289 0.42075 0.0
H18 H 0.0875 0.95881 0.59406 0.0
H19 H 0.19547 0.91075 0.41186 0.0
H20 H 0.92182 0.16378 0.32828 0.0
H21 H 0.24709 0.12766 0.25022 0.0
H22 H 0.93622 0.20731 0.1847 0.0
H23 H 0.25354 0.18741 0.37533 0.0
O24 O 0.02344 0.0433 0.32882 0.0
H25 H 0.2269 0.92116 0.15025 0.0
H26 H 0.07197 0.91307 0.30441 0.0
H27 H 0.09044 0.85846 0.17682 0.0
H28 H 0.16961 0.8593 0.10446 0.0
H29 H 0.20512 0.97985 0.26701 0.0
H30 H 0.22365 0.85546 0.52965 0.0
H31 H 0.18256 0.85025 0.6824 0.0
O32 O 0.05329 0.97787 0.39943 0.0
C33 C 0.09291 0.06897 0.53003 0.0
C34 C 0.13199 0.90378 0.64637 0.0
C35 C 0.19335 0.87749 0.54404 0.0
N36 N 0.13833 0.93722 0.49385 0.0
C37 C 0.11737 0.93635 0.57928 0.0
C38 C 0.17624 0.90843 0.47639 0.0
C39 C 0.17092 0.87517 0.62997 0.0
C40 C 0.17185 0.11945 0.26547 0.0
N41 N 0.13319 0.13051 0.31819 0.0
C42 C 0.21572 0.13967 0.28561 0.0
C43 C 0.21953 0.17261 0.35733 0.0
C44 C 0.17961 0.18473 0.40842 0.0
C45 C 0.13623 0.16437 0.38596 0.0
C46 C 0.01119 0.19586 0.18634 0.0
C47 C -0.00575 0.14042 0.34188 0.0
C48 C 0.04741 0.17186 0.23088 0.0
N49 N 0.03764 0.14161 0.30285 0.0
C50 C 0.95735 0.16606 0.30201 0.0
C51 C 0.96555 0.19161 0.22096 0.0
C52 C 0.01775 0.0025 0.36683 0.0
C53 C 0.19272 0.91931 0.18374 0.0
C54 C 0.10605 0.91537 0.27191 0.0
C55 C 0.11635 0.88379 0.19973 0.0
C56 C 0.16057 0.88472 0.15792 0.0
N57 N 0.13854 0.94808 0.30013 0.0
C58 C 0.18023 0.95215 0.25195 0.0
Co59 Co 0.89314 0.57287 0.53905 0.0
Co60 Co 0.9878 0.62703 0.64126 0.0
O61 O 0.93915 0.6214 0.55187 0.0
C62 C 0.94628 0.56032 0.35796 0.0
O63 O 0.98405 0.54947 0.40619 0.0
C64 C 0.93181 0.71705 0.67176 0.0
O65 O 0.89248 0.69283 0.66466 0.0
O66 O 0.94416 0.61247 0.74577 0.0
O67 O 0.88088 0.57466 0.68264 0.0
H68 H 0.07728 0.60489 0.9402 0.0
H69 H 0.89301 0.65891 0.42272 0.0
O70 O 0.90817 0.57155 0.39979 0.0
H71 H 0.73029 0.64111 0.53784 0.0
H72 H 0.78529 0.49373 0.31916 0.0
H73 H 0.85963 0.4852 0.62918 0.0
H74 H 0.79441 0.5912 0.60183 0.0
H75 H 0.82421 0.56185 0.38705 0.0
O76 O 0.97168 0.69663 0.66025 0.0
H77 H 0.01775 0.5835 0.82208 0.0
H78 H 0.06274 0.69854 0.65505 0.0
H79 H 0.81539 0.41437 0.56419 0.0
H80 H 0.83138 0.71072 0.36275 0.0
H81 H 0.78353 0.41789 0.40713 0.0
H82 H 0.74876 0.70188 0.4194 0.0
O83 O 0.93937 0.51999 0.56368 0.0
H84 H 0.05335 0.73334 0.39036 0.0
H85 H 0.06492 0.57602 0.53287 0.0
H86 H 0.11722 0.59747 0.40395 0.0
H87 H 0.11487 0.67764 0.337 0.0
H88 H -0.00331 0.70904 0.50887 0.0
H89 H 0.11957 0.72288 0.77444 0.0
H90 H 0.12689 0.67625 0.91976 0.0
O91 O 0.00281 0.55424 0.63088 0.0
C92 C 0.90452 0.59158 0.75382 0.0
C93 C 0.07302 0.62665 0.87922 0.0
C94 C 0.09775 0.69201 0.78513 0.0
N95 N 0.03796 0.63837 0.72953 0.0
C96 C 0.04005 0.61398 0.81107 0.0
C97 C 0.06599 0.67729 0.71674 0.0
C98 C 0.10137 0.66628 0.86703 0.0
C99 C 0.85788 0.65607 0.45155 0.0
N100 N 0.84737 0.6222 0.51622 0.0
C101 C 0.82283 0.68543 0.41664 0.0
C102 C 0.77662 0.68024 0.44817 0.0
C103 C 0.76636 0.64647 0.51577 0.0
C104 C 0.80271 0.61841 0.55142 0.0
C105 C 0.80091 0.49094 0.38778 0.0
C106 C 0.84165 0.48646 0.56349 0.0
C107 C 0.82273 0.52977 0.42768 0.0
N108 N 0.84534 0.52629 0.51209 0.0
C109 C 0.81795 0.44713 0.52704 0.0
C110 C 0.79926 0.44904 0.43754 0.0
C111 C 0.97993 0.51677 0.60241 0.0
C112 C 0.05621 0.69887 0.42194 0.0
C113 C 0.06211 0.61084 0.50389 0.0
C114 C 0.0925 0.62279 0.43076 0.0
C115 C 0.09059 0.6676 0.39188 0.0
N116 N 0.02935 0.6423 0.53582 0.0
C117 C 0.0245 0.68485 0.49113 0.0
Co118 Co 0.41107 0.39127 0.77229 0.0
Co119 Co 0.35805 0.48761 0.87044 0.0
O120 O 0.36328 0.43774 0.78453 0.0
C121 C 0.44351 0.41287 0.58062 0.0
O122 O 0.48547 0.41768 0.61826 0.0
C123 C 0.26825 0.43374 0.91667 0.0
O124 O 0.29243 0.39456 0.92528 0.0
O125 O 0.37506 0.44523 0.97636 0.0
O126 O 0.41371 0.38223 0.91473 0.0
H127 H 0.37415 0.5753 0.17245 0.0
H128 H 0.31391 0.39067 0.6892 0.0
O129 O 0.40791 0.40302 0.63215 0.0
H130 H 0.33665 0.23065 0.81322 0.0
H131 H 0.48491 0.27465 0.56222 0.0
H132 H 0.50348 0.36559 0.853 0.0
H133 H 0.39879 0.29095 0.8345 0.0
H134 H 0.41795 0.31485 0.63341 0.0
O135 O 0.28873 0.47192 0.89175 0.0
H136 H 0.39954 0.51834 0.05316 0.0
H137 H 0.28802 0.56457 0.87754 0.0
H138 H 0.57269 0.3205 0.78652 0.0
H139 H 0.24687 0.33588 0.69523 0.0
H140 H 0.56424 0.28132 0.63606 0.0
H141 H 0.25869 0.25447 0.74989 0.0
O142 O 0.46345 0.43979 0.7874 0.0
H143 H 0.25272 0.53831 0.6075 0.0
H144 H 0.40157 0.57136 0.77153 0.0
H145 H 0.37545 0.62384 0.64483 0.0
H146 H 0.29952 0.60905 0.56508 0.0
H147 H 0.28097 0.48503 0.72944 0.0
H148 H 0.26065 0.61932 -0.00212 0.0
H149 H 0.30248 0.62342 0.14946 0.0
O150 O 0.42982 0.50367 0.85456 0.0
C151 C 0.3978 0.40655 0.98497 0.0
C152 C 0.35384 0.57137 0.10972 0.0
C153 C 0.29121 0.5974 0.0104 0.0
N154 N 0.34664 0.5389 0.95644 0.0
C155 C 0.36898 0.54017 0.04041 0.0
C156 C 0.30797 0.56702 0.94135 0.0
C157 C 0.31425 0.59931 0.09565 0.0
C158 C 0.31885 0.35646 0.72089 0.0
N159 N 0.36065 0.3446 0.76258 0.0
C160 C 0.28094 0.32508 0.72086 0.0
C161 C 0.28735 0.27953 0.75382 0.0
C162 C 0.33081 0.26655 0.79074 0.0
C163 C 0.36631 0.3005 0.7998 0.0
C164 C 0.48965 0.29377 0.62698 0.0
C165 C 0.49972 0.34368 0.79227 0.0
C166 C 0.45152 0.31584 0.66917 0.0
N167 N 0.45763 0.34307 0.74742 0.0
C168 C 0.53841 0.31976 0.75424 0.0
C169 C 0.53373 0.29709 0.66875 0.0
C170 C 0.46668 0.48125 0.82289 0.0
C171 C 0.28523 0.54607 0.64357 0.0
C172 C 0.36857 0.56431 0.73737 0.0
C173 C 0.35407 0.59419 0.66525 0.0
C174 C 0.31158 0.58561 0.61974 0.0
N175 N 0.34128 0.5269 0.7637 0.0
C176 C 0.30127 0.51631 0.7142 0.0
Co177 Co 0.59135 0.90926 0.04616 0.0
Co178 Co 0.49278 0.85914 0.14037 0.0
O179 O 0.54238 0.86408 0.05431 0.0
C180 C 0.57298 0.94453 0.85495 0.0
O181 O 0.57034 0.98646 0.8935 0.0
C182 C 0.54471 0.76813 0.16907 0.0
O183 O 0.58456 0.79112 0.17899 0.0
O184 O 0.53585 0.87283 0.24846 0.0
O185 O 0.59979 0.91044 0.18892 0.0
H186 H 0.40656 0.87195 0.44428 0.0
H187 H 0.58833 0.8141 0.95519 0.0
O188 O 0.58064 0.90812 0.90569 0.0
H189 H 0.74356 0.82158 0.1074 0.0
H190 H 0.71387 0.97745 0.8424 0.0
H191 H 0.61972 0.00022 0.12784 0.0
H192 H 0.68918 0.89005 0.1161 0.0
H193 H 0.67051 0.9121 0.91306 0.0
O194 O 0.50625 0.79 0.15519 0.0
H195 H 0.46368 0.89813 0.32615 0.0
H196 H 0.41413 0.79056 0.14391 0.0
H197 H 0.66667 0.06814 0.06101 0.0
H198 H 0.63577 0.74203 0.97115 0.0
H199 H 0.70664 0.05771 0.91167 0.0
H200 H 0.7153 0.7463 0.04196 0.0
O201 O 0.5446 0.96338 0.06183 0.0
H202 H 0.43343 0.75606 0.87962 0.0
H203 H 0.41236 0.90836 0.0394 0.0
H204 H 0.35783 0.8851 0.914 0.0
H205 H 0.36591 0.80726 0.83803 0.0
H206 H 0.49041 0.78241 -0.00362 0.0
H207 H 0.36045 0.76132 0.26384 0.0
H208 H 0.3575 0.80094 0.41818 0.0
O209 O 0.47946 0.93129 0.12881 0.0
C210 C 0.5752 0.89441 0.25863 0.0
C211 C 0.40996 0.85246 0.3805 0.0
C212 C 0.38259 0.79163 0.27786 0.0
N213 N 0.44144 0.84744 0.22612 0.0
C214 C 0.44123 0.86814 0.31179 0.0
C215 C 0.41254 0.80943 0.20907 0.0
C216 C 0.38145 0.81334 0.36459 0.0
C217 C 0.62158 0.81595 -0.00805 0.0
N218 N 0.63527 0.85647 0.03646 0.0
C219 C 0.6488 0.77508 -0.00162 0.0
C220 C 0.69289 0.77714 0.04045 0.0
C221 C 0.70845 0.81944 0.07864 0.0
C222 C 0.67812 0.85833 0.08033 0.0
C223 C 0.69424 0.98303 0.9063 0.0
C224 C 0.64235 -0.0044 0.0685 0.0
C225 C 0.67045 0.94581 0.9483 0.0
N226 N 0.64224 0.95329 0.02467 0.0
C227 C 0.66744 0.03351 0.03023 0.0
C228 C 0.69089 0.02762 0.94584 0.0
C229 C 0.50307 0.96751 0.09745 0.0
C230 C 0.4285 0.78956 0.91453 0.0
C231 C 0.41703 0.87472 0.00614 0.0
C232 C 0.38581 0.8618 0.93494 0.0
C233 C 0.39072 0.81829 0.89119 0.0
N234 N 0.45261 0.84517 0.0325 0.0
C235 C 0.46027 0.80448 0.98281 0.0
Co236 Co 0.07149 0.39391 0.06642 0.0
Co237 Co 0.12617 0.4889 0.96596 0.0
O238 O 0.12027 0.43986 0.05481 0.0
C239 C 0.03365 0.42158 0.2547 0.0
O240 O 0.99224 0.42645 0.21485 0.0
C241 C 0.21681 0.43412 0.93636 0.0
O242 O 0.19326 0.39431 0.94167 0.0
O243 O 0.11227 0.4452 0.86081 0.0
O244 O 0.07386 0.38195 0.92293 0.0
H245 H 0.10579 0.57774 0.66621 0.0
H246 H 0.15567 0.39116 0.18856 0.0
O247 O 0.06972 0.41006 0.20567 0.0
H248 H 0.13729 0.23095 0.06045 0.0
H249 H -0.0069 0.28488 0.28431 0.0
H250 H 0.98273 0.36285 0.97844 0.0
H251 H 0.09056 0.2971 -0.00325 0.0
H252 H 0.0611 0.32321 0.21532 0.0
O253 O 0.19573 0.47348 0.94841 0.0
H254 H 0.084 0.51831 0.78385 0.0
H255 H 0.19745 0.56475 0.95402 0.0
H256 H 0.91177 0.31869 0.04379 0.0
H257 H 0.20406 0.32715 0.25034 0.0
H258 H 0.91655 0.28423 0.19846 0.0
H259 H 0.19522 0.24579 0.18691 0.0
O260 O 0.01924 0.44028 0.0411 0.0
H261 H 0.23149 0.55644 0.21717 0.0
H262 H 0.07314 0.56371 0.07772 0.0
H263 H 0.09294 0.61464 0.20964 0.0
H264 H 0.17376 0.61523 0.27384 0.0
H265 H 0.20876 0.50004 0.09743 0.0
H266 H 0.22225 0.62125 0.83476 0.0
H267 H 0.17671 0.62776 0.68781 0.0
O268 O 0.05342 0.50376 0.97473 0.0
C269 C 0.09123 0.40564 0.8522 0.0
C270 C 0.1272 0.57369 0.72756 0.0
C271 C 0.19165 0.59916 0.82332 0.0
N272 N 0.13793 0.53917 0.87804 0.0
C273 C 0.11428 0.54078 0.79558 0.0
C274 C 0.17658 0.56754 0.8917 0.0
C275 C 0.16654 0.60235 0.74057 0.0
C276 C 0.1528 0.35653 0.15745 0.0
N277 N 0.12038 0.34781 0.08908 0.0
C278 C 0.18016 0.32013 0.19329 0.0
C279 C 0.17501 0.27463 0.15779 0.0
C280 C 0.14307 0.26642 0.08566 0.0
C281 C 0.11678 0.30397 0.04997 0.0
C282 C 0.98997 0.30072 0.21596 0.0
C283 C 0.9844 0.34356 0.04253 0.0
C284 C 0.02886 0.32201 0.17517 0.0
N285 N 0.02484 0.34588 0.09223 0.0
C286 C 0.94506 0.31996 0.07931 0.0
C287 C 0.94762 0.29998 0.16764 0.0
C288 C 0.01603 0.48082 0.00298 0.0
C289 C 0.19674 0.55828 0.18633 0.0
C290 C 0.10809 0.56155 0.10632 0.0
C291 C 0.11916 0.59145 0.1808 0.0
C292 C 0.16431 0.59107 0.21838 0.0
N293 N 0.14065 0.53038 0.07229 0.0
C294 C 0.18355 0.5267 0.11631 0.0
Co295 Co 0.58895 0.57627 0.29347 0.0
Co296 Co 0.49027 0.6264 0.20279 0.0
O297 O 0.5397 0.62101 0.28925 0.0
C298 C 0.57461 0.54115 0.48616 0.0
O299 O 0.57261 0.49917 0.44771 0.0
C300 C 0.54347 0.71641 0.173 0.0
O301 O 0.58154 0.69194 0.15531 0.0
O302 O 0.53264 0.61454 0.09337 0.0
O303 O 0.59416 0.57349 0.15093 0.0
H304 H 0.40255 0.61327 0.90045 0.0
H305 H 0.5946 0.66719 0.39991 0.0
O306 O 0.58128 0.57776 0.43509 0.0
H307 H 0.7113 0.67616 0.14583 0.0
H308 H 0.71532 0.5129 0.48942 0.0
H309 H 0.61466 0.48456 0.2155 0.0
H310 H 0.67427 0.60069 0.18582 0.0
H311 H 0.67214 0.57723 0.4154 0.0
O312 O 0.50448 0.69583 0.19076 0.0
H313 H 0.46077 0.58791 0.01672 0.0
H314 H 0.41226 0.69536 0.19975 0.0
H315 H 0.66288 0.41791 0.28263 0.0
H316 H 0.6332 0.74333 0.3635 0.0
H317 H 0.70636 0.43126 0.42653 0.0
H318 H 0.69322 0.74778 0.23909 0.0
O319 O 0.54237 0.52198 0.28301 0.0
H320 H 0.42612 0.72752 0.46262 0.0
H321 H 0.41317 0.57323 0.30716 0.0
H322 H 0.35884 0.59342 0.43456 0.0
H323 H 0.36215 0.67239 0.50727 0.0
H324 H 0.48396 0.70412 0.34566 0.0
H325 H 0.35775 0.72429 0.08108 0.0
H326 H 0.35349 0.68412 0.92728 0.0
O327 O 0.478 0.55343 0.21166 0.0
C328 C 0.57071 0.5914 0.08217 0.0
C329 C 0.40647 0.63306 0.96372 0.0
C330 C 0.37977 0.694 0.06666 0.0
N331 N 0.43899 0.63852 0.11721 0.0
C332 C 0.43839 0.61783 0.0315 0.0
C333 C 0.41026 0.67647 0.13473 0.0
C334 C 0.37792 0.67201 0.9802 0.0
C335 C 0.62222 0.66837 0.34782 0.0
N336 N 0.63219 0.62941 0.29511 0.0
C337 C 0.64403 0.71155 0.32812 0.0
C338 C 0.67711 0.71431 0.25651 0.0
C339 C 0.68783 0.67411 0.2051 0.0
C340 C 0.66619 0.63143 0.2275 0.0
C341 C 0.69505 0.50622 0.42671 0.0
C342 C 0.63943 0.49044 0.27083 0.0
C343 C 0.67111 0.54279 0.38307 0.0
N344 N 0.64088 0.53364 0.31069 0.0
C345 C 0.66516 0.45327 0.30967 0.0
C346 C 0.69076 0.46086 0.39089 0.0
C347 C 0.50156 0.51737 0.24459 0.0
C348 C 0.42301 0.69358 0.42857 0.0
C349 C 0.41624 0.60729 0.33946 0.0
C350 C 0.38493 0.61852 0.41163 0.0
C351 C 0.38728 0.66261 0.4538 0.0
N352 N 0.4498 0.63888 0.31125 0.0
C353 C 0.45531 0.68022 0.36005 0.0
Co354 Co 0.41132 0.09242 0.56927 0.0
Co355 Co 0.35967 -0.00579 0.47494 0.0
O356 O 0.36437 0.04477 0.55992 0.0
C357 C 0.44527 0.07202 0.76055 0.0
O358 O 0.4872 0.06828 0.72233 0.0
C359 C 0.26791 0.04474 0.44518 0.0
O360 O 0.28999 0.08525 0.4379 0.0
O361 O 0.37374 0.0373 0.36683 0.0
O362 O 0.41299 0.10053 0.42632 0.0
H363 H 0.37233 0.90815 0.17112 0.0
H364 H 0.31334 0.09349 0.65163 0.0
O365 O 0.40924 0.08137 0.70973 0.0
H366 H 0.33608 0.25157 0.51741 0.0
H367 H 0.48298 0.21216 0.7755 0.0
H368 H 0.50314 0.11929 0.48766 0.0
H369 H 0.3987 0.19156 0.50266 0.0
H370 H 0.41691 0.16977 0.70586 0.0
O371 O 0.29057 0.00687 0.45897 0.0
H372 H 0.39877 0.96494 0.28961 0.0
H373 H 0.29153 0.91491 0.47231 0.0
H374 H 0.57167 0.1664 0.55275 0.0
H375 H 0.24572 0.14794 0.63903 0.0
H376 H 0.56248 0.20632 0.70229 0.0
H377 H 0.25762 0.22827 0.57692 0.0
O378 O 0.46422 0.04449 0.55471 0.0
H379 H 0.25594 0.93743 0.73648 0.0
H380 H 0.40748 0.91283 0.57557 0.0
H381 H 0.38318 0.85891 0.70153 0.0
H382 H 0.30568 0.8688 0.77792 0.0
H383 H 0.2835 -0.00619 0.6195 0.0
H384 H 0.26233 0.86126 0.35223 0.0
H385 H 0.30156 0.85882 0.19751 0.0
O386 O 0.43154 0.98019 0.48696 0.0
C387 C 0.39605 0.07633 0.35671 0.0
C388 C 0.35302 0.91133 0.23515 0.0
C389 C 0.29249 0.88359 0.33812 0.0
N390 N 0.34822 0.94254 0.38981 0.0
C391 C 0.36884 0.94242 0.30405 0.0
C392 C 0.31033 0.91348 0.407 0.0
C393 C 0.31401 0.88269 0.25118 0.0
C394 C 0.31837 0.1274 0.61867 0.0
N395 N 0.36045 0.13881 0.57748 0.0
C396 C 0.28014 0.15848 0.61448 0.0
C397 C 0.28651 0.20337 0.57775 0.0
C398 C 0.3303 0.21606 0.5423 0.0
C399 C 0.36609 0.18232 0.53733 0.0
C400 C 0.48809 0.1927 0.71128 0.0
C401 C 0.49911 0.14167 0.54755 0.0
C402 C 0.45046 0.16934 0.66995 0.0
N403 N 0.4571 0.14165 0.59247 0.0
C404 C 0.53733 0.1668 0.58477 0.0
C405 C 0.53222 0.19 0.66962 0.0
C406 C 0.46793 0.00309 0.51893 0.0
C407 C 0.28931 0.93178 0.70152 0.0
C408 C 0.37408 0.91832 0.60937 0.0
C409 C 0.36055 0.88744 0.68073 0.0
C410 C 0.31722 0.89336 0.72473 0.0
N411 N 0.34531 0.95457 0.58325 0.0
C412 C 0.30488 0.96317 0.63313 0.0
Co413 Co 0.88881 0.91632 0.84118 0.0
Co414 Co 0.98273 0.85894 0.74224 0.0
O415 O 0.9313 0.8645 0.82633 0.0
C416 C 0.93815 0.91167 0.0231 0.0
O417 O 0.97711 0.91649 0.97471 0.0
C418 C 0.93007 0.76849 0.69237 0.0
O419 O 0.89067 0.79207 0.68102 0.0
O420 O 0.94086 0.87636 0.63631 0.0
O421 O 0.88196 0.92147 0.69794 0.0
H422 H 0.07205 0.87494 0.44199 0.0
H423 H 0.87461 0.81883 0.92174 0.0
O424 O 0.89851 0.90972 0.98116 0.0
H425 H 0.72147 0.86734 0.79069 0.0
H426 H 0.77632 -0.00357 0.05221 0.0
H427 H 0.86743 0.01039 0.76058 0.0
H428 H 0.7919 0.91655 0.76715 0.0
H429 H 0.81617 0.92855 0.98525 0.0
O430 O 0.96729 0.78952 0.72074 0.0
H431 H 0.01482 0.90059 0.56085 0.0
H432 H 0.05957 0.78835 0.73629 0.0
H433 H 0.82171 0.08063 0.82248 0.0
H434 H 0.80663 0.76366 0.92643 0.0
H435 H 0.7814 0.07434 0.97209 0.0
H436 H 0.72927 0.78939 0.86597 0.0
O437 O 0.94002 0.9658 0.83284 0.0
H438 H 0.02826 0.7542 0.00886 0.0
H439 H 0.06881 0.8992 0.83785 0.0
H440 H 0.12007 0.87179 0.96643 0.0
H441 H 0.10142 0.79773 0.04921 0.0
H442 H 0.97636 0.78397 0.88583 0.0
H443 H 0.11488 0.76113 0.61634 0.0
H444 H 0.11927 0.80276 0.46489 0.0
O445 O 0.00021 0.93069 0.75718 0.0
C446 C 0.90439 0.90254 0.62778 0.0
C447 C 0.06748 0.8544 0.50434 0.0
C448 C 0.09287 0.79157 0.60369 0.0
N449 N 0.03445 0.8472 0.65725 0.0
C450 C 0.03629 0.86977 0.57355 0.0
C451 C 0.06229 0.80834 0.67249 0.0
C452 C 0.09503 0.81457 0.51844 0.0
C453 C 0.8416 0.82888 0.88964 0.0
N454 N 0.83725 0.87121 0.84479 0.0
C455 C 0.80317 0.79799 0.89477 0.0
C456 C 0.75966 0.81207 0.85966 0.0
C457 C 0.75534 0.85562 0.81632 0.0
C458 C 0.79525 0.88365 0.80476 0.0
C459 C 0.79597 0.00047 0.98797 0.0
C460 C 0.84582 0.00781 0.82203 0.0
C461 C 0.81846 0.96187 0.94885 0.0
N462 N 0.84492 0.9664 0.86922 0.0
C463 C 0.82141 0.04697 0.85714 0.0
C464 C 0.79833 0.04361 0.94247 0.0
C465 C 0.98006 0.96812 0.79194 0.0
C466 C 0.03762 0.78594 0.97164 0.0
C467 C 0.06018 0.86712 0.87403 0.0
C468 C 0.08929 0.8519 0.94684 0.0
C469 C 0.07851 0.81045 -0.00576 0.0
N470 N 0.02122 0.84169 0.84951 0.0
C471 C 0.00865 0.80278 0.90049 0.0
Co472 Co 0.57129 0.59426 0.77091 0.0
Co473 Co 0.62452 0.49834 0.86984 0.0
O474 O 0.61967 0.54853 0.78476 0.0
C475 C 0.5715 0.54432 0.58887 0.0
O476 O 0.56491 0.50556 0.63708 0.0
C477 C 0.71475 0.5513 0.91661 0.0
O478 O 0.69079 0.59056 0.92645 0.0
O479 O 0.60786 0.5407 0.97589 0.0
O480 O 0.56756 0.6027 0.91385 0.0
H481 H 0.60841 0.40939 0.17031 0.0
H482 H 0.66942 0.59621 0.69225 0.0
O483 O 0.57575 0.58369 0.63097 0.0
H484 H 0.64171 0.75677 0.80937 0.0
H485 H 0.49585 0.70931 0.55898 0.0
H486 H 0.47921 0.62075 0.85322 0.0
H487 H 0.58087 0.69521 0.83092 0.0
H488 H 0.56287 0.66822 0.62771 0.0
O489 O 0.69402 0.51344 0.8906 0.0
H490 H 0.58315 0.46715 0.05235 0.0
H491 H 0.6943 0.42115 0.87542 0.0
H492 H 0.40997 0.66636 0.78838 0.0
H493 H 0.73496 0.65279 0.69742 0.0
H494 H 0.41731 0.70457 0.6366 0.0
H495 H 0.72073 0.73423 0.74933 0.0
O496 O 0.51893 0.54556 0.78338 0.0
H497 H 0.7281 0.44859 0.60344 0.0
H498 H 0.58068 0.41458 0.77185 0.0
H499 H 0.60589 0.36257 0.64353 0.0
H500 H 0.68119 0.37785 0.5616 0.0
H501 H 0.70071 0.5013 0.72728 0.0
H502 H 0.72168 0.36595 -0.00512 0.0
H503 H 0.68009 0.36148 0.14663 0.0
O504 O 0.55247 0.4828 0.85497 0.0
C505 C 0.58413 0.57883 0.9843 0.0
C506 C 0.62878 0.41373 0.10782 0.0
C507 C 0.69124 0.38794 0.00789 0.0
N508 N 0.63585 0.44677 0.95511 0.0
C509 C 0.61363 0.44528 0.03916 0.0
C510 C 0.67443 0.41858 0.93935 0.0
C511 C 0.66834 0.38583 0.09325 0.0
C512 C 0.66342 0.63051 0.72279 0.0
N513 N 0.621 0.64173 0.76283 0.0
C514 C 0.70049 0.66286 0.72232 0.0
C515 C 0.69269 0.70851 0.75347 0.0
C516 C 0.64862 0.72081 0.78842 0.0
C517 C 0.61389 0.68608 0.79778 0.0
C518 C 0.49141 0.69031 0.62392 0.0
C519 C 0.48252 0.64176 0.7911 0.0
C520 C 0.5295 0.66738 0.66426 0.0
N521 N 0.52407 0.64136 0.74425 0.0
C522 C 0.44379 0.66609 0.75422 0.0
C523 C 0.44784 0.68818 0.66799 0.0
C524 C 0.51558 0.50482 0.82217 0.0
C525 C 0.69591 0.4406 0.64047 0.0
C526 C 0.61348 0.42167 0.73694 0.0
C527 C 0.6274 0.39215 0.66379 0.0
C528 C 0.66948 0.40106 0.61695 0.0
N529 N 0.6408 0.45914 0.76269 0.0
C530 C 0.68039 0.47002 0.71215 0.0
Co531 Co 0.39285 0.0751 0.04535 0.0
Co532 Co 0.49096 0.12539 0.14019 0.0
O533 O 0.44119 0.12074 0.05493 0.0
C534 C 0.44191 0.06975 0.86313 0.0
O535 O 0.48037 0.06182 0.91139 0.0
C536 C 0.43882 0.21623 0.16881 0.0
O537 O 0.39922 0.19292 0.17965 0.0
O538 O 0.44798 0.11178 0.24826 0.0
O539 O 0.38461 0.07314 0.18843 0.0
H540 H 0.5789 0.11223 0.44211 0.0
H541 H 0.39506 0.17109 0.95759 0.0
O542 O 0.40296 0.07714 0.90516 0.0
H543 H 0.23885 0.15977 0.10494 0.0
H544 H 0.27307 0.0052 0.83749 0.0
H545 H 0.3632 0.98467 0.12874 0.0
H546 H 0.29425 0.09218 0.11304 0.0
H547 H 0.31633 0.07085 0.90738 0.0
O548 O 0.47743 0.19461 0.15461 0.0
H549 H 0.52088 0.08627 0.32533 0.0
H550 H 0.56909 0.19436 0.14301 0.0
H551 H 0.31631 0.91652 0.06245 0.0
H552 H 0.34634 0.24222 0.97416 0.0
H553 H 0.27828 0.92569 0.9107 0.0
H554 H 0.26648 0.23619 0.04334 0.0
O555 O 0.43951 0.02085 0.05961 0.0
H556 H 0.54996 0.22747 0.87755 0.0
H557 H 0.5715 0.07608 0.04027 0.0
H558 H 0.62589 0.09872 0.91422 0.0
H559 H 0.61749 0.17616 0.83654 0.0
H560 H 0.49313 0.2016 -0.00479 0.0
H561 H 0.62314 0.22373 0.26208 0.0
H562 H 0.62722 0.18372 0.41591 0.0
O563 O 0.50404 0.053 0.12911 0.0
C564 C 0.40897 0.08954 0.25826 0.0
C565 C 0.57486 0.13198 0.37883 0.0
C566 C 0.60128 0.19324 0.27629 0.0
N567 N 0.54247 0.13719 0.22534 0.0
C568 C 0.54319 0.11634 0.31078 0.0
C569 C 0.5711 0.17537 0.20799 0.0
C570 C 0.60302 0.17133 0.36275 0.0
C571 C 0.36164 0.16844 -0.00645 0.0
N572 N 0.34832 0.12737 0.03656 0.0
C573 C 0.33371 0.2088 0.00042 0.0
C574 C 0.28938 0.2057 0.04134 0.0
C575 C 0.27418 0.1628 0.07746 0.0
C576 C 0.30511 0.1244 0.07877 0.0
C577 C 0.29212 1e-05 0.90218 0.0
C578 C 0.3417 0.98876 0.06758 0.0
C579 C 0.31611 0.03733 0.9433 0.0
N580 N 0.34286 0.03054 0.02187 0.0
C581 C 0.31658 0.95072 0.02982 0.0
C582 C 0.29424 0.95591 0.94406 0.0
C583 C 0.48063 0.0167 0.09723 0.0
C584 C 0.55493 0.19413 0.91299 0.0
C585 C 0.56682 0.10957 0.00647 0.0
C586 C 0.59788 0.12212 0.93475 0.0
C587 C 0.59276 0.16535 0.89003 0.0
N588 N 0.53108 0.1391 0.03216 0.0
C589 C 0.52329 0.17952 0.98176 0.0
Co590 Co 0.90643 0.89597 0.31886 0.0
Co591 Co 0.85841 -0.0042 0.40826 0.0
O592 O 0.86317 0.94634 0.32205 0.0
C593 C 0.94147 0.90857 0.12575 0.0
O594 O 0.98357 0.90964 0.16386 0.0
C595 C 0.7689 0.94229 0.43955 0.0
O596 O 0.79414 0.90502 0.45914 0.0
O597 O 0.86982 0.95397 0.51797 0.0
O598 O 0.90923 0.89122 0.46142 0.0
H599 H 0.87313 0.08533 0.70849 0.0
H600 H 0.81562 0.89258 0.21269 0.0
O601 O 0.90485 0.90308 0.17721 0.0
H602 H 0.80284 0.77619 0.46677 0.0
H603 H 0.96704 0.7685 0.12363 0.0
H604 H -0.0026 0.86907 0.39657 0.0
H605 H 0.87957 0.8113 0.42738 0.0
H606 H 0.90343 0.81204 0.19885 0.0
O607 O 0.78875 0.98158 0.42018 0.0
H608 H 0.89736 0.02574 0.59392 0.0
H609 H 0.78948 0.07369 0.41147 0.0
H610 H 0.06354 0.82064 0.32827 0.0
H611 H 0.73841 0.85687 0.24934 0.0
H612 H 0.04914 0.77692 0.18492 0.0
H613 H 0.73187 0.79691 0.37413 0.0
O614 O 0.96181 0.94138 0.32861 0.0
H615 H 0.7582 0.06377 0.15044 0.0
H616 H 0.9133 0.07135 0.30393 0.0
H617 H 0.89482 0.12614 0.17675 0.0
H618 H 0.81557 0.12557 0.10476 0.0
H619 H 0.77999 0.00486 0.26671 0.0
H620 H 0.76106 0.12883 0.52928 0.0
H621 H 0.80201 0.13409 0.68214 0.0
O622 O 0.93185 0.00674 0.39937 0.0
C623 C 0.89222 0.91561 0.52978 0.0
C624 C 0.85274 0.0807 0.64614 0.0
C625 C 0.79139 0.10687 0.54372 0.0
N626 N 0.84661 0.04729 0.49356 0.0
C627 C 0.86747 0.04816 0.57908 0.0
C628 C 0.80865 0.07601 0.47605 0.0
C629 C 0.81375 0.10921 0.62971 0.0
C630 C 0.81359 0.86508 0.26491 0.0
N631 N 0.85219 0.85405 0.31779 0.0
C632 C 0.76973 0.84482 0.28481 0.0
C633 C 0.76588 0.81179 0.35636 0.0
C634 C 0.80575 0.79967 0.4076 0.0
C635 C 0.84912 0.82014 0.38545 0.0
C636 C 0.97422 0.78869 0.18619 0.0
C637 C 0.99116 0.84423 0.34159 0.0
C638 C 0.93801 0.81279 0.23059 0.0
N639 N 0.94777 0.84305 0.30255 0.0
C640 C 0.02802 0.81843 0.30193 0.0
C641 C 0.01983 0.79277 0.221 0.0
C642 C 0.96743 0.98216 0.36674 0.0
C643 C 0.79242 0.06551 0.1838 0.0
C644 C 0.87918 0.06915 0.2716 0.0
C645 C 0.86888 0.10084 0.19964 0.0
C646 C 0.82461 0.10007 0.15803 0.0
N647 N 0.84664 0.03649 0.29983 0.0
C648 C 0.80492 0.03254 0.25174 0.0
Co649 Co 0.08988 0.41151 0.53873 0.0
Co650 Co -0.00473 0.35724 0.64089 0.0
O651 O 0.04381 0.36306 0.55138 0.0
C652 C 0.03672 0.42387 0.35784 0.0
O653 O -0.00108 0.43437 0.40629 0.0
C654 C 0.05184 0.26762 0.67097 0.0
O655 O 0.09095 0.29215 0.66354 0.0
O656 O 0.0388 0.37194 0.74536 0.0
O657 O 0.10214 0.40966 0.68232 0.0
H658 H 0.90532 0.37929 0.9395 0.0
H659 H 0.08946 0.32525 0.42305 0.0
O660 O 0.07497 0.41297 0.39948 0.0
H661 H 0.25268 0.34298 0.53513 0.0
H662 H 0.19961 0.48987 0.32069 0.0
H663 H 0.12227 0.49971 0.62776 0.0
H664 H 0.18889 0.3931 0.60012 0.0
H665 H 0.15949 0.42219 0.38769 0.0
O666 O 0.01177 0.2877 0.65981 0.0
H667 H 0.96505 0.40072 0.82172 0.0
H668 H 0.92074 0.28539 0.65483 0.0
H669 H 0.16672 0.5704 0.56295 0.0
H670 H 0.15065 0.27292 0.36305 0.0
H671 H 0.20031 0.56612 0.40729 0.0
H672 H 0.23356 0.28189 0.41795 0.0
O673 O 0.04359 0.46435 0.56359 0.0
H674 H 0.92982 0.25067 0.39026 0.0
H675 H 0.91805 0.40805 0.53249 0.0
H676 H 0.86573 0.38642 0.40374 0.0
H677 H 0.86821 0.30624 0.33689 0.0
H678 H 0.98647 0.27511 0.50865 0.0
H679 H 0.86374 0.26098 0.77388 0.0
H680 H 0.85593 0.30779 0.91891 0.0
O681 O 0.98009 0.43 0.63056 0.0
C682 C 0.07843 0.3928 0.75347 0.0
C683 C 0.90977 0.35748 0.87862 0.0
C684 C 0.88543 0.29194 0.7846 0.0
N685 N 0.94515 0.34572 0.72921 0.0
C686 C 0.94286 0.37016 0.81067 0.0
C687 C 0.91729 0.30669 0.7164 0.0
C688 C 0.88154 0.31776 0.86635 0.0
C689 C 0.12469 0.32804 0.45143 0.0
N690 N 0.13552 0.36205 0.51563 0.0
C691 C 0.15949 0.29841 0.41641 0.0
C692 C 0.20586 0.30365 0.44697 0.0
C693 C 0.21647 0.33762 0.51394 0.0
C694 C 0.18033 0.3658 0.55008 0.0
C695 C 0.18334 0.49293 0.3887 0.0
C696 C 0.1409 0.49815 0.56278 0.0
C697 C 0.16091 0.45433 0.42819 0.0
N698 N 0.13774 0.45808 0.51199 0.0
C699 C 0.16476 0.5374 0.52641 0.0
C700 C 0.1844 0.53507 0.43773 0.0
C701 C 0.00299 0.46751 0.6023 0.0
C702 C 0.92692 0.28515 0.42179 0.0
C703 C 0.92089 0.37322 0.50359 0.0
C704 C 0.8905 0.36117 0.43056 0.0
C705 C 0.89248 0.31634 0.39173 0.0
N706 N 0.95373 0.34183 0.53551 0.0
C707 C 0.95863 0.29926 0.49089 0.0
Co708 Co 0.57421 0.89175 0.57018 0.0
Co709 Co 0.62527 0.98958 0.47406 0.0
O710 O 0.62126 0.93903 0.55871 0.0
C711 C 0.57085 0.94123 0.75231 0.0
O712 O 0.56343 0.97977 0.70403 0.0
C713 C 0.71725 0.9396 0.44411 0.0
O714 O 0.69528 0.89905 0.43653 0.0
O715 O 0.61131 0.94633 0.36635 0.0
O716 O 0.5714 0.88371 0.42702 0.0
H717 H 0.61155 0.07632 0.17117 0.0
H718 H 0.6726 0.89063 0.64976 0.0
O719 O 0.57755 0.90212 0.71028 0.0
H720 H 0.64868 0.73225 0.51793 0.0
H721 H 0.50192 0.77395 0.7804 0.0
H722 H 0.48293 0.86336 0.48783 0.0
H723 H 0.58578 0.79218 0.50524 0.0
H724 H 0.56807 0.81653 0.71098 0.0
O725 O 0.69447 0.9774 0.45801 0.0
H726 H 0.58559 0.019 0.28927 0.0
H727 H 0.69313 0.06893 0.47131 0.0
H728 H 0.41436 0.81665 0.55351 0.0
H729 H 0.73997 0.83602 0.63652 0.0
H730 H 0.42284 0.77861 0.7053 0.0
H731 H 0.72765 0.75571 0.57441 0.0
O732 O 0.52081 0.93935 0.55761 0.0
H733 H 0.7276 0.04523 0.73852 0.0
H734 H 0.57758 0.07133 0.5731 0.0
H735 H 0.60107 0.12462 0.70095 0.0
H736 H 0.67788 0.11394 0.77964 0.0
H737 H 0.70075 0.98959 0.61945 0.0
H738 H 0.72205 0.12278 0.35132 0.0
H739 H 0.6824 0.12552 0.19704 0.0
O740 O 0.55314 0.00292 0.48611 0.0
C741 C 0.58844 0.90756 0.35693 0.0
C742 C 0.63109 0.07289 0.23482 0.0
C743 C 0.69186 0.10046 0.33733 0.0
N744 N 0.63632 0.04135 0.38907 0.0
C745 C 0.61548 0.04159 0.30357 0.0
C746 C 0.6742 0.07044 0.40614 0.0
C747 C 0.67013 0.10152 0.25063 0.0
C748 C 0.6673 0.85668 0.61713 0.0
N749 N 0.62493 0.84524 0.57717 0.0
C750 C 0.70544 0.82555 0.61232 0.0
C751 C 0.6988 0.78066 0.57577 0.0
C752 C 0.65467 0.76785 0.5421 0.0
C753 C 0.61878 0.80153 0.53827 0.0
C754 C 0.49702 0.79296 0.7156 0.0
C755 C 0.48666 0.8421 0.54942 0.0
C756 C 0.53458 0.81672 0.67487 0.0
N757 N 0.52831 0.84314 0.59563 0.0
C758 C 0.44841 0.81708 0.58675 0.0
C759 C 0.45316 0.79487 0.67273 0.0
C760 C 0.51683 0.98016 0.51909 0.0
C761 C 0.69456 0.05123 0.70261 0.0
C762 C 0.61072 0.0657 0.60776 0.0
C763 C 0.62377 0.09612 0.68022 0.0
C764 C 0.66666 0.0897 0.72563 0.0
N765 N 0.63942 0.02929 0.58223 0.0
C766 C 0.67945 0.0203 0.63305 0.0
Co767 Co 0.09625 0.06828 0.84132 0.0
Co768 Co 0.00215 0.12543 0.74234 0.0
O769 O 0.05357 0.12 0.82648 0.0
C770 C 0.04705 0.07289 0.0234 0.0
O771 O 0.00806 0.06803 0.97514 0.0
C772 C 0.0541 0.2162 0.69152 0.0
O773 O 0.09358 0.19289 0.67908 0.0
O774 O 0.04413 0.10814 0.63646 0.0
O775 O 0.10311 0.06317 0.69813 0.0
H776 H 0.91334 0.1092 0.4417 0.0
H777 H 0.10977 0.16618 0.92043 0.0
O778 O 0.08665 0.07485 0.98131 0.0
H779 H 0.26363 0.11786 0.79259 0.0
H780 H 0.20936 0.98837 0.05148 0.0
H781 H 0.11738 0.97414 0.76101 0.0
H782 H 0.1936 0.06815 0.76886 0.0
H783 H 0.16923 0.05619 0.98487 0.0
O784 O 0.01723 0.19492 0.72089 0.0
H785 H 0.97039 0.08367 0.56091 0.0
H786 H 0.92491 0.19565 0.73636 0.0
H787 H 0.16292 0.90387 0.82295 0.0
H788 H 0.17722 0.22196 0.92403 0.0
H789 H 0.20367 0.91031 0.97207 0.0
H790 H 0.25489 0.1965 0.86456 0.0
O791 O 0.04511 0.01868 0.83298 0.0
H792 H 0.95675 0.22998 0.00927 0.0
H793 H 0.91598 0.08516 0.83772 0.0
H794 H 0.86471 0.11262 0.9664 0.0
H795 H 0.88347 0.18659 0.04938 0.0
H796 H 0.0086 0.2002 0.88613 0.0
H797 H 0.8696 0.22262 0.61617 0.0
H798 H 0.86575 0.18115 0.46453 0.0
O799 O 0.98489 0.05366 0.75726 0.0
C800 C 0.08068 0.08206 0.62798 0.0
C801 C 0.9177 0.12972 0.50415 0.0
C802 C 0.89184 0.19235 0.60354 0.0
N803 N 0.95042 0.13697 0.6573 0.0
C804 C 0.94879 0.11441 0.57354 0.0
C805 C 0.92238 0.1757 0.67248 0.0
C806 C 0.88995 0.16941 0.51818 0.0
C807 C 0.14291 0.15617 0.88879 0.0
N808 N 0.14766 0.1136 0.84495 0.0
C809 C 0.18105 0.18743 0.89333 0.0
C810 C 0.22475 0.17346 0.85895 0.0
C811 C 0.22957 0.12954 0.81732 0.0
C812 C 0.18989 0.1012 0.80579 0.0
C813 C 0.18952 0.98429 0.98748 0.0
C814 C 0.13913 0.97678 0.82223 0.0
C815 C 0.1669 0.02285 0.94854 0.0
N816 N 0.14023 0.01826 0.86919 0.0
C817 C 0.16348 0.9376 0.85737 0.0
C818 C 0.18682 0.94105 0.94238 0.0
C819 C 0.00511 0.01627 0.79195 0.0
C820 C 0.94732 0.19829 0.97192 0.0
C821 C 0.92464 0.1172 0.87404 0.0
C822 C 0.89553 0.13245 0.94688 0.0
C823 C 0.90637 0.17386 -0.0056 0.0
N824 N 0.96363 0.1426 0.84961 0.0
C825 C 0.97626 0.18145 0.90072 0.0
Co826 Co 0.91119 0.59031 0.06676 0.0
Co827 Co 0.85661 0.49537 0.96583 0.0
O828 O 0.86251 0.54426 0.05498 0.0
C829 C 0.94922 0.56259 0.2548 0.0
O830 O 0.9906 0.55777 0.21475 0.0
C831 C 0.7662 0.55051 0.93634 0.0
O832 O 0.78995 0.59016 0.94225 0.0
O833 O 0.87067 0.53914 0.86093 0.0
O834 O 0.90879 0.60247 0.92333 0.0
H835 H 0.87742 0.40667 0.66595 0.0
H836 H 0.82684 0.59228 0.18843 0.0
O837 O 0.91308 0.57404 0.20594 0.0
H838 H 0.84482 0.75311 0.06332 0.0
H839 H 0.98944 0.6993 0.28501 0.0
H840 H -0.00018 0.62168 0.97869 0.0
H841 H 0.89191 0.68742 -0.00139 0.0
H842 H 0.92144 0.66098 0.21588 0.0
O843 O 0.78706 0.51099 0.94809 0.0
H844 H 0.89906 0.46602 0.78388 0.0
H845 H 0.78516 0.41977 0.95307 0.0
H846 H 0.07081 0.66559 0.04439 0.0
H847 H 0.77783 0.65575 0.25058 0.0
H848 H 0.06606 0.69969 0.1994 0.0
H849 H 0.78654 0.73743 0.18871 0.0
O850 O 0.96352 0.54405 0.04103 0.0
H851 H 0.75096 0.42729 0.21607 0.0
H852 H 0.90955 0.42054 0.07753 0.0
H853 H 0.8897 0.36953 0.20929 0.0
H854 H 0.80879 0.36868 0.27305 0.0
H855 H 0.77371 0.48383 0.0966 0.0
H856 H 0.76065 0.36315 0.83381 0.0
H857 H 0.80662 0.35643 0.68739 0.0
O858 O 0.92935 0.48049 0.97479 0.0
C859 C 0.8916 0.57876 0.85249 0.0
C860 C 0.85598 0.41062 0.72731 0.0
C861 C 0.79132 0.3852 0.8226 0.0
N862 N 0.84491 0.44521 0.87764 0.0
C863 C 0.86876 0.44355 0.79541 0.0
C864 C 0.8062 0.41689 0.891 0.0
C865 C 0.81666 0.3819 0.74014 0.0
C866 C 0.8296 0.62704 0.15784 0.0
N867 N 0.86214 0.6362 0.08989 0.0
C868 C 0.80188 0.66313 0.19392 0.0
C869 C 0.80695 0.70881 0.15929 0.0
C870 C 0.83908 0.71749 0.08769 0.0
C871 C 0.86561 0.68021 0.05153 0.0
C872 C -0.00744 0.68349 0.21661 0.0
C873 C -0.00185 0.64084 0.04295 0.0
C874 C 0.95368 0.66223 0.17572 0.0
N875 N 0.95773 0.63843 0.09269 0.0
C876 C 0.03751 0.66432 0.07992 0.0
C877 C 0.03495 0.68415 0.16838 0.0
C878 C 0.96674 0.50349 0.00296 0.0
C879 C 0.78576 0.42557 0.18543 0.0
C880 C 0.87457 0.42263 0.106 0.0
C881 C 0.86345 0.39265 0.18035 0.0
C882 C 0.81825 0.39288 0.21766 0.0
N883 N 0.84198 0.45375 0.07188 0.0
C884 C 0.79898 0.45725 0.1156 0.0
Co885 Co 0.3934 0.40813 0.2943 0.0
Co886 Co 0.49176 0.35855 0.2019 0.0
O887 O 0.44216 0.36303 0.28769 0.0
C888 C 0.43998 0.41408 0.47798 0.0
O889 O 0.47853 0.42208 0.42998 0.0
C890 C 0.43955 0.26797 0.17243 0.0
O891 O 0.40109 0.29204 0.15578 0.0
O892 O 0.44913 0.37028 0.09306 0.0
O893 O 0.38795 0.41174 0.15172 0.0
H894 H 0.57971 0.37261 0.90006 0.0
H895 H 0.38713 0.31676 0.39938 0.0
O896 O 0.40124 0.40571 0.43541 0.0
H897 H 0.27081 0.30969 0.14444 0.0
H898 H 0.27024 0.4729 0.49701 0.0
H899 H 0.36604 0.49935 0.21531 0.0
H900 H 0.30795 0.38484 0.18663 0.0
H901 H 0.31296 0.40816 0.42258 0.0
O902 O 0.47836 0.28898 0.18951 0.0
H903 H 0.52122 0.39764 0.01635 0.0
H904 H 0.57012 0.29016 0.19886 0.0
H905 H 0.31868 0.56633 0.28366 0.0
H906 H 0.34779 0.24108 0.36183 0.0
H907 H 0.27748 0.55396 0.43075 0.0
H908 H 0.28817 0.23757 0.23669 0.0
O909 O 0.43942 0.46294 0.28458 0.0
H910 H 0.55479 0.25845 0.46397 0.0
H911 H 0.56954 0.41143 0.3041 0.0
H912 H 0.62369 0.39159 0.43213 0.0
H913 H 0.61933 0.31323 0.50735 0.0
H914 H 0.49732 0.2817 0.34603 0.0
H915 H 0.62447 0.2613 0.07978 0.0
H916 H 0.62858 0.30161 0.92612 0.0
O917 O 0.50339 0.43175 0.21116 0.0
C918 C 0.41114 0.39372 0.08259 0.0
C919 C 0.57568 0.35266 0.96305 0.0
C920 C 0.60242 0.29159 0.06555 0.0
N921 N 0.54319 0.34698 0.11647 0.0
C922 C 0.54372 0.36778 0.03091 0.0
C923 C 0.57203 0.30909 0.13383 0.0
C924 C 0.60418 0.31364 0.97917 0.0
C925 C 0.35951 0.31601 0.34727 0.0
N926 N 0.34983 0.35529 0.29527 0.0
C927 C 0.33736 0.27309 0.32681 0.0
C928 C 0.30447 0.27085 0.25481 0.0
C929 C 0.29414 0.31135 0.20401 0.0
C930 C 0.31587 0.35381 0.22759 0.0
C931 C 0.28979 0.4792 0.43325 0.0
C932 C 0.3426 0.49391 0.27308 0.0
C933 C 0.31355 0.44248 0.3897 0.0
N934 N 0.34214 0.45106 0.31452 0.0
C935 C 0.31727 0.53126 0.31232 0.0
C936 C 0.29303 0.52422 0.39542 0.0
C937 C 0.47984 0.46778 0.2445 0.0
C938 C 0.5583 0.29214 0.42906 0.0
C939 C 0.56628 0.3776 0.33725 0.0
C940 C 0.59734 0.3666 0.40991 0.0
C941 C 0.59437 0.32289 0.45349 0.0
N942 N 0.53227 0.34627 0.31016 0.0
C943 C 0.52626 0.30533 0.35998 0.0
loop_
_geom_bond_atom_site_label_1
_geom_bond_atom_site_label_2
_geom_bond_distance
_geom_bond_site_symmetry_2
_ccdc_geom_bond_type
Co0 O2 2.143 . S
Co0 O8 2.074 . S
Co0 O11 2.093 . S
Co0 O24 2.097 . S
Co0 N41 2.151 . S
Co0 N49 2.214 1_455 S
Co1 O2 2.160 . S
Co1 O7 2.058 . S
Co1 O17 2.057 . S
Co1 O32 2.037 1_545 S
Co1 N36 2.145 1_545 S
Co1 N57 2.257 1_545 S
O2 Co0 2.143 . S
O2 Co1 2.160 . S
C3 O4 1.278 . S
C3 O11 1.224 . S
O4 C3 1.278 . S
C5 O6 1.245 . S
C5 O17 1.232 . S
O6 C5 1.245 . S
O7 Co1 2.058 . S
O7 C33 1.269 . S
O8 Co0 2.074 . S
O8 C33 1.257 . S
H9 C34 0.930 . S
H10 C40 0.930 . S
O11 Co0 2.093 . S
O11 C3 1.224 . S
H12 C44 0.929 . S
H13 C46 0.930 . S
H14 C47 0.930 . S
H15 C45 0.929 . S
H16 C48 0.928 . S
O17 Co1 2.057 . S
O17 C5 1.232 . S
H18 C37 0.929 . S
H19 C38 0.929 . S
H20 C50 0.931 . S
H21 C42 0.929 . S
H22 C51 0.930 . S
H23 C43 0.931 . S
O24 Co0 2.097 . S
O24 C52 1.214 . S
H25 C53 0.929 . S
H26 C54 0.929 . S
H27 C55 0.930 . S
H28 C56 0.929 . S
H29 C58 0.930 1_545 S
H30 C35 0.930 . S
H31 C39 0.930 . S
O32 Co1 2.037 1_565 S
O32 C52 1.234 1_565 S
C33 O7 1.269 . S
C33 O8 1.257 . S
C34 H9 0.930 . S
C34 C37 1.388 . S
C34 C39 1.418 . S
C35 H30 0.930 . S
C35 C38 1.404 . S
C35 C39 1.353 . S
N36 Co1 2.145 1_565 S
N36 C37 1.397 . S
N36 C38 1.334 . S
C37 H18 0.929 . S
C37 C34 1.388 . S
C37 N36 1.397 . S
C38 H19 0.929 . S
C38 C35 1.404 . S
C38 N36 1.334 . S
C39 H31 0.930 . S
C39 C34 1.418 . S
C39 C35 1.353 . S
C40 H10 0.930 . S
C40 N41 1.330 . S
C40 C42 1.446 . S
N41 Co0 2.151 . S
N41 C40 1.330 . S
N41 C45 1.418 . S
C42 H21 0.929 . S
C42 C40 1.446 . S
C42 C43 1.332 . S
C43 H23 0.931 . S
C43 C42 1.332 . S
C43 C44 1.267 . S
C44 H12 0.929 . S
C44 C43 1.267 . S
C44 C45 1.251 . S
C45 H15 0.929 . S
C45 N41 1.418 . S
C45 C44 1.251 . S
C46 H13 0.930 . S
C46 C48 1.406 . S
C46 C51 1.261 . S
C47 H14 0.930 . S
C47 N49 1.325 . S
C47 C50 1.357 . S
C48 H16 0.928 . S
C48 C46 1.406 . S
C48 N49 1.261 . S
N49 Co0 2.214 1_655 S
N49 C47 1.325 . S
N49 C48 1.261 . S
C50 H20 0.931 . S
C50 C47 1.357 . S
C50 C51 1.312 . S
C51 H22 0.930 . S
C51 C46 1.261 . S
C51 C50 1.312 . S
C52 O24 1.214 . S
C52 O32 1.234 1_545 S
C53 H25 0.929 . S
C53 C56 1.391 . S
C53 C58 1.391 . S
C54 H26 0.929 . S
C54 C55 1.390 . S
C54 N57 1.391 . S
C55 H27 0.930 . S
C55 C54 1.390 . S
C55 C56 1.392 . S
C56 H28 0.929 . S
C56 C53 1.391 . S
C56 C55 1.392 . S
N57 Co1 2.257 1_565 S
N57 C54 1.391 . S
N57 C58 1.388 . S
C58 H29 0.930 1_565 S
C58 C53 1.391 . S
C58 N57 1.388 . S
Co59 O61 2.143 . S
Co59 O67 2.074 . S
Co59 O70 2.093 . S
Co59 O83 2.097 . S
Co59 N100 2.151 . S
Co59 N108 2.214 . S
Co60 O61 2.160 . S
Co60 O66 2.058 . S
Co60 O76 2.057 . S
Co60 O91 2.037 1_655 S
Co60 N95 2.145 1_655 S
Co60 N116 2.257 1_655 S
O61 Co59 2.143 . S
O61 Co60 2.160 . S
C62 O63 1.278 . S
C62 O70 1.224 . S
O63 C62 1.278 . S
C64 O65 1.245 . S
C64 O76 1.232 . S
O65 C64 1.245 . S
O66 Co60 2.058 . S
O66 C92 1.269 . S
O67 Co59 2.074 . S
O67 C92 1.257 . S
H68 C93 0.930 . S
H69 C99 0.930 . S
O70 Co59 2.093 . S
O70 C62 1.224 . S
H71 C103 0.929 . S
H72 C105 0.930 . S
H73 C106 0.930 . S
H74 C104 0.929 . S
H75 C107 0.928 . S
O76 Co60 2.057 . S
O76 C64 1.232 . S
H77 C96 0.929 . S
H78 C97 0.929 . S
H79 C109 0.931 . S
H80 C101 0.929 . S
H81 C110 0.930 . S
H82 C102 0.931 . S
O83 Co59 2.097 . S
O83 C111 1.214 . S
H84 C112 0.929 . S
H85 C113 0.929 . S
H86 C114 0.930 . S
H87 C115 0.929 . S
H88 C117 0.930 1_655 S
H89 C94 0.930 . S
H90 C98 0.930 . S
O91 Co60 2.037 1_455 S
O91 C111 1.234 1_455 S
C92 O66 1.269 . S
C92 O67 1.257 . S
C93 H68 0.930 . S
C93 C96 1.388 . S
C93 C98 1.418 . S
C94 H89 0.930 . S
C94 C97 1.404 . S
C94 C98 1.353 . S
N95 Co60 2.145 1_455 S
N95 C96 1.397 . S
N95 C97 1.334 . S
C96 H77 0.929 . S
C96 C93 1.388 . S
C96 N95 1.397 . S
C97 H78 0.929 . S
C97 C94 1.404 . S
C97 N95 1.334 . S
C98 H90 0.930 . S
C98 C93 1.418 . S
C98 C94 1.353 . S
C99 H69 0.930 . S
C99 N100 1.330 . S
C99 C101 1.446 . S
N100 Co59 2.151 . S
N100 C99 1.330 . S
N100 C104 1.418 . S
C101 H80 0.929 . S
C101 C99 1.446 . S
C101 C102 1.332 . S
C102 H82 0.931 . S
C102 C101 1.332 . S
C102 C103 1.267 . S
C103 H71 0.929 . S
C103 C102 1.267 . S
C103 C104 1.251 . S
C104 H74 0.929 . S
C104 N100 1.418 . S
C104 C103 1.251 . S
C105 H72 0.930 . S
C105 C107 1.406 . S
C105 C110 1.261 . S
C106 H73 0.930 . S
C106 N108 1.325 . S
C106 C109 1.357 . S
C107 H75 0.928 . S
C107 C105 1.406 . S
C107 N108 1.261 . S
N108 Co59 2.214 . S
N108 C106 1.325 . S
N108 C107 1.261 . S
C109 H79 0.931 . S
C109 C106 1.357 . S
C109 C110 1.312 . S
C110 H81 0.930 . S
C110 C105 1.261 . S
C110 C109 1.312 . S
C111 O83 1.214 . S
C111 O91 1.234 1_655 S
C112 H84 0.929 . S
C112 C115 1.391 . S
C112 C117 1.391 . S
C113 H85 0.929 . S
C113 C114 1.390 . S
C113 N116 1.391 . S
C114 H86 0.930 . S
C114 C113 1.390 . S
C114 C115 1.392 . S
C115 H87 0.929 . S
C115 C112 1.391 . S
C115 C114 1.392 . S
N116 Co60 2.257 1_455 S
N116 C113 1.391 . S
N116 C117 1.388 . S
C117 H88 0.930 1_455 S
C117 C112 1.391 . S
C117 N116 1.388 . S
Co118 O120 2.143 . S
Co118 O126 2.074 . S
Co118 O129 2.093 . S
Co118 O142 2.097 . S
Co118 N159 2.151 . S
Co118 N167 2.214 . S
Co119 O120 2.160 . S
Co119 O125 2.058 1_556 S
Co119 O135 2.057 . S
Co119 O150 2.037 . S
Co119 N154 2.145 1_556 S
Co119 N175 2.257 . S
O120 Co118 2.143 . S
O120 Co119 2.160 . S
C121 O122 1.278 . S
C121 O129 1.224 . S
O122 C121 1.278 . S
C123 O124 1.245 . S
C123 O135 1.232 . S
O124 C123 1.245 . S
O125 Co119 2.058 1_554 S
O125 C151 1.269 . S
O126 Co118 2.074 . S
O126 C151 1.257 1_556 S
H127 C152 0.930 . S
H128 C158 0.930 . S
O129 Co118 2.093 . S
O129 C121 1.224 . S
H130 C162 0.929 . S
H131 C164 0.930 . S
H132 C165 0.930 . S
H133 C163 0.929 . S
H134 C166 0.928 . S
O135 Co119 2.057 . S
O135 C123 1.232 . S
H136 C155 0.929 . S
H137 C156 0.929 . S
H138 C168 0.931 . S
H139 C160 0.929 . S
H140 C169 0.930 . S
H141 C161 0.931 . S
O142 Co118 2.097 . S
O142 C170 1.214 . S
H143 C171 0.929 . S
H144 C172 0.929 . S
H145 C173 0.930 . S
H146 C174 0.929 . S
H147 C176 0.930 . S
H148 C153 0.930 . S
H149 C157 0.930 . S
O150 Co119 2.037 . S
O150 C170 1.234 . S
C151 O125 1.269 . S
C151 O126 1.257 1_554 S
C152 H127 0.930 . S
C152 C155 1.388 . S
C152 C157 1.418 . S
C153 H148 0.930 . S
C153 C156 1.404 . S
C153 C157 1.353 . S
N154 Co119 2.145 1_554 S
N154 C155 1.397 . S
N154 C156 1.334 . S
C155 H136 0.929 . S
C155 C152 1.388 . S
C155 N154 1.397 . S
C156 H137 0.929 . S
C156 C153 1.404 . S
C156 N154 1.334 . S
C157 H149 0.930 . S
C157 C152 1.418 . S
C157 C153 1.353 . S
C158 H128 0.930 . S
C158 N159 1.330 . S
C158 C160 1.446 . S
N159 Co118 2.151 . S
N159 C158 1.330 . S
N159 C163 1.418 . S
C160 H139 0.929 . S
C160 C158 1.446 . S
C160 C161 1.332 . S
C161 H141 0.931 . S
C161 C160 1.332 . S
C161 C162 1.267 . S
C162 H130 0.929 . S
C162 C161 1.267 . S
C162 C163 1.251 . S
C163 H133 0.929 . S
C163 N159 1.418 . S
C163 C162 1.251 . S
C164 H131 0.930 . S
C164 C166 1.406 . S
C164 C169 1.261 . S
C165 H132 0.930 . S
C165 N167 1.325 . S
C165 C168 1.357 . S
C166 H134 0.928 . S
C166 C164 1.406 . S
C166 N167 1.261 . S
N167 Co118 2.214 . S
N167 C165 1.325 . S
N167 C166 1.261 . S
C168 H138 0.931 . S
C168 C165 1.357 . S
C168 C169 1.312 . S
C169 H140 0.930 . S
C169 C164 1.261 . S
C169 C168 1.312 . S
C170 O142 1.214 . S
C170 O150 1.234 . S
C171 H143 0.929 . S
C171 C174 1.391 . S
C171 C176 1.391 . S
C172 H144 0.929 . S
C172 C173 1.390 . S
C172 N175 1.391 . S
C173 H145 0.930 . S
C173 C172 1.390 . S
C173 C174 1.392 . S
C174 H146 0.929 . S
C174 C171 1.391 . S
C174 C173 1.392 . S
N175 Co119 2.257 . S
N175 C172 1.391 . S
N175 C176 1.388 . S
C176 H147 0.930 . S
C176 C171 1.391 . S
C176 N175 1.388 . S
Co177 O179 2.143 . S
Co177 O185 2.074 . S
Co177 O188 2.093 1_554 S
Co177 O201 2.097 . S
Co177 N218 2.151 . S
Co177 N226 2.214 1_565 S
Co178 O179 2.160 . S
Co178 O184 2.058 . S
Co178 O194 2.057 . S
Co178 O209 2.037 . S
Co178 N213 2.145 . S
Co178 N234 2.257 . S
O179 Co177 2.143 . S
O179 Co178 2.160 . S
C180 O181 1.278 . S
C180 O188 1.224 . S
O181 C180 1.278 . S
C182 O183 1.245 . S
C182 O194 1.232 . S
O183 C182 1.245 . S
O184 Co178 2.058 . S
O184 C210 1.269 . S
O185 Co177 2.074 . S
O185 C210 1.257 . S
H186 C211 0.930 . S
H187 C217 0.930 1_556 S
O188 Co177 2.093 1_556 S
O188 C180 1.224 . S
H189 C221 0.929 . S
H190 C223 0.930 1_556 S
H191 C224 0.930 . S
H192 C222 0.929 . S
H193 C225 0.928 1_556 S
O194 Co178 2.057 . S
O194 C182 1.232 . S
H195 C214 0.929 . S
H196 C215 0.929 . S
H197 C227 0.931 . S
H198 C219 0.929 1_556 S
H199 C228 0.930 . S
H200 C220 0.931 . S
O201 Co177 2.097 . S
O201 C229 1.214 . S
H202 C230 0.929 . S
H203 C231 0.929 . S
H204 C232 0.930 . S
H205 C233 0.929 . S
H206 C235 0.930 . S
H207 C212 0.930 . S
H208 C216 0.930 . S
O209 Co178 2.037 . S
O209 C229 1.234 . S
C210 O184 1.269 . S
C210 O185 1.257 . S
C211 H186 0.930 . S
C211 C214 1.388 . S
C211 C216 1.418 . S
C212 H207 0.930 . S
C212 C215 1.404 . S
C212 C216 1.353 . S
N213 Co178 2.145 . S
N213 C214 1.397 . S
N213 C215 1.334 . S
C214 H195 0.929 . S
C214 C211 1.388 . S
C214 N213 1.397 . S
C215 H196 0.929 . S
C215 C212 1.404 . S
C215 N213 1.334 . S
C216 H208 0.930 . S
C216 C211 1.418 . S
C216 C212 1.353 . S
C217 H187 0.930 1_554 S
C217 N218 1.330 . S
C217 C219 1.446 . S
N218 Co177 2.151 . S
N218 C217 1.330 . S
N218 C222 1.418 . S
C219 H198 0.929 1_554 S
C219 C217 1.446 . S
C219 C220 1.332 . S
C220 H200 0.931 . S
C220 C219 1.332 . S
C220 C221 1.267 . S
C221 H189 0.929 . S
C221 C220 1.267 . S
C221 C222 1.251 . S
C222 H192 0.929 . S
C222 N218 1.418 . S
C222 C221 1.251 . S
C223 H190 0.930 1_554 S
C223 C225 1.406 . S
C223 C228 1.261 . S
C224 H191 0.930 . S
C224 N226 1.325 . S
C224 C227 1.357 . S
C225 H193 0.928 1_554 S
C225 C223 1.406 . S
C225 N226 1.261 . S
N226 Co177 2.214 1_545 S
N226 C224 1.325 . S
N226 C225 1.261 . S
C227 H197 0.931 . S
C227 C224 1.357 . S
C227 C228 1.312 . S
C228 H199 0.930 . S
C228 C223 1.261 . S
C228 C227 1.312 . S
C229 O201 1.214 . S
C229 O209 1.234 . S
C230 H202 0.929 . S
C230 C233 1.391 . S
C230 C235 1.391 . S
C231 H203 0.929 . S
C231 C232 1.390 1_554 S
C231 N234 1.391 . S
C232 H204 0.930 . S
C232 C231 1.390 1_556 S
C232 C233 1.392 . S
C233 H205 0.929 . S
C233 C230 1.391 . S
C233 C232 1.392 . S
N234 Co178 2.257 . S
N234 C231 1.391 . S
N234 C235 1.388 1_554 S
C235 H206 0.930 . S
C235 C230 1.391 . S
C235 N234 1.388 1_556 S
Co236 O238 2.143 . S
Co236 O244 2.074 1_554 S
Co236 O247 2.093 . S
Co236 O260 2.097 . S
Co236 N277 2.151 . S
Co236 N285 2.214 1_455 S
Co237 O238 2.160 1_556 S
Co237 O243 2.058 . S
Co237 O253 2.057 . S
Co237 O268 2.037 . S
Co237 N272 2.145 . S
Co237 N293 2.257 1_556 S
O238 Co236 2.143 . S
O238 Co237 2.160 1_554 S
C239 O240 1.278 . S
C239 O247 1.224 . S
O240 C239 1.278 . S
C241 O242 1.245 1_556 S
C241 O253 1.232 . S
O242 C241 1.245 1_554 S
O243 Co237 2.058 . S
O243 C269 1.269 . S
O244 Co236 2.074 1_556 S
O244 C269 1.257 . S
H245 C270 0.930 . S
H246 C276 0.930 . S
O247 Co236 2.093 . S
O247 C239 1.224 . S
H248 C280 0.935 . S
H249 C282 0.930 . S
H250 C283 0.930 1_556 S
H251 C281 0.929 . S
H252 C284 0.928 . S
O253 Co237 2.057 . S
O253 C241 1.232 . S
H254 C273 0.929 . S
H255 C274 0.929 . S
H256 C286 0.931 . S
H257 C278 0.929 . S
H258 C287 0.930 . S
H259 C279 0.931 . S
O260 Co236 2.097 . S
O260 C288 1.214 . S
H261 C289 0.929 . S
H262 C290 0.929 . S
H263 C291 0.930 . S
H264 C292 0.929 . S
H265 C294 0.930 . S
H266 C271 0.930 . S
H267 C275 0.930 . S
O268 Co237 2.037 . S
O268 C288 1.234 1_556 S
C269 O243 1.269 . S
C269 O244 1.257 . S
C270 H245 0.930 . S
C270 C273 1.388 . S
C270 C275 1.418 . S
C271 H266 0.930 . S
C271 C274 1.404 . S
C271 C275 1.353 . S
N272 Co237 2.145 . S
N272 C273 1.397 . S
N272 C274 1.334 . S
C273 H254 0.929 . S
C273 C270 1.388 . S
C273 N272 1.397 . S
C274 H255 0.929 . S
C274 C271 1.404 . S
C274 N272 1.334 . S
C275 H267 0.930 . S
C275 C270 1.418 . S
C275 C271 1.353 . S
C276 H246 0.930 . S
C276 N277 1.330 . S
C276 C278 1.446 . S
N277 Co236 2.151 . S
N277 C276 1.330 . S
N277 C281 1.418 1_554 S
C278 H257 0.929 . S
C278 C276 1.446 . S
C278 C279 1.332 . S
C279 H259 0.931 . S
C279 C278 1.332 . S
C279 C280 1.262 1_554 S
C280 H248 0.935 . S
C280 C279 1.262 1_556 S
C280 C281 1.251 . S
C281 H251 0.929 . S
C281 N277 1.418 1_556 S
C281 C280 1.251 . S
C282 H249 0.930 . S
C282 C284 1.406 . S
C282 C287 1.261 . S
C283 H250 0.930 1_554 S
C283 N285 1.325 . S
C283 C286 1.357 1_554 S
C284 H252 0.928 . S
C284 C282 1.406 . S
C284 N285 1.261 . S
N285 Co236 2.214 1_655 S
N285 C283 1.325 . S
N285 C284 1.261 . S
C286 H256 0.931 . S
C286 C283 1.357 1_556 S
C286 C287 1.312 1_556 S
C287 H258 0.930 . S
C287 C282 1.261 . S
C287 C286 1.312 1_554 S
C288 O260 1.214 . S
C288 O268 1.234 1_554 S
C289 H261 0.929 . S
C289 C292 1.391 . S
C289 C294 1.391 . S
C290 H262 0.929 . S
C290 C291 1.390 . S
C290 N293 1.391 . S
C291 H263 0.930 . S
C291 C290 1.390 . S
C291 C292 1.392 . S
C292 H264 0.929 . S
C292 C289 1.391 . S
C292 C291 1.392 . S
N293 Co237 2.257 1_554 S
N293 C290 1.391 . S
N293 C294 1.388 . S
C294 H265 0.930 . S
C294 C289 1.391 . S
C294 N293 1.388 . S
Co295 O297 2.143 . S
Co295 O303 2.074 . S
Co295 O306 2.093 . S
Co295 O319 2.097 . S
Co295 N336 2.151 . S
Co295 N344 2.214 . S
Co296 O297 2.160 . S
Co296 O302 2.058 . S
Co296 O312 2.057 . S
Co296 O327 2.037 . S
Co296 N331 2.145 . S
Co296 N352 2.257 . S
O297 Co295 2.143 . S
O297 Co296 2.160 . S
C298 O299 1.278 . S
C298 O306 1.224 . S
O299 C298 1.278 . S
C300 O301 1.245 . S
C300 O312 1.232 . S
O301 C300 1.245 . S
O302 Co296 2.058 . S
O302 C328 1.269 . S
O303 Co295 2.074 . S
O303 C328 1.257 . S
H304 C329 0.930 . S
H305 C335 0.930 . S
O306 Co295 2.093 . S
O306 C298 1.224 . S
H307 C339 0.929 . S
H308 C341 0.930 . S
H309 C342 0.930 . S
H310 C340 0.929 . S
H311 C343 0.928 . S
O312 Co296 2.057 . S
O312 C300 1.232 . S
H313 C332 0.929 . S
H314 C333 0.929 . S
H315 C345 0.931 . S
H316 C337 0.929 . S
H317 C346 0.930 . S
H318 C338 0.931 . S
O319 Co295 2.097 . S
O319 C347 1.214 . S
H320 C348 0.929 . S
H321 C349 0.929 . S
H322 C350 0.930 . S
H323 C351 0.929 . S
H324 C353 0.930 . S
H325 C330 0.930 1_556 S
H326 C334 0.930 . S
O327 Co296 2.037 . S
O327 C347 1.234 . S
C328 O302 1.269 . S
C328 O303 1.257 . S
C329 H304 0.930 . S
C329 C332 1.388 1_556 S
C329 C334 1.418 . S
C330 H325 0.930 1_554 S
C330 C333 1.404 . S
C330 C334 1.353 1_554 S
N331 Co296 2.145 . S
N331 C332 1.397 . S
N331 C333 1.334 . S
C332 H313 0.929 . S
C332 C329 1.388 1_554 S
C332 N331 1.397 . S
C333 H314 0.929 . S
C333 C330 1.404 . S
C333 N331 1.334 . S
C334 H326 0.930 . S
C334 C329 1.418 . S
C334 C330 1.353 1_556 S
C335 H305 0.930 . S
C335 N336 1.330 . S
C335 C337 1.446 . S
N336 Co295 2.151 . S
N336 C335 1.330 . S
N336 C340 1.418 . S
C337 H316 0.929 . S
C337 C335 1.446 . S
C337 C338 1.332 . S
C338 H318 0.931 . S
C338 C337 1.332 . S
C338 C339 1.267 . S
C339 H307 0.929 . S
C339 C338 1.267 . S
C339 C340 1.251 . S
C340 H310 0.929 . S
C340 N336 1.418 . S
C340 C339 1.251 . S
C341 H308 0.930 . S
C341 C343 1.406 . S
C341 C346 1.261 . S
C342 H309 0.930 . S
C342 N344 1.325 . S
C342 C345 1.357 . S
C343 H311 0.928 . S
C343 C341 1.406 . S
C343 N344 1.261 . S
N344 Co295 2.214 . S
N344 C342 1.325 . S
N344 C343 1.261 . S
C345 H315 0.931 . S
C345 C342 1.357 . S
C345 C346 1.312 . S
C346 H317 0.930 . S
C346 C341 1.261 . S
C346 C345 1.312 . S
C347 O319 1.214 . S
C347 O327 1.234 . S
C348 H320 0.929 . S
C348 C351 1.391 . S
C348 C353 1.391 . S
C349 H321 0.929 . S
C349 C350 1.390 . S
C349 N352 1.391 . S
C350 H322 0.930 . S
C350 C349 1.390 . S
C350 C351 1.392 . S
C351 H323 0.929 . S
C351 C348 1.391 . S
C351 C350 1.392 . S
N352 Co296 2.257 . S
N352 C349 1.391 . S
N352 C353 1.388 . S
C353 H324 0.930 . S
C353 C348 1.391 . S
C353 N352 1.388 . S
Co354 O356 2.143 . S
Co354 O362 2.074 . S
Co354 O365 2.093 . S
Co354 O378 2.097 . S
Co354 N395 2.151 . S
Co354 N403 2.214 . S
Co355 O356 2.160 . S
Co355 O361 2.058 . S
Co355 O371 2.057 . S
Co355 O386 2.037 1_545 S
Co355 N390 2.145 1_545 S
Co355 N411 2.257 1_545 S
O356 Co354 2.143 . S
O356 Co355 2.160 . S
C357 O358 1.278 . S
C357 O365 1.224 . S
O358 C357 1.278 . S
C359 O360 1.245 . S
C359 O371 1.232 . S
O360 C359 1.245 . S
O361 Co355 2.058 . S
O361 C387 1.269 . S
O362 Co354 2.074 . S
O362 C387 1.257 . S
H363 C388 0.930 . S
H364 C394 0.930 . S
O365 Co354 2.093 . S
O365 C357 1.224 . S
H366 C398 0.929 . S
H367 C400 0.930 . S
H368 C401 0.930 . S
H369 C399 0.929 . S
H370 C402 0.928 . S
O371 Co355 2.057 . S
O371 C359 1.232 . S
H372 C391 0.929 . S
H373 C392 0.929 . S
H374 C404 0.931 . S
H375 C396 0.929 . S
H376 C405 0.930 . S
H377 C397 0.931 . S
O378 Co354 2.097 . S
O378 C406 1.214 . S
H379 C407 0.929 . S
H380 C408 0.929 . S
H381 C409 0.930 . S
H382 C410 0.929 . S
H383 C412 0.930 1_545 S
H384 C389 0.930 . S
H385 C393 0.930 . S
O386 Co355 2.037 1_565 S
O386 C406 1.234 1_565 S
C387 O361 1.269 . S
C387 O362 1.257 . S
C388 H363 0.930 . S
C388 C391 1.388 . S
C388 C393 1.418 . S
C389 H384 0.930 . S
C389 C392 1.404 . S
C389 C393 1.353 . S
N390 Co355 2.145 1_565 S
N390 C391 1.397 . S
N390 C392 1.334 . S
C391 H372 0.929 . S
C391 C388 1.388 . S
C391 N390 1.397 . S
C392 H373 0.929 . S
C392 C389 1.404 . S
C392 N390 1.334 . S
C393 H385 0.930 . S
C393 C388 1.418 . S
C393 C389 1.353 . S
C394 H364 0.930 . S
C394 N395 1.330 . S
C394 C396 1.446 . S
N395 Co354 2.151 . S
N395 C394 1.330 . S
N395 C399 1.418 . S
C396 H375 0.929 . S
C396 C394 1.446 . S
C396 C397 1.332 . S
C397 H377 0.931 . S
C397 C396 1.332 . S
C397 C398 1.267 . S
C398 H366 0.929 . S
C398 C397 1.267 . S
C398 C399 1.251 . S
C399 H369 0.929 . S
C399 N395 1.418 . S
C399 C398 1.251 . S
C400 H367 0.930 . S
C400 C402 1.406 . S
C400 C405 1.261 . S
C401 H368 0.930 . S
C401 N403 1.325 . S
C401 C404 1.357 . S
C402 H370 0.928 . S
C402 C400 1.406 . S
C402 N403 1.261 . S
N403 Co354 2.214 . S
N403 C401 1.325 . S
N403 C402 1.261 . S
C404 H374 0.931 . S
C404 C401 1.357 . S
C404 C405 1.312 . S
C405 H376 0.930 . S
C405 C400 1.261 . S
C405 C404 1.312 . S
C406 O378 1.214 . S
C406 O386 1.234 1_545 S
C407 H379 0.929 . S
C407 C410 1.391 . S
C407 C412 1.391 . S
C408 H380 0.929 . S
C408 C409 1.390 . S
C408 N411 1.391 . S
C409 H381 0.930 . S
C409 C408 1.390 . S
C409 C410 1.392 . S
C410 H382 0.929 . S
C410 C407 1.391 . S
C410 C409 1.392 . S
N411 Co355 2.257 1_565 S
N411 C408 1.391 . S
N411 C412 1.388 . S
C412 H383 0.930 1_565 S
C412 C407 1.391 . S
C412 N411 1.388 . S
Co413 O415 2.143 . S
Co413 O421 2.074 . S
Co413 O424 2.093 . S
Co413 O437 2.097 . S
Co413 N454 2.151 . S
Co413 N462 2.214 1_565 S
Co414 O415 2.160 . S
Co414 O420 2.058 . S
Co414 O430 2.057 . S
Co414 O445 2.037 1_655 S
Co414 N449 2.145 1_655 S
Co414 N470 2.257 1_655 S
O415 Co413 2.143 . S
O415 Co414 2.160 . S
C416 O417 1.278 1_554 S
C416 O424 1.224 1_554 S
O417 C416 1.278 1_556 S
C418 O419 1.245 . S
C418 O430 1.232 . S
O419 C418 1.245 . S
O420 Co414 2.058 . S
O420 C446 1.269 . S
O421 Co413 2.074 . S
O421 C446 1.257 . S
H422 C447 0.930 . S
H423 C453 0.930 . S
O424 Co413 2.093 . S
O424 C416 1.224 1_556 S
H425 C457 0.929 . S
H426 C459 0.930 . S
H427 C460 0.930 . S
H428 C458 0.929 . S
H429 C461 0.928 . S
O430 Co414 2.057 . S
O430 C418 1.232 . S
H431 C450 0.929 . S
H432 C451 0.929 . S
H433 C463 0.931 . S
H434 C455 0.929 . S
H435 C464 0.930 . S
H436 C456 0.931 . S
O437 Co413 2.097 . S
O437 C465 1.214 . S
H438 C466 0.929 1_554 S
H439 C467 0.929 . S
H440 C468 0.930 . S
H441 C469 0.929 1_554 S
H442 C471 0.930 1_655 S
H443 C448 0.930 . S
H444 C452 0.930 . S
O445 Co414 2.037 1_455 S
O445 C465 1.234 1_455 S
C446 O420 1.269 . S
C446 O421 1.257 . S
C447 H422 0.930 . S
C447 C450 1.388 . S
C447 C452 1.418 . S
C448 H443 0.930 . S
C448 C451 1.404 . S
C448 C452 1.353 . S
N449 Co414 2.145 1_455 S
N449 C450 1.397 . S
N449 C451 1.334 . S
C450 H431 0.929 . S
C450 C447 1.388 . S
C450 N449 1.397 . S
C451 H432 0.929 . S
C451 C448 1.404 . S
C451 N449 1.334 . S
C452 H444 0.930 . S
C452 C447 1.418 . S
C452 C448 1.353 . S
C453 H423 0.930 . S
C453 N454 1.330 . S
C453 C455 1.446 . S
N454 Co413 2.151 . S
N454 C453 1.330 . S
N454 C458 1.418 . S
C455 H434 0.929 . S
C455 C453 1.446 . S
C455 C456 1.332 . S
C456 H436 0.931 . S
C456 C455 1.332 . S
C456 C457 1.267 . S
C457 H425 0.929 . S
C457 C456 1.267 . S
C457 C458 1.251 . S
C458 H428 0.929 . S
C458 N454 1.418 . S
C458 C457 1.251 . S
C459 H426 0.930 . S
C459 C461 1.406 . S
C459 C464 1.261 . S
C460 H427 0.930 . S
C460 N462 1.325 . S
C460 C463 1.357 . S
C461 H429 0.928 . S
C461 C459 1.406 . S
C461 N462 1.261 . S
N462 Co413 2.214 1_545 S
N462 C460 1.325 . S
N462 C461 1.261 . S
C463 H433 0.931 . S
C463 C460 1.357 . S
C463 C464 1.312 . S
C464 H435 0.930 . S
C464 C459 1.261 . S
C464 C463 1.312 . S
C465 O437 1.214 . S
C465 O445 1.234 1_655 S
C466 H438 0.929 1_556 S
C466 C469 1.391 . S
C466 C471 1.391 . S
C467 H439 0.929 . S
C467 C468 1.390 . S
C467 N470 1.391 . S
C468 H440 0.930 . S
C468 C467 1.390 . S
C468 C469 1.392 . S
C469 H441 0.929 1_556 S
C469 C466 1.391 . S
C469 C468 1.392 . S
N470 Co414 2.257 1_455 S
N470 C467 1.391 . S
N470 C471 1.388 . S
C471 H442 0.930 1_455 S
C471 C466 1.391 . S
C471 N470 1.388 . S
Co472 O474 2.143 . S
Co472 O480 2.074 . S
Co472 O483 2.093 . S
Co472 O496 2.097 . S
Co472 N513 2.151 . S
Co472 N521 2.214 . S
Co473 O474 2.160 . S
Co473 O479 2.058 1_556 S
Co473 O489 2.057 . S
Co473 O504 2.037 . S
Co473 N508 2.145 1_556 S
Co473 N529 2.257 . S
O474 Co472 2.143 . S
O474 Co473 2.160 . S
C475 O476 1.278 . S
C475 O483 1.224 . S
O476 C475 1.278 . S
C477 O478 1.245 . S
C477 O489 1.232 . S
O478 C477 1.245 . S
O479 Co473 2.058 1_554 S
O479 C505 1.269 . S
O480 Co472 2.074 . S
O480 C505 1.257 1_556 S
H481 C506 0.930 . S
H482 C512 0.930 . S
O483 Co472 2.093 . S
O483 C475 1.224 . S
H484 C516 0.929 . S
H485 C518 0.930 . S
H486 C519 0.930 . S
H487 C517 0.929 . S
H488 C520 0.928 . S
O489 Co473 2.057 . S
O489 C477 1.232 . S
H490 C509 0.929 . S
H491 C510 0.929 . S
H492 C522 0.931 . S
H493 C514 0.929 . S
H494 C523 0.930 . S
H495 C515 0.931 . S
O496 Co472 2.097 . S
O496 C524 1.214 . S
H497 C525 0.929 . S
H498 C526 0.929 . S
H499 C527 0.930 . S
H500 C528 0.929 . S
H501 C530 0.930 . S
H502 C507 0.930 . S
H503 C511 0.930 . S
O504 Co473 2.037 . S
O504 C524 1.234 . S
C505 O479 1.269 . S
C505 O480 1.257 1_554 S
C506 H481 0.930 . S
C506 C509 1.388 . S
C506 C511 1.418 . S
C507 H502 0.930 . S
C507 C510 1.404 . S
C507 C511 1.353 . S
N508 Co473 2.145 1_554 S
N508 C509 1.397 . S
N508 C510 1.334 . S
C509 H490 0.929 . S
C509 C506 1.388 . S
C509 N508 1.397 . S
C510 H491 0.929 . S
C510 C507 1.404 . S
C510 N508 1.334 . S
C511 H503 0.930 . S
C511 C506 1.418 . S
C511 C507 1.353 . S
C512 H482 0.930 . S
C512 N513 1.330 . S
C512 C514 1.446 . S
N513 Co472 2.151 . S
N513 C512 1.330 . S
N513 C517 1.418 . S
C514 H493 0.929 . S
C514 C512 1.446 . S
C514 C515 1.332 . S
C515 H495 0.931 . S
C515 C514 1.332 . S
C515 C516 1.267 . S
C516 H484 0.929 . S
C516 C515 1.267 . S
C516 C517 1.251 . S
C517 H487 0.929 . S
C517 N513 1.418 . S
C517 C516 1.251 . S
C518 H485 0.930 . S
C518 C520 1.406 . S
C518 C523 1.261 . S
C519 H486 0.930 . S
C519 N521 1.325 . S
C519 C522 1.357 . S
C520 H488 0.928 . S
C520 C518 1.406 . S
C520 N521 1.261 . S
N521 Co472 2.214 . S
N521 C519 1.325 . S
N521 C520 1.261 . S
C522 H492 0.931 . S
C522 C519 1.357 . S
C522 C523 1.312 . S
C523 H494 0.930 . S
C523 C518 1.261 . S
C523 C522 1.312 . S
C524 O496 1.214 . S
C524 O504 1.234 . S
C525 H497 0.929 . S
C525 C528 1.391 . S
C525 C530 1.391 . S
C526 H498 0.929 . S
C526 C527 1.390 . S
C526 N529 1.391 . S
C527 H499 0.930 . S
C527 C526 1.390 . S
C527 C528 1.392 . S
C528 H500 0.929 . S
C528 C525 1.391 . S
C528 C527 1.392 . S
N529 Co473 2.257 . S
N529 C526 1.391 . S
N529 C530 1.388 . S
C530 H501 0.930 . S
C530 C525 1.391 . S
C530 N529 1.388 . S
Co531 O533 2.143 . S
Co531 O539 2.074 . S
Co531 O542 2.093 1_554 S
Co531 O555 2.097 . S
Co531 N572 2.151 . S
Co531 N580 2.214 1_545 S
Co532 O533 2.160 . S
Co532 O538 2.058 . S
Co532 O548 2.057 . S
Co532 O563 2.037 . S
Co532 N567 2.145 . S
Co532 N588 2.257 . S
O533 Co531 2.143 . S
O533 Co532 2.160 . S
C534 O535 1.278 . S
C534 O542 1.224 . S
O535 C534 1.278 . S
C536 O537 1.245 . S
C536 O548 1.232 . S
O537 C536 1.245 . S
O538 Co532 2.058 . S
O538 C564 1.269 . S
O539 Co531 2.074 . S
O539 C564 1.257 . S
H540 C565 0.930 . S
H541 C571 0.930 1_556 S
O542 Co531 2.093 1_556 S
O542 C534 1.224 . S
H543 C575 0.929 . S
H544 C577 0.930 1_556 S
H545 C578 0.930 . S
H546 C576 0.929 . S
H547 C579 0.928 1_556 S
O548 Co532 2.057 . S
O548 C536 1.232 . S
H549 C568 0.929 . S
H550 C569 0.929 . S
H551 C581 0.931 . S
H552 C573 0.929 1_556 S
H553 C582 0.930 . S
H554 C574 0.931 . S
O555 Co531 2.097 . S
O555 C583 1.214 . S
H556 C584 0.929 . S
H557 C585 0.929 . S
H558 C586 0.930 . S
H559 C587 0.929 . S
H560 C589 0.930 . S
H561 C566 0.930 . S
H562 C570 0.930 . S
O563 Co532 2.037 . S
O563 C583 1.234 . S
C564 O538 1.269 . S
C564 O539 1.257 . S
C565 H540 0.930 . S
C565 C568 1.388 . S
C565 C570 1.418 . S
C566 H561 0.930 . S
C566 C569 1.404 . S
C566 C570 1.353 . S
N567 Co532 2.145 . S
N567 C568 1.397 . S
N567 C569 1.334 . S
C568 H549 0.929 . S
C568 C565 1.388 . S
C568 N567 1.397 . S
C569 H550 0.929 . S
C569 C566 1.404 . S
C569 N567 1.334 . S
C570 H562 0.930 . S
C570 C565 1.418 . S
C570 C566 1.353 . S
C571 H541 0.930 1_554 S
C571 N572 1.330 . S
C571 C573 1.446 . S
N572 Co531 2.151 . S
N572 C571 1.330 . S
N572 C576 1.418 . S
C573 H552 0.929 1_554 S
C573 C571 1.446 . S
C573 C574 1.332 . S
C574 H554 0.931 . S
C574 C573 1.332 . S
C574 C575 1.267 . S
C575 H543 0.929 . S
C575 C574 1.267 . S
C575 C576 1.251 . S
C576 H546 0.929 . S
C576 N572 1.418 . S
C576 C575 1.251 . S
C577 H544 0.930 1_554 S
C577 C579 1.406 . S
C577 C582 1.261 . S
C578 H545 0.930 . S
C578 N580 1.325 . S
C578 C581 1.357 . S
C579 H547 0.928 1_554 S
C579 C577 1.406 . S
C579 N580 1.261 . S
N580 Co531 2.214 1_565 S
N580 C578 1.325 . S
N580 C579 1.261 . S
C581 H551 0.931 . S
C581 C578 1.357 . S
C581 C582 1.312 . S
C582 H553 0.930 . S
C582 C577 1.261 . S
C582 C581 1.312 . S
C583 O555 1.214 . S
C583 O563 1.234 . S
C584 H556 0.929 . S
C584 C587 1.391 . S
C584 C589 1.391 . S
C585 H557 0.929 . S
C585 C586 1.390 1_554 S
C585 N588 1.391 . S
C586 H558 0.930 . S
C586 C585 1.390 1_556 S
C586 C587 1.392 . S
C587 H559 0.929 . S
C587 C584 1.391 . S
C587 C586 1.392 . S
N588 Co532 2.257 . S
N588 C585 1.391 . S
N588 C589 1.388 1_554 S
C589 H560 0.930 . S
C589 C584 1.391 . S
C589 N588 1.388 1_556 S
Co590 O592 2.143 . S
Co590 O598 2.074 . S
Co590 O601 2.093 . S
Co590 O614 2.097 . S
Co590 N631 2.151 . S
Co590 N639 2.214 1_655 S
Co591 O592 2.160 . S
Co591 O597 2.058 . S
Co591 O607 2.057 . S
Co591 O622 2.037 1_565 S
Co591 N626 2.145 1_565 S
Co591 N647 2.257 1_565 S
O592 Co590 2.143 . S
O592 Co591 2.160 . S
C593 O594 1.278 . S
C593 O601 1.224 . S
O594 C593 1.278 . S
C595 O596 1.245 . S
C595 O607 1.232 . S
O596 C595 1.245 . S
O597 Co591 2.058 . S
O597 C623 1.269 . S
O598 Co590 2.074 . S
O598 C623 1.257 . S
H599 C624 0.930 . S
H600 C630 0.930 . S
O601 Co590 2.093 . S
O601 C593 1.224 . S
H602 C634 0.929 . S
H603 C636 0.930 . S
H604 C637 0.930 . S
H605 C635 0.929 . S
H606 C638 0.928 . S
O607 Co591 2.057 . S
O607 C595 1.232 . S
H608 C627 0.929 . S
H609 C628 0.929 . S
H610 C640 0.931 . S
H611 C632 0.929 . S
H612 C641 0.930 . S
H613 C633 0.931 . S
O614 Co590 2.097 . S
O614 C642 1.214 . S
H615 C643 0.929 . S
H616 C644 0.929 . S
H617 C645 0.930 . S
H618 C646 0.929 . S
H619 C648 0.930 1_565 S
H620 C625 0.930 . S
H621 C629 0.930 . S
O622 Co591 2.037 1_545 S
O622 C642 1.234 1_545 S
C623 O597 1.269 . S
C623 O598 1.257 . S
C624 H599 0.930 . S
C624 C627 1.388 . S
C624 C629 1.418 . S
C625 H620 0.930 . S
C625 C628 1.404 . S
C625 C629 1.353 . S
N626 Co591 2.145 1_545 S
N626 C627 1.397 . S
N626 C628 1.334 . S
C627 H608 0.929 . S
C627 C624 1.388 . S
C627 N626 1.397 . S
C628 H609 0.929 . S
C628 C625 1.404 . S
C628 N626 1.334 . S
C629 H621 0.930 . S
C629 C624 1.418 . S
C629 C625 1.353 . S
C630 H600 0.930 . S
C630 N631 1.330 . S
C630 C632 1.446 . S
N631 Co590 2.151 . S
N631 C630 1.330 . S
N631 C635 1.418 . S
C632 H611 0.929 . S
C632 C630 1.446 . S
C632 C633 1.332 . S
C633 H613 0.931 . S
C633 C632 1.332 . S
C633 C634 1.267 . S
C634 H602 0.929 . S
C634 C633 1.267 . S
C634 C635 1.251 . S
C635 H605 0.929 . S
C635 N631 1.418 . S
C635 C634 1.251 . S
C636 H603 0.930 . S
C636 C638 1.406 . S
C636 C641 1.261 . S
C637 H604 0.930 . S
C637 N639 1.325 . S
C637 C640 1.357 . S
C638 H606 0.928 . S
C638 C636 1.406 . S
C638 N639 1.261 . S
N639 Co590 2.214 1_455 S
N639 C637 1.325 . S
N639 C638 1.261 . S
C640 H610 0.931 . S
C640 C637 1.357 . S
C640 C641 1.312 . S
C641 H612 0.930 . S
C641 C636 1.261 . S
C641 C640 1.312 . S
C642 O614 1.214 . S
C642 O622 1.234 1_565 S
C643 H615 0.929 . S
C643 C646 1.391 . S
C643 C648 1.391 . S
C644 H616 0.929 . S
C644 C645 1.390 . S
C644 N647 1.391 . S
C645 H617 0.930 . S
C645 C644 1.390 . S
C645 C646 1.392 . S
C646 H618 0.929 . S
C646 C643 1.391 . S
C646 C645 1.392 . S
N647 Co591 2.257 1_545 S
N647 C644 1.391 . S
N647 C648 1.388 . S
C648 H619 0.930 1_545 S
C648 C643 1.391 . S
C648 N647 1.388 . S
Co649 O651 2.143 . S
Co649 O657 2.074 . S
Co649 O660 2.093 . S
Co649 O673 2.097 . S
Co649 N690 2.151 . S
Co649 N698 2.214 . S
Co650 O651 2.160 . S
Co650 O656 2.058 . S
Co650 O666 2.057 . S
Co650 O681 2.037 1_455 S
Co650 N685 2.145 1_455 S
Co650 N706 2.257 1_455 S
O651 Co649 2.143 . S
O651 Co650 2.160 . S
C652 O653 1.278 . S
C652 O660 1.224 . S
O653 C652 1.278 . S
C654 O655 1.245 . S
C654 O666 1.232 . S
O655 C654 1.245 . S
O656 Co650 2.058 . S
O656 C682 1.269 . S
O657 Co649 2.074 . S
O657 C682 1.257 . S
H658 C683 0.930 . S
H659 C689 0.930 . S
O660 Co649 2.093 . S
O660 C652 1.224 . S
H661 C693 0.929 . S
H662 C695 0.930 . S
H663 C696 0.930 . S
H664 C694 0.929 . S
H665 C697 0.928 . S
O666 Co650 2.057 . S
O666 C654 1.232 . S
H667 C686 0.929 . S
H668 C687 0.929 . S
H669 C699 0.931 . S
H670 C691 0.929 . S
H671 C700 0.930 . S
H672 C692 0.931 . S
O673 Co649 2.097 . S
O673 C701 1.214 . S
H674 C702 0.929 . S
H675 C703 0.929 . S
H676 C704 0.930 . S
H677 C705 0.929 . S
H678 C707 0.930 1_455 S
H679 C684 0.930 . S
H680 C688 0.930 . S
O681 Co650 2.037 1_655 S
O681 C701 1.234 1_655 S
C682 O656 1.269 . S
C682 O657 1.257 . S
C683 H658 0.930 . S
C683 C686 1.388 . S
C683 C688 1.418 . S
C684 H679 0.930 . S
C684 C687 1.404 . S
C684 C688 1.353 . S
N685 Co650 2.145 1_655 S
N685 C686 1.397 . S
N685 C687 1.334 . S
C686 H667 0.929 . S
C686 C683 1.388 . S
C686 N685 1.397 . S
C687 H668 0.929 . S
C687 C684 1.404 . S
C687 N685 1.334 . S
C688 H680 0.930 . S
C688 C683 1.418 . S
C688 C684 1.353 . S
C689 H659 0.930 . S
C689 N690 1.330 . S
C689 C691 1.446 . S
N690 Co649 2.151 . S
N690 C689 1.330 . S
N690 C694 1.418 . S
C691 H670 0.929 . S
C691 C689 1.446 . S
C691 C692 1.332 . S
C692 H672 0.931 . S
C692 C691 1.332 . S
C692 C693 1.267 . S
C693 H661 0.929 . S
C693 C692 1.267 . S
C693 C694 1.251 . S
C694 H664 0.929 . S
C694 N690 1.418 . S
C694 C693 1.251 . S
C695 H662 0.930 . S
C695 C697 1.406 . S
C695 C700 1.261 . S
C696 H663 0.930 . S
C696 N698 1.325 . S
C696 C699 1.357 . S
C697 H665 0.928 . S
C697 C695 1.406 . S
C697 N698 1.261 . S
N698 Co649 2.214 . S
N698 C696 1.325 . S
N698 C697 1.261 . S
C699 H669 0.931 . S
C699 C696 1.357 . S
C699 C700 1.312 . S
C700 H671 0.930 . S
C700 C695 1.261 . S
C700 C699 1.312 . S
C701 O673 1.214 . S
C701 O681 1.234 1_455 S
C702 H674 0.929 . S
C702 C705 1.391 . S
C702 C707 1.391 . S
C703 H675 0.929 . S
C703 C704 1.390 . S
C703 N706 1.391 . S
C704 H676 0.930 . S
C704 C703 1.390 . S
C704 C705 1.392 . S
C705 H677 0.929 . S
C705 C702 1.391 . S
C705 C704 1.392 . S
N706 Co650 2.257 1_655 S
N706 C703 1.391 . S
N706 C707 1.388 . S
C707 H678 0.930 1_655 S
C707 C702 1.391 . S
C707 N706 1.388 . S
Co708 O710 2.143 . S
Co708 O716 2.074 . S
Co708 O719 2.093 . S
Co708 O732 2.097 . S
Co708 N749 2.151 . S
Co708 N757 2.214 . S
Co709 O710 2.160 . S
Co709 O715 2.058 . S
Co709 O725 2.057 . S
Co709 O740 2.037 1_565 S
Co709 N744 2.145 1_565 S
Co709 N765 2.257 1_565 S
O710 Co708 2.143 . S
O710 Co709 2.160 . S
C711 O712 1.278 . S
C711 O719 1.224 . S
O712 C711 1.278 . S
C713 O714 1.245 . S
C713 O725 1.232 . S
O714 C713 1.245 . S
O715 Co709 2.058 . S
O715 C741 1.269 . S
O716 Co708 2.074 . S
O716 C741 1.257 . S
H717 C742 0.930 . S
H718 C748 0.930 . S
O719 Co708 2.093 . S
O719 C711 1.224 . S
H720 C752 0.929 . S
H721 C754 0.930 . S
H722 C755 0.930 . S
H723 C753 0.929 . S
H724 C756 0.928 . S
O725 Co709 2.057 . S
O725 C713 1.232 . S
H726 C745 0.929 . S
H727 C746 0.929 . S
H728 C758 0.931 . S
H729 C750 0.929 . S
H730 C759 0.930 . S
H731 C751 0.931 . S
O732 Co708 2.097 . S
O732 C760 1.214 . S
H733 C761 0.929 . S
H734 C762 0.929 . S
H735 C763 0.930 . S
H736 C764 0.929 . S
H737 C766 0.930 1_565 S
H738 C743 0.930 . S
H739 C747 0.930 . S
O740 Co709 2.037 1_545 S
O740 C760 1.234 1_545 S
C741 O715 1.269 . S
C741 O716 1.257 . S
C742 H717 0.930 . S
C742 C745 1.388 . S
C742 C747 1.418 . S
C743 H738 0.930 . S
C743 C746 1.404 . S
C743 C747 1.353 . S
N744 Co709 2.145 1_545 S
N744 C745 1.397 . S
N744 C746 1.334 . S
C745 H726 0.929 . S
C745 C742 1.388 . S
C745 N744 1.397 . S
C746 H727 0.929 . S
C746 C743 1.404 . S
C746 N744 1.334 . S
C747 H739 0.930 . S
C747 C742 1.418 . S
C747 C743 1.353 . S
C748 H718 0.930 . S
C748 N749 1.330 . S
C748 C750 1.446 . S
N749 Co708 2.151 . S
N749 C748 1.330 . S
N749 C753 1.418 . S
C750 H729 0.929 . S
C750 C748 1.446 . S
C750 C751 1.332 . S
C751 H731 0.931 . S
C751 C750 1.332 . S
C751 C752 1.267 . S
C752 H720 0.929 . S
C752 C751 1.267 . S
C752 C753 1.251 . S
C753 H723 0.929 . S
C753 N749 1.418 . S
C753 C752 1.251 . S
C754 H721 0.930 . S
C754 C756 1.406 . S
C754 C759 1.261 . S
C755 H722 0.930 . S
C755 N757 1.325 . S
C755 C758 1.357 . S
C756 H724 0.928 . S
C756 C754 1.406 . S
C756 N757 1.261 . S
N757 Co708 2.214 . S
N757 C755 1.325 . S
N757 C756 1.261 . S
C758 H728 0.931 . S
C758 C755 1.357 . S
C758 C759 1.312 . S
C759 H730 0.930 . S
C759 C754 1.261 . S
C759 C758 1.312 . S
C760 O732 1.214 . S
C760 O740 1.234 1_565 S
C761 H733 0.929 . S
C761 C764 1.391 . S
C761 C766 1.391 . S
C762 H734 0.929 . S
C762 C763 1.390 . S
C762 N765 1.391 . S
C763 H735 0.930 . S
C763 C762 1.390 . S
C763 C764 1.392 . S
C764 H736 0.929 . S
C764 C761 1.391 . S
C764 C763 1.392 . S
N765 Co709 2.257 1_545 S
N765 C762 1.391 . S
N765 C766 1.388 . S
C766 H737 0.930 1_545 S
C766 C761 1.391 . S
C766 N765 1.388 . S
Co767 O769 2.143 . S
Co767 O775 2.074 . S
Co767 O778 2.093 . S
Co767 O791 2.097 . S
Co767 N808 2.151 . S
Co767 N816 2.214 1_545 S
Co768 O769 2.160 . S
Co768 O774 2.058 . S
Co768 O784 2.057 . S
Co768 O799 2.037 1_455 S
Co768 N803 2.145 1_455 S
Co768 N824 2.257 1_455 S
O769 Co767 2.143 . S
O769 Co768 2.160 . S
C770 O771 1.278 1_554 S
C770 O778 1.224 1_554 S
O771 C770 1.278 1_556 S
C772 O773 1.245 . S
C772 O784 1.232 . S
O773 C772 1.245 . S
O774 Co768 2.058 . S
O774 C800 1.269 . S
O775 Co767 2.074 . S
O775 C800 1.257 . S
H776 C801 0.930 . S
H777 C807 0.930 . S
O778 Co767 2.093 . S
O778 C770 1.224 1_556 S
H779 C811 0.929 . S
H780 C813 0.930 . S
H781 C814 0.930 . S
H782 C812 0.929 . S
H783 C815 0.928 . S
O784 Co768 2.057 . S
O784 C772 1.232 . S
H785 C804 0.929 . S
H786 C805 0.929 . S
H787 C817 0.931 . S
H788 C809 0.929 . S
H789 C818 0.930 . S
H790 C810 0.931 . S
O791 Co767 2.097 . S
O791 C819 1.214 . S
H792 C820 0.929 1_554 S
H793 C821 0.929 . S
H794 C822 0.930 . S
H795 C823 0.929 1_554 S
H796 C825 0.930 1_455 S
H797 C802 0.930 . S
H798 C806 0.930 . S
O799 Co768 2.037 1_655 S
O799 C819 1.234 1_655 S
C800 O774 1.269 . S
C800 O775 1.257 . S
C801 H776 0.930 . S
C801 C804 1.388 . S
C801 C806 1.418 . S
C802 H797 0.930 . S
C802 C805 1.404 . S
C802 C806 1.353 . S
N803 Co768 2.145 1_655 S
N803 C804 1.397 . S
N803 C805 1.334 . S
C804 H785 0.929 . S
C804 C801 1.388 . S
C804 N803 1.397 . S
C805 H786 0.929 . S
C805 C802 1.404 . S
C805 N803 1.334 . S
C806 H798 0.930 . S
C806 C801 1.418 . S
C806 C802 1.353 . S
C807 H777 0.930 . S
C807 N808 1.330 . S
C807 C809 1.446 . S
N808 Co767 2.151 . S
N808 C807 1.330 . S
N808 C812 1.418 . S
C809 H788 0.929 . S
C809 C807 1.446 . S
C809 C810 1.332 . S
C810 H790 0.931 . S
C810 C809 1.332 . S
C810 C811 1.267 . S
C811 H779 0.929 . S
C811 C810 1.267 . S
C811 C812 1.251 . S
C812 H782 0.929 . S
C812 N808 1.418 . S
C812 C811 1.251 . S
C813 H780 0.930 . S
C813 C815 1.406 . S
C813 C818 1.261 . S
C814 H781 0.930 . S
C814 N816 1.325 . S
C814 C817 1.357 . S
C815 H783 0.928 . S
C815 C813 1.406 . S
C815 N816 1.261 . S
N816 Co767 2.214 1_565 S
N816 C814 1.325 . S
N816 C815 1.261 . S
C817 H787 0.931 . S
C817 C814 1.357 . S
C817 C818 1.312 . S
C818 H789 0.930 . S
C818 C813 1.261 . S
C818 C817 1.312 . S
C819 O791 1.214 . S
C819 O799 1.234 1_455 S
C820 H792 0.929 1_556 S
C820 C823 1.391 . S
C820 C825 1.391 . S
C821 H793 0.929 . S
C821 C822 1.390 . S
C821 N824 1.391 . S
C822 H794 0.930 . S
C822 C821 1.390 . S
C822 C823 1.392 . S
C823 H795 0.929 1_556 S
C823 C820 1.391 . S
C823 C822 1.392 . S
N824 Co768 2.257 1_655 S
N824 C821 1.391 . S
N824 C825 1.388 . S
C825 H796 0.930 1_655 S
C825 C820 1.391 . S
C825 N824 1.388 . S
Co826 O828 2.143 . S
Co826 O834 2.074 1_554 S
Co826 O837 2.093 . S
Co826 O850 2.097 . S
Co826 N867 2.151 . S
Co826 N875 2.214 1_655 S
Co827 O828 2.160 1_556 S
Co827 O833 2.058 . S
Co827 O843 2.057 . S
Co827 O858 2.037 . S
Co827 N862 2.145 . S
Co827 N883 2.257 1_556 S
O828 Co826 2.143 . S
O828 Co827 2.160 1_554 S
C829 O830 1.278 . S
C829 O837 1.224 . S
O830 C829 1.278 . S
C831 O832 1.245 1_556 S
C831 O843 1.232 . S
O832 C831 1.245 1_554 S
O833 Co827 2.058 . S
O833 C859 1.269 . S
O834 Co826 2.074 1_556 S
O834 C859 1.257 . S
H835 C860 0.930 . S
H836 C866 0.930 . S
O837 Co826 2.093 . S
O837 C829 1.224 . S
H838 C870 0.935 . S
H839 C872 0.930 . S
H840 C873 0.930 1_556 S
H841 C871 0.929 . S
H842 C874 0.928 . S
O843 Co827 2.057 . S
O843 C831 1.232 . S
H844 C863 0.929 . S
H845 C864 0.929 . S
H846 C876 0.931 . S
H847 C868 0.929 . S
H848 C877 0.930 . S
H849 C869 0.931 . S
O850 Co826 2.097 . S
O850 C878 1.214 . S
H851 C879 0.929 . S
H852 C880 0.929 . S
H853 C881 0.930 . S
H854 C882 0.929 . S
H855 C884 0.930 . S
H856 C861 0.930 . S
H857 C865 0.930 . S
O858 Co827 2.037 . S
O858 C878 1.234 1_556 S
C859 O833 1.269 . S
C859 O834 1.257 . S
C860 H835 0.930 . S
C860 C863 1.388 . S
C860 C865 1.418 . S
C861 H856 0.930 . S
C861 C864 1.404 . S
C861 C865 1.353 . S
N862 Co827 2.145 . S
N862 C863 1.397 . S
N862 C864 1.334 . S
C863 H844 0.929 . S
C863 C860 1.388 . S
C863 N862 1.397 . S
C864 H845 0.929 . S
C864 C861 1.404 . S
C864 N862 1.334 . S
C865 H857 0.930 . S
C865 C860 1.418 . S
C865 C861 1.353 . S
C866 H836 0.930 . S
C866 N867 1.330 . S
C866 C868 1.446 . S
N867 Co826 2.151 . S
N867 C866 1.330 . S
N867 C871 1.418 1_554 S
C868 H847 0.929 . S
C868 C866 1.446 . S
C868 C869 1.332 . S
C869 H849 0.931 . S
C869 C868 1.332 . S
C869 C870 1.262 1_554 S
C870 H838 0.935 . S
C870 C869 1.262 1_556 S
C870 C871 1.251 . S
C871 H841 0.929 . S
C871 N867 1.418 1_556 S
C871 C870 1.251 . S
C872 H839 0.930 . S
C872 C874 1.406 . S
C872 C877 1.261 . S
C873 H840 0.930 1_554 S
C873 N875 1.325 . S
C873 C876 1.357 1_554 S
C874 H842 0.928 . S
C874 C872 1.406 . S
C874 N875 1.261 . S
N875 Co826 2.214 1_455 S
N875 C873 1.325 . S
N875 C874 1.261 . S
C876 H846 0.931 . S
C876 C873 1.357 1_556 S
C876 C877 1.312 1_556 S
C877 H848 0.930 . S
C877 C872 1.261 . S
C877 C876 1.312 1_554 S
C878 O850 1.214 . S
C878 O858 1.234 1_554 S
C879 H851 0.929 . S
C879 C882 1.391 . S
C879 C884 1.391 . S
C880 H852 0.929 . S
C880 C881 1.390 . S
C880 N883 1.391 . S
C881 H853 0.930 . S
C881 C880 1.390 . S
C881 C882 1.392 . S
C882 H854 0.929 . S
C882 C879 1.391 . S
C882 C881 1.392 . S
N883 Co827 2.257 1_554 S
N883 C880 1.391 . S
N883 C884 1.388 . S
C884 H855 0.930 . S
C884 C879 1.391 . S
C884 N883 1.388 . S
Co885 O887 2.143 . S
Co885 O893 2.074 . S
Co885 O896 2.093 . S
Co885 O909 2.097 . S
Co885 N926 2.151 . S
Co885 N934 2.214 . S
Co886 O887 2.160 . S
Co886 O892 2.058 . S
Co886 O902 2.057 . S
Co886 O917 2.037 . S
Co886 N921 2.145 . S
Co886 N942 2.257 . S
O887 Co885 2.143 . S
O887 Co886 2.160 . S
C888 O889 1.278 . S
C888 O896 1.224 . S
O889 C888 1.278 . S
C890 O891 1.245 . S
C890 O902 1.232 . S
O891 C890 1.245 . S
O892 Co886 2.058 . S
O892 C918 1.269 . S
O893 Co885 2.074 . S
O893 C918 1.257 . S
H894 C919 0.930 . S
H895 C925 0.930 . S
O896 Co885 2.093 . S
O896 C888 1.224 . S
H897 C929 0.929 . S
H898 C931 0.930 . S
H899 C932 0.930 . S
H900 C930 0.929 . S
H901 C933 0.928 . S
O902 Co886 2.057 . S
O902 C890 1.232 . S
H903 C922 0.929 . S
H904 C923 0.929 . S
H905 C935 0.931 . S
H906 C927 0.929 . S
H907 C936 0.930 . S
H908 C928 0.931 . S
O909 Co885 2.097 . S
O909 C937 1.214 . S
H910 C938 0.929 . S
H911 C939 0.929 . S
H912 C940 0.930 . S
H913 C941 0.929 . S
H914 C943 0.930 . S
H915 C920 0.930 1_556 S
H916 C924 0.930 . S
O917 Co886 2.037 . S
O917 C937 1.234 . S
C918 O892 1.269 . S
C918 O893 1.257 . S
C919 H894 0.930 . S
C919 C922 1.388 1_556 S
C919 C924 1.418 . S
C920 H915 0.930 1_554 S
C920 C923 1.404 . S
C920 C924 1.353 1_554 S
N921 Co886 2.145 . S
N921 C922 1.397 . S
N921 C923 1.334 . S
C922 H903 0.929 . S
C922 C919 1.388 1_554 S
C922 N921 1.397 . S
C923 H904 0.929 . S
C923 C920 1.404 . S
C923 N921 1.334 . S
C924 H916 0.930 . S
C924 C919 1.418 . S
C924 C920 1.353 1_556 S
C925 H895 0.930 . S
C925 N926 1.330 . S
C925 C927 1.446 . S
N926 Co885 2.151 . S
N926 C925 1.330 . S
N926 C930 1.418 . S
C927 H906 0.929 . S
C927 C925 1.446 . S
C927 C928 1.332 . S
C928 H908 0.931 . S
C928 C927 1.332 . S
C928 C929 1.267 . S
C929 H897 0.929 . S
C929 C928 1.267 . S
C929 C930 1.251 . S
C930 H900 0.929 . S
C930 N926 1.418 . S
C930 C929 1.251 . S
C931 H898 0.930 . S
C931 C933 1.406 . S
C931 C936 1.261 . S
C932 H899 0.930 . S
C932 N934 1.325 . S
C932 C935 1.357 . S
C933 H901 0.928 . S
C933 C931 1.406 . S
C933 N934 1.261 . S
N934 Co885 2.214 . S
N934 C932 1.325 . S
N934 C933 1.261 . S
C935 H905 0.931 . S
C935 C932 1.357 . S
C935 C936 1.312 . S
C936 H907 0.930 . S
C936 C931 1.261 . S
C936 C935 1.312 . S
C937 O909 1.214 . S
C937 O917 1.234 . S
C938 H910 0.929 . S
C938 C941 1.391 . S
C938 C943 1.391 . S
C939 H911 0.929 . S
C939 C940 1.390 . S
C939 N942 1.391 . S
C940 H912 0.930 . S
C940 C939 1.390 . S
C940 C941 1.392 . S
C941 H913 0.929 . S
C941 C938 1.391 . S
C941 C940 1.392 . S
N942 Co886 2.257 . S
N942 C939 1.391 . S
N942 C943 1.388 . S
C943 H914 0.930 . S
C943 C938 1.391 . S
C943 N942 1.388 . S
C359 C5 1.631 . S
C418 C64 1.631 . S
C123 C241 1.631 . S
C182 C300 1.631 . S
C477 C831 1.631 . S
C890 C536 1.631 . S
C595 C713 1.631 . S
C654 C772 1.631 . S
C52 C642 1.486 1_445 S
C111 C701 1.487 1_655 S
C170 C524 1.486 . S
C229 C583 1.486 1_565 S
C288 C878 1.486 1_455 S
C937 C347 1.486 . S
C406 C760 1.486 1_545 S
C819 C465 1.486 1_445 S
C800 C33 0.973 . S
C92 C859 0.973 . S
C918 C151 0.973 . S
C741 C210 0.973 . S
C682 C269 0.973 . S
C328 C505 0.973 . S
C387 C564 0.973 . S
C446 C623 0.973 . S
C770 C3 1.588 . S
C62 C829 1.589 . S
C121 C888 1.588 . S
C711 C180 1.589 . S
C652 C239 1.589 . S
C475 C298 1.588 . S
C357 C534 1.589 . S
C593 C416 1.588 . S
