# Generated by pormake.
# Topology sxa, (6)-cn, num edge types: 1
# Building blocks:
#     Node 0, Type 0, BuildingBlock: BETDEL_clean_sbu_0, # of connection points: 6
#     Node 1, Type 0, BuildingBlock: BETDEL_clean_sbu_0, # of connection points: 6
#     Node 2, Type 0, BuildingBlock: BETDEL_clean_sbu_0, # of connection points: 6
#     Node 3, Type 0, BuildingBlock: BETDEL_clean_sbu_0, # of connection points: 6
#     Edge 4, Type (0, 0), BuildingBlock: TEMPAE_clean_linker_10, # of connection points: 2
#     Edge 5, Type (0, 0), BuildingBlock: TEMPAE_clean_linker_10, # of connection points: 2
#     Edge 6, Type (0, 0), BuildingBlock: TEMPAE_clean_linker_10, # of connection points: 2
#     Edge 7, Type (0, 0), BuildingBlock: TEMPAE_clean_linker_10, # of connection points: 2
#     Edge 8, Type (0, 0), BuildingBlock: TEMPAE_clean_linker_10, # of connection points: 2
#     Edge 9, Type (0, 0), BuildingBlock: TEMPAE_clean_linker_10, # of connection points: 2
#     Edge 10, Type (0, 0), BuildingBlock: TEMPAE_clean_linker_10, # of connection points: 2
#     Edge 11, Type (0, 0), BuildingBlock: TEMPAE_clean_linker_10, # of connection points: 2
#     Edge 12, Type (0, 0), BuildingBlock: TEMPAE_clean_linker_10, # of connection points: 2
#     Edge 13, Type (0, 0), BuildingBlock: TEMPAE_clean_linker_10, # of connection points: 2
#     Edge 14, Type (0, 0), BuildingBlock: TEMPAE_clean_linker_10, # of connection points: 2
#     Edge 15, Type (0, 0), BuildingBlock: TEMPAE_clean_linker_10, # of connection points: 2
# Relax obj value: 0.078
# Max RMSD: 0.219
# Mean RMSD: 0.219
data_MOF--net-sxa--node1-BETDEL_clean_sbu_0--edge1-TEMPAE_clean_linker_10
_symmetry_space_group_name_H-M    P1
_symmetry_Int_Tables_number       1
_symmetry_cell_setting            triclinic
loop_
_symmetry_equiv_pos_as_xyz
'x, y, z'
_cell_length_a     29.016451
_cell_length_b     27.850418
_cell_length_c     13.111066
_cell_angle_alpha  91.897725
_cell_angle_beta   90.256078
_cell_angle_gamma 89.929302
loop_
_atom_site_label
_atom_site_type_symbol
_atom_site_fract_x
_atom_site_fract_y
_atom_site_fract_z
_atom_type_partial_charge
Dy0 Dy 0.05708 0.79527 0.07825 0.0
C1 C 0.91591 0.76866 0.37753 0.0
C2 C 0.12612 0.81322 0.9442 0.0
Dy3 Dy 0.98721 0.79105 0.2498 0.0
O4 O 0.10724 0.77169 0.95701 0.0
O5 O 0.10252 0.84521 -0.00452 0.0
O6 O 0.07841 0.72073 0.11497 0.0
O7 O 1.00905 0.73937 0.12832 0.0
C8 C 0.03762 0.70531 0.13658 0.0
C9 C 1.00198 0.88004 0.18144 0.0
O10 O 0.05424 0.77885 0.33717 0.0
O11 O 0.10148 0.81086 0.21461 0.0
O12 O 0.94204 0.80651 0.3875 0.0
O13 O 0.93124 0.74151 0.30268 0.0
O14 O 0.96375 0.86716 0.22321 0.0
O15 O 0.03141 0.84702 0.19033 0.0
O16 O 0.99451 0.81135 0.9866 0.0
O17 O 0.94284 0.78844 0.11102 0.0
C18 C 0.09503 0.79549 0.30778 0.0
C19 C 0.95235 0.80339 0.01882 0.0
Dy20 Dy 0.55502 0.26999 0.07018 0.0
C21 C 0.40585 0.29042 0.36213 0.0
C22 C 0.62233 0.25838 0.92701 0.0
Dy23 Dy 0.48584 0.2883 0.25006 0.0
O24 O 0.59042 0.22739 0.94648 0.0
O25 O 0.61207 0.29848 0.97538 0.0
O26 O 0.57539 0.20454 0.15359 0.0
O27 O 0.50729 0.22463 0.1544 0.0
C28 C 0.53414 0.19019 0.17365 0.0
C29 C 0.50833 0.37191 0.16066 0.0
O30 O 0.55426 0.28468 0.33569 0.0
O31 O 0.59958 0.30115 0.19467 0.0
O32 O 0.41433 0.31442 0.28155 0.0
O33 O 0.44234 0.26503 0.38511 0.0
O34 O 0.48138 0.36983 0.2388 0.0
O35 O 0.52206 0.33011 0.14122 0.0
O36 O 0.48997 0.27242 0.97791 0.0
O37 O 0.44431 0.25801 0.11916 0.0
C38 C 0.59463 0.29636 0.29423 0.0
C39 C 0.44995 0.26148 0.01937 0.0
Dy40 Dy 0.05197 0.26743 0.92427 0.0
C41 C 0.91233 0.3079 0.62584 0.0
C42 C 0.12692 0.23802 0.03241 0.0
Dy43 Dy 0.98404 0.28324 0.75303 0.0
O44 O 0.11746 0.28207 0.01092 0.0
O45 O 0.09342 0.21071 0.00021 0.0
O46 O 0.02346 0.32888 0.01477 0.0
O47 O 0.02463 0.33334 0.85386 0.0
C48 C 1.01254 0.3546 0.93735 0.0
C49 C 0.99686 0.18991 0.79916 0.0
O50 O 0.04943 0.29492 0.66268 0.0
O51 O 0.10034 0.28061 0.79634 0.0
O52 O 0.94358 0.27546 0.60487 0.0
O53 O 0.92284 0.32942 0.71237 0.0
O54 O 0.95809 0.20733 0.76843 0.0
O55 O 0.02694 0.22251 0.79768 0.0
O56 O 0.98853 0.23857 -0.00547 0.0
O57 O 0.94262 0.28679 0.89643 0.0
C58 C 0.09201 0.29075 0.70021 0.0
C59 C 0.94863 0.25911 0.97531 0.0
Dy60 Dy 0.55285 0.77324 0.92 0.0
C61 C 0.41228 0.78845 0.63077 0.0
C62 C 0.62963 0.7754 0.04179 0.0
Dy63 Dy 0.49217 0.76944 0.7381 0.0
O64 O 0.5977 0.80782 0.03979 0.0
O65 O 0.61575 0.73878 0.98605 0.0
O66 O 0.52174 0.84236 0.9674 0.0
O67 O 0.53265 0.82898 0.81023 0.0
C68 C 0.51668 0.8588 0.87721 0.0
C69 C 0.52155 0.68225 0.79544 0.0
O70 O 0.55804 0.78436 0.65414 0.0
O71 O 0.60187 0.76032 0.79057 0.0
O72 O 0.44274 0.75599 0.60444 0.0
O73 O 0.42711 0.81186 0.71131 0.0
O74 O 0.5113 0.69177 0.70165 0.0
O75 O 0.51022 0.71729 0.85244 0.0
O76 O 0.49197 0.75313 0.01031 0.0
O77 O 0.44578 0.77441 0.87455 0.0
C78 C 0.59815 0.7712 0.69363 0.0
C79 C 0.45139 0.76403 0.9718 0.0
C80 C 0.0182 0.44073 0.88326 0.0
C81 C 1.0039 0.40695 0.9534 0.0
C82 C 0.01816 0.49036 0.90971 0.0
C83 C 1.00345 0.50645 0.00836 0.0
C84 C 0.98613 0.4725 0.07639 0.0
C85 C 0.98657 0.42341 0.0481 0.0
C86 C 0.0364 0.5253 0.83428 0.0
C87 C 0.96994 0.48759 0.18198 0.0
C88 C 0.06025 0.61884 0.12597 0.0
C89 C 0.02605 0.65393 0.11497 0.0
C90 C 0.0531 0.57095 0.09225 0.0
C91 C 1.01078 0.55755 0.04492 0.0
C92 C 0.97565 0.59265 0.03545 0.0
C93 C 0.98358 0.64034 0.07116 0.0
C94 C 0.09127 0.53478 0.10596 0.0
C95 C 0.93017 0.58012 0.98514 0.0
H96 H 0.03176 0.4283 0.81013 0.0
H97 H 0.97512 0.39748 0.10244 0.0
H98 H 1.01275 0.55644 0.82842 0.0
H99 H 0.07023 0.53937 0.86128 0.0
H100 H 0.04097 0.50829 0.75714 0.0
H101 H 0.95292 0.45773 0.22142 0.0
H102 H 0.99987 0.5 0.22875 0.0
H103 H 0.94544 0.51808 0.17827 0.0
H104 H 0.09318 0.62914 0.15936 0.0
H105 H 0.95717 0.66737 0.06107 0.0
H106 H 0.10225 0.51977 0.03047 0.0
H107 H 0.07861 0.50441 0.15077 0.0
H108 H 0.12182 0.55072 0.14557 0.0
H109 H 0.93606 0.56773 0.90494 0.0
H110 H 0.90604 0.61113 0.98545 0.0
H111 H 0.91358 0.5501 0.02458 0.0
C112 C 0.48223 0.45154 0.10365 0.0
C113 C 0.51516 0.41475 0.09883 0.0
C114 C 0.48667 0.49254 0.04522 0.0
C115 C 0.52587 0.49775 0.98252 0.0
C116 C 0.55949 0.46071 0.97768 0.0
C117 C 0.55337 0.41919 0.03488 0.0
C118 C 0.44937 0.53044 0.05112 0.0
C119 C 0.60238 0.46548 0.91421 0.0
C120 C 0.51333 0.59254 0.78095 0.0
C121 C 0.52906 0.63366 0.83481 0.0
C122 C 0.51398 0.54733 0.82615 0.0
C123 C 0.53196 0.54312 0.9263 0.0
C124 C 0.5508 0.58414 0.97773 0.0
C125 C 0.54837 0.62897 0.93209 0.0
C126 C 0.49257 0.50484 0.76952 0.0
C127 C 0.57136 0.58127 0.08335 0.0
H128 H 0.45239 0.44793 0.15231 0.0
H129 H 0.57894 0.39079 0.03152 0.0
H130 H 0.46353 0.56431 0.08527 0.0
H131 H 0.43682 0.53833 0.97337 0.0
H132 H 0.41957 0.51932 0.09767 0.0
H133 H 0.62452 0.43293 0.91606 0.0
H134 H 0.59303 0.47214 0.83381 0.0
H135 H 0.62271 0.49687 0.94293 0.0
H136 H 0.49809 0.59614 0.70594 0.0
H137 H 0.5606 0.66071 0.97383 0.0
H138 H 0.46009 0.49486 0.80784 0.0
H139 H 0.5158 0.47323 0.77108 0.0
H140 H 0.48459 0.51268 0.6888 0.0
H141 H 0.5435 0.57592 0.13951 0.0
H142 H 0.59051 0.61445 0.10634 0.0
H143 H 0.59512 0.55013 0.08727 0.0
C144 C 0.55484 0.93818 0.87236 0.0
C145 C 0.51395 0.91146 0.87036 0.0
C146 C 0.55584 0.98554 0.91396 0.0
C147 C 0.51511 1.00624 0.95608 0.0
C148 C 0.47308 0.98068 0.94629 0.0
C149 C 0.47308 0.93379 0.90303 0.0
C150 C 0.6012 1.01193 0.91987 0.0
C151 C 0.42875 1.00103 0.98948 0.0
C152 C 0.53108 0.09969 0.17469 0.0
C153 C 0.52339 0.14264 0.12487 0.0
C154 C 0.52738 0.05494 0.12123 0.0
C155 C 0.51691 0.05329 0.01505 0.0
C156 C 0.50885 0.09672 0.96507 0.0
C157 C 0.51232 0.1406 0.02035 0.0
C158 C 0.53558 1.00941 0.17785 0.0
C159 C 0.49814 0.09707 0.85228 0.0
H160 H 0.58681 0.92062 0.85014 0.0
H161 H 0.44162 0.91299 0.90284 0.0
H162 H 0.59702 0.04916 0.89365 0.0
H163 H 0.61322 1.01435 0.00032 0.0
H164 H 0.62824 0.99357 0.87316 0.0
H165 H 0.39828 0.97942 0.96478 0.0
H166 H 0.4306 1.00162 0.07408 0.0
H167 H 0.42358 0.03857 0.96613 0.0
H168 H 0.5408 0.10114 0.25464 0.0
H169 H 0.50804 0.17376 0.98044 0.0
H170 H 0.56625 0.99043 0.14622 0.0
H171 H 0.50569 0.98489 0.16729 0.0
H172 H 0.54117 1.01651 0.26086 0.0
H173 H 0.52795 0.08249 0.80848 0.0
H174 H 0.49045 0.13377 0.826 0.0
H175 H 0.46818 0.07361 0.83389 0.0
C176 C 0.02266 0.92445 0.02458 0.0
C177 C 1.0079 0.92536 0.12616 0.0
C178 C 0.0236 0.96638 0.96763 0.0
C179 C 1.01021 1.01087 0.01394 0.0
C180 C 0.99628 1.01225 0.11762 0.0
C181 C 0.99447 0.96937 0.17179 0.0
C182 C 0.03665 0.96251 0.85629 0.0
C183 C 0.98257 0.05894 0.17084 0.0
C184 C 0.04423 0.1268 0.88484 0.0
C185 C 1.00201 0.1419 0.84476 0.0
C186 C 0.04747 0.08466 0.94117 0.0
C187 C 1.00802 0.05527 0.95237 0.0
C188 C 0.96618 0.06841 0.90449 0.0
C189 C 0.96361 0.11167 0.85224 0.0
C190 C 0.09275 0.07236 0.99109 0.0
C191 C 0.92366 0.03742 0.91036 0.0
H192 H 0.03115 0.89063 0.98736 0.0
H193 H 0.98247 0.97022 0.25003 0.0
H194 H 1.00634 0.97148 0.80861 0.0
H195 H 0.06417 0.98861 0.83943 0.0
H196 H 0.04876 0.92589 0.83321 0.0
H197 H 0.97663 0.05476 0.25372 0.0
H198 H 1.00978 0.08637 0.161 0.0
H199 H 0.9505 0.07282 0.13607 0.0
H200 H 0.07465 0.14824 0.87316 0.0
H201 H 0.93106 0.12231 0.81887 0.0
H202 H 0.10496 0.03669 0.96242 0.0
H203 H 0.08793 0.07006 0.07473 0.0
H204 H 0.1199 0.0994 0.97688 0.0
H205 H 0.93224 0.99913 0.89363 0.0
H206 H 0.8964 0.04853 0.85623 0.0
H207 H 0.90947 0.04005 0.98876 0.0
C208 C 0.33029 0.81646 0.64687 0.0
C209 C 0.36453 0.79248 0.58918 0.0
C210 C 0.28401 0.81763 0.61357 0.0
C211 C 0.27154 0.79528 0.51868 0.0
C212 C 0.30634 0.77206 0.45904 0.0
C213 C 0.3521 0.77023 0.49573 0.0
C214 C 0.24856 0.84252 0.68077 0.0
C215 C 0.29528 0.74921 0.35591 0.0
C216 C 0.14775 0.76068 0.44088 0.0
C217 C 0.13575 0.7984 0.3777 0.0
C218 C 0.19112 0.75991 0.49074 0.0
C219 C 0.22292 0.79811 0.47847 0.0
C220 C 0.20926 0.83792 0.42111 0.0
C221 C 0.16635 0.83725 0.37056 0.0
C222 C 0.20299 0.71803 0.55598 0.0
C223 C 0.24081 0.88054 0.40978 0.0
H224 H 0.33943 0.83337 0.71986 0.0
H225 H 0.37828 0.75159 0.45087 0.0
H226 H 0.23927 0.87767 0.64939 0.0
H227 H 0.21655 0.82089 0.68379 0.0
H228 H 0.26169 0.84941 0.75957 0.0
H229 H 0.27165 0.71838 0.36512 0.0
H230 H 0.27737 0.77535 0.30739 0.0
H231 H 0.32673 0.73622 0.31567 0.0
H232 H 0.1243 0.73067 0.44714 0.0
H233 H 0.1571 0.86688 0.32287 0.0
H234 H 0.20466 0.73068 0.63699 0.0
H235 H 0.23731 0.70312 0.53545 0.0
H236 H 0.17703 0.68882 0.54887 0.0
H237 H 0.2496 0.89681 0.48544 0.0
H238 H 0.22502 0.90894 0.36342 0.0
H239 H 0.27368 0.86866 0.37405 0.0
C240 C 0.16958 0.32585 0.6725 0.0
C241 C 0.13355 0.29642 0.63571 0.0
C242 C 0.21321 0.32521 0.62604 0.0
C243 C 0.2218 0.29342 0.54159 0.0
C244 C 0.18515 0.26429 0.50252 0.0
C245 C 0.14137 0.26636 0.54963 0.0
C246 C 0.25002 0.35883 0.66767 0.0
C247 C 0.19259 0.22984 0.41293 0.0
C248 C 0.32555 0.32213 0.37605 0.0
C249 C 0.35969 0.29093 0.41184 0.0
C250 C 0.2806 0.32256 0.41586 0.0
C251 C 0.26904 0.2912 0.49448 0.0
C252 C 0.30351 0.2598 0.53167 0.0
C253 C 0.34835 0.25991 0.4898 0.0
C254 C 0.24538 0.35649 0.37305 0.0
C255 C 0.29301 0.22617 0.61607 0.0
H256 H 0.16381 0.34886 0.73961 0.0
H257 H 0.11404 0.24264 0.52248 0.0
H258 H 0.28393 0.34055 0.67102 0.0
H259 H 0.25365 0.38933 0.61602 0.0
H260 H 0.2414 0.37359 0.74502 0.0
H261 H 0.16033 0.21123 0.38858 0.0
H262 H 0.20643 0.24929 0.34741 0.0
H263 H 0.21855 0.20244 0.43329 0.0
H264 H 0.33379 0.34617 0.31541 0.0
H265 H 0.37437 0.23557 0.51757 0.0
H266 H 0.23295 0.38165 0.43429 0.0
H267 H 0.2151 0.33599 0.34362 0.0
H268 H 0.25949 0.37777 0.31018 0.0
H269 H 0.32384 0.20564 0.64005 0.0
H270 H 0.26587 0.20043 0.59038 0.0
H271 H 0.27943 0.24678 0.68322 0.0
C272 C 0.83134 0.34013 0.61715 0.0
C273 C 0.86629 0.31091 0.57464 0.0
C274 C 0.78591 0.33885 0.57798 0.0
C275 C 0.77483 0.30782 0.49347 0.0
C276 C 0.81033 0.27905 0.44878 0.0
C277 C 0.85537 0.28076 0.49008 0.0
C278 C 0.74948 0.36995 0.62871 0.0
C279 C 0.8006 0.24595 0.35783 0.0
C280 C 0.64861 0.27292 0.43656 0.0
C281 C 0.63749 0.30316 0.35665 0.0
C282 C 0.69298 0.27401 0.48209 0.0
C283 C 0.72677 0.30694 0.44886 0.0
C284 C 0.71493 0.33857 0.37046 0.0
C285 C 0.67084 0.3361 0.32534 0.0
C286 C 0.70386 0.2393 0.56462 0.0
C287 C 0.74899 0.3749 0.33307 0.0
H288 H 0.83917 0.36311 0.68328 0.0
H289 H 0.88192 0.25772 0.45714 0.0
H290 H 0.73445 0.39462 0.57274 0.0
H291 H 0.72107 0.34713 0.65608 0.0
H292 H 0.76333 0.39164 0.69453 0.0
H293 H 0.83229 0.22827 0.32756 0.0
H294 H 0.77587 0.21775 0.3796 0.0
H295 H 0.78431 0.26625 0.29592 0.0
H296 H 0.62344 0.24685 0.46014 0.0
H297 H 0.66265 0.35967 0.26357 0.0
H298 H 0.70865 0.25964 0.63774 0.0
H299 H 0.73653 0.21993 0.54775 0.0
H300 H 0.67596 0.21259 0.57427 0.0
H301 H 0.75355 0.40391 0.39227 0.0
H302 H 0.73735 0.39138 0.26134 0.0
H303 H 0.78321 0.35813 0.31986 0.0
C304 C 0.83754 0.73068 0.38309 0.0
C305 C 0.8696 0.76378 0.42449 0.0
C306 C 0.79157 0.72988 0.41756 0.0
C307 C 0.77726 0.76253 0.49642 0.0
C308 C 0.81006 0.79486 0.54075 0.0
C309 C 0.8555 0.79554 0.5034 0.0
C310 C 0.75806 0.69464 0.36846 0.0
C311 C 0.79726 0.82913 0.62743 0.0
C312 C 0.65115 0.796 0.55095 0.0
C313 C 0.64091 0.76601 0.63158 0.0
C314 C 0.69481 0.79392 0.50314 0.0
C315 C 0.7289 0.76123 0.53691 0.0
C316 C 0.71734 0.72892 0.61396 0.0
C317 C 0.67387 0.73193 0.66014 0.0
C318 C 0.70469 0.82707 0.41725 0.0
C319 C 0.75003 0.69029 0.64818 0.0
H320 H 0.848 0.70631 0.32126 0.0
H321 H 0.87993 0.82137 0.53547 0.0
H322 H 0.74399 0.6707 0.42649 0.0
H323 H 0.72854 0.71438 0.33559 0.0
H324 H 0.77427 0.67197 0.30722 0.0
H325 H 0.82811 0.84437 0.66715 0.0
H326 H 0.77668 0.85918 0.59748 0.0
H327 H 0.77579 0.81078 0.68383 0.0
H328 H 0.6258 0.82213 0.52775 0.0
H329 H 0.66586 0.7075 0.72031 0.0
H330 H 0.7192 0.80641 0.35095 0.0
H331 H 0.73082 0.85402 0.44235 0.0
H332 H 0.6733 0.84634 0.39208 0.0
H333 H 0.74174 0.65621 0.60587 0.0
H334 H 0.74551 0.68349 0.73053 0.0
H335 H 0.78667 0.69886 0.63413 0.0
C336 C 0.3811 0.7402 0.06032 0.0
C337 C 0.41226 0.77614 0.03626 0.0
C338 C 0.33365 0.74994 0.06028 0.0
C339 C 0.31803 0.7949 0.02508 0.0
C340 C 0.35013 0.83235 0.0108 0.0
C341 C 0.39674 0.82325 0.02662 0.0
C342 C 0.30098 0.7106 0.08918 0.0
C343 C 0.33738 0.8805 0.96824 0.0
C344 C 0.20288 0.78335 0.88787 0.0
C345 C 0.17639 0.81647 0.94445 0.0
C346 C 0.24981 0.77726 0.91029 0.0
C347 C 0.26916 0.80197 -0.00308 0.0
C348 C 0.24214 0.83539 0.05376 0.0
C349 C 0.19695 0.84401 0.02345 0.0
C350 C 0.27766 0.74378 0.84161 0.0
C351 C 0.25966 0.86166 0.14853 0.0
H352 H 0.39326 0.70375 0.06953 0.0
H353 H 0.42154 0.85105 0.01051 0.0
H354 H 0.26643 0.72472 0.11057 0.0
H355 H 0.29732 0.68424 0.02452 0.0
H356 H 0.31527 0.6906 0.15402 0.0
H357 H 0.36159 0.88961 0.90648 0.0
H358 H 0.30211 0.88204 0.93597 0.0
H359 H 0.34118 0.90882 0.02926 0.0
H360 H 0.18673 0.76155 0.82769 0.0
H361 H 0.17646 0.86926 0.06889 0.0
H362 H 0.27286 0.70633 0.86546 0.0
H363 H 0.31497 0.75247 0.843 0.0
H364 H 0.26528 0.74496 0.76163 0.0
H365 H 0.2312 0.86643 0.20382 0.0
H366 H 0.27125 0.89811 0.12884 0.0
H367 H 0.28843 0.84268 0.18598 0.0
C368 C 0.18948 0.19362 0.94658 0.0
C369 C 0.17471 0.22154 0.03109 0.0
C370 C 0.23619 0.19108 0.92085 0.0
C371 C 0.26882 0.21522 0.98447 0.0
C372 C 0.25422 0.23821 0.07717 0.0
C373 C 0.20702 0.24277 0.09728 0.0
C374 C 0.24897 0.1647 0.82263 0.0
C375 C 0.28794 0.26057 0.15278 0.0
C376 C 0.39682 0.19671 0.9749 0.0
C377 C 0.41117 0.24379 0.95773 0.0
C378 C 0.35 0.18484 0.97415 0.0
C379 C 0.31737 0.22074 0.95214 0.0
C380 C 0.33247 0.26578 0.91749 0.0
C381 C 0.37955 0.27707 0.92184 0.0
C382 C 0.33548 0.13636 0.0109 0.0
C383 C 0.29872 0.30425 0.88843 0.0
H384 H 0.16422 0.17752 0.89466 0.0
H385 H 0.19537 0.26461 0.16217 0.0
H386 H 0.28575 0.16829 0.80202 0.0
H387 H 0.24103 0.12595 0.82955 0.0
H388 H 0.22733 0.17782 0.75924 0.0
H389 H 0.27357 0.26098 0.23107 0.0
H390 H 0.32123 0.24092 0.15332 0.0
H391 H 0.29475 0.29828 0.1328 0.0
H392 H 0.42141 0.17117 0.00372 0.0
H393 H 0.39068 0.31357 0.90938 0.0
H394 H 0.31106 0.11903 0.95591 0.0
H395 H 0.3174 0.14102 0.08505 0.0
H396 H 0.3653 0.11188 0.02115 0.0
H397 H 0.31533 0.33122 0.84015 0.0
H398 H 0.28597 0.32331 0.95837 0.0
H399 H 0.26849 0.28848 0.84742 0.0
C400 C 0.70425 0.26226 0.87206 0.0
C401 C 0.67027 0.24244 0.93237 0.0
C402 C 0.75097 0.25486 0.89478 0.0
C403 C 0.76333 0.23072 0.98487 0.0
C404 C 0.72885 0.2098 0.04457 0.0
C405 C 0.68283 0.21471 0.0155 0.0
C406 C 0.7867 0.27543 0.82513 0.0
C407 C 0.73893 0.18524 0.1433 0.0
C408 C 0.88909 0.19965 0.00356 0.0
C409 C 0.90686 0.24522 0.02758 0.0
C410 C 0.8414 0.19268 -0.00328 0.0
C411 C 0.81175 0.23181 0.02016 0.0
C412 C 0.82993 0.27512 0.06299 0.0
C413 C 0.87766 0.28173 0.06415 0.0
C414 C 0.8232 0.14577 0.95214 0.0
C415 C 0.79925 0.31652 0.09599 0.0
H416 H 0.69438 0.28472 0.80965 0.0
H417 H 0.65641 0.20018 0.06379 0.0
H418 H 0.8198 0.25549 0.82742 0.0
H419 H 0.77415 0.27461 0.74514 0.0
H420 H 0.79329 0.3135 0.84816 0.0
H421 H 0.72398 0.14853 0.1397 0.0
H422 H 0.77611 0.18248 0.1618 0.0
H423 H 0.72154 0.20521 0.20703 0.0
H424 H 0.91213 0.17153 0.97643 0.0
H425 H 0.89178 0.31699 0.08309 0.0
H426 H 0.80813 0.15178 0.87561 0.0
H427 H 0.79545 0.13176 0.00079 0.0
H428 H 0.85062 0.11807 0.9442 0.0
H429 H 0.78953 0.33731 0.02847 0.0
H430 H 0.81729 0.34128 0.15094 0.0
H431 H 0.76707 0.30354 0.13134 0.0
C432 C 0.88899 0.78366 0.90162 0.0
C433 C 0.91268 0.81833 0.96013 0.0
C434 C 0.84089 0.78546 0.89517 0.0
C435 C 0.81688 0.82149 0.95237 0.0
C436 C 0.84134 0.86049 -0.00192 0.0
C437 C 0.88946 0.85898 -0.00115 0.0
C438 C 0.81623 0.7452 0.83838 0.0
C439 C 0.81709 0.90004 0.05841 0.0
C440 C 0.68674 0.82546 0.9593 0.0
C441 C 0.67733 0.79107 0.03213 0.0
C442 C 0.73188 0.83641 0.93253 0.0
C443 C 0.76854 0.81307 0.98194 0.0
C444 C 0.75913 0.78015 0.05987 0.0
C445 C 0.71332 0.76854 0.08232 0.0
C446 C 0.73893 0.87217 0.84994 0.0
C447 C 0.79746 0.75684 0.11884 0.0
H448 H 0.90726 0.75231 0.87147 0.0
H449 H 0.90845 0.88586 0.04363 0.0
H450 H 0.78018 0.7549 0.81957 0.0
H451 H 0.83489 0.7355 0.76685 0.0
H452 H 0.81584 0.71291 0.88571 0.0
H453 H 0.8413 0.92836 0.08694 0.0
H454 H 0.79047 0.91701 0.01057 0.0
H455 H 0.7994 0.88468 0.1248 0.0
H456 H 0.65855 0.84235 0.91914 0.0
H457 H 0.70568 0.74178 0.13801 0.0
H458 H 0.77544 0.87675 0.82802 0.0
H459 H 0.72512 0.90763 0.87636 0.0
H460 H 0.71867 0.86096 0.78111 0.0
H461 H 0.81611 0.73065 0.06861 0.0
H462 H 0.78418 0.73749 0.18496 0.0
H463 H 0.82267 0.78425 0.14683 0.0
loop_
_geom_bond_atom_site_label_1
_geom_bond_atom_site_label_2
_geom_bond_distance
_geom_bond_site_symmetry_2
_ccdc_geom_bond_type
Dy0 O4 2.398 1_554 S
Dy0 O5 2.491 . S
Dy0 O6 2.403 . S
Dy0 O7 2.664 1_455 S
Dy0 O11 2.326 . S
Dy0 O15 2.310 . S
Dy0 O16 2.351 1_455 S
C1 O12 1.185 . S
C1 O13 1.355 . S
C2 O4 1.185 . S
C2 O5 1.355 1_556 S
Dy3 O7 2.310 . S
Dy3 O10 2.351 1_655 S
Dy3 O12 2.398 . S
Dy3 O13 2.491 . S
Dy3 O14 2.403 . S
Dy3 O15 2.664 1_655 S
Dy3 O17 2.326 . S
O4 Dy0 2.398 1_556 S
O4 C2 1.185 . S
O5 Dy0 2.491 . S
O5 C2 1.355 1_554 S
O6 Dy0 2.403 . S
O6 C8 1.254 . S
O7 Dy0 2.664 1_655 S
O7 Dy3 2.310 . S
O7 C8 1.268 1_655 S
C8 O6 1.254 . S
C8 O7 1.268 1_455 S
C9 O14 1.254 1_455 S
C9 O15 1.268 . S
O10 Dy3 2.351 1_455 S
O10 C18 1.249 . S
O11 Dy0 2.326 . S
O11 C18 1.267 . S
O12 C1 1.185 . S
O12 Dy3 2.398 . S
O13 C1 1.355 . S
O13 Dy3 2.491 . S
O14 Dy3 2.403 . S
O14 C9 1.254 1_655 S
O15 Dy0 2.310 . S
O15 Dy3 2.664 1_455 S
O15 C9 1.268 . S
O16 Dy0 2.351 1_655 S
O16 C19 1.249 . S
O17 Dy3 2.326 . S
O17 C19 1.267 . S
C18 O10 1.249 . S
C18 O11 1.267 . S
C19 O16 1.249 . S
C19 O17 1.267 . S
Dy20 O24 2.398 1_554 S
Dy20 O25 2.491 . S
Dy20 O26 2.403 . S
Dy20 O27 2.664 . S
Dy20 O31 2.326 . S
Dy20 O35 2.310 . S
Dy20 O36 2.351 . S
C21 O32 1.185 . S
C21 O33 1.355 . S
C22 O24 1.185 . S
C22 O25 1.355 1_556 S
Dy23 O27 2.310 . S
Dy23 O30 2.351 . S
Dy23 O32 2.398 . S
Dy23 O33 2.491 . S
Dy23 O34 2.403 . S
Dy23 O35 2.664 . S
Dy23 O37 2.326 . S
O24 Dy20 2.398 1_556 S
O24 C22 1.185 . S
O25 Dy20 2.491 . S
O25 C22 1.355 1_554 S
O26 Dy20 2.403 . S
O26 C28 1.254 . S
O27 Dy20 2.664 . S
O27 Dy23 2.310 . S
O27 C28 1.268 . S
C28 O26 1.254 . S
C28 O27 1.268 . S
C29 O34 1.254 . S
C29 O35 1.268 . S
O30 Dy23 2.351 . S
O30 C38 1.249 . S
O31 Dy20 2.326 . S
O31 C38 1.267 . S
O32 C21 1.185 . S
O32 Dy23 2.398 . S
O33 C21 1.355 . S
O33 Dy23 2.491 . S
O34 Dy23 2.403 . S
O34 C29 1.254 . S
O35 Dy20 2.310 . S
O35 Dy23 2.664 . S
O35 C29 1.268 . S
O36 Dy20 2.351 . S
O36 C39 1.249 . S
O37 Dy23 2.326 . S
O37 C39 1.267 . S
C38 O30 1.249 . S
C38 O31 1.267 . S
C39 O36 1.249 . S
C39 O37 1.267 . S
Dy40 O44 2.398 1_556 S
Dy40 O45 2.491 . S
Dy40 O46 2.403 . S
Dy40 O47 2.664 1_455 S
Dy40 O51 2.326 . S
Dy40 O55 2.310 . S
Dy40 O56 2.351 1_455 S
C41 O52 1.185 . S
C41 O53 1.355 . S
C42 O44 1.185 . S
C42 O45 1.355 1_554 S
Dy43 O47 2.310 . S
Dy43 O50 2.351 1_655 S
Dy43 O52 2.398 . S
Dy43 O53 2.491 . S
Dy43 O54 2.403 . S
Dy43 O55 2.664 1_655 S
Dy43 O57 2.326 . S
O44 Dy40 2.398 1_554 S
O44 C42 1.185 . S
O45 Dy40 2.491 . S
O45 C42 1.355 1_556 S
O46 Dy40 2.403 . S
O46 C48 1.254 . S
O47 Dy40 2.664 1_655 S
O47 Dy43 2.310 . S
O47 C48 1.268 1_655 S
C48 O46 1.254 . S
C48 O47 1.268 1_455 S
C49 O54 1.254 1_455 S
C49 O55 1.268 . S
O50 Dy43 2.351 1_455 S
O50 C58 1.249 . S
O51 Dy40 2.326 . S
O51 C58 1.267 . S
O52 C41 1.185 . S
O52 Dy43 2.398 . S
O53 C41 1.355 . S
O53 Dy43 2.491 . S
O54 Dy43 2.403 . S
O54 C49 1.254 1_655 S
O55 Dy40 2.310 . S
O55 Dy43 2.664 1_455 S
O55 C49 1.268 . S
O56 Dy40 2.351 1_655 S
O56 C59 1.249 . S
O57 Dy43 2.326 . S
O57 C59 1.267 . S
C58 O50 1.249 . S
C58 O51 1.267 . S
C59 O56 1.249 . S
C59 O57 1.267 . S
Dy60 O64 2.398 1_556 S
Dy60 O65 2.491 . S
Dy60 O66 2.403 . S
Dy60 O67 2.664 . S
Dy60 O71 2.326 . S
Dy60 O75 2.310 . S
Dy60 O76 2.351 . S
C61 O72 1.185 . S
C61 O73 1.355 . S
C62 O64 1.185 . S
C62 O65 1.355 1_554 S
Dy63 O67 2.310 . S
Dy63 O70 2.351 . S
Dy63 O72 2.398 . S
Dy63 O73 2.491 . S
Dy63 O74 2.403 . S
Dy63 O75 2.664 . S
Dy63 O77 2.326 . S
O64 Dy60 2.398 1_554 S
O64 C62 1.185 . S
O65 Dy60 2.491 . S
O65 C62 1.355 1_556 S
O66 Dy60 2.403 . S
O66 C68 1.254 . S
O67 Dy60 2.664 . S
O67 Dy63 2.310 . S
O67 C68 1.268 . S
C68 O66 1.254 . S
C68 O67 1.268 . S
C69 O74 1.254 . S
C69 O75 1.268 . S
O70 Dy63 2.351 . S
O70 C78 1.249 . S
O71 Dy60 2.326 . S
O71 C78 1.267 . S
O72 C61 1.185 . S
O72 Dy63 2.398 . S
O73 C61 1.355 . S
O73 Dy63 2.491 . S
O74 Dy63 2.403 . S
O74 C69 1.254 . S
O75 Dy60 2.310 . S
O75 Dy63 2.664 . S
O75 C69 1.268 . S
O76 Dy60 2.351 . S
O76 C79 1.249 . S
O77 Dy63 2.326 . S
O77 C79 1.267 . S
C78 O70 1.249 . S
C78 O71 1.267 . S
C79 O76 1.249 . S
C79 O77 1.267 . S
C80 C81 1.391 1_455 S
C80 C82 1.394 . S
C80 H96 0.931 . S
C81 C80 1.391 1_655 S
C81 C85 1.376 . S
C82 C80 1.394 . S
C82 C83 1.369 1_455 S
C82 C86 1.531 . S
C83 C82 1.369 1_655 S
C83 C84 1.410 . S
C83 C91 1.503 1_556 S
C84 C83 1.410 . S
C84 C85 1.392 . S
C84 C87 1.511 . S
C85 C81 1.376 . S
C85 C84 1.392 . S
C85 H97 0.929 . S
C86 C82 1.531 . S
C86 H98 0.960 . S
C86 H99 0.962 . S
C86 H100 0.960 . S
C87 C84 1.511 . S
C87 H101 0.960 1_556 S
C87 H102 0.961 1_556 S
C87 H103 0.961 . S
C88 C89 1.370 1_455 S
C88 C90 1.363 . S
C88 H104 0.931 . S
C89 C88 1.370 1_655 S
C89 C93 1.408 . S
C90 C88 1.363 . S
C90 C91 1.370 1_455 S
C90 C94 1.524 . S
C91 C83 1.503 1_554 S
C91 C90 1.370 1_655 S
C91 C92 1.403 1_554 S
C92 C91 1.403 1_556 S
C92 C93 1.404 1_556 S
C92 C95 1.539 . S
C93 C89 1.408 . S
C93 C92 1.404 1_554 S
C93 H105 0.930 1_554 S
C94 C90 1.524 . S
C94 H106 0.956 . S
C94 H107 0.961 1_455 S
C94 H108 0.961 . S
C95 C92 1.539 . S
C95 H109 0.958 1_655 S
C95 H110 0.961 . S
C95 H111 0.960 . S
H96 C80 0.931 . S
H97 C85 0.929 . S
H98 C86 0.960 . S
H99 C86 0.962 . S
H100 C86 0.960 . S
H101 C87 0.960 1_554 S
H102 C87 0.961 1_554 S
H103 C87 0.961 . S
H104 C88 0.931 . S
H105 C93 0.930 1_556 S
H106 C94 0.956 . S
H107 C94 0.961 1_655 S
H108 C94 0.961 . S
H109 C95 0.958 1_455 S
H110 C95 0.961 . S
H111 C95 0.960 . S
C112 C113 1.391 . S
C112 C114 1.394 . S
C112 H128 0.931 . S
C113 C112 1.391 . S
C113 C117 1.376 . S
C114 C112 1.394 . S
C114 C115 1.369 . S
C114 C118 1.531 1_554 S
C115 C114 1.369 . S
C115 C116 1.410 . S
C115 C123 1.503 1_554 S
C116 C115 1.410 . S
C116 C117 1.392 . S
C116 C119 1.511 . S
C117 C113 1.376 . S
C117 C116 1.392 . S
C117 H129 0.929 . S
C118 C114 1.531 1_556 S
C118 H130 0.960 . S
C118 H131 0.962 . S
C118 H132 0.960 1_556 S
C119 C116 1.511 . S
C119 H133 0.961 . S
C119 H134 0.961 . S
C119 H135 0.961 . S
C120 C121 1.370 . S
C120 C122 1.363 . S
C120 H136 0.931 . S
C121 C120 1.370 . S
C121 C125 1.408 . S
C122 C120 1.363 . S
C122 C123 1.370 . S
C122 C126 1.524 . S
C123 C115 1.503 1_556 S
C123 C122 1.370 . S
C123 C124 1.403 1_556 S
C124 C123 1.403 1_554 S
C124 C125 1.404 1_554 S
C124 C127 1.539 . S
C125 C121 1.408 . S
C125 C124 1.404 1_556 S
C125 H137 0.930 1_556 S
C126 C122 1.524 . S
C126 H138 0.956 . S
C126 H139 0.961 . S
C126 H140 0.961 . S
C127 C124 1.539 . S
C127 H141 0.958 . S
C127 H142 0.961 . S
C127 H143 0.960 . S
H128 C112 0.931 . S
H129 C117 0.929 . S
H130 C118 0.960 . S
H131 C118 0.962 . S
H132 C118 0.960 1_554 S
H133 C119 0.961 . S
H134 C119 0.961 . S
H135 C119 0.961 . S
H136 C120 0.931 . S
H137 C125 0.930 1_554 S
H138 C126 0.956 . S
H139 C126 0.961 . S
H140 C126 0.961 . S
H141 C127 0.958 . S
H142 C127 0.961 . S
H143 C127 0.960 . S
C144 C145 1.391 . S
C144 C146 1.394 . S
C144 H160 0.931 . S
C145 C144 1.391 . S
C145 C149 1.376 . S
C146 C144 1.394 . S
C146 C147 1.369 . S
C146 C150 1.531 . S
C147 C146 1.369 . S
C147 C148 1.410 . S
C147 C155 1.503 1_566 S
C148 C147 1.410 . S
C148 C149 1.392 . S
C148 C151 1.511 . S
C149 C145 1.376 . S
C149 C148 1.392 . S
C149 H161 0.929 . S
C150 C146 1.531 . S
C150 H162 0.960 1_565 S
C150 H163 0.962 . S
C150 H164 0.960 . S
C151 C148 1.511 . S
C151 H165 0.961 . S
C151 H166 0.961 1_556 S
C151 H167 0.961 . S
C152 C153 1.370 . S
C152 C154 1.363 . S
C152 H168 0.931 . S
C153 C152 1.370 . S
C153 C157 1.408 . S
C154 C152 1.363 . S
C154 C155 1.370 . S
C154 C158 1.524 1_545 S
C155 C147 1.503 1_544 S
C155 C154 1.370 . S
C155 C156 1.403 1_554 S
C156 C155 1.403 1_556 S
C156 C157 1.404 1_556 S
C156 C159 1.539 . S
C157 C153 1.408 . S
C157 C156 1.404 1_554 S
C157 H169 0.930 1_554 S
C158 C154 1.524 1_565 S
C158 H170 0.956 . S
C158 H171 0.961 . S
C158 H172 0.961 . S
C159 C156 1.539 . S
C159 H173 0.958 . S
C159 H174 0.961 . S
C159 H175 0.960 . S
H160 C144 0.931 . S
H161 C149 0.929 . S
H162 C150 0.960 1_545 S
H163 C150 0.962 . S
H164 C150 0.960 . S
H165 C151 0.961 . S
H166 C151 0.961 1_554 S
H167 C151 0.961 . S
H168 C152 0.931 . S
H169 C157 0.930 1_556 S
H170 C158 0.956 . S
H171 C158 0.961 . S
H172 C158 0.961 . S
H173 C159 0.958 . S
H174 C159 0.961 . S
H175 C159 0.960 . S
C176 C177 1.391 1_655 S
C176 C178 1.394 1_554 S
C176 H192 0.935 . S
C177 C176 1.391 1_455 S
C177 C181 1.376 . S
C178 C176 1.394 1_556 S
C178 C179 1.369 1_556 S
C178 C182 1.531 . S
C179 C178 1.369 1_554 S
C179 C180 1.410 1_655 S
C179 C187 1.503 1_664 S
C180 C179 1.410 1_455 S
C180 C181 1.392 . S
C180 C183 1.511 1_565 S
C181 C177 1.376 . S
C181 C180 1.392 . S
C181 H193 0.929 . S
C182 C178 1.531 . S
C182 H194 0.960 . S
C182 H195 0.962 . S
C182 H196 0.960 . S
C183 C180 1.511 1_545 S
C183 H197 0.961 . S
C183 H198 0.961 . S
C183 H199 0.961 . S
C184 C185 1.370 . S
C184 C186 1.363 . S
C184 H200 0.931 . S
C185 C184 1.370 . S
C185 C189 1.408 1_455 S
C186 C184 1.363 . S
C186 C187 1.372 . S
C186 C190 1.524 . S
C187 C179 1.503 1_446 S
C187 C186 1.372 . S
C187 C188 1.401 1_455 S
C188 C187 1.401 1_655 S
C188 C189 1.404 . S
C188 C191 1.539 1_556 S
C189 C185 1.408 1_655 S
C189 C188 1.404 . S
C189 H201 0.930 . S
C190 C186 1.524 . S
C190 H202 0.956 1_545 S
C190 H203 0.961 1_545 S
C190 H204 0.961 . S
C191 C188 1.539 1_554 S
C191 H205 0.958 . S
C191 H206 0.961 . S
C191 H207 0.960 . S
H192 C176 0.935 . S
H193 C181 0.929 . S
H194 C182 0.960 . S
H195 C182 0.962 . S
H196 C182 0.960 . S
H197 C183 0.961 . S
H198 C183 0.961 . S
H199 C183 0.961 . S
H200 C184 0.931 . S
H201 C189 0.930 . S
H202 C190 0.956 1_565 S
H203 C190 0.961 1_565 S
H204 C190 0.961 . S
H205 C191 0.958 . S
H206 C191 0.961 . S
H207 C191 0.960 . S
C208 C209 1.391 . S
C208 C210 1.394 . S
C208 H224 0.931 . S
C209 C208 1.391 . S
C209 C213 1.376 . S
C210 C208 1.394 . S
C210 C211 1.369 . S
C210 C214 1.531 . S
C211 C210 1.369 . S
C211 C212 1.410 . S
C211 C219 1.503 . S
C212 C211 1.410 . S
C212 C213 1.392 . S
C212 C215 1.511 . S
C213 C209 1.376 . S
C213 C212 1.392 . S
C213 H225 0.929 . S
C214 C210 1.531 . S
C214 H226 0.960 . S
C214 H227 0.962 . S
C214 H228 0.960 . S
C215 C212 1.511 . S
C215 H229 0.961 . S
C215 H230 0.961 . S
C215 H231 0.961 . S
C216 C217 1.370 . S
C216 C218 1.363 . S
C216 H232 0.931 . S
C217 C216 1.370 . S
C217 C221 1.408 . S
C218 C216 1.363 . S
C218 C219 1.370 . S
C218 C222 1.524 . S
C219 C211 1.503 . S
C219 C218 1.370 . S
C219 C220 1.403 . S
C220 C219 1.403 . S
C220 C221 1.404 . S
C220 C223 1.539 . S
C221 C217 1.408 . S
C221 C220 1.404 . S
C221 H233 0.930 . S
C222 C218 1.524 . S
C222 H234 0.956 . S
C222 H235 0.961 . S
C222 H236 0.961 . S
C223 C220 1.539 . S
C223 H237 0.958 . S
C223 H238 0.961 . S
C223 H239 0.960 . S
H224 C208 0.931 . S
H225 C213 0.929 . S
H226 C214 0.960 . S
H227 C214 0.962 . S
H228 C214 0.960 . S
H229 C215 0.961 . S
H230 C215 0.961 . S
H231 C215 0.961 . S
H232 C216 0.931 . S
H233 C221 0.930 . S
H234 C222 0.956 . S
H235 C222 0.961 . S
H236 C222 0.961 . S
H237 C223 0.958 . S
H238 C223 0.961 . S
H239 C223 0.960 . S
C240 C241 1.391 . S
C240 C242 1.394 . S
C240 H256 0.931 . S
C241 C240 1.391 . S
C241 C245 1.376 . S
C242 C240 1.394 . S
C242 C243 1.369 . S
C242 C246 1.531 . S
C243 C242 1.369 . S
C243 C244 1.410 . S
C243 C251 1.503 . S
C244 C243 1.410 . S
C244 C245 1.392 . S
C244 C247 1.511 . S
C245 C241 1.376 . S
C245 C244 1.392 . S
C245 H257 0.929 . S
C246 C242 1.531 . S
C246 H258 0.960 . S
C246 H259 0.962 . S
C246 H260 0.960 . S
C247 C244 1.511 . S
C247 H261 0.961 . S
C247 H262 0.961 . S
C247 H263 0.961 . S
C248 C249 1.370 . S
C248 C250 1.363 . S
C248 H264 0.931 . S
C249 C248 1.370 . S
C249 C253 1.408 . S
C250 C248 1.363 . S
C250 C251 1.370 . S
C250 C254 1.524 . S
C251 C243 1.503 . S
C251 C250 1.370 . S
C251 C252 1.403 . S
C252 C251 1.403 . S
C252 C253 1.404 . S
C252 C255 1.539 . S
C253 C249 1.408 . S
C253 C252 1.404 . S
C253 H265 0.930 . S
C254 C250 1.524 . S
C254 H266 0.956 . S
C254 H267 0.961 . S
C254 H268 0.961 . S
C255 C252 1.539 . S
C255 H269 0.958 . S
C255 H270 0.961 . S
C255 H271 0.960 . S
H256 C240 0.931 . S
H257 C245 0.929 . S
H258 C246 0.960 . S
H259 C246 0.962 . S
H260 C246 0.960 . S
H261 C247 0.961 . S
H262 C247 0.961 . S
H263 C247 0.961 . S
H264 C248 0.931 . S
H265 C253 0.930 . S
H266 C254 0.956 . S
H267 C254 0.961 . S
H268 C254 0.961 . S
H269 C255 0.958 . S
H270 C255 0.961 . S
H271 C255 0.960 . S
C272 C273 1.391 . S
C272 C274 1.394 . S
C272 H288 0.931 . S
C273 C272 1.391 . S
C273 C277 1.376 . S
C274 C272 1.394 . S
C274 C275 1.369 . S
C274 C278 1.531 . S
C275 C274 1.369 . S
C275 C276 1.410 . S
C275 C283 1.503 . S
C276 C275 1.410 . S
C276 C277 1.392 . S
C276 C279 1.511 . S
C277 C273 1.376 . S
C277 C276 1.392 . S
C277 H289 0.929 . S
C278 C274 1.531 . S
C278 H290 0.960 . S
C278 H291 0.962 . S
C278 H292 0.960 . S
C279 C276 1.511 . S
C279 H293 0.961 . S
C279 H294 0.961 . S
C279 H295 0.961 . S
C280 C281 1.370 . S
C280 C282 1.363 . S
C280 H296 0.931 . S
C281 C280 1.370 . S
C281 C285 1.408 . S
C282 C280 1.363 . S
C282 C283 1.370 . S
C282 C286 1.524 . S
C283 C275 1.503 . S
C283 C282 1.370 . S
C283 C284 1.403 . S
C284 C283 1.403 . S
C284 C285 1.404 . S
C284 C287 1.539 . S
C285 C281 1.408 . S
C285 C284 1.404 . S
C285 H297 0.930 . S
C286 C282 1.524 . S
C286 H298 0.956 . S
C286 H299 0.961 . S
C286 H300 0.961 . S
C287 C284 1.539 . S
C287 H301 0.958 . S
C287 H302 0.961 . S
C287 H303 0.960 . S
H288 C272 0.931 . S
H289 C277 0.929 . S
H290 C278 0.960 . S
H291 C278 0.962 . S
H292 C278 0.960 . S
H293 C279 0.961 . S
H294 C279 0.961 . S
H295 C279 0.961 . S
H296 C280 0.931 . S
H297 C285 0.930 . S
H298 C286 0.956 . S
H299 C286 0.961 . S
H300 C286 0.961 . S
H301 C287 0.958 . S
H302 C287 0.961 . S
H303 C287 0.960 . S
C304 C305 1.391 . S
C304 C306 1.394 . S
C304 H320 0.931 . S
C305 C304 1.391 . S
C305 C309 1.376 . S
C306 C304 1.394 . S
C306 C307 1.369 . S
C306 C310 1.531 . S
C307 C306 1.369 . S
C307 C308 1.410 . S
C307 C315 1.503 . S
C308 C307 1.410 . S
C308 C309 1.392 . S
C308 C311 1.511 . S
C309 C305 1.376 . S
C309 C308 1.392 . S
C309 H321 0.929 . S
C310 C306 1.531 . S
C310 H322 0.960 . S
C310 H323 0.962 . S
C310 H324 0.960 . S
C311 C308 1.511 . S
C311 H325 0.961 . S
C311 H326 0.961 . S
C311 H327 0.961 . S
C312 C313 1.370 . S
C312 C314 1.363 . S
C312 H328 0.931 . S
C313 C312 1.370 . S
C313 C317 1.408 . S
C314 C312 1.363 . S
C314 C315 1.370 . S
C314 C318 1.524 . S
C315 C307 1.503 . S
C315 C314 1.370 . S
C315 C316 1.403 . S
C316 C315 1.403 . S
C316 C317 1.404 . S
C316 C319 1.539 . S
C317 C313 1.408 . S
C317 C316 1.404 . S
C317 H329 0.930 . S
C318 C314 1.524 . S
C318 H330 0.956 . S
C318 H331 0.961 . S
C318 H332 0.961 . S
C319 C316 1.539 . S
C319 H333 0.958 . S
C319 H334 0.961 . S
C319 H335 0.960 . S
H320 C304 0.931 . S
H321 C309 0.929 . S
H322 C310 0.960 . S
H323 C310 0.962 . S
H324 C310 0.960 . S
H325 C311 0.961 . S
H326 C311 0.961 . S
H327 C311 0.961 . S
H328 C312 0.931 . S
H329 C317 0.930 . S
H330 C318 0.956 . S
H331 C318 0.961 . S
H332 C318 0.961 . S
H333 C319 0.958 . S
H334 C319 0.961 . S
H335 C319 0.960 . S
C336 C337 1.391 1_554 S
C336 C338 1.394 . S
C336 H352 0.931 . S
C337 C336 1.391 1_556 S
C337 C341 1.376 . S
C338 C336 1.394 . S
C338 C339 1.369 1_554 S
C338 C342 1.531 . S
C339 C338 1.369 1_556 S
C339 C340 1.410 . S
C339 C347 1.503 . S
C340 C339 1.410 . S
C340 C341 1.392 . S
C340 C343 1.511 . S
C341 C337 1.376 . S
C341 C340 1.392 . S
C341 H353 0.929 . S
C342 C338 1.531 . S
C342 H354 0.960 . S
C342 H355 0.962 . S
C342 H356 0.960 . S
C343 C340 1.511 . S
C343 H357 0.961 . S
C343 H358 0.961 . S
C343 H359 0.961 . S
C344 C345 1.370 . S
C344 C346 1.363 . S
C344 H360 0.931 . S
C345 C344 1.370 . S
C345 C349 1.408 1_556 S
C346 C344 1.363 . S
C346 C347 1.370 . S
C346 C350 1.524 . S
C347 C339 1.503 . S
C347 C346 1.370 . S
C347 C348 1.403 1_556 S
C348 C347 1.403 1_554 S
C348 C349 1.404 . S
C348 C351 1.539 . S
C349 C345 1.408 1_554 S
C349 C348 1.404 . S
C349 H361 0.930 . S
C350 C346 1.524 . S
C350 H362 0.956 . S
C350 H363 0.961 . S
C350 H364 0.961 . S
C351 C348 1.539 . S
C351 H365 0.958 . S
C351 H366 0.961 . S
C351 H367 0.960 1_554 S
H352 C336 0.931 . S
H353 C341 0.929 . S
H354 C342 0.960 . S
H355 C342 0.962 . S
H356 C342 0.960 . S
H357 C343 0.961 . S
H358 C343 0.961 . S
H359 C343 0.961 . S
H360 C344 0.931 . S
H361 C349 0.930 . S
H362 C350 0.956 . S
H363 C350 0.961 . S
H364 C350 0.961 . S
H365 C351 0.958 . S
H366 C351 0.961 . S
H367 C351 0.960 1_556 S
C368 C369 1.391 1_556 S
C368 C370 1.394 . S
C368 H384 0.931 . S
C369 C368 1.391 1_554 S
C369 C373 1.376 . S
C370 C368 1.394 . S
C370 C371 1.369 1_556 S
C370 C374 1.531 . S
C371 C370 1.369 1_554 S
C371 C372 1.410 . S
C371 C379 1.503 . S
C372 C371 1.410 . S
C372 C373 1.392 . S
C372 C375 1.511 . S
C373 C369 1.376 . S
C373 C372 1.392 . S
C373 H385 0.929 . S
C374 C370 1.531 . S
C374 H386 0.960 . S
C374 H387 0.962 1_556 S
C374 H388 0.960 . S
C375 C372 1.511 . S
C375 H389 0.961 . S
C375 H390 0.961 . S
C375 H391 0.961 1_554 S
C376 C377 1.370 . S
C376 C378 1.363 . S
C376 H392 0.931 . S
C377 C376 1.370 . S
C377 C381 1.408 1_554 S
C378 C376 1.363 . S
C378 C379 1.370 . S
C378 C382 1.524 . S
C379 C371 1.503 . S
C379 C378 1.370 . S
C379 C380 1.403 1_554 S
C380 C379 1.403 1_556 S
C380 C381 1.404 . S
C380 C383 1.539 . S
C381 C377 1.408 1_556 S
C381 C380 1.404 . S
C381 H393 0.930 . S
C382 C378 1.524 . S
C382 H394 0.956 . S
C382 H395 0.961 . S
C382 H396 0.961 . S
C383 C380 1.539 . S
C383 H397 0.958 . S
C383 H398 0.961 . S
C383 H399 0.960 . S
H384 C368 0.931 . S
H385 C373 0.929 . S
H386 C374 0.960 . S
H387 C374 0.962 1_554 S
H388 C374 0.960 . S
H389 C375 0.961 . S
H390 C375 0.961 . S
H391 C375 0.961 1_556 S
H392 C376 0.931 . S
H393 C381 0.930 . S
H394 C382 0.956 . S
H395 C382 0.961 . S
H396 C382 0.961 . S
H397 C383 0.958 . S
H398 C383 0.961 . S
H399 C383 0.960 . S
C400 C401 1.391 . S
C400 C402 1.394 . S
C400 H416 0.931 . S
C401 C400 1.391 . S
C401 C405 1.376 1_556 S
C402 C400 1.394 . S
C402 C403 1.369 . S
C402 C406 1.531 . S
C403 C402 1.369 . S
C403 C404 1.410 1_556 S
C403 C411 1.503 . S
C404 C403 1.410 1_554 S
C404 C405 1.392 . S
C404 C407 1.511 . S
C405 C401 1.376 1_554 S
C405 C404 1.392 . S
C405 H417 0.929 . S
C406 C402 1.531 . S
C406 H418 0.960 . S
C406 H419 0.962 . S
C406 H420 0.960 . S
C407 C404 1.511 . S
C407 H421 0.961 . S
C407 H422 0.961 . S
C407 H423 0.961 . S
C408 C409 1.370 . S
C408 C410 1.363 . S
C408 H424 0.931 . S
C409 C408 1.370 . S
C409 C413 1.408 . S
C410 C408 1.363 . S
C410 C411 1.370 . S
C410 C414 1.524 . S
C411 C403 1.503 . S
C411 C410 1.370 . S
C411 C412 1.403 1_556 S
C412 C411 1.403 1_554 S
C412 C413 1.404 1_554 S
C412 C415 1.539 . S
C413 C409 1.408 . S
C413 C412 1.404 1_556 S
C413 H425 0.930 1_556 S
C414 C410 1.524 . S
C414 H426 0.956 . S
C414 H427 0.961 . S
C414 H428 0.961 . S
C415 C412 1.539 . S
C415 H429 0.958 . S
C415 H430 0.961 . S
C415 H431 0.960 . S
H416 C400 0.931 . S
H417 C405 0.929 . S
H418 C406 0.960 . S
H419 C406 0.962 . S
H420 C406 0.960 . S
H421 C407 0.961 . S
H422 C407 0.961 . S
H423 C407 0.961 . S
H424 C408 0.931 . S
H425 C413 0.930 1_554 S
H426 C414 0.956 . S
H427 C414 0.961 . S
H428 C414 0.961 . S
H429 C415 0.958 . S
H430 C415 0.961 . S
H431 C415 0.960 . S
C432 C433 1.391 1_556 S
C432 C434 1.394 . S
C432 H448 0.931 . S
C433 C432 1.391 1_554 S
C433 C437 1.376 . S
C434 C432 1.394 . S
C434 C435 1.369 1_556 S
C434 C438 1.531 . S
C435 C434 1.369 1_554 S
C435 C436 1.410 . S
C435 C443 1.503 . S
C436 C435 1.410 . S
C436 C437 1.392 . S
C436 C439 1.511 . S
C437 C433 1.376 . S
C437 C436 1.392 . S
C437 H449 0.929 . S
C438 C434 1.531 . S
C438 H450 0.960 . S
C438 H451 0.962 . S
C438 H452 0.960 . S
C439 C436 1.511 . S
C439 H453 0.961 . S
C439 H454 0.961 . S
C439 H455 0.961 . S
C440 C441 1.370 1_556 S
C440 C442 1.363 . S
C440 H456 0.931 . S
C441 C440 1.370 1_554 S
C441 C445 1.408 . S
C442 C440 1.363 . S
C442 C443 1.370 1_556 S
C442 C446 1.524 . S
C443 C435 1.503 . S
C443 C442 1.370 1_554 S
C443 C444 1.403 . S
C444 C443 1.403 . S
C444 C445 1.404 . S
C444 C447 1.539 . S
C445 C441 1.408 . S
C445 C444 1.404 . S
C445 H457 0.930 . S
C446 C442 1.524 . S
C446 H458 0.956 . S
C446 H459 0.961 . S
C446 H460 0.961 . S
C447 C444 1.539 . S
C447 H461 0.958 . S
C447 H462 0.961 . S
C447 H463 0.960 . S
H448 C432 0.931 . S
H449 C437 0.929 . S
H450 C438 0.960 . S
H451 C438 0.962 . S
H452 C438 0.960 . S
H453 C439 0.961 . S
H454 C439 0.961 . S
H455 C439 0.961 . S
H456 C440 0.931 . S
H457 C445 0.930 . S
H458 C446 0.956 . S
H459 C446 0.961 . S
H460 C446 0.961 . S
H461 C447 0.958 . S
H462 C447 0.961 . S
H463 C447 0.960 . S
C81 C48 1.771 1_655 S
C89 C8 1.719 1_655 S
C113 C29 1.979 . S
C121 C69 1.984 . S
C145 C68 1.770 . S
C153 C28 1.719 . S
C177 C9 1.972 . S
C185 C49 1.981 . S
C209 C61 1.519 . S
C217 C18 1.533 . S
C241 C58 1.534 . S
C249 C21 1.519 . S
C273 C41 1.517 . S
C281 C38 1.533 . S
C305 C1 1.516 . S
C313 C78 1.532 . S
C337 C79 1.033 . S
C345 C2 1.025 . S
C369 C42 1.002 . S
C377 C39 1.017 . S
C401 C22 1.023 . S
C409 C59 1.020 . S
C433 C19 0.992 . S
C441 C62 1.030 . S
