# Generated by pormake.
# Topology pcb, (4)-cn, num edge types: 1
# Building blocks:
#     Node 0, Type 0, BuildingBlock: KUFVIS_clean_sbu_0, # of connection points: 4
#     Node 1, Type 0, BuildingBlock: KUFVIS_clean_sbu_0, # of connection points: 4
#     Node 2, Type 0, BuildingBlock: KUFVIS_clean_sbu_0, # of connection points: 4
#     Node 3, Type 0, BuildingBlock: KUFVIS_clean_sbu_0, # of connection points: 4
#     Node 4, Type 0, BuildingBlock: KUFVIS_clean_sbu_0, # of connection points: 4
#     Node 5, Type 0, BuildingBlock: KUFVIS_clean_sbu_0, # of connection points: 4
#     Node 6, Type 0, BuildingBlock: KUFVIS_clean_sbu_0, # of connection points: 4
#     Node 7, Type 0, BuildingBlock: KUFVIS_clean_sbu_0, # of connection points: 4
#     Node 8, Type 0, BuildingBlock: KUFVIS_clean_sbu_0, # of connection points: 4
#     Node 9, Type 0, BuildingBlock: KUFVIS_clean_sbu_0, # of connection points: 4
#     Node 10, Type 0, BuildingBlock: KUFVIS_clean_sbu_0, # of connection points: 4
#     Node 11, Type 0, BuildingBlock: KUFVIS_clean_sbu_0, # of connection points: 4
#     Node 12, Type 0, BuildingBlock: KUFVIS_clean_sbu_0, # of connection points: 4
#     Node 13, Type 0, BuildingBlock: KUFVIS_clean_sbu_0, # of connection points: 4
#     Node 14, Type 0, BuildingBlock: KUFVIS_clean_sbu_0, # of connection points: 4
#     Node 15, Type 0, BuildingBlock: KUFVIS_clean_sbu_0, # of connection points: 4
#     Edge 16, Type (0, 0), BuildingBlock: OJICUG_clean_linker_0, # of connection points: 2
#     Edge 17, Type (0, 0), BuildingBlock: OJICUG_clean_linker_0, # of connection points: 2
#     Edge 18, Type (0, 0), BuildingBlock: OJICUG_clean_linker_0, # of connection points: 2
#     Edge 19, Type (0, 0), BuildingBlock: OJICUG_clean_linker_0, # of connection points: 2
#     Edge 20, Type (0, 0), BuildingBlock: OJICUG_clean_linker_0, # of connection points: 2
#     Edge 21, Type (0, 0), BuildingBlock: OJICUG_clean_linker_0, # of connection points: 2
#     Edge 22, Type (0, 0), BuildingBlock: OJICUG_clean_linker_0, # of connection points: 2
#     Edge 23, Type (0, 0), BuildingBlock: OJICUG_clean_linker_0, # of connection points: 2
#     Edge 24, Type (0, 0), BuildingBlock: OJICUG_clean_linker_0, # of connection points: 2
#     Edge 25, Type (0, 0), BuildingBlock: OJICUG_clean_linker_0, # of connection points: 2
#     Edge 26, Type (0, 0), BuildingBlock: OJICUG_clean_linker_0, # of connection points: 2
#     Edge 27, Type (0, 0), BuildingBlock: OJICUG_clean_linker_0, # of connection points: 2
#     Edge 28, Type (0, 0), BuildingBlock: OJICUG_clean_linker_0, # of connection points: 2
#     Edge 29, Type (0, 0), BuildingBlock: OJICUG_clean_linker_0, # of connection points: 2
#     Edge 30, Type (0, 0), BuildingBlock: OJICUG_clean_linker_0, # of connection points: 2
#     Edge 31, Type (0, 0), BuildingBlock: OJICUG_clean_linker_0, # of connection points: 2
#     Edge 32, Type (0, 0), BuildingBlock: OJICUG_clean_linker_0, # of connection points: 2
#     Edge 33, Type (0, 0), BuildingBlock: OJICUG_clean_linker_0, # of connection points: 2
#     Edge 34, Type (0, 0), BuildingBlock: OJICUG_clean_linker_0, # of connection points: 2
#     Edge 35, Type (0, 0), BuildingBlock: OJICUG_clean_linker_0, # of connection points: 2
#     Edge 36, Type (0, 0), BuildingBlock: OJICUG_clean_linker_0, # of connection points: 2
#     Edge 37, Type (0, 0), BuildingBlock: OJICUG_clean_linker_0, # of connection points: 2
#     Edge 38, Type (0, 0), BuildingBlock: OJICUG_clean_linker_0, # of connection points: 2
#     Edge 39, Type (0, 0), BuildingBlock: OJICUG_clean_linker_0, # of connection points: 2
#     Edge 40, Type (0, 0), BuildingBlock: OJICUG_clean_linker_0, # of connection points: 2
#     Edge 41, Type (0, 0), BuildingBlock: OJICUG_clean_linker_0, # of connection points: 2
#     Edge 42, Type (0, 0), BuildingBlock: OJICUG_clean_linker_0, # of connection points: 2
#     Edge 43, Type (0, 0), BuildingBlock: OJICUG_clean_linker_0, # of connection points: 2
#     Edge 44, Type (0, 0), BuildingBlock: OJICUG_clean_linker_0, # of connection points: 2
#     Edge 45, Type (0, 0), BuildingBlock: OJICUG_clean_linker_0, # of connection points: 2
#     Edge 46, Type (0, 0), BuildingBlock: OJICUG_clean_linker_0, # of connection points: 2
#     Edge 47, Type (0, 0), BuildingBlock: OJICUG_clean_linker_0, # of connection points: 2
# Relax obj value: 0.288
# Max RMSD: 0.151
# Mean RMSD: 0.151
data_MOF--net-pcb--node1-KUFVIS_clean_sbu_0--edge1-OJICUG_clean_linker_0
_symmetry_space_group_name_H-M    P1
_symmetry_Int_Tables_number       1
_symmetry_cell_setting            triclinic
loop_
_symmetry_equiv_pos_as_xyz
'x, y, z'
_cell_length_a     28.373268
_cell_length_b     35.387366
_cell_length_c     35.386126
_cell_angle_alpha  89.999283
_cell_angle_beta   89.999542
_cell_angle_gamma 90.001858
loop_
_atom_site_label
_atom_site_type_symbol
_atom_site_fract_x
_atom_site_fract_y
_atom_site_fract_z
_atom_type_partial_charge
Mn0 Mn 0.17389 0.16583 0.1562 0.0
Mn1 Mn 0.11975 0.24 0.11453 0.0
C2 C 0.1002 0.18658 0.17718 0.0
C3 C 0.19143 0.10123 0.16021 0.0
C4 C 0.20134 0.24891 0.16873 0.0
O5 O 0.20713 0.16965 0.10483 0.0
O6 O 0.16425 0.21645 0.07845 0.0
C7 C 0.0662 0.18991 0.06424 0.0
N8 N 0.06695 0.22032 0.08773 0.0
C9 C 0.98227 0.22366 0.0882 0.0
C10 C 0.98069 0.19307 0.06306 0.0
C11 C 0.0229 0.17537 0.05217 0.0
C12 C 0.02655 0.23564 0.10094 0.0
H13 H 0.09834 0.17567 0.05633 0.0
C14 C 0.19542 0.19041 0.07673 0.0
O15 O 0.2189 0.12663 0.17473 0.0
O16 O 0.1538 0.11322 0.14306 0.0
N17 N 0.07419 0.26527 0.14547 0.0
C18 C 0.08146 0.28871 0.17547 0.0
C19 C 0.04286 0.30703 0.19226 0.0
C20 C 0.99722 0.30111 0.17805 0.0
C21 C 0.9906 0.27702 0.14705 0.0
C22 C 0.03055 0.26029 0.13089 0.0
H23 H 0.11642 0.29352 0.18648 0.0
O24 O 0.12696 0.1666 0.19925 0.0
O25 O 0.11786 0.19364 0.14433 0.0
O26 O 0.20516 0.21377 0.17619 0.0
O27 O 0.17292 0.26204 0.14389 0.0
C28 C 0.94582 0.26777 0.1325 0.0
C29 C 0.9416 0.24067 0.10345 0.0
H30 H 0.94726 0.18171 0.05358 0.0
H31 H 0.02238 0.1499 0.0354 0.0
H32 H 0.04824 0.32551 0.21624 0.0
H33 H 0.96745 0.31473 0.19153 0.0
H34 H 0.91427 0.28007 0.14458 0.0
H35 H 0.90688 0.23219 0.09393 0.0
Mn36 Mn 0.82477 0.15625 0.1658 0.0
Mn37 Mn 0.87893 0.11463 0.23998 0.0
C38 C 0.89846 0.17726 0.18652 0.0
C39 C 0.80721 0.16022 0.10119 0.0
C40 C 0.79732 0.16881 0.24887 0.0
O41 O 0.79155 0.10487 0.16965 0.0
O42 O 0.83447 0.07852 0.21644 0.0
C43 C 0.93255 0.06437 0.18991 0.0
N44 N 0.93176 0.08786 0.22032 0.0
C45 C 0.01645 0.08837 0.2237 0.0
C46 C 0.01805 0.06323 0.1931 0.0
C47 C 0.97586 0.05233 0.17538 0.0
C48 C 0.97215 0.10109 0.23565 0.0
H49 H 0.90041 0.05645 0.17566 0.0
C50 C 0.80329 0.07678 0.19041 0.0
O51 O 0.77973 0.17474 0.1266 0.0
O52 O 0.84485 0.14309 0.11319 0.0
N53 N 0.92447 0.14562 0.26524 0.0
C54 C 0.91716 0.17562 0.28867 0.0
C55 C 0.95575 0.19244 0.30699 0.0
C56 C 0.0014 0.17824 0.3011 0.0
C57 C 0.00804 0.14723 0.27703 0.0
C58 C 0.96812 0.13105 0.26029 0.0
H59 H 0.88219 0.18662 0.29346 0.0
O60 O 0.87169 0.19931 0.16653 0.0
O61 O 0.8808 0.14441 0.1936 0.0
O62 O 0.7935 0.17627 0.21373 0.0
O63 O 0.82573 0.14397 0.262 0.0
C64 C 0.05284 0.1327 0.2678 0.0
C65 C 0.05709 0.10364 0.24071 0.0
H66 H 0.05149 0.05376 0.18175 0.0
H67 H 0.97641 0.03558 0.14991 0.0
H68 H 0.95034 0.21643 0.32546 0.0
H69 H 0.03115 0.19174 0.31473 0.0
H70 H 0.08437 0.1448 0.28011 0.0
H71 H 0.09182 0.09413 0.23225 0.0
Mn72 Mn 0.82441 0.85415 0.15634 0.0
Mn73 Mn 0.87841 0.77989 0.11474 0.0
C74 C 0.89809 0.83335 0.17732 0.0
C75 C 0.80699 0.91878 0.16032 0.0
C76 C 0.79677 0.77112 0.16891 0.0
O77 O 0.79118 0.85033 0.10497 0.0
O78 O 0.83401 0.80349 0.07861 0.0
C79 C 0.93217 0.8298 0.06441 0.0
N80 N 0.9313 0.79944 0.08796 0.0
C81 C 0.01597 0.79594 0.08849 0.0
C82 C 0.01766 0.82648 0.0633 0.0
C83 C 0.97552 0.84423 0.05234 0.0
C84 C 0.97164 0.78407 0.10122 0.0
H85 H 0.90007 0.84408 0.05645 0.0
C86 C 0.80289 0.82956 0.07687 0.0
O87 O 0.77947 0.89341 0.17485 0.0
O88 O 0.84459 0.90674 0.14318 0.0
N89 N 0.92387 0.75457 0.14575 0.0
C90 C 0.91649 0.7312 0.17579 0.0
C91 C 0.95503 0.71285 0.19265 0.0
C92 C 0.0007 0.71866 0.17846 0.0
C93 C 0.00742 0.74269 0.14742 0.0
C94 C 0.96754 0.75946 0.1312 0.0
H95 H 0.88151 0.72647 0.18678 0.0
O96 O 0.87136 0.85337 0.19938 0.0
O97 O 0.88039 0.82628 0.14449 0.0
O98 O 0.79305 0.80627 0.17638 0.0
O99 O 0.82515 0.75795 0.14406 0.0
C100 C 0.05225 0.75184 0.1329 0.0
C101 C 0.05657 0.77889 0.1038 0.0
H102 H 0.05113 0.83776 0.05382 0.0
H103 H 0.97612 0.86967 0.03553 0.0
H104 H 0.94957 0.69442 0.21665 0.0
H105 H 0.03042 0.70501 0.19199 0.0
H106 H 0.08375 0.73951 0.14502 0.0
H107 H 0.09133 0.78728 0.09429 0.0
Mn108 Mn 0.17357 0.86382 0.16574 0.0
Mn109 Mn 0.11929 0.90552 0.23982 0.0
C110 C 0.09984 0.84284 0.1864 0.0
C111 C 0.19129 0.85981 0.10117 0.0
C112 C 0.20081 0.85128 0.24886 0.0
O113 O 0.20684 0.91517 0.1696 0.0
O114 O 0.16388 0.94157 0.21634 0.0
C115 C 0.0659 0.9558 0.18962 0.0
N116 N 0.06656 0.93234 0.22005 0.0
C117 C 0.98187 0.93194 0.22329 0.0
C118 C 0.98039 0.95704 0.19266 0.0
C119 C 0.02265 0.96789 0.17501 0.0
C120 C 0.02612 0.91918 0.23533 0.0
H121 H 0.09809 0.96368 0.17541 0.0
C122 C 0.19511 0.94327 0.19034 0.0
O123 O 0.21868 0.84528 0.12662 0.0
O124 O 0.15362 0.87696 0.1131 0.0
N125 N 0.07364 0.87462 0.26505 0.0
C126 C 0.08083 0.84465 0.28854 0.0
C127 C 0.04216 0.82791 0.30684 0.0
C128 C 0.99656 0.84216 0.30086 0.0
C129 C 0.99003 0.87314 0.27672 0.0
C130 C 0.03002 0.88924 0.26001 0.0
H131 H 0.11576 0.83362 0.29341 0.0
O132 O 0.12663 0.82077 0.16644 0.0
O133 O 0.11748 0.8757 0.19347 0.0
O134 O 0.20472 0.84381 0.21373 0.0
O135 O 0.17239 0.87613 0.26195 0.0
C136 C 0.94528 0.88772 0.2674 0.0
C137 C 0.94115 0.91675 0.24026 0.0
H138 H 0.947 0.96654 0.18125 0.0
H139 H 0.0222 0.98464 0.14952 0.0
H140 H 0.04748 0.80396 0.32536 0.0
H141 H 0.96674 0.82872 0.31446 0.0
H142 H 0.9137 0.87569 0.27969 0.0
H143 H 0.90646 0.92629 0.23174 0.0
Mn144 Mn 0.17375 0.85433 0.86379 0.0
Mn145 Mn 0.11954 0.78024 0.90553 0.0
C146 C 0.1 0.83366 0.84287 0.0
C147 C 0.19145 0.91891 0.85975 0.0
C148 C 0.20103 0.77122 0.85125 0.0
O149 O 0.20706 0.85049 0.91513 0.0
O150 O 0.16414 0.80373 0.94155 0.0
C151 C 0.06616 0.83037 0.9559 0.0
N152 N 0.06682 0.79998 0.93239 0.0
C153 C 0.98213 0.79671 0.93203 0.0
C154 C 0.98066 0.8273 0.95717 0.0
C155 C 0.02291 0.84494 0.96804 0.0
C156 C 0.02637 0.7847 0.91923 0.0
H157 H 0.09835 0.84456 0.96379 0.0
C158 C 0.19536 0.82974 0.94324 0.0
O159 O 0.21884 0.89345 0.84522 0.0
O160 O 0.15381 0.90698 0.87692 0.0
N161 N 0.07388 0.755 0.87465 0.0
C162 C 0.08106 0.73152 0.84467 0.0
C163 C 0.04239 0.71322 0.82794 0.0
C164 C 0.99679 0.71919 0.84221 0.0
C165 C 0.99027 0.74331 0.8732 0.0
C166 C 0.03027 0.76003 0.88929 0.0
H167 H 0.11599 0.72667 0.83362 0.0
O168 O 0.12676 0.85361 0.82078 0.0
O169 O 0.11768 0.8266 0.87572 0.0
O170 O 0.2049 0.80636 0.84378 0.0
O171 O 0.17262 0.75813 0.87612 0.0
C172 C 0.94553 0.75261 0.8878 0.0
C173 C 0.94141 0.77973 0.91685 0.0
H174 H 0.94726 0.83868 0.9667 0.0
H175 H 0.02247 0.87038 0.98487 0.0
H176 H 0.0477 0.69471 0.80397 0.0
H177 H 0.96697 0.70558 0.82878 0.0
H178 H 0.91394 0.74032 0.87578 0.0
H179 H 0.90672 0.78824 0.92641 0.0
Mn180 Mn 0.17407 0.15627 0.85414 0.0
Mn181 Mn 0.12003 0.11459 0.77993 0.0
C182 C 0.10036 0.1772 0.83338 0.0
C183 C 0.19159 0.16029 0.91876 0.0
C184 C 0.20159 0.16883 0.77108 0.0
O185 O 0.20736 0.10493 0.85032 0.0
O186 O 0.16453 0.07853 0.8035 0.0
C187 C 0.06645 0.06421 0.82991 0.0
N188 N 0.06722 0.08776 0.79956 0.0
C189 C 0.98254 0.08821 0.79615 0.0
C190 C 0.98095 0.06302 0.8267 0.0
C191 C 0.02315 0.05209 0.8444 0.0
C192 C 0.02683 0.10097 0.78423 0.0
H193 H 0.09859 0.05627 0.84415 0.0
C194 C 0.19568 0.07683 0.82956 0.0
O195 O 0.21906 0.17483 0.89335 0.0
O196 O 0.15398 0.14312 0.90675 0.0
N197 N 0.07448 0.14554 0.75465 0.0
C198 C 0.08176 0.17556 0.73123 0.0
C199 C 0.04317 0.19236 0.71291 0.0
C200 C 0.99753 0.17813 0.71879 0.0
C201 C 0.9909 0.1471 0.74285 0.0
C202 C 0.03084 0.13094 0.75959 0.0
H203 H 0.11672 0.18658 0.72646 0.0
O204 O 0.12709 0.19928 0.85337 0.0
O205 O 0.11808 0.14436 0.82631 0.0
O206 O 0.20536 0.1763 0.80623 0.0
O207 O 0.17321 0.14397 0.75794 0.0
C208 C 0.94612 0.13254 0.75207 0.0
C209 C 0.94189 0.10346 0.77914 0.0
H210 H 0.94752 0.05351 0.83802 0.0
H211 H 0.02262 0.03525 0.86982 0.0
H212 H 0.04855 0.21635 0.69445 0.0
H213 H 0.96777 0.19161 0.70516 0.0
H214 H 0.91458 0.14462 0.73976 0.0
H215 H 0.90716 0.09392 0.78758 0.0
Mn216 Mn 0.82488 0.16567 0.86375 0.0
Mn217 Mn 0.87913 0.23979 0.90541 0.0
C218 C 0.8986 0.18634 0.84277 0.0
C219 C 0.80718 0.10109 0.85977 0.0
C220 C 0.79756 0.24877 0.8512 0.0
O221 O 0.79163 0.16954 0.91512 0.0
O222 O 0.8346 0.21629 0.9415 0.0
C223 C 0.93262 0.18966 0.9557 0.0
N224 N 0.9319 0.22007 0.93221 0.0
C225 C 0.01659 0.22338 0.93177 0.0
C226 C 0.01813 0.19278 0.9569 0.0
C227 C 0.9759 0.1751 0.96778 0.0
C228 C 0.97232 0.23537 0.91902 0.0
H229 H 0.90046 0.17544 0.9636 0.0
C230 C 0.80338 0.19029 0.94321 0.0
O231 O 0.77977 0.12654 0.84524 0.0
O232 O 0.84484 0.11303 0.87691 0.0
N233 N 0.92473 0.26503 0.87447 0.0
C234 C 0.91748 0.28849 0.84448 0.0
C235 C 0.95611 0.3068 0.82771 0.0
C236 C 0.00174 0.30087 0.84194 0.0
C237 C 0.00832 0.27676 0.87294 0.0
C238 C 0.96836 0.26003 0.88907 0.0
H239 H 0.88253 0.29332 0.83347 0.0
O240 O 0.87182 0.16636 0.82071 0.0
O241 O 0.88096 0.19342 0.87562 0.0
O242 O 0.7937 0.21363 0.84373 0.0
O243 O 0.82598 0.26187 0.87605 0.0
C244 C 0.05309 0.26749 0.8875 0.0
C245 C 0.05728 0.24038 0.91655 0.0
H246 H 0.05155 0.1814 0.96639 0.0
H247 H 0.9764 0.14963 0.98456 0.0
H248 H 0.95075 0.3253 0.80374 0.0
H249 H 0.03152 0.31449 0.82848 0.0
H250 H 0.08465 0.27979 0.87544 0.0
H251 H 0.09198 0.23189 0.92608 0.0
Mn252 Mn 0.82452 0.8637 0.85429 0.0
Mn253 Mn 0.87858 0.90536 0.78008 0.0
C254 C 0.89824 0.84277 0.83355 0.0
C255 C 0.80697 0.8597 0.9189 0.0
C256 C 0.79701 0.85113 0.77123 0.0
O257 O 0.79124 0.91505 0.85045 0.0
O258 O 0.8341 0.94144 0.80364 0.0
C259 C 0.93218 0.95574 0.83004 0.0
N260 N 0.9314 0.93218 0.79969 0.0
C261 C 0.01608 0.93173 0.79627 0.0
C262 C 0.01768 0.95692 0.82681 0.0
C263 C 0.9755 0.96786 0.84452 0.0
C264 C 0.97178 0.91897 0.78435 0.0
H265 H 0.90005 0.96368 0.84429 0.0
C266 C 0.80294 0.94315 0.82969 0.0
O267 O 0.77951 0.84517 0.89349 0.0
O268 O 0.84459 0.87687 0.90691 0.0
N269 N 0.92412 0.8744 0.7548 0.0
C270 C 0.91683 0.84438 0.73139 0.0
C271 C 0.95542 0.82758 0.71306 0.0
C272 C 0.00106 0.8418 0.71892 0.0
C273 C 0.00769 0.87283 0.74298 0.0
C274 C 0.96777 0.88899 0.75973 0.0
H275 H 0.88187 0.83336 0.72662 0.0
O276 O 0.8715 0.82069 0.85354 0.0
O277 O 0.88053 0.8756 0.82647 0.0
O278 O 0.79325 0.84366 0.80638 0.0
O279 O 0.82539 0.87599 0.75809 0.0
C280 C 0.05249 0.8874 0.75218 0.0
C281 C 0.05673 0.91648 0.77924 0.0
H282 H 0.05113 0.96643 0.83812 0.0
H283 H 0.97604 0.98471 0.86994 0.0
H284 H 0.95002 0.80358 0.6946 0.0
H285 H 0.03082 0.82832 0.70528 0.0
H286 H 0.08402 0.87531 0.73986 0.0
H287 H 0.09146 0.92602 0.78767 0.0
Mn288 Mn 0.6736 0.66569 0.65636 0.0
Mn289 Mn 0.61943 0.73983 0.61468 0.0
C290 C 0.59986 0.68637 0.6773 0.0
C291 C 0.69126 0.6011 0.66036 0.0
C292 C 0.70096 0.74878 0.66893 0.0
O293 O 0.7069 0.66955 0.60502 0.0
O294 O 0.66398 0.71631 0.57862 0.0
C295 C 0.56595 0.68976 0.56431 0.0
N296 N 0.56666 0.72014 0.58784 0.0
C297 C 0.48198 0.72347 0.58825 0.0
C298 C 0.48045 0.69289 0.56309 0.0
C299 C 0.52267 0.67522 0.5522 0.0
C300 C 0.52625 0.73544 0.60103 0.0
H301 H 0.59811 0.67554 0.5564 0.0
C302 C 0.69518 0.6903 0.57692 0.0
O303 O 0.71867 0.62654 0.67491 0.0
O304 O 0.65362 0.61305 0.6432 0.0
N305 N 0.57382 0.76507 0.6456 0.0
C306 C 0.58106 0.78853 0.6756 0.0
C307 C 0.54243 0.80684 0.69236 0.0
C308 C 0.49681 0.80092 0.67811 0.0
C309 C 0.49023 0.77682 0.64711 0.0
C310 C 0.5302 0.76009 0.63098 0.0
H311 H 0.616 0.79334 0.68663 0.0
O312 O 0.62662 0.6664 0.69938 0.0
O313 O 0.61755 0.69345 0.64446 0.0
O314 O 0.70479 0.71364 0.6764 0.0
O315 O 0.67256 0.76189 0.64406 0.0
C316 C 0.44547 0.76756 0.63252 0.0
C317 C 0.44129 0.74046 0.60346 0.0
H318 H 0.44703 0.68154 0.55358 0.0
H319 H 0.52218 0.64978 0.53537 0.0
H320 H 0.54777 0.82533 0.71634 0.0
H321 H 0.46702 0.81454 0.69157 0.0
H322 H 0.41391 0.77987 0.64457 0.0
H323 H 0.40659 0.73199 0.59391 0.0
Mn324 Mn 0.32436 0.65628 0.66582 0.0
Mn325 Mn 0.37845 0.61458 0.73999 0.0
C326 C 0.39809 0.67719 0.68655 0.0
C327 C 0.30676 0.6603 0.60123 0.0
C328 C 0.29693 0.66884 0.7489 0.0
O329 O 0.29105 0.60495 0.66966 0.0
O330 O 0.33391 0.57853 0.71645 0.0
C331 C 0.43195 0.56418 0.68997 0.0
N332 N 0.43122 0.58773 0.72034 0.0
C333 C 0.5159 0.58814 0.7237 0.0
C334 C 0.51746 0.56296 0.69314 0.0
C335 C 0.47524 0.55205 0.67546 0.0
C336 C 0.47163 0.60092 0.73565 0.0
H337 H 0.3998 0.55626 0.67575 0.0
C338 C 0.30273 0.57684 0.69041 0.0
O339 O 0.27934 0.67485 0.62665 0.0
O340 O 0.34439 0.64313 0.6132 0.0
N341 N 0.42404 0.6455 0.76526 0.0
C342 C 0.4168 0.6755 0.7887 0.0
C343 C 0.45542 0.69227 0.80702 0.0
C344 C 0.50104 0.67802 0.80112 0.0
C345 C 0.50763 0.64701 0.77703 0.0
C346 C 0.46767 0.63088 0.7603 0.0
H347 H 0.38185 0.68654 0.7935 0.0
O348 O 0.37136 0.69929 0.66657 0.0
O349 O 0.38038 0.64436 0.69362 0.0
O350 O 0.29313 0.67631 0.71376 0.0
O351 O 0.32531 0.64397 0.76203 0.0
C352 C 0.5524 0.63243 0.76779 0.0
C353 C 0.55659 0.60336 0.74071 0.0
H354 H 0.55088 0.55344 0.6818 0.0
H355 H 0.47574 0.5352 0.65004 0.0
H356 H 0.45006 0.71625 0.8255 0.0
H357 H 0.53082 0.69148 0.81475 0.0
H358 H 0.58395 0.64448 0.7801 0.0
H359 H 0.59129 0.5938 0.73225 0.0
Mn360 Mn 0.3247 0.35437 0.65621 0.0
Mn361 Mn 0.37899 0.28031 0.61448 0.0
C362 C 0.39844 0.33372 0.67717 0.0
C363 C 0.30696 0.41893 0.66024 0.0
C364 C 0.29748 0.27124 0.66874 0.0
O365 O 0.29142 0.35051 0.60486 0.0
O366 O 0.33439 0.30379 0.57845 0.0
C367 C 0.43235 0.33051 0.56418 0.0
N368 N 0.43171 0.30009 0.58765 0.0
C369 C 0.5164 0.29687 0.58803 0.0
C370 C 0.51786 0.32749 0.56292 0.0
C371 C 0.4756 0.34513 0.55208 0.0
C372 C 0.47216 0.28482 0.6008 0.0
H373 H 0.40016 0.34471 0.5563 0.0
C374 C 0.30315 0.32977 0.57675 0.0
O375 O 0.27957 0.39346 0.67477 0.0
O376 O 0.34462 0.40702 0.64308 0.0
N377 N 0.42466 0.25508 0.64537 0.0
C378 C 0.41748 0.23158 0.67533 0.0
C379 C 0.45616 0.21329 0.69205 0.0
C380 C 0.50176 0.21928 0.6778 0.0
C381 C 0.50827 0.24343 0.64682 0.0
C382 C 0.46827 0.26013 0.63074 0.0
H383 H 0.38255 0.22671 0.68637 0.0
O384 O 0.37166 0.35367 0.69925 0.0
O385 O 0.3808 0.32666 0.64431 0.0
O386 O 0.29357 0.30638 0.6762 0.0
O387 O 0.32591 0.25816 0.64388 0.0
C388 C 0.55301 0.25275 0.63223 0.0
C389 C 0.55712 0.2799 0.60321 0.0
H390 H 0.55125 0.3389 0.55342 0.0
H391 H 0.47604 0.3706 0.5353 0.0
H392 H 0.45085 0.19476 0.71601 0.0
H393 H 0.53158 0.20567 0.69122 0.0
H394 H 0.5846 0.24047 0.64425 0.0
H395 H 0.59181 0.28842 0.59366 0.0
Mn396 Mn 0.6739 0.3637 0.66586 0.0
Mn397 Mn 0.6199 0.40534 0.74011 0.0
C398 C 0.6002 0.34277 0.68664 0.0
C399 C 0.69137 0.35971 0.60124 0.0
C400 C 0.70149 0.35112 0.7489 0.0
O401 O 0.70718 0.41506 0.66969 0.0
O402 O 0.66435 0.44143 0.71654 0.0
C403 C 0.56624 0.45572 0.69019 0.0
N404 N 0.56705 0.43215 0.72054 0.0
C405 C 0.48238 0.43167 0.724 0.0
C406 C 0.48074 0.45688 0.69346 0.0
C407 C 0.52291 0.46783 0.67574 0.0
C408 C 0.52669 0.41892 0.73589 0.0
H409 H 0.59836 0.46368 0.67594 0.0
C410 C 0.69549 0.44315 0.69047 0.0
O411 O 0.71886 0.34517 0.62662 0.0
O412 O 0.65377 0.37687 0.61326 0.0
N413 N 0.57439 0.37435 0.76541 0.0
C414 C 0.58171 0.34432 0.78879 0.0
C415 C 0.54314 0.32749 0.80713 0.0
C416 C 0.49749 0.3417 0.80129 0.0
C417 C 0.49082 0.37274 0.77725 0.0
C418 C 0.53073 0.38893 0.7605 0.0
H419 H 0.61668 0.33331 0.79354 0.0
O420 O 0.62692 0.32069 0.66663 0.0
O421 O 0.61792 0.37559 0.69372 0.0
O422 O 0.70523 0.34366 0.71376 0.0
O423 O 0.67311 0.37597 0.76207 0.0
C424 C 0.44602 0.38729 0.76807 0.0
C425 C 0.44174 0.41639 0.74102 0.0
H426 H 0.44729 0.46638 0.68217 0.0
H427 H 0.52235 0.48468 0.65033 0.0
H428 H 0.54856 0.30348 0.82557 0.0
H429 H 0.46775 0.3282 0.81492 0.0
H430 H 0.4145 0.37519 0.78039 0.0
H431 H 0.40701 0.42593 0.73261 0.0
Mn432 Mn 0.67373 0.35419 0.36377 0.0
Mn433 Mn 0.61962 0.27998 0.40538 0.0
C434 C 0.60005 0.33344 0.34276 0.0
C435 C 0.69124 0.41881 0.35981 0.0
C436 C 0.70126 0.27114 0.35121 0.0
O437 O 0.70694 0.35035 0.41515 0.0
O438 O 0.66405 0.30354 0.4415 0.0
C439 C 0.56594 0.32999 0.45565 0.0
N440 N 0.56676 0.2996 0.43214 0.0
C441 C 0.48208 0.29617 0.43161 0.0
C442 C 0.48044 0.32675 0.45677 0.0
C443 C 0.52261 0.34449 0.4677 0.0
C444 C 0.5264 0.28425 0.4189 0.0
H445 H 0.59806 0.34426 0.46359 0.0
C446 C 0.69521 0.32959 0.44324 0.0
O447 O 0.71873 0.39342 0.34528 0.0
O448 O 0.65361 0.40679 0.37694 0.0
N449 N 0.57412 0.2547 0.37437 0.0
C450 C 0.58146 0.23129 0.34436 0.0
C451 C 0.54289 0.21296 0.32752 0.0
C452 C 0.49723 0.21882 0.3417 0.0
C453 C 0.49055 0.24288 0.37273 0.0
C454 C 0.53045 0.25962 0.38893 0.0
H455 H 0.61643 0.22653 0.33336 0.0
O456 O 0.62681 0.35344 0.32071 0.0
O457 O 0.61772 0.32636 0.37561 0.0
O458 O 0.70504 0.30628 0.34375 0.0
O459 O 0.67285 0.25799 0.37605 0.0
C460 C 0.44574 0.25208 0.38725 0.0
C461 C 0.44145 0.27915 0.41633 0.0
H462 H 0.44698 0.33807 0.46624 0.0
H463 H 0.52204 0.36995 0.48447 0.0
H464 H 0.54832 0.19451 0.30352 0.0
H465 H 0.46749 0.20519 0.32819 0.0
H466 H 0.41422 0.23976 0.37514 0.0
H467 H 0.40671 0.28758 0.42583 0.0
Mn468 Mn 0.67343 0.65625 0.35439 0.0
Mn469 Mn 0.61917 0.61458 0.28028 0.0
C470 C 0.59971 0.67724 0.33372 0.0
C471 C 0.69112 0.66024 0.41897 0.0
C472 C 0.70073 0.66881 0.27128 0.0
O473 O 0.70669 0.60489 0.35052 0.0
O474 O 0.66372 0.57851 0.30377 0.0
C475 C 0.56572 0.56431 0.33044 0.0
N476 N 0.56641 0.58778 0.30002 0.0
C477 C 0.48173 0.58821 0.29674 0.0
C478 C 0.48021 0.5631 0.32736 0.0
C479 C 0.52244 0.55223 0.34503 0.0
C480 C 0.52599 0.60096 0.28473 0.0
H481 H 0.59789 0.55642 0.34466 0.0
C482 C 0.69495 0.57679 0.32977 0.0
O483 O 0.71853 0.67477 0.39353 0.0
O484 O 0.65346 0.6431 0.40702 0.0
N485 N 0.57356 0.64551 0.25504 0.0
C486 C 0.58078 0.67549 0.23157 0.0
C487 C 0.54214 0.69225 0.21327 0.0
C488 C 0.49652 0.67802 0.21922 0.0
C489 C 0.48996 0.64702 0.24334 0.0
C490 C 0.52993 0.6309 0.26006 0.0
H491 H 0.61573 0.68652 0.22673 0.0
O492 O 0.6265 0.6993 0.35369 0.0
O493 O 0.61736 0.64438 0.32664 0.0
O494 O 0.70461 0.67627 0.30642 0.0
O495 O 0.6723 0.64396 0.25818 0.0
C496 C 0.44519 0.63246 0.25263 0.0
C497 C 0.44103 0.60342 0.27976 0.0
H498 H 0.4468 0.55361 0.33875 0.0
H499 H 0.52197 0.53548 0.37051 0.0
H500 H 0.54748 0.71622 0.19476 0.0
H501 H 0.46672 0.69147 0.20561 0.0
H502 H 0.41363 0.64451 0.24034 0.0
H503 H 0.40633 0.59389 0.28826 0.0
Mn504 Mn 0.32427 0.66588 0.36381 0.0
Mn505 Mn 0.37831 0.7401 0.40548 0.0
C506 C 0.39796 0.68667 0.34286 0.0
C507 C 0.3068 0.60126 0.35979 0.0
C508 C 0.29672 0.74893 0.35126 0.0
O509 O 0.29101 0.66968 0.41517 0.0
O510 O 0.33383 0.71652 0.44156 0.0
C511 C 0.43193 0.69011 0.45582 0.0
N512 N 0.43114 0.72048 0.43229 0.0
C513 C 0.51581 0.72391 0.43181 0.0
C514 C 0.51743 0.69335 0.45699 0.0
C515 C 0.47524 0.67563 0.46791 0.0
C516 C 0.47151 0.73583 0.41907 0.0
H517 H 0.3998 0.67586 0.46376 0.0
C518 C 0.30269 0.69045 0.44327 0.0
O519 O 0.2793 0.62665 0.34527 0.0
O520 O 0.3444 0.61328 0.37695 0.0
N521 N 0.42383 0.76539 0.37451 0.0
C522 C 0.41653 0.7888 0.3445 0.0
C523 C 0.45511 0.80713 0.32768 0.0
C524 C 0.50076 0.80127 0.3419 0.0
C525 C 0.50741 0.77721 0.37292 0.0
C526 C 0.46749 0.76046 0.3891 0.0
H527 H 0.38156 0.79357 0.33348 0.0
O528 O 0.37123 0.66667 0.32078 0.0
O529 O 0.38026 0.69372 0.3757 0.0
O530 O 0.29295 0.71379 0.3438 0.0
O531 O 0.32511 0.76208 0.37612 0.0
C532 C 0.5522 0.768 0.38747 0.0
C533 C 0.55646 0.74093 0.41655 0.0
H534 H 0.55087 0.68203 0.46648 0.0
H535 H 0.47579 0.65019 0.48473 0.0
H536 H 0.44971 0.82559 0.30369 0.0
H537 H 0.53051 0.8149 0.3284 0.0
H538 H 0.58373 0.78032 0.37538 0.0
H539 H 0.59119 0.7325 0.42608 0.0
Mn540 Mn 0.32461 0.36383 0.3542 0.0
Mn541 Mn 0.37881 0.4055 0.28007 0.0
C542 C 0.39831 0.34284 0.3335 0.0
C543 C 0.30699 0.35984 0.4188 0.0
C544 C 0.29723 0.35129 0.27111 0.0
O545 O 0.29136 0.41519 0.35036 0.0
O546 O 0.3343 0.44158 0.30359 0.0
C547 C 0.43234 0.45576 0.3302 0.0
N548 N 0.4316 0.43228 0.29977 0.0
C549 C 0.51629 0.43181 0.29646 0.0
C550 C 0.51785 0.45693 0.32707 0.0
C551 C 0.47563 0.46781 0.34477 0.0
C552 C 0.47201 0.41909 0.28447 0.0
H553 H 0.40018 0.46365 0.34443 0.0
C554 C 0.3031 0.4433 0.32961 0.0
O555 O 0.27954 0.34531 0.39338 0.0
O556 O 0.34464 0.37698 0.40682 0.0
N557 N 0.42439 0.37455 0.25481 0.0
C558 C 0.41713 0.34456 0.23135 0.0
C559 C 0.45575 0.32778 0.21304 0.0
C560 C 0.50138 0.34199 0.21897 0.0
C561 C 0.50798 0.37299 0.24308 0.0
C562 C 0.46803 0.38914 0.2598 0.0
H563 H 0.38217 0.33355 0.22653 0.0
O564 O 0.37153 0.32078 0.35348 0.0
O565 O 0.38066 0.37569 0.32643 0.0
O566 O 0.29338 0.34382 0.30625 0.0
O567 O 0.32565 0.37614 0.258 0.0
C568 C 0.55276 0.38754 0.25235 0.0
C569 C 0.55697 0.41658 0.27946 0.0
H570 H 0.55127 0.46641 0.33845 0.0
H571 H 0.47613 0.48455 0.37025 0.0
H572 H 0.45038 0.30381 0.19455 0.0
H573 H 0.53116 0.32852 0.20536 0.0
H574 H 0.58431 0.37546 0.24005 0.0
H575 H 0.59168 0.4261 0.28795 0.0
C576 C 0.26063 0.33784 0.20719 0.0
C577 C 0.27146 0.32646 0.24432 0.0
H578 H 0.22921 0.32241 0.15397 0.0
C579 C 0.26001 0.2895 0.25555 0.0
H580 H 0.26932 0.36606 0.19762 0.0
C581 C 0.23865 0.26444 0.23049 0.0
C582 C 0.22715 0.2757 0.19355 0.0
H583 H 0.2684 0.2795 0.2837 0.0
H584 H 0.23029 0.23629 0.24049 0.0
C585 C 0.23794 0.31284 0.18219 0.0
C586 C 0.73862 0.25563 0.28945 0.0
C587 C 0.72711 0.24437 0.3264 0.0
H588 H 0.76841 0.24058 0.23626 0.0
C589 C 0.73792 0.20724 0.33777 0.0
H590 H 0.73024 0.28378 0.27946 0.0
C591 C 0.76066 0.18225 0.31278 0.0
C592 C 0.7715 0.19363 0.27565 0.0
H593 H 0.72919 0.19766 0.36598 0.0
H594 H 0.76937 0.15403 0.32235 0.0
C595 C 0.76001 0.23058 0.2644 0.0
C596 C 0.75932 0.75565 0.23064 0.0
C597 C 0.77088 0.74437 0.19372 0.0
H598 H 0.72949 0.74062 0.28383 0.0
C599 C 0.76009 0.70723 0.18237 0.0
H600 H 0.76767 0.78381 0.24063 0.0
C601 C 0.73736 0.68224 0.20736 0.0
C602 C 0.72649 0.69364 0.24448 0.0
H603 H 0.76886 0.69763 0.15417 0.0
H604 H 0.72869 0.65401 0.19781 0.0
C605 C 0.73792 0.73061 0.2557 0.0
C606 C 0.2601 0.81284 0.3378 0.0
C607 C 0.27088 0.7757 0.32645 0.0
H608 H 0.22873 0.86607 0.32235 0.0
C609 C 0.25934 0.76443 0.28952 0.0
H610 H 0.26885 0.82243 0.36601 0.0
C611 C 0.23797 0.78948 0.26445 0.0
C612 C 0.22655 0.82645 0.27567 0.0
H613 H 0.26768 0.73627 0.27954 0.0
H614 H 0.22956 0.77947 0.23632 0.0
C615 C 0.2374 0.83784 0.3128 0.0
C616 C 0.25963 0.7306 0.76442 0.0
C617 C 0.27112 0.69366 0.77568 0.0
H618 H 0.22988 0.78381 0.77947 0.0
C619 C 0.26031 0.68229 0.81281 0.0
H620 H 0.268 0.74059 0.73627 0.0
C621 C 0.23761 0.7073 0.83781 0.0
C622 C 0.22679 0.74442 0.82643 0.0
H623 H 0.26903 0.65408 0.82239 0.0
H624 H 0.22891 0.69773 0.86603 0.0
C625 C 0.23826 0.75566 0.78947 0.0
C626 C 0.23821 0.1823 0.70717 0.0
C627 C 0.22742 0.19365 0.74431 0.0
H628 H 0.26959 0.19776 0.65394 0.0
C629 C 0.23894 0.23059 0.75558 0.0
H630 H 0.22947 0.15409 0.69758 0.0
C631 C 0.26031 0.25565 0.73053 0.0
C632 C 0.27174 0.24443 0.69356 0.0
H633 H 0.23059 0.24057 0.78374 0.0
H634 H 0.26871 0.28379 0.74054 0.0
C635 C 0.26091 0.20731 0.68217 0.0
C636 C 0.76031 0.26433 0.78942 0.0
C637 C 0.77177 0.27556 0.82638 0.0
H638 H 0.73052 0.27939 0.73623 0.0
C639 C 0.76093 0.31268 0.83777 0.0
H640 H 0.76872 0.23619 0.77941 0.0
C641 C 0.73818 0.33767 0.81279 0.0
C642 C 0.72736 0.32631 0.77566 0.0
H643 H 0.76963 0.32224 0.866 0.0
H644 H 0.72943 0.36588 0.82239 0.0
C645 C 0.7389 0.28938 0.76438 0.0
C646 C 0.76035 0.83768 0.70734 0.0
C647 C 0.77117 0.82631 0.74447 0.0
H648 H 0.7289 0.82225 0.65413 0.0
C649 C 0.75964 0.78938 0.75574 0.0
H650 H 0.76909 0.86588 0.69775 0.0
C651 C 0.73823 0.76433 0.7307 0.0
C652 C 0.72676 0.77556 0.69374 0.0
H653 H 0.76801 0.77939 0.78389 0.0
H654 H 0.72982 0.73619 0.74071 0.0
C655 C 0.73761 0.81268 0.68235 0.0
C656 C 0.1871 0.13735 0.9857 0.0
C657 C 0.20133 0.16498 0.9596 0.0
H658 H 0.17727 0.12314 0.0441 0.0
C659 C 0.222 0.19848 0.97308 0.0
H660 H 0.17122 0.11124 0.97604 0.0
C661 C 0.22458 0.2056 0.01199 0.0
C662 C 0.20841 0.17867 0.0381 0.0
H663 H 0.23309 0.22031 0.95355 0.0
H664 H 0.23659 0.23302 0.02164 0.0
C665 C 0.19135 0.1439 0.02461 0.0
C666 C 0.77421 0.2055 1.00794 0.0
C667 C 0.79037 0.17856 0.98184 0.0
H668 H 0.7657 0.22024 0.06637 0.0
C669 C 0.80742 0.14379 0.99534 0.0
H670 H 0.7622 0.23291 0.99828 0.0
C671 C 0.81166 0.13726 0.03426 0.0
C672 C 0.79745 0.1649 0.06035 0.0
H673 H 0.82149 0.12302 0.97586 0.0
H674 H 0.82755 0.11115 0.04392 0.0
C675 C 0.77678 0.19839 0.04685 0.0
C676 C 0.81146 0.88262 0.98586 0.0
C677 C 0.79719 0.85502 0.95974 0.0
H678 H 0.82127 0.89681 0.04427 0.0
C679 C 0.77642 0.82155 0.97321 0.0
H680 H 0.82742 0.9087 0.97621 0.0
C681 C 0.77377 0.81443 0.01212 0.0
C682 C 0.78998 0.84133 0.03824 0.0
H683 H 0.76528 0.79974 0.95367 0.0
H684 H 0.76167 0.78703 0.02175 0.0
C685 C 0.80715 0.87608 0.02476 0.0
C686 C 0.18705 0.8828 0.03424 0.0
C687 C 0.20116 0.85514 0.06034 0.0
H688 H 0.17735 0.89705 0.97583 0.0
C689 C 0.22182 0.82164 0.04688 0.0
H690 H 0.17117 0.90892 0.04388 0.0
C691 C 0.22448 0.81453 1.00797 0.0
C692 C 0.20838 0.84148 0.98185 0.0
H693 H 0.23283 0.79978 0.06642 0.0
H694 H 0.23646 0.7871 0.99833 0.0
C695 C 0.19137 0.87627 0.99533 0.0
C696 C 0.02411 0.20824 0.20709 0.0
C697 C 0.04875 0.18518 0.18154 0.0
H698 H 0.95571 0.22556 0.22738 0.0
C699 C 0.02375 0.16026 0.15824 0.0
H700 H 0.04297 0.22745 0.22548 0.0
C701 C 0.9749 0.15832 0.16018 0.0
C702 C 0.9499 0.18162 0.18511 0.0
H703 H 0.04215 0.14209 0.13848 0.0
H704 H 0.95649 0.13857 0.14201 0.0
C705 C 0.97456 0.20717 0.20817 0.0
C706 C 0.8116 0.98572 0.13739 0.0
C707 C 0.79731 0.95964 0.16501 0.0
H708 H 0.82152 0.04411 0.12317 0.0
C709 C 0.77663 0.97314 0.19849 0.0
H710 H 0.82751 0.97605 0.11129 0.0
C711 C 0.77409 0.01206 0.20561 0.0
C712 C 0.79031 0.03815 0.17868 0.0
H713 H 0.76549 0.95363 0.22033 0.0
H714 H 0.76205 0.02172 0.23301 0.0
C715 C 0.8074 0.02464 0.14392 0.0
C716 C 0.97447 0.85972 0.15826 0.0
C717 C 0.94954 0.83478 0.1816 0.0
H718 H 0.04167 0.88147 0.14195 0.0
C719 C 0.97427 0.81175 0.20712 0.0
H720 H 0.95601 0.87787 0.13853 0.0
C721 C 0.02382 0.81286 0.20813 0.0
C722 C 0.0484 0.83843 0.18505 0.0
H723 H 0.95548 0.79252 0.22554 0.0
H724 H 0.04274 0.79449 0.22733 0.0
C725 C 0.02332 0.8617 0.16014 0.0
C726 C 0.18699 0.03429 0.13727 0.0
C727 C 0.20116 0.06039 0.16491 0.0
H728 H 0.17715 0.9759 0.12304 0.0
C729 C 0.22175 0.0469 0.19844 0.0
H730 H 0.17116 0.04395 0.11113 0.0
C731 C 0.22429 1.00799 0.20557 0.0
C732 C 0.20816 0.98189 0.17862 0.0
H733 H 0.2328 0.06643 0.22029 0.0
H734 H 0.23623 0.99834 0.23301 0.0
C735 C 0.19119 0.99538 0.14382 0.0
C736 C 0.97465 0.86181 0.85987 0.0
C737 C 0.94969 0.83847 0.83495 0.0
H738 H 0.04189 0.87811 0.88156 0.0
C739 C 0.97438 0.81295 0.81189 0.0
H740 H 0.95622 0.88154 0.87804 0.0
C741 C 0.02394 0.81193 0.81296 0.0
C742 C 0.04855 0.83502 0.83851 0.0
H743 H 0.95556 0.79454 0.79268 0.0
H744 H 0.04282 0.79274 0.79458 0.0
C745 C 0.02351 0.85992 0.86181 0.0
C746 C 0.22206 0.97316 0.82156 0.0
C747 C 0.20133 0.95973 0.85505 0.0
H748 H 0.23681 0.02167 0.787 0.0
C749 C 0.18717 0.98586 0.88266 0.0
H750 H 0.23311 0.9536 0.79973 0.0
C751 C 0.19152 0.02476 0.87611 0.0
C752 C 0.20864 0.03821 0.84133 0.0
H753 H 0.17124 0.97625 0.90877 0.0
H754 H 0.17748 0.04428 0.89685 0.0
C755 C 0.22476 0.01206 0.81442 0.0
C756 C 0.02421 0.20702 0.81174 0.0
C757 C 0.04891 0.18149 0.83478 0.0
H758 H 0.95577 0.22725 0.79445 0.0
C759 C 0.02395 0.15816 0.85971 0.0
H760 H 0.04303 0.22543 0.79253 0.0
C761 C 0.97509 0.16005 0.86166 0.0
C762 C 0.95005 0.18496 0.83838 0.0
H763 H 0.04239 0.13841 0.87787 0.0
H764 H 0.95672 0.14186 0.88142 0.0
C765 C 0.97466 0.20805 0.81282 0.0
C766 C 0.77385 1.0079 0.81453 0.0
C767 C 0.79 0.98178 0.84145 0.0
H768 H 0.76548 0.06635 0.7998 0.0
C769 C 0.80714 0.99525 0.87621 0.0
H770 H 0.76178 0.99826 0.78712 0.0
C771 C 0.81149 0.03415 0.88273 0.0
C772 C 0.79731 0.06026 0.85511 0.0
H773 H 0.82119 0.97574 0.89696 0.0
H774 H 0.82744 0.04379 0.90883 0.0
C775 C 0.77654 0.04681 0.82163 0.0
C776 C 0.72168 0.69839 0.47327 0.0
C777 C 0.70096 0.6649 0.4598 0.0
H778 H 0.73635 0.73291 0.52182 0.0
C779 C 0.68679 0.63727 0.48591 0.0
H780 H 0.73273 0.72023 0.45373 0.0
C781 C 0.6911 0.64379 0.52481 0.0
C782 C 0.70819 0.67857 0.5383 0.0
H783 H 0.67087 0.61116 0.47626 0.0
H784 H 0.67705 0.62303 0.54431 0.0
C785 C 0.72433 0.7055 0.51218 0.0
C786 C 0.31117 0.63738 0.53428 0.0
C787 C 0.29696 0.66499 0.56039 0.0
H788 H 0.32093 0.62317 0.47587 0.0
C789 C 0.27623 0.69848 0.54693 0.0
H790 H 0.32709 0.61128 0.54391 0.0
C791 C 0.27358 0.7056 0.50802 0.0
C792 C 0.28974 0.67869 0.4819 0.0
H793 H 0.26514 0.7203 0.56647 0.0
H794 H 0.26153 0.73301 0.49839 0.0
C795 C 0.30686 0.64392 0.49537 0.0
C796 C 0.31135 0.38282 0.48573 0.0
C797 C 0.2972 0.35517 0.45963 0.0
H798 H 0.32114 0.39707 0.54412 0.0
C799 C 0.27657 0.32165 0.47312 0.0
H800 H 0.32721 0.40894 0.47606 0.0
C801 C 0.27398 0.31454 0.51204 0.0
C802 C 0.2901 0.3415 0.53814 0.0
H803 H 0.26553 0.2998 0.4536 0.0
H804 H 0.26201 0.28712 0.52169 0.0
C805 C 0.3071 0.37629 0.52464 0.0
C806 C 0.69102 0.37608 0.49537 0.0
C807 C 0.70816 0.34132 0.48188 0.0
H808 H 0.67085 0.40871 0.54394 0.0
C809 C 0.72438 0.31442 0.50799 0.0
H810 H 0.67691 0.39682 0.47588 0.0
C811 C 0.7218 0.32154 0.5469 0.0
C812 C 0.70108 0.35502 0.56038 0.0
H813 H 0.73645 0.28702 0.49834 0.0
H814 H 0.73295 0.29972 0.56643 0.0
C815 C 0.68679 0.38262 0.53428 0.0
C816 C 0.5234 0.66009 0.65834 0.0
C817 C 0.54841 0.68499 0.68164 0.0
H818 H 0.45612 0.63844 0.64208 0.0
C819 C 0.52377 0.70807 0.70718 0.0
H820 H 0.54179 0.6419 0.63859 0.0
C821 C 0.47422 0.70704 0.70823 0.0
C822 C 0.44955 0.6815 0.68517 0.0
H823 H 0.54264 0.72727 0.72558 0.0
H824 H 0.45537 0.72544 0.72744 0.0
C825 C 0.47454 0.65818 0.66026 0.0
C826 C 0.27366 0.51208 0.70557 0.0
C827 C 0.28976 0.53823 0.67864 0.0
H828 H 0.26534 0.45363 0.72027 0.0
C829 C 0.30683 0.52478 0.64385 0.0
H830 H 0.26164 0.5217 0.73299 0.0
C831 C 0.31118 0.48588 0.6373 0.0
C832 C 0.29706 0.45975 0.66493 0.0
H833 H 0.32084 0.5443 0.62309 0.0
H834 H 0.32708 0.47626 0.61118 0.0
C835 C 0.27635 0.47318 0.69843 0.0
C836 C 0.52382 0.36184 0.66028 0.0
C837 C 0.54874 0.33849 0.68521 0.0
H838 H 0.45662 0.37817 0.63854 0.0
C839 C 0.52401 0.31297 0.70825 0.0
H840 H 0.54229 0.38158 0.64213 0.0
C841 C 0.47445 0.31197 0.70714 0.0
C842 C 0.44988 0.33507 0.68157 0.0
H843 H 0.5428 0.29455 0.72746 0.0
H844 H 0.45554 0.29278 0.7255 0.0
C845 C 0.47496 0.35997 0.65831 0.0
C846 C 0.7219 0.54682 0.6985 0.0
C847 C 0.70111 0.56027 0.66503 0.0
H848 H 0.73668 0.49828 0.73301 0.0
C849 C 0.6869 0.53415 0.63742 0.0
H850 H 0.73299 0.56636 0.72032 0.0
C851 C 0.69125 0.49525 0.64396 0.0
C852 C 0.70842 0.48178 0.67871 0.0
H853 H 0.67093 0.54379 0.61134 0.0
H854 H 0.67717 0.47574 0.62321 0.0
C855 C 0.72459 0.50791 0.70561 0.0
C856 C 0.47478 0.36175 0.35981 0.0
C857 C 0.44975 0.33846 0.33489 0.0
H858 H 0.54205 0.37795 0.38149 0.0
C859 C 0.47437 0.3129 0.31182 0.0
H860 H 0.45639 0.38151 0.37799 0.0
C861 C 0.52393 0.31181 0.31288 0.0
C862 C 0.5486 0.33486 0.33842 0.0
H863 H 0.4555 0.29453 0.29261 0.0
H864 H 0.54276 0.2926 0.29448 0.0
C865 C 0.52363 0.35979 0.36173 0.0
C866 C 0.72162 0.47317 0.32164 0.0
C867 C 0.70096 0.45966 0.35514 0.0
H868 H 0.73618 0.52175 0.28713 0.0
C869 C 0.68671 0.48574 0.38277 0.0
H870 H 0.73273 0.45366 0.2998 0.0
C871 C 0.69092 0.52466 0.37625 0.0
C872 C 0.70798 0.53817 0.34148 0.0
H873 H 0.67082 0.47606 0.40888 0.0
H874 H 0.67682 0.54413 0.39701 0.0
C875 C 0.72417 0.51209 0.31454 0.0
C876 C 0.52368 0.7072 0.31201 0.0
C877 C 0.54827 0.68163 0.33509 0.0
H878 H 0.45531 0.72751 0.29463 0.0
C879 C 0.52322 0.65835 0.36 0.0
H880 H 0.54257 0.72557 0.29282 0.0
C881 C 0.47436 0.66032 0.36189 0.0
C882 C 0.44942 0.68525 0.33856 0.0
H883 H 0.54158 0.63859 0.37819 0.0
H884 H 0.45592 0.64216 0.38164 0.0
C885 C 0.47412 0.70829 0.31304 0.0
C886 C 0.30714 0.4954 0.37613 0.0
C887 C 0.29009 0.48192 0.34134 0.0
H888 H 0.32722 0.54396 0.40881 0.0
C889 C 0.27391 0.50803 0.31442 0.0
H890 H 0.32122 0.47591 0.39688 0.0
C891 C 0.27645 0.54694 0.32156 0.0
C892 C 0.2971 0.56041 0.35507 0.0
H893 H 0.26191 0.49838 0.287 0.0
H894 H 0.26534 0.56646 0.29973 0.0
C895 C 0.31134 0.53431 0.38269 0.0
loop_
_geom_bond_atom_site_label_1
_geom_bond_atom_site_label_2
_geom_bond_distance
_geom_bond_site_symmetry_2
_ccdc_geom_bond_type
Mn0 O5 2.095 . S
Mn0 O15 2.162 . S
Mn0 O16 2.297 . S
Mn0 O24 2.385 . S
Mn0 O25 2.209 . S
Mn0 O26 2.094 . S
Mn1 O6 2.121 . S
Mn1 N8 2.257 . S
Mn1 N17 2.282 . S
Mn1 O25 2.215 . S
Mn1 O27 2.117 . S
C2 O24 1.234 . S
C2 O25 1.283 . S
C3 O15 1.281 . S
C3 O16 1.236 . S
C4 O26 1.240 . S
C4 O27 1.264 . S
O5 Mn0 2.095 . S
O5 C14 1.250 . S
O6 Mn1 2.121 . S
O6 C14 1.258 . S
C7 N8 1.326 . S
C7 C11 1.460 . S
C7 H13 0.929 . S
N8 Mn1 2.257 . S
N8 C7 1.326 . S
N8 C12 1.362 . S
C9 C10 1.257 1_455 S
C9 C12 1.434 . S
C9 C29 1.446 1_455 S
C10 C9 1.257 1_655 S
C10 C11 1.477 1_655 S
C10 H30 0.931 . S
C11 C7 1.460 . S
C11 C10 1.477 1_455 S
C11 H31 0.930 . S
C12 N8 1.362 . S
C12 C9 1.434 . S
C12 C22 1.476 . S
H13 C7 0.929 . S
C14 O5 1.250 . S
C14 O6 1.258 . S
O15 Mn0 2.162 . S
O15 C3 1.281 . S
O16 Mn0 2.297 . S
O16 C3 1.236 . S
N17 Mn1 2.282 . S
N17 C18 1.328 . S
N17 C22 1.318 . S
C18 N17 1.328 . S
C18 C19 1.457 . S
C18 H23 0.929 . S
C19 C18 1.457 . S
C19 C20 1.291 . S
C19 H32 0.931 . S
C20 C19 1.291 . S
C20 C21 1.373 . S
C20 H33 0.929 1_455 S
C21 C20 1.373 . S
C21 C22 1.396 . S
C21 C28 1.403 1_455 S
C22 C12 1.476 . S
C22 N17 1.318 . S
C22 C21 1.396 . S
H23 C18 0.929 . S
O24 Mn0 2.385 . S
O24 C2 1.234 . S
O25 Mn0 2.209 . S
O25 Mn1 2.215 . S
O25 C2 1.283 . S
O26 Mn0 2.094 . S
O26 C4 1.240 . S
O27 Mn1 2.117 . S
O27 C4 1.264 . S
C28 C21 1.403 1_655 S
C28 C29 1.399 . S
C28 H34 0.929 . S
C29 C9 1.446 1_655 S
C29 C28 1.399 . S
C29 H35 0.930 . S
H30 C10 0.931 . S
H31 C11 0.930 . S
H32 C19 0.931 . S
H33 C20 0.929 1_655 S
H34 C28 0.929 . S
H35 C29 0.930 . S
Mn36 O41 2.095 . S
Mn36 O51 2.162 . S
Mn36 O52 2.297 . S
Mn36 O60 2.385 . S
Mn36 O61 2.209 . S
Mn36 O62 2.094 . S
Mn37 O42 2.121 . S
Mn37 N44 2.257 . S
Mn37 N53 2.282 . S
Mn37 O61 2.215 . S
Mn37 O63 2.117 . S
C38 O60 1.234 . S
C38 O61 1.283 . S
C39 O51 1.281 . S
C39 O52 1.236 . S
C40 O62 1.240 . S
C40 O63 1.264 . S
O41 Mn36 2.095 . S
O41 C50 1.250 . S
O42 Mn37 2.121 . S
O42 C50 1.258 . S
C43 N44 1.326 . S
C43 C47 1.460 . S
C43 H49 0.929 . S
N44 Mn37 2.257 . S
N44 C43 1.326 . S
N44 C48 1.362 . S
C45 C46 1.257 1_655 S
C45 C48 1.434 . S
C45 C65 1.446 1_655 S
C46 C45 1.257 1_455 S
C46 C47 1.477 1_455 S
C46 H66 0.931 . S
C47 C43 1.460 . S
C47 C46 1.477 1_655 S
C47 H67 0.930 . S
C48 N44 1.362 . S
C48 C45 1.434 . S
C48 C58 1.476 . S
H49 C43 0.929 . S
C50 O41 1.250 . S
C50 O42 1.258 . S
O51 Mn36 2.162 . S
O51 C39 1.281 . S
O52 Mn36 2.297 . S
O52 C39 1.236 . S
N53 Mn37 2.282 . S
N53 C54 1.328 . S
N53 C58 1.318 . S
C54 N53 1.328 . S
C54 C55 1.457 . S
C54 H59 0.929 . S
C55 C54 1.457 . S
C55 C56 1.291 . S
C55 H68 0.931 . S
C56 C55 1.291 . S
C56 C57 1.373 . S
C56 H69 0.929 1_655 S
C57 C56 1.373 . S
C57 C58 1.396 . S
C57 C64 1.403 1_655 S
C58 C48 1.476 . S
C58 N53 1.318 . S
C58 C57 1.396 . S
H59 C54 0.929 . S
O60 Mn36 2.385 . S
O60 C38 1.234 . S
O61 Mn36 2.209 . S
O61 Mn37 2.215 . S
O61 C38 1.283 . S
O62 Mn36 2.094 . S
O62 C40 1.240 . S
O63 Mn37 2.117 . S
O63 C40 1.264 . S
C64 C57 1.403 1_455 S
C64 C65 1.399 . S
C64 H70 0.929 . S
C65 C45 1.446 1_455 S
C65 C64 1.399 . S
C65 H71 0.930 . S
H66 C46 0.931 . S
H67 C47 0.930 . S
H68 C55 0.931 . S
H69 C56 0.929 1_455 S
H70 C64 0.929 . S
H71 C65 0.930 . S
Mn72 O77 2.095 . S
Mn72 O87 2.162 . S
Mn72 O88 2.297 . S
Mn72 O96 2.385 . S
Mn72 O97 2.209 . S
Mn72 O98 2.094 . S
Mn73 O78 2.121 . S
Mn73 N80 2.257 . S
Mn73 N89 2.282 . S
Mn73 O97 2.215 . S
Mn73 O99 2.117 . S
C74 O96 1.234 . S
C74 O97 1.283 . S
C75 O87 1.281 . S
C75 O88 1.236 . S
C76 O98 1.240 . S
C76 O99 1.264 . S
O77 Mn72 2.095 . S
O77 C86 1.250 . S
O78 Mn73 2.121 . S
O78 C86 1.258 . S
C79 N80 1.326 . S
C79 C83 1.460 . S
C79 H85 0.929 . S
N80 Mn73 2.257 . S
N80 C79 1.326 . S
N80 C84 1.362 . S
C81 C82 1.257 1_655 S
C81 C84 1.434 . S
C81 C101 1.446 1_655 S
C82 C81 1.257 1_455 S
C82 C83 1.477 1_455 S
C82 H102 0.931 . S
C83 C79 1.460 . S
C83 C82 1.477 1_655 S
C83 H103 0.930 . S
C84 N80 1.362 . S
C84 C81 1.434 . S
C84 C94 1.476 . S
H85 C79 0.929 . S
C86 O77 1.250 . S
C86 O78 1.258 . S
O87 Mn72 2.162 . S
O87 C75 1.281 . S
O88 Mn72 2.297 . S
O88 C75 1.236 . S
N89 Mn73 2.282 . S
N89 C90 1.328 . S
N89 C94 1.318 . S
C90 N89 1.328 . S
C90 C91 1.457 . S
C90 H95 0.929 . S
C91 C90 1.457 . S
C91 C92 1.291 . S
C91 H104 0.931 . S
C92 C91 1.291 . S
C92 C93 1.373 . S
C92 H105 0.929 1_655 S
C93 C92 1.373 . S
C93 C94 1.396 . S
C93 C100 1.403 1_655 S
C94 C84 1.476 . S
C94 N89 1.318 . S
C94 C93 1.396 . S
H95 C90 0.929 . S
O96 Mn72 2.385 . S
O96 C74 1.234 . S
O97 Mn72 2.209 . S
O97 Mn73 2.215 . S
O97 C74 1.283 . S
O98 Mn72 2.094 . S
O98 C76 1.240 . S
O99 Mn73 2.117 . S
O99 C76 1.264 . S
C100 C93 1.403 1_455 S
C100 C101 1.399 . S
C100 H106 0.929 . S
C101 C81 1.446 1_455 S
C101 C100 1.399 . S
C101 H107 0.930 . S
H102 C82 0.931 . S
H103 C83 0.930 . S
H104 C91 0.931 . S
H105 C92 0.929 1_455 S
H106 C100 0.929 . S
H107 C101 0.930 . S
Mn108 O113 2.095 . S
Mn108 O123 2.162 . S
Mn108 O124 2.297 . S
Mn108 O132 2.385 . S
Mn108 O133 2.209 . S
Mn108 O134 2.094 . S
Mn109 O114 2.121 . S
Mn109 N116 2.257 . S
Mn109 N125 2.282 . S
Mn109 O133 2.215 . S
Mn109 O135 2.117 . S
C110 O132 1.234 . S
C110 O133 1.283 . S
C111 O123 1.281 . S
C111 O124 1.236 . S
C112 O134 1.240 . S
C112 O135 1.264 . S
O113 Mn108 2.095 . S
O113 C122 1.250 . S
O114 Mn109 2.121 . S
O114 C122 1.258 . S
C115 N116 1.326 . S
C115 C119 1.460 . S
C115 H121 0.929 . S
N116 Mn109 2.257 . S
N116 C115 1.326 . S
N116 C120 1.362 . S
C117 C118 1.257 1_455 S
C117 C120 1.434 . S
C117 C137 1.446 1_455 S
C118 C117 1.257 1_655 S
C118 C119 1.477 1_655 S
C118 H138 0.931 . S
C119 C115 1.460 . S
C119 C118 1.477 1_455 S
C119 H139 0.930 . S
C120 N116 1.362 . S
C120 C117 1.434 . S
C120 C130 1.476 . S
H121 C115 0.929 . S
C122 O113 1.250 . S
C122 O114 1.258 . S
O123 Mn108 2.162 . S
O123 C111 1.281 . S
O124 Mn108 2.297 . S
O124 C111 1.236 . S
N125 Mn109 2.282 . S
N125 C126 1.328 . S
N125 C130 1.318 . S
C126 N125 1.328 . S
C126 C127 1.457 . S
C126 H131 0.929 . S
C127 C126 1.457 . S
C127 C128 1.291 . S
C127 H140 0.931 . S
C128 C127 1.291 . S
C128 C129 1.373 . S
C128 H141 0.929 1_455 S
C129 C128 1.373 . S
C129 C130 1.396 . S
C129 C136 1.403 1_455 S
C130 C120 1.476 . S
C130 N125 1.318 . S
C130 C129 1.396 . S
H131 C126 0.929 . S
O132 Mn108 2.385 . S
O132 C110 1.234 . S
O133 Mn108 2.209 . S
O133 Mn109 2.215 . S
O133 C110 1.283 . S
O134 Mn108 2.094 . S
O134 C112 1.240 . S
O135 Mn109 2.117 . S
O135 C112 1.264 . S
C136 C129 1.403 1_655 S
C136 C137 1.399 . S
C136 H142 0.929 . S
C137 C117 1.446 1_655 S
C137 C136 1.399 . S
C137 H143 0.930 . S
H138 C118 0.931 . S
H139 C119 0.930 . S
H140 C127 0.931 . S
H141 C128 0.929 1_655 S
H142 C136 0.929 . S
H143 C137 0.930 . S
Mn144 O149 2.095 . S
Mn144 O159 2.162 . S
Mn144 O160 2.297 . S
Mn144 O168 2.385 . S
Mn144 O169 2.209 . S
Mn144 O170 2.094 . S
Mn145 O150 2.121 . S
Mn145 N152 2.257 . S
Mn145 N161 2.282 . S
Mn145 O169 2.215 . S
Mn145 O171 2.117 . S
C146 O168 1.234 . S
C146 O169 1.283 . S
C147 O159 1.281 . S
C147 O160 1.236 . S
C148 O170 1.240 . S
C148 O171 1.264 . S
O149 Mn144 2.095 . S
O149 C158 1.250 . S
O150 Mn145 2.121 . S
O150 C158 1.258 . S
C151 N152 1.326 . S
C151 C155 1.460 . S
C151 H157 0.929 . S
N152 Mn145 2.257 . S
N152 C151 1.326 . S
N152 C156 1.362 . S
C153 C154 1.257 1_455 S
C153 C156 1.434 . S
C153 C173 1.446 1_455 S
C154 C153 1.257 1_655 S
C154 C155 1.477 1_655 S
C154 H174 0.931 . S
C155 C151 1.460 . S
C155 C154 1.477 1_455 S
C155 H175 0.930 . S
C156 N152 1.362 . S
C156 C153 1.434 . S
C156 C166 1.476 . S
H157 C151 0.929 . S
C158 O149 1.250 . S
C158 O150 1.258 . S
O159 Mn144 2.162 . S
O159 C147 1.281 . S
O160 Mn144 2.297 . S
O160 C147 1.236 . S
N161 Mn145 2.282 . S
N161 C162 1.328 . S
N161 C166 1.318 . S
C162 N161 1.328 . S
C162 C163 1.457 . S
C162 H167 0.929 . S
C163 C162 1.457 . S
C163 C164 1.291 . S
C163 H176 0.931 . S
C164 C163 1.291 . S
C164 C165 1.373 . S
C164 H177 0.929 1_455 S
C165 C164 1.373 . S
C165 C166 1.396 . S
C165 C172 1.403 1_455 S
C166 C156 1.476 . S
C166 N161 1.318 . S
C166 C165 1.396 . S
H167 C162 0.929 . S
O168 Mn144 2.385 . S
O168 C146 1.234 . S
O169 Mn144 2.209 . S
O169 Mn145 2.215 . S
O169 C146 1.283 . S
O170 Mn144 2.094 . S
O170 C148 1.240 . S
O171 Mn145 2.117 . S
O171 C148 1.264 . S
C172 C165 1.403 1_655 S
C172 C173 1.399 . S
C172 H178 0.929 . S
C173 C153 1.446 1_655 S
C173 C172 1.399 . S
C173 H179 0.930 . S
H174 C154 0.931 . S
H175 C155 0.930 . S
H176 C163 0.931 . S
H177 C164 0.929 1_655 S
H178 C172 0.929 . S
H179 C173 0.930 . S
Mn180 O185 2.095 . S
Mn180 O195 2.162 . S
Mn180 O196 2.297 . S
Mn180 O204 2.385 . S
Mn180 O205 2.209 . S
Mn180 O206 2.094 . S
Mn181 O186 2.121 . S
Mn181 N188 2.257 . S
Mn181 N197 2.282 . S
Mn181 O205 2.215 . S
Mn181 O207 2.117 . S
C182 O204 1.234 . S
C182 O205 1.283 . S
C183 O195 1.281 . S
C183 O196 1.236 . S
C184 O206 1.240 . S
C184 O207 1.264 . S
O185 Mn180 2.095 . S
O185 C194 1.250 . S
O186 Mn181 2.121 . S
O186 C194 1.258 . S
C187 N188 1.326 . S
C187 C191 1.460 . S
C187 H193 0.929 . S
N188 Mn181 2.257 . S
N188 C187 1.326 . S
N188 C192 1.362 . S
C189 C190 1.257 1_455 S
C189 C192 1.434 . S
C189 C209 1.446 1_455 S
C190 C189 1.257 1_655 S
C190 C191 1.477 1_655 S
C190 H210 0.931 . S
C191 C187 1.460 . S
C191 C190 1.477 1_455 S
C191 H211 0.930 . S
C192 N188 1.362 . S
C192 C189 1.434 . S
C192 C202 1.476 . S
H193 C187 0.929 . S
C194 O185 1.250 . S
C194 O186 1.258 . S
O195 Mn180 2.162 . S
O195 C183 1.281 . S
O196 Mn180 2.297 . S
O196 C183 1.236 . S
N197 Mn181 2.282 . S
N197 C198 1.328 . S
N197 C202 1.318 . S
C198 N197 1.328 . S
C198 C199 1.457 . S
C198 H203 0.929 . S
C199 C198 1.457 . S
C199 C200 1.291 . S
C199 H212 0.931 . S
C200 C199 1.291 . S
C200 C201 1.373 . S
C200 H213 0.929 1_455 S
C201 C200 1.373 . S
C201 C202 1.396 . S
C201 C208 1.403 1_455 S
C202 C192 1.476 . S
C202 N197 1.318 . S
C202 C201 1.396 . S
H203 C198 0.929 . S
O204 Mn180 2.385 . S
O204 C182 1.234 . S
O205 Mn180 2.209 . S
O205 Mn181 2.215 . S
O205 C182 1.283 . S
O206 Mn180 2.094 . S
O206 C184 1.240 . S
O207 Mn181 2.117 . S
O207 C184 1.264 . S
C208 C201 1.403 1_655 S
C208 C209 1.399 . S
C208 H214 0.929 . S
C209 C189 1.446 1_655 S
C209 C208 1.399 . S
C209 H215 0.930 . S
H210 C190 0.931 . S
H211 C191 0.930 . S
H212 C199 0.931 . S
H213 C200 0.929 1_655 S
H214 C208 0.929 . S
H215 C209 0.930 . S
Mn216 O221 2.095 . S
Mn216 O231 2.162 . S
Mn216 O232 2.297 . S
Mn216 O240 2.385 . S
Mn216 O241 2.209 . S
Mn216 O242 2.094 . S
Mn217 O222 2.121 . S
Mn217 N224 2.257 . S
Mn217 N233 2.282 . S
Mn217 O241 2.215 . S
Mn217 O243 2.117 . S
C218 O240 1.234 . S
C218 O241 1.283 . S
C219 O231 1.281 . S
C219 O232 1.236 . S
C220 O242 1.240 . S
C220 O243 1.264 . S
O221 Mn216 2.095 . S
O221 C230 1.250 . S
O222 Mn217 2.121 . S
O222 C230 1.258 . S
C223 N224 1.326 . S
C223 C227 1.460 . S
C223 H229 0.929 . S
N224 Mn217 2.257 . S
N224 C223 1.326 . S
N224 C228 1.362 . S
C225 C226 1.257 1_655 S
C225 C228 1.434 . S
C225 C245 1.446 1_655 S
C226 C225 1.257 1_455 S
C226 C227 1.477 1_455 S
C226 H246 0.931 . S
C227 C223 1.460 . S
C227 C226 1.477 1_655 S
C227 H247 0.930 . S
C228 N224 1.362 . S
C228 C225 1.434 . S
C228 C238 1.476 . S
H229 C223 0.929 . S
C230 O221 1.250 . S
C230 O222 1.258 . S
O231 Mn216 2.162 . S
O231 C219 1.281 . S
O232 Mn216 2.297 . S
O232 C219 1.236 . S
N233 Mn217 2.282 . S
N233 C234 1.328 . S
N233 C238 1.318 . S
C234 N233 1.328 . S
C234 C235 1.457 . S
C234 H239 0.929 . S
C235 C234 1.457 . S
C235 C236 1.291 . S
C235 H248 0.931 . S
C236 C235 1.291 . S
C236 C237 1.373 . S
C236 H249 0.929 1_655 S
C237 C236 1.373 . S
C237 C238 1.396 . S
C237 C244 1.403 1_655 S
C238 C228 1.476 . S
C238 N233 1.318 . S
C238 C237 1.396 . S
H239 C234 0.929 . S
O240 Mn216 2.385 . S
O240 C218 1.234 . S
O241 Mn216 2.209 . S
O241 Mn217 2.215 . S
O241 C218 1.283 . S
O242 Mn216 2.094 . S
O242 C220 1.240 . S
O243 Mn217 2.117 . S
O243 C220 1.264 . S
C244 C237 1.403 1_455 S
C244 C245 1.399 . S
C244 H250 0.929 . S
C245 C225 1.446 1_455 S
C245 C244 1.399 . S
C245 H251 0.930 . S
H246 C226 0.931 . S
H247 C227 0.930 . S
H248 C235 0.931 . S
H249 C236 0.929 1_455 S
H250 C244 0.929 . S
H251 C245 0.930 . S
Mn252 O257 2.095 . S
Mn252 O267 2.162 . S
Mn252 O268 2.297 . S
Mn252 O276 2.385 . S
Mn252 O277 2.209 . S
Mn252 O278 2.094 . S
Mn253 O258 2.121 . S
Mn253 N260 2.257 . S
Mn253 N269 2.282 . S
Mn253 O277 2.215 . S
Mn253 O279 2.117 . S
C254 O276 1.234 . S
C254 O277 1.283 . S
C255 O267 1.281 . S
C255 O268 1.236 . S
C256 O278 1.240 . S
C256 O279 1.264 . S
O257 Mn252 2.095 . S
O257 C266 1.250 . S
O258 Mn253 2.121 . S
O258 C266 1.258 . S
C259 N260 1.326 . S
C259 C263 1.460 . S
C259 H265 0.929 . S
N260 Mn253 2.257 . S
N260 C259 1.326 . S
N260 C264 1.362 . S
C261 C262 1.257 1_655 S
C261 C264 1.434 . S
C261 C281 1.446 1_655 S
C262 C261 1.257 1_455 S
C262 C263 1.477 1_455 S
C262 H282 0.931 . S
C263 C259 1.460 . S
C263 C262 1.477 1_655 S
C263 H283 0.930 . S
C264 N260 1.362 . S
C264 C261 1.434 . S
C264 C274 1.476 . S
H265 C259 0.929 . S
C266 O257 1.250 . S
C266 O258 1.258 . S
O267 Mn252 2.162 . S
O267 C255 1.281 . S
O268 Mn252 2.297 . S
O268 C255 1.236 . S
N269 Mn253 2.282 . S
N269 C270 1.328 . S
N269 C274 1.318 . S
C270 N269 1.328 . S
C270 C271 1.457 . S
C270 H275 0.929 . S
C271 C270 1.457 . S
C271 C272 1.291 . S
C271 H284 0.931 . S
C272 C271 1.291 . S
C272 C273 1.373 . S
C272 H285 0.929 1_655 S
C273 C272 1.373 . S
C273 C274 1.396 . S
C273 C280 1.403 1_655 S
C274 C264 1.476 . S
C274 N269 1.318 . S
C274 C273 1.396 . S
H275 C270 0.929 . S
O276 Mn252 2.385 . S
O276 C254 1.234 . S
O277 Mn252 2.209 . S
O277 Mn253 2.215 . S
O277 C254 1.283 . S
O278 Mn252 2.094 . S
O278 C256 1.240 . S
O279 Mn253 2.117 . S
O279 C256 1.264 . S
C280 C273 1.403 1_455 S
C280 C281 1.399 . S
C280 H286 0.929 . S
C281 C261 1.446 1_455 S
C281 C280 1.399 . S
C281 H287 0.930 . S
H282 C262 0.931 . S
H283 C263 0.930 . S
H284 C271 0.931 . S
H285 C272 0.929 1_455 S
H286 C280 0.929 . S
H287 C281 0.930 . S
Mn288 O293 2.095 . S
Mn288 O303 2.162 . S
Mn288 O304 2.297 . S
Mn288 O312 2.385 . S
Mn288 O313 2.209 . S
Mn288 O314 2.094 . S
Mn289 O294 2.121 . S
Mn289 N296 2.257 . S
Mn289 N305 2.282 . S
Mn289 O313 2.215 . S
Mn289 O315 2.117 . S
C290 O312 1.234 . S
C290 O313 1.283 . S
C291 O303 1.281 . S
C291 O304 1.236 . S
C292 O314 1.240 . S
C292 O315 1.264 . S
O293 Mn288 2.095 . S
O293 C302 1.250 . S
O294 Mn289 2.121 . S
O294 C302 1.258 . S
C295 N296 1.326 . S
C295 C299 1.460 . S
C295 H301 0.929 . S
N296 Mn289 2.257 . S
N296 C295 1.326 . S
N296 C300 1.362 . S
C297 C298 1.258 . S
C297 C300 1.431 . S
C297 C317 1.449 . S
C298 C297 1.258 . S
C298 C299 1.477 . S
C298 H318 0.931 . S
C299 C295 1.460 . S
C299 C298 1.477 . S
C299 H319 0.930 . S
C300 N296 1.362 . S
C300 C297 1.431 . S
C300 C310 1.476 . S
H301 C295 0.929 . S
C302 O293 1.250 . S
C302 O294 1.258 . S
O303 Mn288 2.162 . S
O303 C291 1.281 . S
O304 Mn288 2.297 . S
O304 C291 1.236 . S
N305 Mn289 2.282 . S
N305 C306 1.328 . S
N305 C310 1.318 . S
C306 N305 1.328 . S
C306 C307 1.457 . S
C306 H311 0.929 . S
C307 C306 1.457 . S
C307 C308 1.291 . S
C307 H320 0.931 . S
C308 C307 1.291 . S
C308 C309 1.373 . S
C308 H321 0.929 . S
C309 C308 1.373 . S
C309 C310 1.396 . S
C309 C316 1.403 . S
C310 C300 1.476 . S
C310 N305 1.318 . S
C310 C309 1.396 . S
H311 C306 0.929 . S
O312 Mn288 2.385 . S
O312 C290 1.234 . S
O313 Mn288 2.209 . S
O313 Mn289 2.215 . S
O313 C290 1.283 . S
O314 Mn288 2.094 . S
O314 C292 1.240 . S
O315 Mn289 2.117 . S
O315 C292 1.264 . S
C316 C309 1.403 . S
C316 C317 1.399 . S
C316 H322 0.929 . S
C317 C297 1.449 . S
C317 C316 1.399 . S
C317 H323 0.930 . S
H318 C298 0.931 . S
H319 C299 0.930 . S
H320 C307 0.931 . S
H321 C308 0.929 . S
H322 C316 0.929 . S
H323 C317 0.930 . S
Mn324 O329 2.095 . S
Mn324 O339 2.162 . S
Mn324 O340 2.297 . S
Mn324 O348 2.385 . S
Mn324 O349 2.209 . S
Mn324 O350 2.094 . S
Mn325 O330 2.121 . S
Mn325 N332 2.257 . S
Mn325 N341 2.282 . S
Mn325 O349 2.215 . S
Mn325 O351 2.117 . S
C326 O348 1.234 . S
C326 O349 1.283 . S
C327 O339 1.281 . S
C327 O340 1.236 . S
C328 O350 1.240 . S
C328 O351 1.264 . S
O329 Mn324 2.095 . S
O329 C338 1.250 . S
O330 Mn325 2.121 . S
O330 C338 1.258 . S
C331 N332 1.326 . S
C331 C335 1.460 . S
C331 H337 0.929 . S
N332 Mn325 2.257 . S
N332 C331 1.326 . S
N332 C336 1.362 . S
C333 C334 1.258 . S
C333 C336 1.431 . S
C333 C353 1.449 . S
C334 C333 1.258 . S
C334 C335 1.477 . S
C334 H354 0.931 . S
C335 C331 1.460 . S
C335 C334 1.477 . S
C335 H355 0.930 . S
C336 N332 1.362 . S
C336 C333 1.431 . S
C336 C346 1.476 . S
H337 C331 0.929 . S
C338 O329 1.250 . S
C338 O330 1.258 . S
O339 Mn324 2.162 . S
O339 C327 1.281 . S
O340 Mn324 2.297 . S
O340 C327 1.236 . S
N341 Mn325 2.282 . S
N341 C342 1.328 . S
N341 C346 1.318 . S
C342 N341 1.328 . S
C342 C343 1.457 . S
C342 H347 0.929 . S
C343 C342 1.457 . S
C343 C344 1.291 . S
C343 H356 0.931 . S
C344 C343 1.291 . S
C344 C345 1.373 . S
C344 H357 0.929 . S
C345 C344 1.373 . S
C345 C346 1.396 . S
C345 C352 1.403 . S
C346 C336 1.476 . S
C346 N341 1.318 . S
C346 C345 1.396 . S
H347 C342 0.929 . S
O348 Mn324 2.385 . S
O348 C326 1.234 . S
O349 Mn324 2.209 . S
O349 Mn325 2.215 . S
O349 C326 1.283 . S
O350 Mn324 2.094 . S
O350 C328 1.240 . S
O351 Mn325 2.117 . S
O351 C328 1.264 . S
C352 C345 1.403 . S
C352 C353 1.399 . S
C352 H358 0.929 . S
C353 C333 1.449 . S
C353 C352 1.399 . S
C353 H359 0.930 . S
H354 C334 0.931 . S
H355 C335 0.930 . S
H356 C343 0.931 . S
H357 C344 0.929 . S
H358 C352 0.929 . S
H359 C353 0.930 . S
Mn360 O365 2.095 . S
Mn360 O375 2.162 . S
Mn360 O376 2.297 . S
Mn360 O384 2.385 . S
Mn360 O385 2.209 . S
Mn360 O386 2.094 . S
Mn361 O366 2.121 . S
Mn361 N368 2.257 . S
Mn361 N377 2.282 . S
Mn361 O385 2.215 . S
Mn361 O387 2.117 . S
C362 O384 1.234 . S
C362 O385 1.283 . S
C363 O375 1.281 . S
C363 O376 1.236 . S
C364 O386 1.240 . S
C364 O387 1.264 . S
O365 Mn360 2.095 . S
O365 C374 1.250 . S
O366 Mn361 2.121 . S
O366 C374 1.258 . S
C367 N368 1.326 . S
C367 C371 1.460 . S
C367 H373 0.929 . S
N368 Mn361 2.257 . S
N368 C367 1.326 . S
N368 C372 1.362 . S
C369 C370 1.258 . S
C369 C372 1.431 . S
C369 C389 1.449 . S
C370 C369 1.258 . S
C370 C371 1.477 . S
C370 H390 0.931 . S
C371 C367 1.460 . S
C371 C370 1.477 . S
C371 H391 0.930 . S
C372 N368 1.362 . S
C372 C369 1.431 . S
C372 C382 1.476 . S
H373 C367 0.929 . S
C374 O365 1.250 . S
C374 O366 1.258 . S
O375 Mn360 2.162 . S
O375 C363 1.281 . S
O376 Mn360 2.297 . S
O376 C363 1.236 . S
N377 Mn361 2.282 . S
N377 C378 1.328 . S
N377 C382 1.318 . S
C378 N377 1.328 . S
C378 C379 1.457 . S
C378 H383 0.929 . S
C379 C378 1.457 . S
C379 C380 1.291 . S
C379 H392 0.931 . S
C380 C379 1.291 . S
C380 C381 1.373 . S
C380 H393 0.929 . S
C381 C380 1.373 . S
C381 C382 1.396 . S
C381 C388 1.403 . S
C382 C372 1.476 . S
C382 N377 1.318 . S
C382 C381 1.396 . S
H383 C378 0.929 . S
O384 Mn360 2.385 . S
O384 C362 1.234 . S
O385 Mn360 2.209 . S
O385 Mn361 2.215 . S
O385 C362 1.283 . S
O386 Mn360 2.094 . S
O386 C364 1.240 . S
O387 Mn361 2.117 . S
O387 C364 1.264 . S
C388 C381 1.403 . S
C388 C389 1.399 . S
C388 H394 0.929 . S
C389 C369 1.449 . S
C389 C388 1.399 . S
C389 H395 0.930 . S
H390 C370 0.931 . S
H391 C371 0.930 . S
H392 C379 0.931 . S
H393 C380 0.929 . S
H394 C388 0.929 . S
H395 C389 0.930 . S
Mn396 O401 2.095 . S
Mn396 O411 2.162 . S
Mn396 O412 2.297 . S
Mn396 O420 2.385 . S
Mn396 O421 2.209 . S
Mn396 O422 2.094 . S
Mn397 O402 2.121 . S
Mn397 N404 2.257 . S
Mn397 N413 2.282 . S
Mn397 O421 2.215 . S
Mn397 O423 2.117 . S
C398 O420 1.234 . S
C398 O421 1.283 . S
C399 O411 1.281 . S
C399 O412 1.236 . S
C400 O422 1.240 . S
C400 O423 1.264 . S
O401 Mn396 2.095 . S
O401 C410 1.250 . S
O402 Mn397 2.121 . S
O402 C410 1.258 . S
C403 N404 1.326 . S
C403 C407 1.460 . S
C403 H409 0.929 . S
N404 Mn397 2.257 . S
N404 C403 1.326 . S
N404 C408 1.362 . S
C405 C406 1.258 . S
C405 C408 1.431 . S
C405 C425 1.449 . S
C406 C405 1.258 . S
C406 C407 1.477 . S
C406 H426 0.931 . S
C407 C403 1.460 . S
C407 C406 1.477 . S
C407 H427 0.930 . S
C408 N404 1.362 . S
C408 C405 1.431 . S
C408 C418 1.476 . S
H409 C403 0.929 . S
C410 O401 1.250 . S
C410 O402 1.258 . S
O411 Mn396 2.162 . S
O411 C399 1.281 . S
O412 Mn396 2.297 . S
O412 C399 1.236 . S
N413 Mn397 2.282 . S
N413 C414 1.328 . S
N413 C418 1.318 . S
C414 N413 1.328 . S
C414 C415 1.457 . S
C414 H419 0.929 . S
C415 C414 1.457 . S
C415 C416 1.291 . S
C415 H428 0.931 . S
C416 C415 1.291 . S
C416 C417 1.373 . S
C416 H429 0.929 . S
C417 C416 1.373 . S
C417 C418 1.396 . S
C417 C424 1.403 . S
C418 C408 1.476 . S
C418 N413 1.318 . S
C418 C417 1.396 . S
H419 C414 0.929 . S
O420 Mn396 2.385 . S
O420 C398 1.234 . S
O421 Mn396 2.209 . S
O421 Mn397 2.215 . S
O421 C398 1.283 . S
O422 Mn396 2.094 . S
O422 C400 1.240 . S
O423 Mn397 2.117 . S
O423 C400 1.264 . S
C424 C417 1.403 . S
C424 C425 1.399 . S
C424 H430 0.929 . S
C425 C405 1.449 . S
C425 C424 1.399 . S
C425 H431 0.930 . S
H426 C406 0.931 . S
H427 C407 0.930 . S
H428 C415 0.931 . S
H429 C416 0.929 . S
H430 C424 0.929 . S
H431 C425 0.930 . S
Mn432 O437 2.095 . S
Mn432 O447 2.162 . S
Mn432 O448 2.297 . S
Mn432 O456 2.385 . S
Mn432 O457 2.209 . S
Mn432 O458 2.094 . S
Mn433 O438 2.121 . S
Mn433 N440 2.257 . S
Mn433 N449 2.282 . S
Mn433 O457 2.215 . S
Mn433 O459 2.117 . S
C434 O456 1.234 . S
C434 O457 1.283 . S
C435 O447 1.281 . S
C435 O448 1.236 . S
C436 O458 1.240 . S
C436 O459 1.264 . S
O437 Mn432 2.095 . S
O437 C446 1.250 . S
O438 Mn433 2.121 . S
O438 C446 1.258 . S
C439 N440 1.326 . S
C439 C443 1.460 . S
C439 H445 0.929 . S
N440 Mn433 2.257 . S
N440 C439 1.326 . S
N440 C444 1.362 . S
C441 C442 1.258 . S
C441 C444 1.431 . S
C441 C461 1.449 . S
C442 C441 1.258 . S
C442 C443 1.477 . S
C442 H462 0.931 . S
C443 C439 1.460 . S
C443 C442 1.477 . S
C443 H463 0.930 . S
C444 N440 1.362 . S
C444 C441 1.431 . S
C444 C454 1.476 . S
H445 C439 0.929 . S
C446 O437 1.250 . S
C446 O438 1.258 . S
O447 Mn432 2.162 . S
O447 C435 1.281 . S
O448 Mn432 2.297 . S
O448 C435 1.236 . S
N449 Mn433 2.282 . S
N449 C450 1.328 . S
N449 C454 1.318 . S
C450 N449 1.328 . S
C450 C451 1.457 . S
C450 H455 0.929 . S
C451 C450 1.457 . S
C451 C452 1.291 . S
C451 H464 0.931 . S
C452 C451 1.291 . S
C452 C453 1.373 . S
C452 H465 0.929 . S
C453 C452 1.373 . S
C453 C454 1.396 . S
C453 C460 1.403 . S
C454 C444 1.476 . S
C454 N449 1.318 . S
C454 C453 1.396 . S
H455 C450 0.929 . S
O456 Mn432 2.385 . S
O456 C434 1.234 . S
O457 Mn432 2.209 . S
O457 Mn433 2.215 . S
O457 C434 1.283 . S
O458 Mn432 2.094 . S
O458 C436 1.240 . S
O459 Mn433 2.117 . S
O459 C436 1.264 . S
C460 C453 1.403 . S
C460 C461 1.399 . S
C460 H466 0.929 . S
C461 C441 1.449 . S
C461 C460 1.399 . S
C461 H467 0.930 . S
H462 C442 0.931 . S
H463 C443 0.930 . S
H464 C451 0.931 . S
H465 C452 0.929 . S
H466 C460 0.929 . S
H467 C461 0.930 . S
Mn468 O473 2.095 . S
Mn468 O483 2.162 . S
Mn468 O484 2.297 . S
Mn468 O492 2.385 . S
Mn468 O493 2.209 . S
Mn468 O494 2.094 . S
Mn469 O474 2.121 . S
Mn469 N476 2.257 . S
Mn469 N485 2.282 . S
Mn469 O493 2.215 . S
Mn469 O495 2.117 . S
C470 O492 1.234 . S
C470 O493 1.283 . S
C471 O483 1.281 . S
C471 O484 1.236 . S
C472 O494 1.240 . S
C472 O495 1.264 . S
O473 Mn468 2.095 . S
O473 C482 1.250 . S
O474 Mn469 2.121 . S
O474 C482 1.258 . S
C475 N476 1.326 . S
C475 C479 1.460 . S
C475 H481 0.929 . S
N476 Mn469 2.257 . S
N476 C475 1.326 . S
N476 C480 1.362 . S
C477 C478 1.258 . S
C477 C480 1.431 . S
C477 C497 1.449 . S
C478 C477 1.258 . S
C478 C479 1.477 . S
C478 H498 0.931 . S
C479 C475 1.460 . S
C479 C478 1.477 . S
C479 H499 0.930 . S
C480 N476 1.362 . S
C480 C477 1.431 . S
C480 C490 1.476 . S
H481 C475 0.929 . S
C482 O473 1.250 . S
C482 O474 1.258 . S
O483 Mn468 2.162 . S
O483 C471 1.281 . S
O484 Mn468 2.297 . S
O484 C471 1.236 . S
N485 Mn469 2.282 . S
N485 C486 1.328 . S
N485 C490 1.318 . S
C486 N485 1.328 . S
C486 C487 1.457 . S
C486 H491 0.929 . S
C487 C486 1.457 . S
C487 C488 1.291 . S
C487 H500 0.931 . S
C488 C487 1.291 . S
C488 C489 1.373 . S
C488 H501 0.929 . S
C489 C488 1.373 . S
C489 C490 1.396 . S
C489 C496 1.403 . S
C490 C480 1.476 . S
C490 N485 1.318 . S
C490 C489 1.396 . S
H491 C486 0.929 . S
O492 Mn468 2.385 . S
O492 C470 1.234 . S
O493 Mn468 2.209 . S
O493 Mn469 2.215 . S
O493 C470 1.283 . S
O494 Mn468 2.094 . S
O494 C472 1.240 . S
O495 Mn469 2.117 . S
O495 C472 1.264 . S
C496 C489 1.403 . S
C496 C497 1.399 . S
C496 H502 0.929 . S
C497 C477 1.449 . S
C497 C496 1.399 . S
C497 H503 0.930 . S
H498 C478 0.931 . S
H499 C479 0.930 . S
H500 C487 0.931 . S
H501 C488 0.929 . S
H502 C496 0.929 . S
H503 C497 0.930 . S
Mn504 O509 2.095 . S
Mn504 O519 2.162 . S
Mn504 O520 2.297 . S
Mn504 O528 2.385 . S
Mn504 O529 2.209 . S
Mn504 O530 2.094 . S
Mn505 O510 2.121 . S
Mn505 N512 2.257 . S
Mn505 N521 2.282 . S
Mn505 O529 2.215 . S
Mn505 O531 2.117 . S
C506 O528 1.234 . S
C506 O529 1.283 . S
C507 O519 1.281 . S
C507 O520 1.236 . S
C508 O530 1.240 . S
C508 O531 1.264 . S
O509 Mn504 2.095 . S
O509 C518 1.250 . S
O510 Mn505 2.121 . S
O510 C518 1.258 . S
C511 N512 1.326 . S
C511 C515 1.460 . S
C511 H517 0.929 . S
N512 Mn505 2.257 . S
N512 C511 1.326 . S
N512 C516 1.362 . S
C513 C514 1.258 . S
C513 C516 1.431 . S
C513 C533 1.449 . S
C514 C513 1.258 . S
C514 C515 1.477 . S
C514 H534 0.931 . S
C515 C511 1.460 . S
C515 C514 1.477 . S
C515 H535 0.930 . S
C516 N512 1.362 . S
C516 C513 1.431 . S
C516 C526 1.476 . S
H517 C511 0.929 . S
C518 O509 1.250 . S
C518 O510 1.258 . S
O519 Mn504 2.162 . S
O519 C507 1.281 . S
O520 Mn504 2.297 . S
O520 C507 1.236 . S
N521 Mn505 2.282 . S
N521 C522 1.328 . S
N521 C526 1.318 . S
C522 N521 1.328 . S
C522 C523 1.457 . S
C522 H527 0.929 . S
C523 C522 1.457 . S
C523 C524 1.291 . S
C523 H536 0.931 . S
C524 C523 1.291 . S
C524 C525 1.373 . S
C524 H537 0.929 . S
C525 C524 1.373 . S
C525 C526 1.396 . S
C525 C532 1.403 . S
C526 C516 1.476 . S
C526 N521 1.318 . S
C526 C525 1.396 . S
H527 C522 0.929 . S
O528 Mn504 2.385 . S
O528 C506 1.234 . S
O529 Mn504 2.209 . S
O529 Mn505 2.215 . S
O529 C506 1.283 . S
O530 Mn504 2.094 . S
O530 C508 1.240 . S
O531 Mn505 2.117 . S
O531 C508 1.264 . S
C532 C525 1.403 . S
C532 C533 1.399 . S
C532 H538 0.929 . S
C533 C513 1.449 . S
C533 C532 1.399 . S
C533 H539 0.930 . S
H534 C514 0.931 . S
H535 C515 0.930 . S
H536 C523 0.931 . S
H537 C524 0.929 . S
H538 C532 0.929 . S
H539 C533 0.930 . S
Mn540 O545 2.095 . S
Mn540 O555 2.162 . S
Mn540 O556 2.297 . S
Mn540 O564 2.385 . S
Mn540 O565 2.209 . S
Mn540 O566 2.094 . S
Mn541 O546 2.121 . S
Mn541 N548 2.257 . S
Mn541 N557 2.282 . S
Mn541 O565 2.215 . S
Mn541 O567 2.117 . S
C542 O564 1.234 . S
C542 O565 1.283 . S
C543 O555 1.281 . S
C543 O556 1.236 . S
C544 O566 1.240 . S
C544 O567 1.264 . S
O545 Mn540 2.095 . S
O545 C554 1.250 . S
O546 Mn541 2.121 . S
O546 C554 1.258 . S
C547 N548 1.326 . S
C547 C551 1.460 . S
C547 H553 0.929 . S
N548 Mn541 2.257 . S
N548 C547 1.326 . S
N548 C552 1.362 . S
C549 C550 1.258 . S
C549 C552 1.431 . S
C549 C569 1.449 . S
C550 C549 1.258 . S
C550 C551 1.477 . S
C550 H570 0.931 . S
C551 C547 1.460 . S
C551 C550 1.477 . S
C551 H571 0.930 . S
C552 N548 1.362 . S
C552 C549 1.431 . S
C552 C562 1.476 . S
H553 C547 0.929 . S
C554 O545 1.250 . S
C554 O546 1.258 . S
O555 Mn540 2.162 . S
O555 C543 1.281 . S
O556 Mn540 2.297 . S
O556 C543 1.236 . S
N557 Mn541 2.282 . S
N557 C558 1.328 . S
N557 C562 1.318 . S
C558 N557 1.328 . S
C558 C559 1.457 . S
C558 H563 0.929 . S
C559 C558 1.457 . S
C559 C560 1.291 . S
C559 H572 0.931 . S
C560 C559 1.291 . S
C560 C561 1.373 . S
C560 H573 0.929 . S
C561 C560 1.373 . S
C561 C562 1.396 . S
C561 C568 1.403 . S
C562 C552 1.476 . S
C562 N557 1.318 . S
C562 C561 1.396 . S
H563 C558 0.929 . S
O564 Mn540 2.385 . S
O564 C542 1.234 . S
O565 Mn540 2.209 . S
O565 Mn541 2.215 . S
O565 C542 1.283 . S
O566 Mn540 2.094 . S
O566 C544 1.240 . S
O567 Mn541 2.117 . S
O567 C544 1.264 . S
C568 C561 1.403 . S
C568 C569 1.399 . S
C568 H574 0.929 . S
C569 C549 1.449 . S
C569 C568 1.399 . S
C569 H575 0.930 . S
H570 C550 0.931 . S
H571 C551 0.930 . S
H572 C559 0.931 . S
H573 C560 0.929 . S
H574 C568 0.929 . S
H575 C569 0.930 . S
C576 C577 1.387 . S
C576 H580 0.950 . S
C576 C585 1.390 . S
C577 C576 1.387 . S
C577 C579 1.387 . S
H578 C585 0.950 . S
C579 C577 1.387 . S
C579 C581 1.390 . S
C579 H583 0.950 . S
H580 C576 0.950 . S
C581 C579 1.390 . S
C581 C582 1.387 . S
C581 H584 0.950 . S
C582 C581 1.387 . S
C582 C585 1.387 . S
H583 C579 0.950 . S
H584 C581 0.950 . S
C585 C576 1.390 . S
C585 H578 0.950 . S
C585 C582 1.387 . S
C586 C587 1.387 . S
C586 H590 0.950 . S
C586 C595 1.390 . S
C587 C586 1.387 . S
C587 C589 1.387 . S
H588 C595 0.950 . S
C589 C587 1.387 . S
C589 C591 1.390 . S
C589 H593 0.950 . S
H590 C586 0.950 . S
C591 C589 1.390 . S
C591 C592 1.387 . S
C591 H594 0.950 . S
C592 C591 1.387 . S
C592 C595 1.387 . S
H593 C589 0.950 . S
H594 C591 0.950 . S
C595 C586 1.390 . S
C595 H588 0.950 . S
C595 C592 1.387 . S
C596 C597 1.387 . S
C596 H600 0.950 . S
C596 C605 1.390 . S
C597 C596 1.387 . S
C597 C599 1.387 . S
H598 C605 0.950 . S
C599 C597 1.387 . S
C599 C601 1.390 . S
C599 H603 0.950 . S
H600 C596 0.950 . S
C601 C599 1.390 . S
C601 C602 1.387 . S
C601 H604 0.950 . S
C602 C601 1.387 . S
C602 C605 1.387 . S
H603 C599 0.950 . S
H604 C601 0.950 . S
C605 C596 1.390 . S
C605 H598 0.950 . S
C605 C602 1.387 . S
C606 C607 1.387 . S
C606 H610 0.950 . S
C606 C615 1.390 . S
C607 C606 1.387 . S
C607 C609 1.387 . S
H608 C615 0.950 . S
C609 C607 1.387 . S
C609 C611 1.390 . S
C609 H613 0.950 . S
H610 C606 0.950 . S
C611 C609 1.390 . S
C611 C612 1.387 . S
C611 H614 0.950 . S
C612 C611 1.387 . S
C612 C615 1.387 . S
H613 C609 0.950 . S
H614 C611 0.950 . S
C615 C606 1.390 . S
C615 H608 0.950 . S
C615 C612 1.387 . S
C616 C617 1.387 . S
C616 H620 0.950 . S
C616 C625 1.390 . S
C617 C616 1.387 . S
C617 C619 1.387 . S
H618 C625 0.950 . S
C619 C617 1.387 . S
C619 C621 1.390 . S
C619 H623 0.950 . S
H620 C616 0.950 . S
C621 C619 1.390 . S
C621 C622 1.387 . S
C621 H624 0.950 . S
C622 C621 1.387 . S
C622 C625 1.387 . S
H623 C619 0.950 . S
H624 C621 0.950 . S
C625 C616 1.390 . S
C625 H618 0.950 . S
C625 C622 1.387 . S
C626 C627 1.387 . S
C626 H630 0.950 . S
C626 C635 1.390 . S
C627 C626 1.387 . S
C627 C629 1.387 . S
H628 C635 0.950 . S
C629 C627 1.387 . S
C629 C631 1.390 . S
C629 H633 0.950 . S
H630 C626 0.950 . S
C631 C629 1.390 . S
C631 C632 1.387 . S
C631 H634 0.950 . S
C632 C631 1.387 . S
C632 C635 1.387 . S
H633 C629 0.950 . S
H634 C631 0.950 . S
C635 C626 1.390 . S
C635 H628 0.950 . S
C635 C632 1.387 . S
C636 C637 1.387 . S
C636 H640 0.950 . S
C636 C645 1.390 . S
C637 C636 1.387 . S
C637 C639 1.387 . S
H638 C645 0.950 . S
C639 C637 1.387 . S
C639 C641 1.390 . S
C639 H643 0.950 . S
H640 C636 0.950 . S
C641 C639 1.390 . S
C641 C642 1.387 . S
C641 H644 0.950 . S
C642 C641 1.387 . S
C642 C645 1.387 . S
H643 C639 0.950 . S
H644 C641 0.950 . S
C645 C636 1.390 . S
C645 H638 0.950 . S
C645 C642 1.387 . S
C646 C647 1.387 . S
C646 H650 0.950 . S
C646 C655 1.390 . S
C647 C646 1.387 . S
C647 C649 1.387 . S
H648 C655 0.950 . S
C649 C647 1.387 . S
C649 C651 1.390 . S
C649 H653 0.950 . S
H650 C646 0.950 . S
C651 C649 1.390 . S
C651 C652 1.387 . S
C651 H654 0.950 . S
C652 C651 1.387 . S
C652 C655 1.387 . S
H653 C649 0.950 . S
H654 C651 0.950 . S
C655 C646 1.390 . S
C655 H648 0.950 . S
C655 C652 1.387 . S
C656 C657 1.387 . S
C656 H660 0.950 . S
C656 C665 1.390 1_556 S
C657 C656 1.387 . S
C657 C659 1.387 . S
H658 C665 0.950 . S
C659 C657 1.387 . S
C659 C661 1.390 1_556 S
C659 H663 0.950 . S
H660 C656 0.950 . S
C661 C659 1.390 1_554 S
C661 C662 1.387 . S
C661 H664 0.950 . S
C662 C661 1.387 . S
C662 C665 1.387 . S
H663 C659 0.950 . S
H664 C661 0.950 . S
C665 C656 1.390 1_554 S
C665 H658 0.950 . S
C665 C662 1.387 . S
C666 C667 1.387 . S
C666 H670 0.950 . S
C666 C675 1.390 1_556 S
C667 C666 1.387 . S
C667 C669 1.387 . S
H668 C675 0.950 . S
C669 C667 1.387 . S
C669 C671 1.390 1_556 S
C669 H673 0.950 . S
H670 C666 0.950 . S
C671 C669 1.390 1_554 S
C671 C672 1.387 . S
C671 H674 0.950 . S
C672 C671 1.387 . S
C672 C675 1.387 . S
H673 C669 0.950 . S
H674 C671 0.950 . S
C675 C666 1.390 1_554 S
C675 H668 0.950 . S
C675 C672 1.387 . S
C676 C677 1.387 . S
C676 H680 0.950 . S
C676 C685 1.390 1_556 S
C677 C676 1.387 . S
C677 C679 1.387 . S
H678 C685 0.950 . S
C679 C677 1.387 . S
C679 C681 1.390 1_556 S
C679 H683 0.950 . S
H680 C676 0.950 . S
C681 C679 1.390 1_554 S
C681 C682 1.387 . S
C681 H684 0.950 . S
C682 C681 1.387 . S
C682 C685 1.387 . S
H683 C679 0.950 . S
H684 C681 0.950 . S
C685 C676 1.390 1_554 S
C685 H678 0.950 . S
C685 C682 1.387 . S
C686 C687 1.387 . S
C686 H690 0.950 . S
C686 C695 1.390 1_554 S
C687 C686 1.387 . S
C687 C689 1.387 . S
H688 C695 0.950 . S
C689 C687 1.387 . S
C689 C691 1.390 1_554 S
C689 H693 0.950 . S
H690 C686 0.950 . S
C691 C689 1.390 1_556 S
C691 C692 1.387 . S
C691 H694 0.950 . S
C692 C691 1.387 . S
C692 C695 1.387 . S
H693 C689 0.950 . S
H694 C691 0.950 . S
C695 C686 1.390 1_556 S
C695 H688 0.950 . S
C695 C692 1.387 . S
C696 C697 1.387 . S
C696 H700 0.950 . S
C696 C705 1.390 1_455 S
C697 C696 1.387 . S
C697 C699 1.387 . S
H698 C705 0.950 . S
C699 C697 1.387 . S
C699 C701 1.390 1_455 S
C699 H703 0.950 . S
H700 C696 0.950 . S
C701 C699 1.390 1_655 S
C701 C702 1.387 . S
C701 H704 0.950 . S
C702 C701 1.387 . S
C702 C705 1.387 . S
H703 C699 0.950 . S
H704 C701 0.950 . S
C705 C696 1.390 1_655 S
C705 H698 0.950 . S
C705 C702 1.387 . S
C706 C707 1.387 . S
C706 H710 0.950 . S
C706 C715 1.390 1_565 S
C707 C706 1.387 . S
C707 C709 1.387 . S
H708 C715 0.950 . S
C709 C707 1.387 . S
C709 C711 1.390 1_565 S
C709 H713 0.950 . S
H710 C706 0.950 . S
C711 C709 1.390 1_545 S
C711 C712 1.387 . S
C711 H714 0.950 . S
C712 C711 1.387 . S
C712 C715 1.387 . S
H713 C709 0.950 . S
H714 C711 0.950 . S
C715 C706 1.390 1_545 S
C715 H708 0.950 . S
C715 C712 1.387 . S
C716 C717 1.387 . S
C716 H720 0.950 . S
C716 C725 1.390 1_655 S
C717 C716 1.387 . S
C717 C719 1.387 . S
H718 C725 0.950 . S
C719 C717 1.387 . S
C719 C721 1.390 1_655 S
C719 H723 0.950 . S
H720 C716 0.950 . S
C721 C719 1.390 1_455 S
C721 C722 1.387 . S
C721 H724 0.950 . S
C722 C721 1.387 . S
C722 C725 1.387 . S
H723 C719 0.950 . S
H724 C721 0.950 . S
C725 C716 1.390 1_455 S
C725 H718 0.950 . S
C725 C722 1.387 . S
C726 C727 1.387 . S
C726 H730 0.950 . S
C726 C735 1.390 1_545 S
C727 C726 1.387 . S
C727 C729 1.387 . S
H728 C735 0.950 . S
C729 C727 1.387 . S
C729 C731 1.390 1_545 S
C729 H733 0.950 . S
H730 C726 0.950 . S
C731 C729 1.390 1_565 S
C731 C732 1.387 . S
C731 H734 0.950 . S
C732 C731 1.387 . S
C732 C735 1.387 . S
H733 C729 0.950 . S
H734 C731 0.950 . S
C735 C726 1.390 1_565 S
C735 H728 0.950 . S
C735 C732 1.387 . S
C736 C737 1.387 . S
C736 H740 0.950 . S
C736 C745 1.390 1_655 S
C737 C736 1.387 . S
C737 C739 1.387 . S
H738 C745 0.950 . S
C739 C737 1.387 . S
C739 C741 1.390 1_655 S
C739 H743 0.950 . S
H740 C736 0.950 . S
C741 C739 1.390 1_455 S
C741 C742 1.387 . S
C741 H744 0.950 . S
C742 C741 1.387 . S
C742 C745 1.387 . S
H743 C739 0.950 . S
H744 C741 0.950 . S
C745 C736 1.390 1_455 S
C745 H738 0.950 . S
C745 C742 1.387 . S
C746 C747 1.387 . S
C746 H750 0.950 . S
C746 C755 1.390 1_565 S
C747 C746 1.387 . S
C747 C749 1.387 . S
H748 C755 0.950 . S
C749 C747 1.387 . S
C749 C751 1.390 1_565 S
C749 H753 0.950 . S
H750 C746 0.950 . S
C751 C749 1.390 1_545 S
C751 C752 1.387 . S
C751 H754 0.950 . S
C752 C751 1.387 . S
C752 C755 1.387 . S
H753 C749 0.950 . S
H754 C751 0.950 . S
C755 C746 1.390 1_545 S
C755 H748 0.950 . S
C755 C752 1.387 . S
C756 C757 1.387 . S
C756 H760 0.950 . S
C756 C765 1.390 1_455 S
C757 C756 1.387 . S
C757 C759 1.387 . S
H758 C765 0.950 . S
C759 C757 1.387 . S
C759 C761 1.390 1_455 S
C759 H763 0.950 . S
H760 C756 0.950 . S
C761 C759 1.390 1_655 S
C761 C762 1.387 . S
C761 H764 0.950 . S
C762 C761 1.387 . S
C762 C765 1.387 . S
H763 C759 0.950 . S
H764 C761 0.950 . S
C765 C756 1.390 1_655 S
C765 H758 0.950 . S
C765 C762 1.387 . S
C766 C767 1.387 . S
C766 H770 0.950 . S
C766 C775 1.390 1_565 S
C767 C766 1.387 . S
C767 C769 1.387 . S
H768 C775 0.950 . S
C769 C767 1.387 . S
C769 C771 1.390 1_565 S
C769 H773 0.950 . S
H770 C766 0.950 . S
C771 C769 1.390 1_545 S
C771 C772 1.387 . S
C771 H774 0.950 . S
C772 C771 1.387 . S
C772 C775 1.387 . S
H773 C769 0.950 . S
H774 C771 0.950 . S
C775 C766 1.390 1_545 S
C775 H768 0.950 . S
C775 C772 1.387 . S
C776 C777 1.387 . S
C776 H780 0.950 . S
C776 C785 1.390 . S
C777 C776 1.387 . S
C777 C779 1.387 . S
H778 C785 0.950 . S
C779 C777 1.387 . S
C779 C781 1.390 . S
C779 H783 0.950 . S
H780 C776 0.950 . S
C781 C779 1.390 . S
C781 C782 1.387 . S
C781 H784 0.950 . S
C782 C781 1.387 . S
C782 C785 1.387 . S
H783 C779 0.950 . S
H784 C781 0.950 . S
C785 C776 1.390 . S
C785 H778 0.950 . S
C785 C782 1.387 . S
C786 C787 1.387 . S
C786 H790 0.950 . S
C786 C795 1.390 . S
C787 C786 1.387 . S
C787 C789 1.387 . S
H788 C795 0.950 . S
C789 C787 1.387 . S
C789 C791 1.390 . S
C789 H793 0.950 . S
H790 C786 0.950 . S
C791 C789 1.390 . S
C791 C792 1.387 . S
C791 H794 0.950 . S
C792 C791 1.387 . S
C792 C795 1.387 . S
H793 C789 0.950 . S
H794 C791 0.950 . S
C795 C786 1.390 . S
C795 H788 0.950 . S
C795 C792 1.387 . S
C796 C797 1.387 . S
C796 H800 0.950 . S
C796 C805 1.390 . S
C797 C796 1.387 . S
C797 C799 1.387 . S
H798 C805 0.950 . S
C799 C797 1.387 . S
C799 C801 1.390 . S
C799 H803 0.950 . S
H800 C796 0.950 . S
C801 C799 1.390 . S
C801 C802 1.387 . S
C801 H804 0.950 . S
C802 C801 1.387 . S
C802 C805 1.387 . S
H803 C799 0.950 . S
H804 C801 0.950 . S
C805 C796 1.390 . S
C805 H798 0.950 . S
C805 C802 1.387 . S
C806 C807 1.387 . S
C806 H810 0.950 . S
C806 C815 1.390 . S
C807 C806 1.387 . S
C807 C809 1.387 . S
H808 C815 0.950 . S
C809 C807 1.387 . S
C809 C811 1.390 . S
C809 H813 0.950 . S
H810 C806 0.950 . S
C811 C809 1.390 . S
C811 C812 1.387 . S
C811 H814 0.950 . S
C812 C811 1.387 . S
C812 C815 1.387 . S
H813 C809 0.950 . S
H814 C811 0.950 . S
C815 C806 1.390 . S
C815 H808 0.950 . S
C815 C812 1.387 . S
C816 C817 1.387 . S
C816 H820 0.950 . S
C816 C825 1.390 . S
C817 C816 1.387 . S
C817 C819 1.387 . S
H818 C825 0.950 . S
C819 C817 1.387 . S
C819 C821 1.390 . S
C819 H823 0.950 . S
H820 C816 0.950 . S
C821 C819 1.390 . S
C821 C822 1.387 . S
C821 H824 0.950 . S
C822 C821 1.387 . S
C822 C825 1.387 . S
H823 C819 0.950 . S
H824 C821 0.950 . S
C825 C816 1.390 . S
C825 H818 0.950 . S
C825 C822 1.387 . S
C826 C827 1.387 . S
C826 H830 0.950 . S
C826 C835 1.390 . S
C827 C826 1.387 . S
C827 C829 1.387 . S
H828 C835 0.950 . S
C829 C827 1.387 . S
C829 C831 1.390 . S
C829 H833 0.950 . S
H830 C826 0.950 . S
C831 C829 1.390 . S
C831 C832 1.387 . S
C831 H834 0.950 . S
C832 C831 1.387 . S
C832 C835 1.387 . S
H833 C829 0.950 . S
H834 C831 0.950 . S
C835 C826 1.390 . S
C835 H828 0.950 . S
C835 C832 1.387 . S
C836 C837 1.387 . S
C836 H840 0.950 . S
C836 C845 1.390 . S
C837 C836 1.387 . S
C837 C839 1.387 . S
H838 C845 0.950 . S
C839 C837 1.387 . S
C839 C841 1.390 . S
C839 H843 0.950 . S
H840 C836 0.950 . S
C841 C839 1.390 . S
C841 C842 1.387 . S
C841 H844 0.950 . S
C842 C841 1.387 . S
C842 C845 1.387 . S
H843 C839 0.950 . S
H844 C841 0.950 . S
C845 C836 1.390 . S
C845 H838 0.950 . S
C845 C842 1.387 . S
C846 C847 1.387 . S
C846 H850 0.950 . S
C846 C855 1.390 . S
C847 C846 1.387 . S
C847 C849 1.387 . S
H848 C855 0.950 . S
C849 C847 1.387 . S
C849 C851 1.390 . S
C849 H853 0.950 . S
H850 C846 0.950 . S
C851 C849 1.390 . S
C851 C852 1.387 . S
C851 H854 0.950 . S
C852 C851 1.387 . S
C852 C855 1.387 . S
H853 C849 0.950 . S
H854 C851 0.950 . S
C855 C846 1.390 . S
C855 H848 0.950 . S
C855 C852 1.387 . S
C856 C857 1.387 . S
C856 H860 0.950 . S
C856 C865 1.390 . S
C857 C856 1.387 . S
C857 C859 1.387 . S
H858 C865 0.950 . S
C859 C857 1.387 . S
C859 C861 1.390 . S
C859 H863 0.950 . S
H860 C856 0.950 . S
C861 C859 1.390 . S
C861 C862 1.387 . S
C861 H864 0.950 . S
C862 C861 1.387 . S
C862 C865 1.387 . S
H863 C859 0.950 . S
H864 C861 0.950 . S
C865 C856 1.390 . S
C865 H858 0.950 . S
C865 C862 1.387 . S
C866 C867 1.387 . S
C866 H870 0.950 . S
C866 C875 1.390 . S
C867 C866 1.387 . S
C867 C869 1.387 . S
H868 C875 0.950 . S
C869 C867 1.387 . S
C869 C871 1.390 . S
C869 H873 0.950 . S
H870 C866 0.950 . S
C871 C869 1.390 . S
C871 C872 1.387 . S
C871 H874 0.950 . S
C872 C871 1.387 . S
C872 C875 1.387 . S
H873 C869 0.950 . S
H874 C871 0.950 . S
C875 C866 1.390 . S
C875 H868 0.950 . S
C875 C872 1.387 . S
C876 C877 1.387 . S
C876 H880 0.950 . S
C876 C885 1.390 . S
C877 C876 1.387 . S
C877 C879 1.387 . S
H878 C885 0.950 . S
C879 C877 1.387 . S
C879 C881 1.390 . S
C879 H883 0.950 . S
H880 C876 0.950 . S
C881 C879 1.390 . S
C881 C882 1.387 . S
C881 H884 0.950 . S
C882 C881 1.387 . S
C882 C885 1.387 . S
H883 C879 0.950 . S
H884 C881 0.950 . S
C885 C876 1.390 . S
C885 H878 0.950 . S
C885 C882 1.387 . S
C886 C887 1.387 . S
C886 H890 0.950 . S
C886 C895 1.390 . S
C887 C886 1.387 . S
C887 C889 1.387 . S
H888 C895 0.950 . S
C889 C887 1.387 . S
C889 C891 1.390 . S
C889 H893 0.950 . S
H890 C886 0.950 . S
C891 C889 1.390 . S
C891 C892 1.387 . S
C891 H894 0.950 . S
C892 C891 1.387 . S
C892 C895 1.387 . S
H893 C889 0.950 . S
H894 C891 0.950 . S
C895 C886 1.390 . S
C895 H888 0.950 . S
C895 C892 1.387 . S
C577 C544 1.156 . S
C582 C4 1.156 . S
C587 C436 1.153 . S
C592 C40 1.153 . S
C597 C76 1.154 . S
C602 C472 1.154 . S
C607 C508 1.155 . S
C612 C112 1.156 . S
C617 C328 1.154 . S
C622 C148 1.154 . S
C627 C184 1.155 . S
C632 C364 1.155 . S
C637 C220 1.154 . S
C642 C400 1.154 . S
C647 C256 1.155 . S
C652 C292 1.155 . S
C657 C183 1.521 . S
C662 C14 1.446 . S
C667 C230 1.442 . S
C672 C39 1.521 . S
C677 C255 1.521 . S
C682 C86 1.444 . S
C687 C111 1.521 . S
C692 C158 1.445 . S
C697 C2 1.575 . S
C702 C38 1.575 . S
C707 C75 1.521 . S
C712 C50 1.445 . S
C717 C74 1.575 . S
C722 C110 1.575 . S
C727 C3 1.521 . S
C732 C122 1.446 . S
C737 C254 1.575 . S
C742 C146 1.575 . S
C747 C147 1.520 . S
C752 C194 1.442 . S
C757 C182 1.575 . S
C762 C218 1.575 . S
C767 C266 1.442 . S
C772 C219 1.521 . S
C777 C471 1.520 . S
C782 C302 1.442 . S
C787 C327 1.521 . S
C792 C518 1.446 . S
C797 C543 1.521 . S
C802 C374 1.446 . S
C807 C446 1.446 . S
C812 C399 1.521 . S
C817 C290 1.575 . S
C822 C326 1.575 . S
C827 C338 1.442 . S
C832 C363 1.521 . S
C837 C398 1.575 . S
C842 C362 1.575 . S
C847 C291 1.521 . S
C852 C410 1.442 . S
C857 C542 1.575 . S
C862 C434 1.575 . S
C867 C435 1.521 . S
C872 C482 1.442 . S
C877 C470 1.575 . S
C882 C506 1.575 . S
C887 C554 1.446 . S
C892 C507 1.521 . S
