# Generated by pormake.
# Topology ukm, (4)-cn, num edge types: 1
# Building blocks:
#     Node 0, Type 0, BuildingBlock: KUFVIS_clean_sbu_0, # of connection points: 4
#     Node 1, Type 0, BuildingBlock: KUFVIS_clean_sbu_0, # of connection points: 4
#     Node 2, Type 0, BuildingBlock: KUFVIS_clean_sbu_0, # of connection points: 4
#     Node 3, Type 0, BuildingBlock: KUFVIS_clean_sbu_0, # of connection points: 4
#     Node 4, Type 0, BuildingBlock: KUFVIS_clean_sbu_0, # of connection points: 4
#     Node 5, Type 0, BuildingBlock: KUFVIS_clean_sbu_0, # of connection points: 4
#     Node 6, Type 0, BuildingBlock: KUFVIS_clean_sbu_0, # of connection points: 4
#     Node 7, Type 0, BuildingBlock: KUFVIS_clean_sbu_0, # of connection points: 4
#     Node 8, Type 0, BuildingBlock: KUFVIS_clean_sbu_0, # of connection points: 4
#     Node 9, Type 0, BuildingBlock: KUFVIS_clean_sbu_0, # of connection points: 4
#     Node 10, Type 0, BuildingBlock: KUFVIS_clean_sbu_0, # of connection points: 4
#     Node 11, Type 0, BuildingBlock: KUFVIS_clean_sbu_0, # of connection points: 4
#     Node 12, Type 0, BuildingBlock: KUFVIS_clean_sbu_0, # of connection points: 4
#     Node 13, Type 0, BuildingBlock: KUFVIS_clean_sbu_0, # of connection points: 4
#     Node 14, Type 0, BuildingBlock: KUFVIS_clean_sbu_0, # of connection points: 4
#     Node 15, Type 0, BuildingBlock: KUFVIS_clean_sbu_0, # of connection points: 4
#     Node 16, Type 0, BuildingBlock: KUFVIS_clean_sbu_0, # of connection points: 4
#     Node 17, Type 0, BuildingBlock: KUFVIS_clean_sbu_0, # of connection points: 4
#     Node 18, Type 0, BuildingBlock: KUFVIS_clean_sbu_0, # of connection points: 4
#     Node 19, Type 0, BuildingBlock: KUFVIS_clean_sbu_0, # of connection points: 4
#     Node 20, Type 0, BuildingBlock: KUFVIS_clean_sbu_0, # of connection points: 4
#     Node 21, Type 0, BuildingBlock: KUFVIS_clean_sbu_0, # of connection points: 4
#     Node 22, Type 0, BuildingBlock: KUFVIS_clean_sbu_0, # of connection points: 4
#     Node 23, Type 0, BuildingBlock: KUFVIS_clean_sbu_0, # of connection points: 4
#     Node 24, Type 0, BuildingBlock: KUFVIS_clean_sbu_0, # of connection points: 4
#     Node 25, Type 0, BuildingBlock: KUFVIS_clean_sbu_0, # of connection points: 4
#     Node 26, Type 0, BuildingBlock: KUFVIS_clean_sbu_0, # of connection points: 4
#     Node 27, Type 0, BuildingBlock: KUFVIS_clean_sbu_0, # of connection points: 4
#     Node 28, Type 0, BuildingBlock: KUFVIS_clean_sbu_0, # of connection points: 4
#     Node 29, Type 0, BuildingBlock: KUFVIS_clean_sbu_0, # of connection points: 4
#     Node 30, Type 0, BuildingBlock: KUFVIS_clean_sbu_0, # of connection points: 4
#     Node 31, Type 0, BuildingBlock: KUFVIS_clean_sbu_0, # of connection points: 4
#     Edge 32, Type (0, 0), BuildingBlock: ZUJKAS_clean_linker_0, # of connection points: 2
#     Edge 33, Type (0, 0), BuildingBlock: ZUJKAS_clean_linker_0, # of connection points: 2
#     Edge 34, Type (0, 0), BuildingBlock: ZUJKAS_clean_linker_0, # of connection points: 2
#     Edge 35, Type (0, 0), BuildingBlock: ZUJKAS_clean_linker_0, # of connection points: 2
#     Edge 36, Type (0, 0), BuildingBlock: ZUJKAS_clean_linker_0, # of connection points: 2
#     Edge 37, Type (0, 0), BuildingBlock: ZUJKAS_clean_linker_0, # of connection points: 2
#     Edge 38, Type (0, 0), BuildingBlock: ZUJKAS_clean_linker_0, # of connection points: 2
#     Edge 39, Type (0, 0), BuildingBlock: ZUJKAS_clean_linker_0, # of connection points: 2
#     Edge 40, Type (0, 0), BuildingBlock: ZUJKAS_clean_linker_0, # of connection points: 2
#     Edge 41, Type (0, 0), BuildingBlock: ZUJKAS_clean_linker_0, # of connection points: 2
#     Edge 42, Type (0, 0), BuildingBlock: ZUJKAS_clean_linker_0, # of connection points: 2
#     Edge 43, Type (0, 0), BuildingBlock: ZUJKAS_clean_linker_0, # of connection points: 2
#     Edge 44, Type (0, 0), BuildingBlock: ZUJKAS_clean_linker_0, # of connection points: 2
#     Edge 45, Type (0, 0), BuildingBlock: ZUJKAS_clean_linker_0, # of connection points: 2
#     Edge 46, Type (0, 0), BuildingBlock: ZUJKAS_clean_linker_0, # of connection points: 2
#     Edge 47, Type (0, 0), BuildingBlock: ZUJKAS_clean_linker_0, # of connection points: 2
#     Edge 48, Type (0, 0), BuildingBlock: ZUJKAS_clean_linker_0, # of connection points: 2
#     Edge 49, Type (0, 0), BuildingBlock: ZUJKAS_clean_linker_0, # of connection points: 2
#     Edge 50, Type (0, 0), BuildingBlock: ZUJKAS_clean_linker_0, # of connection points: 2
#     Edge 51, Type (0, 0), BuildingBlock: ZUJKAS_clean_linker_0, # of connection points: 2
#     Edge 52, Type (0, 0), BuildingBlock: ZUJKAS_clean_linker_0, # of connection points: 2
#     Edge 53, Type (0, 0), BuildingBlock: ZUJKAS_clean_linker_0, # of connection points: 2
#     Edge 54, Type (0, 0), BuildingBlock: ZUJKAS_clean_linker_0, # of connection points: 2
#     Edge 55, Type (0, 0), BuildingBlock: ZUJKAS_clean_linker_0, # of connection points: 2
#     Edge 56, Type (0, 0), BuildingBlock: ZUJKAS_clean_linker_0, # of connection points: 2
#     Edge 57, Type (0, 0), BuildingBlock: ZUJKAS_clean_linker_0, # of connection points: 2
#     Edge 58, Type (0, 0), BuildingBlock: ZUJKAS_clean_linker_0, # of connection points: 2
#     Edge 59, Type (0, 0), BuildingBlock: ZUJKAS_clean_linker_0, # of connection points: 2
#     Edge 60, Type (0, 0), BuildingBlock: ZUJKAS_clean_linker_0, # of connection points: 2
#     Edge 61, Type (0, 0), BuildingBlock: ZUJKAS_clean_linker_0, # of connection points: 2
#     Edge 62, Type (0, 0), BuildingBlock: ZUJKAS_clean_linker_0, # of connection points: 2
#     Edge 63, Type (0, 0), BuildingBlock: ZUJKAS_clean_linker_0, # of connection points: 2
#     Edge 64, Type (0, 0), BuildingBlock: ZUJKAS_clean_linker_0, # of connection points: 2
#     Edge 65, Type (0, 0), BuildingBlock: ZUJKAS_clean_linker_0, # of connection points: 2
#     Edge 66, Type (0, 0), BuildingBlock: ZUJKAS_clean_linker_0, # of connection points: 2
#     Edge 67, Type (0, 0), BuildingBlock: ZUJKAS_clean_linker_0, # of connection points: 2
#     Edge 68, Type (0, 0), BuildingBlock: ZUJKAS_clean_linker_0, # of connection points: 2
#     Edge 69, Type (0, 0), BuildingBlock: ZUJKAS_clean_linker_0, # of connection points: 2
#     Edge 70, Type (0, 0), BuildingBlock: ZUJKAS_clean_linker_0, # of connection points: 2
#     Edge 71, Type (0, 0), BuildingBlock: ZUJKAS_clean_linker_0, # of connection points: 2
#     Edge 72, Type (0, 0), BuildingBlock: ZUJKAS_clean_linker_0, # of connection points: 2
#     Edge 73, Type (0, 0), BuildingBlock: ZUJKAS_clean_linker_0, # of connection points: 2
#     Edge 74, Type (0, 0), BuildingBlock: ZUJKAS_clean_linker_0, # of connection points: 2
#     Edge 75, Type (0, 0), BuildingBlock: ZUJKAS_clean_linker_0, # of connection points: 2
#     Edge 76, Type (0, 0), BuildingBlock: ZUJKAS_clean_linker_0, # of connection points: 2
#     Edge 77, Type (0, 0), BuildingBlock: ZUJKAS_clean_linker_0, # of connection points: 2
#     Edge 78, Type (0, 0), BuildingBlock: ZUJKAS_clean_linker_0, # of connection points: 2
#     Edge 79, Type (0, 0), BuildingBlock: ZUJKAS_clean_linker_0, # of connection points: 2
#     Edge 80, Type (0, 0), BuildingBlock: ZUJKAS_clean_linker_0, # of connection points: 2
#     Edge 81, Type (0, 0), BuildingBlock: ZUJKAS_clean_linker_0, # of connection points: 2
#     Edge 82, Type (0, 0), BuildingBlock: ZUJKAS_clean_linker_0, # of connection points: 2
#     Edge 83, Type (0, 0), BuildingBlock: ZUJKAS_clean_linker_0, # of connection points: 2
#     Edge 84, Type (0, 0), BuildingBlock: ZUJKAS_clean_linker_0, # of connection points: 2
#     Edge 85, Type (0, 0), BuildingBlock: ZUJKAS_clean_linker_0, # of connection points: 2
#     Edge 86, Type (0, 0), BuildingBlock: ZUJKAS_clean_linker_0, # of connection points: 2
#     Edge 87, Type (0, 0), BuildingBlock: ZUJKAS_clean_linker_0, # of connection points: 2
#     Edge 88, Type (0, 0), BuildingBlock: ZUJKAS_clean_linker_0, # of connection points: 2
#     Edge 89, Type (0, 0), BuildingBlock: ZUJKAS_clean_linker_0, # of connection points: 2
#     Edge 90, Type (0, 0), BuildingBlock: ZUJKAS_clean_linker_0, # of connection points: 2
#     Edge 91, Type (0, 0), BuildingBlock: ZUJKAS_clean_linker_0, # of connection points: 2
#     Edge 92, Type (0, 0), BuildingBlock: ZUJKAS_clean_linker_0, # of connection points: 2
#     Edge 93, Type (0, 0), BuildingBlock: ZUJKAS_clean_linker_0, # of connection points: 2
#     Edge 94, Type (0, 0), BuildingBlock: ZUJKAS_clean_linker_0, # of connection points: 2
#     Edge 95, Type (0, 0), BuildingBlock: ZUJKAS_clean_linker_0, # of connection points: 2
# Relax obj value: 0.220
# Max RMSD: 0.180
# Mean RMSD: 0.180
data_MOF--net-ukm--node1-KUFVIS_clean_sbu_0--edge1-ZUJKAS_clean_linker_0
_symmetry_space_group_name_H-M    P1
_symmetry_Int_Tables_number       1
_symmetry_cell_setting            triclinic
loop_
_symmetry_equiv_pos_as_xyz
'x, y, z'
_cell_length_a     31.678019
_cell_length_b     138.31054
_cell_length_c     51.558392
_cell_angle_alpha  90.004743
_cell_angle_beta   89.997951
_cell_angle_gamma 90.005232
loop_
_atom_site_label
_atom_site_type_symbol
_atom_site_fract_x
_atom_site_fract_y
_atom_site_fract_z
_atom_type_partial_charge
Mn0 Mn 0.11554 0.31304 0.29951 0.0
Mn1 Mn 0.19474 0.32933 0.29595 0.0
C2 C 0.12419 0.32235 0.26276 0.0
C3 C 0.09128 0.29728 0.29267 0.0
C4 C 0.11481 0.33256 0.3271 0.0
O5 O 0.15555 0.30868 0.32824 0.0
O6 O 0.2087 0.31934 0.3221 0.0
C7 C 0.26294 0.31694 0.2751 0.0
N8 N 0.23782 0.32489 0.27291 0.0
C9 C 0.27102 0.32945 0.23274 0.0
C10 C 0.2974 0.32134 0.23465 0.0
C11 C 0.29332 0.31506 0.25592 0.0
C12 C 0.24172 0.33103 0.25264 0.0
H13 H 0.25974 0.31205 0.29132 0.0
C14 C 0.19234 0.31197 0.33333 0.0
O15 O 0.07259 0.30302 0.30901 0.0
O16 O 0.12446 0.30062 0.28105 0.0
N17 N 0.18471 0.33923 0.27073 0.0
C18 C 0.15455 0.34626 0.2707 0.0
C19 C 0.15294 0.35288 0.25009 0.0
C20 C 0.18233 0.35223 0.22977 0.0
C21 C 0.21316 0.34496 0.23027 0.0
C22 C 0.2135 0.33861 0.25144 0.0
H23 H 0.13166 0.34675 0.28615 0.0
O24 O 0.08787 0.31844 0.26784 0.0
O25 O 0.15406 0.3207 0.27939 0.0
O26 O 0.09566 0.32479 0.32079 0.0
O27 O 0.15203 0.33469 0.31959 0.0
C28 C 0.24288 0.3436 0.21026 0.0
C29 C 0.27183 0.33587 0.21152 0.0
H30 H 0.32055 0.3198 0.21975 0.0
H31 H 0.3134 0.30875 0.25745 0.0
H32 H 0.12894 0.35845 0.24979 0.0
H33 H 0.18067 0.35728 0.21375 0.0
H34 H 0.2433 0.34838 0.19361 0.0
H35 H 0.29408 0.33481 0.19582 0.0
Mn36 Mn 0.16615 0.9392 0.3033 0.0
Mn37 Mn 0.0877 0.92279 0.29796 0.0
C38 C 0.16206 0.92924 0.2674 0.0
C39 C 0.18998 0.95495 0.29626 0.0
C40 C 0.16439 0.91993 0.33232 0.0
O41 O 0.12316 0.94387 0.32999 0.0
O42 O 0.07129 0.933 0.32281 0.0
C43 C 0.02315 0.93525 0.27332 0.0
N44 N 0.04772 0.92717 0.27281 0.0
C45 C 0.01854 0.92228 0.23177 0.0
C46 C 0.99279 0.93053 0.2319 0.0
C47 C 0.99517 0.93705 0.25275 0.0
C48 C 0.0458 0.92087 0.2528 0.0
H49 H 0.02492 0.94029 0.28928 0.0
C50 C 0.08625 0.94049 0.33408 0.0
O51 O 0.20738 0.94946 0.31371 0.0
O52 O 0.15864 0.95132 0.2834 0.0
N53 N 0.09942 0.91254 0.27409 0.0
C54 C 0.12711 0.90505 0.27662 0.0
C55 C 0.12901 0.89793 0.25723 0.0
C56 C 0.10222 0.89854 0.23558 0.0
C57 C 0.0736 0.90623 0.23358 0.0
C58 C 0.07294 0.91308 0.25358 0.0
H59 H 0.14769 0.90453 0.29325 0.0
O60 O 0.19747 0.93341 0.2733 0.0
O61 O 0.13037 0.93114 0.28245 0.0
O62 O 0.18377 0.92774 0.32639 0.0
O63 O 0.12802 0.91766 0.3235 0.0
C64 C 0.04594 0.90742 0.21242 0.0
C65 C 0.01854 0.91546 0.21147 0.0
H66 H 0.97124 0.93195 0.21605 0.0
H67 H 0.97549 0.94344 0.25297 0.0
H68 H 0.15112 0.892 0.25895 0.0
H69 H 0.10398 0.89307 0.22058 0.0
H70 H 0.04581 0.90225 0.19663 0.0
H71 H 0.99781 0.91635 0.19494 0.0
Mn72 Mn 0.10263 0.93816 0.96378 0.0
Mn73 Mn 0.18526 0.92311 0.97271 0.0
C74 C 0.10704 0.92876 0.00074 0.0
C75 C 0.0746 0.95368 0.9686 0.0
C76 C 0.11201 0.9186 0.93672 0.0
O77 O 0.14581 0.94306 0.93755 0.0
O78 O 0.20047 0.93323 0.94727 0.0
C79 C 0.24394 0.93688 -0.00214 0.0
N80 N 0.22209 0.9284 -0.00161 0.0
C81 C 0.25099 0.92428 0.0401 0.0
C82 C 0.274 0.93294 0.03995 0.0
C83 C 0.27033 0.93928 0.01877 0.0
C84 C 0.22504 0.9223 0.01878 0.0
H85 H 0.24124 0.94176 0.98161 0.0
C86 C 0.18389 0.94025 0.93475 0.0
O87 O 0.05956 0.94773 0.95139 0.0
O88 O 0.10578 0.95062 0.98259 0.0
N89 N 0.17503 0.91297 0.99717 0.0
C90 C 0.14988 0.90503 0.99461 0.0
C91 C 0.14936 0.89803 0.01435 0.0
C92 C 0.17506 0.89921 0.03633 0.0
C93 C 0.20115 0.90736 0.03833 0.0
C94 C 0.20038 0.91409 0.01804 0.0
H95 H 0.1303 0.90404 0.97768 0.0
O96 O 0.07099 0.93234 0.99362 0.0
O97 O 0.13912 0.93093 0.98629 0.0
O98 O 0.0899 0.92615 0.94136 0.0
O99 O 0.14829 0.91706 0.94674 0.0
C100 C 0.22779 0.9091 0.0597 0.0
C101 C 0.25253 0.91758 0.06065 0.0
H102 H 0.29442 0.93482 0.05603 0.0
H103 H 0.28786 0.946 0.01855 0.0
H104 H 0.12923 0.89174 0.01261 0.0
H105 H 0.17446 0.89382 0.05155 0.0
H106 H 0.22908 0.90402 0.07567 0.0
H107 H 0.2724 0.9189 0.07738 0.0
Mn108 Mn 0.14071 0.31259 0.95284 0.0
Mn109 Mn 0.06918 0.32993 0.96629 0.0
C110 C 0.14715 0.32187 0.99002 0.0
C111 C 0.16153 0.29646 0.95701 0.0
C112 C 0.13722 0.33197 0.92506 0.0
O113 O 0.09088 0.30908 0.92935 0.0
O114 O 0.04334 0.32 0.9437 0.0
C115 C 0.00737 0.31872 0.99714 0.0
N116 N 0.03442 0.32633 0.99501 0.0
C117 C 0.01661 0.33193 0.03782 0.0
C118 C 0.98826 0.32421 0.04037 0.0
C119 C 0.98372 0.31756 0.01996 0.0
C120 C 0.03904 0.33278 0.01452 0.0
H121 H 0.00404 0.31354 0.9816 0.0
C122 C 0.0535 0.31259 0.93016 0.0
O123 O 0.17657 0.30189 0.9386 0.0
O124 O 0.13366 0.30032 0.97216 0.0
N125 N 0.09087 0.3398 0.98865 0.0
C126 C 0.12225 0.34632 0.98403 0.0
C127 C 0.13242 0.35318 0.00311 0.0
C128 C 0.11014 0.3533 0.02666 0.0
C129 C 0.07796 0.34652 0.03097 0.0
C130 C 0.06907 0.33989 0.0112 0.0
H131 H 0.13952 0.34626 0.96599 0.0
O132 O 0.17976 0.3174 0.98065 0.0
O133 O 0.11224 0.32077 0.97728 0.0
O134 O 0.15681 0.32407 0.92947 0.0
O135 O 0.10355 0.33448 0.93689 0.0
C136 C 0.05493 0.34597 0.05431 0.0
C137 C 0.02434 0.33868 0.05775 0.0
H138 H 0.97024 0.32323 0.05803 0.0
H139 H 0.96216 0.31153 0.02186 0.0
H140 H 0.15741 0.35836 -0.00033 0.0
H141 H 0.11827 0.35857 0.04139 0.0
H142 H 0.06093 0.35104 0.0699 0.0
H143 H 0.00743 0.33822 0.07597 0.0
Mn144 Mn 0.87911 0.69087 0.70124 0.0
Mn145 Mn 0.80224 0.67399 0.70434 0.0
C146 C 0.87191 0.68131 0.73765 0.0
C147 C 0.90188 0.70667 0.70892 0.0
C148 C 0.88225 0.67152 0.67278 0.0
O149 O 0.83827 0.69515 0.67286 0.0
O150 O 0.78708 0.68391 0.67819 0.0
C151 C 0.73225 0.68583 0.72524 0.0
N152 N 0.75843 0.67806 0.72735 0.0
C153 C 0.72552 0.67314 0.76729 0.0
C154 C 0.69804 0.68106 0.76546 0.0
C155 C 0.70145 0.68743 0.74435 0.0
C156 C 0.75521 0.67183 0.74747 0.0
H157 H 0.73493 0.69078 0.70913 0.0
C158 C 0.80238 0.69147 0.66731 0.0
O159 O 0.92085 0.70117 0.69211 0.0
O160 O 0.86905 0.7031 0.72041 0.0
N161 N 0.81349 0.66411 0.72942 0.0
C162 C 0.84466 0.65732 0.72941 0.0
C163 C 0.84705 0.65065 0.74989 0.0
C164 C 0.81738 0.65103 0.77011 0.0
C165 C 0.78553 0.65806 0.76966 0.0
C166 C 0.78447 0.66446 0.74861 0.0
H167 H 0.86774 0.65705 0.71402 0.0
O168 O 0.90777 0.68543 0.73251 0.0
O169 O 0.8417 0.68285 0.72116 0.0
O170 O 0.90019 0.67944 0.67914 0.0
O171 O 0.8457 0.66901 0.68069 0.0
C172 C 0.75543 0.65913 0.78958 0.0
C173 C 0.72542 0.66665 0.78838 0.0
H174 H 0.67455 0.68238 0.78031 0.0
H175 H 0.68051 0.69359 0.74288 0.0
H176 H 0.87184 0.64527 0.75016 0.0
H177 H 0.81961 0.64593 0.78601 0.0
H178 H 0.75553 0.6543 0.80612 0.0
H179 H 0.70288 0.66749 0.80401 0.0
Mn180 Mn 0.86291 0.06237 0.71014 0.0
Mn181 Mn 0.94436 0.07811 0.70892 0.0
C182 C 0.87193 0.07335 0.74341 0.0
C183 C 0.83643 0.04716 0.72091 0.0
C184 C 0.86447 0.08086 0.6775 0.0
O185 O 0.90197 0.05652 0.68291 0.0
O186 O 0.95559 0.06721 0.68498 0.0
C187 C 0.00924 0.06546 0.73249 0.0
N188 N 0.98667 0.07384 0.7327 0.0
C189 C 0.02386 0.07954 0.77039 0.0
C190 C 0.04767 0.07099 0.77052 0.0
C191 C 0.04017 0.0639 0.75155 0.0
C192 C 0.99319 0.08064 0.75108 0.0
H193 H 0.00371 0.06001 0.71788 0.0
C194 C 0.93835 0.05953 0.67609 0.0
O195 O 0.81876 0.05241 0.70306 0.0
O196 O 0.86962 0.0507 0.73213 0.0
N197 N 0.93807 0.08901 0.73142 0.0
C198 C 0.91167 0.09674 0.72897 0.0
C199 C 0.91453 0.1044 0.74676 0.0
C200 C 0.945 0.10413 0.76654 0.0
C201 C 0.9723 0.09618 0.76838 0.0
C202 C 0.96771 0.08871 0.75026 0.0
H203 H 0.8885 0.09704 0.71363 0.0
O204 O 0.83549 0.06931 0.73961 0.0
O205 O 0.90222 0.07066 0.72807 0.0
O206 O 0.84508 0.07331 0.6854 0.0
O207 O 0.90182 0.08313 0.68457 0.0
C208 C 0.00396 0.09537 0.78743 0.0
C209 C 0.02938 0.08701 0.78865 0.0
H210 H 0.07169 0.06979 0.78512 0.0
H211 H 0.05833 0.05727 0.75156 0.0
H212 H 0.89345 0.11053 0.74514 0.0
H213 H 0.94718 0.11006 0.78019 0.0
H214 H 0.00869 0.1011 0.80147 0.0
H215 H 0.0531 0.08641 0.8037 0.0
Mn216 Mn 0.8878 0.06363 0.03974 0.0
Mn217 Mn 0.80667 0.07944 0.03895 0.0
C218 C 0.88029 0.07437 0.00575 0.0
C219 C 0.91364 0.04822 0.03014 0.0
C220 C 0.88531 0.08231 0.07154 0.0
O221 O 0.84757 0.05804 0.06672 0.0
O222 O 0.79399 0.06868 0.06304 0.0
C223 C 0.74239 0.0668 0.01472 0.0
N224 N 0.76524 0.07514 0.01463 0.0
C225 C 0.72935 0.08082 0.97646 0.0
C226 C 0.70527 0.07231 0.97619 0.0
C227 C 0.71199 0.06525 0.99534 0.0
C228 C 0.75951 0.08191 0.99608 0.0
H229 H 0.74728 0.06138 0.0295 0.0
C230 C 0.81083 0.06108 0.07266 0.0
O231 O 0.93115 0.05356 0.04789 0.0
O232 O 0.8812 0.05182 0.01827 0.0
N233 N 0.81434 0.09023 0.01622 0.0
C234 C 0.84107 0.09789 0.01877 0.0
C235 C 0.83908 0.10551 0.0008 0.0
C236 C 0.8091 0.10525 0.98073 0.0
C237 C 0.78148 0.09737 0.97876 0.0
C238 C 0.78526 0.08994 0.99705 0.0
H239 H 0.86381 0.09818 0.03435 0.0
O240 O 0.91646 0.0703 0.01024 0.0
O241 O 0.84944 0.07184 0.02085 0.0
O242 O 0.90512 0.07474 0.06419 0.0
O243 O 0.84821 0.08451 0.06383 0.0
C244 C 0.75025 0.09659 0.95943 0.0
C245 C 0.72456 0.08827 0.95807 0.0
H246 H 0.68162 0.07112 0.96136 0.0
H247 H 0.69361 0.05865 0.99523 0.0
H248 H 0.86041 0.11158 0.00251 0.0
H249 H 0.80755 0.11116 0.96696 0.0
H250 H 0.74611 0.1023 0.94527 0.0
H251 H 0.70123 0.08769 0.94279 0.0
Mn252 Mn 0.85578 0.69122 0.04828 0.0
Mn253 Mn 0.92871 0.67421 0.03415 0.0
C254 C 0.85139 0.68255 0.01019 0.0
C255 C 0.83407 0.70733 0.04586 0.0
C256 C 0.85787 0.67113 0.07285 0.0
O257 O 0.9041 0.69452 0.07286 0.0
O258 O 0.95193 0.68335 0.06015 0.0
C259 C 0.99258 0.68653 0.00838 0.0
N260 N 0.96574 0.67884 0.00765 0.0
C261 C 0.98628 0.67503 0.96389 0.0
C262 C 0.01435 0.68287 0.96423 0.0
C263 C 0.01748 0.68865 0.98657 0.0
C264 C 0.96263 0.67321 0.98631 0.0
H265 H 0.99486 0.69103 0.02544 0.0
C266 C 0.94063 0.69063 0.0739 0.0
O267 O 0.81865 0.70152 0.06331 0.0
O268 O 0.86272 0.70383 0.03062 0.0
N269 N 0.90995 0.66503 0.00886 0.0
C270 C 0.87922 0.65818 0.01104 0.0
C271 C 0.87084 0.65204 0.98998 0.0
C272 C 0.89416 0.65298 0.96695 0.0
C273 C 0.92583 0.66003 0.96523 0.0
C274 C 0.93309 0.66588 0.98695 0.0
H275 H 0.86099 0.65746 0.02863 0.0
O276 O 0.81817 0.68678 0.01955 0.0
O277 O 0.88598 0.68356 0.0234 0.0
O278 O 0.83944 0.67928 0.06997 0.0
O279 O 0.89167 0.66874 0.06098 0.0
C280 C 0.94978 0.66164 0.94261 0.0
C281 C 0.98001 0.66913 0.94195 0.0
H282 H 0.03331 0.68459 0.94736 0.0
H283 H 0.03889 0.69474 0.98693 0.0
H284 H 0.84627 0.64663 0.99144 0.0
H285 H 0.88725 0.64831 0.95063 0.0
H286 H 0.94474 0.65726 0.92547 0.0
H287 H 0.99777 0.67038 0.92431 0.0
Mn288 Mn 0.1078 0.81293 0.78482 0.0
Mn289 Mn 0.17933 0.82933 0.76434 0.0
C290 C 0.10144 0.82001 0.74453 0.0
C291 C 0.08599 0.79681 0.78661 0.0
C292 C 0.10933 0.83409 0.80247 0.0
O293 O 0.15718 0.81056 0.80925 0.0
O294 O 0.20288 0.82162 0.79343 0.0
C295 C 0.24323 0.8158 0.74335 0.0
N296 N 0.21645 0.82339 0.73981 0.0
C297 C 0.23739 0.825 0.69515 0.0
C298 C 0.2654 0.81724 0.69837 0.0
C299 C 0.26828 0.81262 0.72256 0.0
C300 C 0.21349 0.82791 0.71662 0.0
H301 H 0.24539 0.81219 0.76186 0.0
C302 C 0.19301 0.81479 0.8091 0.0
O303 O 0.07121 0.80316 0.80287 0.0
O304 O 0.11424 0.79978 0.77035 0.0
N305 N 0.16068 0.83714 0.73589 0.0
C306 C 0.13018 0.84409 0.73552 0.0
C307 C 0.12235 0.84921 0.71249 0.0
C308 C 0.14598 0.84715 0.69012 0.0
C309 C 0.17736 0.84001 0.69099 0.0
C310 C 0.18408 0.83522 0.71457 0.0
H311 H 0.11163 0.84564 0.75257 0.0
O312 O 0.06868 0.81626 0.75574 0.0
O313 O 0.13668 0.81953 0.75727 0.0
O314 O 0.09271 0.82566 0.80364 0.0
O315 O 0.14177 0.83604 0.78871 0.0
C316 C 0.20157 0.83731 0.66924 0.0
C317 C 0.23155 0.82981 0.67132 0.0
H318 H 0.28453 0.81471 0.68233 0.0
H319 H 0.28965 0.80659 0.72516 0.0
H320 H 0.09795 0.85468 0.71195 0.0
H321 H 0.1395 0.85103 0.67231 0.0
H322 H 0.19691 0.84085 0.65072 0.0
H323 H 0.24952 0.8277 0.65436 0.0
Mn324 Mn 0.12626 0.44025 0.79315 0.0
Mn325 Mn 0.04384 0.42474 0.79295 0.0
C326 C 0.11039 0.43145 0.75637 0.0
C327 C 0.15306 0.45576 0.78608 0.0
C328 C 0.12712 0.4205 0.8196 0.0
O329 O 0.09121 0.44475 0.82406 0.0
O330 O 0.03559 0.43458 0.82045 0.0
C331 C 0.97487 0.43789 0.77692 0.0
N332 N 0.99822 0.42976 0.77278 0.0
C333 C 0.958 0.4258 0.73464 0.0
C334 C 0.93337 0.4341 0.73857 0.0
C335 C 0.94187 0.44017 0.75979 0.0
C336 C 0.99007 0.42382 0.75256 0.0
H337 H 0.98143 0.4426 0.79312 0.0
C338 C 0.05487 0.44171 0.83107 0.0
O339 O 0.17245 0.44964 0.80106 0.0
O340 O 0.11773 0.45294 0.77593 0.0
N341 N 0.04839 0.41503 0.76663 0.0
C342 C 0.07743 0.40782 0.76431 0.0
C343 C 0.0748 0.40139 0.74329 0.0
C344 C 0.04237 0.40243 0.72493 0.0
C345 C 0.01281 0.4099 0.72776 0.0
C346 C 0.01677 0.41604 0.74923 0.0
H347 H 0.10262 0.40702 0.77825 0.0
O348 O 0.14817 0.43486 0.75979 0.0
O349 O 0.08343 0.4332 0.77472 0.0
O350 O 0.14666 0.42816 0.81278 0.0
O351 O 0.08874 0.41877 0.81376 0.0
C352 C 0.98024 0.41165 0.70975 0.0
C353 C 0.9528 0.41958 0.71322 0.0
H354 H 0.90821 0.43595 0.72523 0.0
H355 H 0.92314 0.44661 0.76287 0.0
H356 H 0.09786 0.39567 0.74117 0.0
H357 H 0.04073 0.39752 0.7086 0.0
H358 H 0.97647 0.40704 0.69293 0.0
H359 H 0.92833 0.42095 0.69901 0.0
Mn360 Mn 0.10701 0.44305 0.44884 0.0
Mn361 Mn 0.1706 0.42556 0.47214 0.0
C362 C 0.08965 0.43504 0.48667 0.0
C363 C 0.09009 0.45948 0.44785 0.0
C364 C 0.11202 0.4228 0.42603 0.0
O365 O 0.1623 0.44525 0.42929 0.0
O366 O 0.2037 0.43442 0.44986 0.0
C367 C 0.22698 0.43726 0.50548 0.0
N368 N 0.19888 0.42988 0.50277 0.0
C369 C 0.20409 0.4259 0.5481 0.0
C370 C 0.23327 0.43342 0.55133 0.0
C371 C 0.24471 0.43914 0.52993 0.0
C372 C 0.18774 0.42431 0.52322 0.0
H373 H 0.2357 0.44171 0.48912 0.0
C374 C 0.19829 0.44144 0.43396 0.0
O375 O 0.07761 0.45369 0.42949 0.0
O376 O 0.11314 0.45576 0.46599 0.0
N377 N 0.14185 0.41668 0.49452 0.0
C378 C 0.11105 0.41017 0.48855 0.0
C379 C 0.09482 0.40414 0.50807 0.0
C380 C 0.11048 0.40484 0.53349 0.0
C381 C 0.14231 0.41156 0.53915 0.0
C382 C 0.15752 0.41732 0.51886 0.0
H383 H 0.09877 0.40961 0.46907 0.0
O384 O 0.06077 0.4396 0.47372 0.0
O385 O 0.12744 0.4354 0.4771 0.0
O386 O 0.09359 0.43101 0.42691 0.0
O387 O 0.14221 0.42035 0.44109 0.0
C388 C 0.15892 0.4129 0.56425 0.0
C389 C 0.18977 0.42007 0.56872 0.0
H390 H 0.24674 0.43495 0.5702 0.0
H391 H 0.26703 0.445 0.5323 0.0
H392 H 0.07016 0.39899 0.50355 0.0
H393 H 0.09756 0.40025 0.54855 0.0
H394 H 0.14773 0.40856 0.58033 0.0
H395 H 0.20177 0.42114 0.58819 0.0
Mn396 Mn 0.15118 0.80981 0.43501 0.0
Mn397 Mn 0.07582 0.82706 0.43714 0.0
C398 C 0.14156 0.81891 0.47208 0.0
C399 C 0.171 0.79375 0.44152 0.0
C400 C 0.15897 0.8295 0.40875 0.0
O401 O 0.1126 0.80616 0.40489 0.0
O402 O 0.0618 0.81748 0.40998 0.0
C403 C 0.00279 0.81544 0.4548 0.0
N404 N 0.02966 0.82301 0.45838 0.0
C405 C 0.9936 0.82779 0.49741 0.0
C406 C 0.96543 0.82007 0.49407 0.0
C407 C 0.97007 0.81386 0.47267 0.0
C408 C 0.02528 0.82908 0.47879 0.0
H409 H 0.00635 0.81062 0.43845 0.0
C410 C 0.0772 0.80998 0.39888 0.0
O411 O 0.19239 0.79937 0.42615 0.0
O412 O 0.13778 0.7974 0.45238 0.0
N413 N 0.08593 0.83662 0.46328 0.0
C414 C 0.11767 0.84325 0.46476 0.0
C415 C 0.11875 0.84975 0.48567 0.0
C416 C 0.0872 0.84938 0.50478 0.0
C417 C 0.05482 0.8425 0.50282 0.0
C418 C 0.05516 0.83627 0.48142 0.0
H419 H 0.14213 0.84354 0.45019 0.0
O420 O 0.17735 0.81462 0.46785 0.0
O421 O 0.11285 0.81779 0.4544 0.0
O422 O 0.17564 0.82143 0.41507 0.0
O423 O 0.12178 0.83203 0.41534 0.0
C424 C 0.02277 0.84145 0.52156 0.0
C425 C 0.99216 0.83411 0.51885 0.0
H426 H 0.94041 0.81877 0.50796 0.0
H427 H 0.94856 0.80786 0.47001 0.0
H428 H 0.14394 0.85501 0.4871 0.0
H429 H 0.08835 0.85435 0.52099 0.0
H430 H 0.02173 0.84616 0.53834 0.0
H431 H 0.96807 0.83328 0.53359 0.0
Mn432 Mn 0.89661 0.19015 0.20431 0.0
Mn433 Mn 0.82051 0.17325 0.21139 0.0
C434 C 0.89323 0.18091 0.24158 0.0
C435 C 0.91908 0.20611 0.21004 0.0
C436 C 0.8972 0.17057 0.17695 0.0
O437 O 0.85291 0.19411 0.1772 0.0
O438 O 0.8024 0.18298 0.18552 0.0
C439 C 0.75265 0.18518 0.23449 0.0
N440 N 0.77915 0.17744 0.23591 0.0
C441 C 0.75016 0.17266 0.27709 0.0
C442 C 0.72242 0.18055 0.27602 0.0
C443 C 0.72371 0.18684 0.25464 0.0
C444 C 0.778 0.1713 0.25631 0.0
H445 H 0.75364 0.19005 0.21814 0.0
C446 C 0.81639 0.19043 0.1735 0.0
O447 O 0.93691 0.20049 0.19303 0.0
O448 O 0.88772 0.20252 0.22296 0.0
N449 N 0.83454 0.16354 0.23639 0.0
C450 C 0.86562 0.15674 0.23539 0.0
C451 C 0.86987 0.15011 0.25585 0.0
C452 C 0.8421 0.15053 0.27707 0.0
C453 C 0.81035 0.15759 0.27765 0.0
C454 C 0.80741 0.16395 0.25659 0.0
H455 H 0.88715 0.15641 0.21918 0.0
O456 O 0.92838 0.18504 0.23493 0.0
O457 O 0.86152 0.18225 0.22608 0.0
O458 O 0.91586 0.17852 0.18226 0.0
O459 O 0.86144 0.16816 0.18627 0.0
C460 C 0.78207 0.1587 0.29854 0.0
C461 C 0.75201 0.16622 0.29826 0.0
H462 H 0.70032 0.18191 0.29163 0.0
H463 H 0.70253 0.19297 0.25372 0.0
H464 H 0.89457 0.14471 0.25531 0.0
H465 H 0.84568 0.14545 0.29289 0.0
H466 H 0.78358 0.15389 0.31509 0.0
H467 H 0.7309 0.16709 0.31462 0.0
Mn468 Mn 0.84657 0.56395 0.205 0.0
Mn469 Mn 0.9287 0.57941 0.20073 0.0
C470 C 0.85693 0.57558 0.23658 0.0
C471 C 0.82066 0.54888 0.21778 0.0
C472 C 0.84858 0.5815 0.16913 0.0
O473 O 0.88499 0.5575 0.17835 0.0
O474 O 0.94034 0.56775 0.17972 0.0
C475 C 0.9936 0.56771 0.22758 0.0
N476 N 0.97077 0.57602 0.22566 0.0
C477 C 0.00792 0.58312 0.26161 0.0
C478 C 0.03196 0.57465 0.26394 0.0
C479 C 0.02461 0.56689 0.24693 0.0
C480 C 0.97712 0.58347 0.24217 0.0
H481 H 0.98823 0.56175 0.21443 0.0
C482 C 0.92222 0.56004 0.17181 0.0
O483 O 0.80234 0.55385 0.19959 0.0
O484 O 0.8538 0.55268 0.22844 0.0
N485 N 0.92177 0.59101 0.22047 0.0
C486 C 0.89503 0.59857 0.21611 0.0
C487 C 0.89766 0.60683 0.23184 0.0
C488 C 0.9282 0.60732 0.25154 0.0
C489 C 0.95578 0.59952 0.25538 0.0
C490 C 0.9514 0.59144 0.23929 0.0
H491 H 0.87185 0.59829 0.20079 0.0
O492 O 0.82028 0.5715 0.23389 0.0
O493 O 0.88649 0.57253 0.22124 0.0
O494 O 0.82824 0.57443 0.17904 0.0
O495 O 0.88664 0.58359 0.17503 0.0
C496 C 0.98756 0.59947 0.27447 0.0
C497 C 0.01333 0.59124 0.27777 0.0
H498 H 0.05608 0.57402 0.27873 0.0
H499 H 0.04297 0.56033 0.24863 0.0
H500 H 0.87636 0.61284 0.22867 0.0
H501 H 0.93024 0.61372 0.26358 0.0
H502 H 0.99201 0.60567 0.28703 0.0
H503 H 0.03712 0.59122 0.29286 0.0
Mn504 Mn 0.88659 0.56662 0.52757 0.0
Mn505 Mn 0.80347 0.58191 0.5281 0.0
C506 C 0.87769 0.57772 0.49461 0.0
C507 C 0.91531 0.55164 0.51637 0.0
C508 C 0.88209 0.5851 0.56032 0.0
O509 O 0.84725 0.56035 0.55396 0.0
O510 O 0.79373 0.57106 0.55237 0.0
C511 C 0.74032 0.56866 0.50509 0.0
N512 N 0.76174 0.5772 0.50452 0.0
C513 C 0.72317 0.58248 0.46693 0.0
C514 C 0.70058 0.57376 0.46716 0.0
C515 C 0.70933 0.5668 0.48627 0.0
C516 C 0.75393 0.58389 0.48606 0.0
H517 H 0.74674 0.56331 0.51983 0.0
C518 C 0.81102 0.56336 0.56102 0.0
O519 O 0.93162 0.55685 0.5348 0.0
O520 O 0.88214 0.55507 0.5049 0.0
N521 N 0.80799 0.59276 0.50528 0.0
C522 C 0.83329 0.60069 0.5074 0.0
C523 C 0.82914 0.60825 0.4894 0.0
C524 C 0.79848 0.60767 0.46977 0.0
C525 C 0.77229 0.59952 0.46829 0.0
C526 C 0.77817 0.59217 0.48658 0.0
H527 H 0.85657 0.60122 0.52264 0.0
O528 O 0.91443 0.5739 0.49891 0.0
O529 O 0.84698 0.57475 0.50929 0.0
O530 O 0.90206 0.57752 0.55314 0.0
O531 O 0.84521 0.58732 0.55227 0.0
C532 C 0.74052 0.59839 0.4494 0.0
C533 C 0.71631 0.58984 0.44853 0.0
H534 H 0.67651 0.57233 0.45274 0.0
H535 H 0.69207 0.56005 0.48657 0.0
H536 H 0.84937 0.61454 0.49074 0.0
H537 H 0.79531 0.61353 0.45596 0.0
H538 H 0.73462 0.60404 0.43531 0.0
H539 H 0.69245 0.58901 0.43364 0.0
Mn540 Mn 0.84907 0.18927 0.55293 0.0
Mn541 Mn 0.92551 0.17255 0.54444 0.0
C542 C 0.85278 0.18053 0.51488 0.0
C543 C 0.8266 0.20527 0.54881 0.0
C544 C 0.84847 0.16932 0.57821 0.0
O545 O 0.89233 0.19289 0.58052 0.0
O546 O 0.94306 0.18191 0.57144 0.0
C547 C 0.99322 0.18495 0.52301 0.0
N548 N 0.96693 0.17721 0.52056 0.0
C549 C 0.9958 0.17329 0.47869 0.0
C550 C 0.02332 0.1812 0.48082 0.0
C551 C 0.02201 0.18705 0.50308 0.0
C552 C 0.96817 0.17148 0.49932 0.0
H553 H 0.99217 0.18951 0.54001 0.0
C554 C 0.92881 0.18919 0.58406 0.0
O555 O 0.80859 0.19941 0.56516 0.0
O556 O 0.85801 0.20187 0.53557 0.0
N557 N 0.91207 0.16322 0.51828 0.0
C558 C 0.88131 0.15633 0.51841 0.0
C559 C 0.87711 0.15012 0.49702 0.0
C560 C 0.90456 0.15104 0.47576 0.0
C561 C 0.9361 0.15816 0.47613 0.0
C562 C 0.93905 0.16408 0.49809 0.0
H563 H 0.85991 0.15564 0.5346 0.0
O564 O 0.81755 0.18456 0.52179 0.0
O565 O 0.88443 0.1817 0.53053 0.0
O566 O 0.82989 0.17734 0.5737 0.0
O567 O 0.88433 0.16702 0.5688 0.0
C568 C 0.96405 0.15975 0.45531 0.0
C569 C 0.99392 0.1673 0.4566 0.0
H570 H 0.04526 0.1829 0.46537 0.0
H571 H 0.04301 0.19319 0.50482 0.0
H572 H 0.85259 0.14467 0.49684 0.0
H573 H 0.9009 0.14631 0.45917 0.0
H574 H 0.96241 0.15531 0.43803 0.0
H575 H 0.01481 0.16855 0.44031 0.0
Mn576 Mn 0.61424 0.31421 0.7723 0.0
Mn577 Mn 0.69191 0.33088 0.76983 0.0
C578 C 0.61741 0.32514 0.73862 0.0
C579 C 0.5889 0.29877 0.76282 0.0
C580 C 0.61309 0.3335 0.8018 0.0
O581 O 0.65686 0.30873 0.79771 0.0
O582 O 0.70331 0.32101 0.79687 0.0
C583 C 0.75829 0.3175 0.75095 0.0
N584 N 0.7354 0.32578 0.748 0.0
C585 C 0.77408 0.33001 0.70949 0.0
C586 C 0.79811 0.32156 0.71217 0.0
C587 C 0.79005 0.31526 0.73294 0.0
C588 C 0.74248 0.33181 0.72787 0.0
H589 H 0.75251 0.31265 0.76692 0.0
C590 C 0.69042 0.31286 0.80549 0.0
O591 O 0.57259 0.3039 0.78142 0.0
O592 O 0.62006 0.30257 0.75013 0.0
N593 N 0.68685 0.34091 0.74443 0.0
C594 C 0.66187 0.34892 0.745 0.0
C595 C 0.66604 0.35597 0.72557 0.0
C596 C 0.69677 0.35486 0.70619 0.0
C597 C 0.7231 0.34671 0.70644 0.0
C598 C 0.71716 0.33988 0.72615 0.0
H599 H 0.63904 0.34994 0.7602 0.0
O600 O 0.5822 0.32084 0.74427 0.0
O601 O 0.65022 0.32274 0.75233 0.0
O602 O 0.59787 0.32505 0.79796 0.0
O603 O 0.64738 0.33658 0.79166 0.0
C604 C 0.75533 0.34515 0.68807 0.0
C605 C 0.78048 0.33676 0.68942 0.0
H606 H 0.82285 0.31984 0.69841 0.0
H607 H 0.80845 0.30872 0.73515 0.0
H608 H 0.64592 0.36229 0.7257 0.0
H609 H 0.70013 0.36035 0.69136 0.0
H610 H 0.76106 0.35036 0.6728 0.0
H611 H 0.80489 0.33561 0.67504 0.0
Mn612 Mn 0.63668 0.93941 0.79439 0.0
Mn613 Mn 0.55903 0.92311 0.78429 0.0
C614 C 0.63067 0.93163 0.75489 0.0
C615 C 0.66044 0.95537 0.79272 0.0
C616 C 0.63811 0.91872 0.81538 0.0
O617 O 0.59495 0.94252 0.82323 0.0
O618 O 0.54382 0.9317 0.81366 0.0
C619 C 0.49089 0.93631 0.76721 0.0
N620 N 0.5161 0.92852 0.76266 0.0
C621 C 0.48269 0.92557 0.72149 0.0
C622 C 0.4562 0.93353 0.72581 0.0
C623 C 0.46038 0.93893 0.74874 0.0
C624 C 0.51229 0.92325 0.74068 0.0
H625 H 0.49409 0.9405 0.78477 0.0
C626 C 0.55879 0.9387 0.82709 0.0
O627 O 0.67847 0.94905 0.80773 0.0
O628 O 0.62821 0.95246 0.77938 0.0
N629 N 0.56973 0.91447 0.75604 0.0
C630 C 0.59978 0.90746 0.75398 0.0
C631 C 0.60074 0.90156 0.73185 0.0
C632 C 0.57081 0.90291 0.71209 0.0
C633 C 0.54039 0.91022 0.71454 0.0
C634 C 0.54063 0.9158 0.73721 0.0
H635 H 0.62294 0.9064 0.76906 0.0
O636 O 0.66649 0.93534 0.76198 0.0
O637 O 0.59972 0.93253 0.77119 0.0
O638 O 0.65592 0.92696 0.81293 0.0
O639 O 0.60184 0.91678 0.80596 0.0
C640 C 0.51031 0.91229 0.6952 0.0
C641 C 0.48153 0.91997 0.69865 0.0
H642 H 0.43284 0.93562 0.71153 0.0
H643 H 0.4402 0.94512 0.75215 0.0
H644 H 0.62449 0.89598 0.73001 0.0
H645 H 0.57167 0.89833 0.69506 0.0
H646 H 0.50945 0.90812 0.67742 0.0
H647 H 0.45899 0.9216 0.68346 0.0
Mn648 Mn 0.60813 0.94178 0.44062 0.0
Mn649 Mn 0.67991 0.92493 0.45781 0.0
C650 C 0.60308 0.93406 0.48012 0.0
C651 C 0.58717 0.95794 0.44051 0.0
C652 C 0.60939 0.9212 0.41928 0.0
O653 O 0.65692 0.94439 0.41578 0.0
O654 O 0.70405 0.93347 0.43075 0.0
C655 C 0.74419 0.93755 0.48212 0.0
N656 N 0.71676 0.93 0.48384 0.0
C657 C 0.73634 0.92704 0.52824 0.0
C658 C 0.76498 0.93476 0.52689 0.0
C659 C 0.76888 0.94004 0.50373 0.0
C660 C 0.7129 0.92483 0.50598 0.0
H661 H 0.74712 0.94167 0.46441 0.0
C662 C 0.6934 0.94045 0.41578 0.0
O663 O 0.57159 0.95183 0.42391 0.0
O664 O 0.61569 0.95472 0.45626 0.0
N665 N 0.66012 0.91635 0.48432 0.0
C666 C 0.62903 0.90956 0.48296 0.0
C667 C 0.61995 0.90389 0.50486 0.0
C668 C 0.64294 0.90524 0.52787 0.0
C669 C 0.67497 0.91223 0.52875 0.0
C670 C 0.68291 0.9176 0.50624 0.0
H671 H 0.61108 0.90852 0.46538 0.0
O672 O 0.57008 0.93812 0.46996 0.0
O673 O 0.6377 0.93463 0.46679 0.0
O674 O 0.59127 0.92943 0.42087 0.0
O675 O 0.64303 0.919 0.43157 0.0
C676 C 0.69867 0.91423 0.55124 0.0
C677 C 0.72936 0.92162 0.55098 0.0
H678 H 0.78379 0.93676 0.54359 0.0
H679 H 0.79075 0.94603 0.50258 0.0
H680 H 0.5951 0.89853 0.50404 0.0
H681 H 0.6355 0.90093 0.54481 0.0
H682 H 0.6931 0.91022 0.56897 0.0
H683 H 0.74693 0.92318 0.56851 0.0
Mn684 Mn 0.63851 0.31211 0.4521 0.0
Mn685 Mn 0.55749 0.3278 0.4456 0.0
C686 C 0.62688 0.32391 0.48295 0.0
C687 C 0.66398 0.29718 0.46618 0.0
C688 C 0.63999 0.3298 0.41645 0.0
O689 O 0.6015 0.30555 0.42492 0.0
O690 O 0.54814 0.31632 0.42356 0.0
C691 C 0.49048 0.31576 0.46929 0.0
N692 N 0.5133 0.32411 0.46881 0.0
C693 C 0.47369 0.33066 0.50453 0.0
C694 C 0.44965 0.32215 0.50536 0.0
C695 C 0.45819 0.31466 0.48772 0.0
C696 C 0.50568 0.33131 0.48588 0.0
H697 H 0.4968 0.31 0.45571 0.0
C698 C 0.56568 0.3084 0.41663 0.0
O699 O 0.68305 0.30202 0.44803 0.0
O700 O 0.63005 0.30098 0.47587 0.0
N701 N 0.562 0.33926 0.4662 0.0
C702 C 0.58814 0.34699 0.46287 0.0
C703 C 0.58392 0.35508 0.47913 0.0
C704 C 0.55243 0.35521 0.49831 0.0
C705 C 0.52534 0.34725 0.50099 0.0
C706 C 0.5312 0.33937 0.48434 0.0
H707 H 0.61212 0.34698 0.44799 0.0
O708 O 0.66353 0.31978 0.48111 0.0
O709 O 0.59791 0.32082 0.46723 0.0
O710 O 0.65846 0.32243 0.42616 0.0
O711 O 0.60205 0.33222 0.42178 0.0
C712 C 0.4926 0.34685 0.51944 0.0
C713 C 0.46707 0.33853 0.5214 0.0
H714 H 0.4246 0.32128 0.51947 0.0
H715 H 0.43981 0.30806 0.48824 0.0
H716 H 0.6048 0.36121 0.47683 0.0
H717 H 0.54924 0.36146 0.5108 0.0
H718 H 0.48704 0.35288 0.53241 0.0
H719 H 0.4424 0.33826 0.53593 0.0
Mn720 Mn 0.40353 0.68733 0.2011 0.0
Mn721 Mn 0.32412 0.67109 0.20403 0.0
C722 C 0.39961 0.67653 0.23515 0.0
C723 C 0.42776 0.70287 0.21071 0.0
C724 C 0.4003 0.6688 0.16896 0.0
O725 O 0.36067 0.69266 0.17523 0.0
O726 O 0.30773 0.68195 0.1812 0.0
C727 C 0.26143 0.68313 0.23175 0.0
N728 N 0.28516 0.67494 0.23037 0.0
C729 C 0.25712 0.66915 0.27087 0.0
C730 C 0.23217 0.6775 0.27264 0.0
C731 C 0.23441 0.68453 0.25302 0.0
C732 C 0.28344 0.66816 0.24922 0.0
H733 H 0.2632 0.68858 0.21677 0.0
C734 C 0.32336 0.68957 0.17091 0.0
O735 O 0.44501 0.69777 0.19235 0.0
O736 O 0.39637 0.69899 0.22295 0.0
N737 N 0.33572 0.66019 0.22578 0.0
C738 C 0.36257 0.65266 0.22145 0.0
C739 C 0.36445 0.64504 0.23941 0.0
C740 C 0.3385 0.6452 0.2615 0.0
C741 C 0.31068 0.65296 0.26534 0.0
C742 C 0.30992 0.6603 0.24666 0.0
H743 H 0.3825 0.65247 0.20447 0.0
O744 O 0.43498 0.68084 0.22992 0.0
O745 O 0.36771 0.67886 0.22069 0.0
O746 O 0.42049 0.67633 0.17626 0.0
O747 O 0.3636 0.66652 0.17725 0.0
C748 C 0.28393 0.65372 0.28706 0.0
C749 C 0.2573 0.66183 0.28989 0.0
H750 H 0.21138 0.67861 0.28905 0.0
H751 H 0.21541 0.69101 0.25431 0.0
H752 H 0.38593 0.63907 0.23625 0.0
H753 H 0.34028 0.63935 0.27542 0.0
H754 H 0.28393 0.64817 0.30187 0.0
H755 H 0.2373 0.6624 0.30686 0.0
Mn756 Mn 0.36662 0.06389 0.20697 0.0
Mn757 Mn 0.44586 0.0802 0.20671 0.0
C758 C 0.37199 0.07522 0.23974 0.0
C759 C 0.3423 0.04852 0.21817 0.0
C760 C 0.3679 0.082 0.17296 0.0
O761 O 0.40826 0.05814 0.18106 0.0
O762 O 0.46075 0.06909 0.18426 0.0
C763 C 0.51071 0.06846 0.23349 0.0
N764 N 0.48679 0.07663 0.23217 0.0
C765 C 0.51975 0.08315 0.27039 0.0
C766 C 0.5449 0.07483 0.2721 0.0
C767 C 0.54021 0.06743 0.25364 0.0
C768 C 0.49061 0.08372 0.25004 0.0
H769 H 0.50732 0.06278 0.21927 0.0
C770 C 0.44497 0.06126 0.17531 0.0
O771 O 0.32466 0.05345 0.19963 0.0
O772 O 0.37407 0.0525 0.22986 0.0
N773 N 0.43588 0.09132 0.22789 0.0
C774 C 0.4084 0.09876 0.22389 0.0
C775 C 0.40847 0.10666 0.24098 0.0
C776 C 0.43723 0.10692 0.2617 0.0
C777 C 0.46566 0.09926 0.26516 0.0
C778 C 0.4639 0.09154 0.24765 0.0
H779 H 0.38653 0.09865 0.20784 0.0
O780 O 0.33642 0.07085 0.23542 0.0
O781 O 0.40346 0.07263 0.22521 0.0
O782 O 0.34865 0.07447 0.18113 0.0
O783 O 0.40463 0.08452 0.18064 0.0
C784 C 0.49573 0.09899 0.28526 0.0
C785 C 0.52245 0.09089 0.28805 0.0
H786 H 0.56783 0.07403 0.28754 0.0
H787 H 0.55941 0.06098 0.25487 0.0
H788 H 0.38653 0.11256 0.23811 0.0
H789 H 0.43725 0.11304 0.27481 0.0
H790 H 0.49817 0.10491 0.29892 0.0
H791 H 0.5449 0.0907 0.30389 0.0
Mn792 Mn 0.37332 0.06264 0.53142 0.0
Mn793 Mn 0.2916 0.0783 0.53208 0.0
C794 C 0.36596 0.07392 0.49881 0.0
C795 C 0.40089 0.04759 0.52006 0.0
C796 C 0.37024 0.08099 0.56464 0.0
O797 O 0.33318 0.05649 0.55753 0.0
O798 O 0.28022 0.06734 0.55579 0.0
C799 C 0.22801 0.06551 0.50773 0.0
N800 N 0.25012 0.07395 0.50784 0.0
C801 C 0.21383 0.07957 0.46974 0.0
C802 C 0.1905 0.07095 0.46929 0.0
C803 C 0.19777 0.06388 0.48831 0.0
C804 C 0.2438 0.08075 0.48944 0.0
H805 H 0.23339 0.06006 0.52236 0.0
C806 C 0.29692 0.05955 0.56436 0.0
O807 O 0.41741 0.05269 0.53866 0.0
O808 O 0.36807 0.05117 0.50852 0.0
N809 N 0.29775 0.08928 0.50983 0.0
C810 C 0.32341 0.09712 0.51275 0.0
C811 C 0.3206 0.1048 0.49501 0.0
C812 C 0.29092 0.10442 0.47479 0.0
C813 C 0.26427 0.09637 0.47251 0.0
C814 C 0.26873 0.08891 0.49063 0.0
H815 H 0.34598 0.09749 0.52841 0.0
O816 O 0.4022 0.06986 0.50307 0.0
O817 O 0.33474 0.07104 0.51322 0.0
O818 O 0.3896 0.07338 0.55716 0.0
O819 O 0.33339 0.08337 0.55683 0.0
C820 C 0.23336 0.09547 0.45301 0.0
C821 C 0.20849 0.08703 0.45144 0.0
H822 H 0.16701 0.06969 0.4544 0.0
H823 H 0.17998 0.05719 0.48806 0.0
H824 H 0.34115 0.111 0.49698 0.0
H825 H 0.28881 0.11036 0.46116 0.0
H826 H 0.22864 0.1012 0.43899 0.0
H827 H 0.1853 0.08637 0.4361 0.0
Mn828 Mn 0.35125 0.68549 0.5319 0.0
Mn829 Mn 0.43137 0.66949 0.52756 0.0
C830 C 0.35493 0.6749 0.49737 0.0
C831 C 0.32599 0.70101 0.52324 0.0
C832 C 0.35636 0.66684 0.56342 0.0
O833 O 0.39452 0.69083 0.55746 0.0
O834 O 0.44766 0.68024 0.5509 0.0
C835 C 0.49288 0.68194 0.50009 0.0
N836 N 0.46961 0.67366 0.50116 0.0
C837 C 0.49722 0.66827 0.46015 0.0
C838 C 0.52169 0.67671 0.45869 0.0
C839 C 0.51943 0.68357 0.47872 0.0
C840 C 0.47135 0.66704 0.48192 0.0
H841 H 0.4911 0.68725 0.51539 0.0
C842 C 0.43197 0.68779 0.5615 0.0
O843 O 0.30947 0.69575 0.54153 0.0
O844 O 0.35712 0.69728 0.51041 0.0
N845 N 0.41993 0.65874 0.50526 0.0
C846 C 0.39344 0.65112 0.50929 0.0
C847 C 0.39155 0.64365 0.49087 0.0
C848 C 0.41711 0.64406 0.46863 0.0
C849 C 0.44454 0.6519 0.46509 0.0
C850 C 0.44531 0.65909 0.4842 0.0
H851 H 0.3738 0.65076 0.52637 0.0
O852 O 0.3194 0.67903 0.50317 0.0
O853 O 0.38702 0.67725 0.51164 0.0
O854 O 0.33575 0.67438 0.55667 0.0
O855 O 0.39269 0.66461 0.55442 0.0
C856 C 0.47086 0.65291 0.44323 0.0
C857 C 0.49706 0.66111 0.44071 0.0
H858 H 0.54212 0.67801 0.44221 0.0
H859 H 0.53806 0.69012 0.47767 0.0
H860 H 0.37037 0.63761 0.49378 0.0
H861 H 0.41532 0.63832 0.45437 0.0
H862 H 0.47084 0.64748 0.42809 0.0
H863 H 0.51672 0.66187 0.42364 0.0
Mn864 Mn 0.60014 0.81163 0.30068 0.0
Mn865 Mn 0.67086 0.82954 0.29115 0.0
C866 C 0.59562 0.82136 0.26445 0.0
C867 C 0.5817 0.79543 0.29475 0.0
C868 C 0.59872 0.83083 0.32967 0.0
O869 O 0.64827 0.80803 0.3251 0.0
O870 O 0.69526 0.81969 0.31465 0.0
C871 C 0.737 0.81876 0.26269 0.0
N872 N 0.70876 0.82618 0.26375 0.0
C873 C 0.72879 0.83167 0.2212 0.0
C874 C 0.75826 0.82412 0.21972 0.0
C875 C 0.76235 0.81764 0.24055 0.0
C876 C 0.70475 0.8325 0.24389 0.0
H877 H 0.74006 0.81373 0.27858 0.0
C878 C 0.68461 0.81198 0.32681 0.0
O879 O 0.56452 0.80058 0.31304 0.0
O880 O 0.60997 0.79964 0.28057 0.0
N881 N 0.65067 0.8394 0.26821 0.0
C882 C 0.61878 0.84586 0.27198 0.0
C883 C 0.60941 0.85262 0.2525 0.0
C884 C 0.63291 0.85267 0.22939 0.0
C885 C 0.66574 0.84599 0.22602 0.0
C886 C 0.67395 0.83949 0.24624 0.0
H887 H 0.60043 0.84583 0.28962 0.0
O888 O 0.56281 0.81658 0.27235 0.0
O889 O 0.62979 0.82025 0.27797 0.0
O890 O 0.58101 0.82276 0.32445 0.0
O891 O 0.63287 0.83374 0.31909 0.0
C892 C 0.69 0.84538 0.20318 0.0
C893 C 0.72154 0.83823 0.20078 0.0
H894 H 0.77757 0.82317 0.20257 0.0
H895 H 0.78486 0.81177 0.2395 0.0
H896 H 0.58398 0.85775 0.25523 0.0
H897 H 0.62526 0.85783 0.21428 0.0
H898 H 0.68424 0.85028 0.18718 0.0
H899 H 0.73955 0.83775 0.18297 0.0
Mn900 Mn 0.66088 0.43709 0.29119 0.0
Mn901 Mn 0.58772 0.41969 0.28164 0.0
C902 C 0.66511 0.42702 0.25548 0.0
C903 C 0.68145 0.45317 0.28564 0.0
C904 C 0.65887 0.41798 0.32069 0.0
O905 O 0.61292 0.44111 0.31543 0.0
O906 O 0.56467 0.42981 0.30463 0.0
C907 C 0.52516 0.43113 0.25203 0.0
N908 N 0.5513 0.42334 0.25379 0.0
C909 C 0.52868 0.41743 0.21217 0.0
C910 C 0.50136 0.42537 0.20995 0.0
C911 C 0.49975 0.43227 0.22992 0.0
C912 C 0.5535 0.41673 0.23454 0.0
H913 H 0.52373 0.43643 0.2674 0.0
C914 C 0.57609 0.43739 0.31699 0.0
O915 O 0.6975 0.44786 0.30397 0.0
O916 O 0.65333 0.44915 0.27091 0.0
N917 N 0.60583 0.40942 0.25942 0.0
C918 C 0.63462 0.40232 0.26427 0.0
C919 C 0.64064 0.39493 0.24597 0.0
C920 C 0.61659 0.39483 0.22308 0.0
C921 C 0.58668 0.40212 0.21872 0.0
C922 C 0.58213 0.40931 0.23762 0.0
H923 H 0.6529 0.4023 0.28194 0.0
O924 O 0.69816 0.43175 0.26318 0.0
O925 O 0.63074 0.42851 0.2685 0.0
O926 O 0.6778 0.42589 0.31529 0.0
O927 O 0.62443 0.41527 0.31005 0.0
C928 C 0.56125 0.40254 0.19635 0.0
C929 C 0.53241 0.41022 0.193 0.0
H930 H 0.48162 0.42625 0.19296 0.0
H931 H 0.47885 0.43843 0.22832 0.0
H932 H 0.66367 0.3893 0.24953 0.0
H933 H 0.62136 0.38912 0.20899 0.0
H934 H 0.564 0.39707 0.18141 0.0
H935 H 0.5135 0.41055 0.17552 0.0
Mn936 Mn 0.61545 0.43734 0.96052 0.0
Mn937 Mn 0.70005 0.42251 0.96041 0.0
C938 C 0.62506 0.42631 0.99353 0.0
C939 C 0.58662 0.45227 0.97193 0.0
C940 C 0.62272 0.41926 0.92688 0.0
O941 O 0.65484 0.44371 0.93428 0.0
O942 O 0.71129 0.43384 0.93802 0.0
C943 C 0.76027 0.43539 0.98749 0.0
N944 N 0.73921 0.42682 0.98613 0.0
C945 C 0.77074 0.42132 0.02595 0.0
C946 C 0.79298 0.43006 0.02769 0.0
C947 C 0.78768 0.43713 0.00839 0.0
C948 C 0.74399 0.41998 0.00463 0.0
H949 H 0.75607 0.44087 0.9728 0.0
C950 C 0.69269 0.4413 0.92882 0.0
O951 O 0.57007 0.44708 0.95351 0.0
O952 O 0.61994 0.44884 0.98319 0.0
N953 N 0.69343 0.41126 0.98169 0.0
C954 C 0.66894 0.40331 0.97745 0.0
C955 C 0.67034 0.39559 0.9951 0.0
C956 C 0.69702 0.39609 0.01682 0.0
C957 C 0.72236 0.40429 0.02057 0.0
C958 C 0.72004 0.41171 0.00216 0.0
H959 H 0.64838 0.40288 0.96079 0.0
O960 O 0.58802 0.43 0.9894 0.0
O961 O 0.65515 0.42935 0.97858 0.0
O962 O 0.60075 0.42637 0.93514 0.0
O963 O 0.66047 0.41749 0.93423 0.0
C964 C 0.74948 0.40543 0.04201 0.0
C965 C 0.77354 0.41395 0.04475 0.0
H966 H 0.81399 0.43145 0.04384 0.0
H967 H 0.80457 0.44391 0.00966 0.0
H968 H 0.65076 0.38928 0.99203 0.0
H969 H 0.69768 0.39016 0.03054 0.0
H970 H 0.75174 0.39984 0.05666 0.0
H971 H 0.79388 0.41479 0.06149 0.0
Mn972 Mn 0.64593 0.81505 0.95838 0.0
Mn973 Mn 0.57045 0.83232 0.95885 0.0
C974 C 0.63606 0.82462 0.99455 0.0
C975 C 0.66687 0.79915 0.96648 0.0
C976 C 0.65344 0.83437 0.93018 0.0
O977 O 0.60729 0.81098 0.92865 0.0
O978 O 0.55672 0.82246 0.93229 0.0
C979 C 0.49739 0.82088 0.97726 0.0
N980 N 0.52415 0.82851 0.98029 0.0
C981 C 0.48789 0.83368 0.01888 0.0
C982 C 0.45981 0.82592 0.0161 0.0
C983 C 0.4646 0.81949 0.99521 0.0
C984 C 0.5196 0.83479 0.00019 0.0
H985 H 0.5011 0.81589 0.96132 0.0
C986 C 0.57225 0.81482 0.92195 0.0
O987 O 0.68761 0.80463 0.95043 0.0
O988 O 0.63337 0.80282 0.97703 0.0
N989 N 0.58038 0.84215 0.98427 0.0
C990 C 0.61225 0.84876 0.9854 0.0
C991 C 0.61338 0.85543 0.0059 0.0
C992 C 0.58174 0.85526 0.02498 0.0
C993 C 0.5492 0.84842 0.02337 0.0
C994 C 0.5495 0.842 0.00237 0.0
H995 H 0.63683 0.84887 0.97089 0.0
O996 O 0.67201 0.82036 0.9907 0.0
O997 O 0.60739 0.82324 0.97698 0.0
O998 O 0.67002 0.82638 0.93718 0.0
O999 O 0.61645 0.83706 0.93672 0.0
C1000 C 0.51709 0.84755 0.04214 0.0
C1001 C 0.48642 0.8402 0.03988 0.0
H1002 H 0.43477 0.82475 0.03007 0.0
H1003 H 0.44319 0.81344 0.99301 0.0
H1004 H 0.6387 0.86067 0.00706 0.0
H1005 H 0.58297 0.86036 0.04091 0.0
H1006 H 0.51609 0.8524 0.05862 0.0
H1007 H 0.4623 0.83952 0.05465 0.0
Mn1008 Mn 0.40256 0.18899 0.69587 0.0
Mn1009 Mn 0.32885 0.17222 0.7105 0.0
C1010 C 0.40659 0.18043 0.73419 0.0
C1011 C 0.42466 0.20506 0.69778 0.0
C1012 C 0.3987 0.16897 0.67124 0.0
O1013 O 0.35413 0.19236 0.67145 0.0
O1014 O 0.30558 0.18147 0.68488 0.0
C1015 C 0.26587 0.1846 0.73688 0.0
N1016 N 0.2926 0.17689 0.73735 0.0
C1017 C 0.27277 0.17304 0.78121 0.0
C1018 C 0.24486 0.18091 0.78114 0.0
C1019 C 0.24143 0.18672 0.75888 0.0
C1020 C 0.29595 0.17122 0.75861 0.0
H1021 H 0.26331 0.18912 0.71987 0.0
C1022 C 0.3172 0.18865 0.6709 0.0
O1023 O 0.43981 0.19918 0.68045 0.0
O1024 O 0.39627 0.20165 0.71334 0.0
N1025 N 0.34789 0.16298 0.73554 0.0
C1026 C 0.37844 0.15611 0.73308 0.0
C1027 C 0.38712 0.14993 0.75403 0.0
C1028 C 0.36429 0.15088 0.77725 0.0
C1029 C 0.33284 0.15797 0.77928 0.0
C1030 C 0.32528 0.16385 0.75766 0.0
H1031 H 0.39628 0.15539 0.71534 0.0
O1032 O 0.44008 0.18452 0.7247 0.0
O1033 O 0.37217 0.18147 0.72088 0.0
O1034 O 0.41808 0.17699 0.67426 0.0
O1035 O 0.36487 0.1667 0.68323 0.0
C1036 C 0.30939 0.15958 0.8021 0.0
C1037 C 0.27933 0.1671 0.80305 0.0
H1038 H 0.22626 0.18263 0.79816 0.0
H1039 H 0.22012 0.19283 0.75872 0.0
H1040 H 0.41153 0.1445 0.75234 0.0
H1041 H 0.37142 0.14618 0.79347 0.0
H1042 H 0.31468 0.15517 0.81916 0.0
H1043 H 0.26195 0.16836 0.82083 0.0
Mn1044 Mn 0.36799 0.56215 0.71297 0.0
Mn1045 Mn 0.44607 0.57812 0.7254 0.0
C1046 C 0.37147 0.56994 0.75257 0.0
C1047 C 0.34279 0.54629 0.71436 0.0
C1048 C 0.36957 0.58292 0.69241 0.0
O1049 O 0.41139 0.55889 0.68517 0.0
O1050 O 0.4622 0.56959 0.69609 0.0
C1051 C 0.51178 0.56449 0.74359 0.0
N1052 N 0.48714 0.5724 0.74779 0.0
C1053 C 0.51851 0.57504 0.78971 0.0
C1054 C 0.54439 0.56695 0.78577 0.0
C1055 C 0.54094 0.56164 0.76262 0.0
C1056 C 0.49024 0.57757 0.76998 0.0
H1057 H 0.50915 0.56037 0.72586 0.0
C1058 C 0.44783 0.56267 0.68213 0.0
O1059 O 0.32628 0.55264 0.69876 0.0
O1060 O 0.37451 0.5491 0.72827 0.0
N1061 N 0.43465 0.58672 0.75361 0.0
C1062 C 0.40538 0.59392 0.75514 0.0
C1063 C 0.40393 0.59979 0.77733 0.0
C1064 C 0.4326 0.59821 0.79767 0.0
C1065 C 0.46222 0.59072 0.79575 0.0
C1066 C 0.46256 0.58518 0.773 0.0
H1067 H 0.38321 0.59515 0.73961 0.0
O1068 O 0.33603 0.56635 0.74444 0.0
O1069 O 0.40368 0.56888 0.73728 0.0
O1070 O 0.35115 0.57471 0.69396 0.0
O1071 O 0.40512 0.58471 0.70301 0.0
C1072 C 0.49097 0.58842 0.81566 0.0
C1073 C 0.51903 0.58057 0.81267 0.0
H1074 H 0.56673 0.56469 0.80047 0.0
H1075 H 0.56067 0.55536 0.75949 0.0
H1076 H 0.38079 0.60552 0.77875 0.0
H1077 H 0.43142 0.60278 0.81471 0.0
H1078 H 0.49133 0.59255 0.83352 0.0
H1079 H 0.54054 0.57878 0.82828 0.0
Mn1080 Mn 0.38551 0.55746 0.06495 0.0
Mn1081 Mn 0.31155 0.57452 0.05386 0.0
C1082 C 0.38646 0.56624 0.02699 0.0
C1083 C 0.40662 0.54136 0.06135 0.0
C1084 C 0.38587 0.57742 0.09014 0.0
O1085 O 0.33949 0.55408 0.09102 0.0
O1086 O 0.29032 0.56518 0.08 0.0
C1087 C 0.24535 0.56245 0.02949 0.0
N1088 N 0.27234 0.57011 0.0283 0.0
C1089 C 0.2485 0.57421 0.98537 0.0
C1090 C 0.22025 0.56641 0.98621 0.0
C1091 C 0.2187 0.56051 0.00836 0.0
C1092 C 0.27392 0.57587 0.00714 0.0
H1093 H 0.24426 0.55785 0.04639 0.0
C1094 C 0.30288 0.55786 0.09314 0.0
O1095 O 0.42378 0.54708 0.07837 0.0
O1096 O 0.37665 0.54493 0.04723 0.0
N1097 N 0.32849 0.58386 0.02848 0.0
C1098 C 0.3596 0.59064 0.03002 0.0
C1099 C 0.36654 0.59689 0.00898 0.0
C1100 C 0.34143 0.59611 0.98663 0.0
C1101 C 0.30944 0.58912 0.98556 0.0
C1102 C 0.30368 0.58315 0.00723 0.0
H1103 H 0.37921 0.59123 0.04707 0.0
O1104 O 0.42045 0.56197 0.03508 0.0
O1105 O 0.35314 0.56521 0.04136 0.0
O1106 O 0.40412 0.56931 0.08623 0.0
O1107 O 0.3508 0.57981 0.07977 0.0
C1108 C 0.28372 0.58767 0.9636 0.0
C1109 C 0.25323 0.58024 0.96352 0.0
H1110 H 0.19995 0.56482 0.96985 0.0
H1111 H 0.19715 0.55444 0.00909 0.0
H1112 H 0.39137 0.60225 0.00993 0.0
H1113 H 0.34722 0.60087 0.97032 0.0
H1114 H 0.28756 0.59215 0.94652 0.0
H1115 H 0.23409 0.57911 0.94638 0.0
Mn1116 Mn 0.35974 0.1894 0.04356 0.0
Mn1117 Mn 0.43765 0.17276 0.04034 0.0
C1118 C 0.36839 0.1801 0.00674 0.0
C1119 C 0.33636 0.20521 0.03651 0.0
C1120 C 0.35717 0.16989 0.07118 0.0
O1121 O 0.39984 0.19363 0.07242 0.0
O1122 O 0.45184 0.18262 0.06678 0.0
C1123 C 0.50763 0.18484 0.02037 0.0
N1124 N 0.48174 0.17703 0.01779 0.0
C1125 C 0.51603 0.17227 0.97814 0.0
C1126 C 0.54317 0.18024 0.98043 0.0
C1127 C 0.53893 0.18655 0.00163 0.0
C1128 C 0.48579 0.17086 -0.00241 0.0
H1129 H 0.50438 0.18973 0.03657 0.0
C1130 C 0.43601 0.19008 0.07789 0.0
O1131 O 0.3173 0.19954 0.05287 0.0
O1132 O 0.36953 0.20178 0.02506 0.0
N1133 N 0.42734 0.16296 0.0149 0.0
C1134 C 0.39648 0.1561 0.01446 0.0
C1135 C 0.39499 0.14947 0.99386 0.0
C1136 C 0.42524 0.14995 0.97398 0.0
C1137 C 0.45673 0.15707 0.97487 0.0
C1138 C 0.45687 0.16343 0.99601 0.0
H1139 H 0.37301 0.15573 0.02961 0.0
O1140 O 0.33216 0.18407 0.01172 0.0
O1141 O 0.39803 0.18161 0.02361 0.0
O1142 O 0.33878 0.17776 0.06494 0.0
O1143 O 0.39408 0.16757 0.06353 0.0
C1144 C 0.48738 0.15824 0.95532 0.0
C1145 C 0.51704 0.16583 0.95697 0.0
H1146 H 0.56706 0.18164 0.96588 0.0
H1147 H 0.55964 0.19273 0.00348 0.0
H1148 H 0.37047 0.14402 0.99325 0.0
H1149 H 0.42375 0.14487 0.95801 0.0
H1150 H 0.48801 0.15344 0.93872 0.0
H1151 H 0.54001 0.16675 0.94161 0.0
H1152 H 0.15828 0.41046 0.39695 0.0
H1153 H 0.13375 0.39559 0.37627 0.0
H1154 H 0.00548 0.40256 0.3971 0.0
H1155 H 0.02999 0.41766 0.41744 0.0
H1156 H 0.04087 0.38389 0.41614 0.0
H1157 H 0.06084 0.38895 0.31023 0.0
H1158 H 0.10406 0.39352 0.32922 0.0
H1159 H 0.05271 0.39893 0.33236 0.0
C1160 C 0.1247 0.40899 0.3963 0.0
C1161 C 0.09596 0.41522 0.40855 0.0
C1162 C 0.11071 0.4005 0.38449 0.0
C1163 C 0.0678 0.39801 0.38503 0.0
C1164 C 0.03866 0.40442 0.39626 0.0
H1165 H 0.03739 0.34019 0.31663 0.0
H1166 H 0.01072 0.35583 0.33245 0.0
C1167 C 0.05263 0.41305 0.40768 0.0
C1168 C 0.0552 0.38816 0.37692 0.0
H1169 H 0.06484 0.37256 0.32606 0.0
C1170 C 0.0448 0.38144 0.3963 0.0
C1171 C 0.06008 0.38499 0.35106 0.0
C1172 C 0.06967 0.39199 0.32943 0.0
C1173 C 0.04293 0.3715 0.39084 0.0
C1174 C 0.05171 0.36825 0.36542 0.0
C1175 C 0.05825 0.37505 0.3456 0.0
C1176 C 0.06159 0.35799 0.35984 0.0
C1177 C 0.03391 0.3645 0.41255 0.0
C1178 C 0.09832 0.35394 0.37049 0.0
C1179 C 0.11372 0.34514 0.36132 0.0
C1180 C 0.09235 0.34015 0.34159 0.0
C1181 C 0.05389 0.34382 0.33226 0.0
C1182 C 0.03884 0.35276 0.34112 0.0
H1183 H 0.01544 0.36799 0.4283 0.0
H1184 H 0.01631 0.35809 0.40537 0.0
H1185 H 0.06423 0.36197 0.42094 0.0
H1186 H 0.11679 0.35793 0.38458 0.0
H1187 H 0.14374 0.34251 0.36851 0.0
H1188 H 0.24865 0.91539 0.33242 0.0
H1189 H 0.27962 0.90018 0.34817 0.0
H1190 H 0.15939 0.89213 0.38097 0.0
H1191 H 0.12867 0.90721 0.36561 0.0
H1192 H 0.23007 0.8862 0.41109 0.0
H1193 H 0.24331 0.87589 0.30677 0.0
H1194 H 0.27064 0.88651 0.31794 0.0
H1195 H 0.21402 0.88643 0.31679 0.0
C1196 C 0.22936 0.91052 0.34385 0.0
C1197 C 0.18617 0.91242 0.34763 0.0
C1198 C 0.24696 0.9018 0.35259 0.0
C1199 C 0.22156 0.89495 0.3653 0.0
C1200 C 0.17954 0.89729 0.37114 0.0
H1201 H 0.13241 0.84172 0.37139 0.0
H1202 H 0.16548 0.85694 0.35904 0.0
C1203 C 0.16198 0.90591 0.36233 0.0
C1204 C 0.23576 0.88487 0.3697 0.0
H1205 H 0.24291 0.86342 0.33723 0.0
C1206 C 0.23443 0.88121 0.39507 0.0
C1207 C 0.24122 0.87841 0.34866 0.0
C1208 C 0.24228 0.88193 0.32095 0.0
C1209 C 0.23428 0.87122 0.3998 0.0
C1210 C 0.23617 0.86474 0.37856 0.0
C1211 C 0.24168 0.86842 0.35343 0.0
C1212 C 0.22236 0.85455 0.38141 0.0
C1213 C 0.22778 0.86767 0.42722 0.0
C1214 C 0.24442 0.84789 0.39692 0.0
C1215 C 0.22551 0.83909 0.40388 0.0
C1216 C 0.18434 0.83693 0.39549 0.0
C1217 C 0.16414 0.84323 0.37813 0.0
C1218 C 0.18305 0.85193 0.37107 0.0
H1219 H 0.22369 0.87371 0.44122 0.0
H1220 H 0.19949 0.86294 0.42824 0.0
H1221 H 0.2555 0.86334 0.43335 0.0
H1222 H 0.27502 0.84975 0.40485 0.0
H1223 H 0.24155 0.83439 0.41748 0.0
H1224 H 0.02852 0.91451 0.92589 0.0
H1225 H 0.00112 0.89968 0.90533 0.0
H1226 H 0.12854 0.89002 0.8916 0.0
H1227 H 0.15595 0.90463 0.91166 0.0
H1228 H 0.02255 0.89075 0.85252 0.0
H1229 H 0.06822 0.86838 0.93691 0.0
H1230 H 0.05912 0.88127 0.93918 0.0
H1231 H 0.10879 0.87674 0.92739 0.0
C1232 C 0.05058 0.9093 0.918 0.0
C1233 C 0.09442 0.9107 0.92064 0.0
C1234 C 0.03489 0.90082 0.90647 0.0
C1235 C 0.06291 0.89369 0.89759 0.0
C1236 C 0.10646 0.89536 0.89887 0.0
H1237 H 0.12669 0.85319 0.79641 0.0
H1238 H 0.09856 0.86678 0.82021 0.0
C1239 C 0.12204 0.90374 0.91026 0.0
C1240 C 0.04807 0.88433 0.88717 0.0
H1241 H 0.06758 0.86027 0.89514 0.0
C1242 C 0.03097 0.88405 0.86212 0.0
C1243 C 0.05813 0.87558 0.89994 0.0
C1244 C 0.07418 0.87547 0.92747 0.0
C1245 C 0.02833 0.87529 0.84843 0.0
C1246 C 0.04393 0.86671 0.85998 0.0
C1247 C 0.05614 0.86685 0.88612 0.0
C1248 C 0.05645 0.85826 0.84406 0.0
C1249 C 0.01147 0.8754 0.82108 0.0
C1250 C 0.04291 0.84882 0.84992 0.0
C1251 C 0.05927 0.84088 0.8362 0.0
C1252 C 0.09003 0.84228 0.81684 0.0
C1253 C 0.10311 0.85177 0.81113 0.0
C1254 C 0.08659 0.85962 0.82454 0.0
H1255 H 0.98656 0.881 0.81887 0.0
H1256 H 0.03745 0.87724 0.80751 0.0
H1257 H 0.99827 0.86826 0.81549 0.0
H1258 H 0.02018 0.84761 0.86527 0.0
H1259 H 0.04857 0.83367 0.84112 0.0
H1260 H 0.2085 0.41425 0.8123 0.0
H1261 H 0.23882 0.39899 0.82848 0.0
H1262 H 0.12599 0.3939 0.87326 0.0
H1263 H 0.09578 0.40896 0.8572 0.0
H1264 H 0.20666 0.38872 0.89852 0.0
H1265 H 0.18348 0.37332 0.79951 0.0
H1266 H 0.2137 0.38426 0.80346 0.0
H1267 H 0.15787 0.38441 0.80914 0.0
C1268 C 0.19087 0.41 0.82623 0.0
C1269 C 0.14976 0.41273 0.83344 0.0
C1270 C 0.20804 0.40127 0.83527 0.0
C1271 C 0.1844 0.39529 0.85184 0.0
C1272 C 0.14473 0.39841 0.8605 0.0
H1273 H 0.09446 0.34362 0.89224 0.0
H1274 H 0.12094 0.35815 0.87094 0.0
C1275 C 0.12748 0.40701 0.85128 0.0
C1276 C 0.19773 0.3853 0.85822 0.0
H1277 H 0.18987 0.3624 0.834 0.0
C1278 C 0.20461 0.38294 0.88434 0.0
C1279 C 0.19466 0.37782 0.83961 0.0
C1280 C 0.18694 0.37999 0.81132 0.0
C1281 C 0.205 0.37328 0.89267 0.0
C1282 C 0.19848 0.36581 0.87433 0.0
C1283 C 0.19513 0.36815 0.84793 0.0
C1284 C 0.18577 0.356 0.8828 0.0
C1285 C 0.20839 0.37114 0.92131 0.0
C1286 C 0.21388 0.34974 0.89554 0.0
C1287 C 0.19876 0.34132 0.90756 0.0
C1288 C 0.15537 0.33917 0.90717 0.0
C1289 C 0.12802 0.34512 0.89286 0.0
C1290 C 0.14313 0.35341 0.88067 0.0
H1291 H 0.21123 0.37783 0.93314 0.0
H1292 H 0.18018 0.36706 0.92793 0.0
H1293 H 0.23653 0.36657 0.92497 0.0
H1294 H 0.24695 0.35161 0.89728 0.0
H1295 H 0.22039 0.3369 0.9187 0.0
H1296 H 0.84514 0.59665 0.59608 0.0
H1297 H 0.87542 0.61091 0.61661 0.0
H1298 H 0.99645 0.60444 0.58247 0.0
H1299 H 0.96604 0.59001 0.56169 0.0
H1300 H 0.94887 0.61456 0.64972 0.0
H1301 H 0.95847 0.63115 0.55124 0.0
H1302 H 0.92774 0.62037 0.55692 0.0
H1303 H 0.98429 0.61977 0.55729 0.0
C1304 C 0.87847 0.59811 0.59344 0.0
C1305 C 0.90317 0.59227 0.57715 0.0
C1306 C 0.89577 0.60626 0.60524 0.0
C1307 C 0.938 0.60879 0.6008 0.0
C1308 C 0.96369 0.60263 0.58597 0.0
H1309 H 0.96509 0.66591 0.6763 0.0
H1310 H 0.99592 0.65122 0.657 0.0
C1311 C 0.94639 0.59436 0.5743 0.0
C1312 C 0.95246 0.61846 0.60942 0.0
H1313 H 0.9578 0.64163 0.58686 0.0
C1314 C 0.95248 0.62048 0.63608 0.0
C1315 C 0.95691 0.62613 0.59147 0.0
C1316 C 0.95681 0.62433 0.5626 0.0
C1317 C 0.95292 0.63004 0.64522 0.0
C1318 C 0.95358 0.63774 0.62715 0.0
C1319 C 0.95754 0.63569 0.60061 0.0
C1320 C 0.94007 0.64758 0.63488 0.0
C1321 C 0.94843 0.63186 0.67395 0.0
C1322 C 0.89941 0.6506 0.62784 0.0
C1323 C 0.88191 0.65888 0.63879 0.0
C1324 C 0.9049 0.66438 0.65678 0.0
C1325 C 0.94692 0.66183 0.66227 0.0
C1326 C 0.96439 0.65342 0.65145 0.0
H1327 H 0.94643 0.62505 0.68529 0.0
H1328 H 0.97599 0.63606 0.68101 0.0
H1329 H 0.91963 0.63621 0.67779 0.0
H1330 H 0.88011 0.6462 0.61511 0.0
H1331 H 0.84947 0.66071 0.63425 0.0
H1332 H 0.78134 0.08605 0.68058 0.0
H1333 H 0.74923 0.10063 0.66178 0.0
H1334 H 0.86512 0.10664 0.62094 0.0
H1335 H 0.89724 0.09224 0.63976 0.0
H1336 H 0.78538 0.11892 0.67256 0.0
H1337 H 0.7741 0.1132 0.5668 0.0
H1338 H 0.77627 0.1033 0.58969 0.0
H1339 H 0.82401 0.10922 0.57932 0.0
C1340 C 0.79932 0.0903 0.66682 0.0
C1341 C 0.84174 0.08803 0.66156 0.0
C1342 C 0.78104 0.09864 0.65622 0.0
C1343 C 0.80465 0.10466 0.63976 0.0
C1344 C 0.84603 0.10201 0.63317 0.0
H1345 H 0.88224 0.15896 0.61729 0.0
H1346 H 0.85502 0.14388 0.63528 0.0
C1347 C 0.86445 0.0938 0.64403 0.0
C1348 C 0.78947 0.11443 0.6326 0.0
H1349 H 0.78719 0.12979 0.58091 0.0
C1350 C 0.78431 0.12126 0.65249 0.0
C1351 C 0.7875 0.11748 0.60647 0.0
C1352 C 0.79033 0.11038 0.58435 0.0
C1353 C 0.78184 0.13118 0.64694 0.0
C1354 C 0.78483 0.1343 0.6209 0.0
C1355 C 0.7853 0.1274 0.60092 0.0
C1356 C 0.79588 0.14441 0.61427 0.0
C1357 C 0.77877 0.13828 0.66905 0.0
C1358 C 0.77127 0.14984 0.59689 0.0
C1359 C 0.78665 0.15858 0.58686 0.0
C1360 C 0.82719 0.16183 0.59367 0.0
C1361 C 0.8507 0.15664 0.61202 0.0
C1362 C 0.83509 0.14804 0.62235 0.0
H1363 H 0.76234 0.13502 0.68597 0.0
H1364 H 0.81105 0.14033 0.67535 0.0
H1365 H 0.76177 0.14494 0.66311 0.0
H1366 H 0.74119 0.14708 0.59017 0.0
H1367 H 0.76837 0.16239 0.57233 0.0
H1368 H 0.86126 0.15997 0.13909 0.0
H1369 H 0.88834 0.145 0.12047 0.0
H1370 H 0.00644 0.14915 0.16059 0.0
H1371 H 0.97917 0.1643 0.17937 0.0
H1372 H 0.96278 0.13914 0.09167 0.0
H1373 H 0.95355 0.12397 0.19179 0.0
H1374 H 0.92917 0.13536 0.18368 0.0
H1375 H 0.98553 0.13452 0.18611 0.0
C1376 C 0.89351 0.15786 0.14326 0.0
C1377 C 0.91814 0.16325 0.16065 0.0
C1378 C 0.90896 0.14931 0.13263 0.0
C1379 C 0.94915 0.1459 0.13943 0.0
C1380 C 0.9752 0.15164 0.15527 0.0
H1381 H 0.96911 0.08732 0.07116 0.0
H1382 H 0.99988 0.10206 0.09011 0.0
C1383 C 0.9598 0.16032 0.16576 0.0
C1384 C 0.96035 0.13583 0.13239 0.0
H1385 H 0.95473 0.113 0.15733 0.0
C1386 C 0.96258 0.1334 0.10601 0.0
C1387 C 0.95967 0.12839 0.15121 0.0
C1388 C 0.95672 0.13061 0.17982 0.0
C1389 C 0.96065 0.12372 0.09784 0.0
C1390 C 0.95671 0.11631 0.11662 0.0
C1391 C 0.95801 0.1187 0.14305 0.0
C1392 C 0.94222 0.1065 0.10921 0.0
C1393 C 0.95889 0.12154 0.06917 0.0
C1394 C 0.90039 0.1039 0.11476 0.0
C1395 C 0.8829 0.09557 0.10403 0.0
C1396 C 0.907 0.0896 0.08771 0.0
C1397 C 0.94993 0.09176 0.08383 0.0
C1398 C 0.96741 0.10021 0.09444 0.0
H1399 H 0.95949 0.1282 0.05715 0.0
H1400 H 0.98632 0.11698 0.06368 0.0
H1401 H 0.92976 0.11742 0.06453 0.0
H1402 H 0.88042 0.10865 0.12612 0.0
H1403 H 0.84978 0.09407 0.10741 0.0
H1404 H 0.88001 0.59156 0.12841 0.0
H1405 H 0.85291 0.60688 0.11195 0.0
H1406 H 0.74076 0.60355 0.1585 0.0
H1407 H 0.7679 0.5881 0.17512 0.0
H1408 H 0.77515 0.61435 0.08875 0.0
H1409 H 0.80661 0.62718 0.18954 0.0
H1410 H 0.82614 0.61569 0.17809 0.0
H1411 H 0.771 0.61718 0.18492 0.0
C1412 C 0.84882 0.5939 0.13436 0.0
C1413 C 0.82615 0.58868 0.15312 0.0
C1414 C 0.83337 0.60266 0.12497 0.0
C1415 C 0.7952 0.60641 0.13436 0.0
C1416 C 0.77047 0.60079 0.1512 0.0
H1417 H 0.7738 0.66675 0.07775 0.0
H1418 H 0.7444 0.65173 0.09601 0.0
C1419 C 0.7858 0.59193 0.16046 0.0
C1420 C 0.78561 0.61673 0.12945 0.0
H1421 H 0.80013 0.6389 0.15719 0.0
C1422 C 0.77912 0.61976 0.10379 0.0
C1423 C 0.79132 0.62373 0.14917 0.0
C1424 C 0.79934 0.62086 0.177 0.0
C1425 C 0.78127 0.62958 0.09701 0.0
C1426 C 0.78991 0.63652 0.11648 0.0
C1427 C 0.79316 0.63356 0.14241 0.0
C1428 C 0.80461 0.64636 0.10961 0.0
C1429 C 0.77806 0.6324 0.0688 0.0
C1430 C 0.84766 0.64847 0.11233 0.0
C1431 C 0.86435 0.65694 0.10198 0.0
C1432 C 0.83823 0.66355 0.08894 0.0
C1433 C 0.79451 0.66181 0.08794 0.0
C1434 C 0.77779 0.65322 0.09812 0.0
H1435 H 0.77375 0.62604 0.05592 0.0
H1436 H 0.75083 0.63734 0.06606 0.0
H1437 H 0.80699 0.63633 0.06271 0.0
H1438 H 0.86888 0.64327 0.12115 0.0
H1439 H 0.89814 0.65811 0.10304 0.0
H1440 H 0.5432 0.41185 0.9316 0.0
H1441 H 0.5192 0.39624 0.91415 0.0
H1442 H 0.63377 0.39401 0.86937 0.0
H1443 H 0.65819 0.4094 0.88713 0.0
H1444 H 0.50905 0.38722 0.86354 0.0
H1445 H 0.63808 0.37112 0.9213 0.0
H1446 H 0.62018 0.38339 0.92601 0.0
H1447 H 0.65698 0.38058 0.90049 0.0
C1448 C 0.56247 0.40818 0.9173 0.0
C1449 C 0.60264 0.41177 0.91077 0.0
C1450 C 0.54888 0.39925 0.90753 0.0
C1451 C 0.57527 0.39389 0.89105 0.0
C1452 C 0.61339 0.39796 0.88253 0.0
H1453 H 0.57935 0.35016 0.78484 0.0
H1454 H 0.55671 0.36376 0.81116 0.0
C1455 C 0.62716 0.40677 0.89249 0.0
C1456 C 0.56576 0.3837 0.88454 0.0
H1457 H 0.61195 0.36148 0.88584 0.0
C1458 C 0.53098 0.38152 0.86878 0.0
C1459 C 0.59329 0.37619 0.89233 0.0
C1460 C 0.62893 0.37791 0.91122 0.0
C1461 C 0.52548 0.37218 0.85853 0.0
C1462 C 0.55625 0.36498 0.86364 0.0
C1463 C 0.58857 0.36697 0.88149 0.0
C1464 C 0.56018 0.35606 0.84772 0.0
C1465 C 0.48736 0.37023 0.84183 0.0
C1466 C 0.56953 0.34707 0.85926 0.0
C1467 C 0.58385 0.33932 0.84409 0.0
C1468 C 0.58895 0.3405 0.81726 0.0
C1469 C 0.57641 0.34918 0.80557 0.0
C1470 C 0.56254 0.35691 0.82063 0.0
H1471 H 0.45949 0.37425 0.84923 0.0
H1472 H 0.49357 0.37283 0.82183 0.0
H1473 H 0.47952 0.3624 0.8411 0.0
H1474 H 0.56821 0.34624 0.88014 0.0
H1475 H 0.59355 0.33267 0.85346 0.0
H1476 H 0.73421 0.84067 0.93868 0.0
H1477 H 0.76669 0.85521 0.91946 0.0
H1478 H 0.65909 0.85841 0.86891 0.0
H1479 H 0.62671 0.8441 0.8881 0.0
H1480 H 0.74417 0.86281 0.84607 0.0
H1481 H 0.70655 0.88171 0.93891 0.0
H1482 H 0.73733 0.87074 0.93895 0.0
H1483 H 0.68211 0.87025 0.93142 0.0
C1484 C 0.71839 0.84432 0.92283 0.0
C1485 C 0.67806 0.84132 0.91478 0.0
C1486 C 0.73676 0.85263 0.91204 0.0
C1487 C 0.71507 0.8579 0.89294 0.0
C1488 C 0.67637 0.85443 0.88358 0.0
H1489 H 0.61433 0.89986 0.8169 0.0
H1490 H 0.651 0.88631 0.83612 0.0
C1491 C 0.65789 0.84626 0.89453 0.0
C1492 C 0.72866 0.86765 0.88459 0.0
H1493 H 0.70926 0.89113 0.90107 0.0
C1494 C 0.73841 0.86905 0.85833 0.0
C1495 C 0.72138 0.87578 0.90066 0.0
C1496 C 0.71125 0.87464 0.92909 0.0
C1497 C 0.73623 0.87827 0.84712 0.0
C1498 C 0.7234 0.8862 0.86249 0.0
C1499 C 0.71895 0.88501 0.88935 0.0
C1500 C 0.70356 0.89475 0.85035 0.0
C1501 C 0.74356 0.87932 0.81837 0.0
C1502 C 0.72056 0.90409 0.85253 0.0
C1503 C 0.6995 0.91201 0.84131 0.0
C1504 C 0.66084 0.91065 0.82826 0.0
C1505 C 0.64393 0.90126 0.82672 0.0
C1506 C 0.66505 0.89344 0.83755 0.0
H1507 H 0.76581 0.87373 0.81114 0.0
H1508 H 0.71313 0.87837 0.808 0.0
H1509 H 0.75624 0.8866 0.81361 0.0
H1510 H 0.75004 0.90524 0.86272 0.0
H1511 H 0.71336 0.91914 0.84289 0.0
H1512 H 0.51671 0.83669 0.3268 0.0
H1513 H 0.48945 0.85218 0.34324 0.0
H1514 H 0.60622 0.85683 0.38439 0.0
H1515 H 0.63345 0.8415 0.36793 0.0
H1516 H 0.52906 0.86406 0.41024 0.0
H1517 H 0.55008 0.87581 0.30748 0.0
H1518 H 0.5164 0.86564 0.31436 0.0
H1519 H 0.57228 0.86462 0.31916 0.0
C1520 C 0.53563 0.84082 0.34035 0.0
C1521 C 0.57711 0.83795 0.34619 0.0
C1522 C 0.52023 0.8497 0.34949 0.0
C1523 C 0.54609 0.85569 0.36471 0.0
C1524 C 0.58577 0.85231 0.37268 0.0
H1525 H 0.64916 0.90759 0.3907 0.0
H1526 H 0.61938 0.89249 0.37453 0.0
C1527 C 0.60128 0.84355 0.36334 0.0
C1528 C 0.53587 0.866 0.36908 0.0
H1529 H 0.54701 0.88788 0.33915 0.0
C1530 C 0.53139 0.86931 0.39466 0.0
C1531 C 0.53942 0.87279 0.34864 0.0
C1532 C 0.54496 0.86961 0.32082 0.0
C1533 C 0.53355 0.87921 0.40055 0.0
C1534 C 0.54032 0.88593 0.38029 0.0
C1535 C 0.54149 0.88269 0.35454 0.0
C1536 C 0.55533 0.89585 0.38596 0.0
C1537 C 0.53242 0.88236 0.42856 0.0
C1538 C 0.52877 0.90291 0.39675 0.0
C1539 C 0.54577 0.91166 0.40576 0.0
C1540 C 0.5895 0.91333 0.40433 0.0
C1541 C 0.61537 0.90648 0.39205 0.0
C1542 C 0.59839 0.89785 0.38281 0.0
H1543 H 0.52826 0.87618 0.44206 0.0
H1544 H 0.56216 0.88618 0.43359 0.0
H1545 H 0.50598 0.88751 0.43153 0.0
H1546 H 0.4954 0.90148 0.39925 0.0
H1547 H 0.52526 0.91679 0.41542 0.0
H1548 H 0.61239 0.3408 0.37636 0.0
H1549 H 0.64594 0.35538 0.35959 0.0
H1550 H 0.7557 0.34981 0.40676 0.0
H1551 H 0.72221 0.33506 0.4235 0.0
H1552 H 0.71575 0.36764 0.41657 0.0
H1553 H 0.74363 0.3632 0.31154 0.0
H1554 H 0.69256 0.35877 0.32079 0.0
H1555 H 0.73925 0.35303 0.33344 0.0
C1556 C 0.64435 0.34247 0.38237 0.0
C1557 C 0.66474 0.3368 0.40115 0.0
C1558 C 0.6636 0.35079 0.37271 0.0
C1559 C 0.70347 0.35364 0.38178 0.0
C1560 C 0.72512 0.34767 0.39932 0.0
H1561 H 0.74079 0.41199 0.31978 0.0
H1562 H 0.76785 0.39692 0.33885 0.0
C1563 C 0.70607 0.33922 0.40872 0.0
C1564 C 0.71828 0.36358 0.37622 0.0
H1565 H 0.72605 0.37953 0.32606 0.0
C1566 C 0.71949 0.37022 0.39683 0.0
C1567 C 0.7237 0.36694 0.35055 0.0
C1568 C 0.72517 0.36008 0.32785 0.0
C1569 C 0.72136 0.38021 0.39219 0.0
C1570 C 0.72182 0.3836 0.36634 0.0
C1571 C 0.72531 0.37693 0.3459 0.0
C1572 C 0.71042 0.39369 0.35984 0.0
C1573 C 0.72012 0.38706 0.41491 0.0
C1574 C 0.66969 0.39698 0.36593 0.0
C1575 C 0.65418 0.40546 0.35491 0.0
C1576 C 0.67925 0.41088 0.33783 0.0
C1577 C 0.72118 0.40802 0.33331 0.0
C1578 C 0.73654 0.3994 0.34403 0.0
H1579 H 0.73456 0.38373 0.4324 0.0
H1580 H 0.73685 0.39392 0.41044 0.0
H1581 H 0.68676 0.38879 0.41957 0.0
H1582 H 0.64867 0.39259 0.37762 0.0
H1583 H 0.6216 0.40747 0.35842 0.0
H1584 H 0.35003 0.59056 0.12207 0.0
H1585 H 0.38102 0.60578 0.13644 0.0
H1586 H 0.50129 0.59724 0.10462 0.0
H1587 H 0.47012 0.58187 0.09007 0.0
H1588 H 0.45351 0.61156 0.16669 0.0
H1589 H 0.4639 0.62151 0.06202 0.0
H1590 H 0.43373 0.61119 0.07275 0.0
H1591 H 0.49031 0.61074 0.07301 0.0
C1592 C 0.38341 0.59179 0.11886 0.0
C1593 C 0.40765 0.58507 0.10489 0.0
C1594 C 0.4011 0.60049 0.12706 0.0
C1595 C 0.44324 0.6027 0.12122 0.0
C1596 C 0.46857 0.59569 0.10908 0.0
H1597 H 0.48218 0.66279 0.17274 0.0
H1598 H 0.50901 0.64704 0.1581 0.0
C1599 C 0.45088 0.58689 0.10104 0.0
C1600 C 0.45793 0.61276 0.12522 0.0
H1601 H 0.46707 0.63408 0.09226 0.0
C1602 C 0.45797 0.61648 0.15052 0.0
C1603 C 0.46326 0.61913 0.10397 0.0
C1604 C 0.4627 0.61551 0.07634 0.0
C1605 C 0.45984 0.62648 0.15508 0.0
C1606 C 0.4623 0.63289 0.13372 0.0
C1607 C 0.46559 0.62913 0.10854 0.0
C1608 C 0.45239 0.64329 0.13689 0.0
C1609 C 0.45524 0.63014 0.18254 0.0
C1610 C 0.41301 0.64664 0.12831 0.0
C1611 C 0.39777 0.65558 0.13654 0.0
C1612 C 0.42184 0.66137 0.1533 0.0
C1613 C 0.46318 0.6585 0.15959 0.0
C1614 C 0.47834 0.64947 0.15149 0.0
H1615 H 0.44996 0.62419 0.19666 0.0
H1616 H 0.48431 0.63407 0.18827 0.0
H1617 H 0.42838 0.63528 0.18388 0.0
H1618 H 0.39252 0.64199 0.11699 0.0
H1619 H 0.3658 0.65762 0.13145 0.0
H1620 H 0.38924 0.15909 0.10995 0.0
H1621 H 0.36037 0.14404 0.12692 0.0
H1622 H 0.24632 0.14847 0.08277 0.0
H1623 H 0.27548 0.16369 0.06557 0.0
H1624 H 0.28443 0.13795 0.15274 0.0
H1625 H 0.30078 0.12353 0.05217 0.0
H1626 H 0.3242 0.1349 0.06144 0.0
H1627 H 0.26806 0.13397 0.05758 0.0
C1628 C 0.35746 0.15702 0.10451 0.0
C1629 C 0.33461 0.1625 0.08642 0.0
C1630 C 0.34096 0.14842 0.11421 0.0
C1631 C 0.30149 0.14507 0.10581 0.0
C1632 C 0.27703 0.1509 0.0893 0.0
H1633 H 0.28339 0.08632 0.17218 0.0
H1634 H 0.2512 0.10077 0.15266 0.0
C1635 C 0.29348 0.15962 0.07971 0.0
C1636 C 0.28972 0.13495 0.11196 0.0
H1637 H 0.29801 0.11232 0.086 0.0
C1638 C 0.28582 0.13232 0.13813 0.0
C1639 C 0.29187 0.12764 0.09278 0.0
C1640 C 0.29659 0.13007 0.06439 0.0
C1641 C 0.28788 0.12259 0.14585 0.0
C1642 C 0.2935 0.11533 0.1268 0.0
C1643 C 0.2935 0.11791 0.10049 0.0
C1644 C 0.30873 0.10556 0.13403 0.0
C1645 C 0.28819 0.12023 0.17444 0.0
C1646 C 0.35092 0.10321 0.12876 0.0
C1647 C 0.36921 0.09502 0.13975 0.0
C1648 C 0.34557 0.08896 0.15609 0.0
C1649 C 0.30227 0.09083 0.15952 0.0
C1650 C 0.28396 0.09912 0.14861 0.0
H1651 H 0.28673 0.12682 0.18675 0.0
H1652 H 0.26063 0.11561 0.17918 0.0
H1653 H 0.31721 0.11614 0.17951 0.0
H1654 H 0.37058 0.10806 0.11753 0.0
H1655 H 0.40258 0.09373 0.13669 0.0
H1656 H 0.33573 0.09328 0.59971 0.0
H1657 H 0.36877 0.10759 0.61848 0.0
H1658 H 0.48784 0.09961 0.58407 0.0
H1659 H 0.4548 0.08514 0.56518 0.0
H1660 H 0.44622 0.11105 0.65031 0.0
H1661 H 0.44964 0.12616 0.54997 0.0
H1662 H 0.41729 0.11583 0.55789 0.0
H1663 H 0.47356 0.11458 0.55634 0.0
C1664 C 0.36923 0.09441 0.59673 0.0
C1665 C 0.39264 0.08814 0.58087 0.0
C1666 C 0.38808 0.10258 0.60749 0.0
C1667 C 0.43056 0.10469 0.6024 0.0
C1668 C 0.45493 0.0981 0.58809 0.0
H1669 H 0.48022 0.16247 0.66972 0.0
H1670 H 0.50405 0.14712 0.65036 0.0
C1671 C 0.4361 0.08982 0.5775 0.0
C1672 C 0.44677 0.11436 0.60958 0.0
H1673 H 0.45449 0.13713 0.58445 0.0
C1674 C 0.44965 0.11673 0.63596 0.0
C1675 C 0.45087 0.12173 0.5907 0.0
C1676 C 0.44764 0.11953 0.56209 0.0
C1677 C 0.45311 0.12639 0.64404 0.0
C1678 C 0.45372 0.13382 0.62518 0.0
C1679 C 0.45434 0.13139 0.59879 0.0
C1680 C 0.44387 0.14392 0.63245 0.0
C1681 C 0.45209 0.12866 0.67267 0.0
C1682 C 0.40294 0.14734 0.62775 0.0
C1683 C 0.38937 0.15598 0.6388 0.0
C1684 C 0.41671 0.16144 0.65443 0.0
C1685 C 0.45881 0.15844 0.65743 0.0
C1686 C 0.4723 0.14966 0.64659 0.0
H1687 H 0.45019 0.12204 0.6848 0.0
H1688 H 0.48101 0.13271 0.67813 0.0
H1689 H 0.42451 0.13333 0.67716 0.0
H1690 H 0.38053 0.143 0.61693 0.0
H1691 H 0.35673 0.15814 0.63632 0.0
H1692 H 0.39577 0.65578 0.59923 0.0
H1693 H 0.36738 0.64162 0.6214 0.0
H1694 H 0.24483 0.64705 0.58811 0.0
H1695 H 0.27314 0.66145 0.56589 0.0
H1696 H 0.276 0.63974 0.65417 0.0
H1697 H 0.305 0.61853 0.56407 0.0
H1698 H 0.3384 0.62882 0.57049 0.0
H1699 H 0.28359 0.63065 0.56335 0.0
C1700 C 0.36251 0.65412 0.59715 0.0
C1701 C 0.33663 0.6597 0.58087 0.0
C1702 C 0.34636 0.64604 0.60979 0.0
C1703 C 0.30419 0.6433 0.6062 0.0
C1704 C 0.27747 0.64911 0.5911 0.0
H1705 H 0.2976 0.58285 0.66172 0.0
H1706 H 0.26452 0.59691 0.64041 0.0
C1707 C 0.29358 0.65733 0.5786 0.0
C1708 C 0.29053 0.63386 0.61658 0.0
H1709 H 0.30617 0.60993 0.60394 0.0
C1710 C 0.28084 0.63318 0.64302 0.0
C1711 C 0.29653 0.62534 0.60192 0.0
C1712 C 0.30628 0.62578 0.57331 0.0
C1713 C 0.28131 0.62422 0.65572 0.0
C1714 C 0.29275 0.61582 0.64169 0.0
C1715 C 0.29758 0.61637 0.61469 0.0
C1716 C 0.30986 0.60723 0.65521 0.0
C1717 C 0.27297 0.62389 0.6845 0.0
C1718 C 0.34666 0.60837 0.66991 0.0
C1719 C 0.36575 0.60046 0.68161 0.0
C1720 C 0.34858 0.59112 0.679 0.0
C1721 C 0.31158 0.58994 0.66417 0.0
C1722 C 0.29257 0.59795 0.65209 0.0
H1723 H 0.25051 0.62967 0.69033 0.0
H1724 H 0.26003 0.61677 0.69047 0.0
H1725 H 0.303 0.62514 0.69507 0.0
H1726 H 0.36118 0.61543 0.67199 0.0
H1727 H 0.39415 0.60174 0.69279 0.0
H1728 H 0.5207 0.31288 0.37392 0.0
H1729 H 0.45586 0.30482 0.36073 0.0
H1730 H 0.48271 0.28133 0.41326 0.0
H1731 H 0.54803 0.2895 0.42667 0.0
H1732 H 0.42315 0.28678 0.34399 0.0
H1733 H 0.38193 0.29548 0.44668 0.0
H1734 H 0.43002 0.29988 0.43225 0.0
H1735 H 0.4249 0.28731 0.44035 0.0
C1736 C 0.51386 0.30577 0.38167 0.0
C1737 C 0.539 0.30183 0.4014 0.0
C1738 C 0.47672 0.30116 0.3742 0.0
C1739 C 0.46397 0.2926 0.38651 0.0
C1740 C 0.49175 0.28801 0.40382 0.0
H1741 H 0.19774 0.29231 0.33874 0.0
H1742 H 0.25827 0.28345 0.35681 0.0
C1743 C 0.52928 0.29262 0.41122 0.0
C1744 C 0.41884 0.28987 0.38475 0.0
H1745 H 0.32684 0.29444 0.41697 0.0
C1746 C 0.40185 0.28805 0.36011 0.0
C1747 C 0.39124 0.29158 0.4059 0.0
C1748 C 0.40765 0.2937 0.43282 0.0
C1749 C 0.35839 0.28901 0.35541 0.0
C1750 C 0.33137 0.2917 0.37606 0.0
C1751 C 0.34774 0.29237 0.40126 0.0
C1752 C 0.29001 0.29629 0.37082 0.0
C1753 C 0.34247 0.28823 0.32789 0.0
C1754 C 0.28663 0.30632 0.37426 0.0
C1755 C 0.25235 0.31135 0.36412 0.0
C1756 C 0.22058 0.30643 0.3505 0.0
C1757 C 0.22173 0.29627 0.34931 0.0
C1758 C 0.25644 0.29121 0.35936 0.0
H1759 H 0.36814 0.28655 0.3139 0.0
H1760 H 0.31843 0.28241 0.32665 0.0
H1761 H 0.32722 0.29511 0.32193 0.0
H1762 H 0.31213 0.31038 0.38309 0.0
H1763 H 0.25214 0.31917 0.36539 0.0
H1764 H 0.03648 0.93353 0.37215 0.0
H1765 H 0.97002 0.94069 0.38641 0.0
H1766 H 0.99872 0.96669 0.34369 0.0
H1767 H 0.06597 0.95952 0.3296 0.0
H1768 H 0.93924 0.95931 0.40923 0.0
H1769 H 0.89711 0.95269 0.30558 0.0
H1770 H 0.94384 0.94741 0.31968 0.0
H1771 H 0.94203 0.96014 0.31325 0.0
C1772 C 0.02955 0.94095 0.36688 0.0
C1773 C 0.05614 0.946 0.34988 0.0
C1774 C 0.99157 0.94503 0.37494 0.0
C1775 C 0.97932 0.95415 0.36578 0.0
C1776 C 0.0077 0.95962 0.35088 0.0
H1777 H 0.70907 0.95958 0.4065 0.0
H1778 H 0.77581 0.9664 0.39025 0.0
C1779 C 0.04619 0.95557 0.34306 0.0
C1780 C 0.93438 0.95688 0.36815 0.0
H1781 H 0.8417 0.95369 0.33545 0.0
C1782 C 0.91778 0.95849 0.39299 0.0
C1783 C 0.90663 0.9557 0.34685 0.0
C1784 C 0.92299 0.95387 0.31978 0.0
C1785 C 0.8741 0.95811 0.39745 0.0
C1786 C 0.84665 0.95607 0.37652 0.0
C1787 C 0.86298 0.95532 0.35135 0.0
C1788 C 0.80344 0.95249 0.38137 0.0
C1789 C 0.85781 0.95895 0.42486 0.0
C1790 C 0.79652 0.94248 0.38063 0.0
C1791 C 0.75893 0.9386 0.38998 0.0
C1792 C 0.72735 0.94468 0.39991 0.0
C1793 C 0.73281 0.95476 0.39866 0.0
C1794 C 0.77091 0.95865 0.38959 0.0
H1795 H 0.88338 0.96054 0.43898 0.0
H1796 H 0.83393 0.96481 0.42597 0.0
H1797 H 0.84209 0.9521 0.43064 0.0
H1798 H 0.82134 0.93762 0.37437 0.0
H1799 H 0.75547 0.93081 0.39077 0.0
H1800 H 0.54343 0.95791 0.83369 0.0
H1801 H 0.48138 0.96495 0.85525 0.0
H1802 H 0.44567 0.93665 0.88266 0.0
H1803 H 0.50667 0.92959 0.86071 0.0
H1804 H 0.398 0.95735 0.83918 0.0
H1805 H 0.42276 0.9554 0.94534 0.0
H1806 H 0.46588 0.95623 0.92243 0.0
H1807 H 0.44055 0.9448 0.92839 0.0
C1808 C 0.52319 0.95328 0.84521 0.0
C1809 C 0.52972 0.94323 0.84571 0.0
C1810 C 0.48773 0.95729 0.85735 0.0
C1811 C 0.45924 0.95132 0.87067 0.0
C1812 C 0.46767 0.94139 0.87282 0.0
H1813 H 0.22383 0.93372 0.89209 0.0
H1814 H 0.28793 0.94061 0.87329 0.0
C1815 C 0.50245 0.93737 0.86028 0.0
C1816 C 0.41733 0.95491 0.87872 0.0
H1817 H 0.35047 0.95402 0.93037 0.0
C1818 C 0.38773 0.95697 0.85923 0.0
C1819 C 0.40414 0.95449 0.90484 0.0
C1820 C 0.43509 0.9527 0.92651 0.0
C1821 C 0.34451 0.95759 0.86494 0.0
C1822 C 0.33089 0.95611 0.89071 0.0
C1823 C 0.36095 0.95511 0.91055 0.0
C1824 C 0.28664 0.95358 0.89682 0.0
C1825 C 0.31354 0.95917 0.84316 0.0
C1826 C 0.26388 0.95875 0.91562 0.0
C1827 C 0.2267 0.95488 0.92601 0.0
C1828 C 0.21257 0.94573 0.91803 0.0
C1829 C 0.23379 0.94088 0.89806 0.0
C1830 C 0.27037 0.94482 0.88736 0.0
H1831 H 0.32823 0.96328 0.82698 0.0
H1832 H 0.30332 0.95205 0.83546 0.0
H1833 H 0.28514 0.96313 0.85002 0.0
H1834 H 0.2763 0.96544 0.92342 0.0
H1835 H 0.21127 0.9586 0.94189 0.0
H1836 H 0.73902 0.32043 0.84348 0.0
H1837 H 0.80126 0.31295 0.86291 0.0
H1838 H 0.77314 0.28617 0.82376 0.0
H1839 H 0.70996 0.29362 0.8044 0.0
H1840 H 0.81117 0.289 0.88731 0.0
H1841 H 0.89663 0.30298 0.80091 0.0
H1842 H 0.85403 0.31035 0.81295 0.0
H1843 H 0.84276 0.29868 0.79943 0.0
C1844 C 0.74522 0.31285 0.83975 0.0
C1845 C 0.7198 0.30759 0.8225 0.0
C1846 C 0.78077 0.3086 0.85076 0.0
C1847 C 0.79175 0.29907 0.84451 0.0
C1848 C 0.7649 0.29354 0.8288 0.0
H1849 H 0.05821 0.29875 0.8914 0.0
H1850 H 0.99849 0.29113 0.8685 0.0
C1851 C 0.72878 0.29777 0.81795 0.0
C1852 C 0.8339 0.29559 0.85219 0.0
H1853 H 0.93657 0.30136 0.84008 0.0
C1854 C 0.83885 0.29132 0.87661 0.0
C1855 C 0.86988 0.29847 0.83795 0.0
C1856 C 0.86585 0.30282 0.81123 0.0
C1857 C 0.87871 0.2909 0.88841 0.0
C1858 C 0.9138 0.2951 0.87567 0.0
C1859 C 0.90961 0.29821 0.84992 0.0
C1860 C 0.95055 0.29865 0.89059 0.0
C1861 C 0.88232 0.28671 0.91531 0.0
C1862 C 0.94328 0.30551 0.91005 0.0
C1863 C 0.9768 0.30995 0.92264 0.0
C1864 C 0.01876 0.30765 0.91618 0.0
C1865 C 0.02627 0.30067 0.89683 0.0
C1866 C 0.99228 0.29628 0.88387 0.0
H1867 H 0.85965 0.28067 0.91798 0.0
H1868 H 0.91478 0.28406 0.91925 0.0
H1869 H 0.87443 0.29238 0.92976 0.0
H1870 H 0.91141 0.30768 0.915 0.0
H1871 H 0.96953 0.31526 0.93742 0.0
H1872 H 0.7585 0.68367 0.62765 0.0
H1873 H 0.6969 0.69071 0.60649 0.0
H1874 H 0.71778 0.71752 0.64727 0.0
H1875 H 0.78045 0.71049 0.66818 0.0
H1876 H 0.63943 0.70828 0.65759 0.0
H1877 H 0.66506 0.71131 0.55202 0.0
H1878 H 0.68594 0.70019 0.56457 0.0
H1879 H 0.70799 0.71153 0.57517 0.0
C1880 C 0.75105 0.6912 0.63116 0.0
C1881 C 0.77417 0.69657 0.64932 0.0
C1882 C 0.71594 0.69524 0.61902 0.0
C1883 C 0.70298 0.70467 0.62513 0.0
C1884 C 0.72765 0.71028 0.64204 0.0
H1885 H 0.44977 0.70699 0.55714 0.0
H1886 H 0.51179 0.71523 0.57559 0.0
C1887 C 0.76346 0.70628 0.65384 0.0
C1888 C 0.65985 0.7077 0.61772 0.0
H1889 H 0.59365 0.70674 0.56572 0.0
C1890 C 0.62943 0.70833 0.63747 0.0
C1891 C 0.64681 0.70789 0.59153 0.0
C1892 C 0.67829 0.70779 0.56961 0.0
C1893 C 0.5862 0.70793 0.6317 0.0
C1894 C 0.57336 0.70687 0.60563 0.0
C1895 C 0.60357 0.70746 0.58577 0.0
C1896 C 0.53119 0.70302 0.59894 0.0
C1897 C 0.55473 0.70788 0.65363 0.0
C1898 C 0.52126 0.69353 0.60642 0.0
C1899 C 0.48659 0.68881 0.59566 0.0
C1900 C 0.46086 0.69355 0.57756 0.0
C1901 C 0.46884 0.70328 0.57147 0.0
C1902 C 0.50424 0.70796 0.58186 0.0
H1903 H 0.567 0.7119 0.6707 0.0
H1904 H 0.52421 0.71112 0.64753 0.0
H1905 H 0.54885 0.7003 0.65972 0.0
H1906 H 0.54211 0.68952 0.61914 0.0
H1907 H 0.48125 0.68127 0.60036 0.0
H1908 H 0.98133 0.06569 0.63414 0.0
H1909 H 0.03997 0.05741 0.61311 0.0
H1910 H 0.01633 0.03204 0.65958 0.0
H1911 H 0.95666 0.04035 0.68049 0.0
H1912 H 0.09664 0.03996 0.66614 0.0
H1913 H 0.06465 0.03561 0.56181 0.0
H1914 H 0.0476 0.04729 0.57262 0.0
H1915 H 0.02288 0.0366 0.5856 0.0
C1916 C 0.98748 0.0582 0.63901 0.0
C1917 C 0.96451 0.05362 0.65872 0.0
C1918 C 0.02088 0.05345 0.62693 0.0
C1919 C 0.03228 0.04406 0.63457 0.0
C1920 C 0.00766 0.03923 0.65316 0.0
H1921 H 0.27788 0.04043 0.55919 0.0
H1922 H 0.21783 0.03211 0.57968 0.0
C1923 C 0.97355 0.04395 0.66497 0.0
C1924 C 0.07419 0.04035 0.62666 0.0
H1925 H 0.13764 0.04017 0.57334 0.0
C1926 C 0.10551 0.03961 0.64584 0.0
C1927 C 0.08581 0.03969 0.60027 0.0
C1928 C 0.05328 0.03973 0.57894 0.0
C1929 C 0.14846 0.03956 0.6392 0.0
C1930 C 0.16009 0.04034 0.61283 0.0
C1931 C 0.12876 0.03972 0.59363 0.0
C1932 C 0.2021 0.04404 0.60507 0.0
C1933 C 0.18099 0.03947 0.66053 0.0
C1934 C 0.2137 0.05337 0.61303 0.0
C1935 C 0.24731 0.05813 0.60118 0.0
C1936 C 0.27028 0.0536 0.58138 0.0
C1937 C 0.26098 0.04398 0.57478 0.0
C1938 C 0.22666 0.03926 0.58635 0.0
H1939 H 0.16952 0.03528 0.67752 0.0
H1940 H 0.21131 0.03633 0.65376 0.0
H1941 H 0.18683 0.04699 0.6671 0.0
H1942 H 0.19466 0.0573 0.62695 0.0
H1943 H 0.25367 0.06559 0.60634 0.0
H1944 H 0.49163 0.06726 0.13468 0.0
H1945 H 0.55226 0.05896 0.11595 0.0
H1946 H 0.5255 0.03384 0.16277 0.0
H1947 H 0.46381 0.04216 0.18131 0.0
H1948 H 0.60538 0.04209 0.17127 0.0
H1949 H 0.5808 0.0367 0.06648 0.0
H1950 H 0.56237 0.04841 0.07624 0.0
H1951 H 0.53742 0.03773 0.08915 0.0
C1952 C 0.49763 0.05982 0.14011 0.0
C1953 C 0.4731 0.05531 0.15923 0.0
C1954 C 0.53216 0.05505 0.12935 0.0
C1955 C 0.54316 0.04573 0.13775 0.0
C1956 C 0.51717 0.04097 0.15576 0.0
H1957 H 0.79343 0.04184 0.06885 0.0
H1958 H 0.73267 0.03358 0.08869 0.0
C1959 C 0.48193 0.0457 0.16622 0.0
C1960 C 0.58568 0.04202 0.13123 0.0
H1961 H 0.65272 0.04142 0.07963 0.0
C1962 C 0.61566 0.04154 0.15126 0.0
C1963 C 0.59911 0.04112 0.10522 0.0
C1964 C 0.56806 0.04091 0.08308 0.0
C1965 C 0.65903 0.04151 0.14574 0.0
C1966 C 0.67244 0.04204 0.11964 0.0
C1967 C 0.64247 0.04116 0.0997 0.0
C1968 C 0.71479 0.04575 0.11268 0.0
C1969 C 0.69008 0.04172 0.16788 0.0
C1970 C 0.72543 0.0552 0.12012 0.0
C1971 C 0.75944 0.05993 0.10863 0.0
C1972 C 0.78379 0.05525 0.08972 0.0
C1973 C 0.77546 0.04552 0.08376 0.0
C1974 C 0.74074 0.04082 0.09497 0.0
H1975 H 0.67758 0.0377 0.18489 0.0
H1976 H 0.72093 0.03856 0.16214 0.0
H1977 H 0.69526 0.04932 0.17398 0.0
H1978 H 0.70534 0.05923 0.13326 0.0
H1979 H 0.76506 0.06746 0.11326 0.0
H1980 H 0.99701 0.68133 0.10425 0.0
H1981 H 0.06087 0.68812 0.12358 0.0
H1982 H 0.02463 0.71657 0.09761 0.0
H1983 H 0.95965 0.70979 0.0787 0.0
H1984 H 0.1076 0.70851 0.07949 0.0
H1985 H 0.0873 0.70699 0.18608 0.0
H1986 H 0.06739 0.6965 0.16955 0.0
H1987 H 0.04333 0.70808 0.16386 0.0
C1988 C 0.00197 0.68908 0.10344 0.0
C1989 C 0.97349 0.69506 0.09018 0.0
C1990 C 0.03835 0.69295 0.11451 0.0
C1991 C 0.04722 0.70285 0.11215 0.0
C1992 C 0.01797 0.70893 0.09986 0.0
H1993 H 0.29926 0.70817 0.17904 0.0
H1994 H 0.23465 0.71568 0.16188 0.0
C1995 C 0.98091 0.70507 0.08922 0.0
C1996 C 0.08975 0.7063 0.11938 0.0
H1997 H 0.15869 0.70512 0.16995 0.0
C1998 C 0.1187 0.70813 0.09937 0.0
C1999 C 0.10401 0.70589 0.14529 0.0
C2000 C 0.07381 0.70435 0.16749 0.0
C2001 C 0.16222 0.70849 0.10437 0.0
C2002 C 0.1768 0.70696 0.12993 0.0
C2003 C 0.1475 0.70624 0.15029 0.0
C2004 C 0.22082 0.70399 0.1353 0.0
C2005 C 0.1924 0.70981 0.08205 0.0
C2006 C 0.23496 0.6951 0.12545 0.0
C2007 C 0.27123 0.69078 0.13544 0.0
C2008 C 0.29431 0.69536 0.15511 0.0
C2009 C 0.28233 0.70463 0.16344 0.0
C2010 C 0.24541 0.70888 0.15378 0.0
H2011 H 0.17768 0.71408 0.0662 0.0
H2012 H 0.22183 0.71347 0.08841 0.0
H2013 H 0.20089 0.70261 0.07407 0.0
H2014 H 0.21601 0.6911 0.11164 0.0
H2015 H 0.27959 0.68356 0.1291 0.0
H2016 H 0.54589 0.79618 0.92455 0.0
H2017 H 0.48238 0.78968 0.90341 0.0
H2018 H 0.47135 0.81585 0.85844 0.0
H2019 H 0.53382 0.82241 0.8799 0.0
H2020 H 0.40647 0.80094 0.91098 0.0
H2021 H 0.43629 0.7942 0.80681 0.0
H2022 H 0.47764 0.79378 0.831 0.0
H2023 H 0.46014 0.80519 0.81815 0.0
C2024 C 0.53097 0.80031 0.90923 0.0
C2025 C 0.54467 0.80974 0.90359 0.0
C2026 C 0.49464 0.79663 0.89733 0.0
C2027 C 0.47243 0.80225 0.87924 0.0
C2028 C 0.48846 0.81132 0.87198 0.0
H2029 H 0.25425 0.82533 0.83235 0.0
H2030 H 0.31858 0.81924 0.85276 0.0
C2031 C 0.52411 0.81507 0.88421 0.0
C2032 C 0.42881 0.79974 0.87161 0.0
H2033 H 0.36522 0.79938 0.81829 0.0
C2034 C 0.39737 0.80021 0.89078 0.0
C2035 C 0.41706 0.79881 0.84531 0.0
C2036 C 0.44962 0.79787 0.82414 0.0
C2037 C 0.35454 0.80078 0.88405 0.0
C2038 C 0.34318 0.8008 0.85762 0.0
C2039 C 0.37422 0.79938 0.83859 0.0
C2040 C 0.30125 0.80418 0.84916 0.0
C2041 C 0.32189 0.80216 0.90499 0.0
C2042 C 0.26983 0.79769 0.8412 0.0
C2043 C 0.23256 0.80117 0.82991 0.0
C2044 C 0.22697 0.81116 0.82602 0.0
C2045 C 0.25779 0.81761 0.83514 0.0
C2046 C 0.29449 0.81415 0.84675 0.0
H2047 H 0.33443 0.80027 0.92446 0.0
H2048 H 0.31176 0.80984 0.90525 0.0
H2049 H 0.29359 0.79767 0.90092 0.0
H2050 H 0.2748 0.78996 0.84284 0.0
H2051 H 0.20948 0.79605 0.82272 0.0
H2052 H 0.71041 0.46016 0.93853 0.0
H2053 H 0.77256 0.4689 0.92221 0.0
H2054 H 0.79828 0.44539 0.86951 0.0
H2055 H 0.73711 0.43667 0.88604 0.0
H2056 H 0.8499 0.46003 0.93028 0.0
H2057 H 0.83396 0.46877 0.82658 0.0
H2058 H 0.78872 0.46725 0.84761 0.0
H2059 H 0.81368 0.4569 0.83285 0.0
C2060 C 0.72821 0.45713 0.92253 0.0
C2061 C 0.71907 0.44781 0.91329 0.0
C2062 C 0.76377 0.46209 0.91335 0.0
C2063 C 0.78982 0.45785 0.89446 0.0
C2064 C 0.77817 0.44892 0.88362 0.0
H2065 H 0.00806 0.43476 0.87071 0.0
H2066 H 0.94974 0.44313 0.89179 0.0
C2067 C 0.74326 0.44392 0.89309 0.0
C2068 C 0.83323 0.46142 0.88987 0.0
H2069 H 0.90414 0.46289 0.84043 0.0
C2070 C 0.86174 0.46107 0.91073 0.0
C2071 C 0.84876 0.46296 0.86453 0.0
C2072 C 0.8195 0.4641 0.84168 0.0
C2073 C 0.90545 0.46085 0.90641 0.0
C2074 C 0.92071 0.46094 0.88068 0.0
C2075 C 0.89245 0.46267 0.8602 0.0
C2076 C 0.96282 0.45701 0.87406 0.0
C2077 C 0.93471 0.45972 0.92926 0.0
C2078 C 0.99056 0.46211 0.85781 0.0
C2079 C 0.02447 0.45733 0.846 0.0
C2080 C 0.03022 0.44735 0.84987 0.0
C2081 C 0.00447 0.44247 0.86769 0.0
C2082 C 0.97121 0.44727 0.87979 0.0
H2083 H 0.9217 0.46341 0.94666 0.0
H2084 H 0.93795 0.45193 0.93398 0.0
H2085 H 0.96654 0.46269 0.925 0.0
H2086 H 0.98429 0.46959 0.85289 0.0
H2087 H 0.04352 0.46119 0.83196 0.0
H2088 H 0.5123 0.42864 0.34241 0.0
H2089 H 0.4499 0.43618 0.36105 0.0
H2090 H 0.50129 0.46443 0.34507 0.0
H2091 H 0.56477 0.45684 0.32613 0.0
H2092 H 0.45471 0.45933 0.39963 0.0
H2093 H 0.3668 0.45234 0.30865 0.0
H2094 H 0.40108 0.44261 0.3182 0.0
H2095 H 0.42339 0.45412 0.30956 0.0
C2096 C 0.51078 0.43646 0.34322 0.0
C2097 C 0.54317 0.44216 0.33265 0.0
C2098 C 0.47509 0.44075 0.35381 0.0
C2099 C 0.47087 0.45083 0.35396 0.0
C2100 C 0.5041 0.45663 0.34491 0.0
H2101 H 0.20408 0.45579 0.39678 0.0
H2102 H 0.26887 0.46222 0.37695 0.0
C2103 C 0.5403 0.4523 0.33431 0.0
C2104 C 0.43023 0.45492 0.36253 0.0
H2105 H 0.32596 0.45209 0.34832 0.0
C2106 C 0.42646 0.45813 0.38818 0.0
C2107 C 0.39354 0.45354 0.34738 0.0
C2108 C 0.39627 0.45055 0.3193 0.0
C2109 C 0.38667 0.45886 0.39998 0.0
C2110 C 0.35029 0.45607 0.38587 0.0
C2111 C 0.35385 0.45409 0.35929 0.0
C2112 C 0.31095 0.45311 0.39923 0.0
C2113 C 0.38423 0.46195 0.42798 0.0
C2114 C 0.31313 0.44574 0.41782 0.0
C2115 C 0.27657 0.44201 0.42888 0.0
C2116 C 0.23662 0.4455 0.42152 0.0
C2117 C 0.23431 0.45293 0.40287 0.0
C2118 C 0.27125 0.45665 0.39166 0.0
H2119 H 0.40898 0.4674 0.43242 0.0
H2120 H 0.35283 0.46505 0.43277 0.0
H2121 H 0.38995 0.45559 0.44064 0.0
H2122 H 0.34325 0.44264 0.42331 0.0
H2123 H 0.27986 0.43631 0.44314 0.0
H2124 H 0.74698 0.82021 0.35499 0.0
H2125 H 0.8133 0.81263 0.36779 0.0
H2126 H 0.76709 0.78496 0.34164 0.0
H2127 H 0.69998 0.79256 0.3289 0.0
H2128 H 0.83699 0.79541 0.39945 0.0
H2129 H 0.87064 0.79268 0.29346 0.0
H2130 H 0.82894 0.80037 0.30538 0.0
H2131 H 0.82298 0.78749 0.30654 0.0
C2132 C 0.75039 0.81245 0.35278 0.0
C2133 C 0.71856 0.80697 0.3409 0.0
C2134 C 0.78825 0.80813 0.36008 0.0
C2135 C 0.79516 0.79828 0.35533 0.0
C2136 C 0.76227 0.79259 0.34533 0.0
H2137 H 0.0603 0.79069 0.39887 0.0
H2138 H 0.99363 0.78352 0.38407 0.0
C2139 C 0.72394 0.79692 0.33828 0.0
C2140 C 0.83866 0.79454 0.35786 0.0
H2141 H 0.92858 0.79272 0.32172 0.0
C2142 C 0.857 0.79441 0.38258 0.0
C2143 C 0.86444 0.79333 0.33568 0.0
C2144 C 0.84606 0.79347 0.30868 0.0
C2145 C 0.90096 0.79403 0.38564 0.0
C2146 C 0.92699 0.79369 0.36331 0.0
C2147 C 0.90844 0.7929 0.33872 0.0
C2148 C 0.9719 0.79653 0.36499 0.0
C2149 C 0.91935 0.79502 0.41254 0.0
C2150 C 0.98286 0.80594 0.35744 0.0
C2151 C 0.02063 0.81003 0.36585 0.0
C2152 C 0.04817 0.80472 0.38169 0.0
C2153 C 0.03974 0.7949 0.38643 0.0
C2154 C 0.00153 0.79082 0.37822 0.0
H2155 H 0.89459 0.79569 0.42769 0.0
H2156 H 0.93895 0.78859 0.41706 0.0
H2157 H 0.94005 0.80149 0.41353 0.0
H2158 H 0.96039 0.81045 0.3472 0.0
H2159 H 0.02643 0.81762 0.36204 0.0
H2160 H 0.79953 0.20977 0.17154 0.0
H2161 H 0.73462 0.21708 0.1541 0.0
H2162 H 0.69876 0.18951 0.12181 0.0
H2163 H 0.76284 0.18222 0.13928 0.0
H2164 H 0.67747 0.20691 0.09051 0.0
H2165 H 0.62473 0.2078 0.19377 0.0
H2166 H 0.67315 0.2137 0.18453 0.0
H2167 H 0.67001 0.20076 0.18409 0.0
C2168 C 0.77855 0.2054 0.15978 0.0
C2169 C 0.7859 0.19544 0.15674 0.0
C2170 C 0.74142 0.20956 0.15006 0.0
C2171 C 0.71179 0.20379 0.13698 0.0
C2172 C 0.72127 0.19408 0.13184 0.0
H2173 H 0.48608 0.18242 0.11493 0.0
H2174 H 0.5494 0.18991 0.13284 0.0
C2175 C 0.75786 0.18992 0.14179 0.0
C2176 C 0.66835 0.20719 0.1318 0.0
H2177 H 0.5723 0.20763 0.16178 0.0
C2178 C 0.65445 0.20748 0.10601 0.0
C2179 C 0.63857 0.20785 0.15219 0.0
C2180 C 0.65203 0.20751 0.18026 0.0
C2181 C 0.61123 0.20748 0.10004 0.0
C2182 C 0.58139 0.20724 0.12048 0.0
C2183 C 0.59534 0.20789 0.14623 0.0
C2184 C 0.53772 0.20393 0.11562 0.0
C2185 C 0.59782 0.20672 0.07201 0.0
C2186 C 0.50889 0.20952 0.10138 0.0
C2187 C 0.4722 0.20525 0.0914 0.0
C2188 C 0.46449 0.19536 0.09538 0.0
C2189 C 0.49135 0.19007 0.1117 0.0
C2190 C 0.52752 0.19435 0.12189 0.0
H2191 H 0.62518 0.2066 0.05853 0.0
H2192 H 0.57901 0.20004 0.06899 0.0
H2193 H 0.57752 0.21298 0.06691 0.0
H2194 H 0.51622 0.21695 0.09648 0.0
H2195 H 0.45216 0.20943 0.07858 0.0
H2196 H 0.24475 0.56638 0.12402 0.0
H2197 H 0.18091 0.55892 0.14134 0.0
H2198 H 0.22253 0.53106 0.11375 0.0
H2199 H 0.28735 0.53853 0.09676 0.0
H2200 H 0.14291 0.53786 0.09355 0.0
H2201 H 0.14684 0.5401 0.20045 0.0
H2202 H 0.16619 0.55097 0.18558 0.0
H2203 H 0.19423 0.53978 0.18087 0.0
C2204 C 0.24105 0.55861 0.12257 0.0
C2205 C 0.27089 0.55301 0.10922 0.0
C2206 C 0.20467 0.55434 0.13252 0.0
C2207 C 0.19719 0.54442 0.129 0.0
C2208 C 0.22804 0.5387 0.11693 0.0
H2209 H 0.93924 0.54132 0.18366 0.0
H2210 H 0.00303 0.53257 0.17018 0.0
C2211 C 0.26504 0.54296 0.10738 0.0
C2212 C 0.1543 0.54066 0.13409 0.0
H2213 H 0.0777 0.54224 0.18016 0.0
C2214 C 0.12876 0.53843 0.11265 0.0
C2215 C 0.13599 0.54125 0.15899 0.0
C2216 C 0.16238 0.54306 0.18283 0.0
C2217 C 0.08467 0.53802 0.11505 0.0
C2218 C 0.06602 0.53992 0.1394 0.0
C2219 C 0.09193 0.54088 0.16137 0.0
C2220 C 0.02172 0.54323 0.14168 0.0
C2221 C 0.05832 0.5363 0.09115 0.0
C2222 C 0.0102 0.55188 0.12932 0.0
C2223 C 0.97429 0.5569 0.13718 0.0
C2224 C 0.94901 0.55329 0.15727 0.0
C2225 C 0.95791 0.54414 0.16775 0.0
C2226 C 0.99441 0.53917 0.16019 0.0
H2227 H 0.07503 0.53146 0.07733 0.0
H2228 H 0.02729 0.53305 0.09612 0.0
H2229 H 0.05275 0.54329 0.08118 0.0
H2230 H 0.03119 0.55527 0.11543 0.0
H2231 H 0.96831 0.56401 0.12915 0.0
H2232 H 0.78816 0.54454 0.55452 0.0
H2233 H 0.72569 0.53691 0.5742 0.0
H2234 H 0.71058 0.56162 0.62441 0.0
H2235 H 0.77222 0.56923 0.6047 0.0
H2236 H 0.6868 0.54262 0.64685 0.0
H2237 H 0.61455 0.55126 0.55084 0.0
H2238 H 0.66071 0.54368 0.55227 0.0
H2239 H 0.66492 0.55628 0.56006 0.0
C2240 C 0.77257 0.54809 0.57061 0.0
C2241 C 0.78475 0.55744 0.57823 0.0
C2242 C 0.73677 0.54378 0.58166 0.0
C2243 C 0.71334 0.54877 0.60051 0.0
C2244 C 0.72831 0.55764 0.60994 0.0
H2245 H 0.50484 0.57226 0.65286 0.0
H2246 H 0.56415 0.56533 0.62911 0.0
C2247 C 0.76353 0.56198 0.59873 0.0
C2248 C 0.66984 0.54588 0.60743 0.0
H2249 H 0.56916 0.54987 0.5864 0.0
C2250 C 0.66088 0.54379 0.63347 0.0
C2251 C 0.63621 0.54749 0.58986 0.0
C2252 C 0.64421 0.54983 0.56167 0.0
C2253 C 0.61935 0.54416 0.64291 0.0
C2254 C 0.58626 0.54671 0.62582 0.0
C2255 C 0.59472 0.54788 0.59934 0.0
C2256 C 0.54593 0.55047 0.63604 0.0
C2257 C 0.61155 0.54282 0.67155 0.0
C2258 C 0.51518 0.54438 0.64686 0.0
C2259 C 0.48075 0.54836 0.66022 0.0
C2260 C 0.4773 0.55845 0.66315 0.0
C2261 C 0.50683 0.56448 0.65091 0.0
C2262 C 0.54066 0.56052 0.63734 0.0
H2263 H 0.64062 0.5407 0.68217 0.0
H2264 H 0.59933 0.54965 0.68003 0.0
H2265 H 0.58721 0.53716 0.67458 0.0
H2266 H 0.51885 0.53661 0.646 0.0
H2267 H 0.45858 0.54357 0.66973 0.0
H2268 H 0.9456 0.20848 0.58625 0.0
H2269 H 0.01129 0.21568 0.60279 0.0
H2270 H 0.04715 0.1881 0.63494 0.0
H2271 H 0.98232 0.18089 0.6182 0.0
H2272 H 0.0713 0.20621 0.66512 0.0
H2273 H 0.11792 0.20492 0.56075 0.0
H2274 H 0.07021 0.21104 0.57038 0.0
H2275 H 0.0731 0.19812 0.57229 0.0
C2276 C 0.96669 0.20409 0.59787 0.0
C2277 C 0.95921 0.19414 0.60097 0.0
C2278 C 0.00423 0.20819 0.60711 0.0
C2279 C 0.03407 0.20238 0.61981 0.0
C2280 C 0.0244 0.19269 0.62522 0.0
H2281 H 0.25683 0.17978 0.64266 0.0
H2282 H 0.19151 0.18701 0.62675 0.0
C2283 C 0.9874 0.18858 0.6157 0.0
C2284 C 0.07804 0.20561 0.62366 0.0
H2285 H 0.17222 0.2047 0.59163 0.0
C2286 C 0.09344 0.20632 0.64907 0.0
C2287 C 0.10664 0.20566 0.60257 0.0
C2288 C 0.09146 0.20489 0.57489 0.0
C2289 C 0.13697 0.20617 0.65406 0.0
C2290 C 0.16543 0.20524 0.63307 0.0
C2291 C 0.15016 0.20547 0.60758 0.0
C2292 C 0.20863 0.20162 0.6375 0.0
C2293 C 0.15219 0.20598 0.68178 0.0
C2294 C 0.24056 0.20754 0.64767 0.0
C2295 C 0.27836 0.20341 0.65643 0.0
C2296 C 0.28402 0.19333 0.65543 0.0
C2297 C 0.25315 0.18756 0.64358 0.0
C2298 C 0.2159 0.19168 0.63451 0.0
H2299 H 0.12603 0.207 0.69587 0.0
H2300 H 0.16781 0.19896 0.68587 0.0
H2301 H 0.17591 0.21178 0.68485 0.0
H2302 H 0.23531 0.21522 0.65013 0.0
H2303 H 0.30158 0.20798 0.66581 0.0
H2304 H 0.8844 0.21933 0.24282 0.0
H2305 H 0.91331 0.23495 0.25585 0.0
H2306 H 0.01943 0.23065 0.20473 0.0
H2307 H 0.99031 0.215 0.19126 0.0
H2308 H 0.9901 0.23801 0.27994 0.0
H2309 H 0.98171 0.25812 0.1869 0.0
H2310 H 0.95328 0.24699 0.19232 0.0
H2311 H 0.00872 0.24673 0.18494 0.0
C2312 C 0.91363 0.22175 0.23405 0.0
C2313 C 0.93505 0.21593 0.21595 0.0
C2314 C 0.93015 0.23068 0.24159 0.0
C2315 C 0.96834 0.23401 0.23114 0.0
C2316 C 0.98951 0.2283 0.21271 0.0
H2317 H 0.12568 0.28406 0.25973 0.0
H2318 H 0.09602 0.26858 0.24609 0.0
C2319 C 0.97292 0.21935 0.20508 0.0
C2320 C 0.98683 0.24322 0.24063 0.0
H2321 H 0.01863 0.26569 0.2214 0.0
C2322 C 0.99618 0.24408 0.26717 0.0
C2323 C 0.99476 0.25113 0.22394 0.0
C2324 C 0.98379 0.25077 0.19548 0.0
C2325 C 0.01387 0.25258 0.2774 0.0
C2326 C 0.02183 0.26048 0.26071 0.0
C2327 C 0.0125 0.25962 0.23417 0.0
C2328 C 0.0404 0.26967 0.27024 0.0
C2329 C 0.02479 0.25294 0.30587 0.0
C2330 C 0.01905 0.27542 0.28849 0.0
C2331 C 0.03603 0.28429 0.29644 0.0
C2332 C 0.07451 0.28759 0.28612 0.0
C2333 C 0.096 0.28174 0.26811 0.0
C2334 C 0.07905 0.27289 0.26021 0.0
H2335 H 0.02646 0.2456 0.31455 0.0
H2336 H 0.0555 0.25664 0.30899 0.0
H2337 H 1.00008 0.25708 0.31634 0.0
H2338 H 0.98881 0.27315 0.29616 0.0
H2339 H 0.01858 0.28866 0.31019 0.0
H2340 H 0.15796 0.96762 0.26101 0.0
H2341 H 0.18508 0.98353 0.24929 0.0
H2342 H 0.28387 0.98064 0.30631 0.0
H2343 H 0.25717 0.96456 0.31799 0.0
H2344 H 0.19576 1.00001 0.27947 0.0
H2345 H 0.34879 0.9871 0.23969 0.0
H2346 H 0.30532 0.97904 0.24636 0.0
H2347 H 0.33781 0.9834 0.2724 0.0
C2348 C 0.18546 0.97035 0.27113 0.0
C2349 C 0.20559 0.96479 0.29035 0.0
C2350 C 0.20087 0.97946 0.2644 0.0
C2351 C 0.23683 0.98321 0.27663 0.0
C2352 C 0.25653 0.9778 0.29627 0.0
H2353 H 0.375 0.0368 0.2556 0.0
H2354 H 0.34874 0.02109 0.26994 0.0
C2355 C 0.2411 0.96864 0.30304 0.0
C2356 C 0.25336 0.99279 0.26867 0.0
H2357 H 0.33845 0.00402 0.2413 0.0
C2358 C 0.22695 1.0009 0.27112 0.0
C2359 C 0.29402 0.99391 0.25772 0.0
C2360 C 0.32309 0.9854 0.25363 0.0
C2361 C 0.24026 0.01011 0.26314 0.0
C2362 C 0.28079 0.01122 0.25202 0.0
C2363 C 0.30734 0.00313 0.24977 0.0
C2364 C 0.29652 0.02073 0.24294 0.0
C2365 C 0.21111 0.01861 0.26707 0.0
C2366 C 0.2762 0.02569 0.2227 0.0
C2367 C 0.29115 0.0347 0.21441 0.0
C2368 C 0.32679 0.03888 0.22618 0.0
C2369 C 0.3474 0.03381 0.24616 0.0
C2370 C 0.33248 0.02481 0.25439 0.0
H2371 H 0.18593 0.01699 0.28143 0.0
H2372 H 0.22892 0.02507 0.27374 0.0
H2373 H 0.1957 0.02043 0.24837 0.0
H2374 H 0.24886 0.02257 0.21326 0.0
H2375 H 0.27472 0.0384 0.1989 0.0
H2376 H 0.98177 0.03868 0.05072 0.0
H2377 H 0.00845 0.02266 0.0386 0.0
H2378 H 0.90908 0.01986 0.98194 0.0
H2379 H 0.88196 0.03576 0.9941 0.0
H2380 H 0.91948 0.00341 0.01249 0.0
H2381 H 0.07256 0.0158 0.972 0.0
H2382 H 0.06245 0.01984 0.00451 0.0
H2383 H 0.02937 0.02397 0.97844 0.0
C2384 C 0.96565 0.03465 0.03567 0.0
C2385 C 0.92987 0.03851 0.02331 0.0
C2386 C 0.98107 0.02553 0.02866 0.0
C2387 C 0.96112 0.02014 0.00908 0.0
C2388 C 0.92508 0.02392 0.99699 0.0
H2389 H 0.00737 0.96233 0.94402 0.0
H2390 H 0.97849 0.97852 0.95231 0.0
C2391 C 0.90967 0.03302 0.00397 0.0
C2392 C 0.97729 0.01048 0.00144 0.0
H2393 H 0.06371 0.99885 0.97706 0.0
C2394 C 0.95091 0.00241 0.00458 0.0
C2395 C 0.01822 0.00921 0.99101 0.0
C2396 C 0.04722 0.01767 0.98603 0.0
C2397 C 0.96484 0.99305 -0.00167 0.0
C2398 C 0.00599 0.99176 0.98825 0.0
C2399 C 0.03215 0.99986 0.98477 0.0
C2400 C 0.02344 0.98204 0.98251 0.0
C2401 C 0.93593 0.98458 0.00335 0.0
C2402 C 0.05881 0.97876 0.99625 0.0
C2403 C 0.07541 0.96959 0.99148 0.0
C2404 C 0.05711 0.96349 0.97274 0.0
C2405 C 0.02204 0.96684 0.95865 0.0
C2406 C 0.00538 0.97606 0.96347 0.0
H2407 H 0.90921 0.98656 0.01626 0.0
H2408 H 0.92263 0.98202 0.98466 0.0
H2409 H 0.95353 0.97849 0.0123 0.0
H2410 H 0.07332 0.98326 0.01095 0.0
H2411 H 0.10252 0.96726 0.00265 0.0
H2412 H 0.26497 0.21417 0.05476 0.0
H2413 H 0.23529 0.22965 0.04028 0.0
H2414 H 0.34051 0.23353 0.98828 0.0
H2415 H 0.3702 0.21812 0.00244 0.0
H2416 H 0.27216 0.24861 0.04068 0.0
H2417 H 0.23617 0.23608 0.94071 0.0
H2418 H 0.24737 0.22783 0.96696 0.0
H2419 H 0.28966 0.23414 0.95106 0.0
C2420 C 0.28189 0.21835 0.04037 0.0
C2421 C 0.3198 0.21489 0.02965 0.0
C2422 C 0.26487 0.22718 0.03208 0.0
C2423 C 0.28531 0.23263 0.01284 0.0
C2424 C 0.32378 0.22933 0.00274 0.0
H2425 H 0.22993 0.2873 0.9353 0.0
H2426 H 0.26025 0.27169 0.94838 0.0
C2427 C 0.34083 0.22055 0.01101 0.0
C2428 C 0.26656 0.24179 0.00333 0.0
H2429 H 0.22678 0.25278 0.94922 0.0
C2430 C 0.26205 0.24952 0.02073 0.0
C2431 C 0.25368 0.24297 0.97723 0.0
C2432 C 0.25657 0.2348 0.9579 0.0
C2433 C 0.24549 0.25844 0.01265 0.0
C2434 C 0.23224 0.25959 0.98659 0.0
C2435 C 0.23697 0.25188 0.96916 0.0
C2436 C 0.21253 0.26869 0.97733 0.0
C2437 C 0.24312 0.26662 0.03199 0.0
C2438 C 0.17493 0.272 0.9886 0.0
C2439 C 0.15767 0.28086 0.98122 0.0
C2440 C 0.17742 0.28658 0.96221 0.0
C2441 C 0.214 0.28306 0.95 0.0
C2442 C 0.23139 0.27416 0.9575 0.0
H2443 H 0.26493 0.26546 0.04858 0.0
H2444 H 0.25087 0.27364 0.02271 0.0
H2445 H 0.21055 0.26707 0.03981 0.0
H2446 H 0.15925 0.26778 0.00345 0.0
H2447 H 0.12924 0.28332 0.99085 0.0
H2448 H 0.97459 0.7155 0.69239 0.0
H2449 H 0.00447 0.73078 0.70809 0.0
H2450 H 0.89646 0.73483 0.75782 0.0
H2451 H 0.86669 0.71957 0.74254 0.0
H2452 H 0.97139 0.74958 0.70699 0.0
H2453 H 0.99571 0.73714 0.80834 0.0
H2454 H 0.98483 0.7289 0.78201 0.0
H2455 H 0.94275 0.73575 0.79646 0.0
C2456 C 0.9571 0.71968 0.70655 0.0
C2457 C 0.91841 0.7163 0.71634 0.0
C2458 C 0.97424 0.72839 0.71554 0.0
C2459 C 0.9531 0.73383 0.73454 0.0
C2460 C 0.9138 0.73063 0.74365 0.0
H2461 H 0.01271 0.78944 0.80734 0.0
H2462 H 0.97941 0.77391 0.79627 0.0
C2463 C 0.89669 0.72194 0.73471 0.0
C2464 C 0.972 0.74289 0.74466 0.0
H2465 H 0.00904 0.75371 0.79981 0.0
C2466 C 0.97969 0.75048 0.72726 0.0
C2467 C 0.98259 0.74405 0.77118 0.0
C2468 C 0.97643 0.73601 0.79059 0.0
C2469 C 0.99754 0.75922 0.73566 0.0
C2470 C 0.00862 0.76034 0.76208 0.0
C2471 C 0.00043 0.75281 0.77959 0.0
C2472 C 0.03041 0.76915 0.77144 0.0
C2473 C 0.00412 0.76723 0.71619 0.0
C2474 C 0.07075 0.77139 0.76205 0.0
C2475 C 0.08971 0.78018 0.76832 0.0
C2476 C 0.06883 0.7869 0.78426 0.0
C2477 C 0.02956 0.7844 0.79505 0.0
C2478 C 0.01047 0.77556 0.78867 0.0
H2479 H 0.98448 0.76618 0.69856 0.0
H2480 H 0.99649 0.77438 0.72481 0.0
H2481 H 0.03773 0.76733 0.71014 0.0
H2482 H 0.08701 0.76645 0.74915 0.0
H2483 H 0.12017 0.78184 0.75988 0.0
H2484 H 0.73196 0.9633 0.81396 0.0
H2485 H 0.76187 0.97933 0.80498 0.0
H2486 H 0.65719 0.98564 0.75426 0.0
H2487 H 0.62695 0.9698 0.76336 0.0
H2488 H 0.78639 0.98619 0.75662 0.0
H2489 H 0.66316 0.00992 0.7986 0.0
H2490 H 0.66679 0.9972 0.80618 0.0
H2491 H 0.64233 1.00111 0.77648 0.0
C2492 C 0.71502 0.96817 0.80124 0.0
C2493 C 0.67705 0.96529 0.78943 0.0
C2494 C 0.73217 0.97731 0.79608 0.0
C2495 C 0.71146 0.98373 0.77922 0.0
C2496 C 0.67325 0.98091 0.76777 0.0
H2497 H 0.76457 0.03824 0.70347 0.0
H2498 H 0.73549 0.0227 0.71785 0.0
C2499 C 0.65613 0.97181 0.77289 0.0
C2500 C 0.73096 0.99311 0.7721 0.0
H2501 H 0.71233 0.01742 0.76973 0.0
C2502 C 0.77045 0.99303 0.75975 0.0
C2503 C 0.70997 0.00202 0.77608 0.0
C2504 C 0.6684 0.0026 0.79028 0.0
C2505 C 0.78898 0.0016 0.75059 0.0
C2506 C 0.76766 0.01048 0.7542 0.0
C2507 C 0.72843 0.01058 0.76684 0.0
C2508 C 0.78572 0.01977 0.74517 0.0
C2509 C 0.83063 1.00105 0.73646 0.0
C2510 C 0.8234 0.02327 0.7559 0.0
C2511 C 0.84004 0.03212 0.74775 0.0
C2512 C 0.81921 0.03765 0.72878 0.0
C2513 C 0.78144 0.03413 0.71804 0.0
C2514 C 0.76474 0.02527 0.72627 0.0
H2515 H 0.83782 0.99357 0.72992 0.0
H2516 H 0.83075 0.00591 0.71933 0.0
H2517 H 0.85628 0.0034 0.7497 0.0
H2518 H 0.8397 0.01922 0.77082 0.0
H2519 H 0.86909 0.03465 0.75651 0.0
H2520 H 0.62997 0.78654 0.00024 0.0
H2521 H 0.65797 0.77114 0.01583 0.0
H2522 H 0.76591 0.7743 0.96558 0.0
H2523 H 0.73839 0.78982 0.95011 0.0
H2524 H 0.67846 0.75424 0.98955 0.0
H2525 H 0.81968 0.77011 0.03692 0.0
H2526 H 0.77569 0.77737 0.02612 0.0
H2527 H 0.81441 0.77318 0.00323 0.0
C2528 C 0.65958 0.78395 0.99238 0.0
C2529 C 0.68212 0.78944 0.97404 0.0
C2530 C 0.67554 0.77515 0.00135 0.0
C2531 C 0.7144 0.77167 0.99226 0.0
C2532 C 0.73631 0.77696 0.97329 0.0
H2533 H 0.86615 0.72105 0.01368 0.0
H2534 H 0.83586 0.73675 0.00295 0.0
C2535 C 0.72038 0.78579 0.96431 0.0
C2536 C 0.73191 0.76251 0.00267 0.0
H2537 H 0.81704 0.75296 0.03425 0.0
C2538 C 0.7086 0.75396 -0.0005 0.0
C2539 C 0.77112 0.76219 0.01579 0.0
C2540 C 0.79656 0.77121 0.02098 0.0
C2541 C 0.72412 0.74503 0.00832 0.0
C2542 C 0.76368 0.74469 0.02102 0.0
C2543 C 0.78668 0.75326 0.02455 0.0
C2544 C 0.783 0.73542 0.02925 0.0
C2545 C 0.69876 0.73599 0.00318 0.0
C2546 C 0.76393 0.72956 0.04818 0.0
C2547 C 0.78129 0.72053 0.05445 0.0
C2548 C 0.81796 0.71726 0.04185 0.0
C2549 C 0.83776 0.72333 0.02366 0.0
C2550 C 0.82052 0.73232 0.01749 0.0
H2551 H 0.67336 0.73724 0.98871 0.0
H2552 H 0.71946 0.73008 0.99608 0.0
H2553 H 0.68383 0.73355 0.02152 0.0
H2554 H 0.73533 0.7319 0.05782 0.0
H2555 H 0.76537 0.71602 0.06857 0.0
H2556 H 0.26852 0.53901 0.69493 0.0
H2557 H 0.23524 0.52352 0.70612 0.0
H2558 H 0.34271 0.51612 0.75343 0.0
H2559 H 0.37582 0.53153 0.74266 0.0
H2560 H 0.26343 0.50396 0.70083 0.0
H2561 H 0.24262 0.51432 0.80404 0.0
H2562 H 0.25505 0.52301 0.77905 0.0
H2563 H 0.29583 0.51547 0.79244 0.0
C2564 C 0.28521 0.53403 0.70748 0.0
C2565 C 0.3246 0.53653 0.71811 0.0
C2566 C 0.26614 0.5252 0.71389 0.0
C2567 C 0.28613 0.51878 0.73107 0.0
C2568 C 0.32632 0.52107 0.74064 0.0
H2569 H 0.22855 0.46345 0.80195 0.0
H2570 H 0.26021 0.47881 0.78821 0.0
C2571 C 0.34529 0.52987 0.73432 0.0
C2572 C 0.26485 0.50977 0.73953 0.0
H2573 H 0.22896 0.49791 0.79333 0.0
C2574 C 0.2556 0.50265 0.721 0.0
C2575 C 0.25471 0.50809 0.7659 0.0
C2576 C 0.26217 0.51565 0.7865 0.0
C2577 C 0.23745 0.49378 0.72825 0.0
C2578 C 0.2277 0.49207 0.75466 0.0
C2579 C 0.23665 0.49922 0.77313 0.0
C2580 C 0.208 0.48292 0.76349 0.0
C2581 C 0.22985 0.48621 0.70768 0.0
C2582 C 0.16777 0.48027 0.75465 0.0
C2583 C 0.14961 0.47154 0.76249 0.0
C2584 C 0.17127 0.4653 0.77945 0.0
C2585 C 0.2111 0.46809 0.78886 0.0
C2586 C 0.22924 0.47685 0.781 0.0
H2587 H 0.24848 0.48767 0.68984 0.0
H2588 H 0.23802 0.47889 0.71497 0.0
H2589 H 0.19592 0.48622 0.70233 0.0
H2590 H 0.15043 0.48495 0.7416 0.0
H2591 H 0.11879 0.46964 0.75498 0.0
H2592 H 0.12243 0.47337 0.47925 0.0
H2593 H 0.0936 0.48939 0.4879 0.0
H2594 H 0.99686 0.48469 0.43045 0.0
H2595 H 0.02599 0.46856 0.42138 0.0
H2596 H 0.0335 0.50393 0.4308 0.0
H2597 H 0.98193 0.49204 0.52862 0.0
H2598 H 0.03684 0.48995 0.52205 0.0
H2599 H 0.99739 0.48363 0.5036 0.0
C2600 C 0.09532 0.47577 0.46817 0.0
C2601 C 0.07616 0.46966 0.44981 0.0
C2602 C 0.0788 0.48492 0.47325 0.0
C2603 C 0.04255 0.48812 0.46027 0.0
C2604 C 0.02468 0.48229 0.44083 0.0
H2605 H 0.88768 0.5397 0.47786 0.0
H2606 H 0.9187 0.52444 0.46355 0.0
C2607 C 0.04139 0.47311 0.43562 0.0
C2608 C 0.02251 0.49736 0.46802 0.0
H2609 H 0.97736 0.50884 0.51972 0.0
C2610 C 0.02094 0.505 0.45015 0.0
C2611 C 0.00615 0.49872 0.49331 0.0
C2612 C 0.00523 0.49063 0.51296 0.0
C2613 C 0.00445 0.51407 0.45717 0.0
C2614 C 0.9886 0.51546 0.48258 0.0
C2615 C 0.98981 0.50778 0.50032 0.0
C2616 C 0.97012 0.52478 0.49113 0.0
C2617 C 0.00511 0.52217 0.43756 0.0
C2618 C 0.98809 0.52991 0.51189 0.0
C2619 C 0.97027 0.53863 0.52027 0.0
C2620 C 0.93396 0.54232 0.50813 0.0
C2621 C 0.91577 0.53709 0.48757 0.0
C2622 C 0.93362 0.52839 0.47921 0.0
H2623 H 0.02765 0.52069 0.42152 0.0
H2624 H 0.97316 0.52297 0.429 0.0
H2625 H 0.01378 0.52913 0.44686 0.0
H2626 H 0.0161 0.52719 0.5215 0.0
H2627 H 0.98497 0.54248 0.53618 0.0
H2628 H 0.35979 0.71369 0.48873 0.0
H2629 H 0.33231 0.72942 0.4757 0.0
H2630 H 0.22836 0.72616 0.52897 0.0
H2631 H 0.25568 0.71027 0.54216 0.0
H2632 H 0.20561 0.73189 0.47706 0.0
H2633 H 0.3333 0.75483 0.51765 0.0
H2634 H 0.3515 0.74497 0.49794 0.0
H2635 H 0.32468 0.74251 0.52794 0.0
C2636 C 0.33123 0.71632 0.49788 0.0
C2637 C 0.30993 0.71074 0.51655 0.0
C2638 C 0.31571 0.72535 0.49047 0.0
C2639 C 0.27864 0.729 0.5016 0.0
C2640 C 0.25721 0.72347 0.52028 0.0
H2641 H 0.13165 0.78083 0.4732 0.0
H2642 H 0.15679 0.76496 0.48678 0.0
C2643 C 0.27287 0.71442 0.52783 0.0
C2644 C 0.26165 0.73843 0.49284 0.0
H2645 H 0.28552 0.76244 0.48857 0.0
C2646 C 0.22284 0.73859 0.47974 0.0
C2647 C 0.28445 0.74713 0.4962 0.0
C2648 C 0.32563 0.74741 0.51089 0.0
C2649 C 0.20661 0.74721 0.46938 0.0
C2650 C 0.22948 0.75592 0.47267 0.0
C2651 C 0.26819 0.75575 0.48592 0.0
C2652 C 0.21329 0.76534 0.46323 0.0
C2653 C 0.16566 0.74688 0.45445 0.0
C2654 C 0.23699 0.77091 0.44569 0.0
C2655 C 0.2228 0.78006 0.43796 0.0
C2656 C 0.1848 0.7838 0.44781 0.0
C2657 C 0.16094 0.77814 0.46511 0.0
C2658 C 0.17514 0.76903 0.47282 0.0
H2659 H 0.15856 0.73947 0.44739 0.0
H2660 H 0.13946 0.74915 0.46737 0.0
H2661 H 0.1665 0.75187 0.43757 0.0
H2662 H 0.26668 0.76821 0.43818 0.0
H2663 H 0.24197 0.78426 0.42471 0.0
H2664 H 0.65051 0.46572 0.24967 0.0
H2665 H 0.67446 0.48213 0.24038 0.0
H2666 H 0.76656 0.48 0.30169 0.0
H2667 H 0.74299 0.46346 0.31101 0.0
H2668 H 0.67743 0.49848 0.27309 0.0
H2669 H 0.83687 0.48799 0.23786 0.0
H2670 H 0.79459 0.47935 0.24172 0.0
H2671 H 0.82312 0.48361 0.26957 0.0
C2672 C 0.67585 0.46873 0.26124 0.0
C2673 C 0.69503 0.46326 0.281 0.0
C2674 C 0.68944 0.47812 0.2559 0.0
C2675 C 0.72264 0.48224 0.27009 0.0
C2676 C 0.74136 0.47689 0.29021 0.0
H2677 H 0.85252 0.53733 0.25591 0.0
H2678 H 0.82755 0.52139 0.26941 0.0
C2679 C 0.72771 0.46747 0.29561 0.0
C2680 C 0.73749 0.49212 0.26362 0.0
H2681 H 0.82213 0.50469 0.24029 0.0
C2682 C 0.70907 0.49986 0.26593 0.0
C2683 C 0.77876 0.49387 0.25426 0.0
C2684 C 0.8101 0.48577 0.25046 0.0
C2685 C 0.72093 0.50933 0.25936 0.0
C2686 C 0.76206 0.51107 0.24974 0.0
C2687 C 0.79059 0.50334 0.24764 0.0
C2688 C 0.77626 0.52085 0.24175 0.0
C2689 C 0.68954 0.51741 0.26319 0.0
C2690 C 0.75591 0.52582 0.22154 0.0
C2691 C 0.77006 0.53497 0.2138 0.0
C2692 C 0.80502 0.53927 0.22601 0.0
C2693 C 0.82544 0.53424 0.24613 0.0
C2694 C 0.81125 0.52512 0.25387 0.0
H2695 H 0.66417 0.51534 0.277 0.0
H2696 H 0.70533 0.52404 0.27051 0.0
H2697 H 0.67452 0.51915 0.24432 0.0
H2698 H 0.7294 0.52258 0.21153 0.0
H2699 H 0.75383 0.53863 0.19813 0.0
H2700 H 0.75576 0.21402 0.56872 0.0
H2701 H 0.72683 0.22987 0.55657 0.0
H2702 H 0.8329 0.23464 0.50576 0.0
H2703 H 0.86174 0.2189 0.51754 0.0
H2704 H 0.76384 0.24909 0.55875 0.0
H2705 H 0.72834 0.23733 0.45813 0.0
H2706 H 0.73921 0.22888 0.48398 0.0
H2707 H 0.78177 0.23516 0.46822 0.0
C2708 C 0.77306 0.21849 0.55515 0.0
C2709 C 0.81082 0.21517 0.54392 0.0
C2710 C 0.7565 0.22752 0.54822 0.0
C2711 C 0.77736 0.23332 0.52989 0.0
C2712 C 0.8159 0.23019 0.51953 0.0
H2713 H 0.73515 0.28756 0.45064 0.0
H2714 H 0.76216 0.27215 0.46722 0.0
C2715 C 0.83241 0.2212 0.52641 0.0
C2716 C 0.75869 0.24256 0.521 0.0
H2717 H 0.72241 0.25413 0.4669 0.0
C2718 C 0.75444 0.25019 0.53874 0.0
C2719 C 0.74653 0.24395 0.49486 0.0
C2720 C 0.74878 0.23588 0.4752 0.0
C2721 C 0.73948 0.25929 0.53082 0.0
C2722 C 0.72782 0.26071 0.50459 0.0
C2723 C 0.73159 0.25303 0.48696 0.0
C2724 C 0.71164 0.2701 0.49494 0.0
C2725 C 0.73745 0.26738 0.55042 0.0
C2726 C 0.674 0.27398 0.50477 0.0
C2727 C 0.65853 0.28277 0.49536 0.0
C2728 C 0.68027 0.28781 0.47579 0.0
C2729 C 0.71772 0.28386 0.46575 0.0
C2730 C 0.73319 0.27506 0.4752 0.0
H2731 H 0.75736 0.26585 0.56768 0.0
H2732 H 0.7478 0.27433 0.54171 0.0
H2733 H 0.70437 0.26825 0.5571 0.0
H2734 H 0.65636 0.27017 0.51958 0.0
H2735 H 0.62945 0.2856 0.50341 0.0
H2736 H 0.61883 0.28662 0.72552 0.0
H2737 H 0.59037 0.27094 0.71247 0.0
H2738 H 0.49363 0.27331 0.77096 0.0
H2739 H 0.52169 0.2891 0.78404 0.0
H2740 H 0.57972 0.25411 0.74217 0.0
H2741 H 0.42679 0.26769 0.70416 0.0
H2742 H 0.47103 0.27556 0.71064 0.0
H2743 H 0.43851 0.27132 0.73684 0.0
C2744 C 0.59147 0.28382 0.73564 0.0
C2745 C 0.57235 0.28912 0.75574 0.0
C2746 C 0.57529 0.27486 0.72814 0.0
C2747 C 0.53954 0.27104 0.74046 0.0
C2748 C 0.52077 0.27622 0.76086 0.0
H2749 H 0.39533 0.21867 0.7313 0.0
H2750 H 0.42421 0.2347 0.73971 0.0
C2751 C 0.53699 0.2852 0.76842 0.0
C2752 C 0.52237 0.26157 0.73213 0.0
H2753 H 0.43458 0.25066 0.70723 0.0
C2754 C 0.5481 0.25335 0.73437 0.0
C2755 C 0.48116 0.26063 0.72188 0.0
C2756 C 0.45282 0.26927 0.71798 0.0
C2757 C 0.53326 0.24415 0.72734 0.0
C2758 C 0.49187 0.24319 0.71735 0.0
C2759 C 0.46634 0.25143 0.71482 0.0
C2760 C 0.47358 0.23362 0.71088 0.0
C2761 C 0.56149 0.23549 0.73148 0.0
C2762 C 0.49119 0.22777 0.69141 0.0
C2763 C 0.47472 0.21854 0.68652 0.0
C2764 C 0.4403 0.21507 0.70099 0.0
C2765 C 0.42197 0.2211 0.71986 0.0
C2766 C 0.4384 0.23028 0.7247 0.0
H2767 H 0.58847 0.23719 0.74448 0.0
H2768 H 0.54345 0.22937 0.73993 0.0
H2769 H 0.57443 0.23312 0.71253 0.0
H2770 H 0.5179 0.2303 0.68019 0.0
H2771 H 0.4894 0.21408 0.67181 0.0
H2772 H 0.37071 0.03539 0.48288 0.0
H2773 H 0.402 0.02027 0.46768 0.0
H2774 H 0.50434 0.02373 0.52206 0.0
H2775 H 0.47285 0.03881 0.53771 0.0
H2776 H 0.48045 0.01727 0.44539 0.0
H2777 H 0.46415 0.99625 0.53649 0.0
H2778 H 0.43667 0.00751 0.53111 0.0
H2779 H 0.49132 0.00754 0.54056 0.0
C2780 C 0.39972 0.0329 0.49177 0.0
C2781 C 0.41921 0.03827 0.51162 0.0
C2782 C 0.4176 0.02427 0.48299 0.0
C2783 C 0.4552 0.02082 0.49393 0.0
C2784 C 0.47484 0.02617 0.5137 0.0
H2785 H 0.61962 0.97224 0.47063 0.0
H2786 H 0.58765 0.9878 0.48101 0.0
C2787 C 0.45691 0.0348 0.52256 0.0
C2788 C 0.4743 0.01172 0.48425 0.0
H2789 H 0.50629 0.98926 0.50331 0.0
C2790 C 0.4859 0.01111 0.45799 0.0
C2791 C 0.48113 0.00369 0.50071 0.0
C2792 C 0.46732 0.00371 0.52872 0.0
C2793 C 0.50527 0.00278 0.44792 0.0
C2794 C 0.51278 0.99484 0.46452 0.0
C2795 C 0.50067 0.9954 0.49067 0.0
C2796 C 0.53408 0.98591 0.45552 0.0
C2797 C 0.51857 0.00261 0.41984 0.0
C2798 C 0.51495 0.97977 0.43728 0.0
C2799 C 0.53327 0.97083 0.4312 0.0
C2800 C 0.5708 0.9679 0.44346 0.0
C2801 C 0.59063 0.97426 0.4609 0.0
C2802 C 0.5724 0.98316 0.4669 0.0
H2803 H 0.51848 0.00996 0.41112 0.0
H2804 H 0.55065 0.99946 0.41778 0.0
H2805 H 0.49632 0.99802 0.40868 0.0
H2806 H 0.48504 0.98171 0.42854 0.0
H2807 H 0.51713 0.96605 0.41782 0.0
H2808 H 0.51572 0.78521 0.3158 0.0
H2809 H 0.4909 0.76909 0.30282 0.0
H2810 H 0.59204 0.76712 0.2471 0.0
H2811 H 0.61716 0.78307 0.26001 0.0
H2812 H 0.46489 0.76386 0.25231 0.0
H2813 H 0.59914 0.74115 0.28493 0.0
H2814 H 0.59087 0.75332 0.29655 0.0
H2815 H 0.61437 0.75128 0.26528 0.0
C2816 C 0.53302 0.78126 0.30108 0.0
C2817 C 0.56843 0.7854 0.28897 0.0
C2818 C 0.51875 0.77208 0.29364 0.0
C2819 C 0.53994 0.76687 0.27421 0.0
C2820 C 0.5757 0.77093 0.26247 0.0
H2821 H 0.49646 0.71272 0.19165 0.0
H2822 H 0.52317 0.7285 0.20612 0.0
C2823 C 0.58986 0.78008 0.26981 0.0
C2824 C 0.52333 0.75746 0.26493 0.0
H2825 H 0.54928 0.73368 0.25678 0.0
C2826 C 0.48317 0.75724 0.25347 0.0
C2827 C 0.54746 0.74886 0.26623 0.0
C2828 C 0.59021 0.74861 0.27911 0.0
C2829 C 0.46672 0.74868 0.24288 0.0
C2830 C 0.49081 0.74008 0.2442 0.0
C2831 C 0.53099 0.7403 0.25566 0.0
C2832 C 0.47414 0.7307 0.23476 0.0
C2833 C 0.42405 0.74896 0.22988 0.0
C2834 C 0.43798 0.7267 0.24616 0.0
C2835 C 0.42271 0.71774 0.23796 0.0
C2836 C 0.44345 0.71255 0.21825 0.0
C2837 C 0.47969 0.71656 0.20677 0.0
C2838 C 0.49502 0.72556 0.21506 0.0
H2839 H 0.41522 0.75643 0.22406 0.0
H2840 H 0.42346 0.74426 0.21242 0.0
H2841 H 0.39976 0.74629 0.24364 0.0
H2842 H 0.42187 0.73044 0.26174 0.0
H2843 H 0.39485 0.71484 0.24733 0.0
H2844 H 0.51318 0.4609 0.95556 0.0
H2845 H 0.48191 0.47596 0.97195 0.0
H2846 H 0.58644 0.47941 0.02472 0.0
H2847 H 0.61793 0.46452 0.00842 0.0
H2848 H 0.45862 0.48014 0.02431 0.0
H2849 H 0.58009 0.5057 0.98791 0.0
H2850 H 0.57498 0.49352 0.97569 0.0
H2851 H 0.6009 0.49572 0.00614 0.0
C2852 C 0.52964 0.46492 0.97047 0.0
C2853 C 0.56809 0.46154 0.98061 0.0
C2854 C 0.51172 0.4735 0.97986 0.0
C2855 C 0.53217 0.47885 -0.00069 0.0
C2856 C 0.57054 0.47548 0.00937 0.0
H2857 H 0.47738 0.5326 0.08116 0.0
H2858 H 0.50679 0.51687 0.06841 0.0
C2859 C 0.58838 0.46694 9e-05 0.0
C2860 C 0.51293 0.48779 0.00982 0.0
H2861 H 0.52995 0.51199 0.01764 0.0
C2862 C 0.47405 0.48712 0.02275 0.0
C2863 C 0.53337 0.49685 0.00794 0.0
C2864 C 0.57446 0.49805 0.99348 0.0
C2865 C 0.45527 0.49528 0.03415 0.0
C2866 C 0.47564 0.50435 0.03217 0.0
C2867 C 0.51459 0.50501 0.01932 0.0
C2868 C 0.45602 0.51338 0.04192 0.0
C2869 C 0.41415 0.49409 0.04856 0.0
C2870 C 0.41766 0.51657 0.03142 0.0
C2871 C 0.40087 0.52549 0.03866 0.0
C2872 C 0.42223 0.53145 0.05645 0.0
C2873 C 0.46009 0.52814 0.06753 0.0
C2874 C 0.47698 0.51919 0.0602 0.0
H2875 H 0.40924 0.48648 0.05485 0.0
H2876 H 0.41295 0.49885 0.06589 0.0
H2877 H 0.38765 0.49609 0.03555 0.0
H2878 H 0.40138 0.5123 0.01692 0.0
H2879 H 0.3717 0.52784 0.02968 0.0
H2880 H 0.07885 0.33452 0.23177 0.0
H2881 H 0.08965 0.33716 0.18501 0.0
H2882 H 0.20139 0.31934 0.18765 0.0
H2883 H 0.18864 0.31608 0.23343 0.0
H2884 H 0.1545 0.34384 0.15186 0.0
H2885 H 0.12399 0.30459 0.13977 0.0
H2886 H 0.11583 0.31073 0.17016 0.0
H2887 H 0.16808 0.30706 0.16052 0.0
C2888 C 0.10597 0.33132 0.22228 0.0
C2889 C 0.13364 0.32532 0.23613 0.0
C2890 C 0.11232 0.33288 0.19576 0.0
C2891 C 0.14614 0.32838 0.18293 0.0
C2892 C 0.17489 0.3228 0.19715 0.0
H2893 H 0.20467 0.333 0.01625 0.0
H2894 H 0.2066 0.33581 0.06344 0.0
C2895 C 0.16793 0.32105 0.22335 0.0
C2896 C 0.14829 0.32837 0.15435 0.0
H2897 H 0.14593 0.3131 0.10264 0.0
C2898 C 0.15237 0.33715 0.14095 0.0
C2899 C 0.14515 0.31961 0.14031 0.0
C2900 C 0.13759 0.30998 0.15339 0.0
C2901 C 0.15314 0.33741 0.11368 0.0
C2902 C 0.15074 0.32861 0.09973 0.0
C2903 C 0.14762 0.31985 0.11332 0.0
C2904 C 0.14828 0.32811 0.07108 0.0
C2905 C 0.15557 0.34707 0.10022 0.0
C2906 C 0.1155 0.32273 0.05985 0.0
C2907 C 0.11543 0.32084 0.03344 0.0
C2908 C 0.14679 0.32471 0.01739 0.0
C2909 C 0.17948 0.33021 0.02832 0.0
C2910 C 0.1803 0.33189 0.05512 0.0
H2911 H 0.18892 0.34857 0.09501 0.0
H2912 H 0.13662 0.34711 0.08216 0.0
H2913 H 0.14441 0.35302 0.11297 0.0
H2914 H 0.09064 0.31967 0.07172 0.0
H2915 H 0.09115 0.31616 0.02563 0.0
H2916 H 0.07086 0.9131 0.02436 0.0
H2917 H 0.08161 0.90789 0.06952 0.0
H2918 H 0.16326 0.93249 0.08214 0.0
H2919 H 0.15505 0.93716 0.0369 0.0
H2920 H 0.19533 0.91792 0.1047 0.0
H2921 H 0.02498 0.91881 0.13076 0.0
H2922 H 0.03878 0.91017 0.10625 0.0
H2923 H 0.0438 0.92291 0.09972 0.0
C2924 C 0.09129 0.91729 0.03694 0.0
C2925 C 0.11277 0.92539 0.02738 0.0
C2926 C 0.09712 0.91438 0.06271 0.0
C2927 C 0.12274 0.91987 0.07944 0.0
C2928 C 0.14359 0.92807 0.06968 0.0
H2929 H 0.10919 0.93656 0.23212 0.0
H2930 H 0.10027 0.93157 0.18717 0.0
C2931 C 0.1388 0.93077 0.04389 0.0
C2932 C 0.12759 0.91748 0.10733 0.0
H2933 H 0.07305 0.91632 0.1642 0.0
C2934 C 0.1686 0.91739 0.11769 0.0
C2935 C 0.09262 0.91681 0.12432 0.0
C2936 C 0.04757 0.91725 0.11481 0.0
C2937 C 0.17573 0.91758 0.14449 0.0
C2938 C 0.14069 0.91735 0.1615 0.0
C2939 C 0.09983 0.9165 0.15114 0.0
C2940 C 0.14485 0.91969 0.18944 0.0
C2941 C 0.22047 0.91888 0.15403 0.0
C2942 C 0.17276 0.91467 0.20585 0.0
C2943 C 0.1789 0.91777 0.23142 0.0
C2944 C 0.15553 0.92557 0.24113 0.0
C2945 C 0.12696 0.93041 0.22501 0.0
C2946 C 0.12176 0.92752 0.1994 0.0
H2947 H 0.24241 0.92093 0.13814 0.0
H2948 H 0.22208 0.92454 0.16926 0.0
H2949 H 0.23192 0.91197 0.16241 0.0
H2950 H 0.19011 0.90846 0.19885 0.0
H2951 H 0.20126 0.91401 0.24369 0.0
H2952 H 0.91997 0.66985 0.76904 0.0
H2953 H 0.90956 0.66719 0.81569 0.0
H2954 H 0.7935 0.68353 0.81242 0.0
H2955 H 0.80627 0.68696 0.76685 0.0
H2956 H 0.83961 0.69038 0.8473 0.0
H2957 H 0.83891 0.65079 0.86195 0.0
H2958 H 0.88531 0.65462 0.84491 0.0
H2959 H 0.83417 0.6562 0.83023 0.0
C2960 C 0.89191 0.67268 0.77836 0.0
C2961 C 0.86297 0.67828 0.76431 0.0
C2962 C 0.88563 0.67105 0.80487 0.0
C2963 C 0.85017 0.67496 0.81751 0.0
C2964 C 0.82083 0.68034 0.80312 0.0
H2965 H 0.79659 0.67072 0.98442 0.0
H2966 H 0.79447 0.66785 0.93723 0.0
C2967 C 0.82779 0.68219 0.77698 0.0
C2968 C 0.84689 0.67486 0.84616 0.0
H2969 H 0.85316 0.66054 0.90002 0.0
C2970 C 0.84181 0.6838 0.85869 0.0
C2971 C 0.84946 0.66631 0.86115 0.0
C2972 C 0.8518 0.65643 0.84883 0.0
C2973 C 0.84017 0.68447 0.88567 0.0
C2974 C 0.84578 0.67602 0.90068 0.0
C2975 C 0.84954 0.66702 0.88836 0.0
C2976 C 0.84951 0.67663 0.92914 0.0
C2977 C 0.83253 0.69426 0.89779 0.0
C2978 C 0.88149 0.68234 0.93999 0.0
C2979 C 0.88219 0.6841 0.96652 0.0
C2980 C 0.85208 0.67983 0.98278 0.0
C2981 C 0.82057 0.67392 0.97212 0.0
C2982 C 0.8195 0.67225 0.94536 0.0
H2983 H 0.81579 0.69919 0.88423 0.0
H2984 H 0.81364 0.69365 0.91586 0.0
H2985 H 0.86331 0.69764 0.90264 0.0
H2986 H 0.90513 0.68572 0.92779 0.0
H2987 H 0.90585 0.68896 0.97428 0.0
H2988 H 0.83203 0.08931 0.76209 0.0
H2989 H 0.83785 0.09597 0.80604 0.0
H2990 H 0.93047 0.0741 0.82464 0.0
H2991 H 0.92722 0.06812 0.78034 0.0
H2992 H 0.8139 0.08848 0.84599 0.0
H2993 H 0.9818 0.09452 0.8651 0.0
H2994 H 0.96157 0.09309 0.83269 0.0
H2995 H 0.97729 0.08267 0.85151 0.0
C2996 C 0.85474 0.08623 0.77545 0.0
C2997 C 0.87988 0.07838 0.76793 0.0
C2998 C 0.858 0.08999 0.80055 0.0
C2999 C 0.88515 0.08568 0.81881 0.0
C3000 C 0.91067 0.07789 0.8109 0.0
H3001 H 0.82558 0.06895 0.9687 0.0
H3002 H 0.82335 0.07457 0.92405 0.0
C3003 C 0.90846 0.07437 0.78561 0.0
C3004 C 0.88209 0.08818 0.84684 0.0
H3005 H 0.94072 0.08843 0.90221 0.0
C3006 C 0.84181 0.08875 0.85814 0.0
C3007 C 0.91804 0.08893 0.86304 0.0
C3008 C 0.96207 0.08989 0.85234 0.0
C3009 C 0.83664 0.08915 0.88511 0.0
C3010 C 0.87252 0.08838 0.90135 0.0
C3011 C 0.91285 0.08873 0.89003 0.0
C3012 C 0.86919 0.08607 0.92948 0.0
C3013 C 0.7927 0.09036 0.89575 0.0
C3014 C 0.89634 0.09045 0.94763 0.0
C3015 C 0.89893 0.0869 0.97298 0.0
C3016 C 0.87322 0.07919 0.98082 0.0
C3017 C 0.84477 0.0751 0.96318 0.0
C3018 C 0.84316 0.07841 0.93768 0.0
H3019 H 0.77322 0.09494 0.8827 0.0
H3020 H 0.77702 0.0832 0.8971 0.0
H3021 H 0.79352 0.09375 0.91516 0.0
H3022 H 0.9169 0.09632 0.94189 0.0
H3023 H 0.92155 0.09004 0.98631 0.0
H3024 H 0.04637 0.831 0.71641 0.0
H3025 H 0.04494 0.83275 0.6688 0.0
H3026 H 0.15337 0.81398 0.66288 0.0
H3027 H 0.15373 0.81196 0.70987 0.0
H3028 H 0.1066 0.8394 0.6334 0.0
H3029 H 0.06669 0.80097 0.61674 0.0
H3030 H 0.06265 0.80656 0.64826 0.0
H3031 H 0.11282 0.80224 0.63659 0.0
C3032 C 0.06978 0.8273 0.70475 0.0
C3033 C 0.1009 0.82158 0.71651 0.0
C3034 C 0.06908 0.82832 0.67776 0.0
C3035 C 0.0989 0.82344 0.66245 0.0
C3036 C 0.1298 0.81771 0.67436 0.0
H3037 H 0.18739 0.82985 0.50597 0.0
H3038 H 0.17207 0.83234 0.55218 0.0
C3039 C 0.13031 0.81665 0.70114 0.0
C3040 C 0.09746 0.82397 0.63394 0.0
H3041 H 0.09596 0.80952 0.58062 0.0
C3042 C 0.10353 0.83292 0.62169 0.0
C3043 C 0.0927 0.81552 0.61885 0.0
C3044 C 0.08289 0.8058 0.63079 0.0
C3045 C 0.10674 0.83357 0.59458 0.0
C3046 C 0.1051 0.82499 0.57962 0.0
C3047 C 0.0975 0.81611 0.59199 0.0
C3048 C 0.11198 0.82482 0.55123 0.0
C3049 C 0.11166 0.8434 0.58233 0.0
C3050 C 0.08396 0.8196 0.53549 0.0
C3051 C 0.09363 0.81785 0.50963 0.0
C3052 C 0.13036 0.82171 0.49859 0.0
C3053 C 0.1582 0.82708 0.51402 0.0
C3054 C 0.14914 0.82861 0.54026 0.0
H3055 H 0.14575 0.84505 0.58016 0.0
H3056 H 0.09667 0.84368 0.5629 0.0
H3057 H 0.09753 0.84913 0.59469 0.0
H3058 H 0.05538 0.8165 0.54351 0.0
H3059 H 0.07282 0.81326 0.49841 0.0
H3060 H 0.04204 0.43843 0.7319 0.0
H3061 H 0.02036 0.43565 0.68731 0.0
H3062 H 0.13126 0.41805 0.67515 0.0
H3063 H 0.15006 0.41992 0.721 0.0
H3064 H 0.05767 0.44227 0.65005 0.0
H3065 H 0.05285 0.40306 0.63181 0.0
H3066 H 0.05472 0.40794 0.66425 0.0
H3067 H 0.10267 0.40613 0.64596 0.0
C3068 C 0.06039 0.4335 0.72008 0.0
C3069 C 0.09641 0.42897 0.7301 0.0
C3070 C 0.04838 0.43203 0.69446 0.0
C3071 C 0.07363 0.42647 0.6778 0.0
C3072 C 0.11017 0.42202 0.68775 0.0
H3073 H 0.13408 0.44206 0.52648 0.0
H3074 H 0.12341 0.43905 0.57254 0.0
C3075 C 0.12132 0.42321 0.71381 0.0
C3076 C 0.06552 0.42674 0.64947 0.0
H3077 H 0.06873 0.41323 0.59405 0.0
C3078 C 0.05898 0.43584 0.63803 0.0
C3079 C 0.0665 0.41841 0.63353 0.0
C3080 C 0.06907 0.40834 0.64463 0.0
C3081 C 0.05596 0.4369 0.61118 0.0
C3082 C 0.06167 0.42872 0.59519 0.0
C3083 C 0.06532 0.41952 0.60644 0.0
C3084 C 0.06877 0.42986 0.56709 0.0
C3085 C 0.04786 0.44686 0.60022 0.0
C3086 C 0.04237 0.42541 0.54875 0.0
C3087 C 0.04903 0.42699 0.52223 0.0
C3088 C 0.08268 0.43284 0.51405 0.0
C3089 C 0.10868 0.4373 0.53244 0.0
C3090 C 0.10228 0.43568 0.5587 0.0
H3091 H 0.02926 0.45134 0.61398 0.0
H3092 H 0.07847 0.45057 0.59698 0.0
H3093 H 0.03064 0.44649 0.58149 0.0
H3094 H 0.01635 0.42088 0.55495 0.0
H3095 H 0.02825 0.42364 0.50817 0.0
H3096 H 0.94372 0.16958 0.27206 0.0
H3097 H 0.9362 0.16696 0.31902 0.0
H3098 H 0.82077 0.18357 0.31843 0.0
H3099 H 0.83055 0.1869 0.27255 0.0
H3100 H 0.86949 0.19006 0.35301 0.0
H3101 H 0.86529 0.15026 0.36482 0.0
H3102 H 0.91179 0.15434 0.34822 0.0
H3103 H 0.8608 0.15604 0.33357 0.0
C3104 C 0.9165 0.1725 0.28208 0.0
C3105 C 0.88673 0.1781 0.26869 0.0
C3106 C 0.91191 0.17091 0.30876 0.0
C3107 C 0.87736 0.17488 0.32219 0.0
C3108 C 0.84744 0.18035 0.30851 0.0
H3109 H 0.80401 0.16886 0.48441 0.0
H3110 H 0.81129 0.16648 0.43725 0.0
C3111 C 0.85269 0.18214 0.28221 0.0
C3112 C 0.87478 0.17454 0.35086 0.0
H3113 H 0.87489 0.15961 0.40367 0.0
C3114 C 0.87023 0.18337 0.36397 0.0
C3115 C 0.87564 0.16582 0.36523 0.0
C3116 C 0.87822 0.15607 0.35222 0.0
C3117 C 0.86619 0.18376 0.3909 0.0
C3118 C 0.86893 0.1751 0.40537 0.0
C3119 C 0.87328 0.16623 0.39244 0.0
C3120 C 0.86755 0.1753 0.43397 0.0
C3121 C 0.85823 0.19346 0.40347 0.0
C3122 C 0.8972 0.18084 0.44758 0.0
C3123 C 0.89245 0.18237 0.47406 0.0
C3124 C 0.85927 0.17797 0.48763 0.0
C3125 C 0.83028 0.17215 0.47427 0.0
C3126 C 0.83459 0.17075 0.44751 0.0
H3127 H 0.84423 0.19869 0.38956 0.0
H3128 H 0.83669 0.19279 0.42036 0.0
H3129 H 0.88864 0.19652 0.4103 0.0
H3130 H 0.92311 0.18431 0.43752 0.0
H3131 H 0.91423 0.18718 0.48385 0.0
H3132 H 0.91998 0.59343 0.47641 0.0
H3133 H 0.91495 0.60035 0.43265 0.0
H3134 H 0.81806 0.57953 0.41374 0.0
H3135 H 0.82157 0.57309 0.45755 0.0
H3136 H 0.93645 0.5921 0.39181 0.0
H3137 H 0.77039 0.60128 0.37478 0.0
H3138 H 0.79323 0.6006 0.40677 0.0
H3139 H 0.77221 0.5899 0.39129 0.0
C3140 C 0.89664 0.59062 0.46302 0.0
C3141 C 0.8704 0.58292 0.47029 0.0
C3142 C 0.89374 0.59456 0.4381 0.0
C3143 C 0.86544 0.59063 0.41991 0.0
C3144 C 0.83878 0.58302 0.42755 0.0
H3145 H 0.91223 0.57048 0.27345 0.0
H3146 H 0.9189 0.57731 0.31663 0.0
C3147 C 0.84107 0.57925 0.45255 0.0
C3148 C 0.86847 0.5932 0.392 0.0
H3149 H 0.80734 0.59406 0.33782 0.0
C3150 C 0.90824 0.59283 0.38006 0.0
C3151 C 0.83227 0.59462 0.37643 0.0
C3152 C 0.78967 0.59675 0.38805 0.0
C3153 C 0.91217 0.59275 0.353 0.0
C3154 C 0.87526 0.59244 0.33747 0.0
C3155 C 0.83588 0.59393 0.34941 0.0
C3156 C 0.87604 0.5893 0.30982 0.0
C3157 C 0.95592 0.59282 0.3416 0.0
C3158 C 0.8488 0.59351 0.29141 0.0
C3159 C 0.8433 0.58924 0.26704 0.0
C3160 C 0.86638 0.58097 0.26033 0.0
C3161 C 0.89499 0.57702 0.27809 0.0
C3162 C 0.89926 0.58104 0.30272 0.0
H3163 H 0.97716 0.59754 0.35319 0.0
H3164 H 0.96936 0.58542 0.34213 0.0
H3165 H 0.95554 0.59547 0.32139 0.0
H3166 H 0.83035 0.59985 0.29626 0.0
H3167 H 0.82063 0.59229 0.25361 0.0
H3168 H 0.57082 0.31906 0.51961 0.0
H3169 H 0.56333 0.32622 0.56232 0.0
H3170 H 0.65113 0.34881 0.54095 0.0
H3171 H 0.66217 0.34083 0.49903 0.0
H3172 H 0.67466 0.34358 0.58212 0.0
H3173 H 0.50552 0.34617 0.59959 0.0
H3174 H 0.51322 0.33403 0.58876 0.0
H3175 H 0.52581 0.34403 0.56749 0.0
C3176 C 0.58775 0.32568 0.52395 0.0
C3177 C 0.61666 0.3295 0.5062 0.0
C3178 C 0.58292 0.3299 0.54828 0.0
C3179 C 0.60579 0.33826 0.55501 0.0
C3180 C 0.63304 0.34238 0.53645 0.0
H3181 H 0.56919 0.34025 0.72247 0.0
H3182 H 0.56956 0.34771 0.67923 0.0
C3183 C 0.6393 0.33787 0.51249 0.0
C3184 C 0.60693 0.34149 0.58257 0.0
H3185 H 0.54789 0.34032 0.63769 0.0
C3186 C 0.64652 0.34319 0.59403 0.0
C3187 C 0.57058 0.3415 0.5986 0.0
C3188 C 0.52641 0.34146 0.58778 0.0
C3189 C 0.65107 0.34369 0.62099 0.0
C3190 C 0.61575 0.34181 0.63697 0.0
C3191 C 0.57554 0.34135 0.6256 0.0
C3192 C 0.62049 0.33881 0.66447 0.0
C3193 C 0.69387 0.34602 0.63203 0.0
C3194 C 0.64926 0.33142 0.67076 0.0
C3195 C 0.64968 0.32738 0.69548 0.0
C3196 C 0.62086 0.3305 0.71425 0.0
C3197 C 0.59212 0.33788 0.70824 0.0
C3198 C 0.59237 0.34212 0.68362 0.0
H3199 H 0.7113 0.35107 0.61911 0.0
H3200 H 0.69083 0.3494 0.65142 0.0
H3201 H 0.71293 0.33932 0.63361 0.0
H3202 H 0.66989 0.32837 0.65618 0.0
H3203 H 0.67115 0.32147 0.69954 0.0
H3204 H 0.54888 0.92285 0.50828 0.0
H3205 H 0.54878 0.9208 0.55578 0.0
H3206 H 0.65854 0.93918 0.56137 0.0
H3207 H 0.65742 0.94156 0.51451 0.0
H3208 H 0.60917 0.91378 0.5904 0.0
H3209 H 0.57509 0.95242 0.60868 0.0
H3210 H 0.57046 0.94706 0.57692 0.0
H3211 H 0.62121 0.95085 0.58897 0.0
C3212 C 0.57292 0.92639 0.51983 0.0
C3213 C 0.60387 0.93213 0.50799 0.0
C3214 C 0.57297 0.9252 0.54678 0.0
C3215 C 0.60343 0.92991 0.562 0.0
C3216 C 0.6344 0.9356 0.55 0.0
H3217 H 0.67973 0.92116 0.72164 0.0
H3218 H 0.67025 0.91966 0.67452 0.0
C3219 C 0.6341 0.93685 0.52326 0.0
C3220 C 0.60238 0.92927 0.59053 0.0
H3221 H 0.60093 0.94333 0.64466 0.0
C3222 C 0.60678 0.9202 0.6024 0.0
C3223 C 0.59861 0.93765 0.60601 0.0
C3224 C 0.59062 0.94753 0.59449 0.0
C3225 C 0.60868 0.91933 0.62952 0.0
C3226 C 0.60742 0.9278 0.64495 0.0
C3227 C 0.60212 0.93682 0.63292 0.0
C3228 C 0.61135 0.92765 0.67359 0.0
C3229 C 0.61135 0.90937 0.64125 0.0
C3230 C 0.58222 0.93284 0.68861 0.0
C3231 C 0.58859 0.934 0.71511 0.0
C3232 C 0.62306 0.92961 0.72738 0.0
C3233 C 0.65218 0.92434 0.71258 0.0
C3234 C 0.64645 0.92339 0.68578 0.0
H3235 H 0.59811 0.9038 0.62801 0.0
H3236 H 0.64494 0.90753 0.64481 0.0
H3237 H 0.59415 0.90904 0.65993 0.0
H3238 H 0.55519 0.9363 0.67968 0.0
H3239 H 0.56694 0.93852 0.72595 0.0
H3240 H 0.40481 0.68187 0.46005 0.0
H3241 H 0.41171 0.67612 0.41566 0.0
H3242 H 0.32616 0.65259 0.43246 0.0
H3243 H 0.31677 0.65892 0.47672 0.0
H3244 H 0.4399 0.66075 0.39419 0.0
H3245 H 0.26831 0.66312 0.3713 0.0
H3246 H 0.28935 0.66748 0.40153 0.0
H3247 H 0.28276 0.65471 0.39621 0.0
C3248 C 0.38756 0.67546 0.45419 0.0
C3249 C 0.36068 0.67073 0.47158 0.0
C3250 C 0.39161 0.67213 0.42889 0.0
C3251 C 0.36912 0.66395 0.4205 0.0
C3252 C 0.34296 0.65905 0.4382 0.0
H3253 H 0.43832 0.66042 0.25453 0.0
H3254 H 0.42885 0.65353 0.29815 0.0
C3255 C 0.33789 0.66259 0.46346 0.0
C3256 C 0.37207 0.66116 0.39278 0.0
H3257 H 0.31451 0.66095 0.33698 0.0
C3258 C 0.41247 0.66063 0.38164 0.0
C3259 C 0.33615 0.66087 0.37646 0.0
C3260 C 0.2917 0.66163 0.38686 0.0
C3261 C 0.41826 0.6611 0.35473 0.0
C3262 C 0.38233 0.66151 0.33843 0.0
C3263 C 0.34195 0.66075 0.34951 0.0
C3264 C 0.38519 0.66463 0.31095 0.0
C3265 C 0.46269 0.66212 0.34444 0.0
C3266 C 0.36228 0.67283 0.30318 0.0
C3267 C 0.36636 0.67647 0.27819 0.0
C3268 C 0.39369 0.67203 0.26052 0.0
C3269 C 0.41686 0.66387 0.26802 0.0
C3270 C 0.41174 0.66001 0.29293 0.0
H3271 H 0.48596 0.66351 0.36014 0.0
H3272 H 0.47206 0.65533 0.33455 0.0
H3273 H 0.46474 0.66814 0.33025 0.0
H3274 H 0.34186 0.6766 0.31668 0.0
H3275 H 0.34881 0.68289 0.27282 0.0
H3276 H 0.40827 0.08995 0.48295 0.0
H3277 H 0.40581 0.09732 0.4397 0.0
H3278 H 0.31201 0.07632 0.41662 0.0
H3279 H 0.31226 0.06957 0.46016 0.0
H3280 H 0.43145 0.09008 0.39951 0.0
H3281 H 0.26605 0.09776 0.37697 0.0
H3282 H 0.28462 0.09626 0.40976 0.0
H3283 H 0.26764 0.08593 0.39095 0.0
C3284 C 0.38604 0.08721 0.46876 0.0
C3285 C 0.35974 0.07938 0.4748 0.0
C3286 C 0.38467 0.09138 0.44408 0.0
C3287 C 0.35816 0.08752 0.42479 0.0
C3288 C 0.33137 0.07977 0.43121 0.0
H3289 H 0.42489 0.07018 0.27802 0.0
H3290 H 0.42542 0.07631 0.32215 0.0
C3291 C 0.33183 0.07581 0.45606 0.0
C3292 C 0.36337 0.09036 0.39715 0.0
H3293 H 0.30793 0.09124 0.34067 0.0
C3294 C 0.40434 0.09064 0.38676 0.0
C3295 C 0.32856 0.09154 0.38025 0.0
C3296 C 0.28429 0.09298 0.39017 0.0
C3297 C 0.41109 0.09102 0.35993 0.0
C3298 C 0.37603 0.0905 0.34293 0.0
C3299 C 0.33518 0.09129 0.35339 0.0
C3300 C 0.38051 0.08788 0.31503 0.0
C3301 C 0.45584 0.09184 0.35032 0.0
C3302 C 0.35433 0.09209 0.29606 0.0
C3303 C 0.35245 0.0882 0.27104 0.0
C3304 C 0.37812 0.08035 0.2643 0.0
C3305 C 0.40573 0.07643 0.2827 0.0
C3306 C 0.40642 0.08005 0.30791 0.0
H3307 H 0.47467 0.09659 0.3633 0.0
H3308 H 0.471 0.08461 0.35047 0.0
H3309 H 0.45689 0.09486 0.33048 0.0
H3310 H 0.3339 0.0981 0.30091 0.0
H3311 H 0.33048 0.09121 0.2571 0.0
H3312 H 0.56694 0.81928 0.02093 0.0
H3313 H 0.54918 0.82285 0.06575 0.0
H3314 H 0.6663 0.83854 0.0741 0.0
H3315 H 0.68178 0.8358 0.02801 0.0
H3316 H 0.58989 0.81572 0.1022 0.0
H3317 H 0.5932 0.85522 0.11791 0.0
H3318 H 0.59144 0.84995 0.08588 0.0
H3319 H 0.64097 0.85118 0.10277 0.0
C3320 C 0.58771 0.82395 0.03195 0.0
C3321 C 0.62464 0.82767 0.02084 0.0
C3322 C 0.57786 0.82589 0.05767 0.0
C3323 C 0.606 0.83112 0.07331 0.0
C3324 C 0.64327 0.83481 0.06226 0.0
H3325 H 0.65254 0.81609 0.22881 0.0
H3326 H 0.65347 0.82019 0.18286 0.0
C3327 C 0.65244 0.83313 0.03609 0.0
C3328 C 0.59958 0.83117 0.10176 0.0
H3329 H 0.60369 0.84522 0.15624 0.0
C3330 C 0.592 0.82224 0.11382 0.0
C3331 C 0.60207 0.83965 0.11708 0.0
C3332 C 0.60689 0.84955 0.10517 0.0
C3333 C 0.58818 0.82148 0.14067 0.0
C3334 C 0.594 0.82981 0.15609 0.0
C3335 C 0.59989 0.83884 0.14424 0.0
C3336 C 0.59692 0.82895 0.18449 0.0
C3337 C 0.57867 0.81169 0.15231 0.0
C3338 C 0.56567 0.83285 0.2007 0.0
C3339 C 0.56567 0.83067 0.22722 0.0
C3340 C 0.5973 0.82471 0.23759 0.0
C3341 C 0.62873 0.82097 0.22133 0.0
C3342 C 0.62907 0.82324 0.19511 0.0
H3343 H 0.56246 0.8069 0.13817 0.0
H3344 H 0.60872 0.80815 0.15796 0.0
H3345 H 0.55855 0.81236 0.16986 0.0
H3346 H 0.54045 0.83721 0.19269 0.0
H3347 H 0.54073 0.83345 0.23949 0.0
H3348 H 0.59359 0.40944 0.01323 0.0
H3349 H 0.6073 0.40277 0.05668 0.0
H3350 H 0.68677 0.42736 0.07383 0.0
H3351 H 0.67578 0.43348 0.03012 0.0
H3352 H 0.7188 0.41223 0.09534 0.0
H3353 H 0.54648 0.41264 0.11748 0.0
H3354 H 0.5632 0.40446 0.09256 0.0
H3355 H 0.5668 0.41732 0.08743 0.0
C3356 C 0.61446 0.41326 0.02634 0.0
C3357 C 0.63419 0.42185 0.01856 0.0
C3358 C 0.62204 0.40951 0.05113 0.0
C3359 C 0.64744 0.41464 0.06877 0.0
C3360 C 0.66731 0.4232 0.06062 0.0
H3361 H 0.61716 0.4332 0.21628 0.0
H3362 H 0.6157 0.42726 0.1719 0.0
C3363 C 0.66085 0.42674 0.03573 0.0
C3364 C 0.65091 0.41187 0.09645 0.0
H3365 H 0.59266 0.41139 0.15182 0.0
C3366 C 0.69126 0.41186 0.1078 0.0
C3367 C 0.61488 0.41125 0.1126 0.0
C3368 C 0.57039 0.41147 0.10202 0.0
C3369 C 0.6965 0.41254 0.13476 0.0
C3370 C 0.66026 0.41265 0.15082 0.0
C3371 C 0.62031 0.41137 0.13952 0.0
C3372 C 0.66172 0.41587 0.17827 0.0
C3373 C 0.74044 0.41407 0.14534 0.0
C3374 C 0.6883 0.41154 0.19678 0.0
C3375 C 0.6902 0.41522 0.22208 0.0
C3376 C 0.66394 0.42291 0.22936 0.0
C3377 C 0.63711 0.42714 0.21106 0.0
C3378 C 0.6362 0.42371 0.18576 0.0
H3379 H 0.76367 0.41568 0.12977 0.0
H3380 H 0.74094 0.42013 0.15946 0.0
H3381 H 0.751 0.40741 0.15541 0.0
H3382 H 0.70746 0.40534 0.19176 0.0
H3383 H 0.71128 0.41193 0.23607 0.0
H3384 H 0.35201 0.18756 0.76886 0.0
H3385 H 0.3502 0.1847 0.81545 0.0
H3386 H 0.45927 0.16615 0.80904 0.0
H3387 H 0.45962 0.16863 0.76164 0.0
H3388 H 0.39822 0.15934 0.84498 0.0
H3389 H 0.43697 0.19786 0.86102 0.0
H3390 H 0.39057 0.19652 0.84145 0.0
H3391 H 0.44069 0.19225 0.82953 0.0
C3392 C 0.37488 0.18266 0.77731 0.0
C3393 C 0.40514 0.17807 0.76182 0.0
C3394 C 0.37414 0.18112 0.80391 0.0
C3395 C 0.40488 0.17531 0.81565 0.0
C3396 C 0.43521 0.17064 0.80022 0.0
H3397 H 0.43473 0.18615 0.97882 0.0
H3398 H 0.45051 0.18277 0.93362 0.0
C3399 C 0.43556 0.17209 0.77335 0.0
C3400 C 0.40658 0.17479 0.84418 0.0
H3401 H 0.40834 0.18934 0.89728 0.0
C3402 C 0.40117 0.16584 0.85659 0.0
C3403 C 0.41125 0.18327 0.85915 0.0
C3404 C 0.42066 0.193 0.84709 0.0
C3405 C 0.39868 0.16524 0.88377 0.0
C3406 C 0.40021 0.17385 0.89861 0.0
C3407 C 0.40692 0.18272 0.88603 0.0
C3408 C 0.39458 0.17406 0.92714 0.0
C3409 C 0.3948 0.15541 0.8962 0.0
C3410 C 0.35843 0.1701 0.9389 0.0
C3411 C 0.3505 0.17167 0.96528 0.0
C3412 C 0.37841 0.17729 0.98003 0.0
C3413 C 0.41401 0.18135 0.96817 0.0
C3414 C 0.42268 0.17953 0.94222 0.0
H3415 H 0.40885 0.1497 0.88372 0.0
H3416 H 0.41049 0.15521 0.91543 0.0
H3417 H 0.3609 0.15365 0.89883 0.0
H3418 H 0.33538 0.16618 0.92752 0.0
H3419 H 0.3221 0.16874 0.97396 0.0
H3420 H 0.32848 0.56003 0.99288 0.0
H3421 H 0.32567 0.56324 0.94639 0.0
H3422 H 0.438 0.58076 0.95244 0.0
H3423 H 0.43934 0.57797 -0.00038 0.0
H3424 H 0.37879 0.58825 0.91731 0.0
H3425 H 0.40895 0.54931 0.90012 0.0
H3426 H 0.36251 0.55133 0.91925 0.0
H3427 H 0.41345 0.55474 0.93179 0.0
C3428 C 0.35172 0.56483 0.98439 0.0
C3429 C 0.38332 0.56902 -0.0003 0.0
C3430 C 0.35044 0.56655 0.95784 0.0
C3431 C 0.38195 0.57212 0.94601 0.0
C3432 C 0.41335 0.57646 0.96132 0.0
H3433 H 0.43201 0.56306 0.78404 0.0
H3434 H 0.43903 0.56542 0.83063 0.0
C3435 C 0.41423 0.57484 0.98809 0.0
C3436 C 0.38376 0.57272 0.91749 0.0
H3437 H 0.38808 0.55858 0.86356 0.0
C3438 C 0.38125 0.58179 0.90544 0.0
C3439 C 0.3877 0.56429 0.9022 0.0
C3440 C 0.39376 0.55438 0.914 0.0
C3441 C 0.38174 0.58263 0.87828 0.0
C3442 C 0.38356 0.57414 0.86298 0.0
C3443 C 0.38656 0.5651 0.87522 0.0
C3444 C 0.38285 0.57427 0.83426 0.0
C3445 C 0.38116 0.59258 0.86637 0.0
C3446 C 0.34942 0.5786 0.82061 0.0
C3447 C 0.34643 0.57755 0.79368 0.0
C3448 C 0.37667 0.57212 0.7802 0.0
C3449 C 0.40959 0.56769 0.79389 0.0
C3450 C 0.41324 0.56894 0.82055 0.0
H3451 H 0.39321 0.59812 0.88009 0.0
H3452 H 0.40054 0.5928 0.84849 0.0
H3453 H 0.34822 0.59453 0.86128 0.0
H3454 H 0.32471 0.58244 0.83082 0.0
H3455 H 0.32003 0.58077 0.78348 0.0
loop_
_geom_bond_atom_site_label_1
_geom_bond_atom_site_label_2
_geom_bond_distance
_geom_bond_site_symmetry_2
_ccdc_geom_bond_type
Mn0 O5 2.095 . S
Mn0 O15 2.162 . S
Mn0 O16 2.297 . S
Mn0 O24 2.385 . S
Mn0 O25 2.209 . S
Mn0 O26 2.094 . S
Mn1 O6 2.121 . S
Mn1 N8 2.257 . S
Mn1 N17 2.282 . S
Mn1 O25 2.215 . S
Mn1 O27 2.117 . S
C2 O24 1.234 . S
C2 O25 1.283 . S
C3 O15 1.281 . S
C3 O16 1.236 . S
C4 O26 1.240 . S
C4 O27 1.264 . S
O5 Mn0 2.095 . S
O5 C14 1.250 . S
O6 Mn1 2.121 . S
O6 C14 1.258 . S
C7 N8 1.326 . S
C7 C11 1.460 . S
C7 H13 0.929 . S
N8 Mn1 2.257 . S
N8 C7 1.326 . S
N8 C12 1.362 . S
C9 C10 1.258 . S
C9 C12 1.431 . S
C9 C29 1.449 . S
C10 C9 1.258 . S
C10 C11 1.477 . S
C10 H30 0.931 . S
C11 C7 1.460 . S
C11 C10 1.477 . S
C11 H31 0.930 . S
C12 N8 1.362 . S
C12 C9 1.431 . S
C12 C22 1.476 . S
H13 C7 0.929 . S
C14 O5 1.250 . S
C14 O6 1.258 . S
O15 Mn0 2.162 . S
O15 C3 1.281 . S
O16 Mn0 2.297 . S
O16 C3 1.236 . S
N17 Mn1 2.282 . S
N17 C18 1.328 . S
N17 C22 1.318 . S
C18 N17 1.328 . S
C18 C19 1.457 . S
C18 H23 0.929 . S
C19 C18 1.457 . S
C19 C20 1.291 . S
C19 H32 0.931 . S
C20 C19 1.291 . S
C20 C21 1.373 . S
C20 H33 0.929 . S
C21 C20 1.373 . S
C21 C22 1.396 . S
C21 C28 1.403 . S
C22 C12 1.476 . S
C22 N17 1.318 . S
C22 C21 1.396 . S
H23 C18 0.929 . S
O24 Mn0 2.385 . S
O24 C2 1.234 . S
O25 Mn0 2.209 . S
O25 Mn1 2.215 . S
O25 C2 1.283 . S
O26 Mn0 2.094 . S
O26 C4 1.240 . S
O27 Mn1 2.117 . S
O27 C4 1.264 . S
C28 C21 1.403 . S
C28 C29 1.399 . S
C28 H34 0.929 . S
C29 C9 1.449 . S
C29 C28 1.399 . S
C29 H35 0.930 . S
H30 C10 0.931 . S
H31 C11 0.930 . S
H32 C19 0.931 . S
H33 C20 0.929 . S
H34 C28 0.929 . S
H35 C29 0.930 . S
Mn36 O41 2.095 . S
Mn36 O51 2.162 . S
Mn36 O52 2.297 . S
Mn36 O60 2.385 . S
Mn36 O61 2.209 . S
Mn36 O62 2.094 . S
Mn37 O42 2.121 . S
Mn37 N44 2.257 . S
Mn37 N53 2.282 . S
Mn37 O61 2.215 . S
Mn37 O63 2.117 . S
C38 O60 1.234 . S
C38 O61 1.283 . S
C39 O51 1.281 . S
C39 O52 1.236 . S
C40 O62 1.240 . S
C40 O63 1.264 . S
O41 Mn36 2.095 . S
O41 C50 1.250 . S
O42 Mn37 2.121 . S
O42 C50 1.258 . S
C43 N44 1.326 . S
C43 C47 1.460 1_455 S
C43 H49 0.929 1_455 S
N44 Mn37 2.257 . S
N44 C43 1.326 . S
N44 C48 1.362 . S
C45 C46 1.258 1_455 S
C45 C48 1.431 . S
C45 C65 1.449 . S
C46 C45 1.258 1_655 S
C46 C47 1.477 . S
C46 H66 0.931 . S
C47 C43 1.460 1_655 S
C47 C46 1.477 . S
C47 H67 0.930 . S
C48 N44 1.362 . S
C48 C45 1.431 . S
C48 C58 1.476 . S
H49 C43 0.929 1_655 S
C50 O41 1.250 . S
C50 O42 1.258 . S
O51 Mn36 2.162 . S
O51 C39 1.281 . S
O52 Mn36 2.297 . S
O52 C39 1.236 . S
N53 Mn37 2.282 . S
N53 C54 1.328 . S
N53 C58 1.318 . S
C54 N53 1.328 . S
C54 C55 1.457 . S
C54 H59 0.929 . S
C55 C54 1.457 . S
C55 C56 1.291 . S
C55 H68 0.931 . S
C56 C55 1.291 . S
C56 C57 1.373 . S
C56 H69 0.929 . S
C57 C56 1.373 . S
C57 C58 1.396 . S
C57 C64 1.403 . S
C58 C48 1.476 . S
C58 N53 1.318 . S
C58 C57 1.396 . S
H59 C54 0.929 . S
O60 Mn36 2.385 . S
O60 C38 1.234 . S
O61 Mn36 2.209 . S
O61 Mn37 2.215 . S
O61 C38 1.283 . S
O62 Mn36 2.094 . S
O62 C40 1.240 . S
O63 Mn37 2.117 . S
O63 C40 1.264 . S
C64 C57 1.403 . S
C64 C65 1.399 . S
C64 H70 0.929 . S
C65 C45 1.449 . S
C65 C64 1.399 . S
C65 H71 0.930 . S
H66 C46 0.931 . S
H67 C47 0.930 . S
H68 C55 0.931 . S
H69 C56 0.929 . S
H70 C64 0.929 . S
H71 C65 0.930 . S
Mn72 O77 2.095 . S
Mn72 O87 2.162 . S
Mn72 O88 2.297 . S
Mn72 O96 2.385 . S
Mn72 O97 2.209 . S
Mn72 O98 2.094 . S
Mn73 O78 2.121 . S
Mn73 N80 2.235 1_556 S
Mn73 N89 2.282 1_556 S
Mn73 O97 2.215 . S
Mn73 O99 2.117 . S
C74 O96 1.228 1_554 S
C74 O97 1.273 1_554 S
C75 O87 1.281 . S
C75 O88 1.236 . S
C76 O98 1.240 . S
C76 O99 1.264 . S
O77 Mn72 2.095 . S
O77 C86 1.250 . S
O78 Mn73 2.121 . S
O78 C86 1.258 . S
C79 N80 1.324 1_556 S
C79 C83 1.460 1_556 S
C79 H85 0.929 . S
N80 Mn73 2.235 1_554 S
N80 C79 1.324 1_554 S
N80 C84 1.387 . S
C81 C82 1.258 . S
C81 C84 1.431 . S
C81 C101 1.449 . S
C82 C81 1.258 . S
C82 C83 1.477 . S
C82 H102 0.931 . S
C83 C79 1.460 1_554 S
C83 C82 1.477 . S
C83 H103 0.930 . S
C84 N80 1.387 . S
C84 C81 1.431 . S
C84 C94 1.476 . S
H85 C79 0.929 . S
C86 O77 1.250 . S
C86 O78 1.258 . S
O87 Mn72 2.162 . S
O87 C75 1.281 . S
O88 Mn72 2.297 . S
O88 C75 1.236 . S
N89 Mn73 2.282 1_554 S
N89 C90 1.328 . S
N89 C94 1.318 . S
C90 N89 1.328 . S
C90 C91 1.457 . S
C90 H95 0.929 1_554 S
C91 C90 1.457 . S
C91 C92 1.291 . S
C91 H104 0.931 . S
C92 C91 1.291 . S
C92 C93 1.373 . S
C92 H105 0.929 . S
C93 C92 1.373 . S
C93 C94 1.396 . S
C93 C100 1.403 . S
C94 C84 1.476 . S
C94 N89 1.318 . S
C94 C93 1.396 . S
H95 C90 0.929 1_556 S
O96 Mn72 2.385 . S
O96 C74 1.228 1_556 S
O97 Mn72 2.209 . S
O97 Mn73 2.215 . S
O97 C74 1.273 1_556 S
O98 Mn72 2.094 . S
O98 C76 1.240 . S
O99 Mn73 2.117 . S
O99 C76 1.264 . S
C100 C93 1.403 . S
C100 C101 1.399 . S
C100 H106 0.929 . S
C101 C81 1.449 . S
C101 C100 1.399 . S
C101 H107 0.930 . S
H102 C82 0.931 . S
H103 C83 0.930 . S
H104 C91 0.931 . S
H105 C92 0.929 . S
H106 C100 0.929 . S
H107 C101 0.930 . S
Mn108 O113 2.095 . S
Mn108 O123 2.162 . S
Mn108 O124 2.297 . S
Mn108 O132 2.385 . S
Mn108 O133 2.209 . S
Mn108 O134 2.094 . S
Mn109 O114 2.121 . S
Mn109 N116 2.234 1_556 S
Mn109 N125 2.282 1_556 S
Mn109 O133 2.215 . S
Mn109 O135 2.117 . S
C110 O132 1.228 1_554 S
C110 O133 1.272 1_554 S
C111 O123 1.281 . S
C111 O124 1.236 . S
C112 O134 1.240 . S
C112 O135 1.264 . S
O113 Mn108 2.095 . S
O113 C122 1.250 . S
O114 Mn109 2.121 . S
O114 C122 1.258 . S
C115 N116 1.324 1_556 S
C115 C119 1.460 1_456 S
C115 H121 0.929 1_455 S
N116 Mn109 2.234 1_554 S
N116 C115 1.324 1_554 S
N116 C120 1.388 . S
C117 C118 1.258 1_455 S
C117 C120 1.431 . S
C117 C137 1.449 . S
C118 C117 1.258 1_655 S
C118 C119 1.477 . S
C118 H138 0.931 . S
C119 C115 1.460 1_654 S
C119 C118 1.477 . S
C119 H139 0.930 . S
C120 N116 1.388 . S
C120 C117 1.431 . S
C120 C130 1.476 . S
H121 C115 0.929 1_655 S
C122 O113 1.250 . S
C122 O114 1.258 . S
O123 Mn108 2.162 . S
O123 C111 1.281 . S
O124 Mn108 2.297 . S
O124 C111 1.236 . S
N125 Mn109 2.282 1_554 S
N125 C126 1.328 . S
N125 C130 1.318 . S
C126 N125 1.328 . S
C126 C127 1.457 . S
C126 H131 0.929 1_554 S
C127 C126 1.457 . S
C127 C128 1.291 . S
C127 H140 0.931 . S
C128 C127 1.291 . S
C128 C129 1.373 . S
C128 H141 0.929 . S
C129 C128 1.373 . S
C129 C130 1.396 . S
C129 C136 1.403 . S
C130 C120 1.476 . S
C130 N125 1.318 . S
C130 C129 1.396 . S
H131 C126 0.929 1_556 S
O132 Mn108 2.385 . S
O132 C110 1.228 1_556 S
O133 Mn108 2.209 . S
O133 Mn109 2.215 . S
O133 C110 1.272 1_556 S
O134 Mn108 2.094 . S
O134 C112 1.240 . S
O135 Mn109 2.117 . S
O135 C112 1.264 . S
C136 C129 1.403 . S
C136 C137 1.399 . S
C136 H142 0.929 . S
C137 C117 1.449 . S
C137 C136 1.399 . S
C137 H143 0.930 . S
H138 C118 0.931 . S
H139 C119 0.930 . S
H140 C127 0.931 . S
H141 C128 0.929 . S
H142 C136 0.929 . S
H143 C137 0.930 . S
Mn144 O149 2.095 . S
Mn144 O159 2.162 . S
Mn144 O160 2.297 . S
Mn144 O168 2.385 . S
Mn144 O169 2.209 . S
Mn144 O170 2.094 . S
Mn145 O150 2.121 . S
Mn145 N152 2.257 . S
Mn145 N161 2.282 . S
Mn145 O169 2.215 . S
Mn145 O171 2.117 . S
C146 O168 1.234 . S
C146 O169 1.283 . S
C147 O159 1.281 . S
C147 O160 1.236 . S
C148 O170 1.240 . S
C148 O171 1.264 . S
O149 Mn144 2.095 . S
O149 C158 1.250 . S
O150 Mn145 2.121 . S
O150 C158 1.258 . S
C151 N152 1.326 . S
C151 C155 1.460 . S
C151 H157 0.929 . S
N152 Mn145 2.257 . S
N152 C151 1.326 . S
N152 C156 1.362 . S
C153 C154 1.258 . S
C153 C156 1.431 . S
C153 C173 1.449 . S
C154 C153 1.258 . S
C154 C155 1.477 . S
C154 H174 0.931 . S
C155 C151 1.460 . S
C155 C154 1.477 . S
C155 H175 0.930 . S
C156 N152 1.362 . S
C156 C153 1.431 . S
C156 C166 1.476 . S
H157 C151 0.929 . S
C158 O149 1.250 . S
C158 O150 1.258 . S
O159 Mn144 2.162 . S
O159 C147 1.281 . S
O160 Mn144 2.297 . S
O160 C147 1.236 . S
N161 Mn145 2.282 . S
N161 C162 1.328 . S
N161 C166 1.318 . S
C162 N161 1.328 . S
C162 C163 1.457 . S
C162 H167 0.929 . S
C163 C162 1.457 . S
C163 C164 1.291 . S
C163 H176 0.931 . S
C164 C163 1.291 . S
C164 C165 1.373 . S
C164 H177 0.929 . S
C165 C164 1.373 . S
C165 C166 1.396 . S
C165 C172 1.403 . S
C166 C156 1.476 . S
C166 N161 1.318 . S
C166 C165 1.396 . S
H167 C162 0.929 . S
O168 Mn144 2.385 . S
O168 C146 1.234 . S
O169 Mn144 2.209 . S
O169 Mn145 2.215 . S
O169 C146 1.283 . S
O170 Mn144 2.094 . S
O170 C148 1.240 . S
O171 Mn145 2.117 . S
O171 C148 1.264 . S
C172 C165 1.403 . S
C172 C173 1.399 . S
C172 H178 0.929 . S
C173 C153 1.449 . S
C173 C172 1.399 . S
C173 H179 0.930 . S
H174 C154 0.931 . S
H175 C155 0.930 . S
H176 C163 0.931 . S
H177 C164 0.929 . S
H178 C172 0.929 . S
H179 C173 0.930 . S
Mn180 O185 2.095 . S
Mn180 O195 2.162 . S
Mn180 O196 2.297 . S
Mn180 O204 2.385 . S
Mn180 O205 2.209 . S
Mn180 O206 2.094 . S
Mn181 O186 2.121 . S
Mn181 N188 2.257 . S
Mn181 N197 2.282 . S
Mn181 O205 2.215 . S
Mn181 O207 2.117 . S
C182 O204 1.234 . S
C182 O205 1.283 . S
C183 O195 1.281 . S
C183 O196 1.236 . S
C184 O206 1.240 . S
C184 O207 1.264 . S
O185 Mn180 2.095 . S
O185 C194 1.250 . S
O186 Mn181 2.121 . S
O186 C194 1.258 . S
C187 N188 1.326 . S
C187 C191 1.460 1_655 S
C187 H193 0.929 1_655 S
N188 Mn181 2.257 . S
N188 C187 1.326 . S
N188 C192 1.362 . S
C189 C190 1.258 1_655 S
C189 C192 1.431 . S
C189 C209 1.449 . S
C190 C189 1.258 1_455 S
C190 C191 1.477 . S
C190 H210 0.931 . S
C191 C187 1.460 1_455 S
C191 C190 1.477 . S
C191 H211 0.930 . S
C192 N188 1.362 . S
C192 C189 1.431 . S
C192 C202 1.476 . S
H193 C187 0.929 1_455 S
C194 O185 1.250 . S
C194 O186 1.258 . S
O195 Mn180 2.162 . S
O195 C183 1.281 . S
O196 Mn180 2.297 . S
O196 C183 1.236 . S
N197 Mn181 2.282 . S
N197 C198 1.328 . S
N197 C202 1.318 . S
C198 N197 1.328 . S
C198 C199 1.457 . S
C198 H203 0.929 . S
C199 C198 1.457 . S
C199 C200 1.291 . S
C199 H212 0.931 . S
C200 C199 1.291 . S
C200 C201 1.373 . S
C200 H213 0.929 . S
C201 C200 1.373 . S
C201 C202 1.396 . S
C201 C208 1.403 . S
C202 C192 1.476 . S
C202 N197 1.318 . S
C202 C201 1.396 . S
H203 C198 0.929 . S
O204 Mn180 2.385 . S
O204 C182 1.234 . S
O205 Mn180 2.209 . S
O205 Mn181 2.215 . S
O205 C182 1.283 . S
O206 Mn180 2.094 . S
O206 C184 1.240 . S
O207 Mn181 2.117 . S
O207 C184 1.264 . S
C208 C201 1.403 . S
C208 C209 1.399 . S
C208 H214 0.929 . S
C209 C189 1.449 . S
C209 C208 1.399 . S
C209 H215 0.930 . S
H210 C190 0.931 . S
H211 C191 0.930 . S
H212 C199 0.931 . S
H213 C200 0.929 . S
H214 C208 0.929 . S
H215 C209 0.930 . S
Mn216 O221 2.095 . S
Mn216 O231 2.162 . S
Mn216 O232 2.297 . S
Mn216 O240 2.385 . S
Mn216 O241 2.209 . S
Mn216 O242 2.094 . S
Mn217 O222 2.121 . S
Mn217 N224 2.235 1_554 S
Mn217 N233 2.282 1_554 S
Mn217 O241 2.215 . S
Mn217 O243 2.117 . S
C218 O240 1.228 1_556 S
C218 O241 1.273 1_556 S
C219 O231 1.281 . S
C219 O232 1.236 . S
C220 O242 1.240 . S
C220 O243 1.264 . S
O221 Mn216 2.095 . S
O221 C230 1.250 . S
O222 Mn217 2.121 . S
O222 C230 1.258 . S
C223 N224 1.324 1_554 S
C223 C227 1.460 1_554 S
C223 H229 0.929 . S
N224 Mn217 2.235 1_556 S
N224 C223 1.324 1_556 S
N224 C228 1.387 . S
C225 C226 1.258 . S
C225 C228 1.431 . S
C225 C245 1.449 . S
C226 C225 1.258 . S
C226 C227 1.477 . S
C226 H246 0.931 . S
C227 C223 1.460 1_556 S
C227 C226 1.477 . S
C227 H247 0.930 . S
C228 N224 1.387 . S
C228 C225 1.431 . S
C228 C238 1.476 . S
H229 C223 0.929 . S
C230 O221 1.250 . S
C230 O222 1.258 . S
O231 Mn216 2.162 . S
O231 C219 1.281 . S
O232 Mn216 2.297 . S
O232 C219 1.236 . S
N233 Mn217 2.282 1_556 S
N233 C234 1.328 . S
N233 C238 1.318 . S
C234 N233 1.328 . S
C234 C235 1.457 . S
C234 H239 0.929 1_556 S
C235 C234 1.457 . S
C235 C236 1.291 . S
C235 H248 0.931 . S
C236 C235 1.291 . S
C236 C237 1.373 . S
C236 H249 0.929 . S
C237 C236 1.373 . S
C237 C238 1.396 . S
C237 C244 1.403 . S
C238 C228 1.476 . S
C238 N233 1.318 . S
C238 C237 1.396 . S
H239 C234 0.929 1_554 S
O240 Mn216 2.385 . S
O240 C218 1.228 1_554 S
O241 Mn216 2.209 . S
O241 Mn217 2.215 . S
O241 C218 1.273 1_554 S
O242 Mn216 2.094 . S
O242 C220 1.240 . S
O243 Mn217 2.117 . S
O243 C220 1.264 . S
C244 C237 1.403 . S
C244 C245 1.399 . S
C244 H250 0.929 . S
C245 C225 1.449 . S
C245 C244 1.399 . S
C245 H251 0.930 . S
H246 C226 0.931 . S
H247 C227 0.930 . S
H248 C235 0.931 . S
H249 C236 0.929 . S
H250 C244 0.929 . S
H251 C245 0.930 . S
Mn252 O257 2.095 . S
Mn252 O267 2.162 . S
Mn252 O268 2.297 . S
Mn252 O276 2.385 . S
Mn252 O277 2.209 . S
Mn252 O278 2.094 . S
Mn253 O258 2.121 . S
Mn253 N260 2.234 1_554 S
Mn253 N269 2.282 1_554 S
Mn253 O277 2.215 . S
Mn253 O279 2.117 . S
C254 O276 1.228 1_556 S
C254 O277 1.272 1_556 S
C255 O267 1.281 . S
C255 O268 1.236 . S
C256 O278 1.240 . S
C256 O279 1.264 . S
O257 Mn252 2.095 . S
O257 C266 1.250 . S
O258 Mn253 2.121 . S
O258 C266 1.258 . S
C259 N260 1.324 1_554 S
C259 C263 1.460 1_654 S
C259 H265 0.929 1_655 S
N260 Mn253 2.234 1_556 S
N260 C259 1.324 1_556 S
N260 C264 1.388 . S
C261 C262 1.258 1_655 S
C261 C264 1.431 . S
C261 C281 1.449 . S
C262 C261 1.258 1_455 S
C262 C263 1.477 . S
C262 H282 0.931 . S
C263 C259 1.460 1_456 S
C263 C262 1.477 . S
C263 H283 0.930 . S
C264 N260 1.388 . S
C264 C261 1.431 . S
C264 C274 1.476 . S
H265 C259 0.929 1_455 S
C266 O257 1.250 . S
C266 O258 1.258 . S
O267 Mn252 2.162 . S
O267 C255 1.281 . S
O268 Mn252 2.297 . S
O268 C255 1.236 . S
N269 Mn253 2.282 1_556 S
N269 C270 1.328 . S
N269 C274 1.318 . S
C270 N269 1.328 . S
C270 C271 1.457 . S
C270 H275 0.929 1_556 S
C271 C270 1.457 . S
C271 C272 1.291 . S
C271 H284 0.931 . S
C272 C271 1.291 . S
C272 C273 1.373 . S
C272 H285 0.929 . S
C273 C272 1.373 . S
C273 C274 1.396 . S
C273 C280 1.403 . S
C274 C264 1.476 . S
C274 N269 1.318 . S
C274 C273 1.396 . S
H275 C270 0.929 1_554 S
O276 Mn252 2.385 . S
O276 C254 1.228 1_554 S
O277 Mn252 2.209 . S
O277 Mn253 2.215 . S
O277 C254 1.272 1_554 S
O278 Mn252 2.094 . S
O278 C256 1.240 . S
O279 Mn253 2.117 . S
O279 C256 1.264 . S
C280 C273 1.403 . S
C280 C281 1.399 . S
C280 H286 0.929 . S
C281 C261 1.449 . S
C281 C280 1.399 . S
C281 H287 0.930 . S
H282 C262 0.931 . S
H283 C263 0.930 . S
H284 C271 0.931 . S
H285 C272 0.929 . S
H286 C280 0.929 . S
H287 C281 0.930 . S
Mn288 O293 2.095 . S
Mn288 O303 2.162 . S
Mn288 O304 2.297 . S
Mn288 O312 2.385 . S
Mn288 O313 2.209 . S
Mn288 O314 2.094 . S
Mn289 O294 2.121 . S
Mn289 N296 2.257 . S
Mn289 N305 2.282 . S
Mn289 O313 2.215 . S
Mn289 O315 2.117 . S
C290 O312 1.234 . S
C290 O313 1.283 . S
C291 O303 1.281 . S
C291 O304 1.236 . S
C292 O314 1.240 . S
C292 O315 1.264 . S
O293 Mn288 2.095 . S
O293 C302 1.250 . S
O294 Mn289 2.121 . S
O294 C302 1.258 . S
C295 N296 1.326 . S
C295 C299 1.460 . S
C295 H301 0.929 . S
N296 Mn289 2.257 . S
N296 C295 1.326 . S
N296 C300 1.362 . S
C297 C298 1.258 . S
C297 C300 1.431 . S
C297 C317 1.449 . S
C298 C297 1.258 . S
C298 C299 1.477 . S
C298 H318 0.931 . S
C299 C295 1.460 . S
C299 C298 1.477 . S
C299 H319 0.930 . S
C300 N296 1.362 . S
C300 C297 1.431 . S
C300 C310 1.476 . S
H301 C295 0.929 . S
C302 O293 1.250 . S
C302 O294 1.258 . S
O303 Mn288 2.162 . S
O303 C291 1.281 . S
O304 Mn288 2.297 . S
O304 C291 1.236 . S
N305 Mn289 2.282 . S
N305 C306 1.328 . S
N305 C310 1.318 . S
C306 N305 1.328 . S
C306 C307 1.457 . S
C306 H311 0.929 . S
C307 C306 1.457 . S
C307 C308 1.291 . S
C307 H320 0.931 . S
C308 C307 1.291 . S
C308 C309 1.373 . S
C308 H321 0.929 . S
C309 C308 1.373 . S
C309 C310 1.396 . S
C309 C316 1.403 . S
C310 C300 1.476 . S
C310 N305 1.318 . S
C310 C309 1.396 . S
H311 C306 0.929 . S
O312 Mn288 2.385 . S
O312 C290 1.234 . S
O313 Mn288 2.209 . S
O313 Mn289 2.215 . S
O313 C290 1.283 . S
O314 Mn288 2.094 . S
O314 C292 1.240 . S
O315 Mn289 2.117 . S
O315 C292 1.264 . S
C316 C309 1.403 . S
C316 C317 1.399 . S
C316 H322 0.929 . S
C317 C297 1.449 . S
C317 C316 1.399 . S
C317 H323 0.930 . S
H318 C298 0.931 . S
H319 C299 0.930 . S
H320 C307 0.931 . S
H321 C308 0.929 . S
H322 C316 0.929 . S
H323 C317 0.930 . S
Mn324 O329 2.095 . S
Mn324 O339 2.162 . S
Mn324 O340 2.297 . S
Mn324 O348 2.385 . S
Mn324 O349 2.209 . S
Mn324 O350 2.094 . S
Mn325 O330 2.121 . S
Mn325 N332 2.257 . S
Mn325 N341 2.282 . S
Mn325 O349 2.215 . S
Mn325 O351 2.117 . S
C326 O348 1.234 . S
C326 O349 1.283 . S
C327 O339 1.281 . S
C327 O340 1.236 . S
C328 O350 1.240 . S
C328 O351 1.264 . S
O329 Mn324 2.095 . S
O329 C338 1.250 . S
O330 Mn325 2.121 . S
O330 C338 1.258 . S
C331 N332 1.326 . S
C331 C335 1.460 1_455 S
C331 H337 0.929 1_455 S
N332 Mn325 2.257 . S
N332 C331 1.326 . S
N332 C336 1.362 . S
C333 C334 1.258 1_455 S
C333 C336 1.431 . S
C333 C353 1.449 . S
C334 C333 1.258 1_655 S
C334 C335 1.477 . S
C334 H354 0.931 . S
C335 C331 1.460 1_655 S
C335 C334 1.477 . S
C335 H355 0.930 . S
C336 N332 1.362 . S
C336 C333 1.431 . S
C336 C346 1.476 . S
H337 C331 0.929 1_655 S
C338 O329 1.250 . S
C338 O330 1.258 . S
O339 Mn324 2.162 . S
O339 C327 1.281 . S
O340 Mn324 2.297 . S
O340 C327 1.236 . S
N341 Mn325 2.282 . S
N341 C342 1.328 . S
N341 C346 1.318 . S
C342 N341 1.328 . S
C342 C343 1.457 . S
C342 H347 0.929 . S
C343 C342 1.457 . S
C343 C344 1.291 . S
C343 H356 0.931 . S
C344 C343 1.291 . S
C344 C345 1.373 . S
C344 H357 0.929 . S
C345 C344 1.373 . S
C345 C346 1.396 . S
C345 C352 1.403 . S
C346 C336 1.476 . S
C346 N341 1.318 . S
C346 C345 1.396 . S
H347 C342 0.929 . S
O348 Mn324 2.385 . S
O348 C326 1.234 . S
O349 Mn324 2.209 . S
O349 Mn325 2.215 . S
O349 C326 1.283 . S
O350 Mn324 2.094 . S
O350 C328 1.240 . S
O351 Mn325 2.117 . S
O351 C328 1.264 . S
C352 C345 1.403 . S
C352 C353 1.399 . S
C352 H358 0.929 . S
C353 C333 1.449 . S
C353 C352 1.399 . S
C353 H359 0.930 . S
H354 C334 0.931 . S
H355 C335 0.930 . S
H356 C343 0.931 . S
H357 C344 0.929 . S
H358 C352 0.929 . S
H359 C353 0.930 . S
Mn360 O365 2.095 . S
Mn360 O375 2.162 . S
Mn360 O376 2.297 . S
Mn360 O384 2.385 . S
Mn360 O385 2.209 . S
Mn360 O386 2.094 . S
Mn361 O366 2.121 . S
Mn361 N368 2.257 . S
Mn361 N377 2.282 . S
Mn361 O385 2.215 . S
Mn361 O387 2.117 . S
C362 O384 1.234 . S
C362 O385 1.283 . S
C363 O375 1.281 . S
C363 O376 1.236 . S
C364 O386 1.240 . S
C364 O387 1.264 . S
O365 Mn360 2.095 . S
O365 C374 1.250 . S
O366 Mn361 2.121 . S
O366 C374 1.258 . S
C367 N368 1.326 . S
C367 C371 1.460 . S
C367 H373 0.929 . S
N368 Mn361 2.257 . S
N368 C367 1.326 . S
N368 C372 1.362 . S
C369 C370 1.258 . S
C369 C372 1.431 . S
C369 C389 1.449 . S
C370 C369 1.258 . S
C370 C371 1.477 . S
C370 H390 0.931 . S
C371 C367 1.460 . S
C371 C370 1.477 . S
C371 H391 0.930 . S
C372 N368 1.362 . S
C372 C369 1.431 . S
C372 C382 1.476 . S
H373 C367 0.929 . S
C374 O365 1.250 . S
C374 O366 1.258 . S
O375 Mn360 2.162 . S
O375 C363 1.281 . S
O376 Mn360 2.297 . S
O376 C363 1.236 . S
N377 Mn361 2.282 . S
N377 C378 1.328 . S
N377 C382 1.318 . S
C378 N377 1.328 . S
C378 C379 1.457 . S
C378 H383 0.929 . S
C379 C378 1.457 . S
C379 C380 1.291 . S
C379 H392 0.931 . S
C380 C379 1.291 . S
C380 C381 1.373 . S
C380 H393 0.929 . S
C381 C380 1.373 . S
C381 C382 1.396 . S
C381 C388 1.403 . S
C382 C372 1.476 . S
C382 N377 1.318 . S
C382 C381 1.396 . S
H383 C378 0.929 . S
O384 Mn360 2.385 . S
O384 C362 1.234 . S
O385 Mn360 2.209 . S
O385 Mn361 2.215 . S
O385 C362 1.283 . S
O386 Mn360 2.094 . S
O386 C364 1.240 . S
O387 Mn361 2.117 . S
O387 C364 1.264 . S
C388 C381 1.403 . S
C388 C389 1.399 . S
C388 H394 0.929 . S
C389 C369 1.449 . S
C389 C388 1.399 . S
C389 H395 0.930 . S
H390 C370 0.931 . S
H391 C371 0.930 . S
H392 C379 0.931 . S
H393 C380 0.929 . S
H394 C388 0.929 . S
H395 C389 0.930 . S
Mn396 O401 2.095 . S
Mn396 O411 2.162 . S
Mn396 O412 2.297 . S
Mn396 O420 2.385 . S
Mn396 O421 2.209 . S
Mn396 O422 2.094 . S
Mn397 O402 2.121 . S
Mn397 N404 2.257 . S
Mn397 N413 2.282 . S
Mn397 O421 2.215 . S
Mn397 O423 2.117 . S
C398 O420 1.234 . S
C398 O421 1.283 . S
C399 O411 1.281 . S
C399 O412 1.236 . S
C400 O422 1.240 . S
C400 O423 1.264 . S
O401 Mn396 2.095 . S
O401 C410 1.250 . S
O402 Mn397 2.121 . S
O402 C410 1.258 . S
C403 N404 1.326 . S
C403 C407 1.460 1_455 S
C403 H409 0.929 1_455 S
N404 Mn397 2.257 . S
N404 C403 1.326 . S
N404 C408 1.362 . S
C405 C406 1.258 1_455 S
C405 C408 1.431 . S
C405 C425 1.449 . S
C406 C405 1.258 1_655 S
C406 C407 1.477 . S
C406 H426 0.931 . S
C407 C403 1.460 1_655 S
C407 C406 1.477 . S
C407 H427 0.930 . S
C408 N404 1.362 . S
C408 C405 1.431 . S
C408 C418 1.476 . S
H409 C403 0.929 1_655 S
C410 O401 1.250 . S
C410 O402 1.258 . S
O411 Mn396 2.162 . S
O411 C399 1.281 . S
O412 Mn396 2.297 . S
O412 C399 1.236 . S
N413 Mn397 2.282 . S
N413 C414 1.328 . S
N413 C418 1.318 . S
C414 N413 1.328 . S
C414 C415 1.457 . S
C414 H419 0.929 . S
C415 C414 1.457 . S
C415 C416 1.291 . S
C415 H428 0.931 . S
C416 C415 1.291 . S
C416 C417 1.373 . S
C416 H429 0.929 . S
C417 C416 1.373 . S
C417 C418 1.396 . S
C417 C424 1.403 . S
C418 C408 1.476 . S
C418 N413 1.318 . S
C418 C417 1.396 . S
H419 C414 0.929 . S
O420 Mn396 2.385 . S
O420 C398 1.234 . S
O421 Mn396 2.209 . S
O421 Mn397 2.215 . S
O421 C398 1.283 . S
O422 Mn396 2.094 . S
O422 C400 1.240 . S
O423 Mn397 2.117 . S
O423 C400 1.264 . S
C424 C417 1.403 . S
C424 C425 1.399 . S
C424 H430 0.929 . S
C425 C405 1.449 . S
C425 C424 1.399 . S
C425 H431 0.930 . S
H426 C406 0.931 . S
H427 C407 0.930 . S
H428 C415 0.931 . S
H429 C416 0.929 . S
H430 C424 0.929 . S
H431 C425 0.930 . S
Mn432 O437 2.095 . S
Mn432 O447 2.162 . S
Mn432 O448 2.297 . S
Mn432 O456 2.385 . S
Mn432 O457 2.209 . S
Mn432 O458 2.094 . S
Mn433 O438 2.121 . S
Mn433 N440 2.257 . S
Mn433 N449 2.282 . S
Mn433 O457 2.215 . S
Mn433 O459 2.117 . S
C434 O456 1.234 . S
C434 O457 1.283 . S
C435 O447 1.281 . S
C435 O448 1.236 . S
C436 O458 1.240 . S
C436 O459 1.264 . S
O437 Mn432 2.095 . S
O437 C446 1.250 . S
O438 Mn433 2.121 . S
O438 C446 1.258 . S
C439 N440 1.326 . S
C439 C443 1.460 . S
C439 H445 0.929 . S
N440 Mn433 2.257 . S
N440 C439 1.326 . S
N440 C444 1.362 . S
C441 C442 1.258 . S
C441 C444 1.431 . S
C441 C461 1.449 . S
C442 C441 1.258 . S
C442 C443 1.477 . S
C442 H462 0.931 . S
C443 C439 1.460 . S
C443 C442 1.477 . S
C443 H463 0.930 . S
C444 N440 1.362 . S
C444 C441 1.431 . S
C444 C454 1.476 . S
H445 C439 0.929 . S
C446 O437 1.250 . S
C446 O438 1.258 . S
O447 Mn432 2.162 . S
O447 C435 1.281 . S
O448 Mn432 2.297 . S
O448 C435 1.236 . S
N449 Mn433 2.282 . S
N449 C450 1.328 . S
N449 C454 1.318 . S
C450 N449 1.328 . S
C450 C451 1.457 . S
C450 H455 0.929 . S
C451 C450 1.457 . S
C451 C452 1.291 . S
C451 H464 0.931 . S
C452 C451 1.291 . S
C452 C453 1.373 . S
C452 H465 0.929 . S
C453 C452 1.373 . S
C453 C454 1.396 . S
C453 C460 1.403 . S
C454 C444 1.476 . S
C454 N449 1.318 . S
C454 C453 1.396 . S
H455 C450 0.929 . S
O456 Mn432 2.385 . S
O456 C434 1.234 . S
O457 Mn432 2.209 . S
O457 Mn433 2.215 . S
O457 C434 1.283 . S
O458 Mn432 2.094 . S
O458 C436 1.240 . S
O459 Mn433 2.117 . S
O459 C436 1.264 . S
C460 C453 1.403 . S
C460 C461 1.399 . S
C460 H466 0.929 . S
C461 C441 1.449 . S
C461 C460 1.399 . S
C461 H467 0.930 . S
H462 C442 0.931 . S
H463 C443 0.930 . S
H464 C451 0.931 . S
H465 C452 0.929 . S
H466 C460 0.929 . S
H467 C461 0.930 . S
Mn468 O473 2.095 . S
Mn468 O483 2.162 . S
Mn468 O484 2.297 . S
Mn468 O492 2.385 . S
Mn468 O493 2.209 . S
Mn468 O494 2.094 . S
Mn469 O474 2.121 . S
Mn469 N476 2.257 . S
Mn469 N485 2.282 . S
Mn469 O493 2.215 . S
Mn469 O495 2.117 . S
C470 O492 1.234 . S
C470 O493 1.283 . S
C471 O483 1.281 . S
C471 O484 1.236 . S
C472 O494 1.240 . S
C472 O495 1.264 . S
O473 Mn468 2.095 . S
O473 C482 1.250 . S
O474 Mn469 2.121 . S
O474 C482 1.258 . S
C475 N476 1.326 . S
C475 C479 1.460 1_655 S
C475 H481 0.929 1_655 S
N476 Mn469 2.257 . S
N476 C475 1.326 . S
N476 C480 1.362 . S
C477 C478 1.258 1_655 S
C477 C480 1.431 . S
C477 C497 1.449 . S
C478 C477 1.258 1_455 S
C478 C479 1.477 . S
C478 H498 0.931 . S
C479 C475 1.460 1_455 S
C479 C478 1.477 . S
C479 H499 0.930 . S
C480 N476 1.362 . S
C480 C477 1.431 . S
C480 C490 1.476 . S
H481 C475 0.929 1_455 S
C482 O473 1.250 . S
C482 O474 1.258 . S
O483 Mn468 2.162 . S
O483 C471 1.281 . S
O484 Mn468 2.297 . S
O484 C471 1.236 . S
N485 Mn469 2.282 . S
N485 C486 1.328 . S
N485 C490 1.318 . S
C486 N485 1.328 . S
C486 C487 1.457 . S
C486 H491 0.929 . S
C487 C486 1.457 . S
C487 C488 1.291 . S
C487 H500 0.931 . S
C488 C487 1.291 . S
C488 C489 1.373 . S
C488 H501 0.929 . S
C489 C488 1.373 . S
C489 C490 1.396 . S
C489 C496 1.403 . S
C490 C480 1.476 . S
C490 N485 1.318 . S
C490 C489 1.396 . S
H491 C486 0.929 . S
O492 Mn468 2.385 . S
O492 C470 1.234 . S
O493 Mn468 2.209 . S
O493 Mn469 2.215 . S
O493 C470 1.283 . S
O494 Mn468 2.094 . S
O494 C472 1.240 . S
O495 Mn469 2.117 . S
O495 C472 1.264 . S
C496 C489 1.403 . S
C496 C497 1.399 . S
C496 H502 0.929 . S
C497 C477 1.449 . S
C497 C496 1.399 . S
C497 H503 0.930 . S
H498 C478 0.931 . S
H499 C479 0.930 . S
H500 C487 0.931 . S
H501 C488 0.929 . S
H502 C496 0.929 . S
H503 C497 0.930 . S
Mn504 O509 2.095 . S
Mn504 O519 2.162 . S
Mn504 O520 2.297 . S
Mn504 O528 2.385 . S
Mn504 O529 2.209 . S
Mn504 O530 2.094 . S
Mn505 O510 2.121 . S
Mn505 N512 2.257 . S
Mn505 N521 2.282 . S
Mn505 O529 2.215 . S
Mn505 O531 2.117 . S
C506 O528 1.234 . S
C506 O529 1.283 . S
C507 O519 1.281 . S
C507 O520 1.236 . S
C508 O530 1.240 . S
C508 O531 1.264 . S
O509 Mn504 2.095 . S
O509 C518 1.250 . S
O510 Mn505 2.121 . S
O510 C518 1.258 . S
C511 N512 1.326 . S
C511 C515 1.460 . S
C511 H517 0.929 . S
N512 Mn505 2.257 . S
N512 C511 1.326 . S
N512 C516 1.362 . S
C513 C514 1.258 . S
C513 C516 1.431 . S
C513 C533 1.449 . S
C514 C513 1.258 . S
C514 C515 1.477 . S
C514 H534 0.931 . S
C515 C511 1.460 . S
C515 C514 1.477 . S
C515 H535 0.930 . S
C516 N512 1.362 . S
C516 C513 1.431 . S
C516 C526 1.476 . S
H517 C511 0.929 . S
C518 O509 1.250 . S
C518 O510 1.258 . S
O519 Mn504 2.162 . S
O519 C507 1.281 . S
O520 Mn504 2.297 . S
O520 C507 1.236 . S
N521 Mn505 2.282 . S
N521 C522 1.328 . S
N521 C526 1.318 . S
C522 N521 1.328 . S
C522 C523 1.457 . S
C522 H527 0.929 . S
C523 C522 1.457 . S
C523 C524 1.291 . S
C523 H536 0.931 . S
C524 C523 1.291 . S
C524 C525 1.373 . S
C524 H537 0.929 . S
C525 C524 1.373 . S
C525 C526 1.396 . S
C525 C532 1.403 . S
C526 C516 1.476 . S
C526 N521 1.318 . S
C526 C525 1.396 . S
H527 C522 0.929 . S
O528 Mn504 2.385 . S
O528 C506 1.234 . S
O529 Mn504 2.209 . S
O529 Mn505 2.215 . S
O529 C506 1.283 . S
O530 Mn504 2.094 . S
O530 C508 1.240 . S
O531 Mn505 2.117 . S
O531 C508 1.264 . S
C532 C525 1.403 . S
C532 C533 1.399 . S
C532 H538 0.929 . S
C533 C513 1.449 . S
C533 C532 1.399 . S
C533 H539 0.930 . S
H534 C514 0.931 . S
H535 C515 0.930 . S
H536 C523 0.931 . S
H537 C524 0.929 . S
H538 C532 0.929 . S
H539 C533 0.930 . S
Mn540 O545 2.095 . S
Mn540 O555 2.162 . S
Mn540 O556 2.297 . S
Mn540 O564 2.385 . S
Mn540 O565 2.209 . S
Mn540 O566 2.094 . S
Mn541 O546 2.121 . S
Mn541 N548 2.257 . S
Mn541 N557 2.282 . S
Mn541 O565 2.215 . S
Mn541 O567 2.117 . S
C542 O564 1.234 . S
C542 O565 1.283 . S
C543 O555 1.281 . S
C543 O556 1.236 . S
C544 O566 1.240 . S
C544 O567 1.264 . S
O545 Mn540 2.095 . S
O545 C554 1.250 . S
O546 Mn541 2.121 . S
O546 C554 1.258 . S
C547 N548 1.326 . S
C547 C551 1.460 1_655 S
C547 H553 0.929 1_655 S
N548 Mn541 2.257 . S
N548 C547 1.326 . S
N548 C552 1.362 . S
C549 C550 1.258 1_655 S
C549 C552 1.431 . S
C549 C569 1.449 . S
C550 C549 1.258 1_455 S
C550 C551 1.477 . S
C550 H570 0.931 . S
C551 C547 1.460 1_455 S
C551 C550 1.477 . S
C551 H571 0.930 . S
C552 N548 1.362 . S
C552 C549 1.431 . S
C552 C562 1.476 . S
H553 C547 0.929 1_455 S
C554 O545 1.250 . S
C554 O546 1.258 . S
O555 Mn540 2.162 . S
O555 C543 1.281 . S
O556 Mn540 2.297 . S
O556 C543 1.236 . S
N557 Mn541 2.282 . S
N557 C558 1.328 . S
N557 C562 1.318 . S
C558 N557 1.328 . S
C558 C559 1.457 . S
C558 H563 0.929 . S
C559 C558 1.457 . S
C559 C560 1.291 . S
C559 H572 0.931 . S
C560 C559 1.291 . S
C560 C561 1.373 . S
C560 H573 0.929 . S
C561 C560 1.373 . S
C561 C562 1.396 . S
C561 C568 1.403 . S
C562 C552 1.476 . S
C562 N557 1.318 . S
C562 C561 1.396 . S
H563 C558 0.929 . S
O564 Mn540 2.385 . S
O564 C542 1.234 . S
O565 Mn540 2.209 . S
O565 Mn541 2.215 . S
O565 C542 1.283 . S
O566 Mn540 2.094 . S
O566 C544 1.240 . S
O567 Mn541 2.117 . S
O567 C544 1.264 . S
C568 C561 1.403 . S
C568 C569 1.399 . S
C568 H574 0.929 . S
C569 C549 1.449 . S
C569 C568 1.399 . S
C569 H575 0.930 . S
H570 C550 0.931 . S
H571 C551 0.930 . S
H572 C559 0.931 . S
H573 C560 0.929 . S
H574 C568 0.929 . S
H575 C569 0.930 . S
Mn576 O581 2.095 . S
Mn576 O591 2.162 . S
Mn576 O592 2.297 . S
Mn576 O600 2.385 . S
Mn576 O601 2.209 . S
Mn576 O602 2.094 . S
Mn577 O582 2.121 . S
Mn577 N584 2.257 . S
Mn577 N593 2.282 . S
Mn577 O601 2.215 . S
Mn577 O603 2.117 . S
C578 O600 1.234 . S
C578 O601 1.283 . S
C579 O591 1.281 . S
C579 O592 1.236 . S
C580 O602 1.240 . S
C580 O603 1.264 . S
O581 Mn576 2.095 . S
O581 C590 1.250 . S
O582 Mn577 2.121 . S
O582 C590 1.258 . S
C583 N584 1.326 . S
C583 C587 1.460 . S
C583 H589 0.929 . S
N584 Mn577 2.257 . S
N584 C583 1.326 . S
N584 C588 1.362 . S
C585 C586 1.258 . S
C585 C588 1.431 . S
C585 C605 1.449 . S
C586 C585 1.258 . S
C586 C587 1.477 . S
C586 H606 0.931 . S
C587 C583 1.460 . S
C587 C586 1.477 . S
C587 H607 0.930 . S
C588 N584 1.362 . S
C588 C585 1.431 . S
C588 C598 1.476 . S
H589 C583 0.929 . S
C590 O581 1.250 . S
C590 O582 1.258 . S
O591 Mn576 2.162 . S
O591 C579 1.281 . S
O592 Mn576 2.297 . S
O592 C579 1.236 . S
N593 Mn577 2.282 . S
N593 C594 1.328 . S
N593 C598 1.318 . S
C594 N593 1.328 . S
C594 C595 1.457 . S
C594 H599 0.929 . S
C595 C594 1.457 . S
C595 C596 1.291 . S
C595 H608 0.931 . S
C596 C595 1.291 . S
C596 C597 1.373 . S
C596 H609 0.929 . S
C597 C596 1.373 . S
C597 C598 1.396 . S
C597 C604 1.403 . S
C598 C588 1.476 . S
C598 N593 1.318 . S
C598 C597 1.396 . S
H599 C594 0.929 . S
O600 Mn576 2.385 . S
O600 C578 1.234 . S
O601 Mn576 2.209 . S
O601 Mn577 2.215 . S
O601 C578 1.283 . S
O602 Mn576 2.094 . S
O602 C580 1.240 . S
O603 Mn577 2.117 . S
O603 C580 1.264 . S
C604 C597 1.403 . S
C604 C605 1.399 . S
C604 H610 0.929 . S
C605 C585 1.449 . S
C605 C604 1.399 . S
C605 H611 0.930 . S
H606 C586 0.931 . S
H607 C587 0.930 . S
H608 C595 0.931 . S
H609 C596 0.929 . S
H610 C604 0.929 . S
H611 C605 0.930 . S
Mn612 O617 2.095 . S
Mn612 O627 2.162 . S
Mn612 O628 2.297 . S
Mn612 O636 2.385 . S
Mn612 O637 2.209 . S
Mn612 O638 2.094 . S
Mn613 O618 2.121 . S
Mn613 N620 2.257 . S
Mn613 N629 2.282 . S
Mn613 O637 2.215 . S
Mn613 O639 2.117 . S
C614 O636 1.234 . S
C614 O637 1.283 . S
C615 O627 1.281 . S
C615 O628 1.236 . S
C616 O638 1.240 . S
C616 O639 1.264 . S
O617 Mn612 2.095 . S
O617 C626 1.250 . S
O618 Mn613 2.121 . S
O618 C626 1.258 . S
C619 N620 1.326 . S
C619 C623 1.460 . S
C619 H625 0.929 . S
N620 Mn613 2.257 . S
N620 C619 1.326 . S
N620 C624 1.362 . S
C621 C622 1.258 . S
C621 C624 1.431 . S
C621 C641 1.449 . S
C622 C621 1.258 . S
C622 C623 1.477 . S
C622 H642 0.931 . S
C623 C619 1.460 . S
C623 C622 1.477 . S
C623 H643 0.930 . S
C624 N620 1.362 . S
C624 C621 1.431 . S
C624 C634 1.476 . S
H625 C619 0.929 . S
C626 O617 1.250 . S
C626 O618 1.258 . S
O627 Mn612 2.162 . S
O627 C615 1.281 . S
O628 Mn612 2.297 . S
O628 C615 1.236 . S
N629 Mn613 2.282 . S
N629 C630 1.328 . S
N629 C634 1.318 . S
C630 N629 1.328 . S
C630 C631 1.457 . S
C630 H635 0.929 . S
C631 C630 1.457 . S
C631 C632 1.291 . S
C631 H644 0.931 . S
C632 C631 1.291 . S
C632 C633 1.373 . S
C632 H645 0.929 . S
C633 C632 1.373 . S
C633 C634 1.396 . S
C633 C640 1.403 . S
C634 C624 1.476 . S
C634 N629 1.318 . S
C634 C633 1.396 . S
H635 C630 0.929 . S
O636 Mn612 2.385 . S
O636 C614 1.234 . S
O637 Mn612 2.209 . S
O637 Mn613 2.215 . S
O637 C614 1.283 . S
O638 Mn612 2.094 . S
O638 C616 1.240 . S
O639 Mn613 2.117 . S
O639 C616 1.264 . S
C640 C633 1.403 . S
C640 C641 1.399 . S
C640 H646 0.929 . S
C641 C621 1.449 . S
C641 C640 1.399 . S
C641 H647 0.930 . S
H642 C622 0.931 . S
H643 C623 0.930 . S
H644 C631 0.931 . S
H645 C632 0.929 . S
H646 C640 0.929 . S
H647 C641 0.930 . S
Mn648 O653 2.095 . S
Mn648 O663 2.162 . S
Mn648 O664 2.297 . S
Mn648 O672 2.385 . S
Mn648 O673 2.209 . S
Mn648 O674 2.094 . S
Mn649 O654 2.121 . S
Mn649 N656 2.257 . S
Mn649 N665 2.282 . S
Mn649 O673 2.215 . S
Mn649 O675 2.117 . S
C650 O672 1.234 . S
C650 O673 1.283 . S
C651 O663 1.281 . S
C651 O664 1.236 . S
C652 O674 1.240 . S
C652 O675 1.264 . S
O653 Mn648 2.095 . S
O653 C662 1.250 . S
O654 Mn649 2.121 . S
O654 C662 1.258 . S
C655 N656 1.326 . S
C655 C659 1.460 . S
C655 H661 0.929 . S
N656 Mn649 2.257 . S
N656 C655 1.326 . S
N656 C660 1.362 . S
C657 C658 1.258 . S
C657 C660 1.431 . S
C657 C677 1.449 . S
C658 C657 1.258 . S
C658 C659 1.477 . S
C658 H678 0.931 . S
C659 C655 1.460 . S
C659 C658 1.477 . S
C659 H679 0.930 . S
C660 N656 1.362 . S
C660 C657 1.431 . S
C660 C670 1.476 . S
H661 C655 0.929 . S
C662 O653 1.250 . S
C662 O654 1.258 . S
O663 Mn648 2.162 . S
O663 C651 1.281 . S
O664 Mn648 2.297 . S
O664 C651 1.236 . S
N665 Mn649 2.282 . S
N665 C666 1.328 . S
N665 C670 1.318 . S
C666 N665 1.328 . S
C666 C667 1.457 . S
C666 H671 0.929 . S
C667 C666 1.457 . S
C667 C668 1.291 . S
C667 H680 0.931 . S
C668 C667 1.291 . S
C668 C669 1.373 . S
C668 H681 0.929 . S
C669 C668 1.373 . S
C669 C670 1.396 . S
C669 C676 1.403 . S
C670 C660 1.476 . S
C670 N665 1.318 . S
C670 C669 1.396 . S
H671 C666 0.929 . S
O672 Mn648 2.385 . S
O672 C650 1.234 . S
O673 Mn648 2.209 . S
O673 Mn649 2.215 . S
O673 C650 1.283 . S
O674 Mn648 2.094 . S
O674 C652 1.240 . S
O675 Mn649 2.117 . S
O675 C652 1.264 . S
C676 C669 1.403 . S
C676 C677 1.399 . S
C676 H682 0.929 . S
C677 C657 1.449 . S
C677 C676 1.399 . S
C677 H683 0.930 . S
H678 C658 0.931 . S
H679 C659 0.930 . S
H680 C667 0.931 . S
H681 C668 0.929 . S
H682 C676 0.929 . S
H683 C677 0.930 . S
Mn684 O689 2.095 . S
Mn684 O699 2.162 . S
Mn684 O700 2.297 . S
Mn684 O708 2.385 . S
Mn684 O709 2.209 . S
Mn684 O710 2.094 . S
Mn685 O690 2.121 . S
Mn685 N692 2.257 . S
Mn685 N701 2.282 . S
Mn685 O709 2.215 . S
Mn685 O711 2.117 . S
C686 O708 1.234 . S
C686 O709 1.283 . S
C687 O699 1.281 . S
C687 O700 1.236 . S
C688 O710 1.240 . S
C688 O711 1.264 . S
O689 Mn684 2.095 . S
O689 C698 1.250 . S
O690 Mn685 2.121 . S
O690 C698 1.258 . S
C691 N692 1.326 . S
C691 C695 1.460 . S
C691 H697 0.929 . S
N692 Mn685 2.257 . S
N692 C691 1.326 . S
N692 C696 1.362 . S
C693 C694 1.258 . S
C693 C696 1.431 . S
C693 C713 1.449 . S
C694 C693 1.258 . S
C694 C695 1.477 . S
C694 H714 0.931 . S
C695 C691 1.460 . S
C695 C694 1.477 . S
C695 H715 0.930 . S
C696 N692 1.362 . S
C696 C693 1.431 . S
C696 C706 1.476 . S
H697 C691 0.929 . S
C698 O689 1.250 . S
C698 O690 1.258 . S
O699 Mn684 2.162 . S
O699 C687 1.281 . S
O700 Mn684 2.297 . S
O700 C687 1.236 . S
N701 Mn685 2.282 . S
N701 C702 1.328 . S
N701 C706 1.318 . S
C702 N701 1.328 . S
C702 C703 1.457 . S
C702 H707 0.929 . S
C703 C702 1.457 . S
C703 C704 1.291 . S
C703 H716 0.931 . S
C704 C703 1.291 . S
C704 C705 1.373 . S
C704 H717 0.929 . S
C705 C704 1.373 . S
C705 C706 1.396 . S
C705 C712 1.403 . S
C706 C696 1.476 . S
C706 N701 1.318 . S
C706 C705 1.396 . S
H707 C702 0.929 . S
O708 Mn684 2.385 . S
O708 C686 1.234 . S
O709 Mn684 2.209 . S
O709 Mn685 2.215 . S
O709 C686 1.283 . S
O710 Mn684 2.094 . S
O710 C688 1.240 . S
O711 Mn685 2.117 . S
O711 C688 1.264 . S
C712 C705 1.403 . S
C712 C713 1.399 . S
C712 H718 0.929 . S
C713 C693 1.449 . S
C713 C712 1.399 . S
C713 H719 0.930 . S
H714 C694 0.931 . S
H715 C695 0.930 . S
H716 C703 0.931 . S
H717 C704 0.929 . S
H718 C712 0.929 . S
H719 C713 0.930 . S
Mn720 O725 2.095 . S
Mn720 O735 2.162 . S
Mn720 O736 2.297 . S
Mn720 O744 2.385 . S
Mn720 O745 2.209 . S
Mn720 O746 2.094 . S
Mn721 O726 2.121 . S
Mn721 N728 2.257 . S
Mn721 N737 2.282 . S
Mn721 O745 2.215 . S
Mn721 O747 2.117 . S
C722 O744 1.234 . S
C722 O745 1.283 . S
C723 O735 1.281 . S
C723 O736 1.236 . S
C724 O746 1.240 . S
C724 O747 1.264 . S
O725 Mn720 2.095 . S
O725 C734 1.250 . S
O726 Mn721 2.121 . S
O726 C734 1.258 . S
C727 N728 1.326 . S
C727 C731 1.460 . S
C727 H733 0.929 . S
N728 Mn721 2.257 . S
N728 C727 1.326 . S
N728 C732 1.362 . S
C729 C730 1.258 . S
C729 C732 1.431 . S
C729 C749 1.449 . S
C730 C729 1.258 . S
C730 C731 1.477 . S
C730 H750 0.931 . S
C731 C727 1.460 . S
C731 C730 1.477 . S
C731 H751 0.930 . S
C732 N728 1.362 . S
C732 C729 1.431 . S
C732 C742 1.476 . S
H733 C727 0.929 . S
C734 O725 1.250 . S
C734 O726 1.258 . S
O735 Mn720 2.162 . S
O735 C723 1.281 . S
O736 Mn720 2.297 . S
O736 C723 1.236 . S
N737 Mn721 2.282 . S
N737 C738 1.328 . S
N737 C742 1.318 . S
C738 N737 1.328 . S
C738 C739 1.457 . S
C738 H743 0.929 . S
C739 C738 1.457 . S
C739 C740 1.291 . S
C739 H752 0.931 . S
C740 C739 1.291 . S
C740 C741 1.373 . S
C740 H753 0.929 . S
C741 C740 1.373 . S
C741 C742 1.396 . S
C741 C748 1.403 . S
C742 C732 1.476 . S
C742 N737 1.318 . S
C742 C741 1.396 . S
H743 C738 0.929 . S
O744 Mn720 2.385 . S
O744 C722 1.234 . S
O745 Mn720 2.209 . S
O745 Mn721 2.215 . S
O745 C722 1.283 . S
O746 Mn720 2.094 . S
O746 C724 1.240 . S
O747 Mn721 2.117 . S
O747 C724 1.264 . S
C748 C741 1.403 . S
C748 C749 1.399 . S
C748 H754 0.929 . S
C749 C729 1.449 . S
C749 C748 1.399 . S
C749 H755 0.930 . S
H750 C730 0.931 . S
H751 C731 0.930 . S
H752 C739 0.931 . S
H753 C740 0.929 . S
H754 C748 0.929 . S
H755 C749 0.930 . S
Mn756 O761 2.095 . S
Mn756 O771 2.162 . S
Mn756 O772 2.297 . S
Mn756 O780 2.385 . S
Mn756 O781 2.209 . S
Mn756 O782 2.094 . S
Mn757 O762 2.121 . S
Mn757 N764 2.257 . S
Mn757 N773 2.282 . S
Mn757 O781 2.215 . S
Mn757 O783 2.117 . S
C758 O780 1.234 . S
C758 O781 1.283 . S
C759 O771 1.281 . S
C759 O772 1.236 . S
C760 O782 1.240 . S
C760 O783 1.264 . S
O761 Mn756 2.095 . S
O761 C770 1.250 . S
O762 Mn757 2.121 . S
O762 C770 1.258 . S
C763 N764 1.326 . S
C763 C767 1.460 . S
C763 H769 0.929 . S
N764 Mn757 2.257 . S
N764 C763 1.326 . S
N764 C768 1.362 . S
C765 C766 1.258 . S
C765 C768 1.431 . S
C765 C785 1.449 . S
C766 C765 1.258 . S
C766 C767 1.477 . S
C766 H786 0.931 . S
C767 C763 1.460 . S
C767 C766 1.477 . S
C767 H787 0.930 . S
C768 N764 1.362 . S
C768 C765 1.431 . S
C768 C778 1.476 . S
H769 C763 0.929 . S
C770 O761 1.250 . S
C770 O762 1.258 . S
O771 Mn756 2.162 . S
O771 C759 1.281 . S
O772 Mn756 2.297 . S
O772 C759 1.236 . S
N773 Mn757 2.282 . S
N773 C774 1.328 . S
N773 C778 1.318 . S
C774 N773 1.328 . S
C774 C775 1.457 . S
C774 H779 0.929 . S
C775 C774 1.457 . S
C775 C776 1.291 . S
C775 H788 0.931 . S
C776 C775 1.291 . S
C776 C777 1.373 . S
C776 H789 0.929 . S
C777 C776 1.373 . S
C777 C778 1.396 . S
C777 C784 1.403 . S
C778 C768 1.476 . S
C778 N773 1.318 . S
C778 C777 1.396 . S
H779 C774 0.929 . S
O780 Mn756 2.385 . S
O780 C758 1.234 . S
O781 Mn756 2.209 . S
O781 Mn757 2.215 . S
O781 C758 1.283 . S
O782 Mn756 2.094 . S
O782 C760 1.240 . S
O783 Mn757 2.117 . S
O783 C760 1.264 . S
C784 C777 1.403 . S
C784 C785 1.399 . S
C784 H790 0.929 . S
C785 C765 1.449 . S
C785 C784 1.399 . S
C785 H791 0.930 . S
H786 C766 0.931 . S
H787 C767 0.930 . S
H788 C775 0.931 . S
H789 C776 0.929 . S
H790 C784 0.929 . S
H791 C785 0.930 . S
Mn792 O797 2.095 . S
Mn792 O807 2.162 . S
Mn792 O808 2.297 . S
Mn792 O816 2.385 . S
Mn792 O817 2.209 . S
Mn792 O818 2.094 . S
Mn793 O798 2.121 . S
Mn793 N800 2.257 . S
Mn793 N809 2.282 . S
Mn793 O817 2.215 . S
Mn793 O819 2.117 . S
C794 O816 1.234 . S
C794 O817 1.283 . S
C795 O807 1.281 . S
C795 O808 1.236 . S
C796 O818 1.240 . S
C796 O819 1.264 . S
O797 Mn792 2.095 . S
O797 C806 1.250 . S
O798 Mn793 2.121 . S
O798 C806 1.258 . S
C799 N800 1.326 . S
C799 C803 1.460 . S
C799 H805 0.929 . S
N800 Mn793 2.257 . S
N800 C799 1.326 . S
N800 C804 1.362 . S
C801 C802 1.258 . S
C801 C804 1.431 . S
C801 C821 1.449 . S
C802 C801 1.258 . S
C802 C803 1.477 . S
C802 H822 0.931 . S
C803 C799 1.460 . S
C803 C802 1.477 . S
C803 H823 0.930 . S
C804 N800 1.362 . S
C804 C801 1.431 . S
C804 C814 1.476 . S
H805 C799 0.929 . S
C806 O797 1.250 . S
C806 O798 1.258 . S
O807 Mn792 2.162 . S
O807 C795 1.281 . S
O808 Mn792 2.297 . S
O808 C795 1.236 . S
N809 Mn793 2.282 . S
N809 C810 1.328 . S
N809 C814 1.318 . S
C810 N809 1.328 . S
C810 C811 1.457 . S
C810 H815 0.929 . S
C811 C810 1.457 . S
C811 C812 1.291 . S
C811 H824 0.931 . S
C812 C811 1.291 . S
C812 C813 1.373 . S
C812 H825 0.929 . S
C813 C812 1.373 . S
C813 C814 1.396 . S
C813 C820 1.403 . S
C814 C804 1.476 . S
C814 N809 1.318 . S
C814 C813 1.396 . S
H815 C810 0.929 . S
O816 Mn792 2.385 . S
O816 C794 1.234 . S
O817 Mn792 2.209 . S
O817 Mn793 2.215 . S
O817 C794 1.283 . S
O818 Mn792 2.094 . S
O818 C796 1.240 . S
O819 Mn793 2.117 . S
O819 C796 1.264 . S
C820 C813 1.403 . S
C820 C821 1.399 . S
C820 H826 0.929 . S
C821 C801 1.449 . S
C821 C820 1.399 . S
C821 H827 0.930 . S
H822 C802 0.931 . S
H823 C803 0.930 . S
H824 C811 0.931 . S
H825 C812 0.929 . S
H826 C820 0.929 . S
H827 C821 0.930 . S
Mn828 O833 2.095 . S
Mn828 O843 2.162 . S
Mn828 O844 2.297 . S
Mn828 O852 2.385 . S
Mn828 O853 2.209 . S
Mn828 O854 2.094 . S
Mn829 O834 2.121 . S
Mn829 N836 2.257 . S
Mn829 N845 2.282 . S
Mn829 O853 2.215 . S
Mn829 O855 2.117 . S
C830 O852 1.234 . S
C830 O853 1.283 . S
C831 O843 1.281 . S
C831 O844 1.236 . S
C832 O854 1.240 . S
C832 O855 1.264 . S
O833 Mn828 2.095 . S
O833 C842 1.250 . S
O834 Mn829 2.121 . S
O834 C842 1.258 . S
C835 N836 1.326 . S
C835 C839 1.460 . S
C835 H841 0.929 . S
N836 Mn829 2.257 . S
N836 C835 1.326 . S
N836 C840 1.362 . S
C837 C838 1.258 . S
C837 C840 1.431 . S
C837 C857 1.449 . S
C838 C837 1.258 . S
C838 C839 1.477 . S
C838 H858 0.931 . S
C839 C835 1.460 . S
C839 C838 1.477 . S
C839 H859 0.930 . S
C840 N836 1.362 . S
C840 C837 1.431 . S
C840 C850 1.476 . S
H841 C835 0.929 . S
C842 O833 1.250 . S
C842 O834 1.258 . S
O843 Mn828 2.162 . S
O843 C831 1.281 . S
O844 Mn828 2.297 . S
O844 C831 1.236 . S
N845 Mn829 2.282 . S
N845 C846 1.328 . S
N845 C850 1.318 . S
C846 N845 1.328 . S
C846 C847 1.457 . S
C846 H851 0.929 . S
C847 C846 1.457 . S
C847 C848 1.291 . S
C847 H860 0.931 . S
C848 C847 1.291 . S
C848 C849 1.373 . S
C848 H861 0.929 . S
C849 C848 1.373 . S
C849 C850 1.396 . S
C849 C856 1.403 . S
C850 C840 1.476 . S
C850 N845 1.318 . S
C850 C849 1.396 . S
H851 C846 0.929 . S
O852 Mn828 2.385 . S
O852 C830 1.234 . S
O853 Mn828 2.209 . S
O853 Mn829 2.215 . S
O853 C830 1.283 . S
O854 Mn828 2.094 . S
O854 C832 1.240 . S
O855 Mn829 2.117 . S
O855 C832 1.264 . S
C856 C849 1.403 . S
C856 C857 1.399 . S
C856 H862 0.929 . S
C857 C837 1.449 . S
C857 C856 1.399 . S
C857 H863 0.930 . S
H858 C838 0.931 . S
H859 C839 0.930 . S
H860 C847 0.931 . S
H861 C848 0.929 . S
H862 C856 0.929 . S
H863 C857 0.930 . S
Mn864 O869 2.095 . S
Mn864 O879 2.162 . S
Mn864 O880 2.297 . S
Mn864 O888 2.385 . S
Mn864 O889 2.209 . S
Mn864 O890 2.094 . S
Mn865 O870 2.121 . S
Mn865 N872 2.257 . S
Mn865 N881 2.282 . S
Mn865 O889 2.215 . S
Mn865 O891 2.117 . S
C866 O888 1.234 . S
C866 O889 1.283 . S
C867 O879 1.281 . S
C867 O880 1.236 . S
C868 O890 1.240 . S
C868 O891 1.264 . S
O869 Mn864 2.095 . S
O869 C878 1.250 . S
O870 Mn865 2.121 . S
O870 C878 1.258 . S
C871 N872 1.326 . S
C871 C875 1.460 . S
C871 H877 0.929 . S
N872 Mn865 2.257 . S
N872 C871 1.326 . S
N872 C876 1.362 . S
C873 C874 1.258 . S
C873 C876 1.431 . S
C873 C893 1.449 . S
C874 C873 1.258 . S
C874 C875 1.477 . S
C874 H894 0.931 . S
C875 C871 1.460 . S
C875 C874 1.477 . S
C875 H895 0.930 . S
C876 N872 1.362 . S
C876 C873 1.431 . S
C876 C886 1.476 . S
H877 C871 0.929 . S
C878 O869 1.250 . S
C878 O870 1.258 . S
O879 Mn864 2.162 . S
O879 C867 1.281 . S
O880 Mn864 2.297 . S
O880 C867 1.236 . S
N881 Mn865 2.282 . S
N881 C882 1.328 . S
N881 C886 1.318 . S
C882 N881 1.328 . S
C882 C883 1.457 . S
C882 H887 0.929 . S
C883 C882 1.457 . S
C883 C884 1.291 . S
C883 H896 0.931 . S
C884 C883 1.291 . S
C884 C885 1.373 . S
C884 H897 0.929 . S
C885 C884 1.373 . S
C885 C886 1.396 . S
C885 C892 1.403 . S
C886 C876 1.476 . S
C886 N881 1.318 . S
C886 C885 1.396 . S
H887 C882 0.929 . S
O888 Mn864 2.385 . S
O888 C866 1.234 . S
O889 Mn864 2.209 . S
O889 Mn865 2.215 . S
O889 C866 1.283 . S
O890 Mn864 2.094 . S
O890 C868 1.240 . S
O891 Mn865 2.117 . S
O891 C868 1.264 . S
C892 C885 1.403 . S
C892 C893 1.399 . S
C892 H898 0.929 . S
C893 C873 1.449 . S
C893 C892 1.399 . S
C893 H899 0.930 . S
H894 C874 0.931 . S
H895 C875 0.930 . S
H896 C883 0.931 . S
H897 C884 0.929 . S
H898 C892 0.929 . S
H899 C893 0.930 . S
Mn900 O905 2.095 . S
Mn900 O915 2.162 . S
Mn900 O916 2.297 . S
Mn900 O924 2.385 . S
Mn900 O925 2.209 . S
Mn900 O926 2.094 . S
Mn901 O906 2.121 . S
Mn901 N908 2.257 . S
Mn901 N917 2.282 . S
Mn901 O925 2.215 . S
Mn901 O927 2.117 . S
C902 O924 1.234 . S
C902 O925 1.283 . S
C903 O915 1.281 . S
C903 O916 1.236 . S
C904 O926 1.240 . S
C904 O927 1.264 . S
O905 Mn900 2.095 . S
O905 C914 1.250 . S
O906 Mn901 2.121 . S
O906 C914 1.258 . S
C907 N908 1.326 . S
C907 C911 1.460 . S
C907 H913 0.929 . S
N908 Mn901 2.257 . S
N908 C907 1.326 . S
N908 C912 1.362 . S
C909 C910 1.258 . S
C909 C912 1.431 . S
C909 C929 1.449 . S
C910 C909 1.258 . S
C910 C911 1.477 . S
C910 H930 0.931 . S
C911 C907 1.460 . S
C911 C910 1.477 . S
C911 H931 0.930 . S
C912 N908 1.362 . S
C912 C909 1.431 . S
C912 C922 1.476 . S
H913 C907 0.929 . S
C914 O905 1.250 . S
C914 O906 1.258 . S
O915 Mn900 2.162 . S
O915 C903 1.281 . S
O916 Mn900 2.297 . S
O916 C903 1.236 . S
N917 Mn901 2.282 . S
N917 C918 1.328 . S
N917 C922 1.318 . S
C918 N917 1.328 . S
C918 C919 1.457 . S
C918 H923 0.929 . S
C919 C918 1.457 . S
C919 C920 1.291 . S
C919 H932 0.931 . S
C920 C919 1.291 . S
C920 C921 1.373 . S
C920 H933 0.929 . S
C921 C920 1.373 . S
C921 C922 1.396 . S
C921 C928 1.403 . S
C922 C912 1.476 . S
C922 N917 1.318 . S
C922 C921 1.396 . S
H923 C918 0.929 . S
O924 Mn900 2.385 . S
O924 C902 1.234 . S
O925 Mn900 2.209 . S
O925 Mn901 2.215 . S
O925 C902 1.283 . S
O926 Mn900 2.094 . S
O926 C904 1.240 . S
O927 Mn901 2.117 . S
O927 C904 1.264 . S
C928 C921 1.403 . S
C928 C929 1.399 . S
C928 H934 0.929 . S
C929 C909 1.449 . S
C929 C928 1.399 . S
C929 H935 0.930 . S
H930 C910 0.931 . S
H931 C911 0.930 . S
H932 C919 0.931 . S
H933 C920 0.929 . S
H934 C928 0.929 . S
H935 C929 0.930 . S
Mn936 O941 2.095 . S
Mn936 O951 2.162 . S
Mn936 O952 2.297 . S
Mn936 O960 2.385 . S
Mn936 O961 2.209 . S
Mn936 O962 2.094 . S
Mn937 O942 2.121 . S
Mn937 N944 2.235 1_556 S
Mn937 N953 2.282 1_556 S
Mn937 O961 2.215 . S
Mn937 O963 2.117 . S
C938 O960 1.228 1_554 S
C938 O961 1.273 1_554 S
C939 O951 1.281 . S
C939 O952 1.236 . S
C940 O962 1.240 . S
C940 O963 1.264 . S
O941 Mn936 2.095 . S
O941 C950 1.250 . S
O942 Mn937 2.121 . S
O942 C950 1.258 . S
C943 N944 1.324 1_556 S
C943 C947 1.460 1_556 S
C943 H949 0.929 . S
N944 Mn937 2.235 1_554 S
N944 C943 1.324 1_554 S
N944 C948 1.387 . S
C945 C946 1.258 . S
C945 C948 1.431 . S
C945 C965 1.449 . S
C946 C945 1.258 . S
C946 C947 1.477 . S
C946 H966 0.931 . S
C947 C943 1.460 1_554 S
C947 C946 1.477 . S
C947 H967 0.930 . S
C948 N944 1.387 . S
C948 C945 1.431 . S
C948 C958 1.476 . S
H949 C943 0.929 . S
C950 O941 1.250 . S
C950 O942 1.258 . S
O951 Mn936 2.162 . S
O951 C939 1.281 . S
O952 Mn936 2.297 . S
O952 C939 1.236 . S
N953 Mn937 2.282 1_554 S
N953 C954 1.328 . S
N953 C958 1.318 . S
C954 N953 1.328 . S
C954 C955 1.457 . S
C954 H959 0.929 1_554 S
C955 C954 1.457 . S
C955 C956 1.291 . S
C955 H968 0.931 . S
C956 C955 1.291 . S
C956 C957 1.373 . S
C956 H969 0.929 . S
C957 C956 1.373 . S
C957 C958 1.396 . S
C957 C964 1.403 . S
C958 C948 1.476 . S
C958 N953 1.318 . S
C958 C957 1.396 . S
H959 C954 0.929 1_556 S
O960 Mn936 2.385 . S
O960 C938 1.228 1_556 S
O961 Mn936 2.209 . S
O961 Mn937 2.215 . S
O961 C938 1.273 1_556 S
O962 Mn936 2.094 . S
O962 C940 1.240 . S
O963 Mn937 2.117 . S
O963 C940 1.264 . S
C964 C957 1.403 . S
C964 C965 1.399 . S
C964 H970 0.929 . S
C965 C945 1.449 . S
C965 C964 1.399 . S
C965 H971 0.930 . S
H966 C946 0.931 . S
H967 C947 0.930 . S
H968 C955 0.931 . S
H969 C956 0.929 . S
H970 C964 0.929 . S
H971 C965 0.930 . S
Mn972 O977 2.095 . S
Mn972 O987 2.162 . S
Mn972 O988 2.297 . S
Mn972 O996 2.385 . S
Mn972 O997 2.209 . S
Mn972 O998 2.094 . S
Mn973 O978 2.121 . S
Mn973 N980 2.234 1_556 S
Mn973 N989 2.282 1_556 S
Mn973 O997 2.215 . S
Mn973 O999 2.117 . S
C974 O996 1.228 1_554 S
C974 O997 1.272 1_554 S
C975 O987 1.281 . S
C975 O988 1.236 . S
C976 O998 1.240 . S
C976 O999 1.264 . S
O977 Mn972 2.095 . S
O977 C986 1.250 . S
O978 Mn973 2.121 . S
O978 C986 1.258 . S
C979 N980 1.324 1_556 S
C979 C983 1.460 1_556 S
C979 H985 0.929 . S
N980 Mn973 2.234 1_554 S
N980 C979 1.324 1_554 S
N980 C984 1.388 . S
C981 C982 1.258 . S
C981 C984 1.431 . S
C981 C1001 1.449 . S
C982 C981 1.258 . S
C982 C983 1.477 . S
C982 H1002 0.931 . S
C983 C979 1.460 1_554 S
C983 C982 1.477 . S
C983 H1003 0.930 . S
C984 N980 1.388 . S
C984 C981 1.431 . S
C984 C994 1.476 . S
H985 C979 0.929 . S
C986 O977 1.250 . S
C986 O978 1.258 . S
O987 Mn972 2.162 . S
O987 C975 1.281 . S
O988 Mn972 2.297 . S
O988 C975 1.236 . S
N989 Mn973 2.282 1_554 S
N989 C990 1.328 . S
N989 C994 1.318 . S
C990 N989 1.328 . S
C990 C991 1.457 . S
C990 H995 0.929 1_554 S
C991 C990 1.457 . S
C991 C992 1.291 . S
C991 H1004 0.931 . S
C992 C991 1.291 . S
C992 C993 1.373 . S
C992 H1005 0.929 . S
C993 C992 1.373 . S
C993 C994 1.396 . S
C993 C1000 1.403 . S
C994 C984 1.476 . S
C994 N989 1.318 . S
C994 C993 1.396 . S
H995 C990 0.929 1_556 S
O996 Mn972 2.385 . S
O996 C974 1.228 1_556 S
O997 Mn972 2.209 . S
O997 Mn973 2.215 . S
O997 C974 1.272 1_556 S
O998 Mn972 2.094 . S
O998 C976 1.240 . S
O999 Mn973 2.117 . S
O999 C976 1.264 . S
C1000 C993 1.403 . S
C1000 C1001 1.399 . S
C1000 H1006 0.929 . S
C1001 C981 1.449 . S
C1001 C1000 1.399 . S
C1001 H1007 0.930 . S
H1002 C982 0.931 . S
H1003 C983 0.930 . S
H1004 C991 0.931 . S
H1005 C992 0.929 . S
H1006 C1000 0.929 . S
H1007 C1001 0.930 . S
Mn1008 O1013 2.095 . S
Mn1008 O1023 2.162 . S
Mn1008 O1024 2.297 . S
Mn1008 O1032 2.385 . S
Mn1008 O1033 2.209 . S
Mn1008 O1034 2.094 . S
Mn1009 O1014 2.121 . S
Mn1009 N1016 2.257 . S
Mn1009 N1025 2.282 . S
Mn1009 O1033 2.215 . S
Mn1009 O1035 2.117 . S
C1010 O1032 1.234 . S
C1010 O1033 1.283 . S
C1011 O1023 1.281 . S
C1011 O1024 1.236 . S
C1012 O1034 1.240 . S
C1012 O1035 1.264 . S
O1013 Mn1008 2.095 . S
O1013 C1022 1.250 . S
O1014 Mn1009 2.121 . S
O1014 C1022 1.258 . S
C1015 N1016 1.326 . S
C1015 C1019 1.460 . S
C1015 H1021 0.929 . S
N1016 Mn1009 2.257 . S
N1016 C1015 1.326 . S
N1016 C1020 1.362 . S
C1017 C1018 1.258 . S
C1017 C1020 1.431 . S
C1017 C1037 1.449 . S
C1018 C1017 1.258 . S
C1018 C1019 1.477 . S
C1018 H1038 0.931 . S
C1019 C1015 1.460 . S
C1019 C1018 1.477 . S
C1019 H1039 0.930 . S
C1020 N1016 1.362 . S
C1020 C1017 1.431 . S
C1020 C1030 1.476 . S
H1021 C1015 0.929 . S
C1022 O1013 1.250 . S
C1022 O1014 1.258 . S
O1023 Mn1008 2.162 . S
O1023 C1011 1.281 . S
O1024 Mn1008 2.297 . S
O1024 C1011 1.236 . S
N1025 Mn1009 2.282 . S
N1025 C1026 1.328 . S
N1025 C1030 1.318 . S
C1026 N1025 1.328 . S
C1026 C1027 1.457 . S
C1026 H1031 0.929 . S
C1027 C1026 1.457 . S
C1027 C1028 1.291 . S
C1027 H1040 0.931 . S
C1028 C1027 1.291 . S
C1028 C1029 1.373 . S
C1028 H1041 0.929 . S
C1029 C1028 1.373 . S
C1029 C1030 1.396 . S
C1029 C1036 1.403 . S
C1030 C1020 1.476 . S
C1030 N1025 1.318 . S
C1030 C1029 1.396 . S
H1031 C1026 0.929 . S
O1032 Mn1008 2.385 . S
O1032 C1010 1.234 . S
O1033 Mn1008 2.209 . S
O1033 Mn1009 2.215 . S
O1033 C1010 1.283 . S
O1034 Mn1008 2.094 . S
O1034 C1012 1.240 . S
O1035 Mn1009 2.117 . S
O1035 C1012 1.264 . S
C1036 C1029 1.403 . S
C1036 C1037 1.399 . S
C1036 H1042 0.929 . S
C1037 C1017 1.449 . S
C1037 C1036 1.399 . S
C1037 H1043 0.930 . S
H1038 C1018 0.931 . S
H1039 C1019 0.930 . S
H1040 C1027 0.931 . S
H1041 C1028 0.929 . S
H1042 C1036 0.929 . S
H1043 C1037 0.930 . S
Mn1044 O1049 2.095 . S
Mn1044 O1059 2.162 . S
Mn1044 O1060 2.297 . S
Mn1044 O1068 2.385 . S
Mn1044 O1069 2.209 . S
Mn1044 O1070 2.094 . S
Mn1045 O1050 2.121 . S
Mn1045 N1052 2.257 . S
Mn1045 N1061 2.282 . S
Mn1045 O1069 2.215 . S
Mn1045 O1071 2.117 . S
C1046 O1068 1.234 . S
C1046 O1069 1.283 . S
C1047 O1059 1.281 . S
C1047 O1060 1.236 . S
C1048 O1070 1.240 . S
C1048 O1071 1.264 . S
O1049 Mn1044 2.095 . S
O1049 C1058 1.250 . S
O1050 Mn1045 2.121 . S
O1050 C1058 1.258 . S
C1051 N1052 1.326 . S
C1051 C1055 1.460 . S
C1051 H1057 0.929 . S
N1052 Mn1045 2.257 . S
N1052 C1051 1.326 . S
N1052 C1056 1.362 . S
C1053 C1054 1.258 . S
C1053 C1056 1.431 . S
C1053 C1073 1.449 . S
C1054 C1053 1.258 . S
C1054 C1055 1.477 . S
C1054 H1074 0.931 . S
C1055 C1051 1.460 . S
C1055 C1054 1.477 . S
C1055 H1075 0.930 . S
C1056 N1052 1.362 . S
C1056 C1053 1.431 . S
C1056 C1066 1.476 . S
H1057 C1051 0.929 . S
C1058 O1049 1.250 . S
C1058 O1050 1.258 . S
O1059 Mn1044 2.162 . S
O1059 C1047 1.281 . S
O1060 Mn1044 2.297 . S
O1060 C1047 1.236 . S
N1061 Mn1045 2.282 . S
N1061 C1062 1.328 . S
N1061 C1066 1.318 . S
C1062 N1061 1.328 . S
C1062 C1063 1.457 . S
C1062 H1067 0.929 . S
C1063 C1062 1.457 . S
C1063 C1064 1.291 . S
C1063 H1076 0.931 . S
C1064 C1063 1.291 . S
C1064 C1065 1.373 . S
C1064 H1077 0.929 . S
C1065 C1064 1.373 . S
C1065 C1066 1.396 . S
C1065 C1072 1.403 . S
C1066 C1056 1.476 . S
C1066 N1061 1.318 . S
C1066 C1065 1.396 . S
H1067 C1062 0.929 . S
O1068 Mn1044 2.385 . S
O1068 C1046 1.234 . S
O1069 Mn1044 2.209 . S
O1069 Mn1045 2.215 . S
O1069 C1046 1.283 . S
O1070 Mn1044 2.094 . S
O1070 C1048 1.240 . S
O1071 Mn1045 2.117 . S
O1071 C1048 1.264 . S
C1072 C1065 1.403 . S
C1072 C1073 1.399 . S
C1072 H1078 0.929 . S
C1073 C1053 1.449 . S
C1073 C1072 1.399 . S
C1073 H1079 0.930 . S
H1074 C1054 0.931 . S
H1075 C1055 0.930 . S
H1076 C1063 0.931 . S
H1077 C1064 0.929 . S
H1078 C1072 0.929 . S
H1079 C1073 0.930 . S
Mn1080 O1085 2.095 . S
Mn1080 O1095 2.162 . S
Mn1080 O1096 2.297 . S
Mn1080 O1104 2.385 . S
Mn1080 O1105 2.209 . S
Mn1080 O1106 2.094 . S
Mn1081 O1086 2.121 . S
Mn1081 N1088 2.235 1_554 S
Mn1081 N1097 2.282 1_554 S
Mn1081 O1105 2.215 . S
Mn1081 O1107 2.117 . S
C1082 O1104 1.228 1_556 S
C1082 O1105 1.273 1_556 S
C1083 O1095 1.281 . S
C1083 O1096 1.236 . S
C1084 O1106 1.240 . S
C1084 O1107 1.264 . S
O1085 Mn1080 2.095 . S
O1085 C1094 1.250 . S
O1086 Mn1081 2.121 . S
O1086 C1094 1.258 . S
C1087 N1088 1.324 1_554 S
C1087 C1091 1.460 1_554 S
C1087 H1093 0.929 . S
N1088 Mn1081 2.235 1_556 S
N1088 C1087 1.324 1_556 S
N1088 C1092 1.387 . S
C1089 C1090 1.258 . S
C1089 C1092 1.431 . S
C1089 C1109 1.449 . S
C1090 C1089 1.258 . S
C1090 C1091 1.477 . S
C1090 H1110 0.931 . S
C1091 C1087 1.460 1_556 S
C1091 C1090 1.477 . S
C1091 H1111 0.930 . S
C1092 N1088 1.387 . S
C1092 C1089 1.431 . S
C1092 C1102 1.476 . S
H1093 C1087 0.929 . S
C1094 O1085 1.250 . S
C1094 O1086 1.258 . S
O1095 Mn1080 2.162 . S
O1095 C1083 1.281 . S
O1096 Mn1080 2.297 . S
O1096 C1083 1.236 . S
N1097 Mn1081 2.282 1_556 S
N1097 C1098 1.328 . S
N1097 C1102 1.318 . S
C1098 N1097 1.328 . S
C1098 C1099 1.457 . S
C1098 H1103 0.929 1_556 S
C1099 C1098 1.457 . S
C1099 C1100 1.291 . S
C1099 H1112 0.931 . S
C1100 C1099 1.291 . S
C1100 C1101 1.373 . S
C1100 H1113 0.929 . S
C1101 C1100 1.373 . S
C1101 C1102 1.396 . S
C1101 C1108 1.403 . S
C1102 C1092 1.476 . S
C1102 N1097 1.318 . S
C1102 C1101 1.396 . S
H1103 C1098 0.929 1_554 S
O1104 Mn1080 2.385 . S
O1104 C1082 1.228 1_554 S
O1105 Mn1080 2.209 . S
O1105 Mn1081 2.215 . S
O1105 C1082 1.273 1_554 S
O1106 Mn1080 2.094 . S
O1106 C1084 1.240 . S
O1107 Mn1081 2.117 . S
O1107 C1084 1.264 . S
C1108 C1101 1.403 . S
C1108 C1109 1.399 . S
C1108 H1114 0.929 . S
C1109 C1089 1.449 . S
C1109 C1108 1.399 . S
C1109 H1115 0.930 . S
H1110 C1090 0.931 . S
H1111 C1091 0.930 . S
H1112 C1099 0.931 . S
H1113 C1100 0.929 . S
H1114 C1108 0.929 . S
H1115 C1109 0.930 . S
Mn1116 O1121 2.095 . S
Mn1116 O1131 2.162 . S
Mn1116 O1132 2.297 . S
Mn1116 O1140 2.385 . S
Mn1116 O1141 2.209 . S
Mn1116 O1142 2.094 . S
Mn1117 O1122 2.121 . S
Mn1117 N1124 2.234 1_554 S
Mn1117 N1133 2.282 1_554 S
Mn1117 O1141 2.215 . S
Mn1117 O1143 2.117 . S
C1118 O1140 1.228 1_556 S
C1118 O1141 1.272 1_556 S
C1119 O1131 1.281 . S
C1119 O1132 1.236 . S
C1120 O1142 1.240 . S
C1120 O1143 1.264 . S
O1121 Mn1116 2.095 . S
O1121 C1130 1.250 . S
O1122 Mn1117 2.121 . S
O1122 C1130 1.258 . S
C1123 N1124 1.324 1_554 S
C1123 C1127 1.460 1_554 S
C1123 H1129 0.929 . S
N1124 Mn1117 2.234 1_556 S
N1124 C1123 1.324 1_556 S
N1124 C1128 1.388 . S
C1125 C1126 1.258 . S
C1125 C1128 1.431 . S
C1125 C1145 1.449 . S
C1126 C1125 1.258 . S
C1126 C1127 1.477 . S
C1126 H1146 0.931 . S
C1127 C1123 1.460 1_556 S
C1127 C1126 1.477 . S
C1127 H1147 0.930 . S
C1128 N1124 1.388 . S
C1128 C1125 1.431 . S
C1128 C1138 1.476 . S
H1129 C1123 0.929 . S
C1130 O1121 1.250 . S
C1130 O1122 1.258 . S
O1131 Mn1116 2.162 . S
O1131 C1119 1.281 . S
O1132 Mn1116 2.297 . S
O1132 C1119 1.236 . S
N1133 Mn1117 2.282 1_556 S
N1133 C1134 1.328 . S
N1133 C1138 1.318 . S
C1134 N1133 1.328 . S
C1134 C1135 1.457 . S
C1134 H1139 0.929 1_556 S
C1135 C1134 1.457 . S
C1135 C1136 1.291 . S
C1135 H1148 0.931 . S
C1136 C1135 1.291 . S
C1136 C1137 1.373 . S
C1136 H1149 0.929 . S
C1137 C1136 1.373 . S
C1137 C1138 1.396 . S
C1137 C1144 1.403 . S
C1138 C1128 1.476 . S
C1138 N1133 1.318 . S
C1138 C1137 1.396 . S
H1139 C1134 0.929 1_554 S
O1140 Mn1116 2.385 . S
O1140 C1118 1.228 1_554 S
O1141 Mn1116 2.209 . S
O1141 Mn1117 2.215 . S
O1141 C1118 1.272 1_554 S
O1142 Mn1116 2.094 . S
O1142 C1120 1.240 . S
O1143 Mn1117 2.117 . S
O1143 C1120 1.264 . S
C1144 C1137 1.403 . S
C1144 C1145 1.399 . S
C1144 H1150 0.929 . S
C1145 C1125 1.449 . S
C1145 C1144 1.399 . S
C1145 H1151 0.930 . S
H1146 C1126 0.931 . S
H1147 C1127 0.930 . S
H1148 C1135 0.931 . S
H1149 C1136 0.929 . S
H1150 C1144 0.929 . S
H1151 C1145 0.930 . S
H1152 C1160 0.929 . S
H1153 C1162 0.930 . S
H1154 C1164 0.930 . S
H1155 C1167 0.929 . S
H1156 C1170 0.930 . S
H1157 C1172 0.960 . S
H1158 C1172 0.960 . S
H1159 C1172 0.960 . S
C1160 H1152 0.929 . S
C1160 C1161 1.377 . S
C1160 C1162 1.384 . S
C1161 C1160 1.377 . S
C1161 C1167 1.390 . S
C1162 H1153 0.930 . S
C1162 C1160 1.384 . S
C1162 C1163 1.372 . S
C1163 C1162 1.372 . S
C1163 C1164 1.400 . S
C1163 C1168 1.490 . S
C1164 H1154 0.930 . S
C1164 C1163 1.400 . S
C1164 C1167 1.386 . S
H1165 C1181 0.930 . S
H1166 C1182 0.931 . S
C1167 H1155 0.929 . S
C1167 C1161 1.390 . S
C1167 C1164 1.386 . S
C1168 C1163 1.490 . S
C1168 C1170 1.395 . S
C1168 C1171 1.403 . S
H1169 C1175 0.930 . S
C1170 H1156 0.930 . S
C1170 C1168 1.395 . S
C1170 C1173 1.403 . S
C1171 C1168 1.403 . S
C1171 C1172 1.524 . S
C1171 C1175 1.400 . S
C1172 H1157 0.960 . S
C1172 H1158 0.960 . S
C1172 H1159 0.960 . S
C1172 C1171 1.524 . S
C1173 C1170 1.403 . S
C1173 C1174 1.392 . S
C1173 C1177 1.495 . S
C1174 C1173 1.392 . S
C1174 C1175 1.385 . S
C1174 C1176 1.478 . S
C1175 H1169 0.930 . S
C1175 C1171 1.400 . S
C1175 C1174 1.385 . S
C1176 C1174 1.478 . S
C1176 C1178 1.381 . S
C1176 C1182 1.383 . S
C1177 C1173 1.495 . S
C1177 H1183 0.959 . S
C1177 H1184 0.961 . S
C1177 H1185 0.960 . S
C1178 C1176 1.381 . S
C1178 C1179 1.394 . S
C1178 H1186 0.930 . S
C1179 C1178 1.394 . S
C1179 C1180 1.383 . S
C1179 H1187 0.929 . S
C1180 C1179 1.383 . S
C1180 C1181 1.377 . S
C1181 H1165 0.930 . S
C1181 C1180 1.377 . S
C1181 C1182 1.379 . S
C1182 H1166 0.931 . S
C1182 C1176 1.383 . S
C1182 C1181 1.379 . S
H1183 C1177 0.959 . S
H1184 C1177 0.961 . S
H1185 C1177 0.960 . S
H1186 C1178 0.930 . S
H1187 C1179 0.929 . S
H1188 C1196 0.929 . S
H1189 C1198 0.930 . S
H1190 C1200 0.930 . S
H1191 C1203 0.929 . S
H1192 C1206 0.930 . S
H1193 C1208 0.960 . S
H1194 C1208 0.960 . S
H1195 C1208 0.960 . S
C1196 H1188 0.929 . S
C1196 C1197 1.377 . S
C1196 C1198 1.384 . S
C1197 C1196 1.377 . S
C1197 C1203 1.390 . S
C1198 H1189 0.930 . S
C1198 C1196 1.384 . S
C1198 C1199 1.372 . S
C1199 C1198 1.372 . S
C1199 C1200 1.400 . S
C1199 C1204 1.490 . S
C1200 H1190 0.930 . S
C1200 C1199 1.400 . S
C1200 C1203 1.386 . S
H1201 C1217 0.930 . S
H1202 C1218 0.931 . S
C1203 H1191 0.929 . S
C1203 C1197 1.390 . S
C1203 C1200 1.386 . S
C1204 C1199 1.490 . S
C1204 C1206 1.395 . S
C1204 C1207 1.403 . S
H1205 C1211 0.930 . S
C1206 H1192 0.930 . S
C1206 C1204 1.395 . S
C1206 C1209 1.403 . S
C1207 C1204 1.403 . S
C1207 C1208 1.524 . S
C1207 C1211 1.400 . S
C1208 H1193 0.960 . S
C1208 H1194 0.960 . S
C1208 H1195 0.960 . S
C1208 C1207 1.524 . S
C1209 C1206 1.403 . S
C1209 C1210 1.392 . S
C1209 C1213 1.495 . S
C1210 C1209 1.392 . S
C1210 C1211 1.385 . S
C1210 C1212 1.478 . S
C1211 H1205 0.930 . S
C1211 C1207 1.400 . S
C1211 C1210 1.385 . S
C1212 C1210 1.478 . S
C1212 C1214 1.381 . S
C1212 C1218 1.383 . S
C1213 C1209 1.495 . S
C1213 H1219 0.959 . S
C1213 H1220 0.961 . S
C1213 H1221 0.960 . S
C1214 C1212 1.381 . S
C1214 C1215 1.394 . S
C1214 H1222 0.930 . S
C1215 C1214 1.394 . S
C1215 C1216 1.383 . S
C1215 H1223 0.929 . S
C1216 C1215 1.383 . S
C1216 C1217 1.377 . S
C1217 H1201 0.930 . S
C1217 C1216 1.377 . S
C1217 C1218 1.379 . S
C1218 H1202 0.931 . S
C1218 C1212 1.383 . S
C1218 C1217 1.379 . S
H1219 C1213 0.959 . S
H1220 C1213 0.961 . S
H1221 C1213 0.960 . S
H1222 C1214 0.930 . S
H1223 C1215 0.929 . S
H1224 C1232 0.929 . S
H1225 C1234 0.930 . S
H1226 C1236 0.930 . S
H1227 C1239 0.929 . S
H1228 C1242 0.930 . S
H1229 C1244 0.960 . S
H1230 C1244 0.960 . S
H1231 C1244 0.960 . S
C1232 H1224 0.929 . S
C1232 C1233 1.377 . S
C1232 C1234 1.384 . S
C1233 C1232 1.377 . S
C1233 C1239 1.390 . S
C1234 H1225 0.930 . S
C1234 C1232 1.384 . S
C1234 C1235 1.372 . S
C1235 C1234 1.372 . S
C1235 C1236 1.400 . S
C1235 C1240 1.490 . S
C1236 H1226 0.930 . S
C1236 C1235 1.400 . S
C1236 C1239 1.386 . S
H1237 C1253 0.930 . S
H1238 C1254 0.931 . S
C1239 H1227 0.929 . S
C1239 C1233 1.390 . S
C1239 C1236 1.386 . S
C1240 C1235 1.490 . S
C1240 C1242 1.395 . S
C1240 C1243 1.403 . S
H1241 C1247 0.930 . S
C1242 H1228 0.930 . S
C1242 C1240 1.395 . S
C1242 C1245 1.403 . S
C1243 C1240 1.403 . S
C1243 C1244 1.524 . S
C1243 C1247 1.400 . S
C1244 H1229 0.960 . S
C1244 H1230 0.960 . S
C1244 H1231 0.960 . S
C1244 C1243 1.524 . S
C1245 C1242 1.403 . S
C1245 C1246 1.392 . S
C1245 C1249 1.495 1_455 S
C1246 C1245 1.392 . S
C1246 C1247 1.385 . S
C1246 C1248 1.478 . S
C1247 H1241 0.930 . S
C1247 C1243 1.400 . S
C1247 C1246 1.385 . S
C1248 C1246 1.478 . S
C1248 C1250 1.381 . S
C1248 C1254 1.383 . S
C1249 C1245 1.495 1_655 S
C1249 H1255 0.959 . S
C1249 H1256 0.961 . S
C1249 H1257 0.960 . S
C1250 C1248 1.381 . S
C1250 C1251 1.394 . S
C1250 H1258 0.930 . S
C1251 C1250 1.394 . S
C1251 C1252 1.383 . S
C1251 H1259 0.929 . S
C1252 C1251 1.383 . S
C1252 C1253 1.377 . S
C1253 H1237 0.930 . S
C1253 C1252 1.377 . S
C1253 C1254 1.379 . S
C1254 H1238 0.931 . S
C1254 C1248 1.383 . S
C1254 C1253 1.379 . S
H1255 C1249 0.959 . S
H1256 C1249 0.961 . S
H1257 C1249 0.960 . S
H1258 C1250 0.930 . S
H1259 C1251 0.929 . S
H1260 C1268 0.929 . S
H1261 C1270 0.930 . S
H1262 C1272 0.930 . S
H1263 C1275 0.929 . S
H1264 C1278 0.930 . S
H1265 C1280 0.960 . S
H1266 C1280 0.960 . S
H1267 C1280 0.960 . S
C1268 H1260 0.929 . S
C1268 C1269 1.377 . S
C1268 C1270 1.384 . S
C1269 C1268 1.377 . S
C1269 C1275 1.390 . S
C1270 H1261 0.930 . S
C1270 C1268 1.384 . S
C1270 C1271 1.372 . S
C1271 C1270 1.372 . S
C1271 C1272 1.400 . S
C1271 C1276 1.490 . S
C1272 H1262 0.930 . S
C1272 C1271 1.400 . S
C1272 C1275 1.386 . S
H1273 C1289 0.930 . S
H1274 C1290 0.931 . S
C1275 H1263 0.929 . S
C1275 C1269 1.390 . S
C1275 C1272 1.386 . S
C1276 C1271 1.490 . S
C1276 C1278 1.395 . S
C1276 C1279 1.403 . S
H1277 C1283 0.930 . S
C1278 H1264 0.930 . S
C1278 C1276 1.395 . S
C1278 C1281 1.403 . S
C1279 C1276 1.403 . S
C1279 C1280 1.524 . S
C1279 C1283 1.400 . S
C1280 H1265 0.960 . S
C1280 H1266 0.960 . S
C1280 H1267 0.960 . S
C1280 C1279 1.524 . S
C1281 C1278 1.403 . S
C1281 C1282 1.392 . S
C1281 C1285 1.495 . S
C1282 C1281 1.392 . S
C1282 C1283 1.385 . S
C1282 C1284 1.478 . S
C1283 H1277 0.930 . S
C1283 C1279 1.400 . S
C1283 C1282 1.385 . S
C1284 C1282 1.478 . S
C1284 C1286 1.381 . S
C1284 C1290 1.383 . S
C1285 C1281 1.495 . S
C1285 H1291 0.959 . S
C1285 H1292 0.961 . S
C1285 H1293 0.960 . S
C1286 C1284 1.381 . S
C1286 C1287 1.394 . S
C1286 H1294 0.930 . S
C1287 C1286 1.394 . S
C1287 C1288 1.383 . S
C1287 H1295 0.929 . S
C1288 C1287 1.383 . S
C1288 C1289 1.377 . S
C1289 H1273 0.930 . S
C1289 C1288 1.377 . S
C1289 C1290 1.379 . S
C1290 H1274 0.931 . S
C1290 C1284 1.383 . S
C1290 C1289 1.379 . S
H1291 C1285 0.959 . S
H1292 C1285 0.961 . S
H1293 C1285 0.960 . S
H1294 C1286 0.930 . S
H1295 C1287 0.929 . S
H1296 C1304 0.929 . S
H1297 C1306 0.930 . S
H1298 C1308 0.930 . S
H1299 C1311 0.929 . S
H1300 C1314 0.930 . S
H1301 C1316 0.960 . S
H1302 C1316 0.960 . S
H1303 C1316 0.960 . S
C1304 H1296 0.929 . S
C1304 C1305 1.377 . S
C1304 C1306 1.384 . S
C1305 C1304 1.377 . S
C1305 C1311 1.390 . S
C1306 H1297 0.930 . S
C1306 C1304 1.384 . S
C1306 C1307 1.372 . S
C1307 C1306 1.372 . S
C1307 C1308 1.400 . S
C1307 C1312 1.490 . S
C1308 H1298 0.930 . S
C1308 C1307 1.400 . S
C1308 C1311 1.386 . S
H1309 C1325 0.930 . S
H1310 C1326 0.931 . S
C1311 H1299 0.929 . S
C1311 C1305 1.390 . S
C1311 C1308 1.386 . S
C1312 C1307 1.490 . S
C1312 C1314 1.395 . S
C1312 C1315 1.403 . S
H1313 C1319 0.930 . S
C1314 H1300 0.930 . S
C1314 C1312 1.395 . S
C1314 C1317 1.403 . S
C1315 C1312 1.403 . S
C1315 C1316 1.524 1_655 S
C1315 C1319 1.400 . S
C1316 H1301 0.960 . S
C1316 H1302 0.960 . S
C1316 H1303 0.960 . S
C1316 C1315 1.524 1_455 S
C1317 C1314 1.403 . S
C1317 C1318 1.392 . S
C1317 C1321 1.495 . S
C1318 C1317 1.392 . S
C1318 C1319 1.385 . S
C1318 C1320 1.478 . S
C1319 H1313 0.930 . S
C1319 C1315 1.400 . S
C1319 C1318 1.385 . S
C1320 C1318 1.478 . S
C1320 C1322 1.381 . S
C1320 C1326 1.383 . S
C1321 C1317 1.495 . S
C1321 H1327 0.959 . S
C1321 H1328 0.961 . S
C1321 H1329 0.960 . S
C1322 C1320 1.381 . S
C1322 C1323 1.394 . S
C1322 H1330 0.930 . S
C1323 C1322 1.394 . S
C1323 C1324 1.383 . S
C1323 H1331 0.929 . S
C1324 C1323 1.383 . S
C1324 C1325 1.377 . S
C1325 H1309 0.930 . S
C1325 C1324 1.377 . S
C1325 C1326 1.379 . S
C1326 H1310 0.931 . S
C1326 C1320 1.383 . S
C1326 C1325 1.379 . S
H1327 C1321 0.959 . S
H1328 C1321 0.961 . S
H1329 C1321 0.960 . S
H1330 C1322 0.930 . S
H1331 C1323 0.929 . S
H1332 C1340 0.929 . S
H1333 C1342 0.930 . S
H1334 C1344 0.930 . S
H1335 C1347 0.929 . S
H1336 C1350 0.930 . S
H1337 C1352 0.960 . S
H1338 C1352 0.960 . S
H1339 C1352 0.960 . S
C1340 H1332 0.929 . S
C1340 C1341 1.377 . S
C1340 C1342 1.384 . S
C1341 C1340 1.377 . S
C1341 C1347 1.390 . S
C1342 H1333 0.930 . S
C1342 C1340 1.384 . S
C1342 C1343 1.372 . S
C1343 C1342 1.372 . S
C1343 C1344 1.400 . S
C1343 C1348 1.490 . S
C1344 H1334 0.930 . S
C1344 C1343 1.400 . S
C1344 C1347 1.386 . S
H1345 C1361 0.930 . S
H1346 C1362 0.931 . S
C1347 H1335 0.929 . S
C1347 C1341 1.390 . S
C1347 C1344 1.386 . S
C1348 C1343 1.490 . S
C1348 C1350 1.395 . S
C1348 C1351 1.403 . S
H1349 C1355 0.930 . S
C1350 H1336 0.930 . S
C1350 C1348 1.395 . S
C1350 C1353 1.403 . S
C1351 C1348 1.403 . S
C1351 C1352 1.524 . S
C1351 C1355 1.400 . S
C1352 H1337 0.960 . S
C1352 H1338 0.960 . S
C1352 H1339 0.960 . S
C1352 C1351 1.524 . S
C1353 C1350 1.403 . S
C1353 C1354 1.392 . S
C1353 C1357 1.495 . S
C1354 C1353 1.392 . S
C1354 C1355 1.385 . S
C1354 C1356 1.478 . S
C1355 H1349 0.930 . S
C1355 C1351 1.400 . S
C1355 C1354 1.385 . S
C1356 C1354 1.478 . S
C1356 C1358 1.381 . S
C1356 C1362 1.383 . S
C1357 C1353 1.495 . S
C1357 H1363 0.959 . S
C1357 H1364 0.961 . S
C1357 H1365 0.960 . S
C1358 C1356 1.381 . S
C1358 C1359 1.394 . S
C1358 H1366 0.930 . S
C1359 C1358 1.394 . S
C1359 C1360 1.383 . S
C1359 H1367 0.929 . S
C1360 C1359 1.383 . S
C1360 C1361 1.377 . S
C1361 H1345 0.930 . S
C1361 C1360 1.377 . S
C1361 C1362 1.379 . S
C1362 H1346 0.931 . S
C1362 C1356 1.383 . S
C1362 C1361 1.379 . S
H1363 C1357 0.959 . S
H1364 C1357 0.961 . S
H1365 C1357 0.960 . S
H1366 C1358 0.930 . S
H1367 C1359 0.929 . S
H1368 C1376 0.929 . S
H1369 C1378 0.930 . S
H1370 C1380 0.930 . S
H1371 C1383 0.929 . S
H1372 C1386 0.930 . S
H1373 C1388 0.960 1_455 S
H1374 C1388 0.960 . S
H1375 C1388 0.960 1_455 S
C1376 H1368 0.929 . S
C1376 C1377 1.377 . S
C1376 C1378 1.384 . S
C1377 C1376 1.377 . S
C1377 C1383 1.390 . S
C1378 H1369 0.930 . S
C1378 C1376 1.384 . S
C1378 C1379 1.372 . S
C1379 C1378 1.372 . S
C1379 C1380 1.400 . S
C1379 C1384 1.490 . S
C1380 H1370 0.930 . S
C1380 C1379 1.400 . S
C1380 C1383 1.386 . S
H1381 C1397 0.930 . S
H1382 C1398 0.931 . S
C1383 H1371 0.929 . S
C1383 C1377 1.390 . S
C1383 C1380 1.386 . S
C1384 C1379 1.490 . S
C1384 C1386 1.395 . S
C1384 C1387 1.403 . S
H1385 C1391 0.930 . S
C1386 H1372 0.930 . S
C1386 C1384 1.395 . S
C1386 C1389 1.403 . S
C1387 C1384 1.403 . S
C1387 C1388 1.524 . S
C1387 C1391 1.400 . S
C1388 H1373 0.960 1_655 S
C1388 H1374 0.960 . S
C1388 H1375 0.960 1_655 S
C1388 C1387 1.524 . S
C1389 C1386 1.403 . S
C1389 C1390 1.392 . S
C1389 C1393 1.495 . S
C1390 C1389 1.392 . S
C1390 C1391 1.385 . S
C1390 C1392 1.478 . S
C1391 H1385 0.930 . S
C1391 C1387 1.400 . S
C1391 C1390 1.385 . S
C1392 C1390 1.478 . S
C1392 C1394 1.381 . S
C1392 C1398 1.383 . S
C1393 C1389 1.495 . S
C1393 H1399 0.959 . S
C1393 H1400 0.961 . S
C1393 H1401 0.960 . S
C1394 C1392 1.381 . S
C1394 C1395 1.394 . S
C1394 H1402 0.930 . S
C1395 C1394 1.394 . S
C1395 C1396 1.383 . S
C1395 H1403 0.929 . S
C1396 C1395 1.383 . S
C1396 C1397 1.377 . S
C1397 H1381 0.930 . S
C1397 C1396 1.377 . S
C1397 C1398 1.379 . S
C1398 H1382 0.931 . S
C1398 C1392 1.383 . S
C1398 C1397 1.379 . S
H1399 C1393 0.959 . S
H1400 C1393 0.961 . S
H1401 C1393 0.960 . S
H1402 C1394 0.930 . S
H1403 C1395 0.929 . S
H1404 C1412 0.929 . S
H1405 C1414 0.930 . S
H1406 C1416 0.930 . S
H1407 C1419 0.929 . S
H1408 C1422 0.930 . S
H1409 C1424 0.960 . S
H1410 C1424 0.960 . S
H1411 C1424 0.960 . S
C1412 H1404 0.929 . S
C1412 C1413 1.377 . S
C1412 C1414 1.384 . S
C1413 C1412 1.377 . S
C1413 C1419 1.390 . S
C1414 H1405 0.930 . S
C1414 C1412 1.384 . S
C1414 C1415 1.372 . S
C1415 C1414 1.372 . S
C1415 C1416 1.400 . S
C1415 C1420 1.490 . S
C1416 H1406 0.930 . S
C1416 C1415 1.400 . S
C1416 C1419 1.386 . S
H1417 C1433 0.930 . S
H1418 C1434 0.931 . S
C1419 H1407 0.929 . S
C1419 C1413 1.390 . S
C1419 C1416 1.386 . S
C1420 C1415 1.490 . S
C1420 C1422 1.395 . S
C1420 C1423 1.403 . S
H1421 C1427 0.930 . S
C1422 H1408 0.930 . S
C1422 C1420 1.395 . S
C1422 C1425 1.403 . S
C1423 C1420 1.403 . S
C1423 C1424 1.524 . S
C1423 C1427 1.400 . S
C1424 H1409 0.960 . S
C1424 H1410 0.960 . S
C1424 H1411 0.960 . S
C1424 C1423 1.524 . S
C1425 C1422 1.403 . S
C1425 C1426 1.392 . S
C1425 C1429 1.495 . S
C1426 C1425 1.392 . S
C1426 C1427 1.385 . S
C1426 C1428 1.478 . S
C1427 H1421 0.930 . S
C1427 C1423 1.400 . S
C1427 C1426 1.385 . S
C1428 C1426 1.478 . S
C1428 C1430 1.381 . S
C1428 C1434 1.383 . S
C1429 C1425 1.495 . S
C1429 H1435 0.959 . S
C1429 H1436 0.961 . S
C1429 H1437 0.960 . S
C1430 C1428 1.381 . S
C1430 C1431 1.394 . S
C1430 H1438 0.930 . S
C1431 C1430 1.394 . S
C1431 C1432 1.383 . S
C1431 H1439 0.929 . S
C1432 C1431 1.383 . S
C1432 C1433 1.377 . S
C1433 H1417 0.930 . S
C1433 C1432 1.377 . S
C1433 C1434 1.379 . S
C1434 H1418 0.931 . S
C1434 C1428 1.383 . S
C1434 C1433 1.379 . S
H1435 C1429 0.959 . S
H1436 C1429 0.961 . S
H1437 C1429 0.960 . S
H1438 C1430 0.930 . S
H1439 C1431 0.929 . S
H1440 C1448 0.929 . S
H1441 C1450 0.930 . S
H1442 C1452 0.930 . S
H1443 C1455 0.929 . S
H1444 C1458 0.930 . S
H1445 C1460 0.960 . S
H1446 C1460 0.960 . S
H1447 C1460 0.960 . S
C1448 H1440 0.929 . S
C1448 C1449 1.377 . S
C1448 C1450 1.384 . S
C1449 C1448 1.377 . S
C1449 C1455 1.390 . S
C1450 H1441 0.930 . S
C1450 C1448 1.384 . S
C1450 C1451 1.372 . S
C1451 C1450 1.372 . S
C1451 C1452 1.400 . S
C1451 C1456 1.490 . S
C1452 H1442 0.930 . S
C1452 C1451 1.400 . S
C1452 C1455 1.386 . S
H1453 C1469 0.930 . S
H1454 C1470 0.931 . S
C1455 H1443 0.929 . S
C1455 C1449 1.390 . S
C1455 C1452 1.386 . S
C1456 C1451 1.490 . S
C1456 C1458 1.395 . S
C1456 C1459 1.403 . S
H1457 C1463 0.930 . S
C1458 H1444 0.930 . S
C1458 C1456 1.395 . S
C1458 C1461 1.403 . S
C1459 C1456 1.403 . S
C1459 C1460 1.524 . S
C1459 C1463 1.400 . S
C1460 H1445 0.960 . S
C1460 H1446 0.960 . S
C1460 H1447 0.960 . S
C1460 C1459 1.524 . S
C1461 C1458 1.403 . S
C1461 C1462 1.392 . S
C1461 C1465 1.495 . S
C1462 C1461 1.392 . S
C1462 C1463 1.385 . S
C1462 C1464 1.478 . S
C1463 H1457 0.930 . S
C1463 C1459 1.400 . S
C1463 C1462 1.385 . S
C1464 C1462 1.478 . S
C1464 C1466 1.381 . S
C1464 C1470 1.383 . S
C1465 C1461 1.495 . S
C1465 H1471 0.959 . S
C1465 H1472 0.961 . S
C1465 H1473 0.960 . S
C1466 C1464 1.381 . S
C1466 C1467 1.394 . S
C1466 H1474 0.930 . S
C1467 C1466 1.394 . S
C1467 C1468 1.383 . S
C1467 H1475 0.929 . S
C1468 C1467 1.383 . S
C1468 C1469 1.377 . S
C1469 H1453 0.930 . S
C1469 C1468 1.377 . S
C1469 C1470 1.379 . S
C1470 H1454 0.931 . S
C1470 C1464 1.383 . S
C1470 C1469 1.379 . S
H1471 C1465 0.959 . S
H1472 C1465 0.961 . S
H1473 C1465 0.960 . S
H1474 C1466 0.930 . S
H1475 C1467 0.929 . S
H1476 C1484 0.929 . S
H1477 C1486 0.930 . S
H1478 C1488 0.930 . S
H1479 C1491 0.929 . S
H1480 C1494 0.930 . S
H1481 C1496 0.960 . S
H1482 C1496 0.960 . S
H1483 C1496 0.960 . S
C1484 H1476 0.929 . S
C1484 C1485 1.377 . S
C1484 C1486 1.384 . S
C1485 C1484 1.377 . S
C1485 C1491 1.390 . S
C1486 H1477 0.930 . S
C1486 C1484 1.384 . S
C1486 C1487 1.372 . S
C1487 C1486 1.372 . S
C1487 C1488 1.400 . S
C1487 C1492 1.490 . S
C1488 H1478 0.930 . S
C1488 C1487 1.400 . S
C1488 C1491 1.386 . S
H1489 C1505 0.930 . S
H1490 C1506 0.931 . S
C1491 H1479 0.929 . S
C1491 C1485 1.390 . S
C1491 C1488 1.386 . S
C1492 C1487 1.490 . S
C1492 C1494 1.395 . S
C1492 C1495 1.403 . S
H1493 C1499 0.930 . S
C1494 H1480 0.930 . S
C1494 C1492 1.395 . S
C1494 C1497 1.403 . S
C1495 C1492 1.403 . S
C1495 C1496 1.524 . S
C1495 C1499 1.400 . S
C1496 H1481 0.960 . S
C1496 H1482 0.960 . S
C1496 H1483 0.960 . S
C1496 C1495 1.524 . S
C1497 C1494 1.403 . S
C1497 C1498 1.392 . S
C1497 C1501 1.495 . S
C1498 C1497 1.392 . S
C1498 C1499 1.385 . S
C1498 C1500 1.478 . S
C1499 H1493 0.930 . S
C1499 C1495 1.400 . S
C1499 C1498 1.385 . S
C1500 C1498 1.478 . S
C1500 C1502 1.381 . S
C1500 C1506 1.383 . S
C1501 C1497 1.495 . S
C1501 H1507 0.959 . S
C1501 H1508 0.961 . S
C1501 H1509 0.960 . S
C1502 C1500 1.381 . S
C1502 C1503 1.394 . S
C1502 H1510 0.930 . S
C1503 C1502 1.394 . S
C1503 C1504 1.383 . S
C1503 H1511 0.929 . S
C1504 C1503 1.383 . S
C1504 C1505 1.377 . S
C1505 H1489 0.930 . S
C1505 C1504 1.377 . S
C1505 C1506 1.379 . S
C1506 H1490 0.931 . S
C1506 C1500 1.383 . S
C1506 C1505 1.379 . S
H1507 C1501 0.959 . S
H1508 C1501 0.961 . S
H1509 C1501 0.960 . S
H1510 C1502 0.930 . S
H1511 C1503 0.929 . S
H1512 C1520 0.929 . S
H1513 C1522 0.930 . S
H1514 C1524 0.930 . S
H1515 C1527 0.929 . S
H1516 C1530 0.930 . S
H1517 C1532 0.960 . S
H1518 C1532 0.960 . S
H1519 C1532 0.960 . S
C1520 H1512 0.929 . S
C1520 C1521 1.377 . S
C1520 C1522 1.384 . S
C1521 C1520 1.377 . S
C1521 C1527 1.390 . S
C1522 H1513 0.930 . S
C1522 C1520 1.384 . S
C1522 C1523 1.372 . S
C1523 C1522 1.372 . S
C1523 C1524 1.400 . S
C1523 C1528 1.490 . S
C1524 H1514 0.930 . S
C1524 C1523 1.400 . S
C1524 C1527 1.386 . S
H1525 C1541 0.930 . S
H1526 C1542 0.931 . S
C1527 H1515 0.929 . S
C1527 C1521 1.390 . S
C1527 C1524 1.386 . S
C1528 C1523 1.490 . S
C1528 C1530 1.395 . S
C1528 C1531 1.403 . S
H1529 C1535 0.930 . S
C1530 H1516 0.930 . S
C1530 C1528 1.395 . S
C1530 C1533 1.403 . S
C1531 C1528 1.403 . S
C1531 C1532 1.524 . S
C1531 C1535 1.400 . S
C1532 H1517 0.960 . S
C1532 H1518 0.960 . S
C1532 H1519 0.960 . S
C1532 C1531 1.524 . S
C1533 C1530 1.403 . S
C1533 C1534 1.392 . S
C1533 C1537 1.495 . S
C1534 C1533 1.392 . S
C1534 C1535 1.385 . S
C1534 C1536 1.478 . S
C1535 H1529 0.930 . S
C1535 C1531 1.400 . S
C1535 C1534 1.385 . S
C1536 C1534 1.478 . S
C1536 C1538 1.381 . S
C1536 C1542 1.383 . S
C1537 C1533 1.495 . S
C1537 H1543 0.959 . S
C1537 H1544 0.961 . S
C1537 H1545 0.960 . S
C1538 C1536 1.381 . S
C1538 C1539 1.394 . S
C1538 H1546 0.930 . S
C1539 C1538 1.394 . S
C1539 C1540 1.383 . S
C1539 H1547 0.929 . S
C1540 C1539 1.383 . S
C1540 C1541 1.377 . S
C1541 H1525 0.930 . S
C1541 C1540 1.377 . S
C1541 C1542 1.379 . S
C1542 H1526 0.931 . S
C1542 C1536 1.383 . S
C1542 C1541 1.379 . S
H1543 C1537 0.959 . S
H1544 C1537 0.961 . S
H1545 C1537 0.960 . S
H1546 C1538 0.930 . S
H1547 C1539 0.929 . S
H1548 C1556 0.929 . S
H1549 C1558 0.930 . S
H1550 C1560 0.930 . S
H1551 C1563 0.929 . S
H1552 C1566 0.930 . S
H1553 C1568 0.960 . S
H1554 C1568 0.960 . S
H1555 C1568 0.960 . S
C1556 H1548 0.929 . S
C1556 C1557 1.377 . S
C1556 C1558 1.384 . S
C1557 C1556 1.377 . S
C1557 C1563 1.390 . S
C1558 H1549 0.930 . S
C1558 C1556 1.384 . S
C1558 C1559 1.372 . S
C1559 C1558 1.372 . S
C1559 C1560 1.400 . S
C1559 C1564 1.490 . S
C1560 H1550 0.930 . S
C1560 C1559 1.400 . S
C1560 C1563 1.386 . S
H1561 C1577 0.930 . S
H1562 C1578 0.931 . S
C1563 H1551 0.929 . S
C1563 C1557 1.390 . S
C1563 C1560 1.386 . S
C1564 C1559 1.490 . S
C1564 C1566 1.395 . S
C1564 C1567 1.403 . S
H1565 C1571 0.930 . S
C1566 H1552 0.930 . S
C1566 C1564 1.395 . S
C1566 C1569 1.403 . S
C1567 C1564 1.403 . S
C1567 C1568 1.524 . S
C1567 C1571 1.400 . S
C1568 H1553 0.960 . S
C1568 H1554 0.960 . S
C1568 H1555 0.960 . S
C1568 C1567 1.524 . S
C1569 C1566 1.403 . S
C1569 C1570 1.392 . S
C1569 C1573 1.495 . S
C1570 C1569 1.392 . S
C1570 C1571 1.385 . S
C1570 C1572 1.478 . S
C1571 H1565 0.930 . S
C1571 C1567 1.400 . S
C1571 C1570 1.385 . S
C1572 C1570 1.478 . S
C1572 C1574 1.381 . S
C1572 C1578 1.383 . S
C1573 C1569 1.495 . S
C1573 H1579 0.959 . S
C1573 H1580 0.961 . S
C1573 H1581 0.960 . S
C1574 C1572 1.381 . S
C1574 C1575 1.394 . S
C1574 H1582 0.930 . S
C1575 C1574 1.394 . S
C1575 C1576 1.383 . S
C1575 H1583 0.929 . S
C1576 C1575 1.383 . S
C1576 C1577 1.377 . S
C1577 H1561 0.930 . S
C1577 C1576 1.377 . S
C1577 C1578 1.379 . S
C1578 H1562 0.931 . S
C1578 C1572 1.383 . S
C1578 C1577 1.379 . S
H1579 C1573 0.959 . S
H1580 C1573 0.961 . S
H1581 C1573 0.960 . S
H1582 C1574 0.930 . S
H1583 C1575 0.929 . S
H1584 C1592 0.929 . S
H1585 C1594 0.930 . S
H1586 C1596 0.930 . S
H1587 C1599 0.929 . S
H1588 C1602 0.930 . S
H1589 C1604 0.960 . S
H1590 C1604 0.960 . S
H1591 C1604 0.960 . S
C1592 H1584 0.929 . S
C1592 C1593 1.377 . S
C1592 C1594 1.384 . S
C1593 C1592 1.377 . S
C1593 C1599 1.390 . S
C1594 H1585 0.930 . S
C1594 C1592 1.384 . S
C1594 C1595 1.372 . S
C1595 C1594 1.372 . S
C1595 C1596 1.400 . S
C1595 C1600 1.490 . S
C1596 H1586 0.930 . S
C1596 C1595 1.400 . S
C1596 C1599 1.386 . S
H1597 C1613 0.930 . S
H1598 C1614 0.931 . S
C1599 H1587 0.929 . S
C1599 C1593 1.390 . S
C1599 C1596 1.386 . S
C1600 C1595 1.490 . S
C1600 C1602 1.395 . S
C1600 C1603 1.403 . S
H1601 C1607 0.930 . S
C1602 H1588 0.930 . S
C1602 C1600 1.395 . S
C1602 C1605 1.403 . S
C1603 C1600 1.403 . S
C1603 C1604 1.524 . S
C1603 C1607 1.400 . S
C1604 H1589 0.960 . S
C1604 H1590 0.960 . S
C1604 H1591 0.960 . S
C1604 C1603 1.524 . S
C1605 C1602 1.403 . S
C1605 C1606 1.392 . S
C1605 C1609 1.495 . S
C1606 C1605 1.392 . S
C1606 C1607 1.385 . S
C1606 C1608 1.478 . S
C1607 H1601 0.930 . S
C1607 C1603 1.400 . S
C1607 C1606 1.385 . S
C1608 C1606 1.478 . S
C1608 C1610 1.381 . S
C1608 C1614 1.383 . S
C1609 C1605 1.495 . S
C1609 H1615 0.959 . S
C1609 H1616 0.961 . S
C1609 H1617 0.960 . S
C1610 C1608 1.381 . S
C1610 C1611 1.394 . S
C1610 H1618 0.930 . S
C1611 C1610 1.394 . S
C1611 C1612 1.383 . S
C1611 H1619 0.929 . S
C1612 C1611 1.383 . S
C1612 C1613 1.377 . S
C1613 H1597 0.930 . S
C1613 C1612 1.377 . S
C1613 C1614 1.379 . S
C1614 H1598 0.931 . S
C1614 C1608 1.383 . S
C1614 C1613 1.379 . S
H1615 C1609 0.959 . S
H1616 C1609 0.961 . S
H1617 C1609 0.960 . S
H1618 C1610 0.930 . S
H1619 C1611 0.929 . S
H1620 C1628 0.929 . S
H1621 C1630 0.930 . S
H1622 C1632 0.930 . S
H1623 C1635 0.929 . S
H1624 C1638 0.930 . S
H1625 C1640 0.960 . S
H1626 C1640 0.960 . S
H1627 C1640 0.960 . S
C1628 H1620 0.929 . S
C1628 C1629 1.377 . S
C1628 C1630 1.384 . S
C1629 C1628 1.377 . S
C1629 C1635 1.390 . S
C1630 H1621 0.930 . S
C1630 C1628 1.384 . S
C1630 C1631 1.372 . S
C1631 C1630 1.372 . S
C1631 C1632 1.400 . S
C1631 C1636 1.490 . S
C1632 H1622 0.930 . S
C1632 C1631 1.400 . S
C1632 C1635 1.386 . S
H1633 C1649 0.930 . S
H1634 C1650 0.931 . S
C1635 H1623 0.929 . S
C1635 C1629 1.390 . S
C1635 C1632 1.386 . S
C1636 C1631 1.490 . S
C1636 C1638 1.395 . S
C1636 C1639 1.403 . S
H1637 C1643 0.930 . S
C1638 H1624 0.930 . S
C1638 C1636 1.395 . S
C1638 C1641 1.403 . S
C1639 C1636 1.403 . S
C1639 C1640 1.524 . S
C1639 C1643 1.400 . S
C1640 H1625 0.960 . S
C1640 H1626 0.960 . S
C1640 H1627 0.960 . S
C1640 C1639 1.524 . S
C1641 C1638 1.403 . S
C1641 C1642 1.392 . S
C1641 C1645 1.495 . S
C1642 C1641 1.392 . S
C1642 C1643 1.385 . S
C1642 C1644 1.478 . S
C1643 H1637 0.930 . S
C1643 C1639 1.400 . S
C1643 C1642 1.385 . S
C1644 C1642 1.478 . S
C1644 C1646 1.381 . S
C1644 C1650 1.383 . S
C1645 C1641 1.495 . S
C1645 H1651 0.959 . S
C1645 H1652 0.961 . S
C1645 H1653 0.960 . S
C1646 C1644 1.381 . S
C1646 C1647 1.394 . S
C1646 H1654 0.930 . S
C1647 C1646 1.394 . S
C1647 C1648 1.383 . S
C1647 H1655 0.929 . S
C1648 C1647 1.383 . S
C1648 C1649 1.377 . S
C1649 H1633 0.930 . S
C1649 C1648 1.377 . S
C1649 C1650 1.379 . S
C1650 H1634 0.931 . S
C1650 C1644 1.383 . S
C1650 C1649 1.379 . S
H1651 C1645 0.959 . S
H1652 C1645 0.961 . S
H1653 C1645 0.960 . S
H1654 C1646 0.930 . S
H1655 C1647 0.929 . S
H1656 C1664 0.929 . S
H1657 C1666 0.930 . S
H1658 C1668 0.930 . S
H1659 C1671 0.929 . S
H1660 C1674 0.930 . S
H1661 C1676 0.960 . S
H1662 C1676 0.960 . S
H1663 C1676 0.960 . S
C1664 H1656 0.929 . S
C1664 C1665 1.377 . S
C1664 C1666 1.384 . S
C1665 C1664 1.377 . S
C1665 C1671 1.390 . S
C1666 H1657 0.930 . S
C1666 C1664 1.384 . S
C1666 C1667 1.372 . S
C1667 C1666 1.372 . S
C1667 C1668 1.400 . S
C1667 C1672 1.490 . S
C1668 H1658 0.930 . S
C1668 C1667 1.400 . S
C1668 C1671 1.386 . S
H1669 C1685 0.930 . S
H1670 C1686 0.931 . S
C1671 H1659 0.929 . S
C1671 C1665 1.390 . S
C1671 C1668 1.386 . S
C1672 C1667 1.490 . S
C1672 C1674 1.395 . S
C1672 C1675 1.403 . S
H1673 C1679 0.930 . S
C1674 H1660 0.930 . S
C1674 C1672 1.395 . S
C1674 C1677 1.403 . S
C1675 C1672 1.403 . S
C1675 C1676 1.524 . S
C1675 C1679 1.400 . S
C1676 H1661 0.960 . S
C1676 H1662 0.960 . S
C1676 H1663 0.960 . S
C1676 C1675 1.524 . S
C1677 C1674 1.403 . S
C1677 C1678 1.392 . S
C1677 C1681 1.495 . S
C1678 C1677 1.392 . S
C1678 C1679 1.385 . S
C1678 C1680 1.478 . S
C1679 H1673 0.930 . S
C1679 C1675 1.400 . S
C1679 C1678 1.385 . S
C1680 C1678 1.478 . S
C1680 C1682 1.381 . S
C1680 C1686 1.383 . S
C1681 C1677 1.495 . S
C1681 H1687 0.959 . S
C1681 H1688 0.961 . S
C1681 H1689 0.960 . S
C1682 C1680 1.381 . S
C1682 C1683 1.394 . S
C1682 H1690 0.930 . S
C1683 C1682 1.394 . S
C1683 C1684 1.383 . S
C1683 H1691 0.929 . S
C1684 C1683 1.383 . S
C1684 C1685 1.377 . S
C1685 H1669 0.930 . S
C1685 C1684 1.377 . S
C1685 C1686 1.379 . S
C1686 H1670 0.931 . S
C1686 C1680 1.383 . S
C1686 C1685 1.379 . S
H1687 C1681 0.959 . S
H1688 C1681 0.961 . S
H1689 C1681 0.960 . S
H1690 C1682 0.930 . S
H1691 C1683 0.929 . S
H1692 C1700 0.929 . S
H1693 C1702 0.930 . S
H1694 C1704 0.930 . S
H1695 C1707 0.929 . S
H1696 C1710 0.930 . S
H1697 C1712 0.960 . S
H1698 C1712 0.960 . S
H1699 C1712 0.960 . S
C1700 H1692 0.929 . S
C1700 C1701 1.377 . S
C1700 C1702 1.384 . S
C1701 C1700 1.377 . S
C1701 C1707 1.390 . S
C1702 H1693 0.930 . S
C1702 C1700 1.384 . S
C1702 C1703 1.372 . S
C1703 C1702 1.372 . S
C1703 C1704 1.400 . S
C1703 C1708 1.490 . S
C1704 H1694 0.930 . S
C1704 C1703 1.400 . S
C1704 C1707 1.386 . S
H1705 C1721 0.930 . S
H1706 C1722 0.931 . S
C1707 H1695 0.929 . S
C1707 C1701 1.390 . S
C1707 C1704 1.386 . S
C1708 C1703 1.490 . S
C1708 C1710 1.395 . S
C1708 C1711 1.403 . S
H1709 C1715 0.930 . S
C1710 H1696 0.930 . S
C1710 C1708 1.395 . S
C1710 C1713 1.403 . S
C1711 C1708 1.403 . S
C1711 C1712 1.524 . S
C1711 C1715 1.400 . S
C1712 H1697 0.960 . S
C1712 H1698 0.960 . S
C1712 H1699 0.960 . S
C1712 C1711 1.524 . S
C1713 C1710 1.403 . S
C1713 C1714 1.392 . S
C1713 C1717 1.495 . S
C1714 C1713 1.392 . S
C1714 C1715 1.385 . S
C1714 C1716 1.478 . S
C1715 H1709 0.930 . S
C1715 C1711 1.400 . S
C1715 C1714 1.385 . S
C1716 C1714 1.478 . S
C1716 C1718 1.381 . S
C1716 C1722 1.383 . S
C1717 C1713 1.495 . S
C1717 H1723 0.959 . S
C1717 H1724 0.961 . S
C1717 H1725 0.960 . S
C1718 C1716 1.381 . S
C1718 C1719 1.394 . S
C1718 H1726 0.930 . S
C1719 C1718 1.394 . S
C1719 C1720 1.383 . S
C1719 H1727 0.929 . S
C1720 C1719 1.383 . S
C1720 C1721 1.377 . S
C1721 H1705 0.930 . S
C1721 C1720 1.377 . S
C1721 C1722 1.379 . S
C1722 H1706 0.931 . S
C1722 C1716 1.383 . S
C1722 C1721 1.379 . S
H1723 C1717 0.959 . S
H1724 C1717 0.961 . S
H1725 C1717 0.960 . S
H1726 C1718 0.930 . S
H1727 C1719 0.929 . S
H1728 C1736 0.929 . S
H1729 C1738 0.930 . S
H1730 C1740 0.930 . S
H1731 C1743 0.929 . S
H1732 C1746 0.930 . S
H1733 C1748 0.960 . S
H1734 C1748 0.960 . S
H1735 C1748 0.960 . S
C1736 H1728 0.929 . S
C1736 C1737 1.377 . S
C1736 C1738 1.384 . S
C1737 C1736 1.377 . S
C1737 C1743 1.390 . S
C1738 H1729 0.930 . S
C1738 C1736 1.384 . S
C1738 C1739 1.372 . S
C1739 C1738 1.372 . S
C1739 C1740 1.400 . S
C1739 C1744 1.490 . S
C1740 H1730 0.930 . S
C1740 C1739 1.400 . S
C1740 C1743 1.386 . S
H1741 C1757 0.930 . S
H1742 C1758 0.931 . S
C1743 H1731 0.929 . S
C1743 C1737 1.390 . S
C1743 C1740 1.386 . S
C1744 C1739 1.490 . S
C1744 C1746 1.395 . S
C1744 C1747 1.403 . S
H1745 C1751 0.930 . S
C1746 H1732 0.930 . S
C1746 C1744 1.395 . S
C1746 C1749 1.403 . S
C1747 C1744 1.403 . S
C1747 C1748 1.524 . S
C1747 C1751 1.400 . S
C1748 H1733 0.960 . S
C1748 H1734 0.960 . S
C1748 H1735 0.960 . S
C1748 C1747 1.524 . S
C1749 C1746 1.403 . S
C1749 C1750 1.392 . S
C1749 C1753 1.495 . S
C1750 C1749 1.392 . S
C1750 C1751 1.385 . S
C1750 C1752 1.478 . S
C1751 H1745 0.930 . S
C1751 C1747 1.400 . S
C1751 C1750 1.385 . S
C1752 C1750 1.478 . S
C1752 C1754 1.381 . S
C1752 C1758 1.383 . S
C1753 C1749 1.495 . S
C1753 H1759 0.959 . S
C1753 H1760 0.961 . S
C1753 H1761 0.960 . S
C1754 C1752 1.381 . S
C1754 C1755 1.394 . S
C1754 H1762 0.930 . S
C1755 C1754 1.394 . S
C1755 C1756 1.383 . S
C1755 H1763 0.929 . S
C1756 C1755 1.383 . S
C1756 C1757 1.377 . S
C1757 H1741 0.930 . S
C1757 C1756 1.377 . S
C1757 C1758 1.379 . S
C1758 H1742 0.931 . S
C1758 C1752 1.383 . S
C1758 C1757 1.379 . S
H1759 C1753 0.959 . S
H1760 C1753 0.961 . S
H1761 C1753 0.960 . S
H1762 C1754 0.930 . S
H1763 C1755 0.929 . S
H1764 C1772 0.929 . S
H1765 C1774 0.930 . S
H1766 C1776 0.930 . S
H1767 C1779 0.929 . S
H1768 C1782 0.930 . S
H1769 C1784 0.960 . S
H1770 C1784 0.960 . S
H1771 C1784 0.960 . S
C1772 H1764 0.929 . S
C1772 C1773 1.377 . S
C1772 C1774 1.384 1_455 S
C1773 C1772 1.377 . S
C1773 C1779 1.390 . S
C1774 H1765 0.930 . S
C1774 C1772 1.384 1_655 S
C1774 C1775 1.372 . S
C1775 C1774 1.372 . S
C1775 C1776 1.400 . S
C1775 C1780 1.490 . S
C1776 H1766 0.930 . S
C1776 C1775 1.400 . S
C1776 C1779 1.386 1_655 S
H1777 C1793 0.930 . S
H1778 C1794 0.931 . S
C1779 H1767 0.929 . S
C1779 C1773 1.390 . S
C1779 C1776 1.386 1_455 S
C1780 C1775 1.490 . S
C1780 C1782 1.395 . S
C1780 C1783 1.403 . S
H1781 C1787 0.930 . S
C1782 H1768 0.930 . S
C1782 C1780 1.395 . S
C1782 C1785 1.403 . S
C1783 C1780 1.403 . S
C1783 C1784 1.524 . S
C1783 C1787 1.400 . S
C1784 H1769 0.960 . S
C1784 H1770 0.960 . S
C1784 H1771 0.960 . S
C1784 C1783 1.524 . S
C1785 C1782 1.403 . S
C1785 C1786 1.392 . S
C1785 C1789 1.495 . S
C1786 C1785 1.392 . S
C1786 C1787 1.385 . S
C1786 C1788 1.478 . S
C1787 H1781 0.930 . S
C1787 C1783 1.400 . S
C1787 C1786 1.385 . S
C1788 C1786 1.478 . S
C1788 C1790 1.381 . S
C1788 C1794 1.383 . S
C1789 C1785 1.495 . S
C1789 H1795 0.959 . S
C1789 H1796 0.961 . S
C1789 H1797 0.960 . S
C1790 C1788 1.381 . S
C1790 C1791 1.394 . S
C1790 H1798 0.930 . S
C1791 C1790 1.394 . S
C1791 C1792 1.383 . S
C1791 H1799 0.929 . S
C1792 C1791 1.383 . S
C1792 C1793 1.377 . S
C1793 H1777 0.930 . S
C1793 C1792 1.377 . S
C1793 C1794 1.379 . S
C1794 H1778 0.931 . S
C1794 C1788 1.383 . S
C1794 C1793 1.379 . S
H1795 C1789 0.959 . S
H1796 C1789 0.961 . S
H1797 C1789 0.960 . S
H1798 C1790 0.930 . S
H1799 C1791 0.929 . S
H1800 C1808 0.929 . S
H1801 C1810 0.930 . S
H1802 C1812 0.930 . S
H1803 C1815 0.929 . S
H1804 C1818 0.930 . S
H1805 C1820 0.960 . S
H1806 C1820 0.960 . S
H1807 C1820 0.960 . S
C1808 H1800 0.929 . S
C1808 C1809 1.377 . S
C1808 C1810 1.384 . S
C1809 C1808 1.377 . S
C1809 C1815 1.390 . S
C1810 H1801 0.930 . S
C1810 C1808 1.384 . S
C1810 C1811 1.372 . S
C1811 C1810 1.372 . S
C1811 C1812 1.400 . S
C1811 C1816 1.490 . S
C1812 H1802 0.930 . S
C1812 C1811 1.400 . S
C1812 C1815 1.386 . S
H1813 C1829 0.930 . S
H1814 C1830 0.931 . S
C1815 H1803 0.929 . S
C1815 C1809 1.390 . S
C1815 C1812 1.386 . S
C1816 C1811 1.490 . S
C1816 C1818 1.395 . S
C1816 C1819 1.403 . S
H1817 C1823 0.930 . S
C1818 H1804 0.930 . S
C1818 C1816 1.395 . S
C1818 C1821 1.403 . S
C1819 C1816 1.403 . S
C1819 C1820 1.524 . S
C1819 C1823 1.400 . S
C1820 H1805 0.960 . S
C1820 H1806 0.960 . S
C1820 H1807 0.960 . S
C1820 C1819 1.524 . S
C1821 C1818 1.403 . S
C1821 C1822 1.392 . S
C1821 C1825 1.495 . S
C1822 C1821 1.392 . S
C1822 C1823 1.385 . S
C1822 C1824 1.478 . S
C1823 H1817 0.930 . S
C1823 C1819 1.400 . S
C1823 C1822 1.385 . S
C1824 C1822 1.478 . S
C1824 C1826 1.381 . S
C1824 C1830 1.383 . S
C1825 C1821 1.495 . S
C1825 H1831 0.959 . S
C1825 H1832 0.961 . S
C1825 H1833 0.960 . S
C1826 C1824 1.381 . S
C1826 C1827 1.394 . S
C1826 H1834 0.930 . S
C1827 C1826 1.394 . S
C1827 C1828 1.383 . S
C1827 H1835 0.929 . S
C1828 C1827 1.383 . S
C1828 C1829 1.377 . S
C1829 H1813 0.930 . S
C1829 C1828 1.377 . S
C1829 C1830 1.379 . S
C1830 H1814 0.931 . S
C1830 C1824 1.383 . S
C1830 C1829 1.379 . S
H1831 C1825 0.959 . S
H1832 C1825 0.961 . S
H1833 C1825 0.960 . S
H1834 C1826 0.930 . S
H1835 C1827 0.929 . S
H1836 C1844 0.929 . S
H1837 C1846 0.930 . S
H1838 C1848 0.930 . S
H1839 C1851 0.929 . S
H1840 C1854 0.930 . S
H1841 C1856 0.960 . S
H1842 C1856 0.960 . S
H1843 C1856 0.960 . S
C1844 H1836 0.929 . S
C1844 C1845 1.377 . S
C1844 C1846 1.384 . S
C1845 C1844 1.377 . S
C1845 C1851 1.390 . S
C1846 H1837 0.930 . S
C1846 C1844 1.384 . S
C1846 C1847 1.372 . S
C1847 C1846 1.372 . S
C1847 C1848 1.400 . S
C1847 C1852 1.490 . S
C1848 H1838 0.930 . S
C1848 C1847 1.400 . S
C1848 C1851 1.386 . S
H1849 C1865 0.930 . S
H1850 C1866 0.931 . S
C1851 H1839 0.929 . S
C1851 C1845 1.390 . S
C1851 C1848 1.386 . S
C1852 C1847 1.490 . S
C1852 C1854 1.395 . S
C1852 C1855 1.403 . S
H1853 C1859 0.930 . S
C1854 H1840 0.930 . S
C1854 C1852 1.395 . S
C1854 C1857 1.403 . S
C1855 C1852 1.403 . S
C1855 C1856 1.524 . S
C1855 C1859 1.400 . S
C1856 H1841 0.960 . S
C1856 H1842 0.960 . S
C1856 H1843 0.960 . S
C1856 C1855 1.524 . S
C1857 C1854 1.403 . S
C1857 C1858 1.392 . S
C1857 C1861 1.495 . S
C1858 C1857 1.392 . S
C1858 C1859 1.385 . S
C1858 C1860 1.478 . S
C1859 H1853 0.930 . S
C1859 C1855 1.400 . S
C1859 C1858 1.385 . S
C1860 C1858 1.478 . S
C1860 C1862 1.381 . S
C1860 C1866 1.383 . S
C1861 C1857 1.495 . S
C1861 H1867 0.959 . S
C1861 H1868 0.961 . S
C1861 H1869 0.960 . S
C1862 C1860 1.381 . S
C1862 C1863 1.394 1_655 S
C1862 H1870 0.930 . S
C1863 C1862 1.394 1_455 S
C1863 C1864 1.383 . S
C1863 H1871 0.929 . S
C1864 C1863 1.383 . S
C1864 C1865 1.377 . S
C1865 H1849 0.930 . S
C1865 C1864 1.377 . S
C1865 C1866 1.379 1_455 S
C1866 H1850 0.931 . S
C1866 C1860 1.383 . S
C1866 C1865 1.379 1_655 S
H1867 C1861 0.959 . S
H1868 C1861 0.961 . S
H1869 C1861 0.960 . S
H1870 C1862 0.930 . S
H1871 C1863 0.929 . S
H1872 C1880 0.929 . S
H1873 C1882 0.930 . S
H1874 C1884 0.930 . S
H1875 C1887 0.929 . S
H1876 C1890 0.930 . S
H1877 C1892 0.960 . S
H1878 C1892 0.960 . S
H1879 C1892 0.960 . S
C1880 H1872 0.929 . S
C1880 C1881 1.377 . S
C1880 C1882 1.384 . S
C1881 C1880 1.377 . S
C1881 C1887 1.390 . S
C1882 H1873 0.930 . S
C1882 C1880 1.384 . S
C1882 C1883 1.372 . S
C1883 C1882 1.372 . S
C1883 C1884 1.400 . S
C1883 C1888 1.490 . S
C1884 H1874 0.930 . S
C1884 C1883 1.400 . S
C1884 C1887 1.386 . S
H1885 C1901 0.930 . S
H1886 C1902 0.931 . S
C1887 H1875 0.929 . S
C1887 C1881 1.390 . S
C1887 C1884 1.386 . S
C1888 C1883 1.490 . S
C1888 C1890 1.395 . S
C1888 C1891 1.403 . S
H1889 C1895 0.930 . S
C1890 H1876 0.930 . S
C1890 C1888 1.395 . S
C1890 C1893 1.403 . S
C1891 C1888 1.403 . S
C1891 C1892 1.524 . S
C1891 C1895 1.400 . S
C1892 H1877 0.960 . S
C1892 H1878 0.960 . S
C1892 H1879 0.960 . S
C1892 C1891 1.524 . S
C1893 C1890 1.403 . S
C1893 C1894 1.392 . S
C1893 C1897 1.495 . S
C1894 C1893 1.392 . S
C1894 C1895 1.385 . S
C1894 C1896 1.478 . S
C1895 H1889 0.930 . S
C1895 C1891 1.400 . S
C1895 C1894 1.385 . S
C1896 C1894 1.478 . S
C1896 C1898 1.381 . S
C1896 C1902 1.383 . S
C1897 C1893 1.495 . S
C1897 H1903 0.959 . S
C1897 H1904 0.961 . S
C1897 H1905 0.960 . S
C1898 C1896 1.381 . S
C1898 C1899 1.394 . S
C1898 H1906 0.930 . S
C1899 C1898 1.394 . S
C1899 C1900 1.383 . S
C1899 H1907 0.929 . S
C1900 C1899 1.383 . S
C1900 C1901 1.377 . S
C1901 H1885 0.930 . S
C1901 C1900 1.377 . S
C1901 C1902 1.379 . S
C1902 H1886 0.931 . S
C1902 C1896 1.383 . S
C1902 C1901 1.379 . S
H1903 C1897 0.959 . S
H1904 C1897 0.961 . S
H1905 C1897 0.960 . S
H1906 C1898 0.930 . S
H1907 C1899 0.929 . S
H1908 C1916 0.929 . S
H1909 C1918 0.930 . S
H1910 C1920 0.930 . S
H1911 C1923 0.929 . S
H1912 C1926 0.930 . S
H1913 C1928 0.960 . S
H1914 C1928 0.960 . S
H1915 C1928 0.960 . S
C1916 H1908 0.929 . S
C1916 C1917 1.377 . S
C1916 C1918 1.384 1_655 S
C1917 C1916 1.377 . S
C1917 C1923 1.390 . S
C1918 H1909 0.930 . S
C1918 C1916 1.384 1_455 S
C1918 C1919 1.372 . S
C1919 C1918 1.372 . S
C1919 C1920 1.400 . S
C1919 C1924 1.490 . S
C1920 H1910 0.930 . S
C1920 C1919 1.400 . S
C1920 C1923 1.386 1_455 S
H1921 C1937 0.930 . S
H1922 C1938 0.931 . S
C1923 H1911 0.929 . S
C1923 C1917 1.390 . S
C1923 C1920 1.386 1_655 S
C1924 C1919 1.490 . S
C1924 C1926 1.395 . S
C1924 C1927 1.403 . S
H1925 C1931 0.930 . S
C1926 H1912 0.930 . S
C1926 C1924 1.395 . S
C1926 C1929 1.403 . S
C1927 C1924 1.403 . S
C1927 C1928 1.524 . S
C1927 C1931 1.400 . S
C1928 H1913 0.960 . S
C1928 H1914 0.960 . S
C1928 H1915 0.960 . S
C1928 C1927 1.524 . S
C1929 C1926 1.403 . S
C1929 C1930 1.392 . S
C1929 C1933 1.495 . S
C1930 C1929 1.392 . S
C1930 C1931 1.385 . S
C1930 C1932 1.478 . S
C1931 H1925 0.930 . S
C1931 C1927 1.400 . S
C1931 C1930 1.385 . S
C1932 C1930 1.478 . S
C1932 C1934 1.381 . S
C1932 C1938 1.383 . S
C1933 C1929 1.495 . S
C1933 H1939 0.959 . S
C1933 H1940 0.961 . S
C1933 H1941 0.960 . S
C1934 C1932 1.381 . S
C1934 C1935 1.394 . S
C1934 H1942 0.930 . S
C1935 C1934 1.394 . S
C1935 C1936 1.383 . S
C1935 H1943 0.929 . S
C1936 C1935 1.383 . S
C1936 C1937 1.377 . S
C1937 H1921 0.930 . S
C1937 C1936 1.377 . S
C1937 C1938 1.379 . S
C1938 H1922 0.931 . S
C1938 C1932 1.383 . S
C1938 C1937 1.379 . S
H1939 C1933 0.959 . S
H1940 C1933 0.961 . S
H1941 C1933 0.960 . S
H1942 C1934 0.930 . S
H1943 C1935 0.929 . S
H1944 C1952 0.929 . S
H1945 C1954 0.930 . S
H1946 C1956 0.930 . S
H1947 C1959 0.929 . S
H1948 C1962 0.930 . S
H1949 C1964 0.960 . S
H1950 C1964 0.960 . S
H1951 C1964 0.960 . S
C1952 H1944 0.929 . S
C1952 C1953 1.377 . S
C1952 C1954 1.384 . S
C1953 C1952 1.377 . S
C1953 C1959 1.390 . S
C1954 H1945 0.930 . S
C1954 C1952 1.384 . S
C1954 C1955 1.372 . S
C1955 C1954 1.372 . S
C1955 C1956 1.400 . S
C1955 C1960 1.490 . S
C1956 H1946 0.930 . S
C1956 C1955 1.400 . S
C1956 C1959 1.386 . S
H1957 C1973 0.930 . S
H1958 C1974 0.931 . S
C1959 H1947 0.929 . S
C1959 C1953 1.390 . S
C1959 C1956 1.386 . S
C1960 C1955 1.490 . S
C1960 C1962 1.395 . S
C1960 C1963 1.403 . S
H1961 C1967 0.930 . S
C1962 H1948 0.930 . S
C1962 C1960 1.395 . S
C1962 C1965 1.403 . S
C1963 C1960 1.403 . S
C1963 C1964 1.524 . S
C1963 C1967 1.400 . S
C1964 H1949 0.960 . S
C1964 H1950 0.960 . S
C1964 H1951 0.960 . S
C1964 C1963 1.524 . S
C1965 C1962 1.403 . S
C1965 C1966 1.392 . S
C1965 C1969 1.495 . S
C1966 C1965 1.392 . S
C1966 C1967 1.385 . S
C1966 C1968 1.478 . S
C1967 H1961 0.930 . S
C1967 C1963 1.400 . S
C1967 C1966 1.385 . S
C1968 C1966 1.478 . S
C1968 C1970 1.381 . S
C1968 C1974 1.383 . S
C1969 C1965 1.495 . S
C1969 H1975 0.959 . S
C1969 H1976 0.961 . S
C1969 H1977 0.960 . S
C1970 C1968 1.381 . S
C1970 C1971 1.394 . S
C1970 H1978 0.930 . S
C1971 C1970 1.394 . S
C1971 C1972 1.383 . S
C1971 H1979 0.929 . S
C1972 C1971 1.383 . S
C1972 C1973 1.377 . S
C1973 H1957 0.930 . S
C1973 C1972 1.377 . S
C1973 C1974 1.379 . S
C1974 H1958 0.931 . S
C1974 C1968 1.383 . S
C1974 C1973 1.379 . S
H1975 C1969 0.959 . S
H1976 C1969 0.961 . S
H1977 C1969 0.960 . S
H1978 C1970 0.930 . S
H1979 C1971 0.929 . S
H1980 C1988 0.929 . S
H1981 C1990 0.930 . S
H1982 C1992 0.930 . S
H1983 C1995 0.929 . S
H1984 C1998 0.930 . S
H1985 C2000 0.960 . S
H1986 C2000 0.960 . S
H1987 C2000 0.960 . S
C1988 H1980 0.929 . S
C1988 C1989 1.377 . S
C1988 C1990 1.384 1_655 S
C1989 C1988 1.377 . S
C1989 C1995 1.390 . S
C1990 H1981 0.930 . S
C1990 C1988 1.384 1_455 S
C1990 C1991 1.372 . S
C1991 C1990 1.372 . S
C1991 C1992 1.400 . S
C1991 C1996 1.490 . S
C1992 H1982 0.930 . S
C1992 C1991 1.400 . S
C1992 C1995 1.386 1_455 S
H1993 C2009 0.930 . S
H1994 C2010 0.931 . S
C1995 H1983 0.929 . S
C1995 C1989 1.390 . S
C1995 C1992 1.386 1_655 S
C1996 C1991 1.490 . S
C1996 C1998 1.395 . S
C1996 C1999 1.403 . S
H1997 C2003 0.930 . S
C1998 H1984 0.930 . S
C1998 C1996 1.395 . S
C1998 C2001 1.403 . S
C1999 C1996 1.403 . S
C1999 C2000 1.524 . S
C1999 C2003 1.400 . S
C2000 H1985 0.960 . S
C2000 H1986 0.960 . S
C2000 H1987 0.960 . S
C2000 C1999 1.524 . S
C2001 C1998 1.403 . S
C2001 C2002 1.392 . S
C2001 C2005 1.495 . S
C2002 C2001 1.392 . S
C2002 C2003 1.385 . S
C2002 C2004 1.478 . S
C2003 H1997 0.930 . S
C2003 C1999 1.400 . S
C2003 C2002 1.385 . S
C2004 C2002 1.478 . S
C2004 C2006 1.381 . S
C2004 C2010 1.383 . S
C2005 C2001 1.495 . S
C2005 H2011 0.959 . S
C2005 H2012 0.961 . S
C2005 H2013 0.960 . S
C2006 C2004 1.381 . S
C2006 C2007 1.394 . S
C2006 H2014 0.930 . S
C2007 C2006 1.394 . S
C2007 C2008 1.383 . S
C2007 H2015 0.929 . S
C2008 C2007 1.383 . S
C2008 C2009 1.377 . S
C2009 H1993 0.930 . S
C2009 C2008 1.377 . S
C2009 C2010 1.379 . S
C2010 H1994 0.931 . S
C2010 C2004 1.383 . S
C2010 C2009 1.379 . S
H2011 C2005 0.959 . S
H2012 C2005 0.961 . S
H2013 C2005 0.960 . S
H2014 C2006 0.930 . S
H2015 C2007 0.929 . S
H2016 C2024 0.929 . S
H2017 C2026 0.930 . S
H2018 C2028 0.930 . S
H2019 C2031 0.929 . S
H2020 C2034 0.930 . S
H2021 C2036 0.960 . S
H2022 C2036 0.960 . S
H2023 C2036 0.960 . S
C2024 H2016 0.929 . S
C2024 C2025 1.377 . S
C2024 C2026 1.384 . S
C2025 C2024 1.377 . S
C2025 C2031 1.390 . S
C2026 H2017 0.930 . S
C2026 C2024 1.384 . S
C2026 C2027 1.372 . S
C2027 C2026 1.372 . S
C2027 C2028 1.400 . S
C2027 C2032 1.490 . S
C2028 H2018 0.930 . S
C2028 C2027 1.400 . S
C2028 C2031 1.386 . S
H2029 C2045 0.930 . S
H2030 C2046 0.931 . S
C2031 H2019 0.929 . S
C2031 C2025 1.390 . S
C2031 C2028 1.386 . S
C2032 C2027 1.490 . S
C2032 C2034 1.395 . S
C2032 C2035 1.403 . S
H2033 C2039 0.930 . S
C2034 H2020 0.930 . S
C2034 C2032 1.395 . S
C2034 C2037 1.403 . S
C2035 C2032 1.403 . S
C2035 C2036 1.524 . S
C2035 C2039 1.400 . S
C2036 H2021 0.960 . S
C2036 H2022 0.960 . S
C2036 H2023 0.960 . S
C2036 C2035 1.524 . S
C2037 C2034 1.403 . S
C2037 C2038 1.392 . S
C2037 C2041 1.495 . S
C2038 C2037 1.392 . S
C2038 C2039 1.385 . S
C2038 C2040 1.478 . S
C2039 H2033 0.930 . S
C2039 C2035 1.400 . S
C2039 C2038 1.385 . S
C2040 C2038 1.478 . S
C2040 C2042 1.381 . S
C2040 C2046 1.383 . S
C2041 C2037 1.495 . S
C2041 H2047 0.959 . S
C2041 H2048 0.961 . S
C2041 H2049 0.960 . S
C2042 C2040 1.381 . S
C2042 C2043 1.394 . S
C2042 H2050 0.930 . S
C2043 C2042 1.394 . S
C2043 C2044 1.383 . S
C2043 H2051 0.929 . S
C2044 C2043 1.383 . S
C2044 C2045 1.377 . S
C2045 H2029 0.930 . S
C2045 C2044 1.377 . S
C2045 C2046 1.379 . S
C2046 H2030 0.931 . S
C2046 C2040 1.383 . S
C2046 C2045 1.379 . S
H2047 C2041 0.959 . S
H2048 C2041 0.961 . S
H2049 C2041 0.960 . S
H2050 C2042 0.930 . S
H2051 C2043 0.929 . S
H2052 C2060 0.929 . S
H2053 C2062 0.930 . S
H2054 C2064 0.930 . S
H2055 C2067 0.929 . S
H2056 C2070 0.930 . S
H2057 C2072 0.960 . S
H2058 C2072 0.960 . S
H2059 C2072 0.960 . S
C2060 H2052 0.929 . S
C2060 C2061 1.377 . S
C2060 C2062 1.384 . S
C2061 C2060 1.377 . S
C2061 C2067 1.390 . S
C2062 H2053 0.930 . S
C2062 C2060 1.384 . S
C2062 C2063 1.372 . S
C2063 C2062 1.372 . S
C2063 C2064 1.400 . S
C2063 C2068 1.490 . S
C2064 H2054 0.930 . S
C2064 C2063 1.400 . S
C2064 C2067 1.386 . S
H2065 C2081 0.930 . S
H2066 C2082 0.931 . S
C2067 H2055 0.929 . S
C2067 C2061 1.390 . S
C2067 C2064 1.386 . S
C2068 C2063 1.490 . S
C2068 C2070 1.395 . S
C2068 C2071 1.403 . S
H2069 C2075 0.930 . S
C2070 H2056 0.930 . S
C2070 C2068 1.395 . S
C2070 C2073 1.403 . S
C2071 C2068 1.403 . S
C2071 C2072 1.524 . S
C2071 C2075 1.400 . S
C2072 H2057 0.960 . S
C2072 H2058 0.960 . S
C2072 H2059 0.960 . S
C2072 C2071 1.524 . S
C2073 C2070 1.403 . S
C2073 C2074 1.392 . S
C2073 C2077 1.495 . S
C2074 C2073 1.392 . S
C2074 C2075 1.385 . S
C2074 C2076 1.478 . S
C2075 H2069 0.930 . S
C2075 C2071 1.400 . S
C2075 C2074 1.385 . S
C2076 C2074 1.478 . S
C2076 C2078 1.381 . S
C2076 C2082 1.383 . S
C2077 C2073 1.495 . S
C2077 H2083 0.959 . S
C2077 H2084 0.961 . S
C2077 H2085 0.960 . S
C2078 C2076 1.381 . S
C2078 C2079 1.394 1_655 S
C2078 H2086 0.930 . S
C2079 C2078 1.394 1_455 S
C2079 C2080 1.383 . S
C2079 H2087 0.929 . S
C2080 C2079 1.383 . S
C2080 C2081 1.377 . S
C2081 H2065 0.930 . S
C2081 C2080 1.377 . S
C2081 C2082 1.379 1_455 S
C2082 H2066 0.931 . S
C2082 C2076 1.383 . S
C2082 C2081 1.379 1_655 S
H2083 C2077 0.959 . S
H2084 C2077 0.961 . S
H2085 C2077 0.960 . S
H2086 C2078 0.930 . S
H2087 C2079 0.929 . S
H2088 C2096 0.929 . S
H2089 C2098 0.930 . S
H2090 C2100 0.930 . S
H2091 C2103 0.929 . S
H2092 C2106 0.930 . S
H2093 C2108 0.960 . S
H2094 C2108 0.960 . S
H2095 C2108 0.960 . S
C2096 H2088 0.929 . S
C2096 C2097 1.377 . S
C2096 C2098 1.384 . S
C2097 C2096 1.377 . S
C2097 C2103 1.390 . S
C2098 H2089 0.930 . S
C2098 C2096 1.384 . S
C2098 C2099 1.372 . S
C2099 C2098 1.372 . S
C2099 C2100 1.400 . S
C2099 C2104 1.490 . S
C2100 H2090 0.930 . S
C2100 C2099 1.400 . S
C2100 C2103 1.386 . S
H2101 C2117 0.930 . S
H2102 C2118 0.931 . S
C2103 H2091 0.929 . S
C2103 C2097 1.390 . S
C2103 C2100 1.386 . S
C2104 C2099 1.490 . S
C2104 C2106 1.395 . S
C2104 C2107 1.403 . S
H2105 C2111 0.930 . S
C2106 H2092 0.930 . S
C2106 C2104 1.395 . S
C2106 C2109 1.403 . S
C2107 C2104 1.403 . S
C2107 C2108 1.524 . S
C2107 C2111 1.400 . S
C2108 H2093 0.960 . S
C2108 H2094 0.960 . S
C2108 H2095 0.960 . S
C2108 C2107 1.524 . S
C2109 C2106 1.403 . S
C2109 C2110 1.392 . S
C2109 C2113 1.495 . S
C2110 C2109 1.392 . S
C2110 C2111 1.385 . S
C2110 C2112 1.478 . S
C2111 H2105 0.930 . S
C2111 C2107 1.400 . S
C2111 C2110 1.385 . S
C2112 C2110 1.478 . S
C2112 C2114 1.381 . S
C2112 C2118 1.383 . S
C2113 C2109 1.495 . S
C2113 H2119 0.959 . S
C2113 H2120 0.961 . S
C2113 H2121 0.960 . S
C2114 C2112 1.381 . S
C2114 C2115 1.394 . S
C2114 H2122 0.930 . S
C2115 C2114 1.394 . S
C2115 C2116 1.383 . S
C2115 H2123 0.929 . S
C2116 C2115 1.383 . S
C2116 C2117 1.377 . S
C2117 H2101 0.930 . S
C2117 C2116 1.377 . S
C2117 C2118 1.379 . S
C2118 H2102 0.931 . S
C2118 C2112 1.383 . S
C2118 C2117 1.379 . S
H2119 C2113 0.959 . S
H2120 C2113 0.961 . S
H2121 C2113 0.960 . S
H2122 C2114 0.930 . S
H2123 C2115 0.929 . S
H2124 C2132 0.929 . S
H2125 C2134 0.930 . S
H2126 C2136 0.930 . S
H2127 C2139 0.929 . S
H2128 C2142 0.930 . S
H2129 C2144 0.960 . S
H2130 C2144 0.960 . S
H2131 C2144 0.960 . S
C2132 H2124 0.929 . S
C2132 C2133 1.377 . S
C2132 C2134 1.384 . S
C2133 C2132 1.377 . S
C2133 C2139 1.390 . S
C2134 H2125 0.930 . S
C2134 C2132 1.384 . S
C2134 C2135 1.372 . S
C2135 C2134 1.372 . S
C2135 C2136 1.400 . S
C2135 C2140 1.490 . S
C2136 H2126 0.930 . S
C2136 C2135 1.400 . S
C2136 C2139 1.386 . S
H2137 C2153 0.930 . S
H2138 C2154 0.931 . S
C2139 H2127 0.929 . S
C2139 C2133 1.390 . S
C2139 C2136 1.386 . S
C2140 C2135 1.490 . S
C2140 C2142 1.395 . S
C2140 C2143 1.403 . S
H2141 C2147 0.930 . S
C2142 H2128 0.930 . S
C2142 C2140 1.395 . S
C2142 C2145 1.403 . S
C2143 C2140 1.403 . S
C2143 C2144 1.524 . S
C2143 C2147 1.400 . S
C2144 H2129 0.960 . S
C2144 H2130 0.960 . S
C2144 H2131 0.960 . S
C2144 C2143 1.524 . S
C2145 C2142 1.403 . S
C2145 C2146 1.392 . S
C2145 C2149 1.495 . S
C2146 C2145 1.392 . S
C2146 C2147 1.385 . S
C2146 C2148 1.478 . S
C2147 H2141 0.930 . S
C2147 C2143 1.400 . S
C2147 C2146 1.385 . S
C2148 C2146 1.478 . S
C2148 C2150 1.381 . S
C2148 C2154 1.383 . S
C2149 C2145 1.495 . S
C2149 H2155 0.959 . S
C2149 H2156 0.961 . S
C2149 H2157 0.960 . S
C2150 C2148 1.381 . S
C2150 C2151 1.394 1_655 S
C2150 H2158 0.930 . S
C2151 C2150 1.394 1_455 S
C2151 C2152 1.383 . S
C2151 H2159 0.929 . S
C2152 C2151 1.383 . S
C2152 C2153 1.377 . S
C2153 H2137 0.930 . S
C2153 C2152 1.377 . S
C2153 C2154 1.379 1_455 S
C2154 H2138 0.931 . S
C2154 C2148 1.383 . S
C2154 C2153 1.379 1_655 S
H2155 C2149 0.959 . S
H2156 C2149 0.961 . S
H2157 C2149 0.960 . S
H2158 C2150 0.930 . S
H2159 C2151 0.929 . S
H2160 C2168 0.929 . S
H2161 C2170 0.930 . S
H2162 C2172 0.930 . S
H2163 C2175 0.929 . S
H2164 C2178 0.930 . S
H2165 C2180 0.960 . S
H2166 C2180 0.960 . S
H2167 C2180 0.960 . S
C2168 H2160 0.929 . S
C2168 C2169 1.377 . S
C2168 C2170 1.384 . S
C2169 C2168 1.377 . S
C2169 C2175 1.390 . S
C2170 H2161 0.930 . S
C2170 C2168 1.384 . S
C2170 C2171 1.372 . S
C2171 C2170 1.372 . S
C2171 C2172 1.400 . S
C2171 C2176 1.490 . S
C2172 H2162 0.930 . S
C2172 C2171 1.400 . S
C2172 C2175 1.386 . S
H2173 C2189 0.930 . S
H2174 C2190 0.931 . S
C2175 H2163 0.929 . S
C2175 C2169 1.390 . S
C2175 C2172 1.386 . S
C2176 C2171 1.490 . S
C2176 C2178 1.395 . S
C2176 C2179 1.403 . S
H2177 C2183 0.930 . S
C2178 H2164 0.930 . S
C2178 C2176 1.395 . S
C2178 C2181 1.403 . S
C2179 C2176 1.403 . S
C2179 C2180 1.524 . S
C2179 C2183 1.400 . S
C2180 H2165 0.960 . S
C2180 H2166 0.960 . S
C2180 H2167 0.960 . S
C2180 C2179 1.524 . S
C2181 C2178 1.403 . S
C2181 C2182 1.392 . S
C2181 C2185 1.495 . S
C2182 C2181 1.392 . S
C2182 C2183 1.385 . S
C2182 C2184 1.478 . S
C2183 H2177 0.930 . S
C2183 C2179 1.400 . S
C2183 C2182 1.385 . S
C2184 C2182 1.478 . S
C2184 C2186 1.381 . S
C2184 C2190 1.383 . S
C2185 C2181 1.495 . S
C2185 H2191 0.959 . S
C2185 H2192 0.961 . S
C2185 H2193 0.960 . S
C2186 C2184 1.381 . S
C2186 C2187 1.394 . S
C2186 H2194 0.930 . S
C2187 C2186 1.394 . S
C2187 C2188 1.383 . S
C2187 H2195 0.929 . S
C2188 C2187 1.383 . S
C2188 C2189 1.377 . S
C2189 H2173 0.930 . S
C2189 C2188 1.377 . S
C2189 C2190 1.379 . S
C2190 H2174 0.931 . S
C2190 C2184 1.383 . S
C2190 C2189 1.379 . S
H2191 C2185 0.959 . S
H2192 C2185 0.961 . S
H2193 C2185 0.960 . S
H2194 C2186 0.930 . S
H2195 C2187 0.929 . S
H2196 C2204 0.929 . S
H2197 C2206 0.930 . S
H2198 C2208 0.930 . S
H2199 C2211 0.929 . S
H2200 C2214 0.930 . S
H2201 C2216 0.960 . S
H2202 C2216 0.960 . S
H2203 C2216 0.960 . S
C2204 H2196 0.929 . S
C2204 C2205 1.377 . S
C2204 C2206 1.384 . S
C2205 C2204 1.377 . S
C2205 C2211 1.390 . S
C2206 H2197 0.930 . S
C2206 C2204 1.384 . S
C2206 C2207 1.372 . S
C2207 C2206 1.372 . S
C2207 C2208 1.400 . S
C2207 C2212 1.490 . S
C2208 H2198 0.930 . S
C2208 C2207 1.400 . S
C2208 C2211 1.386 . S
H2209 C2225 0.930 . S
H2210 C2226 0.931 . S
C2211 H2199 0.929 . S
C2211 C2205 1.390 . S
C2211 C2208 1.386 . S
C2212 C2207 1.490 . S
C2212 C2214 1.395 . S
C2212 C2215 1.403 . S
H2213 C2219 0.930 . S
C2214 H2200 0.930 . S
C2214 C2212 1.395 . S
C2214 C2217 1.403 . S
C2215 C2212 1.403 . S
C2215 C2216 1.524 . S
C2215 C2219 1.400 . S
C2216 H2201 0.960 . S
C2216 H2202 0.960 . S
C2216 H2203 0.960 . S
C2216 C2215 1.524 . S
C2217 C2214 1.403 . S
C2217 C2218 1.392 . S
C2217 C2221 1.495 . S
C2218 C2217 1.392 . S
C2218 C2219 1.385 . S
C2218 C2220 1.478 . S
C2219 H2213 0.930 . S
C2219 C2215 1.400 . S
C2219 C2218 1.385 . S
C2220 C2218 1.478 . S
C2220 C2222 1.381 . S
C2220 C2226 1.383 . S
C2221 C2217 1.495 . S
C2221 H2227 0.959 . S
C2221 H2228 0.961 . S
C2221 H2229 0.960 . S
C2222 C2220 1.381 . S
C2222 C2223 1.394 1_455 S
C2222 H2230 0.930 . S
C2223 C2222 1.394 1_655 S
C2223 C2224 1.383 . S
C2223 H2231 0.929 . S
C2224 C2223 1.383 . S
C2224 C2225 1.377 . S
C2225 H2209 0.930 . S
C2225 C2224 1.377 . S
C2225 C2226 1.379 1_655 S
C2226 H2210 0.931 . S
C2226 C2220 1.383 . S
C2226 C2225 1.379 1_455 S
H2227 C2221 0.959 . S
H2228 C2221 0.961 . S
H2229 C2221 0.960 . S
H2230 C2222 0.930 . S
H2231 C2223 0.929 . S
H2232 C2240 0.929 . S
H2233 C2242 0.930 . S
H2234 C2244 0.930 . S
H2235 C2247 0.929 . S
H2236 C2250 0.930 . S
H2237 C2252 0.960 . S
H2238 C2252 0.960 . S
H2239 C2252 0.960 . S
C2240 H2232 0.929 . S
C2240 C2241 1.377 . S
C2240 C2242 1.384 . S
C2241 C2240 1.377 . S
C2241 C2247 1.390 . S
C2242 H2233 0.930 . S
C2242 C2240 1.384 . S
C2242 C2243 1.372 . S
C2243 C2242 1.372 . S
C2243 C2244 1.400 . S
C2243 C2248 1.490 . S
C2244 H2234 0.930 . S
C2244 C2243 1.400 . S
C2244 C2247 1.386 . S
H2245 C2261 0.930 . S
H2246 C2262 0.931 . S
C2247 H2235 0.929 . S
C2247 C2241 1.390 . S
C2247 C2244 1.386 . S
C2248 C2243 1.490 . S
C2248 C2250 1.395 . S
C2248 C2251 1.403 . S
H2249 C2255 0.930 . S
C2250 H2236 0.930 . S
C2250 C2248 1.395 . S
C2250 C2253 1.403 . S
C2251 C2248 1.403 . S
C2251 C2252 1.524 . S
C2251 C2255 1.400 . S
C2252 H2237 0.960 . S
C2252 H2238 0.960 . S
C2252 H2239 0.960 . S
C2252 C2251 1.524 . S
C2253 C2250 1.403 . S
C2253 C2254 1.392 . S
C2253 C2257 1.495 . S
C2254 C2253 1.392 . S
C2254 C2255 1.385 . S
C2254 C2256 1.478 . S
C2255 H2249 0.930 . S
C2255 C2251 1.400 . S
C2255 C2254 1.385 . S
C2256 C2254 1.478 . S
C2256 C2258 1.381 . S
C2256 C2262 1.383 . S
C2257 C2253 1.495 . S
C2257 H2263 0.959 . S
C2257 H2264 0.961 . S
C2257 H2265 0.960 . S
C2258 C2256 1.381 . S
C2258 C2259 1.394 . S
C2258 H2266 0.930 . S
C2259 C2258 1.394 . S
C2259 C2260 1.383 . S
C2259 H2267 0.929 . S
C2260 C2259 1.383 . S
C2260 C2261 1.377 . S
C2261 H2245 0.930 . S
C2261 C2260 1.377 . S
C2261 C2262 1.379 . S
C2262 H2246 0.931 . S
C2262 C2256 1.383 . S
C2262 C2261 1.379 . S
H2263 C2257 0.959 . S
H2264 C2257 0.961 . S
H2265 C2257 0.960 . S
H2266 C2258 0.930 . S
H2267 C2259 0.929 . S
H2268 C2276 0.929 . S
H2269 C2278 0.930 . S
H2270 C2280 0.930 . S
H2271 C2283 0.929 . S
H2272 C2286 0.930 . S
H2273 C2288 0.960 . S
H2274 C2288 0.960 . S
H2275 C2288 0.960 . S
C2276 H2268 0.929 . S
C2276 C2277 1.377 . S
C2276 C2278 1.384 1_655 S
C2277 C2276 1.377 . S
C2277 C2283 1.390 . S
C2278 H2269 0.930 . S
C2278 C2276 1.384 1_455 S
C2278 C2279 1.372 . S
C2279 C2278 1.372 . S
C2279 C2280 1.400 . S
C2279 C2284 1.490 . S
C2280 H2270 0.930 . S
C2280 C2279 1.400 . S
C2280 C2283 1.386 1_455 S
H2281 C2297 0.930 . S
H2282 C2298 0.931 . S
C2283 H2271 0.929 . S
C2283 C2277 1.390 . S
C2283 C2280 1.386 1_655 S
C2284 C2279 1.490 . S
C2284 C2286 1.395 . S
C2284 C2287 1.403 . S
H2285 C2291 0.930 . S
C2286 H2272 0.930 . S
C2286 C2284 1.395 . S
C2286 C2289 1.403 . S
C2287 C2284 1.403 . S
C2287 C2288 1.524 . S
C2287 C2291 1.400 . S
C2288 H2273 0.960 . S
C2288 H2274 0.960 . S
C2288 H2275 0.960 . S
C2288 C2287 1.524 . S
C2289 C2286 1.403 . S
C2289 C2290 1.392 . S
C2289 C2293 1.495 . S
C2290 C2289 1.392 . S
C2290 C2291 1.385 . S
C2290 C2292 1.478 . S
C2291 H2285 0.930 . S
C2291 C2287 1.400 . S
C2291 C2290 1.385 . S
C2292 C2290 1.478 . S
C2292 C2294 1.381 . S
C2292 C2298 1.383 . S
C2293 C2289 1.495 . S
C2293 H2299 0.959 . S
C2293 H2300 0.961 . S
C2293 H2301 0.960 . S
C2294 C2292 1.381 . S
C2294 C2295 1.394 . S
C2294 H2302 0.930 . S
C2295 C2294 1.394 . S
C2295 C2296 1.383 . S
C2295 H2303 0.929 . S
C2296 C2295 1.383 . S
C2296 C2297 1.377 . S
C2297 H2281 0.930 . S
C2297 C2296 1.377 . S
C2297 C2298 1.379 . S
C2298 H2282 0.931 . S
C2298 C2292 1.383 . S
C2298 C2297 1.379 . S
H2299 C2293 0.959 . S
H2300 C2293 0.961 . S
H2301 C2293 0.960 . S
H2302 C2294 0.930 . S
H2303 C2295 0.929 . S
H2304 C2312 0.929 . S
H2305 C2314 0.930 . S
H2306 C2316 0.930 . S
H2307 C2319 0.929 1_455 S
H2308 C2322 0.930 . S
H2309 C2324 0.960 . S
H2310 C2324 0.960 1_655 S
H2311 C2324 0.960 . S
C2312 H2304 0.929 . S
C2312 C2313 1.377 . S
C2312 C2314 1.384 . S
C2313 C2312 1.377 . S
C2313 C2319 1.390 . S
C2314 H2305 0.930 . S
C2314 C2312 1.384 . S
C2314 C2315 1.372 . S
C2315 C2314 1.372 . S
C2315 C2316 1.400 1_655 S
C2315 C2320 1.490 . S
C2316 H2306 0.930 . S
C2316 C2315 1.400 1_455 S
C2316 C2319 1.386 1_455 S
H2317 C2333 0.930 . S
H2318 C2334 0.931 . S
C2319 H2307 0.929 1_655 S
C2319 C2313 1.390 . S
C2319 C2316 1.386 1_655 S
C2320 C2315 1.490 . S
C2320 C2322 1.395 . S
C2320 C2323 1.403 1_655 S
H2321 C2327 0.930 . S
C2322 H2308 0.930 . S
C2322 C2320 1.395 . S
C2322 C2325 1.403 . S
C2323 C2320 1.403 1_455 S
C2323 C2324 1.524 . S
C2323 C2327 1.400 . S
C2324 H2309 0.960 . S
C2324 H2310 0.960 1_455 S
C2324 H2311 0.960 . S
C2324 C2323 1.524 . S
C2325 C2322 1.403 . S
C2325 C2326 1.392 1_655 S
C2325 C2329 1.495 . S
C2326 C2325 1.392 1_455 S
C2326 C2327 1.385 . S
C2326 C2328 1.478 . S
C2327 H2321 0.930 . S
C2327 C2323 1.400 . S
C2327 C2326 1.385 . S
C2328 C2326 1.478 . S
C2328 C2330 1.381 1_455 S
C2328 C2334 1.383 . S
C2329 C2325 1.495 . S
C2329 H2335 0.959 . S
C2329 H2336 0.961 . S
C2329 H2337 0.960 . S
C2330 C2328 1.381 1_655 S
C2330 C2331 1.394 1_655 S
C2330 H2338 0.930 . S
C2331 C2330 1.394 1_455 S
C2331 C2332 1.383 . S
C2331 H2339 0.929 1_455 S
C2332 C2331 1.383 . S
C2332 C2333 1.377 . S
C2333 H2317 0.930 . S
C2333 C2332 1.377 . S
C2333 C2334 1.379 . S
C2334 H2318 0.931 . S
C2334 C2328 1.383 . S
C2334 C2333 1.379 . S
H2335 C2329 0.959 . S
H2336 C2329 0.961 . S
H2337 C2329 0.960 . S
H2338 C2330 0.930 . S
H2339 C2331 0.929 1_655 S
H2340 C2348 0.929 . S
H2341 C2350 0.930 . S
H2342 C2352 0.930 . S
H2343 C2355 0.929 . S
H2344 C2358 0.930 . S
H2345 C2360 0.960 . S
H2346 C2360 0.960 . S
H2347 C2360 0.960 . S
C2348 H2340 0.929 . S
C2348 C2349 1.377 . S
C2348 C2350 1.384 . S
C2349 C2348 1.377 . S
C2349 C2355 1.390 . S
C2350 H2341 0.930 . S
C2350 C2348 1.384 . S
C2350 C2351 1.372 . S
C2351 C2350 1.372 . S
C2351 C2352 1.400 . S
C2351 C2356 1.490 . S
C2352 H2342 0.930 . S
C2352 C2351 1.400 . S
C2352 C2355 1.386 . S
H2353 C2369 0.930 . S
H2354 C2370 0.931 . S
C2355 H2343 0.929 . S
C2355 C2349 1.390 . S
C2355 C2352 1.386 . S
C2356 C2351 1.490 . S
C2356 C2358 1.395 . S
C2356 C2359 1.403 . S
H2357 C2363 0.930 . S
C2358 H2344 0.930 . S
C2358 C2356 1.395 . S
C2358 C2361 1.403 1_565 S
C2359 C2356 1.403 . S
C2359 C2360 1.524 . S
C2359 C2363 1.400 1_565 S
C2360 H2345 0.960 . S
C2360 H2346 0.960 . S
C2360 H2347 0.960 . S
C2360 C2359 1.524 . S
C2361 C2358 1.403 1_545 S
C2361 C2362 1.392 . S
C2361 C2365 1.495 . S
C2362 C2361 1.392 . S
C2362 C2363 1.385 . S
C2362 C2364 1.478 . S
C2363 H2357 0.930 . S
C2363 C2359 1.400 1_545 S
C2363 C2362 1.385 . S
C2364 C2362 1.478 . S
C2364 C2366 1.381 . S
C2364 C2370 1.383 . S
C2365 C2361 1.495 . S
C2365 H2371 0.959 . S
C2365 H2372 0.961 . S
C2365 H2373 0.960 . S
C2366 C2364 1.381 . S
C2366 C2367 1.394 . S
C2366 H2374 0.930 . S
C2367 C2366 1.394 . S
C2367 C2368 1.383 . S
C2367 H2375 0.929 . S
C2368 C2367 1.383 . S
C2368 C2369 1.377 . S
C2369 H2353 0.930 . S
C2369 C2368 1.377 . S
C2369 C2370 1.379 . S
C2370 H2354 0.931 . S
C2370 C2364 1.383 . S
C2370 C2369 1.379 . S
H2371 C2365 0.959 . S
H2372 C2365 0.961 . S
H2373 C2365 0.960 . S
H2374 C2366 0.930 . S
H2375 C2367 0.929 . S
H2376 C2384 0.929 . S
H2377 C2386 0.930 . S
H2378 C2388 0.930 1_556 S
H2379 C2391 0.929 . S
H2380 C2394 0.930 . S
H2381 C2396 0.951 1_556 S
H2382 C2396 0.960 . S
H2383 C2396 0.960 1_556 S
C2384 H2376 0.929 . S
C2384 C2385 1.377 . S
C2384 C2386 1.384 . S
C2385 C2384 1.377 . S
C2385 C2391 1.390 . S
C2386 H2377 0.930 . S
C2386 C2384 1.384 . S
C2386 C2387 1.372 . S
C2387 C2386 1.372 . S
C2387 C2388 1.400 . S
C2387 C2392 1.490 . S
C2388 H2378 0.930 1_554 S
C2388 C2387 1.400 . S
C2388 C2391 1.386 . S
H2389 C2405 0.930 . S
H2390 C2406 0.931 . S
C2391 H2379 0.929 . S
C2391 C2385 1.390 . S
C2391 C2388 1.386 . S
C2392 C2387 1.490 . S
C2392 C2394 1.395 . S
C2392 C2395 1.403 1_655 S
H2393 C2399 0.930 . S
C2394 H2380 0.930 . S
C2394 C2392 1.395 . S
C2394 C2397 1.388 1_544 S
C2395 C2392 1.403 1_455 S
C2395 C2396 1.524 . S
C2395 C2399 1.400 1_544 S
C2396 H2381 0.951 1_554 S
C2396 H2382 0.960 . S
C2396 H2383 0.960 1_554 S
C2396 C2395 1.524 . S
C2397 C2394 1.388 1_566 S
C2397 C2398 1.406 1_655 S
C2397 C2401 1.499 . S
C2398 C2397 1.406 1_455 S
C2398 C2399 1.385 . S
C2398 C2400 1.478 . S
C2399 H2393 0.930 . S
C2399 C2395 1.400 1_566 S
C2399 C2398 1.385 . S
C2400 C2398 1.478 . S
C2400 C2402 1.381 . S
C2400 C2406 1.383 . S
C2401 C2397 1.499 . S
C2401 H2407 0.959 1_556 S
C2401 H2408 0.961 . S
C2401 H2409 0.960 1_556 S
C2402 C2400 1.381 . S
C2402 C2403 1.394 . S
C2402 H2410 0.930 1_556 S
C2403 C2402 1.394 . S
C2403 C2404 1.383 . S
C2403 H2411 0.929 . S
C2404 C2403 1.383 . S
C2404 C2405 1.377 . S
C2405 H2389 0.930 . S
C2405 C2404 1.377 . S
C2405 C2406 1.379 . S
C2406 H2390 0.931 . S
C2406 C2400 1.383 . S
C2406 C2405 1.379 . S
H2407 C2401 0.959 1_554 S
H2408 C2401 0.961 . S
H2409 C2401 0.960 1_554 S
H2410 C2402 0.930 1_554 S
H2411 C2403 0.929 . S
H2412 C2420 0.929 . S
H2413 C2422 0.930 1_556 S
H2414 C2424 0.930 . S
H2415 C2427 0.929 . S
H2416 C2430 0.930 . S
H2417 C2432 0.960 . S
H2418 C2432 0.960 . S
H2419 C2432 0.960 1_554 S
C2420 H2412 0.929 . S
C2420 C2421 1.377 . S
C2420 C2422 1.384 . S
C2421 C2420 1.377 . S
C2421 C2427 1.390 . S
C2422 H2413 0.930 1_554 S
C2422 C2420 1.384 . S
C2422 C2423 1.372 . S
C2423 C2422 1.372 . S
C2423 C2424 1.400 . S
C2423 C2428 1.490 . S
C2424 H2414 0.930 . S
C2424 C2423 1.400 . S
C2424 C2427 1.386 . S
H2425 C2441 0.930 . S
H2426 C2442 0.931 1_554 S
C2427 H2415 0.929 . S
C2427 C2421 1.390 . S
C2427 C2424 1.386 . S
C2428 C2423 1.490 . S
C2428 C2430 1.395 . S
C2428 C2431 1.403 1_554 S
H2429 C2435 0.930 . S
C2430 H2416 0.930 . S
C2430 C2428 1.395 . S
C2430 C2433 1.417 . S
C2431 C2428 1.403 1_556 S
C2431 C2432 1.524 . S
C2431 C2435 1.400 . S
C2432 H2417 0.960 . S
C2432 H2418 0.960 . S
C2432 H2419 0.960 1_556 S
C2432 C2431 1.524 . S
C2433 C2430 1.417 . S
C2433 C2434 1.378 1_554 S
C2433 C2437 1.498 . S
C2434 C2433 1.378 1_556 S
C2434 C2435 1.385 . S
C2434 C2436 1.478 . S
C2435 H2429 0.930 . S
C2435 C2431 1.400 . S
C2435 C2434 1.385 . S
C2436 C2434 1.478 . S
C2436 C2438 1.381 . S
C2436 C2442 1.383 . S
C2437 C2433 1.498 . S
C2437 H2443 0.959 . S
C2437 H2444 0.961 . S
C2437 H2445 0.960 1_554 S
C2438 C2436 1.381 . S
C2438 C2439 1.394 . S
C2438 H2446 0.930 . S
C2439 C2438 1.394 . S
C2439 C2440 1.383 . S
C2439 H2447 0.929 . S
C2440 C2439 1.383 . S
C2440 C2441 1.377 . S
C2441 H2425 0.930 . S
C2441 C2440 1.377 . S
C2441 C2442 1.379 . S
C2442 H2426 0.931 1_556 S
C2442 C2436 1.383 . S
C2442 C2441 1.379 . S
H2443 C2437 0.959 . S
H2444 C2437 0.961 . S
H2445 C2437 0.960 1_556 S
H2446 C2438 0.930 . S
H2447 C2439 0.929 . S
H2448 C2456 0.929 1_455 S
H2449 C2458 0.938 . S
H2450 C2460 0.930 . S
H2451 C2463 0.929 . S
H2452 C2466 0.930 . S
H2453 C2468 0.960 . S
H2454 C2468 0.960 . S
H2455 C2468 0.960 . S
C2456 H2448 0.929 1_655 S
C2456 C2457 1.377 . S
C2456 C2458 1.381 1_655 S
C2457 C2456 1.377 . S
C2457 C2463 1.390 . S
C2458 H2449 0.938 . S
C2458 C2456 1.381 1_455 S
C2458 C2459 1.367 1_455 S
C2459 C2458 1.367 1_655 S
C2459 C2460 1.400 . S
C2459 C2464 1.490 . S
C2460 H2450 0.930 . S
C2460 C2459 1.400 . S
C2460 C2463 1.386 . S
H2461 C2477 0.930 . S
H2462 C2478 0.931 1_655 S
C2463 H2451 0.929 . S
C2463 C2457 1.390 . S
C2463 C2460 1.386 . S
C2464 C2459 1.490 . S
C2464 C2466 1.395 1_655 S
C2464 C2467 1.403 . S
H2465 C2471 0.930 . S
C2466 H2452 0.930 . S
C2466 C2464 1.395 1_455 S
C2466 C2469 1.403 . S
C2467 C2464 1.403 . S
C2467 C2468 1.524 . S
C2467 C2471 1.400 . S
C2468 H2453 0.960 . S
C2468 H2454 0.960 . S
C2468 H2455 0.960 . S
C2468 C2467 1.524 . S
C2469 C2466 1.403 . S
C2469 C2470 1.392 . S
C2469 C2473 1.495 . S
C2470 C2469 1.392 . S
C2470 C2471 1.385 1_455 S
C2470 C2472 1.478 . S
C2471 H2465 0.930 . S
C2471 C2467 1.400 . S
C2471 C2470 1.385 1_655 S
C2472 C2470 1.478 . S
C2472 C2474 1.381 . S
C2472 C2478 1.383 . S
C2473 C2469 1.495 . S
C2473 H2479 0.959 . S
C2473 H2480 0.961 . S
C2473 H2481 0.960 . S
C2474 C2472 1.381 . S
C2474 C2475 1.394 . S
C2474 H2482 0.930 . S
C2475 C2474 1.394 . S
C2475 C2476 1.383 . S
C2475 H2483 0.929 . S
C2476 C2475 1.383 . S
C2476 C2477 1.377 . S
C2477 H2461 0.930 . S
C2477 C2476 1.377 . S
C2477 C2478 1.379 . S
C2478 H2462 0.931 1_455 S
C2478 C2472 1.383 . S
C2478 C2477 1.379 . S
H2479 C2473 0.959 . S
H2480 C2473 0.961 . S
H2481 C2473 0.960 . S
H2482 C2474 0.930 . S
H2483 C2475 0.929 . S
H2484 C2492 0.929 . S
H2485 C2494 0.930 . S
H2486 C2496 0.930 . S
H2487 C2499 0.929 . S
H2488 C2502 0.930 . S
H2489 C2504 0.960 1_545 S
H2490 C2504 0.960 . S
H2491 C2504 0.960 . S
C2492 H2484 0.929 . S
C2492 C2493 1.377 . S
C2492 C2494 1.384 . S
C2493 C2492 1.377 . S
C2493 C2499 1.390 . S
C2494 H2485 0.930 . S
C2494 C2492 1.384 . S
C2494 C2495 1.372 . S
C2495 C2494 1.372 . S
C2495 C2496 1.400 . S
C2495 C2500 1.490 . S
C2496 H2486 0.930 . S
C2496 C2495 1.400 . S
C2496 C2499 1.386 . S
H2497 C2513 0.930 . S
H2498 C2514 0.931 . S
C2499 H2487 0.929 . S
C2499 C2493 1.390 . S
C2499 C2496 1.386 . S
C2500 C2495 1.490 . S
C2500 C2502 1.395 . S
C2500 C2503 1.403 . S
H2501 C2507 0.930 . S
C2502 H2488 0.930 . S
C2502 C2500 1.395 . S
C2502 C2505 1.403 1_565 S
C2503 C2500 1.403 . S
C2503 C2504 1.524 . S
C2503 C2507 1.400 1_565 S
C2504 H2489 0.960 1_565 S
C2504 H2490 0.960 . S
C2504 H2491 0.960 . S
C2504 C2503 1.524 . S
C2505 C2502 1.403 1_545 S
C2505 C2506 1.392 . S
C2505 C2509 1.495 . S
C2506 C2505 1.392 . S
C2506 C2507 1.385 . S
C2506 C2508 1.478 . S
C2507 H2501 0.930 . S
C2507 C2503 1.400 1_545 S
C2507 C2506 1.385 . S
C2508 C2506 1.478 . S
C2508 C2510 1.381 . S
C2508 C2514 1.383 . S
C2509 C2505 1.495 . S
C2509 H2515 0.959 1_545 S
C2509 H2516 0.961 . S
C2509 H2517 0.960 . S
C2510 C2508 1.381 . S
C2510 C2511 1.394 . S
C2510 H2518 0.930 . S
C2511 C2510 1.394 . S
C2511 C2512 1.383 . S
C2511 H2519 0.929 . S
C2512 C2511 1.383 . S
C2512 C2513 1.377 . S
C2513 H2497 0.930 . S
C2513 C2512 1.377 . S
C2513 C2514 1.379 . S
C2514 H2498 0.931 . S
C2514 C2508 1.383 . S
C2514 C2513 1.379 . S
H2515 C2509 0.959 1_565 S
H2516 C2509 0.961 . S
H2517 C2509 0.960 . S
H2518 C2510 0.930 . S
H2519 C2511 0.929 . S
H2520 C2528 0.929 . S
H2521 C2530 0.930 . S
H2522 C2532 0.930 . S
H2523 C2535 0.929 . S
H2524 C2538 0.930 . S
H2525 C2540 0.960 . S
H2526 C2540 0.960 . S
H2527 C2540 0.960 . S
C2528 H2520 0.929 . S
C2528 C2529 1.377 . S
C2528 C2530 1.384 . S
C2529 C2528 1.377 . S
C2529 C2535 1.390 . S
C2530 H2521 0.930 . S
C2530 C2528 1.384 . S
C2530 C2531 1.372 . S
C2531 C2530 1.372 . S
C2531 C2532 1.400 . S
C2531 C2536 1.490 . S
C2532 H2522 0.930 . S
C2532 C2531 1.400 . S
C2532 C2535 1.386 . S
H2533 C2549 0.930 . S
H2534 C2550 0.931 . S
C2535 H2523 0.929 . S
C2535 C2529 1.390 . S
C2535 C2532 1.386 . S
C2536 C2531 1.490 . S
C2536 C2538 1.395 . S
C2536 C2539 1.403 1_556 S
H2537 C2543 0.930 . S
C2538 H2524 0.930 . S
C2538 C2536 1.395 . S
C2538 C2541 1.403 . S
C2539 C2536 1.403 1_554 S
C2539 C2540 1.524 . S
C2539 C2543 1.400 . S
C2540 H2525 0.960 . S
C2540 H2526 0.960 . S
C2540 H2527 0.960 . S
C2540 C2539 1.524 . S
C2541 C2538 1.403 . S
C2541 C2542 1.392 1_556 S
C2541 C2545 1.495 . S
C2542 C2541 1.392 1_554 S
C2542 C2543 1.385 . S
C2542 C2544 1.478 . S
C2543 H2537 0.930 . S
C2543 C2539 1.400 . S
C2543 C2542 1.385 . S
C2544 C2542 1.478 . S
C2544 C2546 1.381 . S
C2544 C2550 1.383 . S
C2545 C2541 1.495 . S
C2545 H2551 0.959 . S
C2545 H2552 0.961 . S
C2545 H2553 0.960 . S
C2546 C2544 1.381 . S
C2546 C2547 1.394 . S
C2546 H2554 0.930 . S
C2547 C2546 1.394 . S
C2547 C2548 1.383 . S
C2547 H2555 0.929 . S
C2548 C2547 1.383 . S
C2548 C2549 1.377 . S
C2549 H2533 0.930 . S
C2549 C2548 1.377 . S
C2549 C2550 1.379 . S
C2550 H2534 0.931 . S
C2550 C2544 1.383 . S
C2550 C2549 1.379 . S
H2551 C2545 0.959 . S
H2552 C2545 0.961 . S
H2553 C2545 0.960 . S
H2554 C2546 0.930 . S
H2555 C2547 0.929 . S
H2556 C2564 0.929 . S
H2557 C2566 0.930 . S
H2558 C2568 0.930 . S
H2559 C2571 0.929 . S
H2560 C2574 0.930 . S
H2561 C2576 0.960 . S
H2562 C2576 0.960 . S
H2563 C2576 0.960 . S
C2564 H2556 0.929 . S
C2564 C2565 1.377 . S
C2564 C2566 1.384 . S
C2565 C2564 1.377 . S
C2565 C2571 1.390 . S
C2566 H2557 0.930 . S
C2566 C2564 1.384 . S
C2566 C2567 1.372 . S
C2567 C2566 1.372 . S
C2567 C2568 1.400 . S
C2567 C2572 1.490 . S
C2568 H2558 0.930 . S
C2568 C2567 1.400 . S
C2568 C2571 1.386 . S
H2569 C2585 0.930 . S
H2570 C2586 0.931 . S
C2571 H2559 0.929 . S
C2571 C2565 1.390 . S
C2571 C2568 1.386 . S
C2572 C2567 1.490 . S
C2572 C2574 1.395 . S
C2572 C2575 1.403 . S
H2573 C2579 0.930 . S
C2574 H2560 0.930 . S
C2574 C2572 1.395 . S
C2574 C2577 1.403 . S
C2575 C2572 1.403 . S
C2575 C2576 1.524 . S
C2575 C2579 1.400 . S
C2576 H2561 0.960 . S
C2576 H2562 0.960 . S
C2576 H2563 0.960 . S
C2576 C2575 1.524 . S
C2577 C2574 1.403 . S
C2577 C2578 1.392 . S
C2577 C2581 1.495 . S
C2578 C2577 1.392 . S
C2578 C2579 1.385 . S
C2578 C2580 1.478 . S
C2579 H2573 0.930 . S
C2579 C2575 1.400 . S
C2579 C2578 1.385 . S
C2580 C2578 1.478 . S
C2580 C2582 1.381 . S
C2580 C2586 1.383 . S
C2581 C2577 1.495 . S
C2581 H2587 0.959 . S
C2581 H2588 0.961 . S
C2581 H2589 0.960 . S
C2582 C2580 1.381 . S
C2582 C2583 1.394 . S
C2582 H2590 0.930 . S
C2583 C2582 1.394 . S
C2583 C2584 1.383 . S
C2583 H2591 0.929 . S
C2584 C2583 1.383 . S
C2584 C2585 1.377 . S
C2585 H2569 0.930 . S
C2585 C2584 1.377 . S
C2585 C2586 1.379 . S
C2586 H2570 0.931 . S
C2586 C2580 1.383 . S
C2586 C2585 1.379 . S
H2587 C2581 0.959 . S
H2588 C2581 0.961 . S
H2589 C2581 0.960 . S
H2590 C2582 0.930 . S
H2591 C2583 0.929 . S
H2592 C2600 0.929 . S
H2593 C2602 0.930 . S
H2594 C2604 0.930 1_655 S
H2595 C2607 0.929 . S
H2596 C2610 0.930 . S
H2597 C2612 0.960 . S
H2598 C2612 0.960 . S
H2599 C2612 0.960 . S
C2600 H2592 0.929 . S
C2600 C2601 1.377 . S
C2600 C2602 1.384 . S
C2601 C2600 1.377 . S
C2601 C2607 1.390 . S
C2602 H2593 0.930 . S
C2602 C2600 1.384 . S
C2602 C2603 1.372 . S
C2603 C2602 1.372 . S
C2603 C2604 1.400 . S
C2603 C2608 1.490 . S
C2604 H2594 0.930 1_455 S
C2604 C2603 1.400 . S
C2604 C2607 1.386 . S
H2605 C2621 0.930 . S
H2606 C2622 0.931 . S
C2607 H2595 0.929 . S
C2607 C2601 1.390 . S
C2607 C2604 1.386 . S
C2608 C2603 1.490 . S
C2608 C2610 1.395 1_455 S
C2608 C2611 1.403 . S
H2609 C2615 0.930 . S
C2610 H2596 0.930 . S
C2610 C2608 1.395 1_655 S
C2610 C2613 1.403 . S
C2611 C2608 1.403 . S
C2611 C2612 1.524 . S
C2611 C2615 1.400 . S
C2612 H2597 0.960 . S
C2612 H2598 0.960 . S
C2612 H2599 0.960 . S
C2612 C2611 1.524 . S
C2613 C2610 1.403 . S
C2613 C2614 1.392 . S
C2613 C2617 1.495 . S
C2614 C2613 1.392 . S
C2614 C2615 1.385 1_655 S
C2614 C2616 1.478 . S
C2615 H2609 0.930 . S
C2615 C2611 1.400 . S
C2615 C2614 1.385 1_455 S
C2616 C2614 1.478 . S
C2616 C2618 1.381 . S
C2616 C2622 1.383 . S
C2617 C2613 1.495 . S
C2617 H2623 0.959 . S
C2617 H2624 0.961 . S
C2617 H2625 0.960 . S
C2618 C2616 1.381 . S
C2618 C2619 1.394 . S
C2618 H2626 0.930 1_655 S
C2619 C2618 1.394 . S
C2619 C2620 1.383 . S
C2619 H2627 0.929 . S
C2620 C2619 1.383 . S
C2620 C2621 1.377 . S
C2621 H2605 0.930 . S
C2621 C2620 1.377 . S
C2621 C2622 1.379 . S
C2622 H2606 0.931 . S
C2622 C2616 1.383 . S
C2622 C2621 1.379 . S
H2623 C2617 0.959 . S
H2624 C2617 0.961 . S
H2625 C2617 0.960 . S
H2626 C2618 0.930 1_455 S
H2627 C2619 0.929 . S
H2628 C2636 0.929 . S
H2629 C2638 0.930 . S
H2630 C2640 0.930 . S
H2631 C2643 0.929 . S
H2632 C2646 0.930 . S
H2633 C2648 0.960 . S
H2634 C2648 0.960 . S
H2635 C2648 0.960 . S
C2636 H2628 0.929 . S
C2636 C2637 1.377 . S
C2636 C2638 1.384 . S
C2637 C2636 1.377 . S
C2637 C2643 1.390 . S
C2638 H2629 0.930 . S
C2638 C2636 1.384 . S
C2638 C2639 1.372 . S
C2639 C2638 1.372 . S
C2639 C2640 1.400 . S
C2639 C2644 1.490 . S
C2640 H2630 0.930 . S
C2640 C2639 1.400 . S
C2640 C2643 1.386 . S
H2641 C2657 0.930 . S
H2642 C2658 0.931 . S
C2643 H2631 0.929 . S
C2643 C2637 1.390 . S
C2643 C2640 1.386 . S
C2644 C2639 1.490 . S
C2644 C2646 1.395 . S
C2644 C2647 1.403 . S
H2645 C2651 0.930 . S
C2646 H2632 0.930 . S
C2646 C2644 1.395 . S
C2646 C2649 1.403 . S
C2647 C2644 1.403 . S
C2647 C2648 1.524 . S
C2647 C2651 1.400 . S
C2648 H2633 0.960 . S
C2648 H2634 0.960 . S
C2648 H2635 0.960 . S
C2648 C2647 1.524 . S
C2649 C2646 1.403 . S
C2649 C2650 1.392 . S
C2649 C2653 1.495 . S
C2650 C2649 1.392 . S
C2650 C2651 1.385 . S
C2650 C2652 1.478 . S
C2651 H2645 0.930 . S
C2651 C2647 1.400 . S
C2651 C2650 1.385 . S
C2652 C2650 1.478 . S
C2652 C2654 1.381 . S
C2652 C2658 1.383 . S
C2653 C2649 1.495 . S
C2653 H2659 0.959 . S
C2653 H2660 0.961 . S
C2653 H2661 0.960 . S
C2654 C2652 1.381 . S
C2654 C2655 1.394 . S
C2654 H2662 0.930 . S
C2655 C2654 1.394 . S
C2655 C2656 1.383 . S
C2655 H2663 0.929 . S
C2656 C2655 1.383 . S
C2656 C2657 1.377 . S
C2657 H2641 0.930 . S
C2657 C2656 1.377 . S
C2657 C2658 1.379 . S
C2658 H2642 0.931 . S
C2658 C2652 1.383 . S
C2658 C2657 1.379 . S
H2659 C2653 0.959 . S
H2660 C2653 0.961 . S
H2661 C2653 0.960 . S
H2662 C2654 0.930 . S
H2663 C2655 0.929 . S
H2664 C2672 0.929 . S
H2665 C2674 0.930 . S
H2666 C2676 0.930 . S
H2667 C2679 0.929 . S
H2668 C2682 0.930 . S
H2669 C2684 0.960 . S
H2670 C2684 0.960 . S
H2671 C2684 0.960 . S
C2672 H2664 0.929 . S
C2672 C2673 1.377 . S
C2672 C2674 1.384 . S
C2673 C2672 1.377 . S
C2673 C2679 1.390 . S
C2674 H2665 0.930 . S
C2674 C2672 1.384 . S
C2674 C2675 1.372 . S
C2675 C2674 1.372 . S
C2675 C2676 1.400 . S
C2675 C2680 1.490 . S
C2676 H2666 0.930 . S
C2676 C2675 1.400 . S
C2676 C2679 1.386 . S
H2677 C2693 0.930 . S
H2678 C2694 0.931 . S
C2679 H2667 0.929 . S
C2679 C2673 1.390 . S
C2679 C2676 1.386 . S
C2680 C2675 1.490 . S
C2680 C2682 1.395 . S
C2680 C2683 1.403 . S
H2681 C2687 0.930 . S
C2682 H2668 0.930 . S
C2682 C2680 1.395 . S
C2682 C2685 1.403 . S
C2683 C2680 1.403 . S
C2683 C2684 1.524 . S
C2683 C2687 1.400 . S
C2684 H2669 0.960 . S
C2684 H2670 0.960 . S
C2684 H2671 0.960 . S
C2684 C2683 1.524 . S
C2685 C2682 1.403 . S
C2685 C2686 1.392 . S
C2685 C2689 1.495 . S
C2686 C2685 1.392 . S
C2686 C2687 1.385 . S
C2686 C2688 1.478 . S
C2687 H2681 0.930 . S
C2687 C2683 1.400 . S
C2687 C2686 1.385 . S
C2688 C2686 1.478 . S
C2688 C2690 1.381 . S
C2688 C2694 1.383 . S
C2689 C2685 1.495 . S
C2689 H2695 0.959 . S
C2689 H2696 0.961 . S
C2689 H2697 0.960 . S
C2690 C2688 1.381 . S
C2690 C2691 1.394 . S
C2690 H2698 0.930 . S
C2691 C2690 1.394 . S
C2691 C2692 1.383 . S
C2691 H2699 0.929 . S
C2692 C2691 1.383 . S
C2692 C2693 1.377 . S
C2693 H2677 0.930 . S
C2693 C2692 1.377 . S
C2693 C2694 1.379 . S
C2694 H2678 0.931 . S
C2694 C2688 1.383 . S
C2694 C2693 1.379 . S
H2695 C2689 0.959 . S
H2696 C2689 0.961 . S
H2697 C2689 0.960 . S
H2698 C2690 0.930 . S
H2699 C2691 0.929 . S
H2700 C2708 0.929 . S
H2701 C2710 0.930 . S
H2702 C2712 0.930 . S
H2703 C2715 0.929 . S
H2704 C2718 0.930 . S
H2705 C2720 0.960 . S
H2706 C2720 0.960 . S
H2707 C2720 0.960 . S
C2708 H2700 0.929 . S
C2708 C2709 1.377 . S
C2708 C2710 1.384 . S
C2709 C2708 1.377 . S
C2709 C2715 1.390 . S
C2710 H2701 0.930 . S
C2710 C2708 1.384 . S
C2710 C2711 1.372 . S
C2711 C2710 1.372 . S
C2711 C2712 1.400 . S
C2711 C2716 1.490 . S
C2712 H2702 0.930 . S
C2712 C2711 1.400 . S
C2712 C2715 1.386 . S
H2713 C2729 0.930 . S
H2714 C2730 0.931 . S
C2715 H2703 0.929 . S
C2715 C2709 1.390 . S
C2715 C2712 1.386 . S
C2716 C2711 1.490 . S
C2716 C2718 1.395 . S
C2716 C2719 1.403 . S
H2717 C2723 0.930 . S
C2718 H2704 0.930 . S
C2718 C2716 1.395 . S
C2718 C2721 1.403 . S
C2719 C2716 1.403 . S
C2719 C2720 1.524 . S
C2719 C2723 1.400 . S
C2720 H2705 0.960 . S
C2720 H2706 0.960 . S
C2720 H2707 0.960 . S
C2720 C2719 1.524 . S
C2721 C2718 1.403 . S
C2721 C2722 1.392 . S
C2721 C2725 1.495 . S
C2722 C2721 1.392 . S
C2722 C2723 1.385 . S
C2722 C2724 1.478 . S
C2723 H2717 0.930 . S
C2723 C2719 1.400 . S
C2723 C2722 1.385 . S
C2724 C2722 1.478 . S
C2724 C2726 1.381 . S
C2724 C2730 1.383 . S
C2725 C2721 1.495 . S
C2725 H2731 0.959 . S
C2725 H2732 0.961 . S
C2725 H2733 0.960 . S
C2726 C2724 1.381 . S
C2726 C2727 1.394 . S
C2726 H2734 0.930 . S
C2727 C2726 1.394 . S
C2727 C2728 1.383 . S
C2727 H2735 0.929 . S
C2728 C2727 1.383 . S
C2728 C2729 1.377 . S
C2729 H2713 0.930 . S
C2729 C2728 1.377 . S
C2729 C2730 1.379 . S
C2730 H2714 0.931 . S
C2730 C2724 1.383 . S
C2730 C2729 1.379 . S
H2731 C2725 0.959 . S
H2732 C2725 0.961 . S
H2733 C2725 0.960 . S
H2734 C2726 0.930 . S
H2735 C2727 0.929 . S
H2736 C2744 0.929 . S
H2737 C2746 0.930 . S
H2738 C2748 0.930 . S
H2739 C2751 0.929 . S
H2740 C2754 0.930 . S
H2741 C2756 0.960 . S
H2742 C2756 0.960 . S
H2743 C2756 0.960 . S
C2744 H2736 0.929 . S
C2744 C2745 1.377 . S
C2744 C2746 1.384 . S
C2745 C2744 1.377 . S
C2745 C2751 1.390 . S
C2746 H2737 0.930 . S
C2746 C2744 1.384 . S
C2746 C2747 1.372 . S
C2747 C2746 1.372 . S
C2747 C2748 1.400 . S
C2747 C2752 1.490 . S
C2748 H2738 0.930 . S
C2748 C2747 1.400 . S
C2748 C2751 1.386 . S
H2749 C2765 0.930 . S
H2750 C2766 0.931 . S
C2751 H2739 0.929 . S
C2751 C2745 1.390 . S
C2751 C2748 1.386 . S
C2752 C2747 1.490 . S
C2752 C2754 1.395 . S
C2752 C2755 1.403 . S
H2753 C2759 0.930 . S
C2754 H2740 0.930 . S
C2754 C2752 1.395 . S
C2754 C2757 1.403 . S
C2755 C2752 1.403 . S
C2755 C2756 1.524 . S
C2755 C2759 1.400 . S
C2756 H2741 0.960 . S
C2756 H2742 0.960 . S
C2756 H2743 0.960 . S
C2756 C2755 1.524 . S
C2757 C2754 1.403 . S
C2757 C2758 1.392 . S
C2757 C2761 1.495 . S
C2758 C2757 1.392 . S
C2758 C2759 1.385 . S
C2758 C2760 1.478 . S
C2759 H2753 0.930 . S
C2759 C2755 1.400 . S
C2759 C2758 1.385 . S
C2760 C2758 1.478 . S
C2760 C2762 1.381 . S
C2760 C2766 1.383 . S
C2761 C2757 1.495 . S
C2761 H2767 0.959 . S
C2761 H2768 0.961 . S
C2761 H2769 0.960 . S
C2762 C2760 1.381 . S
C2762 C2763 1.394 . S
C2762 H2770 0.930 . S
C2763 C2762 1.394 . S
C2763 C2764 1.383 . S
C2763 H2771 0.929 . S
C2764 C2763 1.383 . S
C2764 C2765 1.377 . S
C2765 H2749 0.930 . S
C2765 C2764 1.377 . S
C2765 C2766 1.379 . S
C2766 H2750 0.931 . S
C2766 C2760 1.383 . S
C2766 C2765 1.379 . S
H2767 C2761 0.959 . S
H2768 C2761 0.961 . S
H2769 C2761 0.960 . S
H2770 C2762 0.930 . S
H2771 C2763 0.929 . S
H2772 C2780 0.929 . S
H2773 C2782 0.930 . S
H2774 C2784 0.930 . S
H2775 C2787 0.929 . S
H2776 C2790 0.930 . S
H2777 C2792 0.860 1_565 S
H2778 C2792 0.985 . S
H2779 C2792 1.047 . S
C2780 H2772 0.929 . S
C2780 C2781 1.377 . S
C2780 C2782 1.384 . S
C2781 C2780 1.377 . S
C2781 C2787 1.390 . S
C2782 H2773 0.930 . S
C2782 C2780 1.384 . S
C2782 C2783 1.372 . S
C2783 C2782 1.372 . S
C2783 C2784 1.400 . S
C2783 C2788 1.490 . S
C2784 H2774 0.930 . S
C2784 C2783 1.400 . S
C2784 C2787 1.386 . S
H2785 C2801 0.930 . S
H2786 C2802 0.931 . S
C2787 H2775 0.929 . S
C2787 C2781 1.390 . S
C2787 C2784 1.386 . S
C2788 C2783 1.490 . S
C2788 C2790 1.395 . S
C2788 C2791 1.486 . S
H2789 C2795 0.930 . S
C2790 H2776 0.930 . S
C2790 C2788 1.395 . S
C2790 C2793 1.354 1_545 S
C2791 C2788 1.486 . S
C2791 C2792 1.524 . S
C2791 C2795 1.314 1_545 S
C2792 H2777 0.860 1_545 S
C2792 H2778 0.985 . S
C2792 H2779 1.047 . S
C2792 C2791 1.524 . S
C2793 C2790 1.354 1_565 S
C2793 C2794 1.439 . S
C2793 C2797 1.494 . S
C2794 C2793 1.439 . S
C2794 C2795 1.385 . S
C2794 C2796 1.478 . S
C2795 H2789 0.930 . S
C2795 C2791 1.314 1_565 S
C2795 C2794 1.385 . S
C2796 C2794 1.478 . S
C2796 C2798 1.381 . S
C2796 C2802 1.383 . S
C2797 C2793 1.494 . S
C2797 H2803 0.866 1_565 S
C2797 H2804 0.986 . S
C2797 H2805 1.041 . S
C2798 C2796 1.381 . S
C2798 C2799 1.394 . S
C2798 H2806 0.930 . S
C2799 C2798 1.394 . S
C2799 C2800 1.383 . S
C2799 H2807 0.929 . S
C2800 C2799 1.383 . S
C2800 C2801 1.377 . S
C2801 H2785 0.930 . S
C2801 C2800 1.377 . S
C2801 C2802 1.379 . S
C2802 H2786 0.931 . S
C2802 C2796 1.383 . S
C2802 C2801 1.379 . S
H2803 C2797 0.866 1_545 S
H2804 C2797 0.986 . S
H2805 C2797 1.041 . S
H2806 C2798 0.930 . S
H2807 C2799 0.929 . S
H2808 C2816 0.929 . S
H2809 C2818 0.930 . S
H2810 C2820 0.930 . S
H2811 C2823 0.929 . S
H2812 C2826 0.930 . S
H2813 C2828 0.960 . S
H2814 C2828 0.960 . S
H2815 C2828 0.960 . S
C2816 H2808 0.929 . S
C2816 C2817 1.377 . S
C2816 C2818 1.384 . S
C2817 C2816 1.377 . S
C2817 C2823 1.390 . S
C2818 H2809 0.930 . S
C2818 C2816 1.384 . S
C2818 C2819 1.372 . S
C2819 C2818 1.372 . S
C2819 C2820 1.400 . S
C2819 C2824 1.490 . S
C2820 H2810 0.930 . S
C2820 C2819 1.400 . S
C2820 C2823 1.386 . S
H2821 C2837 0.930 . S
H2822 C2838 0.931 . S
C2823 H2811 0.929 . S
C2823 C2817 1.390 . S
C2823 C2820 1.386 . S
C2824 C2819 1.490 . S
C2824 C2826 1.395 . S
C2824 C2827 1.403 . S
H2825 C2831 0.930 . S
C2826 H2812 0.930 . S
C2826 C2824 1.395 . S
C2826 C2829 1.403 . S
C2827 C2824 1.403 . S
C2827 C2828 1.524 . S
C2827 C2831 1.400 . S
C2828 H2813 0.960 . S
C2828 H2814 0.960 . S
C2828 H2815 0.960 . S
C2828 C2827 1.524 . S
C2829 C2826 1.403 . S
C2829 C2830 1.392 . S
C2829 C2833 1.495 . S
C2830 C2829 1.392 . S
C2830 C2831 1.385 . S
C2830 C2832 1.478 . S
C2831 H2825 0.930 . S
C2831 C2827 1.400 . S
C2831 C2830 1.385 . S
C2832 C2830 1.478 . S
C2832 C2834 1.381 . S
C2832 C2838 1.383 . S
C2833 C2829 1.495 . S
C2833 H2839 0.959 . S
C2833 H2840 0.961 . S
C2833 H2841 0.960 . S
C2834 C2832 1.381 . S
C2834 C2835 1.394 . S
C2834 H2842 0.930 . S
C2835 C2834 1.394 . S
C2835 C2836 1.383 . S
C2835 H2843 0.929 . S
C2836 C2835 1.383 . S
C2836 C2837 1.377 . S
C2837 H2821 0.930 . S
C2837 C2836 1.377 . S
C2837 C2838 1.379 . S
C2838 H2822 0.931 . S
C2838 C2832 1.383 . S
C2838 C2837 1.379 . S
H2839 C2833 0.959 . S
H2840 C2833 0.961 . S
H2841 C2833 0.960 . S
H2842 C2834 0.930 . S
H2843 C2835 0.929 . S
H2844 C2852 0.929 . S
H2845 C2854 0.930 . S
H2846 C2856 0.930 . S
H2847 C2859 0.929 . S
H2848 C2862 0.930 . S
H2849 C2864 0.960 . S
H2850 C2864 0.960 . S
H2851 C2864 0.960 . S
C2852 H2844 0.929 . S
C2852 C2853 1.377 . S
C2852 C2854 1.384 . S
C2853 C2852 1.377 . S
C2853 C2859 1.390 . S
C2854 H2845 0.930 . S
C2854 C2852 1.384 . S
C2854 C2855 1.372 . S
C2855 C2854 1.372 . S
C2855 C2856 1.400 . S
C2855 C2860 1.490 . S
C2856 H2846 0.930 . S
C2856 C2855 1.400 . S
C2856 C2859 1.386 . S
H2857 C2873 0.930 . S
H2858 C2874 0.931 . S
C2859 H2847 0.929 . S
C2859 C2853 1.390 . S
C2859 C2856 1.386 . S
C2860 C2855 1.490 . S
C2860 C2862 1.395 1_556 S
C2860 C2863 1.403 . S
H2861 C2867 0.930 . S
C2862 H2848 0.930 . S
C2862 C2860 1.395 1_554 S
C2862 C2865 1.403 . S
C2863 C2860 1.403 . S
C2863 C2864 1.524 . S
C2863 C2867 1.400 . S
C2864 H2849 0.960 . S
C2864 H2850 0.960 . S
C2864 H2851 0.960 . S
C2864 C2863 1.524 . S
C2865 C2862 1.403 . S
C2865 C2866 1.392 . S
C2865 C2869 1.495 . S
C2866 C2865 1.392 . S
C2866 C2867 1.385 1_554 S
C2866 C2868 1.478 . S
C2867 H2861 0.930 . S
C2867 C2863 1.400 . S
C2867 C2866 1.385 1_556 S
C2868 C2866 1.478 . S
C2868 C2870 1.381 . S
C2868 C2874 1.383 . S
C2869 C2865 1.495 . S
C2869 H2875 0.959 . S
C2869 H2876 0.961 . S
C2869 H2877 0.960 . S
C2870 C2868 1.381 . S
C2870 C2871 1.394 . S
C2870 H2878 0.930 . S
C2871 C2870 1.394 . S
C2871 C2872 1.383 . S
C2871 H2879 0.929 . S
C2872 C2871 1.383 . S
C2872 C2873 1.377 . S
C2873 H2857 0.930 . S
C2873 C2872 1.377 . S
C2873 C2874 1.379 . S
C2874 H2858 0.931 . S
C2874 C2868 1.383 . S
C2874 C2873 1.379 . S
H2875 C2869 0.959 . S
H2876 C2869 0.961 . S
H2877 C2869 0.960 . S
H2878 C2870 0.930 . S
H2879 C2871 0.929 . S
H2880 C2888 0.929 . S
H2881 C2890 0.930 . S
H2882 C2892 0.930 . S
H2883 C2895 0.929 . S
H2884 C2898 0.930 . S
H2885 C2900 0.960 . S
H2886 C2900 0.960 . S
H2887 C2900 0.960 . S
C2888 H2880 0.929 . S
C2888 C2889 1.377 . S
C2888 C2890 1.384 . S
C2889 C2888 1.377 . S
C2889 C2895 1.390 . S
C2890 H2881 0.930 . S
C2890 C2888 1.384 . S
C2890 C2891 1.372 . S
C2891 C2890 1.372 . S
C2891 C2892 1.400 . S
C2891 C2896 1.490 . S
C2892 H2882 0.930 . S
C2892 C2891 1.400 . S
C2892 C2895 1.386 . S
H2893 C2909 0.930 . S
H2894 C2910 0.931 . S
C2895 H2883 0.929 . S
C2895 C2889 1.390 . S
C2895 C2892 1.386 . S
C2896 C2891 1.490 . S
C2896 C2898 1.395 . S
C2896 C2899 1.403 . S
H2897 C2903 0.930 . S
C2898 H2884 0.930 . S
C2898 C2896 1.395 . S
C2898 C2901 1.403 . S
C2899 C2896 1.403 . S
C2899 C2900 1.524 . S
C2899 C2903 1.400 . S
C2900 H2885 0.960 . S
C2900 H2886 0.960 . S
C2900 H2887 0.960 . S
C2900 C2899 1.524 . S
C2901 C2898 1.403 . S
C2901 C2902 1.392 . S
C2901 C2905 1.495 . S
C2902 C2901 1.392 . S
C2902 C2903 1.385 . S
C2902 C2904 1.478 . S
C2903 H2897 0.930 . S
C2903 C2899 1.400 . S
C2903 C2902 1.385 . S
C2904 C2902 1.478 . S
C2904 C2906 1.381 . S
C2904 C2910 1.383 . S
C2905 C2901 1.495 . S
C2905 H2911 0.959 . S
C2905 H2912 0.961 . S
C2905 H2913 0.960 . S
C2906 C2904 1.381 . S
C2906 C2907 1.394 . S
C2906 H2914 0.930 . S
C2907 C2906 1.394 . S
C2907 C2908 1.383 . S
C2907 H2915 0.929 . S
C2908 C2907 1.383 . S
C2908 C2909 1.377 . S
C2909 H2893 0.930 . S
C2909 C2908 1.377 . S
C2909 C2910 1.379 . S
C2910 H2894 0.931 . S
C2910 C2904 1.383 . S
C2910 C2909 1.379 . S
H2911 C2905 0.959 . S
H2912 C2905 0.961 . S
H2913 C2905 0.960 . S
H2914 C2906 0.930 . S
H2915 C2907 0.929 . S
H2916 C2924 0.929 . S
H2917 C2926 0.930 . S
H2918 C2928 0.930 . S
H2919 C2931 0.929 . S
H2920 C2934 0.930 . S
H2921 C2936 0.960 . S
H2922 C2936 0.960 . S
H2923 C2936 0.960 . S
C2924 H2916 0.929 . S
C2924 C2925 1.377 . S
C2924 C2926 1.384 . S
C2925 C2924 1.377 . S
C2925 C2931 1.390 . S
C2926 H2917 0.930 . S
C2926 C2924 1.384 . S
C2926 C2927 1.372 . S
C2927 C2926 1.372 . S
C2927 C2928 1.400 . S
C2927 C2932 1.490 . S
C2928 H2918 0.930 . S
C2928 C2927 1.400 . S
C2928 C2931 1.386 . S
H2929 C2945 0.930 . S
H2930 C2946 0.931 . S
C2931 H2919 0.929 . S
C2931 C2925 1.390 . S
C2931 C2928 1.386 . S
C2932 C2927 1.490 . S
C2932 C2934 1.395 . S
C2932 C2935 1.403 . S
H2933 C2939 0.930 . S
C2934 H2920 0.930 . S
C2934 C2932 1.395 . S
C2934 C2937 1.403 . S
C2935 C2932 1.403 . S
C2935 C2936 1.524 . S
C2935 C2939 1.400 . S
C2936 H2921 0.960 . S
C2936 H2922 0.960 . S
C2936 H2923 0.960 . S
C2936 C2935 1.524 . S
C2937 C2934 1.403 . S
C2937 C2938 1.392 . S
C2937 C2941 1.495 . S
C2938 C2937 1.392 . S
C2938 C2939 1.385 . S
C2938 C2940 1.478 . S
C2939 H2933 0.930 . S
C2939 C2935 1.400 . S
C2939 C2938 1.385 . S
C2940 C2938 1.478 . S
C2940 C2942 1.381 . S
C2940 C2946 1.383 . S
C2941 C2937 1.495 . S
C2941 H2947 0.959 . S
C2941 H2948 0.961 . S
C2941 H2949 0.960 . S
C2942 C2940 1.381 . S
C2942 C2943 1.394 . S
C2942 H2950 0.930 . S
C2943 C2942 1.394 . S
C2943 C2944 1.383 . S
C2943 H2951 0.929 . S
C2944 C2943 1.383 . S
C2944 C2945 1.377 . S
C2945 H2929 0.930 . S
C2945 C2944 1.377 . S
C2945 C2946 1.379 . S
C2946 H2930 0.931 . S
C2946 C2940 1.383 . S
C2946 C2945 1.379 . S
H2947 C2941 0.959 . S
H2948 C2941 0.961 . S
H2949 C2941 0.960 . S
H2950 C2942 0.930 . S
H2951 C2943 0.929 . S
H2952 C2960 0.929 . S
H2953 C2962 0.930 . S
H2954 C2964 0.930 . S
H2955 C2967 0.929 . S
H2956 C2970 0.930 . S
H2957 C2972 0.960 . S
H2958 C2972 0.960 . S
H2959 C2972 0.960 . S
C2960 H2952 0.929 . S
C2960 C2961 1.377 . S
C2960 C2962 1.384 . S
C2961 C2960 1.377 . S
C2961 C2967 1.390 . S
C2962 H2953 0.930 . S
C2962 C2960 1.384 . S
C2962 C2963 1.372 . S
C2963 C2962 1.372 . S
C2963 C2964 1.400 . S
C2963 C2968 1.490 . S
C2964 H2954 0.930 . S
C2964 C2963 1.400 . S
C2964 C2967 1.386 . S
H2965 C2981 0.930 . S
H2966 C2982 0.931 . S
C2967 H2955 0.929 . S
C2967 C2961 1.390 . S
C2967 C2964 1.386 . S
C2968 C2963 1.490 . S
C2968 C2970 1.395 . S
C2968 C2971 1.403 . S
H2969 C2975 0.930 . S
C2970 H2956 0.930 . S
C2970 C2968 1.395 . S
C2970 C2973 1.403 . S
C2971 C2968 1.403 . S
C2971 C2972 1.524 . S
C2971 C2975 1.400 . S
C2972 H2957 0.960 . S
C2972 H2958 0.960 . S
C2972 H2959 0.960 . S
C2972 C2971 1.524 . S
C2973 C2970 1.403 . S
C2973 C2974 1.392 . S
C2973 C2977 1.495 . S
C2974 C2973 1.392 . S
C2974 C2975 1.385 . S
C2974 C2976 1.478 . S
C2975 H2969 0.930 . S
C2975 C2971 1.400 . S
C2975 C2974 1.385 . S
C2976 C2974 1.478 . S
C2976 C2978 1.381 . S
C2976 C2982 1.383 . S
C2977 C2973 1.495 . S
C2977 H2983 0.959 . S
C2977 H2984 0.961 . S
C2977 H2985 0.960 . S
C2978 C2976 1.381 . S
C2978 C2979 1.394 . S
C2978 H2986 0.930 . S
C2979 C2978 1.394 . S
C2979 C2980 1.383 . S
C2979 H2987 0.929 . S
C2980 C2979 1.383 . S
C2980 C2981 1.377 . S
C2981 H2965 0.930 . S
C2981 C2980 1.377 . S
C2981 C2982 1.379 . S
C2982 H2966 0.931 . S
C2982 C2976 1.383 . S
C2982 C2981 1.379 . S
H2983 C2977 0.959 . S
H2984 C2977 0.961 . S
H2985 C2977 0.960 . S
H2986 C2978 0.930 . S
H2987 C2979 0.929 . S
H2988 C2996 0.929 . S
H2989 C2998 0.930 . S
H2990 C3000 0.930 . S
H2991 C3003 0.929 . S
H2992 C3006 0.930 . S
H2993 C3008 0.960 . S
H2994 C3008 0.960 . S
H2995 C3008 0.960 . S
C2996 H2988 0.929 . S
C2996 C2997 1.377 . S
C2996 C2998 1.384 . S
C2997 C2996 1.377 . S
C2997 C3003 1.390 . S
C2998 H2989 0.930 . S
C2998 C2996 1.384 . S
C2998 C2999 1.372 . S
C2999 C2998 1.372 . S
C2999 C3000 1.400 . S
C2999 C3004 1.490 . S
C3000 H2990 0.930 . S
C3000 C2999 1.400 . S
C3000 C3003 1.386 . S
H3001 C3017 0.930 . S
H3002 C3018 0.931 . S
C3003 H2991 0.929 . S
C3003 C2997 1.390 . S
C3003 C3000 1.386 . S
C3004 C2999 1.490 . S
C3004 C3006 1.395 . S
C3004 C3007 1.403 . S
H3005 C3011 0.930 . S
C3006 H2992 0.930 . S
C3006 C3004 1.395 . S
C3006 C3009 1.403 . S
C3007 C3004 1.403 . S
C3007 C3008 1.524 . S
C3007 C3011 1.400 . S
C3008 H2993 0.960 . S
C3008 H2994 0.960 . S
C3008 H2995 0.960 . S
C3008 C3007 1.524 . S
C3009 C3006 1.403 . S
C3009 C3010 1.392 . S
C3009 C3013 1.495 . S
C3010 C3009 1.392 . S
C3010 C3011 1.385 . S
C3010 C3012 1.478 . S
C3011 H3005 0.930 . S
C3011 C3007 1.400 . S
C3011 C3010 1.385 . S
C3012 C3010 1.478 . S
C3012 C3014 1.381 . S
C3012 C3018 1.383 . S
C3013 C3009 1.495 . S
C3013 H3019 0.959 . S
C3013 H3020 0.961 . S
C3013 H3021 0.960 . S
C3014 C3012 1.381 . S
C3014 C3015 1.394 . S
C3014 H3022 0.930 . S
C3015 C3014 1.394 . S
C3015 C3016 1.383 . S
C3015 H3023 0.929 . S
C3016 C3015 1.383 . S
C3016 C3017 1.377 . S
C3017 H3001 0.930 . S
C3017 C3016 1.377 . S
C3017 C3018 1.379 . S
C3018 H3002 0.931 . S
C3018 C3012 1.383 . S
C3018 C3017 1.379 . S
H3019 C3013 0.959 . S
H3020 C3013 0.961 . S
H3021 C3013 0.960 . S
H3022 C3014 0.930 . S
H3023 C3015 0.929 . S
H3024 C3032 0.929 . S
H3025 C3034 0.930 . S
H3026 C3036 0.930 . S
H3027 C3039 0.929 . S
H3028 C3042 0.930 . S
H3029 C3044 0.960 . S
H3030 C3044 0.960 . S
H3031 C3044 0.960 . S
C3032 H3024 0.929 . S
C3032 C3033 1.377 . S
C3032 C3034 1.384 . S
C3033 C3032 1.377 . S
C3033 C3039 1.390 . S
C3034 H3025 0.930 . S
C3034 C3032 1.384 . S
C3034 C3035 1.372 . S
C3035 C3034 1.372 . S
C3035 C3036 1.400 . S
C3035 C3040 1.490 . S
C3036 H3026 0.930 . S
C3036 C3035 1.400 . S
C3036 C3039 1.386 . S
H3037 C3053 0.930 . S
H3038 C3054 0.931 . S
C3039 H3027 0.929 . S
C3039 C3033 1.390 . S
C3039 C3036 1.386 . S
C3040 C3035 1.490 . S
C3040 C3042 1.395 . S
C3040 C3043 1.403 . S
H3041 C3047 0.930 . S
C3042 H3028 0.930 . S
C3042 C3040 1.395 . S
C3042 C3045 1.403 . S
C3043 C3040 1.403 . S
C3043 C3044 1.524 . S
C3043 C3047 1.400 . S
C3044 H3029 0.960 . S
C3044 H3030 0.960 . S
C3044 H3031 0.960 . S
C3044 C3043 1.524 . S
C3045 C3042 1.403 . S
C3045 C3046 1.392 . S
C3045 C3049 1.495 . S
C3046 C3045 1.392 . S
C3046 C3047 1.385 . S
C3046 C3048 1.478 . S
C3047 H3041 0.930 . S
C3047 C3043 1.400 . S
C3047 C3046 1.385 . S
C3048 C3046 1.478 . S
C3048 C3050 1.381 . S
C3048 C3054 1.383 . S
C3049 C3045 1.495 . S
C3049 H3055 0.959 . S
C3049 H3056 0.961 . S
C3049 H3057 0.960 . S
C3050 C3048 1.381 . S
C3050 C3051 1.394 . S
C3050 H3058 0.930 . S
C3051 C3050 1.394 . S
C3051 C3052 1.383 . S
C3051 H3059 0.929 . S
C3052 C3051 1.383 . S
C3052 C3053 1.377 . S
C3053 H3037 0.930 . S
C3053 C3052 1.377 . S
C3053 C3054 1.379 . S
C3054 H3038 0.931 . S
C3054 C3048 1.383 . S
C3054 C3053 1.379 . S
H3055 C3049 0.959 . S
H3056 C3049 0.961 . S
H3057 C3049 0.960 . S
H3058 C3050 0.930 . S
H3059 C3051 0.929 . S
H3060 C3068 0.929 . S
H3061 C3070 0.930 . S
H3062 C3072 0.930 . S
H3063 C3075 0.929 . S
H3064 C3078 0.930 . S
H3065 C3080 0.960 . S
H3066 C3080 0.960 . S
H3067 C3080 0.960 . S
C3068 H3060 0.929 . S
C3068 C3069 1.377 . S
C3068 C3070 1.384 . S
C3069 C3068 1.377 . S
C3069 C3075 1.390 . S
C3070 H3061 0.930 . S
C3070 C3068 1.384 . S
C3070 C3071 1.372 . S
C3071 C3070 1.372 . S
C3071 C3072 1.400 . S
C3071 C3076 1.490 . S
C3072 H3062 0.930 . S
C3072 C3071 1.400 . S
C3072 C3075 1.386 . S
H3073 C3089 0.930 . S
H3074 C3090 0.931 . S
C3075 H3063 0.929 . S
C3075 C3069 1.390 . S
C3075 C3072 1.386 . S
C3076 C3071 1.490 . S
C3076 C3078 1.395 . S
C3076 C3079 1.403 . S
H3077 C3083 0.930 . S
C3078 H3064 0.930 . S
C3078 C3076 1.395 . S
C3078 C3081 1.403 . S
C3079 C3076 1.403 . S
C3079 C3080 1.524 . S
C3079 C3083 1.400 . S
C3080 H3065 0.960 . S
C3080 H3066 0.960 . S
C3080 H3067 0.960 . S
C3080 C3079 1.524 . S
C3081 C3078 1.403 . S
C3081 C3082 1.392 . S
C3081 C3085 1.495 . S
C3082 C3081 1.392 . S
C3082 C3083 1.385 . S
C3082 C3084 1.478 . S
C3083 H3077 0.930 . S
C3083 C3079 1.400 . S
C3083 C3082 1.385 . S
C3084 C3082 1.478 . S
C3084 C3086 1.381 . S
C3084 C3090 1.383 . S
C3085 C3081 1.495 . S
C3085 H3091 0.959 . S
C3085 H3092 0.961 . S
C3085 H3093 0.960 . S
C3086 C3084 1.381 . S
C3086 C3087 1.394 . S
C3086 H3094 0.930 . S
C3087 C3086 1.394 . S
C3087 C3088 1.383 . S
C3087 H3095 0.929 . S
C3088 C3087 1.383 . S
C3088 C3089 1.377 . S
C3089 H3073 0.930 . S
C3089 C3088 1.377 . S
C3089 C3090 1.379 . S
C3090 H3074 0.931 . S
C3090 C3084 1.383 . S
C3090 C3089 1.379 . S
H3091 C3085 0.959 . S
H3092 C3085 0.961 . S
H3093 C3085 0.960 . S
H3094 C3086 0.930 . S
H3095 C3087 0.929 . S
H3096 C3104 0.929 . S
H3097 C3106 0.930 . S
H3098 C3108 0.930 . S
H3099 C3111 0.929 . S
H3100 C3114 0.930 . S
H3101 C3116 0.960 . S
H3102 C3116 0.960 . S
H3103 C3116 0.960 . S
C3104 H3096 0.929 . S
C3104 C3105 1.377 . S
C3104 C3106 1.384 . S
C3105 C3104 1.377 . S
C3105 C3111 1.390 . S
C3106 H3097 0.930 . S
C3106 C3104 1.384 . S
C3106 C3107 1.372 . S
C3107 C3106 1.372 . S
C3107 C3108 1.400 . S
C3107 C3112 1.490 . S
C3108 H3098 0.930 . S
C3108 C3107 1.400 . S
C3108 C3111 1.386 . S
H3109 C3125 0.930 . S
H3110 C3126 0.931 . S
C3111 H3099 0.929 . S
C3111 C3105 1.390 . S
C3111 C3108 1.386 . S
C3112 C3107 1.490 . S
C3112 C3114 1.395 . S
C3112 C3115 1.403 . S
H3113 C3119 0.930 . S
C3114 H3100 0.930 . S
C3114 C3112 1.395 . S
C3114 C3117 1.403 . S
C3115 C3112 1.403 . S
C3115 C3116 1.524 . S
C3115 C3119 1.400 . S
C3116 H3101 0.960 . S
C3116 H3102 0.960 . S
C3116 H3103 0.960 . S
C3116 C3115 1.524 . S
C3117 C3114 1.403 . S
C3117 C3118 1.392 . S
C3117 C3121 1.495 . S
C3118 C3117 1.392 . S
C3118 C3119 1.385 . S
C3118 C3120 1.478 . S
C3119 H3113 0.930 . S
C3119 C3115 1.400 . S
C3119 C3118 1.385 . S
C3120 C3118 1.478 . S
C3120 C3122 1.381 . S
C3120 C3126 1.383 . S
C3121 C3117 1.495 . S
C3121 H3127 0.959 . S
C3121 H3128 0.961 . S
C3121 H3129 0.960 . S
C3122 C3120 1.381 . S
C3122 C3123 1.394 . S
C3122 H3130 0.930 . S
C3123 C3122 1.394 . S
C3123 C3124 1.383 . S
C3123 H3131 0.929 . S
C3124 C3123 1.383 . S
C3124 C3125 1.377 . S
C3125 H3109 0.930 . S
C3125 C3124 1.377 . S
C3125 C3126 1.379 . S
C3126 H3110 0.931 . S
C3126 C3120 1.383 . S
C3126 C3125 1.379 . S
H3127 C3121 0.959 . S
H3128 C3121 0.961 . S
H3129 C3121 0.960 . S
H3130 C3122 0.930 . S
H3131 C3123 0.929 . S
H3132 C3140 0.929 . S
H3133 C3142 0.930 . S
H3134 C3144 0.930 . S
H3135 C3147 0.929 . S
H3136 C3150 0.930 . S
H3137 C3152 0.960 . S
H3138 C3152 0.960 . S
H3139 C3152 0.960 . S
C3140 H3132 0.929 . S
C3140 C3141 1.377 . S
C3140 C3142 1.384 . S
C3141 C3140 1.377 . S
C3141 C3147 1.390 . S
C3142 H3133 0.930 . S
C3142 C3140 1.384 . S
C3142 C3143 1.372 . S
C3143 C3142 1.372 . S
C3143 C3144 1.400 . S
C3143 C3148 1.490 . S
C3144 H3134 0.930 . S
C3144 C3143 1.400 . S
C3144 C3147 1.386 . S
H3145 C3161 0.930 . S
H3146 C3162 0.931 . S
C3147 H3135 0.929 . S
C3147 C3141 1.390 . S
C3147 C3144 1.386 . S
C3148 C3143 1.490 . S
C3148 C3150 1.395 . S
C3148 C3151 1.403 . S
H3149 C3155 0.930 . S
C3150 H3136 0.930 . S
C3150 C3148 1.395 . S
C3150 C3153 1.403 . S
C3151 C3148 1.403 . S
C3151 C3152 1.524 . S
C3151 C3155 1.400 . S
C3152 H3137 0.960 . S
C3152 H3138 0.960 . S
C3152 H3139 0.960 . S
C3152 C3151 1.524 . S
C3153 C3150 1.403 . S
C3153 C3154 1.392 . S
C3153 C3157 1.495 . S
C3154 C3153 1.392 . S
C3154 C3155 1.385 . S
C3154 C3156 1.478 . S
C3155 H3149 0.930 . S
C3155 C3151 1.400 . S
C3155 C3154 1.385 . S
C3156 C3154 1.478 . S
C3156 C3158 1.381 . S
C3156 C3162 1.383 . S
C3157 C3153 1.495 . S
C3157 H3163 0.959 . S
C3157 H3164 0.961 . S
C3157 H3165 0.960 . S
C3158 C3156 1.381 . S
C3158 C3159 1.394 . S
C3158 H3166 0.930 . S
C3159 C3158 1.394 . S
C3159 C3160 1.383 . S
C3159 H3167 0.929 . S
C3160 C3159 1.383 . S
C3160 C3161 1.377 . S
C3161 H3145 0.930 . S
C3161 C3160 1.377 . S
C3161 C3162 1.379 . S
C3162 H3146 0.931 . S
C3162 C3156 1.383 . S
C3162 C3161 1.379 . S
H3163 C3157 0.959 . S
H3164 C3157 0.961 . S
H3165 C3157 0.960 . S
H3166 C3158 0.930 . S
H3167 C3159 0.929 . S
H3168 C3176 0.929 . S
H3169 C3178 0.930 . S
H3170 C3180 0.930 . S
H3171 C3183 0.929 . S
H3172 C3186 0.930 . S
H3173 C3188 0.960 . S
H3174 C3188 0.960 . S
H3175 C3188 0.960 . S
C3176 H3168 0.929 . S
C3176 C3177 1.377 . S
C3176 C3178 1.384 . S
C3177 C3176 1.377 . S
C3177 C3183 1.390 . S
C3178 H3169 0.930 . S
C3178 C3176 1.384 . S
C3178 C3179 1.372 . S
C3179 C3178 1.372 . S
C3179 C3180 1.400 . S
C3179 C3184 1.490 . S
C3180 H3170 0.930 . S
C3180 C3179 1.400 . S
C3180 C3183 1.386 . S
H3181 C3197 0.930 . S
H3182 C3198 0.931 . S
C3183 H3171 0.929 . S
C3183 C3177 1.390 . S
C3183 C3180 1.386 . S
C3184 C3179 1.490 . S
C3184 C3186 1.395 . S
C3184 C3187 1.403 . S
H3185 C3191 0.930 . S
C3186 H3172 0.930 . S
C3186 C3184 1.395 . S
C3186 C3189 1.403 . S
C3187 C3184 1.403 . S
C3187 C3188 1.524 . S
C3187 C3191 1.400 . S
C3188 H3173 0.960 . S
C3188 H3174 0.960 . S
C3188 H3175 0.960 . S
C3188 C3187 1.524 . S
C3189 C3186 1.403 . S
C3189 C3190 1.392 . S
C3189 C3193 1.495 . S
C3190 C3189 1.392 . S
C3190 C3191 1.385 . S
C3190 C3192 1.478 . S
C3191 H3185 0.930 . S
C3191 C3187 1.400 . S
C3191 C3190 1.385 . S
C3192 C3190 1.478 . S
C3192 C3194 1.381 . S
C3192 C3198 1.383 . S
C3193 C3189 1.495 . S
C3193 H3199 0.959 . S
C3193 H3200 0.961 . S
C3193 H3201 0.960 . S
C3194 C3192 1.381 . S
C3194 C3195 1.394 . S
C3194 H3202 0.930 . S
C3195 C3194 1.394 . S
C3195 C3196 1.383 . S
C3195 H3203 0.929 . S
C3196 C3195 1.383 . S
C3196 C3197 1.377 . S
C3197 H3181 0.930 . S
C3197 C3196 1.377 . S
C3197 C3198 1.379 . S
C3198 H3182 0.931 . S
C3198 C3192 1.383 . S
C3198 C3197 1.379 . S
H3199 C3193 0.959 . S
H3200 C3193 0.961 . S
H3201 C3193 0.960 . S
H3202 C3194 0.930 . S
H3203 C3195 0.929 . S
H3204 C3212 0.929 . S
H3205 C3214 0.930 . S
H3206 C3216 0.930 . S
H3207 C3219 0.929 . S
H3208 C3222 0.930 . S
H3209 C3224 0.960 . S
H3210 C3224 0.960 . S
H3211 C3224 0.960 . S
C3212 H3204 0.929 . S
C3212 C3213 1.377 . S
C3212 C3214 1.384 . S
C3213 C3212 1.377 . S
C3213 C3219 1.390 . S
C3214 H3205 0.930 . S
C3214 C3212 1.384 . S
C3214 C3215 1.372 . S
C3215 C3214 1.372 . S
C3215 C3216 1.400 . S
C3215 C3220 1.490 . S
C3216 H3206 0.930 . S
C3216 C3215 1.400 . S
C3216 C3219 1.386 . S
H3217 C3233 0.930 . S
H3218 C3234 0.931 . S
C3219 H3207 0.929 . S
C3219 C3213 1.390 . S
C3219 C3216 1.386 . S
C3220 C3215 1.490 . S
C3220 C3222 1.395 . S
C3220 C3223 1.403 . S
H3221 C3227 0.930 . S
C3222 H3208 0.930 . S
C3222 C3220 1.395 . S
C3222 C3225 1.403 . S
C3223 C3220 1.403 . S
C3223 C3224 1.524 . S
C3223 C3227 1.400 . S
C3224 H3209 0.960 . S
C3224 H3210 0.960 . S
C3224 H3211 0.960 . S
C3224 C3223 1.524 . S
C3225 C3222 1.403 . S
C3225 C3226 1.392 . S
C3225 C3229 1.495 . S
C3226 C3225 1.392 . S
C3226 C3227 1.385 . S
C3226 C3228 1.478 . S
C3227 H3221 0.930 . S
C3227 C3223 1.400 . S
C3227 C3226 1.385 . S
C3228 C3226 1.478 . S
C3228 C3230 1.381 . S
C3228 C3234 1.383 . S
C3229 C3225 1.495 . S
C3229 H3235 0.959 . S
C3229 H3236 0.961 . S
C3229 H3237 0.960 . S
C3230 C3228 1.381 . S
C3230 C3231 1.394 . S
C3230 H3238 0.930 . S
C3231 C3230 1.394 . S
C3231 C3232 1.383 . S
C3231 H3239 0.929 . S
C3232 C3231 1.383 . S
C3232 C3233 1.377 . S
C3233 H3217 0.930 . S
C3233 C3232 1.377 . S
C3233 C3234 1.379 . S
C3234 H3218 0.931 . S
C3234 C3228 1.383 . S
C3234 C3233 1.379 . S
H3235 C3229 0.959 . S
H3236 C3229 0.961 . S
H3237 C3229 0.960 . S
H3238 C3230 0.930 . S
H3239 C3231 0.929 . S
H3240 C3248 0.929 . S
H3241 C3250 0.930 . S
H3242 C3252 0.930 . S
H3243 C3255 0.929 . S
H3244 C3258 0.930 . S
H3245 C3260 0.960 . S
H3246 C3260 0.960 . S
H3247 C3260 0.960 . S
C3248 H3240 0.929 . S
C3248 C3249 1.377 . S
C3248 C3250 1.384 . S
C3249 C3248 1.377 . S
C3249 C3255 1.390 . S
C3250 H3241 0.930 . S
C3250 C3248 1.384 . S
C3250 C3251 1.372 . S
C3251 C3250 1.372 . S
C3251 C3252 1.400 . S
C3251 C3256 1.490 . S
C3252 H3242 0.930 . S
C3252 C3251 1.400 . S
C3252 C3255 1.386 . S
H3253 C3269 0.930 . S
H3254 C3270 0.931 . S
C3255 H3243 0.929 . S
C3255 C3249 1.390 . S
C3255 C3252 1.386 . S
C3256 C3251 1.490 . S
C3256 C3258 1.395 . S
C3256 C3259 1.403 . S
H3257 C3263 0.930 . S
C3258 H3244 0.930 . S
C3258 C3256 1.395 . S
C3258 C3261 1.403 . S
C3259 C3256 1.403 . S
C3259 C3260 1.524 . S
C3259 C3263 1.400 . S
C3260 H3245 0.960 . S
C3260 H3246 0.960 . S
C3260 H3247 0.960 . S
C3260 C3259 1.524 . S
C3261 C3258 1.403 . S
C3261 C3262 1.392 . S
C3261 C3265 1.495 . S
C3262 C3261 1.392 . S
C3262 C3263 1.385 . S
C3262 C3264 1.478 . S
C3263 H3257 0.930 . S
C3263 C3259 1.400 . S
C3263 C3262 1.385 . S
C3264 C3262 1.478 . S
C3264 C3266 1.381 . S
C3264 C3270 1.383 . S
C3265 C3261 1.495 . S
C3265 H3271 0.959 . S
C3265 H3272 0.961 . S
C3265 H3273 0.960 . S
C3266 C3264 1.381 . S
C3266 C3267 1.394 . S
C3266 H3274 0.930 . S
C3267 C3266 1.394 . S
C3267 C3268 1.383 . S
C3267 H3275 0.929 . S
C3268 C3267 1.383 . S
C3268 C3269 1.377 . S
C3269 H3253 0.930 . S
C3269 C3268 1.377 . S
C3269 C3270 1.379 . S
C3270 H3254 0.931 . S
C3270 C3264 1.383 . S
C3270 C3269 1.379 . S
H3271 C3265 0.959 . S
H3272 C3265 0.961 . S
H3273 C3265 0.960 . S
H3274 C3266 0.930 . S
H3275 C3267 0.929 . S
H3276 C3284 0.929 . S
H3277 C3286 0.930 . S
H3278 C3288 0.930 . S
H3279 C3291 0.929 . S
H3280 C3294 0.930 . S
H3281 C3296 0.960 . S
H3282 C3296 0.960 . S
H3283 C3296 0.960 . S
C3284 H3276 0.929 . S
C3284 C3285 1.377 . S
C3284 C3286 1.384 . S
C3285 C3284 1.377 . S
C3285 C3291 1.390 . S
C3286 H3277 0.930 . S
C3286 C3284 1.384 . S
C3286 C3287 1.372 . S
C3287 C3286 1.372 . S
C3287 C3288 1.400 . S
C3287 C3292 1.490 . S
C3288 H3278 0.930 . S
C3288 C3287 1.400 . S
C3288 C3291 1.386 . S
H3289 C3305 0.930 . S
H3290 C3306 0.931 . S
C3291 H3279 0.929 . S
C3291 C3285 1.390 . S
C3291 C3288 1.386 . S
C3292 C3287 1.490 . S
C3292 C3294 1.395 . S
C3292 C3295 1.403 . S
H3293 C3299 0.930 . S
C3294 H3280 0.930 . S
C3294 C3292 1.395 . S
C3294 C3297 1.403 . S
C3295 C3292 1.403 . S
C3295 C3296 1.524 . S
C3295 C3299 1.400 . S
C3296 H3281 0.960 . S
C3296 H3282 0.960 . S
C3296 H3283 0.960 . S
C3296 C3295 1.524 . S
C3297 C3294 1.403 . S
C3297 C3298 1.392 . S
C3297 C3301 1.495 . S
C3298 C3297 1.392 . S
C3298 C3299 1.385 . S
C3298 C3300 1.478 . S
C3299 H3293 0.930 . S
C3299 C3295 1.400 . S
C3299 C3298 1.385 . S
C3300 C3298 1.478 . S
C3300 C3302 1.381 . S
C3300 C3306 1.383 . S
C3301 C3297 1.495 . S
C3301 H3307 0.959 . S
C3301 H3308 0.961 . S
C3301 H3309 0.960 . S
C3302 C3300 1.381 . S
C3302 C3303 1.394 . S
C3302 H3310 0.930 . S
C3303 C3302 1.394 . S
C3303 C3304 1.383 . S
C3303 H3311 0.929 . S
C3304 C3303 1.383 . S
C3304 C3305 1.377 . S
C3305 H3289 0.930 . S
C3305 C3304 1.377 . S
C3305 C3306 1.379 . S
C3306 H3290 0.931 . S
C3306 C3300 1.383 . S
C3306 C3305 1.379 . S
H3307 C3301 0.959 . S
H3308 C3301 0.961 . S
H3309 C3301 0.960 . S
H3310 C3302 0.930 . S
H3311 C3303 0.929 . S
H3312 C3320 0.929 . S
H3313 C3322 0.930 . S
H3314 C3324 0.930 . S
H3315 C3327 0.929 . S
H3316 C3330 0.930 . S
H3317 C3332 0.960 . S
H3318 C3332 0.960 . S
H3319 C3332 0.960 . S
C3320 H3312 0.929 . S
C3320 C3321 1.377 . S
C3320 C3322 1.384 . S
C3321 C3320 1.377 . S
C3321 C3327 1.390 . S
C3322 H3313 0.930 . S
C3322 C3320 1.384 . S
C3322 C3323 1.372 . S
C3323 C3322 1.372 . S
C3323 C3324 1.400 . S
C3323 C3328 1.490 . S
C3324 H3314 0.930 . S
C3324 C3323 1.400 . S
C3324 C3327 1.386 . S
H3325 C3341 0.930 . S
H3326 C3342 0.931 . S
C3327 H3315 0.929 . S
C3327 C3321 1.390 . S
C3327 C3324 1.386 . S
C3328 C3323 1.490 . S
C3328 C3330 1.395 . S
C3328 C3331 1.403 . S
H3329 C3335 0.930 . S
C3330 H3316 0.930 . S
C3330 C3328 1.395 . S
C3330 C3333 1.403 . S
C3331 C3328 1.403 . S
C3331 C3332 1.524 . S
C3331 C3335 1.400 . S
C3332 H3317 0.960 . S
C3332 H3318 0.960 . S
C3332 H3319 0.960 . S
C3332 C3331 1.524 . S
C3333 C3330 1.403 . S
C3333 C3334 1.392 . S
C3333 C3337 1.495 . S
C3334 C3333 1.392 . S
C3334 C3335 1.385 . S
C3334 C3336 1.478 . S
C3335 H3329 0.930 . S
C3335 C3331 1.400 . S
C3335 C3334 1.385 . S
C3336 C3334 1.478 . S
C3336 C3338 1.381 . S
C3336 C3342 1.383 . S
C3337 C3333 1.495 . S
C3337 H3343 0.959 . S
C3337 H3344 0.961 . S
C3337 H3345 0.960 . S
C3338 C3336 1.381 . S
C3338 C3339 1.394 . S
C3338 H3346 0.930 . S
C3339 C3338 1.394 . S
C3339 C3340 1.383 . S
C3339 H3347 0.929 . S
C3340 C3339 1.383 . S
C3340 C3341 1.377 . S
C3341 H3325 0.930 . S
C3341 C3340 1.377 . S
C3341 C3342 1.379 . S
C3342 H3326 0.931 . S
C3342 C3336 1.383 . S
C3342 C3341 1.379 . S
H3343 C3337 0.959 . S
H3344 C3337 0.961 . S
H3345 C3337 0.960 . S
H3346 C3338 0.930 . S
H3347 C3339 0.929 . S
H3348 C3356 0.929 . S
H3349 C3358 0.930 . S
H3350 C3360 0.930 . S
H3351 C3363 0.929 . S
H3352 C3366 0.930 . S
H3353 C3368 0.960 . S
H3354 C3368 0.960 . S
H3355 C3368 0.960 . S
C3356 H3348 0.929 . S
C3356 C3357 1.377 . S
C3356 C3358 1.384 . S
C3357 C3356 1.377 . S
C3357 C3363 1.390 . S
C3358 H3349 0.930 . S
C3358 C3356 1.384 . S
C3358 C3359 1.372 . S
C3359 C3358 1.372 . S
C3359 C3360 1.400 . S
C3359 C3364 1.490 . S
C3360 H3350 0.930 . S
C3360 C3359 1.400 . S
C3360 C3363 1.386 . S
H3361 C3377 0.930 . S
H3362 C3378 0.931 . S
C3363 H3351 0.929 . S
C3363 C3357 1.390 . S
C3363 C3360 1.386 . S
C3364 C3359 1.490 . S
C3364 C3366 1.395 . S
C3364 C3367 1.403 . S
H3365 C3371 0.930 . S
C3366 H3352 0.930 . S
C3366 C3364 1.395 . S
C3366 C3369 1.403 . S
C3367 C3364 1.403 . S
C3367 C3368 1.524 . S
C3367 C3371 1.400 . S
C3368 H3353 0.960 . S
C3368 H3354 0.960 . S
C3368 H3355 0.960 . S
C3368 C3367 1.524 . S
C3369 C3366 1.403 . S
C3369 C3370 1.392 . S
C3369 C3373 1.495 . S
C3370 C3369 1.392 . S
C3370 C3371 1.385 . S
C3370 C3372 1.478 . S
C3371 H3365 0.930 . S
C3371 C3367 1.400 . S
C3371 C3370 1.385 . S
C3372 C3370 1.478 . S
C3372 C3374 1.381 . S
C3372 C3378 1.383 . S
C3373 C3369 1.495 . S
C3373 H3379 0.959 . S
C3373 H3380 0.961 . S
C3373 H3381 0.960 . S
C3374 C3372 1.381 . S
C3374 C3375 1.394 . S
C3374 H3382 0.930 . S
C3375 C3374 1.394 . S
C3375 C3376 1.383 . S
C3375 H3383 0.929 . S
C3376 C3375 1.383 . S
C3376 C3377 1.377 . S
C3377 H3361 0.930 . S
C3377 C3376 1.377 . S
C3377 C3378 1.379 . S
C3378 H3362 0.931 . S
C3378 C3372 1.383 . S
C3378 C3377 1.379 . S
H3379 C3373 0.959 . S
H3380 C3373 0.961 . S
H3381 C3373 0.960 . S
H3382 C3374 0.930 . S
H3383 C3375 0.929 . S
H3384 C3392 0.929 . S
H3385 C3394 0.930 . S
H3386 C3396 0.930 . S
H3387 C3399 0.929 . S
H3388 C3402 0.930 . S
H3389 C3404 0.960 . S
H3390 C3404 0.960 . S
H3391 C3404 0.960 . S
C3392 H3384 0.929 . S
C3392 C3393 1.377 . S
C3392 C3394 1.384 . S
C3393 C3392 1.377 . S
C3393 C3399 1.390 . S
C3394 H3385 0.930 . S
C3394 C3392 1.384 . S
C3394 C3395 1.372 . S
C3395 C3394 1.372 . S
C3395 C3396 1.400 . S
C3395 C3400 1.490 . S
C3396 H3386 0.930 . S
C3396 C3395 1.400 . S
C3396 C3399 1.386 . S
H3397 C3413 0.930 . S
H3398 C3414 0.931 . S
C3399 H3387 0.929 . S
C3399 C3393 1.390 . S
C3399 C3396 1.386 . S
C3400 C3395 1.490 . S
C3400 C3402 1.395 . S
C3400 C3403 1.403 . S
H3401 C3407 0.930 . S
C3402 H3388 0.930 . S
C3402 C3400 1.395 . S
C3402 C3405 1.403 . S
C3403 C3400 1.403 . S
C3403 C3404 1.524 . S
C3403 C3407 1.400 . S
C3404 H3389 0.960 . S
C3404 H3390 0.960 . S
C3404 H3391 0.960 . S
C3404 C3403 1.524 . S
C3405 C3402 1.403 . S
C3405 C3406 1.392 . S
C3405 C3409 1.495 . S
C3406 C3405 1.392 . S
C3406 C3407 1.385 . S
C3406 C3408 1.478 . S
C3407 H3401 0.930 . S
C3407 C3403 1.400 . S
C3407 C3406 1.385 . S
C3408 C3406 1.478 . S
C3408 C3410 1.381 . S
C3408 C3414 1.383 . S
C3409 C3405 1.495 . S
C3409 H3415 0.959 . S
C3409 H3416 0.961 . S
C3409 H3417 0.960 . S
C3410 C3408 1.381 . S
C3410 C3411 1.394 . S
C3410 H3418 0.930 . S
C3411 C3410 1.394 . S
C3411 C3412 1.383 . S
C3411 H3419 0.929 . S
C3412 C3411 1.383 . S
C3412 C3413 1.377 . S
C3413 H3397 0.930 . S
C3413 C3412 1.377 . S
C3413 C3414 1.379 . S
C3414 H3398 0.931 . S
C3414 C3408 1.383 . S
C3414 C3413 1.379 . S
H3415 C3409 0.959 . S
H3416 C3409 0.961 . S
H3417 C3409 0.960 . S
H3418 C3410 0.930 . S
H3419 C3411 0.929 . S
H3420 C3428 0.929 . S
H3421 C3430 0.930 . S
H3422 C3432 0.930 . S
H3423 C3435 0.929 . S
H3424 C3438 0.930 . S
H3425 C3440 0.960 . S
H3426 C3440 0.960 . S
H3427 C3440 0.960 . S
C3428 H3420 0.929 . S
C3428 C3429 1.377 . S
C3428 C3430 1.384 . S
C3429 C3428 1.377 . S
C3429 C3435 1.390 . S
C3430 H3421 0.930 . S
C3430 C3428 1.384 . S
C3430 C3431 1.372 . S
C3431 C3430 1.372 . S
C3431 C3432 1.400 . S
C3431 C3436 1.490 . S
C3432 H3422 0.930 . S
C3432 C3431 1.400 . S
C3432 C3435 1.386 . S
H3433 C3449 0.930 . S
H3434 C3450 0.931 . S
C3435 H3423 0.929 . S
C3435 C3429 1.390 . S
C3435 C3432 1.386 . S
C3436 C3431 1.490 . S
C3436 C3438 1.395 . S
C3436 C3439 1.403 . S
H3437 C3443 0.930 . S
C3438 H3424 0.930 . S
C3438 C3436 1.395 . S
C3438 C3441 1.403 . S
C3439 C3436 1.403 . S
C3439 C3440 1.524 . S
C3439 C3443 1.400 . S
C3440 H3425 0.960 . S
C3440 H3426 0.960 . S
C3440 H3427 0.960 . S
C3440 C3439 1.524 . S
C3441 C3438 1.403 . S
C3441 C3442 1.392 . S
C3441 C3445 1.495 . S
C3442 C3441 1.392 . S
C3442 C3443 1.385 . S
C3442 C3444 1.478 . S
C3443 H3437 0.930 . S
C3443 C3439 1.400 . S
C3443 C3442 1.385 . S
C3444 C3442 1.478 . S
C3444 C3446 1.381 . S
C3444 C3450 1.383 . S
C3445 C3441 1.495 . S
C3445 H3451 0.959 . S
C3445 H3452 0.961 . S
C3445 H3453 0.960 . S
C3446 C3444 1.381 . S
C3446 C3447 1.394 . S
C3446 H3454 0.930 . S
C3447 C3446 1.394 . S
C3447 C3448 1.383 . S
C3447 H3455 0.929 . S
C3448 C3447 1.383 . S
C3448 C3449 1.377 . S
C3449 H3433 0.930 . S
C3449 C3448 1.377 . S
C3449 C3450 1.379 . S
C3450 H3434 0.931 . S
C3450 C3444 1.383 . S
C3450 C3449 1.379 . S
H3451 C3445 0.959 . S
H3452 C3445 0.961 . S
H3453 C3445 0.960 . S
H3454 C3446 0.930 . S
H3455 C3447 0.929 . S
C1161 C364 1.126 . S
C1180 C4 1.133 . S
C1197 C40 1.133 . S
C1216 C400 1.131 . S
C1233 C76 1.127 . S
C1252 C292 1.154 . S
C1269 C328 1.136 . S
C1288 C112 1.103 . S
C1305 C508 1.130 . S
C1324 C148 1.100 . S
C1341 C184 1.134 . S
C1360 C544 1.106 . S
C1377 C436 1.127 . S
C1396 C220 1.103 . S
C1413 C472 1.127 . S
C1432 C256 1.151 . S
C1449 C940 1.125 . S
C1468 C580 1.156 . S
C1485 C976 1.129 . S
C1504 C616 1.149 . S
C1521 C868 1.131 . S
C1540 C652 1.142 . S
C1557 C688 1.130 . S
C1576 C904 1.114 . S
C1593 C1084 1.124 . S
C1612 C724 1.125 . S
C1629 C1120 1.125 . S
C1648 C760 1.124 . S
C1665 C796 1.125 . S
C1684 C1012 1.112 . S
C1701 C832 1.125 . S
C1720 C1048 1.141 . S
C1737 C698 1.233 . S
C1756 C14 1.220 . S
C1773 C50 1.234 . S
C1792 C662 1.248 . S
C1809 C626 1.249 . S
C1828 C86 1.263 . S
C1845 C590 1.236 . S
C1864 C122 1.259 . S
C1881 C158 1.235 . S
C1900 C842 1.263 . S
C1917 C194 1.238 . S
C1936 C806 1.244 . S
C1953 C770 1.238 . S
C1972 C230 1.244 . S
C1989 C266 1.236 . S
C2008 C734 1.257 . S
C2025 C986 1.249 . S
C2044 C302 1.243 . S
C2061 C950 1.249 . S
C2080 C338 1.250 . S
C2097 C914 1.237 . S
C2116 C374 1.262 . S
C2133 C878 1.234 . S
C2152 C410 1.209 . S
C2169 C446 1.249 . S
C2188 C1130 1.200 . S
C2205 C1094 1.236 . S
C2224 C482 1.254 . S
C2241 C518 1.241 . S
C2260 C1058 1.246 . S
C2277 C554 1.244 . S
C2296 C1022 1.232 . S
C2313 C435 1.226 . S
C2332 C3 1.246 . S
C2349 C39 1.224 . S
C2368 C759 1.241 . S
C2385 C219 1.230 . S
C2404 C75 1.232 . S
C2421 C1119 1.220 . S
C2440 C111 1.204 . S
C2457 C147 1.220 . S
C2476 C291 1.200 . S
C2493 C615 1.228 . S
C2512 C183 1.211 . S
C2529 C975 1.220 . S
C2548 C255 1.214 . S
C2565 C1047 1.222 . S
C2584 C327 1.198 . S
C2601 C363 1.222 . S
C2620 C507 1.197 . S
C2637 C831 1.221 . S
C2656 C399 1.230 . S
C2673 C903 1.225 . S
C2692 C471 1.245 . S
C2709 C543 1.225 . S
C2728 C687 1.203 . S
C2745 C579 1.220 . S
C2764 C1011 1.205 . S
C2781 C795 1.225 . S
C2800 C651 1.244 . S
C2817 C867 1.226 . S
C2836 C723 1.206 . S
C2853 C939 1.229 . S
C2872 C1083 1.223 . S
C2889 C2 0.792 . S
C2908 C110 0.826 . S
C2925 C74 0.812 . S
C2944 C38 0.797 . S
C2961 C146 0.795 . S
C2980 C254 0.798 . S
C2997 C182 0.798 . S
C3016 C218 0.821 . S
C3033 C290 0.793 . S
C3052 C398 0.809 . S
C3069 C326 0.798 . S
C3088 C362 0.786 . S
C3105 C434 0.795 . S
C3124 C542 0.781 . S
C3141 C506 0.798 . S
C3160 C470 0.801 . S
C3177 C686 0.795 . S
C3196 C578 0.795 . S
C3213 C650 0.795 . S
C3232 C614 0.802 . S
C3249 C830 0.792 . S
C3268 C722 0.791 . S
C3285 C794 0.798 . S
C3304 C758 0.805 . S
C3321 C974 0.815 . S
C3340 C866 0.783 . S
C3357 C938 0.812 . S
C3376 C902 0.795 . S
C3393 C1010 0.794 . S
C3412 C1118 0.823 . S
C3429 C1082 0.808 . S
C3448 C1046 0.794 . S
