# Generated by pormake.
# Topology vba, (4)-cn, num edge types: 1
# Building blocks:
#     Node 0, Type 0, BuildingBlock: QUQFOY_clean_sbu_1, # of connection points: 4
#     Node 1, Type 0, BuildingBlock: QUQFOY_clean_sbu_1, # of connection points: 4
#     Node 2, Type 0, BuildingBlock: QUQFOY_clean_sbu_1, # of connection points: 4
#     Node 3, Type 0, BuildingBlock: QUQFOY_clean_sbu_1, # of connection points: 4
#     Node 4, Type 0, BuildingBlock: QUQFOY_clean_sbu_1, # of connection points: 4
#     Node 5, Type 0, BuildingBlock: QUQFOY_clean_sbu_1, # of connection points: 4
#     Node 6, Type 0, BuildingBlock: QUQFOY_clean_sbu_1, # of connection points: 4
#     Node 7, Type 0, BuildingBlock: QUQFOY_clean_sbu_1, # of connection points: 4
#     Node 8, Type 0, BuildingBlock: QUQFOY_clean_sbu_1, # of connection points: 4
#     Node 9, Type 0, BuildingBlock: QUQFOY_clean_sbu_1, # of connection points: 4
#     Node 10, Type 0, BuildingBlock: QUQFOY_clean_sbu_1, # of connection points: 4
#     Node 11, Type 0, BuildingBlock: QUQFOY_clean_sbu_1, # of connection points: 4
#     Node 12, Type 0, BuildingBlock: QUQFOY_clean_sbu_1, # of connection points: 4
#     Node 13, Type 0, BuildingBlock: QUQFOY_clean_sbu_1, # of connection points: 4
#     Node 14, Type 0, BuildingBlock: QUQFOY_clean_sbu_1, # of connection points: 4
#     Node 15, Type 0, BuildingBlock: QUQFOY_clean_sbu_1, # of connection points: 4
#     Node 16, Type 0, BuildingBlock: QUQFOY_clean_sbu_1, # of connection points: 4
#     Node 17, Type 0, BuildingBlock: QUQFOY_clean_sbu_1, # of connection points: 4
#     Node 18, Type 0, BuildingBlock: QUQFOY_clean_sbu_1, # of connection points: 4
#     Node 19, Type 0, BuildingBlock: QUQFOY_clean_sbu_1, # of connection points: 4
#     Node 20, Type 0, BuildingBlock: QUQFOY_clean_sbu_1, # of connection points: 4
#     Node 21, Type 0, BuildingBlock: QUQFOY_clean_sbu_1, # of connection points: 4
#     Node 22, Type 0, BuildingBlock: QUQFOY_clean_sbu_1, # of connection points: 4
#     Node 23, Type 0, BuildingBlock: QUQFOY_clean_sbu_1, # of connection points: 4
#     Node 24, Type 0, BuildingBlock: QUQFOY_clean_sbu_1, # of connection points: 4
#     Node 25, Type 0, BuildingBlock: QUQFOY_clean_sbu_1, # of connection points: 4
#     Node 26, Type 0, BuildingBlock: QUQFOY_clean_sbu_1, # of connection points: 4
#     Node 27, Type 0, BuildingBlock: QUQFOY_clean_sbu_1, # of connection points: 4
#     Node 28, Type 0, BuildingBlock: QUQFOY_clean_sbu_1, # of connection points: 4
#     Node 29, Type 0, BuildingBlock: QUQFOY_clean_sbu_1, # of connection points: 4
#     Node 30, Type 0, BuildingBlock: QUQFOY_clean_sbu_1, # of connection points: 4
#     Node 31, Type 0, BuildingBlock: QUQFOY_clean_sbu_1, # of connection points: 4
#     Edge 32, Type (0, 0), BuildingBlock: AJUNOK_clean_linker_0, # of connection points: 2
#     Edge 33, Type (0, 0), BuildingBlock: AJUNOK_clean_linker_0, # of connection points: 2
#     Edge 34, Type (0, 0), BuildingBlock: AJUNOK_clean_linker_0, # of connection points: 2
#     Edge 35, Type (0, 0), BuildingBlock: AJUNOK_clean_linker_0, # of connection points: 2
#     Edge 36, Type (0, 0), BuildingBlock: AJUNOK_clean_linker_0, # of connection points: 2
#     Edge 37, Type (0, 0), BuildingBlock: AJUNOK_clean_linker_0, # of connection points: 2
#     Edge 38, Type (0, 0), BuildingBlock: AJUNOK_clean_linker_0, # of connection points: 2
#     Edge 39, Type (0, 0), BuildingBlock: AJUNOK_clean_linker_0, # of connection points: 2
#     Edge 40, Type (0, 0), BuildingBlock: AJUNOK_clean_linker_0, # of connection points: 2
#     Edge 41, Type (0, 0), BuildingBlock: AJUNOK_clean_linker_0, # of connection points: 2
#     Edge 42, Type (0, 0), BuildingBlock: AJUNOK_clean_linker_0, # of connection points: 2
#     Edge 43, Type (0, 0), BuildingBlock: AJUNOK_clean_linker_0, # of connection points: 2
#     Edge 44, Type (0, 0), BuildingBlock: AJUNOK_clean_linker_0, # of connection points: 2
#     Edge 45, Type (0, 0), BuildingBlock: AJUNOK_clean_linker_0, # of connection points: 2
#     Edge 46, Type (0, 0), BuildingBlock: AJUNOK_clean_linker_0, # of connection points: 2
#     Edge 47, Type (0, 0), BuildingBlock: AJUNOK_clean_linker_0, # of connection points: 2
#     Edge 48, Type (0, 0), BuildingBlock: AJUNOK_clean_linker_0, # of connection points: 2
#     Edge 49, Type (0, 0), BuildingBlock: AJUNOK_clean_linker_0, # of connection points: 2
#     Edge 50, Type (0, 0), BuildingBlock: AJUNOK_clean_linker_0, # of connection points: 2
#     Edge 51, Type (0, 0), BuildingBlock: AJUNOK_clean_linker_0, # of connection points: 2
#     Edge 52, Type (0, 0), BuildingBlock: AJUNOK_clean_linker_0, # of connection points: 2
#     Edge 53, Type (0, 0), BuildingBlock: AJUNOK_clean_linker_0, # of connection points: 2
#     Edge 54, Type (0, 0), BuildingBlock: AJUNOK_clean_linker_0, # of connection points: 2
#     Edge 55, Type (0, 0), BuildingBlock: AJUNOK_clean_linker_0, # of connection points: 2
#     Edge 56, Type (0, 0), BuildingBlock: AJUNOK_clean_linker_0, # of connection points: 2
#     Edge 57, Type (0, 0), BuildingBlock: AJUNOK_clean_linker_0, # of connection points: 2
#     Edge 58, Type (0, 0), BuildingBlock: AJUNOK_clean_linker_0, # of connection points: 2
#     Edge 59, Type (0, 0), BuildingBlock: AJUNOK_clean_linker_0, # of connection points: 2
#     Edge 60, Type (0, 0), BuildingBlock: AJUNOK_clean_linker_0, # of connection points: 2
#     Edge 61, Type (0, 0), BuildingBlock: AJUNOK_clean_linker_0, # of connection points: 2
#     Edge 62, Type (0, 0), BuildingBlock: AJUNOK_clean_linker_0, # of connection points: 2
#     Edge 63, Type (0, 0), BuildingBlock: AJUNOK_clean_linker_0, # of connection points: 2
#     Edge 64, Type (0, 0), BuildingBlock: AJUNOK_clean_linker_0, # of connection points: 2
#     Edge 65, Type (0, 0), BuildingBlock: AJUNOK_clean_linker_0, # of connection points: 2
#     Edge 66, Type (0, 0), BuildingBlock: AJUNOK_clean_linker_0, # of connection points: 2
#     Edge 67, Type (0, 0), BuildingBlock: AJUNOK_clean_linker_0, # of connection points: 2
#     Edge 68, Type (0, 0), BuildingBlock: AJUNOK_clean_linker_0, # of connection points: 2
#     Edge 69, Type (0, 0), BuildingBlock: AJUNOK_clean_linker_0, # of connection points: 2
#     Edge 70, Type (0, 0), BuildingBlock: AJUNOK_clean_linker_0, # of connection points: 2
#     Edge 71, Type (0, 0), BuildingBlock: AJUNOK_clean_linker_0, # of connection points: 2
#     Edge 72, Type (0, 0), BuildingBlock: AJUNOK_clean_linker_0, # of connection points: 2
#     Edge 73, Type (0, 0), BuildingBlock: AJUNOK_clean_linker_0, # of connection points: 2
#     Edge 74, Type (0, 0), BuildingBlock: AJUNOK_clean_linker_0, # of connection points: 2
#     Edge 75, Type (0, 0), BuildingBlock: AJUNOK_clean_linker_0, # of connection points: 2
#     Edge 76, Type (0, 0), BuildingBlock: AJUNOK_clean_linker_0, # of connection points: 2
#     Edge 77, Type (0, 0), BuildingBlock: AJUNOK_clean_linker_0, # of connection points: 2
#     Edge 78, Type (0, 0), BuildingBlock: AJUNOK_clean_linker_0, # of connection points: 2
#     Edge 79, Type (0, 0), BuildingBlock: AJUNOK_clean_linker_0, # of connection points: 2
#     Edge 80, Type (0, 0), BuildingBlock: AJUNOK_clean_linker_0, # of connection points: 2
#     Edge 81, Type (0, 0), BuildingBlock: AJUNOK_clean_linker_0, # of connection points: 2
#     Edge 82, Type (0, 0), BuildingBlock: AJUNOK_clean_linker_0, # of connection points: 2
#     Edge 83, Type (0, 0), BuildingBlock: AJUNOK_clean_linker_0, # of connection points: 2
#     Edge 84, Type (0, 0), BuildingBlock: AJUNOK_clean_linker_0, # of connection points: 2
#     Edge 85, Type (0, 0), BuildingBlock: AJUNOK_clean_linker_0, # of connection points: 2
#     Edge 86, Type (0, 0), BuildingBlock: AJUNOK_clean_linker_0, # of connection points: 2
#     Edge 87, Type (0, 0), BuildingBlock: AJUNOK_clean_linker_0, # of connection points: 2
#     Edge 88, Type (0, 0), BuildingBlock: AJUNOK_clean_linker_0, # of connection points: 2
#     Edge 89, Type (0, 0), BuildingBlock: AJUNOK_clean_linker_0, # of connection points: 2
#     Edge 90, Type (0, 0), BuildingBlock: AJUNOK_clean_linker_0, # of connection points: 2
#     Edge 91, Type (0, 0), BuildingBlock: AJUNOK_clean_linker_0, # of connection points: 2
#     Edge 92, Type (0, 0), BuildingBlock: AJUNOK_clean_linker_0, # of connection points: 2
#     Edge 93, Type (0, 0), BuildingBlock: AJUNOK_clean_linker_0, # of connection points: 2
#     Edge 94, Type (0, 0), BuildingBlock: AJUNOK_clean_linker_0, # of connection points: 2
#     Edge 95, Type (0, 0), BuildingBlock: AJUNOK_clean_linker_0, # of connection points: 2
# Relax obj value: 0.123
# Max RMSD: 0.336
# Mean RMSD: 0.333
data_MOF--net-vba--node1-QUQFOY_clean_sbu_1--edge1-AJUNOK_clean_linker_0
_symmetry_space_group_name_H-M    P1
_symmetry_Int_Tables_number       1
_symmetry_cell_setting            triclinic
loop_
_symmetry_equiv_pos_as_xyz
'x, y, z'
_cell_length_a     13.060425
_cell_length_b     77.391552
_cell_length_c     40.860579
_cell_angle_alpha  89.937509
_cell_angle_beta   89.995975
_cell_angle_gamma 89.897007
loop_
_atom_site_label
_atom_site_type_symbol
_atom_site_fract_x
_atom_site_fract_y
_atom_site_fract_z
_atom_type_partial_charge
O0 O 0.35556 0.0859 0.98375 0.0
Cd1 Cd 0.35122 0.08227 0.03173 0.0
Cd2 Cd 0.16385 0.07539 0.03017 0.0
O3 O 0.22472 0.06778 0.98283 0.0
O4 O 0.47407 0.06751 0.04507 0.0
O5 O 0.3217 0.05673 0.03399 0.0
C6 C 0.41646 0.0541 0.04025 0.0
C7 C 0.1487 0.06223 0.08292 0.0
C8 C 0.29988 0.0753 0.96832 0.0
C9 C 0.19241 0.11003 0.04837 0.0
O10 O 0.12988 0.10067 0.03253 0.0
O11 O 0.2815 0.10404 0.05568 0.0
O12 O 0.07948 0.05983 0.06069 0.0
O13 O 0.22617 0.07153 0.07519 0.0
O14 O 0.90034 0.20534 0.98419 0.0
Cd15 Cd 0.90372 0.20892 0.03216 0.0
Cd16 Cd 0.09089 0.2163 0.03092 0.0
O17 O 0.02996 0.22372 0.98341 0.0
O18 O 0.77997 0.22356 0.04523 0.0
O19 O 0.93212 0.23449 0.03435 0.0
C20 C 0.8372 0.23703 0.04044 0.0
C21 C 0.10396 0.22944 0.08369 0.0
C22 C 0.95555 0.21605 0.96881 0.0
C23 C 0.06551 0.18163 0.04927 0.0
O24 O 0.12734 0.19115 0.03348 0.0
O25 O 0.97518 0.18724 0.05608 0.0
O26 O 0.1732 0.23208 0.06155 0.0
O27 O 0.02756 0.21992 0.07586 0.0
O28 O 0.36263 0.2043 0.31914 0.0
Cd29 Cd 0.35186 0.20839 0.27142 0.0
Cd30 Cd 0.16473 0.21575 0.27549 0.0
O31 O 0.23337 0.22268 0.32241 0.0
O32 O 0.47127 0.22349 0.25612 0.0
O33 O 0.32098 0.23396 0.27064 0.0
C34 C 0.41384 0.23679 0.26238 0.0
C35 C 0.14767 0.22895 0.2226 0.0
C36 C 0.31005 0.2149 0.33575 0.0
C37 C 0.18759 0.18135 0.25556 0.0
O38 O 0.12774 0.19067 0.27258 0.0
O39 O 0.27705 0.18699 0.24788 0.0
O40 O 0.0812 0.23192 0.24545 0.0
O41 O 0.22393 0.21925 0.22987 0.0
O42 O 0.88325 0.08691 0.31755 0.0
Cd43 Cd 0.89549 0.08259 0.27 0.0
Cd44 Cd 0.0827 0.07577 0.27455 0.0
O45 O 0.0142 0.06891 0.3215 0.0
O46 O 0.77774 0.06711 0.25489 0.0
O47 O 0.92855 0.05707 0.2699 0.0
C48 C 0.83592 0.05397 0.26171 0.0
C49 C 0.10124 0.06259 0.22175 0.0
C50 C 0.93674 0.0766 0.33454 0.0
C51 C 0.05702 0.1102 0.25484 0.0
O52 O 0.11763 0.10094 0.27173 0.0
O53 O 0.9688 0.10423 0.2466 0.0
O54 O 0.16781 0.0598 0.24467 0.0
O55 O 0.02406 0.0721 0.22894 0.0
O56 O 0.65732 0.95475 0.06767 0.0
Cd57 Cd 0.65086 0.9581 1.01954 0.0
Cd58 Cd 0.83646 0.96659 1.01892 0.0
O59 O 0.77819 0.9747 0.06614 0.0
O60 O 0.51957 0.97138 1.00955 0.0
O61 O 0.67057 0.98376 1.01539 0.0
C62 C 0.57335 0.98537 1.01258 0.0
C63 C 0.85044 0.97924 0.96583 0.0
C64 C 0.70893 0.96635 0.08191 0.0
C65 C 0.81239 0.93156 1.00145 0.0
O66 O 0.87323 0.94134 1.01704 0.0
O67 O 0.72139 0.93684 0.9947 0.0
O68 O 0.91976 0.98193 0.98792 0.0
O69 O 0.77259 0.97015 0.97416 0.0
O70 O 0.10202 0.83657 0.06802 0.0
Cd71 Cd 0.10616 0.83326 1.01986 0.0
Cd72 Cd 0.92009 0.82531 1.01974 0.0
O73 O 0.97881 0.81704 0.06685 0.0
O74 O 0.23607 0.8198 1.00921 0.0
O75 O 0.08464 0.80764 1.0158 0.0
C76 C 0.18164 0.80588 1.01244 0.0
C77 C 0.90445 0.81269 0.96666 0.0
C78 C 0.04955 0.82512 0.08242 0.0
C79 C 0.94699 0.86033 1.00236 0.0
O80 O 0.88539 0.85067 1.01798 0.0
O81 O 0.03684 0.85469 0.99513 0.0
O82 O 0.83524 0.81014 0.98885 0.0
O83 O 0.98296 0.82164 0.97485 0.0
O84 O 0.66401 0.83846 0.72794 0.0
Cd85 Cd 0.6573 0.83309 0.77541 0.0
Cd86 Cd 0.84387 0.82553 0.775 0.0
O87 O 0.78745 0.81886 0.72656 0.0
O88 O 0.532 0.81802 0.78517 0.0
O89 O 0.68581 0.8075 0.77566 0.0
C90 C 0.59037 0.80471 0.78007 0.0
C91 C 0.85832 0.81199 0.82733 0.0
C92 C 0.71845 0.82788 0.71194 0.0
C93 C 0.8141 0.85993 0.79542 0.0
O94 O 0.87642 0.8508 0.77894 0.0
O95 O 0.72498 0.8539 0.80235 0.0
O96 O 0.92921 0.81008 0.80542 0.0
O97 O 0.77886 0.82078 0.81926 0.0
O98 O 0.10909 0.95457 0.72938 0.0
Cd99 Cd 0.10127 0.95856 0.77721 0.0
Cd100 Cd 0.91317 0.96553 0.77444 0.0
O101 O 0.97661 0.97242 0.72698 0.0
O102 O 0.22128 0.9737 0.79157 0.0
O103 O 0.06996 0.98409 0.77789 0.0
C104 C 0.16342 0.98697 0.78545 0.0
C105 C 0.89645 0.97903 0.82676 0.0
C106 C 0.05327 0.9649 0.7132 0.0
C107 C 0.93974 0.93126 0.79467 0.0
O108 O 0.87825 0.94041 0.77792 0.0
O109 O 0.02935 0.93708 0.80161 0.0
O110 O 0.82798 0.98139 0.80425 0.0
O111 O 0.97421 0.96966 0.81948 0.0
O112 O 0.35041 0.59063 0.48544 0.0
Cd113 Cd 0.35676 0.58475 0.53264 0.0
Cd114 Cd 0.17305 0.57635 0.53106 0.0
O115 O 0.23234 0.57029 0.48259 0.0
O116 O 0.48603 0.57065 0.54196 0.0
O117 O 0.33523 0.55895 0.53233 0.0
C118 C 0.43172 0.55693 0.53645 0.0
C119 C 0.15736 0.56255 0.58318 0.0
C120 C 0.29883 0.58005 0.46858 0.0
C121 C 0.19597 0.61088 0.55219 0.0
O122 O 0.13605 0.60152 0.53535 0.0
O123 O 0.28548 0.60517 0.55968 0.0
O124 O 0.0885 0.56041 0.56071 0.0
O125 O 0.23631 0.57156 0.5756 0.0
O126 O 0.88996 0.70427 0.48337 0.0
Cd127 Cd 0.90084 0.70915 0.53083 0.0
Cd128 Cd 0.08788 0.71587 0.52641 0.0
O129 O 0.0205 0.72225 0.47899 0.0
O130 O 0.7823 0.72483 0.5449 0.0
O131 O 0.93339 0.73469 0.53001 0.0
C132 C 0.84044 0.73789 0.53778 0.0
C133 C 0.10699 0.72949 0.57875 0.0
C134 C 0.94348 0.71442 0.46609 0.0
C135 C 0.06295 0.68186 0.54833 0.0
O136 O 0.12309 0.69075 0.53064 0.0
O137 O 0.97389 0.68784 0.55572 0.0
O138 O 0.17378 0.73191 0.55575 0.0
O139 O 0.02879 0.72022 0.57176 0.0
O140 O 0.36992 0.70403 0.81424 0.0
Cd141 Cd 0.36059 0.70788 0.76636 0.0
Cd142 Cd 0.17555 0.71582 0.76993 0.0
O143 O 0.24297 0.72289 0.81677 0.0
O144 O 0.48409 0.72181 0.75104 0.0
O145 O 0.33638 0.73364 0.7647 0.0
C146 C 0.43063 0.73561 0.75693 0.0
C147 C 0.15901 0.72919 0.71733 0.0
C148 C 0.31794 0.71485 0.83053 0.0
C149 C 0.1957 0.68103 0.75135 0.0
O150 O 0.13628 0.69074 0.76773 0.0
O151 O 0.28498 0.68653 0.74315 0.0
O152 O 0.09211 0.73202 0.74012 0.0
O153 O 0.23483 0.71933 0.72438 0.0
O154 O 0.88513 0.58699 0.81789 0.0
Cd155 Cd 0.89683 0.58285 0.77016 0.0
Cd156 Cd 0.08395 0.57574 0.77454 0.0
O157 O 0.01533 0.56882 0.82152 0.0
O158 O 0.77846 0.56754 0.75478 0.0
O159 O 0.92879 0.55731 0.76978 0.0
C160 C 0.83624 0.55433 0.76137 0.0
C161 C 0.10347 0.56237 0.72197 0.0
C162 C 0.93811 0.57651 0.8347 0.0
C163 C 0.06017 0.61007 0.75415 0.0
O164 O 0.12001 0.60086 0.77141 0.0
O165 O 0.97102 0.60432 0.74642 0.0
O166 O 0.17003 0.55978 0.74497 0.0
O167 O 0.02607 0.5719 0.72883 0.0
O168 O 0.64086 0.45516 0.56512 0.0
Cd169 Cd 0.6495 0.45928 0.51731 0.0
Cd170 Cd 0.83736 0.4655 0.52039 0.0
O171 O 0.77454 0.47264 0.56775 0.0
O172 O 0.53041 0.4748 0.50336 0.0
O173 O 0.68286 0.48475 0.51659 0.0
C174 C 0.5892 0.48791 0.50954 0.0
C175 C 0.85722 0.47872 0.46783 0.0
C176 C 0.69728 0.46528 0.58143 0.0
C177 C 0.80747 0.43123 0.50058 0.0
O178 O 0.86962 0.44022 0.51731 0.0
O179 O 0.71924 0.43751 0.49303 0.0
O180 O 0.92498 0.48095 0.4906 0.0
O181 O 0.77769 0.46984 0.47517 0.0
O182 O 0.08996 0.33835 0.56486 0.0
Cd183 Cd 0.09388 0.33308 0.51738 0.0
Cd184 Cd 0.90845 0.32533 0.51822 0.0
O185 O 0.96536 0.31905 0.56687 0.0
O186 O 0.21942 0.31824 0.50666 0.0
O187 O 0.06701 0.3074 0.51719 0.0
C188 C 0.16235 0.30481 0.51188 0.0
C189 C 0.89367 0.31186 0.46585 0.0
C190 C 0.03474 0.32807 0.58122 0.0
C191 C 0.93357 0.35976 0.49773 0.0
O192 O 0.87213 0.35046 0.51413 0.0
O193 O 0.02379 0.35405 0.49109 0.0
O194 O 0.82437 0.3096 0.48816 0.0
O195 O 0.97263 0.32079 0.47371 0.0
O196 O 0.63572 0.33778 0.22934 0.0
Cd197 Cd 0.64074 0.3337 0.27726 0.0
Cd198 Cd 0.82619 0.32557 0.27408 0.0
O199 O 0.75857 0.31819 0.22735 0.0
O200 O 0.51468 0.3198 0.29052 0.0
O201 O 0.66436 0.30798 0.2792 0.0
C202 C 0.56894 0.30601 0.28526 0.0
C203 C 0.84373 0.31234 0.32683 0.0
C204 C 0.68502 0.32649 0.21337 0.0
C205 C 0.80446 0.36029 0.29349 0.0
O206 O 0.86342 0.35077 0.27653 0.0
O207 O 0.71529 0.35473 0.30163 0.0
O208 O 0.91106 0.30965 0.3041 0.0
O209 O 0.76688 0.32192 0.31959 0.0
O210 O 0.11604 0.45336 0.23143 0.0
Cd211 Cd 0.11102 0.45736 0.27929 0.0
Cd212 Cd 0.92538 0.46563 0.27637 0.0
O213 O 0.9918 0.47274 0.22939 0.0
O214 O 0.2366 0.47141 0.29267 0.0
O215 O 0.08696 0.4831 0.28092 0.0
C216 C 0.18219 0.48516 0.28715 0.0
C217 C 0.90963 0.47883 0.32904 0.0
C218 C 0.06536 0.46448 0.21539 0.0
C219 C 0.94531 0.43093 0.29561 0.0
O220 O 0.88629 0.4406 0.27897 0.0
O221 O 0.03557 0.43619 0.30323 0.0
O222 O 0.84221 0.48169 0.3064 0.0
O223 O 0.98581 0.46911 0.32171 0.0
O224 O 0.85422 0.08661 0.48362 0.0
Cd225 Cd 0.85131 0.08278 0.53156 0.0
Cd226 Cd 0.66346 0.07569 0.53005 0.0
O227 O 0.72427 0.0683 0.48261 0.0
O228 O 0.97447 0.06775 0.54397 0.0
O229 O 0.8212 0.05726 0.53342 0.0
C230 C 0.91614 0.05445 0.53902 0.0
C231 C 0.64791 0.06248 0.58268 0.0
C232 C 0.79899 0.07596 0.46813 0.0
C233 C 0.69071 0.11022 0.54889 0.0
O234 O 0.62876 0.10088 0.53281 0.0
O235 O 0.78071 0.10446 0.55577 0.0
O236 O 0.57889 0.06009 0.56037 0.0
O237 O 0.7257 0.07173 0.57503 0.0
O238 O 0.40019 0.20505 0.48376 0.0
Cd239 Cd 0.39947 0.2087 0.53183 0.0
Cd240 Cd 0.58507 0.21647 0.53056 0.0
O241 O 0.52403 0.22448 0.48362 0.0
O242 O 0.27023 0.22218 0.54308 0.0
O243 O 0.42075 0.23441 0.53506 0.0
C244 C 0.32391 0.23612 0.53906 0.0
C245 C 0.60357 0.22921 0.58339 0.0
C246 C 0.45215 0.21633 0.46871 0.0
C247 C 0.55926 0.18157 0.54873 0.0
O248 O 0.61995 0.19112 0.53252 0.0
O249 O 0.47 0.1873 0.55645 0.0
O250 O 0.67183 0.23165 0.56084 0.0
O251 O 0.52422 0.22037 0.57563 0.0
O252 O 0.86663 0.20341 0.81937 0.0
Cd253 Cd 0.86142 0.20762 0.77151 0.0
Cd254 Cd 0.67549 0.21571 0.77483 0.0
O255 O 0.74254 0.22279 0.82171 0.0
O256 O 0.98653 0.22182 0.7582 0.0
O257 O 0.8366 0.23333 0.77013 0.0
C258 C 0.93172 0.2355 0.76389 0.0
C259 C 0.65756 0.22901 0.72229 0.0
C260 C 0.81637 0.21451 0.83554 0.0
C261 C 0.69663 0.18115 0.75493 0.0
O262 O 0.6378 0.19062 0.77201 0.0
O263 O 0.78648 0.18657 0.74718 0.0
O264 O 0.59036 0.23165 0.74508 0.0
O265 O 0.7348 0.21949 0.72941 0.0
O266 O 0.38732 0.08779 0.81882 0.0
Cd267 Cd 0.39288 0.08382 0.77092 0.0
Cd268 Cd 0.57834 0.07576 0.77428 0.0
O269 O 0.51116 0.06837 0.82094 0.0
O270 O 0.26699 0.06998 0.75738 0.0
O271 O 0.41631 0.05808 0.76894 0.0
C272 C 0.32095 0.05616 0.7627 0.0
C273 C 0.59715 0.06276 0.72152 0.0
C274 C 0.43748 0.07662 0.83487 0.0
C275 C 0.55662 0.1105 0.75507 0.0
O276 O 0.61558 0.10094 0.77197 0.0
O277 O 0.46755 0.10495 0.74681 0.0
O278 O 0.66373 0.05993 0.74442 0.0
O279 O 0.51962 0.07219 0.72877 0.0
O280 O 0.13755 0.95302 0.56308 0.0
Cd281 Cd 0.13959 0.95767 0.51533 0.0
Cd282 Cd 0.32511 0.96524 0.51783 0.0
O283 O 0.26164 0.97231 0.56514 0.0
O284 O 0.01277 0.97191 0.50404 0.0
O285 O 0.16397 0.98342 0.5141 0.0
C286 C 0.06789 0.98557 0.50931 0.0
C287 C 0.34327 0.97879 0.46558 0.0
C288 C 0.18879 0.96396 0.57923 0.0
C289 C 0.30005 0.93076 0.49745 0.0
O290 O 0.36026 0.94001 0.51443 0.0
O291 O 0.21087 0.93659 0.48985 0.0
O292 O 0.41155 0.98094 0.48821 0.0
O293 O 0.2646 0.96966 0.47279 0.0
O294 O 0.61298 0.84088 0.561 0.0
Cd295 Cd 0.61019 0.83476 0.51399 0.0
Cd296 Cd 0.42702 0.82598 0.519 0.0
O297 O 0.49743 0.82036 0.56646 0.0
O298 O 0.73743 0.82041 0.50265 0.0
O299 O 0.58865 0.80892 0.51565 0.0
C300 C 0.68395 0.80678 0.50968 0.0
C301 C 0.41035 0.8118 0.46714 0.0
C302 C 0.56726 0.83003 0.579 0.0
C303 C 0.44195 0.86024 0.49613 0.0
O304 O 0.38578 0.85091 0.51436 0.0
O305 O 0.53172 0.85491 0.48794 0.0
O306 O 0.34392 0.80925 0.49019 0.0
O307 O 0.4864 0.82163 0.47367 0.0
O308 O 0.13499 0.83583 0.23256 0.0
Cd309 Cd 0.14762 0.83184 0.28027 0.0
Cd310 Cd 0.33411 0.82491 0.27572 0.0
O311 O 0.26528 0.8177 0.229 0.0
O312 O 0.02899 0.8167 0.2958 0.0
O313 O 0.17961 0.8063 0.28137 0.0
C314 C 0.08673 0.80343 0.28964 0.0
C315 C 0.3549 0.8119 0.32866 0.0
C316 C 0.18794 0.82535 0.2158 0.0
C317 C 0.30903 0.85948 0.29474 0.0
O318 O 0.36928 0.85012 0.27793 0.0
O319 O 0.2209 0.85357 0.30321 0.0
O320 O 0.42054 0.80908 0.30548 0.0
O321 O 0.27725 0.82135 0.32168 0.0
O322 O 0.61205 0.95303 0.23016 0.0
Cd323 Cd 0.60699 0.95709 0.27807 0.0
Cd324 Cd 0.42133 0.96523 0.27436 0.0
O325 O 0.48988 0.97273 0.22793 0.0
O326 O 0.73325 0.97101 0.29113 0.0
O327 O 0.58343 0.9828 0.28 0.0
C328 C 0.67901 0.98479 0.28579 0.0
C329 C 0.40068 0.9783 0.32699 0.0
C330 C 0.56349 0.96441 0.21412 0.0
C331 C 0.44298 0.93054 0.29418 0.0
O332 O 0.38458 0.94001 0.27689 0.0
O333 O 0.53234 0.93601 0.3023 0.0
O334 O 0.33476 0.98105 0.30386 0.0
O335 O 0.47867 0.96892 0.32002 0.0
O336 O 0.85029 0.58651 0.98262 0.0
Cd337 Cd 0.8546 0.583 0.03072 0.0
Cd338 Cd 0.66941 0.57452 0.03101 0.0
O339 O 0.72845 0.56673 0.98356 0.0
O340 O 0.98514 0.5696 0.04108 0.0
O341 O 0.8341 0.55733 0.03446 0.0
C342 C 0.93117 0.55565 0.03766 0.0
C343 C 0.6553 0.56173 0.08411 0.0
C344 C 0.79842 0.57506 0.96805 0.0
C345 C 0.69231 0.60955 0.04851 0.0
O346 O 0.63155 0.59971 0.03301 0.0
O347 O 0.78332 0.60429 0.05532 0.0
O348 O 0.58658 0.55897 0.06185 0.0
O349 O 0.73281 0.57095 0.07595 0.0
O350 O 0.39543 0.70503 0.98036 0.0
Cd351 Cd 0.40145 0.70861 0.02837 0.0
Cd352 Cd 0.5891 0.71542 0.02615 0.0
O353 O 0.52713 0.72297 0.97892 0.0
O354 O 0.27953 0.72337 0.04248 0.0
O355 O 0.43126 0.73414 0.03042 0.0
C356 C 0.33703 0.73677 0.03744 0.0
C357 C 0.60682 0.7286 0.07868 0.0
C358 C 0.45126 0.71553 0.96467 0.0
C359 C 0.56077 0.68088 0.04501 0.0
O360 O 0.62278 0.69014 0.02873 0.0
O361 O 0.47186 0.68689 0.05243 0.0
O362 O 0.67536 0.73091 0.05618 0.0
O363 O 0.52858 0.71941 0.07131 0.0
O364 O 0.85433 0.70292 0.31765 0.0
Cd365 Cd 0.85756 0.70693 0.26965 0.0
Cd366 Cd 0.67126 0.71524 0.27024 0.0
O367 O 0.7316 0.72263 0.31766 0.0
O368 O 0.98679 0.72064 0.25921 0.0
O369 O 0.83538 0.73261 0.26712 0.0
C370 C 0.9321 0.73448 0.26346 0.0
C371 C 0.65593 0.72843 0.2176 0.0
C372 C 0.8026 0.71426 0.33268 0.0
C373 C 0.6957 0.68061 0.25061 0.0
O374 O 0.63511 0.69006 0.2671 0.0
O375 O 0.78638 0.68603 0.24396 0.0
O376 O 0.58708 0.73094 0.23994 0.0
O377 O 0.73417 0.71928 0.22549 0.0
O378 O 0.38714 0.58962 0.31529 0.0
Cd379 Cd 0.39708 0.58326 0.26857 0.0
Cd380 Cd 0.58272 0.576 0.27446 0.0
O381 O 0.51382 0.57102 0.32238 0.0
O382 O 0.27886 0.56747 0.25478 0.0
O383 O 0.42805 0.5577 0.27194 0.0
C384 C 0.33615 0.55447 0.26312 0.0
C385 C 0.60303 0.56161 0.22292 0.0
C386 C 0.44002 0.58017 0.33413 0.0
C387 C 0.56078 0.60987 0.25102 0.0
O388 O 0.61942 0.60097 0.26924 0.0
O389 O 0.47275 0.60385 0.24274 0.0
O390 O 0.6697 0.55955 0.2461 0.0
O391 O 0.52467 0.57102 0.2292 0.0
O392 O 0.14746 0.45505 0.06635 0.0
Cd393 Cd 0.15257 0.45872 1.01838 0.0
Cd394 Cd 0.34003 0.4656 1.02039 0.0
O395 O 0.27823 0.47318 0.06759 0.0
O396 O 0.02985 0.47349 1.00495 0.0
O397 O 0.18209 0.48427 1.01625 0.0
C398 C 0.0874 0.4869 1.00988 0.0
C399 C 0.35673 0.47885 0.96782 0.0
C400 C 0.20277 0.46566 0.08192 0.0
C401 C 0.31176 0.43099 1.00189 0.0
O402 O 0.37389 0.44032 1.01795 0.0
O403 O 0.22278 0.43697 0.99443 0.0
O404 O 0.42542 0.48119 0.99024 0.0
O405 O 0.27896 0.46956 0.97526 0.0
O406 O 0.5963 0.33628 0.0663 0.0
Cd407 Cd 0.60346 0.33294 1.01818 0.0
Cd408 Cd 0.4184 0.32442 1.01692 0.0
O409 O 0.47518 0.31639 0.06451 0.0
O410 O 0.73488 0.31966 1.00849 0.0
O411 O 0.58376 0.30728 1.0141 0.0
C412 C 0.68103 0.30566 1.01149 0.0
C413 C 0.40649 0.3116 0.96387 0.0
C414 C 0.54409 0.32471 0.08047 0.0
C415 C 0.44231 0.35953 0.99969 0.0
O416 O 0.3809 0.34965 1.01488 0.0
O417 O 0.53358 0.35427 0.99325 0.0
O418 O 0.33632 0.309 0.98574 0.0
O419 O 0.48366 0.32083 0.97226 0.0
O420 O 0.12654 0.34014 0.73459 0.0
Cd421 Cd 0.14261 0.33384 0.78117 0.0
Cd422 Cd 0.32797 0.32675 0.77346 0.0
O423 O 0.25359 0.3218 0.72627 0.0
O424 O 0.02716 0.31781 0.79643 0.0
O425 O 0.17481 0.30832 0.77751 0.0
C426 C 0.08423 0.30492 0.78741 0.0
C427 C 0.35168 0.31249 0.82518 0.0
C428 C 0.17764 0.33072 0.71521 0.0
C429 C 0.308 0.36055 0.79712 0.0
O430 O 0.36525 0.3517 0.77838 0.0
O431 O 0.22056 0.35452 0.80604 0.0
O432 O 0.41593 0.31014 0.80142 0.0
O433 O 0.27346 0.32199 0.81932 0.0
O434 O 0.61189 0.45278 0.73153 0.0
Cd435 Cd 0.60937 0.45733 0.77929 0.0
Cd436 Cd 0.42352 0.46546 0.77668 0.0
O437 O 0.4883 0.47226 0.72935 0.0
O438 O 0.73586 0.47141 0.79137 0.0
O439 O 0.58556 0.48306 0.78029 0.0
C440 C 0.68125 0.48513 0.78578 0.0
C441 C 0.40666 0.47889 0.82907 0.0
C442 C 0.56109 0.46382 0.71534 0.0
C443 C 0.44575 0.43105 0.79758 0.0
O444 O 0.3863 0.44037 0.78038 0.0
O445 O 0.53589 0.43652 0.80477 0.0
O446 O 0.33907 0.48148 0.80636 0.0
O447 O 0.48443 0.46954 0.82171 0.0
C448 C 0.03908 0.05689 0.13204 0.0
C449 C 0.13641 0.05672 0.11751 0.0
C450 C 0.02835 0.05711 0.16624 0.0
C451 C 0.11442 0.05701 0.18718 0.0
H452 H 0.9712 0.05839 0.11705 0.0
H453 H 0.95204 0.05857 0.17629 0.0
S454 S 0.38494 0.05266 0.16104 0.0
N455 N 0.31965 0.05352 0.12646 0.0
N456 N 0.29917 0.05388 0.19067 0.0
C457 C 0.21137 0.05483 0.17293 0.0
C458 C 0.2224 0.05474 0.13808 0.0
C459 C 0.22198 0.23458 0.16731 0.0
C460 C 0.13535 0.23459 0.18802 0.0
C461 C 0.21215 0.23484 0.13308 0.0
C462 C 0.11519 0.23495 0.11829 0.0
H463 H 0.29803 0.23315 0.17758 0.0
H464 H 0.28045 0.2334 0.11828 0.0
S465 S 0.86541 0.23872 0.16116 0.0
N466 N 0.95043 0.23756 0.19102 0.0
N467 N 0.93164 0.23796 0.12675 0.0
C468 C 0.02862 0.23684 0.13863 0.0
C469 C 0.03873 0.23671 0.17351 0.0
C470 C 0.78608 0.98396 0.87586 0.0
C471 C 0.88317 0.98464 0.86121 0.0
C472 C 0.77576 0.98376 0.91009 0.0
C473 C 0.862 0.9844 0.93093 0.0
H474 H 0.71842 0.98206 0.86096 0.0
H475 H 0.69989 0.98196 0.92025 0.0
S476 S 0.13135 0.98997 0.90434 0.0
N477 N 0.06578 0.9887 0.86987 0.0
N478 N 0.04621 0.98844 0.93409 0.0
C479 C 0.95835 0.987 0.9165 0.0
C480 C 0.96895 0.98706 0.88165 0.0
C481 C 0.96824 0.80745 0.87673 0.0
C482 C 0.87114 0.80675 0.86207 0.0
C483 C 0.97863 0.80788 0.91094 0.0
C484 C 0.89244 0.80744 0.93182 0.0
H485 H 0.03602 0.80916 0.86179 0.0
H486 H 0.0546 0.80965 0.92103 0.0
S487 S 0.62287 0.80192 0.90546 0.0
N488 N 0.68838 0.80291 0.87093 0.0
N489 N 0.70814 0.80359 0.93513 0.0
C490 C 0.79598 0.80485 0.91748 0.0
C491 C 0.78529 0.80456 0.88262 0.0
C492 C 0.22871 0.55752 0.63927 0.0
C493 C 0.14364 0.55711 0.6179 0.0
C494 C 0.2164 0.55729 0.67345 0.0
C495 C 0.11847 0.55679 0.68754 0.0
H496 H 0.30524 0.55922 0.62958 0.0
H497 H 0.28332 0.55904 0.68875 0.0
S498 S 0.87249 0.55197 0.6429 0.0
N499 N 0.95941 0.5534 0.61366 0.0
N500 N 0.93615 0.55307 0.67776 0.0
C501 C 0.03374 0.55455 0.66656 0.0
C502 C 0.04635 0.55465 0.63176 0.0
C503 C 0.03613 0.73508 0.63455 0.0
C504 C 0.12152 0.73502 0.6133 0.0
C505 C 0.04801 0.73513 0.66872 0.0
C506 C 0.14583 0.73495 0.68291 0.0
H507 H 0.95941 0.73386 0.62474 0.0
H508 H 0.98055 0.73374 0.68393 0.0
S509 S 0.39321 0.73852 0.6386 0.0
N510 N 0.30639 0.73767 0.60924 0.0
N511 N 0.32897 0.73767 0.67339 0.0
C512 C 0.23126 0.73679 0.66207 0.0
C513 C 0.21908 0.73688 0.62726 0.0
C514 C 0.79867 0.48451 0.37776 0.0
C515 C 0.89653 0.48434 0.36357 0.0
C516 C 0.78668 0.48432 0.41193 0.0
C517 C 0.87201 0.48412 0.43319 0.0
H518 H 0.73119 0.48328 0.36252 0.0
H519 H 0.70989 0.48316 0.42171 0.0
S520 S 0.14396 0.48733 0.408 0.0
N521 N 0.07977 0.48674 0.37319 0.0
N522 N 0.057 0.48648 0.43731 0.0
C523 C 0.96969 0.48589 0.41927 0.0
C524 C 0.98198 0.48595 0.38447 0.0
C525 C 0.95477 0.30685 0.3757 0.0
C526 C 0.85717 0.30672 0.36133 0.0
C527 C 0.96615 0.30689 0.40992 0.0
C528 C 0.88045 0.30663 0.43104 0.0
H529 H 0.0223 0.30844 0.3606 0.0
H530 H 0.04258 0.3083 0.41986 0.0
S531 S 0.60945 0.30251 0.40524 0.0
N532 N 0.67418 0.30356 0.37057 0.0
N533 N 0.69573 0.30351 0.43473 0.0
C534 C 0.78328 0.30456 0.41687 0.0
C535 C 0.77163 0.30467 0.38205 0.0
C536 C 0.53714 0.05723 0.63157 0.0
C537 C 0.63483 0.05703 0.61728 0.0
C538 C 0.52554 0.05747 0.66574 0.0
C539 C 0.61108 0.05733 0.6869 0.0
H540 H 0.46963 0.05873 0.61641 0.0
H541 H 0.449 0.05893 0.67561 0.0
S542 S 0.88231 0.05303 0.66145 0.0
N543 N 0.81788 0.05389 0.6267 0.0
N544 N 0.79578 0.05422 0.69085 0.0
C545 C 0.7084 0.05517 0.67289 0.0
C546 C 0.72032 0.05508 0.63807 0.0
C547 C 0.53282 0.23406 0.63955 0.0
C548 C 0.6179 0.23434 0.61818 0.0
C549 C 0.54517 0.23424 0.67371 0.0
C550 C 0.64316 0.23452 0.68778 0.0
H551 H 0.45614 0.23257 0.62985 0.0
H552 H 0.4781 0.23264 0.68902 0.0
S553 S 0.88952 0.23877 0.64311 0.0
N554 N 0.80242 0.23759 0.61389 0.0
N555 N 0.82582 0.23778 0.67798 0.0
C556 C 0.72808 0.23655 0.66681 0.0
C557 C 0.71543 0.23653 0.63202 0.0
C558 C 0.45671 0.98382 0.41724 0.0
C559 C 0.35837 0.98423 0.43106 0.0
C560 C 0.46992 0.98351 0.38312 0.0
C561 C 0.38542 0.98377 0.36155 0.0
H562 H 0.52339 0.98221 0.43273 0.0
H563 H 0.54683 0.98189 0.37365 0.0
S564 S 0.1133 0.98863 0.38564 0.0
N565 N 0.176 0.9877 0.42071 0.0
N566 N 0.20115 0.98723 0.35668 0.0
C567 C 0.28759 0.98614 0.37507 0.0
C568 C 0.27402 0.98631 0.40983 0.0
C569 C 0.29764 0.80619 0.41885 0.0
C570 C 0.3958 0.806 0.43282 0.0
C571 C 0.28497 0.80646 0.38469 0.0
C572 C 0.36985 0.80638 0.36324 0.0
H573 H 0.23067 0.80772 0.43423 0.0
H574 H 0.20813 0.80793 0.37507 0.0
S575 S 0.64188 0.80216 0.38783 0.0
N576 N 0.57852 0.80294 0.42278 0.0
N577 N 0.55441 0.80333 0.3587 0.0
C578 C 0.46758 0.8042 0.37694 0.0
C579 C 0.48058 0.80407 0.41172 0.0
C580 C 0.72847 0.55751 0.14024 0.0
C581 C 0.6433 0.55645 0.11899 0.0
C582 C 0.71676 0.55713 0.17444 0.0
C583 C 0.61928 0.55583 0.18868 0.0
H584 H 0.80433 0.55979 0.13044 0.0
H585 H 0.78329 0.55943 0.18965 0.0
S586 S 0.3742 0.54922 0.14441 0.0
N587 N 0.46019 0.55134 0.11504 0.0
N588 N 0.43805 0.55076 0.17917 0.0
C589 C 0.53498 0.55297 0.16782 0.0
C590 C 0.54698 0.55323 0.13301 0.0
C591 C 0.72915 0.73321 0.16179 0.0
C592 C 0.64338 0.73378 0.18284 0.0
C593 C 0.71802 0.73345 0.12759 0.0
C594 C 0.62058 0.73411 0.11318 0.0
H595 H 0.80531 0.73141 0.17174 0.0
H596 H 0.78542 0.7316 0.11253 0.0
S597 S 0.37332 0.73943 0.15693 0.0
N598 N 0.45918 0.73784 0.18647 0.0
N599 N 0.43809 0.73819 0.12229 0.0
C600 C 0.53522 0.73651 0.13383 0.0
C601 C 0.54663 0.7364 0.16866 0.0
C602 C 0.4789 0.48409 0.8848 0.0
C603 C 0.39322 0.48436 0.8637 0.0
C604 C 0.46752 0.48422 0.91898 0.0
C605 C 0.36991 0.48446 0.93333 0.0
H606 H 0.55533 0.48258 0.87488 0.0
H607 H 0.53505 0.4826 0.93408 0.0
S608 S 0.12233 0.48892 0.88938 0.0
N609 N 0.20861 0.4877 0.8599 0.0
N610 N 0.18696 0.48787 0.92407 0.0
C611 C 0.28439 0.48659 0.91262 0.0
C612 C 0.29607 0.4866 0.87779 0.0
C613 C 0.28431 0.30563 0.88083 0.0
C614 C 0.36897 0.30661 0.85941 0.0
C615 C 0.29699 0.30544 0.91497 0.0
C616 C 0.39492 0.30641 0.92902 0.0
H617 H 0.20708 0.30623 0.87119 0.0
H618 H 0.22941 0.30602 0.93031 0.0
S619 S 0.64201 0.3056 0.88396 0.0
N620 N 0.55425 0.30583 0.85484 0.0
N621 N 0.57856 0.30553 0.91893 0.0
C622 C 0.48037 0.30556 0.90791 0.0
C623 C 0.46733 0.30561 0.87311 0.0
C624 C 0.55807 0.03382 0.02567 0.0
C625 C 0.45731 0.03635 0.03652 0.0
C626 C 0.5927 1.01738 1.01642 0.0
C627 C 0.52811 1.00276 1.01766 0.0
H628 H 0.60977 0.04468 1.02331 0.0
H629 H 0.67141 1.01612 1.00838 0.0
S630 S 0.25831 1.0024 0.04585 0.0
N631 N 0.29365 0.02281 0.04899 0.0
N632 N 0.3592 0.99194 0.03163 0.0
C633 C 0.42731 1.0051 0.0287 0.0
C634 C 0.39201 0.02186 0.03823 0.0
C635 C 0.66187 0.27365 1.01524 0.0
C636 C 0.72614 0.28829 1.01687 0.0
C637 C 0.69607 0.25722 0.02485 0.0
C638 C 0.79604 0.25475 0.03648 0.0
H639 H 0.58376 0.27487 1.00661 0.0
H640 H 0.6448 0.24633 1.02214 0.0
S641 S 0.99376 0.28878 0.0471 0.0
N642 N 0.89381 0.2992 0.03205 0.0
N643 N 0.95849 0.26837 0.05011 0.0
C644 C 0.86094 0.26927 0.0386 0.0
C645 C 0.82614 0.286 0.02869 0.0
C646 C 0.55662 0.25753 0.2726 0.0
C647 C 0.45333 0.25466 0.26507 0.0
C648 C 0.59164 0.2741 0.28071 0.0
C649 C 0.52492 0.28848 0.28157 0.0
H650 H 0.61034 0.24686 0.27318 0.0
H651 H 0.67229 0.27564 0.28618 0.0
S652 S 0.24778 0.28796 0.2621 0.0
N653 N 0.28472 0.26767 0.25788 0.0
N654 N 0.35117 0.29876 0.27304 0.0
C655 C 0.42156 0.28581 0.27382 0.0
C656 C 0.3858 0.26894 0.26547 0.0
C657 C 0.65624 1.01658 0.27807 0.0
C658 C 0.72318 1.00233 0.28172 0.0
C659 C 0.69241 0.03306 0.26985 0.0
C660 C 0.79717 0.03605 0.26502 0.0
H661 H 0.57448 1.01501 0.28136 0.0
H662 H 0.63801 0.04361 0.26813 0.0
S663 S 0.00477 1.00314 0.27052 0.0
N664 N 0.89928 0.99232 0.27908 0.0
N665 N 0.96795 0.02324 0.26371 0.0
C666 C 0.86516 0.0219 0.26833 0.0
C667 C 0.82813 1.0051 0.27678 0.0
C668 C 0.19565 0.75729 1.02378 0.0
C669 C 0.2964 0.75457 0.0345 0.0
C670 C 0.16131 0.77386 1.0152 0.0
C671 C 0.22625 0.78841 1.01699 0.0
H672 H 0.14377 0.74648 1.02099 0.0
H673 H 0.08265 0.77527 1.00721 0.0
S674 S 0.49575 0.78829 0.04547 0.0
N675 N 0.46015 0.76787 0.04766 0.0
N676 N 0.39516 0.79898 0.03161 0.0
C677 C 0.32693 0.78589 0.02801 0.0
C678 C 0.36192 0.769 0.03685 0.0
C679 C 0.446 0.78406 0.77008 0.0
C680 C 0.55077 0.7869 0.77534 0.0
C681 C 0.40908 0.76756 0.76231 0.0
C682 C 0.47528 0.75318 0.75945 0.0
H683 H 0.39208 0.79468 0.7716 0.0
H684 H 0.32727 0.76603 0.75901 0.0
S685 S 0.75676 0.75363 0.7708 0.0
N686 N 0.72094 0.77382 0.77703 0.0
N687 N 0.65078 0.74294 0.76237 0.0
C688 C 0.58035 0.75586 0.7642 0.0
C689 C 0.61813 0.77264 0.77228 0.0
C690 C 0.30692 1.00768 0.77572 0.0
C691 C 0.20295 1.00484 0.78233 0.0
C692 C 0.34286 0.02423 0.7678 0.0
C693 C 0.27643 0.03863 0.76618 0.0
H694 H 0.36066 0.997 0.77584 0.0
H695 H 0.42403 0.02573 0.76314 0.0
S696 S 0.99731 0.03818 0.78257 0.0
N697 N 0.03372 1.01791 0.78752 0.0
N698 N 0.10186 0.04893 0.77262 0.0
C699 C 0.17228 0.03598 0.77282 0.0
C700 C 0.13556 1.01913 0.78101 0.0
C701 C 0.44559 0.50879 0.51875 0.0
C702 C 0.55026 0.50583 0.51343 0.0
C703 C 0.40933 0.52522 0.5274 0.0
C704 C 0.47602 0.53945 0.53108 0.0
H705 H 0.39138 0.49825 0.51709 0.0
H706 H 0.32768 0.52675 0.53114 0.0
S707 S 0.75719 0.53873 0.51872 0.0
N708 N 0.7206 0.51867 0.51166 0.0
N709 N 0.65179 0.54948 0.52791 0.0
C710 C 0.58084 0.53672 0.5256 0.0
C711 C 0.61796 0.51997 0.51669 0.0
C712 C 0.6614 0.77509 0.51839 0.0
C713 C 0.72826 0.78932 0.51496 0.0
C714 C 0.69717 0.75869 0.52756 0.0
C715 C 0.80146 0.75578 0.53361 0.0
H716 H 0.58001 0.7766 0.51411 0.0
H717 H 0.64297 0.74814 0.529 0.0
S718 S 0.00824 0.78875 0.52963 0.0
N719 N 0.90349 0.79944 0.51943 0.0
N720 N 0.97145 0.76868 0.53656 0.0
C721 C 0.86926 0.76993 0.53064 0.0
C722 C 0.83265 0.78664 0.52122 0.0
C723 C 0.69319 0.53347 0.7705 0.0
C724 C 0.79727 0.53642 0.7643 0.0
C725 C 0.65783 0.51695 0.77886 0.0
C726 C 0.72497 0.50266 0.78131 0.0
H727 H 0.63893 0.54407 0.76987 0.0
H728 H 0.5766 0.51538 0.78332 0.0
S729 S 0.00453 0.50337 0.76575 0.0
N730 N 0.96726 0.52354 0.76002 0.0
N731 N 0.90021 0.49255 0.77571 0.0
C732 C 0.82914 0.50539 0.77483 0.0
C733 C 0.86528 0.52222 0.76621 0.0
C734 C 0.30621 0.28458 0.52535 0.0
C735 C 0.20371 0.28707 0.51619 0.0
C736 C 0.34259 0.26816 0.53422 0.0
C737 C 0.27809 0.25352 0.5343 0.0
H738 H 0.35826 0.29544 0.52647 0.0
H739 H 0.42258 0.26693 0.54086 0.0
S740 S 0.00417 0.25295 0.51052 0.0
N741 N 0.03853 0.27337 0.5066 0.0
N742 N 0.10739 0.24259 0.52323 0.0
C743 C 0.17558 0.25581 0.52494 0.0
C744 C 0.13847 0.27252 0.5158 0.0
C745 C 0.15855 0.51701 0.2812 0.0
C746 C 0.22585 0.50274 0.28341 0.0
C747 C 0.19365 0.53357 0.27295 0.0
C748 C 0.29765 0.53657 0.2667 0.0
H749 H 0.07732 0.5154 0.2856 0.0
H750 H 0.13924 0.54414 0.27231 0.0
S751 S 0.50538 0.50362 0.26785 0.0
N752 N 0.40125 0.49273 0.27772 0.0
N753 N 0.46785 0.5238 0.26239 0.0
C754 C 0.36592 0.52241 0.26863 0.0
C755 C 0.33003 0.50555 0.27706 0.0
C756 C 0.0903 1.0175 0.51418 0.0
C757 C 0.02433 1.00306 0.51463 0.0
C758 C 0.05674 0.03395 0.52388 0.0
C759 C 0.95581 0.03664 0.5345 0.0
H760 H 0.1692 1.01608 0.50643 0.0
H761 H 0.10949 0.0447 0.52214 0.0
S762 S 0.75372 1.00306 0.54198 0.0
N763 N 0.85415 0.99251 0.52768 0.0
N764 N 0.79064 0.02334 0.54594 0.0
C765 C 0.88922 0.02228 0.53542 0.0
C766 C 0.92338 1.00555 0.52537 0.0
C767 C 0.90696 0.26726 0.77096 0.0
C768 C 0.9748 0.25311 0.76772 0.0
C769 C 0.94197 0.28382 0.77909 0.0
C770 C 0.04641 0.28697 0.78416 0.0
H771 H 0.8254 0.26555 0.76743 0.0
H772 H 0.88705 0.2943 0.78052 0.0
S773 S 0.25586 0.25439 0.78001 0.0
N774 N 0.15132 0.24337 0.77119 0.0
N775 N 0.21776 0.27447 0.78627 0.0
C776 C 0.11526 0.27294 0.78124 0.0
C777 C 0.07945 0.25606 0.77295 0.0
C778 C 0.94433 0.78281 0.27837 0.0
C779 C 0.04713 0.78558 0.28667 0.0
C780 C 0.90961 0.76634 0.2695 0.0
C781 C 0.9761 0.75192 0.26864 0.0
H782 H 0.89087 0.79352 0.27764 0.0
H783 H 0.82939 0.76493 0.26332 0.0
S784 S 0.25166 0.75213 0.29037 0.0
N785 N 0.21483 0.77241 0.29484 0.0
N786 N 0.14894 0.74147 0.27835 0.0
C787 C 0.07884 0.75446 0.2774 0.0
C788 C 0.11432 0.77125 0.28648 0.0
C789 C 0.94606 0.50719 0.02471 0.0
C790 C 0.04655 0.50465 1.01361 0.0
C791 C 0.91164 0.52364 0.034 0.0
C792 C 0.97622 0.53825 0.03257 0.0
H793 H 0.89443 0.49633 0.02724 0.0
H794 H 0.83313 0.52492 0.04223 0.0
S795 S 0.24516 0.5386 1.00356 0.0
N796 N 0.20982 0.51819 1.00063 0.0
N797 N 0.14467 0.54907 1.01803 0.0
C798 C 0.07671 0.5359 1.02125 0.0
C799 C 0.11179 0.51914 1.01168 0.0
C800 C 0.26174 0.07448 0.90861 0.0
C801 C 0.32973 0.07128 0.93437 0.0
C802 C 0.29727 0.07526 0.87624 0.0
C803 C 0.40176 0.07268 0.8685 0.0
H804 H 0.18237 0.0776 0.91365 0.0
H805 H 0.2429 0.0786 0.85722 0.0
S806 S 0.60685 0.06123 0.92722 0.0
N807 N 0.50357 0.06365 0.95014 0.0
N808 N 0.56979 0.06481 0.88913 0.0
C809 C 0.46858 0.06802 0.89385 0.0
C810 C 0.43265 0.06745 0.92686 0.0
C811 C 0.99303 0.21651 0.90909 0.0
C812 C 0.92571 0.22005 0.93486 0.0
C813 C 0.957 0.21563 0.8768 0.0
C814 C 0.85264 0.21842 0.86912 0.0
H815 H 0.07218 0.21322 0.9141 0.0
H816 H 0.0109 0.21207 0.8578 0.0
S817 S 0.64939 0.23072 0.92786 0.0
N818 N 0.75276 0.22817 0.95068 0.0
N819 N 0.68558 0.22684 0.8898 0.0
C820 C 0.78657 0.22339 0.89445 0.0
C821 C 0.82301 0.22407 0.9274 0.0
C822 C 0.48807 0.21751 0.40892 0.0
C823 C 0.42072 0.22045 0.43495 0.0
C824 C 0.45141 0.21664 0.3767 0.0
C825 C 0.34631 0.21882 0.36935 0.0
H826 H 0.56798 0.21467 0.41365 0.0
H827 H 0.50556 0.21355 0.35748 0.0
S828 S 0.14206 0.22941 0.42894 0.0
N829 N 0.24654 0.22736 0.45142 0.0
N830 N 0.17807 0.22603 0.39069 0.0
C831 C 0.27987 0.2232 0.39498 0.0
C832 C 0.31702 0.22388 0.42785 0.0
C833 C 0.76126 0.07487 0.40843 0.0
C834 C 0.82938 0.07194 0.43426 0.0
C835 C 0.79677 0.07547 0.37606 0.0
C836 C 0.90142 0.07301 0.36837 0.0
H837 H 0.68168 0.07786 0.41339 0.0
H838 H 0.74209 0.07856 0.35698 0.0
S839 S 0.107 0.06223 0.4274 0.0
N840 N 0.00357 0.06466 0.45023 0.0
N841 N 0.06986 0.06552 0.38923 0.0
C842 C 0.9685 0.06865 0.39385 0.0
C843 C 0.93255 0.06824 0.42686 0.0
C844 C 0.74427 0.96665 0.14164 0.0
C845 C 0.67884 0.97069 0.11564 0.0
C846 C 0.70645 0.9656 0.1737 0.0
C847 C 0.60199 0.96863 0.1809 0.0
H848 H 0.82313 0.96305 0.13694 0.0
H849 H 0.75889 0.96164 0.19285 0.0
S850 S 0.40335 0.98211 0.12145 0.0
N851 N 0.50769 0.97947 0.09911 0.0
N852 N 0.43705 0.97779 0.15958 0.0
C853 C 0.53793 0.9741 0.15539 0.0
C854 C 0.57628 0.975 0.12267 0.0
C855 C 0.01177 0.82349 0.14207 0.0
C856 C 0.07971 0.82065 0.11615 0.0
C857 C 0.04753 0.82403 0.17443 0.0
C858 C 0.1523 0.82163 0.18203 0.0
H859 H 0.93217 0.8265 0.13719 0.0
H860 H 0.99298 0.82707 0.19356 0.0
S861 S 0.35766 0.81119 0.12273 0.0
N862 N 0.25396 0.81359 0.1 0.0
N863 N 0.32074 0.81432 0.16096 0.0
C864 C 0.21923 0.81735 0.15646 0.0
C865 C 0.18298 0.81699 0.12346 0.0
C866 C 0.70433 0.84129 0.6577 0.0
C867 C 0.69595 0.82633 0.6768 0.0
C868 C 0.66051 0.84223 0.6266 0.0
C869 C 0.60491 0.82832 0.61321 0.0
H870 H 0.7422 0.85264 0.6674 0.0
H871 H 0.6692 0.85421 0.61314 0.0
S872 S 0.55986 0.78612 0.65393 0.0
N873 N 0.62752 0.79725 0.68083 0.0
N874 N 0.54539 0.79886 0.62172 0.0
C875 C 0.59645 0.81313 0.63202 0.0
C876 C 0.64207 0.81216 0.66393 0.0
C877 C 0.04982 0.96563 0.62096 0.0
C878 C 0.1546 0.96763 0.6131 0.0
C879 C 0.01507 0.96623 0.65343 0.0
C880 C 0.0842 0.96862 0.67918 0.0
H881 H 0.99443 0.96294 0.60189 0.0
H882 H 0.93508 0.96368 0.65849 0.0
S883 S 0.36324 0.97687 0.67178 0.0
N884 N 0.32464 0.97404 0.63365 0.0
N885 N 0.26 0.97486 0.69484 0.0
C886 C 0.18782 0.97181 0.6716 0.0
C887 C 0.22292 0.97144 0.63848 0.0
C888 C 0.35649 0.56394 0.41828 0.0
C889 C 0.32247 0.5793 0.43327 0.0
C890 C 0.39955 0.56418 0.38655 0.0
C891 C 0.40936 0.57979 0.36903 0.0
H892 H 0.35297 0.55182 0.43154 0.0
H893 H 0.42349 0.55212 0.37549 0.0
S894 S 0.33254 0.6234 0.39789 0.0
N895 N 0.30209 0.61036 0.42834 0.0
N896 N 0.38199 0.61087 0.36929 0.0
C897 C 0.37511 0.59511 0.38393 0.0
C898 C 0.33191 0.59486 0.41587 0.0
C899 C 0.76667 0.71624 0.39248 0.0
C900 C 0.83464 0.71843 0.36635 0.0
C901 C 0.80285 0.71583 0.4248 0.0
C902 C 0.90808 0.71777 0.43215 0.0
H903 H 0.68642 0.71369 0.38784 0.0
H904 H 0.74812 0.71333 0.44416 0.0
S905 S 0.11428 0.7264 0.37214 0.0
N906 N 0.00986 0.72434 0.34967 0.0
N907 N 0.07741 0.72387 0.41055 0.0
C908 C 0.97536 0.72135 0.40631 0.0
C909 C 0.9387 0.72155 0.37336 0.0
C910 C 0.49077 0.71684 0.90501 0.0
C911 C 0.42142 0.71947 0.93064 0.0
C912 C 0.4565 0.71627 0.87248 0.0
C913 C 0.352 0.71853 0.86444 0.0
H914 H 0.57045 0.71406 0.91022 0.0
H915 H 0.51201 0.71339 0.85354 0.0
S916 S 0.14315 0.72843 0.92279 0.0
N917 N 0.24591 0.72618 0.946 0.0
N918 N 0.18211 0.72543 0.88473 0.0
C919 C 0.28358 0.72258 0.88971 0.0
C920 C 0.3182 0.72292 0.92288 0.0
C921 C 0.79735 0.57513 0.87603 0.0
C922 C 0.90208 0.57267 0.86842 0.0
C923 C 0.76118 0.57421 0.90832 0.0
C924 C 0.8286 0.57091 0.93419 0.0
H925 H 0.74314 0.57847 0.85697 0.0
H926 H 0.68169 0.57729 0.91324 0.0
S927 S 0.10628 0.56124 0.92753 0.0
N928 N 0.06993 0.56489 0.88939 0.0
N929 N 0.0024 0.56347 0.95023 0.0
C930 C 0.93183 0.56724 0.92684 0.0
C931 C 0.96849 0.56798 0.89389 0.0
C932 C 0.73534 0.46594 0.64122 0.0
C933 C 0.66671 0.46888 0.61551 0.0
C934 C 0.70033 0.46516 0.67364 0.0
C935 C 0.59579 0.46752 0.68152 0.0
H936 H 0.81502 0.4631 0.63611 0.0
H937 H 0.7553 0.46207 0.69264 0.0
S938 S 0.38872 0.4782 0.62301 0.0
N939 N 0.49183 0.47598 0.59995 0.0
N940 N 0.42671 0.47484 0.66107 0.0
C941 C 0.52811 0.47187 0.65622 0.0
C942 C 0.56345 0.47241 0.62313 0.0
C943 C 0.10848 0.31328 0.63048 0.0
C944 C 0.05435 0.32725 0.61667 0.0
C945 C 0.1511 0.31445 0.66217 0.0
C946 C 0.14107 0.32967 0.68081 0.0
H947 H 0.12149 0.30168 0.61623 0.0
H948 H 0.19167 0.30341 0.67211 0.0
S949 S 0.00898 0.37 0.65458 0.0
N950 N 0.99476 0.35667 0.62344 0.0
N951 N 0.07388 0.35907 0.68241 0.0
C952 C 0.08648 0.34363 0.66699 0.0
C953 C 0.04345 0.34238 0.63508 0.0
C954 C 0.5068 0.32439 0.14015 0.0
C955 C 0.57312 0.32039 0.11436 0.0
C956 C 0.54349 0.32539 0.17237 0.0
C957 C 0.6477 0.32236 0.17995 0.0
H958 H 0.42807 0.32797 0.13518 0.0
H959 H 0.49034 0.3293 0.19134 0.0
S960 S 0.84852 0.30904 0.12117 0.0
N961 N 0.74497 0.31169 0.09847 0.0
N962 N 0.81342 0.31328 0.15919 0.0
C963 C 0.71267 0.31695 0.15465 0.0
C964 C 0.6755 0.31611 0.12177 0.0
C965 C 0.20534 0.46606 0.17401 0.0
C966 C 0.10064 0.46839 0.18172 0.0
C967 C 0.24073 0.46677 0.14163 0.0
C968 C 0.17238 0.46965 0.11583 0.0
H969 H 0.26003 0.46296 0.19308 0.0
H970 H 0.32041 0.46387 0.13663 0.0
S971 S 0.89438 0.47901 0.12288 0.0
N972 N 0.93184 0.47571 0.16102 0.0
N973 N 0.9978 0.47675 0.09998 0.0
C974 C 0.06911 0.47324 0.12329 0.0
C975 C 0.03333 0.47274 0.15632 0.0
C976 C 0.02541 0.15013 0.05547 0.0
C977 C 0.09729 0.16358 0.05666 0.0
C978 C 0.05704 0.13278 0.05487 0.0
C979 C 0.16172 0.12815 0.05584 0.0
H980 H 0.94464 0.15302 0.0528 0.0
H981 H 0.99888 0.12292 0.05215 0.0
S982 S 0.3792 0.15854 0.06457 0.0
N983 N 0.27708 0.17112 0.06282 0.0
N984 N 0.3361 0.13854 0.06198 0.0
C985 C 0.23369 0.14145 0.05984 0.0
C986 C 0.20157 0.15914 0.06011 0.0
C987 C 0.22601 0.1499 0.24803 0.0
C988 C 0.15475 0.16349 0.2475 0.0
C989 C 0.19348 0.13261 0.24817 0.0
C990 C 0.08856 0.12824 0.2473 0.0
H991 H 0.30697 0.15259 0.25065 0.0
H992 H 0.25108 0.12259 0.25053 0.0
S993 S 0.87254 0.15914 0.23995 0.0
N994 N 0.97535 0.17149 0.24192 0.0
N995 N 0.9146 0.13903 0.24179 0.0
C996 C 0.0172 0.14171 0.24379 0.0
C997 C 0.05022 0.15932 0.24406 0.0
C998 C 0.80918 0.88268 0.99617 0.0
C999 C 0.91431 0.87838 0.99507 0.0
C1000 C 0.7757 0.89994 0.99556 0.0
C1001 C 0.84611 0.91361 0.99425 0.0
H1002 H 0.75211 0.87265 0.99894 0.0
H1003 H 0.69464 0.90257 0.99829 0.0
S1004 S 0.12839 0.90944 0.98598 0.0
N1005 N 0.08749 0.88931 0.98868 0.0
N1006 N 0.02497 0.9217 0.98785 0.0
C1007 C 0.95081 0.90949 0.99069 0.0
C1008 C 0.98481 0.8919 0.99097 0.0
C1009 C 0.94913 0.88255 0.80256 0.0
C1010 C 0.84447 0.87797 0.80341 0.0
C1011 C 0.98055 0.8999 0.80263 0.0
C1012 C 0.90841 0.91336 0.80314 0.0
H1013 H 0.0074 0.87265 0.80014 0.0
H1014 H 0.06129 0.90274 0.79989 0.0
S1015 S 0.62656 0.90847 0.81108 0.0
N1016 N 0.6699 0.88844 0.80915 0.0
N1017 N 0.72855 0.92101 0.80901 0.0
C1018 C 0.8042 0.90898 0.80677 0.0
C1019 C 0.7723 0.89131 0.80704 0.0
C1020 C 0.02481 0.65049 0.5573 0.0
C1021 C 0.09551 0.66413 0.55767 0.0
C1022 C 0.05804 0.63322 0.55803 0.0
C1023 C 0.16311 0.6289 0.55958 0.0
H1024 H 0.94395 0.65312 0.55404 0.0
H1025 H 0.00098 0.62315 0.55562 0.0
S1026 S 0.37737 0.66002 0.56709 0.0
N1027 N 0.27419 0.67228 0.56405 0.0
N1028 N 0.33625 0.63986 0.56576 0.0
C1029 C 0.23367 0.64245 0.56307 0.0
C1030 C 0.19995 0.66004 0.56195 0.0
C1031 C 0.05684 0.65884 0.74655 0.0
C1032 C 0.16195 0.66301 0.74456 0.0
C1033 C 0.02305 0.64161 0.74686 0.0
C1034 C 0.09322 0.62787 0.74565 0.0
H1035 H 1.00019 0.66897 0.74941 0.0
H1036 H 0.94222 0.63907 0.75032 0.0
S1037 S 0.37482 0.63161 0.73525 0.0
N1038 N 0.33447 0.65181 0.73736 0.0
N1039 N 0.27134 0.61949 0.73837 0.0
C1040 C 0.19764 0.63182 0.74118 0.0
C1041 C 0.23192 0.64937 0.74046 0.0
C1042 C 0.94261 0.40857 0.4929 0.0
C1043 C 0.83795 0.41321 0.49216 0.0
C1044 C 0.97417 0.39122 0.49169 0.0
C1045 C 0.9022 0.37779 0.4901 0.0
H1046 H 1.00081 0.41839 0.496 0.0
H1047 H 0.05488 0.3883 0.49438 0.0
S1048 S 0.62037 0.38296 0.48232 0.0
N1049 N 0.66354 0.40293 0.48558 0.0
N1050 N 0.72242 0.37034 0.48364 0.0
C1051 C 0.79798 0.38229 0.48671 0.0
C1052 C 0.76593 0.39998 0.4876 0.0
C1053 C 0.94464 0.38208 0.30007 0.0
C1054 C 0.83918 0.37812 0.30141 0.0
C1055 C 0.97973 0.39922 0.30108 0.0
C1056 C 0.91057 0.41308 0.30299 0.0
H1057 H 1.00062 0.37188 0.29674 0.0
H1058 H 0.06087 0.40163 0.29805 0.0
S1059 S 0.62832 0.40976 0.3121 0.0
N1060 N 0.66725 0.38953 0.30875 0.0
N1061 N 0.73281 0.42171 0.3102 0.0
C1062 C 0.80569 0.40928 0.30683 0.0
C1063 C 0.77007 0.39181 0.30621 0.0
C1064 C 0.7298 0.14178 0.55447 0.0
C1065 C 0.65899 0.1282 0.55667 0.0
C1066 C 0.69692 0.15908 0.55397 0.0
C1067 C 0.59208 0.16351 0.55605 0.0
H1068 H 0.81037 0.13903 0.55087 0.0
H1069 H 0.75408 0.16903 0.55043 0.0
S1070 S 0.3779 0.13272 0.56779 0.0
N1071 N 0.48062 0.12034 0.56502 0.0
N1072 N 0.41925 0.1528 0.56441 0.0
C1073 C 0.52154 0.15008 0.56111 0.0
C1074 C 0.55491 0.13246 0.56127 0.0
C1075 C 0.69652 0.13237 0.74881 0.0
C1076 C 0.59107 0.12839 0.74749 0.0
C1077 C 0.7314 0.14952 0.74834 0.0
C1078 C 0.66205 0.16338 0.74701 0.0
H1079 H 0.75262 0.12215 0.75175 0.0
H1080 H 0.81255 0.15193 0.75135 0.0
S1081 S 0.37974 0.16007 0.73812 0.0
N1082 N 0.41893 0.13982 0.74074 0.0
N1083 N 0.48412 0.17203 0.74029 0.0
C1084 C 0.55717 0.15959 0.74315 0.0
C1085 C 0.52176 0.14211 0.74322 0.0
C1086 C 0.43922 0.90896 0.48866 0.0
C1087 C 0.33361 0.91292 0.48906 0.0
C1088 C 0.47454 0.89181 0.48787 0.0
C1089 C 0.40553 0.87793 0.48796 0.0
H1090 H 0.49538 0.9192 0.49059 0.0
H1091 H 0.55613 0.88945 0.48966 0.0
S1092 S 0.12204 0.88117 0.48375 0.0
N1093 N 0.16099 0.90145 0.48536 0.0
N1094 N 0.22697 0.86923 0.48433 0.0
C1095 C 0.30004 0.8817 0.48572 0.0
C1096 C 0.26414 0.89918 0.4861 0.0
C1097 C 0.47948 0.899 0.30177 0.0
C1098 C 0.40883 0.9127 0.30195 0.0
C1099 C 0.4462 0.88176 0.30156 0.0
C1100 C 0.34108 0.87751 0.30204 0.0
H1101 H 0.56067 0.90159 0.29953 0.0
H1102 H 0.50344 0.87166 0.29952 0.0
S1103 S 0.12609 0.9087 0.30809 0.0
N1104 N 0.22951 0.92092 0.30654 0.0
N1105 N 0.16736 0.88853 0.3066 0.0
C1106 C 0.27016 0.89108 0.30509 0.0
C1107 C 0.30396 0.90866 0.30486 0.0
C1108 C 0.69719 0.65844 0.05266 0.0
C1109 C 0.59222 0.66287 0.0531 0.0
C1110 C 0.72992 0.64115 0.05392 0.0
C1111 C 0.65889 0.62757 0.05524 0.0
H1112 H 0.7548 0.66838 0.04987 0.0
H1113 H 0.81098 0.63841 0.05164 0.0
S1114 S 0.37639 0.63215 0.06195 0.0
N1115 N 0.4183 0.65221 0.05891 0.0
N1116 N 0.47936 0.61975 0.06096 0.0
C1117 C 0.55419 0.63184 0.05818 0.0
C1118 C 0.52095 0.64947 0.05725 0.0
C1119 C 0.73257 0.6491 0.24318 0.0
C1120 C 0.66219 0.66282 0.2423 0.0
C1121 C 0.69892 0.63187 0.24347 0.0
C1122 C 0.59374 0.6277 0.24244 0.0
H1123 H 0.8136 0.65165 0.24607 0.0
H1124 H 0.75574 0.62176 0.24627 0.0
S1125 S 0.37992 0.65894 0.23394 0.0
N1126 N 0.48346 0.67111 0.23598 0.0
N1127 N 0.42065 0.63876 0.23622 0.0
C1128 C 0.52337 0.64127 0.23842 0.0
C1129 C 0.55751 0.65882 0.2385 0.0
C1130 C 0.44792 0.40843 0.99488 0.0
C1131 C 0.34303 0.41292 0.9942 0.0
C1132 C 0.48038 0.39113 0.99398 0.0
C1133 C 0.40917 0.37757 0.9928 0.0
H1134 H 0.50567 0.41836 0.99755 0.0
H1135 H 0.56138 0.38836 0.99638 0.0
S1136 S 0.1268 0.38227 0.98571 0.0
N1137 N 0.16901 0.40231 0.98842 0.0
N1138 N 0.22954 0.36982 0.98703 0.0
C1139 C 0.30456 0.38188 0.98969 0.0
C1140 C 0.27161 0.39953 0.99025 0.0
C1141 C 0.48162 0.39952 0.80497 0.0
C1142 C 0.4118 0.41331 0.80609 0.0
C1143 C 0.44723 0.38234 0.80458 0.0
C1144 C 0.34191 0.37829 0.80577 0.0
H1145 H 0.56268 0.40199 0.80191 0.0
H1146 H 0.50354 0.37216 0.80156 0.0
S1147 S 0.12958 0.40976 0.81493 0.0
N1148 N 0.2336 0.42182 0.81278 0.0
N1149 N 0.1694 0.38954 0.81244 0.0
C1150 C 0.27217 0.39193 0.81007 0.0
C1151 C 0.30706 0.40944 0.81006 0.0
loop_
_geom_bond_atom_site_label_1
_geom_bond_atom_site_label_2
_geom_bond_distance
_geom_bond_site_symmetry_2
_ccdc_geom_bond_type
O0 Cd1 2.223 . S
O0 C8 1.315 . S
Cd1 O0 2.223 . S
Cd1 O4 2.297 . S
Cd1 O5 2.439 1_556 S
Cd1 O11 2.240 1_556 S
Cd2 O3 2.265 . S
Cd2 O10 2.231 . S
Cd2 O12 2.266 1_556 S
Cd2 O13 2.405 1_556 S
O3 Cd2 2.265 . S
O3 C8 1.279 . S
O4 Cd1 2.297 . S
O4 C6 1.247 . S
O5 Cd1 2.439 1_554 S
O5 C6 1.208 1_554 S
C6 O4 1.247 . S
C6 O5 1.208 1_556 S
C7 O12 1.247 . S
C7 O13 1.208 . S
C8 O0 1.315 . S
C8 O3 1.279 . S
C9 O10 1.315 . S
C9 O11 1.279 1_556 S
O10 Cd2 2.231 . S
O10 C9 1.315 . S
O11 Cd1 2.240 1_554 S
O11 C9 1.279 1_554 S
O12 Cd2 2.266 1_554 S
O12 C7 1.247 . S
O13 Cd2 2.405 1_554 S
O13 C7 1.208 . S
O14 Cd15 2.223 . S
O14 C22 1.315 . S
Cd15 O14 2.223 . S
Cd15 O18 2.297 . S
Cd15 O19 2.439 1_556 S
Cd15 O25 2.240 1_556 S
Cd16 O17 2.265 1_455 S
Cd16 O24 2.231 . S
Cd16 O26 2.266 1_556 S
Cd16 O27 2.405 1_556 S
O17 Cd16 2.265 1_655 S
O17 C22 1.279 . S
O18 Cd15 2.297 . S
O18 C20 1.247 . S
O19 Cd15 2.439 1_554 S
O19 C20 1.208 1_554 S
C20 O18 1.247 . S
C20 O19 1.208 1_556 S
C21 O26 1.247 . S
C21 O27 1.208 . S
C22 O14 1.315 . S
C22 O17 1.279 . S
C23 O24 1.315 1_655 S
C23 O25 1.279 1_556 S
O24 Cd16 2.231 . S
O24 C23 1.315 1_455 S
O25 Cd15 2.240 1_554 S
O25 C23 1.279 1_554 S
O26 Cd16 2.266 1_554 S
O26 C21 1.247 . S
O27 Cd16 2.405 1_554 S
O27 C21 1.208 . S
O28 Cd29 2.223 . S
O28 C36 1.315 . S
Cd29 O28 2.223 . S
Cd29 O32 2.297 . S
Cd29 O33 2.439 . S
Cd29 O39 2.240 . S
Cd30 O31 2.240 . S
Cd30 O38 2.223 . S
Cd30 O40 2.297 . S
Cd30 O41 2.439 . S
O31 Cd30 2.240 . S
O31 C36 1.279 . S
O32 Cd29 2.297 . S
O32 C34 1.247 . S
O33 Cd29 2.439 . S
O33 C34 1.208 . S
C34 O32 1.247 . S
C34 O33 1.208 . S
C35 O40 1.247 . S
C35 O41 1.208 . S
C36 O28 1.315 . S
C36 O31 1.279 . S
C37 O38 1.315 . S
C37 O39 1.279 . S
O38 Cd30 2.223 . S
O38 C37 1.315 . S
O39 Cd29 2.240 . S
O39 C37 1.279 . S
O40 Cd30 2.297 . S
O40 C35 1.247 . S
O41 Cd30 2.439 . S
O41 C35 1.208 . S
O42 Cd43 2.223 . S
O42 C50 1.315 . S
Cd43 O42 2.223 . S
Cd43 O46 2.297 . S
Cd43 O47 2.439 . S
Cd43 O53 2.240 . S
Cd44 O45 2.240 1_455 S
Cd44 O52 2.223 . S
Cd44 O54 2.297 . S
Cd44 O55 2.439 . S
O45 Cd44 2.240 1_655 S
O45 C50 1.279 . S
O46 Cd43 2.297 . S
O46 C48 1.247 . S
O47 Cd43 2.439 . S
O47 C48 1.208 . S
C48 O46 1.247 . S
C48 O47 1.208 . S
C49 O54 1.247 . S
C49 O55 1.208 . S
C50 O42 1.315 . S
C50 O45 1.279 . S
C51 O52 1.315 1_655 S
C51 O53 1.279 . S
O52 Cd44 2.223 . S
O52 C51 1.315 1_455 S
O53 Cd43 2.240 . S
O53 C51 1.279 . S
O54 Cd44 2.297 . S
O54 C49 1.247 . S
O55 Cd44 2.439 . S
O55 C49 1.208 . S
O56 Cd57 2.223 . S
O56 C64 1.315 . S
Cd57 O56 2.223 . S
Cd57 O60 2.297 . S
Cd57 O61 2.439 1_554 S
Cd57 O67 2.240 1_554 S
Cd58 O59 2.265 . S
Cd58 O66 2.231 . S
Cd58 O68 2.266 1_554 S
Cd58 O69 2.405 1_554 S
O59 Cd58 2.265 . S
O59 C64 1.279 . S
O60 Cd57 2.297 . S
O60 C62 1.247 . S
O61 Cd57 2.439 1_556 S
O61 C62 1.208 1_556 S
C62 O60 1.247 . S
C62 O61 1.208 1_554 S
C63 O68 1.247 . S
C63 O69 1.208 . S
C64 O56 1.315 . S
C64 O59 1.279 . S
C65 O66 1.315 . S
C65 O67 1.279 1_554 S
O66 Cd58 2.231 . S
O66 C65 1.315 . S
O67 Cd57 2.240 1_556 S
O67 C65 1.279 1_556 S
O68 Cd58 2.266 1_556 S
O68 C63 1.247 . S
O69 Cd58 2.405 1_556 S
O69 C63 1.208 . S
O70 Cd71 2.223 . S
O70 C78 1.315 . S
Cd71 O70 2.223 . S
Cd71 O74 2.297 . S
Cd71 O75 2.439 1_554 S
Cd71 O81 2.240 1_554 S
Cd72 O73 2.265 1_655 S
Cd72 O80 2.231 . S
Cd72 O82 2.266 1_554 S
Cd72 O83 2.405 1_554 S
O73 Cd72 2.265 1_455 S
O73 C78 1.279 . S
O74 Cd71 2.297 . S
O74 C76 1.247 . S
O75 Cd71 2.439 1_556 S
O75 C76 1.208 1_556 S
C76 O74 1.247 . S
C76 O75 1.208 1_554 S
C77 O82 1.247 . S
C77 O83 1.208 . S
C78 O70 1.315 . S
C78 O73 1.279 . S
C79 O80 1.315 1_455 S
C79 O81 1.279 1_554 S
O80 Cd72 2.231 . S
O80 C79 1.315 1_655 S
O81 Cd71 2.240 1_556 S
O81 C79 1.279 1_556 S
O82 Cd72 2.266 1_556 S
O82 C77 1.247 . S
O83 Cd72 2.405 1_556 S
O83 C77 1.208 . S
O84 Cd85 2.223 . S
O84 C92 1.315 . S
Cd85 O84 2.223 . S
Cd85 O88 2.297 . S
Cd85 O89 2.439 . S
Cd85 O95 2.240 . S
Cd86 O87 2.240 . S
Cd86 O94 2.223 . S
Cd86 O96 2.297 . S
Cd86 O97 2.439 . S
O87 Cd86 2.240 . S
O87 C92 1.279 . S
O88 Cd85 2.297 . S
O88 C90 1.247 . S
O89 Cd85 2.439 . S
O89 C90 1.208 . S
C90 O88 1.247 . S
C90 O89 1.208 . S
C91 O96 1.247 . S
C91 O97 1.208 . S
C92 O84 1.315 . S
C92 O87 1.279 . S
C93 O94 1.315 . S
C93 O95 1.279 . S
O94 Cd86 2.223 . S
O94 C93 1.315 . S
O95 Cd85 2.240 . S
O95 C93 1.279 . S
O96 Cd86 2.297 . S
O96 C91 1.247 . S
O97 Cd86 2.439 . S
O97 C91 1.208 . S
O98 Cd99 2.223 . S
O98 C106 1.315 . S
Cd99 O98 2.223 . S
Cd99 O102 2.297 . S
Cd99 O103 2.439 . S
Cd99 O109 2.240 . S
Cd100 O101 2.240 1_655 S
Cd100 O108 2.223 . S
Cd100 O110 2.297 . S
Cd100 O111 2.439 . S
O101 Cd100 2.240 1_455 S
O101 C106 1.279 . S
O102 Cd99 2.297 . S
O102 C104 1.247 . S
O103 Cd99 2.439 . S
O103 C104 1.208 . S
C104 O102 1.247 . S
C104 O103 1.208 . S
C105 O110 1.247 . S
C105 O111 1.208 . S
C106 O98 1.315 . S
C106 O101 1.279 . S
C107 O108 1.315 1_455 S
C107 O109 1.279 . S
O108 Cd100 2.223 . S
O108 C107 1.315 1_655 S
O109 Cd99 2.240 . S
O109 C107 1.279 . S
O110 Cd100 2.297 . S
O110 C105 1.247 . S
O111 Cd100 2.439 . S
O111 C105 1.208 . S
O112 Cd113 2.223 . S
O112 C120 1.315 . S
Cd113 O112 2.223 . S
Cd113 O116 2.297 . S
Cd113 O117 2.439 . S
Cd113 O123 2.240 . S
Cd114 O115 2.240 . S
Cd114 O122 2.223 . S
Cd114 O124 2.297 . S
Cd114 O125 2.439 . S
O115 Cd114 2.240 . S
O115 C120 1.279 . S
O116 Cd113 2.297 . S
O116 C118 1.247 . S
O117 Cd113 2.439 . S
O117 C118 1.208 . S
C118 O116 1.247 . S
C118 O117 1.208 . S
C119 O124 1.247 . S
C119 O125 1.208 . S
C120 O112 1.315 . S
C120 O115 1.279 . S
C121 O122 1.315 . S
C121 O123 1.279 . S
O122 Cd114 2.223 . S
O122 C121 1.315 . S
O123 Cd113 2.240 . S
O123 C121 1.279 . S
O124 Cd114 2.297 . S
O124 C119 1.247 . S
O125 Cd114 2.439 . S
O125 C119 1.208 . S
O126 Cd127 2.223 . S
O126 C134 1.315 . S
Cd127 O126 2.223 . S
Cd127 O130 2.297 . S
Cd127 O131 2.439 . S
Cd127 O137 2.240 . S
Cd128 O129 2.240 1_455 S
Cd128 O136 2.223 . S
Cd128 O138 2.297 . S
Cd128 O139 2.439 . S
O129 Cd128 2.240 1_655 S
O129 C134 1.279 . S
O130 Cd127 2.297 . S
O130 C132 1.247 . S
O131 Cd127 2.439 . S
O131 C132 1.208 . S
C132 O130 1.247 . S
C132 O131 1.208 . S
C133 O138 1.247 . S
C133 O139 1.208 . S
C134 O126 1.315 . S
C134 O129 1.279 . S
C135 O136 1.315 1_655 S
C135 O137 1.279 . S
O136 Cd128 2.223 . S
O136 C135 1.315 1_455 S
O137 Cd127 2.240 . S
O137 C135 1.279 . S
O138 Cd128 2.297 . S
O138 C133 1.247 . S
O139 Cd128 2.439 . S
O139 C133 1.208 . S
O140 Cd141 2.223 . S
O140 C148 1.315 . S
Cd141 O140 2.223 . S
Cd141 O144 2.297 . S
Cd141 O145 2.439 . S
Cd141 O151 2.240 . S
Cd142 O143 2.240 . S
Cd142 O150 2.223 . S
Cd142 O152 2.297 . S
Cd142 O153 2.439 . S
O143 Cd142 2.240 . S
O143 C148 1.279 . S
O144 Cd141 2.297 . S
O144 C146 1.247 . S
O145 Cd141 2.439 . S
O145 C146 1.208 . S
C146 O144 1.247 . S
C146 O145 1.208 . S
C147 O152 1.247 . S
C147 O153 1.208 . S
C148 O140 1.315 . S
C148 O143 1.279 . S
C149 O150 1.315 . S
C149 O151 1.279 . S
O150 Cd142 2.223 . S
O150 C149 1.315 . S
O151 Cd141 2.240 . S
O151 C149 1.279 . S
O152 Cd142 2.297 . S
O152 C147 1.247 . S
O153 Cd142 2.439 . S
O153 C147 1.208 . S
O154 Cd155 2.223 . S
O154 C162 1.315 . S
Cd155 O154 2.223 . S
Cd155 O158 2.297 . S
Cd155 O159 2.439 . S
Cd155 O165 2.240 . S
Cd156 O157 2.240 1_455 S
Cd156 O164 2.223 . S
Cd156 O166 2.297 . S
Cd156 O167 2.439 . S
O157 Cd156 2.240 1_655 S
O157 C162 1.279 . S
O158 Cd155 2.297 . S
O158 C160 1.247 . S
O159 Cd155 2.439 . S
O159 C160 1.208 . S
C160 O158 1.247 . S
C160 O159 1.208 . S
C161 O166 1.247 . S
C161 O167 1.208 . S
C162 O154 1.315 . S
C162 O157 1.279 . S
C163 O164 1.315 1_655 S
C163 O165 1.279 . S
O164 Cd156 2.223 . S
O164 C163 1.315 1_455 S
O165 Cd155 2.240 . S
O165 C163 1.279 . S
O166 Cd156 2.297 . S
O166 C161 1.247 . S
O167 Cd156 2.439 . S
O167 C161 1.208 . S
O168 Cd169 2.223 . S
O168 C176 1.315 . S
Cd169 O168 2.223 . S
Cd169 O172 2.297 . S
Cd169 O173 2.439 . S
Cd169 O179 2.240 . S
Cd170 O171 2.240 . S
Cd170 O178 2.223 . S
Cd170 O180 2.297 . S
Cd170 O181 2.439 . S
O171 Cd170 2.240 . S
O171 C176 1.279 . S
O172 Cd169 2.297 . S
O172 C174 1.247 . S
O173 Cd169 2.439 . S
O173 C174 1.208 . S
C174 O172 1.247 . S
C174 O173 1.208 . S
C175 O180 1.247 . S
C175 O181 1.208 . S
C176 O168 1.315 . S
C176 O171 1.279 . S
C177 O178 1.315 . S
C177 O179 1.279 . S
O178 Cd170 2.223 . S
O178 C177 1.315 . S
O179 Cd169 2.240 . S
O179 C177 1.279 . S
O180 Cd170 2.297 . S
O180 C175 1.247 . S
O181 Cd170 2.439 . S
O181 C175 1.208 . S
O182 Cd183 2.223 . S
O182 C190 1.315 . S
Cd183 O182 2.223 . S
Cd183 O186 2.297 . S
Cd183 O187 2.439 . S
Cd183 O193 2.240 . S
Cd184 O185 2.240 1_655 S
Cd184 O192 2.223 . S
Cd184 O194 2.297 . S
Cd184 O195 2.439 . S
O185 Cd184 2.240 1_455 S
O185 C190 1.279 . S
O186 Cd183 2.297 . S
O186 C188 1.247 . S
O187 Cd183 2.439 . S
O187 C188 1.208 . S
C188 O186 1.247 . S
C188 O187 1.208 . S
C189 O194 1.247 . S
C189 O195 1.208 . S
C190 O182 1.315 . S
C190 O185 1.279 . S
C191 O192 1.315 1_455 S
C191 O193 1.279 . S
O192 Cd184 2.223 . S
O192 C191 1.315 1_655 S
O193 Cd183 2.240 . S
O193 C191 1.279 . S
O194 Cd184 2.297 . S
O194 C189 1.247 . S
O195 Cd184 2.439 . S
O195 C189 1.208 . S
O196 Cd197 2.223 . S
O196 C204 1.315 . S
Cd197 O196 2.223 . S
Cd197 O200 2.297 . S
Cd197 O201 2.439 . S
Cd197 O207 2.240 . S
Cd198 O199 2.240 . S
Cd198 O206 2.223 . S
Cd198 O208 2.297 . S
Cd198 O209 2.439 . S
O199 Cd198 2.240 . S
O199 C204 1.279 . S
O200 Cd197 2.297 . S
O200 C202 1.247 . S
O201 Cd197 2.439 . S
O201 C202 1.208 . S
C202 O200 1.247 . S
C202 O201 1.208 . S
C203 O208 1.247 . S
C203 O209 1.208 . S
C204 O196 1.315 . S
C204 O199 1.279 . S
C205 O206 1.315 . S
C205 O207 1.279 . S
O206 Cd198 2.223 . S
O206 C205 1.315 . S
O207 Cd197 2.240 . S
O207 C205 1.279 . S
O208 Cd198 2.297 . S
O208 C203 1.247 . S
O209 Cd198 2.439 . S
O209 C203 1.208 . S
O210 Cd211 2.223 . S
O210 C218 1.315 . S
Cd211 O210 2.223 . S
Cd211 O214 2.297 . S
Cd211 O215 2.439 . S
Cd211 O221 2.240 . S
Cd212 O213 2.240 1_655 S
Cd212 O220 2.223 . S
Cd212 O222 2.297 . S
Cd212 O223 2.439 . S
O213 Cd212 2.240 1_455 S
O213 C218 1.279 . S
O214 Cd211 2.297 . S
O214 C216 1.247 . S
O215 Cd211 2.439 . S
O215 C216 1.208 . S
C216 O214 1.247 . S
C216 O215 1.208 . S
C217 O222 1.247 . S
C217 O223 1.208 . S
C218 O210 1.315 . S
C218 O213 1.279 . S
C219 O220 1.315 1_455 S
C219 O221 1.279 . S
O220 Cd212 2.223 . S
O220 C219 1.315 1_655 S
O221 Cd211 2.240 . S
O221 C219 1.279 . S
O222 Cd212 2.297 . S
O222 C217 1.247 . S
O223 Cd212 2.439 . S
O223 C217 1.208 . S
O224 Cd225 2.223 . S
O224 C232 1.315 . S
Cd225 O224 2.223 . S
Cd225 O228 2.297 1_655 S
Cd225 O229 2.439 . S
Cd225 O235 2.240 . S
Cd226 O227 2.240 . S
Cd226 O234 2.223 . S
Cd226 O236 2.297 . S
Cd226 O237 2.439 . S
O227 Cd226 2.240 . S
O227 C232 1.279 . S
O228 Cd225 2.297 1_455 S
O228 C230 1.247 . S
O229 Cd225 2.439 . S
O229 C230 1.208 1_655 S
C230 O228 1.247 . S
C230 O229 1.208 1_455 S
C231 O236 1.247 . S
C231 O237 1.208 . S
C232 O224 1.315 . S
C232 O227 1.279 . S
C233 O234 1.315 . S
C233 O235 1.279 . S
O234 Cd226 2.223 . S
O234 C233 1.315 . S
O235 Cd225 2.240 . S
O235 C233 1.279 . S
O236 Cd226 2.297 . S
O236 C231 1.247 . S
O237 Cd226 2.439 . S
O237 C231 1.208 . S
O238 Cd239 2.223 . S
O238 C246 1.315 . S
Cd239 O238 2.223 . S
Cd239 O242 2.297 . S
Cd239 O243 2.439 . S
Cd239 O249 2.240 . S
Cd240 O241 2.240 . S
Cd240 O248 2.223 . S
Cd240 O250 2.297 . S
Cd240 O251 2.439 . S
O241 Cd240 2.240 . S
O241 C246 1.279 . S
O242 Cd239 2.297 . S
O242 C244 1.247 . S
O243 Cd239 2.439 . S
O243 C244 1.208 . S
C244 O242 1.247 . S
C244 O243 1.208 . S
C245 O250 1.247 . S
C245 O251 1.208 . S
C246 O238 1.315 . S
C246 O241 1.279 . S
C247 O248 1.315 . S
C247 O249 1.279 . S
O248 Cd240 2.223 . S
O248 C247 1.315 . S
O249 Cd239 2.240 . S
O249 C247 1.279 . S
O250 Cd240 2.297 . S
O250 C245 1.247 . S
O251 Cd240 2.439 . S
O251 C245 1.208 . S
O252 Cd253 2.223 . S
O252 C260 1.315 . S
Cd253 O252 2.223 . S
Cd253 O256 2.297 1_655 S
Cd253 O257 2.439 . S
Cd253 O263 2.240 . S
Cd254 O255 2.240 . S
Cd254 O262 2.223 . S
Cd254 O264 2.297 . S
Cd254 O265 2.439 . S
O255 Cd254 2.240 . S
O255 C260 1.279 . S
O256 Cd253 2.297 1_455 S
O256 C258 1.247 . S
O257 Cd253 2.439 . S
O257 C258 1.208 1_655 S
C258 O256 1.247 . S
C258 O257 1.208 1_455 S
C259 O264 1.247 . S
C259 O265 1.208 . S
C260 O252 1.315 . S
C260 O255 1.279 . S
C261 O262 1.315 . S
C261 O263 1.279 . S
O262 Cd254 2.223 . S
O262 C261 1.315 . S
O263 Cd253 2.240 . S
O263 C261 1.279 . S
O264 Cd254 2.297 . S
O264 C259 1.247 . S
O265 Cd254 2.439 . S
O265 C259 1.208 . S
O266 Cd267 2.223 . S
O266 C274 1.315 . S
Cd267 O266 2.223 . S
Cd267 O270 2.297 . S
Cd267 O271 2.439 . S
Cd267 O277 2.240 . S
Cd268 O269 2.240 . S
Cd268 O276 2.223 . S
Cd268 O278 2.297 . S
Cd268 O279 2.439 . S
O269 Cd268 2.240 . S
O269 C274 1.279 . S
O270 Cd267 2.297 . S
O270 C272 1.247 . S
O271 Cd267 2.439 . S
O271 C272 1.208 . S
C272 O270 1.247 . S
C272 O271 1.208 . S
C273 O278 1.247 . S
C273 O279 1.208 . S
C274 O266 1.315 . S
C274 O269 1.279 . S
C275 O276 1.315 . S
C275 O277 1.279 . S
O276 Cd268 2.223 . S
O276 C275 1.315 . S
O277 Cd267 2.240 . S
O277 C275 1.279 . S
O278 Cd268 2.297 . S
O278 C273 1.247 . S
O279 Cd268 2.439 . S
O279 C273 1.208 . S
O280 Cd281 2.223 . S
O280 C288 1.315 . S
Cd281 O280 2.223 . S
Cd281 O284 2.297 1_455 S
Cd281 O285 2.439 . S
Cd281 O291 2.240 . S
Cd282 O283 2.240 . S
Cd282 O290 2.223 . S
Cd282 O292 2.297 . S
Cd282 O293 2.439 . S
O283 Cd282 2.240 . S
O283 C288 1.279 . S
O284 Cd281 2.297 1_655 S
O284 C286 1.247 . S
O285 Cd281 2.439 . S
O285 C286 1.208 1_455 S
C286 O284 1.247 . S
C286 O285 1.208 1_655 S
C287 O292 1.247 . S
C287 O293 1.208 . S
C288 O280 1.315 . S
C288 O283 1.279 . S
C289 O290 1.315 . S
C289 O291 1.279 . S
O290 Cd282 2.223 . S
O290 C289 1.315 . S
O291 Cd281 2.240 . S
O291 C289 1.279 . S
O292 Cd282 2.297 . S
O292 C287 1.247 . S
O293 Cd282 2.439 . S
O293 C287 1.208 . S
O294 Cd295 2.223 . S
O294 C302 1.315 . S
Cd295 O294 2.223 . S
Cd295 O298 2.297 . S
Cd295 O299 2.439 . S
Cd295 O305 2.240 . S
Cd296 O297 2.240 . S
Cd296 O304 2.223 . S
Cd296 O306 2.297 . S
Cd296 O307 2.439 . S
O297 Cd296 2.240 . S
O297 C302 1.279 . S
O298 Cd295 2.297 . S
O298 C300 1.247 . S
O299 Cd295 2.439 . S
O299 C300 1.208 . S
C300 O298 1.247 . S
C300 O299 1.208 . S
C301 O306 1.247 . S
C301 O307 1.208 . S
C302 O294 1.315 . S
C302 O297 1.279 . S
C303 O304 1.315 . S
C303 O305 1.279 . S
O304 Cd296 2.223 . S
O304 C303 1.315 . S
O305 Cd295 2.240 . S
O305 C303 1.279 . S
O306 Cd296 2.297 . S
O306 C301 1.247 . S
O307 Cd296 2.439 . S
O307 C301 1.208 . S
O308 Cd309 2.223 . S
O308 C316 1.315 . S
Cd309 O308 2.223 . S
Cd309 O312 2.297 1_455 S
Cd309 O313 2.439 . S
Cd309 O319 2.240 . S
Cd310 O311 2.240 . S
Cd310 O318 2.223 . S
Cd310 O320 2.297 . S
Cd310 O321 2.439 . S
O311 Cd310 2.240 . S
O311 C316 1.279 . S
O312 Cd309 2.297 1_655 S
O312 C314 1.247 . S
O313 Cd309 2.439 . S
O313 C314 1.208 1_455 S
C314 O312 1.247 . S
C314 O313 1.208 1_655 S
C315 O320 1.247 . S
C315 O321 1.208 . S
C316 O308 1.315 . S
C316 O311 1.279 . S
C317 O318 1.315 . S
C317 O319 1.279 . S
O318 Cd310 2.223 . S
O318 C317 1.315 . S
O319 Cd309 2.240 . S
O319 C317 1.279 . S
O320 Cd310 2.297 . S
O320 C315 1.247 . S
O321 Cd310 2.439 . S
O321 C315 1.208 . S
O322 Cd323 2.223 . S
O322 C330 1.315 . S
Cd323 O322 2.223 . S
Cd323 O326 2.297 . S
Cd323 O327 2.439 . S
Cd323 O333 2.240 . S
Cd324 O325 2.240 . S
Cd324 O332 2.223 . S
Cd324 O334 2.297 . S
Cd324 O335 2.439 . S
O325 Cd324 2.240 . S
O325 C330 1.279 . S
O326 Cd323 2.297 . S
O326 C328 1.247 . S
O327 Cd323 2.439 . S
O327 C328 1.208 . S
C328 O326 1.247 . S
C328 O327 1.208 . S
C329 O334 1.247 . S
C329 O335 1.208 . S
C330 O322 1.315 . S
C330 O325 1.279 . S
C331 O332 1.315 . S
C331 O333 1.279 . S
O332 Cd324 2.223 . S
O332 C331 1.315 . S
O333 Cd323 2.240 . S
O333 C331 1.279 . S
O334 Cd324 2.297 . S
O334 C329 1.247 . S
O335 Cd324 2.439 . S
O335 C329 1.208 . S
O336 Cd337 2.223 . S
O336 C344 1.315 . S
Cd337 O336 2.223 . S
Cd337 O340 2.297 1_655 S
Cd337 O341 2.439 1_556 S
Cd337 O347 2.240 1_556 S
Cd338 O339 2.265 . S
Cd338 O346 2.231 . S
Cd338 O348 2.266 1_556 S
Cd338 O349 2.405 1_556 S
O339 Cd338 2.265 . S
O339 C344 1.279 . S
O340 Cd337 2.297 1_455 S
O340 C342 1.247 . S
O341 Cd337 2.439 1_554 S
O341 C342 1.208 1_654 S
C342 O340 1.247 . S
C342 O341 1.208 1_456 S
C343 O348 1.247 . S
C343 O349 1.208 . S
C344 O336 1.315 . S
C344 O339 1.279 . S
C345 O346 1.315 . S
C345 O347 1.279 1_556 S
O346 Cd338 2.231 . S
O346 C345 1.315 . S
O347 Cd337 2.240 1_554 S
O347 C345 1.279 1_554 S
O348 Cd338 2.266 1_554 S
O348 C343 1.247 . S
O349 Cd338 2.405 1_554 S
O349 C343 1.208 . S
O350 Cd351 2.223 . S
O350 C358 1.315 . S
Cd351 O350 2.223 . S
Cd351 O354 2.297 . S
Cd351 O355 2.439 1_556 S
Cd351 O361 2.240 1_556 S
Cd352 O353 2.265 . S
Cd352 O360 2.231 . S
Cd352 O362 2.266 1_556 S
Cd352 O363 2.405 1_556 S
O353 Cd352 2.265 . S
O353 C358 1.279 . S
O354 Cd351 2.297 . S
O354 C356 1.247 . S
O355 Cd351 2.439 1_554 S
O355 C356 1.208 1_554 S
C356 O354 1.247 . S
C356 O355 1.208 1_556 S
C357 O362 1.247 . S
C357 O363 1.208 . S
C358 O350 1.315 . S
C358 O353 1.279 . S
C359 O360 1.315 . S
C359 O361 1.279 1_556 S
O360 Cd352 2.231 . S
O360 C359 1.315 . S
O361 Cd351 2.240 1_554 S
O361 C359 1.279 1_554 S
O362 Cd352 2.266 1_554 S
O362 C357 1.247 . S
O363 Cd352 2.405 1_554 S
O363 C357 1.208 . S
O364 Cd365 2.223 . S
O364 C372 1.315 . S
Cd365 O364 2.223 . S
Cd365 O368 2.297 1_655 S
Cd365 O369 2.439 . S
Cd365 O375 2.240 . S
Cd366 O367 2.240 . S
Cd366 O374 2.223 . S
Cd366 O376 2.297 . S
Cd366 O377 2.439 . S
O367 Cd366 2.240 . S
O367 C372 1.279 . S
O368 Cd365 2.297 1_455 S
O368 C370 1.247 . S
O369 Cd365 2.439 . S
O369 C370 1.208 1_655 S
C370 O368 1.247 . S
C370 O369 1.208 1_455 S
C371 O376 1.247 . S
C371 O377 1.208 . S
C372 O364 1.315 . S
C372 O367 1.279 . S
C373 O374 1.315 . S
C373 O375 1.279 . S
O374 Cd366 2.223 . S
O374 C373 1.315 . S
O375 Cd365 2.240 . S
O375 C373 1.279 . S
O376 Cd366 2.297 . S
O376 C371 1.247 . S
O377 Cd366 2.439 . S
O377 C371 1.208 . S
O378 Cd379 2.223 . S
O378 C386 1.315 . S
Cd379 O378 2.223 . S
Cd379 O382 2.297 . S
Cd379 O383 2.439 . S
Cd379 O389 2.240 . S
Cd380 O381 2.240 . S
Cd380 O388 2.223 . S
Cd380 O390 2.297 . S
Cd380 O391 2.439 . S
O381 Cd380 2.240 . S
O381 C386 1.279 . S
O382 Cd379 2.297 . S
O382 C384 1.247 . S
O383 Cd379 2.439 . S
O383 C384 1.208 . S
C384 O382 1.247 . S
C384 O383 1.208 . S
C385 O390 1.247 . S
C385 O391 1.208 . S
C386 O378 1.315 . S
C386 O381 1.279 . S
C387 O388 1.315 . S
C387 O389 1.279 . S
O388 Cd380 2.223 . S
O388 C387 1.315 . S
O389 Cd379 2.240 . S
O389 C387 1.279 . S
O390 Cd380 2.297 . S
O390 C385 1.247 . S
O391 Cd380 2.439 . S
O391 C385 1.208 . S
O392 Cd393 2.223 . S
O392 C400 1.315 . S
Cd393 O392 2.223 . S
Cd393 O396 2.297 1_455 S
Cd393 O397 2.439 1_554 S
Cd393 O403 2.240 1_554 S
Cd394 O395 2.265 . S
Cd394 O402 2.231 . S
Cd394 O404 2.266 1_554 S
Cd394 O405 2.405 1_554 S
O395 Cd394 2.265 . S
O395 C400 1.279 . S
O396 Cd393 2.297 1_655 S
O396 C398 1.247 . S
O397 Cd393 2.439 1_556 S
O397 C398 1.208 1_456 S
C398 O396 1.247 . S
C398 O397 1.208 1_654 S
C399 O404 1.247 . S
C399 O405 1.208 . S
C400 O392 1.315 . S
C400 O395 1.279 . S
C401 O402 1.315 . S
C401 O403 1.279 1_554 S
O402 Cd394 2.231 . S
O402 C401 1.315 . S
O403 Cd393 2.240 1_556 S
O403 C401 1.279 1_556 S
O404 Cd394 2.266 1_556 S
O404 C399 1.247 . S
O405 Cd394 2.405 1_556 S
O405 C399 1.208 . S
O406 Cd407 2.223 . S
O406 C414 1.315 . S
Cd407 O406 2.223 . S
Cd407 O410 2.297 . S
Cd407 O411 2.439 1_554 S
Cd407 O417 2.240 1_554 S
Cd408 O409 2.265 . S
Cd408 O416 2.231 . S
Cd408 O418 2.266 1_554 S
Cd408 O419 2.405 1_554 S
O409 Cd408 2.265 . S
O409 C414 1.279 . S
O410 Cd407 2.297 . S
O410 C412 1.247 . S
O411 Cd407 2.439 1_556 S
O411 C412 1.208 1_556 S
C412 O410 1.247 . S
C412 O411 1.208 1_554 S
C413 O418 1.247 . S
C413 O419 1.208 . S
C414 O406 1.315 . S
C414 O409 1.279 . S
C415 O416 1.315 . S
C415 O417 1.279 1_554 S
O416 Cd408 2.231 . S
O416 C415 1.315 . S
O417 Cd407 2.240 1_556 S
O417 C415 1.279 1_556 S
O418 Cd408 2.266 1_556 S
O418 C413 1.247 . S
O419 Cd408 2.405 1_556 S
O419 C413 1.208 . S
O420 Cd421 2.223 . S
O420 C428 1.315 . S
Cd421 O420 2.223 . S
Cd421 O424 2.297 1_455 S
Cd421 O425 2.439 . S
Cd421 O431 2.240 . S
Cd422 O423 2.240 . S
Cd422 O430 2.223 . S
Cd422 O432 2.297 . S
Cd422 O433 2.439 . S
O423 Cd422 2.240 . S
O423 C428 1.279 . S
O424 Cd421 2.297 1_655 S
O424 C426 1.247 . S
O425 Cd421 2.439 . S
O425 C426 1.208 1_455 S
C426 O424 1.247 . S
C426 O425 1.208 1_655 S
C427 O432 1.247 . S
C427 O433 1.208 . S
C428 O420 1.315 . S
C428 O423 1.279 . S
C429 O430 1.315 . S
C429 O431 1.279 . S
O430 Cd422 2.223 . S
O430 C429 1.315 . S
O431 Cd421 2.240 . S
O431 C429 1.279 . S
O432 Cd422 2.297 . S
O432 C427 1.247 . S
O433 Cd422 2.439 . S
O433 C427 1.208 . S
O434 Cd435 2.223 . S
O434 C442 1.315 . S
Cd435 O434 2.223 . S
Cd435 O438 2.297 . S
Cd435 O439 2.439 . S
Cd435 O445 2.240 . S
Cd436 O437 2.240 . S
Cd436 O444 2.223 . S
Cd436 O446 2.297 . S
Cd436 O447 2.439 . S
O437 Cd436 2.240 . S
O437 C442 1.279 . S
O438 Cd435 2.297 . S
O438 C440 1.247 . S
O439 Cd435 2.439 . S
O439 C440 1.208 . S
C440 O438 1.247 . S
C440 O439 1.208 . S
C441 O446 1.247 . S
C441 O447 1.208 . S
C442 O434 1.315 . S
C442 O437 1.279 . S
C443 O444 1.315 . S
C443 O445 1.279 . S
O444 Cd436 2.223 . S
O444 C443 1.315 . S
O445 Cd435 2.240 . S
O445 C443 1.279 . S
O446 Cd436 2.297 . S
O446 C441 1.247 . S
O447 Cd436 2.439 . S
O447 C441 1.208 . S
C448 C449 1.369 . S
C448 C450 1.419 . S
C448 H452 0.930 1_455 S
C449 C448 1.369 . S
C449 C458 1.429 . S
C450 C448 1.419 . S
C450 C451 1.363 . S
C450 H453 0.929 1_455 S
C451 C450 1.363 . S
C451 C457 1.428 . S
H452 C448 0.930 1_655 S
H453 C450 0.929 1_655 S
S454 N455 1.613 . S
S454 N456 1.610 . S
N455 S454 1.613 . S
N455 C458 1.350 . S
N456 S454 1.610 . S
N456 C457 1.351 . S
C457 C451 1.428 . S
C457 N456 1.351 . S
C457 C458 1.434 . S
C458 C449 1.429 . S
C458 N455 1.350 . S
C458 C457 1.434 . S
C459 C460 1.369 . S
C459 C461 1.419 . S
C459 H463 0.930 . S
C460 C459 1.369 . S
C460 C469 1.429 . S
C461 C459 1.419 . S
C461 C462 1.363 . S
C461 H464 0.929 . S
C462 C461 1.363 . S
C462 C468 1.428 . S
H463 C459 0.930 . S
H464 C461 0.929 . S
S465 N466 1.613 1_655 S
S465 N467 1.610 . S
N466 S465 1.613 1_455 S
N466 C469 1.350 . S
N467 S465 1.610 . S
N467 C468 1.351 1_655 S
C468 C462 1.428 . S
C468 N467 1.351 1_455 S
C468 C469 1.434 . S
C469 C460 1.429 . S
C469 N466 1.350 . S
C469 C468 1.434 . S
C470 C471 1.369 . S
C470 C472 1.419 . S
C470 H474 0.930 . S
C471 C470 1.369 . S
C471 C480 1.429 . S
C472 C470 1.419 . S
C472 C473 1.363 . S
C472 H475 0.929 . S
C473 C472 1.363 . S
C473 C479 1.428 . S
H474 C470 0.930 . S
H475 C472 0.929 . S
S476 N477 1.613 . S
S476 N478 1.610 . S
N477 S476 1.613 . S
N477 C480 1.350 . S
N478 S476 1.610 . S
N478 C479 1.351 . S
C479 C473 1.428 . S
C479 N478 1.351 . S
C479 C480 1.434 . S
C480 C471 1.429 . S
C480 N477 1.350 . S
C480 C479 1.434 . S
C481 C482 1.369 . S
C481 C483 1.419 . S
C481 H485 0.930 . S
C482 C481 1.369 . S
C482 C491 1.429 . S
C483 C481 1.419 . S
C483 C484 1.363 . S
C483 H486 0.929 . S
C484 C483 1.363 . S
C484 C490 1.428 . S
H485 C481 0.930 . S
H486 C483 0.929 . S
S487 N488 1.613 . S
S487 N489 1.610 . S
N488 S487 1.613 . S
N488 C491 1.350 . S
N489 S487 1.610 . S
N489 C490 1.351 . S
C490 C484 1.428 . S
C490 N489 1.351 . S
C490 C491 1.434 . S
C491 C482 1.429 . S
C491 N488 1.350 . S
C491 C490 1.434 . S
C492 C493 1.369 . S
C492 C494 1.419 . S
C492 H496 0.930 . S
C493 C492 1.369 . S
C493 C502 1.429 . S
C494 C492 1.419 . S
C494 C495 1.363 . S
C494 H497 0.929 . S
C495 C494 1.363 . S
C495 C501 1.428 . S
H496 C492 0.930 . S
H497 C494 0.929 . S
S498 N499 1.613 . S
S498 N500 1.610 . S
N499 S498 1.613 . S
N499 C502 1.350 1_655 S
N500 S498 1.610 . S
N500 C501 1.351 1_655 S
C501 C495 1.428 . S
C501 N500 1.351 1_455 S
C501 C502 1.434 . S
C502 C493 1.429 . S
C502 N499 1.350 1_455 S
C502 C501 1.434 . S
C503 C504 1.369 . S
C503 C505 1.419 . S
C503 H507 0.930 1_455 S
C504 C503 1.369 . S
C504 C513 1.429 . S
C505 C503 1.419 . S
C505 C506 1.363 . S
C505 H508 0.929 1_455 S
C506 C505 1.363 . S
C506 C512 1.428 . S
H507 C503 0.930 1_655 S
H508 C505 0.929 1_655 S
S509 N510 1.613 . S
S509 N511 1.610 . S
N510 S509 1.613 . S
N510 C513 1.350 . S
N511 S509 1.610 . S
N511 C512 1.351 . S
C512 C506 1.428 . S
C512 N511 1.351 . S
C512 C513 1.434 . S
C513 C504 1.429 . S
C513 N510 1.350 . S
C513 C512 1.434 . S
C514 C515 1.369 . S
C514 C516 1.419 . S
C514 H518 0.930 . S
C515 C514 1.369 . S
C515 C524 1.429 . S
C516 C514 1.419 . S
C516 C517 1.363 . S
C516 H519 0.929 . S
C517 C516 1.363 . S
C517 C523 1.428 . S
H518 C514 0.930 . S
H519 C516 0.929 . S
S520 N521 1.613 . S
S520 N522 1.610 . S
N521 S520 1.613 . S
N521 C524 1.350 . S
N522 S520 1.610 . S
N522 C523 1.351 . S
C523 C517 1.428 . S
C523 N522 1.351 . S
C523 C524 1.434 . S
C524 C515 1.429 . S
C524 N521 1.350 . S
C524 C523 1.434 . S
C525 C526 1.369 . S
C525 C527 1.419 . S
C525 H529 0.930 . S
C526 C525 1.369 . S
C526 C535 1.429 . S
C527 C525 1.419 . S
C527 C528 1.363 . S
C527 H530 0.929 . S
C528 C527 1.363 . S
C528 C534 1.428 . S
H529 C525 0.930 . S
H530 C527 0.929 . S
S531 N532 1.613 . S
S531 N533 1.610 . S
N532 S531 1.613 . S
N532 C535 1.350 . S
N533 S531 1.610 . S
N533 C534 1.351 . S
C534 C528 1.428 . S
C534 N533 1.351 . S
C534 C535 1.434 . S
C535 C526 1.429 . S
C535 N532 1.350 . S
C535 C534 1.434 . S
C536 C537 1.369 . S
C536 C538 1.419 . S
C536 H540 0.930 . S
C537 C536 1.369 . S
C537 C546 1.429 . S
C538 C536 1.419 . S
C538 C539 1.363 . S
C538 H541 0.929 . S
C539 C538 1.363 . S
C539 C545 1.428 . S
H540 C536 0.930 . S
H541 C538 0.929 . S
S542 N543 1.613 . S
S542 N544 1.610 . S
N543 S542 1.613 . S
N543 C546 1.350 . S
N544 S542 1.610 . S
N544 C545 1.351 . S
C545 C539 1.428 . S
C545 N544 1.351 . S
C545 C546 1.434 . S
C546 C537 1.429 . S
C546 N543 1.350 . S
C546 C545 1.434 . S
C547 C548 1.369 . S
C547 C549 1.419 . S
C547 H551 0.930 . S
C548 C547 1.369 . S
C548 C557 1.429 . S
C549 C547 1.419 . S
C549 C550 1.363 . S
C549 H552 0.929 . S
C550 C549 1.363 . S
C550 C556 1.428 . S
H551 C547 0.930 . S
H552 C549 0.929 . S
S553 N554 1.613 . S
S553 N555 1.610 . S
N554 S553 1.613 . S
N554 C557 1.350 . S
N555 S553 1.610 . S
N555 C556 1.351 . S
C556 C550 1.428 . S
C556 N555 1.351 . S
C556 C557 1.434 . S
C557 C548 1.429 . S
C557 N554 1.350 . S
C557 C556 1.434 . S
C558 C559 1.369 . S
C558 C560 1.419 . S
C558 H562 0.930 . S
C559 C558 1.369 . S
C559 C568 1.429 . S
C560 C558 1.419 . S
C560 C561 1.363 . S
C560 H563 0.929 . S
C561 C560 1.363 . S
C561 C567 1.428 . S
H562 C558 0.930 . S
H563 C560 0.929 . S
S564 N565 1.613 . S
S564 N566 1.610 . S
N565 S564 1.613 . S
N565 C568 1.350 . S
N566 S564 1.610 . S
N566 C567 1.351 . S
C567 C561 1.428 . S
C567 N566 1.351 . S
C567 C568 1.434 . S
C568 C559 1.429 . S
C568 N565 1.350 . S
C568 C567 1.434 . S
C569 C570 1.369 . S
C569 C571 1.419 . S
C569 H573 0.930 . S
C570 C569 1.369 . S
C570 C579 1.429 . S
C571 C569 1.419 . S
C571 C572 1.363 . S
C571 H574 0.929 . S
C572 C571 1.363 . S
C572 C578 1.428 . S
H573 C569 0.930 . S
H574 C571 0.929 . S
S575 N576 1.613 . S
S575 N577 1.610 . S
N576 S575 1.613 . S
N576 C579 1.350 . S
N577 S575 1.610 . S
N577 C578 1.351 . S
C578 C572 1.428 . S
C578 N577 1.351 . S
C578 C579 1.434 . S
C579 C570 1.429 . S
C579 N576 1.350 . S
C579 C578 1.434 . S
C580 C581 1.369 . S
C580 C582 1.419 . S
C580 H584 0.930 . S
C581 C580 1.369 . S
C581 C590 1.429 . S
C582 C580 1.419 . S
C582 C583 1.363 . S
C582 H585 0.929 . S
C583 C582 1.363 . S
C583 C589 1.428 . S
H584 C580 0.930 . S
H585 C582 0.929 . S
S586 N587 1.613 . S
S586 N588 1.610 . S
N587 S586 1.613 . S
N587 C590 1.350 . S
N588 S586 1.610 . S
N588 C589 1.351 . S
C589 C583 1.428 . S
C589 N588 1.351 . S
C589 C590 1.434 . S
C590 C581 1.429 . S
C590 N587 1.350 . S
C590 C589 1.434 . S
C591 C592 1.369 . S
C591 C593 1.419 . S
C591 H595 0.930 . S
C592 C591 1.369 . S
C592 C601 1.429 . S
C593 C591 1.419 . S
C593 C594 1.363 . S
C593 H596 0.929 . S
C594 C593 1.363 . S
C594 C600 1.428 . S
H595 C591 0.930 . S
H596 C593 0.929 . S
S597 N598 1.613 . S
S597 N599 1.610 . S
N598 S597 1.613 . S
N598 C601 1.350 . S
N599 S597 1.610 . S
N599 C600 1.351 . S
C600 C594 1.428 . S
C600 N599 1.351 . S
C600 C601 1.434 . S
C601 C592 1.429 . S
C601 N598 1.350 . S
C601 C600 1.434 . S
C602 C603 1.369 . S
C602 C604 1.419 . S
C602 H606 0.930 . S
C603 C602 1.369 . S
C603 C612 1.429 . S
C604 C602 1.419 . S
C604 C605 1.363 . S
C604 H607 0.929 . S
C605 C604 1.363 . S
C605 C611 1.428 . S
H606 C602 0.930 . S
H607 C604 0.929 . S
S608 N609 1.613 . S
S608 N610 1.610 . S
N609 S608 1.613 . S
N609 C612 1.350 . S
N610 S608 1.610 . S
N610 C611 1.351 . S
C611 C605 1.428 . S
C611 N610 1.351 . S
C611 C612 1.434 . S
C612 C603 1.429 . S
C612 N609 1.350 . S
C612 C611 1.434 . S
C613 C614 1.369 . S
C613 C615 1.419 . S
C613 H617 0.930 . S
C614 C613 1.369 . S
C614 C623 1.429 . S
C615 C613 1.419 . S
C615 C616 1.363 . S
C615 H618 0.929 . S
C616 C615 1.363 . S
C616 C622 1.428 . S
H617 C613 0.930 . S
H618 C615 0.929 . S
S619 N620 1.613 . S
S619 N621 1.610 . S
N620 S619 1.613 . S
N620 C623 1.350 . S
N621 S619 1.610 . S
N621 C622 1.351 . S
C622 C616 1.428 . S
C622 N621 1.351 . S
C622 C623 1.434 . S
C623 C614 1.429 . S
C623 N620 1.350 . S
C623 C622 1.434 . S
C624 C625 1.347 1_556 S
C624 C626 1.419 1_545 S
C624 H628 0.930 . S
C625 C624 1.347 1_554 S
C625 C634 1.452 . S
C626 C624 1.419 1_565 S
C626 C627 1.362 1_556 S
C626 H629 0.929 . S
C627 C626 1.362 1_554 S
C627 C633 1.430 . S
H628 C624 0.930 . S
H629 C626 0.929 . S
S630 N631 1.613 . S
S630 N632 1.610 1_545 S
N631 S630 1.613 . S
N631 C634 1.350 . S
N632 S630 1.610 1_565 S
N632 C633 1.351 . S
C633 C627 1.430 . S
C633 N632 1.351 . S
C633 C634 1.434 1_565 S
C634 C625 1.452 . S
C634 N631 1.350 . S
C634 C633 1.434 1_545 S
C635 C636 1.372 . S
C635 C637 1.419 . S
C635 H639 0.930 . S
C636 C635 1.372 . S
C636 C645 1.425 1_556 S
C637 C635 1.419 . S
C637 C638 1.362 1_556 S
C637 H640 0.929 . S
C638 C637 1.362 1_554 S
C638 C644 1.429 . S
H639 C635 0.930 . S
H640 C637 0.929 . S
S641 N642 1.613 . S
S641 N643 1.610 . S
N642 S641 1.613 . S
N642 C645 1.350 . S
N643 S641 1.610 . S
N643 C644 1.351 . S
C644 C638 1.429 . S
C644 N643 1.351 . S
C644 C645 1.434 . S
C645 C636 1.425 1_554 S
C645 N642 1.350 . S
C645 C644 1.434 . S
C646 C647 1.369 . S
C646 C648 1.419 . S
C646 H650 0.930 . S
C647 C646 1.369 . S
C647 C656 1.429 . S
C648 C646 1.419 . S
C648 C649 1.363 . S
C648 H651 0.929 . S
C649 C648 1.363 . S
C649 C655 1.428 . S
H650 C646 0.930 . S
H651 C648 0.929 . S
S652 N653 1.613 . S
S652 N654 1.610 . S
N653 S652 1.613 . S
N653 C656 1.350 . S
N654 S652 1.610 . S
N654 C655 1.351 . S
C655 C649 1.428 . S
C655 N654 1.351 . S
C655 C656 1.434 . S
C656 C647 1.429 . S
C656 N653 1.350 . S
C656 C655 1.434 . S
C657 C658 1.369 . S
C657 C659 1.419 1_565 S
C657 H661 0.930 . S
C658 C657 1.369 . S
C658 C667 1.429 . S
C659 C657 1.419 1_545 S
C659 C660 1.363 . S
C659 H662 0.929 . S
C660 C659 1.363 . S
C660 C666 1.428 . S
H661 C657 0.930 . S
H662 C659 0.929 . S
S663 N664 1.613 1_545 S
S663 N665 1.610 . S
N664 S663 1.613 1_565 S
N664 C667 1.350 . S
N665 S663 1.610 . S
N665 C666 1.351 . S
C666 C660 1.428 . S
C666 N665 1.351 . S
C666 C667 1.434 1_545 S
C667 C658 1.429 . S
C667 N664 1.350 . S
C667 C666 1.434 1_565 S
C668 C669 1.373 . S
C668 C670 1.419 . S
C668 H672 0.930 . S
C669 C668 1.373 . S
C669 C678 1.425 1_554 S
C670 C668 1.419 . S
C670 C671 1.359 1_554 S
C670 H673 0.929 . S
C671 C670 1.359 1_556 S
C671 C677 1.432 . S
H672 C668 0.930 . S
H673 C670 0.929 . S
S674 N675 1.613 . S
S674 N676 1.610 . S
N675 S674 1.613 . S
N675 C678 1.350 . S
N676 S674 1.610 . S
N676 C677 1.351 . S
C677 C671 1.432 . S
C677 N676 1.351 . S
C677 C678 1.434 . S
C678 C669 1.425 1_556 S
C678 N675 1.350 . S
C678 C677 1.434 . S
C679 C680 1.369 . S
C679 C681 1.419 . S
C679 H683 0.930 . S
C680 C679 1.369 . S
C680 C689 1.429 . S
C681 C679 1.419 . S
C681 C682 1.363 . S
C681 H684 0.929 . S
C682 C681 1.363 . S
C682 C688 1.428 . S
H683 C679 0.930 . S
H684 C681 0.929 . S
S685 N686 1.613 . S
S685 N687 1.610 . S
N686 S685 1.613 . S
N686 C689 1.350 . S
N687 S685 1.610 . S
N687 C688 1.351 . S
C688 C682 1.428 . S
C688 N687 1.351 . S
C688 C689 1.434 . S
C689 C680 1.429 . S
C689 N686 1.350 . S
C689 C688 1.434 . S
C690 C691 1.369 . S
C690 C692 1.419 1_565 S
C690 H694 0.930 . S
C691 C690 1.369 . S
C691 C700 1.429 . S
C692 C690 1.419 1_545 S
C692 C693 1.363 . S
C692 H695 0.929 . S
C693 C692 1.363 . S
C693 C699 1.428 . S
H694 C690 0.930 . S
H695 C692 0.929 . S
S696 N697 1.613 1_655 S
S696 N698 1.610 1_665 S
N697 S696 1.613 1_455 S
N697 C700 1.350 . S
N698 S696 1.610 1_445 S
N698 C699 1.351 . S
C699 C693 1.428 . S
C699 N698 1.351 . S
C699 C700 1.434 1_545 S
C700 C691 1.429 . S
C700 N697 1.350 . S
C700 C699 1.434 1_565 S
C701 C702 1.369 . S
C701 C703 1.419 . S
C701 H705 0.930 . S
C702 C701 1.369 . S
C702 C711 1.429 . S
C703 C701 1.419 . S
C703 C704 1.363 . S
C703 H706 0.929 . S
C704 C703 1.363 . S
C704 C710 1.428 . S
H705 C701 0.930 . S
H706 C703 0.929 . S
S707 N708 1.613 . S
S707 N709 1.610 . S
N708 S707 1.613 . S
N708 C711 1.350 . S
N709 S707 1.610 . S
N709 C710 1.351 . S
C710 C704 1.428 . S
C710 N709 1.351 . S
C710 C711 1.434 . S
C711 C702 1.429 . S
C711 N708 1.350 . S
C711 C710 1.434 . S
C712 C713 1.369 . S
C712 C714 1.419 . S
C712 H716 0.930 . S
C713 C712 1.369 . S
C713 C722 1.429 . S
C714 C712 1.419 . S
C714 C715 1.363 . S
C714 H717 0.929 . S
C715 C714 1.363 . S
C715 C721 1.428 . S
H716 C712 0.930 . S
H717 C714 0.929 . S
S718 N719 1.613 . S
S718 N720 1.610 . S
N719 S718 1.613 . S
N719 C722 1.350 . S
N720 S718 1.610 . S
N720 C721 1.351 . S
C721 C715 1.428 . S
C721 N720 1.351 . S
C721 C722 1.434 . S
C722 C713 1.429 . S
C722 N719 1.350 . S
C722 C721 1.434 . S
C723 C724 1.369 . S
C723 C725 1.419 . S
C723 H727 0.930 . S
C724 C723 1.369 . S
C724 C733 1.429 . S
C725 C723 1.419 . S
C725 C726 1.363 . S
C725 H728 0.929 . S
C726 C725 1.363 . S
C726 C732 1.428 . S
H727 C723 0.930 . S
H728 C725 0.929 . S
S729 N730 1.613 . S
S729 N731 1.610 . S
N730 S729 1.613 . S
N730 C733 1.350 . S
N731 S729 1.610 . S
N731 C732 1.351 . S
C732 C726 1.428 . S
C732 N731 1.351 . S
C732 C733 1.434 . S
C733 C724 1.429 . S
C733 N730 1.350 . S
C733 C732 1.434 . S
C734 C735 1.369 . S
C734 C736 1.419 . S
C734 H738 0.930 . S
C735 C734 1.369 . S
C735 C744 1.429 . S
C736 C734 1.419 . S
C736 C737 1.363 . S
C736 H739 0.929 . S
C737 C736 1.363 . S
C737 C743 1.428 . S
H738 C734 0.930 . S
H739 C736 0.929 . S
S740 N741 1.613 . S
S740 N742 1.610 . S
N741 S740 1.613 . S
N741 C744 1.350 . S
N742 S740 1.610 . S
N742 C743 1.351 . S
C743 C737 1.428 . S
C743 N742 1.351 . S
C743 C744 1.434 . S
C744 C735 1.429 . S
C744 N741 1.350 . S
C744 C743 1.434 . S
C745 C746 1.369 . S
C745 C747 1.419 . S
C745 H749 0.930 . S
C746 C745 1.369 . S
C746 C755 1.429 . S
C747 C745 1.419 . S
C747 C748 1.363 . S
C747 H750 0.929 . S
C748 C747 1.363 . S
C748 C754 1.428 . S
H749 C745 0.930 . S
H750 C747 0.929 . S
S751 N752 1.613 . S
S751 N753 1.610 . S
N752 S751 1.613 . S
N752 C755 1.350 . S
N753 S751 1.610 . S
N753 C754 1.351 . S
C754 C748 1.428 . S
C754 N753 1.351 . S
C754 C755 1.434 . S
C755 C746 1.429 . S
C755 N752 1.350 . S
C755 C754 1.434 . S
C756 C757 1.369 1_455 S
C756 C758 1.419 1_565 S
C756 H760 0.930 . S
C757 C756 1.369 1_655 S
C757 C766 1.429 . S
C758 C756 1.419 1_545 S
C758 C759 1.363 . S
C758 H761 0.929 . S
C759 C758 1.363 . S
C759 C765 1.428 1_455 S
H760 C756 0.930 . S
H761 C758 0.929 . S
S762 N763 1.613 1_545 S
S762 N764 1.610 . S
N763 S762 1.613 1_565 S
N763 C766 1.350 . S
N764 S762 1.610 . S
N764 C765 1.351 . S
C765 C759 1.428 1_655 S
C765 N764 1.351 . S
C765 C766 1.434 1_545 S
C766 C757 1.429 . S
C766 N763 1.350 . S
C766 C765 1.434 1_565 S
C767 C768 1.369 1_655 S
C767 C769 1.419 . S
C767 H771 0.930 . S
C768 C767 1.369 1_455 S
C768 C777 1.429 . S
C769 C767 1.419 . S
C769 C770 1.363 . S
C769 H772 0.929 . S
C770 C769 1.363 . S
C770 C776 1.428 1_655 S
H771 C767 0.930 . S
H772 C769 0.929 . S
S773 N774 1.613 . S
S773 N775 1.610 . S
N774 S773 1.613 . S
N774 C777 1.350 . S
N775 S773 1.610 . S
N775 C776 1.351 . S
C776 C770 1.428 1_455 S
C776 N775 1.351 . S
C776 C777 1.434 . S
C777 C768 1.429 . S
C777 N774 1.350 . S
C777 C776 1.434 . S
C778 C779 1.369 . S
C778 C780 1.419 . S
C778 H782 0.930 . S
C779 C778 1.369 . S
C779 C788 1.429 1_655 S
C780 C778 1.419 . S
C780 C781 1.363 1_655 S
C780 H783 0.929 . S
C781 C780 1.363 1_455 S
C781 C787 1.428 . S
H782 C778 0.930 . S
H783 C780 0.929 . S
S784 N785 1.613 . S
S784 N786 1.610 . S
N785 S784 1.613 . S
N785 C788 1.350 . S
N786 S784 1.610 . S
N786 C787 1.351 . S
C787 C781 1.428 . S
C787 N786 1.351 . S
C787 C788 1.434 . S
C788 C779 1.429 1_455 S
C788 N785 1.350 . S
C788 C787 1.434 . S
C789 C790 1.361 1_554 S
C789 C791 1.419 . S
C789 H793 0.930 . S
C790 C789 1.361 1_556 S
C790 C799 1.437 1_655 S
C791 C789 1.419 . S
C791 C792 1.362 1_655 S
C791 H794 0.929 . S
C792 C791 1.362 1_455 S
C792 C798 1.429 1_554 S
H793 C789 0.930 . S
H794 C791 0.929 . S
S795 N796 1.613 . S
S795 N797 1.610 . S
N796 S795 1.613 . S
N796 C799 1.350 . S
N797 S795 1.610 . S
N797 C798 1.351 . S
C798 C792 1.429 1_556 S
C798 N797 1.351 . S
C798 C799 1.434 . S
C799 C790 1.437 1_455 S
C799 N796 1.350 . S
C799 C798 1.434 . S
C800 C801 1.369 . S
C800 C802 1.419 . S
C800 H804 0.930 . S
C801 C800 1.369 . S
C801 C810 1.429 . S
C802 C800 1.419 . S
C802 C803 1.363 . S
C802 H805 0.929 . S
C803 C802 1.363 . S
C803 C809 1.428 . S
H804 C800 0.930 . S
H805 C802 0.929 . S
S806 N807 1.613 . S
S806 N808 1.610 . S
N807 S806 1.613 . S
N807 C810 1.350 . S
N808 S806 1.610 . S
N808 C809 1.351 . S
C809 C803 1.428 . S
C809 N808 1.351 . S
C809 C810 1.434 . S
C810 C801 1.429 . S
C810 N807 1.350 . S
C810 C809 1.434 . S
C811 C812 1.369 . S
C811 C813 1.419 . S
C811 H815 0.930 1_655 S
C812 C811 1.369 . S
C812 C821 1.429 . S
C813 C811 1.419 . S
C813 C814 1.363 . S
C813 H816 0.929 . S
C814 C813 1.363 . S
C814 C820 1.428 . S
H815 C811 0.930 1_455 S
H816 C813 0.929 . S
S817 N818 1.613 . S
S817 N819 1.610 . S
N818 S817 1.613 . S
N818 C821 1.350 . S
N819 S817 1.610 . S
N819 C820 1.351 . S
C820 C814 1.428 . S
C820 N819 1.351 . S
C820 C821 1.434 . S
C821 C812 1.429 . S
C821 N818 1.350 . S
C821 C820 1.434 . S
C822 C823 1.369 . S
C822 C824 1.419 . S
C822 H826 0.930 . S
C823 C822 1.369 . S
C823 C832 1.429 . S
C824 C822 1.419 . S
C824 C825 1.363 . S
C824 H827 0.929 . S
C825 C824 1.363 . S
C825 C831 1.428 . S
H826 C822 0.930 . S
H827 C824 0.929 . S
S828 N829 1.613 . S
S828 N830 1.610 . S
N829 S828 1.613 . S
N829 C832 1.350 . S
N830 S828 1.610 . S
N830 C831 1.351 . S
C831 C825 1.428 . S
C831 N830 1.351 . S
C831 C832 1.434 . S
C832 C823 1.429 . S
C832 N829 1.350 . S
C832 C831 1.434 . S
C833 C834 1.369 . S
C833 C835 1.419 . S
C833 H837 0.930 . S
C834 C833 1.369 . S
C834 C843 1.429 . S
C835 C833 1.419 . S
C835 C836 1.363 . S
C835 H838 0.929 . S
C836 C835 1.363 . S
C836 C842 1.428 . S
H837 C833 0.930 . S
H838 C835 0.929 . S
S839 N840 1.613 1_455 S
S839 N841 1.610 . S
N840 S839 1.613 1_655 S
N840 C843 1.350 . S
N841 S839 1.610 . S
N841 C842 1.351 1_455 S
C842 C836 1.428 . S
C842 N841 1.351 1_655 S
C842 C843 1.434 . S
C843 C834 1.429 . S
C843 N840 1.350 . S
C843 C842 1.434 . S
C844 C845 1.369 . S
C844 C846 1.419 . S
C844 H848 0.930 . S
C845 C844 1.369 . S
C845 C854 1.429 . S
C846 C844 1.419 . S
C846 C847 1.363 . S
C846 H849 0.929 . S
C847 C846 1.363 . S
C847 C853 1.428 . S
H848 C844 0.930 . S
H849 C846 0.929 . S
S850 N851 1.613 . S
S850 N852 1.610 . S
N851 S850 1.613 . S
N851 C854 1.350 . S
N852 S850 1.610 . S
N852 C853 1.351 . S
C853 C847 1.428 . S
C853 N852 1.351 . S
C853 C854 1.434 . S
C854 C845 1.429 . S
C854 N851 1.350 . S
C854 C853 1.434 . S
C855 C856 1.369 . S
C855 C857 1.419 . S
C855 H859 0.930 1_455 S
C856 C855 1.369 . S
C856 C865 1.429 . S
C857 C855 1.419 . S
C857 C858 1.363 . S
C857 H860 0.929 . S
C858 C857 1.363 . S
C858 C864 1.428 . S
H859 C855 0.930 1_655 S
H860 C857 0.929 . S
S861 N862 1.613 . S
S861 N863 1.610 . S
N862 S861 1.613 . S
N862 C865 1.350 . S
N863 S861 1.610 . S
N863 C864 1.351 . S
C864 C858 1.428 . S
C864 N863 1.351 . S
C864 C865 1.434 . S
C865 C856 1.429 . S
C865 N862 1.350 . S
C865 C864 1.434 . S
C866 C867 1.369 . S
C866 C868 1.419 . S
C866 H870 0.930 . S
C867 C866 1.369 . S
C867 C876 1.429 . S
C868 C866 1.419 . S
C868 C869 1.363 . S
C868 H871 0.929 . S
C869 C868 1.363 . S
C869 C875 1.428 . S
H870 C866 0.930 . S
H871 C868 0.929 . S
S872 N873 1.613 . S
S872 N874 1.610 . S
N873 S872 1.613 . S
N873 C876 1.350 . S
N874 S872 1.610 . S
N874 C875 1.351 . S
C875 C869 1.428 . S
C875 N874 1.351 . S
C875 C876 1.434 . S
C876 C867 1.429 . S
C876 N873 1.350 . S
C876 C875 1.434 . S
C877 C878 1.369 . S
C877 C879 1.419 . S
C877 H881 0.930 . S
C878 C877 1.369 . S
C878 C887 1.429 . S
C879 C877 1.419 . S
C879 C880 1.363 . S
C879 H882 0.929 1_455 S
C880 C879 1.363 . S
C880 C886 1.428 . S
H881 C877 0.930 . S
H882 C879 0.929 1_655 S
S883 N884 1.613 . S
S883 N885 1.610 . S
N884 S883 1.613 . S
N884 C887 1.350 . S
N885 S883 1.610 . S
N885 C886 1.351 . S
C886 C880 1.428 . S
C886 N885 1.351 . S
C886 C887 1.434 . S
C887 C878 1.429 . S
C887 N884 1.350 . S
C887 C886 1.434 . S
C888 C889 1.369 . S
C888 C890 1.419 . S
C888 H892 0.930 . S
C889 C888 1.369 . S
C889 C898 1.429 . S
C890 C888 1.419 . S
C890 C891 1.363 . S
C890 H893 0.929 . S
C891 C890 1.363 . S
C891 C897 1.428 . S
H892 C888 0.930 . S
H893 C890 0.929 . S
S894 N895 1.613 . S
S894 N896 1.610 . S
N895 S894 1.613 . S
N895 C898 1.350 . S
N896 S894 1.610 . S
N896 C897 1.351 . S
C897 C891 1.428 . S
C897 N896 1.351 . S
C897 C898 1.434 . S
C898 C889 1.429 . S
C898 N895 1.350 . S
C898 C897 1.434 . S
C899 C900 1.369 . S
C899 C901 1.419 . S
C899 H903 0.930 . S
C900 C899 1.369 . S
C900 C909 1.429 . S
C901 C899 1.419 . S
C901 C902 1.363 . S
C901 H904 0.929 . S
C902 C901 1.363 . S
C902 C908 1.428 . S
H903 C899 0.930 . S
H904 C901 0.929 . S
S905 N906 1.613 . S
S905 N907 1.610 . S
N906 S905 1.613 . S
N906 C909 1.350 . S
N907 S905 1.610 . S
N907 C908 1.351 . S
C908 C902 1.428 . S
C908 N907 1.351 . S
C908 C909 1.434 . S
C909 C900 1.429 . S
C909 N906 1.350 . S
C909 C908 1.434 . S
C910 C911 1.369 . S
C910 C912 1.419 . S
C910 H914 0.930 . S
C911 C910 1.369 . S
C911 C920 1.429 . S
C912 C910 1.419 . S
C912 C913 1.363 . S
C912 H915 0.929 . S
C913 C912 1.363 . S
C913 C919 1.428 . S
H914 C910 0.930 . S
H915 C912 0.929 . S
S916 N917 1.613 . S
S916 N918 1.610 . S
N917 S916 1.613 . S
N917 C920 1.350 . S
N918 S916 1.610 . S
N918 C919 1.351 . S
C919 C913 1.428 . S
C919 N918 1.351 . S
C919 C920 1.434 . S
C920 C911 1.429 . S
C920 N917 1.350 . S
C920 C919 1.434 . S
C921 C922 1.369 . S
C921 C923 1.419 . S
C921 H925 0.930 . S
C922 C921 1.369 . S
C922 C931 1.429 . S
C923 C921 1.419 . S
C923 C924 1.363 . S
C923 H926 0.929 . S
C924 C923 1.363 . S
C924 C930 1.428 . S
H925 C921 0.930 . S
H926 C923 0.929 . S
S927 N928 1.613 . S
S927 N929 1.610 1_455 S
N928 S927 1.613 . S
N928 C931 1.350 1_455 S
N929 S927 1.610 1_655 S
N929 C930 1.351 . S
C930 C924 1.428 . S
C930 N929 1.351 . S
C930 C931 1.434 . S
C931 C922 1.429 . S
C931 N928 1.350 1_655 S
C931 C930 1.434 . S
C932 C933 1.369 . S
C932 C934 1.419 . S
C932 H936 0.930 . S
C933 C932 1.369 . S
C933 C942 1.429 . S
C934 C932 1.419 . S
C934 C935 1.363 . S
C934 H937 0.929 . S
C935 C934 1.363 . S
C935 C941 1.428 . S
H936 C932 0.930 . S
H937 C934 0.929 . S
S938 N939 1.613 . S
S938 N940 1.610 . S
N939 S938 1.613 . S
N939 C942 1.350 . S
N940 S938 1.610 . S
N940 C941 1.351 . S
C941 C935 1.428 . S
C941 N940 1.351 . S
C941 C942 1.434 . S
C942 C933 1.429 . S
C942 N939 1.350 . S
C942 C941 1.434 . S
C943 C944 1.369 . S
C943 C945 1.419 . S
C943 H947 0.930 . S
C944 C943 1.369 . S
C944 C953 1.429 . S
C945 C943 1.419 . S
C945 C946 1.363 . S
C945 H948 0.929 . S
C946 C945 1.363 . S
C946 C952 1.428 . S
H947 C943 0.930 . S
H948 C945 0.929 . S
S949 N950 1.613 . S
S949 N951 1.610 . S
N950 S949 1.613 . S
N950 C953 1.350 . S
N951 S949 1.610 . S
N951 C952 1.351 . S
C952 C946 1.428 . S
C952 N951 1.351 . S
C952 C953 1.434 . S
C953 C944 1.429 . S
C953 N950 1.350 . S
C953 C952 1.434 . S
C954 C955 1.369 . S
C954 C956 1.419 . S
C954 H958 0.930 . S
C955 C954 1.369 . S
C955 C964 1.429 . S
C956 C954 1.419 . S
C956 C957 1.363 . S
C956 H959 0.929 . S
C957 C956 1.363 . S
C957 C963 1.428 . S
H958 C954 0.930 . S
H959 C956 0.929 . S
S960 N961 1.613 . S
S960 N962 1.610 . S
N961 S960 1.613 . S
N961 C964 1.350 . S
N962 S960 1.610 . S
N962 C963 1.351 . S
C963 C957 1.428 . S
C963 N962 1.351 . S
C963 C964 1.434 . S
C964 C955 1.429 . S
C964 N961 1.350 . S
C964 C963 1.434 . S
C965 C966 1.369 . S
C965 C967 1.419 . S
C965 H969 0.930 . S
C966 C965 1.369 . S
C966 C975 1.429 . S
C967 C965 1.419 . S
C967 C968 1.363 . S
C967 H970 0.929 . S
C968 C967 1.363 . S
C968 C974 1.428 . S
H969 C965 0.930 . S
H970 C967 0.929 . S
S971 N972 1.613 . S
S971 N973 1.610 . S
N972 S971 1.613 . S
N972 C975 1.350 1_655 S
N973 S971 1.610 . S
N973 C974 1.351 1_655 S
C974 C968 1.428 . S
C974 N973 1.351 1_455 S
C974 C975 1.434 . S
C975 C966 1.429 . S
C975 N972 1.350 1_455 S
C975 C974 1.434 . S
C976 C977 1.369 1_554 S
C976 C978 1.419 . S
C976 H980 0.930 1_455 S
C977 C976 1.369 1_556 S
C977 C986 1.429 . S
C978 C976 1.419 . S
C978 C979 1.363 1_554 S
C978 H981 0.929 . S
C979 C978 1.363 1_556 S
C979 C985 1.428 . S
H980 C976 0.930 1_655 S
H981 C978 0.929 . S
S982 N983 1.613 . S
S982 N984 1.610 . S
N983 S982 1.613 . S
N983 C986 1.350 . S
N984 S982 1.610 . S
N984 C985 1.351 . S
C985 C979 1.428 . S
C985 N984 1.351 . S
C985 C986 1.434 . S
C986 C977 1.429 . S
C986 N983 1.350 . S
C986 C985 1.434 . S
C987 C988 1.369 . S
C987 C989 1.419 . S
C987 H991 0.930 . S
C988 C987 1.369 . S
C988 C997 1.429 . S
C989 C987 1.419 . S
C989 C990 1.363 . S
C989 H992 0.929 . S
C990 C989 1.363 . S
C990 C996 1.428 . S
H991 C987 0.930 . S
H992 C989 0.929 . S
S993 N994 1.613 . S
S993 N995 1.610 1_455 S
N994 S993 1.613 . S
N994 C997 1.350 . S
N995 S993 1.610 1_655 S
N995 C996 1.351 1_655 S
C996 C990 1.428 . S
C996 N995 1.351 1_455 S
C996 C997 1.434 . S
C997 C988 1.429 . S
C997 N994 1.350 . S
C997 C996 1.434 . S
C998 C999 1.369 . S
C998 C1000 1.419 . S
C998 H1002 0.930 . S
C999 C998 1.369 . S
C999 C1008 1.429 . S
C1000 C998 1.419 . S
C1000 C1001 1.363 . S
C1000 H1003 0.929 . S
C1001 C1000 1.363 . S
C1001 C1007 1.428 . S
H1002 C998 0.930 . S
H1003 C1000 0.929 . S
S1004 N1005 1.613 1_655 S
S1004 N1006 1.610 . S
N1005 S1004 1.613 1_455 S
N1005 C1008 1.350 1_455 S
N1006 S1004 1.610 . S
N1006 C1007 1.351 . S
C1007 C1001 1.428 . S
C1007 N1006 1.351 . S
C1007 C1008 1.434 . S
C1008 C999 1.429 . S
C1008 N1005 1.350 1_655 S
C1008 C1007 1.434 . S
C1009 C1010 1.369 . S
C1009 C1011 1.419 . S
C1009 H1013 0.930 . S
C1010 C1009 1.369 . S
C1010 C1019 1.429 . S
C1011 C1009 1.419 . S
C1011 C1012 1.363 . S
C1011 H1014 0.929 1_655 S
C1012 C1011 1.363 . S
C1012 C1018 1.428 . S
H1013 C1009 0.930 . S
H1014 C1011 0.929 1_455 S
S1015 N1016 1.613 . S
S1015 N1017 1.610 . S
N1016 S1015 1.613 . S
N1016 C1019 1.350 . S
N1017 S1015 1.610 . S
N1017 C1018 1.351 . S
C1018 C1012 1.428 . S
C1018 N1017 1.351 . S
C1018 C1019 1.434 . S
C1019 C1010 1.429 . S
C1019 N1016 1.350 . S
C1019 C1018 1.434 . S
C1020 C1021 1.369 . S
C1020 C1022 1.419 . S
C1020 H1024 0.930 . S
C1021 C1020 1.369 . S
C1021 C1030 1.429 . S
C1022 C1020 1.419 . S
C1022 C1023 1.363 . S
C1022 H1025 0.929 . S
C1023 C1022 1.363 . S
C1023 C1029 1.428 . S
H1024 C1020 0.930 . S
H1025 C1022 0.929 . S
S1026 N1027 1.613 . S
S1026 N1028 1.610 . S
N1027 S1026 1.613 . S
N1027 C1030 1.350 . S
N1028 S1026 1.610 . S
N1028 C1029 1.351 . S
C1029 C1023 1.428 . S
C1029 N1028 1.351 . S
C1029 C1030 1.434 . S
C1030 C1021 1.429 . S
C1030 N1027 1.350 . S
C1030 C1029 1.434 . S
C1031 C1032 1.369 . S
C1031 C1033 1.419 . S
C1031 H1035 0.930 . S
C1032 C1031 1.369 . S
C1032 C1041 1.429 . S
C1033 C1031 1.419 . S
C1033 C1034 1.363 . S
C1033 H1036 0.929 1_455 S
C1034 C1033 1.363 . S
C1034 C1040 1.428 . S
H1035 C1031 0.930 . S
H1036 C1033 0.929 1_655 S
S1037 N1038 1.613 . S
S1037 N1039 1.610 . S
N1038 S1037 1.613 . S
N1038 C1041 1.350 . S
N1039 S1037 1.610 . S
N1039 C1040 1.351 . S
C1040 C1034 1.428 . S
C1040 N1039 1.351 . S
C1040 C1041 1.434 . S
C1041 C1032 1.429 . S
C1041 N1038 1.350 . S
C1041 C1040 1.434 . S
C1042 C1043 1.369 . S
C1042 C1044 1.419 . S
C1042 H1046 0.930 . S
C1043 C1042 1.369 . S
C1043 C1052 1.429 . S
C1044 C1042 1.419 . S
C1044 C1045 1.363 . S
C1044 H1047 0.929 1_655 S
C1045 C1044 1.363 . S
C1045 C1051 1.428 . S
H1046 C1042 0.930 . S
H1047 C1044 0.929 1_455 S
S1048 N1049 1.613 . S
S1048 N1050 1.610 . S
N1049 S1048 1.613 . S
N1049 C1052 1.350 . S
N1050 S1048 1.610 . S
N1050 C1051 1.351 . S
C1051 C1045 1.428 . S
C1051 N1050 1.351 . S
C1051 C1052 1.434 . S
C1052 C1043 1.429 . S
C1052 N1049 1.350 . S
C1052 C1051 1.434 . S
C1053 C1054 1.369 . S
C1053 C1055 1.419 . S
C1053 H1057 0.930 . S
C1054 C1053 1.369 . S
C1054 C1063 1.429 . S
C1055 C1053 1.419 . S
C1055 C1056 1.363 . S
C1055 H1058 0.929 1_655 S
C1056 C1055 1.363 . S
C1056 C1062 1.428 . S
H1057 C1053 0.930 . S
H1058 C1055 0.929 1_455 S
S1059 N1060 1.613 . S
S1059 N1061 1.610 . S
N1060 S1059 1.613 . S
N1060 C1063 1.350 . S
N1061 S1059 1.610 . S
N1061 C1062 1.351 . S
C1062 C1056 1.428 . S
C1062 N1061 1.351 . S
C1062 C1063 1.434 . S
C1063 C1054 1.429 . S
C1063 N1060 1.350 . S
C1063 C1062 1.434 . S
C1064 C1065 1.369 . S
C1064 C1066 1.419 . S
C1064 H1068 0.930 . S
C1065 C1064 1.369 . S
C1065 C1074 1.429 . S
C1066 C1064 1.419 . S
C1066 C1067 1.363 . S
C1066 H1069 0.929 . S
C1067 C1066 1.363 . S
C1067 C1073 1.428 . S
H1068 C1064 0.930 . S
H1069 C1066 0.929 . S
S1070 N1071 1.613 . S
S1070 N1072 1.610 . S
N1071 S1070 1.613 . S
N1071 C1074 1.350 . S
N1072 S1070 1.610 . S
N1072 C1073 1.351 . S
C1073 C1067 1.428 . S
C1073 N1072 1.351 . S
C1073 C1074 1.434 . S
C1074 C1065 1.429 . S
C1074 N1071 1.350 . S
C1074 C1073 1.434 . S
C1075 C1076 1.369 . S
C1075 C1077 1.419 . S
C1075 H1079 0.930 . S
C1076 C1075 1.369 . S
C1076 C1085 1.429 . S
C1077 C1075 1.419 . S
C1077 C1078 1.363 . S
C1077 H1080 0.929 . S
C1078 C1077 1.363 . S
C1078 C1084 1.428 . S
H1079 C1075 0.930 . S
H1080 C1077 0.929 . S
S1081 N1082 1.613 . S
S1081 N1083 1.610 . S
N1082 S1081 1.613 . S
N1082 C1085 1.350 . S
N1083 S1081 1.610 . S
N1083 C1084 1.351 . S
C1084 C1078 1.428 . S
C1084 N1083 1.351 . S
C1084 C1085 1.434 . S
C1085 C1076 1.429 . S
C1085 N1082 1.350 . S
C1085 C1084 1.434 . S
C1086 C1087 1.369 . S
C1086 C1088 1.419 . S
C1086 H1090 0.930 . S
C1087 C1086 1.369 . S
C1087 C1096 1.429 . S
C1088 C1086 1.419 . S
C1088 C1089 1.363 . S
C1088 H1091 0.929 . S
C1089 C1088 1.363 . S
C1089 C1095 1.428 . S
H1090 C1086 0.930 . S
H1091 C1088 0.929 . S
S1092 N1093 1.613 . S
S1092 N1094 1.610 . S
N1093 S1092 1.613 . S
N1093 C1096 1.350 . S
N1094 S1092 1.610 . S
N1094 C1095 1.351 . S
C1095 C1089 1.428 . S
C1095 N1094 1.351 . S
C1095 C1096 1.434 . S
C1096 C1087 1.429 . S
C1096 N1093 1.350 . S
C1096 C1095 1.434 . S
C1097 C1098 1.369 . S
C1097 C1099 1.419 . S
C1097 H1101 0.930 . S
C1098 C1097 1.369 . S
C1098 C1107 1.429 . S
C1099 C1097 1.419 . S
C1099 C1100 1.363 . S
C1099 H1102 0.929 . S
C1100 C1099 1.363 . S
C1100 C1106 1.428 . S
H1101 C1097 0.930 . S
H1102 C1099 0.929 . S
S1103 N1104 1.613 . S
S1103 N1105 1.610 . S
N1104 S1103 1.613 . S
N1104 C1107 1.350 . S
N1105 S1103 1.610 . S
N1105 C1106 1.351 . S
C1106 C1100 1.428 . S
C1106 N1105 1.351 . S
C1106 C1107 1.434 . S
C1107 C1098 1.429 . S
C1107 N1104 1.350 . S
C1107 C1106 1.434 . S
C1108 C1109 1.369 . S
C1108 C1110 1.419 . S
C1108 H1112 0.930 . S
C1109 C1108 1.369 . S
C1109 C1118 1.429 1_556 S
C1110 C1108 1.419 . S
C1110 C1111 1.363 . S
C1110 H1113 0.929 . S
C1111 C1110 1.363 . S
C1111 C1117 1.428 1_556 S
H1112 C1108 0.930 . S
H1113 C1110 0.929 . S
S1114 N1115 1.613 . S
S1114 N1116 1.610 . S
N1115 S1114 1.613 . S
N1115 C1118 1.350 . S
N1116 S1114 1.610 . S
N1116 C1117 1.351 . S
C1117 C1111 1.428 1_554 S
C1117 N1116 1.351 . S
C1117 C1118 1.434 . S
C1118 C1109 1.429 1_554 S
C1118 N1115 1.350 . S
C1118 C1117 1.434 . S
C1119 C1120 1.369 . S
C1119 C1121 1.419 . S
C1119 H1123 0.930 . S
C1120 C1119 1.369 . S
C1120 C1129 1.429 . S
C1121 C1119 1.419 . S
C1121 C1122 1.363 . S
C1121 H1124 0.929 . S
C1122 C1121 1.363 . S
C1122 C1128 1.428 . S
H1123 C1119 0.930 . S
H1124 C1121 0.929 . S
S1125 N1126 1.613 . S
S1125 N1127 1.610 . S
N1126 S1125 1.613 . S
N1126 C1129 1.350 . S
N1127 S1125 1.610 . S
N1127 C1128 1.351 . S
C1128 C1122 1.428 . S
C1128 N1127 1.351 . S
C1128 C1129 1.434 . S
C1129 C1120 1.429 . S
C1129 N1126 1.350 . S
C1129 C1128 1.434 . S
C1130 C1131 1.369 1_556 S
C1130 C1132 1.419 . S
C1130 H1134 0.930 . S
C1131 C1130 1.369 1_554 S
C1131 C1140 1.429 . S
C1132 C1130 1.419 . S
C1132 C1133 1.363 1_556 S
C1132 H1135 0.929 . S
C1133 C1132 1.363 1_554 S
C1133 C1139 1.428 . S
H1134 C1130 0.930 . S
H1135 C1132 0.929 . S
S1136 N1137 1.613 . S
S1136 N1138 1.610 . S
N1137 S1136 1.613 . S
N1137 C1140 1.350 . S
N1138 S1136 1.610 . S
N1138 C1139 1.351 . S
C1139 C1133 1.428 . S
C1139 N1138 1.351 . S
C1139 C1140 1.434 . S
C1140 C1131 1.429 . S
C1140 N1137 1.350 . S
C1140 C1139 1.434 . S
C1141 C1142 1.369 . S
C1141 C1143 1.419 . S
C1141 H1145 0.930 . S
C1142 C1141 1.369 . S
C1142 C1151 1.429 . S
C1143 C1141 1.419 . S
C1143 C1144 1.363 . S
C1143 H1146 0.929 . S
C1144 C1143 1.363 . S
C1144 C1150 1.428 . S
H1145 C1141 0.930 . S
H1146 C1143 0.929 . S
S1147 N1148 1.613 . S
S1147 N1149 1.610 . S
N1148 S1147 1.613 . S
N1148 C1151 1.350 . S
N1149 S1147 1.610 . S
N1149 C1150 1.351 . S
C1150 C1144 1.428 . S
C1150 N1149 1.351 . S
C1150 C1151 1.434 . S
C1151 C1142 1.429 . S
C1151 N1148 1.350 . S
C1151 C1150 1.434 . S
C449 C7 1.378 . S
C451 C49 1.376 . S
C460 C35 1.377 . S
C462 C21 1.374 . S
C471 C105 1.377 . S
C473 C63 1.374 . S
C482 C91 1.377 . S
C484 C77 1.374 . S
C493 C119 1.389 . S
C495 C161 1.388 . S
C504 C133 1.390 . S
C506 C147 1.388 . S
C515 C217 1.390 . S
C517 C175 1.391 . S
C526 C203 1.388 . S
C528 C189 1.389 . S
C537 C231 1.391 . S
C539 C273 1.391 . S
C548 C245 1.389 . S
C550 C259 1.388 . S
C559 C287 1.388 . S
C561 C329 1.389 . S
C570 C301 1.388 . S
C572 C315 1.388 . S
C581 C343 1.380 . S
C583 C385 1.373 . S
C592 C371 1.377 . S
C594 C357 1.374 . S
C603 C441 1.378 . S
C605 C399 1.374 . S
C614 C427 1.380 . S
C616 C413 1.374 . S
C625 C6 2.215 1_554 S
C627 C62 2.215 . S
C636 C412 2.219 1_556 S
C638 C20 2.212 1_554 S
C647 C34 2.185 . S
C649 C202 2.185 . S
C658 C328 2.187 . S
C660 C48 2.184 . S
C669 C356 2.211 1_554 S
C671 C76 2.218 1_556 S
C680 C90 2.183 . S
C682 C146 2.187 . S
C691 C104 2.182 . S
C693 C272 2.187 . S
C702 C174 2.189 . S
C704 C118 2.194 . S
C713 C300 2.196 . S
C715 C132 2.189 . S
C724 C160 2.180 . S
C726 C440 2.188 . S
C735 C188 2.188 . S
C737 C244 2.194 . S
C746 C216 2.185 . S
C748 C384 2.185 . S
C757 C286 2.192 . S
C759 C230 2.191 . S
C768 C258 2.185 . S
C770 C426 2.185 . S
C779 C314 2.182 . S
C781 C370 2.188 . S
C790 C398 2.212 1_556 S
C792 C342 2.218 1_554 S
C801 C8 1.434 . S
C803 C274 1.450 . S
C812 C22 1.437 . S
C814 C260 1.447 . S
C823 C246 1.422 . S
C825 C36 1.434 . S
C834 C232 1.425 . S
C836 C50 1.432 . S
C845 C64 1.436 . S
C847 C330 1.448 . S
C856 C78 1.434 . S
C858 C316 1.449 . S
C867 C92 1.432 . S
C869 C302 1.427 . S
C878 C288 1.432 . S
C880 C106 1.426 . S
C889 C120 1.431 . S
C891 C386 1.428 . S
C900 C372 1.429 . S
C902 C134 1.430 . S
C911 C358 1.433 . S
C913 C148 1.449 . S
C922 C162 1.446 . S
C924 C344 1.440 . S
C933 C176 1.424 . S
C935 C442 1.433 . S
C944 C190 1.428 . S
C946 C428 1.430 . S
C955 C414 1.437 . S
C957 C204 1.447 . S
C966 C218 1.446 . S
C968 C400 1.440 . S
C977 C23 1.637 1_455 S
C979 C9 1.648 . S
C988 C37 1.589 . S
C990 C51 1.604 1_455 S
C999 C79 1.650 1_655 S
C1001 C65 1.637 . S
C1010 C93 1.605 . S
C1012 C107 1.592 1_655 S
C1021 C135 1.616 1_455 S
C1023 C121 1.617 . S
C1032 C149 1.614 . S
C1034 C163 1.602 1_455 S
C1043 C177 1.621 . S
C1045 C191 1.612 1_655 S
C1054 C205 1.615 . S
C1056 C219 1.601 1_655 S
C1065 C233 1.608 . S
C1067 C247 1.621 . S
C1076 C275 1.615 . S
C1078 C261 1.603 . S
C1087 C289 1.623 . S
C1089 C303 1.610 . S
C1098 C331 1.601 . S
C1100 C317 1.613 . S
C1109 C359 1.647 . S
C1111 C345 1.637 . S
C1120 C373 1.589 . S
C1122 C387 1.604 . S
C1131 C401 1.646 . S
C1133 C415 1.640 . S
C1142 C443 1.591 . S
C1144 C429 1.602 . S
