# Generated by pormake.
# Topology wji, (4)-cn, num edge types: 1
# Building blocks:
#     Node 0, Type 0, BuildingBlock: QUQFOY_clean_sbu_1, # of connection points: 4
#     Node 1, Type 0, BuildingBlock: QUQFOY_clean_sbu_1, # of connection points: 4
#     Node 2, Type 0, BuildingBlock: QUQFOY_clean_sbu_1, # of connection points: 4
#     Node 3, Type 0, BuildingBlock: QUQFOY_clean_sbu_1, # of connection points: 4
#     Node 4, Type 0, BuildingBlock: QUQFOY_clean_sbu_1, # of connection points: 4
#     Node 5, Type 0, BuildingBlock: QUQFOY_clean_sbu_1, # of connection points: 4
#     Node 6, Type 0, BuildingBlock: QUQFOY_clean_sbu_1, # of connection points: 4
#     Node 7, Type 0, BuildingBlock: QUQFOY_clean_sbu_1, # of connection points: 4
#     Node 8, Type 0, BuildingBlock: QUQFOY_clean_sbu_1, # of connection points: 4
#     Node 9, Type 0, BuildingBlock: QUQFOY_clean_sbu_1, # of connection points: 4
#     Node 10, Type 0, BuildingBlock: QUQFOY_clean_sbu_1, # of connection points: 4
#     Node 11, Type 0, BuildingBlock: QUQFOY_clean_sbu_1, # of connection points: 4
#     Edge 12, Type (0, 0), BuildingBlock: KIFKEQ_clean_linker_1, # of connection points: 2
#     Edge 13, Type (0, 0), BuildingBlock: KIFKEQ_clean_linker_1, # of connection points: 2
#     Edge 14, Type (0, 0), BuildingBlock: KIFKEQ_clean_linker_1, # of connection points: 2
#     Edge 15, Type (0, 0), BuildingBlock: KIFKEQ_clean_linker_1, # of connection points: 2
#     Edge 16, Type (0, 0), BuildingBlock: KIFKEQ_clean_linker_1, # of connection points: 2
#     Edge 17, Type (0, 0), BuildingBlock: KIFKEQ_clean_linker_1, # of connection points: 2
#     Edge 18, Type (0, 0), BuildingBlock: KIFKEQ_clean_linker_1, # of connection points: 2
#     Edge 19, Type (0, 0), BuildingBlock: KIFKEQ_clean_linker_1, # of connection points: 2
#     Edge 20, Type (0, 0), BuildingBlock: KIFKEQ_clean_linker_1, # of connection points: 2
#     Edge 21, Type (0, 0), BuildingBlock: KIFKEQ_clean_linker_1, # of connection points: 2
#     Edge 22, Type (0, 0), BuildingBlock: KIFKEQ_clean_linker_1, # of connection points: 2
#     Edge 23, Type (0, 0), BuildingBlock: KIFKEQ_clean_linker_1, # of connection points: 2
#     Edge 24, Type (0, 0), BuildingBlock: KIFKEQ_clean_linker_1, # of connection points: 2
#     Edge 25, Type (0, 0), BuildingBlock: KIFKEQ_clean_linker_1, # of connection points: 2
#     Edge 26, Type (0, 0), BuildingBlock: KIFKEQ_clean_linker_1, # of connection points: 2
#     Edge 27, Type (0, 0), BuildingBlock: KIFKEQ_clean_linker_1, # of connection points: 2
#     Edge 28, Type (0, 0), BuildingBlock: KIFKEQ_clean_linker_1, # of connection points: 2
#     Edge 29, Type (0, 0), BuildingBlock: KIFKEQ_clean_linker_1, # of connection points: 2
#     Edge 30, Type (0, 0), BuildingBlock: KIFKEQ_clean_linker_1, # of connection points: 2
#     Edge 31, Type (0, 0), BuildingBlock: KIFKEQ_clean_linker_1, # of connection points: 2
#     Edge 32, Type (0, 0), BuildingBlock: KIFKEQ_clean_linker_1, # of connection points: 2
#     Edge 33, Type (0, 0), BuildingBlock: KIFKEQ_clean_linker_1, # of connection points: 2
#     Edge 34, Type (0, 0), BuildingBlock: KIFKEQ_clean_linker_1, # of connection points: 2
#     Edge 35, Type (0, 0), BuildingBlock: KIFKEQ_clean_linker_1, # of connection points: 2
# Relax obj value: 0.272
# Max RMSD: 0.193
# Mean RMSD: 0.193
data_MOF--net-wji--node1-QUQFOY_clean_sbu_1--edge1-KIFKEQ_clean_linker_1
_symmetry_space_group_name_H-M    P1
_symmetry_Int_Tables_number       1
_symmetry_cell_setting            triclinic
loop_
_symmetry_equiv_pos_as_xyz
'x, y, z'
_cell_length_a     63.360681
_cell_length_b     63.324032
_cell_length_c     22.257262
_cell_angle_alpha  90.006477
_cell_angle_beta   90.018086
_cell_angle_gamma 119.9662
loop_
_atom_site_label
_atom_site_type_symbol
_atom_site_fract_x
_atom_site_fract_y
_atom_site_fract_z
_atom_type_partial_charge
O0 O 0.39045 0.31562 0.49462 0.0
Cd1 Cd 0.39597 0.29985 0.42038 0.0
Cd2 Cd 0.43755 0.34723 0.41241 0.0
O3 O 0.42693 0.34832 0.49875 0.0
O4 O 0.37593 0.26452 0.43933 0.0
O5 O 0.41615 0.28368 0.43276 0.0
C6 C 0.39598 0.26422 0.4466 0.0
C7 C 0.47867 0.37759 0.39724 0.0
C8 C 0.40603 0.33481 0.5214 0.0
C9 C 0.39412 0.33007 0.32379 0.0
O10 O 0.4138 0.34641 0.34765 0.0
O11 O 0.38446 0.30796 0.34072 0.0
O12 O 0.46157 0.38258 0.40441 0.0
O13 O 0.47265 0.35491 0.39725 0.0
O14 O 0.08167 0.3912 0.64509 0.0
Cd15 Cd 0.10533 0.39848 0.57548 0.0
Cd16 Cd 0.09664 0.43858 0.55634 0.0
O17 O 0.0796 0.42487 0.63737 0.0
O18 O 0.12397 0.38189 0.59729 0.0
O19 O 0.14059 0.42205 0.59375 0.0
C20 C 0.14256 0.40321 0.60695 0.0
C21 C 0.10473 0.47899 0.54225 0.0
C22 C 0.07408 0.40508 0.66423 0.0
C23 C 0.07869 0.39652 0.46397 0.0
O24 O 0.08085 0.41653 0.48235 0.0
O25 O 0.08849 0.38627 0.49276 0.0
O26 O 0.0831 0.46056 0.54273 0.0
O27 O 0.12248 0.47476 0.54894 0.0
O28 O 0.70526 0.07816 0.79892 0.0
Cd29 Cd 0.71701 0.10386 0.73255 0.0
Cd30 Cd 0.66999 0.09629 0.74248 0.0
O31 O 0.6736 0.08205 0.82256 0.0
O32 O 0.7526 0.12564 0.74507 0.0
O33 O 0.72532 0.13733 0.75986 0.0
C34 C 0.74761 0.14194 0.76416 0.0
C35 C 0.63717 0.10414 0.74363 0.0
C36 C 0.68753 0.07345 0.83347 0.0
C37 C 0.68544 0.0766 0.63326 0.0
O38 O 0.6695 0.07753 0.66605 0.0
O39 O 0.70788 0.08897 0.64725 0.0
O40 O 0.63411 0.08257 0.74632 0.0
O41 O 0.65926 0.12199 0.7407 0.0
O42 O 0.62654 0.69365 0.97258 0.0
Cd43 Cd 0.61934 0.71059 0.90415 0.0
Cd44 Cd 0.57964 0.66331 0.88321 0.0
O45 O 0.59386 0.6575 0.96057 0.0
O46 O 0.63619 0.74561 0.92781 0.0
O47 O 0.59603 0.72252 0.92371 0.0
C48 C 0.61498 0.74308 0.9379 0.0
C49 C 0.53782 0.63438 0.87342 0.0
C50 C 0.61329 0.67166 0.98882 0.0
C51 C 0.62078 0.68691 0.78991 0.0
O52 O 0.60034 0.66932 0.80676 0.0
O53 O 0.63154 0.70639 0.82089 0.0
O54 O 0.55459 0.62887 0.86636 0.0
O55 O 0.5446 0.65685 0.88469 0.0
O56 O 0.93871 0.63627 0.1311 0.0
Cd57 Cd 0.91312 0.61613 0.06727 0.0
Cd58 Cd 0.92364 0.58238 0.098 0.0
O59 O 0.93203 0.6026 0.17584 0.0
O60 O 0.88797 0.62613 0.06921 0.0
O61 O 0.88147 0.59017 0.10145 0.0
C62 C 0.87401 0.60578 0.09654 0.0
C63 C 0.91223 0.54121 0.11204 0.0
C64 C 0.94129 0.62561 0.17636 0.0
C65 C 0.94431 0.61074 0.98213 0.0
O66 O 0.94661 0.59897 0.02551 0.0
O67 O 0.92769 0.61644 0.98375 0.0
O68 O 0.93379 0.55868 0.12384 0.0
O69 O 0.89662 0.54686 0.09175 0.0
O70 O 0.31709 0.92759 0.30892 0.0
Cd71 Cd 0.30314 0.90324 0.23939 0.0
Cd72 Cd 0.34971 0.91058 0.24177 0.0
O73 O 0.34831 0.92229 0.32709 0.0
O74 O 0.26764 0.88351 0.25621 0.0
O75 O 0.29259 0.8685 0.26046 0.0
C76 C 0.27118 0.86569 0.26997 0.0
C77 C 0.38111 0.90126 0.22827 0.0
C78 C 0.33494 0.93114 0.34176 0.0
C79 C 0.33295 0.93414 0.14399 0.0
O80 O 0.34924 0.93263 0.17396 0.0
O81 O 0.31055 0.92016 0.15626 0.0
O82 O 0.38535 0.92305 0.23671 0.0
O83 O 0.35871 0.88399 0.22825 0.0
O84 O 0.69795 0.62025 0.33089 0.0
Cd85 Cd 0.71486 0.61277 0.39892 0.0
Cd86 Cd 0.66723 0.57364 0.42079 0.0
O87 O 0.66139 0.58835 0.34442 0.0
O88 O 0.74972 0.62923 0.37429 0.0
O89 O 0.7264 0.58911 0.37951 0.0
C90 C 0.74697 0.60789 0.36464 0.0
C91 C 0.6373 0.53217 0.43112 0.0
C92 C 0.67577 0.60754 0.31567 0.0
C93 C 0.69204 0.61472 0.51408 0.0
O94 O 0.67423 0.59433 0.4977 0.0
O95 O 0.71128 0.62535 0.48228 0.0
O96 O 0.6327 0.54951 0.43928 0.0
O97 O 0.65942 0.53811 0.41816 0.0
O98 O 0.07937 0.70604 0.51174 0.0
Cd99 Cd 0.10523 0.71157 0.57485 0.0
Cd100 Cd 0.09451 0.66727 0.54466 0.0
O101 O 0.08563 0.67877 0.46704 0.0
O102 O 0.13071 0.74656 0.57126 0.0
O103 O 0.13651 0.71656 0.53984 0.0
C104 C 0.14428 0.7397 0.54378 0.0
C105 C 0.10571 0.63734 0.53057 0.0
C106 C 0.07646 0.6926 0.46669 0.0
C107 C 0.0744 0.6754 0.66105 0.0
O108 O 0.07196 0.66119 0.61787 0.0
O109 O 0.091 0.69772 0.65888 0.0
O110 O 0.0841 0.63329 0.51957 0.0
O111 O 0.1215 0.65868 0.55001 0.0
O112 O 0.3861 0.07057 0.67675 0.0
Cd113 Cd 0.3951 0.09702 0.74013 0.0
Cd114 Cd 0.43719 0.09176 0.74777 0.0
O115 O 0.4217 0.07235 0.67022 0.0
O116 O 0.37593 0.11272 0.71594 0.0
O117 O 0.41627 0.13199 0.71452 0.0
C118 C 0.39627 0.13186 0.70189 0.0
C119 C 0.47866 0.10303 0.75768 0.0
C120 C 0.39994 0.06398 0.65218 0.0
C121 C 0.39869 0.07426 0.85077 0.0
O122 O 0.41773 0.0765 0.82564 0.0
O123 O 0.38681 0.08333 0.82656 0.0
O124 O 0.46132 0.0809 0.76175 0.0
O125 O 0.4728 0.11947 0.74734 0.0
O126 O 0.31955 0.38881 0.85138 0.0
Cd127 Cd 0.30288 0.39903 0.91429 0.0
Cd128 Cd 0.3503 0.43898 0.93164 0.0
O129 O 0.3561 0.4211 0.86217 0.0
O130 O 0.26791 0.38277 0.89046 0.0
O131 O 0.29251 0.42278 0.88691 0.0
C132 C 0.27144 0.404 0.87548 0.0
C133 C 0.38057 0.48067 0.93334 0.0
C134 C 0.34187 0.40089 0.83699 0.0
C135 C 0.32587 0.40161 0.03279 0.0
O136 O 0.34352 0.42145 0.01319 0.0
O137 O 0.30662 0.38972 0.0015 0.0
O138 O 0.38501 0.4636 0.94704 0.0
O139 O 0.35842 0.47437 0.91968 0.0
O140 O 0.9369 0.31967 0.00303 0.0
Cd141 Cd 0.91197 0.30254 0.06979 0.0
Cd142 Cd 0.92133 0.35146 0.09245 0.0
O143 O 0.94086 0.35609 0.01485 0.0
O144 O 0.89396 0.26763 0.04489 0.0
O145 O 0.87692 0.29077 0.04822 0.0
C146 C 0.87538 0.27024 0.03399 0.0
C147 C 0.91305 0.38369 0.10579 0.0
C148 C 0.94604 0.34175 0.98708 0.0
C149 C 0.93643 0.32525 0.18547 0.0
O150 O 0.93468 0.34349 0.16848 0.0
O151 O 0.92742 0.30589 0.15397 0.0
O152 O 0.93458 0.38672 0.10944 0.0
O153 O 0.89548 0.3619 0.09541 0.0
O154 O 0.63586 0.93478 0.17115 0.0
Cd155 Cd 0.62261 0.90939 0.23833 0.0
Cd156 Cd 0.58248 0.91521 0.22723 0.0
O157 O 0.59969 0.92899 0.14632 0.0
O158 O 0.63653 0.88769 0.22611 0.0
O159 O 0.59748 0.87582 0.21193 0.0
C160 C 0.61522 0.87129 0.20746 0.0
C161 C 0.54138 0.90588 0.22733 0.0
C162 C 0.62232 0.93841 0.13569 0.0
C163 C 0.61769 0.93677 0.33582 0.0
O164 O 0.60065 0.93513 0.30245 0.0
O165 O 0.62815 0.92463 0.3232 0.0
O166 O 0.5593 0.92771 0.22306 0.0
O167 O 0.54644 0.88857 0.23071 0.0
H168 H 0.30024 0.35389 0.07178 0.0
H169 H 0.36257 0.42398 0.11379 0.0
H170 H 0.31369 0.3347 0.1465 0.0
H171 H 0.37652 0.40501 0.18508 0.0
H172 H 0.39241 0.37131 0.33703 0.0
H173 H 0.37125 0.38661 0.27679 0.0
H174 H 0.34435 0.32349 0.16108 0.0
H175 H 0.36458 0.30724 0.22517 0.0
C176 C 0.31648 0.36529 0.09781 0.0
C177 C 0.3303 0.39052 0.08671 0.0
C178 C 0.32444 0.35422 0.13992 0.0
C179 C 0.34635 0.36816 0.1718 0.0
C180 C 0.35937 0.39355 0.16252 0.0
C181 C 0.35137 0.40454 0.12114 0.0
C182 C 0.38202 0.36064 0.29864 0.0
C183 C 0.38064 0.33833 0.28496 0.0
C184 C 0.36987 0.36949 0.26383 0.0
C185 C 0.35647 0.35668 0.2129 0.0
C186 C 0.3544 0.33387 0.20006 0.0
C187 C 0.36617 0.32463 0.23627 0.0
H188 H 0.06335 0.41641 0.37841 0.0
H189 H 0.05299 0.34724 0.44053 0.0
H190 H 0.02741 0.39533 0.31531 0.0
H191 H 0.01656 0.32598 0.37712 0.0
H192 H 0.96359 0.303 0.20506 0.0
H193 H 0.9995 0.31818 0.27023 0.0
H194 H 0.98378 0.372 0.34319 0.0
H195 H 0.94835 0.35716 0.2781 0.0
C196 C 0.05366 0.39666 0.37772 0.0
C197 C 0.06095 0.38354 0.41499 0.0
C198 C 0.03287 0.38456 0.34204 0.0
C199 C 0.01869 0.35898 0.34265 0.0
C200 C 0.02699 0.3457 0.37611 0.0
C201 C 0.04796 0.35789 0.41206 0.0
C202 C 0.96738 0.31754 0.23646 0.0
C203 C 0.95325 0.32905 0.23597 0.0
C204 C 0.98806 0.32635 0.27344 0.0
C205 C 0.99489 0.34677 0.31045 0.0
C206 C 0.97945 0.35673 0.31377 0.0
C207 C 0.95895 0.34803 0.27696 0.0
H208 H 0.65678 0.95033 0.41285 0.0
H209 H 0.60067 0.96715 0.36521 0.0
H210 H 0.6742 0.98493 0.48272 0.0
H211 H 0.61855 1.0019 0.43121 0.0
H212 H 0.63866 0.04693 0.5979 0.0
H213 H 0.62289 0.01242 0.53125 0.0
H214 H 0.69621 0.02893 0.48952 0.0
H215 H 0.71221 0.06329 0.56003 0.0
C216 C 0.64805 0.96121 0.41757 0.0
C217 C 0.62716 0.95571 0.38369 0.0
C218 C 0.65824 0.98128 0.45693 0.0
C219 C 0.64784 0.99634 0.46288 0.0
C220 C 0.62687 0.99057 0.42917 0.0
C221 C 0.61659 0.97052 0.39084 0.0
C222 C 0.65161 0.04352 0.57425 0.0
C223 C 0.6768 0.05809 0.58442 0.0
C224 C 0.64248 0.02361 0.53553 0.0
C225 C 0.6582 0.01775 0.50447 0.0
C226 C 0.68351 0.03265 0.51325 0.0
C227 C 0.69272 0.05259 0.55295 0.0
H228 H 0.65874 0.5949 0.60406 0.0
H229 H 0.71468 0.66414 0.53463 0.0
H230 H 0.64375 0.6158 0.66758 0.0
H231 H 0.69939 0.68517 0.59836 0.0
H232 H 0.67009 0.70968 0.76798 0.0
H233 H 0.69104 0.69415 0.70475 0.0
H234 H 0.62155 0.63729 0.63925 0.0
H235 H 0.60074 0.65252 0.70222 0.0
C236 C 0.6682 0.61465 0.60331 0.0
C237 C 0.68777 0.6278 0.56377 0.0
C238 C 0.65942 0.62663 0.63924 0.0
C239 C 0.6699 0.65211 0.63659 0.0
C240 C 0.6908 0.66551 0.60101 0.0
C241 C 0.69966 0.65345 0.56485 0.0
C242 C 0.65934 0.69431 0.73872 0.0
C243 C 0.6337 0.6822 0.74064 0.0
C244 C 0.67136 0.68531 0.70284 0.0
C245 C 0.65792 0.66405 0.66843 0.0
C246 C 0.63242 0.65325 0.66671 0.0
C247 C 0.62048 0.66218 0.70232 0.0
H248 H 0.02856 0.63644 0.65603 0.0
H249 H 0.07805 0.69375 0.77528 0.0
H250 H 0.99689 0.62185 0.73272 0.0
H251 H 0.04623 0.67848 0.85304 0.0
H252 H 0.99027 0.61791 0.98818 0.0
H253 H 0.02205 0.63486 0.91169 0.0
H254 H 0.97271 0.64153 0.79003 0.0
H255 H 0.9408 0.62512 0.86752 0.0
C256 C 0.03278 0.64581 0.69887 0.0
C257 C 0.05593 0.6662 0.70971 0.0
C258 C 0.01453 0.63754 0.74249 0.0
C259 C 0.0191 0.64911 0.79851 0.0
C260 C 0.04229 0.66928 0.81002 0.0
C261 C 0.06047 0.67797 0.76568 0.0
C262 C 0.98608 0.6229 0.9451 0.0
C263 C 0.96291 0.62 0.93376 0.0
C264 C 1.0044 0.63281 0.9016 0.0
C265 C 0.99985 0.63958 0.84524 0.0
C266 C 0.97663 0.63644 0.8333 0.0
C267 C 0.95841 0.62704 0.87749 0.0
H268 H 0.42224 0.05667 0.91772 0.0
H269 H 0.35243 0.05266 0.8998 0.0
H270 H 0.4049 0.02306 0.98722 0.0
H271 H 0.33503 0.01925 0.97307 0.0
H272 H 0.30778 0.94072 0.05033 0.0
H273 H 0.32281 0.97652 0.98426 0.0
H274 H 0.39053 0.01144 0.08346 0.0
H275 H 0.37634 0.97581 0.14566 0.0
C276 C 0.40325 0.04903 0.92989 0.0
C277 C 0.38878 0.05747 0.90297 0.0
C278 C 0.39323 0.02966 0.97026 0.0
C279 C 0.36845 0.01826 0.98617 0.0
C280 C 0.35409 0.02733 0.96131 0.0
C281 C 0.36416 0.04676 0.92009 0.0
C282 C 0.32595 0.95601 0.05724 0.0
C283 C 0.34106 0.95509 0.10222 0.0
C284 C 0.33449 0.97665 0.01994 0.0
C285 C 0.3581 0.99686 0.02777 0.0
C286 C 0.37261 0.99606 0.07443 0.0
C287 C 0.36438 0.97547 0.11039 0.0
H288 H 0.59409 0.51538 0.48725 0.0
H289 H 0.63465 0.49143 0.37849 0.0
H290 H 0.55772 0.47578 0.47587 0.0
H291 H 0.59763 0.45129 0.36669 0.0
H292 H 0.52112 0.37665 0.4192 0.0
H293 H 0.56232 0.41236 0.42923 0.0
H294 H 0.53433 0.45928 0.37619 0.0
H295 H 0.49377 0.42422 0.36653 0.0
C296 C 0.59533 0.5015 0.46157 0.0
C297 C 0.61712 0.50663 0.43296 0.0
C298 C 0.57446 0.47883 0.45495 0.0
C299 C 0.57477 0.4607 0.4193 0.0
C300 C 0.59695 0.46504 0.3942 0.0
C301 C 0.61806 0.48794 0.40101 0.0
C302 C 0.52399 0.39458 0.40852 0.0
C303 C 0.50418 0.39771 0.39304 0.0
C304 C 0.54748 0.41494 0.41433 0.0
C305 C 0.55131 0.43855 0.40478 0.0
C306 C 0.53178 0.44133 0.38517 0.0
C307 C 0.50854 0.4212 0.37948 0.0
H308 H 0.14768 0.52334 0.54331 0.0
H309 H 0.06961 0.49088 0.52645 0.0
H310 H 0.15207 0.56405 0.53356 0.0
H311 H 0.07389 0.53082 0.51815 0.0
H312 H 0.08469 0.6001 0.45162 0.0
H313 H 0.08839 0.56376 0.44753 0.0
H314 H 0.1422 0.59255 0.58916 0.0
H315 H 0.13911 0.62971 0.59148 0.0
C316 C 0.13153 0.52486 0.53735 0.0
C317 C 0.10832 0.50385 0.53529 0.0
C318 C 0.13403 0.54813 0.53206 0.0
C319 C 0.11336 0.55069 0.52424 0.0
C320 C 0.09027 0.52959 0.52255 0.0
C321 C 0.0878 0.50659 0.52779 0.0
C322 C 0.09763 0.59888 0.48121 0.0
C323 C 0.11133 0.61752 0.52253 0.0
C324 C 0.09968 0.57801 0.47907 0.0
C325 C 0.11513 0.57496 0.51909 0.0
C326 C 0.13013 0.59434 0.55775 0.0
C327 C 0.12832 0.61556 0.55923 0.0
H328 H 0.52028 0.14051 0.70678 0.0
H329 H 0.49437 0.07763 0.82231 0.0
H330 H 0.5608 0.14406 0.70444 0.0
H331 H 0.53444 0.08152 0.82142 0.0
H332 H 0.59009 0.069 0.73113 0.0
H333 H 0.55399 0.07265 0.73779 0.0
H334 H 0.59852 0.15032 0.7647 0.0
H335 H 0.6354 0.14672 0.75696 0.0
C336 C 0.52341 0.12787 0.73274 0.0
C337 C 0.50413 0.10852 0.7638 0.0
C338 C 0.54655 0.12991 0.73148 0.0
C339 C 0.55061 0.11271 0.76161 0.0
C340 C 0.53172 0.09464 0.79637 0.0
C341 C 0.50877 0.09246 0.79706 0.0
C342 C 0.59238 0.08694 0.73843 0.0
C343 C 0.61567 0.10753 0.74435 0.0
C344 C 0.5716 0.08901 0.74253 0.0
C345 C 0.57336 0.11169 0.75312 0.0
C346 C 0.59663 0.13258 0.75679 0.0
C347 C 0.61768 0.13051 0.75251 0.0
H348 H 0.49758 0.63552 0.91692 0.0
H349 H 0.51971 0.58872 0.82956 0.0
H350 H 0.45655 0.60012 0.93201 0.0
H351 H 0.47927 0.55393 0.84481 0.0
H352 H 0.4263 0.49808 0.97588 0.0
H353 H 0.46189 0.5376 0.9572 0.0
H354 H 0.41739 0.56099 0.86413 0.0
H355 H 0.38113 0.5208 0.88255 0.0
C356 C 0.49355 0.61789 0.89971 0.0
C357 C 0.51197 0.61481 0.87291 0.0
C358 C 0.47014 0.59772 0.90833 0.0
C359 C 0.46501 0.57436 0.89029 0.0
C360 C 0.48292 0.57173 0.85977 0.0
C361 C 0.50608 0.59169 0.85111 0.0
C362 C 0.42387 0.51163 0.95207 0.0
C363 C 0.40092 0.50615 0.9299 0.0
C364 C 0.4443 0.53428 0.94142 0.0
C365 C 0.44236 0.55212 0.90854 0.0
C366 C 0.41926 0.54743 0.88955 0.0
C367 C 0.3986 0.52451 0.90008 0.0
H368 H 0.94779 0.43039 0.12737 0.0
H369 H 0.87034 0.38537 0.09739 0.0
H370 H 0.94352 0.46609 0.13399 0.0
H371 H 0.8659 0.4217 0.10566 0.0
H372 H 0.88006 0.50051 0.04824 0.0
H373 H 0.8769 0.46026 0.05172 0.0
H374 H 0.92778 0.48451 0.19989 0.0
H375 H 0.93166 0.52461 0.19449 0.0
C376 C 0.92971 0.42803 0.12284 0.0
C377 C 0.90939 0.40495 0.11206 0.0
C378 C 0.92723 0.4486 0.12715 0.0
C379 C 0.90431 0.44679 0.12129 0.0
C380 C 0.88383 0.42371 0.11036 0.0
C381 C 0.88634 0.40292 0.10593 0.0
C382 C 0.89019 0.49697 0.08211 0.0
C383 C 0.90645 0.51573 0.12036 0.0
C384 C 0.88834 0.47394 0.08425 0.0
C385 C 0.90253 0.46934 0.12518 0.0
C386 C 0.91717 0.48763 0.16658 0.0
C387 C 0.91931 0.51059 0.16373 0.0
H388 H 0.42277 0.93097 0.17035 0.0
H389 H 0.38614 0.8624 0.26507 0.0
H390 H 0.45981 0.92864 0.16673 0.0
H391 H 0.42401 0.86044 0.26364 0.0
H392 H 0.49792 0.86305 0.20772 0.0
H393 H 0.45693 0.85836 0.20264 0.0
H394 H 0.48771 0.93454 0.24736 0.0
H395 H 0.52795 0.93928 0.25082 0.0
C396 C 0.42265 0.91526 0.19008 0.0
C397 C 0.40176 0.89706 0.21877 0.0
C398 C 0.44392 0.91397 0.18832 0.0
C399 C 0.44507 0.89471 0.21643 0.0
C400 C 0.42369 0.87555 0.24179 0.0
C401 C 0.40208 0.87667 0.24269 0.0
C402 C 0.49575 0.87867 0.21662 0.0
C403 C 0.51619 0.90162 0.22862 0.0
C404 C 0.47234 0.87599 0.21384 0.0
C405 C 0.46916 0.89622 0.22317 0.0
C406 C 0.48956 0.91875 0.23797 0.0
C407 C 0.5127 0.92144 0.24026 0.0
H408 H 0.3169 0.36501 0.75438 0.0
H409 H 0.38937 0.4137 0.82158 0.0
H410 H 0.3336 0.34804 0.68303 0.0
H411 H 0.40595 0.39603 0.75242 0.0
H412 H 0.42887 0.38024 0.57051 0.0
H413 H 0.41366 0.39559 0.6492 0.0
H414 H 0.35185 0.32328 0.67448 0.0
H415 H 0.3666 0.30812 0.59352 0.0
C416 C 0.33637 0.37195 0.75413 0.0
C417 C 0.35185 0.39079 0.7931 0.0
C418 C 0.34594 0.36207 0.71372 0.0
C419 C 0.37113 0.37061 0.71214 0.0
C420 C 0.38653 0.38929 0.75172 0.0
C421 C 0.37701 0.3994 0.79144 0.0
C422 C 0.41223 0.36752 0.59346 0.0
C423 C 0.39882 0.34301 0.57554 0.0
C424 C 0.40352 0.37632 0.63879 0.0
C425 C 0.38139 0.36071 0.66779 0.0
C426 C 0.36866 0.33589 0.65204 0.0
C427 C 0.37721 0.32716 0.60608 0.0
H428 H 0.95642 0.3159 0.9058 0.0
H429 H 0.97712 0.38939 0.95935 0.0
H430 H 0.98814 0.33199 0.82934 0.0
H431 H 0.00936 0.40543 0.88458 0.0
H432 H 0.04693 0.42504 0.70174 0.0
H433 H 0.01571 0.40976 0.77897 0.0
H434 H 0.03164 0.35246 0.8205 0.0
H435 H 0.06235 0.36725 0.74151 0.0
C436 C 0.96776 0.33548 0.90126 0.0
C437 C 0.96424 0.35137 0.93844 0.0
C438 C 0.98608 0.3447 0.85786 0.0
C439 C 1.0014 0.36999 0.85118 0.0
C440 C 0.99769 0.38586 0.88803 0.0
C441 C 0.97922 0.37665 0.93098 0.0
C442 C 0.04394 0.40931 0.72768 0.0
C443 C 0.05703 0.39728 0.71535 0.0
C444 C 0.02607 0.40058 0.77212 0.0
C445 C 0.02107 0.37979 0.80562 0.0
C446 C 0.03471 0.36822 0.7946 0.0
C447 C 0.05245 0.37682 0.74972 0.0
H448 H 0.67073 0.96802 0.11058 0.0
H449 H 0.59858 0.94899 0.04916 0.0
H450 H 0.68846 1.00168 0.039 0.0
H451 H 0.61635 0.9823 0.97723 0.0
H452 H 0.65188 0.06041 0.91757 0.0
H453 H 0.63743 0.02691 0.98871 0.0
H454 H 0.69367 0.01193 0.93036 0.0
H455 H 0.70851 0.0458 0.85954 0.0
C456 C 0.65868 0.97071 0.08108 0.0
C457 C 0.63324 0.95603 0.08601 0.0
C458 C 0.66885 0.98999 0.04015 0.0
C459 C 0.65374 0.99487 0.00352 0.0
C460 C 0.62839 0.97932 0.00609 0.0
C461 C 0.61824 0.96012 0.04693 0.0
C462 C 0.66139 0.0502 0.92034 0.0
C463 C 0.68119 0.05561 0.8825 0.0
C464 C 0.65297 0.03088 0.96072 0.0
C465 C 0.66412 0.01653 0.96408 0.0
C466 C 0.68471 0.02268 0.92858 0.0
C467 C 0.69319 0.04208 0.88809 0.0
H468 H 0.59445 0.62414 0.02232 0.0
H469 H 0.6502 0.69747 0.06833 0.0
H470 H 0.60951 0.60807 0.10016 0.0
H471 H 0.66476 0.68141 0.14746 0.0
H472 H 0.70184 0.64391 0.23512 0.0
H473 H 0.68605 0.659 0.15658 0.0
H474 H 0.61245 0.60569 0.20725 0.0
H475 H 0.62823 0.59009 0.28452 0.0
C476 C 0.60972 0.63685 0.04957 0.0
C477 C 0.62121 0.66207 0.03902 0.0
C478 C 0.61829 0.62763 0.09431 0.0
C479 C 0.63842 0.64346 0.1297 0.0
C480 C 0.64952 0.66872 0.12011 0.0
C481 C 0.64107 0.67793 0.07509 0.0
C482 C 0.68229 0.63532 0.22925 0.0
C483 C 0.66628 0.61584 0.26603 0.0
C484 C 0.67324 0.64409 0.18457 0.0
C485 C 0.648 0.63367 0.17605 0.0
C486 C 0.632 0.61394 0.21227 0.0
C487 C 0.64105 0.60505 0.25666 0.0
H488 H 0.06721 0.66602 0.36423 0.0
H489 H 0.04679 0.71261 0.45991 0.0
H490 H 0.03296 0.65387 0.29629 0.0
H491 H 0.01246 0.70039 0.39058 0.0
H492 H 0.94963 0.60804 0.27967 0.0
H493 H 0.98374 0.62974 0.34823 0.0
H494 H 1.00563 0.6969 0.25323 0.0
H495 H 0.97145 0.6752 0.18332 0.0
C496 C 0.0558 0.67414 0.36995 0.0
C497 C 0.05945 0.68995 0.41811 0.0
C498 C 0.03623 0.66715 0.33107 0.0
C499 C 0.02013 0.67603 0.33918 0.0
C500 C 0.02477 0.69337 0.38393 0.0
C501 C 0.04437 0.70031 0.42335 0.0
C502 C 0.9613 0.62752 0.27395 0.0
C503 C 0.95811 0.63982 0.22539 0.0
C504 C 0.98079 0.63988 0.3132 0.0
C505 C 0.99725 0.66476 0.30504 0.0
C506 C 0.99303 0.67764 0.25994 0.0
C507 C 0.97352 0.66521 0.22018 0.0
H508 H 0.31662 0.9606 0.37122 0.0
H509 H 0.36952 0.94041 0.42722 0.0
H510 H 0.33217 0.99277 0.44605 0.0
H511 H 0.38451 0.97212 0.50386 0.0
H512 H 0.35231 0.03521 0.62084 0.0
H513 H 0.33526 1.00132 0.55061 0.0
H514 H 0.40781 0.01582 0.50714 0.0
H515 H 0.42485 0.04922 0.57928 0.0
C516 C 0.33124 0.96269 0.40038 0.0
C517 C 0.34196 0.94806 0.39305 0.0
C518 C 0.34012 0.98113 0.44342 0.0
C519 C 0.35975 0.98518 0.4805 0.0
C520 C 0.36973 0.96981 0.47502 0.0
C521 C 0.36098 0.95149 0.43155 0.0
C522 C 0.36466 0.03128 0.59603 0.0
C523 C 0.38994 0.04489 0.60559 0.0
C524 C 0.35487 0.01186 0.55568 0.0
C525 C 0.37016 1.00577 0.52354 0.0
C526 C 0.3955 0.01972 0.53218 0.0
C527 C 0.40529 0.03901 0.57302 0.0
H528 H 0.43356 0.25454 0.45917 0.0
H529 H 0.35825 0.2273 0.50649 0.0
H530 H 0.43385 0.22251 0.51987 0.0
H531 H 0.35883 0.19653 0.56955 0.0
H532 H 0.35847 0.13007 0.63998 0.0
H533 H 0.35879 0.16052 0.57372 0.0
H534 H 0.4344 0.2097 0.61806 0.0
H535 H 0.43434 0.17826 0.68187 0.0
C536 C 0.41704 0.24163 0.48221 0.0
C537 C 0.39583 0.24336 0.47745 0.0
C538 C 0.41726 0.22343 0.51778 0.0
C539 C 0.39639 0.20678 0.55024 0.0
C540 C 0.37515 0.20849 0.54455 0.0
C541 C 0.37482 0.22631 0.50828 0.0
C542 C 0.37514 0.14746 0.63608 0.0
C543 C 0.39633 0.15178 0.66666 0.0
C544 C 0.37533 0.16508 0.59801 0.0
C545 C 0.39659 0.18785 0.59028 0.0
C546 C 0.41776 0.19232 0.62176 0.0
C547 C 0.41768 0.1744 0.65907 0.0
H548 H 0.22377 0.36941 0.85985 0.0
H549 H 0.27669 0.44328 0.81103 0.0
H550 H 0.19417 0.3708 0.79293 0.0
H551 H 0.24727 0.44446 0.74211 0.0
H552 H 0.17867 0.44343 0.66417 0.0
H553 H 0.20999 0.44504 0.73115 0.0
H554 H 0.18672 0.36994 0.68864 0.0
H555 H 0.15501 0.36816 0.62369 0.0
C556 C 0.22906 0.38603 0.83502 0.0
C557 C 0.25263 0.40621 0.84075 0.0
C558 C 0.21215 0.38675 0.79597 0.0
C559 C 0.2184 0.40757 0.76094 0.0
C560 C 0.24172 0.42813 0.76839 0.0
C561 C 0.25862 0.42747 0.80799 0.0
C562 C 0.18053 0.4274 0.66844 0.0
C563 C 0.16424 0.40562 0.63885 0.0
C564 C 0.19849 0.4283 0.70695 0.0
C565 C 0.20067 0.40748 0.71641 0.0
C566 C 0.18518 0.38614 0.68405 0.0
C567 C 0.16713 0.38518 0.64612 0.0
H568 H 0.86518 0.22393 0.00908 0.0
H569 H 0.83811 0.27363 0.98051 0.0
H570 H 0.83406 0.19454 0.94205 0.0
H571 H 0.8072 0.24437 0.91181 0.0
H572 H 0.74103 0.17397 0.83373 0.0
H573 H 0.7706 0.20507 0.90144 0.0
H574 H 0.82609 0.19012 0.83658 0.0
H575 H 0.79646 0.15871 0.77042 0.0
C576 C 0.85245 0.22853 0.98882 0.0
C577 C 0.85422 0.25118 0.0001 0.0
C578 C 0.83474 0.21176 0.94973 0.0
C579 C 0.81837 0.21723 0.92036 0.0
C580 C 0.81945 0.23949 0.93361 0.0
C581 C 0.83716 0.25627 0.97311 0.0
C582 C 0.75965 0.17763 0.83321 0.0
C583 C 0.76633 0.16373 0.79687 0.0
C584 C 0.77662 0.19546 0.87215 0.0
C585 C 0.80067 0.19983 0.87548 0.0
C586 C 0.80759 0.18681 0.83659 0.0
C587 C 0.79064 0.16895 0.79804 0.0
H588 H 0.57657 0.83915 0.13831 0.0
H589 H 0.64739 0.8546 0.20094 0.0
H590 H 0.57509 0.80812 0.07041 0.0
H591 H 0.64565 0.82324 0.1346 0.0
H592 H 0.57428 0.73966 0.99104 0.0
H593 H 0.57256 0.76891 0.05969 0.0
H594 H 0.64909 0.81889 0.02906 0.0
H595 H 0.65092 0.78951 0.96209 0.0
C596 C 0.59157 0.83554 0.13865 0.0
C597 C 0.61217 0.84948 0.17483 0.0
C598 C 0.59074 0.81775 0.09959 0.0
C599 C 0.61047 0.81346 0.096 0.0
C600 C 0.63042 0.8265 0.13477 0.0
C601 C 0.63131 0.84432 0.17344 0.0
C602 C 0.59064 0.75706 -0.0017 0.0
C603 C 0.61277 0.76219 0.97128 0.0
C604 C 0.58966 0.77383 0.03779 0.0
C605 C 0.61079 0.79612 0.05097 0.0
C606 C 0.6326 0.80165 0.02146 0.0
C607 C 0.6336 0.78489 0.98238 0.0
H608 H 0.79218 0.64404 0.33189 0.0
H609 H 0.74426 0.56614 0.31978 0.0
H610 H 0.82087 0.64116 0.26469 0.0
H611 H 0.77302 0.56331 0.2514 0.0
H612 H 0.85331 0.63459 0.09213 0.0
H613 H 0.8221 0.63326 0.15825 0.0
H614 H 0.81412 0.56825 0.24259 0.0
H615 H 0.8452 0.56934 0.17551 0.0
C616 C 0.78785 0.62623 0.31535 0.0
C617 C 0.76584 0.60534 0.33112 0.0
C618 C 0.80421 0.62461 0.27621 0.0
C619 C 0.79904 0.60206 0.25157 0.0
C620 C 0.77756 0.58096 0.26948 0.0
C621 C 0.7611 0.58258 0.30878 0.0
C622 C 0.84462 0.61974 0.12398 0.0
C623 C 0.8519 0.60216 0.12867 0.0
C624 C 0.82689 0.61912 0.16242 0.0
C625 C 0.81596 0.60096 0.20671 0.0
C626 C 0.82217 0.58251 0.20907 0.0
C627 C 0.83997 0.58312 0.17048 0.0
H628 H 0.16435 0.78916 0.54181 0.0
H629 H 0.17343 0.73106 0.46822 0.0
H630 H 0.1953 0.81795 0.47338 0.0
H631 H 0.20438 0.76001 0.39906 0.0
H632 H 0.27465 0.82798 0.32097 0.0
H633 H 0.24571 0.79699 0.39021 0.0
H634 H 0.19611 0.82432 0.36431 0.0
H635 H 0.2249 0.85525 0.29592 0.0
C636 C 0.1732 0.78256 0.51169 0.0
C637 C 0.16625 0.75773 0.51037 0.0
C638 C 0.19079 0.79905 0.47194 0.0
C639 C 0.20195 0.79119 0.42981 0.0
C640 C 0.1961 0.76665 0.43084 0.0
C641 C 0.17839 0.75007 0.47061 0.0
C642 C 0.25737 0.82708 0.32923 0.0
C643 C 0.25218 0.84422 0.30308 0.0
C644 C 0.24082 0.80935 0.36905 0.0
C645 C 0.21882 0.8085 0.38377 0.0
C646 C 0.21316 0.82485 0.35517 0.0
C647 C 0.22959 0.84245 0.31538 0.0
loop_
_geom_bond_atom_site_label_1
_geom_bond_atom_site_label_2
_geom_bond_distance
_geom_bond_site_symmetry_2
_ccdc_geom_bond_type
O0 Cd1 2.223 . S
O0 C8 1.315 . S
Cd1 O0 2.223 . S
Cd1 O4 2.297 . S
Cd1 O5 2.439 . S
Cd1 O11 2.240 . S
Cd2 O3 2.240 . S
Cd2 O10 2.223 . S
Cd2 O12 2.297 . S
Cd2 O13 2.439 . S
O3 Cd2 2.240 . S
O3 C8 1.279 . S
O4 Cd1 2.297 . S
O4 C6 1.247 . S
O5 Cd1 2.439 . S
O5 C6 1.208 . S
C6 O4 1.247 . S
C6 O5 1.208 . S
C7 O12 1.247 . S
C7 O13 1.208 . S
C8 O0 1.315 . S
C8 O3 1.279 . S
C9 O10 1.315 . S
C9 O11 1.279 . S
O10 Cd2 2.223 . S
O10 C9 1.315 . S
O11 Cd1 2.240 . S
O11 C9 1.279 . S
O12 Cd2 2.297 . S
O12 C7 1.247 . S
O13 Cd2 2.439 . S
O13 C7 1.208 . S
O14 Cd15 2.223 . S
O14 C22 1.315 . S
Cd15 O14 2.223 . S
Cd15 O18 2.297 . S
Cd15 O19 2.439 . S
Cd15 O25 2.240 . S
Cd16 O17 2.240 . S
Cd16 O24 2.223 . S
Cd16 O26 2.297 . S
Cd16 O27 2.439 . S
O17 Cd16 2.240 . S
O17 C22 1.279 . S
O18 Cd15 2.297 . S
O18 C20 1.247 . S
O19 Cd15 2.439 . S
O19 C20 1.208 . S
C20 O18 1.247 . S
C20 O19 1.208 . S
C21 O26 1.247 . S
C21 O27 1.208 . S
C22 O14 1.315 . S
C22 O17 1.279 . S
C23 O24 1.315 . S
C23 O25 1.279 . S
O24 Cd16 2.223 . S
O24 C23 1.315 . S
O25 Cd15 2.240 . S
O25 C23 1.279 . S
O26 Cd16 2.297 . S
O26 C21 1.247 . S
O27 Cd16 2.439 . S
O27 C21 1.208 . S
O28 Cd29 2.223 . S
O28 C36 1.315 . S
Cd29 O28 2.223 . S
Cd29 O32 2.297 . S
Cd29 O33 2.439 . S
Cd29 O39 2.240 . S
Cd30 O31 2.240 . S
Cd30 O38 2.223 . S
Cd30 O40 2.297 . S
Cd30 O41 2.439 . S
O31 Cd30 2.240 . S
O31 C36 1.279 . S
O32 Cd29 2.297 . S
O32 C34 1.247 . S
O33 Cd29 2.439 . S
O33 C34 1.208 . S
C34 O32 1.247 . S
C34 O33 1.208 . S
C35 O40 1.247 . S
C35 O41 1.208 . S
C36 O28 1.315 . S
C36 O31 1.279 . S
C37 O38 1.315 . S
C37 O39 1.279 . S
O38 Cd30 2.223 . S
O38 C37 1.315 . S
O39 Cd29 2.240 . S
O39 C37 1.279 . S
O40 Cd30 2.297 . S
O40 C35 1.247 . S
O41 Cd30 2.439 . S
O41 C35 1.208 . S
O42 Cd43 2.223 . S
O42 C50 1.315 . S
Cd43 O42 2.223 . S
Cd43 O46 2.297 . S
Cd43 O47 2.439 . S
Cd43 O53 2.240 . S
Cd44 O45 2.240 . S
Cd44 O52 2.223 . S
Cd44 O54 2.297 . S
Cd44 O55 2.439 . S
O45 Cd44 2.240 . S
O45 C50 1.279 . S
O46 Cd43 2.297 . S
O46 C48 1.247 . S
O47 Cd43 2.439 . S
O47 C48 1.208 . S
C48 O46 1.247 . S
C48 O47 1.208 . S
C49 O54 1.247 . S
C49 O55 1.208 . S
C50 O42 1.315 . S
C50 O45 1.279 . S
C51 O52 1.315 . S
C51 O53 1.279 . S
O52 Cd44 2.223 . S
O52 C51 1.315 . S
O53 Cd43 2.240 . S
O53 C51 1.279 . S
O54 Cd44 2.297 . S
O54 C49 1.247 . S
O55 Cd44 2.439 . S
O55 C49 1.208 . S
O56 Cd57 2.223 . S
O56 C64 1.315 . S
Cd57 O56 2.223 . S
Cd57 O60 2.297 . S
Cd57 O61 2.439 . S
Cd57 O67 2.240 . S
Cd58 O59 2.240 . S
Cd58 O66 2.223 . S
Cd58 O68 2.297 . S
Cd58 O69 2.439 . S
O59 Cd58 2.240 . S
O59 C64 1.279 . S
O60 Cd57 2.297 . S
O60 C62 1.247 . S
O61 Cd57 2.439 . S
O61 C62 1.208 . S
C62 O60 1.247 . S
C62 O61 1.208 . S
C63 O68 1.247 . S
C63 O69 1.208 . S
C64 O56 1.315 . S
C64 O59 1.279 . S
C65 O66 1.315 . S
C65 O67 1.279 . S
O66 Cd58 2.223 . S
O66 C65 1.315 . S
O67 Cd57 2.240 . S
O67 C65 1.279 . S
O68 Cd58 2.297 . S
O68 C63 1.247 . S
O69 Cd58 2.439 . S
O69 C63 1.208 . S
O70 Cd71 2.223 . S
O70 C78 1.315 . S
Cd71 O70 2.223 . S
Cd71 O74 2.297 . S
Cd71 O75 2.439 . S
Cd71 O81 2.240 . S
Cd72 O73 2.240 . S
Cd72 O80 2.223 . S
Cd72 O82 2.297 . S
Cd72 O83 2.439 . S
O73 Cd72 2.240 . S
O73 C78 1.279 . S
O74 Cd71 2.297 . S
O74 C76 1.247 . S
O75 Cd71 2.439 . S
O75 C76 1.208 . S
C76 O74 1.247 . S
C76 O75 1.208 . S
C77 O82 1.247 . S
C77 O83 1.208 . S
C78 O70 1.315 . S
C78 O73 1.279 . S
C79 O80 1.315 . S
C79 O81 1.279 . S
O80 Cd72 2.223 . S
O80 C79 1.315 . S
O81 Cd71 2.240 . S
O81 C79 1.279 . S
O82 Cd72 2.297 . S
O82 C77 1.247 . S
O83 Cd72 2.439 . S
O83 C77 1.208 . S
O84 Cd85 2.223 . S
O84 C92 1.315 . S
Cd85 O84 2.223 . S
Cd85 O88 2.297 . S
Cd85 O89 2.439 . S
Cd85 O95 2.240 . S
Cd86 O87 2.240 . S
Cd86 O94 2.223 . S
Cd86 O96 2.297 . S
Cd86 O97 2.439 . S
O87 Cd86 2.240 . S
O87 C92 1.279 . S
O88 Cd85 2.297 . S
O88 C90 1.247 . S
O89 Cd85 2.439 . S
O89 C90 1.208 . S
C90 O88 1.247 . S
C90 O89 1.208 . S
C91 O96 1.247 . S
C91 O97 1.208 . S
C92 O84 1.315 . S
C92 O87 1.279 . S
C93 O94 1.315 . S
C93 O95 1.279 . S
O94 Cd86 2.223 . S
O94 C93 1.315 . S
O95 Cd85 2.240 . S
O95 C93 1.279 . S
O96 Cd86 2.297 . S
O96 C91 1.247 . S
O97 Cd86 2.439 . S
O97 C91 1.208 . S
O98 Cd99 2.223 . S
O98 C106 1.315 . S
Cd99 O98 2.223 . S
Cd99 O102 2.297 . S
Cd99 O103 2.439 . S
Cd99 O109 2.240 . S
Cd100 O101 2.240 . S
Cd100 O108 2.223 . S
Cd100 O110 2.297 . S
Cd100 O111 2.439 . S
O101 Cd100 2.240 . S
O101 C106 1.279 . S
O102 Cd99 2.297 . S
O102 C104 1.247 . S
O103 Cd99 2.439 . S
O103 C104 1.208 . S
C104 O102 1.247 . S
C104 O103 1.208 . S
C105 O110 1.247 . S
C105 O111 1.208 . S
C106 O98 1.315 . S
C106 O101 1.279 . S
C107 O108 1.315 . S
C107 O109 1.279 . S
O108 Cd100 2.223 . S
O108 C107 1.315 . S
O109 Cd99 2.240 . S
O109 C107 1.279 . S
O110 Cd100 2.297 . S
O110 C105 1.247 . S
O111 Cd100 2.439 . S
O111 C105 1.208 . S
O112 Cd113 2.223 . S
O112 C120 1.315 . S
Cd113 O112 2.223 . S
Cd113 O116 2.297 . S
Cd113 O117 2.439 . S
Cd113 O123 2.240 . S
Cd114 O115 2.240 . S
Cd114 O122 2.223 . S
Cd114 O124 2.297 . S
Cd114 O125 2.439 . S
O115 Cd114 2.240 . S
O115 C120 1.279 . S
O116 Cd113 2.297 . S
O116 C118 1.247 . S
O117 Cd113 2.439 . S
O117 C118 1.208 . S
C118 O116 1.247 . S
C118 O117 1.208 . S
C119 O124 1.247 . S
C119 O125 1.208 . S
C120 O112 1.315 . S
C120 O115 1.279 . S
C121 O122 1.315 . S
C121 O123 1.279 . S
O122 Cd114 2.223 . S
O122 C121 1.315 . S
O123 Cd113 2.240 . S
O123 C121 1.279 . S
O124 Cd114 2.297 . S
O124 C119 1.247 . S
O125 Cd114 2.439 . S
O125 C119 1.208 . S
O126 Cd127 2.223 . S
O126 C134 1.315 . S
Cd127 O126 2.223 . S
Cd127 O130 2.297 . S
Cd127 O131 2.439 . S
Cd127 O137 2.240 . S
Cd128 O129 2.240 . S
Cd128 O136 2.223 . S
Cd128 O138 2.297 . S
Cd128 O139 2.439 . S
O129 Cd128 2.240 . S
O129 C134 1.279 . S
O130 Cd127 2.297 . S
O130 C132 1.247 . S
O131 Cd127 2.439 . S
O131 C132 1.208 . S
C132 O130 1.247 . S
C132 O131 1.208 . S
C133 O138 1.247 . S
C133 O139 1.208 . S
C134 O126 1.315 . S
C134 O129 1.279 . S
C135 O136 1.315 . S
C135 O137 1.279 . S
O136 Cd128 2.223 . S
O136 C135 1.315 . S
O137 Cd127 2.240 . S
O137 C135 1.279 . S
O138 Cd128 2.297 . S
O138 C133 1.247 . S
O139 Cd128 2.439 . S
O139 C133 1.208 . S
O140 Cd141 2.223 . S
O140 C148 1.315 . S
Cd141 O140 2.223 . S
Cd141 O144 2.297 . S
Cd141 O145 2.439 . S
Cd141 O151 2.240 . S
Cd142 O143 2.240 . S
Cd142 O150 2.223 . S
Cd142 O152 2.297 . S
Cd142 O153 2.439 . S
O143 Cd142 2.240 . S
O143 C148 1.279 . S
O144 Cd141 2.297 . S
O144 C146 1.247 . S
O145 Cd141 2.439 . S
O145 C146 1.208 . S
C146 O144 1.247 . S
C146 O145 1.208 . S
C147 O152 1.247 . S
C147 O153 1.208 . S
C148 O140 1.315 . S
C148 O143 1.279 . S
C149 O150 1.315 . S
C149 O151 1.279 . S
O150 Cd142 2.223 . S
O150 C149 1.315 . S
O151 Cd141 2.240 . S
O151 C149 1.279 . S
O152 Cd142 2.297 . S
O152 C147 1.247 . S
O153 Cd142 2.439 . S
O153 C147 1.208 . S
O154 Cd155 2.223 . S
O154 C162 1.315 . S
Cd155 O154 2.223 . S
Cd155 O158 2.297 . S
Cd155 O159 2.439 . S
Cd155 O165 2.240 . S
Cd156 O157 2.240 . S
Cd156 O164 2.223 . S
Cd156 O166 2.297 . S
Cd156 O167 2.439 . S
O157 Cd156 2.240 . S
O157 C162 1.279 . S
O158 Cd155 2.297 . S
O158 C160 1.247 . S
O159 Cd155 2.439 . S
O159 C160 1.208 . S
C160 O158 1.247 . S
C160 O159 1.208 . S
C161 O166 1.247 . S
C161 O167 1.208 . S
C162 O154 1.315 . S
C162 O157 1.279 . S
C163 O164 1.315 . S
C163 O165 1.279 . S
O164 Cd156 2.223 . S
O164 C163 1.315 . S
O165 Cd155 2.240 . S
O165 C163 1.279 . S
O166 Cd156 2.297 . S
O166 C161 1.247 . S
O167 Cd156 2.439 . S
O167 C161 1.208 . S
H168 C176 0.950 . S
H169 C181 0.950 . S
H170 C178 0.950 . S
H171 C180 0.950 . S
H172 C182 0.950 . S
H173 C184 0.950 . S
H174 C186 0.950 . S
H175 C187 0.950 . S
C176 H168 0.950 . S
C176 C177 1.386 . S
C176 C178 1.391 . S
C177 C176 1.386 . S
C177 C181 1.393 . S
C178 H170 0.950 . S
C178 C176 1.391 . S
C178 C179 1.400 . S
C179 C178 1.400 . S
C179 C180 1.398 . S
C179 C185 1.491 . S
C180 H171 0.950 . S
C180 C179 1.398 . S
C180 C181 1.391 . S
C181 H169 0.950 . S
C181 C177 1.393 . S
C181 C180 1.391 . S
C182 H172 0.950 . S
C182 C183 1.386 . S
C182 C184 1.391 . S
C183 C182 1.386 . S
C183 C187 1.393 . S
C184 H173 0.950 . S
C184 C182 1.391 . S
C184 C185 1.400 . S
C185 C179 1.491 . S
C185 C184 1.400 . S
C185 C186 1.398 . S
C186 H174 0.950 . S
C186 C185 1.398 . S
C186 C187 1.391 . S
C187 H175 0.950 . S
C187 C183 1.393 . S
C187 C186 1.391 . S
H188 C196 0.950 . S
H189 C201 0.950 . S
H190 C198 0.950 1_655 S
H191 C200 0.950 . S
H192 C202 0.950 . S
H193 C204 0.950 1_455 S
H194 C206 0.950 . S
H195 C207 0.950 . S
C196 H188 0.950 . S
C196 C197 1.386 . S
C196 C198 1.391 . S
C197 C196 1.386 . S
C197 C201 1.393 . S
C198 H190 0.950 1_455 S
C198 C196 1.391 . S
C198 C199 1.400 . S
C199 C198 1.400 . S
C199 C200 1.398 . S
C199 C205 1.491 1_455 S
C200 H191 0.950 . S
C200 C199 1.398 . S
C200 C201 1.391 . S
C201 H189 0.950 . S
C201 C197 1.393 . S
C201 C200 1.391 . S
C202 H192 0.950 . S
C202 C203 1.386 . S
C202 C204 1.391 . S
C203 C202 1.386 . S
C203 C207 1.393 . S
C204 H193 0.950 1_655 S
C204 C202 1.391 . S
C204 C205 1.400 . S
C205 C199 1.491 1_655 S
C205 C204 1.400 . S
C205 C206 1.398 . S
C206 H194 0.950 . S
C206 C205 1.398 . S
C206 C207 1.391 . S
C207 H195 0.950 . S
C207 C203 1.393 . S
C207 C206 1.391 . S
H208 C216 0.950 . S
H209 C221 0.950 . S
H210 C218 0.950 . S
H211 C220 0.950 1_545 S
H212 C222 0.950 . S
H213 C224 0.950 . S
H214 C226 0.950 1_565 S
H215 C227 0.950 . S
C216 H208 0.950 . S
C216 C217 1.386 . S
C216 C218 1.391 . S
C217 C216 1.386 . S
C217 C221 1.393 . S
C218 H210 0.950 . S
C218 C216 1.391 . S
C218 C219 1.400 . S
C219 C218 1.400 . S
C219 C220 1.398 . S
C219 C225 1.491 1_565 S
C220 H211 0.950 1_565 S
C220 C219 1.398 . S
C220 C221 1.391 . S
C221 H209 0.950 . S
C221 C217 1.393 . S
C221 C220 1.391 . S
C222 H212 0.950 . S
C222 C223 1.386 . S
C222 C224 1.391 . S
C223 C222 1.386 . S
C223 C227 1.393 . S
C224 H213 0.950 . S
C224 C222 1.391 . S
C224 C225 1.400 . S
C225 C219 1.491 1_545 S
C225 C224 1.400 . S
C225 C226 1.398 . S
C226 H214 0.950 1_545 S
C226 C225 1.398 . S
C226 C227 1.391 . S
C227 H215 0.950 . S
C227 C223 1.393 . S
C227 C226 1.391 . S
H228 C236 0.950 . S
H229 C241 0.950 . S
H230 C238 0.950 . S
H231 C240 0.950 . S
H232 C242 0.950 . S
H233 C244 0.950 . S
H234 C246 0.950 . S
H235 C247 0.950 . S
C236 H228 0.950 . S
C236 C237 1.386 . S
C236 C238 1.391 . S
C237 C236 1.386 . S
C237 C241 1.393 . S
C238 H230 0.950 . S
C238 C236 1.391 . S
C238 C239 1.400 . S
C239 C238 1.400 . S
C239 C240 1.398 . S
C239 C245 1.491 . S
C240 H231 0.950 . S
C240 C239 1.398 . S
C240 C241 1.391 . S
C241 H229 0.950 . S
C241 C237 1.393 . S
C241 C240 1.391 . S
C242 H232 0.950 . S
C242 C243 1.386 . S
C242 C244 1.391 . S
C243 C242 1.386 . S
C243 C247 1.393 . S
C244 H233 0.950 . S
C244 C242 1.391 . S
C244 C245 1.400 . S
C245 C239 1.491 . S
C245 C244 1.400 . S
C245 C246 1.398 . S
C246 H234 0.950 . S
C246 C245 1.398 . S
C246 C247 1.391 . S
C247 H235 0.950 . S
C247 C243 1.393 . S
C247 C246 1.391 . S
H248 C256 0.950 . S
H249 C261 0.950 . S
H250 C258 0.950 1_655 S
H251 C260 0.950 . S
H252 C262 0.950 1_554 S
H253 C264 0.950 1_455 S
H254 C266 0.950 . S
H255 C267 0.950 . S
C256 H248 0.950 . S
C256 C257 1.386 . S
C256 C258 1.391 . S
C257 C256 1.386 . S
C257 C261 1.393 . S
C258 H250 0.950 1_455 S
C258 C256 1.391 . S
C258 C259 1.400 . S
C259 C258 1.400 . S
C259 C260 1.398 . S
C259 C265 1.491 1_455 S
C260 H251 0.950 . S
C260 C259 1.398 . S
C260 C261 1.391 . S
C261 H249 0.950 . S
C261 C257 1.393 . S
C261 C260 1.391 . S
C262 H252 0.950 1_556 S
C262 C263 1.386 . S
C262 C264 1.391 . S
C263 C262 1.386 . S
C263 C267 1.393 . S
C264 H253 0.950 1_655 S
C264 C262 1.391 . S
C264 C265 1.400 . S
C265 C259 1.491 1_655 S
C265 C264 1.400 . S
C265 C266 1.398 . S
C266 H254 0.950 . S
C266 C265 1.398 . S
C266 C267 1.391 . S
C267 H255 0.950 . S
C267 C263 1.393 . S
C267 C266 1.391 . S
H268 C276 0.950 . S
H269 C281 0.950 . S
H270 C278 0.950 . S
H271 C280 0.950 . S
H272 C282 0.950 . S
H273 C284 0.950 . S
H274 C286 0.950 . S
H275 C287 0.950 . S
C276 H268 0.950 . S
C276 C277 1.386 . S
C276 C278 1.391 . S
C277 C276 1.386 . S
C277 C281 1.393 . S
C278 H270 0.950 . S
C278 C276 1.391 . S
C278 C279 1.400 . S
C279 C278 1.400 . S
C279 C280 1.398 . S
C279 C285 1.491 1_546 S
C280 H271 0.950 . S
C280 C279 1.398 . S
C280 C281 1.391 . S
C281 H269 0.950 . S
C281 C277 1.393 . S
C281 C280 1.391 . S
C282 H272 0.950 . S
C282 C283 1.386 . S
C282 C284 1.391 . S
C283 C282 1.386 . S
C283 C287 1.393 . S
C284 H273 0.950 . S
C284 C282 1.391 . S
C284 C285 1.400 . S
C285 C279 1.491 1_564 S
C285 C284 1.400 . S
C285 C286 1.398 . S
C286 H274 0.950 . S
C286 C285 1.398 . S
C286 C287 1.391 . S
C287 H275 0.950 . S
C287 C283 1.393 . S
C287 C286 1.391 . S
H288 C296 0.950 . S
H289 C301 0.950 . S
H290 C298 0.950 . S
H291 C300 0.950 . S
H292 C302 0.950 . S
H293 C304 0.950 . S
H294 C306 0.950 . S
H295 C307 0.950 . S
C296 H288 0.950 . S
C296 C297 1.386 . S
C296 C298 1.391 . S
C297 C296 1.386 . S
C297 C301 1.393 . S
C298 H290 0.950 . S
C298 C296 1.391 . S
C298 C299 1.400 . S
C299 C298 1.400 . S
C299 C300 1.398 . S
C299 C305 1.491 . S
C300 H291 0.950 . S
C300 C299 1.398 . S
C300 C301 1.391 . S
C301 H289 0.950 . S
C301 C297 1.393 . S
C301 C300 1.391 . S
C302 H292 0.950 . S
C302 C303 1.386 . S
C302 C304 1.391 . S
C303 C302 1.386 . S
C303 C307 1.393 . S
C304 H293 0.950 . S
C304 C302 1.391 . S
C304 C305 1.400 . S
C305 C299 1.491 . S
C305 C304 1.400 . S
C305 C306 1.398 . S
C306 H294 0.950 . S
C306 C305 1.398 . S
C306 C307 1.391 . S
C307 H295 0.950 . S
C307 C303 1.393 . S
C307 C306 1.391 . S
H308 C316 0.950 . S
H309 C321 0.950 . S
H310 C318 0.950 . S
H311 C320 0.950 . S
H312 C322 0.950 . S
H313 C324 0.950 . S
H314 C326 0.950 . S
H315 C327 0.950 . S
C316 H308 0.950 . S
C316 C317 1.386 . S
C316 C318 1.391 . S
C317 C316 1.386 . S
C317 C321 1.393 . S
C318 H310 0.950 . S
C318 C316 1.391 . S
C318 C319 1.400 . S
C319 C318 1.400 . S
C319 C320 1.398 . S
C319 C325 1.491 . S
C320 H311 0.950 . S
C320 C319 1.398 . S
C320 C321 1.391 . S
C321 H309 0.950 . S
C321 C317 1.393 . S
C321 C320 1.391 . S
C322 H312 0.950 . S
C322 C323 1.386 . S
C322 C324 1.391 . S
C323 C322 1.386 . S
C323 C327 1.393 . S
C324 H313 0.950 . S
C324 C322 1.391 . S
C324 C325 1.400 . S
C325 C319 1.491 . S
C325 C324 1.400 . S
C325 C326 1.398 . S
C326 H314 0.950 . S
C326 C325 1.398 . S
C326 C327 1.391 . S
C327 H315 0.950 . S
C327 C323 1.393 . S
C327 C326 1.391 . S
H328 C336 0.950 . S
H329 C341 0.950 . S
H330 C338 0.950 . S
H331 C340 0.950 . S
H332 C342 0.950 . S
H333 C344 0.950 . S
H334 C346 0.950 . S
H335 C347 0.950 . S
C336 H328 0.950 . S
C336 C337 1.386 . S
C336 C338 1.391 . S
C337 C336 1.386 . S
C337 C341 1.393 . S
C338 H330 0.950 . S
C338 C336 1.391 . S
C338 C339 1.400 . S
C339 C338 1.400 . S
C339 C340 1.398 . S
C339 C345 1.491 . S
C340 H331 0.950 . S
C340 C339 1.398 . S
C340 C341 1.391 . S
C341 H329 0.950 . S
C341 C337 1.393 . S
C341 C340 1.391 . S
C342 H332 0.950 . S
C342 C343 1.386 . S
C342 C344 1.391 . S
C343 C342 1.386 . S
C343 C347 1.393 . S
C344 H333 0.950 . S
C344 C342 1.391 . S
C344 C345 1.400 . S
C345 C339 1.491 . S
C345 C344 1.400 . S
C345 C346 1.398 . S
C346 H334 0.950 . S
C346 C345 1.398 . S
C346 C347 1.391 . S
C347 H335 0.950 . S
C347 C343 1.393 . S
C347 C346 1.391 . S
H348 C356 0.950 . S
H349 C361 0.950 . S
H350 C358 0.950 . S
H351 C360 0.950 . S
H352 C362 0.950 . S
H353 C364 0.950 . S
H354 C366 0.950 . S
H355 C367 0.950 . S
C356 H348 0.950 . S
C356 C357 1.386 . S
C356 C358 1.391 . S
C357 C356 1.386 . S
C357 C361 1.393 . S
C358 H350 0.950 . S
C358 C356 1.391 . S
C358 C359 1.400 . S
C359 C358 1.400 . S
C359 C360 1.398 . S
C359 C365 1.491 . S
C360 H351 0.950 . S
C360 C359 1.398 . S
C360 C361 1.391 . S
C361 H349 0.950 . S
C361 C357 1.393 . S
C361 C360 1.391 . S
C362 H352 0.950 . S
C362 C363 1.386 . S
C362 C364 1.391 . S
C363 C362 1.386 . S
C363 C367 1.393 . S
C364 H353 0.950 . S
C364 C362 1.391 . S
C364 C365 1.400 . S
C365 C359 1.491 . S
C365 C364 1.400 . S
C365 C366 1.398 . S
C366 H354 0.950 . S
C366 C365 1.398 . S
C366 C367 1.391 . S
C367 H355 0.950 . S
C367 C363 1.393 . S
C367 C366 1.391 . S
H368 C376 0.950 . S
H369 C381 0.950 . S
H370 C378 0.950 . S
H371 C380 0.950 . S
H372 C382 0.950 1_556 S
H373 C384 0.950 . S
H374 C386 0.950 . S
H375 C387 0.950 . S
C376 H368 0.950 . S
C376 C377 1.386 . S
C376 C378 1.391 . S
C377 C376 1.386 . S
C377 C381 1.393 . S
C378 H370 0.950 . S
C378 C376 1.391 . S
C378 C379 1.400 . S
C379 C378 1.400 . S
C379 C380 1.398 . S
C379 C385 1.491 . S
C380 H371 0.950 . S
C380 C379 1.398 . S
C380 C381 1.391 . S
C381 H369 0.950 . S
C381 C377 1.393 . S
C381 C380 1.391 . S
C382 H372 0.950 1_554 S
C382 C383 1.386 . S
C382 C384 1.391 . S
C383 C382 1.386 . S
C383 C387 1.393 . S
C384 H373 0.950 . S
C384 C382 1.391 . S
C384 C385 1.400 . S
C385 C379 1.491 . S
C385 C384 1.400 . S
C385 C386 1.398 . S
C386 H374 0.950 . S
C386 C385 1.398 . S
C386 C387 1.391 . S
C387 H375 0.950 . S
C387 C383 1.393 . S
C387 C386 1.391 . S
H388 C396 0.950 . S
H389 C401 0.950 . S
H390 C398 0.950 . S
H391 C400 0.950 . S
H392 C402 0.950 . S
H393 C404 0.950 . S
H394 C406 0.950 . S
H395 C407 0.950 . S
C396 H388 0.950 . S
C396 C397 1.386 . S
C396 C398 1.391 . S
C397 C396 1.386 . S
C397 C401 1.393 . S
C398 H390 0.950 . S
C398 C396 1.391 . S
C398 C399 1.400 . S
C399 C398 1.400 . S
C399 C400 1.398 . S
C399 C405 1.491 . S
C400 H391 0.950 . S
C400 C399 1.398 . S
C400 C401 1.391 . S
C401 H389 0.950 . S
C401 C397 1.393 . S
C401 C400 1.391 . S
C402 H392 0.950 . S
C402 C403 1.386 . S
C402 C404 1.391 . S
C403 C402 1.386 . S
C403 C407 1.393 . S
C404 H393 0.950 . S
C404 C402 1.391 . S
C404 C405 1.400 . S
C405 C399 1.491 . S
C405 C404 1.400 . S
C405 C406 1.398 . S
C406 H394 0.950 . S
C406 C405 1.398 . S
C406 C407 1.391 . S
C407 H395 0.950 . S
C407 C403 1.393 . S
C407 C406 1.391 . S
H408 C416 0.950 . S
H409 C421 0.950 . S
H410 C418 0.950 . S
H411 C420 0.950 . S
H412 C422 0.950 . S
H413 C424 0.950 . S
H414 C426 0.950 . S
H415 C427 0.950 . S
C416 H408 0.950 . S
C416 C417 1.386 . S
C416 C418 1.391 . S
C417 C416 1.386 . S
C417 C421 1.393 . S
C418 H410 0.950 . S
C418 C416 1.391 . S
C418 C419 1.400 . S
C419 C418 1.400 . S
C419 C420 1.398 . S
C419 C425 1.491 . S
C420 H411 0.950 . S
C420 C419 1.398 . S
C420 C421 1.391 . S
C421 H409 0.950 . S
C421 C417 1.393 . S
C421 C420 1.391 . S
C422 H412 0.950 . S
C422 C423 1.386 . S
C422 C424 1.391 . S
C423 C422 1.386 . S
C423 C427 1.393 . S
C424 H413 0.950 . S
C424 C422 1.391 . S
C424 C425 1.400 . S
C425 C419 1.491 . S
C425 C424 1.400 . S
C425 C426 1.398 . S
C426 H414 0.950 . S
C426 C425 1.398 . S
C426 C427 1.391 . S
C427 H415 0.950 . S
C427 C423 1.393 . S
C427 C426 1.391 . S
H428 C436 0.950 . S
H429 C441 0.950 . S
H430 C438 0.950 . S
H431 C440 0.950 . S
H432 C442 0.950 . S
H433 C444 0.950 . S
H434 C446 0.950 . S
H435 C447 0.950 . S
C436 H428 0.950 . S
C436 C437 1.386 . S
C436 C438 1.391 . S
C437 C436 1.386 . S
C437 C441 1.393 . S
C438 H430 0.950 . S
C438 C436 1.391 . S
C438 C439 1.400 . S
C439 C438 1.400 . S
C439 C440 1.398 . S
C439 C445 1.491 1_655 S
C440 H431 0.950 . S
C440 C439 1.398 . S
C440 C441 1.391 . S
C441 H429 0.950 . S
C441 C437 1.393 . S
C441 C440 1.391 . S
C442 H432 0.950 . S
C442 C443 1.386 . S
C442 C444 1.391 . S
C443 C442 1.386 . S
C443 C447 1.393 . S
C444 H433 0.950 . S
C444 C442 1.391 . S
C444 C445 1.400 . S
C445 C439 1.491 1_455 S
C445 C444 1.400 . S
C445 C446 1.398 . S
C446 H434 0.950 . S
C446 C445 1.398 . S
C446 C447 1.391 . S
C447 H435 0.950 . S
C447 C443 1.393 . S
C447 C446 1.391 . S
H448 C456 0.950 . S
H449 C461 0.950 . S
H450 C458 0.950 1_545 S
H451 C460 0.950 1_556 S
H452 C462 0.950 . S
H453 C464 0.950 1_565 S
H454 C466 0.950 1_554 S
H455 C467 0.950 . S
C456 H448 0.950 . S
C456 C457 1.386 . S
C456 C458 1.391 . S
C457 C456 1.386 . S
C457 C461 1.393 . S
C458 H450 0.950 1_565 S
C458 C456 1.391 . S
C458 C459 1.400 . S
C459 C458 1.400 . S
C459 C460 1.398 . S
C459 C465 1.491 1_564 S
C460 H451 0.950 1_554 S
C460 C459 1.398 . S
C460 C461 1.391 . S
C461 H449 0.950 . S
C461 C457 1.393 . S
C461 C460 1.391 . S
C462 H452 0.950 . S
C462 C463 1.386 . S
C462 C464 1.391 . S
C463 C462 1.386 . S
C463 C467 1.393 . S
C464 H453 0.950 1_545 S
C464 C462 1.391 . S
C464 C465 1.400 . S
C465 C459 1.491 1_546 S
C465 C464 1.400 . S
C465 C466 1.398 . S
C466 H454 0.950 1_556 S
C466 C465 1.398 . S
C466 C467 1.391 . S
C467 H455 0.950 . S
C467 C463 1.393 . S
C467 C466 1.391 . S
H468 C476 0.950 . S
H469 C481 0.950 . S
H470 C478 0.950 . S
H471 C480 0.950 . S
H472 C482 0.950 . S
H473 C484 0.950 . S
H474 C486 0.950 . S
H475 C487 0.950 . S
C476 H468 0.950 . S
C476 C477 1.386 . S
C476 C478 1.391 . S
C477 C476 1.386 . S
C477 C481 1.393 . S
C478 H470 0.950 . S
C478 C476 1.391 . S
C478 C479 1.400 . S
C479 C478 1.400 . S
C479 C480 1.398 . S
C479 C485 1.491 . S
C480 H471 0.950 . S
C480 C479 1.398 . S
C480 C481 1.391 . S
C481 H469 0.950 . S
C481 C477 1.393 . S
C481 C480 1.391 . S
C482 H472 0.950 . S
C482 C483 1.386 . S
C482 C484 1.391 . S
C483 C482 1.386 . S
C483 C487 1.393 . S
C484 H473 0.950 . S
C484 C482 1.391 . S
C484 C485 1.400 . S
C485 C479 1.491 . S
C485 C484 1.400 . S
C485 C486 1.398 . S
C486 H474 0.950 . S
C486 C485 1.398 . S
C486 C487 1.391 . S
C487 H475 0.950 . S
C487 C483 1.393 . S
C487 C486 1.391 . S
H488 C496 0.950 . S
H489 C501 0.950 . S
H490 C498 0.950 . S
H491 C500 0.950 1_655 S
H492 C502 0.950 . S
H493 C504 0.950 . S
H494 C506 0.950 1_455 S
H495 C507 0.950 . S
C496 H488 0.950 . S
C496 C497 1.386 . S
C496 C498 1.391 . S
C497 C496 1.386 . S
C497 C501 1.393 . S
C498 H490 0.950 . S
C498 C496 1.391 . S
C498 C499 1.400 . S
C499 C498 1.400 . S
C499 C500 1.398 . S
C499 C505 1.491 1_455 S
C500 H491 0.950 1_455 S
C500 C499 1.398 . S
C500 C501 1.391 . S
C501 H489 0.950 . S
C501 C497 1.393 . S
C501 C500 1.391 . S
C502 H492 0.950 . S
C502 C503 1.386 . S
C502 C504 1.391 . S
C503 C502 1.386 . S
C503 C507 1.393 . S
C504 H493 0.950 . S
C504 C502 1.391 . S
C504 C505 1.400 . S
C505 C499 1.491 1_655 S
C505 C504 1.400 . S
C505 C506 1.398 . S
C506 H494 0.950 1_655 S
C506 C505 1.398 . S
C506 C507 1.391 . S
C507 H495 0.950 . S
C507 C503 1.393 . S
C507 C506 1.391 . S
H508 C516 0.950 . S
H509 C521 0.950 . S
H510 C518 0.950 1_545 S
H511 C520 0.950 . S
H512 C522 0.950 . S
H513 C524 0.950 1_565 S
H514 C526 0.950 . S
H515 C527 0.950 . S
C516 H508 0.950 . S
C516 C517 1.386 . S
C516 C518 1.391 . S
C517 C516 1.386 . S
C517 C521 1.393 . S
C518 H510 0.950 1_565 S
C518 C516 1.391 . S
C518 C519 1.400 . S
C519 C518 1.400 . S
C519 C520 1.398 . S
C519 C525 1.491 1_565 S
C520 H511 0.950 . S
C520 C519 1.398 . S
C520 C521 1.391 . S
C521 H509 0.950 . S
C521 C517 1.393 . S
C521 C520 1.391 . S
C522 H512 0.950 . S
C522 C523 1.386 . S
C522 C524 1.391 . S
C523 C522 1.386 . S
C523 C527 1.393 . S
C524 H513 0.950 1_545 S
C524 C522 1.391 . S
C524 C525 1.400 . S
C525 C519 1.491 1_545 S
C525 C524 1.400 . S
C525 C526 1.398 . S
C526 H514 0.950 . S
C526 C525 1.398 . S
C526 C527 1.391 . S
C527 H515 0.950 . S
C527 C523 1.393 . S
C527 C526 1.391 . S
H528 C536 0.950 . S
H529 C541 0.950 . S
H530 C538 0.950 . S
H531 C540 0.950 . S
H532 C542 0.950 . S
H533 C544 0.950 . S
H534 C546 0.950 . S
H535 C547 0.950 . S
C536 H528 0.950 . S
C536 C537 1.386 . S
C536 C538 1.391 . S
C537 C536 1.386 . S
C537 C541 1.393 . S
C538 H530 0.950 . S
C538 C536 1.391 . S
C538 C539 1.400 . S
C539 C538 1.400 . S
C539 C540 1.398 . S
C539 C545 1.491 . S
C540 H531 0.950 . S
C540 C539 1.398 . S
C540 C541 1.391 . S
C541 H529 0.950 . S
C541 C537 1.393 . S
C541 C540 1.391 . S
C542 H532 0.950 . S
C542 C543 1.386 . S
C542 C544 1.391 . S
C543 C542 1.386 . S
C543 C547 1.393 . S
C544 H533 0.950 . S
C544 C542 1.391 . S
C544 C545 1.400 . S
C545 C539 1.491 . S
C545 C544 1.400 . S
C545 C546 1.398 . S
C546 H534 0.950 . S
C546 C545 1.398 . S
C546 C547 1.391 . S
C547 H535 0.950 . S
C547 C543 1.393 . S
C547 C546 1.391 . S
H548 C556 0.950 . S
H549 C561 0.950 . S
H550 C558 0.950 . S
H551 C560 0.950 . S
H552 C562 0.950 . S
H553 C564 0.950 . S
H554 C566 0.950 . S
H555 C567 0.950 . S
C556 H548 0.950 . S
C556 C557 1.386 . S
C556 C558 1.391 . S
C557 C556 1.386 . S
C557 C561 1.393 . S
C558 H550 0.950 . S
C558 C556 1.391 . S
C558 C559 1.400 . S
C559 C558 1.400 . S
C559 C560 1.398 . S
C559 C565 1.491 . S
C560 H551 0.950 . S
C560 C559 1.398 . S
C560 C561 1.391 . S
C561 H549 0.950 . S
C561 C557 1.393 . S
C561 C560 1.391 . S
C562 H552 0.950 . S
C562 C563 1.386 . S
C562 C564 1.391 . S
C563 C562 1.386 . S
C563 C567 1.393 . S
C564 H553 0.950 . S
C564 C562 1.391 . S
C564 C565 1.400 . S
C565 C559 1.491 . S
C565 C564 1.400 . S
C565 C566 1.398 . S
C566 H554 0.950 . S
C566 C565 1.398 . S
C566 C567 1.391 . S
C567 H555 0.950 . S
C567 C563 1.393 . S
C567 C566 1.391 . S
H568 C576 0.950 . S
H569 C581 0.950 . S
H570 C578 0.950 . S
H571 C580 0.950 1_554 S
H572 C582 0.950 . S
H573 C584 0.950 . S
H574 C586 0.950 . S
H575 C587 0.950 . S
C576 H568 0.950 . S
C576 C577 1.386 . S
C576 C578 1.391 . S
C577 C576 1.386 . S
C577 C581 1.393 1_556 S
C578 H570 0.950 . S
C578 C576 1.391 . S
C578 C579 1.400 . S
C579 C578 1.400 . S
C579 C580 1.398 . S
C579 C585 1.491 . S
C580 H571 0.950 1_556 S
C580 C579 1.398 . S
C580 C581 1.391 1_556 S
C581 H569 0.950 . S
C581 C577 1.393 1_554 S
C581 C580 1.391 1_554 S
C582 H572 0.950 . S
C582 C583 1.386 . S
C582 C584 1.391 . S
C583 C582 1.386 . S
C583 C587 1.393 . S
C584 H573 0.950 . S
C584 C582 1.391 . S
C584 C585 1.400 . S
C585 C579 1.491 . S
C585 C584 1.400 . S
C585 C586 1.398 . S
C586 H574 0.950 . S
C586 C585 1.398 . S
C586 C587 1.391 . S
C587 H575 0.950 . S
C587 C583 1.393 . S
C587 C586 1.391 . S
H588 C596 0.950 . S
H589 C601 0.950 . S
H590 C598 0.950 . S
H591 C600 0.950 . S
H592 C602 0.950 . S
H593 C604 0.950 . S
H594 C606 0.950 1_556 S
H595 C607 0.950 . S
C596 H588 0.950 . S
C596 C597 1.386 . S
C596 C598 1.391 . S
C597 C596 1.386 . S
C597 C601 1.393 . S
C598 H590 0.950 . S
C598 C596 1.391 . S
C598 C599 1.400 . S
C599 C598 1.400 . S
C599 C600 1.398 . S
C599 C605 1.491 . S
C600 H591 0.950 . S
C600 C599 1.398 . S
C600 C601 1.391 . S
C601 H589 0.950 . S
C601 C597 1.393 . S
C601 C600 1.391 . S
C602 H592 0.950 . S
C602 C603 1.386 . S
C602 C604 1.391 . S
C603 C602 1.386 . S
C603 C607 1.393 1_554 S
C604 H593 0.950 . S
C604 C602 1.391 . S
C604 C605 1.400 . S
C605 C599 1.491 . S
C605 C604 1.400 . S
C605 C606 1.398 . S
C606 H594 0.950 1_554 S
C606 C605 1.398 . S
C606 C607 1.391 1_554 S
C607 H595 0.950 . S
C607 C603 1.393 1_556 S
C607 C606 1.391 1_556 S
H608 C616 0.950 . S
H609 C621 0.950 . S
H610 C618 0.950 . S
H611 C620 0.950 . S
H612 C622 0.950 . S
H613 C624 0.950 . S
H614 C626 0.950 . S
H615 C627 0.950 . S
C616 H608 0.950 . S
C616 C617 1.386 . S
C616 C618 1.391 . S
C617 C616 1.386 . S
C617 C621 1.393 . S
C618 H610 0.950 . S
C618 C616 1.391 . S
C618 C619 1.400 . S
C619 C618 1.400 . S
C619 C620 1.398 . S
C619 C625 1.491 . S
C620 H611 0.950 . S
C620 C619 1.398 . S
C620 C621 1.391 . S
C621 H609 0.950 . S
C621 C617 1.393 . S
C621 C620 1.391 . S
C622 H612 0.950 . S
C622 C623 1.386 . S
C622 C624 1.391 . S
C623 C622 1.386 . S
C623 C627 1.393 . S
C624 H613 0.950 . S
C624 C622 1.391 . S
C624 C625 1.400 . S
C625 C619 1.491 . S
C625 C624 1.400 . S
C625 C626 1.398 . S
C626 H614 0.950 . S
C626 C625 1.398 . S
C626 C627 1.391 . S
C627 H615 0.950 . S
C627 C623 1.393 . S
C627 C626 1.391 . S
H628 C636 0.950 . S
H629 C641 0.950 . S
H630 C638 0.950 . S
H631 C640 0.950 . S
H632 C642 0.950 . S
H633 C644 0.950 . S
H634 C646 0.950 . S
H635 C647 0.950 . S
C636 H628 0.950 . S
C636 C637 1.386 . S
C636 C638 1.391 . S
C637 C636 1.386 . S
C637 C641 1.393 . S
C638 H630 0.950 . S
C638 C636 1.391 . S
C638 C639 1.400 . S
C639 C638 1.400 . S
C639 C640 1.398 . S
C639 C645 1.491 . S
C640 H631 0.950 . S
C640 C639 1.398 . S
C640 C641 1.391 . S
C641 H629 0.950 . S
C641 C637 1.393 . S
C641 C640 1.391 . S
C642 H632 0.950 . S
C642 C643 1.386 . S
C642 C644 1.391 . S
C643 C642 1.386 . S
C643 C647 1.393 . S
C644 H633 0.950 . S
C644 C642 1.391 . S
C644 C645 1.400 . S
C645 C639 1.491 . S
C645 C644 1.400 . S
C645 C646 1.398 . S
C646 H634 0.950 . S
C646 C645 1.398 . S
C646 C647 1.391 . S
C647 H635 0.950 . S
C647 C643 1.393 . S
C647 C646 1.391 . S
C177 C135 1.603 1_554 S
C183 C9 1.606 . S
C197 C23 1.597 . S
C203 C149 1.618 . S
C217 C163 1.609 . S
C223 C37 1.601 . S
C237 C93 1.617 . S
C243 C51 1.597 . S
C257 C107 1.598 . S
C263 C65 1.618 1_556 S
C277 C121 1.613 . S
C283 C79 1.607 . S
C297 C91 1.651 . S
C303 C7 1.646 . S
C317 C21 1.650 . S
C323 C105 1.674 . S
C337 C119 1.675 . S
C343 C35 1.663 . S
C357 C49 1.669 . S
C363 C133 1.673 . S
C377 C147 1.643 . S
C383 C63 1.657 . S
C397 C77 1.649 . S
C403 C161 1.647 . S
C417 C134 1.546 . S
C423 C8 1.547 . S
C437 C148 1.547 1_556 S
C443 C22 1.546 . S
C457 C162 1.549 . S
C463 C36 1.546 . S
C477 C50 1.555 1_554 S
C483 C92 1.554 . S
C497 C106 1.552 . S
C503 C64 1.555 . S
C517 C78 1.552 . S
C523 C120 1.548 . S
C537 C6 1.154 . S
C543 C118 1.158 . S
C557 C132 1.148 . S
C563 C20 1.153 . S
C577 C146 1.145 1_556 S
C583 C34 1.158 . S
C597 C160 1.144 . S
C603 C48 1.162 1_554 S
C617 C90 1.163 . S
C623 C62 1.145 . S
C637 C104 1.153 . S
C643 C76 1.148 . S
