# Generated by pormake.
# Topology ukb, (4)-cn, num edge types: 1
# Building blocks:
#     Node 0, Type 0, BuildingBlock: UXUYUI_clean_sbu_0, # of connection points: 4
#     Node 1, Type 0, BuildingBlock: UXUYUI_clean_sbu_0, # of connection points: 4
#     Node 2, Type 0, BuildingBlock: UXUYUI_clean_sbu_0, # of connection points: 4
#     Node 3, Type 0, BuildingBlock: UXUYUI_clean_sbu_0, # of connection points: 4
#     Node 4, Type 0, BuildingBlock: UXUYUI_clean_sbu_0, # of connection points: 4
#     Node 5, Type 0, BuildingBlock: UXUYUI_clean_sbu_0, # of connection points: 4
#     Node 6, Type 0, BuildingBlock: UXUYUI_clean_sbu_0, # of connection points: 4
#     Node 7, Type 0, BuildingBlock: UXUYUI_clean_sbu_0, # of connection points: 4
#     Node 8, Type 0, BuildingBlock: UXUYUI_clean_sbu_0, # of connection points: 4
#     Node 9, Type 0, BuildingBlock: UXUYUI_clean_sbu_0, # of connection points: 4
#     Node 10, Type 0, BuildingBlock: UXUYUI_clean_sbu_0, # of connection points: 4
#     Node 11, Type 0, BuildingBlock: UXUYUI_clean_sbu_0, # of connection points: 4
#     Node 12, Type 0, BuildingBlock: UXUYUI_clean_sbu_0, # of connection points: 4
#     Node 13, Type 0, BuildingBlock: UXUYUI_clean_sbu_0, # of connection points: 4
#     Node 14, Type 0, BuildingBlock: UXUYUI_clean_sbu_0, # of connection points: 4
#     Node 15, Type 0, BuildingBlock: UXUYUI_clean_sbu_0, # of connection points: 4
#     Edge 16, Type (0, 0), BuildingBlock: UVAHIK_clean_linker_0, # of connection points: 2
#     Edge 17, Type (0, 0), BuildingBlock: UVAHIK_clean_linker_0, # of connection points: 2
#     Edge 18, Type (0, 0), BuildingBlock: UVAHIK_clean_linker_0, # of connection points: 2
#     Edge 19, Type (0, 0), BuildingBlock: UVAHIK_clean_linker_0, # of connection points: 2
#     Edge 20, Type (0, 0), BuildingBlock: UVAHIK_clean_linker_0, # of connection points: 2
#     Edge 21, Type (0, 0), BuildingBlock: UVAHIK_clean_linker_0, # of connection points: 2
#     Edge 22, Type (0, 0), BuildingBlock: UVAHIK_clean_linker_0, # of connection points: 2
#     Edge 23, Type (0, 0), BuildingBlock: UVAHIK_clean_linker_0, # of connection points: 2
#     Edge 24, Type (0, 0), BuildingBlock: UVAHIK_clean_linker_0, # of connection points: 2
#     Edge 25, Type (0, 0), BuildingBlock: UVAHIK_clean_linker_0, # of connection points: 2
#     Edge 26, Type (0, 0), BuildingBlock: UVAHIK_clean_linker_0, # of connection points: 2
#     Edge 27, Type (0, 0), BuildingBlock: UVAHIK_clean_linker_0, # of connection points: 2
#     Edge 28, Type (0, 0), BuildingBlock: UVAHIK_clean_linker_0, # of connection points: 2
#     Edge 29, Type (0, 0), BuildingBlock: UVAHIK_clean_linker_0, # of connection points: 2
#     Edge 30, Type (0, 0), BuildingBlock: UVAHIK_clean_linker_0, # of connection points: 2
#     Edge 31, Type (0, 0), BuildingBlock: UVAHIK_clean_linker_0, # of connection points: 2
#     Edge 32, Type (0, 0), BuildingBlock: UVAHIK_clean_linker_0, # of connection points: 2
#     Edge 33, Type (0, 0), BuildingBlock: UVAHIK_clean_linker_0, # of connection points: 2
#     Edge 34, Type (0, 0), BuildingBlock: UVAHIK_clean_linker_0, # of connection points: 2
#     Edge 35, Type (0, 0), BuildingBlock: UVAHIK_clean_linker_0, # of connection points: 2
#     Edge 36, Type (0, 0), BuildingBlock: UVAHIK_clean_linker_0, # of connection points: 2
#     Edge 37, Type (0, 0), BuildingBlock: UVAHIK_clean_linker_0, # of connection points: 2
#     Edge 38, Type (0, 0), BuildingBlock: UVAHIK_clean_linker_0, # of connection points: 2
#     Edge 39, Type (0, 0), BuildingBlock: UVAHIK_clean_linker_0, # of connection points: 2
#     Edge 40, Type (0, 0), BuildingBlock: UVAHIK_clean_linker_0, # of connection points: 2
#     Edge 41, Type (0, 0), BuildingBlock: UVAHIK_clean_linker_0, # of connection points: 2
#     Edge 42, Type (0, 0), BuildingBlock: UVAHIK_clean_linker_0, # of connection points: 2
#     Edge 43, Type (0, 0), BuildingBlock: UVAHIK_clean_linker_0, # of connection points: 2
#     Edge 44, Type (0, 0), BuildingBlock: UVAHIK_clean_linker_0, # of connection points: 2
#     Edge 45, Type (0, 0), BuildingBlock: UVAHIK_clean_linker_0, # of connection points: 2
#     Edge 46, Type (0, 0), BuildingBlock: UVAHIK_clean_linker_0, # of connection points: 2
#     Edge 47, Type (0, 0), BuildingBlock: UVAHIK_clean_linker_0, # of connection points: 2
# Relax obj value: 0.234
# Max RMSD: 0.198
# Mean RMSD: 0.198
data_MOF--net-ukb--node1-UXUYUI_clean_sbu_0--edge1-UVAHIK_clean_linker_0
_symmetry_space_group_name_H-M    P1
_symmetry_Int_Tables_number       1
_symmetry_cell_setting            triclinic
loop_
_symmetry_equiv_pos_as_xyz
'x, y, z'
_cell_length_a     72.672574
_cell_length_b     72.671355
_cell_length_c     69.758743
_cell_angle_alpha  90.006272
_cell_angle_beta   89.988639
_cell_angle_gamma 89.997118
loop_
_atom_site_label
_atom_site_type_symbol
_atom_site_fract_x
_atom_site_fract_y
_atom_site_fract_z
_atom_type_partial_charge
Li0 Li 0.50637 0.22425 0.1693 0.0
Li1 Li 0.51367 0.23758 0.20183 0.0
Li2 Li 0.51954 0.2057 0.19462 0.0
Li3 Li 0.48855 0.21548 0.19942 0.0
C4 C 0.54862 0.22374 0.18198 0.0
N5 N 0.58543 0.21428 0.18287 0.0
C6 C 0.55881 0.22604 0.1988 0.0
C7 C 0.55716 0.2167 0.16558 0.0
C8 C 0.5774 0.22115 0.19897 0.0
C9 C 0.57578 0.21199 0.16633 0.0
C10 C 0.48501 0.25777 0.18554 0.0
C11 C 0.46834 0.28361 0.19857 0.0
N12 N 0.47409 0.29416 0.18362 0.0
C13 C 0.49055 0.2688 0.17017 0.0
C14 C 0.47363 0.26517 0.19975 0.0
C15 C 0.48497 0.28718 0.16951 0.0
C16 C 0.48997 0.22327 0.13274 0.0
N17 N 0.50502 0.22887 0.1427 0.0
C18 C 0.51891 0.24062 0.11421 0.0
C19 C 0.51929 0.23753 0.13394 0.0
C20 C 0.50364 0.23481 0.10341 0.0
C21 C 0.48898 0.22611 0.11296 0.0
H22 H 0.4788 0.21649 0.14017 0.0
H23 H 0.53101 0.24197 0.1423 0.0
C24 C 0.52896 0.25776 0.23272 0.0
N25 N 0.52348 0.25891 0.21412 0.0
C26 C 0.53771 0.27261 0.24152 0.0
C27 C 0.53524 0.28956 0.21184 0.0
C28 C 0.5266 0.27434 0.20359 0.0
C29 C 0.54108 0.28874 0.23101 0.0
H30 H 0.52709 0.24511 0.24059 0.0
H31 H 0.523 0.27461 0.18858 0.0
C32 C 0.50027 0.18176 0.17335 0.0
N33 N 0.50537 0.14527 0.16361 0.0
C34 C 0.4985 0.16803 0.18726 0.0
C35 C 0.50451 0.17693 0.15446 0.0
C36 C 0.50119 0.14966 0.18206 0.0
C37 C 0.50705 0.1584 0.14983 0.0
C38 C 0.50038 0.21645 0.23584 0.0
C39 C 0.50078 0.2011 0.24792 0.0
C40 C 0.49076 0.23218 0.2415 0.0
C41 C 0.4915 0.20176 0.26544 0.0
C42 C 0.48166 0.23231 0.25913 0.0
N43 N 0.4822 0.21722 0.27064 0.0
C44 C 0.54242 0.18307 0.21717 0.0
C45 C 0.54433 0.17684 0.18389 0.0
C46 C 0.55549 0.16951 0.22107 0.0
N47 N 0.53698 0.18634 0.19886 0.0
C48 C 0.5575 0.16321 0.18712 0.0
C49 C 0.56321 0.15938 0.20593 0.0
H50 H 0.5369 0.19127 0.22873 0.0
H51 H 0.54019 0.18003 0.1694 0.0
C52 C 0.4497 0.21854 0.20282 0.0
N53 N 0.46476 0.20879 0.20839 0.0
C54 C 0.43214 0.21321 0.20888 0.0
C55 C 0.44601 0.18807 0.22638 0.0
C56 C 0.46319 0.19373 0.21981 0.0
C57 C 0.43019 0.1978 0.22085 0.0
H58 H 0.45131 0.2303 0.19347 0.0
H59 H 0.47527 0.18593 0.22364 0.0
O60 O 0.5303 0.22797 0.18171 0.0
O61 O 0.49027 0.23971 0.18637 0.0
O62 O 0.49779 0.19983 0.17814 0.0
O63 O 0.50906 0.21596 0.21841 0.0
H64 H 0.55237 0.2313 0.21166 0.0
H65 H 0.54941 0.21461 0.15252 0.0
H66 H 0.58543 0.22275 0.21192 0.0
H67 H 0.58254 0.20642 0.1538 0.0
H68 H 0.4596 0.28953 0.20951 0.0
H69 H 0.49925 0.2633 0.15899 0.0
H70 H 0.46879 0.25674 0.21148 0.0
H71 H 0.48929 0.29591 0.15778 0.0
H72 H 0.53061 0.24718 0.10745 0.0
H73 H 0.47683 0.22165 0.10528 0.0
H74 H 0.54202 0.27138 0.25633 0.0
H75 H 0.53799 0.30155 0.20307 0.0
H76 H 0.49544 0.17154 0.20197 0.0
H77 H 0.50596 0.18739 0.14353 0.0
H78 H 0.50001 0.1389 0.1927 0.0
H79 H 0.51041 0.15446 0.13529 0.0
H80 H 0.50789 0.18867 0.24368 0.0
H81 H 0.49039 0.24418 0.23239 0.0
H82 H 0.49161 0.18994 0.27487 0.0
H83 H 0.47416 0.24441 0.26367 0.0
H84 H 0.55983 0.16731 0.23575 0.0
H85 H 0.56311 0.15573 0.17504 0.0
H86 H 0.42025 0.22102 0.20426 0.0
H87 H 0.44506 0.17587 0.23524 0.0
Li88 Li 0.29091 0.51683 0.6921 0.0
Li89 Li 0.28077 0.48656 0.6958 0.0
Li90 Li 0.27166 0.50349 0.66709 0.0
Li91 Li 0.25855 0.51082 0.7008 0.0
C92 C 0.31342 0.49897 0.66751 0.0
N93 N 0.34806 0.50514 0.65251 0.0
C94 C 0.32906 0.49397 0.67792 0.0
C95 C 0.31538 0.50692 0.64937 0.0
C96 C 0.34646 0.49726 0.67012 0.0
C97 C 0.33302 0.50997 0.64207 0.0
C98 C 0.28698 0.49764 0.73199 0.0
C99 C 0.28152 0.48537 0.7636 0.0
N100 N 0.29954 0.48044 0.76478 0.0
C101 C 0.30548 0.49261 0.73359 0.0
C102 C 0.2749 0.49412 0.74714 0.0
C103 C 0.31155 0.48386 0.75026 0.0
C104 C 0.31396 0.53812 0.71564 0.0
N105 N 0.31043 0.5341 0.69697 0.0
C106 C 0.33374 0.55518 0.68675 0.0
C107 C 0.31988 0.54249 0.68257 0.0
C108 C 0.33787 0.55936 0.70593 0.0
C109 C 0.32772 0.55067 0.72047 0.0
H110 H 0.30591 0.5318 0.72685 0.0
H111 H 0.31653 0.53958 0.66783 0.0
C112 C 0.29995 0.45369 0.69125 0.0
N113 N 0.28812 0.46227 0.70339 0.0
C114 C 0.30741 0.43663 0.69599 0.0
C115 C 0.28977 0.43703 0.72534 0.0
C116 C 0.28243 0.45402 0.71986 0.0
C117 C 0.3028 0.4283 0.71352 0.0
H118 H 0.30382 0.46022 0.67793 0.0
H119 H 0.27251 0.46075 0.72899 0.0
C120 C 0.27312 0.54553 0.67816 0.0
N121 N 0.28414 0.58174 0.67462 0.0
C122 C 0.27206 0.55739 0.69389 0.0
C123 C 0.27966 0.55208 0.6606 0.0
C124 C 0.27775 0.57565 0.69182 0.0
C125 C 0.28518 0.57044 0.65911 0.0
C126 C 0.24923 0.47119 0.68794 0.0
C127 C 0.25306 0.45709 0.67491 0.0
C128 C 0.23944 0.46731 0.7047 0.0
C129 C 0.24714 0.43922 0.67899 0.0
C130 C 0.23374 0.44927 0.70823 0.0
N131 N 0.23769 0.43572 0.69543 0.0
C132 C 0.27319 0.48808 0.63029 0.0
C133 C 0.25451 0.51474 0.63274 0.0
C134 C 0.26947 0.48671 0.61072 0.0
N135 N 0.26584 0.50202 0.64077 0.0
C136 C 0.25037 0.51388 0.61322 0.0
C137 C 0.25797 0.49977 0.60192 0.0
H138 H 0.28206 0.47811 0.63716 0.0
H139 H 0.24882 0.52563 0.6415 0.0
C140 C 0.23955 0.53018 0.72975 0.0
N141 N 0.23758 0.52019 0.71342 0.0
C142 C 0.22439 0.53915 0.73778 0.0
C143 C 0.20546 0.52696 0.71224 0.0
C144 C 0.22096 0.51819 0.70475 0.0
C145 C 0.20714 0.53791 0.72876 0.0
H146 H 0.25303 0.53175 0.73612 0.0
H147 H 0.2199 0.51026 0.69167 0.0
O148 O 0.29627 0.49568 0.67483 0.0
O149 O 0.2808 0.50629 0.71582 0.0
O150 O 0.26806 0.52751 0.68004 0.0
O151 O 0.25529 0.48866 0.68446 0.0
H152 H 0.32779 0.48752 0.69182 0.0
H153 H 0.30345 0.51099 0.64115 0.0
H154 H 0.35869 0.49351 0.67805 0.0
H155 H 0.33475 0.51624 0.62812 0.0
H156 H 0.27231 0.48246 0.7754 0.0
H157 H 0.31503 0.49543 0.72208 0.0
H158 H 0.26054 0.49793 0.74613 0.0
H159 H 0.32581 0.47981 0.75165 0.0
H160 H 0.34121 0.56158 0.67508 0.0
H161 H 0.33013 0.55381 0.73544 0.0
H162 H 0.31691 0.43018 0.6861 0.0
H163 H 0.28575 0.43118 0.73898 0.0
H164 H 0.26713 0.55248 0.7076 0.0
H165 H 0.28071 0.54302 0.64834 0.0
H166 H 0.27713 0.58496 0.7039 0.0
H167 H 0.29038 0.57568 0.64564 0.0
H168 H 0.26069 0.45989 0.66192 0.0
H169 H 0.23647 0.4781 0.71496 0.0
H170 H 0.2501 0.42813 0.66912 0.0
H171 H 0.22623 0.44603 0.7212 0.0
H172 H 0.27541 0.47549 0.6026 0.0
H173 H 0.24159 0.52432 0.60697 0.0
H174 H 0.22634 0.54764 0.75037 0.0
H175 H 0.19238 0.52551 0.70496 0.0
Li176 Li 0.98138 0.28544 0.19491 0.0
Li177 Li 0.0131 0.27358 0.19537 0.0
Li178 Li 0.99343 0.26683 0.16827 0.0
Li179 Li 0.98838 0.2533 0.20021 0.0
C180 C 0.0089 0.30857 0.17911 0.0
N181 N 0.02379 0.34325 0.18398 0.0
C182 C 0.01212 0.31543 0.19755 0.0
C183 C 0.01325 0.31937 0.16317 0.0
C184 C 0.01967 0.33298 0.1997 0.0
C185 C 0.02074 0.33687 0.16592 0.0
C186 C 0.9927 0.2676 0.23465 0.0
C187 C 0.00154 0.24664 0.25984 0.0
N188 N 0.9871 0.25257 0.27059 0.0
C189 C 0.97811 0.27368 0.24607 0.0
C190 C 0.00467 0.25416 0.2417 0.0
C191 C 0.97545 0.26584 0.26415 0.0
C192 C 0.94883 0.29812 0.21087 0.0
N193 N 0.96387 0.30419 0.20119 0.0
C194 C 0.95221 0.33498 0.20149 0.0
C195 C 0.96558 0.32217 0.19604 0.0
C196 C 0.93684 0.32918 0.21211 0.0
C197 C 0.93514 0.31041 0.21658 0.0
H198 H 0.94749 0.28364 0.2142 0.0
H199 H 0.9772 0.3267 0.18769 0.0
C200 C 0.04939 0.28384 0.18682 0.0
N201 N 0.03768 0.28034 0.20156 0.0
C202 C 0.06663 0.29156 0.19033 0.0
C203 C 0.05951 0.29182 0.22418 0.0
C204 C 0.04248 0.28386 0.22002 0.0
C205 C 0.0717 0.29618 0.20918 0.0
H206 H 0.045 0.28139 0.17223 0.0
H207 H 0.03271 0.28142 0.23142 0.0
C208 C 0.95535 0.26952 0.17138 0.0
N209 N 0.92612 0.28085 0.14901 0.0
C210 C 0.93876 0.25982 0.17179 0.0
C211 C 0.95707 0.28502 0.15964 0.0
C212 C 0.92414 0.26576 0.16036 0.0
C213 C 0.94213 0.29052 0.14843 0.0
C214 C 0.02694 0.24335 0.17994 0.0
C215 C 0.03527 0.24485 0.16195 0.0
C216 C 0.03681 0.23571 0.19519 0.0
C217 C 0.05348 0.23909 0.15962 0.0
C218 C 0.05499 0.23012 0.1923 0.0
N219 N 0.06289 0.23194 0.17473 0.0
C220 C 0.0037 0.27332 0.1301 0.0
C221 C 0.98014 0.25105 0.13379 0.0
C222 C 0.00336 0.27114 0.11023 0.0
N223 N 0.99223 0.2633 0.14138 0.0
C224 C 0.97918 0.24857 0.11396 0.0
C225 C 0.99094 0.25866 0.10187 0.0
H226 H 0.01333 0.28278 0.13659 0.0
H227 H 0.97118 0.24326 0.14314 0.0
C228 C 0.96292 0.23369 0.22219 0.0
N229 N 0.97927 0.23212 0.2129 0.0
C230 C 0.95499 0.21839 0.23098 0.0
C231 C 0.98086 0.20008 0.22036 0.0
C232 C 0.98838 0.21581 0.21191 0.0
C233 C 0.96388 0.20126 0.22993 0.0
H234 H 0.95589 0.24682 0.22247 0.0
H235 H 0.00128 0.21495 0.20425 0.0
O236 O 0.00202 0.2912 0.17659 0.0
O237 O 0.99534 0.27486 0.21674 0.0
O238 O 0.96972 0.2639 0.18262 0.0
O239 O 0.00917 0.24912 0.18254 0.0
H240 H 0.0088 0.30734 0.21008 0.0
H241 H 0.01085 0.31429 0.1488 0.0
H242 H 0.02225 0.33844 0.21387 0.0
H243 H 0.02416 0.34538 0.15371 0.0
H244 H 0.01062 0.23611 0.26538 0.0
H245 H 0.96897 0.28437 0.24112 0.0
H246 H 0.01619 0.24953 0.23323 0.0
H247 H 0.96414 0.27034 0.27308 0.0
H248 H 0.95407 0.3493 0.19768 0.0
H249 H 0.92329 0.30523 0.22429 0.0
H250 H 0.07561 0.29444 0.17832 0.0
H251 H 0.06261 0.29544 0.23889 0.0
H252 H 0.93722 0.24784 0.18087 0.0
H253 H 0.96977 0.29276 0.15919 0.0
H254 H 0.91122 0.25838 0.16052 0.0
H255 H 0.94327 0.30247 0.13927 0.0
H256 H 0.02784 0.25051 0.14992 0.0
H257 H 0.03053 0.23409 0.20911 0.0
H258 H 0.06012 0.24031 0.14581 0.0
H259 H 0.06281 0.22431 0.20402 0.0
H260 H 0.01295 0.27896 0.10158 0.0
H261 H 0.9692 0.23899 0.10819 0.0
H262 H 0.94175 0.21982 0.23794 0.0
H263 H 0.98817 0.18713 0.2193 0.0
Li264 Li 0.20693 0.98081 0.69132 0.0
Li265 Li 0.21606 0.0112 0.69472 0.0
Li266 Li 0.22424 0.9946 0.66527 0.0
Li267 Li 0.23939 0.98771 0.69829 0.0
C268 C 0.18219 0.9971 0.66926 0.0
N269 N 0.14672 0.98765 0.6589 0.0
C270 C 0.16778 0.99893 0.68241 0.0
C271 C 0.17853 0.99061 0.65079 0.0
C272 C 0.14996 0.99402 0.67692 0.0
C273 C 0.16051 0.98588 0.64583 0.0
C274 C 0.21474 0.00145 0.73096 0.0
C275 C 0.22618 0.0172 0.75895 0.0
N276 N 0.20864 0.02181 0.76379 0.0
C277 C 0.19682 0.00619 0.7363 0.0
C278 C 0.22955 0.00689 0.74241 0.0
C279 C 0.19403 0.01656 0.75291 0.0
C280 C 0.18514 0.95885 0.71569 0.0
N281 N 0.18839 0.96272 0.69693 0.0
C282 C 0.16587 0.9406 0.6872 0.0
C283 C 0.1792 0.95375 0.68275 0.0
C284 C 0.16213 0.93637 0.70648 0.0
C285 C 0.17206 0.94567 0.72081 0.0
H286 H 0.19288 0.96585 0.72672 0.0
H287 H 0.18223 0.95673 0.66793 0.0
C288 C 0.21879 0.04519 0.71621 0.0
N289 N 0.20874 0.03522 0.70343 0.0
C290 C 0.2126 0.0624 0.72241 0.0
C291 C 0.18593 0.05886 0.70211 0.0
C292 C 0.19271 0.04186 0.69619 0.0
C293 C 0.19585 0.06941 0.71545 0.0
H294 H 0.23159 0.03978 0.72168 0.0
H295 H 0.18506 0.03388 0.68587 0.0
C296 C 0.22522 0.95256 0.67633 0.0
N297 N 0.21613 0.91579 0.67308 0.0
C298 C 0.22715 0.94083 0.69207 0.0
C299 C 0.2188 0.9456 0.6589 0.0
C300 C 0.22243 0.92229 0.69016 0.0
C301 C 0.21426 0.92696 0.65755 0.0
C302 C 0.24692 0.02765 0.68264 0.0
C303 C 0.23965 0.04084 0.67019 0.0
C304 C 0.26039 0.03271 0.69593 0.0
C305 C 0.24583 0.059 0.67142 0.0
C306 C 0.26624 0.05101 0.69668 0.0
N307 N 0.25888 0.06367 0.68453 0.0
C308 C 0.22058 0.00918 0.62803 0.0
C309 C 0.24123 0.98406 0.63077 0.0
C310 C 0.224 0.01045 0.60838 0.0
N311 N 0.22908 0.99606 0.6387 0.0
C312 C 0.24509 0.98484 0.61118 0.0
C313 C 0.23638 0.99814 0.5997 0.0
H314 H 0.21107 0.01862 0.63481 0.0
H315 H 0.24786 0.97384 0.63968 0.0
C316 C 0.2599 0.96876 0.72605 0.0
N317 N 0.26124 0.97915 0.70993 0.0
C318 C 0.27559 0.96082 0.73406 0.0
C319 C 0.29379 0.97474 0.70891 0.0
C320 C 0.27771 0.9824 0.70137 0.0
C321 C 0.29282 0.96357 0.72534 0.0
H322 H 0.24654 0.96627 0.7324 0.0
H323 H 0.27829 0.99063 0.68846 0.0
O324 O 0.19973 0.00187 0.67437 0.0
O325 O 0.21776 0.99143 0.71467 0.0
O326 O 0.22942 0.97082 0.67803 0.0
O327 O 0.24089 0.00986 0.68183 0.0
H328 H 0.17035 0.00396 0.69675 0.0
H329 H 0.18949 0.98897 0.64046 0.0
H330 H 0.13871 0.99526 0.68699 0.0
H331 H 0.1575 0.98074 0.63162 0.0
H332 H 0.23752 0.02162 0.76788 0.0
H333 H 0.18521 0.00199 0.72765 0.0
H334 H 0.24352 0.00342 0.73844 0.0
H335 H 0.18025 0.02043 0.75715 0.0
H336 H 0.1585 0.93395 0.67563 0.0
H337 H 0.17 0.9426 0.73584 0.0
H338 H 0.22088 0.07011 0.7325 0.0
H339 H 0.17281 0.06345 0.69655 0.0
H340 H 0.23201 0.94605 0.70568 0.0
H341 H 0.21709 0.95454 0.64662 0.0
H342 H 0.22372 0.91307 0.70225 0.0
H343 H 0.20916 0.92139 0.64419 0.0
H344 H 0.22918 0.03712 0.65987 0.0
H345 H 0.26611 0.02265 0.7057 0.0
H346 H 0.24023 0.06939 0.66198 0.0
H347 H 0.27658 0.05516 0.70696 0.0
H348 H 0.21719 0.02107 0.60013 0.0
H349 H 0.25457 0.97496 0.60506 0.0
H350 H 0.27414 0.95208 0.74654 0.0
H351 H 0.30679 0.97738 0.70184 0.0
Li352 Li 0.48736 0.27893 0.80437 0.0
Li353 Li 0.51875 0.29095 0.80737 0.0
Li354 Li 0.51289 0.25833 0.80111 0.0
Li355 Li 0.50609 0.27199 0.83241 0.0
C356 C 0.51245 0.2742 0.7671 0.0
N357 N 0.52495 0.26156 0.73208 0.0
C358 C 0.52882 0.28105 0.75937 0.0
C359 C 0.50236 0.26103 0.75695 0.0
C360 C 0.53492 0.27447 0.74165 0.0
C361 C 0.50894 0.25478 0.7393 0.0
C362 C 0.49808 0.31478 0.82559 0.0
C363 C 0.51262 0.34198 0.83838 0.0
N364 N 0.50109 0.35263 0.82776 0.0
C365 C 0.48636 0.32598 0.81483 0.0
C366 C 0.51129 0.32282 0.83752 0.0
C367 C 0.48809 0.34509 0.81613 0.0
C368 C 0.4504 0.28913 0.80983 0.0
N369 N 0.46317 0.28497 0.79626 0.0
C370 C 0.44208 0.29252 0.77124 0.0
C371 C 0.45932 0.28636 0.77727 0.0
C372 C 0.42872 0.29737 0.78492 0.0
C373 C 0.43296 0.29528 0.80445 0.0
H374 H 0.45397 0.28816 0.82485 0.0
H375 H 0.46984 0.2833 0.7668 0.0
C376 C 0.55229 0.31044 0.80818 0.0
N377 N 0.53472 0.31095 0.80157 0.0
C378 C 0.56447 0.32471 0.80394 0.0
C379 C 0.54026 0.33977 0.78611 0.0
C380 C 0.52858 0.32512 0.79058 0.0
C381 C 0.55852 0.33969 0.79278 0.0
H382 H 0.55694 0.29882 0.81653 0.0
H383 H 0.51461 0.325 0.78525 0.0
C384 C 0.47327 0.2486 0.8182 0.0
N385 N 0.43689 0.23774 0.81995 0.0
C386 C 0.46345 0.25029 0.83533 0.0
C387 C 0.46466 0.24128 0.80199 0.0
C388 C 0.44505 0.24473 0.83592 0.0
C389 C 0.44623 0.23591 0.80316 0.0
C390 C 0.54095 0.26281 0.83399 0.0
C391 C 0.54506 0.24403 0.83481 0.0
C392 C 0.54717 0.27451 0.84851 0.0
C393 C 0.55526 0.23726 0.85025 0.0
C394 C 0.5573 0.2672 0.86373 0.0
N395 N 0.5611 0.24888 0.86427 0.0
C396 C 0.53952 0.23918 0.78028 0.0
C397 C 0.5135 0.22103 0.78829 0.0
C398 C 0.5477 0.2243 0.77099 0.0
N399 N 0.52267 0.23734 0.7885 0.0
C400 C 0.52133 0.20567 0.77939 0.0
C401 C 0.53863 0.20726 0.77055 0.0
H402 H 0.54666 0.25221 0.78109 0.0
H403 H 0.50024 0.21991 0.79519 0.0
C404 C 0.50223 0.28199 0.87129 0.0
N405 N 0.50545 0.26765 0.85926 0.0
C406 C 0.50198 0.27924 0.89108 0.0
C407 C 0.50807 0.24694 0.88571 0.0
C408 C 0.50811 0.25031 0.866 0.0
C409 C 0.50504 0.26154 0.89855 0.0
H410 H 0.49976 0.29555 0.86553 0.0
H411 H 0.51041 0.23913 0.85605 0.0
O412 O 0.5064 0.28024 0.78457 0.0
O413 O 0.4968 0.29603 0.82431 0.0
O414 O 0.49118 0.25428 0.81723 0.0
O415 O 0.53068 0.26966 0.81919 0.0
H416 H 0.53684 0.2912 0.76704 0.0
H417 H 0.48971 0.25552 0.76277 0.0
H418 H 0.54761 0.27958 0.73554 0.0
H419 H 0.50135 0.24449 0.73136 0.0
H420 H 0.52285 0.34838 0.84745 0.0
H421 H 0.47615 0.32003 0.80542 0.0
H422 H 0.5206 0.31436 0.8458 0.0
H423 H 0.47915 0.35393 0.80782 0.0
H424 H 0.43956 0.29424 0.75605 0.0
H425 H 0.42305 0.29872 0.81548 0.0
H426 H 0.57852 0.3238 0.80903 0.0
H427 H 0.535 0.35106 0.77759 0.0
H428 H 0.46989 0.25599 0.84799 0.0
H429 H 0.47206 0.23994 0.78861 0.0
H430 H 0.43724 0.24603 0.84905 0.0
H431 H 0.43935 0.23034 0.7907 0.0
H432 H 0.54028 0.23475 0.82377 0.0
H433 H 0.544 0.28905 0.84817 0.0
H434 H 0.55848 0.22275 0.85111 0.0
H435 H 0.56209 0.27607 0.87513 0.0
H436 H 0.56121 0.22598 0.76465 0.0
H437 H 0.51395 0.19272 0.77936 0.0
H438 H 0.49919 0.29083 0.9004 0.0
H439 H 0.51063 0.2331 0.89082 0.0
Li440 Li 0.20461 0.52042 0.30525 0.0
Li441 Li 0.21569 0.48895 0.29977 0.0
Li442 Li 0.22255 0.50521 0.33102 0.0
Li443 Li 0.23819 0.51325 0.3014 0.0
C444 C 0.18122 0.49667 0.32789 0.0
N445 N 0.14655 0.49408 0.34409 0.0
C446 C 0.16762 0.48586 0.31924 0.0
C447 C 0.17724 0.50581 0.34504 0.0
C448 C 0.15017 0.48484 0.32757 0.0
C449 C 0.15963 0.50442 0.35294 0.0
C450 C 0.21399 0.50496 0.26445 0.0
C451 C 0.22119 0.48666 0.23658 0.0
N452 N 0.2055 0.49268 0.22801 0.0
C453 C 0.19803 0.5111 0.25528 0.0
C454 C 0.22576 0.49276 0.25496 0.0
C455 C 0.19395 0.50469 0.23688 0.0
C456 C 0.18952 0.55549 0.29771 0.0
N457 N 0.18538 0.53731 0.29922 0.0
C458 C 0.154 0.54321 0.29104 0.0
C459 C 0.16808 0.53099 0.29582 0.0
C460 C 0.15779 0.56212 0.28961 0.0
C461 C 0.17585 0.56821 0.29302 0.0
H462 H 0.20349 0.5601 0.30002 0.0
H463 H 0.16526 0.51644 0.29645 0.0
C464 C 0.21795 0.45047 0.29116 0.0
N465 N 0.20855 0.46639 0.2881 0.0
C466 C 0.212 0.43407 0.28263 0.0
C467 C 0.18704 0.45092 0.26789 0.0
C468 C 0.19331 0.46683 0.27685 0.0
C469 C 0.19638 0.43425 0.27076 0.0
H470 H 0.22993 0.45047 0.30035 0.0
H471 H 0.18583 0.47956 0.27502 0.0
C472 C 0.22408 0.54422 0.33293 0.0
N473 N 0.22001 0.5725 0.35914 0.0
C474 C 0.23911 0.55528 0.33781 0.0
C475 C 0.20691 0.54782 0.34113 0.0
C476 C 0.23681 0.56942 0.35117 0.0
C477 C 0.20514 0.5621 0.3544 0.0
C478 C 0.25705 0.48487 0.31396 0.0
C479 C 0.26882 0.48901 0.3292 0.0
C480 C 0.26412 0.47658 0.29745 0.0
C481 C 0.28757 0.48507 0.32753 0.0
C482 C 0.28295 0.47286 0.29632 0.0
N483 N 0.29419 0.47717 0.31125 0.0
C484 C 0.21544 0.49014 0.36785 0.0
C485 C 0.23793 0.51373 0.36699 0.0
C486 C 0.21712 0.48878 0.38775 0.0
N487 N 0.22553 0.50273 0.35799 0.0
C488 C 0.2401 0.51281 0.38682 0.0
C489 C 0.22946 0.50036 0.39752 0.0
H490 H 0.20592 0.48131 0.36028 0.0
H491 H 0.24626 0.52315 0.35874 0.0
C492 C 0.26414 0.5239 0.27278 0.0
N493 N 0.26086 0.52263 0.29193 0.0
C494 C 0.28008 0.53256 0.26611 0.0
C495 C 0.28902 0.53816 0.29898 0.0
C496 C 0.27306 0.52922 0.305 0.0
C497 C 0.2925 0.54018 0.27931 0.0
H498 H 0.25413 0.51877 0.26268 0.0
H499 H 0.27013 0.52792 0.32013 0.0
O500 O 0.19845 0.49772 0.31993 0.0
O501 O 0.21806 0.51092 0.28257 0.0
O502 O 0.22614 0.53023 0.31992 0.0
O503 O 0.23871 0.48895 0.31519 0.0
H504 H 0.17044 0.47843 0.30618 0.0
H505 H 0.18767 0.51367 0.3524 0.0
H506 H 0.13951 0.47665 0.32091 0.0
H507 H 0.15639 0.51148 0.36617 0.0
H508 H 0.23011 0.47711 0.22915 0.0
H509 H 0.18884 0.52066 0.26231 0.0
H510 H 0.2382 0.48794 0.26178 0.0
H511 H 0.18159 0.50926 0.22967 0.0
H512 H 0.14028 0.53791 0.28856 0.0
H513 H 0.17946 0.58261 0.29169 0.0
H514 H 0.21952 0.42145 0.28522 0.0
H515 H 0.17471 0.45157 0.2592 0.0
H516 H 0.25245 0.55297 0.33142 0.0
H517 H 0.19499 0.53992 0.33703 0.0
H518 H 0.24837 0.57797 0.35516 0.0
H519 H 0.19191 0.56498 0.36085 0.0
H520 H 0.26357 0.49535 0.34211 0.0
H521 H 0.25517 0.47305 0.28564 0.0
H522 H 0.29686 0.48832 0.33916 0.0
H523 H 0.28862 0.46653 0.28359 0.0
H524 H 0.2086 0.47902 0.39542 0.0
H525 H 0.25012 0.52166 0.39367 0.0
H526 H 0.28222 0.53403 0.25082 0.0
H527 H 0.29837 0.54376 0.30958 0.0
Li528 Li 0.98519 0.23928 0.79933 0.0
Li529 Li 0.99282 0.22487 0.83022 0.0
Li530 Li 0.01129 0.2193 0.8017 0.0
Li531 Li 0.9803 0.20629 0.80454 0.0
C532 C 0.0249 0.24908 0.81602 0.0
N533 N 0.06147 0.25937 0.81683 0.0
C534 C 0.0358 0.2448 0.83191 0.0
C535 C 0.03254 0.25867 0.80059 0.0
C536 C 0.05428 0.25011 0.83203 0.0
C537 C 0.05108 0.26372 0.80126 0.0
C538 C 0.95725 0.23282 0.8321 0.0
C539 C 0.94046 0.22681 0.86127 0.0
N540 N 0.9357 0.24489 0.86223 0.0
C541 C 0.95212 0.25133 0.83333 0.0
C542 C 0.9513 0.22043 0.84612 0.0
C543 C 0.94124 0.25716 0.84868 0.0
C544 C 0.95743 0.25714 0.77936 0.0
N545 N 0.97395 0.26016 0.78787 0.0
C546 C 0.97153 0.29247 0.78194 0.0
C547 C 0.9812 0.27735 0.78924 0.0
C548 C 0.95431 0.28978 0.77313 0.0
C549 C 0.94749 0.27172 0.77161 0.0
H550 H 0.95184 0.24336 0.77886 0.0
H551 H 0.99421 0.27938 0.79645 0.0
C552 C 0.99872 0.21444 0.8688 0.0
N553 N 0.99355 0.22853 0.85719 0.0
C554 C 0.99879 0.21672 0.88867 0.0
C555 C 0.98861 0.2481 0.88422 0.0
C556 C 0.98893 0.24526 0.86444 0.0
C557 C 0.99348 0.23367 0.89667 0.0
H558 H 0.00285 0.20145 0.86265 0.0
H559 H 0.98526 0.25634 0.85483 0.0
C560 C 0.98585 0.22424 0.76466 0.0
N561 N 0.97291 0.23702 0.72989 0.0
C562 C 0.97049 0.21606 0.75614 0.0
C563 C 0.99471 0.23884 0.75543 0.0
C564 C 0.96414 0.22273 0.73856 0.0
C565 C 0.98792 0.24514 0.73789 0.0
C566 C 0.00102 0.18258 0.82287 0.0
C567 C 0.01201 0.171 0.81169 0.0
C568 C 0.98834 0.17494 0.83568 0.0
C569 C 0.01012 0.15194 0.81352 0.0
C570 C 0.98683 0.15583 0.83705 0.0
N571 N 0.99767 0.14482 0.82604 0.0
C572 C 0.04695 0.2055 0.80605 0.0
C573 C 0.04129 0.21803 0.77527 0.0
C574 C 0.06432 0.19947 0.80033 0.0
N575 N 0.03569 0.21417 0.7934 0.0
C576 C 0.0587 0.21252 0.76901 0.0
C577 C 0.07033 0.20264 0.78144 0.0
H578 H 0.0421 0.20261 0.8204 0.0
H579 H 0.0321 0.22501 0.76552 0.0
C580 C 0.94664 0.18741 0.8044 0.0
N581 N 0.9644 0.18629 0.79847 0.0
C582 C 0.93422 0.17339 0.80009 0.0
C583 C 0.95858 0.15724 0.78355 0.0
C584 C 0.97049 0.17172 0.788 0.0
C585 C 0.94012 0.15795 0.7896 0.0
H586 H 0.942 0.19936 0.81223 0.0
H587 H 0.98457 0.1714 0.78302 0.0
O588 O 0.00696 0.24351 0.81539 0.0
O589 O 0.96813 0.22688 0.81733 0.0
O590 O 0.99214 0.21803 0.78197 0.0
O591 O 0.00249 0.20128 0.82114 0.0
H592 H 0.03011 0.23728 0.84391 0.0
H593 H 0.0243 0.26198 0.78815 0.0
H594 H 0.06292 0.24681 0.84418 0.0
H595 H 0.05722 0.27106 0.78938 0.0
H596 H 0.93587 0.2174 0.87229 0.0
H597 H 0.95664 0.26114 0.82268 0.0
H598 H 0.95513 0.20607 0.8454 0.0
H599 H 0.93724 0.27145 0.84986 0.0
H600 H 0.97724 0.30612 0.78372 0.0
H601 H 0.93451 0.26883 0.76463 0.0
H602 H 0.00311 0.20535 0.89763 0.0
H603 H 0.98429 0.26136 0.88968 0.0
H604 H 0.96345 0.20476 0.76308 0.0
H605 H 0.00648 0.24548 0.76193 0.0
H606 H 0.95223 0.21658 0.73184 0.0
H607 H 0.99454 0.25653 0.73067 0.0
H608 H 0.02169 0.17661 0.80149 0.0
H609 H 0.97963 0.18368 0.84434 0.0
H610 H 0.01849 0.14282 0.8049 0.0
H611 H 0.97702 0.14974 0.84684 0.0
H612 H 0.07254 0.19169 0.8104 0.0
H613 H 0.06282 0.21565 0.75445 0.0
H614 H 0.92005 0.17486 0.80461 0.0
H615 H 0.96382 0.14562 0.77552 0.0
Li616 Li 0.25976 0.98562 0.29908 0.0
Li617 Li 0.27502 0.99427 0.32924 0.0
Li618 Li 0.28157 0.0112 0.2992 0.0
Li619 Li 0.29269 0.98016 0.30352 0.0
C620 C 0.2424 0.01894 0.31527 0.0
N621 N 0.21038 0.03906 0.31953 0.0
C622 C 0.23077 0.0157 0.33087 0.0
C623 C 0.2379 0.03266 0.30203 0.0
C624 C 0.2146 0.02593 0.33271 0.0
C625 C 0.22161 0.04262 0.30438 0.0
C626 C 0.27797 0.95542 0.32959 0.0
C627 C 0.29831 0.94418 0.35426 0.0
N628 N 0.2905 0.92723 0.35273 0.0
C629 C 0.27015 0.93791 0.32824 0.0
C630 C 0.29217 0.95861 0.34269 0.0
C631 C 0.27667 0.92383 0.34007 0.0
C632 C 0.23972 0.9642 0.27299 0.0
N633 N 0.23795 0.97509 0.28873 0.0
C634 C 0.20592 0.96798 0.29093 0.0
C635 C 0.2215 0.97714 0.29773 0.0
C636 C 0.20737 0.95646 0.27481 0.0
C637 C 0.22452 0.9548 0.26568 0.0
H638 H 0.25308 0.96242 0.26642 0.0
H639 H 0.22052 0.98543 0.3105 0.0
C640 C 0.28139 0.00861 0.36632 0.0
N641 N 0.27148 0.99621 0.35605 0.0
C642 C 0.27923 0.00974 0.38619 0.0
C643 C 0.2566 0.98539 0.38441 0.0
C644 C 0.2592 0.98475 0.36461 0.0
C645 C 0.26675 0.99794 0.3955 0.0
H646 H 0.29108 0.01751 0.35908 0.0
H647 H 0.25145 0.97508 0.35602 0.0
C648 C 0.27473 0.99578 0.26275 0.0
N649 N 0.26395 0.00695 0.2266 0.0
C650 C 0.28574 0.99185 0.24684 0.0
C651 C 0.2582 0.00528 0.26027 0.0
C652 C 0.28007 0.99765 0.22868 0.0
C653 C 0.25299 0.01083 0.24188 0.0
C654 C 0.3167 0.00816 0.31431 0.0
C655 C 0.32301 0.00675 0.29543 0.0
C656 C 0.32809 0.01581 0.32833 0.0
C657 C 0.34062 0.01309 0.29089 0.0
C658 C 0.34562 0.02199 0.32322 0.0
N659 N 0.35147 0.02052 0.30476 0.0
C660 C 0.28462 0.04958 0.30161 0.0
C661 C 0.2951 0.03728 0.27209 0.0
C662 C 0.29004 0.06725 0.29609 0.0
N663 N 0.28732 0.03505 0.28966 0.0
C664 C 0.30055 0.05469 0.26592 0.0
C665 C 0.29826 0.06992 0.27808 0.0
H666 H 0.27862 0.04734 0.31561 0.0
H667 H 0.29769 0.02551 0.26308 0.0
C668 C 0.31097 0.95435 0.28073 0.0
N669 N 0.312 0.96346 0.2977 0.0
C670 C 0.32483 0.94209 0.2754 0.0
C671 C 0.34038 0.94854 0.3053 0.0
C672 C 0.32633 0.96089 0.30994 0.0
C673 C 0.33974 0.93904 0.28779 0.0
H674 H 0.29935 0.95663 0.27135 0.0
H675 H 0.3269 0.96846 0.32327 0.0
O676 O 0.25845 0.00925 0.31343 0.0
O677 O 0.27173 0.9693 0.31806 0.0
O678 O 0.2802 0.99027 0.28061 0.0
O679 O 0.29947 0.00213 0.31915 0.0
H680 H 0.2341 0.00526 0.34135 0.0
H681 H 0.24693 0.03572 0.29012 0.0
H682 H 0.2054 0.02346 0.34463 0.0
H683 H 0.21793 0.05322 0.29419 0.0
H684 H 0.3093 0.94645 0.36445 0.0
H685 H 0.25915 0.93524 0.31815 0.0
H686 H 0.29844 0.97206 0.34387 0.0
H687 H 0.27074 0.91021 0.33919 0.0
H688 H 0.19295 0.96971 0.29836 0.0
H689 H 0.22635 0.9458 0.25346 0.0
H690 H 0.28747 0.01948 0.3942 0.0
H691 H 0.24664 0.97625 0.39093 0.0
H692 H 0.29861 0.98453 0.24853 0.0
H693 H 0.2494 0.00816 0.27236 0.0
H694 H 0.28849 0.99478 0.21625 0.0
H695 H 0.24021 0.01819 0.23976 0.0
H696 H 0.31444 0.00083 0.28437 0.0
H697 H 0.32342 0.01697 0.34302 0.0
H698 H 0.34566 0.0121 0.27633 0.0
H699 H 0.35458 0.02795 0.33393 0.0
H700 H 0.28805 0.07864 0.30588 0.0
H701 H 0.30722 0.05609 0.25211 0.0
H702 H 0.32376 0.93487 0.26186 0.0
H703 H 0.35174 0.94664 0.31515 0.0
Li704 Li 0.48529 0.77232 0.82971 0.0
Li705 Li 0.50447 0.77944 0.8021 0.0
Li706 Li 0.47267 0.79041 0.80401 0.0
Li707 Li 0.47972 0.75803 0.79854 0.0
C708 C 0.49183 0.81528 0.82186 0.0
N709 N 0.48705 0.85301 0.82203 0.0
C710 C 0.50301 0.82649 0.81048 0.0
C711 C 0.47822 0.82327 0.83334 0.0
C712 C 0.5004 0.84554 0.81079 0.0
C713 C 0.47601 0.84237 0.8332 0.0
C714 C 0.51929 0.74995 0.81673 0.0
C715 C 0.54722 0.73835 0.80251 0.0
N716 N 0.55602 0.74056 0.81956 0.0
C717 C 0.52858 0.75205 0.83414 0.0
C718 C 0.52864 0.74297 0.8008 0.0
C719 C 0.54716 0.74724 0.83527 0.0
C720 C 0.48424 0.75084 0.86342 0.0
N721 N 0.48539 0.76833 0.85664 0.0
C722 C 0.48604 0.78037 0.88847 0.0
C723 C 0.48651 0.78299 0.86867 0.0
C724 C 0.48458 0.76248 0.89593 0.0
C725 C 0.48379 0.74757 0.88313 0.0
H726 H 0.48353 0.73944 0.85347 0.0
H727 H 0.48779 0.79671 0.86291 0.0
C728 C 0.53323 0.78872 0.77616 0.0
N729 N 0.5286 0.78665 0.79491 0.0
C730 C 0.5499 0.79701 0.77119 0.0
C731 C 0.55695 0.80015 0.80491 0.0
C732 C 0.54018 0.79183 0.80922 0.0
C733 C 0.56175 0.80334 0.78568 0.0
H734 H 0.52358 0.78483 0.7651 0.0
H735 H 0.53594 0.79033 0.824 0.0
C736 C 0.45104 0.76183 0.83082 0.0
N737 N 0.43154 0.74723 0.86125 0.0
C738 C 0.44794 0.74287 0.83191 0.0
C739 C 0.44418 0.77336 0.84519 0.0
C740 C 0.43803 0.73576 0.8474 0.0
C741 C 0.43439 0.76571 0.86047 0.0
C742 C 0.48059 0.77294 0.76438 0.0
C743 C 0.4637 0.77812 0.75647 0.0
C744 C 0.49184 0.76049 0.75458 0.0
C745 C 0.45828 0.77065 0.7389 0.0
C746 C 0.48591 0.75329 0.73707 0.0
N747 N 0.4694 0.75848 0.72966 0.0
C748 C 0.46243 0.82276 0.78439 0.0
C749 C 0.43962 0.81107 0.80541 0.0
C750 C 0.45107 0.83746 0.77932 0.0
N751 N 0.45658 0.81003 0.7973 0.0
C752 C 0.42783 0.82556 0.80081 0.0
C753 C 0.43351 0.83901 0.78761 0.0
H754 H 0.47597 0.82149 0.77809 0.0
H755 H 0.43521 0.80061 0.81539 0.0
C756 C 0.48078 0.72093 0.78475 0.0
N757 N 0.47072 0.73665 0.78598 0.0
C758 C 0.47328 0.70528 0.7761 0.0
C759 C 0.44536 0.72243 0.77007 0.0
C760 C 0.45333 0.73765 0.77892 0.0
C761 C 0.45531 0.70591 0.76867 0.0
H762 H 0.4945 0.72047 0.7907 0.0
H763 H 0.44555 0.75026 0.78045 0.0
O764 O 0.49391 0.79655 0.82146 0.0
O765 O 0.50118 0.75486 0.81525 0.0
O766 O 0.46105 0.76902 0.81599 0.0
O767 O 0.48597 0.77981 0.78174 0.0
H768 H 0.51346 0.8206 0.80133 0.0
H769 H 0.46921 0.81481 0.84196 0.0
H770 H 0.50892 0.85437 0.80202 0.0
H771 H 0.46544 0.84871 0.84189 0.0
H772 H 0.55466 0.73304 0.79027 0.0
H773 H 0.52159 0.75752 0.84658 0.0
H774 H 0.52167 0.74134 0.78721 0.0
H775 H 0.55455 0.74888 0.84862 0.0
H776 H 0.48704 0.79221 0.89784 0.0
H777 H 0.48254 0.73357 0.88829 0.0
H778 H 0.55294 0.79944 0.7562 0.0
H779 H 0.56575 0.80471 0.81651 0.0
H780 H 0.45328 0.7337 0.82106 0.0
H781 H 0.4467 0.78802 0.84476 0.0
H782 H 0.43559 0.72112 0.84846 0.0
H783 H 0.42914 0.77446 0.87176 0.0
H784 H 0.45476 0.78765 0.7639 0.0
H785 H 0.5049 0.75625 0.76055 0.0
H786 H 0.4452 0.77446 0.73265 0.0
H787 H 0.49442 0.74355 0.72939 0.0
H788 H 0.45603 0.84759 0.76918 0.0
H789 H 0.41428 0.82605 0.80727 0.0
H790 H 0.48142 0.69282 0.77526 0.0
H791 H 0.43135 0.72342 0.76488 0.0
Li792 Li 0.71775 0.5059 0.30112 0.0
Li793 Li 0.72759 0.48955 0.33004 0.0
Li794 Li 0.74169 0.48144 0.3002 0.0
Li795 Li 0.71025 0.47411 0.30639 0.0
C796 C 0.75067 0.51678 0.32661 0.0
N797 N 0.76595 0.53805 0.35534 0.0
C798 C 0.74021 0.53044 0.33558 0.0
C799 C 0.76893 0.51402 0.33217 0.0
C800 C 0.74817 0.54103 0.35009 0.0
C801 C 0.7764 0.52489 0.34674 0.0
C802 C 0.68603 0.48962 0.32874 0.0
C803 C 0.66846 0.47124 0.35096 0.0
N804 N 0.65274 0.47611 0.34169 0.0
C805 C 0.66969 0.49452 0.31948 0.0
C806 C 0.68543 0.47793 0.34464 0.0
C807 C 0.653 0.48751 0.32623 0.0
C808 C 0.69252 0.52515 0.27995 0.0
N809 N 0.70829 0.52772 0.29001 0.0
C810 C 0.707 0.56015 0.28446 0.0
C811 C 0.71591 0.5447 0.29202 0.0
C812 C 0.6902 0.55796 0.27473 0.0
C813 C 0.68321 0.54011 0.27216 0.0
H814 H 0.68705 0.5114 0.27822 0.0
H815 H 0.72871 0.54632 0.29972 0.0
C816 C 0.74528 0.48129 0.36482 0.0
N817 N 0.73193 0.49183 0.35674 0.0
C818 C 0.74842 0.4821 0.38454 0.0
C819 C 0.72429 0.5049 0.38713 0.0
C820 C 0.72147 0.50349 0.3674 0.0
C821 C 0.7378 0.49398 0.39594 0.0
H822 H 0.75338 0.47218 0.35593 0.0
H823 H 0.71087 0.51161 0.36055 0.0
C824 C 0.72531 0.49173 0.26522 0.0
N825 N 0.73584 0.50525 0.22985 0.0
C826 C 0.71751 0.48464 0.24847 0.0
C827 C 0.73844 0.50576 0.26398 0.0
C828 C 0.72303 0.49163 0.23073 0.0
C829 C 0.74358 0.51239 0.24596 0.0
C830 C 0.73561 0.44692 0.31482 0.0
C831 C 0.73266 0.44122 0.29591 0.0
C832 C 0.74247 0.4344 0.32823 0.0
C833 C 0.73666 0.42308 0.29075 0.0
C834 C 0.74628 0.41637 0.32252 0.0
N835 N 0.74333 0.41114 0.30405 0.0
C836 C 0.77769 0.46842 0.30196 0.0
C837 C 0.7652 0.46674 0.27064 0.0
C838 C 0.79352 0.45916 0.29601 0.0
N839 N 0.76392 0.472 0.28932 0.0
C840 C 0.7808 0.45748 0.26407 0.0
C841 C 0.79512 0.45333 0.27688 0.0
H842 H 0.77601 0.47207 0.31688 0.0
H843 H 0.75383 0.46888 0.26098 0.0
C844 C 0.68073 0.45876 0.28602 0.0
N845 N 0.69129 0.4566 0.30192 0.0
C846 C 0.66675 0.44621 0.28191 0.0
C847 C 0.67461 0.4296 0.31081 0.0
C848 C 0.68849 0.44245 0.31432 0.0
C849 C 0.66358 0.43132 0.29435 0.0
H850 H 0.68324 0.47023 0.27649 0.0
H851 H 0.69701 0.44117 0.32695 0.0
O852 O 0.74296 0.506 0.31268 0.0
O853 O 0.70256 0.49593 0.32204 0.0
O854 O 0.71983 0.48507 0.28265 0.0
O855 O 0.73204 0.46466 0.32028 0.0
H856 H 0.72595 0.53256 0.33168 0.0
H857 H 0.77728 0.50363 0.3253 0.0
H858 H 0.74018 0.55153 0.35726 0.0
H859 H 0.7905 0.52287 0.35122 0.0
H860 H 0.66781 0.46209 0.36317 0.0
H861 H 0.66989 0.50353 0.30717 0.0
H862 H 0.69796 0.47379 0.35182 0.0
H863 H 0.64026 0.49112 0.31915 0.0
H864 H 0.71289 0.57367 0.28671 0.0
H865 H 0.67057 0.53773 0.26431 0.0
H866 H 0.75906 0.47357 0.39081 0.0
H867 H 0.7157 0.51408 0.39547 0.0
H868 H 0.70731 0.4738 0.24919 0.0
H869 H 0.74463 0.5115 0.27672 0.0
H870 H 0.71712 0.48624 0.21765 0.0
H871 H 0.75372 0.52323 0.24479 0.0
H872 H 0.72739 0.45065 0.28527 0.0
H873 H 0.74485 0.43859 0.34292 0.0
H874 H 0.73447 0.41851 0.27618 0.0
H875 H 0.75161 0.40655 0.33276 0.0
H876 H 0.80423 0.45627 0.30638 0.0
H877 H 0.78124 0.45286 0.24932 0.0
H878 H 0.65876 0.44797 0.26894 0.0
H879 H 0.67249 0.41852 0.32095 0.0
Li880 Li 0.00703 0.72627 0.83157 0.0
Li881 Li 0.98959 0.7185 0.80247 0.0
Li882 Li 0.02241 0.70859 0.80644 0.0
Li883 Li 0.01512 0.74062 0.79956 0.0
C884 C 0.99462 0.69011 0.83597 0.0
N885 N 0.98258 0.66756 0.86532 0.0
C886 C 0.976 0.68548 0.83745 0.0
C887 C 0.00714 0.6831 0.84932 0.0
C888 C 0.97018 0.6741 0.85241 0.0
C889 C 0.00078 0.67178 0.86409 0.0
C890 C 0.97628 0.75293 0.8163 0.0
C891 C 0.95419 0.77393 0.80261 0.0
N892 N 0.94416 0.77313 0.81905 0.0
C893 C 0.96586 0.75248 0.83314 0.0
C894 C 0.97051 0.7639 0.80097 0.0
C895 C 0.94962 0.76272 0.83422 0.0
C896 C 0.01831 0.7425 0.86612 0.0
N897 N 0.00563 0.73086 0.85848 0.0
C898 C 0.9922 0.7259 0.88934 0.0
C899 C 0.99246 0.72289 0.86959 0.0
C900 C 0.00531 0.73762 0.89762 0.0
C901 C 0.01835 0.74618 0.88577 0.0
H902 H 0.02847 0.74886 0.85693 0.0
H903 H 0.98206 0.71429 0.86318 0.0
C904 C 0.96702 0.69818 0.77814 0.0
N905 N 0.96637 0.71056 0.79272 0.0
C906 C 0.95088 0.69025 0.77115 0.0
C907 C 0.93359 0.70809 0.79419 0.0
C908 C 0.95009 0.71568 0.80073 0.0
C909 C 0.93387 0.695 0.77937 0.0
H910 H 0.98017 0.69406 0.7723 0.0
H911 H 0.94988 0.72511 0.81263 0.0
C912 C 0.04918 0.72622 0.82499 0.0
N913 N 0.08461 0.71612 0.83479 0.0
C914 C 0.06403 0.73181 0.81368 0.0
C915 C 0.05237 0.71574 0.84145 0.0
C916 C 0.08183 0.7265 0.81882 0.0
C917 C 0.07037 0.71071 0.84612 0.0
C918 C 0.00757 0.72425 0.76479 0.0
C919 C 0.02051 0.71963 0.75077 0.0
C920 C 0.99203 0.73447 0.75972 0.0
C921 C 0.01781 0.72556 0.73192 0.0
C922 C 0.9898 0.74011 0.74072 0.0
N923 N 0.00264 0.7356 0.72733 0.0
C924 C 0.03914 0.67298 0.80858 0.0
C925 C 0.05334 0.69454 0.78782 0.0
C926 C 0.05219 0.65963 0.80375 0.0
N927 N 0.04001 0.69005 0.80066 0.0
C928 C 0.06657 0.68162 0.7825 0.0
C929 C 0.06607 0.66388 0.79045 0.0
H930 H 0.0282 0.66962 0.81844 0.0
H931 H 0.05365 0.7082 0.7817 0.0
C932 C 0.01828 0.77894 0.79129 0.0
N933 N 0.02445 0.76179 0.78696 0.0
C934 C 0.0263 0.79437 0.78271 0.0
C935 C 0.04687 0.77411 0.76548 0.0
C936 C 0.03837 0.75913 0.77427 0.0
C937 C 0.04097 0.79208 0.76975 0.0
H938 H 0.00737 0.78068 0.80168 0.0
H939 H 0.04324 0.74535 0.77139 0.0
O940 O 0.00053 0.7013 0.82144 0.0
O941 O 0.99231 0.74312 0.81507 0.0
O942 O 0.0316 0.73098 0.82 0.0
O943 O 0.0101 0.71874 0.78337 0.0
H944 H 0.96612 0.69066 0.82722 0.0
H945 H 0.0216 0.68638 0.84834 0.0
H946 H 0.9558 0.67047 0.85376 0.0
H947 H 0.01031 0.66634 0.87456 0.0
H948 H 0.94953 0.78243 0.79083 0.0
H949 H 0.97016 0.74419 0.84518 0.0
H950 H 0.9786 0.76481 0.788 0.0
H951 H 0.94136 0.76239 0.84712 0.0
H952 H 0.98174 0.71933 0.89802 0.0
H953 H 0.02866 0.75531 0.89171 0.0
H954 H 0.9518 0.67997 0.75996 0.0
H955 H 0.92079 0.71219 0.80089 0.0
H956 H 0.06184 0.74005 0.80099 0.0
H957 H 0.04109 0.71158 0.85055 0.0
H958 H 0.09344 0.73061 0.81011 0.0
H959 H 0.07303 0.70252 0.85877 0.0
H960 H 0.03255 0.71162 0.7544 0.0
H961 H 0.98175 0.7379 0.7703 0.0
H962 H 0.02776 0.72216 0.72095 0.0
H963 H 0.97785 0.74806 0.73662 0.0
H964 H 0.05118 0.64603 0.81001 0.0
H965 H 0.07716 0.68552 0.77235 0.0
H966 H 0.02117 0.80792 0.78632 0.0
H967 H 0.05835 0.77162 0.75594 0.0
Li968 Li 0.77203 0.00785 0.33053 0.0
Li969 Li 0.77961 0.98873 0.30287 0.0
Li970 Li 0.7922 0.01986 0.30605 0.0
Li971 Li 0.75974 0.01459 0.29861 0.0
C972 C 0.81475 0.99892 0.32595 0.0
N973 N 0.85242 0.00108 0.33078 0.0
C974 C 0.82638 0.98709 0.31581 0.0
C975 C 0.82226 0.01178 0.33862 0.0
C976 C 0.84539 0.9884 0.31845 0.0
C977 C 0.84135 0.01269 0.34083 0.0
C978 C 0.74877 0.97525 0.31583 0.0
C979 C 0.73676 0.94794 0.30072 0.0
N980 N 0.73764 0.93896 0.3178 0.0
C981 C 0.74949 0.9658 0.33326 0.0
C982 C 0.74228 0.96631 0.29944 0.0
C983 C 0.74381 0.94744 0.33396 0.0
C984 C 0.74994 0.01248 0.36367 0.0
N985 N 0.76689 0.0075 0.35724 0.0
C986 C 0.77707 0.00164 0.3892 0.0
C987 C 0.78031 0.00195 0.3695 0.0
C988 C 0.75987 0.00719 0.3963 0.0
C989 C 0.74618 0.01266 0.3833 0.0
H990 H 0.73937 0.01636 0.35355 0.0
H991 H 0.79353 0.99771 0.36397 0.0
C992 C 0.78782 0.96001 0.27662 0.0
N993 N 0.78575 0.96438 0.29544 0.0
C994 C 0.7945 0.9427 0.27137 0.0
C995 C 0.79626 0.93462 0.30495 0.0
C996 C 0.78957 0.95206 0.30954 0.0
C997 C 0.7992 0.9299 0.28566 0.0
H998 H 0.78498 0.97019 0.26573 0.0
H999 H 0.78803 0.95605 0.32439 0.0
C1000 C 0.76409 0.04339 0.33118 0.0
N1001 N 0.75049 0.06537 0.36024 0.0
C1002 C 0.74559 0.04866 0.33118 0.0
C1003 C 0.7757 0.04939 0.34589 0.0
C1004 C 0.73898 0.05978 0.34601 0.0
C1005 C 0.76855 0.06045 0.36048 0.0
C1006 C 0.77656 0.01382 0.26537 0.0
C1007 C 0.78352 0.03038 0.25821 0.0
C1008 C 0.76378 0.00383 0.25461 0.0
C1009 C 0.77743 0.03676 0.24041 0.0
C1010 C 0.75801 0.0107 0.2369 0.0
N1011 N 0.76489 0.02688 0.23023 0.0
C1012 C 0.82726 0.02844 0.29082 0.0
C1013 C 0.81229 0.0531 0.30665 0.0
C1014 C 0.84227 0.03968 0.28647 0.0
N1015 N 0.81276 0.03526 0.30087 0.0
C1016 C 0.82689 0.06489 0.30244 0.0
C1017 C 0.84218 0.05825 0.29218 0.0
H1018 H 0.82709 0.01429 0.28605 0.0
H1019 H 0.8004 0.05829 0.31421 0.0
C1020 C 0.72333 0.0154 0.28338 0.0
N1021 N 0.73944 0.02475 0.28517 0.0
C1022 C 0.70837 0.02353 0.27408 0.0
C1023 C 0.72699 0.0506 0.26852 0.0
C1024 C 0.7415 0.04201 0.27803 0.0
C1025 C 0.7101 0.04139 0.26656 0.0
H1026 H 0.72204 0.00175 0.28938 0.0
H1027 H 0.75439 0.04921 0.27999 0.0
O1028 O 0.79611 0.99803 0.32337 0.0
O1029 O 0.75459 0.99311 0.31478 0.0
O1030 O 0.77078 0.03232 0.31693 0.0
O1031 O 0.78207 0.00753 0.28293 0.0
H1032 H 0.82084 0.97714 0.30584 0.0
H1033 H 0.81346 0.02109 0.34653 0.0
H1034 H 0.85456 0.97939 0.31064 0.0
H1035 H 0.84736 0.02265 0.35051 0.0
H1036 H 0.73183 0.9408 0.28812 0.0
H1037 H 0.75451 0.9725 0.34608 0.0
H1038 H 0.74174 0.97341 0.28582 0.0
H1039 H 0.74435 0.93992 0.34732 0.0
H1040 H 0.78797 0.99737 0.39881 0.0
H1041 H 0.73266 0.01677 0.38824 0.0
H1042 H 0.79682 0.93975 0.25635 0.0
H1043 H 0.79956 0.92512 0.3164 0.0
H1044 H 0.73638 0.04408 0.31998 0.0
H1045 H 0.79003 0.04538 0.34614 0.0
H1046 H 0.72468 0.0639 0.34624 0.0
H1047 H 0.77734 0.06509 0.37202 0.0
H1048 H 0.79337 0.03832 0.26637 0.0
H1049 H 0.75817 0.99105 0.26001 0.0
H1050 H 0.78262 0.0496 0.23473 0.0
H1051 H 0.74801 0.00319 0.22848 0.0
H1052 H 0.85378 0.03388 0.27869 0.0
H1053 H 0.82596 0.07917 0.30675 0.0
H1054 H 0.69559 0.01596 0.27281 0.0
H1055 H 0.7288 0.06449 0.26324 0.0
Li1056 Li 0.48313 0.74097 0.19837 0.0
Li1057 Li 0.47535 0.70856 0.19321 0.0
Li1058 Li 0.50745 0.71914 0.19379 0.0
Li1059 Li 0.48731 0.72651 0.16697 0.0
C1060 C 0.48509 0.72561 0.23261 0.0
N1061 N 0.47566 0.73933 0.26821 0.0
C1062 C 0.46875 0.72004 0.24143 0.0
C1063 C 0.49673 0.73801 0.24196 0.0
C1064 C 0.46421 0.72716 0.25943 0.0
C1065 C 0.49169 0.74484 0.25993 0.0
C1066 C 0.45308 0.73716 0.16734 0.0
C1067 C 0.4343 0.73267 0.13923 0.0
N1068 N 0.4322 0.75121 0.13767 0.0
C1069 C 0.4507 0.75617 0.1655 0.0
C1070 C 0.44477 0.72529 0.15416 0.0
C1071 C 0.44009 0.763 0.15039 0.0
C1072 C 0.48435 0.7786 0.21015 0.0
N1073 N 0.4748 0.76254 0.21102 0.0
C1074 C 0.45053 0.777 0.22849 0.0
C1075 C 0.45818 0.76148 0.21988 0.0
C1076 C 0.4599 0.79387 0.22761 0.0
C1077 C 0.47707 0.79457 0.21837 0.0
H1078 H 0.49739 0.7791 0.20271 0.0
H1079 H 0.45068 0.74863 0.21986 0.0
C1080 C 0.46461 0.67441 0.20989 0.0
N1081 N 0.45859 0.68976 0.20066 0.0
C1082 C 0.4521 0.66092 0.21569 0.0
C1083 C 0.42742 0.67966 0.20309 0.0
C1084 C 0.44041 0.69262 0.19724 0.0
C1085 C 0.43324 0.66358 0.21242 0.0
H1086 H 0.47911 0.67274 0.2129 0.0
H1087 H 0.43596 0.7051 0.19022 0.0
C1088 C 0.52183 0.74917 0.17878 0.0
N1089 N 0.55814 0.75978 0.17492 0.0
C1090 C 0.53063 0.74769 0.16103 0.0
C1091 C 0.53143 0.75617 0.19453 0.0
C1092 C 0.54901 0.7531 0.15938 0.0
C1093 C 0.5498 0.76141 0.1923 0.0
C1094 C 0.49398 0.68345 0.17391 0.0
C1095 C 0.50663 0.67194 0.18307 0.0
C1096 C 0.4793 0.67573 0.16374 0.0
C1097 C 0.50435 0.65288 0.18197 0.0
C1098 C 0.47747 0.65661 0.16301 0.0
N1099 N 0.48993 0.64567 0.17206 0.0
C1100 C 0.53612 0.70846 0.21886 0.0
C1101 C 0.54376 0.70831 0.18583 0.0
C1102 C 0.55305 0.70051 0.22348 0.0
N1103 N 0.53174 0.71189 0.20028 0.0
C1104 C 0.56089 0.70054 0.18979 0.0
C1105 C 0.56554 0.69603 0.20879 0.0
H1106 H 0.52614 0.71109 0.23002 0.0
H1107 H 0.53973 0.71077 0.17114 0.0
C1108 C 0.48573 0.74782 0.13311 0.0
N1109 N 0.4864 0.73036 0.14005 0.0
C1110 C 0.48509 0.75091 0.11336 0.0
C1111 C 0.48599 0.718 0.10835 0.0
C1112 C 0.48662 0.71556 0.12817 0.0
C1113 C 0.48525 0.73587 0.10069 0.0
H1114 H 0.48579 0.75934 0.14293 0.0
H1115 H 0.48736 0.70186 0.13405 0.0
O1116 O 0.48963 0.71904 0.21486 0.0
O1117 O 0.46379 0.73022 0.18174 0.0
O1118 O 0.50392 0.74375 0.18075 0.0
O1119 O 0.4959 0.70216 0.17492 0.0
H1120 H 0.45957 0.71046 0.2344 0.0
H1121 H 0.50944 0.74243 0.23534 0.0
H1122 H 0.45155 0.72306 0.26638 0.0
H1123 H 0.5005 0.75454 0.26728 0.0
H1124 H 0.42789 0.72366 0.12885 0.0
H1125 H 0.45713 0.76556 0.17549 0.0
H1126 H 0.44657 0.71056 0.15533 0.0
H1127 H 0.4382 0.77767 0.14873 0.0
H1128 H 0.4371 0.77597 0.23514 0.0
H1129 H 0.48468 0.80735 0.21737 0.0
H1130 H 0.45705 0.64878 0.22309 0.0
H1131 H 0.41296 0.68216 0.20032 0.0
H1132 H 0.52342 0.74224 0.14871 0.0
H1133 H 0.52481 0.75741 0.20835 0.0
H1134 H 0.55603 0.75195 0.14576 0.0
H1135 H 0.55744 0.76676 0.20438 0.0
H1136 H 0.51803 0.67762 0.19108 0.0
H1137 H 0.46925 0.68442 0.15675 0.0
H1138 H 0.51401 0.64381 0.18904 0.0
H1139 H 0.4661 0.65046 0.15532 0.0
H1140 H 0.55584 0.697 0.23827 0.0
H1141 H 0.57013 0.69754 0.17803 0.0
H1142 H 0.4848 0.76492 0.10808 0.0
H1143 H 0.48593 0.706 0.09915 0.0
Li1144 Li 0.7545 0.48336 0.69847 0.0
Li1145 Li 0.78583 0.47489 0.69182 0.0
Li1146 Li 0.77841 0.50666 0.69691 0.0
Li1147 Li 0.76866 0.49062 0.667 0.0
C1148 C 0.77503 0.47377 0.73021 0.0
N1149 N 0.77252 0.44832 0.75953 0.0
C1150 C 0.77058 0.45546 0.72618 0.0
C1151 C 0.77818 0.47913 0.74917 0.0
C1152 C 0.76939 0.4428 0.74119 0.0
C1153 C 0.77685 0.46606 0.76379 0.0
C1154 C 0.76328 0.45033 0.66834 0.0
C1155 C 0.77204 0.43244 0.64066 0.0
N1156 N 0.76281 0.41773 0.64792 0.0
C1157 C 0.75383 0.43504 0.67549 0.0
C1158 C 0.77243 0.44904 0.65075 0.0
C1159 C 0.75379 0.41868 0.66497 0.0
C1160 C 0.72043 0.46576 0.69889 0.0
N1161 N 0.73208 0.47576 0.70999 0.0
C1162 C 0.71239 0.47207 0.73715 0.0
C1163 C 0.72827 0.47927 0.72871 0.0
C1164 C 0.7004 0.46106 0.72623 0.0
C1165 C 0.70451 0.45817 0.70676 0.0
H1166 H 0.7238 0.46327 0.68401 0.0
H1167 H 0.73772 0.48736 0.73721 0.0
C1168 C 0.81712 0.46178 0.71113 0.0
N1169 N 0.80484 0.45711 0.69723 0.0
C1170 C 0.83102 0.44955 0.71654 0.0
C1171 C 0.81934 0.42781 0.69336 0.0
C1172 C 0.80585 0.44053 0.68824 0.0
C1173 C 0.83206 0.43222 0.70775 0.0
H1174 H 0.81597 0.47498 0.7182 0.0
H1175 H 0.79616 0.43694 0.67725 0.0
C1176 C 0.74192 0.51899 0.69304 0.0
N1177 N 0.718 0.54292 0.7111 0.0
C1178 C 0.72841 0.52817 0.68248 0.0
C1179 C 0.74327 0.52197 0.71279 0.0
C1180 C 0.71644 0.54022 0.69187 0.0
C1181 C 0.73105 0.53412 0.72165 0.0
C1182 C 0.81208 0.49299 0.67398 0.0
C1183 C 0.82474 0.50072 0.68673 0.0
C1184 C 0.81827 0.48144 0.65931 0.0
C1185 C 0.84341 0.49653 0.68475 0.0
C1186 C 0.83705 0.47757 0.65783 0.0
N1187 N 0.84912 0.48512 0.67048 0.0
C1188 C 0.79493 0.53003 0.72406 0.0
C1189 C 0.78596 0.54459 0.69511 0.0
C1190 C 0.80259 0.5464 0.73082 0.0
N1191 N 0.787 0.52943 0.70645 0.0
C1192 C 0.79348 0.56125 0.70128 0.0
C1193 C 0.80214 0.56224 0.71926 0.0
H1194 H 0.79574 0.51766 0.73262 0.0
H1195 H 0.77958 0.54362 0.68113 0.0
C1196 C 0.74913 0.4851 0.63272 0.0
N1197 N 0.76416 0.49334 0.64048 0.0
C1198 C 0.7461 0.4859 0.61298 0.0
C1199 C 0.7737 0.50426 0.60977 0.0
C1200 C 0.77631 0.50292 0.62956 0.0
C1201 C 0.75855 0.49548 0.60125 0.0
H1202 H 0.73971 0.4776 0.64184 0.0
H1203 H 0.78817 0.50928 0.63619 0.0
O1204 O 0.77617 0.48651 0.71579 0.0
O1205 O 0.76321 0.46653 0.67836 0.0
O1206 O 0.75367 0.50711 0.68401 0.0
O1207 O 0.79371 0.49658 0.67597 0.0
H1208 H 0.7681 0.45103 0.71166 0.0
H1209 H 0.78154 0.49326 0.75257 0.0
H1210 H 0.76597 0.42859 0.73825 0.0
H1211 H 0.77924 0.47003 0.77852 0.0
H1212 H 0.77911 0.43125 0.62706 0.0
H1213 H 0.74661 0.43576 0.68904 0.0
H1214 H 0.77992 0.46062 0.64503 0.0
H1215 H 0.74656 0.40673 0.67036 0.0
H1216 H 0.70965 0.47494 0.75211 0.0
H1217 H 0.69588 0.44959 0.6978 0.0
H1218 H 0.84051 0.45339 0.72782 0.0
H1219 H 0.81981 0.41462 0.68613 0.0
H1220 H 0.72719 0.52598 0.66718 0.0
H1221 H 0.75361 0.51498 0.72121 0.0
H1222 H 0.70592 0.54742 0.68388 0.0
H1223 H 0.73193 0.53655 0.73692 0.0
H1224 H 0.82019 0.50967 0.69816 0.0
H1225 H 0.80868 0.47546 0.64925 0.0
H1226 H 0.85335 0.50231 0.6946 0.0
H1227 H 0.84202 0.46857 0.64662 0.0
H1228 H 0.80939 0.54645 0.74463 0.0
H1229 H 0.79269 0.57318 0.692 0.0
H1230 H 0.73417 0.4791 0.60695 0.0
H1231 H 0.78368 0.51164 0.60118 0.0
Li1232 Li 0.02065 0.78902 0.19437 0.0
Li1233 Li 0.0109 0.75711 0.19899 0.0
Li1234 Li 0.00591 0.77278 0.16843 0.0
Li1235 Li 0.98814 0.78083 0.19704 0.0
C1236 C 0.04791 0.76947 0.18112 0.0
N1237 N 0.08524 0.77641 0.1831 0.0
C1238 C 0.05861 0.76111 0.19532 0.0
C1239 C 0.0562 0.78128 0.16788 0.0
C1240 C 0.07746 0.7648 0.19607 0.0
C1241 C 0.07509 0.78465 0.16915 0.0
C1242 C 0.9995 0.78442 0.23267 0.0
C1243 C 0.97724 0.781 0.25808 0.0
N1244 N 0.98125 0.79828 0.26428 0.0
C1245 C 0.00345 0.80212 0.23934 0.0
C1246 C 0.98635 0.77372 0.24216 0.0
C1247 C 0.99407 0.80888 0.25534 0.0
C1248 C 0.04024 0.82281 0.19163 0.0
N1249 N 0.03878 0.80664 0.20128 0.0
C1250 C 0.06333 0.81518 0.22222 0.0
C1251 C 0.04993 0.80265 0.21636 0.0
C1252 C 0.0652 0.83202 0.21253 0.0
C1253 C 0.05348 0.83575 0.19699 0.0
H1254 H 0.03101 0.82575 0.17989 0.0
H1255 H 0.04833 0.78972 0.22386 0.0
C1256 C 0.02571 0.72154 0.19826 0.0
N1257 N 0.01834 0.73444 0.21008 0.0
C1258 C 0.0333 0.70548 0.20583 0.0
C1259 C 0.02535 0.71618 0.23759 0.0
C1260 C 0.01786 0.73203 0.22939 0.0
C1261 C 0.03348 0.70278 0.22577 0.0
H1262 H 0.02627 0.72405 0.18299 0.0
H1263 H 0.01222 0.74266 0.23847 0.0
C1264 C 0.99476 0.80721 0.16266 0.0
N1265 N 0.98378 0.82537 0.1298 0.0
C1266 C 0.97618 0.81127 0.1597 0.0
C1267 C 0.00778 0.81248 0.14895 0.0
C1268 C 0.9709 0.82046 0.14299 0.0
C1269 C 0.00194 0.8216 0.13241 0.0
C1270 C 0.98411 0.73908 0.18286 0.0
C1271 C 0.98874 0.72826 0.16701 0.0
C1272 C 0.97595 0.73091 0.19888 0.0
C1273 C 0.98525 0.70936 0.16752 0.0
C1274 C 0.97271 0.71196 0.19885 0.0
N1275 N 0.9774 0.70167 0.18331 0.0
C1276 C 0.02053 0.76298 0.13249 0.0
C1277 C 0.98944 0.77288 0.13151 0.0
C1278 C 0.02057 0.76026 0.11269 0.0
N1279 N 0.00517 0.76935 0.14142 0.0
C1280 C 0.989 0.77072 0.11163 0.0
C1281 C 0.00471 0.76432 0.10204 0.0
H1282 H 0.03272 0.75993 0.14076 0.0
H1283 H 0.97727 0.77741 0.13906 0.0
C1284 C 0.96482 0.80741 0.21231 0.0
N1285 N 0.96521 0.78966 0.20623 0.0
C1286 C 0.94875 0.81483 0.21993 0.0
C1287 C 0.93344 0.7858 0.21416 0.0
C1288 C 0.94996 0.77883 0.20686 0.0
C1289 C 0.93281 0.80397 0.22099 0.0
H1290 H 0.9771 0.81576 0.21131 0.0
H1291 H 0.95065 0.7648 0.20176 0.0
O1292 O 0.02936 0.76639 0.18042 0.0
O1293 O 0.00825 0.77769 0.21679 0.0
O1294 O 0.00018 0.7981 0.17886 0.0
O1295 O 0.98776 0.75754 0.18279 0.0
H1296 H 0.05241 0.75205 0.20579 0.0
H1297 H 0.0481 0.78793 0.15687 0.0
H1298 H 0.0859 0.7585 0.20703 0.0
H1299 H 0.08167 0.79385 0.15907 0.0
H1300 H 0.96693 0.77293 0.26546 0.0
H1301 H 0.01347 0.81065 0.2321 0.0
H1302 H 0.98301 0.76005 0.2371 0.0
H1303 H 0.99692 0.8226 0.2606 0.0
H1304 H 0.0722 0.81166 0.23414 0.0
H1305 H 0.05428 0.84867 0.1893 0.0
H1306 H 0.0397 0.69568 0.19621 0.0
H1307 H 0.02508 0.71459 0.25302 0.0
H1308 H 0.9659 0.80725 0.1701 0.0
H1309 H 0.02219 0.8093 0.15092 0.0
H1310 H 0.95656 0.82363 0.14048 0.0
H1311 H 0.01184 0.82563 0.12162 0.0
H1312 H 0.99511 0.73436 0.15451 0.0
H1313 H 0.97235 0.73908 0.21128 0.0
H1314 H 0.98884 0.7008 0.1554 0.0
H1315 H 0.96652 0.70543 0.2112 0.0
H1316 H 0.03293 0.75527 0.10573 0.0
H1317 H 0.97645 0.77374 0.10387 0.0
H1318 H 0.94871 0.829 0.22475 0.0
H1319 H 0.92141 0.77703 0.21474 0.0
Li1320 Li 0.70837 0.02426 0.69304 0.0
Li1321 Li 0.74104 0.0151 0.69892 0.0
Li1322 Li 0.72572 0.00976 0.66722 0.0
Li1323 Li 0.71705 0.99285 0.69504 0.0
C1324 C 0.73592 0.05098 0.68615 0.0
N1325 N 0.74598 0.08568 0.69856 0.0
C1326 C 0.73467 0.05557 0.70558 0.0
C1327 C 0.74227 0.06407 0.67304 0.0
C1328 C 0.73984 0.07316 0.71157 0.0
C1329 C 0.74727 0.08154 0.6796 0.0
C1330 C 0.71699 0.00082 0.73136 0.0
C1331 C 0.72783 0.97653 0.75206 0.0
N1332 N 0.71188 0.97751 0.76221 0.0
C1333 C 0.70077 0.00169 0.7421 0.0
C1334 C 0.73068 0.98821 0.73644 0.0
C1335 C 0.69842 0.98975 0.7576 0.0
C1336 C 0.67387 0.03485 0.70723 0.0
N1337 N 0.68904 0.04144 0.69814 0.0
C1338 C 0.67547 0.07132 0.69591 0.0
C1339 C 0.6899 0.05921 0.69209 0.0
C1340 C 0.65978 0.06504 0.70571 0.0
C1341 C 0.65904 0.04647 0.71126 0.0
H1342 H 0.6732 0.02047 0.71114 0.0
H1343 H 0.70167 0.06405 0.68416 0.0
C1344 C 0.7767 0.02929 0.69842 0.0
N1345 N 0.76352 0.02261 0.71034 0.0
C1346 C 0.79265 0.03723 0.7059 0.0
C1347 C 0.7815 0.03051 0.73778 0.0
C1348 C 0.76562 0.02301 0.72968 0.0
C1349 C 0.79515 0.03814 0.72588 0.0
H1350 H 0.77446 0.02909 0.68309 0.0
H1351 H 0.75476 0.01804 0.73888 0.0
C1352 C 0.68819 0.01076 0.6629 0.0
N1353 N 0.66318 0.02429 0.6366 0.0
C1354 C 0.67228 0.00079 0.65859 0.0
C1355 C 0.69138 0.02763 0.65383 0.0
C1356 C 0.6598 0.00786 0.64525 0.0
C1357 C 0.67857 0.03422 0.64058 0.0
C1358 C 0.74869 0.97597 0.68107 0.0
C1359 C 0.74133 0.96342 0.66798 0.0
C1360 C 0.76352 0.9708 0.69263 0.0
C1361 C 0.74884 0.94576 0.66681 0.0
C1362 C 0.77065 0.95301 0.69102 0.0
N1363 N 0.76321 0.94096 0.67826 0.0
C1364 C 0.74052 0.02189 0.63209 0.0
C1365 C 0.72073 0.99603 0.6298 0.0
C1366 C 0.74294 0.02205 0.61223 0.0
N1367 N 0.7295 0.00906 0.64038 0.0
C1368 C 0.72294 0.99554 0.60994 0.0
C1369 C 0.73409 0.00874 0.60093 0.0
H1370 H 0.74737 0.03201 0.6409 0.0
H1371 H 0.71186 0.98615 0.63679 0.0
C1372 C 0.68841 0.97091 0.70616 0.0
N1373 N 0.70696 0.96999 0.70388 0.0
C1374 C 0.67875 0.9561 0.71384 0.0
C1375 C 0.70734 0.93927 0.71625 0.0
C1376 C 0.71654 0.95459 0.70879 0.0
C1377 C 0.68824 0.94007 0.71904 0.0
H1378 H 0.68117 0.98342 0.70244 0.0
H1379 H 0.73131 0.95428 0.70757 0.0
O1380 O 0.73122 0.03374 0.67993 0.0
O1381 O 0.71937 0.01202 0.71579 0.0
O1382 O 0.70044 0.00394 0.676 0.0
O1383 O 0.74169 0.99336 0.68235 0.0
H1384 H 0.72977 0.04569 0.71598 0.0
H1385 H 0.74328 0.06081 0.65795 0.0
H1386 H 0.73896 0.07687 0.72656 0.0
H1387 H 0.7522 0.0918 0.6696 0.0
H1388 H 0.73824 0.96661 0.75603 0.0
H1389 H 0.69011 0.01146 0.73852 0.0
H1390 H 0.74323 0.98722 0.72816 0.0
H1391 H 0.6859 0.99021 0.76598 0.0
H1392 H 0.67674 0.08552 0.6914 0.0
H1393 H 0.64706 0.04089 0.71843 0.0
H1394 H 0.80251 0.04322 0.6961 0.0
H1395 H 0.78286 0.03062 0.75324 0.0
H1396 H 0.66961 0.98772 0.66549 0.0
H1397 H 0.70358 0.03557 0.65693 0.0
H1398 H 0.64743 0.00028 0.64178 0.0
H1399 H 0.68087 0.04725 0.63346 0.0
H1400 H 0.72983 0.96721 0.65898 0.0
H1401 H 0.76943 0.98044 0.70274 0.0
H1402 H 0.74322 0.93585 0.65682 0.0
H1403 H 0.78209 0.94879 0.6999 0.0
H1404 H 0.75178 0.03235 0.6058 0.0
H1405 H 0.71575 0.98518 0.60167 0.0
H1406 H 0.66399 0.95718 0.71572 0.0
H1407 H 0.71512 0.92718 0.72036 0.0
C1408 C 0.39765 0.18894 0.21332 0.0
C1409 C 0.41181 0.19112 0.22685 0.0
C1410 C 0.38124 0.18017 0.21843 0.0
C1411 C 0.35352 0.16356 0.25965 0.0
H1412 H 0.34183 0.12283 0.22589 0.0
C1413 C 0.3166 0.0982 0.28541 0.0
C1414 C 0.30576 0.08811 0.27248 0.0
C1415 C 0.32575 0.11409 0.27943 0.0
C1416 C 0.34452 0.13437 0.2353 0.0
H1417 H 0.41945 0.18705 0.25657 0.0
H1418 H 0.39086 0.1717 0.26547 0.0
H1419 H 0.36458 0.1454 0.21607 0.0
H1420 H 0.29498 0.08739 0.24354 0.0
H1421 H 0.31069 0.11536 0.23313 0.0
H1422 H 0.33377 0.15222 0.27912 0.0
C1423 C 0.39238 0.17675 0.25095 0.0
C1424 C 0.35762 0.14732 0.22965 0.0
C1425 C 0.40882 0.18537 0.24582 0.0
C1426 C 0.30347 0.09477 0.25373 0.0
C1427 C 0.3125 0.11075 0.24778 0.0
C1428 C 0.3403 0.15065 0.26526 0.0
C1429 C 0.37863 0.17358 0.23718 0.0
C1430 C 0.36264 0.16176 0.24198 0.0
C1431 C 0.32418 0.12032 0.2604 0.0
C1432 C 0.33603 0.1356 0.25338 0.0
H1433 H 0.39961 0.19318 0.19858 0.0
H1434 H 0.37081 0.17804 0.20756 0.0
H1435 H 0.35695 0.17469 0.26933 0.0
H1436 H 0.31879 0.09328 0.29989 0.0
H1437 H 0.33482 0.12091 0.28949 0.0
C1438 C 0.30311 0.39758 0.73046 0.0
C1439 C 0.31234 0.41121 0.71982 0.0
C1440 C 0.31254 0.38199 0.73699 0.0
C1441 C 0.35463 0.35459 0.72877 0.0
H1442 H 0.35119 0.34237 0.78276 0.0
C1443 C 0.40195 0.3 0.76221 0.0
C1444 C 0.41112 0.306 0.77882 0.0
C1445 C 0.38664 0.30957 0.75528 0.0
C1446 C 0.35221 0.34555 0.76763 0.0
H1447 H 0.33884 0.41913 0.708 0.0
H1448 H 0.35502 0.39194 0.71899 0.0
H1449 H 0.33062 0.36559 0.76919 0.0
H1450 H 0.41099 0.32646 0.80149 0.0
H1451 H 0.38436 0.34304 0.78948 0.0
H1452 H 0.37675 0.33527 0.72732 0.0
C1453 C 0.34045 0.39315 0.72205 0.0
C1454 C 0.34032 0.35871 0.75983 0.0
C1455 C 0.33112 0.40875 0.7157 0.0
C1456 C 0.40412 0.32127 0.78882 0.0
C1457 C 0.38881 0.3308 0.78193 0.0
C1458 C 0.36643 0.3414 0.73653 0.0
C1459 C 0.33132 0.37965 0.73285 0.0
C1460 C 0.34181 0.36375 0.74045 0.0
C1461 C 0.38017 0.32533 0.76484 0.0
C1462 C 0.36571 0.33711 0.75616 0.0
H1463 H 0.2886 0.39891 0.73371 0.0
H1464 H 0.30515 0.37174 0.74523 0.0
H1465 H 0.35592 0.35806 0.71373 0.0
H1466 H 0.40681 0.2881 0.75435 0.0
H1467 H 0.38011 0.30488 0.74221 0.0
C1468 C 0.09393 0.32113 0.20021 0.0
C1469 C 0.08864 0.30711 0.21297 0.0
C1470 C 0.10857 0.3328 0.2046 0.0
C1471 C 0.14831 0.33991 0.23736 0.0
H1472 H 0.13797 0.39134 0.22722 0.0
C1473 C 0.1866 0.40121 0.27303 0.0
C1474 C 0.18913 0.41716 0.26196 0.0
C1475 C 0.17708 0.38611 0.26549 0.0
C1476 C 0.14127 0.37703 0.22986 0.0
H1477 H 0.09534 0.29381 0.23992 0.0
H1478 H 0.12052 0.31465 0.24791 0.0
H1479 H 0.11622 0.36806 0.21698 0.0
H1480 H 0.18514 0.42929 0.2339 0.0
H1481 H 0.16874 0.40293 0.22066 0.0
H1482 H 0.17322 0.34917 0.25078 0.0
C1483 C 0.11346 0.31644 0.23437 0.0
C1484 C 0.12878 0.36364 0.22397 0.0
C1485 C 0.09886 0.30463 0.2299 0.0
C1486 C 0.18307 0.41729 0.24285 0.0
C1487 C 0.17365 0.40222 0.2353 0.0
C1488 C 0.16085 0.35339 0.24334 0.0
C1489 C 0.11819 0.33094 0.22197 0.0
C1490 C 0.13209 0.34492 0.22766 0.0
C1491 C 0.16999 0.38672 0.24673 0.0
C1492 C 0.15742 0.37211 0.23967 0.0
H1493 H 0.08631 0.32367 0.18714 0.0
H1494 H 0.11206 0.34362 0.19455 0.0
H1495 H 0.15134 0.3256 0.24029 0.0
H1496 H 0.19105 0.40078 0.28784 0.0
H1497 H 0.1744 0.37441 0.27468 0.0
C1498 C 0.17828 0.09874 0.71001 0.0
C1499 C 0.18835 0.08728 0.72241 0.0
C1500 C 0.16945 0.11445 0.71693 0.0
C1501 C 0.15115 0.13346 0.76228 0.0
H1502 H 0.14008 0.17533 0.7298 0.0
C1503 C 0.10298 0.192 0.78679 0.0
C1504 C 0.08785 0.19435 0.77441 0.0
C1505 C 0.11843 0.18201 0.7809 0.0
C1506 C 0.14318 0.16377 0.73905 0.0
H1507 H 0.1978 0.08404 0.75173 0.0
H1508 H 0.18318 0.11191 0.76359 0.0
H1509 H 0.16221 0.15228 0.71897 0.0
H1510 H 0.07765 0.18853 0.74575 0.0
H1511 H 0.10481 0.17177 0.73539 0.0
H1512 H 0.13204 0.14502 0.7823 0.0
C1513 C 0.1816 0.10842 0.74859 0.0
C1514 C 0.15575 0.15048 0.73283 0.0
C1515 C 0.19023 0.09254 0.74171 0.0
C1516 C 0.08906 0.18734 0.75563 0.0
C1517 C 0.10463 0.17764 0.74967 0.0
C1518 C 0.13883 0.1469 0.76861 0.0
C1519 C 0.17069 0.11933 0.7364 0.0
C1520 C 0.15948 0.13485 0.74411 0.0
C1521 C 0.11924 0.17448 0.76239 0.0
C1522 C 0.13436 0.16191 0.75684 0.0
H1523 H 0.17685 0.09538 0.69496 0.0
H1524 H 0.16106 0.12232 0.70708 0.0
H1525 H 0.15338 0.12154 0.77128 0.0
H1526 H 0.10277 0.19753 0.8012 0.0
H1527 H 0.12962 0.17988 0.79092 0.0
C1528 C 0.58925 0.81092 0.76516 0.0
C1529 C 0.57782 0.81505 0.78086 0.0
C1530 C 0.60314 0.82315 0.75958 0.0
C1531 C 0.61311 0.8722 0.76067 0.0
H1532 H 0.66317 0.85874 0.74751 0.0
C1533 C 0.66605 0.92778 0.74309 0.0
C1534 C 0.67813 0.92454 0.72777 0.0
C1535 C 0.65536 0.91354 0.75051 0.0
C1536 C 0.64918 0.86268 0.75093 0.0
H1537 H 0.57226 0.83508 0.80321 0.0
H1538 H 0.59648 0.85625 0.79354 0.0
H1539 H 0.64167 0.83506 0.75861 0.0
H1540 H 0.68899 0.90385 0.70852 0.0
H1541 H 0.66986 0.8789 0.72112 0.0
H1542 H 0.62017 0.89959 0.75259 0.0
C1543 C 0.59469 0.84359 0.78555 0.0
C1544 C 0.63692 0.84913 0.75733 0.0
C1545 C 0.58095 0.83136 0.7912 0.0
C1546 C 0.67979 0.90664 0.72039 0.0
C1547 C 0.66888 0.89238 0.72766 0.0
C1548 C 0.62523 0.88566 0.75413 0.0
C1549 C 0.60568 0.8398 0.76947 0.0
C1550 C 0.61882 0.85384 0.76242 0.0
C1551 C 0.65628 0.89576 0.74259 0.0
C1552 C 0.64349 0.88114 0.74936 0.0
H1553 H 0.58722 0.7984 0.757 0.0
H1554 H 0.6114 0.81993 0.74709 0.0
H1555 H 0.59911 0.87615 0.76411 0.0
H1556 H 0.66478 0.94142 0.74924 0.0
H1557 H 0.64621 0.91655 0.76236 0.0
C1558 C 0.58754 0.67062 0.20073 0.0
C1559 C 0.5823 0.68501 0.21305 0.0
C1560 C 0.60176 0.65867 0.20578 0.0
C1561 C 0.64038 0.65091 0.23967 0.0
H1562 H 0.62732 0.59966 0.23223 0.0
C1563 C 0.68829 0.58902 0.25874 0.0
C1564 C 0.67956 0.57408 0.26778 0.0
C1565 C 0.67789 0.60369 0.25149 0.0
C1566 C 0.63116 0.6139 0.23445 0.0
H1567 H 0.58876 0.6988 0.23981 0.0
H1568 H 0.61328 0.67755 0.24888 0.0
H1569 H 0.60714 0.62358 0.22008 0.0
H1570 H 0.65323 0.56335 0.27727 0.0
H1571 H 0.63521 0.58873 0.26459 0.0
H1572 H 0.66422 0.64098 0.25462 0.0
C1573 C 0.60646 0.67564 0.23522 0.0
C1574 C 0.61971 0.62764 0.22727 0.0
C1575 C 0.59226 0.68768 0.23012 0.0
C1576 C 0.66034 0.5744 0.26994 0.0
C1577 C 0.65001 0.58896 0.26269 0.0
C1578 C 0.65193 0.63709 0.24684 0.0
C1579 C 0.611 0.66069 0.22333 0.0
C1580 C 0.62407 0.6463 0.22993 0.0
C1581 C 0.65861 0.60363 0.25313 0.0
C1582 C 0.64725 0.61844 0.24455 0.0
H1583 H 0.58011 0.66797 0.18756 0.0
H1584 H 0.60513 0.64746 0.19616 0.0
H1585 H 0.64416 0.66517 0.24184 0.0
H1586 H 0.70307 0.58914 0.25681 0.0
H1587 H 0.68488 0.6148 0.24413 0.0
C1588 C 0.90396 0.67944 0.7871 0.0
C1589 C 0.91677 0.6854 0.77334 0.0
C1590 C 0.88879 0.66883 0.7817 0.0
C1591 C 0.86114 0.65351 0.73988 0.0
H1592 H 0.85271 0.61017 0.7711 0.0
C1593 C 0.82253 0.58932 0.71256 0.0
C1594 C 0.81163 0.57931 0.72553 0.0
C1595 C 0.83285 0.60439 0.71878 0.0
C1596 C 0.85461 0.62237 0.7624 0.0
H1597 H 0.92317 0.6857 0.74298 0.0
H1598 H 0.89691 0.66687 0.73358 0.0
H1599 H 0.87522 0.63289 0.78128 0.0
H1600 H 0.80225 0.57787 0.75499 0.0
H1601 H 0.82024 0.60424 0.76588 0.0
H1602 H 0.84077 0.64268 0.72076 0.0
C1603 C 0.8985 0.67051 0.74855 0.0
C1604 C 0.86754 0.63541 0.76824 0.0
C1605 C 0.91368 0.68112 0.75395 0.0
C1606 C 0.81076 0.58512 0.74472 0.0
C1607 C 0.82106 0.60022 0.75095 0.0
C1608 C 0.84817 0.64044 0.73403 0.0
C1609 C 0.88609 0.66393 0.76241 0.0
C1610 C 0.87115 0.651 0.75692 0.0
C1611 C 0.8325 0.60981 0.73813 0.0
C1612 C 0.84496 0.62459 0.74509 0.0
H1613 H 0.906 0.68235 0.80218 0.0
H1614 H 0.87935 0.66417 0.79269 0.0
H1615 H 0.86342 0.66551 0.73098 0.0
H1616 H 0.82371 0.58506 0.69773 0.0
H1617 H 0.84171 0.61131 0.70858 0.0
C1618 C 0.8033 0.90221 0.26439 0.0
C1619 C 0.80865 0.91245 0.28055 0.0
C1620 C 0.81337 0.88673 0.25871 0.0
C1621 C 0.84977 0.85412 0.27506 0.0
H1622 H 0.86194 0.85166 0.22099 0.0
C1623 C 0.91625 0.8218 0.24627 0.0
C1624 C 0.91568 0.81181 0.22906 0.0
C1625 C 0.90051 0.83057 0.25317 0.0
C1626 C 0.85841 0.85191 0.23608 0.0
H1627 H 0.82867 0.91433 0.30353 0.0
H1628 H 0.84623 0.88757 0.29364 0.0
H1629 H 0.83887 0.87355 0.23201 0.0
H1630 H 0.89815 0.80267 0.20581 0.0
H1631 H 0.87052 0.81822 0.21784 0.0
H1632 H 0.87 0.83305 0.27916 0.0
C1633 C 0.83403 0.89117 0.28554 0.0
C1634 C 0.84516 0.86445 0.24241 0.0
C1635 C 0.82396 0.90657 0.29122 0.0
C1636 C 0.89891 0.81025 0.21916 0.0
C1637 C 0.88317 0.81922 0.22597 0.0
C1638 C 0.8631 0.84167 0.26874 0.0
C1639 C 0.82905 0.88121 0.26906 0.0
C1640 C 0.84105 0.86606 0.26205 0.0
C1641 C 0.88389 0.82967 0.24291 0.0
C1642 C 0.86789 0.84078 0.24925 0.0
H1643 H 0.79143 0.90628 0.25601 0.0
H1644 H 0.80903 0.87922 0.24609 0.0
H1645 H 0.84665 0.85473 0.29023 0.0
H1646 H 0.92897 0.82307 0.25426 0.0
H1647 H 0.90155 0.83868 0.26616 0.0
C1648 C 0.54642 0.32254 0.23626 0.0
C1649 C 0.5516 0.30418 0.23961 0.0
C1650 C 0.55688 0.33703 0.2437 0.0
C1651 C 0.59287 0.34782 0.27983 0.0
H1652 H 0.60292 0.38941 0.24662 0.0
C1653 C 0.65241 0.39863 0.29322 0.0
C1654 C 0.64916 0.41744 0.28991 0.0
C1655 C 0.63916 0.3855 0.2884 0.0
C1656 C 0.60004 0.37802 0.25617 0.0
H1657 H 0.57186 0.28665 0.2533 0.0
H1658 H 0.59015 0.31185 0.26611 0.0
H1659 H 0.58211 0.36524 0.23583 0.0
H1660 H 0.62915 0.4372 0.27945 0.0
H1661 H 0.60611 0.41421 0.27082 0.0
H1662 H 0.61118 0.36043 0.29997 0.0
C1663 C 0.5778 0.3151 0.2581 0.0
C1664 C 0.58808 0.36417 0.25001 0.0
C1665 C 0.56732 0.30063 0.25074 0.0
C1666 C 0.63223 0.42281 0.28189 0.0
C1667 C 0.61901 0.40966 0.27698 0.0
C1668 C 0.60488 0.36162 0.28595 0.0
C1669 C 0.57279 0.33348 0.25458 0.0
C1670 C 0.58452 0.34879 0.26167 0.0
C1671 C 0.62239 0.39085 0.28008 0.0
C1672 C 0.60876 0.37677 0.27411 0.0
H1673 H 0.53425 0.3257 0.22793 0.0
H1674 H 0.55248 0.35102 0.24095 0.0
H1675 H 0.59017 0.33633 0.28932 0.0
H1676 H 0.6654 0.39398 0.29907 0.0
H1677 H 0.64228 0.3711 0.2907 0.0
C1678 C 0.18042 0.55881 0.72253 0.0
C1679 C 0.19138 0.54909 0.73568 0.0
C1680 C 0.16639 0.57039 0.72892 0.0
C1681 C 0.13623 0.58078 0.76988 0.0
H1682 H 0.13355 0.6291 0.74646 0.0
C1683 C 0.08834 0.63852 0.7983 0.0
C1684 C 0.07981 0.64985 0.78461 0.0
C1685 C 0.10168 0.6257 0.79274 0.0
C1686 C 0.13392 0.61558 0.75298 0.0
H1687 H 0.19583 0.54348 0.76584 0.0
H1688 H 0.17123 0.56382 0.77705 0.0
H1689 H 0.15701 0.60745 0.73598 0.0
H1690 H 0.07804 0.65616 0.7543 0.0
H1691 H 0.10105 0.63369 0.74455 0.0
H1692 H 0.11299 0.58888 0.78677 0.0
C1693 C 0.17354 0.56241 0.76178 0.0
C1694 C 0.1474 0.60319 0.74699 0.0
C1695 C 0.1877 0.55089 0.75538 0.0
C1696 C 0.08463 0.64786 0.76522 0.0
C1697 C 0.09785 0.635 0.75965 0.0
C1698 C 0.12263 0.59317 0.77581 0.0
C1699 C 0.16292 0.57249 0.74861 0.0
C1700 C 0.14866 0.58562 0.75529 0.0
C1701 C 0.10669 0.62388 0.77335 0.0
C1702 C 0.12126 0.6107 0.76736 0.0
H1703 H 0.18303 0.5579 0.70727 0.0
H1704 H 0.1583 0.57782 0.71842 0.0
H1705 H 0.13679 0.56728 0.77643 0.0
H1706 H 0.08501 0.63986 0.81338 0.0
H1707 H 0.10836 0.61752 0.80369 0.0
C1708 C 0.86619 0.06929 0.2689 0.0
C1709 C 0.85753 0.07082 0.28686 0.0
C1710 C 0.87987 0.08174 0.26345 0.0
C1711 C 0.91133 0.11802 0.28223 0.0
H1712 H 0.90974 0.13529 0.22966 0.0
C1713 C 0.94612 0.18507 0.25577 0.0
C1714 C 0.95489 0.18458 0.23781 0.0
C1715 C 0.93628 0.16982 0.26241 0.0
C1716 C 0.91054 0.13043 0.24431 0.0
H1717 H 0.85709 0.08631 0.31347 0.0
H1718 H 0.88034 0.10844 0.30365 0.0
H1719 H 0.88867 0.11127 0.23997 0.0
H1720 H 0.96055 0.1676 0.21293 0.0
H1721 H 0.94337 0.14097 0.22456 0.0
H1722 H 0.93285 0.13778 0.2866 0.0
C1723 C 0.87678 0.09743 0.29387 0.0
C1724 C 0.89848 0.1166 0.25024 0.0
C1725 C 0.86322 0.08488 0.2994 0.0
C1726 C 0.95406 0.16835 0.22689 0.0
C1727 C 0.94409 0.15317 0.23346 0.0
C1728 C 0.92329 0.132 0.27632 0.0
C1729 C 0.88513 0.09616 0.27572 0.0
C1730 C 0.89864 0.11028 0.2693 0.0
C1731 C 0.93488 0.15385 0.25116 0.0
C1732 C 0.92295 0.13839 0.25732 0.0
H1733 H 0.86208 0.05878 0.25877 0.0
H1734 H 0.88619 0.08014 0.24949 0.0
H1735 H 0.91205 0.1133 0.29693 0.0
H1736 H 0.94666 0.19735 0.26455 0.0
H1737 H 0.92923 0.17078 0.27606 0.0
C1738 C 0.31227 0.95196 0.75258 0.0
C1739 C 0.30943 0.95399 0.73276 0.0
C1740 C 0.3271 0.94167 0.75949 0.0
C1741 C 0.37193 0.92134 0.7456 0.0
H1742 H 0.3609 0.88609 0.78571 0.0
C1743 C 0.4192 0.85973 0.763 0.0
C1744 C 0.421 0.85432 0.78224 0.0
C1745 C 0.40676 0.87352 0.75782 0.0
C1746 C 0.36433 0.89606 0.77473 0.0
H1747 H 0.32017 0.94699 0.70466 0.0
H1748 H 0.34604 0.92914 0.7167 0.0
H1749 H 0.33725 0.90757 0.77524 0.0
H1750 H 0.41168 0.85962 0.81125 0.0
H1751 H 0.39002 0.88376 0.80225 0.0
H1752 H 0.39896 0.90964 0.74492 0.0
C1753 C 0.33693 0.93569 0.72692 0.0
C1754 C 0.35075 0.90838 0.76873 0.0
C1755 C 0.32209 0.94595 0.72001 0.0
C1756 C 0.41038 0.86328 0.79626 0.0
C1757 C 0.39797 0.8771 0.7911 0.0
C1758 C 0.38554 0.90904 0.75163 0.0
C1759 C 0.33945 0.9332 0.74672 0.0
C1760 C 0.35433 0.92103 0.75395 0.0
C1761 C 0.39586 0.88225 0.77179 0.0
C1762 C 0.38183 0.89611 0.76613 0.0
H1763 H 0.30295 0.95823 0.76279 0.0
H1764 H 0.32884 0.94024 0.77484 0.0
H1765 H 0.37519 0.9311 0.73436 0.0
H1766 H 0.42702 0.85294 0.75183 0.0
H1767 H 0.40528 0.87695 0.74279 0.0
C1768 C 0.55595 0.19283 0.74344 0.0
C1769 C 0.54762 0.19116 0.76152 0.0
C1770 C 0.56583 0.17816 0.73561 0.0
C1771 C 0.57538 0.12798 0.74112 0.0
H1772 H 0.62113 0.14095 0.71587 0.0
C1773 C 0.63531 0.07689 0.72803 0.0
C1774 C 0.64448 0.07791 0.7103 0.0
C1775 C 0.62174 0.08973 0.73282 0.0
C1776 C 0.60828 0.1371 0.72266 0.0
H1777 H 0.54271 0.17278 0.78541 0.0
H1778 H 0.56034 0.14727 0.77201 0.0
H1779 H 0.6006 0.16515 0.72686 0.0
H1780 H 0.64582 0.09273 0.68331 0.0
H1781 H 0.62242 0.11532 0.69187 0.0
H1782 H 0.58357 0.09984 0.73743 0.0
C1783 C 0.55894 0.15974 0.76363 0.0
C1784 C 0.59645 0.15098 0.72892 0.0
C1785 C 0.54888 0.17436 0.77136 0.0
C1786 C 0.63936 0.09177 0.69727 0.0
C1787 C 0.6259 0.10468 0.70212 0.0
C1788 C 0.58734 0.11407 0.735 0.0
C1789 C 0.56781 0.16156 0.74579 0.0
C1790 C 0.57988 0.14663 0.73831 0.0
C1791 C 0.61713 0.10394 0.72004 0.0
C1792 C 0.60395 0.11851 0.72579 0.0
H1793 H 0.55497 0.20557 0.73544 0.0
H1794 H 0.57209 0.17992 0.72164 0.0
H1795 H 0.56262 0.1241 0.74804 0.0
H1796 H 0.63903 0.06655 0.73851 0.0
H1797 H 0.61533 0.08894 0.74682 0.0
C1798 C 0.40432 0.65582 0.22994 0.0
C1799 C 0.41956 0.64998 0.21921 0.0
C1800 C 0.39119 0.64316 0.23618 0.0
C1801 C 0.38302 0.59303 0.24337 0.0
H1802 H 0.33214 0.60899 0.24564 0.0
C1803 C 0.31998 0.54516 0.25806 0.0
C1804 C 0.3082 0.55147 0.27263 0.0
C1805 C 0.33425 0.55635 0.2513 0.0
C1806 C 0.34631 0.60439 0.24512 0.0
H1807 H 0.43312 0.62641 0.20653 0.0
H1808 H 0.40982 0.60425 0.21683 0.0
H1809 H 0.35557 0.63001 0.23377 0.0
H1810 H 0.30197 0.57437 0.29145 0.0
H1811 H 0.32667 0.59401 0.27941 0.0
H1812 H 0.37338 0.56714 0.25432 0.0
C1813 C 0.4082 0.61854 0.22089 0.0
C1814 C 0.35979 0.61645 0.23844 0.0
C1815 C 0.42152 0.63121 0.2149 0.0
C1816 C 0.31097 0.56911 0.28035 0.0
C1817 C 0.32499 0.58038 0.27338 0.0
C1818 C 0.36943 0.58084 0.24978 0.0
C1819 C 0.3928 0.62437 0.23154 0.0
C1820 C 0.37839 0.61106 0.23777 0.0
C1821 C 0.33668 0.57415 0.25873 0.0
C1822 C 0.35102 0.58653 0.25097 0.0
H1823 H 0.40267 0.67019 0.23371 0.0
H1824 H 0.37983 0.64815 0.24478 0.0
H1825 H 0.39719 0.58843 0.24328 0.0
H1826 H 0.31812 0.53159 0.25192 0.0
H1827 H 0.34308 0.5513 0.23995 0.0
C1828 C 0.8645 0.42326 0.71596 0.0
C1829 C 0.84587 0.41848 0.71397 0.0
C1830 C 0.87747 0.41002 0.72145 0.0
C1831 C 0.8835 0.35919 0.725 0.0
H1832 H 0.92364 0.37177 0.75923 0.0
C1833 C 0.92382 0.30515 0.76758 0.0
C1834 C 0.94314 0.3056 0.7661 0.0
C1835 C 0.91315 0.31952 0.76041 0.0
C1836 C 0.91259 0.36816 0.74951 0.0
H1837 H 0.82605 0.3964 0.71681 0.0
H1838 H 0.8484 0.3735 0.72695 0.0
H1839 H 0.90251 0.39581 0.74836 0.0
H1840 H 0.9663 0.32194 0.75623 0.0
H1841 H 0.94749 0.34744 0.7443 0.0
H1842 H 0.89318 0.33143 0.72683 0.0
C1843 C 0.85325 0.38723 0.72362 0.0
C1844 C 0.90051 0.3819 0.74322 0.0
C1845 C 0.84039 0.40036 0.71791 0.0
C1846 C 0.9515 0.32116 0.75778 0.0
C1847 C 0.94076 0.33573 0.75087 0.0
C1848 C 0.89538 0.34547 0.73151 0.0
C1849 C 0.872 0.3918 0.72529 0.0
C1850 C 0.88564 0.37753 0.7311 0.0
C1851 C 0.92149 0.33488 0.7519 0.0
C1852 C 0.90988 0.34978 0.744 0.0
H1853 H 0.86908 0.43714 0.71289 0.0
H1854 H 0.89179 0.41402 0.72238 0.0
H1855 H 0.87256 0.35536 0.71526 0.0
H1856 H 0.91686 0.29372 0.7744 0.0
H1857 H 0.89831 0.31871 0.76168 0.0
C1858 C 0.0896 0.85549 0.20522 0.0
C1859 C 0.07915 0.84569 0.21876 0.0
C1860 C 0.10287 0.86819 0.21116 0.0
C1861 C 0.13178 0.88023 0.25278 0.0
H1862 H 0.1379 0.92677 0.22634 0.0
C1863 C 0.17992 0.9366 0.28161 0.0
C1864 C 0.1914 0.94539 0.26822 0.0
C1865 C 0.1656 0.92522 0.27549 0.0
C1866 C 0.13646 0.91376 0.23376 0.0
H1867 H 0.07409 0.84194 0.24915 0.0
H1868 H 0.0972 0.86408 0.25951 0.0
H1869 H 0.11413 0.90529 0.21577 0.0
H1870 H 0.19646 0.94957 0.23789 0.0
H1871 H 0.17158 0.92946 0.2272 0.0
H1872 H 0.1541 0.88862 0.27073 0.0
C1873 C 0.09539 0.86171 0.2443 0.0
C1874 C 0.12286 0.90145 0.2277 0.0
C1875 C 0.08215 0.84901 0.23836 0.0
C1876 C 0.18797 0.94285 0.24856 0.0
C1877 C 0.17361 0.93147 0.24244 0.0
C1878 C 0.14534 0.89252 0.25885 0.0
C1879 C 0.10597 0.87138 0.23077 0.0
C1880 C 0.12036 0.88454 0.23716 0.0
C1881 C 0.16241 0.92235 0.25585 0.0
C1882 C 0.14783 0.90944 0.24943 0.0
H1883 H 0.08777 0.85308 0.19001 0.0
H1884 H 0.11097 0.87524 0.20038 0.0
H1885 H 0.13045 0.86718 0.26016 0.0
H1886 H 0.1823 0.9381 0.29686 0.0
H1887 H 0.15707 0.91857 0.28618 0.0
C1888 C 0.36438 0.56974 0.72626 0.0
C1889 C 0.35236 0.57297 0.71085 0.0
C1890 C 0.37746 0.58291 0.73149 0.0
C1891 C 0.40168 0.62468 0.71424 0.0
H1892 H 0.40739 0.63469 0.76851 0.0
C1893 C 0.43559 0.69076 0.74373 0.0
C1894 C 0.44654 0.68932 0.76027 0.0
C1895 C 0.42601 0.67549 0.73677 0.0
C1896 C 0.4062 0.63188 0.75332 0.0
H1897 H 0.34473 0.59251 0.68874 0.0
H1898 H 0.36748 0.61554 0.69793 0.0
H1899 H 0.38699 0.61009 0.75812 0.0
H1900 H 0.45641 0.67061 0.78219 0.0
H1901 H 0.43984 0.64387 0.7699 0.0
H1902 H 0.42065 0.64678 0.70948 0.0
C1903 C 0.367 0.6027 0.70579 0.0
C1904 C 0.39449 0.61776 0.74735 0.0
C1905 C 0.35394 0.58951 0.70054 0.0
C1906 C 0.44818 0.67213 0.76934 0.0
C1907 C 0.43854 0.65687 0.76242 0.0
C1908 C 0.41337 0.63884 0.72021 0.0
C1909 C 0.3788 0.59963 0.72146 0.0
C1910 C 0.39196 0.61409 0.72773 0.0
C1911 C 0.42712 0.65845 0.74623 0.0
C1912 C 0.41565 0.64269 0.73982 0.0
H1913 H 0.36371 0.557 0.73429 0.0
H1914 H 0.38654 0.57997 0.74341 0.0
H1915 H 0.40026 0.62202 0.69903 0.0
H1916 H 0.43421 0.70378 0.73631 0.0
H1917 H 0.41723 0.67721 0.72436 0.0
C1918 C 0.91498 0.34104 0.23706 0.0
C1919 C 0.92272 0.34258 0.21866 0.0
C1920 C 0.90162 0.3535 0.24326 0.0
C1921 C 0.88274 0.39982 0.23408 0.0
H1922 H 0.84058 0.38111 0.26205 0.0
C1923 C 0.81899 0.44443 0.25246 0.0
C1924 C 0.81096 0.44189 0.27061 0.0
C1925 C 0.83314 0.43287 0.24617 0.0
C1926 C 0.85238 0.3866 0.25447 0.0
H1927 H 0.92239 0.35844 0.19231 0.0
H1928 H 0.89905 0.38024 0.20319 0.0
H1929 H 0.86413 0.35984 0.25084 0.0
H1930 H 0.81161 0.42522 0.29641 0.0
H1931 H 0.83651 0.40536 0.28562 0.0
H1932 H 0.87092 0.4266 0.23773 0.0
C1933 C 0.9035 0.36949 0.21289 0.0
C1934 C 0.86587 0.3744 0.24803 0.0
C1935 C 0.91687 0.357 0.20666 0.0
C1936 C 0.81763 0.42772 0.28245 0.0
C1937 C 0.83174 0.41617 0.27615 0.0
C1938 C 0.86922 0.41204 0.24055 0.0
C1939 C 0.89567 0.36783 0.23124 0.0
C1940 C 0.88124 0.38086 0.23782 0.0
C1941 C 0.83953 0.41847 0.25786 0.0
C1942 C 0.85392 0.40557 0.25088 0.0
H1943 H 0.91942 0.33032 0.2468 0.0
H1944 H 0.8961 0.35203 0.25761 0.0
H1945 H 0.89452 0.40525 0.22646 0.0
H1946 H 0.81426 0.45531 0.24306 0.0
H1947 H 0.83876 0.43493 0.23195 0.0
C1948 C 0.05404 0.82403 0.7726 0.0
C1949 C 0.05074 0.80823 0.76145 0.0
C1950 C 0.0645 0.83858 0.76533 0.0
C1951 C 0.10126 0.84779 0.73109 0.0
H1952 H 0.08775 0.89899 0.7378 0.0
C1953 C 0.14601 0.90628 0.70039 0.0
C1954 C 0.14815 0.92221 0.71161 0.0
C1955 C 0.1331 0.89286 0.70539 0.0
C1956 C 0.09185 0.88477 0.73601 0.0
H1957 H 0.05516 0.79585 0.73349 0.0
H1958 H 0.07376 0.82109 0.72102 0.0
H1959 H 0.0668 0.87484 0.74853 0.0
H1960 H 0.13801 0.93662 0.73675 0.0
H1961 H 0.11615 0.9129 0.74592 0.0
H1962 H 0.12652 0.85753 0.71918 0.0
C1963 C 0.06835 0.82208 0.73546 0.0
C1964 C 0.07979 0.87096 0.74208 0.0
C1965 C 0.05774 0.80761 0.74264 0.0
C1966 C 0.13696 0.92441 0.72791 0.0
C1967 C 0.12418 0.91091 0.73301 0.0
C1968 C 0.1134 0.86157 0.72521 0.0
C1969 C 0.07203 0.83761 0.74681 0.0
C1970 C 0.08441 0.85233 0.73973 0.0
C1971 C 0.12212 0.89491 0.72186 0.0
C1972 C 0.1089 0.88026 0.72764 0.0
H1973 H 0.04913 0.82491 0.78723 0.0
H1974 H 0.06727 0.85031 0.77447 0.0
H1975 H 0.1053 0.83353 0.72936 0.0
H1976 H 0.15451 0.90397 0.68787 0.0
H1977 H 0.13174 0.88086 0.69629 0.0
C1978 C 0.59332 0.14419 0.19819 0.0
C1979 C 0.57752 0.14528 0.20976 0.0
C1980 C 0.60719 0.13149 0.20234 0.0
C1981 C 0.61695 0.08864 0.22906 0.0
H1982 H 0.66719 0.10658 0.22879 0.0
C1983 C 0.67671 0.05008 0.26598 0.0
C1984 C 0.69422 0.0508 0.25747 0.0
C1985 C 0.66211 0.06022 0.25835 0.0
C1986 C 0.65329 0.10122 0.22862 0.0
H1987 H 0.56361 0.13352 0.23438 0.0
H1988 H 0.58792 0.11147 0.24175 0.0
H1989 H 0.64235 0.12682 0.21868 0.0
H1990 H 0.70994 0.06196 0.23376 0.0
H1991 H 0.68441 0.0795 0.22029 0.0
H1992 H 0.62789 0.06307 0.23917 0.0
C1993 C 0.58954 0.12037 0.22941 0.0
C1994 C 0.63904 0.11285 0.22285 0.0
C1995 C 0.57571 0.13313 0.22532 0.0
C1996 C 0.69667 0.06137 0.2408 0.0
C1997 C 0.68205 0.07144 0.23312 0.0
C1998 C 0.63122 0.07697 0.23477 0.0
C1999 C 0.60552 0.11954 0.21809 0.0
C2000 C 0.62069 0.10676 0.22318 0.0
C2001 C 0.66467 0.07125 0.24199 0.0
C2002 C 0.64955 0.08318 0.2348 0.0
H2003 H 0.59518 0.15347 0.18619 0.0
H2004 H 0.61927 0.13106 0.19325 0.0
H2005 H 0.60297 0.08348 0.22922 0.0
H2006 H 0.67445 0.04224 0.27897 0.0
H2007 H 0.64898 0.05994 0.2657 0.0
C2008 C 0.45026 0.82676 0.22401 0.0
C2009 C 0.45114 0.81075 0.23526 0.0
C2010 C 0.44025 0.84204 0.23029 0.0
C2011 C 0.41975 0.86419 0.27265 0.0
H2012 H 0.38414 0.88327 0.23635 0.0
C2013 C 0.36045 0.91248 0.29549 0.0
C2014 C 0.35446 0.92591 0.28244 0.0
C2015 C 0.37367 0.8995 0.29007 0.0
C2016 C 0.39422 0.8784 0.2466 0.0
H2017 H 0.44301 0.79845 0.26226 0.0
H2018 H 0.42562 0.82524 0.27333 0.0
H2019 H 0.40531 0.85915 0.22646 0.0
H2020 H 0.35808 0.93682 0.2538 0.0
H2021 H 0.38152 0.91456 0.24446 0.0
H2022 H 0.40878 0.88351 0.29279 0.0
C2023 C 0.43262 0.82594 0.25964 0.0
C2024 C 0.40633 0.86452 0.24091 0.0
C2025 C 0.44245 0.81059 0.25326 0.0
C2026 C 0.36228 0.92643 0.26404 0.0
C2027 C 0.37565 0.91362 0.25869 0.0
C2028 C 0.40777 0.87825 0.2783 0.0
C2029 C 0.43111 0.84167 0.24804 0.0
C2030 C 0.4191 0.85717 0.25391 0.0
C2031 C 0.38134 0.89981 0.27154 0.0
C2032 C 0.39472 0.88543 0.26539 0.0
H2033 H 0.4567 0.82722 0.21001 0.0
H2034 H 0.43942 0.85405 0.22114 0.0
H2035 H 0.42957 0.85885 0.28292 0.0
H2036 H 0.35452 0.91168 0.30971 0.0
H2037 H 0.37747 0.88893 0.30026 0.0
C2038 C 0.66783 0.44932 0.72485 0.0
C2039 C 0.68425 0.45185 0.73521 0.0
C2040 C 0.6533 0.43918 0.73264 0.0
C2041 C 0.64431 0.40351 0.76931 0.0
H2042 H 0.59322 0.41437 0.75792 0.0
C2043 C 0.58474 0.36087 0.80099 0.0
C2044 C 0.57148 0.35479 0.78772 0.0
C2045 C 0.59765 0.37423 0.79585 0.0
C2046 C 0.60744 0.41116 0.76116 0.0
H2047 H 0.69792 0.44609 0.76222 0.0
H2048 H 0.67235 0.42914 0.77607 0.0
H2049 H 0.61728 0.43541 0.74708 0.0
H2050 H 0.56131 0.35831 0.75869 0.0
H2051 H 0.58366 0.38186 0.74989 0.0
H2052 H 0.63444 0.37929 0.78341 0.0
C2053 C 0.67086 0.4346 0.76171 0.0
C2054 C 0.62124 0.42317 0.75491 0.0
C2055 C 0.68546 0.44459 0.75386 0.0
C2056 C 0.57113 0.36282 0.76937 0.0
C2057 C 0.58396 0.37631 0.7643 0.0
C2058 C 0.63052 0.39162 0.7757 0.0
C2059 C 0.65473 0.43145 0.75106 0.0
C2060 C 0.63988 0.41938 0.75872 0.0
C2061 C 0.59751 0.38195 0.7774 0.0
C2062 C 0.61196 0.39521 0.77152 0.0
H2063 H 0.66627 0.45496 0.71058 0.0
H2064 H 0.64117 0.43693 0.72393 0.0
H2065 H 0.6585 0.39992 0.7722 0.0
H2066 H 0.58519 0.35528 0.81537 0.0
H2067 H 0.60779 0.37851 0.80632 0.0
C2068 C 0.13039 0.57098 0.26972 0.0
C2069 C 0.1431 0.57535 0.2842 0.0
C2070 C 0.11687 0.58361 0.26429 0.0
C2071 C 0.09242 0.62551 0.28043 0.0
H2072 H 0.08391 0.63293 0.2261 0.0
C2073 C 0.05467 0.68905 0.25026 0.0
C2074 C 0.04325 0.68674 0.23418 0.0
C2075 C 0.06515 0.67439 0.25722 0.0
C2076 C 0.08588 0.63083 0.24133 0.0
H2077 H 0.15131 0.59629 0.30464 0.0
H2078 H 0.12792 0.61847 0.29493 0.0
H2079 H 0.10552 0.60938 0.23658 0.0
H2080 H 0.03326 0.667 0.21332 0.0
H2081 H 0.05153 0.64136 0.22553 0.0
H2082 H 0.07295 0.64715 0.28515 0.0
C2083 C 0.1283 0.6052 0.28789 0.0
C2084 C 0.09829 0.61733 0.24734 0.0
C2085 C 0.14185 0.59257 0.29329 0.0
C2086 C 0.04214 0.66929 0.22556 0.0
C2087 C 0.05261 0.65461 0.23254 0.0
C2088 C 0.07999 0.639 0.27441 0.0
C2089 C 0.11573 0.60091 0.27323 0.0
C2090 C 0.10185 0.61464 0.26695 0.0
C2091 C 0.06445 0.65707 0.24828 0.0
C2092 C 0.07671 0.64194 0.25479 0.0
H2093 H 0.13108 0.5579 0.2623 0.0
H2094 H 0.10729 0.57982 0.25307 0.0
H2095 H 0.09464 0.62357 0.29565 0.0
H2096 H 0.05608 0.70238 0.25704 0.0
H2097 H 0.07432 0.67684 0.26919 0.0
C2098 C 0.92774 0.1342 0.76665 0.0
C2099 C 0.92689 0.14306 0.78458 0.0
C2100 C 0.91454 0.1211 0.76151 0.0
C2101 C 0.86674 0.10951 0.77012 0.0
H2102 H 0.87851 0.06209 0.74778 0.0
C2103 C 0.80945 0.05826 0.75117 0.0
C2104 C 0.81131 0.04795 0.73421 0.0
C2105 C 0.82422 0.0684 0.7584 0.0
C2106 C 0.87496 0.07537 0.75377 0.0
H2107 H 0.91192 0.14427 0.81151 0.0
H2108 H 0.8886 0.12189 0.80222 0.0
H2109 H 0.90332 0.08253 0.75811 0.0
H2110 H 0.83058 0.03979 0.71198 0.0
H2111 H 0.85597 0.05824 0.72399 0.0
H2112 H 0.83854 0.10295 0.76517 0.0
C2113 C 0.89947 0.1252 0.79216 0.0
C2114 C 0.88919 0.08701 0.75976 0.0
C2115 C 0.91278 0.1381 0.79741 0.0
C2116 C 0.82849 0.0478 0.72489 0.0
C2117 C 0.84319 0.05818 0.73197 0.0
C2118 C 0.85255 0.09805 0.76388 0.0
C2119 C 0.9001 0.11675 0.77409 0.0
C2120 C 0.88518 0.10416 0.76803 0.0
C2121 C 0.84119 0.0688 0.74871 0.0
C2122 C 0.85644 0.08079 0.75565 0.0
H2123 H 0.93823 0.13781 0.75629 0.0
H2124 H 0.91523 0.11487 0.74742 0.0
H2125 H 0.8633 0.1228 0.77618 0.0
H2126 H 0.79643 0.05898 0.75867 0.0
H2127 H 0.82222 0.07607 0.77154 0.0
C2128 C 0.5101 0.25388 0.07413 0.0
C2129 C 0.50316 0.23761 0.08231 0.0
C2130 C 0.51017 0.25629 0.05427 0.0
C2131 C 0.48832 0.24011 0.00975 0.0
H2132 H 0.53209 0.25993 0.98555 0.0
C2133 C 0.49693 0.24251 0.92745 0.0
C2134 C 0.50503 0.25839 0.9196 0.0
C2135 C 0.49676 0.23971 0.94727 0.0
C2136 C 0.51967 0.25459 0.99209 0.0
H2137 H 0.49087 0.21109 0.07593 0.0
H2138 H 0.49081 0.21541 0.04126 0.0
H2139 H 0.53139 0.2558 0.02021 0.0
H2140 H 0.51957 0.28362 0.92648 0.0
H2141 H 0.51883 0.27897 0.96102 0.0
H2142 H 0.47652 0.23906 0.98167 0.0
C2143 C 0.49606 0.22636 0.05027 0.0
C2144 C 0.51929 0.25221 0.01195 0.0
C2145 C 0.49607 0.22391 0.07014 0.0
C2146 C 0.51302 0.27135 0.93205 0.0
C2147 C 0.5128 0.26856 0.95185 0.0
C2148 C 0.48867 0.24257 0.98988 0.0
C2149 C 0.50322 0.24252 0.04212 0.0
C2150 C 0.5036 0.24497 0.021 0.0
C2151 C 0.50466 0.25272 0.95971 0.0
C2152 C 0.50434 0.24987 0.98081 0.0
H2153 H 0.51537 0.26485 0.08309 0.0
H2154 H 0.5155 0.26902 0.04842 0.0
H2155 H 0.47595 0.23471 0.01634 0.0
H2156 H 0.49049 0.23235 0.9183 0.0
H2157 H 0.49056 0.22725 0.95283 0.0
C2158 C 0.23324 0.51586 0.42942 0.0
C2159 C 0.23122 0.49958 0.41873 0.0
C2160 C 0.23521 0.51521 0.44931 0.0
C2161 C 0.24889 0.48416 0.48863 0.0
H2162 H 0.22557 0.52119 0.52045 0.0
C2163 C 0.26833 0.49475 0.56802 0.0
C2164 C 0.25414 0.49882 0.58104 0.0
C2165 C 0.26484 0.49414 0.54834 0.0
C2166 C 0.23203 0.51063 0.51181 0.0
H2167 H 0.22965 0.46983 0.42063 0.0
H2168 H 0.23269 0.46872 0.45544 0.0
H2169 H 0.22021 0.52122 0.48599 0.0
H2170 H 0.22508 0.50507 0.58364 0.0
H2171 H 0.21894 0.50391 0.54928 0.0
H2172 H 0.2605 0.4734 0.51449 0.0
C2173 C 0.23298 0.48198 0.44838 0.0
C2174 C 0.22913 0.51078 0.49202 0.0
C2175 C 0.23102 0.48263 0.42845 0.0
C2176 C 0.23635 0.50215 0.57395 0.0
C2177 C 0.23284 0.50149 0.55426 0.0
C2178 C 0.25177 0.48399 0.50843 0.0
C2179 C 0.23515 0.49827 0.45903 0.0
C2180 C 0.23764 0.49764 0.48017 0.0
C2181 C 0.24706 0.49755 0.54122 0.0
C2182 C 0.24348 0.4973 0.52024 0.0
H2183 H 0.23321 0.52916 0.42242 0.0
H2184 H 0.23707 0.528 0.45704 0.0
H2185 H 0.25579 0.47394 0.47991 0.0
H2186 H 0.28225 0.4924 0.57301 0.0
H2187 H 0.27617 0.49137 0.53868 0.0
C2188 C 0.99309 0.27112 0.0683 0.0
C2189 C 0.99042 0.25609 0.0807 0.0
C2190 C 0.99308 0.26865 0.04844 0.0
C2191 C 0.99837 0.23259 0.01118 0.0
H2192 H 0.97745 0.26997 0.97803 0.0
C2193 C 0.98721 0.22184 0.92991 0.0
C2194 C 0.99297 0.23624 0.91783 0.0
C2195 C 0.98676 0.22422 0.94978 0.0
C2196 C 0.98346 0.25948 0.98712 0.0
H2197 H 0.98561 0.22663 0.08178 0.0
H2198 H 0.98483 0.22247 0.04721 0.0
H2199 H 0.97645 0.27408 0.0127 0.0
H2200 H 0.00295 0.2644 0.91733 0.0
H2201 H 0.00174 0.26862 0.95199 0.0
H2202 H 0.00507 0.21788 0.98549 0.0
C2203 C 0.98733 0.23613 0.05284 0.0
C2204 C 0.98294 0.26185 0.00699 0.0
C2205 C 0.9875 0.23857 0.0727 0.0
C2206 C 0.99815 0.25311 0.92614 0.0
C2207 C 0.99751 0.25553 0.946 0.0
C2208 C 0.99871 0.23015 0.99132 0.0
C2209 C 0.99023 0.25112 0.04044 0.0
C2210 C 0.99046 0.24846 0.01928 0.0
C2211 C 0.99186 0.24109 0.95801 0.0
C2212 C 0.99133 0.24361 0.97909 0.0
H2213 H 0.99512 0.28486 0.07391 0.0
H2214 H 0.99558 0.28048 0.03938 0.0
H2215 H 0.0046 0.22215 0.02015 0.0
H2216 H 0.98278 0.20879 0.92403 0.0
H2217 H 0.98212 0.21293 0.9587 0.0
C2218 C 0.26391 0.0155 0.42641 0.0
C2219 C 0.26442 0.99858 0.41664 0.0
C2220 C 0.26149 0.01604 0.44629 0.0
C2221 C 0.2657 0.98743 0.48989 0.0
H2222 H 0.23261 0.02354 0.51198 0.0
C2223 C 0.25806 0.99672 0.57169 0.0
C2224 C 0.2401 0.99908 0.57878 0.0
C2225 C 0.26149 0.9973 0.55199 0.0
C2226 C 0.24182 0.01331 0.50602 0.0
H2227 H 0.26313 0.96895 0.42018 0.0
H2228 H 0.25855 0.9699 0.45475 0.0
H2229 H 0.23763 0.02308 0.47741 0.0
H2230 H 0.21166 0.00376 0.57072 0.0
H2231 H 0.21766 0.00476 0.53635 0.0
H2232 H 0.26954 0.97736 0.51843 0.0
C2233 C 0.26018 0.98276 0.44708 0.0
C2234 C 0.24486 0.01319 0.48624 0.0
C2235 C 0.26258 0.98222 0.42722 0.0
C2236 C 0.22569 0.00216 0.56574 0.0
C2237 C 0.22913 0.00274 0.54604 0.0
C2238 C 0.26267 0.98757 0.50967 0.0
C2239 C 0.25957 -0.00033 0.45684 0.0
C2240 C 0.25675 0.00017 0.47793 0.0
C2241 C 0.24706 0.00026 0.53893 0.0
C2242 C 0.25063 0.00045 0.51796 0.0
H2243 H 0.26513 0.02836 0.41866 0.0
H2244 H 0.26125 0.02928 0.4534 0.0
H2245 H 0.2751 0.97736 0.48397 0.0
H2246 H 0.26951 0.9946 0.58137 0.0
H2247 H 0.27551 0.99562 0.54699 0.0
C2248 C 0.47338 0.77097 0.92877 0.0
C2249 C 0.48399 0.75944 0.91695 0.0
C2250 C 0.47304 0.76832 0.9486 0.0
C2251 C 0.48283 0.73372 0.98615 0.0
H2252 H 0.48444 0.77632 0.01962 0.0
C2253 C 0.49569 0.72774 0.06745 0.0
C2254 C 0.48485 0.73873 0.07961 0.0
C2255 C 0.49523 0.73026 0.04762 0.0
C2256 C 0.48378 0.7643 0.01046 0.0
H2257 H 0.50266 0.73617 0.91668 0.0
H2258 H 0.50218 0.73162 0.95131 0.0
H2259 H 0.48428 0.78063 0.98495 0.0
H2260 H 0.46491 0.76093 0.08038 0.0
H2261 H 0.46421 0.76543 0.04572 0.0
H2262 H 0.4825 0.71741 0.01169 0.0
C2263 C 0.49387 0.74252 0.94523 0.0
C2264 C 0.48367 0.76676 0.99059 0.0
C2265 C 0.49416 0.74513 0.92539 0.0
C2266 C 0.47362 0.7524 0.07145 0.0
C2267 C 0.4732 0.75497 0.0516 0.0
C2268 C 0.48299 0.73127 0.00601 0.0
C2269 C 0.48334 0.75411 0.95707 0.0
C2270 C 0.48323 0.7515 0.9782 0.0
C2271 C 0.48396 0.74389 0.03947 0.0
C2272 C 0.48351 0.74653 0.01838 0.0
H2273 H 0.46517 0.78194 0.92266 0.0
H2274 H 0.46454 0.7773 0.95726 0.0
H2275 H 0.48217 0.72169 0.97702 0.0
H2276 H 0.50475 0.71731 0.07328 0.0
H2277 H 0.50391 0.72171 0.03868 0.0
C2278 C 0.75796 0.51238 0.56991 0.0
C2279 C 0.75602 0.49588 0.58018 0.0
C2280 C 0.75573 0.51265 0.55001 0.0
C2281 C 0.73642 0.4852 0.50974 0.0
H2282 H 0.76797 0.51629 0.47871 0.0
C2283 C 0.74162 0.47821 0.42758 0.0
C2284 C 0.74042 0.4946 0.41698 0.0
C2285 C 0.74344 0.47873 0.4475 0.0
C2286 C 0.75898 0.50766 0.48723 0.0
H2287 H 0.75059 0.46666 0.57771 0.0
H2288 H 0.74714 0.46697 0.54299 0.0
H2289 H 0.77129 0.51644 0.51352 0.0
H2290 H 0.74055 0.52437 0.41882 0.0
H2291 H 0.74394 0.52528 0.45373 0.0
H2292 H 0.72445 0.47613 0.48333 0.0
C2293 C 0.74985 0.47985 0.55027 0.0
C2294 C 0.76081 0.50778 0.50718 0.0
C2295 C 0.75189 0.47963 0.57018 0.0
C2296 C 0.74134 0.51154 0.42667 0.0
C2297 C 0.7434 0.51206 0.44658 0.0
C2298 C 0.73474 0.48494 0.4898 0.0
C2299 C 0.75171 0.49636 0.53992 0.0
C2300 C 0.74958 0.49651 0.51869 0.0
C2301 C 0.74432 0.49565 0.4572 0.0
C2302 C 0.74602 0.49613 0.47835 0.0
H2303 H 0.76097 0.52514 0.57731 0.0
H2304 H 0.75696 0.52567 0.54257 0.0
H2305 H 0.72727 0.47663 0.51813 0.0
H2306 H 0.74079 0.46497 0.42049 0.0
H2307 H 0.74428 0.46588 0.45532 0.0
C2308 C 0.999 0.77616 0.06892 0.0
C2309 C 0.00457 0.76179 0.08102 0.0
C2310 C 0.99929 0.77389 0.04902 0.0
C2311 C 0.01865 0.74353 0.01084 0.0
H2312 H 0.98172 0.76743 0.97936 0.0
C2313 C 0.00543 0.72572 0.93122 0.0
C2314 C 0.00543 0.74074 0.91856 0.0
C2315 C 0.00564 0.72859 0.95101 0.0
C2316 C 0.99217 0.76078 0.98801 0.0
H2317 H 0.01435 0.73368 0.08204 0.0
H2318 H 0.0141 0.72934 0.0474 0.0
H2319 H 0.98104 0.7715 0.01406 0.0
H2320 H 0.0054 0.77048 0.9165 0.0
H2321 H 0.0053 0.77552 0.95129 0.0
H2322 H 0.02926 0.73228 0.98467 0.0
C2323 C 0.01015 0.74262 0.05309 0.0
C2324 C 0.99187 0.76317 0.00789 0.0
C2325 C 0.01018 0.74503 0.07295 0.0
C2326 C 0.00549 0.75869 0.92601 0.0
C2327 C 0.00533 0.76157 0.94583 0.0
C2328 C 0.01872 0.74089 0.99101 0.0
C2329 C 0.00484 0.75707 0.04082 0.0
C2330 C 0.00513 0.75459 0.0196 0.0
C2331 C 0.0055 0.74653 0.95847 0.0
C2332 C 0.0055 0.74951 0.97944 0.0
H2333 H 0.99479 0.78928 0.07485 0.0
H2334 H 0.99543 0.78546 0.04011 0.0
H2335 H 0.02935 0.73703 0.01925 0.0
H2336 H 0.00547 0.71175 0.92578 0.0
H2337 H 0.00568 0.71679 0.9605 0.0
C2338 C 0.74033 0.99224 0.5701 0.0
C2339 C 0.73637 0.00867 0.57984 0.0
C2340 C 0.74251 0.99218 0.5502 0.0
C2341 C 0.75116 0.02335 0.50889 0.0
H2342 H 0.73419 0.98141 0.4794 0.0
C2343 C 0.74831 0.02272 0.42601 0.0
C2344 C 0.75627 0.00727 0.41719 0.0
C2345 C 0.74544 0.023 0.44581 0.0
C2346 C 0.73907 0.99316 0.48749 0.0
H2347 H 0.73123 0.03785 0.57647 0.0
H2348 H 0.73449 0.03772 0.54168 0.0
H2349 H 0.72981 0.98182 0.51405 0.0
H2350 H 0.7671 0.97987 0.422 0.0
H2351 H 0.76186 0.98027 0.45664 0.0
H2352 H 0.76006 0.03479 0.48214 0.0
C2353 C 0.73645 0.02494 0.54939 0.0
C2354 C 0.73665 0.99338 0.50735 0.0
C2355 C 0.73451 0.02503 0.56932 0.0
C2356 C 0.76105 0.992 0.42848 0.0
C2357 C 0.75794 0.99217 0.44824 0.0
C2358 C 0.75336 0.02321 0.48899 0.0
C2359 C 0.74053 0.00852 0.53956 0.0
C2360 C 0.74277 0.00843 0.51834 0.0
C2361 C 0.75023 0.00772 0.45711 0.0
C2362 C 0.74743 0.00807 0.47813 0.0
H2363 H 0.74204 0.97948 0.57792 0.0
H2364 H 0.746 0.97934 0.54322 0.0
H2365 H 0.75635 0.03502 0.51687 0.0
H2366 H 0.74462 0.03471 0.41762 0.0
H2367 H 0.73937 0.03511 0.4523 0.0
loop_
_geom_bond_atom_site_label_1
_geom_bond_atom_site_label_2
_geom_bond_distance
_geom_bond_site_symmetry_2
_ccdc_geom_bond_type
Li0 N17 1.990 . S
Li0 O60 1.956 . S
Li0 O61 1.970 . S
Li0 O62 1.961 . S
Li1 N25 1.990 . S
Li1 O60 1.970 . S
Li1 O61 1.956 . S
Li1 O63 1.961 . S
Li2 N47 1.990 . S
Li2 O60 1.961 . S
Li2 O62 1.956 . S
Li2 O63 1.970 . S
Li3 N53 1.990 . S
Li3 O61 1.961 . S
Li3 O62 1.970 . S
Li3 O63 1.956 . S
C4 C6 1.348 . S
C4 C7 1.356 . S
C4 O60 1.325 . S
N5 C8 1.314 . S
N5 C9 1.279 . S
C6 C4 1.348 . S
C6 C8 1.353 . S
C6 H64 0.929 . S
C7 C4 1.356 . S
C7 C9 1.358 . S
C7 H65 0.930 . S
C8 N5 1.314 . S
C8 C6 1.353 . S
C8 H66 0.930 . S
C9 N5 1.279 . S
C9 C7 1.358 . S
C9 H67 0.930 . S
C10 C13 1.348 . S
C10 C14 1.356 . S
C10 O61 1.325 . S
C11 N12 1.279 . S
C11 C14 1.358 . S
C11 H68 0.930 . S
N12 C11 1.279 . S
N12 C15 1.314 . S
C13 C10 1.348 . S
C13 C15 1.353 . S
C13 H69 0.929 . S
C14 C10 1.356 . S
C14 C11 1.358 . S
C14 H70 0.930 . S
C15 N12 1.314 . S
C15 C13 1.353 . S
C15 H71 0.930 . S
C16 N17 1.314 . S
C16 C21 1.353 . S
C16 H22 0.930 . S
N17 Li0 1.990 . S
N17 C16 1.314 . S
N17 C19 1.279 . S
C18 C19 1.358 . S
C18 C20 1.356 . S
C18 H72 0.930 . S
C19 N17 1.279 . S
C19 C18 1.358 . S
C19 H23 0.930 . S
C20 C18 1.356 . S
C20 C21 1.348 . S
C21 C16 1.353 . S
C21 C20 1.348 . S
C21 H73 0.929 . S
H22 C16 0.930 . S
H23 C19 0.930 . S
C24 N25 1.314 . S
C24 C26 1.353 . S
C24 H30 0.930 . S
N25 Li1 1.990 . S
N25 C24 1.314 . S
N25 C28 1.279 . S
C26 C24 1.353 . S
C26 C29 1.348 . S
C26 H74 0.929 . S
C27 C28 1.358 . S
C27 C29 1.356 . S
C27 H75 0.930 . S
C28 N25 1.279 . S
C28 C27 1.358 . S
C28 H31 0.930 . S
C29 C26 1.348 . S
C29 C27 1.356 . S
H30 C24 0.930 . S
H31 C28 0.930 . S
C32 C34 1.348 . S
C32 C35 1.356 . S
C32 O62 1.325 . S
N33 C36 1.314 . S
N33 C37 1.279 . S
C34 C32 1.348 . S
C34 C36 1.353 . S
C34 H76 0.929 . S
C35 C32 1.356 . S
C35 C37 1.358 . S
C35 H77 0.930 . S
C36 N33 1.314 . S
C36 C34 1.353 . S
C36 H78 0.930 . S
C37 N33 1.279 . S
C37 C35 1.358 . S
C37 H79 0.930 . S
C38 C39 1.348 . S
C38 C40 1.356 . S
C38 O63 1.325 . S
C39 C38 1.348 . S
C39 C41 1.353 . S
C39 H80 0.929 . S
C40 C38 1.356 . S
C40 C42 1.358 . S
C40 H81 0.930 . S
C41 C39 1.353 . S
C41 N43 1.314 . S
C41 H82 0.930 . S
C42 C40 1.358 . S
C42 N43 1.279 . S
C42 H83 0.930 . S
N43 C41 1.314 . S
N43 C42 1.279 . S
C44 C46 1.353 . S
C44 N47 1.314 . S
C44 H50 0.930 . S
C45 N47 1.279 . S
C45 C48 1.358 . S
C45 H51 0.930 . S
C46 C44 1.353 . S
C46 C49 1.348 . S
C46 H84 0.929 . S
N47 Li2 1.990 . S
N47 C44 1.314 . S
N47 C45 1.279 . S
C48 C45 1.358 . S
C48 C49 1.356 . S
C48 H85 0.930 . S
C49 C46 1.348 . S
C49 C48 1.356 . S
H50 C44 0.930 . S
H51 C45 0.930 . S
C52 N53 1.314 . S
C52 C54 1.353 . S
C52 H58 0.930 . S
N53 Li3 1.990 . S
N53 C52 1.314 . S
N53 C56 1.279 . S
C54 C52 1.353 . S
C54 C57 1.348 . S
C54 H86 0.929 . S
C55 C56 1.358 . S
C55 C57 1.356 . S
C55 H87 0.930 . S
C56 N53 1.279 . S
C56 C55 1.358 . S
C56 H59 0.930 . S
C57 C54 1.348 . S
C57 C55 1.356 . S
H58 C52 0.930 . S
H59 C56 0.930 . S
O60 Li0 1.956 . S
O60 Li1 1.970 . S
O60 Li2 1.961 . S
O60 C4 1.325 . S
O61 Li0 1.970 . S
O61 Li1 1.956 . S
O61 Li3 1.961 . S
O61 C10 1.325 . S
O62 Li0 1.961 . S
O62 Li2 1.956 . S
O62 Li3 1.970 . S
O62 C32 1.325 . S
O63 Li1 1.961 . S
O63 Li2 1.970 . S
O63 Li3 1.956 . S
O63 C38 1.325 . S
H64 C6 0.929 . S
H65 C7 0.930 . S
H66 C8 0.930 . S
H67 C9 0.930 . S
H68 C11 0.930 . S
H69 C13 0.929 . S
H70 C14 0.930 . S
H71 C15 0.930 . S
H72 C18 0.930 . S
H73 C21 0.929 . S
H74 C26 0.929 . S
H75 C27 0.930 . S
H76 C34 0.929 . S
H77 C35 0.930 . S
H78 C36 0.930 . S
H79 C37 0.930 . S
H80 C39 0.929 . S
H81 C40 0.930 . S
H82 C41 0.930 . S
H83 C42 0.930 . S
H84 C46 0.929 . S
H85 C48 0.930 . S
H86 C54 0.929 . S
H87 C55 0.930 . S
Li88 N105 1.990 . S
Li88 O148 1.956 . S
Li88 O149 1.970 . S
Li88 O150 1.961 . S
Li89 N113 1.990 . S
Li89 O148 1.970 . S
Li89 O149 1.956 . S
Li89 O151 1.961 . S
Li90 N135 1.990 . S
Li90 O148 1.961 . S
Li90 O150 1.956 . S
Li90 O151 1.970 . S
Li91 N141 1.990 . S
Li91 O149 1.961 . S
Li91 O150 1.970 . S
Li91 O151 1.956 . S
C92 C94 1.348 . S
C92 C95 1.356 . S
C92 O148 1.325 . S
N93 C96 1.314 . S
N93 C97 1.279 . S
C94 C92 1.348 . S
C94 C96 1.353 . S
C94 H152 0.929 . S
C95 C92 1.356 . S
C95 C97 1.358 . S
C95 H153 0.930 . S
C96 N93 1.314 . S
C96 C94 1.353 . S
C96 H154 0.930 . S
C97 N93 1.279 . S
C97 C95 1.358 . S
C97 H155 0.930 . S
C98 C101 1.348 . S
C98 C102 1.356 . S
C98 O149 1.325 . S
C99 N100 1.279 . S
C99 C102 1.358 . S
C99 H156 0.930 . S
N100 C99 1.279 . S
N100 C103 1.314 . S
C101 C98 1.348 . S
C101 C103 1.353 . S
C101 H157 0.929 . S
C102 C98 1.356 . S
C102 C99 1.358 . S
C102 H158 0.930 . S
C103 N100 1.314 . S
C103 C101 1.353 . S
C103 H159 0.930 . S
C104 N105 1.314 . S
C104 C109 1.353 . S
C104 H110 0.930 . S
N105 Li88 1.990 . S
N105 C104 1.314 . S
N105 C107 1.279 . S
C106 C107 1.358 . S
C106 C108 1.356 . S
C106 H160 0.930 . S
C107 N105 1.279 . S
C107 C106 1.358 . S
C107 H111 0.930 . S
C108 C106 1.356 . S
C108 C109 1.348 . S
C109 C104 1.353 . S
C109 C108 1.348 . S
C109 H161 0.929 . S
H110 C104 0.930 . S
H111 C107 0.930 . S
C112 N113 1.314 . S
C112 C114 1.353 . S
C112 H118 0.930 . S
N113 Li89 1.990 . S
N113 C112 1.314 . S
N113 C116 1.279 . S
C114 C112 1.353 . S
C114 C117 1.348 . S
C114 H162 0.929 . S
C115 C116 1.358 . S
C115 C117 1.356 . S
C115 H163 0.930 . S
C116 N113 1.279 . S
C116 C115 1.358 . S
C116 H119 0.930 . S
C117 C114 1.348 . S
C117 C115 1.356 . S
H118 C112 0.930 . S
H119 C116 0.930 . S
C120 C122 1.348 . S
C120 C123 1.356 . S
C120 O150 1.325 . S
N121 C124 1.314 . S
N121 C125 1.279 . S
C122 C120 1.348 . S
C122 C124 1.353 . S
C122 H164 0.929 . S
C123 C120 1.356 . S
C123 C125 1.358 . S
C123 H165 0.930 . S
C124 N121 1.314 . S
C124 C122 1.353 . S
C124 H166 0.930 . S
C125 N121 1.279 . S
C125 C123 1.358 . S
C125 H167 0.930 . S
C126 C127 1.348 . S
C126 C128 1.356 . S
C126 O151 1.325 . S
C127 C126 1.348 . S
C127 C129 1.353 . S
C127 H168 0.929 . S
C128 C126 1.356 . S
C128 C130 1.358 . S
C128 H169 0.930 . S
C129 C127 1.353 . S
C129 N131 1.314 . S
C129 H170 0.930 . S
C130 C128 1.358 . S
C130 N131 1.279 . S
C130 H171 0.930 . S
N131 C129 1.314 . S
N131 C130 1.279 . S
C132 C134 1.353 . S
C132 N135 1.314 . S
C132 H138 0.930 . S
C133 N135 1.279 . S
C133 C136 1.358 . S
C133 H139 0.930 . S
C134 C132 1.353 . S
C134 C137 1.348 . S
C134 H172 0.929 . S
N135 Li90 1.990 . S
N135 C132 1.314 . S
N135 C133 1.279 . S
C136 C133 1.358 . S
C136 C137 1.356 . S
C136 H173 0.930 . S
C137 C134 1.348 . S
C137 C136 1.356 . S
H138 C132 0.930 . S
H139 C133 0.930 . S
C140 N141 1.314 . S
C140 C142 1.353 . S
C140 H146 0.930 . S
N141 Li91 1.990 . S
N141 C140 1.314 . S
N141 C144 1.279 . S
C142 C140 1.353 . S
C142 C145 1.348 . S
C142 H174 0.929 . S
C143 C144 1.358 . S
C143 C145 1.356 . S
C143 H175 0.930 . S
C144 N141 1.279 . S
C144 C143 1.358 . S
C144 H147 0.930 . S
C145 C142 1.348 . S
C145 C143 1.356 . S
H146 C140 0.930 . S
H147 C144 0.930 . S
O148 Li88 1.956 . S
O148 Li89 1.970 . S
O148 Li90 1.961 . S
O148 C92 1.325 . S
O149 Li88 1.970 . S
O149 Li89 1.956 . S
O149 Li91 1.961 . S
O149 C98 1.325 . S
O150 Li88 1.961 . S
O150 Li90 1.956 . S
O150 Li91 1.970 . S
O150 C120 1.325 . S
O151 Li89 1.961 . S
O151 Li90 1.970 . S
O151 Li91 1.956 . S
O151 C126 1.325 . S
H152 C94 0.929 . S
H153 C95 0.930 . S
H154 C96 0.930 . S
H155 C97 0.930 . S
H156 C99 0.930 . S
H157 C101 0.929 . S
H158 C102 0.930 . S
H159 C103 0.930 . S
H160 C106 0.930 . S
H161 C109 0.929 . S
H162 C114 0.929 . S
H163 C115 0.930 . S
H164 C122 0.929 . S
H165 C123 0.930 . S
H166 C124 0.930 . S
H167 C125 0.930 . S
H168 C127 0.929 . S
H169 C128 0.930 . S
H170 C129 0.930 . S
H171 C130 0.930 . S
H172 C134 0.929 . S
H173 C136 0.930 . S
H174 C142 0.929 . S
H175 C143 0.930 . S
Li176 N193 1.990 . S
Li176 O236 1.956 . S
Li176 O237 1.970 . S
Li176 O238 1.961 . S
Li177 N201 1.990 . S
Li177 O236 1.970 1_455 S
Li177 O237 1.956 1_455 S
Li177 O239 1.961 . S
Li178 N223 1.990 . S
Li178 O236 1.961 . S
Li178 O238 1.956 . S
Li178 O239 1.970 1_655 S
Li179 N229 1.990 . S
Li179 O237 1.961 . S
Li179 O238 1.970 . S
Li179 O239 1.956 1_655 S
C180 C182 1.348 1_655 S
C180 C183 1.356 . S
C180 O236 1.325 . S
N181 C184 1.314 1_655 S
N181 C185 1.279 . S
C182 C180 1.348 1_455 S
C182 C184 1.353 . S
C182 H240 0.929 . S
C183 C180 1.356 . S
C183 C185 1.358 . S
C183 H241 0.930 . S
C184 N181 1.314 1_455 S
C184 C182 1.353 . S
C184 H242 0.930 . S
C185 N181 1.279 . S
C185 C183 1.358 . S
C185 H243 0.930 . S
C186 C189 1.348 . S
C186 C190 1.356 . S
C186 O237 1.325 . S
C187 N188 1.279 . S
C187 C190 1.358 . S
C187 H244 0.930 . S
N188 C187 1.279 . S
N188 C191 1.314 . S
C189 C186 1.348 . S
C189 C191 1.353 . S
C189 H245 0.929 . S
C190 C186 1.356 . S
C190 C187 1.358 . S
C190 H246 0.930 . S
C191 N188 1.314 . S
C191 C189 1.353 . S
C191 H247 0.930 . S
C192 N193 1.314 . S
C192 C197 1.353 . S
C192 H198 0.930 . S
N193 Li176 1.990 . S
N193 C192 1.314 . S
N193 C195 1.279 . S
C194 C195 1.358 . S
C194 C196 1.356 . S
C194 H248 0.930 . S
C195 N193 1.279 . S
C195 C194 1.358 . S
C195 H199 0.930 . S
C196 C194 1.356 . S
C196 C197 1.348 . S
C197 C192 1.353 . S
C197 C196 1.348 . S
C197 H249 0.929 . S
H198 C192 0.930 . S
H199 C195 0.930 . S
C200 N201 1.314 . S
C200 C202 1.353 . S
C200 H206 0.930 . S
N201 Li177 1.990 . S
N201 C200 1.314 . S
N201 C204 1.279 . S
C202 C200 1.353 . S
C202 C205 1.348 . S
C202 H250 0.929 . S
C203 C204 1.358 . S
C203 C205 1.356 . S
C203 H251 0.930 . S
C204 N201 1.279 . S
C204 C203 1.358 . S
C204 H207 0.930 . S
C205 C202 1.348 . S
C205 C203 1.356 . S
H206 C200 0.930 . S
H207 C204 0.930 . S
C208 C210 1.348 . S
C208 C211 1.356 . S
C208 O238 1.325 . S
N209 C212 1.314 . S
N209 C213 1.279 . S
C210 C208 1.348 . S
C210 C212 1.353 . S
C210 H252 0.929 . S
C211 C208 1.356 . S
C211 C213 1.358 . S
C211 H253 0.930 . S
C212 N209 1.314 . S
C212 C210 1.353 . S
C212 H254 0.930 . S
C213 N209 1.279 . S
C213 C211 1.358 . S
C213 H255 0.930 . S
C214 C215 1.348 . S
C214 C216 1.356 . S
C214 O239 1.325 . S
C215 C214 1.348 . S
C215 C217 1.353 . S
C215 H256 0.929 . S
C216 C214 1.356 . S
C216 C218 1.358 . S
C216 H257 0.930 . S
C217 C215 1.353 . S
C217 N219 1.314 . S
C217 H258 0.930 . S
C218 C216 1.358 . S
C218 N219 1.279 . S
C218 H259 0.930 . S
N219 C217 1.314 . S
N219 C218 1.279 . S
C220 C222 1.361 . S
C220 N223 1.283 1_455 S
C220 H226 0.957 . S
C221 N223 1.279 . S
C221 C224 1.358 . S
C221 H227 0.930 . S
C222 C220 1.361 . S
C222 C225 1.348 1_455 S
C222 H260 0.929 . S
N223 Li178 1.990 . S
N223 C220 1.283 1_655 S
N223 C221 1.279 . S
C224 C221 1.358 . S
C224 C225 1.356 . S
C224 H261 0.930 . S
C225 C222 1.348 1_655 S
C225 C224 1.356 . S
H226 C220 0.957 . S
H227 C221 0.930 . S
C228 N229 1.314 . S
C228 C230 1.353 . S
C228 H234 0.930 . S
N229 Li179 1.990 . S
N229 C228 1.314 . S
N229 C232 1.279 . S
C230 C228 1.353 . S
C230 C233 1.348 . S
C230 H262 0.929 . S
C231 C232 1.358 . S
C231 C233 1.356 . S
C231 H263 0.930 . S
C232 N229 1.279 . S
C232 C231 1.358 . S
C232 H235 0.930 . S
C233 C230 1.348 . S
C233 C231 1.356 . S
H234 C228 0.930 . S
H235 C232 0.930 . S
O236 Li176 1.956 . S
O236 Li177 1.970 1_655 S
O236 Li178 1.961 . S
O236 C180 1.325 . S
O237 Li176 1.970 . S
O237 Li177 1.956 1_655 S
O237 Li179 1.961 . S
O237 C186 1.325 . S
O238 Li176 1.961 . S
O238 Li178 1.956 . S
O238 Li179 1.970 . S
O238 C208 1.325 . S
O239 Li177 1.961 . S
O239 Li178 1.970 1_455 S
O239 Li179 1.956 1_455 S
O239 C214 1.325 . S
H240 C182 0.929 . S
H241 C183 0.930 . S
H242 C184 0.930 . S
H243 C185 0.930 . S
H244 C187 0.930 . S
H245 C189 0.929 . S
H246 C190 0.930 . S
H247 C191 0.930 . S
H248 C194 0.930 . S
H249 C197 0.929 . S
H250 C202 0.929 . S
H251 C203 0.930 . S
H252 C210 0.929 . S
H253 C211 0.930 . S
H254 C212 0.930 . S
H255 C213 0.930 . S
H256 C215 0.929 . S
H257 C216 0.930 . S
H258 C217 0.930 . S
H259 C218 0.930 . S
H260 C222 0.929 . S
H261 C224 0.930 . S
H262 C230 0.929 . S
H263 C231 0.930 . S
Li264 N281 1.990 . S
Li264 O324 1.956 . S
Li264 O325 1.970 . S
Li264 O326 1.961 . S
Li265 N289 1.990 . S
Li265 O324 1.970 1_545 S
Li265 O325 1.956 1_545 S
Li265 O327 1.961 . S
Li266 N311 1.990 . S
Li266 O324 1.961 . S
Li266 O326 1.956 . S
Li266 O327 1.970 1_565 S
Li267 N317 1.990 . S
Li267 O325 1.961 . S
Li267 O326 1.970 . S
Li267 O327 1.956 1_565 S
C268 C270 1.348 1_565 S
C268 C271 1.356 . S
C268 O324 1.325 . S
N269 C272 1.314 1_565 S
N269 C273 1.279 . S
C270 C268 1.348 1_545 S
C270 C272 1.353 . S
C270 H328 0.929 . S
C271 C268 1.356 . S
C271 C273 1.358 . S
C271 H329 0.930 . S
C272 N269 1.314 1_545 S
C272 C270 1.353 . S
C272 H330 0.930 . S
C273 N269 1.279 . S
C273 C271 1.358 . S
C273 H331 0.930 . S
C274 C277 1.348 . S
C274 C278 1.356 . S
C274 O325 1.325 . S
C275 N276 1.279 . S
C275 C278 1.358 . S
C275 H332 0.930 . S
N276 C275 1.279 . S
N276 C279 1.314 . S
C277 C274 1.348 . S
C277 C279 1.353 . S
C277 H333 0.929 . S
C278 C274 1.356 . S
C278 C275 1.358 . S
C278 H334 0.930 . S
C279 N276 1.314 . S
C279 C277 1.353 . S
C279 H335 0.930 . S
C280 N281 1.314 . S
C280 C285 1.353 . S
C280 H286 0.930 . S
N281 Li264 1.990 . S
N281 C280 1.314 . S
N281 C283 1.279 . S
C282 C283 1.358 . S
C282 C284 1.356 . S
C282 H336 0.930 . S
C283 N281 1.279 . S
C283 C282 1.358 . S
C283 H287 0.930 . S
C284 C282 1.356 . S
C284 C285 1.348 . S
C285 C280 1.353 . S
C285 C284 1.348 . S
C285 H337 0.929 . S
H286 C280 0.930 . S
H287 C283 0.930 . S
C288 N289 1.314 . S
C288 C290 1.353 . S
C288 H294 0.930 . S
N289 Li265 1.990 . S
N289 C288 1.314 . S
N289 C292 1.279 . S
C290 C288 1.353 . S
C290 C293 1.348 . S
C290 H338 0.929 . S
C291 C292 1.358 . S
C291 C293 1.356 . S
C291 H339 0.930 . S
C292 N289 1.279 . S
C292 C291 1.358 . S
C292 H295 0.930 . S
C293 C290 1.348 . S
C293 C291 1.356 . S
H294 C288 0.930 . S
H295 C292 0.930 . S
C296 C298 1.348 . S
C296 C299 1.356 . S
C296 O326 1.325 . S
N297 C300 1.314 . S
N297 C301 1.279 . S
C298 C296 1.348 . S
C298 C300 1.353 . S
C298 H340 0.929 . S
C299 C296 1.356 . S
C299 C301 1.358 . S
C299 H341 0.930 . S
C300 N297 1.314 . S
C300 C298 1.353 . S
C300 H342 0.930 . S
C301 N297 1.279 . S
C301 C299 1.358 . S
C301 H343 0.930 . S
C302 C303 1.348 . S
C302 C304 1.356 . S
C302 O327 1.325 . S
C303 C302 1.348 . S
C303 C305 1.353 . S
C303 H344 0.929 . S
C304 C302 1.356 . S
C304 C306 1.358 . S
C304 H345 0.930 . S
C305 C303 1.353 . S
C305 N307 1.314 . S
C305 H346 0.930 . S
C306 C304 1.358 . S
C306 N307 1.279 . S
C306 H347 0.930 . S
N307 C305 1.314 . S
N307 C306 1.279 . S
C308 C310 1.361 . S
C308 N311 1.283 1_545 S
C308 H314 0.958 . S
C309 N311 1.279 . S
C309 C312 1.358 . S
C309 H315 0.930 . S
C310 C308 1.361 . S
C310 C313 1.348 1_545 S
C310 H348 0.929 . S
N311 Li266 1.990 . S
N311 C308 1.283 1_565 S
N311 C309 1.279 . S
C312 C309 1.358 . S
C312 C313 1.356 . S
C312 H349 0.930 . S
C313 C310 1.348 1_565 S
C313 C312 1.356 . S
H314 C308 0.958 . S
H315 C309 0.930 . S
C316 N317 1.314 . S
C316 C318 1.353 . S
C316 H322 0.930 . S
N317 Li267 1.990 . S
N317 C316 1.314 . S
N317 C320 1.279 . S
C318 C316 1.353 . S
C318 C321 1.348 . S
C318 H350 0.929 . S
C319 C320 1.358 . S
C319 C321 1.356 . S
C319 H351 0.930 . S
C320 N317 1.279 . S
C320 C319 1.358 . S
C320 H323 0.930 . S
C321 C318 1.348 . S
C321 C319 1.356 . S
H322 C316 0.930 . S
H323 C320 0.930 . S
O324 Li264 1.956 . S
O324 Li265 1.970 1_565 S
O324 Li266 1.961 . S
O324 C268 1.325 . S
O325 Li264 1.970 . S
O325 Li265 1.956 1_565 S
O325 Li267 1.961 . S
O325 C274 1.325 . S
O326 Li264 1.961 . S
O326 Li266 1.956 . S
O326 Li267 1.970 . S
O326 C296 1.325 . S
O327 Li265 1.961 . S
O327 Li266 1.970 1_545 S
O327 Li267 1.956 1_545 S
O327 C302 1.325 . S
H328 C270 0.929 . S
H329 C271 0.930 . S
H330 C272 0.930 . S
H331 C273 0.930 . S
H332 C275 0.930 . S
H333 C277 0.929 . S
H334 C278 0.930 . S
H335 C279 0.930 . S
H336 C282 0.930 . S
H337 C285 0.929 . S
H338 C290 0.929 . S
H339 C291 0.930 . S
H340 C298 0.929 . S
H341 C299 0.930 . S
H342 C300 0.930 . S
H343 C301 0.930 . S
H344 C303 0.929 . S
H345 C304 0.930 . S
H346 C305 0.930 . S
H347 C306 0.930 . S
H348 C310 0.929 . S
H349 C312 0.930 . S
H350 C318 0.929 . S
H351 C319 0.930 . S
Li352 N369 1.990 . S
Li352 O412 1.956 . S
Li352 O413 1.970 . S
Li352 O414 1.961 . S
Li353 N377 1.990 . S
Li353 O412 1.970 . S
Li353 O413 1.956 . S
Li353 O415 1.961 . S
Li354 N399 1.990 . S
Li354 O412 1.961 . S
Li354 O414 1.956 . S
Li354 O415 1.970 . S
Li355 N405 1.990 . S
Li355 O413 1.961 . S
Li355 O414 1.970 . S
Li355 O415 1.956 . S
C356 C358 1.348 . S
C356 C359 1.356 . S
C356 O412 1.325 . S
N357 C360 1.314 . S
N357 C361 1.279 . S
C358 C356 1.348 . S
C358 C360 1.353 . S
C358 H416 0.929 . S
C359 C356 1.356 . S
C359 C361 1.358 . S
C359 H417 0.930 . S
C360 N357 1.314 . S
C360 C358 1.353 . S
C360 H418 0.930 . S
C361 N357 1.279 . S
C361 C359 1.358 . S
C361 H419 0.930 . S
C362 C365 1.348 . S
C362 C366 1.356 . S
C362 O413 1.325 . S
C363 N364 1.279 . S
C363 C366 1.358 . S
C363 H420 0.930 . S
N364 C363 1.279 . S
N364 C367 1.314 . S
C365 C362 1.348 . S
C365 C367 1.353 . S
C365 H421 0.929 . S
C366 C362 1.356 . S
C366 C363 1.358 . S
C366 H422 0.930 . S
C367 N364 1.314 . S
C367 C365 1.353 . S
C367 H423 0.930 . S
C368 N369 1.314 . S
C368 C373 1.353 . S
C368 H374 0.930 . S
N369 Li352 1.990 . S
N369 C368 1.314 . S
N369 C371 1.279 . S
C370 C371 1.358 . S
C370 C372 1.356 . S
C370 H424 0.930 . S
C371 N369 1.279 . S
C371 C370 1.358 . S
C371 H375 0.930 . S
C372 C370 1.356 . S
C372 C373 1.348 . S
C373 C368 1.353 . S
C373 C372 1.348 . S
C373 H425 0.929 . S
H374 C368 0.930 . S
H375 C371 0.930 . S
C376 N377 1.314 . S
C376 C378 1.353 . S
C376 H382 0.930 . S
N377 Li353 1.990 . S
N377 C376 1.314 . S
N377 C380 1.279 . S
C378 C376 1.353 . S
C378 C381 1.348 . S
C378 H426 0.929 . S
C379 C380 1.358 . S
C379 C381 1.356 . S
C379 H427 0.930 . S
C380 N377 1.279 . S
C380 C379 1.358 . S
C380 H383 0.930 . S
C381 C378 1.348 . S
C381 C379 1.356 . S
H382 C376 0.930 . S
H383 C380 0.930 . S
C384 C386 1.348 . S
C384 C387 1.356 . S
C384 O414 1.325 . S
N385 C388 1.314 . S
N385 C389 1.279 . S
C386 C384 1.348 . S
C386 C388 1.353 . S
C386 H428 0.929 . S
C387 C384 1.356 . S
C387 C389 1.358 . S
C387 H429 0.930 . S
C388 N385 1.314 . S
C388 C386 1.353 . S
C388 H430 0.930 . S
C389 N385 1.279 . S
C389 C387 1.358 . S
C389 H431 0.930 . S
C390 C391 1.348 . S
C390 C392 1.356 . S
C390 O415 1.325 . S
C391 C390 1.348 . S
C391 C393 1.353 . S
C391 H432 0.929 . S
C392 C390 1.356 . S
C392 C394 1.358 . S
C392 H433 0.930 . S
C393 C391 1.353 . S
C393 N395 1.314 . S
C393 H434 0.930 . S
C394 C392 1.358 . S
C394 N395 1.279 . S
C394 H435 0.930 . S
N395 C393 1.314 . S
N395 C394 1.279 . S
C396 C398 1.353 . S
C396 N399 1.314 . S
C396 H402 0.930 . S
C397 N399 1.279 . S
C397 C400 1.358 . S
C397 H403 0.930 . S
C398 C396 1.353 . S
C398 C401 1.348 . S
C398 H436 0.929 . S
N399 Li354 1.990 . S
N399 C396 1.314 . S
N399 C397 1.279 . S
C400 C397 1.358 . S
C400 C401 1.356 . S
C400 H437 0.930 . S
C401 C398 1.348 . S
C401 C400 1.356 . S
H402 C396 0.930 . S
H403 C397 0.930 . S
C404 N405 1.314 . S
C404 C406 1.353 . S
C404 H410 0.930 . S
N405 Li355 1.990 . S
N405 C404 1.314 . S
N405 C408 1.279 . S
C406 C404 1.353 . S
C406 C409 1.348 . S
C406 H438 0.929 . S
C407 C408 1.358 . S
C407 C409 1.356 . S
C407 H439 0.930 . S
C408 N405 1.279 . S
C408 C407 1.358 . S
C408 H411 0.930 . S
C409 C406 1.348 . S
C409 C407 1.356 . S
H410 C404 0.930 . S
H411 C408 0.930 . S
O412 Li352 1.956 . S
O412 Li353 1.970 . S
O412 Li354 1.961 . S
O412 C356 1.325 . S
O413 Li352 1.970 . S
O413 Li353 1.956 . S
O413 Li355 1.961 . S
O413 C362 1.325 . S
O414 Li352 1.961 . S
O414 Li354 1.956 . S
O414 Li355 1.970 . S
O414 C384 1.325 . S
O415 Li353 1.961 . S
O415 Li354 1.970 . S
O415 Li355 1.956 . S
O415 C390 1.325 . S
H416 C358 0.929 . S
H417 C359 0.930 . S
H418 C360 0.930 . S
H419 C361 0.930 . S
H420 C363 0.930 . S
H421 C365 0.929 . S
H422 C366 0.930 . S
H423 C367 0.930 . S
H424 C370 0.930 . S
H425 C373 0.929 . S
H426 C378 0.929 . S
H427 C379 0.930 . S
H428 C386 0.929 . S
H429 C387 0.930 . S
H430 C388 0.930 . S
H431 C389 0.930 . S
H432 C391 0.929 . S
H433 C392 0.930 . S
H434 C393 0.930 . S
H435 C394 0.930 . S
H436 C398 0.929 . S
H437 C400 0.930 . S
H438 C406 0.929 . S
H439 C407 0.930 . S
Li440 N457 1.990 . S
Li440 O500 1.956 . S
Li440 O501 1.970 . S
Li440 O502 1.961 . S
Li441 N465 1.990 . S
Li441 O500 1.970 . S
Li441 O501 1.956 . S
Li441 O503 1.961 . S
Li442 N487 1.990 . S
Li442 O500 1.961 . S
Li442 O502 1.956 . S
Li442 O503 1.970 . S
Li443 N493 1.990 . S
Li443 O501 1.961 . S
Li443 O502 1.970 . S
Li443 O503 1.956 . S
C444 C446 1.348 . S
C444 C447 1.356 . S
C444 O500 1.325 . S
N445 C448 1.314 . S
N445 C449 1.279 . S
C446 C444 1.348 . S
C446 C448 1.353 . S
C446 H504 0.929 . S
C447 C444 1.356 . S
C447 C449 1.358 . S
C447 H505 0.930 . S
C448 N445 1.314 . S
C448 C446 1.353 . S
C448 H506 0.930 . S
C449 N445 1.279 . S
C449 C447 1.358 . S
C449 H507 0.930 . S
C450 C453 1.348 . S
C450 C454 1.356 . S
C450 O501 1.325 . S
C451 N452 1.279 . S
C451 C454 1.358 . S
C451 H508 0.930 . S
N452 C451 1.279 . S
N452 C455 1.314 . S
C453 C450 1.348 . S
C453 C455 1.353 . S
C453 H509 0.929 . S
C454 C450 1.356 . S
C454 C451 1.358 . S
C454 H510 0.930 . S
C455 N452 1.314 . S
C455 C453 1.353 . S
C455 H511 0.930 . S
C456 N457 1.314 . S
C456 C461 1.353 . S
C456 H462 0.930 . S
N457 Li440 1.990 . S
N457 C456 1.314 . S
N457 C459 1.279 . S
C458 C459 1.358 . S
C458 C460 1.356 . S
C458 H512 0.930 . S
C459 N457 1.279 . S
C459 C458 1.358 . S
C459 H463 0.930 . S
C460 C458 1.356 . S
C460 C461 1.348 . S
C461 C456 1.353 . S
C461 C460 1.348 . S
C461 H513 0.929 . S
H462 C456 0.930 . S
H463 C459 0.930 . S
C464 N465 1.314 . S
C464 C466 1.353 . S
C464 H470 0.930 . S
N465 Li441 1.990 . S
N465 C464 1.314 . S
N465 C468 1.279 . S
C466 C464 1.353 . S
C466 C469 1.348 . S
C466 H514 0.929 . S
C467 C468 1.358 . S
C467 C469 1.356 . S
C467 H515 0.930 . S
C468 N465 1.279 . S
C468 C467 1.358 . S
C468 H471 0.930 . S
C469 C466 1.348 . S
C469 C467 1.356 . S
H470 C464 0.930 . S
H471 C468 0.930 . S
C472 C474 1.348 . S
C472 C475 1.356 . S
C472 O502 1.325 . S
N473 C476 1.314 . S
N473 C477 1.279 . S
C474 C472 1.348 . S
C474 C476 1.353 . S
C474 H516 0.929 . S
C475 C472 1.356 . S
C475 C477 1.358 . S
C475 H517 0.930 . S
C476 N473 1.314 . S
C476 C474 1.353 . S
C476 H518 0.930 . S
C477 N473 1.279 . S
C477 C475 1.358 . S
C477 H519 0.930 . S
C478 C479 1.348 . S
C478 C480 1.356 . S
C478 O503 1.325 . S
C479 C478 1.348 . S
C479 C481 1.353 . S
C479 H520 0.929 . S
C480 C478 1.356 . S
C480 C482 1.358 . S
C480 H521 0.930 . S
C481 C479 1.353 . S
C481 N483 1.314 . S
C481 H522 0.930 . S
C482 C480 1.358 . S
C482 N483 1.279 . S
C482 H523 0.930 . S
N483 C481 1.314 . S
N483 C482 1.279 . S
C484 C486 1.353 . S
C484 N487 1.314 . S
C484 H490 0.930 . S
C485 N487 1.279 . S
C485 C488 1.358 . S
C485 H491 0.930 . S
C486 C484 1.353 . S
C486 C489 1.348 . S
C486 H524 0.929 . S
N487 Li442 1.990 . S
N487 C484 1.314 . S
N487 C485 1.279 . S
C488 C485 1.358 . S
C488 C489 1.356 . S
C488 H525 0.930 . S
C489 C486 1.348 . S
C489 C488 1.356 . S
H490 C484 0.930 . S
H491 C485 0.930 . S
C492 N493 1.314 . S
C492 C494 1.353 . S
C492 H498 0.930 . S
N493 Li443 1.990 . S
N493 C492 1.314 . S
N493 C496 1.279 . S
C494 C492 1.353 . S
C494 C497 1.348 . S
C494 H526 0.929 . S
C495 C496 1.358 . S
C495 C497 1.356 . S
C495 H527 0.930 . S
C496 N493 1.279 . S
C496 C495 1.358 . S
C496 H499 0.930 . S
C497 C494 1.348 . S
C497 C495 1.356 . S
H498 C492 0.930 . S
H499 C496 0.930 . S
O500 Li440 1.956 . S
O500 Li441 1.970 . S
O500 Li442 1.961 . S
O500 C444 1.325 . S
O501 Li440 1.970 . S
O501 Li441 1.956 . S
O501 Li443 1.961 . S
O501 C450 1.325 . S
O502 Li440 1.961 . S
O502 Li442 1.956 . S
O502 Li443 1.970 . S
O502 C472 1.325 . S
O503 Li441 1.961 . S
O503 Li442 1.970 . S
O503 Li443 1.956 . S
O503 C478 1.325 . S
H504 C446 0.929 . S
H505 C447 0.930 . S
H506 C448 0.930 . S
H507 C449 0.930 . S
H508 C451 0.930 . S
H509 C453 0.929 . S
H510 C454 0.930 . S
H511 C455 0.930 . S
H512 C458 0.930 . S
H513 C461 0.929 . S
H514 C466 0.929 . S
H515 C467 0.930 . S
H516 C474 0.929 . S
H517 C475 0.930 . S
H518 C476 0.930 . S
H519 C477 0.930 . S
H520 C479 0.929 . S
H521 C480 0.930 . S
H522 C481 0.930 . S
H523 C482 0.930 . S
H524 C486 0.929 . S
H525 C488 0.930 . S
H526 C494 0.929 . S
H527 C495 0.930 . S
Li528 N545 1.990 . S
Li528 O588 1.956 1_655 S
Li528 O589 1.970 . S
Li528 O590 1.961 . S
Li529 N553 1.990 . S
Li529 O588 1.970 1_655 S
Li529 O589 1.956 . S
Li529 O591 1.961 . S
Li530 N575 1.990 . S
Li530 O588 1.961 . S
Li530 O590 1.956 1_455 S
Li530 O591 1.970 1_455 S
Li531 N581 1.990 . S
Li531 O589 1.961 . S
Li531 O590 1.970 . S
Li531 O591 1.956 . S
C532 C534 1.348 . S
C532 C535 1.356 . S
C532 O588 1.325 . S
N533 C536 1.314 . S
N533 C537 1.279 . S
C534 C532 1.348 . S
C534 C536 1.353 . S
C534 H592 0.929 . S
C535 C532 1.356 . S
C535 C537 1.358 . S
C535 H593 0.930 . S
C536 N533 1.314 . S
C536 C534 1.353 . S
C536 H594 0.930 . S
C537 N533 1.279 . S
C537 C535 1.358 . S
C537 H595 0.930 . S
C538 C541 1.348 . S
C538 C542 1.356 . S
C538 O589 1.325 . S
C539 N540 1.279 . S
C539 C542 1.358 . S
C539 H596 0.930 . S
N540 C539 1.279 . S
N540 C543 1.314 . S
C541 C538 1.348 . S
C541 C543 1.353 . S
C541 H597 0.929 . S
C542 C538 1.356 . S
C542 C539 1.358 . S
C542 H598 0.930 . S
C543 N540 1.314 . S
C543 C541 1.353 . S
C543 H599 0.930 . S
C544 N545 1.314 . S
C544 C549 1.353 . S
C544 H550 0.930 . S
N545 Li528 1.990 . S
N545 C544 1.314 . S
N545 C547 1.279 . S
C546 C547 1.358 . S
C546 C548 1.356 . S
C546 H600 0.930 . S
C547 N545 1.279 . S
C547 C546 1.358 . S
C547 H551 0.930 . S
C548 C546 1.356 . S
C548 C549 1.348 . S
C549 C544 1.353 . S
C549 C548 1.348 . S
C549 H601 0.929 . S
H550 C544 0.930 . S
H551 C547 0.930 . S
C552 N553 1.283 1_455 S
C552 C554 1.361 . S
C552 H558 0.958 . S
N553 Li529 1.990 . S
N553 C552 1.283 1_655 S
N553 C556 1.279 . S
C554 C552 1.361 . S
C554 C557 1.348 1_455 S
C554 H602 0.929 . S
C555 C556 1.358 . S
C555 C557 1.356 . S
C555 H603 0.930 . S
C556 N553 1.279 . S
C556 C555 1.358 . S
C556 H559 0.930 . S
C557 C554 1.348 1_655 S
C557 C555 1.356 . S
H558 C552 0.958 . S
H559 C556 0.930 . S
C560 C562 1.348 . S
C560 C563 1.356 . S
C560 O590 1.325 . S
N561 C564 1.314 . S
N561 C565 1.279 . S
C562 C560 1.348 . S
C562 C564 1.353 . S
C562 H604 0.929 . S
C563 C560 1.356 . S
C563 C565 1.358 . S
C563 H605 0.930 . S
C564 N561 1.314 . S
C564 C562 1.353 . S
C564 H606 0.930 . S
C565 N561 1.279 . S
C565 C563 1.358 . S
C565 H607 0.930 . S
C566 C567 1.348 1_655 S
C566 C568 1.356 . S
C566 O591 1.325 . S
C567 C566 1.348 1_455 S
C567 C569 1.353 . S
C567 H608 0.929 . S
C568 C566 1.356 . S
C568 C570 1.358 . S
C568 H609 0.930 . S
C569 C567 1.353 . S
C569 N571 1.314 1_455 S
C569 H610 0.930 . S
C570 C568 1.358 . S
C570 N571 1.279 . S
C570 H611 0.930 . S
N571 C569 1.314 1_655 S
N571 C570 1.279 . S
C572 C574 1.353 . S
C572 N575 1.314 . S
C572 H578 0.930 . S
C573 N575 1.279 . S
C573 C576 1.358 . S
C573 H579 0.930 . S
C574 C572 1.353 . S
C574 C577 1.348 . S
C574 H612 0.929 . S
N575 Li530 1.990 . S
N575 C572 1.314 . S
N575 C573 1.279 . S
C576 C573 1.358 . S
C576 C577 1.356 . S
C576 H613 0.930 . S
C577 C574 1.348 . S
C577 C576 1.356 . S
H578 C572 0.930 . S
H579 C573 0.930 . S
C580 N581 1.314 . S
C580 C582 1.353 . S
C580 H586 0.930 . S
N581 Li531 1.990 . S
N581 C580 1.314 . S
N581 C584 1.279 . S
C582 C580 1.353 . S
C582 C585 1.348 . S
C582 H614 0.929 . S
C583 C584 1.358 . S
C583 C585 1.356 . S
C583 H615 0.930 . S
C584 N581 1.279 . S
C584 C583 1.358 . S
C584 H587 0.930 . S
C585 C582 1.348 . S
C585 C583 1.356 . S
H586 C580 0.930 . S
H587 C584 0.930 . S
O588 Li528 1.956 1_455 S
O588 Li529 1.970 1_455 S
O588 Li530 1.961 . S
O588 C532 1.325 . S
O589 Li528 1.970 . S
O589 Li529 1.956 . S
O589 Li531 1.961 . S
O589 C538 1.325 . S
O590 Li528 1.961 . S
O590 Li530 1.956 1_655 S
O590 Li531 1.970 . S
O590 C560 1.325 . S
O591 Li529 1.961 . S
O591 Li530 1.970 1_655 S
O591 Li531 1.956 . S
O591 C566 1.325 . S
H592 C534 0.929 . S
H593 C535 0.930 . S
H594 C536 0.930 . S
H595 C537 0.930 . S
H596 C539 0.930 . S
H597 C541 0.929 . S
H598 C542 0.930 . S
H599 C543 0.930 . S
H600 C546 0.930 . S
H601 C549 0.929 . S
H602 C554 0.929 . S
H603 C555 0.930 . S
H604 C562 0.929 . S
H605 C563 0.930 . S
H606 C564 0.930 . S
H607 C565 0.930 . S
H608 C567 0.929 . S
H609 C568 0.930 . S
H610 C569 0.930 . S
H611 C570 0.930 . S
H612 C574 0.929 . S
H613 C576 0.930 . S
H614 C582 0.929 . S
H615 C583 0.930 . S
Li616 N633 1.990 . S
Li616 O676 1.956 1_565 S
Li616 O677 1.970 . S
Li616 O678 1.961 . S
Li617 N641 1.990 . S
Li617 O676 1.970 1_565 S
Li617 O677 1.956 . S
Li617 O679 1.961 . S
Li618 N663 1.990 . S
Li618 O676 1.961 . S
Li618 O678 1.956 1_545 S
Li618 O679 1.970 1_545 S
Li619 N669 1.990 . S
Li619 O677 1.961 . S
Li619 O678 1.970 . S
Li619 O679 1.956 . S
C620 C622 1.348 . S
C620 C623 1.356 . S
C620 O676 1.325 . S
N621 C624 1.314 . S
N621 C625 1.279 . S
C622 C620 1.348 . S
C622 C624 1.353 . S
C622 H680 0.929 . S
C623 C620 1.356 . S
C623 C625 1.358 . S
C623 H681 0.930 . S
C624 N621 1.314 . S
C624 C622 1.353 . S
C624 H682 0.930 . S
C625 N621 1.279 . S
C625 C623 1.358 . S
C625 H683 0.930 . S
C626 C629 1.348 . S
C626 C630 1.356 . S
C626 O677 1.325 . S
C627 N628 1.279 . S
C627 C630 1.358 . S
C627 H684 0.930 . S
N628 C627 1.279 . S
N628 C631 1.314 . S
C629 C626 1.348 . S
C629 C631 1.353 . S
C629 H685 0.929 . S
C630 C626 1.356 . S
C630 C627 1.358 . S
C630 H686 0.930 . S
C631 N628 1.314 . S
C631 C629 1.353 . S
C631 H687 0.930 . S
C632 N633 1.314 . S
C632 C637 1.353 . S
C632 H638 0.930 . S
N633 Li616 1.990 . S
N633 C632 1.314 . S
N633 C635 1.279 . S
C634 C635 1.358 . S
C634 C636 1.356 . S
C634 H688 0.930 . S
C635 N633 1.279 . S
C635 C634 1.358 . S
C635 H639 0.930 . S
C636 C634 1.356 . S
C636 C637 1.348 . S
C637 C632 1.353 . S
C637 C636 1.348 . S
C637 H689 0.929 . S
H638 C632 0.930 . S
H639 C635 0.930 . S
C640 N641 1.283 1_545 S
C640 C642 1.361 . S
C640 H646 0.957 . S
N641 Li617 1.990 . S
N641 C640 1.283 1_565 S
N641 C644 1.279 . S
C642 C640 1.361 . S
C642 C645 1.348 1_545 S
C642 H690 0.929 . S
C643 C644 1.358 . S
C643 C645 1.356 . S
C643 H691 0.930 . S
C644 N641 1.279 . S
C644 C643 1.358 . S
C644 H647 0.930 . S
C645 C642 1.348 1_565 S
C645 C643 1.356 . S
H646 C640 0.957 . S
H647 C644 0.930 . S
C648 C650 1.348 . S
C648 C651 1.356 . S
C648 O678 1.325 . S
N649 C652 1.314 . S
N649 C653 1.279 . S
C650 C648 1.348 . S
C650 C652 1.353 . S
C650 H692 0.929 . S
C651 C648 1.356 . S
C651 C653 1.358 . S
C651 H693 0.930 . S
C652 N649 1.314 . S
C652 C650 1.353 . S
C652 H694 0.930 . S
C653 N649 1.279 . S
C653 C651 1.358 . S
C653 H695 0.930 . S
C654 C655 1.348 1_565 S
C654 C656 1.356 . S
C654 O679 1.325 . S
C655 C654 1.348 1_545 S
C655 C657 1.353 . S
C655 H696 0.929 . S
C656 C654 1.356 . S
C656 C658 1.358 . S
C656 H697 0.930 . S
C657 C655 1.353 . S
C657 N659 1.314 1_545 S
C657 H698 0.930 . S
C658 C656 1.358 . S
C658 N659 1.279 . S
C658 H699 0.930 . S
N659 C657 1.314 1_565 S
N659 C658 1.279 . S
C660 C662 1.353 . S
C660 N663 1.314 . S
C660 H666 0.930 . S
C661 N663 1.279 . S
C661 C664 1.358 . S
C661 H667 0.930 . S
C662 C660 1.353 . S
C662 C665 1.348 . S
C662 H700 0.929 . S
N663 Li618 1.990 . S
N663 C660 1.314 . S
N663 C661 1.279 . S
C664 C661 1.358 . S
C664 C665 1.356 . S
C664 H701 0.930 . S
C665 C662 1.348 . S
C665 C664 1.356 . S
H666 C660 0.930 . S
H667 C661 0.930 . S
C668 N669 1.314 . S
C668 C670 1.353 . S
C668 H674 0.930 . S
N669 Li619 1.990 . S
N669 C668 1.314 . S
N669 C672 1.279 . S
C670 C668 1.353 . S
C670 C673 1.348 . S
C670 H702 0.929 . S
C671 C672 1.358 . S
C671 C673 1.356 . S
C671 H703 0.930 . S
C672 N669 1.279 . S
C672 C671 1.358 . S
C672 H675 0.930 . S
C673 C670 1.348 . S
C673 C671 1.356 . S
H674 C668 0.930 . S
H675 C672 0.930 . S
O676 Li616 1.956 1_545 S
O676 Li617 1.970 1_545 S
O676 Li618 1.961 . S
O676 C620 1.325 . S
O677 Li616 1.970 . S
O677 Li617 1.956 . S
O677 Li619 1.961 . S
O677 C626 1.325 . S
O678 Li616 1.961 . S
O678 Li618 1.956 1_565 S
O678 Li619 1.970 . S
O678 C648 1.325 . S
O679 Li617 1.961 . S
O679 Li618 1.970 1_565 S
O679 Li619 1.956 . S
O679 C654 1.325 . S
H680 C622 0.929 . S
H681 C623 0.930 . S
H682 C624 0.930 . S
H683 C625 0.930 . S
H684 C627 0.930 . S
H685 C629 0.929 . S
H686 C630 0.930 . S
H687 C631 0.930 . S
H688 C634 0.930 . S
H689 C637 0.929 . S
H690 C642 0.929 . S
H691 C643 0.930 . S
H692 C650 0.929 . S
H693 C651 0.930 . S
H694 C652 0.930 . S
H695 C653 0.930 . S
H696 C655 0.929 . S
H697 C656 0.930 . S
H698 C657 0.930 . S
H699 C658 0.930 . S
H700 C662 0.929 . S
H701 C664 0.930 . S
H702 C670 0.929 . S
H703 C671 0.930 . S
Li704 N721 1.990 . S
Li704 O764 1.956 . S
Li704 O765 1.970 . S
Li704 O766 1.961 . S
Li705 N729 1.990 . S
Li705 O764 1.970 . S
Li705 O765 1.956 . S
Li705 O767 1.961 . S
Li706 N751 1.990 . S
Li706 O764 1.961 . S
Li706 O766 1.956 . S
Li706 O767 1.970 . S
Li707 N757 1.990 . S
Li707 O765 1.961 . S
Li707 O766 1.970 . S
Li707 O767 1.956 . S
C708 C710 1.348 . S
C708 C711 1.356 . S
C708 O764 1.325 . S
N709 C712 1.314 . S
N709 C713 1.279 . S
C710 C708 1.348 . S
C710 C712 1.353 . S
C710 H768 0.929 . S
C711 C708 1.356 . S
C711 C713 1.358 . S
C711 H769 0.930 . S
C712 N709 1.314 . S
C712 C710 1.353 . S
C712 H770 0.930 . S
C713 N709 1.279 . S
C713 C711 1.358 . S
C713 H771 0.930 . S
C714 C717 1.348 . S
C714 C718 1.356 . S
C714 O765 1.325 . S
C715 N716 1.279 . S
C715 C718 1.358 . S
C715 H772 0.930 . S
N716 C715 1.279 . S
N716 C719 1.314 . S
C717 C714 1.348 . S
C717 C719 1.353 . S
C717 H773 0.929 . S
C718 C714 1.356 . S
C718 C715 1.358 . S
C718 H774 0.930 . S
C719 N716 1.314 . S
C719 C717 1.353 . S
C719 H775 0.930 . S
C720 N721 1.314 . S
C720 C725 1.353 . S
C720 H726 0.930 . S
N721 Li704 1.990 . S
N721 C720 1.314 . S
N721 C723 1.279 . S
C722 C723 1.358 . S
C722 C724 1.356 . S
C722 H776 0.930 . S
C723 N721 1.279 . S
C723 C722 1.358 . S
C723 H727 0.930 . S
C724 C722 1.356 . S
C724 C725 1.348 . S
C725 C720 1.353 . S
C725 C724 1.348 . S
C725 H777 0.929 . S
H726 C720 0.930 . S
H727 C723 0.930 . S
C728 N729 1.314 . S
C728 C730 1.353 . S
C728 H734 0.930 . S
N729 Li705 1.990 . S
N729 C728 1.314 . S
N729 C732 1.279 . S
C730 C728 1.353 . S
C730 C733 1.348 . S
C730 H778 0.929 . S
C731 C732 1.358 . S
C731 C733 1.356 . S
C731 H779 0.930 . S
C732 N729 1.279 . S
C732 C731 1.358 . S
C732 H735 0.930 . S
C733 C730 1.348 . S
C733 C731 1.356 . S
H734 C728 0.930 . S
H735 C732 0.930 . S
C736 C738 1.348 . S
C736 C739 1.356 . S
C736 O766 1.325 . S
N737 C740 1.314 . S
N737 C741 1.279 . S
C738 C736 1.348 . S
C738 C740 1.353 . S
C738 H780 0.929 . S
C739 C736 1.356 . S
C739 C741 1.358 . S
C739 H781 0.930 . S
C740 N737 1.314 . S
C740 C738 1.353 . S
C740 H782 0.930 . S
C741 N737 1.279 . S
C741 C739 1.358 . S
C741 H783 0.930 . S
C742 C743 1.348 . S
C742 C744 1.356 . S
C742 O767 1.325 . S
C743 C742 1.348 . S
C743 C745 1.353 . S
C743 H784 0.929 . S
C744 C742 1.356 . S
C744 C746 1.358 . S
C744 H785 0.930 . S
C745 C743 1.353 . S
C745 N747 1.314 . S
C745 H786 0.930 . S
C746 C744 1.358 . S
C746 N747 1.279 . S
C746 H787 0.930 . S
N747 C745 1.314 . S
N747 C746 1.279 . S
C748 C750 1.353 . S
C748 N751 1.314 . S
C748 H754 0.930 . S
C749 N751 1.279 . S
C749 C752 1.358 . S
C749 H755 0.930 . S
C750 C748 1.353 . S
C750 C753 1.348 . S
C750 H788 0.929 . S
N751 Li706 1.990 . S
N751 C748 1.314 . S
N751 C749 1.279 . S
C752 C749 1.358 . S
C752 C753 1.356 . S
C752 H789 0.930 . S
C753 C750 1.348 . S
C753 C752 1.356 . S
H754 C748 0.930 . S
H755 C749 0.930 . S
C756 N757 1.314 . S
C756 C758 1.353 . S
C756 H762 0.930 . S
N757 Li707 1.990 . S
N757 C756 1.314 . S
N757 C760 1.279 . S
C758 C756 1.353 . S
C758 C761 1.348 . S
C758 H790 0.929 . S
C759 C760 1.358 . S
C759 C761 1.356 . S
C759 H791 0.930 . S
C760 N757 1.279 . S
C760 C759 1.358 . S
C760 H763 0.930 . S
C761 C758 1.348 . S
C761 C759 1.356 . S
H762 C756 0.930 . S
H763 C760 0.930 . S
O764 Li704 1.956 . S
O764 Li705 1.970 . S
O764 Li706 1.961 . S
O764 C708 1.325 . S
O765 Li704 1.970 . S
O765 Li705 1.956 . S
O765 Li707 1.961 . S
O765 C714 1.325 . S
O766 Li704 1.961 . S
O766 Li706 1.956 . S
O766 Li707 1.970 . S
O766 C736 1.325 . S
O767 Li705 1.961 . S
O767 Li706 1.970 . S
O767 Li707 1.956 . S
O767 C742 1.325 . S
H768 C710 0.929 . S
H769 C711 0.930 . S
H770 C712 0.930 . S
H771 C713 0.930 . S
H772 C715 0.930 . S
H773 C717 0.929 . S
H774 C718 0.930 . S
H775 C719 0.930 . S
H776 C722 0.930 . S
H777 C725 0.929 . S
H778 C730 0.929 . S
H779 C731 0.930 . S
H780 C738 0.929 . S
H781 C739 0.930 . S
H782 C740 0.930 . S
H783 C741 0.930 . S
H784 C743 0.929 . S
H785 C744 0.930 . S
H786 C745 0.930 . S
H787 C746 0.930 . S
H788 C750 0.929 . S
H789 C752 0.930 . S
H790 C758 0.929 . S
H791 C759 0.930 . S
Li792 N809 1.990 . S
Li792 O852 1.956 . S
Li792 O853 1.970 . S
Li792 O854 1.961 . S
Li793 N817 1.990 . S
Li793 O852 1.970 . S
Li793 O853 1.956 . S
Li793 O855 1.961 . S
Li794 N839 1.990 . S
Li794 O852 1.961 . S
Li794 O854 1.956 . S
Li794 O855 1.970 . S
Li795 N845 1.990 . S
Li795 O853 1.961 . S
Li795 O854 1.970 . S
Li795 O855 1.956 . S
C796 C798 1.348 . S
C796 C799 1.356 . S
C796 O852 1.325 . S
N797 C800 1.314 . S
N797 C801 1.279 . S
C798 C796 1.348 . S
C798 C800 1.353 . S
C798 H856 0.929 . S
C799 C796 1.356 . S
C799 C801 1.358 . S
C799 H857 0.930 . S
C800 N797 1.314 . S
C800 C798 1.353 . S
C800 H858 0.930 . S
C801 N797 1.279 . S
C801 C799 1.358 . S
C801 H859 0.930 . S
C802 C805 1.348 . S
C802 C806 1.356 . S
C802 O853 1.325 . S
C803 N804 1.279 . S
C803 C806 1.358 . S
C803 H860 0.930 . S
N804 C803 1.279 . S
N804 C807 1.314 . S
C805 C802 1.348 . S
C805 C807 1.353 . S
C805 H861 0.929 . S
C806 C802 1.356 . S
C806 C803 1.358 . S
C806 H862 0.930 . S
C807 N804 1.314 . S
C807 C805 1.353 . S
C807 H863 0.930 . S
C808 N809 1.314 . S
C808 C813 1.353 . S
C808 H814 0.930 . S
N809 Li792 1.990 . S
N809 C808 1.314 . S
N809 C811 1.279 . S
C810 C811 1.358 . S
C810 C812 1.356 . S
C810 H864 0.930 . S
C811 N809 1.279 . S
C811 C810 1.358 . S
C811 H815 0.930 . S
C812 C810 1.356 . S
C812 C813 1.348 . S
C813 C808 1.353 . S
C813 C812 1.348 . S
C813 H865 0.929 . S
H814 C808 0.930 . S
H815 C811 0.930 . S
C816 N817 1.314 . S
C816 C818 1.353 . S
C816 H822 0.930 . S
N817 Li793 1.990 . S
N817 C816 1.314 . S
N817 C820 1.279 . S
C818 C816 1.353 . S
C818 C821 1.348 . S
C818 H866 0.929 . S
C819 C820 1.358 . S
C819 C821 1.356 . S
C819 H867 0.930 . S
C820 N817 1.279 . S
C820 C819 1.358 . S
C820 H823 0.930 . S
C821 C818 1.348 . S
C821 C819 1.356 . S
H822 C816 0.930 . S
H823 C820 0.930 . S
C824 C826 1.348 . S
C824 C827 1.356 . S
C824 O854 1.325 . S
N825 C828 1.314 . S
N825 C829 1.279 . S
C826 C824 1.348 . S
C826 C828 1.353 . S
C826 H868 0.929 . S
C827 C824 1.356 . S
C827 C829 1.358 . S
C827 H869 0.930 . S
C828 N825 1.314 . S
C828 C826 1.353 . S
C828 H870 0.930 . S
C829 N825 1.279 . S
C829 C827 1.358 . S
C829 H871 0.930 . S
C830 C831 1.348 . S
C830 C832 1.356 . S
C830 O855 1.325 . S
C831 C830 1.348 . S
C831 C833 1.353 . S
C831 H872 0.929 . S
C832 C830 1.356 . S
C832 C834 1.358 . S
C832 H873 0.930 . S
C833 C831 1.353 . S
C833 N835 1.314 . S
C833 H874 0.930 . S
C834 C832 1.358 . S
C834 N835 1.279 . S
C834 H875 0.930 . S
N835 C833 1.314 . S
N835 C834 1.279 . S
C836 C838 1.353 . S
C836 N839 1.314 . S
C836 H842 0.930 . S
C837 N839 1.279 . S
C837 C840 1.358 . S
C837 H843 0.930 . S
C838 C836 1.353 . S
C838 C841 1.348 . S
C838 H876 0.929 . S
N839 Li794 1.990 . S
N839 C836 1.314 . S
N839 C837 1.279 . S
C840 C837 1.358 . S
C840 C841 1.356 . S
C840 H877 0.930 . S
C841 C838 1.348 . S
C841 C840 1.356 . S
H842 C836 0.930 . S
H843 C837 0.930 . S
C844 N845 1.314 . S
C844 C846 1.353 . S
C844 H850 0.930 . S
N845 Li795 1.990 . S
N845 C844 1.314 . S
N845 C848 1.279 . S
C846 C844 1.353 . S
C846 C849 1.348 . S
C846 H878 0.929 . S
C847 C848 1.358 . S
C847 C849 1.356 . S
C847 H879 0.930 . S
C848 N845 1.279 . S
C848 C847 1.358 . S
C848 H851 0.930 . S
C849 C846 1.348 . S
C849 C847 1.356 . S
H850 C844 0.930 . S
H851 C848 0.930 . S
O852 Li792 1.956 . S
O852 Li793 1.970 . S
O852 Li794 1.961 . S
O852 C796 1.325 . S
O853 Li792 1.970 . S
O853 Li793 1.956 . S
O853 Li795 1.961 . S
O853 C802 1.325 . S
O854 Li792 1.961 . S
O854 Li794 1.956 . S
O854 Li795 1.970 . S
O854 C824 1.325 . S
O855 Li793 1.961 . S
O855 Li794 1.970 . S
O855 Li795 1.956 . S
O855 C830 1.325 . S
H856 C798 0.929 . S
H857 C799 0.930 . S
H858 C800 0.930 . S
H859 C801 0.930 . S
H860 C803 0.930 . S
H861 C805 0.929 . S
H862 C806 0.930 . S
H863 C807 0.930 . S
H864 C810 0.930 . S
H865 C813 0.929 . S
H866 C818 0.929 . S
H867 C819 0.930 . S
H868 C826 0.929 . S
H869 C827 0.930 . S
H870 C828 0.930 . S
H871 C829 0.930 . S
H872 C831 0.929 . S
H873 C832 0.930 . S
H874 C833 0.930 . S
H875 C834 0.930 . S
H876 C838 0.929 . S
H877 C840 0.930 . S
H878 C846 0.929 . S
H879 C847 0.930 . S
Li880 N897 1.990 . S
Li880 O940 1.956 . S
Li880 O941 1.970 1_455 S
Li880 O942 1.961 . S
Li881 N905 1.990 . S
Li881 O940 1.970 1_655 S
Li881 O941 1.956 . S
Li881 O943 1.961 1_655 S
Li882 N927 1.990 . S
Li882 O940 1.961 . S
Li882 O942 1.956 . S
Li882 O943 1.970 . S
Li883 N933 1.990 . S
Li883 O941 1.961 1_455 S
Li883 O942 1.970 . S
Li883 O943 1.956 . S
C884 C886 1.348 1_455 S
C884 C887 1.356 . S
C884 O940 1.325 . S
N885 C888 1.314 . S
N885 C889 1.279 1_655 S
C886 C884 1.348 1_655 S
C886 C888 1.353 . S
C886 H944 0.929 . S
C887 C884 1.356 . S
C887 C889 1.358 . S
C887 H945 0.930 . S
C888 N885 1.314 . S
C888 C886 1.353 . S
C888 H946 0.930 . S
C889 N885 1.279 1_455 S
C889 C887 1.358 . S
C889 H947 0.930 . S
C890 C893 1.348 . S
C890 C894 1.356 . S
C890 O941 1.325 . S
C891 N892 1.279 . S
C891 C894 1.358 . S
C891 H948 0.930 . S
N892 C891 1.279 . S
N892 C895 1.314 . S
C893 C890 1.348 . S
C893 C895 1.353 . S
C893 H949 0.929 . S
C894 C890 1.356 . S
C894 C891 1.358 . S
C894 H950 0.930 . S
C895 N892 1.314 . S
C895 C893 1.353 . S
C895 H951 0.930 . S
C896 N897 1.314 . S
C896 C901 1.353 . S
C896 H902 0.930 . S
N897 Li880 1.990 . S
N897 C896 1.314 . S
N897 C899 1.279 . S
C898 C899 1.359 . S
C898 C900 1.357 . S
C898 H952 0.928 1_455 S
C899 N897 1.279 . S
C899 C898 1.359 . S
C899 H903 0.930 1_455 S
C900 C898 1.357 . S
C900 C901 1.348 . S
C901 C896 1.353 . S
C901 C900 1.348 . S
C901 H953 0.929 . S
H902 C896 0.930 . S
H903 C899 0.930 1_655 S
C904 N905 1.314 . S
C904 C906 1.353 . S
C904 H910 0.930 . S
N905 Li881 1.990 . S
N905 C904 1.314 . S
N905 C908 1.279 . S
C906 C904 1.353 . S
C906 C909 1.348 . S
C906 H954 0.929 . S
C907 C908 1.358 . S
C907 C909 1.356 . S
C907 H955 0.930 . S
C908 N905 1.279 . S
C908 C907 1.358 . S
C908 H911 0.930 . S
C909 C906 1.348 . S
C909 C907 1.356 . S
H910 C904 0.930 . S
H911 C908 0.930 . S
C912 C914 1.348 . S
C912 C915 1.356 . S
C912 O942 1.325 . S
N913 C916 1.314 . S
N913 C917 1.279 . S
C914 C912 1.348 . S
C914 C916 1.353 . S
C914 H956 0.929 . S
C915 C912 1.356 . S
C915 C917 1.358 . S
C915 H957 0.930 . S
C916 N913 1.314 . S
C916 C914 1.353 . S
C916 H958 0.930 . S
C917 N913 1.279 . S
C917 C915 1.358 . S
C917 H959 0.930 . S
C918 C919 1.348 . S
C918 C920 1.356 . S
C918 O943 1.325 . S
C919 C918 1.348 . S
C919 C921 1.353 . S
C919 H960 0.929 . S
C920 C918 1.356 . S
C920 C922 1.358 . S
C920 H961 0.930 1_455 S
C921 C919 1.353 . S
C921 N923 1.314 . S
C921 H962 0.930 . S
C922 C920 1.358 . S
C922 N923 1.279 . S
C922 H963 0.930 1_455 S
N923 C921 1.314 . S
N923 C922 1.279 . S
C924 C926 1.353 . S
C924 N927 1.314 . S
C924 H930 0.930 . S
C925 N927 1.279 . S
C925 C928 1.358 . S
C925 H931 0.930 . S
C926 C924 1.353 . S
C926 C929 1.348 . S
C926 H964 0.929 . S
N927 Li882 1.990 . S
N927 C924 1.314 . S
N927 C925 1.279 . S
C928 C925 1.358 . S
C928 C929 1.356 . S
C928 H965 0.930 . S
C929 C926 1.348 . S
C929 C928 1.356 . S
H930 C924 0.930 . S
H931 C925 0.930 . S
C932 N933 1.314 . S
C932 C934 1.353 . S
C932 H938 0.930 . S
N933 Li883 1.990 . S
N933 C932 1.314 . S
N933 C936 1.279 . S
C934 C932 1.353 . S
C934 C937 1.348 . S
C934 H966 0.929 . S
C935 C936 1.358 . S
C935 C937 1.356 . S
C935 H967 0.930 . S
C936 N933 1.279 . S
C936 C935 1.358 . S
C936 H939 0.930 . S
C937 C934 1.348 . S
C937 C935 1.356 . S
H938 C932 0.930 . S
H939 C936 0.930 . S
O940 Li880 1.956 . S
O940 Li881 1.970 1_455 S
O940 Li882 1.961 . S
O940 C884 1.325 . S
O941 Li880 1.970 1_655 S
O941 Li881 1.956 . S
O941 Li883 1.961 1_655 S
O941 C890 1.325 . S
O942 Li880 1.961 . S
O942 Li882 1.956 . S
O942 Li883 1.970 . S
O942 C912 1.325 . S
O943 Li881 1.961 1_455 S
O943 Li882 1.970 . S
O943 Li883 1.956 . S
O943 C918 1.325 . S
H944 C886 0.929 . S
H945 C887 0.930 . S
H946 C888 0.930 . S
H947 C889 0.930 . S
H948 C891 0.930 . S
H949 C893 0.929 . S
H950 C894 0.930 . S
H951 C895 0.930 . S
H952 C898 0.928 1_655 S
H953 C901 0.929 . S
H954 C906 0.929 . S
H955 C907 0.930 . S
H956 C914 0.929 . S
H957 C915 0.930 . S
H958 C916 0.930 . S
H959 C917 0.930 . S
H960 C919 0.929 . S
H961 C920 0.930 1_655 S
H962 C921 0.930 . S
H963 C922 0.930 1_655 S
H964 C926 0.929 . S
H965 C928 0.930 . S
H966 C934 0.929 . S
H967 C935 0.930 . S
Li968 N985 1.990 . S
Li968 O1028 1.956 . S
Li968 O1029 1.970 1_545 S
Li968 O1030 1.961 . S
Li969 N993 1.990 . S
Li969 O1028 1.970 1_565 S
Li969 O1029 1.956 . S
Li969 O1031 1.961 1_565 S
Li970 N1015 1.990 . S
Li970 O1028 1.961 . S
Li970 O1030 1.956 . S
Li970 O1031 1.970 . S
Li971 N1021 1.990 . S
Li971 O1029 1.961 1_545 S
Li971 O1030 1.970 . S
Li971 O1031 1.956 . S
C972 C974 1.348 1_545 S
C972 C975 1.356 . S
C972 O1028 1.325 . S
N973 C976 1.314 . S
N973 C977 1.279 1_565 S
C974 C972 1.348 1_565 S
C974 C976 1.353 . S
C974 H1032 0.929 . S
C975 C972 1.356 . S
C975 C977 1.358 . S
C975 H1033 0.930 . S
C976 N973 1.314 . S
C976 C974 1.353 . S
C976 H1034 0.930 . S
C977 N973 1.279 1_545 S
C977 C975 1.358 . S
C977 H1035 0.930 . S
C978 C981 1.348 . S
C978 C982 1.356 . S
C978 O1029 1.325 . S
C979 N980 1.279 . S
C979 C982 1.358 . S
C979 H1036 0.930 . S
N980 C979 1.279 . S
N980 C983 1.314 . S
C981 C978 1.348 . S
C981 C983 1.353 . S
C981 H1037 0.929 . S
C982 C978 1.356 . S
C982 C979 1.358 . S
C982 H1038 0.930 . S
C983 N980 1.314 . S
C983 C981 1.353 . S
C983 H1039 0.930 . S
C984 N985 1.314 . S
C984 C989 1.353 . S
C984 H990 0.930 . S
N985 Li968 1.990 . S
N985 C984 1.314 . S
N985 C987 1.279 . S
C986 C987 1.359 . S
C986 C988 1.357 . S
C986 H1040 0.928 1_545 S
C987 N985 1.279 . S
C987 C986 1.359 . S
C987 H991 0.930 1_545 S
C988 C986 1.357 . S
C988 C989 1.348 . S
C989 C984 1.353 . S
C989 C988 1.348 . S
C989 H1041 0.929 . S
H990 C984 0.930 . S
H991 C987 0.930 1_565 S
C992 N993 1.314 . S
C992 C994 1.353 . S
C992 H998 0.930 . S
N993 Li969 1.990 . S
N993 C992 1.314 . S
N993 C996 1.279 . S
C994 C992 1.353 . S
C994 C997 1.348 . S
C994 H1042 0.929 . S
C995 C996 1.358 . S
C995 C997 1.356 . S
C995 H1043 0.930 . S
C996 N993 1.279 . S
C996 C995 1.358 . S
C996 H999 0.930 . S
C997 C994 1.348 . S
C997 C995 1.356 . S
H998 C992 0.930 . S
H999 C996 0.930 . S
C1000 C1002 1.348 . S
C1000 C1003 1.356 . S
C1000 O1030 1.325 . S
N1001 C1004 1.314 . S
N1001 C1005 1.279 . S
C1002 C1000 1.348 . S
C1002 C1004 1.353 . S
C1002 H1044 0.929 . S
C1003 C1000 1.356 . S
C1003 C1005 1.358 . S
C1003 H1045 0.930 . S
C1004 N1001 1.314 . S
C1004 C1002 1.353 . S
C1004 H1046 0.930 . S
C1005 N1001 1.279 . S
C1005 C1003 1.358 . S
C1005 H1047 0.930 . S
C1006 C1007 1.348 . S
C1006 C1008 1.356 . S
C1006 O1031 1.325 . S
C1007 C1006 1.348 . S
C1007 C1009 1.353 . S
C1007 H1048 0.929 . S
C1008 C1006 1.356 . S
C1008 C1010 1.358 . S
C1008 H1049 0.930 1_545 S
C1009 C1007 1.353 . S
C1009 N1011 1.314 . S
C1009 H1050 0.930 . S
C1010 C1008 1.358 . S
C1010 N1011 1.279 . S
C1010 H1051 0.930 1_545 S
N1011 C1009 1.314 . S
N1011 C1010 1.279 . S
C1012 C1014 1.353 . S
C1012 N1015 1.314 . S
C1012 H1018 0.930 . S
C1013 N1015 1.279 . S
C1013 C1016 1.358 . S
C1013 H1019 0.930 . S
C1014 C1012 1.353 . S
C1014 C1017 1.348 . S
C1014 H1052 0.929 . S
N1015 Li970 1.990 . S
N1015 C1012 1.314 . S
N1015 C1013 1.279 . S
C1016 C1013 1.358 . S
C1016 C1017 1.356 . S
C1016 H1053 0.930 . S
C1017 C1014 1.348 . S
C1017 C1016 1.356 . S
H1018 C1012 0.930 . S
H1019 C1013 0.930 . S
C1020 N1021 1.314 . S
C1020 C1022 1.353 . S
C1020 H1026 0.930 . S
N1021 Li971 1.990 . S
N1021 C1020 1.314 . S
N1021 C1024 1.279 . S
C1022 C1020 1.353 . S
C1022 C1025 1.348 . S
C1022 H1054 0.929 . S
C1023 C1024 1.358 . S
C1023 C1025 1.356 . S
C1023 H1055 0.930 . S
C1024 N1021 1.279 . S
C1024 C1023 1.358 . S
C1024 H1027 0.930 . S
C1025 C1022 1.348 . S
C1025 C1023 1.356 . S
H1026 C1020 0.930 . S
H1027 C1024 0.930 . S
O1028 Li968 1.956 . S
O1028 Li969 1.970 1_545 S
O1028 Li970 1.961 . S
O1028 C972 1.325 . S
O1029 Li968 1.970 1_565 S
O1029 Li969 1.956 . S
O1029 Li971 1.961 1_565 S
O1029 C978 1.325 . S
O1030 Li968 1.961 . S
O1030 Li970 1.956 . S
O1030 Li971 1.970 . S
O1030 C1000 1.325 . S
O1031 Li969 1.961 1_545 S
O1031 Li970 1.970 . S
O1031 Li971 1.956 . S
O1031 C1006 1.325 . S
H1032 C974 0.929 . S
H1033 C975 0.930 . S
H1034 C976 0.930 . S
H1035 C977 0.930 . S
H1036 C979 0.930 . S
H1037 C981 0.929 . S
H1038 C982 0.930 . S
H1039 C983 0.930 . S
H1040 C986 0.928 1_565 S
H1041 C989 0.929 . S
H1042 C994 0.929 . S
H1043 C995 0.930 . S
H1044 C1002 0.929 . S
H1045 C1003 0.930 . S
H1046 C1004 0.930 . S
H1047 C1005 0.930 . S
H1048 C1007 0.929 . S
H1049 C1008 0.930 1_565 S
H1050 C1009 0.930 . S
H1051 C1010 0.930 1_565 S
H1052 C1014 0.929 . S
H1053 C1016 0.930 . S
H1054 C1022 0.929 . S
H1055 C1023 0.930 . S
Li1056 N1073 1.990 . S
Li1056 O1116 1.956 . S
Li1056 O1117 1.970 . S
Li1056 O1118 1.961 . S
Li1057 N1081 1.990 . S
Li1057 O1116 1.970 . S
Li1057 O1117 1.956 . S
Li1057 O1119 1.961 . S
Li1058 N1103 1.990 . S
Li1058 O1116 1.961 . S
Li1058 O1118 1.956 . S
Li1058 O1119 1.970 . S
Li1059 N1109 1.990 . S
Li1059 O1117 1.961 . S
Li1059 O1118 1.970 . S
Li1059 O1119 1.956 . S
C1060 C1062 1.348 . S
C1060 C1063 1.356 . S
C1060 O1116 1.325 . S
N1061 C1064 1.314 . S
N1061 C1065 1.279 . S
C1062 C1060 1.348 . S
C1062 C1064 1.353 . S
C1062 H1120 0.929 . S
C1063 C1060 1.356 . S
C1063 C1065 1.358 . S
C1063 H1121 0.930 . S
C1064 N1061 1.314 . S
C1064 C1062 1.353 . S
C1064 H1122 0.930 . S
C1065 N1061 1.279 . S
C1065 C1063 1.358 . S
C1065 H1123 0.930 . S
C1066 C1069 1.348 . S
C1066 C1070 1.356 . S
C1066 O1117 1.325 . S
C1067 N1068 1.279 . S
C1067 C1070 1.358 . S
C1067 H1124 0.930 . S
N1068 C1067 1.279 . S
N1068 C1071 1.314 . S
C1069 C1066 1.348 . S
C1069 C1071 1.353 . S
C1069 H1125 0.929 . S
C1070 C1066 1.356 . S
C1070 C1067 1.358 . S
C1070 H1126 0.930 . S
C1071 N1068 1.314 . S
C1071 C1069 1.353 . S
C1071 H1127 0.930 . S
C1072 N1073 1.314 . S
C1072 C1077 1.353 . S
C1072 H1078 0.930 . S
N1073 Li1056 1.990 . S
N1073 C1072 1.314 . S
N1073 C1075 1.279 . S
C1074 C1075 1.358 . S
C1074 C1076 1.356 . S
C1074 H1128 0.930 . S
C1075 N1073 1.279 . S
C1075 C1074 1.358 . S
C1075 H1079 0.930 . S
C1076 C1074 1.356 . S
C1076 C1077 1.348 . S
C1077 C1072 1.353 . S
C1077 C1076 1.348 . S
C1077 H1129 0.929 . S
H1078 C1072 0.930 . S
H1079 C1075 0.930 . S
C1080 N1081 1.314 . S
C1080 C1082 1.353 . S
C1080 H1086 0.930 . S
N1081 Li1057 1.990 . S
N1081 C1080 1.314 . S
N1081 C1084 1.279 . S
C1082 C1080 1.353 . S
C1082 C1085 1.348 . S
C1082 H1130 0.929 . S
C1083 C1084 1.358 . S
C1083 C1085 1.356 . S
C1083 H1131 0.930 . S
C1084 N1081 1.279 . S
C1084 C1083 1.358 . S
C1084 H1087 0.930 . S
C1085 C1082 1.348 . S
C1085 C1083 1.356 . S
H1086 C1080 0.930 . S
H1087 C1084 0.930 . S
C1088 C1090 1.348 . S
C1088 C1091 1.356 . S
C1088 O1118 1.325 . S
N1089 C1092 1.314 . S
N1089 C1093 1.279 . S
C1090 C1088 1.348 . S
C1090 C1092 1.353 . S
C1090 H1132 0.929 . S
C1091 C1088 1.356 . S
C1091 C1093 1.358 . S
C1091 H1133 0.930 . S
C1092 N1089 1.314 . S
C1092 C1090 1.353 . S
C1092 H1134 0.930 . S
C1093 N1089 1.279 . S
C1093 C1091 1.358 . S
C1093 H1135 0.930 . S
C1094 C1095 1.348 . S
C1094 C1096 1.356 . S
C1094 O1119 1.325 . S
C1095 C1094 1.348 . S
C1095 C1097 1.353 . S
C1095 H1136 0.929 . S
C1096 C1094 1.356 . S
C1096 C1098 1.358 . S
C1096 H1137 0.930 . S
C1097 C1095 1.353 . S
C1097 N1099 1.314 . S
C1097 H1138 0.930 . S
C1098 C1096 1.358 . S
C1098 N1099 1.279 . S
C1098 H1139 0.930 . S
N1099 C1097 1.314 . S
N1099 C1098 1.279 . S
C1100 C1102 1.353 . S
C1100 N1103 1.314 . S
C1100 H1106 0.930 . S
C1101 N1103 1.279 . S
C1101 C1104 1.358 . S
C1101 H1107 0.930 . S
C1102 C1100 1.353 . S
C1102 C1105 1.348 . S
C1102 H1140 0.929 . S
N1103 Li1058 1.990 . S
N1103 C1100 1.314 . S
N1103 C1101 1.279 . S
C1104 C1101 1.358 . S
C1104 C1105 1.356 . S
C1104 H1141 0.930 . S
C1105 C1102 1.348 . S
C1105 C1104 1.356 . S
H1106 C1100 0.930 . S
H1107 C1101 0.930 . S
C1108 N1109 1.314 . S
C1108 C1110 1.353 . S
C1108 H1114 0.930 . S
N1109 Li1059 1.990 . S
N1109 C1108 1.314 . S
N1109 C1112 1.279 . S
C1110 C1108 1.353 . S
C1110 C1113 1.348 . S
C1110 H1142 0.929 . S
C1111 C1112 1.358 . S
C1111 C1113 1.356 . S
C1111 H1143 0.930 . S
C1112 N1109 1.279 . S
C1112 C1111 1.358 . S
C1112 H1115 0.930 . S
C1113 C1110 1.348 . S
C1113 C1111 1.356 . S
H1114 C1108 0.930 . S
H1115 C1112 0.930 . S
O1116 Li1056 1.956 . S
O1116 Li1057 1.970 . S
O1116 Li1058 1.961 . S
O1116 C1060 1.325 . S
O1117 Li1056 1.970 . S
O1117 Li1057 1.956 . S
O1117 Li1059 1.961 . S
O1117 C1066 1.325 . S
O1118 Li1056 1.961 . S
O1118 Li1058 1.956 . S
O1118 Li1059 1.970 . S
O1118 C1088 1.325 . S
O1119 Li1057 1.961 . S
O1119 Li1058 1.970 . S
O1119 Li1059 1.956 . S
O1119 C1094 1.325 . S
H1120 C1062 0.929 . S
H1121 C1063 0.930 . S
H1122 C1064 0.930 . S
H1123 C1065 0.930 . S
H1124 C1067 0.930 . S
H1125 C1069 0.929 . S
H1126 C1070 0.930 . S
H1127 C1071 0.930 . S
H1128 C1074 0.930 . S
H1129 C1077 0.929 . S
H1130 C1082 0.929 . S
H1131 C1083 0.930 . S
H1132 C1090 0.929 . S
H1133 C1091 0.930 . S
H1134 C1092 0.930 . S
H1135 C1093 0.930 . S
H1136 C1095 0.929 . S
H1137 C1096 0.930 . S
H1138 C1097 0.930 . S
H1139 C1098 0.930 . S
H1140 C1102 0.929 . S
H1141 C1104 0.930 . S
H1142 C1110 0.929 . S
H1143 C1111 0.930 . S
Li1144 N1161 1.990 . S
Li1144 O1204 1.956 . S
Li1144 O1205 1.970 . S
Li1144 O1206 1.961 . S
Li1145 N1169 1.990 . S
Li1145 O1204 1.970 . S
Li1145 O1205 1.956 . S
Li1145 O1207 1.961 . S
Li1146 N1191 1.990 . S
Li1146 O1204 1.961 . S
Li1146 O1206 1.956 . S
Li1146 O1207 1.970 . S
Li1147 N1197 1.990 . S
Li1147 O1205 1.961 . S
Li1147 O1206 1.970 . S
Li1147 O1207 1.956 . S
C1148 C1150 1.348 . S
C1148 C1151 1.356 . S
C1148 O1204 1.325 . S
N1149 C1152 1.314 . S
N1149 C1153 1.279 . S
C1150 C1148 1.348 . S
C1150 C1152 1.353 . S
C1150 H1208 0.929 . S
C1151 C1148 1.356 . S
C1151 C1153 1.358 . S
C1151 H1209 0.930 . S
C1152 N1149 1.314 . S
C1152 C1150 1.353 . S
C1152 H1210 0.930 . S
C1153 N1149 1.279 . S
C1153 C1151 1.358 . S
C1153 H1211 0.930 . S
C1154 C1157 1.348 . S
C1154 C1158 1.356 . S
C1154 O1205 1.325 . S
C1155 N1156 1.279 . S
C1155 C1158 1.358 . S
C1155 H1212 0.930 . S
N1156 C1155 1.279 . S
N1156 C1159 1.314 . S
C1157 C1154 1.348 . S
C1157 C1159 1.353 . S
C1157 H1213 0.929 . S
C1158 C1154 1.356 . S
C1158 C1155 1.358 . S
C1158 H1214 0.930 . S
C1159 N1156 1.314 . S
C1159 C1157 1.353 . S
C1159 H1215 0.930 . S
C1160 N1161 1.314 . S
C1160 C1165 1.353 . S
C1160 H1166 0.930 . S
N1161 Li1144 1.990 . S
N1161 C1160 1.314 . S
N1161 C1163 1.279 . S
C1162 C1163 1.358 . S
C1162 C1164 1.356 . S
C1162 H1216 0.930 . S
C1163 N1161 1.279 . S
C1163 C1162 1.358 . S
C1163 H1167 0.930 . S
C1164 C1162 1.356 . S
C1164 C1165 1.348 . S
C1165 C1160 1.353 . S
C1165 C1164 1.348 . S
C1165 H1217 0.929 . S
H1166 C1160 0.930 . S
H1167 C1163 0.930 . S
C1168 N1169 1.314 . S
C1168 C1170 1.353 . S
C1168 H1174 0.930 . S
N1169 Li1145 1.990 . S
N1169 C1168 1.314 . S
N1169 C1172 1.279 . S
C1170 C1168 1.353 . S
C1170 C1173 1.348 . S
C1170 H1218 0.929 . S
C1171 C1172 1.358 . S
C1171 C1173 1.356 . S
C1171 H1219 0.930 . S
C1172 N1169 1.279 . S
C1172 C1171 1.358 . S
C1172 H1175 0.930 . S
C1173 C1170 1.348 . S
C1173 C1171 1.356 . S
H1174 C1168 0.930 . S
H1175 C1172 0.930 . S
C1176 C1178 1.348 . S
C1176 C1179 1.356 . S
C1176 O1206 1.325 . S
N1177 C1180 1.314 . S
N1177 C1181 1.279 . S
C1178 C1176 1.348 . S
C1178 C1180 1.353 . S
C1178 H1220 0.929 . S
C1179 C1176 1.356 . S
C1179 C1181 1.358 . S
C1179 H1221 0.930 . S
C1180 N1177 1.314 . S
C1180 C1178 1.353 . S
C1180 H1222 0.930 . S
C1181 N1177 1.279 . S
C1181 C1179 1.358 . S
C1181 H1223 0.930 . S
C1182 C1183 1.348 . S
C1182 C1184 1.356 . S
C1182 O1207 1.325 . S
C1183 C1182 1.348 . S
C1183 C1185 1.353 . S
C1183 H1224 0.929 . S
C1184 C1182 1.356 . S
C1184 C1186 1.358 . S
C1184 H1225 0.930 . S
C1185 C1183 1.353 . S
C1185 N1187 1.314 . S
C1185 H1226 0.930 . S
C1186 C1184 1.358 . S
C1186 N1187 1.279 . S
C1186 H1227 0.930 . S
N1187 C1185 1.314 . S
N1187 C1186 1.279 . S
C1188 C1190 1.353 . S
C1188 N1191 1.314 . S
C1188 H1194 0.930 . S
C1189 N1191 1.279 . S
C1189 C1192 1.358 . S
C1189 H1195 0.930 . S
C1190 C1188 1.353 . S
C1190 C1193 1.348 . S
C1190 H1228 0.929 . S
N1191 Li1146 1.990 . S
N1191 C1188 1.314 . S
N1191 C1189 1.279 . S
C1192 C1189 1.358 . S
C1192 C1193 1.356 . S
C1192 H1229 0.930 . S
C1193 C1190 1.348 . S
C1193 C1192 1.356 . S
H1194 C1188 0.930 . S
H1195 C1189 0.930 . S
C1196 N1197 1.314 . S
C1196 C1198 1.353 . S
C1196 H1202 0.930 . S
N1197 Li1147 1.990 . S
N1197 C1196 1.314 . S
N1197 C1200 1.279 . S
C1198 C1196 1.353 . S
C1198 C1201 1.348 . S
C1198 H1230 0.929 . S
C1199 C1200 1.358 . S
C1199 C1201 1.356 . S
C1199 H1231 0.930 . S
C1200 N1197 1.279 . S
C1200 C1199 1.358 . S
C1200 H1203 0.930 . S
C1201 C1198 1.348 . S
C1201 C1199 1.356 . S
H1202 C1196 0.930 . S
H1203 C1200 0.930 . S
O1204 Li1144 1.956 . S
O1204 Li1145 1.970 . S
O1204 Li1146 1.961 . S
O1204 C1148 1.325 . S
O1205 Li1144 1.970 . S
O1205 Li1145 1.956 . S
O1205 Li1147 1.961 . S
O1205 C1154 1.325 . S
O1206 Li1144 1.961 . S
O1206 Li1146 1.956 . S
O1206 Li1147 1.970 . S
O1206 C1176 1.325 . S
O1207 Li1145 1.961 . S
O1207 Li1146 1.970 . S
O1207 Li1147 1.956 . S
O1207 C1182 1.325 . S
H1208 C1150 0.929 . S
H1209 C1151 0.930 . S
H1210 C1152 0.930 . S
H1211 C1153 0.930 . S
H1212 C1155 0.930 . S
H1213 C1157 0.929 . S
H1214 C1158 0.930 . S
H1215 C1159 0.930 . S
H1216 C1162 0.930 . S
H1217 C1165 0.929 . S
H1218 C1170 0.929 . S
H1219 C1171 0.930 . S
H1220 C1178 0.929 . S
H1221 C1179 0.930 . S
H1222 C1180 0.930 . S
H1223 C1181 0.930 . S
H1224 C1183 0.929 . S
H1225 C1184 0.930 . S
H1226 C1185 0.930 . S
H1227 C1186 0.930 . S
H1228 C1190 0.929 . S
H1229 C1192 0.930 . S
H1230 C1198 0.929 . S
H1231 C1199 0.930 . S
Li1232 N1249 1.990 . S
Li1232 O1292 1.956 . S
Li1232 O1293 1.970 . S
Li1232 O1294 1.961 . S
Li1233 N1257 1.990 . S
Li1233 O1292 1.970 . S
Li1233 O1293 1.956 . S
Li1233 O1295 1.961 1_455 S
Li1234 N1279 1.990 . S
Li1234 O1292 1.961 . S
Li1234 O1294 1.956 . S
Li1234 O1295 1.970 1_455 S
Li1235 N1285 1.990 . S
Li1235 O1293 1.961 1_655 S
Li1235 O1294 1.970 1_655 S
Li1235 O1295 1.956 . S
C1236 C1238 1.348 . S
C1236 C1239 1.356 . S
C1236 O1292 1.325 . S
N1237 C1240 1.314 . S
N1237 C1241 1.279 . S
C1238 C1236 1.348 . S
C1238 C1240 1.353 . S
C1238 H1296 0.929 . S
C1239 C1236 1.356 . S
C1239 C1241 1.358 . S
C1239 H1297 0.930 . S
C1240 N1237 1.314 . S
C1240 C1238 1.353 . S
C1240 H1298 0.930 . S
C1241 N1237 1.279 . S
C1241 C1239 1.358 . S
C1241 H1299 0.930 . S
C1242 C1245 1.348 . S
C1242 C1246 1.356 . S
C1242 O1293 1.325 . S
C1243 N1244 1.279 . S
C1243 C1246 1.358 . S
C1243 H1300 0.930 1_455 S
N1244 C1243 1.279 . S
N1244 C1247 1.314 . S
C1245 C1242 1.348 . S
C1245 C1247 1.353 . S
C1245 H1301 0.929 . S
C1246 C1242 1.356 . S
C1246 C1243 1.358 . S
C1246 H1302 0.930 1_455 S
C1247 N1244 1.314 . S
C1247 C1245 1.353 . S
C1247 H1303 0.930 . S
C1248 N1249 1.314 . S
C1248 C1253 1.353 . S
C1248 H1254 0.930 . S
N1249 Li1232 1.990 . S
N1249 C1248 1.314 . S
N1249 C1251 1.279 . S
C1250 C1251 1.358 . S
C1250 C1252 1.356 . S
C1250 H1304 0.930 . S
C1251 N1249 1.279 . S
C1251 C1250 1.358 . S
C1251 H1255 0.930 . S
C1252 C1250 1.356 . S
C1252 C1253 1.348 . S
C1253 C1248 1.353 . S
C1253 C1252 1.348 . S
C1253 H1305 0.929 . S
H1254 C1248 0.930 . S
H1255 C1251 0.930 . S
C1256 N1257 1.314 . S
C1256 C1258 1.353 . S
C1256 H1262 0.930 . S
N1257 Li1233 1.990 . S
N1257 C1256 1.314 . S
N1257 C1260 1.279 . S
C1258 C1256 1.353 . S
C1258 C1261 1.348 . S
C1258 H1306 0.929 . S
C1259 C1260 1.358 . S
C1259 C1261 1.356 . S
C1259 H1307 0.930 . S
C1260 N1257 1.279 . S
C1260 C1259 1.358 . S
C1260 H1263 0.930 . S
C1261 C1258 1.348 . S
C1261 C1259 1.356 . S
H1262 C1256 0.930 . S
H1263 C1260 0.930 . S
C1264 C1266 1.348 1_455 S
C1264 C1267 1.356 . S
C1264 O1294 1.325 . S
N1265 C1268 1.314 . S
N1265 C1269 1.279 1_655 S
C1266 C1264 1.348 1_655 S
C1266 C1268 1.353 . S
C1266 H1308 0.929 . S
C1267 C1264 1.356 . S
C1267 C1269 1.358 . S
C1267 H1309 0.930 . S
C1268 N1265 1.314 . S
C1268 C1266 1.353 . S
C1268 H1310 0.930 . S
C1269 N1265 1.279 1_455 S
C1269 C1267 1.358 . S
C1269 H1311 0.930 . S
C1270 C1271 1.348 . S
C1270 C1272 1.356 . S
C1270 O1295 1.325 . S
C1271 C1270 1.348 . S
C1271 C1273 1.353 . S
C1271 H1312 0.929 . S
C1272 C1270 1.356 . S
C1272 C1274 1.358 . S
C1272 H1313 0.930 . S
C1273 C1271 1.353 . S
C1273 N1275 1.314 . S
C1273 H1314 0.930 . S
C1274 C1272 1.358 . S
C1274 N1275 1.279 . S
C1274 H1315 0.930 . S
N1275 C1273 1.314 . S
N1275 C1274 1.279 . S
C1276 C1278 1.353 . S
C1276 N1279 1.314 . S
C1276 H1282 0.930 . S
C1277 N1279 1.279 . S
C1277 C1280 1.359 . S
C1277 H1283 0.930 1_455 S
C1278 C1276 1.353 . S
C1278 C1281 1.348 . S
C1278 H1316 0.929 . S
N1279 Li1234 1.990 . S
N1279 C1276 1.314 . S
N1279 C1277 1.279 . S
C1280 C1277 1.359 . S
C1280 C1281 1.357 . S
C1280 H1317 0.928 1_455 S
C1281 C1278 1.348 . S
C1281 C1280 1.357 . S
H1282 C1276 0.930 . S
H1283 C1277 0.930 1_655 S
C1284 N1285 1.314 . S
C1284 C1286 1.353 . S
C1284 H1290 0.930 . S
N1285 Li1235 1.990 . S
N1285 C1284 1.314 . S
N1285 C1288 1.279 . S
C1286 C1284 1.353 . S
C1286 C1289 1.348 . S
C1286 H1318 0.929 . S
C1287 C1288 1.358 . S
C1287 C1289 1.356 . S
C1287 H1319 0.930 . S
C1288 N1285 1.279 . S
C1288 C1287 1.358 . S
C1288 H1291 0.930 . S
C1289 C1286 1.348 . S
C1289 C1287 1.356 . S
H1290 C1284 0.930 . S
H1291 C1288 0.930 . S
O1292 Li1232 1.956 . S
O1292 Li1233 1.970 . S
O1292 Li1234 1.961 . S
O1292 C1236 1.325 . S
O1293 Li1232 1.970 . S
O1293 Li1233 1.956 . S
O1293 Li1235 1.961 1_455 S
O1293 C1242 1.325 . S
O1294 Li1232 1.961 . S
O1294 Li1234 1.956 . S
O1294 Li1235 1.970 1_455 S
O1294 C1264 1.325 . S
O1295 Li1233 1.961 1_655 S
O1295 Li1234 1.970 1_655 S
O1295 Li1235 1.956 . S
O1295 C1270 1.325 . S
H1296 C1238 0.929 . S
H1297 C1239 0.930 . S
H1298 C1240 0.930 . S
H1299 C1241 0.930 . S
H1300 C1243 0.930 1_655 S
H1301 C1245 0.929 . S
H1302 C1246 0.930 1_655 S
H1303 C1247 0.930 . S
H1304 C1250 0.930 . S
H1305 C1253 0.929 . S
H1306 C1258 0.929 . S
H1307 C1259 0.930 . S
H1308 C1266 0.929 . S
H1309 C1267 0.930 . S
H1310 C1268 0.930 . S
H1311 C1269 0.930 . S
H1312 C1271 0.929 . S
H1313 C1272 0.930 . S
H1314 C1273 0.930 . S
H1315 C1274 0.930 . S
H1316 C1278 0.929 . S
H1317 C1280 0.928 1_655 S
H1318 C1286 0.929 . S
H1319 C1287 0.930 . S
Li1320 N1337 1.990 . S
Li1320 O1380 1.956 . S
Li1320 O1381 1.970 . S
Li1320 O1382 1.961 . S
Li1321 N1345 1.990 . S
Li1321 O1380 1.970 . S
Li1321 O1381 1.956 . S
Li1321 O1383 1.961 1_545 S
Li1322 N1367 1.990 . S
Li1322 O1380 1.961 . S
Li1322 O1382 1.956 . S
Li1322 O1383 1.970 1_545 S
Li1323 N1373 1.990 . S
Li1323 O1381 1.961 1_565 S
Li1323 O1382 1.970 1_565 S
Li1323 O1383 1.956 . S
C1324 C1326 1.348 . S
C1324 C1327 1.356 . S
C1324 O1380 1.325 . S
N1325 C1328 1.314 . S
N1325 C1329 1.279 . S
C1326 C1324 1.348 . S
C1326 C1328 1.353 . S
C1326 H1384 0.929 . S
C1327 C1324 1.356 . S
C1327 C1329 1.358 . S
C1327 H1385 0.930 . S
C1328 N1325 1.314 . S
C1328 C1326 1.353 . S
C1328 H1386 0.930 . S
C1329 N1325 1.279 . S
C1329 C1327 1.358 . S
C1329 H1387 0.930 . S
C1330 C1333 1.348 . S
C1330 C1334 1.356 . S
C1330 O1381 1.325 . S
C1331 N1332 1.279 . S
C1331 C1334 1.358 . S
C1331 H1388 0.930 1_545 S
N1332 C1331 1.279 . S
N1332 C1335 1.314 . S
C1333 C1330 1.348 . S
C1333 C1335 1.353 . S
C1333 H1389 0.929 . S
C1334 C1330 1.356 . S
C1334 C1331 1.358 . S
C1334 H1390 0.930 1_545 S
C1335 N1332 1.314 . S
C1335 C1333 1.353 . S
C1335 H1391 0.930 . S
C1336 N1337 1.314 . S
C1336 C1341 1.353 . S
C1336 H1342 0.930 . S
N1337 Li1320 1.990 . S
N1337 C1336 1.314 . S
N1337 C1339 1.279 . S
C1338 C1339 1.358 . S
C1338 C1340 1.356 . S
C1338 H1392 0.930 . S
C1339 N1337 1.279 . S
C1339 C1338 1.358 . S
C1339 H1343 0.930 . S
C1340 C1338 1.356 . S
C1340 C1341 1.348 . S
C1341 C1336 1.353 . S
C1341 C1340 1.348 . S
C1341 H1393 0.929 . S
H1342 C1336 0.930 . S
H1343 C1339 0.930 . S
C1344 N1345 1.314 . S
C1344 C1346 1.353 . S
C1344 H1350 0.930 . S
N1345 Li1321 1.990 . S
N1345 C1344 1.314 . S
N1345 C1348 1.279 . S
C1346 C1344 1.353 . S
C1346 C1349 1.348 . S
C1346 H1394 0.929 . S
C1347 C1348 1.358 . S
C1347 C1349 1.356 . S
C1347 H1395 0.930 . S
C1348 N1345 1.279 . S
C1348 C1347 1.358 . S
C1348 H1351 0.930 . S
C1349 C1346 1.348 . S
C1349 C1347 1.356 . S
H1350 C1344 0.930 . S
H1351 C1348 0.930 . S
C1352 C1354 1.348 1_545 S
C1352 C1355 1.356 . S
C1352 O1382 1.325 . S
N1353 C1356 1.314 . S
N1353 C1357 1.279 1_565 S
C1354 C1352 1.348 1_565 S
C1354 C1356 1.353 . S
C1354 H1396 0.929 . S
C1355 C1352 1.356 . S
C1355 C1357 1.358 . S
C1355 H1397 0.930 . S
C1356 N1353 1.314 . S
C1356 C1354 1.353 . S
C1356 H1398 0.930 . S
C1357 N1353 1.279 1_545 S
C1357 C1355 1.358 . S
C1357 H1399 0.930 . S
C1358 C1359 1.348 . S
C1358 C1360 1.356 . S
C1358 O1383 1.325 . S
C1359 C1358 1.348 . S
C1359 C1361 1.353 . S
C1359 H1400 0.929 . S
C1360 C1358 1.356 . S
C1360 C1362 1.358 . S
C1360 H1401 0.930 . S
C1361 C1359 1.353 . S
C1361 N1363 1.314 . S
C1361 H1402 0.930 . S
C1362 C1360 1.358 . S
C1362 N1363 1.279 . S
C1362 H1403 0.930 . S
N1363 C1361 1.314 . S
N1363 C1362 1.279 . S
C1364 C1366 1.353 . S
C1364 N1367 1.314 . S
C1364 H1370 0.930 . S
C1365 N1367 1.279 . S
C1365 C1368 1.359 . S
C1365 H1371 0.930 1_545 S
C1366 C1364 1.353 . S
C1366 C1369 1.348 . S
C1366 H1404 0.929 . S
N1367 Li1322 1.990 . S
N1367 C1364 1.314 . S
N1367 C1365 1.279 . S
C1368 C1365 1.359 . S
C1368 C1369 1.357 . S
C1368 H1405 0.928 1_545 S
C1369 C1366 1.348 . S
C1369 C1368 1.357 . S
H1370 C1364 0.930 . S
H1371 C1365 0.930 1_565 S
C1372 N1373 1.314 . S
C1372 C1374 1.353 . S
C1372 H1378 0.930 . S
N1373 Li1323 1.990 . S
N1373 C1372 1.314 . S
N1373 C1376 1.279 . S
C1374 C1372 1.353 . S
C1374 C1377 1.348 . S
C1374 H1406 0.929 . S
C1375 C1376 1.358 . S
C1375 C1377 1.356 . S
C1375 H1407 0.930 . S
C1376 N1373 1.279 . S
C1376 C1375 1.358 . S
C1376 H1379 0.930 . S
C1377 C1374 1.348 . S
C1377 C1375 1.356 . S
H1378 C1372 0.930 . S
H1379 C1376 0.930 . S
O1380 Li1320 1.956 . S
O1380 Li1321 1.970 . S
O1380 Li1322 1.961 . S
O1380 C1324 1.325 . S
O1381 Li1320 1.970 . S
O1381 Li1321 1.956 . S
O1381 Li1323 1.961 1_545 S
O1381 C1330 1.325 . S
O1382 Li1320 1.961 . S
O1382 Li1322 1.956 . S
O1382 Li1323 1.970 1_545 S
O1382 C1352 1.325 . S
O1383 Li1321 1.961 1_565 S
O1383 Li1322 1.970 1_565 S
O1383 Li1323 1.956 . S
O1383 C1358 1.325 . S
H1384 C1326 0.929 . S
H1385 C1327 0.930 . S
H1386 C1328 0.930 . S
H1387 C1329 0.930 . S
H1388 C1331 0.930 1_565 S
H1389 C1333 0.929 . S
H1390 C1334 0.930 1_565 S
H1391 C1335 0.930 . S
H1392 C1338 0.930 . S
H1393 C1341 0.929 . S
H1394 C1346 0.929 . S
H1395 C1347 0.930 . S
H1396 C1354 0.929 . S
H1397 C1355 0.930 . S
H1398 C1356 0.930 . S
H1399 C1357 0.930 . S
H1400 C1359 0.929 . S
H1401 C1360 0.930 . S
H1402 C1361 0.930 . S
H1403 C1362 0.930 . S
H1404 C1366 0.929 . S
H1405 C1368 0.928 1_565 S
H1406 C1374 0.929 . S
H1407 C1375 0.930 . S
C1408 C1409 1.349 . S
C1408 C1410 1.327 . S
C1408 H1433 0.950 . S
C1409 C1408 1.349 . S
C1409 C1425 1.349 . S
C1410 C1408 1.327 . S
C1410 C1429 1.429 . S
C1410 H1434 0.950 . S
C1411 C1428 1.574 . S
C1411 C1430 1.368 . S
C1411 H1435 0.949 . S
H1412 C1416 0.949 . S
C1413 C1414 1.349 . S
C1413 C1415 1.327 . S
C1413 H1436 0.950 . S
C1414 C1413 1.349 . S
C1414 C1426 1.349 . S
C1415 C1413 1.327 . S
C1415 C1431 1.429 . S
C1415 H1437 0.950 . S
C1416 H1412 0.949 . S
C1416 C1424 1.574 . S
C1416 C1432 1.368 . S
H1417 C1425 0.950 . S
H1418 C1423 0.950 . S
H1419 C1424 0.949 . S
H1420 C1426 0.950 . S
H1421 C1427 0.950 . S
H1422 C1428 0.949 . S
C1423 H1418 0.950 . S
C1423 C1425 1.327 . S
C1423 C1429 1.429 . S
C1424 C1416 1.574 . S
C1424 H1419 0.949 . S
C1424 C1430 1.368 . S
C1425 C1409 1.349 . S
C1425 H1417 0.950 . S
C1425 C1423 1.327 . S
C1426 C1414 1.349 . S
C1426 H1420 0.950 . S
C1426 C1427 1.327 . S
C1427 H1421 0.950 . S
C1427 C1426 1.327 . S
C1427 C1431 1.429 . S
C1428 C1411 1.574 . S
C1428 H1422 0.949 . S
C1428 C1432 1.368 . S
C1429 C1410 1.429 . S
C1429 C1423 1.429 . S
C1429 C1430 1.523 . S
C1430 C1411 1.368 . S
C1430 C1424 1.368 . S
C1430 C1429 1.523 . S
C1431 C1415 1.429 . S
C1431 C1427 1.429 . S
C1431 C1432 1.523 . S
C1432 C1416 1.368 . S
C1432 C1428 1.368 . S
C1432 C1431 1.523 . S
H1433 C1408 0.950 . S
H1434 C1410 0.950 . S
H1435 C1411 0.949 . S
H1436 C1413 0.950 . S
H1437 C1415 0.950 . S
C1438 C1439 1.349 . S
C1438 C1440 1.327 . S
C1438 H1463 0.950 . S
C1439 C1438 1.349 . S
C1439 C1455 1.349 . S
C1440 C1438 1.327 . S
C1440 C1459 1.429 . S
C1440 H1464 0.950 . S
C1441 C1458 1.574 . S
C1441 C1460 1.368 . S
C1441 H1465 0.949 . S
H1442 C1446 0.949 . S
C1443 C1444 1.349 . S
C1443 C1445 1.327 . S
C1443 H1466 0.950 . S
C1444 C1443 1.349 . S
C1444 C1456 1.349 . S
C1445 C1443 1.327 . S
C1445 C1461 1.429 . S
C1445 H1467 0.950 . S
C1446 H1442 0.949 . S
C1446 C1454 1.574 . S
C1446 C1462 1.368 . S
H1447 C1455 0.950 . S
H1448 C1453 0.950 . S
H1449 C1454 0.949 . S
H1450 C1456 0.950 . S
H1451 C1457 0.950 . S
H1452 C1458 0.949 . S
C1453 H1448 0.950 . S
C1453 C1455 1.327 . S
C1453 C1459 1.429 . S
C1454 C1446 1.574 . S
C1454 H1449 0.949 . S
C1454 C1460 1.368 . S
C1455 C1439 1.349 . S
C1455 H1447 0.950 . S
C1455 C1453 1.327 . S
C1456 C1444 1.349 . S
C1456 H1450 0.950 . S
C1456 C1457 1.327 . S
C1457 H1451 0.950 . S
C1457 C1456 1.327 . S
C1457 C1461 1.429 . S
C1458 C1441 1.574 . S
C1458 H1452 0.949 . S
C1458 C1462 1.368 . S
C1459 C1440 1.429 . S
C1459 C1453 1.429 . S
C1459 C1460 1.523 . S
C1460 C1441 1.368 . S
C1460 C1454 1.368 . S
C1460 C1459 1.523 . S
C1461 C1445 1.429 . S
C1461 C1457 1.429 . S
C1461 C1462 1.523 . S
C1462 C1446 1.368 . S
C1462 C1458 1.368 . S
C1462 C1461 1.523 . S
H1463 C1438 0.950 . S
H1464 C1440 0.950 . S
H1465 C1441 0.949 . S
H1466 C1443 0.950 . S
H1467 C1445 0.950 . S
C1468 C1469 1.349 . S
C1468 C1470 1.327 . S
C1468 H1493 0.950 . S
C1469 C1468 1.349 . S
C1469 C1485 1.349 . S
C1470 C1468 1.327 . S
C1470 C1489 1.429 . S
C1470 H1494 0.950 . S
C1471 C1488 1.574 . S
C1471 C1490 1.368 . S
C1471 H1495 0.949 . S
H1472 C1476 0.949 . S
C1473 C1474 1.349 . S
C1473 C1475 1.327 . S
C1473 H1496 0.950 . S
C1474 C1473 1.349 . S
C1474 C1486 1.349 . S
C1475 C1473 1.327 . S
C1475 C1491 1.429 . S
C1475 H1497 0.950 . S
C1476 H1472 0.949 . S
C1476 C1484 1.574 . S
C1476 C1492 1.368 . S
H1477 C1485 0.950 . S
H1478 C1483 0.950 . S
H1479 C1484 0.949 . S
H1480 C1486 0.950 . S
H1481 C1487 0.950 . S
H1482 C1488 0.949 . S
C1483 H1478 0.950 . S
C1483 C1485 1.327 . S
C1483 C1489 1.429 . S
C1484 C1476 1.574 . S
C1484 H1479 0.949 . S
C1484 C1490 1.368 . S
C1485 C1469 1.349 . S
C1485 H1477 0.950 . S
C1485 C1483 1.327 . S
C1486 C1474 1.349 . S
C1486 H1480 0.950 . S
C1486 C1487 1.327 . S
C1487 H1481 0.950 . S
C1487 C1486 1.327 . S
C1487 C1491 1.429 . S
C1488 C1471 1.574 . S
C1488 H1482 0.949 . S
C1488 C1492 1.368 . S
C1489 C1470 1.429 . S
C1489 C1483 1.429 . S
C1489 C1490 1.523 . S
C1490 C1471 1.368 . S
C1490 C1484 1.368 . S
C1490 C1489 1.523 . S
C1491 C1475 1.429 . S
C1491 C1487 1.429 . S
C1491 C1492 1.523 . S
C1492 C1476 1.368 . S
C1492 C1488 1.368 . S
C1492 C1491 1.523 . S
H1493 C1468 0.950 . S
H1494 C1470 0.950 . S
H1495 C1471 0.949 . S
H1496 C1473 0.950 . S
H1497 C1475 0.950 . S
C1498 C1499 1.349 . S
C1498 C1500 1.327 . S
C1498 H1523 0.950 . S
C1499 C1498 1.349 . S
C1499 C1515 1.349 . S
C1500 C1498 1.327 . S
C1500 C1519 1.429 . S
C1500 H1524 0.950 . S
C1501 C1518 1.574 . S
C1501 C1520 1.368 . S
C1501 H1525 0.949 . S
H1502 C1506 0.949 . S
C1503 C1504 1.349 . S
C1503 C1505 1.327 . S
C1503 H1526 0.950 . S
C1504 C1503 1.349 . S
C1504 C1516 1.349 . S
C1505 C1503 1.327 . S
C1505 C1521 1.429 . S
C1505 H1527 0.950 . S
C1506 H1502 0.949 . S
C1506 C1514 1.574 . S
C1506 C1522 1.368 . S
H1507 C1515 0.950 . S
H1508 C1513 0.950 . S
H1509 C1514 0.949 . S
H1510 C1516 0.950 . S
H1511 C1517 0.950 . S
H1512 C1518 0.949 . S
C1513 H1508 0.950 . S
C1513 C1515 1.327 . S
C1513 C1519 1.429 . S
C1514 C1506 1.574 . S
C1514 H1509 0.949 . S
C1514 C1520 1.368 . S
C1515 C1499 1.349 . S
C1515 H1507 0.950 . S
C1515 C1513 1.327 . S
C1516 C1504 1.349 . S
C1516 H1510 0.950 . S
C1516 C1517 1.327 . S
C1517 H1511 0.950 . S
C1517 C1516 1.327 . S
C1517 C1521 1.429 . S
C1518 C1501 1.574 . S
C1518 H1512 0.949 . S
C1518 C1522 1.368 . S
C1519 C1500 1.429 . S
C1519 C1513 1.429 . S
C1519 C1520 1.523 . S
C1520 C1501 1.368 . S
C1520 C1514 1.368 . S
C1520 C1519 1.523 . S
C1521 C1505 1.429 . S
C1521 C1517 1.429 . S
C1521 C1522 1.523 . S
C1522 C1506 1.368 . S
C1522 C1518 1.368 . S
C1522 C1521 1.523 . S
H1523 C1498 0.950 . S
H1524 C1500 0.950 . S
H1525 C1501 0.949 . S
H1526 C1503 0.950 . S
H1527 C1505 0.950 . S
C1528 C1529 1.349 . S
C1528 C1530 1.327 . S
C1528 H1553 0.950 . S
C1529 C1528 1.349 . S
C1529 C1545 1.349 . S
C1530 C1528 1.327 . S
C1530 C1549 1.429 . S
C1530 H1554 0.950 . S
C1531 C1548 1.574 . S
C1531 C1550 1.368 . S
C1531 H1555 0.949 . S
H1532 C1536 0.949 . S
C1533 C1534 1.349 . S
C1533 C1535 1.327 . S
C1533 H1556 0.950 . S
C1534 C1533 1.349 . S
C1534 C1546 1.349 . S
C1535 C1533 1.327 . S
C1535 C1551 1.429 . S
C1535 H1557 0.950 . S
C1536 H1532 0.949 . S
C1536 C1544 1.574 . S
C1536 C1552 1.368 . S
H1537 C1545 0.950 . S
H1538 C1543 0.950 . S
H1539 C1544 0.949 . S
H1540 C1546 0.950 . S
H1541 C1547 0.950 . S
H1542 C1548 0.949 . S
C1543 H1538 0.950 . S
C1543 C1545 1.327 . S
C1543 C1549 1.429 . S
C1544 C1536 1.574 . S
C1544 H1539 0.949 . S
C1544 C1550 1.368 . S
C1545 C1529 1.349 . S
C1545 H1537 0.950 . S
C1545 C1543 1.327 . S
C1546 C1534 1.349 . S
C1546 H1540 0.950 . S
C1546 C1547 1.327 . S
C1547 H1541 0.950 . S
C1547 C1546 1.327 . S
C1547 C1551 1.429 . S
C1548 C1531 1.574 . S
C1548 H1542 0.949 . S
C1548 C1552 1.368 . S
C1549 C1530 1.429 . S
C1549 C1543 1.429 . S
C1549 C1550 1.523 . S
C1550 C1531 1.368 . S
C1550 C1544 1.368 . S
C1550 C1549 1.523 . S
C1551 C1535 1.429 . S
C1551 C1547 1.429 . S
C1551 C1552 1.523 . S
C1552 C1536 1.368 . S
C1552 C1548 1.368 . S
C1552 C1551 1.523 . S
H1553 C1528 0.950 . S
H1554 C1530 0.950 . S
H1555 C1531 0.949 . S
H1556 C1533 0.950 . S
H1557 C1535 0.950 . S
C1558 C1559 1.349 . S
C1558 C1560 1.327 . S
C1558 H1583 0.950 . S
C1559 C1558 1.349 . S
C1559 C1575 1.349 . S
C1560 C1558 1.327 . S
C1560 C1579 1.429 . S
C1560 H1584 0.950 . S
C1561 C1578 1.574 . S
C1561 C1580 1.368 . S
C1561 H1585 0.949 . S
H1562 C1566 0.949 . S
C1563 C1564 1.349 . S
C1563 C1565 1.327 . S
C1563 H1586 0.950 . S
C1564 C1563 1.349 . S
C1564 C1576 1.349 . S
C1565 C1563 1.327 . S
C1565 C1581 1.429 . S
C1565 H1587 0.950 . S
C1566 H1562 0.949 . S
C1566 C1574 1.574 . S
C1566 C1582 1.368 . S
H1567 C1575 0.950 . S
H1568 C1573 0.950 . S
H1569 C1574 0.949 . S
H1570 C1576 0.950 . S
H1571 C1577 0.950 . S
H1572 C1578 0.949 . S
C1573 H1568 0.950 . S
C1573 C1575 1.327 . S
C1573 C1579 1.429 . S
C1574 C1566 1.574 . S
C1574 H1569 0.949 . S
C1574 C1580 1.368 . S
C1575 C1559 1.349 . S
C1575 H1567 0.950 . S
C1575 C1573 1.327 . S
C1576 C1564 1.349 . S
C1576 H1570 0.950 . S
C1576 C1577 1.327 . S
C1577 H1571 0.950 . S
C1577 C1576 1.327 . S
C1577 C1581 1.429 . S
C1578 C1561 1.574 . S
C1578 H1572 0.949 . S
C1578 C1582 1.368 . S
C1579 C1560 1.429 . S
C1579 C1573 1.429 . S
C1579 C1580 1.523 . S
C1580 C1561 1.368 . S
C1580 C1574 1.368 . S
C1580 C1579 1.523 . S
C1581 C1565 1.429 . S
C1581 C1577 1.429 . S
C1581 C1582 1.523 . S
C1582 C1566 1.368 . S
C1582 C1578 1.368 . S
C1582 C1581 1.523 . S
H1583 C1558 0.950 . S
H1584 C1560 0.950 . S
H1585 C1561 0.949 . S
H1586 C1563 0.950 . S
H1587 C1565 0.950 . S
C1588 C1589 1.349 . S
C1588 C1590 1.327 . S
C1588 H1613 0.950 . S
C1589 C1588 1.349 . S
C1589 C1605 1.349 . S
C1590 C1588 1.327 . S
C1590 C1609 1.429 . S
C1590 H1614 0.950 . S
C1591 C1608 1.574 . S
C1591 C1610 1.368 . S
C1591 H1615 0.949 . S
H1592 C1596 0.949 . S
C1593 C1594 1.349 . S
C1593 C1595 1.327 . S
C1593 H1616 0.950 . S
C1594 C1593 1.349 . S
C1594 C1606 1.349 . S
C1595 C1593 1.327 . S
C1595 C1611 1.429 . S
C1595 H1617 0.950 . S
C1596 H1592 0.949 . S
C1596 C1604 1.574 . S
C1596 C1612 1.368 . S
H1597 C1605 0.950 . S
H1598 C1603 0.950 . S
H1599 C1604 0.949 . S
H1600 C1606 0.950 . S
H1601 C1607 0.950 . S
H1602 C1608 0.949 . S
C1603 H1598 0.950 . S
C1603 C1605 1.327 . S
C1603 C1609 1.429 . S
C1604 C1596 1.574 . S
C1604 H1599 0.949 . S
C1604 C1610 1.368 . S
C1605 C1589 1.349 . S
C1605 H1597 0.950 . S
C1605 C1603 1.327 . S
C1606 C1594 1.349 . S
C1606 H1600 0.950 . S
C1606 C1607 1.327 . S
C1607 H1601 0.950 . S
C1607 C1606 1.327 . S
C1607 C1611 1.429 . S
C1608 C1591 1.574 . S
C1608 H1602 0.949 . S
C1608 C1612 1.368 . S
C1609 C1590 1.429 . S
C1609 C1603 1.429 . S
C1609 C1610 1.523 . S
C1610 C1591 1.368 . S
C1610 C1604 1.368 . S
C1610 C1609 1.523 . S
C1611 C1595 1.429 . S
C1611 C1607 1.429 . S
C1611 C1612 1.523 . S
C1612 C1596 1.368 . S
C1612 C1608 1.368 . S
C1612 C1611 1.523 . S
H1613 C1588 0.950 . S
H1614 C1590 0.950 . S
H1615 C1591 0.949 . S
H1616 C1593 0.950 . S
H1617 C1595 0.950 . S
C1618 C1619 1.349 . S
C1618 C1620 1.327 . S
C1618 H1643 0.950 . S
C1619 C1618 1.349 . S
C1619 C1635 1.349 . S
C1620 C1618 1.327 . S
C1620 C1639 1.429 . S
C1620 H1644 0.950 . S
C1621 C1638 1.574 . S
C1621 C1640 1.368 . S
C1621 H1645 0.949 . S
H1622 C1626 0.949 . S
C1623 C1624 1.349 . S
C1623 C1625 1.327 . S
C1623 H1646 0.950 . S
C1624 C1623 1.349 . S
C1624 C1636 1.349 . S
C1625 C1623 1.327 . S
C1625 C1641 1.429 . S
C1625 H1647 0.950 . S
C1626 H1622 0.949 . S
C1626 C1634 1.574 . S
C1626 C1642 1.368 . S
H1627 C1635 0.950 . S
H1628 C1633 0.950 . S
H1629 C1634 0.949 . S
H1630 C1636 0.950 . S
H1631 C1637 0.950 . S
H1632 C1638 0.949 . S
C1633 H1628 0.950 . S
C1633 C1635 1.327 . S
C1633 C1639 1.429 . S
C1634 C1626 1.574 . S
C1634 H1629 0.949 . S
C1634 C1640 1.368 . S
C1635 C1619 1.349 . S
C1635 H1627 0.950 . S
C1635 C1633 1.327 . S
C1636 C1624 1.349 . S
C1636 H1630 0.950 . S
C1636 C1637 1.327 . S
C1637 H1631 0.950 . S
C1637 C1636 1.327 . S
C1637 C1641 1.429 . S
C1638 C1621 1.574 . S
C1638 H1632 0.949 . S
C1638 C1642 1.368 . S
C1639 C1620 1.429 . S
C1639 C1633 1.429 . S
C1639 C1640 1.523 . S
C1640 C1621 1.368 . S
C1640 C1634 1.368 . S
C1640 C1639 1.523 . S
C1641 C1625 1.429 . S
C1641 C1637 1.429 . S
C1641 C1642 1.523 . S
C1642 C1626 1.368 . S
C1642 C1638 1.368 . S
C1642 C1641 1.523 . S
H1643 C1618 0.950 . S
H1644 C1620 0.950 . S
H1645 C1621 0.949 . S
H1646 C1623 0.950 . S
H1647 C1625 0.950 . S
C1648 C1649 1.349 . S
C1648 C1650 1.327 . S
C1648 H1673 0.950 . S
C1649 C1648 1.349 . S
C1649 C1665 1.349 . S
C1650 C1648 1.327 . S
C1650 C1669 1.429 . S
C1650 H1674 0.950 . S
C1651 C1668 1.574 . S
C1651 C1670 1.368 . S
C1651 H1675 0.949 . S
H1652 C1656 0.949 . S
C1653 C1654 1.349 . S
C1653 C1655 1.327 . S
C1653 H1676 0.950 . S
C1654 C1653 1.349 . S
C1654 C1666 1.349 . S
C1655 C1653 1.327 . S
C1655 C1671 1.429 . S
C1655 H1677 0.950 . S
C1656 H1652 0.949 . S
C1656 C1664 1.574 . S
C1656 C1672 1.368 . S
H1657 C1665 0.950 . S
H1658 C1663 0.950 . S
H1659 C1664 0.949 . S
H1660 C1666 0.950 . S
H1661 C1667 0.950 . S
H1662 C1668 0.949 . S
C1663 H1658 0.950 . S
C1663 C1665 1.327 . S
C1663 C1669 1.429 . S
C1664 C1656 1.574 . S
C1664 H1659 0.949 . S
C1664 C1670 1.368 . S
C1665 C1649 1.349 . S
C1665 H1657 0.950 . S
C1665 C1663 1.327 . S
C1666 C1654 1.349 . S
C1666 H1660 0.950 . S
C1666 C1667 1.327 . S
C1667 H1661 0.950 . S
C1667 C1666 1.327 . S
C1667 C1671 1.429 . S
C1668 C1651 1.574 . S
C1668 H1662 0.949 . S
C1668 C1672 1.368 . S
C1669 C1650 1.429 . S
C1669 C1663 1.429 . S
C1669 C1670 1.523 . S
C1670 C1651 1.368 . S
C1670 C1664 1.368 . S
C1670 C1669 1.523 . S
C1671 C1655 1.429 . S
C1671 C1667 1.429 . S
C1671 C1672 1.523 . S
C1672 C1656 1.368 . S
C1672 C1668 1.368 . S
C1672 C1671 1.523 . S
H1673 C1648 0.950 . S
H1674 C1650 0.950 . S
H1675 C1651 0.949 . S
H1676 C1653 0.950 . S
H1677 C1655 0.950 . S
C1678 C1679 1.349 . S
C1678 C1680 1.327 . S
C1678 H1703 0.950 . S
C1679 C1678 1.349 . S
C1679 C1695 1.349 . S
C1680 C1678 1.327 . S
C1680 C1699 1.429 . S
C1680 H1704 0.950 . S
C1681 C1698 1.574 . S
C1681 C1700 1.368 . S
C1681 H1705 0.949 . S
H1682 C1686 0.949 . S
C1683 C1684 1.349 . S
C1683 C1685 1.327 . S
C1683 H1706 0.950 . S
C1684 C1683 1.349 . S
C1684 C1696 1.349 . S
C1685 C1683 1.327 . S
C1685 C1701 1.429 . S
C1685 H1707 0.950 . S
C1686 H1682 0.949 . S
C1686 C1694 1.574 . S
C1686 C1702 1.368 . S
H1687 C1695 0.950 . S
H1688 C1693 0.950 . S
H1689 C1694 0.949 . S
H1690 C1696 0.950 . S
H1691 C1697 0.950 . S
H1692 C1698 0.949 . S
C1693 H1688 0.950 . S
C1693 C1695 1.327 . S
C1693 C1699 1.429 . S
C1694 C1686 1.574 . S
C1694 H1689 0.949 . S
C1694 C1700 1.368 . S
C1695 C1679 1.349 . S
C1695 H1687 0.950 . S
C1695 C1693 1.327 . S
C1696 C1684 1.349 . S
C1696 H1690 0.950 . S
C1696 C1697 1.327 . S
C1697 H1691 0.950 . S
C1697 C1696 1.327 . S
C1697 C1701 1.429 . S
C1698 C1681 1.574 . S
C1698 H1692 0.949 . S
C1698 C1702 1.368 . S
C1699 C1680 1.429 . S
C1699 C1693 1.429 . S
C1699 C1700 1.523 . S
C1700 C1681 1.368 . S
C1700 C1694 1.368 . S
C1700 C1699 1.523 . S
C1701 C1685 1.429 . S
C1701 C1697 1.429 . S
C1701 C1702 1.523 . S
C1702 C1686 1.368 . S
C1702 C1698 1.368 . S
C1702 C1701 1.523 . S
H1703 C1678 0.950 . S
H1704 C1680 0.950 . S
H1705 C1681 0.949 . S
H1706 C1683 0.950 . S
H1707 C1685 0.950 . S
C1708 C1709 1.349 . S
C1708 C1710 1.327 . S
C1708 H1733 0.950 . S
C1709 C1708 1.349 . S
C1709 C1725 1.349 . S
C1710 C1708 1.327 . S
C1710 C1729 1.429 . S
C1710 H1734 0.950 . S
C1711 C1728 1.574 . S
C1711 C1730 1.368 . S
C1711 H1735 0.949 . S
H1712 C1716 0.949 . S
C1713 C1714 1.349 . S
C1713 C1715 1.327 . S
C1713 H1736 0.950 . S
C1714 C1713 1.349 . S
C1714 C1726 1.349 . S
C1715 C1713 1.327 . S
C1715 C1731 1.429 . S
C1715 H1737 0.950 . S
C1716 H1712 0.949 . S
C1716 C1724 1.574 . S
C1716 C1732 1.368 . S
H1717 C1725 0.950 . S
H1718 C1723 0.950 . S
H1719 C1724 0.949 . S
H1720 C1726 0.950 . S
H1721 C1727 0.950 . S
H1722 C1728 0.949 . S
C1723 H1718 0.950 . S
C1723 C1725 1.327 . S
C1723 C1729 1.429 . S
C1724 C1716 1.574 . S
C1724 H1719 0.949 . S
C1724 C1730 1.368 . S
C1725 C1709 1.349 . S
C1725 H1717 0.950 . S
C1725 C1723 1.327 . S
C1726 C1714 1.349 . S
C1726 H1720 0.950 . S
C1726 C1727 1.327 . S
C1727 H1721 0.950 . S
C1727 C1726 1.327 . S
C1727 C1731 1.429 . S
C1728 C1711 1.574 . S
C1728 H1722 0.949 . S
C1728 C1732 1.368 . S
C1729 C1710 1.429 . S
C1729 C1723 1.429 . S
C1729 C1730 1.523 . S
C1730 C1711 1.368 . S
C1730 C1724 1.368 . S
C1730 C1729 1.523 . S
C1731 C1715 1.429 . S
C1731 C1727 1.429 . S
C1731 C1732 1.523 . S
C1732 C1716 1.368 . S
C1732 C1728 1.368 . S
C1732 C1731 1.523 . S
H1733 C1708 0.950 . S
H1734 C1710 0.950 . S
H1735 C1711 0.949 . S
H1736 C1713 0.950 . S
H1737 C1715 0.950 . S
C1738 C1739 1.349 . S
C1738 C1740 1.327 . S
C1738 H1763 0.950 . S
C1739 C1738 1.349 . S
C1739 C1755 1.349 . S
C1740 C1738 1.327 . S
C1740 C1759 1.429 . S
C1740 H1764 0.950 . S
C1741 C1758 1.574 . S
C1741 C1760 1.368 . S
C1741 H1765 0.949 . S
H1742 C1746 0.949 . S
C1743 C1744 1.349 . S
C1743 C1745 1.327 . S
C1743 H1766 0.950 . S
C1744 C1743 1.349 . S
C1744 C1756 1.349 . S
C1745 C1743 1.327 . S
C1745 C1761 1.429 . S
C1745 H1767 0.950 . S
C1746 H1742 0.949 . S
C1746 C1754 1.574 . S
C1746 C1762 1.368 . S
H1747 C1755 0.950 . S
H1748 C1753 0.950 . S
H1749 C1754 0.949 . S
H1750 C1756 0.950 . S
H1751 C1757 0.950 . S
H1752 C1758 0.949 . S
C1753 H1748 0.950 . S
C1753 C1755 1.327 . S
C1753 C1759 1.429 . S
C1754 C1746 1.574 . S
C1754 H1749 0.949 . S
C1754 C1760 1.368 . S
C1755 C1739 1.349 . S
C1755 H1747 0.950 . S
C1755 C1753 1.327 . S
C1756 C1744 1.349 . S
C1756 H1750 0.950 . S
C1756 C1757 1.327 . S
C1757 H1751 0.950 . S
C1757 C1756 1.327 . S
C1757 C1761 1.429 . S
C1758 C1741 1.574 . S
C1758 H1752 0.949 . S
C1758 C1762 1.368 . S
C1759 C1740 1.429 . S
C1759 C1753 1.429 . S
C1759 C1760 1.523 . S
C1760 C1741 1.368 . S
C1760 C1754 1.368 . S
C1760 C1759 1.523 . S
C1761 C1745 1.429 . S
C1761 C1757 1.429 . S
C1761 C1762 1.523 . S
C1762 C1746 1.368 . S
C1762 C1758 1.368 . S
C1762 C1761 1.523 . S
H1763 C1738 0.950 . S
H1764 C1740 0.950 . S
H1765 C1741 0.949 . S
H1766 C1743 0.950 . S
H1767 C1745 0.950 . S
C1768 C1769 1.349 . S
C1768 C1770 1.327 . S
C1768 H1793 0.950 . S
C1769 C1768 1.349 . S
C1769 C1785 1.349 . S
C1770 C1768 1.327 . S
C1770 C1789 1.429 . S
C1770 H1794 0.950 . S
C1771 C1788 1.574 . S
C1771 C1790 1.368 . S
C1771 H1795 0.949 . S
H1772 C1776 0.949 . S
C1773 C1774 1.349 . S
C1773 C1775 1.327 . S
C1773 H1796 0.950 . S
C1774 C1773 1.349 . S
C1774 C1786 1.349 . S
C1775 C1773 1.327 . S
C1775 C1791 1.429 . S
C1775 H1797 0.950 . S
C1776 H1772 0.949 . S
C1776 C1784 1.574 . S
C1776 C1792 1.368 . S
H1777 C1785 0.950 . S
H1778 C1783 0.950 . S
H1779 C1784 0.949 . S
H1780 C1786 0.950 . S
H1781 C1787 0.950 . S
H1782 C1788 0.949 . S
C1783 H1778 0.950 . S
C1783 C1785 1.327 . S
C1783 C1789 1.429 . S
C1784 C1776 1.574 . S
C1784 H1779 0.949 . S
C1784 C1790 1.368 . S
C1785 C1769 1.349 . S
C1785 H1777 0.950 . S
C1785 C1783 1.327 . S
C1786 C1774 1.349 . S
C1786 H1780 0.950 . S
C1786 C1787 1.327 . S
C1787 H1781 0.950 . S
C1787 C1786 1.327 . S
C1787 C1791 1.429 . S
C1788 C1771 1.574 . S
C1788 H1782 0.949 . S
C1788 C1792 1.368 . S
C1789 C1770 1.429 . S
C1789 C1783 1.429 . S
C1789 C1790 1.523 . S
C1790 C1771 1.368 . S
C1790 C1784 1.368 . S
C1790 C1789 1.523 . S
C1791 C1775 1.429 . S
C1791 C1787 1.429 . S
C1791 C1792 1.523 . S
C1792 C1776 1.368 . S
C1792 C1788 1.368 . S
C1792 C1791 1.523 . S
H1793 C1768 0.950 . S
H1794 C1770 0.950 . S
H1795 C1771 0.949 . S
H1796 C1773 0.950 . S
H1797 C1775 0.950 . S
C1798 C1799 1.349 . S
C1798 C1800 1.327 . S
C1798 H1823 0.950 . S
C1799 C1798 1.349 . S
C1799 C1815 1.349 . S
C1800 C1798 1.327 . S
C1800 C1819 1.429 . S
C1800 H1824 0.950 . S
C1801 C1818 1.574 . S
C1801 C1820 1.368 . S
C1801 H1825 0.949 . S
H1802 C1806 0.949 . S
C1803 C1804 1.349 . S
C1803 C1805 1.327 . S
C1803 H1826 0.950 . S
C1804 C1803 1.349 . S
C1804 C1816 1.349 . S
C1805 C1803 1.327 . S
C1805 C1821 1.429 . S
C1805 H1827 0.950 . S
C1806 H1802 0.949 . S
C1806 C1814 1.574 . S
C1806 C1822 1.368 . S
H1807 C1815 0.950 . S
H1808 C1813 0.950 . S
H1809 C1814 0.949 . S
H1810 C1816 0.950 . S
H1811 C1817 0.950 . S
H1812 C1818 0.949 . S
C1813 H1808 0.950 . S
C1813 C1815 1.327 . S
C1813 C1819 1.429 . S
C1814 C1806 1.574 . S
C1814 H1809 0.949 . S
C1814 C1820 1.368 . S
C1815 C1799 1.349 . S
C1815 H1807 0.950 . S
C1815 C1813 1.327 . S
C1816 C1804 1.349 . S
C1816 H1810 0.950 . S
C1816 C1817 1.327 . S
C1817 H1811 0.950 . S
C1817 C1816 1.327 . S
C1817 C1821 1.429 . S
C1818 C1801 1.574 . S
C1818 H1812 0.949 . S
C1818 C1822 1.368 . S
C1819 C1800 1.429 . S
C1819 C1813 1.429 . S
C1819 C1820 1.523 . S
C1820 C1801 1.368 . S
C1820 C1814 1.368 . S
C1820 C1819 1.523 . S
C1821 C1805 1.429 . S
C1821 C1817 1.429 . S
C1821 C1822 1.523 . S
C1822 C1806 1.368 . S
C1822 C1818 1.368 . S
C1822 C1821 1.523 . S
H1823 C1798 0.950 . S
H1824 C1800 0.950 . S
H1825 C1801 0.949 . S
H1826 C1803 0.950 . S
H1827 C1805 0.950 . S
C1828 C1829 1.349 . S
C1828 C1830 1.327 . S
C1828 H1853 0.950 . S
C1829 C1828 1.349 . S
C1829 C1845 1.349 . S
C1830 C1828 1.327 . S
C1830 C1849 1.429 . S
C1830 H1854 0.950 . S
C1831 C1848 1.574 . S
C1831 C1850 1.368 . S
C1831 H1855 0.949 . S
H1832 C1836 0.949 . S
C1833 C1834 1.349 . S
C1833 C1835 1.327 . S
C1833 H1856 0.950 . S
C1834 C1833 1.349 . S
C1834 C1846 1.349 . S
C1835 C1833 1.327 . S
C1835 C1851 1.429 . S
C1835 H1857 0.950 . S
C1836 H1832 0.949 . S
C1836 C1844 1.574 . S
C1836 C1852 1.368 . S
H1837 C1845 0.950 . S
H1838 C1843 0.950 . S
H1839 C1844 0.949 . S
H1840 C1846 0.950 . S
H1841 C1847 0.950 . S
H1842 C1848 0.949 . S
C1843 H1838 0.950 . S
C1843 C1845 1.327 . S
C1843 C1849 1.429 . S
C1844 C1836 1.574 . S
C1844 H1839 0.949 . S
C1844 C1850 1.368 . S
C1845 C1829 1.349 . S
C1845 H1837 0.950 . S
C1845 C1843 1.327 . S
C1846 C1834 1.349 . S
C1846 H1840 0.950 . S
C1846 C1847 1.327 . S
C1847 H1841 0.950 . S
C1847 C1846 1.327 . S
C1847 C1851 1.429 . S
C1848 C1831 1.574 . S
C1848 H1842 0.949 . S
C1848 C1852 1.368 . S
C1849 C1830 1.429 . S
C1849 C1843 1.429 . S
C1849 C1850 1.523 . S
C1850 C1831 1.368 . S
C1850 C1844 1.368 . S
C1850 C1849 1.523 . S
C1851 C1835 1.429 . S
C1851 C1847 1.429 . S
C1851 C1852 1.523 . S
C1852 C1836 1.368 . S
C1852 C1848 1.368 . S
C1852 C1851 1.523 . S
H1853 C1828 0.950 . S
H1854 C1830 0.950 . S
H1855 C1831 0.949 . S
H1856 C1833 0.950 . S
H1857 C1835 0.950 . S
C1858 C1859 1.349 . S
C1858 C1860 1.327 . S
C1858 H1883 0.950 . S
C1859 C1858 1.349 . S
C1859 C1875 1.349 . S
C1860 C1858 1.327 . S
C1860 C1879 1.429 . S
C1860 H1884 0.950 . S
C1861 C1878 1.574 . S
C1861 C1880 1.368 . S
C1861 H1885 0.949 . S
H1862 C1866 0.949 . S
C1863 C1864 1.349 . S
C1863 C1865 1.327 . S
C1863 H1886 0.950 . S
C1864 C1863 1.349 . S
C1864 C1876 1.349 . S
C1865 C1863 1.327 . S
C1865 C1881 1.429 . S
C1865 H1887 0.950 . S
C1866 H1862 0.949 . S
C1866 C1874 1.574 . S
C1866 C1882 1.368 . S
H1867 C1875 0.950 . S
H1868 C1873 0.950 . S
H1869 C1874 0.949 . S
H1870 C1876 0.950 . S
H1871 C1877 0.950 . S
H1872 C1878 0.949 . S
C1873 H1868 0.950 . S
C1873 C1875 1.327 . S
C1873 C1879 1.429 . S
C1874 C1866 1.574 . S
C1874 H1869 0.949 . S
C1874 C1880 1.368 . S
C1875 C1859 1.349 . S
C1875 H1867 0.950 . S
C1875 C1873 1.327 . S
C1876 C1864 1.349 . S
C1876 H1870 0.950 . S
C1876 C1877 1.327 . S
C1877 H1871 0.950 . S
C1877 C1876 1.327 . S
C1877 C1881 1.429 . S
C1878 C1861 1.574 . S
C1878 H1872 0.949 . S
C1878 C1882 1.368 . S
C1879 C1860 1.429 . S
C1879 C1873 1.429 . S
C1879 C1880 1.523 . S
C1880 C1861 1.368 . S
C1880 C1874 1.368 . S
C1880 C1879 1.523 . S
C1881 C1865 1.429 . S
C1881 C1877 1.429 . S
C1881 C1882 1.523 . S
C1882 C1866 1.368 . S
C1882 C1878 1.368 . S
C1882 C1881 1.523 . S
H1883 C1858 0.950 . S
H1884 C1860 0.950 . S
H1885 C1861 0.949 . S
H1886 C1863 0.950 . S
H1887 C1865 0.950 . S
C1888 C1889 1.349 . S
C1888 C1890 1.327 . S
C1888 H1913 0.950 . S
C1889 C1888 1.349 . S
C1889 C1905 1.349 . S
C1890 C1888 1.327 . S
C1890 C1909 1.429 . S
C1890 H1914 0.950 . S
C1891 C1908 1.574 . S
C1891 C1910 1.368 . S
C1891 H1915 0.949 . S
H1892 C1896 0.949 . S
C1893 C1894 1.349 . S
C1893 C1895 1.327 . S
C1893 H1916 0.950 . S
C1894 C1893 1.349 . S
C1894 C1906 1.349 . S
C1895 C1893 1.327 . S
C1895 C1911 1.429 . S
C1895 H1917 0.950 . S
C1896 H1892 0.949 . S
C1896 C1904 1.574 . S
C1896 C1912 1.368 . S
H1897 C1905 0.950 . S
H1898 C1903 0.950 . S
H1899 C1904 0.949 . S
H1900 C1906 0.950 . S
H1901 C1907 0.950 . S
H1902 C1908 0.949 . S
C1903 H1898 0.950 . S
C1903 C1905 1.327 . S
C1903 C1909 1.429 . S
C1904 C1896 1.574 . S
C1904 H1899 0.949 . S
C1904 C1910 1.368 . S
C1905 C1889 1.349 . S
C1905 H1897 0.950 . S
C1905 C1903 1.327 . S
C1906 C1894 1.349 . S
C1906 H1900 0.950 . S
C1906 C1907 1.327 . S
C1907 H1901 0.950 . S
C1907 C1906 1.327 . S
C1907 C1911 1.429 . S
C1908 C1891 1.574 . S
C1908 H1902 0.949 . S
C1908 C1912 1.368 . S
C1909 C1890 1.429 . S
C1909 C1903 1.429 . S
C1909 C1910 1.523 . S
C1910 C1891 1.368 . S
C1910 C1904 1.368 . S
C1910 C1909 1.523 . S
C1911 C1895 1.429 . S
C1911 C1907 1.429 . S
C1911 C1912 1.523 . S
C1912 C1896 1.368 . S
C1912 C1908 1.368 . S
C1912 C1911 1.523 . S
H1913 C1888 0.950 . S
H1914 C1890 0.950 . S
H1915 C1891 0.949 . S
H1916 C1893 0.950 . S
H1917 C1895 0.950 . S
C1918 C1919 1.349 . S
C1918 C1920 1.327 . S
C1918 H1943 0.950 . S
C1919 C1918 1.349 . S
C1919 C1935 1.349 . S
C1920 C1918 1.327 . S
C1920 C1939 1.429 . S
C1920 H1944 0.950 . S
C1921 C1938 1.574 . S
C1921 C1940 1.368 . S
C1921 H1945 0.949 . S
H1922 C1926 0.949 . S
C1923 C1924 1.349 . S
C1923 C1925 1.327 . S
C1923 H1946 0.950 . S
C1924 C1923 1.349 . S
C1924 C1936 1.349 . S
C1925 C1923 1.327 . S
C1925 C1941 1.429 . S
C1925 H1947 0.950 . S
C1926 H1922 0.949 . S
C1926 C1934 1.574 . S
C1926 C1942 1.368 . S
H1927 C1935 0.950 . S
H1928 C1933 0.950 . S
H1929 C1934 0.949 . S
H1930 C1936 0.950 . S
H1931 C1937 0.950 . S
H1932 C1938 0.949 . S
C1933 H1928 0.950 . S
C1933 C1935 1.327 . S
C1933 C1939 1.429 . S
C1934 C1926 1.574 . S
C1934 H1929 0.949 . S
C1934 C1940 1.368 . S
C1935 C1919 1.349 . S
C1935 H1927 0.950 . S
C1935 C1933 1.327 . S
C1936 C1924 1.349 . S
C1936 H1930 0.950 . S
C1936 C1937 1.327 . S
C1937 H1931 0.950 . S
C1937 C1936 1.327 . S
C1937 C1941 1.429 . S
C1938 C1921 1.574 . S
C1938 H1932 0.949 . S
C1938 C1942 1.368 . S
C1939 C1920 1.429 . S
C1939 C1933 1.429 . S
C1939 C1940 1.523 . S
C1940 C1921 1.368 . S
C1940 C1934 1.368 . S
C1940 C1939 1.523 . S
C1941 C1925 1.429 . S
C1941 C1937 1.429 . S
C1941 C1942 1.523 . S
C1942 C1926 1.368 . S
C1942 C1938 1.368 . S
C1942 C1941 1.523 . S
H1943 C1918 0.950 . S
H1944 C1920 0.950 . S
H1945 C1921 0.949 . S
H1946 C1923 0.950 . S
H1947 C1925 0.950 . S
C1948 C1949 1.349 . S
C1948 C1950 1.327 . S
C1948 H1973 0.950 . S
C1949 C1948 1.349 . S
C1949 C1965 1.349 . S
C1950 C1948 1.327 . S
C1950 C1969 1.429 . S
C1950 H1974 0.950 . S
C1951 C1968 1.574 . S
C1951 C1970 1.368 . S
C1951 H1975 0.949 . S
H1952 C1956 0.949 . S
C1953 C1954 1.349 . S
C1953 C1955 1.327 . S
C1953 H1976 0.950 . S
C1954 C1953 1.349 . S
C1954 C1966 1.349 . S
C1955 C1953 1.327 . S
C1955 C1971 1.429 . S
C1955 H1977 0.950 . S
C1956 H1952 0.949 . S
C1956 C1964 1.574 . S
C1956 C1972 1.368 . S
H1957 C1965 0.950 . S
H1958 C1963 0.950 . S
H1959 C1964 0.949 . S
H1960 C1966 0.950 . S
H1961 C1967 0.950 . S
H1962 C1968 0.949 . S
C1963 H1958 0.950 . S
C1963 C1965 1.327 . S
C1963 C1969 1.429 . S
C1964 C1956 1.574 . S
C1964 H1959 0.949 . S
C1964 C1970 1.368 . S
C1965 C1949 1.349 . S
C1965 H1957 0.950 . S
C1965 C1963 1.327 . S
C1966 C1954 1.349 . S
C1966 H1960 0.950 . S
C1966 C1967 1.327 . S
C1967 H1961 0.950 . S
C1967 C1966 1.327 . S
C1967 C1971 1.429 . S
C1968 C1951 1.574 . S
C1968 H1962 0.949 . S
C1968 C1972 1.368 . S
C1969 C1950 1.429 . S
C1969 C1963 1.429 . S
C1969 C1970 1.523 . S
C1970 C1951 1.368 . S
C1970 C1964 1.368 . S
C1970 C1969 1.523 . S
C1971 C1955 1.429 . S
C1971 C1967 1.429 . S
C1971 C1972 1.523 . S
C1972 C1956 1.368 . S
C1972 C1968 1.368 . S
C1972 C1971 1.523 . S
H1973 C1948 0.950 . S
H1974 C1950 0.950 . S
H1975 C1951 0.949 . S
H1976 C1953 0.950 . S
H1977 C1955 0.950 . S
C1978 C1979 1.349 . S
C1978 C1980 1.327 . S
C1978 H2003 0.950 . S
C1979 C1978 1.349 . S
C1979 C1995 1.349 . S
C1980 C1978 1.327 . S
C1980 C1999 1.429 . S
C1980 H2004 0.950 . S
C1981 C1998 1.574 . S
C1981 C2000 1.368 . S
C1981 H2005 0.949 . S
H1982 C1986 0.949 . S
C1983 C1984 1.349 . S
C1983 C1985 1.327 . S
C1983 H2006 0.950 . S
C1984 C1983 1.349 . S
C1984 C1996 1.349 . S
C1985 C1983 1.327 . S
C1985 C2001 1.429 . S
C1985 H2007 0.950 . S
C1986 H1982 0.949 . S
C1986 C1994 1.574 . S
C1986 C2002 1.368 . S
H1987 C1995 0.950 . S
H1988 C1993 0.950 . S
H1989 C1994 0.949 . S
H1990 C1996 0.950 . S
H1991 C1997 0.950 . S
H1992 C1998 0.949 . S
C1993 H1988 0.950 . S
C1993 C1995 1.327 . S
C1993 C1999 1.429 . S
C1994 C1986 1.574 . S
C1994 H1989 0.949 . S
C1994 C2000 1.368 . S
C1995 C1979 1.349 . S
C1995 H1987 0.950 . S
C1995 C1993 1.327 . S
C1996 C1984 1.349 . S
C1996 H1990 0.950 . S
C1996 C1997 1.327 . S
C1997 H1991 0.950 . S
C1997 C1996 1.327 . S
C1997 C2001 1.429 . S
C1998 C1981 1.574 . S
C1998 H1992 0.949 . S
C1998 C2002 1.368 . S
C1999 C1980 1.429 . S
C1999 C1993 1.429 . S
C1999 C2000 1.523 . S
C2000 C1981 1.368 . S
C2000 C1994 1.368 . S
C2000 C1999 1.523 . S
C2001 C1985 1.429 . S
C2001 C1997 1.429 . S
C2001 C2002 1.523 . S
C2002 C1986 1.368 . S
C2002 C1998 1.368 . S
C2002 C2001 1.523 . S
H2003 C1978 0.950 . S
H2004 C1980 0.950 . S
H2005 C1981 0.949 . S
H2006 C1983 0.950 . S
H2007 C1985 0.950 . S
C2008 C2009 1.349 . S
C2008 C2010 1.327 . S
C2008 H2033 0.950 . S
C2009 C2008 1.349 . S
C2009 C2025 1.349 . S
C2010 C2008 1.327 . S
C2010 C2029 1.429 . S
C2010 H2034 0.950 . S
C2011 C2028 1.574 . S
C2011 C2030 1.368 . S
C2011 H2035 0.949 . S
H2012 C2016 0.949 . S
C2013 C2014 1.349 . S
C2013 C2015 1.327 . S
C2013 H2036 0.950 . S
C2014 C2013 1.349 . S
C2014 C2026 1.349 . S
C2015 C2013 1.327 . S
C2015 C2031 1.429 . S
C2015 H2037 0.950 . S
C2016 H2012 0.949 . S
C2016 C2024 1.574 . S
C2016 C2032 1.368 . S
H2017 C2025 0.950 . S
H2018 C2023 0.950 . S
H2019 C2024 0.949 . S
H2020 C2026 0.950 . S
H2021 C2027 0.950 . S
H2022 C2028 0.949 . S
C2023 H2018 0.950 . S
C2023 C2025 1.327 . S
C2023 C2029 1.429 . S
C2024 C2016 1.574 . S
C2024 H2019 0.949 . S
C2024 C2030 1.368 . S
C2025 C2009 1.349 . S
C2025 H2017 0.950 . S
C2025 C2023 1.327 . S
C2026 C2014 1.349 . S
C2026 H2020 0.950 . S
C2026 C2027 1.327 . S
C2027 H2021 0.950 . S
C2027 C2026 1.327 . S
C2027 C2031 1.429 . S
C2028 C2011 1.574 . S
C2028 H2022 0.949 . S
C2028 C2032 1.368 . S
C2029 C2010 1.429 . S
C2029 C2023 1.429 . S
C2029 C2030 1.523 . S
C2030 C2011 1.368 . S
C2030 C2024 1.368 . S
C2030 C2029 1.523 . S
C2031 C2015 1.429 . S
C2031 C2027 1.429 . S
C2031 C2032 1.523 . S
C2032 C2016 1.368 . S
C2032 C2028 1.368 . S
C2032 C2031 1.523 . S
H2033 C2008 0.950 . S
H2034 C2010 0.950 . S
H2035 C2011 0.949 . S
H2036 C2013 0.950 . S
H2037 C2015 0.950 . S
C2038 C2039 1.349 . S
C2038 C2040 1.327 . S
C2038 H2063 0.950 . S
C2039 C2038 1.349 . S
C2039 C2055 1.349 . S
C2040 C2038 1.327 . S
C2040 C2059 1.429 . S
C2040 H2064 0.950 . S
C2041 C2058 1.574 . S
C2041 C2060 1.368 . S
C2041 H2065 0.949 . S
H2042 C2046 0.949 . S
C2043 C2044 1.349 . S
C2043 C2045 1.327 . S
C2043 H2066 0.950 . S
C2044 C2043 1.349 . S
C2044 C2056 1.349 . S
C2045 C2043 1.327 . S
C2045 C2061 1.429 . S
C2045 H2067 0.950 . S
C2046 H2042 0.949 . S
C2046 C2054 1.574 . S
C2046 C2062 1.368 . S
H2047 C2055 0.950 . S
H2048 C2053 0.950 . S
H2049 C2054 0.949 . S
H2050 C2056 0.950 . S
H2051 C2057 0.950 . S
H2052 C2058 0.949 . S
C2053 H2048 0.950 . S
C2053 C2055 1.327 . S
C2053 C2059 1.429 . S
C2054 C2046 1.574 . S
C2054 H2049 0.949 . S
C2054 C2060 1.368 . S
C2055 C2039 1.349 . S
C2055 H2047 0.950 . S
C2055 C2053 1.327 . S
C2056 C2044 1.349 . S
C2056 H2050 0.950 . S
C2056 C2057 1.327 . S
C2057 H2051 0.950 . S
C2057 C2056 1.327 . S
C2057 C2061 1.429 . S
C2058 C2041 1.574 . S
C2058 H2052 0.949 . S
C2058 C2062 1.368 . S
C2059 C2040 1.429 . S
C2059 C2053 1.429 . S
C2059 C2060 1.523 . S
C2060 C2041 1.368 . S
C2060 C2054 1.368 . S
C2060 C2059 1.523 . S
C2061 C2045 1.429 . S
C2061 C2057 1.429 . S
C2061 C2062 1.523 . S
C2062 C2046 1.368 . S
C2062 C2058 1.368 . S
C2062 C2061 1.523 . S
H2063 C2038 0.950 . S
H2064 C2040 0.950 . S
H2065 C2041 0.949 . S
H2066 C2043 0.950 . S
H2067 C2045 0.950 . S
C2068 C2069 1.349 . S
C2068 C2070 1.327 . S
C2068 H2093 0.950 . S
C2069 C2068 1.349 . S
C2069 C2085 1.349 . S
C2070 C2068 1.327 . S
C2070 C2089 1.429 . S
C2070 H2094 0.950 . S
C2071 C2088 1.574 . S
C2071 C2090 1.368 . S
C2071 H2095 0.949 . S
H2072 C2076 0.949 . S
C2073 C2074 1.349 . S
C2073 C2075 1.327 . S
C2073 H2096 0.950 . S
C2074 C2073 1.349 . S
C2074 C2086 1.349 . S
C2075 C2073 1.327 . S
C2075 C2091 1.429 . S
C2075 H2097 0.950 . S
C2076 H2072 0.949 . S
C2076 C2084 1.574 . S
C2076 C2092 1.368 . S
H2077 C2085 0.950 . S
H2078 C2083 0.950 . S
H2079 C2084 0.949 . S
H2080 C2086 0.950 . S
H2081 C2087 0.950 . S
H2082 C2088 0.949 . S
C2083 H2078 0.950 . S
C2083 C2085 1.327 . S
C2083 C2089 1.429 . S
C2084 C2076 1.574 . S
C2084 H2079 0.949 . S
C2084 C2090 1.368 . S
C2085 C2069 1.349 . S
C2085 H2077 0.950 . S
C2085 C2083 1.327 . S
C2086 C2074 1.349 . S
C2086 H2080 0.950 . S
C2086 C2087 1.327 . S
C2087 H2081 0.950 . S
C2087 C2086 1.327 . S
C2087 C2091 1.429 . S
C2088 C2071 1.574 . S
C2088 H2082 0.949 . S
C2088 C2092 1.368 . S
C2089 C2070 1.429 . S
C2089 C2083 1.429 . S
C2089 C2090 1.523 . S
C2090 C2071 1.368 . S
C2090 C2084 1.368 . S
C2090 C2089 1.523 . S
C2091 C2075 1.429 . S
C2091 C2087 1.429 . S
C2091 C2092 1.523 . S
C2092 C2076 1.368 . S
C2092 C2088 1.368 . S
C2092 C2091 1.523 . S
H2093 C2068 0.950 . S
H2094 C2070 0.950 . S
H2095 C2071 0.949 . S
H2096 C2073 0.950 . S
H2097 C2075 0.950 . S
C2098 C2099 1.349 . S
C2098 C2100 1.327 . S
C2098 H2123 0.950 . S
C2099 C2098 1.349 . S
C2099 C2115 1.349 . S
C2100 C2098 1.327 . S
C2100 C2119 1.429 . S
C2100 H2124 0.950 . S
C2101 C2118 1.574 . S
C2101 C2120 1.368 . S
C2101 H2125 0.949 . S
H2102 C2106 0.949 . S
C2103 C2104 1.349 . S
C2103 C2105 1.327 . S
C2103 H2126 0.950 . S
C2104 C2103 1.349 . S
C2104 C2116 1.349 . S
C2105 C2103 1.327 . S
C2105 C2121 1.429 . S
C2105 H2127 0.950 . S
C2106 H2102 0.949 . S
C2106 C2114 1.574 . S
C2106 C2122 1.368 . S
H2107 C2115 0.950 . S
H2108 C2113 0.950 . S
H2109 C2114 0.949 . S
H2110 C2116 0.950 . S
H2111 C2117 0.950 . S
H2112 C2118 0.949 . S
C2113 H2108 0.950 . S
C2113 C2115 1.327 . S
C2113 C2119 1.429 . S
C2114 C2106 1.574 . S
C2114 H2109 0.949 . S
C2114 C2120 1.368 . S
C2115 C2099 1.349 . S
C2115 H2107 0.950 . S
C2115 C2113 1.327 . S
C2116 C2104 1.349 . S
C2116 H2110 0.950 . S
C2116 C2117 1.327 . S
C2117 H2111 0.950 . S
C2117 C2116 1.327 . S
C2117 C2121 1.429 . S
C2118 C2101 1.574 . S
C2118 H2112 0.949 . S
C2118 C2122 1.368 . S
C2119 C2100 1.429 . S
C2119 C2113 1.429 . S
C2119 C2120 1.523 . S
C2120 C2101 1.368 . S
C2120 C2114 1.368 . S
C2120 C2119 1.523 . S
C2121 C2105 1.429 . S
C2121 C2117 1.429 . S
C2121 C2122 1.523 . S
C2122 C2106 1.368 . S
C2122 C2118 1.368 . S
C2122 C2121 1.523 . S
H2123 C2098 0.950 . S
H2124 C2100 0.950 . S
H2125 C2101 0.949 . S
H2126 C2103 0.950 . S
H2127 C2105 0.950 . S
C2128 C2129 1.349 . S
C2128 C2130 1.327 . S
C2128 H2153 0.950 . S
C2129 C2128 1.349 . S
C2129 C2145 1.349 . S
C2130 C2128 1.327 . S
C2130 C2149 1.429 . S
C2130 H2154 0.950 . S
C2131 C2148 1.574 1_554 S
C2131 C2150 1.368 . S
C2131 H2155 0.949 . S
H2132 C2136 0.949 . S
C2133 C2134 1.349 . S
C2133 C2135 1.327 . S
C2133 H2156 0.950 . S
C2134 C2133 1.349 . S
C2134 C2146 1.349 . S
C2135 C2133 1.327 . S
C2135 C2151 1.429 . S
C2135 H2157 0.950 . S
C2136 H2132 0.949 . S
C2136 C2144 1.574 1_556 S
C2136 C2152 1.368 . S
H2137 C2145 0.950 . S
H2138 C2143 0.950 . S
H2139 C2144 0.949 . S
H2140 C2146 0.950 . S
H2141 C2147 0.950 . S
H2142 C2148 0.949 . S
C2143 H2138 0.950 . S
C2143 C2145 1.327 . S
C2143 C2149 1.429 . S
C2144 C2136 1.574 1_554 S
C2144 H2139 0.949 . S
C2144 C2150 1.368 . S
C2145 C2129 1.349 . S
C2145 H2137 0.950 . S
C2145 C2143 1.327 . S
C2146 C2134 1.349 . S
C2146 H2140 0.950 . S
C2146 C2147 1.327 . S
C2147 H2141 0.950 . S
C2147 C2146 1.327 . S
C2147 C2151 1.429 . S
C2148 C2131 1.574 1_556 S
C2148 H2142 0.949 . S
C2148 C2152 1.368 . S
C2149 C2130 1.429 . S
C2149 C2143 1.429 . S
C2149 C2150 1.523 . S
C2150 C2131 1.368 . S
C2150 C2144 1.368 . S
C2150 C2149 1.523 . S
C2151 C2135 1.429 . S
C2151 C2147 1.429 . S
C2151 C2152 1.523 . S
C2152 C2136 1.368 . S
C2152 C2148 1.368 . S
C2152 C2151 1.523 . S
H2153 C2128 0.950 . S
H2154 C2130 0.950 . S
H2155 C2131 0.949 . S
H2156 C2133 0.950 . S
H2157 C2135 0.950 . S
C2158 C2159 1.349 . S
C2158 C2160 1.327 . S
C2158 H2183 0.950 . S
C2159 C2158 1.349 . S
C2159 C2175 1.349 . S
C2160 C2158 1.327 . S
C2160 C2179 1.429 . S
C2160 H2184 0.950 . S
C2161 C2178 1.574 . S
C2161 C2180 1.368 . S
C2161 H2185 0.949 . S
H2162 C2166 0.949 . S
C2163 C2164 1.349 . S
C2163 C2165 1.327 . S
C2163 H2186 0.950 . S
C2164 C2163 1.349 . S
C2164 C2176 1.349 . S
C2165 C2163 1.327 . S
C2165 C2181 1.429 . S
C2165 H2187 0.950 . S
C2166 H2162 0.949 . S
C2166 C2174 1.574 . S
C2166 C2182 1.368 . S
H2167 C2175 0.950 . S
H2168 C2173 0.950 . S
H2169 C2174 0.949 . S
H2170 C2176 0.950 . S
H2171 C2177 0.950 . S
H2172 C2178 0.949 . S
C2173 H2168 0.950 . S
C2173 C2175 1.327 . S
C2173 C2179 1.429 . S
C2174 C2166 1.574 . S
C2174 H2169 0.949 . S
C2174 C2180 1.368 . S
C2175 C2159 1.349 . S
C2175 H2167 0.950 . S
C2175 C2173 1.327 . S
C2176 C2164 1.349 . S
C2176 H2170 0.950 . S
C2176 C2177 1.327 . S
C2177 H2171 0.950 . S
C2177 C2176 1.327 . S
C2177 C2181 1.429 . S
C2178 C2161 1.574 . S
C2178 H2172 0.949 . S
C2178 C2182 1.368 . S
C2179 C2160 1.429 . S
C2179 C2173 1.429 . S
C2179 C2180 1.523 . S
C2180 C2161 1.368 . S
C2180 C2174 1.368 . S
C2180 C2179 1.523 . S
C2181 C2165 1.429 . S
C2181 C2177 1.429 . S
C2181 C2182 1.523 . S
C2182 C2166 1.368 . S
C2182 C2178 1.368 . S
C2182 C2181 1.523 . S
H2183 C2158 0.950 . S
H2184 C2160 0.950 . S
H2185 C2161 0.949 . S
H2186 C2163 0.950 . S
H2187 C2165 0.950 . S
C2188 C2189 1.349 . S
C2188 C2190 1.327 . S
C2188 H2213 0.950 . S
C2189 C2188 1.349 . S
C2189 C2205 1.349 1_655 S
C2190 C2188 1.327 . S
C2190 C2209 1.429 . S
C2190 H2214 0.950 . S
C2191 C2208 1.574 1_554 S
C2191 C2210 1.368 1_455 S
C2191 H2215 0.949 . S
H2192 C2196 0.949 . S
C2193 C2194 1.349 1_455 S
C2193 C2195 1.327 . S
C2193 H2216 0.950 . S
C2194 C2193 1.349 1_655 S
C2194 C2206 1.349 . S
C2195 C2193 1.327 . S
C2195 C2211 1.429 1_455 S
C2195 H2217 0.950 . S
C2196 H2192 0.949 . S
C2196 C2204 1.574 1_556 S
C2196 C2212 1.368 . S
H2197 C2205 0.950 . S
H2198 C2203 0.950 . S
H2199 C2204 0.949 . S
H2200 C2206 0.950 . S
H2201 C2207 0.950 . S
H2202 C2208 0.949 . S
C2203 H2198 0.950 . S
C2203 C2205 1.327 . S
C2203 C2209 1.429 1_455 S
C2204 C2196 1.574 1_554 S
C2204 H2199 0.949 . S
C2204 C2210 1.368 . S
C2205 C2189 1.349 1_455 S
C2205 H2197 0.950 . S
C2205 C2203 1.327 . S
C2206 C2194 1.349 . S
C2206 H2200 0.950 . S
C2206 C2207 1.327 . S
C2207 H2201 0.950 . S
C2207 C2206 1.327 . S
C2207 C2211 1.429 . S
C2208 C2191 1.574 1_556 S
C2208 H2202 0.949 . S
C2208 C2212 1.368 1_455 S
C2209 C2190 1.429 . S
C2209 C2203 1.429 1_655 S
C2209 C2210 1.523 . S
C2210 C2191 1.368 1_655 S
C2210 C2204 1.368 . S
C2210 C2209 1.523 . S
C2211 C2195 1.429 1_655 S
C2211 C2207 1.429 . S
C2211 C2212 1.523 . S
C2212 C2196 1.368 . S
C2212 C2208 1.368 1_655 S
C2212 C2211 1.523 . S
H2213 C2188 0.950 . S
H2214 C2190 0.950 . S
H2215 C2191 0.949 . S
H2216 C2193 0.950 . S
H2217 C2195 0.950 . S
C2218 C2219 1.349 1_545 S
C2218 C2220 1.327 . S
C2218 H2243 0.950 . S
C2219 C2218 1.349 1_565 S
C2219 C2235 1.349 . S
C2220 C2218 1.327 . S
C2220 C2239 1.429 1_545 S
C2220 H2244 0.950 . S
C2221 C2238 1.574 . S
C2221 C2240 1.368 . S
C2221 H2245 0.949 . S
H2222 C2226 0.949 . S
C2223 C2224 1.349 . S
C2223 C2225 1.327 . S
C2223 H2246 0.950 . S
C2224 C2223 1.349 . S
C2224 C2236 1.349 1_565 S
C2225 C2223 1.327 . S
C2225 C2241 1.429 . S
C2225 H2247 0.950 . S
C2226 H2222 0.949 . S
C2226 C2234 1.574 . S
C2226 C2242 1.368 1_545 S
H2227 C2235 0.950 . S
H2228 C2233 0.950 . S
H2229 C2234 0.949 . S
H2230 C2236 0.950 . S
H2231 C2237 0.950 . S
H2232 C2238 0.949 . S
C2233 H2228 0.950 . S
C2233 C2235 1.327 . S
C2233 C2239 1.429 . S
C2234 C2226 1.574 . S
C2234 H2229 0.949 . S
C2234 C2240 1.368 1_545 S
C2235 C2219 1.349 . S
C2235 H2227 0.950 . S
C2235 C2233 1.327 . S
C2236 C2224 1.349 1_545 S
C2236 H2230 0.950 . S
C2236 C2237 1.327 . S
C2237 H2231 0.950 . S
C2237 C2236 1.327 . S
C2237 C2241 1.429 1_545 S
C2238 C2221 1.574 . S
C2238 H2232 0.949 . S
C2238 C2242 1.368 . S
C2239 C2220 1.429 1_565 S
C2239 C2233 1.429 . S
C2239 C2240 1.523 . S
C2240 C2221 1.368 . S
C2240 C2234 1.368 1_565 S
C2240 C2239 1.523 . S
C2241 C2225 1.429 . S
C2241 C2237 1.429 1_565 S
C2241 C2242 1.523 . S
C2242 C2226 1.368 1_565 S
C2242 C2238 1.368 . S
C2242 C2241 1.523 . S
H2243 C2218 0.950 . S
H2244 C2220 0.950 . S
H2245 C2221 0.949 . S
H2246 C2223 0.950 . S
H2247 C2225 0.950 . S
C2248 C2249 1.349 . S
C2248 C2250 1.327 . S
C2248 H2273 0.950 . S
C2249 C2248 1.349 . S
C2249 C2265 1.349 . S
C2250 C2248 1.327 . S
C2250 C2269 1.429 . S
C2250 H2274 0.950 . S
C2251 C2268 1.574 1_556 S
C2251 C2270 1.368 . S
C2251 H2275 0.949 . S
H2252 C2256 0.949 . S
C2253 C2254 1.349 . S
C2253 C2255 1.327 . S
C2253 H2276 0.950 . S
C2254 C2253 1.349 . S
C2254 C2266 1.349 . S
C2255 C2253 1.327 . S
C2255 C2271 1.429 . S
C2255 H2277 0.950 . S
C2256 H2252 0.949 . S
C2256 C2264 1.574 1_554 S
C2256 C2272 1.368 . S
H2257 C2265 0.950 . S
H2258 C2263 0.950 . S
H2259 C2264 0.949 . S
H2260 C2266 0.950 . S
H2261 C2267 0.950 . S
H2262 C2268 0.949 . S
C2263 H2258 0.950 . S
C2263 C2265 1.327 . S
C2263 C2269 1.429 . S
C2264 C2256 1.574 1_556 S
C2264 H2259 0.949 . S
C2264 C2270 1.368 . S
C2265 C2249 1.349 . S
C2265 H2257 0.950 . S
C2265 C2263 1.327 . S
C2266 C2254 1.349 . S
C2266 H2260 0.950 . S
C2266 C2267 1.327 . S
C2267 H2261 0.950 . S
C2267 C2266 1.327 . S
C2267 C2271 1.429 . S
C2268 C2251 1.574 1_554 S
C2268 H2262 0.949 . S
C2268 C2272 1.368 . S
C2269 C2250 1.429 . S
C2269 C2263 1.429 . S
C2269 C2270 1.523 . S
C2270 C2251 1.368 . S
C2270 C2264 1.368 . S
C2270 C2269 1.523 . S
C2271 C2255 1.429 . S
C2271 C2267 1.429 . S
C2271 C2272 1.523 . S
C2272 C2256 1.368 . S
C2272 C2268 1.368 . S
C2272 C2271 1.523 . S
H2273 C2248 0.950 . S
H2274 C2250 0.950 . S
H2275 C2251 0.949 . S
H2276 C2253 0.950 . S
H2277 C2255 0.950 . S
C2278 C2279 1.349 . S
C2278 C2280 1.327 . S
C2278 H2303 0.950 . S
C2279 C2278 1.349 . S
C2279 C2295 1.349 . S
C2280 C2278 1.327 . S
C2280 C2299 1.429 . S
C2280 H2304 0.950 . S
C2281 C2298 1.574 . S
C2281 C2300 1.368 . S
C2281 H2305 0.949 . S
H2282 C2286 0.949 . S
C2283 C2284 1.349 . S
C2283 C2285 1.327 . S
C2283 H2306 0.950 . S
C2284 C2283 1.349 . S
C2284 C2296 1.349 . S
C2285 C2283 1.327 . S
C2285 C2301 1.429 . S
C2285 H2307 0.950 . S
C2286 H2282 0.949 . S
C2286 C2294 1.574 . S
C2286 C2302 1.368 . S
H2287 C2295 0.950 . S
H2288 C2293 0.950 . S
H2289 C2294 0.949 . S
H2290 C2296 0.950 . S
H2291 C2297 0.950 . S
H2292 C2298 0.949 . S
C2293 H2288 0.950 . S
C2293 C2295 1.327 . S
C2293 C2299 1.429 . S
C2294 C2286 1.574 . S
C2294 H2289 0.949 . S
C2294 C2300 1.368 . S
C2295 C2279 1.349 . S
C2295 H2287 0.950 . S
C2295 C2293 1.327 . S
C2296 C2284 1.349 . S
C2296 H2290 0.950 . S
C2296 C2297 1.327 . S
C2297 H2291 0.950 . S
C2297 C2296 1.327 . S
C2297 C2301 1.429 . S
C2298 C2281 1.574 . S
C2298 H2292 0.949 . S
C2298 C2302 1.368 . S
C2299 C2280 1.429 . S
C2299 C2293 1.429 . S
C2299 C2300 1.523 . S
C2300 C2281 1.368 . S
C2300 C2294 1.368 . S
C2300 C2299 1.523 . S
C2301 C2285 1.429 . S
C2301 C2297 1.429 . S
C2301 C2302 1.523 . S
C2302 C2286 1.368 . S
C2302 C2298 1.368 . S
C2302 C2301 1.523 . S
H2303 C2278 0.950 . S
H2304 C2280 0.950 . S
H2305 C2281 0.949 . S
H2306 C2283 0.950 . S
H2307 C2285 0.950 . S
C2308 C2309 1.349 . S
C2308 C2310 1.327 . S
C2308 H2333 0.950 1_455 S
C2309 C2308 1.349 . S
C2309 C2325 1.349 . S
C2310 C2308 1.327 . S
C2310 C2329 1.429 . S
C2310 H2334 0.949 1_455 S
C2311 C2328 1.574 1_554 S
C2311 C2330 1.368 . S
C2311 H2335 0.949 . S
H2312 C2316 0.948 1_655 S
C2313 C2314 1.349 . S
C2313 C2315 1.327 . S
C2313 H2336 0.950 . S
C2314 C2313 1.349 . S
C2314 C2326 1.349 . S
C2315 C2313 1.327 . S
C2315 C2331 1.429 . S
C2315 H2337 0.950 . S
C2316 H2312 0.948 1_455 S
C2316 C2324 1.574 1_556 S
C2316 C2332 1.368 . S
H2317 C2325 0.950 . S
H2318 C2323 0.950 . S
H2319 C2324 0.948 1_655 S
H2320 C2326 0.950 1_655 S
H2321 C2327 0.949 1_655 S
H2322 C2328 0.949 . S
C2323 H2318 0.950 . S
C2323 C2325 1.327 . S
C2323 C2329 1.429 . S
C2324 C2316 1.574 1_554 S
C2324 H2319 0.948 1_455 S
C2324 C2330 1.368 . S
C2325 C2309 1.349 . S
C2325 H2317 0.950 . S
C2325 C2323 1.327 . S
C2326 C2314 1.349 . S
C2326 H2320 0.950 1_455 S
C2326 C2327 1.327 . S
C2327 H2321 0.949 1_455 S
C2327 C2326 1.327 . S
C2327 C2331 1.429 . S
C2328 C2311 1.574 1_556 S
C2328 H2322 0.949 . S
C2328 C2332 1.368 . S
C2329 C2310 1.429 . S
C2329 C2323 1.429 . S
C2329 C2330 1.523 . S
C2330 C2311 1.368 . S
C2330 C2324 1.368 . S
C2330 C2329 1.523 . S
C2331 C2315 1.429 . S
C2331 C2327 1.429 . S
C2331 C2332 1.523 . S
C2332 C2316 1.368 . S
C2332 C2328 1.368 . S
C2332 C2331 1.523 . S
H2333 C2308 0.950 1_655 S
H2334 C2310 0.949 1_655 S
H2335 C2311 0.949 . S
H2336 C2313 0.950 . S
H2337 C2315 0.950 . S
C2338 C2339 1.349 1_565 S
C2338 C2340 1.327 . S
C2338 H2363 0.950 . S
C2339 C2338 1.349 1_545 S
C2339 C2355 1.349 . S
C2340 C2338 1.327 . S
C2340 C2359 1.429 1_565 S
C2340 H2364 0.950 . S
C2341 C2358 1.574 . S
C2341 C2360 1.368 . S
C2341 H2365 0.949 . S
H2342 C2346 0.949 . S
C2343 C2344 1.349 . S
C2343 C2345 1.327 . S
C2343 H2366 0.950 . S
C2344 C2343 1.349 . S
C2344 C2356 1.349 1_545 S
C2345 C2343 1.327 . S
C2345 C2361 1.429 . S
C2345 H2367 0.950 . S
C2346 H2342 0.949 . S
C2346 C2354 1.574 . S
C2346 C2362 1.368 1_565 S
H2347 C2355 0.950 . S
H2348 C2353 0.950 . S
H2349 C2354 0.949 . S
H2350 C2356 0.950 . S
H2351 C2357 0.950 . S
H2352 C2358 0.949 . S
C2353 H2348 0.950 . S
C2353 C2355 1.327 . S
C2353 C2359 1.429 . S
C2354 C2346 1.574 . S
C2354 H2349 0.949 . S
C2354 C2360 1.368 1_565 S
C2355 C2339 1.349 . S
C2355 H2347 0.950 . S
C2355 C2353 1.327 . S
C2356 C2344 1.349 1_565 S
C2356 H2350 0.950 . S
C2356 C2357 1.327 . S
C2357 H2351 0.950 . S
C2357 C2356 1.327 . S
C2357 C2361 1.429 1_565 S
C2358 C2341 1.574 . S
C2358 H2352 0.949 . S
C2358 C2362 1.368 . S
C2359 C2340 1.429 1_545 S
C2359 C2353 1.429 . S
C2359 C2360 1.523 . S
C2360 C2341 1.368 . S
C2360 C2354 1.368 1_545 S
C2360 C2359 1.523 . S
C2361 C2345 1.429 . S
C2361 C2357 1.429 1_545 S
C2361 C2362 1.523 . S
C2362 C2346 1.368 1_545 S
C2362 C2358 1.368 . S
C2362 C2361 1.523 . S
H2363 C2338 0.950 . S
H2364 C2340 0.950 . S
H2365 C2341 0.949 . S
H2366 C2343 0.950 . S
H2367 C2345 0.950 . S
C1409 C57 0.826 . S
C1414 C665 0.826 . S
C1439 C117 0.826 . S
C1444 C372 0.826 . S
C1469 C205 0.826 . S
C1474 C469 0.826 . S
C1499 C293 0.826 . S
C1504 C577 0.826 . S
C1529 C733 0.833 . S
C1534 C1377 0.833 . S
C1559 C1105 0.833 . S
C1564 C812 0.833 . S
C1589 C909 0.833 . S
C1594 C1193 0.833 . S
C1619 C997 0.833 . S
C1624 C1289 0.833 . S
C1649 C29 1.230 . S
C1654 C849 1.270 . S
C1679 C145 1.230 . S
C1684 C929 1.270 . S
C1709 C1017 1.270 . S
C1714 C233 1.230 . S
C1739 C321 1.230 . S
C1744 C753 1.271 . S
C1769 C401 1.230 . S
C1774 C1340 1.270 . S
C1799 C1085 1.270 . S
C1804 C497 1.230 . S
C1829 C1173 1.271 . S
C1834 C548 1.230 . S
C1859 C1252 1.270 . S
C1864 C636 1.230 . S
C1889 C108 1.282 . S
C1894 C761 1.240 . S
C1919 C196 1.282 . S
C1924 C841 1.240 . S
C1949 C937 1.240 . S
C1954 C284 1.282 . S
C1979 C49 1.282 . S
C1984 C1025 1.240 . S
C2009 C1076 1.240 . S
C2014 C673 1.282 . S
C2039 C1164 1.240 . S
C2044 C381 1.282 . S
C2069 C460 1.282 . S
C2074 C1261 1.240 . S
C2099 C585 1.282 . S
C2104 C1349 1.240 . S
C2129 C20 1.586 . S
C2134 C409 1.586 . S
C2159 C489 1.586 . S
C2164 C137 1.586 . S
C2189 C225 1.586 . S
C2194 C557 1.586 . S
C2219 C645 1.586 . S
C2224 C313 1.586 . S
C2249 C724 1.578 . S
C2254 C1113 1.578 . S
C2279 C1201 1.578 . S
C2284 C821 1.578 . S
C2309 C1281 1.578 . S
C2314 C900 1.578 . S
C2339 C1369 1.578 . S
C2344 C988 1.578 . S
