# Generated by pormake.
# Topology wji, (4)-cn, num edge types: 1
# Building blocks:
#     Node 0, Type 0, BuildingBlock: CEKHIL_clean_sbu_0, # of connection points: 4
#     Node 1, Type 0, BuildingBlock: CEKHIL_clean_sbu_0, # of connection points: 4
#     Node 2, Type 0, BuildingBlock: CEKHIL_clean_sbu_0, # of connection points: 4
#     Node 3, Type 0, BuildingBlock: CEKHIL_clean_sbu_0, # of connection points: 4
#     Node 4, Type 0, BuildingBlock: CEKHIL_clean_sbu_0, # of connection points: 4
#     Node 5, Type 0, BuildingBlock: CEKHIL_clean_sbu_0, # of connection points: 4
#     Node 6, Type 0, BuildingBlock: CEKHIL_clean_sbu_0, # of connection points: 4
#     Node 7, Type 0, BuildingBlock: CEKHIL_clean_sbu_0, # of connection points: 4
#     Node 8, Type 0, BuildingBlock: CEKHIL_clean_sbu_0, # of connection points: 4
#     Node 9, Type 0, BuildingBlock: CEKHIL_clean_sbu_0, # of connection points: 4
#     Node 10, Type 0, BuildingBlock: CEKHIL_clean_sbu_0, # of connection points: 4
#     Node 11, Type 0, BuildingBlock: CEKHIL_clean_sbu_0, # of connection points: 4
#     Edge 12, Type (0, 0), BuildingBlock: XUDNAN_clean_linker_2, # of connection points: 2
#     Edge 13, Type (0, 0), BuildingBlock: XUDNAN_clean_linker_2, # of connection points: 2
#     Edge 14, Type (0, 0), BuildingBlock: XUDNAN_clean_linker_2, # of connection points: 2
#     Edge 15, Type (0, 0), BuildingBlock: XUDNAN_clean_linker_2, # of connection points: 2
#     Edge 16, Type (0, 0), BuildingBlock: XUDNAN_clean_linker_2, # of connection points: 2
#     Edge 17, Type (0, 0), BuildingBlock: XUDNAN_clean_linker_2, # of connection points: 2
#     Edge 18, Type (0, 0), BuildingBlock: XUDNAN_clean_linker_2, # of connection points: 2
#     Edge 19, Type (0, 0), BuildingBlock: XUDNAN_clean_linker_2, # of connection points: 2
#     Edge 20, Type (0, 0), BuildingBlock: XUDNAN_clean_linker_2, # of connection points: 2
#     Edge 21, Type (0, 0), BuildingBlock: XUDNAN_clean_linker_2, # of connection points: 2
#     Edge 22, Type (0, 0), BuildingBlock: XUDNAN_clean_linker_2, # of connection points: 2
#     Edge 23, Type (0, 0), BuildingBlock: XUDNAN_clean_linker_2, # of connection points: 2
#     Edge 24, Type (0, 0), BuildingBlock: XUDNAN_clean_linker_2, # of connection points: 2
#     Edge 25, Type (0, 0), BuildingBlock: XUDNAN_clean_linker_2, # of connection points: 2
#     Edge 26, Type (0, 0), BuildingBlock: XUDNAN_clean_linker_2, # of connection points: 2
#     Edge 27, Type (0, 0), BuildingBlock: XUDNAN_clean_linker_2, # of connection points: 2
#     Edge 28, Type (0, 0), BuildingBlock: XUDNAN_clean_linker_2, # of connection points: 2
#     Edge 29, Type (0, 0), BuildingBlock: XUDNAN_clean_linker_2, # of connection points: 2
#     Edge 30, Type (0, 0), BuildingBlock: XUDNAN_clean_linker_2, # of connection points: 2
#     Edge 31, Type (0, 0), BuildingBlock: XUDNAN_clean_linker_2, # of connection points: 2
#     Edge 32, Type (0, 0), BuildingBlock: XUDNAN_clean_linker_2, # of connection points: 2
#     Edge 33, Type (0, 0), BuildingBlock: XUDNAN_clean_linker_2, # of connection points: 2
#     Edge 34, Type (0, 0), BuildingBlock: XUDNAN_clean_linker_2, # of connection points: 2
#     Edge 35, Type (0, 0), BuildingBlock: XUDNAN_clean_linker_2, # of connection points: 2
# Relax obj value: 0.218
# Max RMSD: 0.136
# Mean RMSD: 0.136
data_MOF--net-wji--node1-CEKHIL_clean_sbu_0--edge1-XUDNAN_clean_linker_2
_symmetry_space_group_name_H-M    P1
_symmetry_Int_Tables_number       1
_symmetry_cell_setting            triclinic
loop_
_symmetry_equiv_pos_as_xyz
'x, y, z'
_cell_length_a     56.56832
_cell_length_b     56.665315
_cell_length_c     22.850173
_cell_angle_alpha  90.030127
_cell_angle_beta   90.056973
_cell_angle_gamma 120.00097
loop_
_atom_site_label
_atom_site_type_symbol
_atom_site_fract_x
_atom_site_fract_y
_atom_site_fract_z
_atom_type_partial_charge
Co0 Co 0.43036 0.32612 0.43102 0.0
O1 O 0.43896 0.30913 0.49435 0.0
O2 O 0.41139 0.28663 0.421 0.0
C3 C 0.47401 0.35966 0.41712 0.0
O4 O 0.41735 0.33739 0.35692 0.0
Co5 Co 0.44214 0.3858 0.44309 0.0
O6 O 0.43655 0.3831 0.3576 0.0
C7 C 0.39326 0.34056 0.49916 0.0
C8 C 0.423 0.28588 0.46972 0.0
C9 C 0.42282 0.36014 0.33218 0.0
O10 O 0.39852 0.32289 0.47684 0.0
O11 O 0.40867 0.36634 0.49303 0.0
O12 O 0.46525 0.33583 0.39352 0.0
O13 O 0.45694 0.36181 0.45088 0.0
Co14 Co 0.09963 0.43004 0.62858 0.0
O15 O 0.12467 0.43979 0.6929 0.0
O16 O 0.12428 0.41534 0.61736 0.0
C17 C 0.10506 0.47232 0.62007 0.0
O18 O 0.07554 0.41618 0.55398 0.0
Co19 Co 0.04776 0.43468 0.64563 0.0
O20 O 0.0443 0.42964 0.56018 0.0
C21 C 0.05061 0.38843 0.69735 0.0
C22 C 0.13447 0.42598 0.66834 0.0
C23 C 0.05584 0.4188 0.53195 0.0
O24 O 0.07356 0.39608 0.6721 0.0
O25 O 0.03783 0.40173 0.69471 0.0
O26 O 0.12172 0.46631 0.59365 0.0
O27 O 0.08699 0.45343 0.65281 0.0
Co28 Co 0.68381 0.10517 0.76529 0.0
O29 O 0.70178 0.13129 0.82739 0.0
O30 O 0.72326 0.12523 0.75348 0.0
C31 C 0.65051 0.1157 0.75127 0.0
O32 O 0.67131 0.07974 0.69287 0.0
Co33 Co 0.62362 0.05822 0.78259 0.0
O34 O 0.62562 0.05245 0.69794 0.0
C35 C 0.66919 0.05654 0.84222 0.0
C36 C 0.72475 0.13799 0.80205 0.0
C37 C 0.64818 0.06146 0.67086 0.0
O38 O 0.68697 0.07703 0.81282 0.0
O39 O 0.64347 0.04755 0.83993 0.0
O40 O 0.67419 0.1302 0.72657 0.0
O41 O 0.6485 0.09694 0.78612 0.0
Co42 Co 0.57838 0.67653 0.94269 0.0
O43 O 0.56776 0.69481 0.99923 0.0
O44 O 0.59807 0.71582 0.92945 0.0
C45 C 0.53533 0.64284 0.9228 0.0
O46 O 0.59397 0.66374 0.8757 0.0
Co47 Co 0.56512 0.617 0.96593 0.0
O48 O 0.57507 0.61819 0.88281 0.0
C49 C 0.61208 0.66307 0.02511 0.0
C50 C 0.58502 0.7176 0.97471 0.0
C51 C 0.58961 0.64049 0.85563 0.0
O52 O 0.60805 0.68042 0.99729 0.0
O53 O 0.59667 0.63722 0.02064 0.0
O54 O 0.54542 0.66619 0.89621 0.0
O55 O 0.55063 0.64138 0.96276 0.0
Co56 Co 0.89921 0.57283 0.09421 0.0
O57 O 0.87513 0.56623 0.16004 0.0
O58 O 0.87889 0.59189 0.08406 0.0
C59 C 0.88822 0.52873 0.08338 0.0
O60 O 0.92171 0.58422 0.01771 0.0
Co61 Co 0.94655 0.55964 0.10048 0.0
O62 O 0.94838 0.5652 0.01505 0.0
C63 C 0.95262 0.6099 0.15576 0.0
C64 C 0.8675 0.58171 0.13429 0.0
C65 C 0.93866 0.57881 0.99113 0.0
O66 O 0.92936 0.60521 0.1361 0.0
O67 O 0.96197 0.59364 0.14872 0.0
O68 O 0.87277 0.53726 0.0606 0.0
O69 O 0.90838 0.54633 0.11435 0.0
Co70 Co 0.32641 0.90088 0.26436 0.0
O71 O 0.30913 0.87491 0.32673 0.0
O72 O 0.28675 0.88174 0.2556 0.0
C73 C 0.35907 0.8897 0.24765 0.0
O74 O 0.33823 0.92598 0.19169 0.0
Co75 Co 0.3871 0.94731 0.27859 0.0
O76 O 0.38413 0.95185 0.19377 0.0
C77 C 0.34283 0.95122 0.33808 0.0
C78 C 0.28588 0.86887 0.30354 0.0
C79 C 0.36128 0.94337 0.16809 0.0
O80 O 0.32452 0.92959 0.31251 0.0
O81 O 0.36852 0.96045 0.33342 0.0
O82 O 0.33499 0.8753 0.22435 0.0
O83 O 0.36181 0.90868 0.28275 0.0
Co84 Co 0.68135 0.576 0.40498 0.0
O85 O 0.69602 0.56862 0.33579 0.0
O86 O 0.7212 0.59405 0.4095 0.0
C87 C 0.64767 0.53231 0.41763 0.0
O88 O 0.67232 0.58789 0.48366 0.0
Co89 Co 0.62145 0.56497 0.4028 0.0
O90 O 0.6266 0.56923 0.48824 0.0
C91 C 0.66576 0.61431 0.34645 0.0
C92 C 0.72007 0.58371 0.35791 0.0
C93 C 0.65019 0.5824 0.51148 0.0
O94 O 0.68387 0.60877 0.36496 0.0
O95 O 0.64006 0.59887 0.35409 0.0
O96 O 0.67209 0.54033 0.43746 0.0
O97 O 0.64501 0.55016 0.38794 0.0
Co98 Co 0.10478 0.68203 0.56304 0.0
O99 O 0.13504 0.70153 0.51046 0.0
O100 O 0.12211 0.72125 0.57661 0.0
C101 C 0.1152 0.64942 0.58579 0.0
O102 O 0.07466 0.66748 0.62608 0.0
Co103 Co 0.0612 0.62189 0.53318 0.0
O104 O 0.04955 0.62189 0.61493 0.0
C105 C 0.0621 0.66742 0.46887 0.0
C106 C 0.13851 0.72382 0.5339 0.0
C107 C 0.05599 0.64362 0.64356 0.0
O108 O 0.07959 0.68481 0.50477 0.0
O109 O 0.05412 0.64194 0.46959 0.0
O110 O 0.12708 0.67261 0.61349 0.0
O111 O 0.09947 0.64774 0.54338 0.0
Co112 Co 0.43446 0.10684 0.73029 0.0
O113 O 0.44305 0.1332 0.66863 0.0
O114 O 0.41409 0.12593 0.74066 0.0
C115 C 0.47823 0.11758 0.7465 0.0
O116 O 0.42095 0.08132 0.8023 0.0
Co117 Co 0.44814 0.06017 0.71506 0.0
O118 O 0.43972 0.05442 0.79931 0.0
C119 C 0.39957 0.05642 0.65703 0.0
C120 C 0.4259 0.139 0.69285 0.0
C121 C 0.42565 0.06315 0.82518 0.0
O122 O 0.40367 0.07853 0.68164 0.0
O123 O 0.41556 0.04666 0.66249 0.0
O124 O 0.46878 0.13201 0.77049 0.0
O125 O 0.46184 0.09885 0.71102 0.0
Co126 Co 0.32834 0.42567 0.88908 0.0
O127 O 0.30906 0.43399 0.83013 0.0
O128 O 0.28984 0.40925 0.90897 0.0
C129 C 0.36391 0.46875 0.89503 0.0
O130 O 0.34194 0.41303 0.95989 0.0
Co131 Co 0.38601 0.4341 0.86492 0.0
O132 O 0.38697 0.42879 0.95007 0.0
C133 C 0.33697 0.38675 0.81433 0.0
C134 C 0.2871 0.41981 0.86057 0.0
C135 C 0.36505 0.41692 0.97982 0.0
O136 O 0.32094 0.3923 0.84334 0.0
O137 O 0.36299 0.40173 0.8141 0.0
O138 O 0.34188 0.46161 0.92516 0.0
O139 O 0.36325 0.45048 0.86045 0.0
Co140 Co 0.90272 0.32424 0.07684 0.0
O141 O 0.8811 0.30941 0.0071 0.0
O142 O 0.88106 0.28441 0.08127 0.0
C143 C 0.89228 0.35771 0.08812 0.0
O144 O 0.92345 0.33367 0.15598 0.0
Co145 Co 0.95147 0.3839 0.07392 0.0
O146 O 0.95031 0.37936 0.15952 0.0
C147 C 0.95703 0.33938 0.02056 0.0
C148 C 0.87224 0.28544 0.02913 0.0
C149 C 0.94003 0.35599 0.18336 0.0
O150 O 0.93315 0.3216 0.03827 0.0
O151 O 0.96743 0.36509 0.02767 0.0
O152 O 0.876 0.33337 0.10808 0.0
O153 O 0.91301 0.36043 0.05901 0.0
Co154 Co 0.57594 0.9 0.22795 0.0
O155 O 0.56851 0.8756 0.16271 0.0
O156 O 0.59552 0.87992 0.23685 0.0
C157 C 0.53187 0.88892 0.24113 0.0
O158 O 0.5882 0.92365 0.30319 0.0
Co159 Co 0.56253 0.94705 0.21691 0.0
O160 O 0.56968 0.95082 0.3018 0.0
C161 C 0.61214 0.95213 0.16118 0.0
C162 C 0.58468 0.86849 0.18692 0.0
C163 C 0.58332 0.94149 0.32736 0.0
O164 O 0.60772 0.92953 0.18377 0.0
O165 O 0.59592 0.96161 0.16671 0.0
O166 O 0.54085 0.87387 0.2639 0.0
O167 O 0.54896 0.90857 0.20849 0.0
H168 H 0.40876 0.43584 0.05334 0.0
H169 H 0.32535 0.37003 0.03289 0.0
H170 H 0.3315 0.34625 0.11777 0.0
H171 H 0.43837 0.39607 0.09037 0.0
H172 H 0.46173 0.41978 0.14357 0.0
H173 H 0.45027 0.43198 0.08332 0.0
H174 H 0.43261 0.45506 0.15529 0.0
H175 H 0.44466 0.44353 0.21569 0.0
H176 H 0.40945 0.43514 0.21292 0.0
H177 H 0.34882 0.32835 0.20266 0.0
H178 H 0.37278 0.32196 0.28706 0.0
H179 H 0.44408 0.40031 0.25031 0.0
C180 C 0.3916 0.4166 0.06719 0.0
C181 C 0.36654 0.40481 0.03648 0.0
C182 C 0.34462 0.37962 0.05614 0.0
C183 C 0.34806 0.36584 0.10392 0.0
C184 C 0.37344 0.37766 0.13193 0.0
C185 C 0.3946 0.40281 0.11484 0.0
C186 C 0.41974 0.4116 0.15223 0.0
C187 C 0.44395 0.41505 0.11514 0.0
C188 C 0.42703 0.43788 0.18605 0.0
C189 C 0.40967 0.3874 0.19287 0.0
C190 C 0.38302 0.36781 0.18042 0.0
C191 C 0.36964 0.34367 0.21274 0.0
C192 C 0.38351 0.34002 0.26019 0.0
C193 C 0.41035 0.36054 0.27515 0.0
C194 C 0.42362 0.38416 0.23992 0.0
H195 H 0.02747 0.43406 0.46045 0.0
H196 H 0.05342 0.37414 0.47594 0.0
H197 H 0.02331 0.34851 0.39217 0.0
H198 H 0.95824 0.38797 0.43089 0.0
H199 H 0.95432 0.41014 0.3802 0.0
H200 H 0.97921 0.42443 0.43809 0.0
H201 H 0.01774 0.45133 0.36275 0.0
H202 H 0.99283 0.43784 0.30487 0.0
H203 H 0.02222 0.4334 0.30247 0.0
H204 H 0.98726 0.32829 0.30749 0.0
H205 H 0.95559 0.31997 0.22444 0.0
H206 H 0.95346 0.39304 0.27038 0.0
C207 C 0.02727 0.41578 0.44579 0.0
C208 C 0.04295 0.4062 0.47481 0.0
C209 C 0.04194 0.38214 0.45399 0.0
C210 C 0.02458 0.36727 0.4069 0.0
C211 C 0.00843 0.37675 0.38114 0.0
C212 C 0.01012 0.40079 0.39955 0.0
C213 C 0.99091 0.40699 0.36564 0.0
C214 C 0.9694 0.4074 0.40614 0.0
C215 C 0.00688 0.43397 0.33191 0.0
C216 C 0.97805 0.3828 0.3247 0.0
C217 C 0.98807 0.36531 0.33426 0.0
C218 C 0.97932 0.3419 0.30003 0.0
C219 C 0.96097 0.33705 0.25345 0.0
C220 C 0.95173 0.35564 0.2414 0.0
C221 C 0.95982 0.37824 0.27894 0.0
H222 H 0.56669 0.96785 0.4017 0.0
H223 H 0.63038 0.9473 0.37902 0.0
H224 H 0.65606 0.97805 0.46179 0.0
H225 H 0.61011 0.03764 0.43018 0.0
H226 H 0.58771 0.03998 0.48297 0.0
H227 H 0.57375 0.01498 0.42533 0.0
H228 H 0.5497 0.97623 0.50148 0.0
H229 H 0.56295 1.00117 0.55925 0.0
H230 H 0.56946 0.97311 0.5598 0.0
H231 H 0.67609 0.0146 0.54523 0.0
H232 H 0.68464 0.04693 0.62697 0.0
H233 H 0.60749 0.04275 0.59026 0.0
C234 C 0.58583 0.96934 0.41457 0.0
C235 C 0.59643 0.955 0.38376 0.0
C236 C 0.62161 0.95774 0.4023 0.0
C237 C 0.63649 0.97544 0.44887 0.0
C238 C 0.62588 0.9902 0.47649 0.0
C239 C 0.60083 0.98685 0.46033 0.0
C240 C 0.59366 0.00497 0.49568 0.0
C241 C 0.59117 0.02561 0.45616 0.0
C242 C 0.5674 0.98785 0.53117 0.0
C243 C 0.61844 0.01904 0.53493 0.0
C244 C 0.63708 0.01065 0.52314 0.0
C245 C 0.66152 0.02117 0.55464 0.0
C246 C 0.66641 0.03981 0.60053 0.0
C247 C 0.64684 0.04753 0.61474 0.0
C248 C 0.62294 0.03739 0.58032 0.0
H249 H 0.61283 0.55998 0.59828 0.0
H250 H 0.68792 0.63337 0.55295 0.0
H251 H 0.68121 0.65743 0.63669 0.0
H252 H 0.57526 0.59087 0.63068 0.0
H253 H 0.55651 0.56869 0.69057 0.0
H254 H 0.56924 0.55648 0.63285 0.0
H255 H 0.59554 0.54393 0.70795 0.0
H256 H 0.58222 0.55532 0.76619 0.0
H257 H 0.61854 0.56935 0.75899 0.0
H258 H 0.66223 0.67458 0.72082 0.0
H259 H 0.63674 0.6808 0.80237 0.0
H260 H 0.57428 0.5957 0.78758 0.0
C261 C 0.62839 0.58088 0.60708 0.0
C262 C 0.65107 0.5947 0.56948 0.0
C263 C 0.6707 0.62218 0.58192 0.0
C264 C 0.66682 0.63608 0.62897 0.0
C265 C 0.64335 0.62213 0.66336 0.0
C266 C 0.62482 0.5949 0.65345 0.0
C267 C 0.60064 0.58448 0.69427 0.0
C268 C 0.57385 0.57456 0.66002 0.0
C269 C 0.59916 0.56195 0.73423 0.0
C270 C 0.60807 0.61012 0.72841 0.0
C271 C 0.63269 0.63177 0.71029 0.0
C272 C 0.64307 0.65761 0.7355 0.0
C273 C 0.62831 0.66106 0.7814 0.0
C274 C 0.60349 0.63877 0.80166 0.0
C275 C 0.59323 0.6132 0.77365 0.0
H276 H 0.03051 0.59874 0.71305 0.0
H277 H 0.04427 0.68085 0.69514 0.0
H278 H 0.01259 0.67236 0.77808 0.0
H279 H 0.95982 0.56574 0.74728 0.0
H280 H 0.96141 0.54276 0.79953 0.0
H281 H 0.9852 0.55558 0.73956 0.0
H282 H 0.0259 0.57434 0.81213 0.0
H283 H 1.00224 0.56106 0.87218 0.0
H284 H 0.02787 0.59666 0.87052 0.0
H285 H 0.97721 0.65315 0.86274 0.0
H286 H 0.94779 0.62804 0.94727 0.0
H287 H 0.95879 0.55933 0.90761 0.0
C288 C 0.02701 0.61507 0.72658 0.0
C289 C 0.03981 0.64045 0.69733 0.0
C290 C 0.03485 0.6613 0.71705 0.0
C291 C 0.01667 0.65654 0.76378 0.0
C292 C 1.00383 0.63092 0.79059 0.0
C293 C 0.00925 0.61075 0.77308 0.0
C294 C 0.99379 0.58526 0.80963 0.0
C295 C 0.97388 0.5609 0.77172 0.0
C296 C 0.01363 0.57898 0.84311 0.0
C297 C 0.97865 0.59403 0.85065 0.0
C298 C 0.98434 0.62029 0.83889 0.0
C299 C 0.9727 0.63259 0.87213 0.0
C300 C 0.95574 0.61807 0.9197 0.0
C301 C 0.95082 0.59164 0.93394 0.0
C302 C 0.96199 0.57942 0.89779 0.0
H303 H 0.44213 0.03647 0.89884 0.0
H304 H 0.37801 0.05637 0.87534 0.0
H305 H 0.35226 0.02537 0.95749 0.0
H306 H 0.3994 0.96651 0.92749 0.0
H307 H 0.42193 0.96475 0.98093 0.0
H308 H 0.43569 0.9896 0.92311 0.0
H309 H 0.45912 0.02864 0.99909 0.0
H310 H 0.44604 0.00385 0.05705 0.0
H311 H 0.43901 0.03157 0.05677 0.0
H312 H 0.33252 0.9891 0.04115 0.0
H313 H 0.32439 0.9573 0.12363 0.0
H314 H 0.40177 0.96193 0.0874 0.0
C315 C 0.42283 0.0347 0.9113 0.0
C316 C 0.41215 0.04896 0.88055 0.0
C317 C 0.38681 0.04595 0.8986 0.0
C318 C 0.37191 0.02812 0.94481 0.0
C319 C 0.38267 0.01355 0.9726 0.0
C320 C 0.40784 0.01712 0.95682 0.0
C321 C 0.41529 0.99937 0.9927 0.0
C322 C 0.41824 0.97885 0.95371 0.0
C323 C 0.4414 0.0169 0.02854 0.0
C324 C 0.39047 0.98516 0.03158 0.0
C325 C 0.37163 0.99325 0.01938 0.0
C326 C 0.34722 0.98273 0.05086 0.0
C327 C 0.34257 0.96441 0.0972 0.0
C328 C 0.36235 0.957 0.11178 0.0
C329 C 0.38617 0.96708 0.07726 0.0
H330 H 0.59317 0.51486 0.41964 0.0
H331 H 0.65108 0.48597 0.42574 0.0
H332 H 0.61284 0.43827 0.42198 0.0
H333 H 0.54265 0.46162 0.5136 0.0
H334 H 0.51423 0.45991 0.47412 0.0
H335 H 0.54627 0.49144 0.47707 0.0
H336 H 0.5473 0.4933 0.36371 0.0
H337 H 0.51549 0.46154 0.3604 0.0
H338 H 0.54506 0.46504 0.32278 0.0
H339 H 0.56801 0.39378 0.40908 0.0
H340 H 0.52006 0.35588 0.40583 0.0
H341 H 0.49181 0.41413 0.41718 0.0
C342 C 0.59776 0.49847 0.42071 0.0
C343 C 0.625 0.50398 0.42272 0.0
C344 C 0.63029 0.48208 0.42455 0.0
C345 C 0.60873 0.45498 0.42195 0.0
C346 C 0.58206 0.45022 0.4187 0.0
C347 C 0.57651 0.47137 0.41957 0.0
C348 C 0.54608 0.46085 0.41807 0.0
C349 C 0.53676 0.46893 0.47405 0.0
C350 C 0.53802 0.47078 0.36296 0.0
C351 C 0.53534 0.43046 0.4156 0.0
C352 C 0.55638 0.42472 0.4149 0.0
C353 C 0.55138 0.39804 0.41033 0.0
C354 C 0.52415 0.37669 0.408 0.0
C355 C 0.50239 0.38217 0.41147 0.0
C356 C 0.50813 0.40941 0.41482 0.0
H357 H 0.10569 0.50564 0.532 0.0
H358 H 0.11512 0.50158 0.71924 0.0
H359 H 0.12227 0.54813 0.73054 0.0
H360 H 0.15413 0.57854 0.51262 0.0
H361 H 0.13285 0.58305 0.4603 0.0
H362 H 0.13136 0.55062 0.46609 0.0
H363 H 0.07917 0.52685 0.48373 0.0
H364 H 0.08052 0.55918 0.47792 0.0
H365 H 0.06629 0.53854 0.54239 0.0
H366 H 0.12797 0.59507 0.72154 0.0
H367 H 0.1269 0.63687 0.69397 0.0
H368 H 0.10972 0.60864 0.51424 0.0
C369 C 0.10973 0.51487 0.57507 0.0
C370 C 0.11032 0.50044 0.62474 0.0
C371 C 0.11484 0.5126 0.68075 0.0
C372 C 0.119 0.539 0.68753 0.0
C373 C 0.11812 0.55277 0.63787 0.0
C374 C 0.11325 0.54102 0.58279 0.0
C375 C 0.11097 0.55928 0.53744 0.0
C376 C 0.13369 0.56841 0.4914 0.0
C377 C 0.08255 0.54511 0.5087 0.0
C378 C 0.11513 0.58294 0.57567 0.0
C379 C 0.11976 0.57907 0.63327 0.0
C380 C 0.12433 0.59832 0.67655 0.0
C381 C 0.12379 0.62201 0.66059 0.0
C382 C 0.11814 0.62584 0.6022 0.0
C383 C 0.11395 0.60611 0.55934 0.0
H384 H 0.4954 0.08053 0.75145 0.0
H385 H 0.5246 0.16725 0.75714 0.0
H386 H 0.5724 0.17659 0.75519 0.0
H387 H 0.54851 0.08327 0.84767 0.0
H388 H 0.55002 0.05638 0.80873 0.0
H389 H 0.51856 0.05709 0.81114 0.0
H390 H 0.51676 0.05591 0.69777 0.0
H391 H 0.54848 0.05573 0.69498 0.0
H392 H 0.54514 0.08175 0.65682 0.0
H393 H 0.61695 0.17597 0.74257 0.0
H394 H 0.65467 0.16562 0.73939 0.0
H395 H 0.59588 0.07935 0.7516 0.0
C396 C 0.51188 0.10147 0.75308 0.0
C397 C 0.50647 0.12323 0.75434 0.0
C398 C 0.52845 0.15036 0.7567 0.0
C399 C 0.55559 0.15581 0.75506 0.0
C400 C 0.56026 0.13385 0.75237 0.0
C401 C 0.53898 0.10721 0.75305 0.0
C402 C 0.54934 0.08722 0.75207 0.0
C403 C 0.54113 0.06998 0.80825 0.0
C404 C 0.53933 0.06909 0.69714 0.0
C405 C 0.57981 0.10672 0.74979 0.0
C406 C 0.58574 0.13353 0.74892 0.0
C407 C 0.61253 0.15506 0.74409 0.0
C408 C 0.63378 0.14902 0.74177 0.0
C409 C 0.62809 0.12175 0.7455 0.0
C410 C 0.60076 0.1004 0.74909 0.0
H411 H 0.5047 0.59811 0.99072 0.0
H412 H 0.50481 0.63449 0.82366 0.0
H413 H 0.4598 0.59444 0.80021 0.0
H414 H 0.47365 0.52921 0.94313 0.0
H415 H 0.45349 0.51528 0.00836 0.0
H416 H 0.48542 0.54688 0.01198 0.0
H417 H 0.46075 0.57068 0.05712 0.0
H418 H 0.4287 0.53915 0.0535 0.0
H419 H 0.43216 0.56934 0.01913 0.0
H420 H 0.41637 0.54917 0.79269 0.0
H421 H 0.37634 0.50286 0.8035 0.0
H422 H 0.40295 0.49725 0.97812 0.0
C423 C 0.49523 0.59766 0.94921 0.0
C424 C 0.50824 0.6193 0.90876 0.0
C425 C 0.49514 0.61811 0.85519 0.0
C426 C 0.46962 0.59547 0.84156 0.0
C427 C 0.45735 0.57445 0.88243 0.0
C428 C 0.4696 0.57547 0.93541 0.0
C429 C 0.45204 0.55029 0.97186 0.0
C430 C 0.46705 0.53449 0.98455 0.0
C431 C 0.44287 0.55782 0.02877 0.0
C432 C 0.42819 0.53464 0.93065 0.0
C433 C 0.43171 0.54893 0.87921 0.0
C434 C 0.41318 0.53802 0.8331 0.0
C435 C 0.39056 0.5118 0.83958 0.0
C436 C 0.3865 0.49701 0.89199 0.0
C437 C 0.40539 0.50859 0.93826 0.0
H438 H 0.92827 0.41246 0.0869 0.0
H439 H 0.84191 0.35308 0.09563 0.0
H440 H 0.83106 0.39032 0.09017 0.0
H441 H 0.9244 0.46273 0.1789 0.0
H442 H 0.95044 0.49116 0.13849 0.0
H443 H 0.95094 0.45967 0.14218 0.0
H444 H 0.95117 0.45782 0.02884 0.0
H445 H 0.95024 0.48909 0.02482 0.0
H446 H 0.92445 0.45897 0.98815 0.0
H447 H 0.82991 0.43442 0.07671 0.0
H448 H 0.8387 0.48193 0.07331 0.0
H449 H 0.92573 0.512 0.08173 0.0
C450 C 0.90709 0.40734 0.08806 0.0
C451 C 0.88589 0.37996 0.09142 0.0
C452 C 0.85843 0.37399 0.09337 0.0
C453 C 0.85209 0.39497 0.08981 0.0
C454 C 0.87348 0.4218 0.08541 0.0
C455 C 0.90045 0.42804 0.08592 0.0
C456 C 0.9197 0.45852 0.0835 0.0
C457 C 0.93741 0.46861 0.13908 0.0
C458 C 0.93743 0.46656 0.02802 0.0
C459 C 0.8994 0.46849 0.08101 0.0
C460 C 0.87282 0.44704 0.08109 0.0
C461 C 0.85064 0.45137 0.07722 0.0
C462 C 0.85579 0.47835 0.07483 0.0
C463 C 0.88284 0.50052 0.07749 0.0
C464 C 0.90483 0.49541 0.07999 0.0
H465 H 0.41353 0.92611 0.24493 0.0
H466 H 0.35488 0.83974 0.23441 0.0
H467 H 0.3928 0.82962 0.23563 0.0
H468 H 0.46379 0.92373 0.14849 0.0
H469 H 0.49226 0.94986 0.1889 0.0
H470 H 0.46035 0.94969 0.18671 0.0
H471 H 0.45923 0.94941 0.30012 0.0
H472 H 0.49087 0.94905 0.30267 0.0
H473 H 0.46111 0.9228 0.33938 0.0
H474 H 0.43767 0.82934 0.24742 0.0
H475 H 0.48558 0.83903 0.25033 0.0
H476 H 0.51422 0.92564 0.24421 0.0
C477 C 0.40871 0.90509 0.24215 0.0
C478 C 0.38138 0.88366 0.23971 0.0
C479 C 0.37576 0.85641 0.23581 0.0
C480 C 0.39714 0.85051 0.23701 0.0
C481 C 0.42394 0.87214 0.24088 0.0
C482 C 0.42975 0.89892 0.24181 0.0
C483 C 0.4602 0.91856 0.24382 0.0
C484 C 0.46971 0.93651 0.18869 0.0
C485 C 0.46831 0.93597 0.29983 0.0
C486 C 0.4707 0.8987 0.24477 0.0
C487 C 0.44953 0.872 0.24408 0.0
C488 C 0.45438 0.85018 0.24719 0.0
C489 C 0.48159 0.85583 0.24936 0.0
C490 C 0.50346 0.88303 0.24726 0.0
C491 C 0.49785 0.90464 0.24548 0.0
H492 H 0.32146 0.38806 0.70519 0.0
H493 H 0.33094 0.33658 0.83073 0.0
H494 H 0.33018 0.30689 0.75096 0.0
H495 H 0.28622 0.33215 0.57855 0.0
H496 H 0.30614 0.35829 0.52585 0.0
H497 H 0.29309 0.36649 0.59004 0.0
H498 H 0.34202 0.40469 0.6154 0.0
H499 H 0.35522 0.39646 0.55264 0.0
H500 H 0.36868 0.39628 0.62413 0.0
H501 H 0.34457 0.29341 0.66263 0.0
H502 H 0.37451 0.29932 0.57888 0.0
H503 H 0.36015 0.36197 0.5089 0.0
C504 C 0.32129 0.36932 0.71546 0.0
C505 C 0.32539 0.36389 0.77338 0.0
C506 C 0.32686 0.34035 0.7864 0.0
C507 C 0.32646 0.32343 0.7412 0.0
C508 C 0.32492 0.33063 0.6834 0.0
C509 C 0.32191 0.35293 0.67043 0.0
C510 C 0.3281 0.36094 0.60667 0.0
C511 C 0.30182 0.35404 0.57331 0.0
C512 C 0.34981 0.39134 0.59942 0.0
C513 C 0.33871 0.34233 0.58807 0.0
C514 C 0.33504 0.32377 0.63154 0.0
C515 C 0.34677 0.30721 0.62762 0.0
C516 C 0.36383 0.31072 0.57996 0.0
C517 C 0.36953 0.33119 0.53802 0.0
C518 C 0.35574 0.34607 0.54053 0.0
H519 H 0.93978 0.31559 0.91665 0.0
H520 H 0.00769 0.34602 0.03677 0.0
H521 H 0.03663 0.34353 0.95918 0.0
H522 H 0.96537 0.27863 0.80491 0.0
H523 H 0.95361 0.29104 0.74547 0.0
H524 H 0.93473 0.28064 0.81319 0.0
H525 H 0.93784 0.32765 0.82079 0.0
H526 H 0.95661 0.3381 0.75407 0.0
H527 H 0.97095 0.35815 0.81947 0.0
H528 H 0.06122 0.35227 0.86793 0.0
H529 H 0.07984 0.37828 0.77709 0.0
H530 H 0.99806 0.34883 0.7119 0.0
C531 C 0.96028 0.31995 0.9269 0.0
C532 C 0.97156 0.33028 0.98222 0.0
C533 C 0.99874 0.33744 0.9946 0.0
C534 C 0.01518 0.33588 0.95076 0.0
C535 C 1.00425 0.32777 0.89458 0.0
C536 C 0.97721 0.31983 0.88256 0.0
C537 C 0.97243 0.32009 0.81738 0.0
C538 C 0.95554 0.29086 0.79386 0.0
C539 C 0.95873 0.33705 0.80216 0.0
C540 C 1.00155 0.33326 0.79564 0.0
C541 C 0.01925 0.33533 0.83994 0.0
C542 C 0.04753 0.35014 0.83261 0.0
C543 C 0.058 0.36491 0.78083 0.0
C544 C 0.04018 0.36546 0.73828 0.0
C545 C 0.01182 0.34823 0.74406 0.0
H546 H 0.64324 0.00672 0.15112 0.0
H547 H 0.63256 0.93093 0.08215 0.0
H548 H 0.66182 0.95553 0.99804 0.0
H549 H 0.6321 0.02969 0.03595 0.0
H550 H 0.65701 0.06543 0.04237 0.0
H551 H 0.64553 0.04478 0.10656 0.0
H552 H 0.69531 0.05862 0.13315 0.0
H553 H 0.70711 0.07971 0.06859 0.0
H554 H 0.71634 0.05391 0.08061 0.0
H555 H 0.67568 0.98337 0.90924 0.0
H556 H 0.6754 0.01228 0.8286 0.0
H557 H 0.68015 0.07156 0.95384 0.0
C558 C 0.64839 0.99569 0.1197 0.0
C559 C 0.63581 0.96712 0.12259 0.0
C560 C 0.64239 0.95294 0.08085 0.0
C561 C 0.65905 0.96682 0.03298 0.0
C562 C 0.66948 0.9949 0.02862 0.0
C563 C 0.66512 0.00937 0.07207 0.0
C564 C 0.67392 0.03812 0.05262 0.0
C565 C 0.65075 0.04483 0.05971 0.0
C566 C 0.69971 0.05881 0.0857 0.0
C567 C 0.68028 0.03637 0.98906 0.0
C568 C 0.67874 0.01169 0.97648 0.0
C569 C 0.6783 0.00324 0.91881 0.0
C570 C 0.67811 0.0197 0.8732 0.0
C571 C 0.67855 0.04426 0.88585 0.0
C572 C 0.68099 0.05329 0.94392 0.0
H573 H 0.64829 0.64575 0.03816 0.0
H574 H 0.62394 0.70091 0.11019 0.0
H575 H 0.6505 0.70585 0.19968 0.0
H576 H 0.63767 0.60835 0.147 0.0
H577 H 0.6665 0.60298 0.14409 0.0
H578 H 0.6555 0.61217 0.0791 0.0
H579 H 0.70374 0.65394 0.065 0.0
H580 H 0.7151 0.64468 0.13037 0.0
H581 H 0.71946 0.67832 0.12344 0.0
H582 H 0.66206 0.69031 0.28902 0.0
H583 H 0.66222 0.65977 0.36584 0.0
H584 H 0.68456 0.61833 0.23781 0.0
C585 C 0.65 0.66004 0.07167 0.0
C586 C 0.63432 0.67296 0.06797 0.0
C587 C 0.63623 0.69116 0.11233 0.0
C588 C 0.65132 0.69409 0.1632 0.0
C589 C 0.665 0.67936 0.16782 0.0
C590 C 0.66538 0.66347 0.12212 0.0
C591 C 0.6774 0.64608 0.14113 0.0
C592 C 0.65809 0.61564 0.12708 0.0
C593 C 0.70561 0.65638 0.11334 0.0
C594 C 0.67998 0.65164 0.20625 0.0
C595 C 0.67364 0.67162 0.22065 0.0
C596 C 0.6685 0.67576 0.27845 0.0
C597 C 0.66856 0.65834 0.32188 0.0
C598 C 0.67425 0.63751 0.30727 0.0
C599 C 0.68145 0.63509 0.2497 0.0
H600 H 0.0749 0.67377 0.35522 0.0
H601 H 0.02115 0.67873 0.4823 0.0
H602 H 0.99177 0.67911 0.40259 0.0
H603 H 0.05917 0.71126 0.22666 0.0
H604 H 0.06127 0.68822 0.1753 0.0
H605 H 0.0834 0.69988 0.23846 0.0
H606 H 0.06637 0.64977 0.26764 0.0
H607 H 0.04424 0.63805 0.20555 0.0
H608 H 0.03028 0.6269 0.27781 0.0
H609 H 0.96162 0.6635 0.31639 0.0
H610 H 0.93442 0.63353 0.23488 0.0
H611 H 0.00747 0.63905 0.1614 0.0
C612 C 0.05784 0.67669 0.36547 0.0
C613 C 0.05032 0.67677 0.42393 0.0
C614 C 0.0274 0.67937 0.43725 0.0
C615 C 0.01069 0.67965 0.39219 0.0
C616 C 0.01752 0.67766 0.33437 0.0
C617 C 0.04106 0.67692 0.32085 0.0
C618 C 0.04112 0.66908 0.25762 0.0
C619 C 0.0625 0.69358 0.22243 0.0
C620 C 0.04571 0.64449 0.25195 0.0
C621 C 0.01255 0.66196 0.23996 0.0
C622 C 0.99968 0.66832 0.28362 0.0
C623 C 0.97175 0.65935 0.28105 0.0
C624 C 0.95639 0.64231 0.23461 0.0
C625 C 0.96903 0.63409 0.19234 0.0
C626 C 0.99756 0.64538 0.19323 0.0
H627 H 0.32918 0.93685 0.44928 0.0
H628 H 0.34094 0.99767 0.32109 0.0
H629 H 0.34121 0.02779 0.39959 0.0
H630 H 0.29385 0.95867 0.57117 0.0
H631 H 0.31285 0.95226 0.62607 0.0
H632 H 0.30067 0.93105 0.56163 0.0
H633 H 0.34988 0.94143 0.54014 0.0
H634 H 0.36215 0.96266 0.6035 0.0
H635 H 0.3768 0.97641 0.53291 0.0
H636 H 0.35438 0.05574 0.48826 0.0
H637 H 0.38265 0.07942 0.57456 0.0
H638 H 0.36638 1.00214 0.64641 0.0
C639 C 0.32998 0.95581 0.43812 0.0
C640 C 0.33423 0.96489 0.37991 0.0
C641 C 0.33685 0.99029 0.36575 0.0
C642 C 0.33693 0.00741 0.41012 0.0
C643 C 0.33465 0.99881 0.46818 0.0
C644 C 0.33093 0.97334 0.48224 0.0
C645 C 0.33607 0.97144 0.54659 0.0
C646 C 0.30926 0.95222 0.57823 0.0
C647 C 0.35751 0.96252 0.55623 0.0
C648 C 0.3466 1.00067 0.56484 0.0
C649 C 0.34399 0.01574 0.52018 0.0
C650 C 0.35578 0.04402 0.5241 0.0
C651 C 0.37184 0.05735 0.5732 0.0
C652 C 0.37652 0.04238 0.61649 0.0
C653 C 0.36267 0.01375 0.61374 0.0
H654 H 0.45413 0.2798 0.55345 0.0
H655 H 0.38086 0.23374 0.44933 0.0
H656 H 0.37192 0.19141 0.50026 0.0
H657 H 0.47487 0.22943 0.55122 0.0
H658 H 0.48819 0.23664 0.62478 0.0
H659 H 0.48789 0.26306 0.58163 0.0
H660 H 0.46065 0.2707 0.66325 0.0
H661 H 0.4606 0.24407 0.7064 0.0
H662 H 0.42881 0.24241 0.68803 0.0
H663 H 0.37073 0.15409 0.56502 0.0
H664 H 0.38022 0.12441 0.62899 0.0
H665 H 0.45564 0.19463 0.68605 0.0
C666 C 0.43616 0.26082 0.54134 0.0
C667 C 0.41808 0.26009 0.49756 0.0
C668 C 0.395 0.23478 0.48261 0.0
C669 C 0.38969 0.21068 0.5116 0.0
C670 C 0.40781 0.21218 0.55502 0.0
C671 C 0.43081 0.23659 0.56916 0.0
C672 C 0.4478 0.23265 0.61539 0.0
C673 C 0.47637 0.24093 0.59183 0.0
C674 C 0.44956 0.2484 0.67159 0.0
C675 C 0.43091 0.20215 0.62499 0.0
C676 C 0.40765 0.19075 0.59053 0.0
C677 C 0.38885 0.16287 0.59215 0.0
C678 C 0.39426 0.14619 0.62888 0.0
C679 C 0.41836 0.15739 0.66296 0.0
C680 C 0.43683 0.18571 0.66109 0.0
H681 H 0.27247 0.42555 0.74901 0.0
H682 H 0.24174 0.40615 0.9267 0.0
H683 H 0.19847 0.40294 0.89443 0.0
H684 H 0.24415 0.46655 0.71101 0.0
H685 H 0.23526 0.4541 0.63704 0.0
H686 H 0.2633 0.45362 0.67322 0.0
H687 H 0.24093 0.40181 0.65363 0.0
H688 H 0.2128 0.40212 0.61723 0.0
H689 H 0.20645 0.37929 0.67769 0.0
H690 H 0.16084 0.40632 0.84553 0.0
H691 H 0.12942 0.41292 0.78221 0.0
H692 H 0.18209 0.4267 0.63302 0.0
C693 C 0.25652 0.42041 0.78103 0.0
C694 C 0.2605 0.4162 0.84057 0.0
C695 C 0.23912 0.40936 0.88099 0.0
C696 C 0.21449 0.40753 0.863 0.0
C697 C 0.21133 0.41204 0.80418 0.0
C698 C 0.23157 0.41796 0.76354 0.0
C699 C 0.22289 0.42203 0.70302 0.0
C700 C 0.24257 0.45078 0.67973 0.0
C701 C 0.22063 0.4 0.66037 0.0
C702 C 0.19496 0.41843 0.71635 0.0
C703 C 0.18882 0.41266 0.77511 0.0
C704 C 0.1652 0.4103 0.79933 0.0
C705 C 0.14747 0.41411 0.76293 0.0
C706 C 0.15306 0.41985 0.70254 0.0
C707 C 0.17699 0.42167 0.67869 0.0
H708 H 0.81993 0.24316 0.0499 0.0
H709 H 0.88586 0.27441 0.9239 0.0
H710 H 0.85643 0.23808 0.85418 0.0
H711 H 0.78898 0.16965 0.01164 0.0
H712 H 0.75464 0.16338 0.02028 0.0
H713 H 0.78198 0.18945 0.06326 0.0
H714 H 0.76955 0.22493 0.02512 0.0
H715 H 0.74236 0.19905 0.98173 0.0
H716 H 0.76845 0.22967 0.94735 0.0
H717 H 0.81887 0.19998 0.7954 0.0
H718 H 0.77567 0.16409 0.75145 0.0
H719 H 0.73325 0.15913 0.91309 0.0
C720 C 0.82831 0.24171 0.00834 0.0
C721 C 0.85534 0.2611 0.99264 0.0
C722 C 0.86534 0.25938 0.93697 0.0
C723 C 0.84876 0.23885 0.89708 0.0
C724 C 0.82199 0.22029 0.91312 0.0
C725 C 0.81177 0.22152 0.96741 0.0
C726 C 0.7816 0.20056 0.97161 0.0
C727 C 0.77651 0.17951 0.01954 0.0
C728 C 0.76449 0.21439 0.98205 0.0
C729 C 0.77643 0.18776 0.91111 0.0
C730 C 0.80006 0.19914 0.87832 0.0
C731 C 0.80025 0.19084 0.82081 0.0
C732 C 0.77562 0.17045 0.79612 0.0
C733 C 0.75104 0.15885 0.82857 0.0
C734 C 0.75165 0.16765 0.88693 0.0
H735 H 0.56515 0.81375 0.20349 0.0
H736 H 0.6192 0.88244 0.09533 0.0
H737 H 0.62685 0.85182 0.03065 0.0
H738 H 0.60219 0.7754 0.18809 0.0
H739 H 0.57108 0.74292 0.18534 0.0
H740 H 0.57223 0.77069 0.22616 0.0
H741 H 0.53097 0.76573 0.16668 0.0
H742 H 0.5299 0.73818 0.12527 0.0
H743 H 0.53292 0.76757 0.08792 0.0
H744 H 0.62625 0.813 0.97394 0.0
H745 H 0.61798 0.76931 0.93115 0.0
H746 H 0.56342 0.72573 0.07497 0.0
C747 C 0.5792 0.82233 0.16716 0.0
C748 C 0.5922 0.8505 0.15501 0.0
C749 C 0.6096 0.86097 0.10588 0.0
C750 C 0.61395 0.84371 0.06883 0.0
C751 C 0.60055 0.81591 0.08125 0.0
C752 C 0.58364 0.80527 0.12944 0.0
C753 C 0.57052 0.77447 0.13106 0.0
C754 C 0.57955 0.76534 0.18592 0.0
C755 C 0.53922 0.76069 0.12751 0.0
C756 C 0.58231 0.76944 0.07591 0.0
C757 C 0.59975 0.79359 0.04797 0.0
C758 C 0.61273 0.79397 0.99569 0.0
C759 C 0.60787 0.76905 0.97157 0.0
C760 C 0.59002 0.74404 0.99944 0.0
C761 C 0.57715 0.74444 0.05234 0.0
H762 H 0.76096 0.57165 0.37935 0.0
H763 H 0.73256 0.60915 0.25364 0.0
H764 H 0.76911 0.61553 0.18517 0.0
H765 H 0.83499 0.61275 0.34502 0.0
H766 H 0.84022 0.58404 0.35273 0.0
H767 H 0.8141 0.58557 0.39486 0.0
H768 H 0.77807 0.53853 0.35361 0.0
H769 H 0.80401 0.53696 0.31105 0.0
H770 H 0.77405 0.53366 0.27548 0.0
H771 H 0.80693 0.61539 0.12774 0.0
H772 H 0.84254 0.60764 0.08452 0.0
H773 H 0.84531 0.56806 0.24482 0.0
C774 C 0.76308 0.58194 0.33812 0.0
C775 C 0.74446 0.59058 0.32214 0.0
C776 C 0.74701 0.6029 0.26691 0.0
C777 C 0.76766 0.60656 0.22775 0.0
C778 C 0.78547 0.59742 0.24407 0.0
C779 C 0.78341 0.58533 0.29789 0.0
C780 C 0.80378 0.57535 0.30242 0.0
C781 C 0.8245 0.59033 0.35168 0.0
C782 C 0.78909 0.54428 0.31114 0.0
C783 C 0.81728 0.58339 0.24264 0.0
C784 C 0.80663 0.5964 0.20997 0.0
C785 C 0.81552 0.60534 0.15305 0.0
C786 C 0.83576 0.60084 0.1288 0.0
C787 C 0.84675 0.58722 0.16107 0.0
C788 C 0.83735 0.57852 0.21889 0.0
H789 H 0.19117 0.74066 0.50447 0.0
H790 H 0.13033 0.76569 0.50164 0.0
H791 H 0.16093 0.80551 0.44002 0.0
H792 H 0.25057 0.81071 0.51333 0.0
H793 H 0.27149 0.80192 0.4694 0.0
H794 H 0.24507 0.77652 0.51501 0.0
H795 H 0.22434 0.74532 0.42432 0.0
H796 H 0.25032 0.77083 0.37821 0.0
H797 H 0.21479 0.75786 0.36135 0.0
H798 H 0.1968 0.83965 0.36802 0.0
H799 H 0.2377 0.86964 0.30837 0.0
H800 H 0.27623 0.8242 0.36679 0.0
C801 C 0.18462 0.75494 0.49205 0.0
C802 C 0.15855 0.75034 0.50811 0.0
C803 C 0.15046 0.76921 0.49061 0.0
C804 C 0.1676 0.79168 0.45512 0.0
C805 C 0.19298 0.79527 0.43866 0.0
C806 C 0.20175 0.77781 0.45813 0.0
C807 C 0.23006 0.78629 0.43547 0.0
C808 C 0.25051 0.79435 0.48633 0.0
C809 C 0.22984 0.76373 0.39759 0.0
C810 C 0.23566 0.81083 0.39887 0.0
C811 C 0.21394 0.81555 0.40046 0.0
C812 C 0.21406 0.83635 0.36734 0.0
C813 C 0.23723 0.85312 0.33314 0.0
C814 C 0.2601 0.84928 0.33316 0.0
C815 C 0.25909 0.82773 0.36626 0.0
loop_
_geom_bond_atom_site_label_1
_geom_bond_atom_site_label_2
_geom_bond_distance
_geom_bond_site_symmetry_2
_ccdc_geom_bond_type
Co0 O1 2.216 . S
Co0 O2 2.091 . S
Co0 O4 2.004 . S
Co0 O10 2.021 . S
Co0 O12 2.137 . S
Co0 O13 2.244 . S
O1 Co0 2.216 . S
O1 C8 1.247 . S
O2 Co0 2.091 . S
O2 C8 1.261 . S
C3 O12 1.247 . S
C3 O13 1.272 . S
O4 Co0 2.004 . S
O4 C9 1.259 . S
Co5 O6 2.061 . S
Co5 O11 2.052 . S
Co5 O13 2.135 . S
O6 Co5 2.061 . S
O6 C9 1.235 . S
C7 O10 1.238 . S
C7 O11 1.241 . S
C8 O1 1.247 . S
C8 O2 1.261 . S
C9 O4 1.259 . S
C9 O6 1.235 . S
O10 Co0 2.021 . S
O10 C7 1.238 . S
O11 Co5 2.052 . S
O11 C7 1.241 . S
O12 Co0 2.137 . S
O12 C3 1.247 . S
O13 Co0 2.244 . S
O13 C3 1.272 . S
O13 Co5 2.135 . S
Co14 O15 2.216 . S
Co14 O16 2.091 . S
Co14 O18 2.004 . S
Co14 O24 2.021 . S
Co14 O26 2.137 . S
Co14 O27 2.244 . S
O15 Co14 2.216 . S
O15 C22 1.247 . S
O16 Co14 2.091 . S
O16 C22 1.261 . S
C17 O26 1.247 . S
C17 O27 1.272 . S
O18 Co14 2.004 . S
O18 C23 1.259 . S
Co19 O20 2.061 . S
Co19 O25 2.052 . S
Co19 O27 2.135 . S
O20 Co19 2.061 . S
O20 C23 1.235 . S
C21 O24 1.238 . S
C21 O25 1.241 . S
C22 O15 1.247 . S
C22 O16 1.261 . S
C23 O18 1.259 . S
C23 O20 1.235 . S
O24 Co14 2.021 . S
O24 C21 1.238 . S
O25 Co19 2.052 . S
O25 C21 1.241 . S
O26 Co14 2.137 . S
O26 C17 1.247 . S
O27 Co14 2.244 . S
O27 C17 1.272 . S
O27 Co19 2.135 . S
Co28 O29 2.216 . S
Co28 O30 2.091 . S
Co28 O32 2.004 . S
Co28 O38 2.021 . S
Co28 O40 2.137 . S
Co28 O41 2.244 . S
O29 Co28 2.216 . S
O29 C36 1.247 . S
O30 Co28 2.091 . S
O30 C36 1.261 . S
C31 O40 1.247 . S
C31 O41 1.272 . S
O32 Co28 2.004 . S
O32 C37 1.259 . S
Co33 O34 2.061 . S
Co33 O39 2.052 . S
Co33 O41 2.135 . S
O34 Co33 2.061 . S
O34 C37 1.235 . S
C35 O38 1.238 . S
C35 O39 1.241 . S
C36 O29 1.247 . S
C36 O30 1.261 . S
C37 O32 1.259 . S
C37 O34 1.235 . S
O38 Co28 2.021 . S
O38 C35 1.238 . S
O39 Co33 2.052 . S
O39 C35 1.241 . S
O40 Co28 2.137 . S
O40 C31 1.247 . S
O41 Co28 2.244 . S
O41 C31 1.272 . S
O41 Co33 2.135 . S
Co42 O43 2.216 . S
Co42 O44 2.091 . S
Co42 O46 2.004 . S
Co42 O52 2.021 . S
Co42 O54 2.137 . S
Co42 O55 2.244 . S
O43 Co42 2.216 . S
O43 C50 1.247 . S
O44 Co42 2.091 . S
O44 C50 1.261 . S
C45 O54 1.247 . S
C45 O55 1.272 . S
O46 Co42 2.004 . S
O46 C51 1.259 . S
Co47 O48 2.061 . S
Co47 O53 2.050 1_556 S
Co47 O55 2.135 . S
O48 Co47 2.061 . S
O48 C51 1.235 . S
C49 O52 1.238 1_554 S
C49 O53 1.242 . S
C50 O43 1.247 . S
C50 O44 1.261 . S
C51 O46 1.259 . S
C51 O48 1.235 . S
O52 Co42 2.021 . S
O52 C49 1.238 1_556 S
O53 Co47 2.050 1_554 S
O53 C49 1.242 . S
O54 Co42 2.137 . S
O54 C45 1.247 . S
O55 Co42 2.244 . S
O55 C45 1.272 . S
O55 Co47 2.135 . S
Co56 O57 2.216 . S
Co56 O58 2.091 . S
Co56 O60 2.004 . S
Co56 O66 2.021 . S
Co56 O68 2.137 . S
Co56 O69 2.244 . S
O57 Co56 2.216 . S
O57 C64 1.247 . S
O58 Co56 2.091 . S
O58 C64 1.261 . S
C59 O68 1.247 . S
C59 O69 1.272 . S
O60 Co56 2.004 . S
O60 C65 1.259 . S
Co61 O62 2.061 . S
Co61 O67 2.052 . S
Co61 O69 2.135 . S
O62 Co61 2.061 . S
O62 C65 1.235 . S
C63 O66 1.238 . S
C63 O67 1.241 . S
C64 O57 1.247 . S
C64 O58 1.261 . S
C65 O60 1.259 . S
C65 O62 1.235 . S
O66 Co56 2.021 . S
O66 C63 1.238 . S
O67 Co61 2.052 . S
O67 C63 1.241 . S
O68 Co56 2.137 . S
O68 C59 1.247 . S
O69 Co56 2.244 . S
O69 C59 1.272 . S
O69 Co61 2.135 . S
Co70 O71 2.216 . S
Co70 O72 2.091 . S
Co70 O74 2.004 . S
Co70 O80 2.021 . S
Co70 O82 2.137 . S
Co70 O83 2.244 . S
O71 Co70 2.216 . S
O71 C78 1.247 . S
O72 Co70 2.091 . S
O72 C78 1.261 . S
C73 O82 1.247 . S
C73 O83 1.272 . S
O74 Co70 2.004 . S
O74 C79 1.259 . S
Co75 O76 2.061 . S
Co75 O81 2.052 . S
Co75 O83 2.135 . S
O76 Co75 2.061 . S
O76 C79 1.235 . S
C77 O80 1.238 . S
C77 O81 1.241 . S
C78 O71 1.247 . S
C78 O72 1.261 . S
C79 O74 1.259 . S
C79 O76 1.235 . S
O80 Co70 2.021 . S
O80 C77 1.238 . S
O81 Co75 2.052 . S
O81 C77 1.241 . S
O82 Co70 2.137 . S
O82 C73 1.247 . S
O83 Co70 2.244 . S
O83 C73 1.272 . S
O83 Co75 2.135 . S
Co84 O85 2.216 . S
Co84 O86 2.091 . S
Co84 O88 2.004 . S
Co84 O94 2.021 . S
Co84 O96 2.137 . S
Co84 O97 2.244 . S
O85 Co84 2.216 . S
O85 C92 1.247 . S
O86 Co84 2.091 . S
O86 C92 1.261 . S
C87 O96 1.247 . S
C87 O97 1.272 . S
O88 Co84 2.004 . S
O88 C93 1.259 . S
Co89 O90 2.061 . S
Co89 O95 2.052 . S
Co89 O97 2.135 . S
O90 Co89 2.061 . S
O90 C93 1.235 . S
C91 O94 1.238 . S
C91 O95 1.241 . S
C92 O85 1.247 . S
C92 O86 1.261 . S
C93 O88 1.259 . S
C93 O90 1.235 . S
O94 Co84 2.021 . S
O94 C91 1.238 . S
O95 Co89 2.052 . S
O95 C91 1.241 . S
O96 Co84 2.137 . S
O96 C87 1.247 . S
O97 Co84 2.244 . S
O97 C87 1.272 . S
O97 Co89 2.135 . S
Co98 O99 2.216 . S
Co98 O100 2.091 . S
Co98 O102 2.004 . S
Co98 O108 2.021 . S
Co98 O110 2.137 . S
Co98 O111 2.244 . S
O99 Co98 2.216 . S
O99 C106 1.247 . S
O100 Co98 2.091 . S
O100 C106 1.261 . S
C101 O110 1.247 . S
C101 O111 1.272 . S
O102 Co98 2.004 . S
O102 C107 1.259 . S
Co103 O104 2.061 . S
Co103 O109 2.052 . S
Co103 O111 2.135 . S
O104 Co103 2.061 . S
O104 C107 1.235 . S
C105 O108 1.238 . S
C105 O109 1.241 . S
C106 O99 1.247 . S
C106 O100 1.261 . S
C107 O102 1.259 . S
C107 O104 1.235 . S
O108 Co98 2.021 . S
O108 C105 1.238 . S
O109 Co103 2.052 . S
O109 C105 1.241 . S
O110 Co98 2.137 . S
O110 C101 1.247 . S
O111 Co98 2.244 . S
O111 C101 1.272 . S
O111 Co103 2.135 . S
Co112 O113 2.216 . S
Co112 O114 2.091 . S
Co112 O116 2.004 . S
Co112 O122 2.021 . S
Co112 O124 2.137 . S
Co112 O125 2.244 . S
O113 Co112 2.216 . S
O113 C120 1.247 . S
O114 Co112 2.091 . S
O114 C120 1.261 . S
C115 O124 1.247 . S
C115 O125 1.272 . S
O116 Co112 2.004 . S
O116 C121 1.259 . S
Co117 O118 2.061 . S
Co117 O123 2.052 . S
Co117 O125 2.135 . S
O118 Co117 2.061 . S
O118 C121 1.235 . S
C119 O122 1.238 . S
C119 O123 1.241 . S
C120 O113 1.247 . S
C120 O114 1.261 . S
C121 O116 1.259 . S
C121 O118 1.235 . S
O122 Co112 2.021 . S
O122 C119 1.238 . S
O123 Co117 2.052 . S
O123 C119 1.241 . S
O124 Co112 2.137 . S
O124 C115 1.247 . S
O125 Co112 2.244 . S
O125 C115 1.272 . S
O125 Co117 2.135 . S
Co126 O127 2.216 . S
Co126 O128 2.091 . S
Co126 O130 2.004 . S
Co126 O136 2.021 . S
Co126 O138 2.137 . S
Co126 O139 2.244 . S
O127 Co126 2.216 . S
O127 C134 1.247 . S
O128 Co126 2.091 . S
O128 C134 1.261 . S
C129 O138 1.247 . S
C129 O139 1.272 . S
O130 Co126 2.004 . S
O130 C135 1.259 . S
Co131 O132 2.061 . S
Co131 O137 2.052 . S
Co131 O139 2.135 . S
O132 Co131 2.061 . S
O132 C135 1.235 . S
C133 O136 1.238 . S
C133 O137 1.241 . S
C134 O127 1.247 . S
C134 O128 1.261 . S
C135 O130 1.259 . S
C135 O132 1.235 . S
O136 Co126 2.021 . S
O136 C133 1.238 . S
O137 Co131 2.052 . S
O137 C133 1.241 . S
O138 Co126 2.137 . S
O138 C129 1.247 . S
O139 Co126 2.244 . S
O139 C129 1.272 . S
O139 Co131 2.135 . S
Co140 O141 2.216 . S
Co140 O142 2.091 . S
Co140 O144 2.004 . S
Co140 O150 2.021 . S
Co140 O152 2.137 . S
Co140 O153 2.244 . S
O141 Co140 2.216 . S
O141 C148 1.247 . S
O142 Co140 2.091 . S
O142 C148 1.261 . S
C143 O152 1.247 . S
C143 O153 1.272 . S
O144 Co140 2.004 . S
O144 C149 1.259 . S
Co145 O146 2.061 . S
Co145 O151 2.051 1_554 S
Co145 O153 2.135 . S
O146 Co145 2.061 . S
O146 C149 1.235 . S
C147 O150 1.238 1_556 S
C147 O151 1.242 . S
C148 O141 1.247 . S
C148 O142 1.261 . S
C149 O144 1.259 . S
C149 O146 1.235 . S
O150 Co140 2.021 . S
O150 C147 1.238 1_554 S
O151 Co145 2.051 1_556 S
O151 C147 1.242 . S
O152 Co140 2.137 . S
O152 C143 1.247 . S
O153 Co140 2.244 . S
O153 C143 1.272 . S
O153 Co145 2.135 . S
Co154 O155 2.216 . S
Co154 O156 2.091 . S
Co154 O158 2.004 . S
Co154 O164 2.021 . S
Co154 O166 2.137 . S
Co154 O167 2.244 . S
O155 Co154 2.216 . S
O155 C162 1.247 . S
O156 Co154 2.091 . S
O156 C162 1.261 . S
C157 O166 1.247 . S
C157 O167 1.272 . S
O158 Co154 2.004 . S
O158 C163 1.259 . S
Co159 O160 2.061 . S
Co159 O165 2.052 . S
Co159 O167 2.135 . S
O160 Co159 2.061 . S
O160 C163 1.235 . S
C161 O164 1.238 . S
C161 O165 1.241 . S
C162 O155 1.247 . S
C162 O156 1.261 . S
C163 O158 1.259 . S
C163 O160 1.235 . S
O164 Co154 2.021 . S
O164 C161 1.238 . S
O165 Co159 2.052 . S
O165 C161 1.241 . S
O166 Co154 2.137 . S
O166 C157 1.247 . S
O167 Co154 2.244 . S
O167 C157 1.272 . S
O167 Co159 2.135 . S
H168 C180 0.930 . S
H169 C182 0.930 1_556 S
H170 C183 0.930 . S
H171 C187 0.959 . S
H172 C187 0.959 . S
H173 C187 0.961 . S
H174 C188 0.960 . S
H175 C188 0.961 . S
H176 C188 0.959 . S
H177 C191 0.929 . S
H178 C192 0.931 . S
H179 C194 0.930 . S
C180 H168 0.930 . S
C180 C181 1.399 . S
C180 C185 1.399 . S
C181 C180 1.399 . S
C181 C182 1.376 . S
C182 H169 0.930 1_554 S
C182 C181 1.376 . S
C182 C183 1.388 . S
C183 H170 0.930 . S
C183 C182 1.388 . S
C183 C184 1.390 . S
C184 C183 1.390 . S
C184 C185 1.394 . S
C184 C190 1.465 . S
C185 C180 1.399 . S
C185 C184 1.394 . S
C185 C186 1.516 . S
C186 C185 1.516 . S
C186 C187 1.502 . S
C186 C188 1.561 . S
C186 C189 1.526 . S
C187 H171 0.959 . S
C187 H172 0.959 . S
C187 H173 0.961 . S
C187 C186 1.502 . S
C188 H174 0.960 . S
C188 H175 0.961 . S
C188 H176 0.959 . S
C188 C186 1.561 . S
C189 C186 1.526 . S
C189 C190 1.396 . S
C189 C194 1.390 . S
C190 C184 1.465 . S
C190 C189 1.396 . S
C190 C191 1.399 . S
C191 H177 0.929 . S
C191 C190 1.399 . S
C191 C192 1.385 . S
C192 H178 0.931 . S
C192 C191 1.385 . S
C192 C193 1.389 . S
C193 C192 1.389 . S
C193 C194 1.387 . S
C194 H179 0.930 . S
C194 C189 1.390 . S
C194 C193 1.387 . S
H195 C207 0.930 . S
H196 C209 0.930 . S
H197 C210 0.930 . S
H198 C214 0.959 1_455 S
H199 C214 0.959 . S
H200 C214 0.961 1_455 S
H201 C215 0.960 . S
H202 C215 0.961 . S
H203 C215 0.959 . S
H204 C218 0.929 . S
H205 C219 0.931 . S
H206 C221 0.930 . S
C207 H195 0.930 . S
C207 C208 1.399 . S
C207 C212 1.399 . S
C208 C207 1.399 . S
C208 C209 1.376 . S
C209 H196 0.930 . S
C209 C208 1.376 . S
C209 C210 1.388 . S
C210 H197 0.930 . S
C210 C209 1.388 . S
C210 C211 1.390 . S
C211 C210 1.390 . S
C211 C212 1.394 . S
C211 C217 1.465 1_455 S
C212 C207 1.399 . S
C212 C211 1.394 . S
C212 C213 1.516 1_455 S
C213 C212 1.516 1_655 S
C213 C214 1.502 . S
C213 C215 1.561 . S
C213 C216 1.526 . S
C214 H198 0.959 1_655 S
C214 H199 0.959 . S
C214 H200 0.961 1_655 S
C214 C213 1.502 . S
C215 H201 0.960 . S
C215 H202 0.961 . S
C215 H203 0.959 . S
C215 C213 1.561 . S
C216 C213 1.526 . S
C216 C217 1.396 . S
C216 C221 1.390 . S
C217 C211 1.465 1_655 S
C217 C216 1.396 . S
C217 C218 1.399 . S
C218 H204 0.929 . S
C218 C217 1.399 . S
C218 C219 1.385 . S
C219 H205 0.931 . S
C219 C218 1.385 . S
C219 C220 1.389 . S
C220 C219 1.389 . S
C220 C221 1.387 . S
C221 H206 0.930 . S
C221 C216 1.390 . S
C221 C220 1.387 . S
H222 C234 0.930 . S
H223 C236 0.930 . S
H224 C237 0.930 . S
H225 C241 0.959 . S
H226 C241 0.959 . S
H227 C241 0.961 . S
H228 C242 0.960 . S
H229 C242 0.961 . S
H230 C242 0.959 . S
H231 C245 0.929 1_565 S
H232 C246 0.931 . S
H233 C248 0.930 . S
C234 H222 0.930 . S
C234 C235 1.399 . S
C234 C239 1.399 . S
C235 C234 1.399 . S
C235 C236 1.376 . S
C236 H223 0.930 . S
C236 C235 1.376 . S
C236 C237 1.388 . S
C237 H224 0.930 . S
C237 C236 1.388 . S
C237 C238 1.390 . S
C238 C237 1.390 . S
C238 C239 1.394 . S
C238 C244 1.465 1_565 S
C239 C234 1.399 . S
C239 C238 1.394 . S
C239 C240 1.516 1_565 S
C240 C239 1.516 1_545 S
C240 C241 1.502 . S
C240 C242 1.561 . S
C240 C243 1.526 . S
C241 H225 0.959 . S
C241 H226 0.959 . S
C241 H227 0.961 . S
C241 C240 1.502 . S
C242 H228 0.960 . S
C242 H229 0.961 . S
C242 H230 0.959 . S
C242 C240 1.561 . S
C243 C240 1.526 . S
C243 C244 1.396 . S
C243 C248 1.390 . S
C244 C238 1.465 1_545 S
C244 C243 1.396 . S
C244 C245 1.399 . S
C245 H231 0.929 1_545 S
C245 C244 1.399 . S
C245 C246 1.385 . S
C246 H232 0.931 . S
C246 C245 1.385 . S
C246 C247 1.389 . S
C247 C246 1.389 . S
C247 C248 1.387 . S
C248 H233 0.930 . S
C248 C243 1.390 . S
C248 C247 1.387 . S
H249 C261 0.930 . S
H250 C263 0.930 . S
H251 C264 0.930 . S
H252 C268 0.959 . S
H253 C268 0.959 . S
H254 C268 0.961 . S
H255 C269 0.960 . S
H256 C269 0.961 . S
H257 C269 0.959 . S
H258 C272 0.929 . S
H259 C273 0.931 . S
H260 C275 0.930 . S
C261 H249 0.930 . S
C261 C262 1.399 . S
C261 C266 1.399 . S
C262 C261 1.399 . S
C262 C263 1.376 . S
C263 H250 0.930 . S
C263 C262 1.376 . S
C263 C264 1.388 . S
C264 H251 0.930 . S
C264 C263 1.388 . S
C264 C265 1.390 . S
C265 C264 1.390 . S
C265 C266 1.394 . S
C265 C271 1.465 . S
C266 C261 1.399 . S
C266 C265 1.394 . S
C266 C267 1.516 . S
C267 C266 1.516 . S
C267 C268 1.502 . S
C267 C269 1.561 . S
C267 C270 1.526 . S
C268 H252 0.959 . S
C268 H253 0.959 . S
C268 H254 0.961 . S
C268 C267 1.502 . S
C269 H255 0.960 . S
C269 H256 0.961 . S
C269 H257 0.959 . S
C269 C267 1.561 . S
C270 C267 1.526 . S
C270 C271 1.396 . S
C270 C275 1.390 . S
C271 C265 1.465 . S
C271 C270 1.396 . S
C271 C272 1.399 . S
C272 H258 0.929 . S
C272 C271 1.399 . S
C272 C273 1.385 . S
C273 H259 0.931 . S
C273 C272 1.385 . S
C273 C274 1.389 . S
C274 C273 1.389 . S
C274 C275 1.387 . S
C275 H260 0.930 . S
C275 C270 1.390 . S
C275 C274 1.387 . S
H276 C288 0.930 . S
H277 C290 0.930 . S
H278 C291 0.930 . S
H279 C295 0.959 . S
H280 C295 0.959 . S
H281 C295 0.961 . S
H282 C296 0.960 . S
H283 C296 0.961 1_655 S
H284 C296 0.959 . S
H285 C299 0.929 . S
H286 C300 0.931 . S
H287 C302 0.930 . S
C288 H276 0.930 . S
C288 C289 1.399 . S
C288 C293 1.399 . S
C289 C288 1.399 . S
C289 C290 1.376 . S
C290 H277 0.930 . S
C290 C289 1.376 . S
C290 C291 1.388 . S
C291 H278 0.930 . S
C291 C290 1.388 . S
C291 C292 1.390 . S
C292 C291 1.390 . S
C292 C293 1.394 . S
C292 C298 1.465 1_455 S
C293 C288 1.399 . S
C293 C292 1.394 . S
C293 C294 1.516 1_455 S
C294 C293 1.516 1_655 S
C294 C295 1.502 . S
C294 C296 1.561 1_655 S
C294 C297 1.526 . S
C295 H279 0.959 . S
C295 H280 0.959 . S
C295 H281 0.961 . S
C295 C294 1.502 . S
C296 H282 0.960 . S
C296 H283 0.961 1_455 S
C296 H284 0.959 . S
C296 C294 1.561 1_455 S
C297 C294 1.526 . S
C297 C298 1.396 . S
C297 C302 1.390 . S
C298 C292 1.465 1_655 S
C298 C297 1.396 . S
C298 C299 1.399 . S
C299 H285 0.929 . S
C299 C298 1.399 . S
C299 C300 1.385 . S
C300 H286 0.931 . S
C300 C299 1.385 . S
C300 C301 1.389 . S
C301 C300 1.389 . S
C301 C302 1.387 . S
C302 H287 0.930 . S
C302 C297 1.390 . S
C302 C301 1.387 . S
H303 C315 0.930 . S
H304 C317 0.930 . S
H305 C318 0.930 1_554 S
H306 C322 0.959 . S
H307 C322 0.959 . S
H308 C322 0.961 . S
H309 C323 0.960 . S
H310 C323 0.961 . S
H311 C323 0.959 . S
H312 C326 0.929 . S
H313 C327 0.931 . S
H314 C329 0.930 . S
C315 H303 0.930 . S
C315 C316 1.399 . S
C315 C320 1.399 . S
C316 C315 1.399 . S
C316 C317 1.376 . S
C317 H304 0.930 . S
C317 C316 1.376 . S
C317 C318 1.388 . S
C318 H305 0.930 1_556 S
C318 C317 1.388 . S
C318 C319 1.390 . S
C319 C318 1.390 . S
C319 C320 1.394 . S
C319 C325 1.466 1_556 S
C320 C315 1.399 . S
C320 C319 1.394 . S
C320 C321 1.516 1_545 S
C321 C320 1.516 1_565 S
C321 C322 1.502 . S
C321 C323 1.561 . S
C321 C324 1.526 1_556 S
C322 H306 0.959 . S
C322 H307 0.959 . S
C322 H308 0.961 . S
C322 C321 1.502 . S
C323 H309 0.960 . S
C323 H310 0.961 . S
C323 H311 0.959 . S
C323 C321 1.561 . S
C324 C321 1.526 1_554 S
C324 C325 1.395 1_565 S
C324 C329 1.390 . S
C325 C319 1.466 1_554 S
C325 C324 1.395 1_545 S
C325 C326 1.399 . S
C326 H312 0.929 . S
C326 C325 1.399 . S
C326 C327 1.385 1_545 S
C327 H313 0.931 . S
C327 C326 1.385 1_565 S
C327 C328 1.389 . S
C328 C327 1.389 . S
C328 C329 1.387 . S
C329 H314 0.930 . S
C329 C324 1.390 . S
C329 C328 1.387 . S
H330 C342 0.930 . S
H331 C344 0.930 . S
H332 C345 0.930 . S
H333 C349 0.959 . S
H334 C349 0.959 . S
H335 C349 0.961 . S
H336 C350 0.960 . S
H337 C350 0.961 . S
H338 C350 0.959 . S
H339 C353 0.929 . S
H340 C354 0.931 . S
H341 C356 0.930 . S
C342 H330 0.930 . S
C342 C343 1.399 . S
C342 C347 1.399 . S
C343 C342 1.399 . S
C343 C344 1.376 . S
C344 H331 0.930 . S
C344 C343 1.376 . S
C344 C345 1.388 . S
C345 H332 0.930 . S
C345 C344 1.388 . S
C345 C346 1.390 . S
C346 C345 1.390 . S
C346 C347 1.394 . S
C346 C352 1.465 . S
C347 C342 1.399 . S
C347 C346 1.394 . S
C347 C348 1.516 . S
C348 C347 1.516 . S
C348 C349 1.502 . S
C348 C350 1.561 . S
C348 C351 1.526 . S
C349 H333 0.959 . S
C349 H334 0.959 . S
C349 H335 0.961 . S
C349 C348 1.502 . S
C350 H336 0.960 . S
C350 H337 0.961 . S
C350 H338 0.959 . S
C350 C348 1.561 . S
C351 C348 1.526 . S
C351 C352 1.396 . S
C351 C356 1.390 . S
C352 C346 1.465 . S
C352 C351 1.396 . S
C352 C353 1.399 . S
C353 H339 0.929 . S
C353 C352 1.399 . S
C353 C354 1.385 . S
C354 H340 0.931 . S
C354 C353 1.385 . S
C354 C355 1.389 . S
C355 C354 1.389 . S
C355 C356 1.387 . S
C356 H341 0.930 . S
C356 C351 1.390 . S
C356 C355 1.387 . S
H357 C369 0.930 . S
H358 C371 0.930 . S
H359 C372 0.930 . S
H360 C376 0.959 . S
H361 C376 0.959 . S
H362 C376 0.961 . S
H363 C377 0.960 . S
H364 C377 0.961 . S
H365 C377 0.959 . S
H366 C380 0.929 . S
H367 C381 0.931 . S
H368 C383 0.930 . S
C369 H357 0.930 . S
C369 C370 1.399 . S
C369 C374 1.399 . S
C370 C369 1.399 . S
C370 C371 1.376 . S
C371 H358 0.930 . S
C371 C370 1.376 . S
C371 C372 1.388 . S
C372 H359 0.930 . S
C372 C371 1.388 . S
C372 C373 1.390 . S
C373 C372 1.390 . S
C373 C374 1.394 . S
C373 C379 1.465 . S
C374 C369 1.399 . S
C374 C373 1.394 . S
C374 C375 1.516 . S
C375 C374 1.516 . S
C375 C376 1.502 . S
C375 C377 1.561 . S
C375 C378 1.526 . S
C376 H360 0.959 . S
C376 H361 0.959 . S
C376 H362 0.961 . S
C376 C375 1.502 . S
C377 H363 0.960 . S
C377 H364 0.961 . S
C377 H365 0.959 . S
C377 C375 1.561 . S
C378 C375 1.526 . S
C378 C379 1.396 . S
C378 C383 1.390 . S
C379 C373 1.465 . S
C379 C378 1.396 . S
C379 C380 1.399 . S
C380 H366 0.929 . S
C380 C379 1.399 . S
C380 C381 1.385 . S
C381 H367 0.931 . S
C381 C380 1.385 . S
C381 C382 1.389 . S
C382 C381 1.389 . S
C382 C383 1.387 . S
C383 H368 0.930 . S
C383 C378 1.390 . S
C383 C382 1.387 . S
H384 C396 0.930 . S
H385 C398 0.930 . S
H386 C399 0.930 . S
H387 C403 0.959 . S
H388 C403 0.959 . S
H389 C403 0.961 . S
H390 C404 0.960 . S
H391 C404 0.961 . S
H392 C404 0.959 . S
H393 C407 0.929 . S
H394 C408 0.931 . S
H395 C410 0.930 . S
C396 H384 0.930 . S
C396 C397 1.399 . S
C396 C401 1.399 . S
C397 C396 1.399 . S
C397 C398 1.376 . S
C398 H385 0.930 . S
C398 C397 1.376 . S
C398 C399 1.388 . S
C399 H386 0.930 . S
C399 C398 1.388 . S
C399 C400 1.390 . S
C400 C399 1.390 . S
C400 C401 1.394 . S
C400 C406 1.465 . S
C401 C396 1.399 . S
C401 C400 1.394 . S
C401 C402 1.516 . S
C402 C401 1.516 . S
C402 C403 1.502 . S
C402 C404 1.561 . S
C402 C405 1.526 . S
C403 H387 0.959 . S
C403 H388 0.959 . S
C403 H389 0.961 . S
C403 C402 1.502 . S
C404 H390 0.960 . S
C404 H391 0.961 . S
C404 H392 0.959 . S
C404 C402 1.561 . S
C405 C402 1.526 . S
C405 C406 1.396 . S
C405 C410 1.390 . S
C406 C400 1.465 . S
C406 C405 1.396 . S
C406 C407 1.399 . S
C407 H393 0.929 . S
C407 C406 1.399 . S
C407 C408 1.385 . S
C408 H394 0.931 . S
C408 C407 1.385 . S
C408 C409 1.389 . S
C409 C408 1.389 . S
C409 C410 1.387 . S
C410 H395 0.930 . S
C410 C405 1.390 . S
C410 C409 1.387 . S
H411 C423 0.930 . S
H412 C425 0.930 . S
H413 C426 0.930 . S
H414 C430 0.959 . S
H415 C430 0.959 . S
H416 C430 0.961 . S
H417 C431 0.960 1_554 S
H418 C431 0.961 1_554 S
H419 C431 0.959 . S
H420 C434 0.929 . S
H421 C435 0.931 . S
H422 C437 0.930 . S
C423 H411 0.930 . S
C423 C424 1.399 . S
C423 C428 1.399 . S
C424 C423 1.399 . S
C424 C425 1.376 . S
C425 H412 0.930 . S
C425 C424 1.376 . S
C425 C426 1.388 . S
C426 H413 0.930 . S
C426 C425 1.388 . S
C426 C427 1.390 . S
C427 C426 1.390 . S
C427 C428 1.394 . S
C427 C433 1.465 . S
C428 C423 1.399 . S
C428 C427 1.394 . S
C428 C429 1.516 . S
C429 C428 1.516 . S
C429 C430 1.502 1_556 S
C429 C431 1.561 . S
C429 C432 1.526 . S
C430 H414 0.959 . S
C430 H415 0.959 . S
C430 H416 0.961 . S
C430 C429 1.502 1_554 S
C431 H417 0.960 1_556 S
C431 H418 0.961 1_556 S
C431 H419 0.959 . S
C431 C429 1.561 . S
C432 C429 1.526 . S
C432 C433 1.396 . S
C432 C437 1.390 . S
C433 C427 1.465 . S
C433 C432 1.396 . S
C433 C434 1.399 . S
C434 H420 0.929 . S
C434 C433 1.399 . S
C434 C435 1.385 . S
C435 H421 0.931 . S
C435 C434 1.385 . S
C435 C436 1.389 . S
C436 C435 1.389 . S
C436 C437 1.387 . S
C437 H422 0.930 . S
C437 C432 1.390 . S
C437 C436 1.387 . S
H438 C450 0.930 . S
H439 C452 0.930 . S
H440 C453 0.930 . S
H441 C457 0.959 1_554 S
H442 C457 0.959 . S
H443 C457 0.961 . S
H444 C458 0.960 . S
H445 C458 0.961 . S
H446 C458 0.959 . S
H447 C461 0.929 . S
H448 C462 0.931 . S
H449 C464 0.930 1_556 S
C450 H438 0.930 . S
C450 C451 1.399 . S
C450 C455 1.399 . S
C451 C450 1.399 . S
C451 C452 1.376 . S
C452 H439 0.930 . S
C452 C451 1.376 . S
C452 C453 1.388 . S
C453 H440 0.930 . S
C453 C452 1.388 . S
C453 C454 1.390 . S
C454 C453 1.390 . S
C454 C455 1.394 . S
C454 C460 1.465 . S
C455 C450 1.399 . S
C455 C454 1.394 . S
C455 C456 1.516 . S
C456 C455 1.516 . S
C456 C457 1.502 1_554 S
C456 C458 1.561 1_554 S
C456 C459 1.526 . S
C457 H441 0.959 1_556 S
C457 H442 0.959 . S
C457 H443 0.961 . S
C457 C456 1.502 1_556 S
C458 H444 0.960 . S
C458 H445 0.961 . S
C458 H446 0.959 . S
C458 C456 1.561 1_556 S
C459 C456 1.526 . S
C459 C460 1.396 . S
C459 C464 1.390 . S
C460 C454 1.465 . S
C460 C459 1.396 . S
C460 C461 1.399 . S
C461 H447 0.929 . S
C461 C460 1.399 . S
C461 C462 1.385 . S
C462 H448 0.931 . S
C462 C461 1.385 . S
C462 C463 1.389 . S
C463 C462 1.389 . S
C463 C464 1.387 . S
C464 H449 0.930 1_554 S
C464 C459 1.390 . S
C464 C463 1.387 . S
H465 C477 0.930 . S
H466 C479 0.930 . S
H467 C480 0.930 . S
H468 C484 0.959 . S
H469 C484 0.959 . S
H470 C484 0.961 . S
H471 C485 0.960 . S
H472 C485 0.961 . S
H473 C485 0.959 . S
H474 C488 0.929 . S
H475 C489 0.931 . S
H476 C491 0.930 . S
C477 H465 0.930 . S
C477 C478 1.399 . S
C477 C482 1.399 . S
C478 C477 1.399 . S
C478 C479 1.376 . S
C479 H466 0.930 . S
C479 C478 1.376 . S
C479 C480 1.388 . S
C480 H467 0.930 . S
C480 C479 1.388 . S
C480 C481 1.390 . S
C481 C480 1.390 . S
C481 C482 1.394 . S
C481 C487 1.465 . S
C482 C477 1.399 . S
C482 C481 1.394 . S
C482 C483 1.516 . S
C483 C482 1.516 . S
C483 C484 1.502 . S
C483 C485 1.561 . S
C483 C486 1.526 . S
C484 H468 0.959 . S
C484 H469 0.959 . S
C484 H470 0.961 . S
C484 C483 1.502 . S
C485 H471 0.960 . S
C485 H472 0.961 . S
C485 H473 0.959 . S
C485 C483 1.561 . S
C486 C483 1.526 . S
C486 C487 1.396 . S
C486 C491 1.390 . S
C487 C481 1.465 . S
C487 C486 1.396 . S
C487 C488 1.399 . S
C488 H474 0.929 . S
C488 C487 1.399 . S
C488 C489 1.385 . S
C489 H475 0.931 . S
C489 C488 1.385 . S
C489 C490 1.389 . S
C490 C489 1.389 . S
C490 C491 1.387 . S
C491 H476 0.930 . S
C491 C486 1.390 . S
C491 C490 1.387 . S
H492 C504 0.930 . S
H493 C506 0.930 . S
H494 C507 0.930 . S
H495 C511 0.959 . S
H496 C511 0.959 . S
H497 C511 0.961 . S
H498 C512 0.960 . S
H499 C512 0.961 . S
H500 C512 0.959 . S
H501 C515 0.929 . S
H502 C516 0.931 . S
H503 C518 0.930 . S
C504 H492 0.930 . S
C504 C505 1.399 . S
C504 C509 1.399 . S
C505 C504 1.399 . S
C505 C506 1.376 . S
C506 H493 0.930 . S
C506 C505 1.376 . S
C506 C507 1.388 . S
C507 H494 0.930 . S
C507 C506 1.388 . S
C507 C508 1.390 . S
C508 C507 1.390 . S
C508 C509 1.394 . S
C508 C514 1.465 . S
C509 C504 1.399 . S
C509 C508 1.394 . S
C509 C510 1.516 . S
C510 C509 1.516 . S
C510 C511 1.502 . S
C510 C512 1.561 . S
C510 C513 1.526 . S
C511 H495 0.959 . S
C511 H496 0.959 . S
C511 H497 0.961 . S
C511 C510 1.502 . S
C512 H498 0.960 . S
C512 H499 0.961 . S
C512 H500 0.959 . S
C512 C510 1.561 . S
C513 C510 1.526 . S
C513 C514 1.396 . S
C513 C518 1.390 . S
C514 C508 1.465 . S
C514 C513 1.396 . S
C514 C515 1.399 . S
C515 H501 0.929 . S
C515 C514 1.399 . S
C515 C516 1.385 . S
C516 H502 0.931 . S
C516 C515 1.385 . S
C516 C517 1.389 . S
C517 C516 1.389 . S
C517 C518 1.387 . S
C518 H503 0.930 . S
C518 C513 1.390 . S
C518 C517 1.387 . S
H519 C531 0.930 . S
H520 C533 0.930 1_554 S
H521 C534 0.930 . S
H522 C538 0.959 . S
H523 C538 0.959 . S
H524 C538 0.961 . S
H525 C539 0.960 . S
H526 C539 0.961 . S
H527 C539 0.959 . S
H528 C542 0.929 . S
H529 C543 0.931 . S
H530 C545 0.930 . S
C531 H519 0.930 . S
C531 C532 1.399 . S
C531 C536 1.399 . S
C532 C531 1.399 . S
C532 C533 1.376 . S
C533 H520 0.930 1_556 S
C533 C532 1.376 . S
C533 C534 1.388 1_655 S
C534 H521 0.930 . S
C534 C533 1.388 1_455 S
C534 C535 1.391 . S
C535 C534 1.391 . S
C535 C536 1.386 1_455 S
C535 C541 1.472 . S
C536 C531 1.399 . S
C536 C535 1.386 1_655 S
C536 C537 1.516 . S
C537 C536 1.516 . S
C537 C538 1.502 . S
C537 C539 1.561 . S
C537 C540 1.526 1_655 S
C538 H522 0.959 . S
C538 H523 0.959 . S
C538 H524 0.961 . S
C538 C537 1.502 . S
C539 H525 0.960 . S
C539 H526 0.961 . S
C539 H527 0.959 . S
C539 C537 1.561 . S
C540 C537 1.526 1_455 S
C540 C541 1.396 . S
C540 C545 1.390 . S
C541 C535 1.472 . S
C541 C540 1.396 . S
C541 C542 1.399 . S
C542 H528 0.929 . S
C542 C541 1.399 . S
C542 C543 1.385 . S
C543 H529 0.931 . S
C543 C542 1.385 . S
C543 C544 1.389 . S
C544 C543 1.389 . S
C544 C545 1.387 . S
C545 H530 0.930 . S
C545 C540 1.390 . S
C545 C544 1.387 . S
H546 C558 0.930 . S
H547 C560 0.930 . S
H548 C561 0.930 1_556 S
H549 C565 0.959 . S
H550 C565 0.959 . S
H551 C565 0.961 . S
H552 C566 0.960 . S
H553 C566 0.961 . S
H554 C566 0.959 . S
H555 C569 0.929 . S
H556 C570 0.931 . S
H557 C572 0.930 . S
C558 H546 0.930 . S
C558 C559 1.399 . S
C558 C563 1.399 . S
C559 C558 1.399 . S
C559 C560 1.376 . S
C560 H547 0.930 . S
C560 C559 1.376 . S
C560 C561 1.388 . S
C561 H548 0.930 1_554 S
C561 C560 1.388 . S
C561 C562 1.390 . S
C562 C561 1.390 . S
C562 C563 1.394 . S
C562 C568 1.446 1_564 S
C563 C558 1.399 . S
C563 C562 1.394 . S
C563 C564 1.516 1_565 S
C564 C563 1.516 1_545 S
C564 C565 1.502 . S
C564 C566 1.561 . S
C564 C567 1.526 1_554 S
C565 H549 0.959 . S
C565 H550 0.959 . S
C565 H551 0.961 . S
C565 C564 1.502 . S
C566 H552 0.960 . S
C566 H553 0.961 . S
C566 H554 0.959 . S
C566 C564 1.561 . S
C567 C564 1.526 1_556 S
C567 C568 1.429 . S
C567 C572 1.390 . S
C568 C562 1.446 1_546 S
C568 C567 1.429 . S
C568 C569 1.391 1_545 S
C569 H555 0.929 . S
C569 C568 1.391 1_565 S
C569 C570 1.385 1_565 S
C570 H556 0.931 . S
C570 C569 1.385 1_545 S
C570 C571 1.389 . S
C571 C570 1.389 . S
C571 C572 1.387 . S
C572 H557 0.930 . S
C572 C567 1.390 . S
C572 C571 1.387 . S
H573 C585 0.930 . S
H574 C587 0.930 . S
H575 C588 0.930 . S
H576 C592 0.959 . S
H577 C592 0.959 . S
H578 C592 0.961 . S
H579 C593 0.960 . S
H580 C593 0.961 . S
H581 C593 0.959 . S
H582 C596 0.929 . S
H583 C597 0.931 . S
H584 C599 0.930 . S
C585 H573 0.930 . S
C585 C586 1.399 . S
C585 C590 1.399 . S
C586 C585 1.399 . S
C586 C587 1.376 . S
C587 H574 0.930 . S
C587 C586 1.376 . S
C587 C588 1.388 . S
C588 H575 0.930 . S
C588 C587 1.388 . S
C588 C589 1.390 . S
C589 C588 1.390 . S
C589 C590 1.394 . S
C589 C595 1.465 . S
C590 C585 1.399 . S
C590 C589 1.394 . S
C590 C591 1.516 . S
C591 C590 1.516 . S
C591 C592 1.502 . S
C591 C593 1.561 . S
C591 C594 1.526 . S
C592 H576 0.959 . S
C592 H577 0.959 . S
C592 H578 0.961 . S
C592 C591 1.502 . S
C593 H579 0.960 . S
C593 H580 0.961 . S
C593 H581 0.959 . S
C593 C591 1.561 . S
C594 C591 1.526 . S
C594 C595 1.396 . S
C594 C599 1.390 . S
C595 C589 1.465 . S
C595 C594 1.396 . S
C595 C596 1.399 . S
C596 H582 0.929 . S
C596 C595 1.399 . S
C596 C597 1.385 . S
C597 H583 0.931 . S
C597 C596 1.385 . S
C597 C598 1.389 . S
C598 C597 1.389 . S
C598 C599 1.387 . S
C599 H584 0.930 . S
C599 C594 1.390 . S
C599 C598 1.387 . S
H600 C612 0.930 . S
H601 C614 0.930 . S
H602 C615 0.930 . S
H603 C619 0.959 . S
H604 C619 0.959 . S
H605 C619 0.961 . S
H606 C620 0.960 . S
H607 C620 0.961 . S
H608 C620 0.959 . S
H609 C623 0.929 . S
H610 C624 0.931 . S
H611 C626 0.930 . S
C612 H600 0.930 . S
C612 C613 1.399 . S
C612 C617 1.399 . S
C613 C612 1.399 . S
C613 C614 1.376 . S
C614 H601 0.930 . S
C614 C613 1.376 . S
C614 C615 1.388 . S
C615 H602 0.930 . S
C615 C614 1.388 . S
C615 C616 1.390 . S
C616 C615 1.390 . S
C616 C617 1.394 . S
C616 C622 1.465 1_455 S
C617 C612 1.399 . S
C617 C616 1.394 . S
C617 C618 1.516 . S
C618 C617 1.516 . S
C618 C619 1.502 . S
C618 C620 1.561 1_455 S
C618 C621 1.526 1_455 S
C619 H603 0.959 . S
C619 H604 0.959 . S
C619 H605 0.961 . S
C619 C618 1.502 . S
C620 H606 0.960 . S
C620 H607 0.961 . S
C620 H608 0.959 . S
C620 C618 1.561 1_655 S
C621 C618 1.526 1_655 S
C621 C622 1.396 . S
C621 C626 1.390 . S
C622 C616 1.465 1_655 S
C622 C621 1.396 . S
C622 C623 1.399 . S
C623 H609 0.929 . S
C623 C622 1.399 . S
C623 C624 1.385 . S
C624 H610 0.931 . S
C624 C623 1.385 . S
C624 C625 1.389 . S
C625 C624 1.389 . S
C625 C626 1.387 . S
C626 H611 0.930 . S
C626 C621 1.390 . S
C626 C625 1.387 . S
H627 C639 0.930 . S
H628 C641 0.930 . S
H629 C642 0.930 . S
H630 C646 0.959 . S
H631 C646 0.959 . S
H632 C646 0.961 1_565 S
H633 C647 0.960 . S
H634 C647 0.961 . S
H635 C647 0.959 . S
H636 C650 0.929 . S
H637 C651 0.931 . S
H638 C653 0.930 . S
C639 H627 0.930 . S
C639 C640 1.399 . S
C639 C644 1.399 . S
C640 C639 1.399 . S
C640 C641 1.376 . S
C641 H628 0.930 . S
C641 C640 1.376 . S
C641 C642 1.388 . S
C642 H629 0.930 . S
C642 C641 1.388 . S
C642 C643 1.390 . S
C643 C642 1.390 . S
C643 C644 1.394 . S
C643 C649 1.465 1_565 S
C644 C639 1.399 . S
C644 C643 1.394 . S
C644 C645 1.516 . S
C645 C644 1.516 . S
C645 C646 1.502 1_565 S
C645 C647 1.561 . S
C645 C648 1.526 1_565 S
C646 H630 0.959 . S
C646 H631 0.959 . S
C646 H632 0.961 1_545 S
C646 C645 1.502 1_545 S
C647 H633 0.960 . S
C647 H634 0.961 . S
C647 H635 0.959 . S
C647 C645 1.561 . S
C648 C645 1.526 1_545 S
C648 C649 1.396 . S
C648 C653 1.390 . S
C649 C643 1.465 1_545 S
C649 C648 1.396 . S
C649 C650 1.399 . S
C650 H636 0.929 . S
C650 C649 1.399 . S
C650 C651 1.385 . S
C651 H637 0.931 . S
C651 C650 1.385 . S
C651 C652 1.389 . S
C652 C651 1.389 . S
C652 C653 1.387 . S
C653 H638 0.930 . S
C653 C648 1.390 . S
C653 C652 1.387 . S
H654 C666 0.930 . S
H655 C668 0.930 . S
H656 C669 0.930 . S
H657 C673 0.959 . S
H658 C673 0.959 . S
H659 C673 0.961 . S
H660 C674 0.960 . S
H661 C674 0.961 . S
H662 C674 0.959 . S
H663 C677 0.929 . S
H664 C678 0.931 . S
H665 C680 0.930 . S
C666 H654 0.930 . S
C666 C667 1.399 . S
C666 C671 1.399 . S
C667 C666 1.399 . S
C667 C668 1.376 . S
C668 H655 0.930 . S
C668 C667 1.376 . S
C668 C669 1.388 . S
C669 H656 0.930 . S
C669 C668 1.388 . S
C669 C670 1.390 . S
C670 C669 1.390 . S
C670 C671 1.394 . S
C670 C676 1.465 . S
C671 C666 1.399 . S
C671 C670 1.394 . S
C671 C672 1.516 . S
C672 C671 1.516 . S
C672 C673 1.502 . S
C672 C674 1.561 . S
C672 C675 1.526 . S
C673 H657 0.959 . S
C673 H658 0.959 . S
C673 H659 0.961 . S
C673 C672 1.502 . S
C674 H660 0.960 . S
C674 H661 0.961 . S
C674 H662 0.959 . S
C674 C672 1.561 . S
C675 C672 1.526 . S
C675 C676 1.396 . S
C675 C680 1.390 . S
C676 C670 1.465 . S
C676 C675 1.396 . S
C676 C677 1.399 . S
C677 H663 0.929 . S
C677 C676 1.399 . S
C677 C678 1.385 . S
C678 H664 0.931 . S
C678 C677 1.385 . S
C678 C679 1.389 . S
C679 C678 1.389 . S
C679 C680 1.387 . S
C680 H665 0.930 . S
C680 C675 1.390 . S
C680 C679 1.387 . S
H681 C693 0.930 . S
H682 C695 0.930 . S
H683 C696 0.930 . S
H684 C700 0.959 . S
H685 C700 0.959 . S
H686 C700 0.961 . S
H687 C701 0.960 . S
H688 C701 0.961 . S
H689 C701 0.959 . S
H690 C704 0.929 . S
H691 C705 0.931 . S
H692 C707 0.930 . S
C693 H681 0.930 . S
C693 C694 1.399 . S
C693 C698 1.399 . S
C694 C693 1.399 . S
C694 C695 1.376 . S
C695 H682 0.930 . S
C695 C694 1.376 . S
C695 C696 1.388 . S
C696 H683 0.930 . S
C696 C695 1.388 . S
C696 C697 1.390 . S
C697 C696 1.390 . S
C697 C698 1.394 . S
C697 C703 1.465 . S
C698 C693 1.399 . S
C698 C697 1.394 . S
C698 C699 1.516 . S
C699 C698 1.516 . S
C699 C700 1.502 . S
C699 C701 1.561 . S
C699 C702 1.526 . S
C700 H684 0.959 . S
C700 H685 0.959 . S
C700 H686 0.961 . S
C700 C699 1.502 . S
C701 H687 0.960 . S
C701 H688 0.961 . S
C701 H689 0.959 . S
C701 C699 1.561 . S
C702 C699 1.526 . S
C702 C703 1.396 . S
C702 C707 1.390 . S
C703 C697 1.465 . S
C703 C702 1.396 . S
C703 C704 1.399 . S
C704 H690 0.929 . S
C704 C703 1.399 . S
C704 C705 1.385 . S
C705 H691 0.931 . S
C705 C704 1.385 . S
C705 C706 1.389 . S
C706 C705 1.389 . S
C706 C707 1.387 . S
C707 H692 0.930 . S
C707 C702 1.390 . S
C707 C706 1.387 . S
H708 C720 0.930 1_554 S
H709 C722 0.930 . S
H710 C723 0.930 . S
H711 C727 0.959 . S
H712 C727 0.959 . S
H713 C727 0.961 . S
H714 C728 0.960 . S
H715 C728 0.962 . S
H716 C728 0.959 . S
H717 C731 0.929 . S
H718 C732 0.931 . S
H719 C734 0.930 . S
C720 H708 0.930 1_556 S
C720 C721 1.399 1_556 S
C720 C725 1.399 . S
C721 C720 1.399 1_554 S
C721 C722 1.376 1_554 S
C722 H709 0.930 . S
C722 C721 1.376 1_556 S
C722 C723 1.388 . S
C723 H710 0.930 . S
C723 C722 1.388 . S
C723 C724 1.390 . S
C724 C723 1.390 . S
C724 C725 1.394 . S
C724 C730 1.465 . S
C725 C720 1.399 . S
C725 C724 1.394 . S
C725 C726 1.516 . S
C726 C725 1.516 . S
C726 C727 1.502 . S
C726 C728 1.561 1_556 S
C726 C729 1.526 . S
C727 H711 0.959 . S
C727 H712 0.959 . S
C727 H713 0.961 . S
C727 C726 1.502 . S
C728 H714 0.960 . S
C728 H715 0.962 . S
C728 H716 0.959 . S
C728 C726 1.561 1_554 S
C729 C726 1.526 . S
C729 C730 1.396 . S
C729 C734 1.390 . S
C730 C724 1.465 . S
C730 C729 1.396 . S
C730 C731 1.399 . S
C731 H717 0.929 . S
C731 C730 1.399 . S
C731 C732 1.385 . S
C732 H718 0.931 . S
C732 C731 1.385 . S
C732 C733 1.389 . S
C733 C732 1.389 . S
C733 C734 1.387 . S
C734 H719 0.930 . S
C734 C729 1.390 . S
C734 C733 1.387 . S
H735 C747 0.930 . S
H736 C749 0.930 . S
H737 C750 0.930 . S
H738 C754 0.959 . S
H739 C754 0.959 . S
H740 C754 0.961 . S
H741 C755 0.960 . S
H742 C755 0.961 . S
H743 C755 0.959 . S
H744 C758 0.929 . S
H745 C759 0.931 . S
H746 C761 0.930 . S
C747 H735 0.930 . S
C747 C748 1.399 . S
C747 C752 1.399 . S
C748 C747 1.399 . S
C748 C749 1.376 . S
C749 H736 0.930 . S
C749 C748 1.376 . S
C749 C750 1.388 . S
C750 H737 0.930 . S
C750 C749 1.388 . S
C750 C751 1.390 . S
C751 C750 1.390 . S
C751 C752 1.394 . S
C751 C757 1.465 . S
C752 C747 1.399 . S
C752 C751 1.394 . S
C752 C753 1.516 . S
C753 C752 1.516 . S
C753 C754 1.502 . S
C753 C755 1.561 . S
C753 C756 1.526 . S
C754 H738 0.959 . S
C754 H739 0.959 . S
C754 H740 0.961 . S
C754 C753 1.502 . S
C755 H741 0.960 . S
C755 H742 0.961 . S
C755 H743 0.959 . S
C755 C753 1.561 . S
C756 C753 1.526 . S
C756 C757 1.396 . S
C756 C761 1.390 . S
C757 C751 1.465 . S
C757 C756 1.396 . S
C757 C758 1.399 1_554 S
C758 H744 0.929 . S
C758 C757 1.399 1_556 S
C758 C759 1.385 . S
C759 H745 0.931 . S
C759 C758 1.385 . S
C759 C760 1.389 . S
C760 C759 1.389 . S
C760 C761 1.387 1_556 S
C761 H746 0.930 . S
C761 C756 1.390 . S
C761 C760 1.387 1_554 S
H762 C774 0.930 . S
H763 C776 0.930 . S
H764 C777 0.930 . S
H765 C781 0.959 . S
H766 C781 0.959 . S
H767 C781 0.961 . S
H768 C782 0.960 . S
H769 C782 0.961 . S
H770 C782 0.959 . S
H771 C785 0.929 . S
H772 C786 0.931 . S
H773 C788 0.930 . S
C774 H762 0.930 . S
C774 C775 1.399 . S
C774 C779 1.399 . S
C775 C774 1.399 . S
C775 C776 1.376 . S
C776 H763 0.930 . S
C776 C775 1.376 . S
C776 C777 1.388 . S
C777 H764 0.930 . S
C777 C776 1.388 . S
C777 C778 1.390 . S
C778 C777 1.390 . S
C778 C779 1.394 . S
C778 C784 1.465 . S
C779 C774 1.399 . S
C779 C778 1.394 . S
C779 C780 1.516 . S
C780 C779 1.516 . S
C780 C781 1.502 . S
C780 C782 1.561 . S
C780 C783 1.526 . S
C781 H765 0.959 . S
C781 H766 0.959 . S
C781 H767 0.961 . S
C781 C780 1.502 . S
C782 H768 0.960 . S
C782 H769 0.961 . S
C782 H770 0.959 . S
C782 C780 1.561 . S
C783 C780 1.526 . S
C783 C784 1.396 . S
C783 C788 1.390 . S
C784 C778 1.465 . S
C784 C783 1.396 . S
C784 C785 1.399 . S
C785 H771 0.929 . S
C785 C784 1.399 . S
C785 C786 1.385 . S
C786 H772 0.931 . S
C786 C785 1.385 . S
C786 C787 1.389 . S
C787 C786 1.389 . S
C787 C788 1.387 . S
C788 H773 0.930 . S
C788 C783 1.390 . S
C788 C787 1.387 . S
H789 C801 0.930 . S
H790 C803 0.930 . S
H791 C804 0.930 . S
H792 C808 0.959 . S
H793 C808 0.959 . S
H794 C808 0.961 . S
H795 C809 0.960 . S
H796 C809 0.961 . S
H797 C809 0.959 . S
H798 C812 0.929 . S
H799 C813 0.931 . S
H800 C815 0.930 . S
C801 H789 0.930 . S
C801 C802 1.399 . S
C801 C806 1.399 . S
C802 C801 1.399 . S
C802 C803 1.376 . S
C803 H790 0.930 . S
C803 C802 1.376 . S
C803 C804 1.388 . S
C804 H791 0.930 . S
C804 C803 1.388 . S
C804 C805 1.390 . S
C805 C804 1.390 . S
C805 C806 1.394 . S
C805 C811 1.465 . S
C806 C801 1.399 . S
C806 C805 1.394 . S
C806 C807 1.516 . S
C807 C806 1.516 . S
C807 C808 1.502 . S
C807 C809 1.561 . S
C807 C810 1.526 . S
C808 H792 0.959 . S
C808 H793 0.959 . S
C808 H794 0.961 . S
C808 C807 1.502 . S
C809 H795 0.960 . S
C809 H796 0.961 . S
C809 H797 0.959 . S
C809 C807 1.561 . S
C810 C807 1.526 . S
C810 C811 1.396 . S
C810 C815 1.390 . S
C811 C805 1.465 . S
C811 C810 1.396 . S
C811 C812 1.399 . S
C812 H798 0.929 . S
C812 C811 1.399 . S
C812 C813 1.385 . S
C813 H799 0.931 . S
C813 C812 1.385 . S
C813 C814 1.389 . S
C814 C813 1.389 . S
C814 C815 1.387 . S
C815 H800 0.930 . S
C815 C810 1.390 . S
C815 C814 1.387 . S
C181 C135 1.552 1_554 S
C193 C9 1.575 . S
C208 C23 1.518 . S
C220 C149 1.517 . S
C235 C163 1.526 . S
C247 C37 1.514 . S
C262 C93 1.574 . S
C274 C51 1.575 . S
C289 C107 1.578 . S
C301 C65 1.561 1_556 S
C316 C121 1.544 . S
C328 C79 1.520 . S
C343 C87 1.536 . S
C355 C3 1.502 . S
C370 C17 1.494 . S
C382 C101 1.522 . S
C397 C115 1.521 . S
C409 C31 1.536 . S
C424 C45 1.533 . S
C436 C129 1.498 . S
C451 C143 1.538 . S
C463 C59 1.508 . S
C478 C73 1.518 . S
C490 C157 1.537 . S
C505 C133 1.276 . S
C517 C7 1.328 . S
C532 C147 1.263 . S
C544 C21 1.311 . S
C559 C161 1.352 . S
C571 C35 1.313 . S
C586 C49 1.354 . S
C598 C91 1.328 . S
C613 C105 1.327 . S
C625 C63 1.353 . S
C640 C77 1.268 . S
C652 C119 1.261 . S
C667 C8 1.200 . S
C679 C120 1.179 . S
C694 C134 1.203 . S
C706 C22 1.189 . S
C721 C148 1.192 . S
C733 C36 1.199 . S
C748 C162 1.178 . S
C760 C50 1.207 . S
C775 C92 1.193 . S
C787 C64 1.199 . S
C802 C106 1.183 . S
C814 C78 1.206 . S
