# Generated by pormake.
# Topology tzs, (4)-cn, num edge types: 1
# Building blocks:
#     Node 0, Type 0, BuildingBlock: CEKHIL_clean_sbu_0, # of connection points: 4
#     Node 1, Type 0, BuildingBlock: CEKHIL_clean_sbu_0, # of connection points: 4
#     Node 2, Type 0, BuildingBlock: CEKHIL_clean_sbu_0, # of connection points: 4
#     Node 3, Type 0, BuildingBlock: CEKHIL_clean_sbu_0, # of connection points: 4
#     Node 4, Type 0, BuildingBlock: CEKHIL_clean_sbu_0, # of connection points: 4
#     Node 5, Type 0, BuildingBlock: CEKHIL_clean_sbu_0, # of connection points: 4
#     Node 6, Type 0, BuildingBlock: CEKHIL_clean_sbu_0, # of connection points: 4
#     Node 7, Type 0, BuildingBlock: CEKHIL_clean_sbu_0, # of connection points: 4
#     Node 8, Type 0, BuildingBlock: CEKHIL_clean_sbu_0, # of connection points: 4
#     Node 9, Type 0, BuildingBlock: CEKHIL_clean_sbu_0, # of connection points: 4
#     Node 10, Type 0, BuildingBlock: CEKHIL_clean_sbu_0, # of connection points: 4
#     Node 11, Type 0, BuildingBlock: CEKHIL_clean_sbu_0, # of connection points: 4
#     Node 12, Type 0, BuildingBlock: CEKHIL_clean_sbu_0, # of connection points: 4
#     Node 13, Type 0, BuildingBlock: CEKHIL_clean_sbu_0, # of connection points: 4
#     Node 14, Type 0, BuildingBlock: CEKHIL_clean_sbu_0, # of connection points: 4
#     Node 15, Type 0, BuildingBlock: CEKHIL_clean_sbu_0, # of connection points: 4
#     Edge 16, Type (0, 0), BuildingBlock: EZIPEK_clean_linker_0, # of connection points: 2
#     Edge 17, Type (0, 0), BuildingBlock: EZIPEK_clean_linker_0, # of connection points: 2
#     Edge 18, Type (0, 0), BuildingBlock: EZIPEK_clean_linker_0, # of connection points: 2
#     Edge 19, Type (0, 0), BuildingBlock: EZIPEK_clean_linker_0, # of connection points: 2
#     Edge 20, Type (0, 0), BuildingBlock: EZIPEK_clean_linker_0, # of connection points: 2
#     Edge 21, Type (0, 0), BuildingBlock: EZIPEK_clean_linker_0, # of connection points: 2
#     Edge 22, Type (0, 0), BuildingBlock: EZIPEK_clean_linker_0, # of connection points: 2
#     Edge 23, Type (0, 0), BuildingBlock: EZIPEK_clean_linker_0, # of connection points: 2
#     Edge 24, Type (0, 0), BuildingBlock: EZIPEK_clean_linker_0, # of connection points: 2
#     Edge 25, Type (0, 0), BuildingBlock: EZIPEK_clean_linker_0, # of connection points: 2
#     Edge 26, Type (0, 0), BuildingBlock: EZIPEK_clean_linker_0, # of connection points: 2
#     Edge 27, Type (0, 0), BuildingBlock: EZIPEK_clean_linker_0, # of connection points: 2
#     Edge 28, Type (0, 0), BuildingBlock: EZIPEK_clean_linker_0, # of connection points: 2
#     Edge 29, Type (0, 0), BuildingBlock: EZIPEK_clean_linker_0, # of connection points: 2
#     Edge 30, Type (0, 0), BuildingBlock: EZIPEK_clean_linker_0, # of connection points: 2
#     Edge 31, Type (0, 0), BuildingBlock: EZIPEK_clean_linker_0, # of connection points: 2
#     Edge 32, Type (0, 0), BuildingBlock: EZIPEK_clean_linker_0, # of connection points: 2
#     Edge 33, Type (0, 0), BuildingBlock: EZIPEK_clean_linker_0, # of connection points: 2
#     Edge 34, Type (0, 0), BuildingBlock: EZIPEK_clean_linker_0, # of connection points: 2
#     Edge 35, Type (0, 0), BuildingBlock: EZIPEK_clean_linker_0, # of connection points: 2
#     Edge 36, Type (0, 0), BuildingBlock: EZIPEK_clean_linker_0, # of connection points: 2
#     Edge 37, Type (0, 0), BuildingBlock: EZIPEK_clean_linker_0, # of connection points: 2
#     Edge 38, Type (0, 0), BuildingBlock: EZIPEK_clean_linker_0, # of connection points: 2
#     Edge 39, Type (0, 0), BuildingBlock: EZIPEK_clean_linker_0, # of connection points: 2
#     Edge 40, Type (0, 0), BuildingBlock: EZIPEK_clean_linker_0, # of connection points: 2
#     Edge 41, Type (0, 0), BuildingBlock: EZIPEK_clean_linker_0, # of connection points: 2
#     Edge 42, Type (0, 0), BuildingBlock: EZIPEK_clean_linker_0, # of connection points: 2
#     Edge 43, Type (0, 0), BuildingBlock: EZIPEK_clean_linker_0, # of connection points: 2
#     Edge 44, Type (0, 0), BuildingBlock: EZIPEK_clean_linker_0, # of connection points: 2
#     Edge 45, Type (0, 0), BuildingBlock: EZIPEK_clean_linker_0, # of connection points: 2
#     Edge 46, Type (0, 0), BuildingBlock: EZIPEK_clean_linker_0, # of connection points: 2
#     Edge 47, Type (0, 0), BuildingBlock: EZIPEK_clean_linker_0, # of connection points: 2
# Relax obj value: 0.121
# Max RMSD: 0.118
# Mean RMSD: 0.118
data_MOF--net-tzs--node1-CEKHIL_clean_sbu_0--edge1-EZIPEK_clean_linker_0
_symmetry_space_group_name_H-M    P1
_symmetry_Int_Tables_number       1
_symmetry_cell_setting            triclinic
loop_
_symmetry_equiv_pos_as_xyz
'x, y, z'
_cell_length_a     35.118363
_cell_length_b     35.342524
_cell_length_c     28.355354
_cell_angle_alpha  89.992204
_cell_angle_beta   89.962974
_cell_angle_gamma 90.062031
loop_
_atom_site_label
_atom_site_type_symbol
_atom_site_fract_x
_atom_site_fract_y
_atom_site_fract_z
_atom_type_partial_charge
Co0 Co 0.14958 0.33726 0.1995 0.0
O1 O 0.16152 0.28344 0.19826 0.0
O2 O 0.19855 0.32779 0.2279 0.0
C3 C 0.08873 0.33073 0.22488 0.0
O4 O 0.14941 0.39485 0.21114 0.0
Co5 Co 0.08655 0.37749 0.14218 0.0
O6 O 0.09779 0.42297 0.18067 0.0
C7 C 0.15344 0.34374 0.09439 0.0
C8 C 0.19329 0.29213 0.21935 0.0
C9 C 0.12772 0.424 0.20596 0.0
O10 O 0.17196 0.34207 0.13371 0.0
O11 O 0.11845 0.35362 0.09181 0.0
O12 O 0.11666 0.32988 0.25505 0.0
O13 O 0.09828 0.33403 0.18132 0.0
Co14 Co 0.67418 0.13491 0.20192 0.0
O15 O 0.72715 0.15007 0.20365 0.0
O16 O 0.67872 0.18727 0.22211 0.0
C17 C 0.68211 0.07897 0.23875 0.0
O18 O 0.61596 0.12846 0.20809 0.0
Co19 Co 0.64826 0.06404 0.14677 0.0
O20 O 0.59564 0.08145 0.16164 0.0
C21 C 0.68124 0.12633 0.09896 0.0
C22 C 0.71538 0.18262 0.21896 0.0
C23 C 0.58884 0.10763 0.19128 0.0
O24 O 0.67058 0.14891 0.13222 0.0
O25 O 0.68713 0.09145 0.10765 0.0
O26 O 0.67962 0.1098 0.26361 0.0
O27 O 0.68305 0.08342 0.19382 0.0
Co28 Co 0.86128 0.66197 0.20477 0.0
O29 O 0.84922 0.71566 0.20543 0.0
O30 O 0.81141 0.67046 0.23132 0.0
C31 C 0.92128 0.6673 0.23335 0.0
O32 O 0.86142 0.60412 0.21357 0.0
Co33 Co 0.92605 0.62412 0.14775 0.0
O34 O 0.91478 0.57791 0.18497 0.0
C35 C 0.8605 0.65961 0.09922 0.0
C36 C 0.81677 0.70635 0.22446 0.0
C37 C 0.88409 0.57569 0.20876 0.0
O38 O 0.84091 0.65943 0.13783 0.0
O39 O 0.89557 0.64988 0.09744 0.0
O40 O 0.8924 0.66743 0.26217 0.0
O41 O 0.91309 0.6658 0.18921 0.0
Co42 Co 0.33802 0.86264 0.2028 0.0
O43 O 0.2847 0.84841 0.20029 0.0
O44 O 0.33117 0.81118 0.22502 0.0
C45 C 0.32729 0.91979 0.23642 0.0
O46 O 0.39614 0.86739 0.21538 0.0
Co47 Co 0.37116 0.93245 0.15083 0.0
O48 O 0.41874 0.92199 0.18566 0.0
C49 C 0.34304 0.86682 0.09697 0.0
C50 C 0.29492 0.8162 0.21826 0.0
C51 C 0.4232 0.89199 0.20995 0.0
O52 O 0.34404 0.846 0.13447 0.0
O53 O 0.34922 0.90248 0.09767 0.0
O54 O 0.32846 0.88934 0.26204 0.0
O55 O 0.33081 0.9143 0.1917 0.0
Co56 Co 0.14272 0.65745 0.29963 0.0
O57 O 0.15098 0.7119 0.29821 0.0
O58 O 0.19203 0.66895 0.27291 0.0
C59 C 0.08234 0.65905 0.27155 0.0
O60 O 0.1458 0.59965 0.29042 0.0
Co61 Co 0.08185 0.6159 0.35856 0.0
O62 O 0.0971 0.56917 0.32493 0.0
C63 C 0.14533 0.65533 0.4056 0.0
C64 C 0.18377 0.70434 0.27904 0.0
C65 C 0.1263 0.56932 0.29834 0.0
O66 O 0.16404 0.65622 0.36635 0.0
O67 O 0.11089 0.64372 0.4084 0.0
O68 O 0.11104 0.66112 0.24261 0.0
O69 O 0.09074 0.65802 0.31573 0.0
Co70 Co 0.35594 0.1402 0.2975 0.0
O71 O 0.30272 0.1539 0.30552 0.0
O72 O 0.3446 0.18699 0.265 0.0
C73 C 0.34547 0.07819 0.27933 0.0
O74 O 0.41229 0.13586 0.27745 0.0
Co75 Co 0.39743 0.08365 0.36009 0.0
O76 O 0.44447 0.09576 0.32404 0.0
C77 C 0.36515 0.15067 0.39997 0.0
C78 C 0.3096 0.1832 0.27912 0.0
C79 C 0.44316 0.11855 0.28939 0.0
O80 O 0.36851 0.16683 0.35933 0.0
O81 O 0.36614 0.11479 0.40406 0.0
O82 O 0.34277 0.10434 0.24717 0.0
O83 O 0.35217 0.09049 0.32138 0.0
Co84 Co 0.87016 0.34074 0.29755 0.0
O85 O 0.85896 0.28679 0.29949 0.0
O86 O 0.81831 0.33108 0.27784 0.0
C87 C 0.92796 0.33463 0.26226 0.0
O88 O 0.86952 0.3981 0.28605 0.0
Co89 Co 0.93932 0.37959 0.34543 0.0
O90 O 0.92105 0.42727 0.31579 0.0
C91 C 0.87932 0.34518 0.40142 0.0
C92 C 0.82546 0.2953 0.283 0.0
C93 C 0.89006 0.42791 0.29241 0.0
O94 O 0.85547 0.34739 0.36675 0.0
O95 O 0.91528 0.34628 0.39456 0.0
O96 O 0.89711 0.33328 0.23685 0.0
O97 O 0.92282 0.33761 0.30687 0.0
Co98 Co 0.6578 0.86161 0.30326 0.0
O99 O 0.70992 0.84476 0.30894 0.0
O100 O 0.66466 0.81281 0.27287 0.0
C101 C 0.67193 0.92099 0.28019 0.0
O102 O 0.6007 0.87074 0.28827 0.0
Co103 Co 0.62689 0.92547 0.36667 0.0
O104 O 0.5763 0.91206 0.34018 0.0
C105 C 0.65265 0.8555 0.4068 0.0
C106 C 0.70049 0.81535 0.28423 0.0
C107 C 0.57231 0.88992 0.30506 0.0
O108 O 0.64583 0.83866 0.36731 0.0
O109 O 0.65678 0.89131 0.409 0.0
O110 O 0.67153 0.8938 0.24935 0.0
O111 O 0.66687 0.91109 0.32337 0.0
Co112 Co 0.84821 0.6444 0.80686 0.0
O113 O 0.794 0.65649 0.80592 0.0
O114 O 0.8393 0.69138 0.77377 0.0
C115 C 0.83957 0.58181 0.78815 0.0
O116 O 0.90624 0.64259 0.7946 0.0
Co117 Co 0.88766 0.58611 0.87059 0.0
O118 O 0.93436 0.59518 0.83376 0.0
C119 C 0.85252 0.6542 0.91123 0.0
C120 C 0.80328 0.68644 0.78177 0.0
C121 C 0.93571 0.62223 0.80421 0.0
O122 O 0.85278 0.67071 0.8705 0.0
O123 O 0.86166 0.61954 0.917 0.0
O124 O 0.84063 0.60772 0.75542 0.0
O125 O 0.84386 0.59476 0.8301 0.0
Co126 Co 0.36821 0.85632 0.80313 0.0
O127 O 0.35557 0.80248 0.80625 0.0
O128 O 0.32094 0.84547 0.77045 0.0
C129 C 0.43059 0.84887 0.78429 0.0
O130 O 0.3702 0.9137 0.78801 0.0
Co131 Co 0.42666 0.89839 0.86555 0.0
O132 O 0.41373 0.94517 0.83088 0.0
C133 C 0.35856 0.86304 0.90705 0.0
C134 C 0.32526 0.81014 0.78162 0.0
C135 C 0.38839 0.94433 0.79889 0.0
O136 O 0.34183 0.86317 0.86643 0.0
O137 O 0.39353 0.87209 0.91242 0.0
O138 O 0.40458 0.84656 0.7517 0.0
O139 O 0.41832 0.85381 0.82659 0.0
Co140 Co 0.16723 0.37025 0.80258 0.0
O141 O 0.22128 0.35853 0.80162 0.0
O142 O 0.17625 0.32323 0.76928 0.0
C143 C 0.17558 0.43274 0.78376 0.0
O144 O 0.10917 0.37247 0.79119 0.0
Co145 Co 0.12929 0.42834 0.86826 0.0
O146 O 0.08243 0.42021 0.83142 0.0
C147 C 0.16341 0.35915 0.90711 0.0
C148 C 0.21217 0.32849 0.77772 0.0
C149 C 0.08027 0.39344 0.80154 0.0
O150 O 0.16285 0.34348 0.86592 0.0
O151 O 0.15481 0.39384 0.91393 0.0
O152 O 0.17443 0.40683 0.75108 0.0
O153 O 0.17187 0.41977 0.82584 0.0
Co154 Co 0.64706 0.1586 0.79925 0.0
O155 O 0.66162 0.21165 0.80473 0.0
O156 O 0.69569 0.16808 0.76898 0.0
C157 C 0.58553 0.16864 0.77757 0.0
O158 O 0.64305 0.10173 0.78316 0.0
Co159 Co 0.58483 0.11988 0.85966 0.0
O160 O 0.59963 0.07185 0.82814 0.0
C161 C 0.65255 0.15161 0.90263 0.0
C162 C 0.69205 0.20341 0.78062 0.0
C163 C 0.62483 0.07159 0.79581 0.0
O164 O 0.6708 0.14794 0.86332 0.0
O165 O 0.61621 0.15097 0.90426 0.0
O166 O 0.61262 0.17077 0.7463 0.0
O167 O 0.59652 0.16306 0.82018 0.0
Co168 Co 0.84703 0.36468 0.70388 0.0
O169 O 0.79435 0.34844 0.69829 0.0
O170 O 0.84021 0.31391 0.72879 0.0
C171 C 0.83554 0.42295 0.73391 0.0
O172 O 0.90414 0.37156 0.71882 0.0
Co173 Co 0.87865 0.43377 0.64791 0.0
O174 O 0.92786 0.42105 0.67843 0.0
C175 C 0.85169 0.36716 0.59973 0.0
C176 C 0.80415 0.31727 0.71935 0.0
C177 C 0.93189 0.39394 0.70775 0.0
O178 O 0.85775 0.34673 0.63681 0.0
O179 O 0.84789 0.40301 0.60243 0.0
O180 O 0.83481 0.39345 0.76139 0.0
O181 O 0.83939 0.41571 0.6898 0.0
Co182 Co 0.64245 0.83734 0.70539 0.0
O183 O 0.65752 0.78454 0.70223 0.0
O184 O 0.69623 0.83139 0.71777 0.0
C185 C 0.58891 0.82759 0.74811 0.0
O186 O 0.63953 0.89492 0.7151 0.0
Co187 Co 0.56605 0.86941 0.66736 0.0
O188 O 0.58099 0.91721 0.69977 0.0
C189 C 0.62414 0.83934 0.60332 0.0
C190 C 0.69211 0.79522 0.71176 0.0
C191 C 0.61475 0.92184 0.71534 0.0
O192 O 0.65042 0.84351 0.63482 0.0
O193 O 0.58874 0.83939 0.61406 0.0
O194 O 0.62169 0.82927 0.76952 0.0
O195 O 0.5901 0.82982 0.7031 0.0
Co196 Co 0.16833 0.65104 0.70137 0.0
O197 O 0.22189 0.66535 0.69807 0.0
O198 O 0.17682 0.7008 0.72855 0.0
C199 C 0.17715 0.59161 0.72926 0.0
O200 O 0.11053 0.64635 0.71539 0.0
Co201 Co 0.13326 0.58523 0.64295 0.0
O202 O 0.08521 0.59735 0.67579 0.0
C203 C 0.16215 0.65315 0.5955 0.0
C204 C 0.21286 0.69656 0.71959 0.0
C205 C 0.08219 0.62431 0.70536 0.0
O206 O 0.16106 0.67188 0.63475 0.0
O207 O 0.15641 0.61752 0.5931 0.0
O208 O 0.17827 0.62044 0.75776 0.0
O209 O 0.17393 0.59988 0.68523 0.0
Co210 Co 0.37158 0.17644 0.69871 0.0
O211 O 0.35843 0.22984 0.69626 0.0
O212 O 0.31836 0.18383 0.71415 0.0
C213 C 0.42647 0.18556 0.73899 0.0
O214 O 0.37319 0.11877 0.70939 0.0
Co215 Co 0.44602 0.14182 0.65846 0.0
O216 O 0.43087 0.09492 0.69281 0.0
C217 C 0.38796 0.17368 0.59653 0.0
C218 C 0.32463 0.21994 0.71036 0.0
C219 C 0.3974 0.09132 0.70979 0.0
O220 O 0.36179 0.1698 0.62834 0.0
O221 O 0.42323 0.17466 0.60769 0.0
O222 O 0.39428 0.18454 0.76177 0.0
O223 O 0.42408 0.18264 0.69411 0.0
C224 C 0.2408 0.19883 0.25689 0.0
C225 C 0.27909 0.21075 0.26472 0.0
C226 C 0.26187 0.27302 0.23304 0.0
C227 C 0.22257 0.26324 0.23332 0.0
N228 N 0.17487 0.21808 0.25916 0.0
N229 N 0.32164 0.26436 0.27327 0.0
C230 C 0.21197 0.22651 0.24919 0.0
C231 C 0.28839 0.24938 0.25666 0.0
N232 N 0.23176 0.16131 0.25425 0.0
N233 N 0.27454 0.30386 0.20857 0.0
H234 H 0.34027 0.24939 0.29493 0.0
H235 H 0.32793 0.29314 0.27084 0.0
H236 H 0.25696 0.31993 0.18679 0.0
H237 H 0.30342 0.31015 0.20494 0.0
H238 H 0.20469 0.15185 0.24478 0.0
H239 H 0.252 0.13987 0.25524 0.0
H240 H 0.16673 0.1925 0.2745 0.0
H241 H 0.15304 0.23796 0.25789 0.0
C242 C 0.78056 0.26917 0.22132 0.0
C243 C 0.7977 0.26577 0.26669 0.0
C244 C 0.76294 0.20594 0.27877 0.0
C245 C 0.74289 0.21176 0.23584 0.0
N246 N 0.72862 0.25158 0.16927 0.0
N247 N 0.80103 0.23315 0.34139 0.0
C248 C 0.75032 0.24435 0.20823 0.0
C249 C 0.78793 0.23461 0.29607 0.0
N250 N 0.79491 0.29438 0.1893 0.0
N251 N 0.75832 0.17282 0.30306 0.0
H252 H 0.81952 0.25316 0.35542 0.0
H253 H 0.79121 0.21386 0.36637 0.0
H254 H 0.73876 0.15206 0.29334 0.0
H255 H 0.77567 0.16474 0.33107 0.0
H256 H 0.78614 0.2955 0.15425 0.0
H257 H 0.81864 0.31129 0.19594 0.0
H258 H 0.72978 0.27702 0.15076 0.0
H259 H 0.70723 0.23336 0.15758 0.0
C260 C 0.74763 0.72493 0.23727 0.0
C261 C 0.78696 0.73489 0.23797 0.0
C262 C 0.76804 0.79952 0.2588 0.0
C263 C 0.72994 0.78748 0.26767 0.0
N264 N 0.68727 0.73394 0.2763 0.0
N265 N 0.8339 0.78096 0.26368 0.0
C266 C 0.72072 0.74878 0.26013 0.0
C267 C 0.7971 0.77197 0.25288 0.0
N268 N 0.7353 0.69388 0.21301 0.0
N269 N 0.77663 0.83697 0.2534 0.0
H270 H 0.8558 0.76115 0.26461 0.0
H271 H 0.84147 0.80712 0.27792 0.0
H272 H 0.75599 0.85807 0.2517 0.0
H273 H 0.80374 0.84625 0.24375 0.0
H274 H 0.70647 0.68744 0.20916 0.0
H275 H 0.75306 0.67784 0.19142 0.0
H276 H 0.68111 0.7051 0.27432 0.0
H277 H 0.66812 0.74914 0.29696 0.0
C278 C 0.24074 0.77145 0.2006 0.0
C279 C 0.26615 0.78775 0.23385 0.0
C280 C 0.23766 0.74898 0.29686 0.0
C281 C 0.21079 0.73451 0.26419 0.0
N282 N 0.18257 0.7358 0.18684 0.0
N283 N 0.28406 0.79767 0.31512 0.0
C284 C 0.21108 0.74695 0.21658 0.0
C285 C 0.2634 0.77797 0.28241 0.0
N286 N 0.24598 0.7781 0.15353 0.0
N287 N 0.23913 0.73443 0.34151 0.0
H288 H 0.30278 0.81946 0.30627 0.0
H289 H 0.28022 0.79482 0.35136 0.0
H290 H 0.21987 0.71424 0.35389 0.0
H291 H 0.26094 0.74036 0.36525 0.0
H292 H 0.23111 0.76399 0.12709 0.0
H293 H 0.26754 0.79556 0.14052 0.0
H294 H 0.17869 0.74694 0.1532 0.0
H295 H 0.16078 0.71751 0.1972 0.0
C296 C 0.7195 0.72784 0.71128 0.0
C297 C 0.72415 0.76729 0.72064 0.0
C298 C 0.7792 0.75278 0.77095 0.0
C299 C 0.7745 0.71354 0.76253 0.0
N300 N 0.74545 0.66415 0.71623 0.0
N301 N 0.77151 0.81514 0.7382 0.0
C302 C 0.74587 0.70108 0.73058 0.0
C303 C 0.75781 0.7793 0.74427 0.0
N304 N 0.69106 0.71594 0.68199 0.0
N305 N 0.80362 0.76499 0.80523 0.0
H306 H 0.76112 0.83332 0.71234 0.0
H307 H 0.79725 0.82427 0.75255 0.0
H308 H 0.81912 0.74653 0.82654 0.0
H309 H 0.80526 0.79323 0.81571 0.0
H310 H 0.68137 0.68812 0.68049 0.0
H311 H 0.67794 0.7339 0.65783 0.0
H312 H 0.72813 0.65371 0.68946 0.0
H313 H 0.7646 0.64406 0.72869 0.0
C314 C 0.27965 0.71438 0.74844 0.0
C315 C 0.24219 0.72542 0.73479 0.0
C316 C 0.25754 0.78994 0.7613 0.0
C317 C 0.29671 0.78041 0.76666 0.0
N318 N 0.34558 0.73365 0.75094 0.0
N319 N 0.20074 0.77804 0.71583 0.0
C320 C 0.30802 0.74266 0.75608 0.0
C321 C 0.23263 0.76448 0.73752 0.0
N322 N 0.28816 0.67728 0.75672 0.0
N323 N 0.24325 0.82229 0.78074 0.0
H324 H 0.18354 0.76147 0.69415 0.0
H325 H 0.19448 0.80686 0.71427 0.0
H326 H 0.25916 0.83991 0.80267 0.0
H327 H 0.21426 0.82865 0.78037 0.0
H328 H 0.3144 0.66874 0.77022 0.0
H329 H 0.26786 0.65579 0.75641 0.0
H330 H 0.35456 0.70705 0.73959 0.0
H331 H 0.36728 0.75372 0.75173 0.0
C332 C 0.25016 0.26884 0.78793 0.0
C333 C 0.24143 0.30129 0.76068 0.0
C334 C 0.28553 0.2797 0.69877 0.0
C335 C 0.2962 0.24842 0.72744 0.0
N336 N 0.29559 0.21919 0.80459 0.0
N337 N 0.25438 0.34096 0.69352 0.0
C338 C 0.28029 0.24451 0.77342 0.0
C339 C 0.26028 0.30775 0.71712 0.0
N340 N 0.22949 0.26105 0.82765 0.0
N341 N 0.29821 0.28188 0.6533 0.0
H342 H 0.23518 0.36147 0.70504 0.0
H343 H 0.27043 0.34948 0.66451 0.0
H344 H 0.3169 0.26228 0.63873 0.0
H345 H 0.28805 0.30136 0.62883 0.0
H346 H 0.23141 0.23552 0.84585 0.0
H347 H 0.20824 0.27891 0.84045 0.0
H348 H 0.28784 0.21788 0.84001 0.0
H349 H 0.31902 0.20227 0.79674 0.0
C350 C 0.70948 0.2706 0.75519 0.0
C351 C 0.7208 0.23286 0.76568 0.0
C352 C 0.78504 0.24904 0.73712 0.0
C353 C 0.77527 0.28806 0.73458 0.0
N354 N 0.72921 0.33589 0.75745 0.0
N355 N 0.77406 0.19063 0.77915 0.0
C356 C 0.73779 0.29893 0.74832 0.0
C357 C 0.75998 0.2233 0.76033 0.0
N358 N 0.67198 0.27956 0.74933 0.0
N359 N 0.81729 0.23585 0.71586 0.0
H360 H 0.75792 0.17266 0.80037 0.0
H361 H 0.80304 0.18421 0.77894 0.0
H362 H 0.83478 0.25276 0.69492 0.0
H363 H 0.82374 0.20709 0.714 0.0
H364 H 0.66314 0.30628 0.7382 0.0
H365 H 0.65033 0.25943 0.74908 0.0
H366 H 0.70284 0.34417 0.77087 0.0
H367 H 0.74954 0.35735 0.75814 0.0
C368 C 0.15046 0.31122 0.97054 0.0
C369 C 0.17516 0.33825 0.95015 0.0
C370 C 0.20008 0.35522 0.02815 0.0
C371 C 0.17117 0.3327 0.04875 0.0
N372 N 0.13058 0.27829 0.04182 0.0
N373 N 0.23338 0.37333 0.95625 0.0
C374 C 0.15072 0.30653 0.0204 0.0
C375 C 0.20381 0.35542 0.97815 0.0
N376 N 0.12488 0.29247 0.94285 0.0
N377 N 0.22165 0.3785 0.05574 0.0
H378 H 0.23585 0.37361 0.91952 0.0
H379 H 0.25671 0.38455 0.97407 0.0
H380 H 0.22031 0.37797 0.09244 0.0
H381 H 0.24 0.399 0.04231 0.0
H382 H 0.1029 0.2758 0.95614 0.0
H383 H 0.12526 0.29452 0.90617 0.0
H384 H 0.11686 0.25669 0.02353 0.0
H385 H 0.13081 0.27483 0.07842 0.0
C386 C 0.68773 0.17308 0.97609 0.0
C387 C 0.67084 0.1439 0.94875 0.0
C388 C 0.65553 0.10909 0.02011 0.0
C389 C 0.67578 0.13576 0.04803 0.0
N390 N 0.71621 0.1909 0.0513 0.0
N391 N 0.64976 0.07924 0.94411 0.0
C392 C 0.69352 0.16725 0.02569 0.0
C393 C 0.65922 0.11002 0.97075 0.0
N394 N 0.69714 0.20648 0.95498 0.0
N395 N 0.63026 0.08457 0.04043 0.0
H396 H 0.65181 0.07946 0.90742 0.0
H397 H 0.64376 0.05283 0.95876 0.0
H398 H 0.62308 0.08586 0.07602 0.0
H399 H 0.61267 0.0667 0.02089 0.0
H400 H 0.70591 0.23033 0.97363 0.0
H401 H 0.69446 0.21047 0.91864 0.0
H402 H 0.73246 0.21238 0.03618 0.0
H403 H 0.72072 0.18725 0.08737 0.0
C404 C 0.86573 0.69867 0.97789 0.0
C405 C 0.8403 0.6738 0.95496 0.0
C406 C 0.81451 0.65284 0.03104 0.0
C407 C 0.84402 0.67313 0.05385 0.0
N408 N 0.88632 0.7266 0.05203 0.0
N409 N 0.78106 0.64027 0.95744 0.0
C410 C 0.86545 0.70029 0.02806 0.0
C411 C 0.81098 0.65593 0.98115 0.0
N412 N 0.89195 0.71819 0.95199 0.0
N413 N 0.79213 0.62849 0.05614 0.0
H414 H 0.77892 0.64225 0.92076 0.0
H415 H 0.75727 0.62871 0.97399 0.0
H416 H 0.79335 0.62644 0.09275 0.0
H417 H 0.7732 0.60953 0.04065 0.0
H418 H 0.91441 0.73335 0.96673 0.0
H419 H 0.89152 0.71824 0.9152 0.0
H420 H 0.90081 0.74876 0.03576 0.0
H421 H 0.886 0.728 0.08884 0.0
C422 C 0.35771 0.82412 0.02755 0.0
C423 C 0.33361 0.85089 0.04971 0.0
C424 C 0.31119 0.87322 0.97251 0.0
C425 C 0.33902 0.85025 0.95077 0.0
N426 N 0.37646 0.79361 0.95421 0.0
N427 N 0.27682 0.88851 0.0445 0.0
C428 C 0.35764 0.82179 0.97742 0.0
C429 C 0.30639 0.87089 0.02229 0.0
N430 N 0.38268 0.8033 0.05372 0.0
N431 N 0.29162 0.89911 0.94635 0.0
H432 H 0.27305 0.88667 0.08098 0.0
H433 H 0.25447 0.90153 0.02668 0.0
H434 H 0.2938 0.9004 0.90971 0.0
H435 H 0.27431 0.91993 0.96101 0.0
H436 H 0.40426 0.78691 0.03902 0.0
H437 H 0.38269 0.8034 0.09044 0.0
H438 H 0.38854 0.77036 0.97106 0.0
H439 H 0.37654 0.79199 0.91741 0.0
C440 C 0.19914 0.65488 0.5214 0.0
C441 C 0.17015 0.67155 0.54933 0.0
C442 C 0.1403 0.69543 0.47743 0.0
C443 C 0.16221 0.66939 0.45058 0.0
N444 N 0.21596 0.62717 0.44589 0.0
N445 N 0.11556 0.71228 0.55465 0.0
C446 C 0.19355 0.65085 0.47188 0.0
C447 C 0.1421 0.69429 0.52759 0.0
N448 N 0.23107 0.6415 0.54312 0.0
N449 N 0.11717 0.72043 0.45454 0.0
H450 H 0.11725 0.71304 0.59134 0.0
H451 H 0.09147 0.7254 0.54091 0.0
H452 H 0.11597 0.72165 0.41775 0.0
H453 H 0.10232 0.74198 0.47151 0.0
H454 H 0.25469 0.63122 0.525 0.0
H455 H 0.23496 0.64424 0.5795 0.0
H456 H 0.2363 0.60931 0.4606 0.0
H457 H 0.21326 0.62433 0.40949 0.0
C458 C 0.34797 0.18963 0.52251 0.0
C459 C 0.37986 0.17188 0.5445 0.0
C460 C 0.40736 0.1609 0.46641 0.0
C461 C 0.37279 0.17087 0.44471 0.0
N462 N 0.3086 0.19335 0.45181 0.0
N463 N 0.43203 0.12762 0.53324 0.0
C464 C 0.3426 0.18521 0.47266 0.0
C465 C 0.40765 0.15411 0.51531 0.0
N466 N 0.32342 0.21107 0.5484 0.0
N467 N 0.43899 0.15454 0.43959 0.0
H468 H 0.42951 0.11689 0.56738 0.0
H469 H 0.45086 0.11233 0.51215 0.0
H470 H 0.43899 0.15878 0.40312 0.0
H471 H 0.4656 0.14895 0.45438 0.0
H472 H 0.30178 0.22718 0.53332 0.0
H473 H 0.32665 0.21521 0.58445 0.0
H474 H 0.28408 0.19995 0.4708 0.0
H475 H 0.30495 0.19176 0.41531 0.0
C476 C 0.88894 0.3766 0.47856 0.0
C477 C 0.86755 0.35018 0.45178 0.0
C478 C 0.83538 0.3303 0.52518 0.0
C479 C 0.86073 0.35343 0.55146 0.0
N480 N 0.91933 0.38893 0.55307 0.0
N481 N 0.82239 0.29878 0.45052 0.0
C482 C 0.89023 0.37306 0.52794 0.0
C483 C 0.84117 0.32602 0.47531 0.0
N484 N 0.90674 0.40634 0.45693 0.0
N485 N 0.80543 0.31341 0.5475 0.0
H486 H 0.8253 0.29606 0.41417 0.0
H487 H 0.80573 0.27791 0.46629 0.0
H488 H 0.80164 0.31519 0.58395 0.0
H489 H 0.78367 0.29937 0.52971 0.0
H490 H 0.92021 0.42793 0.47566 0.0
H491 H 0.90387 0.41189 0.42095 0.0
H492 H 0.94301 0.40127 0.53702 0.0
H493 H 0.92163 0.38587 0.58958 0.0
C494 C 0.66331 0.81816 0.53142 0.0
C495 C 0.63288 0.83935 0.55169 0.0
C496 C 0.60841 0.85175 0.47255 0.0
C497 C 0.64235 0.83803 0.45246 0.0
N498 N 0.70381 0.80945 0.46243 0.0
N499 N 0.5844 0.88712 0.53821 0.0
C500 C 0.67034 0.8213 0.48179 0.0
C501 C 0.60736 0.85897 0.52133 0.0
N502 N 0.68464 0.79451 0.55873 0.0
N503 N 0.57812 0.86037 0.44441 0.0
H504 H 0.58631 0.89742 0.57261 0.0
H505 H 0.56747 0.9038 0.51631 0.0
H506 H 0.57847 0.85517 0.40817 0.0
H507 H 0.55178 0.8686 0.45798 0.0
H508 H 0.70506 0.77627 0.54484 0.0
H509 H 0.67956 0.7906 0.5946 0.0
H510 H 0.72704 0.80072 0.48251 0.0
H511 H 0.70853 0.8101 0.42606 0.0
C512 C 0.1431 0.50013 0.30111 0.0
C513 C 0.13637 0.53311 0.27382 0.0
C514 C 0.13846 0.49421 0.20179 0.0
C515 C 0.13743 0.46081 0.22956 0.0
N516 N 0.14026 0.43175 0.30675 0.0
N517 N 0.12695 0.56161 0.19715 0.0
C518 C 0.14088 0.46364 0.27952 0.0
C519 C 0.13455 0.53029 0.22378 0.0
N520 N 0.15247 0.50388 0.34767 0.0
N521 N 0.14413 0.49136 0.15422 0.0
H522 H 0.1251 0.58878 0.21102 0.0
H523 H 0.12004 0.56038 0.16147 0.0
H524 H 0.14815 0.46542 0.13736 0.0
H525 H 0.14899 0.51458 0.13241 0.0
H526 H 0.16149 0.48151 0.36875 0.0
H527 H 0.1549 0.53022 0.36406 0.0
H528 H 0.13703 0.43218 0.34324 0.0
H529 H 0.14115 0.4045 0.29298 0.0
C530 C 0.5228 0.08056 0.21358 0.0
C531 C 0.54855 0.11213 0.21012 0.0
C532 C 0.50235 0.15034 0.25574 0.0
C533 C 0.47688 0.1193 0.25724 0.0
N534 N 0.45714 0.06049 0.22248 0.0
N535 N 0.55415 0.18041 0.21352 0.0
C536 C 0.48526 0.08639 0.23098 0.0
C537 C 0.53577 0.14809 0.227 0.0
N538 N 0.53404 0.04436 0.2037 0.0
N539 N 0.49506 0.18173 0.28225 0.0
H540 H 0.5761 0.18052 0.18876 0.0
H541 H 0.54431 0.20738 0.22195 0.0
H542 H 0.47033 0.18459 0.30238 0.0
H543 H 0.51471 0.20358 0.28659 0.0
H544 H 0.51686 0.02088 0.21009 0.0
H545 H 0.56137 0.03618 0.19467 0.0
H546 H 0.46043 0.03774 0.19945 0.0
H547 H 0.42915 0.06437 0.23385 0.0
C548 C 0.87128 0.53362 0.28009 0.0
C549 C 0.87438 0.53812 0.23031 0.0
C550 C 0.87735 0.46895 0.22062 0.0
C551 C 0.8783 0.46466 0.27054 0.0
N552 N 0.86506 0.49074 0.34702 0.0
N553 N 0.86722 0.51056 0.15342 0.0
C554 C 0.87179 0.49645 0.30002 0.0
C555 C 0.87331 0.5058 0.20069 0.0
N556 N 0.86909 0.56477 0.30847 0.0
N557 N 0.88195 0.43812 0.19211 0.0
H558 H 0.8631 0.53716 0.13828 0.0
H559 H 0.86243 0.4884 0.12999 0.0
H560 H 0.8819 0.41043 0.20458 0.0
H561 H 0.88726 0.43986 0.15607 0.0
H562 H 0.87238 0.56405 0.34491 0.0
H563 H 0.86488 0.59199 0.29555 0.0
H564 H 0.85678 0.51189 0.37036 0.0
H565 H 0.86454 0.46382 0.36214 0.0
C566 C 0.51784 0.85467 0.26285 0.0
C567 C 0.53366 0.88892 0.2812 0.0
C568 C 0.47312 0.92079 0.26235 0.0
C569 C 0.45998 0.88867 0.23711 0.0
N570 N 0.47322 0.82603 0.20778 0.0
N571 N 0.52703 0.95741 0.28745 0.0
C572 C 0.48325 0.85578 0.23586 0.0
C573 C 0.5115 0.92274 0.27786 0.0
N574 N 0.53448 0.82075 0.2731 0.0
N575 N 0.44852 0.94941 0.27311 0.0
H576 H 0.55508 0.96187 0.29739 0.0
H577 H 0.51303 0.98276 0.28046 0.0
H578 H 0.41968 0.9486 0.2647 0.0
H579 H 0.45587 0.97175 0.29523 0.0
H580 H 0.52223 0.79485 0.26427 0.0
H581 H 0.55808 0.81822 0.29511 0.0
H582 H 0.49109 0.80304 0.20164 0.0
H583 H 0.44856 0.82593 0.18734 0.0
C584 C 0.81152 0.5282 0.73857 0.0
C585 C 0.83295 0.54022 0.77858 0.0
C586 C 0.85516 0.47496 0.78999 0.0
C587 C 0.83323 0.46271 0.75104 0.0
N588 N 0.78173 0.47586 0.69722 0.0
N589 N 0.85658 0.51848 0.85474 0.0
C590 C 0.809 0.48886 0.72764 0.0
C591 C 0.84936 0.51186 0.80817 0.0
N592 N 0.79188 0.55391 0.7122 0.0
N593 N 0.88229 0.45205 0.80932 0.0
H594 H 0.84501 0.54115 0.87306 0.0
H595 H 0.86713 0.4977 0.87731 0.0
H596 H 0.88865 0.42521 0.79636 0.0
H597 H 0.90141 0.46161 0.83481 0.0
H598 H 0.78147 0.54805 0.67859 0.0
H599 H 0.78564 0.58104 0.72409 0.0
H600 H 0.76074 0.49296 0.6825 0.0
H601 H 0.77727 0.44718 0.69056 0.0
C602 C 0.52512 0.79867 0.76143 0.0
C603 C 0.55112 0.82841 0.77132 0.0
C604 C 0.4981 0.87184 0.78337 0.0
C605 C 0.47179 0.84203 0.77573 0.0
N606 N 0.46031 0.77508 0.76678 0.0
N607 N 0.5621 0.8892 0.80637 0.0
C608 C 0.4853 0.80473 0.7676 0.0
C609 C 0.53743 0.86359 0.7875 0.0
N610 N 0.53862 0.76494 0.74493 0.0
N611 N 0.4858 0.90838 0.78341 0.0
H612 H 0.59059 0.88251 0.81195 0.0
H613 H 0.55344 0.91463 0.82155 0.0
H614 H 0.45784 0.91515 0.77505 0.0
H615 H 0.50405 0.9316 0.78509 0.0
H616 H 0.52122 0.74368 0.73139 0.0
H617 H 0.56771 0.75897 0.74318 0.0
H618 H 0.4688 0.74687 0.76591 0.0
H619 H 0.43098 0.77859 0.77033 0.0
C620 C 0.20213 0.48632 0.73303 0.0
C621 C 0.18167 0.4743 0.77383 0.0
C622 C 0.15876 0.53924 0.78541 0.0
C623 C 0.17958 0.55157 0.74549 0.0
N624 N 0.23035 0.5388 0.69026 0.0
N625 N 0.15952 0.49607 0.85058 0.0
C626 C 0.20376 0.52562 0.72153 0.0
C627 C 0.16551 0.50255 0.80371 0.0
N628 N 0.22185 0.46069 0.70656 0.0
N629 N 0.1319 0.56194 0.80571 0.0
H630 H 0.17183 0.47361 0.86857 0.0
H631 H 0.14924 0.51681 0.87342 0.0
H632 H 0.12478 0.58859 0.79274 0.0
H633 H 0.11358 0.5523 0.83208 0.0
H634 H 0.23152 0.46637 0.67254 0.0
H635 H 0.22895 0.43381 0.71876 0.0
H636 H 0.25123 0.52186 0.67502 0.0
H637 H 0.23448 0.56747 0.68336 0.0
C638 C 0.47917 0.15099 0.77788 0.0
C639 C 0.46475 0.1856 0.76086 0.0
C640 C 0.53002 0.21092 0.75723 0.0
C641 C 0.54439 0.17422 0.76699 0.0
N642 N 0.53193 0.10765 0.77517 0.0
N643 N 0.47593 0.2488 0.7324 0.0
C644 C 0.51873 0.14383 0.77461 0.0
C645 C 0.4901 0.21578 0.75021 0.0
N646 N 0.45501 0.12476 0.79656 0.0
N647 N 0.55425 0.24116 0.75577 0.0
H648 H 0.44673 0.25402 0.72997 0.0
H649 H 0.49295 0.27019 0.7184 0.0
H650 H 0.58362 0.23846 0.75977 0.0
H651 H 0.54505 0.26911 0.75377 0.0
H652 H 0.46427 0.09987 0.81255 0.0
H653 H 0.42614 0.13029 0.80097 0.0
H654 H 0.51433 0.08393 0.77681 0.0
H655 H 0.56006 0.1017 0.76694 0.0
C656 C 0.64628 0.00379 0.79607 0.0
C657 C 0.63137 0.03493 0.77061 0.0
C658 C 0.61803 0.99254 0.7037 0.0
C659 C 0.6258 0.96057 0.73262 0.0
N660 N 0.64907 0.93591 0.80689 0.0
N661 N 0.60409 0.05966 0.69896 0.0
C662 C 0.64104 0.96621 0.7787 0.0
C663 C 0.61804 0.02959 0.72378 0.0
N664 N 0.66656 0.01044 0.83633 0.0
N665 N 0.61205 0.98749 0.65647 0.0
H666 H 0.60619 0.08749 0.71077 0.0
H667 H 0.58898 0.05691 0.66757 0.0
H668 H 0.61339 0.96097 0.64037 0.0
H669 H 0.60982 0.00967 0.63248 0.0
H670 H 0.68144 0.98962 0.8546 0.0
H671 H 0.67197 0.03775 0.84853 0.0
H672 H 0.65466 0.93821 0.84283 0.0
H673 H 0.6485 0.90805 0.79524 0.0
C674 C 0.98759 0.59294 0.75686 0.0
C675 C 0.97161 0.62619 0.77587 0.0
C676 C 0.02653 0.66155 0.74336 0.0
C677 C 0.04507 0.62674 0.73209 0.0
N678 N 0.0458 0.55913 0.74674 0.0
N679 N 0.97875 0.69284 0.79203 0.0
C680 C 0.02636 0.59243 0.74414 0.0
C681 C 0.99183 0.6609 0.77046 0.0
N682 N 0.96556 0.56177 0.74895 0.0
N683 N 0.04081 0.69494 0.72686 0.0
H684 H 0.95384 0.69323 0.81204 0.0
H685 H 0.99425 0.71798 0.79314 0.0
H686 H 0.06496 0.69648 0.70559 0.0
H687 H 0.02655 0.72061 0.73048 0.0
H688 H 0.97575 0.53902 0.72925 0.0
H689 H 0.93637 0.56102 0.75586 0.0
H690 H 0.03328 0.53512 0.76142 0.0
H691 H 0.07503 0.55681 0.74115 0.0
C692 C 0.39365 0.02021 0.70243 0.0
C693 C 0.38627 0.05326 0.72956 0.0
C694 C 0.36739 0.01234 0.79631 0.0
C695 C 0.38166 0.98024 0.77207 0.0
N696 N 0.40929 0.95337 0.70178 0.0
N697 N 0.36482 0.08061 0.80325 0.0
C698 C 0.39451 0.984 0.72478 0.0
C699 C 0.3721 0.04929 0.7765 0.0
N700 N 0.39864 0.02339 0.65477 0.0
N701 N 0.34864 0.00725 0.83811 0.0
H702 H 0.36536 0.10805 0.79011 0.0
H703 H 0.36 0.07965 0.83945 0.0
H704 H 0.34459 0.98056 0.85308 0.0
H705 H 0.33398 0.02866 0.85557 0.0
H706 H 0.40051 1.00023 0.6322 0.0
H707 H 0.39673 0.04922 0.6371 0.0
H708 H 0.42384 0.95528 0.66986 0.0
H709 H 0.40899 0.92615 0.71588 0.0
C710 C 0.02796 0.42399 0.7562 0.0
C711 C 0.04391 0.39029 0.77409 0.0
C712 C 0.98819 0.35597 0.74239 0.0
C713 C 0.96972 0.3911 0.7326 0.0
N714 N 0.96985 0.45849 0.7485 0.0
N715 N 0.03624 0.32353 0.78925 0.0
C716 C 0.98896 0.42507 0.74465 0.0
C717 C 0.02326 0.35589 0.76858 0.0
N718 N 0.05019 0.45501 0.74827 0.0
N719 N 0.9735 0.32296 0.72527 0.0
H720 H 0.06138 0.32258 0.80875 0.0
H721 H 0.02042 0.29858 0.79026 0.0
H722 H 0.94918 0.32194 0.70428 0.0
H723 H 0.98766 0.29716 0.72788 0.0
H724 H 0.03991 0.47807 0.72925 0.0
H725 H 0.0795 0.45535 0.75434 0.0
H726 H 0.9829 0.48227 0.76302 0.0
H727 H 0.9405 0.461 0.74416 0.0
C728 C 0.3069 0.02554 0.24076 0.0
C729 C 0.33756 0.03709 0.2702 0.0
C730 C 0.34645 0.97078 0.29385 0.0
C731 C 0.32357 0.9589 0.25564 0.0
N732 N 0.27759 0.97504 0.1957 0.0
N733 N 0.39135 0.01824 0.31734 0.0
C734 C 0.3025 0.98639 0.22988 0.0
C735 C 0.35824 0.00903 0.29538 0.0
N736 N 0.28056 0.05126 0.22568 0.0
N737 N 0.35788 0.94595 0.3279 0.0
H738 H 0.40544 0.04297 0.30866 0.0
H739 H 0.40759 0.99937 0.33701 0.0
H740 H 0.34844 0.91812 0.32978 0.0
H741 H 0.37247 0.95447 0.35808 0.0
H742 H 0.25578 0.04379 0.2078 0.0
H743 H 0.28097 0.07959 0.23561 0.0
H744 H 0.26569 0.9935 0.17116 0.0
H745 H 0.26943 0.94685 0.19143 0.0
C746 C 0.98928 0.36659 0.24444 0.0
C747 C 0.96738 0.33307 0.24335 0.0
C748 C 0.02598 0.29657 0.23032 0.0
C749 C 0.04784 0.32988 0.23808 0.0
N750 N 0.04988 0.3947 0.26375 0.0
N751 N 0.96471 0.26512 0.23896 0.0
C752 C 0.02934 0.36433 0.24859 0.0
C753 C 0.98568 0.29765 0.23709 0.0
N754 N 0.97177 0.40069 0.23949 0.0
N755 N 0.04369 0.26406 0.2163 0.0
H756 H 0.93507 0.26523 0.24163 0.0
H757 H 0.97675 0.23822 0.24012 0.0
H758 H 0.07325 0.2618 0.21365 0.0
H759 H 0.02906 0.24005 0.20508 0.0
H760 H 0.98646 0.42622 0.23648 0.0
H761 H 0.94287 0.40232 0.23199 0.0
H762 H 0.03745 0.41981 0.27534 0.0
H763 H 0.07896 0.39284 0.27004 0.0
C764 C 0.71208 0.97968 0.27348 0.0
C765 C 0.67647 0.96121 0.26752 0.0
C766 C 0.64509 0.02217 0.2603 0.0
C767 C 0.68068 0.04051 0.25887 0.0
N768 N 0.74911 0.03702 0.26084 0.0
N769 N 0.61157 0.96484 0.24097 0.0
C770 C 0.71464 0.01935 0.26466 0.0
C771 C 0.64366 0.9824 0.25675 0.0
N772 N 0.74319 0.95942 0.28747 0.0
N773 N 0.61268 0.04256 0.26705 0.0
H774 H 0.60999 0.93565 0.23611 0.0
H775 H 0.58837 0.97992 0.22788 0.0
H776 H 0.61334 0.0717 0.27278 0.0
H777 H 0.58645 0.02964 0.27343 0.0
H778 H 0.76896 0.97187 0.29696 0.0
H779 H 0.7425 0.93011 0.29195 0.0
H780 H 0.77492 0.02258 0.25957 0.0
H781 H 0.75159 0.06628 0.25678 0.0
C782 C 0.02487 0.69743 0.24865 0.0
C783 C 0.04193 0.66157 0.2565 0.0
C784 C 0.9789 0.6324 0.26128 0.0
C785 C 0.96176 0.66712 0.24853 0.0
N786 N 0.96841 0.73238 0.22516 0.0
N787 N 0.03547 0.59395 0.25617 0.0
C788 C 0.9848 0.6996 0.24065 0.0
C789 C 0.01898 0.62876 0.25885 0.0
N790 N 0.04676 0.7294 0.25 0.0
N791 N 0.95695 0.60303 0.27646 0.0
H792 H 0.0644 0.59096 0.24936 0.0
H793 H 0.02002 0.56882 0.25406 0.0
H794 H 0.92774 0.60587 0.28088 0.0
H795 H 0.96813 0.57789 0.28973 0.0
H796 H 0.03551 0.75664 0.24995 0.0
H797 H 0.0763 0.72865 0.25382 0.0
H798 H 0.98399 0.75566 0.2135 0.0
H799 H 0.939 0.73559 0.2218 0.0
loop_
_geom_bond_atom_site_label_1
_geom_bond_atom_site_label_2
_geom_bond_distance
_geom_bond_site_symmetry_2
_ccdc_geom_bond_type
Co0 O1 2.216 . S
Co0 O2 2.091 . S
Co0 O4 2.004 . S
Co0 O10 2.021 . S
Co0 O12 2.137 . S
Co0 O13 2.244 . S
O1 Co0 2.216 . S
O1 C8 1.247 . S
O2 Co0 2.091 . S
O2 C8 1.261 . S
C3 O12 1.247 . S
C3 O13 1.272 . S
O4 Co0 2.004 . S
O4 C9 1.259 . S
Co5 O6 2.061 . S
Co5 O11 2.052 . S
Co5 O13 2.135 . S
O6 Co5 2.061 . S
O6 C9 1.235 . S
C7 O10 1.238 . S
C7 O11 1.241 . S
C8 O1 1.247 . S
C8 O2 1.261 . S
C9 O4 1.259 . S
C9 O6 1.235 . S
O10 Co0 2.021 . S
O10 C7 1.238 . S
O11 Co5 2.052 . S
O11 C7 1.241 . S
O12 Co0 2.137 . S
O12 C3 1.247 . S
O13 Co0 2.244 . S
O13 C3 1.272 . S
O13 Co5 2.135 . S
Co14 O15 2.216 . S
Co14 O16 2.091 . S
Co14 O18 2.004 . S
Co14 O24 2.021 . S
Co14 O26 2.137 . S
Co14 O27 2.244 . S
O15 Co14 2.216 . S
O15 C22 1.247 . S
O16 Co14 2.091 . S
O16 C22 1.261 . S
C17 O26 1.247 . S
C17 O27 1.272 . S
O18 Co14 2.004 . S
O18 C23 1.259 . S
Co19 O20 2.061 . S
Co19 O25 2.052 . S
Co19 O27 2.135 . S
O20 Co19 2.061 . S
O20 C23 1.235 . S
C21 O24 1.238 . S
C21 O25 1.241 . S
C22 O15 1.247 . S
C22 O16 1.261 . S
C23 O18 1.259 . S
C23 O20 1.235 . S
O24 Co14 2.021 . S
O24 C21 1.238 . S
O25 Co19 2.052 . S
O25 C21 1.241 . S
O26 Co14 2.137 . S
O26 C17 1.247 . S
O27 Co14 2.244 . S
O27 C17 1.272 . S
O27 Co19 2.135 . S
Co28 O29 2.216 . S
Co28 O30 2.091 . S
Co28 O32 2.004 . S
Co28 O38 2.021 . S
Co28 O40 2.137 . S
Co28 O41 2.244 . S
O29 Co28 2.216 . S
O29 C36 1.247 . S
O30 Co28 2.091 . S
O30 C36 1.261 . S
C31 O40 1.247 . S
C31 O41 1.272 . S
O32 Co28 2.004 . S
O32 C37 1.259 . S
Co33 O34 2.061 . S
Co33 O39 2.052 . S
Co33 O41 2.135 . S
O34 Co33 2.061 . S
O34 C37 1.235 . S
C35 O38 1.238 . S
C35 O39 1.241 . S
C36 O29 1.247 . S
C36 O30 1.261 . S
C37 O32 1.259 . S
C37 O34 1.235 . S
O38 Co28 2.021 . S
O38 C35 1.238 . S
O39 Co33 2.052 . S
O39 C35 1.241 . S
O40 Co28 2.137 . S
O40 C31 1.247 . S
O41 Co28 2.244 . S
O41 C31 1.272 . S
O41 Co33 2.135 . S
Co42 O43 2.216 . S
Co42 O44 2.091 . S
Co42 O46 2.004 . S
Co42 O52 2.021 . S
Co42 O54 2.137 . S
Co42 O55 2.244 . S
O43 Co42 2.216 . S
O43 C50 1.247 . S
O44 Co42 2.091 . S
O44 C50 1.261 . S
C45 O54 1.247 . S
C45 O55 1.272 . S
O46 Co42 2.004 . S
O46 C51 1.259 . S
Co47 O48 2.061 . S
Co47 O53 2.052 . S
Co47 O55 2.135 . S
O48 Co47 2.061 . S
O48 C51 1.235 . S
C49 O52 1.238 . S
C49 O53 1.241 . S
C50 O43 1.247 . S
C50 O44 1.261 . S
C51 O46 1.259 . S
C51 O48 1.235 . S
O52 Co42 2.021 . S
O52 C49 1.238 . S
O53 Co47 2.052 . S
O53 C49 1.241 . S
O54 Co42 2.137 . S
O54 C45 1.247 . S
O55 Co42 2.244 . S
O55 C45 1.272 . S
O55 Co47 2.135 . S
Co56 O57 2.216 . S
Co56 O58 2.091 . S
Co56 O60 2.004 . S
Co56 O66 2.021 . S
Co56 O68 2.137 . S
Co56 O69 2.244 . S
O57 Co56 2.216 . S
O57 C64 1.247 . S
O58 Co56 2.091 . S
O58 C64 1.261 . S
C59 O68 1.247 . S
C59 O69 1.272 . S
O60 Co56 2.004 . S
O60 C65 1.259 . S
Co61 O62 2.061 . S
Co61 O67 2.052 . S
Co61 O69 2.135 . S
O62 Co61 2.061 . S
O62 C65 1.235 . S
C63 O66 1.238 . S
C63 O67 1.241 . S
C64 O57 1.247 . S
C64 O58 1.261 . S
C65 O60 1.259 . S
C65 O62 1.235 . S
O66 Co56 2.021 . S
O66 C63 1.238 . S
O67 Co61 2.052 . S
O67 C63 1.241 . S
O68 Co56 2.137 . S
O68 C59 1.247 . S
O69 Co56 2.244 . S
O69 C59 1.272 . S
O69 Co61 2.135 . S
Co70 O71 2.216 . S
Co70 O72 2.091 . S
Co70 O74 2.004 . S
Co70 O80 2.021 . S
Co70 O82 2.137 . S
Co70 O83 2.244 . S
O71 Co70 2.216 . S
O71 C78 1.247 . S
O72 Co70 2.091 . S
O72 C78 1.261 . S
C73 O82 1.247 . S
C73 O83 1.272 . S
O74 Co70 2.004 . S
O74 C79 1.259 . S
Co75 O76 2.061 . S
Co75 O81 2.052 . S
Co75 O83 2.135 . S
O76 Co75 2.061 . S
O76 C79 1.235 . S
C77 O80 1.238 . S
C77 O81 1.241 . S
C78 O71 1.247 . S
C78 O72 1.261 . S
C79 O74 1.259 . S
C79 O76 1.235 . S
O80 Co70 2.021 . S
O80 C77 1.238 . S
O81 Co75 2.052 . S
O81 C77 1.241 . S
O82 Co70 2.137 . S
O82 C73 1.247 . S
O83 Co70 2.244 . S
O83 C73 1.272 . S
O83 Co75 2.135 . S
Co84 O85 2.216 . S
Co84 O86 2.091 . S
Co84 O88 2.004 . S
Co84 O94 2.021 . S
Co84 O96 2.137 . S
Co84 O97 2.244 . S
O85 Co84 2.216 . S
O85 C92 1.247 . S
O86 Co84 2.091 . S
O86 C92 1.261 . S
C87 O96 1.247 . S
C87 O97 1.272 . S
O88 Co84 2.004 . S
O88 C93 1.259 . S
Co89 O90 2.061 . S
Co89 O95 2.052 . S
Co89 O97 2.135 . S
O90 Co89 2.061 . S
O90 C93 1.235 . S
C91 O94 1.238 . S
C91 O95 1.241 . S
C92 O85 1.247 . S
C92 O86 1.261 . S
C93 O88 1.259 . S
C93 O90 1.235 . S
O94 Co84 2.021 . S
O94 C91 1.238 . S
O95 Co89 2.052 . S
O95 C91 1.241 . S
O96 Co84 2.137 . S
O96 C87 1.247 . S
O97 Co84 2.244 . S
O97 C87 1.272 . S
O97 Co89 2.135 . S
Co98 O99 2.216 . S
Co98 O100 2.091 . S
Co98 O102 2.004 . S
Co98 O108 2.021 . S
Co98 O110 2.137 . S
Co98 O111 2.244 . S
O99 Co98 2.216 . S
O99 C106 1.247 . S
O100 Co98 2.091 . S
O100 C106 1.261 . S
C101 O110 1.247 . S
C101 O111 1.272 . S
O102 Co98 2.004 . S
O102 C107 1.259 . S
Co103 O104 2.061 . S
Co103 O109 2.052 . S
Co103 O111 2.135 . S
O104 Co103 2.061 . S
O104 C107 1.235 . S
C105 O108 1.238 . S
C105 O109 1.241 . S
C106 O99 1.247 . S
C106 O100 1.261 . S
C107 O102 1.259 . S
C107 O104 1.235 . S
O108 Co98 2.021 . S
O108 C105 1.238 . S
O109 Co103 2.052 . S
O109 C105 1.241 . S
O110 Co98 2.137 . S
O110 C101 1.247 . S
O111 Co98 2.244 . S
O111 C101 1.272 . S
O111 Co103 2.135 . S
Co112 O113 2.216 . S
Co112 O114 2.091 . S
Co112 O116 2.004 . S
Co112 O122 2.021 . S
Co112 O124 2.137 . S
Co112 O125 2.244 . S
O113 Co112 2.216 . S
O113 C120 1.247 . S
O114 Co112 2.091 . S
O114 C120 1.261 . S
C115 O124 1.247 . S
C115 O125 1.272 . S
O116 Co112 2.004 . S
O116 C121 1.259 . S
Co117 O118 2.061 . S
Co117 O123 2.052 . S
Co117 O125 2.135 . S
O118 Co117 2.061 . S
O118 C121 1.235 . S
C119 O122 1.238 . S
C119 O123 1.241 . S
C120 O113 1.247 . S
C120 O114 1.261 . S
C121 O116 1.259 . S
C121 O118 1.235 . S
O122 Co112 2.021 . S
O122 C119 1.238 . S
O123 Co117 2.052 . S
O123 C119 1.241 . S
O124 Co112 2.137 . S
O124 C115 1.247 . S
O125 Co112 2.244 . S
O125 C115 1.272 . S
O125 Co117 2.135 . S
Co126 O127 2.216 . S
Co126 O128 2.091 . S
Co126 O130 2.004 . S
Co126 O136 2.021 . S
Co126 O138 2.137 . S
Co126 O139 2.244 . S
O127 Co126 2.216 . S
O127 C134 1.247 . S
O128 Co126 2.091 . S
O128 C134 1.261 . S
C129 O138 1.247 . S
C129 O139 1.272 . S
O130 Co126 2.004 . S
O130 C135 1.259 . S
Co131 O132 2.061 . S
Co131 O137 2.052 . S
Co131 O139 2.135 . S
O132 Co131 2.061 . S
O132 C135 1.235 . S
C133 O136 1.238 . S
C133 O137 1.241 . S
C134 O127 1.247 . S
C134 O128 1.261 . S
C135 O130 1.259 . S
C135 O132 1.235 . S
O136 Co126 2.021 . S
O136 C133 1.238 . S
O137 Co131 2.052 . S
O137 C133 1.241 . S
O138 Co126 2.137 . S
O138 C129 1.247 . S
O139 Co126 2.244 . S
O139 C129 1.272 . S
O139 Co131 2.135 . S
Co140 O141 2.216 . S
Co140 O142 2.091 . S
Co140 O144 2.004 . S
Co140 O150 2.021 . S
Co140 O152 2.137 . S
Co140 O153 2.244 . S
O141 Co140 2.216 . S
O141 C148 1.247 . S
O142 Co140 2.091 . S
O142 C148 1.261 . S
C143 O152 1.247 . S
C143 O153 1.272 . S
O144 Co140 2.004 . S
O144 C149 1.259 . S
Co145 O146 2.061 . S
Co145 O151 2.052 . S
Co145 O153 2.135 . S
O146 Co145 2.061 . S
O146 C149 1.235 . S
C147 O150 1.238 . S
C147 O151 1.241 . S
C148 O141 1.247 . S
C148 O142 1.261 . S
C149 O144 1.259 . S
C149 O146 1.235 . S
O150 Co140 2.021 . S
O150 C147 1.238 . S
O151 Co145 2.052 . S
O151 C147 1.241 . S
O152 Co140 2.137 . S
O152 C143 1.247 . S
O153 Co140 2.244 . S
O153 C143 1.272 . S
O153 Co145 2.135 . S
Co154 O155 2.216 . S
Co154 O156 2.091 . S
Co154 O158 2.004 . S
Co154 O164 2.021 . S
Co154 O166 2.137 . S
Co154 O167 2.244 . S
O155 Co154 2.216 . S
O155 C162 1.247 . S
O156 Co154 2.091 . S
O156 C162 1.261 . S
C157 O166 1.247 . S
C157 O167 1.272 . S
O158 Co154 2.004 . S
O158 C163 1.259 . S
Co159 O160 2.061 . S
Co159 O165 2.052 . S
Co159 O167 2.135 . S
O160 Co159 2.061 . S
O160 C163 1.235 . S
C161 O164 1.238 . S
C161 O165 1.241 . S
C162 O155 1.247 . S
C162 O156 1.261 . S
C163 O158 1.259 . S
C163 O160 1.235 . S
O164 Co154 2.021 . S
O164 C161 1.238 . S
O165 Co159 2.052 . S
O165 C161 1.241 . S
O166 Co154 2.137 . S
O166 C157 1.247 . S
O167 Co154 2.244 . S
O167 C157 1.272 . S
O167 Co159 2.135 . S
Co168 O169 2.216 . S
Co168 O170 2.091 . S
Co168 O172 2.004 . S
Co168 O178 2.021 . S
Co168 O180 2.137 . S
Co168 O181 2.244 . S
O169 Co168 2.216 . S
O169 C176 1.247 . S
O170 Co168 2.091 . S
O170 C176 1.261 . S
C171 O180 1.247 . S
C171 O181 1.272 . S
O172 Co168 2.004 . S
O172 C177 1.259 . S
Co173 O174 2.061 . S
Co173 O179 2.052 . S
Co173 O181 2.135 . S
O174 Co173 2.061 . S
O174 C177 1.235 . S
C175 O178 1.238 . S
C175 O179 1.241 . S
C176 O169 1.247 . S
C176 O170 1.261 . S
C177 O172 1.259 . S
C177 O174 1.235 . S
O178 Co168 2.021 . S
O178 C175 1.238 . S
O179 Co173 2.052 . S
O179 C175 1.241 . S
O180 Co168 2.137 . S
O180 C171 1.247 . S
O181 Co168 2.244 . S
O181 C171 1.272 . S
O181 Co173 2.135 . S
Co182 O183 2.216 . S
Co182 O184 2.091 . S
Co182 O186 2.004 . S
Co182 O192 2.021 . S
Co182 O194 2.137 . S
Co182 O195 2.244 . S
O183 Co182 2.216 . S
O183 C190 1.247 . S
O184 Co182 2.091 . S
O184 C190 1.261 . S
C185 O194 1.247 . S
C185 O195 1.272 . S
O186 Co182 2.004 . S
O186 C191 1.259 . S
Co187 O188 2.061 . S
Co187 O193 2.052 . S
Co187 O195 2.135 . S
O188 Co187 2.061 . S
O188 C191 1.235 . S
C189 O192 1.238 . S
C189 O193 1.241 . S
C190 O183 1.247 . S
C190 O184 1.261 . S
C191 O186 1.259 . S
C191 O188 1.235 . S
O192 Co182 2.021 . S
O192 C189 1.238 . S
O193 Co187 2.052 . S
O193 C189 1.241 . S
O194 Co182 2.137 . S
O194 C185 1.247 . S
O195 Co182 2.244 . S
O195 C185 1.272 . S
O195 Co187 2.135 . S
Co196 O197 2.216 . S
Co196 O198 2.091 . S
Co196 O200 2.004 . S
Co196 O206 2.021 . S
Co196 O208 2.137 . S
Co196 O209 2.244 . S
O197 Co196 2.216 . S
O197 C204 1.247 . S
O198 Co196 2.091 . S
O198 C204 1.261 . S
C199 O208 1.247 . S
C199 O209 1.272 . S
O200 Co196 2.004 . S
O200 C205 1.259 . S
Co201 O202 2.061 . S
Co201 O207 2.052 . S
Co201 O209 2.135 . S
O202 Co201 2.061 . S
O202 C205 1.235 . S
C203 O206 1.238 . S
C203 O207 1.241 . S
C204 O197 1.247 . S
C204 O198 1.261 . S
C205 O200 1.259 . S
C205 O202 1.235 . S
O206 Co196 2.021 . S
O206 C203 1.238 . S
O207 Co201 2.052 . S
O207 C203 1.241 . S
O208 Co196 2.137 . S
O208 C199 1.247 . S
O209 Co196 2.244 . S
O209 C199 1.272 . S
O209 Co201 2.135 . S
Co210 O211 2.216 . S
Co210 O212 2.091 . S
Co210 O214 2.004 . S
Co210 O220 2.021 . S
Co210 O222 2.137 . S
Co210 O223 2.244 . S
O211 Co210 2.216 . S
O211 C218 1.247 . S
O212 Co210 2.091 . S
O212 C218 1.261 . S
C213 O222 1.247 . S
C213 O223 1.272 . S
O214 Co210 2.004 . S
O214 C219 1.259 . S
Co215 O216 2.061 . S
Co215 O221 2.052 . S
Co215 O223 2.135 . S
O216 Co215 2.061 . S
O216 C219 1.235 . S
C217 O220 1.238 . S
C217 O221 1.241 . S
C218 O211 1.247 . S
C218 O212 1.261 . S
C219 O214 1.259 . S
C219 O216 1.235 . S
O220 Co210 2.021 . S
O220 C217 1.238 . S
O221 Co215 2.052 . S
O221 C217 1.241 . S
O222 Co210 2.137 . S
O222 C213 1.247 . S
O223 Co210 2.244 . S
O223 C213 1.272 . S
O223 Co215 2.135 . S
C224 C225 1.363 . S
C224 C230 1.379 . S
C224 N232 1.356 . S
C225 C224 1.363 . S
C225 C231 1.363 . S
C226 C227 1.363 . S
C226 C231 1.379 . S
C226 N233 1.356 . S
C227 C226 1.363 . S
C227 C230 1.363 . S
N228 C230 1.356 . S
N228 H240 0.984 . S
N228 H241 0.985 . S
N229 C231 1.356 . S
N229 H234 0.984 . S
N229 H235 0.985 . S
C230 C224 1.379 . S
C230 C227 1.363 . S
C230 N228 1.356 . S
C231 C225 1.363 . S
C231 C226 1.379 . S
C231 N229 1.356 . S
N232 C224 1.356 . S
N232 H238 0.984 . S
N232 H239 0.984 . S
N233 C226 1.356 . S
N233 H236 0.984 . S
N233 H237 0.985 . S
H234 N229 0.984 . S
H235 N229 0.985 . S
H236 N233 0.984 . S
H237 N233 0.985 . S
H238 N232 0.984 . S
H239 N232 0.984 . S
H240 N228 0.984 . S
H241 N228 0.985 . S
C242 C243 1.363 . S
C242 C248 1.379 . S
C242 N250 1.356 . S
C243 C242 1.363 . S
C243 C249 1.363 . S
C244 C245 1.363 . S
C244 C249 1.379 . S
C244 N251 1.356 . S
C245 C244 1.363 . S
C245 C248 1.363 . S
N246 C248 1.356 . S
N246 H258 0.984 . S
N246 H259 0.985 . S
N247 C249 1.356 . S
N247 H252 0.984 . S
N247 H253 0.985 . S
C248 C242 1.379 . S
C248 C245 1.363 . S
C248 N246 1.356 . S
C249 C243 1.363 . S
C249 C244 1.379 . S
C249 N247 1.356 . S
N250 C242 1.356 . S
N250 H256 0.984 . S
N250 H257 0.984 . S
N251 C244 1.356 . S
N251 H254 0.984 . S
N251 H255 0.985 . S
H252 N247 0.984 . S
H253 N247 0.985 . S
H254 N251 0.984 . S
H255 N251 0.985 . S
H256 N250 0.984 . S
H257 N250 0.984 . S
H258 N246 0.984 . S
H259 N246 0.985 . S
C260 C261 1.363 . S
C260 C266 1.379 . S
C260 N268 1.356 . S
C261 C260 1.363 . S
C261 C267 1.363 . S
C262 C263 1.363 . S
C262 C267 1.379 . S
C262 N269 1.356 . S
C263 C262 1.363 . S
C263 C266 1.363 . S
N264 C266 1.356 . S
N264 H276 0.984 . S
N264 H277 0.985 . S
N265 C267 1.356 . S
N265 H270 0.984 . S
N265 H271 0.985 . S
C266 C260 1.379 . S
C266 C263 1.363 . S
C266 N264 1.356 . S
C267 C261 1.363 . S
C267 C262 1.379 . S
C267 N265 1.356 . S
N268 C260 1.356 . S
N268 H274 0.984 . S
N268 H275 0.984 . S
N269 C262 1.356 . S
N269 H272 0.984 . S
N269 H273 0.985 . S
H270 N265 0.984 . S
H271 N265 0.985 . S
H272 N269 0.984 . S
H273 N269 0.985 . S
H274 N268 0.984 . S
H275 N268 0.984 . S
H276 N264 0.984 . S
H277 N264 0.985 . S
C278 C279 1.363 . S
C278 C284 1.379 . S
C278 N286 1.356 . S
C279 C278 1.363 . S
C279 C285 1.363 . S
C280 C281 1.363 . S
C280 C285 1.379 . S
C280 N287 1.356 . S
C281 C280 1.363 . S
C281 C284 1.363 . S
N282 C284 1.356 . S
N282 H294 0.984 . S
N282 H295 0.985 . S
N283 C285 1.356 . S
N283 H288 0.984 . S
N283 H289 0.985 . S
C284 C278 1.379 . S
C284 C281 1.363 . S
C284 N282 1.356 . S
C285 C279 1.363 . S
C285 C280 1.379 . S
C285 N283 1.356 . S
N286 C278 1.356 . S
N286 H292 0.984 . S
N286 H293 0.984 . S
N287 C280 1.356 . S
N287 H290 0.984 . S
N287 H291 0.985 . S
H288 N283 0.984 . S
H289 N283 0.985 . S
H290 N287 0.984 . S
H291 N287 0.985 . S
H292 N286 0.984 . S
H293 N286 0.984 . S
H294 N282 0.984 . S
H295 N282 0.985 . S
C296 C297 1.363 . S
C296 C302 1.379 . S
C296 N304 1.356 . S
C297 C296 1.363 . S
C297 C303 1.363 . S
C298 C299 1.363 . S
C298 C303 1.379 . S
C298 N305 1.356 . S
C299 C298 1.363 . S
C299 C302 1.363 . S
N300 C302 1.356 . S
N300 H312 0.984 . S
N300 H313 0.985 . S
N301 C303 1.356 . S
N301 H306 0.984 . S
N301 H307 0.985 . S
C302 C296 1.379 . S
C302 C299 1.363 . S
C302 N300 1.356 . S
C303 C297 1.363 . S
C303 C298 1.379 . S
C303 N301 1.356 . S
N304 C296 1.356 . S
N304 H310 0.984 . S
N304 H311 0.984 . S
N305 C298 1.356 . S
N305 H308 0.984 . S
N305 H309 0.985 . S
H306 N301 0.984 . S
H307 N301 0.985 . S
H308 N305 0.984 . S
H309 N305 0.985 . S
H310 N304 0.984 . S
H311 N304 0.984 . S
H312 N300 0.984 . S
H313 N300 0.985 . S
C314 C315 1.363 . S
C314 C320 1.379 . S
C314 N322 1.356 . S
C315 C314 1.363 . S
C315 C321 1.363 . S
C316 C317 1.363 . S
C316 C321 1.379 . S
C316 N323 1.356 . S
C317 C316 1.363 . S
C317 C320 1.363 . S
N318 C320 1.356 . S
N318 H330 0.984 . S
N318 H331 0.985 . S
N319 C321 1.356 . S
N319 H324 0.984 . S
N319 H325 0.985 . S
C320 C314 1.379 . S
C320 C317 1.363 . S
C320 N318 1.356 . S
C321 C315 1.363 . S
C321 C316 1.379 . S
C321 N319 1.356 . S
N322 C314 1.356 . S
N322 H328 0.984 . S
N322 H329 0.984 . S
N323 C316 1.356 . S
N323 H326 0.984 . S
N323 H327 0.985 . S
H324 N319 0.984 . S
H325 N319 0.985 . S
H326 N323 0.984 . S
H327 N323 0.985 . S
H328 N322 0.984 . S
H329 N322 0.984 . S
H330 N318 0.984 . S
H331 N318 0.985 . S
C332 C333 1.363 . S
C332 C338 1.379 . S
C332 N340 1.356 . S
C333 C332 1.363 . S
C333 C339 1.363 . S
C334 C335 1.363 . S
C334 C339 1.379 . S
C334 N341 1.356 . S
C335 C334 1.363 . S
C335 C338 1.363 . S
N336 C338 1.356 . S
N336 H348 0.984 . S
N336 H349 0.985 . S
N337 C339 1.356 . S
N337 H342 0.984 . S
N337 H343 0.985 . S
C338 C332 1.379 . S
C338 C335 1.363 . S
C338 N336 1.356 . S
C339 C333 1.363 . S
C339 C334 1.379 . S
C339 N337 1.356 . S
N340 C332 1.356 . S
N340 H346 0.984 . S
N340 H347 0.984 . S
N341 C334 1.356 . S
N341 H344 0.984 . S
N341 H345 0.985 . S
H342 N337 0.984 . S
H343 N337 0.985 . S
H344 N341 0.984 . S
H345 N341 0.985 . S
H346 N340 0.984 . S
H347 N340 0.984 . S
H348 N336 0.984 . S
H349 N336 0.985 . S
C350 C351 1.363 . S
C350 C356 1.379 . S
C350 N358 1.356 . S
C351 C350 1.363 . S
C351 C357 1.363 . S
C352 C353 1.363 . S
C352 C357 1.379 . S
C352 N359 1.356 . S
C353 C352 1.363 . S
C353 C356 1.363 . S
N354 C356 1.356 . S
N354 H366 0.984 . S
N354 H367 0.985 . S
N355 C357 1.356 . S
N355 H360 0.984 . S
N355 H361 0.985 . S
C356 C350 1.379 . S
C356 C353 1.363 . S
C356 N354 1.356 . S
C357 C351 1.363 . S
C357 C352 1.379 . S
C357 N355 1.356 . S
N358 C350 1.356 . S
N358 H364 0.984 . S
N358 H365 0.984 . S
N359 C352 1.356 . S
N359 H362 0.984 . S
N359 H363 0.985 . S
H360 N355 0.984 . S
H361 N355 0.985 . S
H362 N359 0.984 . S
H363 N359 0.985 . S
H364 N358 0.984 . S
H365 N358 0.984 . S
H366 N354 0.984 . S
H367 N354 0.985 . S
C368 C369 1.363 . S
C368 C374 1.379 1_556 S
C368 N376 1.356 . S
C369 C368 1.363 . S
C369 C375 1.363 . S
C370 C371 1.363 . S
C370 C375 1.379 1_554 S
C370 N377 1.356 . S
C371 C370 1.363 . S
C371 C374 1.363 . S
N372 C374 1.356 . S
N372 H384 0.984 . S
N372 H385 0.985 . S
N373 C375 1.356 . S
N373 H378 0.984 . S
N373 H379 0.985 . S
C374 C368 1.379 1_554 S
C374 C371 1.363 . S
C374 N372 1.356 . S
C375 C369 1.363 . S
C375 C370 1.379 1_556 S
C375 N373 1.356 . S
N376 C368 1.356 . S
N376 H382 0.984 . S
N376 H383 0.984 . S
N377 C370 1.356 . S
N377 H380 0.984 . S
N377 H381 0.985 . S
H378 N373 0.984 . S
H379 N373 0.985 . S
H380 N377 0.984 . S
H381 N377 0.985 . S
H382 N376 0.984 . S
H383 N376 0.984 . S
H384 N372 0.984 . S
H385 N372 0.985 . S
C386 C387 1.363 . S
C386 C392 1.379 1_556 S
C386 N394 1.356 . S
C387 C386 1.363 . S
C387 C393 1.363 . S
C388 C389 1.363 . S
C388 C393 1.379 1_554 S
C388 N395 1.356 . S
C389 C388 1.363 . S
C389 C392 1.363 . S
N390 C392 1.356 . S
N390 H402 0.984 . S
N390 H403 0.985 . S
N391 C393 1.356 . S
N391 H396 0.984 . S
N391 H397 0.985 . S
C392 C386 1.379 1_554 S
C392 C389 1.363 . S
C392 N390 1.356 . S
C393 C387 1.363 . S
C393 C388 1.379 1_556 S
C393 N391 1.356 . S
N394 C386 1.356 . S
N394 H400 0.984 . S
N394 H401 0.984 . S
N395 C388 1.356 . S
N395 H398 0.984 . S
N395 H399 0.985 . S
H396 N391 0.984 . S
H397 N391 0.985 . S
H398 N395 0.984 . S
H399 N395 0.985 . S
H400 N394 0.984 . S
H401 N394 0.984 . S
H402 N390 0.984 . S
H403 N390 0.985 . S
C404 C405 1.363 . S
C404 C410 1.379 1_556 S
C404 N412 1.356 . S
C405 C404 1.363 . S
C405 C411 1.363 . S
C406 C407 1.363 . S
C406 C411 1.379 1_554 S
C406 N413 1.356 . S
C407 C406 1.363 . S
C407 C410 1.363 . S
N408 C410 1.356 . S
N408 H420 0.984 . S
N408 H421 0.985 . S
N409 C411 1.356 . S
N409 H414 0.984 . S
N409 H415 0.985 . S
C410 C404 1.379 1_554 S
C410 C407 1.363 . S
C410 N408 1.356 . S
C411 C405 1.363 . S
C411 C406 1.379 1_556 S
C411 N409 1.356 . S
N412 C404 1.356 . S
N412 H418 0.984 . S
N412 H419 0.984 . S
N413 C406 1.356 . S
N413 H416 0.984 . S
N413 H417 0.985 . S
H414 N409 0.984 . S
H415 N409 0.985 . S
H416 N413 0.984 . S
H417 N413 0.985 . S
H418 N412 0.984 . S
H419 N412 0.984 . S
H420 N408 0.984 . S
H421 N408 0.985 . S
C422 C423 1.363 . S
C422 C428 1.379 1_554 S
C422 N430 1.356 . S
C423 C422 1.363 . S
C423 C429 1.363 . S
C424 C425 1.363 . S
C424 C429 1.379 1_556 S
C424 N431 1.356 . S
C425 C424 1.363 . S
C425 C428 1.363 . S
N426 C428 1.356 . S
N426 H438 0.984 . S
N426 H439 0.985 . S
N427 C429 1.356 . S
N427 H432 0.984 . S
N427 H433 0.985 . S
C428 C422 1.379 1_556 S
C428 C425 1.363 . S
C428 N426 1.356 . S
C429 C423 1.363 . S
C429 C424 1.379 1_554 S
C429 N427 1.356 . S
N430 C422 1.356 . S
N430 H436 0.984 . S
N430 H437 0.984 . S
N431 C424 1.356 . S
N431 H434 0.984 . S
N431 H435 0.985 . S
H432 N427 0.984 . S
H433 N427 0.985 . S
H434 N431 0.984 . S
H435 N431 0.985 . S
H436 N430 0.984 . S
H437 N430 0.984 . S
H438 N426 0.984 . S
H439 N426 0.985 . S
C440 C441 1.363 . S
C440 C446 1.379 . S
C440 N448 1.356 . S
C441 C440 1.363 . S
C441 C447 1.363 . S
C442 C443 1.363 . S
C442 C447 1.379 . S
C442 N449 1.356 . S
C443 C442 1.363 . S
C443 C446 1.363 . S
N444 C446 1.356 . S
N444 H456 0.984 . S
N444 H457 0.985 . S
N445 C447 1.356 . S
N445 H450 0.984 . S
N445 H451 0.985 . S
C446 C440 1.379 . S
C446 C443 1.363 . S
C446 N444 1.356 . S
C447 C441 1.363 . S
C447 C442 1.379 . S
C447 N445 1.356 . S
N448 C440 1.356 . S
N448 H454 0.984 . S
N448 H455 0.984 . S
N449 C442 1.356 . S
N449 H452 0.984 . S
N449 H453 0.985 . S
H450 N445 0.984 . S
H451 N445 0.985 . S
H452 N449 0.984 . S
H453 N449 0.985 . S
H454 N448 0.984 . S
H455 N448 0.984 . S
H456 N444 0.984 . S
H457 N444 0.985 . S
C458 C459 1.363 . S
C458 C464 1.379 . S
C458 N466 1.356 . S
C459 C458 1.363 . S
C459 C465 1.363 . S
C460 C461 1.363 . S
C460 C465 1.379 . S
C460 N467 1.356 . S
C461 C460 1.363 . S
C461 C464 1.363 . S
N462 C464 1.356 . S
N462 H474 0.984 . S
N462 H475 0.985 . S
N463 C465 1.356 . S
N463 H468 0.984 . S
N463 H469 0.985 . S
C464 C458 1.379 . S
C464 C461 1.363 . S
C464 N462 1.356 . S
C465 C459 1.363 . S
C465 C460 1.379 . S
C465 N463 1.356 . S
N466 C458 1.356 . S
N466 H472 0.984 . S
N466 H473 0.984 . S
N467 C460 1.356 . S
N467 H470 0.984 . S
N467 H471 0.985 . S
H468 N463 0.984 . S
H469 N463 0.985 . S
H470 N467 0.984 . S
H471 N467 0.985 . S
H472 N466 0.984 . S
H473 N466 0.984 . S
H474 N462 0.984 . S
H475 N462 0.985 . S
C476 C477 1.363 . S
C476 C482 1.379 . S
C476 N484 1.356 . S
C477 C476 1.363 . S
C477 C483 1.363 . S
C478 C479 1.363 . S
C478 C483 1.379 . S
C478 N485 1.356 . S
C479 C478 1.363 . S
C479 C482 1.363 . S
N480 C482 1.356 . S
N480 H492 0.984 . S
N480 H493 0.985 . S
N481 C483 1.356 . S
N481 H486 0.984 . S
N481 H487 0.985 . S
C482 C476 1.379 . S
C482 C479 1.363 . S
C482 N480 1.356 . S
C483 C477 1.363 . S
C483 C478 1.379 . S
C483 N481 1.356 . S
N484 C476 1.356 . S
N484 H490 0.984 . S
N484 H491 0.984 . S
N485 C478 1.356 . S
N485 H488 0.984 . S
N485 H489 0.985 . S
H486 N481 0.984 . S
H487 N481 0.985 . S
H488 N485 0.984 . S
H489 N485 0.985 . S
H490 N484 0.984 . S
H491 N484 0.984 . S
H492 N480 0.984 . S
H493 N480 0.985 . S
C494 C495 1.363 . S
C494 C500 1.379 . S
C494 N502 1.356 . S
C495 C494 1.363 . S
C495 C501 1.363 . S
C496 C497 1.363 . S
C496 C501 1.379 . S
C496 N503 1.356 . S
C497 C496 1.363 . S
C497 C500 1.363 . S
N498 C500 1.356 . S
N498 H510 0.984 . S
N498 H511 0.985 . S
N499 C501 1.356 . S
N499 H504 0.984 . S
N499 H505 0.985 . S
C500 C494 1.379 . S
C500 C497 1.363 . S
C500 N498 1.356 . S
C501 C495 1.363 . S
C501 C496 1.379 . S
C501 N499 1.356 . S
N502 C494 1.356 . S
N502 H508 0.984 . S
N502 H509 0.984 . S
N503 C496 1.356 . S
N503 H506 0.984 . S
N503 H507 0.985 . S
H504 N499 0.984 . S
H505 N499 0.985 . S
H506 N503 0.984 . S
H507 N503 0.985 . S
H508 N502 0.984 . S
H509 N502 0.984 . S
H510 N498 0.984 . S
H511 N498 0.985 . S
C512 C513 1.363 . S
C512 C518 1.379 . S
C512 N520 1.356 . S
C513 C512 1.363 . S
C513 C519 1.363 . S
C514 C515 1.363 . S
C514 C519 1.379 . S
C514 N521 1.356 . S
C515 C514 1.363 . S
C515 C518 1.363 . S
N516 C518 1.356 . S
N516 H528 0.984 . S
N516 H529 0.985 . S
N517 C519 1.356 . S
N517 H522 0.984 . S
N517 H523 0.985 . S
C518 C512 1.379 . S
C518 C515 1.363 . S
C518 N516 1.356 . S
C519 C513 1.363 . S
C519 C514 1.379 . S
C519 N517 1.356 . S
N520 C512 1.356 . S
N520 H526 0.984 . S
N520 H527 0.984 . S
N521 C514 1.356 . S
N521 H524 0.984 . S
N521 H525 0.985 . S
H522 N517 0.984 . S
H523 N517 0.985 . S
H524 N521 0.984 . S
H525 N521 0.985 . S
H526 N520 0.984 . S
H527 N520 0.984 . S
H528 N516 0.984 . S
H529 N516 0.985 . S
C530 C531 1.363 . S
C530 C536 1.379 . S
C530 N538 1.356 . S
C531 C530 1.363 . S
C531 C537 1.363 . S
C532 C533 1.363 . S
C532 C537 1.379 . S
C532 N539 1.356 . S
C533 C532 1.363 . S
C533 C536 1.363 . S
N534 C536 1.356 . S
N534 H546 0.984 . S
N534 H547 0.985 . S
N535 C537 1.356 . S
N535 H540 0.984 . S
N535 H541 0.985 . S
C536 C530 1.379 . S
C536 C533 1.363 . S
C536 N534 1.356 . S
C537 C531 1.363 . S
C537 C532 1.379 . S
C537 N535 1.356 . S
N538 C530 1.356 . S
N538 H544 0.984 . S
N538 H545 0.984 . S
N539 C532 1.356 . S
N539 H542 0.984 . S
N539 H543 0.985 . S
H540 N535 0.984 . S
H541 N535 0.985 . S
H542 N539 0.984 . S
H543 N539 0.985 . S
H544 N538 0.984 . S
H545 N538 0.984 . S
H546 N534 0.984 . S
H547 N534 0.985 . S
C548 C549 1.363 . S
C548 C554 1.379 . S
C548 N556 1.356 . S
C549 C548 1.363 . S
C549 C555 1.363 . S
C550 C551 1.363 . S
C550 C555 1.379 . S
C550 N557 1.356 . S
C551 C550 1.363 . S
C551 C554 1.363 . S
N552 C554 1.356 . S
N552 H564 0.984 . S
N552 H565 0.985 . S
N553 C555 1.356 . S
N553 H558 0.984 . S
N553 H559 0.985 . S
C554 C548 1.379 . S
C554 C551 1.363 . S
C554 N552 1.356 . S
C555 C549 1.363 . S
C555 C550 1.379 . S
C555 N553 1.356 . S
N556 C548 1.356 . S
N556 H562 0.984 . S
N556 H563 0.984 . S
N557 C550 1.356 . S
N557 H560 0.984 . S
N557 H561 0.985 . S
H558 N553 0.984 . S
H559 N553 0.985 . S
H560 N557 0.984 . S
H561 N557 0.985 . S
H562 N556 0.984 . S
H563 N556 0.984 . S
H564 N552 0.984 . S
H565 N552 0.985 . S
C566 C567 1.363 . S
C566 C572 1.379 . S
C566 N574 1.356 . S
C567 C566 1.363 . S
C567 C573 1.363 . S
C568 C569 1.363 . S
C568 C573 1.379 . S
C568 N575 1.356 . S
C569 C568 1.363 . S
C569 C572 1.363 . S
N570 C572 1.356 . S
N570 H582 0.984 . S
N570 H583 0.985 . S
N571 C573 1.356 . S
N571 H576 0.984 . S
N571 H577 0.985 . S
C572 C566 1.379 . S
C572 C569 1.363 . S
C572 N570 1.356 . S
C573 C567 1.363 . S
C573 C568 1.379 . S
C573 N571 1.356 . S
N574 C566 1.356 . S
N574 H580 0.984 . S
N574 H581 0.984 . S
N575 C568 1.356 . S
N575 H578 0.984 . S
N575 H579 0.985 . S
H576 N571 0.984 . S
H577 N571 0.985 . S
H578 N575 0.984 . S
H579 N575 0.985 . S
H580 N574 0.984 . S
H581 N574 0.984 . S
H582 N570 0.984 . S
H583 N570 0.985 . S
C584 C585 1.363 . S
C584 C590 1.379 . S
C584 N592 1.356 . S
C585 C584 1.363 . S
C585 C591 1.363 . S
C586 C587 1.363 . S
C586 C591 1.379 . S
C586 N593 1.356 . S
C587 C586 1.363 . S
C587 C590 1.363 . S
N588 C590 1.356 . S
N588 H600 0.984 . S
N588 H601 0.985 . S
N589 C591 1.356 . S
N589 H594 0.984 . S
N589 H595 0.985 . S
C590 C584 1.379 . S
C590 C587 1.363 . S
C590 N588 1.356 . S
C591 C585 1.363 . S
C591 C586 1.379 . S
C591 N589 1.356 . S
N592 C584 1.356 . S
N592 H598 0.984 . S
N592 H599 0.984 . S
N593 C586 1.356 . S
N593 H596 0.984 . S
N593 H597 0.985 . S
H594 N589 0.984 . S
H595 N589 0.985 . S
H596 N593 0.984 . S
H597 N593 0.985 . S
H598 N592 0.984 . S
H599 N592 0.984 . S
H600 N588 0.984 . S
H601 N588 0.985 . S
C602 C603 1.363 . S
C602 C608 1.379 . S
C602 N610 1.356 . S
C603 C602 1.363 . S
C603 C609 1.363 . S
C604 C605 1.363 . S
C604 C609 1.379 . S
C604 N611 1.356 . S
C605 C604 1.363 . S
C605 C608 1.363 . S
N606 C608 1.356 . S
N606 H618 0.984 . S
N606 H619 0.985 . S
N607 C609 1.356 . S
N607 H612 0.984 . S
N607 H613 0.985 . S
C608 C602 1.379 . S
C608 C605 1.363 . S
C608 N606 1.356 . S
C609 C603 1.363 . S
C609 C604 1.379 . S
C609 N607 1.356 . S
N610 C602 1.356 . S
N610 H616 0.984 . S
N610 H617 0.984 . S
N611 C604 1.356 . S
N611 H614 0.984 . S
N611 H615 0.985 . S
H612 N607 0.984 . S
H613 N607 0.985 . S
H614 N611 0.984 . S
H615 N611 0.985 . S
H616 N610 0.984 . S
H617 N610 0.984 . S
H618 N606 0.984 . S
H619 N606 0.985 . S
C620 C621 1.363 . S
C620 C626 1.379 . S
C620 N628 1.356 . S
C621 C620 1.363 . S
C621 C627 1.363 . S
C622 C623 1.363 . S
C622 C627 1.379 . S
C622 N629 1.356 . S
C623 C622 1.363 . S
C623 C626 1.363 . S
N624 C626 1.356 . S
N624 H636 0.984 . S
N624 H637 0.985 . S
N625 C627 1.356 . S
N625 H630 0.984 . S
N625 H631 0.985 . S
C626 C620 1.379 . S
C626 C623 1.363 . S
C626 N624 1.356 . S
C627 C621 1.363 . S
C627 C622 1.379 . S
C627 N625 1.356 . S
N628 C620 1.356 . S
N628 H634 0.984 . S
N628 H635 0.984 . S
N629 C622 1.356 . S
N629 H632 0.984 . S
N629 H633 0.985 . S
H630 N625 0.984 . S
H631 N625 0.985 . S
H632 N629 0.984 . S
H633 N629 0.985 . S
H634 N628 0.984 . S
H635 N628 0.984 . S
H636 N624 0.984 . S
H637 N624 0.985 . S
C638 C639 1.363 . S
C638 C644 1.379 . S
C638 N646 1.356 . S
C639 C638 1.363 . S
C639 C645 1.363 . S
C640 C641 1.363 . S
C640 C645 1.379 . S
C640 N647 1.356 . S
C641 C640 1.363 . S
C641 C644 1.363 . S
N642 C644 1.356 . S
N642 H654 0.984 . S
N642 H655 0.985 . S
N643 C645 1.356 . S
N643 H648 0.984 . S
N643 H649 0.985 . S
C644 C638 1.379 . S
C644 C641 1.363 . S
C644 N642 1.356 . S
C645 C639 1.363 . S
C645 C640 1.379 . S
C645 N643 1.356 . S
N646 C638 1.356 . S
N646 H652 0.984 . S
N646 H653 0.984 . S
N647 C640 1.356 . S
N647 H650 0.984 . S
N647 H651 0.985 . S
H648 N643 0.984 . S
H649 N643 0.985 . S
H650 N647 0.984 . S
H651 N647 0.985 . S
H652 N646 0.984 . S
H653 N646 0.984 . S
H654 N642 0.984 . S
H655 N642 0.985 . S
C656 C657 1.363 . S
C656 C662 1.379 1_545 S
C656 N664 1.356 . S
C657 C656 1.363 . S
C657 C663 1.363 . S
C658 C659 1.363 . S
C658 C663 1.379 1_565 S
C658 N665 1.356 . S
C659 C658 1.363 . S
C659 C662 1.363 . S
N660 C662 1.356 . S
N660 H672 0.984 . S
N660 H673 0.985 . S
N661 C663 1.356 . S
N661 H666 0.984 . S
N661 H667 0.985 . S
C662 C656 1.379 1_565 S
C662 C659 1.363 . S
C662 N660 1.356 . S
C663 C657 1.363 . S
C663 C658 1.379 1_545 S
C663 N661 1.356 . S
N664 C656 1.356 . S
N664 H670 0.984 . S
N664 H671 0.984 . S
N665 C658 1.356 . S
N665 H668 0.984 . S
N665 H669 0.985 . S
H666 N661 0.984 . S
H667 N661 0.985 . S
H668 N665 0.984 . S
H669 N665 0.985 . S
H670 N664 0.984 . S
H671 N664 0.984 . S
H672 N660 0.984 . S
H673 N660 0.985 . S
C674 C675 1.363 . S
C674 C680 1.379 1_655 S
C674 N682 1.356 . S
C675 C674 1.363 . S
C675 C681 1.363 . S
C676 C677 1.363 . S
C676 C681 1.379 1_455 S
C676 N683 1.356 . S
C677 C676 1.363 . S
C677 C680 1.363 . S
N678 C680 1.356 . S
N678 H690 0.984 . S
N678 H691 0.985 . S
N679 C681 1.356 . S
N679 H684 0.984 . S
N679 H685 0.985 . S
C680 C674 1.379 1_455 S
C680 C677 1.363 . S
C680 N678 1.356 . S
C681 C675 1.363 . S
C681 C676 1.379 1_655 S
C681 N679 1.356 . S
N682 C674 1.356 . S
N682 H688 0.984 . S
N682 H689 0.984 . S
N683 C676 1.356 . S
N683 H686 0.984 . S
N683 H687 0.985 . S
H684 N679 0.984 . S
H685 N679 0.985 . S
H686 N683 0.984 . S
H687 N683 0.985 . S
H688 N682 0.984 . S
H689 N682 0.984 . S
H690 N678 0.984 . S
H691 N678 0.985 . S
C692 C693 1.363 . S
C692 C698 1.379 1_545 S
C692 N700 1.356 . S
C693 C692 1.363 . S
C693 C699 1.363 . S
C694 C695 1.363 . S
C694 C699 1.379 1_565 S
C694 N701 1.356 . S
C695 C694 1.363 . S
C695 C698 1.363 . S
N696 C698 1.356 . S
N696 H708 0.984 . S
N696 H709 0.985 . S
N697 C699 1.356 . S
N697 H702 0.984 . S
N697 H703 0.985 . S
C698 C692 1.379 1_565 S
C698 C695 1.363 . S
C698 N696 1.356 . S
C699 C693 1.363 . S
C699 C694 1.379 1_545 S
C699 N697 1.356 . S
N700 C692 1.356 . S
N700 H706 0.984 . S
N700 H707 0.984 . S
N701 C694 1.356 . S
N701 H704 0.984 . S
N701 H705 0.985 . S
H702 N697 0.984 . S
H703 N697 0.985 . S
H704 N701 0.984 . S
H705 N701 0.985 . S
H706 N700 0.984 . S
H707 N700 0.984 . S
H708 N696 0.984 . S
H709 N696 0.985 . S
C710 C711 1.363 . S
C710 C716 1.379 1_455 S
C710 N718 1.356 . S
C711 C710 1.363 . S
C711 C717 1.363 . S
C712 C713 1.363 . S
C712 C717 1.379 1_655 S
C712 N719 1.356 . S
C713 C712 1.363 . S
C713 C716 1.363 . S
N714 C716 1.356 . S
N714 H726 0.984 . S
N714 H727 0.985 . S
N715 C717 1.356 . S
N715 H720 0.984 . S
N715 H721 0.985 . S
C716 C710 1.379 1_655 S
C716 C713 1.363 . S
C716 N714 1.356 . S
C717 C711 1.363 . S
C717 C712 1.379 1_455 S
C717 N715 1.356 . S
N718 C710 1.356 . S
N718 H724 0.984 . S
N718 H725 0.984 . S
N719 C712 1.356 . S
N719 H722 0.984 . S
N719 H723 0.985 . S
H720 N715 0.984 . S
H721 N715 0.985 . S
H722 N719 0.984 . S
H723 N719 0.985 . S
H724 N718 0.984 . S
H725 N718 0.984 . S
H726 N714 0.984 . S
H727 N714 0.985 . S
C728 C729 1.363 . S
C728 C734 1.379 1_545 S
C728 N736 1.356 . S
C729 C728 1.363 . S
C729 C735 1.363 . S
C730 C731 1.363 . S
C730 C735 1.379 1_565 S
C730 N737 1.356 . S
C731 C730 1.363 . S
C731 C734 1.363 . S
N732 C734 1.356 . S
N732 H744 0.984 . S
N732 H745 0.985 . S
N733 C735 1.356 . S
N733 H738 0.984 . S
N733 H739 0.985 . S
C734 C728 1.379 1_565 S
C734 C731 1.363 . S
C734 N732 1.356 . S
C735 C729 1.363 . S
C735 C730 1.379 1_545 S
C735 N733 1.356 . S
N736 C728 1.356 . S
N736 H742 0.984 . S
N736 H743 0.984 . S
N737 C730 1.356 . S
N737 H740 0.984 . S
N737 H741 0.985 . S
H738 N733 0.984 . S
H739 N733 0.985 . S
H740 N737 0.984 . S
H741 N737 0.985 . S
H742 N736 0.984 . S
H743 N736 0.984 . S
H744 N732 0.984 . S
H745 N732 0.985 . S
C746 C747 1.363 . S
C746 C752 1.379 1_655 S
C746 N754 1.356 . S
C747 C746 1.363 . S
C747 C753 1.363 . S
C748 C749 1.363 . S
C748 C753 1.379 1_455 S
C748 N755 1.356 . S
C749 C748 1.363 . S
C749 C752 1.363 . S
N750 C752 1.356 . S
N750 H762 0.984 . S
N750 H763 0.985 . S
N751 C753 1.356 . S
N751 H756 0.984 . S
N751 H757 0.985 . S
C752 C746 1.379 1_455 S
C752 C749 1.363 . S
C752 N750 1.356 . S
C753 C747 1.363 . S
C753 C748 1.379 1_655 S
C753 N751 1.356 . S
N754 C746 1.356 . S
N754 H760 0.984 . S
N754 H761 0.984 . S
N755 C748 1.356 . S
N755 H758 0.984 . S
N755 H759 0.985 . S
H756 N751 0.984 . S
H757 N751 0.985 . S
H758 N755 0.984 . S
H759 N755 0.985 . S
H760 N754 0.984 . S
H761 N754 0.984 . S
H762 N750 0.984 . S
H763 N750 0.985 . S
C764 C765 1.363 . S
C764 C770 1.379 1_565 S
C764 N772 1.356 . S
C765 C764 1.363 . S
C765 C771 1.363 . S
C766 C767 1.363 . S
C766 C771 1.379 1_545 S
C766 N773 1.356 . S
C767 C766 1.363 . S
C767 C770 1.363 . S
N768 C770 1.356 . S
N768 H780 0.984 . S
N768 H781 0.985 . S
N769 C771 1.356 . S
N769 H774 0.984 . S
N769 H775 0.985 . S
C770 C764 1.379 1_545 S
C770 C767 1.363 . S
C770 N768 1.356 . S
C771 C765 1.363 . S
C771 C766 1.379 1_565 S
C771 N769 1.356 . S
N772 C764 1.356 . S
N772 H778 0.984 . S
N772 H779 0.984 . S
N773 C766 1.356 . S
N773 H776 0.984 . S
N773 H777 0.985 . S
H774 N769 0.984 . S
H775 N769 0.985 . S
H776 N773 0.984 . S
H777 N773 0.985 . S
H778 N772 0.984 . S
H779 N772 0.984 . S
H780 N768 0.984 . S
H781 N768 0.985 . S
C782 C783 1.363 . S
C782 C788 1.379 1_455 S
C782 N790 1.356 . S
C783 C782 1.363 . S
C783 C789 1.363 . S
C784 C785 1.363 . S
C784 C789 1.379 1_655 S
C784 N791 1.356 . S
C785 C784 1.363 . S
C785 C788 1.363 . S
N786 C788 1.356 . S
N786 H798 0.984 . S
N786 H799 0.985 . S
N787 C789 1.356 . S
N787 H792 0.984 . S
N787 H793 0.985 . S
C788 C782 1.379 1_655 S
C788 C785 1.363 . S
C788 N786 1.356 . S
C789 C783 1.363 . S
C789 C784 1.379 1_455 S
C789 N787 1.356 . S
N790 C782 1.356 . S
N790 H796 0.984 . S
N790 H797 0.984 . S
N791 C784 1.356 . S
N791 H794 0.984 . S
N791 H795 0.985 . S
H792 N787 0.984 . S
H793 N787 0.985 . S
H794 N791 0.984 . S
H795 N791 0.985 . S
H796 N790 0.984 . S
H797 N790 0.984 . S
H798 N786 0.984 . S
H799 N786 0.985 . S
C225 C78 1.462 . S
C227 C8 1.462 . S
C243 C92 1.462 . S
C245 C22 1.462 . S
C261 C36 1.462 . S
C263 C106 1.462 . S
C279 C50 1.462 . S
C281 C64 1.462 . S
C297 C190 1.462 . S
C299 C120 1.462 . S
C315 C204 1.462 . S
C317 C134 1.462 . S
C333 C148 1.462 . S
C335 C218 1.462 . S
C351 C162 1.462 . S
C353 C176 1.462 . S
C369 C147 1.488 . S
C371 C7 1.488 . S
C387 C161 1.488 . S
C389 C21 1.488 . S
C405 C119 1.488 . S
C407 C35 1.488 . S
C423 C49 1.488 . S
C425 C133 1.488 . S
C441 C203 1.488 . S
C443 C63 1.488 . S
C459 C217 1.488 . S
C461 C77 1.488 . S
C477 C91 1.488 . S
C479 C175 1.488 . S
C495 C189 1.488 . S
C497 C105 1.488 . S
C513 C65 1.774 . S
C515 C9 1.774 . S
C531 C23 1.774 . S
C533 C79 1.774 . S
C549 C37 1.774 . S
C551 C93 1.774 . S
C567 C107 1.774 . S
C569 C51 1.774 . S
C585 C115 1.147 . S
C587 C171 1.147 . S
C603 C185 1.147 . S
C605 C129 1.147 . S
C621 C143 1.147 . S
C623 C199 1.147 . S
C639 C213 1.147 . S
C641 C157 1.147 . S
C657 C163 1.774 . S
C659 C191 1.774 . S
C675 C121 1.774 . S
C677 C205 1.774 . S
C693 C219 1.774 . S
C695 C135 1.774 . S
C711 C149 1.774 . S
C713 C177 1.774 . S
C729 C73 1.147 . S
C731 C45 1.147 . S
C747 C87 1.147 . S
C749 C3 1.147 . S
C765 C101 1.147 . S
C767 C17 1.147 . S
C783 C59 1.147 . S
C785 C31 1.147 . S
