# Generated by pormake.
# Topology unb, (4)-cn, num edge types: 1
# Building blocks:
#     Node 0, Type 0, BuildingBlock: CEKHIL_clean_sbu_0, # of connection points: 4
#     Node 1, Type 0, BuildingBlock: CEKHIL_clean_sbu_0, # of connection points: 4
#     Node 2, Type 0, BuildingBlock: CEKHIL_clean_sbu_0, # of connection points: 4
#     Node 3, Type 0, BuildingBlock: CEKHIL_clean_sbu_0, # of connection points: 4
#     Node 4, Type 0, BuildingBlock: CEKHIL_clean_sbu_0, # of connection points: 4
#     Node 5, Type 0, BuildingBlock: CEKHIL_clean_sbu_0, # of connection points: 4
#     Node 6, Type 0, BuildingBlock: CEKHIL_clean_sbu_0, # of connection points: 4
#     Node 7, Type 0, BuildingBlock: CEKHIL_clean_sbu_0, # of connection points: 4
#     Node 8, Type 0, BuildingBlock: CEKHIL_clean_sbu_0, # of connection points: 4
#     Node 9, Type 0, BuildingBlock: CEKHIL_clean_sbu_0, # of connection points: 4
#     Node 10, Type 0, BuildingBlock: CEKHIL_clean_sbu_0, # of connection points: 4
#     Node 11, Type 0, BuildingBlock: CEKHIL_clean_sbu_0, # of connection points: 4
#     Node 12, Type 0, BuildingBlock: CEKHIL_clean_sbu_0, # of connection points: 4
#     Node 13, Type 0, BuildingBlock: CEKHIL_clean_sbu_0, # of connection points: 4
#     Node 14, Type 0, BuildingBlock: CEKHIL_clean_sbu_0, # of connection points: 4
#     Node 15, Type 0, BuildingBlock: CEKHIL_clean_sbu_0, # of connection points: 4
#     Node 16, Type 0, BuildingBlock: CEKHIL_clean_sbu_0, # of connection points: 4
#     Node 17, Type 0, BuildingBlock: CEKHIL_clean_sbu_0, # of connection points: 4
#     Edge 18, Type (0, 0), BuildingBlock: EZIPEK_clean_linker_0, # of connection points: 2
#     Edge 19, Type (0, 0), BuildingBlock: EZIPEK_clean_linker_0, # of connection points: 2
#     Edge 20, Type (0, 0), BuildingBlock: EZIPEK_clean_linker_0, # of connection points: 2
#     Edge 21, Type (0, 0), BuildingBlock: EZIPEK_clean_linker_0, # of connection points: 2
#     Edge 22, Type (0, 0), BuildingBlock: EZIPEK_clean_linker_0, # of connection points: 2
#     Edge 23, Type (0, 0), BuildingBlock: EZIPEK_clean_linker_0, # of connection points: 2
#     Edge 24, Type (0, 0), BuildingBlock: EZIPEK_clean_linker_0, # of connection points: 2
#     Edge 25, Type (0, 0), BuildingBlock: EZIPEK_clean_linker_0, # of connection points: 2
#     Edge 26, Type (0, 0), BuildingBlock: EZIPEK_clean_linker_0, # of connection points: 2
#     Edge 27, Type (0, 0), BuildingBlock: EZIPEK_clean_linker_0, # of connection points: 2
#     Edge 28, Type (0, 0), BuildingBlock: EZIPEK_clean_linker_0, # of connection points: 2
#     Edge 29, Type (0, 0), BuildingBlock: EZIPEK_clean_linker_0, # of connection points: 2
#     Edge 30, Type (0, 0), BuildingBlock: EZIPEK_clean_linker_0, # of connection points: 2
#     Edge 31, Type (0, 0), BuildingBlock: EZIPEK_clean_linker_0, # of connection points: 2
#     Edge 32, Type (0, 0), BuildingBlock: EZIPEK_clean_linker_0, # of connection points: 2
#     Edge 33, Type (0, 0), BuildingBlock: EZIPEK_clean_linker_0, # of connection points: 2
#     Edge 34, Type (0, 0), BuildingBlock: EZIPEK_clean_linker_0, # of connection points: 2
#     Edge 35, Type (0, 0), BuildingBlock: EZIPEK_clean_linker_0, # of connection points: 2
#     Edge 36, Type (0, 0), BuildingBlock: EZIPEK_clean_linker_0, # of connection points: 2
#     Edge 37, Type (0, 0), BuildingBlock: EZIPEK_clean_linker_0, # of connection points: 2
#     Edge 38, Type (0, 0), BuildingBlock: EZIPEK_clean_linker_0, # of connection points: 2
#     Edge 39, Type (0, 0), BuildingBlock: EZIPEK_clean_linker_0, # of connection points: 2
#     Edge 40, Type (0, 0), BuildingBlock: EZIPEK_clean_linker_0, # of connection points: 2
#     Edge 41, Type (0, 0), BuildingBlock: EZIPEK_clean_linker_0, # of connection points: 2
#     Edge 42, Type (0, 0), BuildingBlock: EZIPEK_clean_linker_0, # of connection points: 2
#     Edge 43, Type (0, 0), BuildingBlock: EZIPEK_clean_linker_0, # of connection points: 2
#     Edge 44, Type (0, 0), BuildingBlock: EZIPEK_clean_linker_0, # of connection points: 2
#     Edge 45, Type (0, 0), BuildingBlock: EZIPEK_clean_linker_0, # of connection points: 2
#     Edge 46, Type (0, 0), BuildingBlock: EZIPEK_clean_linker_0, # of connection points: 2
#     Edge 47, Type (0, 0), BuildingBlock: EZIPEK_clean_linker_0, # of connection points: 2
#     Edge 48, Type (0, 0), BuildingBlock: EZIPEK_clean_linker_0, # of connection points: 2
#     Edge 49, Type (0, 0), BuildingBlock: EZIPEK_clean_linker_0, # of connection points: 2
#     Edge 50, Type (0, 0), BuildingBlock: EZIPEK_clean_linker_0, # of connection points: 2
#     Edge 51, Type (0, 0), BuildingBlock: EZIPEK_clean_linker_0, # of connection points: 2
#     Edge 52, Type (0, 0), BuildingBlock: EZIPEK_clean_linker_0, # of connection points: 2
#     Edge 53, Type (0, 0), BuildingBlock: EZIPEK_clean_linker_0, # of connection points: 2
# Relax obj value: 0.111
# Max RMSD: 0.093
# Mean RMSD: 0.093
data_MOF--net-unb--node1-CEKHIL_clean_sbu_0--edge1-EZIPEK_clean_linker_0
_symmetry_space_group_name_H-M    P1
_symmetry_Int_Tables_number       1
_symmetry_cell_setting            triclinic
loop_
_symmetry_equiv_pos_as_xyz
'x, y, z'
_cell_length_a     45.534351
_cell_length_b     45.69071
_cell_length_c     18.779375
_cell_angle_alpha  90.057818
_cell_angle_beta   89.754649
_cell_angle_gamma 120.04446
loop_
_atom_site_label
_atom_site_type_symbol
_atom_site_fract_x
_atom_site_fract_y
_atom_site_fract_z
_atom_type_partial_charge
Co0 Co 0.14348 0.2772 0.09428 0.0
O1 O 0.10309 0.28252 0.09422 0.0
O2 O 0.10336 0.23679 0.05922 0.0
C3 C 0.16364 0.3026 0.20472 0.0
O4 O 0.17666 0.25862 0.07818 0.0
Co5 Co 0.21866 0.33308 0.10435 0.0
O6 O 0.2315 0.29911 0.07717 0.0
C7 C 0.17888 0.32402 0.97311 0.0
C8 C 0.08649 0.25255 0.06575 0.0
C9 C 0.20844 0.26869 0.06636 0.0
O10 O 0.15391 0.29634 -0.0036 0.0
O11 O 0.20534 0.34295 0.00986 0.0
O12 O 0.14032 0.27074 0.19988 0.0
O13 O 0.17393 0.31763 0.14451 0.0
Co14 Co 0.75922 0.87516 0.0878 0.0
O15 O 0.75487 0.83023 0.09325 0.0
O16 O 0.80071 0.87618 0.05679 0.0
C17 C 0.7326 0.87126 0.19625 0.0
O18 O 0.77561 0.92605 0.06789 0.0
Co19 Co 0.69921 0.88852 0.08571 0.0
O20 O 0.7323 0.93631 0.06235 0.0
C21 C 0.71305 0.85672 0.96333 0.0
C22 C 0.78513 0.84364 0.06551 0.0
C23 C 0.76359 0.94589 0.05404 0.0
O24 O 0.74208 0.86455 0.98872 0.0
O25 O 0.6909 0.86095 -0.00326 0.0
O26 O 0.76484 0.88085 0.19288 0.0
O27 O 0.71773 0.86415 0.13542 0.0
Co28 Co 0.16552 0.8914 0.08196 0.0
O29 O 0.2122 0.92983 0.07316 0.0
O30 O 0.16639 0.93153 0.04411 0.0
C31 C 0.17443 0.87461 0.19328 0.0
O32 O 0.11303 0.86059 0.07667 0.0
Co33 Co 0.14278 0.81541 0.10449 0.0
O34 O 0.09701 0.80542 0.07397 0.0
C35 C 0.17298 0.85033 0.9689 0.0
C36 C 0.19915 0.94728 0.04751 0.0
C37 C 0.09072 0.82926 0.06403 0.0
O38 O 0.16908 0.87557 0.98488 0.0
O39 O 0.16867 0.82705 0.01266 0.0
O40 O 0.16732 0.89889 0.18716 0.0
O41 O 0.17461 0.86116 0.13359 0.0
Co42 Co 0.28734 0.14177 0.90275 0.0
O43 O 0.29662 0.10422 0.91088 0.0
O44 O 0.24793 0.10068 0.93784 0.0
C45 C 0.31501 0.16062 0.79311 0.0
O46 O 0.26514 0.17209 0.9077 0.0
Co47 Co 0.34143 0.21811 0.88806 0.0
O48 O 0.30456 0.22721 0.91468 0.0
C49 C 0.33279 0.18044 0.0215 0.0
C50 C 0.2659 0.08591 0.93568 0.0
C51 C 0.27407 0.20329 0.92185 0.0
O52 O 0.30403 0.15589 0.00168 0.0
O53 O 0.35287 0.20502 0.98122 0.0
O54 O 0.28367 0.13576 0.79715 0.0
O55 O 0.32759 0.17311 0.85407 0.0
Co56 Co 0.89619 0.15072 0.89252 0.0
O57 O 0.93594 0.19645 0.90072 0.0
O58 O 0.9351 0.14995 0.93354 0.0
C59 C 0.87967 0.15775 0.77951 0.0
O60 O 0.86292 0.09892 0.89935 0.0
Co61 Co 0.82187 0.13402 0.8744 0.0
O62 O 0.80888 0.08745 0.9058 0.0
C63 C 0.86028 0.16685 0.00204 0.0
C64 C 0.95186 0.18271 0.93086 0.0
C65 C 0.83112 0.07859 0.91365 0.0
O66 O 0.88084 0.15597 0.98907 0.0
O67 O 0.84016 0.16714 0.95516 0.0
O68 O 0.90353 0.15007 0.78745 0.0
O69 O 0.86765 0.16154 0.8384 0.0
Co70 Co 0.88642 0.75308 0.90091 0.0
O71 O 0.84015 0.74577 0.91107 0.0
O72 O 0.88662 0.79296 0.9381 0.0
C73 C 0.8785 0.72727 0.79034 0.0
O74 O 0.9387 0.77371 0.90519 0.0
Co75 Co 0.90648 0.69787 0.88474 0.0
O76 O 0.95277 0.73326 0.91399 0.0
C77 C 0.87844 0.70646 0.01922 0.0
C78 C 0.85377 0.77615 0.93776 0.0
C79 C 0.96016 0.76391 0.92055 0.0
O80 O 0.88308 0.73533 -0.00062 0.0
O81 O 0.88189 0.68602 0.97818 0.0
O82 O 0.88537 0.75858 0.79557 0.0
O83 O 0.8761 0.71282 0.85029 0.0
Co84 Co 0.81917 0.61586 0.42524 0.0
O85 O 0.77837 0.62051 0.41996 0.0
O86 O 0.7808 0.57652 0.38314 0.0
C87 C 0.83568 0.6391 0.53824 0.0
O88 O 0.85235 0.59724 0.41602 0.0
Co89 Co 0.89391 0.67202 0.44583 0.0
O90 O 0.90704 0.63801 0.4189 0.0
C91 C 0.85828 0.66583 0.31137 0.0
C92 C 0.76278 0.59113 0.3886 0.0
C93 C 0.88427 0.60757 0.40676 0.0
O94 O 0.83374 0.63654 0.32876 0.0
O95 O 0.88214 0.68531 0.35346 0.0
O96 O 0.8122 0.60747 0.53006 0.0
O97 O 0.84789 0.65513 0.47974 0.0
Co98 Co 0.42798 0.21298 0.42157 0.0
O99 O 0.41969 0.16643 0.41359 0.0
O100 O 0.46725 0.21194 0.38305 0.0
C101 C 0.40194 0.20446 0.5331 0.0
O102 O 0.44938 0.26529 0.41528 0.0
Co103 Co 0.37367 0.23475 0.44165 0.0
O104 O 0.40939 0.28034 0.40985 0.0
C105 C 0.37892 0.20324 0.30908 0.0
C106 C 0.45007 0.17926 0.38651 0.0
C107 C 0.43988 0.28712 0.40119 0.0
O108 O 0.4089 0.20923 0.32447 0.0
O109 O 0.35924 0.20645 0.35324 0.0
O110 O 0.43341 0.21142 0.52704 0.0
O111 O 0.38845 0.20395 0.47316 0.0
Co112 Co 0.82893 0.2226 0.41784 0.0
O113 O 0.8737 0.26387 0.41617 0.0
O114 O 0.82607 0.26178 0.38612 0.0
C115 C 0.83643 0.2024 0.52602 0.0
O116 O 0.77767 0.18716 0.40471 0.0
Co117 Co 0.81553 0.14927 0.42244 0.0
O118 O 0.76644 0.13354 0.41208 0.0
C119 C 0.84155 0.19091 0.29165 0.0
C120 C 0.85886 0.27955 0.39019 0.0
C121 C 0.75702 0.15489 0.39855 0.0
O122 O 0.8363 0.21378 0.31766 0.0
O123 O 0.83774 0.16516 0.32648 0.0
O124 O 0.82637 0.22458 0.52378 0.0
O125 O 0.84188 0.19365 0.46457 0.0
Co126 Co 0.95213 0.47264 0.23402 0.0
O127 O 0.9544 0.43077 0.23138 0.0
O128 O 0.91001 0.43374 0.26714 0.0
C129 C 0.97864 0.4937 0.12503 0.0
O130 O 0.93711 0.50829 0.25236 0.0
Co131 Co 1.01291 0.54553 0.23185 0.0
O132 O 0.98095 0.56145 0.25704 0.0
C133 C 1.00006 0.50081 0.35549 0.0
C134 C 0.92433 0.41547 0.26062 0.0
C135 C 0.94957 0.54021 0.26554 0.0
O136 O 0.97048 0.47984 0.3321 0.0
O137 O 1.02172 0.52693 0.32081 0.0
O138 O 0.94619 0.47188 0.1288 0.0
O139 O 0.99369 0.5017 0.18556 0.0
Co140 Co 0.56942 0.49087 0.22647 0.0
O141 O 0.61027 0.53623 0.22368 0.0
O142 O 0.60954 0.49033 0.2589 0.0
C143 C 0.54731 0.49653 0.11804 0.0
O144 O 0.53637 0.4393 0.24285 0.0
Co145 Co 0.49411 0.47205 0.22518 0.0
O146 O 0.48168 0.42529 0.25138 0.0
C147 C 0.53808 0.50583 0.35002 0.0
C148 C 0.62696 0.52289 0.25207 0.0
C149 C 0.50489 0.41775 0.25745 0.0
O150 O 0.56117 0.50041 0.32556 0.0
O151 O 0.51115 0.49877 0.31537 0.0
O152 O 0.57064 0.48783 0.1203 0.0
O153 O 0.53797 0.50038 0.18019 0.0
Co154 Co 0.55051 0.08444 0.24114 0.0
O155 O 0.50471 0.07858 0.24624 0.0
O156 O 0.55128 0.125 0.27694 0.0
C157 C 0.54336 0.05908 0.1306 0.0
O158 O 0.60252 0.10273 0.24891 0.0
Co159 Co 0.56663 0.02612 0.22743 0.0
O160 O 0.6138 0.06019 0.25365 0.0
C161 C 0.5391 0.03691 0.36059 0.0
C162 C 0.51848 0.10901 0.27223 0.0
C163 C 0.62294 0.09128 0.26168 0.0
O164 O 0.5449 0.06612 0.33993 0.0
O165 O 0.54239 0.01595 0.32102 0.0
O166 O 0.55165 0.09079 0.1359 0.0
O167 O 0.53927 0.04407 0.19053 0.0
Co168 Co 0.48162 0.9474 0.76695 0.0
O169 O 0.44202 0.95364 0.75901 0.0
O170 O 0.44264 0.9077 0.72656 0.0
C171 C 0.49825 0.97125 0.87892 0.0
O172 O 0.51457 0.9285 0.76083 0.0
Co173 Co 0.55644 1.00437 0.78617 0.0
O174 O 0.56917 0.96995 0.76041 0.0
C175 C 0.52 0.99714 0.65302 0.0
C176 C 0.42595 0.92376 0.73001 0.0
C177 C 0.54654 0.93918 0.75106 0.0
O178 O 0.49678 0.96715 0.67004 0.0
O179 O 0.54282 0.01758 0.69594 0.0
O180 O 0.47424 0.9398 0.87173 0.0
O181 O 0.51041 0.98691 0.82006 0.0
Co182 Co 0.08821 0.54172 0.7507 0.0
O183 O 0.08129 0.49527 0.75755 0.0
O184 O 0.12838 0.5392 0.72182 0.0
C185 C 0.06298 0.53744 0.86515 0.0
O186 O 0.11235 0.59499 0.73533 0.0
Co187 Co 0.05927 0.5541 0.71728 0.0
O188 O 0.07448 0.59709 0.66891 0.0
C189 C 0.04781 0.50064 0.63102 0.0
C190 C 0.1116 0.50681 0.73134 0.0
C191 C 0.10408 0.61201 0.69283 0.0
O192 O 0.0719 0.53055 0.64479 0.0
O193 O 0.07173 0.53008 0.64266 0.0
O194 O 0.09479 0.54699 0.85528 0.0
O195 O 0.04541 0.53246 0.80839 0.0
Co196 Co 0.49497 0.56054 0.75068 0.0
O197 O 0.54097 0.60029 0.74824 0.0
O198 O 0.49452 0.60107 0.72041 0.0
C199 C 0.50239 0.53891 0.85815 0.0
O200 O 0.44279 0.5278 0.74002 0.0
Co201 Co 0.47624 0.48538 0.7521 0.0
O202 O 0.42896 0.47332 0.73149 0.0
C203 C 0.50823 0.52909 0.62569 0.0
C204 C 0.52734 0.61738 0.72342 0.0
C205 C 0.42111 0.49631 0.72664 0.0
O206 O 0.50209 0.55158 0.65041 0.0
O207 O 0.50224 0.50259 0.66065 0.0
O208 O 0.49419 0.56255 0.8569 0.0
O209 O 0.50505 0.5292 0.79549 0.0
Co210 Co 0.62316 0.81191 0.57087 0.0
O211 O 0.62474 0.7693 0.56742 0.0
O212 O 0.58051 0.77241 0.60164 0.0
C213 C 0.64878 0.83074 0.45695 0.0
O214 O 0.60439 0.84564 0.58471 0.0
Co215 Co 0.65808 0.85497 0.60521 0.0
O216 O 0.64361 0.88361 0.65276 0.0
C217 C 0.65925 0.8052 0.69205 0.0
C218 C 0.59442 0.75383 0.59534 0.0
C219 C 0.6142 0.87089 0.62806 0.0
O220 O 0.6401 0.8172 0.67578 0.0
O221 O 0.64008 0.81693 0.67834 0.0
O222 O 0.61643 0.81059 0.46674 0.0
O223 O 0.66701 0.84167 0.51358 0.0
Co224 Co 0.23511 0.82237 0.56273 0.0
O225 O 0.27306 0.8688 0.576 0.0
O226 O 0.27518 0.82285 0.60052 0.0
C227 C 0.2186 0.83293 0.45265 0.0
O228 O 0.20427 0.77006 0.56261 0.0
Co229 Co 0.15889 0.80083 0.54223 0.0
O230 O 0.14892 0.7544 0.56577 0.0
C231 C 0.1939 0.82786 0.6786 0.0
C232 C 0.29043 0.85555 0.60117 0.0
C233 C 0.17266 0.74764 0.57316 0.0
O234 O 0.21858 0.82337 0.66053 0.0
O235 O 0.17045 0.82451 0.63636 0.0
O236 O 0.24344 0.82648 0.45765 0.0
O237 O 0.20497 0.83222 0.51286 0.0
Co238 Co 0.21472 0.41798 0.56619 0.0
O239 O 0.16872 0.41188 0.57112 0.0
O240 O 0.21508 0.4583 0.60121 0.0
C241 C 0.20859 0.39217 0.4559 0.0
O242 O 0.26679 0.43729 0.57789 0.0
Co243 Co 0.23405 0.36221 0.5552 0.0
O244 O 0.28092 0.39677 0.58109 0.0
C245 C 0.20414 0.37168 0.68758 0.0
C246 C 0.18222 0.44194 0.5995 0.0
C247 C 0.28844 0.42733 0.59012 0.0
O248 O 0.20748 0.39959 0.66467 0.0
O249 O 0.2109 0.35234 0.65016 0.0
O250 O 0.21663 0.42386 0.46062 0.0
O251 O 0.20458 0.37746 0.51628 0.0
C252 C 0.16849 0.36459 0.35091 0.0
C253 C 0.19851 0.37142 0.3879 0.0
C254 C 0.20188 0.32828 0.31282 0.0
C255 C 0.17334 0.3233 0.27267 0.0
N256 N 0.13219 0.34034 0.24768 0.0
N257 N 0.24638 0.36297 0.39748 0.0
C258 C 0.15752 0.34257 0.29016 0.0
C259 C 0.2158 0.35396 0.36706 0.0
N260 N 0.1493 0.37777 0.37591 0.0
N261 N 0.21551 0.30813 0.29942 0.0
H262 H 0.25755 0.38212 0.43542 0.0
H263 H 0.26212 0.35382 0.38099 0.0
H264 H 0.20617 0.28963 0.25984 0.0
H265 H 0.23415 0.30778 0.33067 0.0
H266 H 0.12507 0.37045 0.35738 0.0
H267 H 0.15639 0.39422 0.41912 0.0
H268 H 0.1227 0.35684 0.25113 0.0
H269 H 0.12194 0.32318 0.20583 0.0
C270 C 0.68697 0.82323 0.36862 0.0
C271 C 0.66657 0.83789 0.38537 0.0
C272 C 0.69258 0.87706 0.28317 0.0
C273 C 0.71181 0.86134 0.26447 0.0
N274 N 0.72199 0.81489 0.28218 0.0
N275 N 0.64663 0.87579 0.35319 0.0
C276 C 0.70762 0.83325 0.30546 0.0
C277 C 0.66831 0.86382 0.34064 0.0
N278 N 0.68701 0.79985 0.41391 0.0
N279 N 0.69862 0.90566 0.24767 0.0
H280 H 0.62918 0.86702 0.39512 0.0
H281 H 0.64396 0.8923 0.3193 0.0
H282 H 0.71651 0.91626 0.20678 0.0
H283 H 0.68821 0.92053 0.26221 0.0
H284 H 0.70454 0.79159 0.41084 0.0
H285 H 0.67048 0.78989 0.45721 0.0
H286 H 0.71658 0.79181 0.30417 0.0
H287 H 0.73735 0.82124 0.23702 0.0
C288 C 0.19319 0.86536 0.39072 0.0
C289 C 0.20855 0.84462 0.38564 0.0
C290 C 0.20883 0.85162 0.25567 0.0
C291 C 0.18676 0.8655 0.26061 0.0
N292 N 0.15203 0.87776 0.33908 0.0
N293 N 0.22275 0.81157 0.30674 0.0
C294 C 0.17705 0.86995 0.32995 0.0
C295 C 0.21383 0.8357 0.31623 0.0
N296 N 0.19587 0.88293 0.45155 0.0
N297 N 0.2272 0.85553 0.19517 0.0
H298 H 0.22441 0.79748 0.34846 0.0
H299 H 0.2243 0.80277 0.25637 0.0
H300 H 0.22889 0.87125 0.15333 0.0
H301 H 0.24498 0.84755 0.19166 0.0
H302 H 0.18684 0.89983 0.4552 0.0
H303 H 0.21158 0.88498 0.4937 0.0
H304 H 0.14255 0.87856 0.38927 0.0
H305 H 0.13806 0.87938 0.29706 0.0
C306 C 0.3442 0.17085 0.59618 0.0
C307 C 0.38027 0.19256 0.60069 0.0
C308 C 0.37342 0.18638 0.73102 0.0
C309 C 0.33723 0.17122 0.7262 0.0
N310 N 0.29019 0.15774 0.64745 0.0
N311 N 0.42727 0.22713 0.67859 0.0
C312 C 0.3232 0.16619 0.65682 0.0
C313 C 0.39433 0.20231 0.66991 0.0
N314 N 0.32967 0.15244 0.53611 0.0
N315 N 0.38824 0.18364 0.79179 0.0
H316 H 0.44297 0.2409 0.63629 0.0
H317 H 0.4375 0.23663 0.7286 0.0
H318 H 0.37454 0.16798 0.83413 0.0
H319 H 0.41423 0.19256 0.79522 0.0
H320 H 0.3038 0.13494 0.53302 0.0
H321 H 0.34367 0.15037 0.49441 0.0
H322 H 0.27997 0.1563 0.59708 0.0
H323 H 0.27446 0.15646 0.68918 0.0
C324 C 0.88237 0.20785 0.61102 0.0
C325 C 0.84731 0.1919 0.59298 0.0
C326 C 0.83512 0.14962 0.68799 0.0
C327 C 0.86972 0.16721 0.70986 0.0
N328 N 0.92533 0.2164 0.69811 0.0
N329 N 0.78976 0.14937 0.61868 0.0
C330 C 0.89312 0.1971 0.67256 0.0
C331 C 0.82355 0.16329 0.63294 0.0
N332 N 0.90571 0.23319 0.56855 0.0
N333 N 0.81351 0.11902 0.71839 0.0
H334 H 0.78069 0.15839 0.5783 0.0
H335 H 0.7706 0.1307 0.64984 0.0
H336 H 0.82139 0.10804 0.75699 0.0
H337 H 0.7888 0.10309 0.70125 0.0
H338 H 0.93176 0.2429 0.57273 0.0
H339 H 0.89897 0.24319 0.52592 0.0
H340 H 0.94232 0.24055 0.67932 0.0
H341 H 0.93447 0.20943 0.74187 0.0
C342 C 0.83341 0.68985 0.70082 0.0
C343 C 0.86797 0.7065 0.72271 0.0
C344 C 0.87903 0.67317 0.63324 0.0
C345 C 0.84513 0.65843 0.60781 0.0
N346 N 0.79121 0.65633 0.61163 0.0
N347 N 0.92452 0.71635 0.70571 0.0
C348 C 0.8226 0.66763 0.64041 0.0
C349 C 0.89097 0.69872 0.68768 0.0
N350 N 0.81052 0.69456 0.73917 0.0
N351 N 0.89955 0.6619 0.60645 0.0
H352 H 0.93385 0.73489 0.74521 0.0
H353 H 0.94353 0.71464 0.67838 0.0
H354 H 0.89133 0.64297 0.56789 0.0
H355 H 0.92351 0.66899 0.62616 0.0
H356 H 0.78437 0.68006 0.73237 0.0
H357 H 0.81753 0.71169 0.78118 0.0
H358 H 0.77517 0.66539 0.62651 0.0
H359 H 0.7819 0.63931 0.56933 0.0
C360 C 1.0014 0.53052 0.01395 0.0
C361 C 0.99932 0.50396 0.05683 0.0
C362 C 0.0412 0.50057 0.97698 0.0
C363 C 0.04483 0.52853 0.93653 0.0
N364 N 0.03232 0.57356 0.92364 0.0
N365 N 1.02061 0.46644 0.08446 0.0
C366 C 0.0259 0.54436 0.95712 0.0
C367 C 1.02036 0.48995 0.03992 0.0
N368 N 0.97968 0.54237 0.02722 0.0
N369 N 0.0561 0.48281 0.95316 0.0
H370 H 1.00412 0.45607 0.12768 0.0
H371 H 0.03843 0.45855 0.08106 0.0
H372 H 0.07189 0.48989 0.90856 0.0
H373 H 0.05101 0.45969 0.97445 0.0
H374 H 0.97712 0.55917 0.99401 0.0
H375 H 0.96218 0.53338 0.06908 0.0
H376 H 1.02213 0.58842 0.93975 0.0
H377 H 0.05047 0.58471 0.88334 0.0
C378 C 0.52088 0.52825 0.05493 0.0
C379 C 0.53551 0.50679 0.05081 0.0
C380 C 0.53407 0.51188 0.92008 0.0
C381 C 0.51322 0.52724 0.92476 0.0
N382 N 0.47876 0.53946 0.0044 0.0
N383 N 0.5459 0.47062 0.97301 0.0
C384 C 0.50399 0.532 0.99446 0.0
C385 C 0.53884 0.49612 0.98153 0.0
N386 N 0.525 0.54741 0.11393 0.0
N387 N 0.55174 0.5142 0.85938 0.0
H388 H 0.54701 0.45655 0.01541 0.0
H389 H 0.54613 0.46071 0.92308 0.0
H390 H 0.55435 0.5299 0.81686 0.0
H391 H 0.5685 0.50494 0.85634 0.0
H392 H 0.51616 0.5645 0.11636 0.0
H393 H 0.54179 0.5508 0.15474 0.0
H394 H 0.47004 0.5409 0.05502 0.0
H395 H 0.46362 0.53955 0.96311 0.0
C396 C 0.50195 0.03062 0.02876 0.0
C397 C 0.53304 0.03871 0.06258 0.0
C398 C 0.53746 0.99722 0.98455 0.0
C399 C 0.50766 0.99091 0.94769 0.0
N400 N 0.4638 1.00484 0.92868 0.0
N401 N 0.58254 0.03274 0.0673 0.0
C402 C 0.49057 1.00853 0.96828 0.0
C403 C 0.55129 0.02268 0.03902 0.0
N404 N 0.48235 0.04281 0.0564 0.0
N405 N 0.55227 0.97841 0.96791 0.0
H406 H 0.59351 0.05164 0.10585 0.0
H407 H 0.59886 0.02464 0.04886 0.0
H408 H 0.54279 0.95989 0.92836 0.0
H409 H 0.57214 0.97911 -0.00355 0.0
H410 H 0.45756 0.03457 0.04034 0.0
H411 H 0.48991 0.05958 0.09913 0.0
H412 H 0.45306 0.02017 0.93437 0.0
H413 H 0.45347 0.98761 0.88692 0.0
C414 C 0.19171 0.37032 0.88778 0.0
C415 C 0.17783 0.33522 0.90013 0.0
C416 C 0.16893 0.32565 0.77275 0.0
C417 C 0.19158 0.36055 0.76057 0.0
N418 N 0.22863 0.41624 0.81093 0.0
N419 N 0.1569 0.27906 0.84992 0.0
C420 C 0.20383 0.38323 0.81904 0.0
C421 C 0.16685 0.31248 0.84166 0.0
N422 N 0.1933 0.39124 0.94146 0.0
N423 N 0.14936 0.30518 0.71882 0.0
H424 H 0.15703 0.26801 0.8982 0.0
H425 H 0.15197 0.26293 0.80668 0.0
H426 H 0.14897 0.31449 0.66831 0.0
H427 H 0.13069 0.28004 0.72707 0.0
H428 H 0.20106 0.41667 0.93307 0.0
H429 H 0.18294 0.38218 0.99183 0.0
H430 H 0.24003 0.43227 0.85418 0.0
H431 H 0.24052 0.42684 0.76273 0.0
C432 C 0.66617 0.79324 0.81769 0.0
C433 C 0.67838 0.81514 0.75848 0.0
C434 C 0.72097 0.86065 0.83168 0.0
C435 C 0.70425 0.84102 0.89272 0.0
N436 N 0.66374 0.78781 0.94638 0.0
N437 N 0.71871 0.8682 0.70451 0.0
C438 C 0.67783 0.80685 0.88648 0.0
C439 C 0.70658 0.84829 0.76397 0.0
N440 N 0.64367 0.75965 0.8075 0.0
N441 N 0.75045 0.89091 0.83841 0.0
H442 H 0.71046 0.85897 0.65325 0.0
H443 H 0.73596 0.89403 0.70575 0.0
H444 H 0.76163 0.90115 0.88723 0.0
H445 H 0.76548 0.90483 0.79551 0.0
H446 H 0.6351 0.74156 0.84772 0.0
H447 H 0.6357 0.7494 0.75679 0.0
H448 H 0.64205 0.76403 0.94626 0.0
H449 H 0.67336 0.79633 -0.00271 0.0
C450 C 0.20972 0.86807 0.86051 0.0
C451 C 0.17887 0.84515 0.89462 0.0
C452 C 0.16116 0.80841 0.79069 0.0
C453 C 0.18982 0.83354 0.7535 0.0
N454 N 0.23808 0.8901 0.74782 0.0
N455 N 0.12252 0.79607 0.88904 0.0
C456 C 0.2133 0.86422 0.78684 0.0
C457 C 0.15377 0.81599 0.85889 0.0
N458 N 0.23607 0.89237 0.89894 0.0
N459 N 0.14157 0.77699 0.76175 0.0
H460 H 0.11586 0.80057 0.9393 0.0
H461 H 0.10213 0.77687 0.86153 0.0
H462 H 0.14623 0.77028 0.71165 0.0
H463 H 0.12268 0.75662 0.79012 0.0
H464 H 0.26024 0.90757 0.87757 0.0
H465 H 0.23453 0.89524 0.95373 0.0
H466 H 0.25368 0.91417 0.76862 0.0
H467 H 0.24122 0.88824 0.69325 0.0
C468 C 0.36307 0.16727 0.19962 0.0
C469 C 0.36772 0.19673 0.23496 0.0
C470 C 0.34294 0.21063 0.1352 0.0
C471 C 0.34174 0.18347 0.09672 0.0
N472 N 0.35319 0.13748 0.08734 0.0
N473 N 0.36889 0.25027 0.23114 0.0
C474 C 0.35237 0.16202 0.12753 0.0
C475 C 0.3595 0.21948 0.20137 0.0
N476 N 0.36777 0.14393 0.23553 0.0
N477 N 0.32756 0.22753 0.10909 0.0
H478 H 0.38195 0.25837 0.2791 0.0
H479 H 0.36685 0.26923 0.20479 0.0
H480 H 0.31497 0.22168 0.0604 0.0
H481 H 0.32438 0.24504 0.13875 0.0
H482 H 0.36147 0.12036 0.21481 0.0
H483 H 0.37568 0.14705 0.28841 0.0
H484 H 0.36423 0.12352 0.10434 0.0
H485 H 0.34469 0.13249 0.03483 0.0
C486 C 0.88589 0.19726 0.11699 0.0
C487 C 0.85682 0.17624 0.07533 0.0
C488 C 0.82047 0.17756 0.16896 0.0
C489 C 0.84841 0.19189 0.21539 0.0
N490 N 0.90815 0.21487 0.23617 0.0
N491 N 0.79568 0.13895 0.07166 0.0
C492 C 0.88139 0.20165 0.19026 0.0
C493 C 0.82379 0.1645 0.10362 0.0
N494 N 0.91734 0.21407 0.08631 0.0
N495 N 0.7907 0.17604 0.18726 0.0
H496 H 0.79687 0.12555 0.02785 0.0
H497 H 0.77156 0.12812 0.09454 0.0
H498 H 0.78747 0.1858 0.23499 0.0
H499 H 0.77055 0.16809 0.15181 0.0
H500 H 0.93892 0.23172 0.11341 0.0
H501 H 0.92128 0.21303 0.03189 0.0
H502 H 0.93211 0.21899 0.22225 0.0
H503 H 0.90574 0.22 0.28939 0.0
C504 C 0.84362 0.69284 0.13062 0.0
C505 C 0.87333 0.69789 0.09499 0.0
C506 C 0.89051 0.6784 0.19881 0.0
C507 C 0.86236 0.67589 0.23655 0.0
N508 N 0.81482 0.68523 0.24391 0.0
N509 N 0.92899 0.70351 0.09994 0.0
C510 C 0.83956 0.68435 0.20408 0.0
C511 C 0.89795 0.69302 0.13047 0.0
N512 N 0.81893 0.695 0.09382 0.0
N513 N 0.9095 0.66573 0.22722 0.0
H514 H 0.93583 0.71491 0.04998 0.0
H515 H 0.94918 0.70409 0.12711 0.0
H516 H 0.90489 0.65454 0.27742 0.0
H517 H 0.92778 0.66337 0.19832 0.0
H518 H 0.7952 0.68815 0.11516 0.0
H519 H 0.82121 0.70136 0.03996 0.0
H520 H 0.79954 0.69446 0.22502 0.0
H521 H 0.81132 0.67913 0.29796 0.0
C522 C 0.98857 0.48516 0.48493 0.0
C523 C 1.01031 0.49378 0.42461 0.0
C524 C 0.0562 0.49829 0.4992 0.0
C525 C 0.03455 0.49061 0.55894 0.0
N526 N 0.97768 0.46376 0.60572 0.0
N527 N 0.05958 0.49553 0.37102 0.0
C528 C 0.99971 0.47907 0.55035 0.0
C529 C 0.04261 0.49629 0.43058 0.0
N530 N 0.95877 0.48557 0.48189 0.0
N531 N 0.08949 0.5076 0.50814 0.0
H532 H 0.04935 0.49203 0.32002 0.0
H533 H 0.08193 0.49455 0.37277 0.0
H534 H 0.09937 0.50658 0.55747 0.0
H535 H 0.10741 0.51743 0.46726 0.0
H536 H 0.94406 0.48284 0.52675 0.0
H537 H 0.95019 0.49194 0.43647 0.0
H538 H 0.95145 0.45242 0.60042 0.0
H539 H 0.98556 0.45929 0.65464 0.0
C540 C 0.54944 0.52362 0.5487 0.0
C541 C 0.52534 0.53444 0.55586 0.0
C542 C 0.52923 0.54429 0.42806 0.0
C543 C 0.54244 0.52223 0.4202 0.0
N544 N 0.56899 0.49327 0.47655 0.0
N545 N 0.49397 0.5583 0.49898 0.0
C546 C 0.55448 0.51311 0.48119 0.0
C547 C 0.51624 0.54657 0.49499 0.0
N548 N 0.56782 0.52394 0.60633 0.0
N549 N 0.52927 0.56304 0.3714 0.0
H550 H 0.48431 0.56199 0.54605 0.0
H551 H 0.48359 0.56289 0.45391 0.0
H552 H 0.54009 0.56274 0.32245 0.0
H553 H 0.52241 0.58159 0.37568 0.0
H554 H 0.58771 0.51889 0.60274 0.0
H555 H 0.56584 0.53333 0.65575 0.0
H556 H 0.5732 0.4823 0.52113 0.0
H557 H 0.57589 0.48653 0.42929 0.0
C558 C 0.49781 1.00939 0.54208 0.0
C559 C 0.52393 1.00718 0.57811 0.0
C560 C 0.56114 0.02999 0.47495 0.0
C561 C 0.53397 0.02889 0.43642 0.0
N562 N 0.47491 1.01262 0.42795 0.0
N563 N 0.57723 1.0075 0.57365 0.0
C564 C 0.50179 0.01727 0.46839 0.0
C565 C 0.55476 0.01533 0.54321 0.0
N566 N 0.46988 1.00507 0.57859 0.0
N567 N 0.59316 0.04545 0.44669 0.0
H568 H 0.57312 0.99556 0.62293 0.0
H569 H 0.59826 1.00957 0.54677 0.0
H570 H 0.59889 0.05634 0.39617 0.0
H571 H 0.61453 0.05025 0.47588 0.0
H572 H 0.45164 1.00967 0.55645 0.0
H573 H 0.46627 0.99943 0.63284 0.0
H574 H 0.45005 1.00083 0.44688 0.0
H575 H 0.47716 0.01839 0.37373 0.0
C576 C 0.21956 0.21898 0.05859 0.0
C577 C 0.21869 0.24647 0.02549 0.0
C578 C 0.24338 0.23654 0.91613 0.0
C579 C 0.24906 0.21271 0.95273 0.0
N580 N 0.24277 0.18118 0.06022 0.0
N581 N 0.22956 0.28138 0.92121 0.0
C582 C 0.23659 0.20343 0.02397 0.0
C583 C 0.23028 0.25496 0.95354 0.0
N584 N 0.20432 0.20791 0.12349 0.0
N585 N 0.24994 0.24097 0.84465 0.0
H586 H 0.21821 0.29401 0.94426 0.0
H587 H 0.24151 0.29195 0.87299 0.0
H588 H 0.259 0.22745 0.81619 0.0
H589 H 0.24349 0.25535 0.81228 0.0
H590 H 0.20082 0.18596 0.148 0.0
H591 H 0.19275 0.21942 0.15063 0.0
H592 H 0.23862 0.17658 0.11462 0.0
H593 H 0.25384 0.16841 0.03657 0.0
C594 C 0.82825 0.04009 0.0157 0.0
C595 C 0.81929 0.04383 0.94482 0.0
C596 C 0.77611 0.98304 0.94419 0.0
C597 C 0.7851 0.97912 0.01505 0.0
N598 N 0.82403 1.00266 0.11273 0.0
N599 N 0.79033 0.01738 0.83661 0.0
C600 C 0.81276 1.00723 0.0487 0.0
C601 C 0.79488 0.01476 0.90775 0.0
N602 N 0.85006 0.06826 0.05338 0.0
N603 N 0.74902 0.9565 0.91174 0.0
H604 H 0.80391 0.04007 0.80862 0.0
H605 H 0.77573 0.99676 0.80385 0.0
H606 H 0.73601 0.93225 0.93331 0.0
H607 H 0.73819 0.95875 0.86487 0.0
H608 H 0.85448 0.06812 0.10767 0.0
H609 H 0.86233 0.09245 0.03139 0.0
H610 H 0.84628 0.02091 0.1368 0.0
H611 H 0.81237 0.97956 0.13957 0.0
C612 C 0.99511 0.79298 0.03036 0.0
C613 C 0.9937 0.78799 0.95514 0.0
C614 C 0.0563 0.8206 0.95206 0.0
C615 C 0.05758 0.82016 0.02791 0.0
N616 N 0.02774 0.80463 0.13965 0.0
N617 N 0.02342 0.79603 0.84438 0.0
C618 C 0.0268 0.80618 0.06713 0.0
C619 C 0.0245 0.80175 0.91598 0.0
N620 N 0.96614 0.78541 0.06673 0.0
N621 N 0.08555 0.8395 0.91435 0.0
H622 H 1.00069 0.78384 0.81612 0.0
H623 H 0.04477 0.80161 0.81392 0.0
H624 H 0.1089 0.85405 0.93901 0.0
H625 H 0.08624 0.84336 0.85959 0.0
H626 H 0.96569 0.79106 0.1203 0.0
H627 H 0.94287 0.77637 0.04154 0.0
H628 H 1.00621 0.79107 0.17125 0.0
H629 H 0.05046 0.81549 0.16796 0.0
C630 C 0.84252 0.8045 0.04263 0.0
C631 C 0.83351 0.79027 0.97299 0.0
C632 C 0.78757 0.80425 0.97247 0.0
C633 C 0.79995 0.82281 0.03711 0.0
N634 N 0.84148 0.84301 0.13064 0.0
N635 N 0.79957 0.78043 0.86798 0.0
C636 C 0.82815 0.82368 0.07108 0.0
C637 C 0.80633 0.79086 0.93722 0.0
N638 N 0.86349 0.79817 0.08352 0.0
N639 N 0.75779 0.79932 0.94445 0.0
H640 H 0.81292 0.77108 0.83996 0.0
H641 H 0.78281 0.78382 0.83623 0.0
H642 H 0.74356 0.80888 0.96776 0.0
H643 H 0.74557 0.78319 0.90186 0.0
H644 H 0.86833 0.80489 0.13699 0.0
H645 H 0.87309 0.78285 0.06665 0.0
H646 H 0.86448 0.8481 0.15284 0.0
H647 H 0.83059 0.85579 0.1553 0.0
C648 C 0.23411 0.99019 0.95156 0.0
C649 C 0.22003 0.98328 0.02155 0.0
C650 C 0.24154 0.04434 0.03835 0.0
C651 C 0.25242 0.05082 0.96594 0.0
N652 N 0.25698 0.02946 0.85169 0.0
N653 N 0.20751 1.00339 0.12952 0.0
C654 C 0.24858 0.02365 0.92229 0.0
C655 C 0.22305 1.01031 0.06432 0.0
N656 N 0.23326 0.96451 0.91266 0.0
N657 N 0.25019 0.07094 0.08341 0.0
H658 H 0.1953 0.97922 0.15186 0.0
H659 H 0.20483 0.02108 0.15956 0.0
H660 H 0.26434 0.09609 0.06712 0.0
H661 H 0.2463 0.06834 0.13824 0.0
H662 H 0.2463 0.968 0.86492 0.0
H663 H 0.22092 0.9396 0.93061 0.0
H664 H 0.25151 1.01045 0.81471 0.0
H665 H 0.26757 0.05338 0.82858 0.0
C666 C 1.01444 0.22945 0.93124 0.0
C667 C 0.98595 0.20299 0.96737 0.0
C668 C 1.02317 0.21026 0.06998 0.0
C669 C 0.05116 0.23775 0.0354 0.0
N670 N 0.07181 0.27757 0.93814 0.0
N671 N 0.96206 0.17456 0.07905 0.0
C672 C 0.04616 0.2487 0.96778 0.0
C673 C 0.99005 0.19517 0.03897 0.0
N674 N 1.0119 0.23499 0.86061 0.0
N675 N 0.02823 0.19817 0.13249 0.0
H676 H 0.93737 0.16397 0.05999 0.0
H677 H 0.963 0.17084 0.1335 0.0
H678 H 0.05148 0.20964 0.15883 0.0
H679 H 1.01001 0.1756 0.15583 0.0
H680 H 0.03256 0.25114 0.82897 0.0
H681 H 0.98961 0.22117 0.83168 0.0
H682 H 0.06887 0.28895 0.89284 0.0
H683 H 0.09535 0.29191 0.96235 0.0
C684 C 0.91839 0.57756 0.4126 0.0
C685 C 0.89555 0.58431 0.37461 0.0
C686 C 0.90228 0.55504 0.2693 0.0
C687 C 0.92846 0.55246 0.30432 0.0
N688 N 0.96188 0.5616 0.41026 0.0
N689 N 0.86707 0.58112 0.26422 0.0
C690 C 0.93645 0.56368 0.37641 0.0
C691 C 0.88742 0.57297 0.30257 0.0
N692 N 0.922 0.58357 0.48427 0.0
N693 N 0.89172 0.54052 0.20383 0.0
H694 H 0.85513 0.59341 0.28617 0.0
H695 H 0.86366 0.57776 0.20945 0.0
H696 H 0.90293 0.52854 0.17716 0.0
H697 H 0.87036 0.53806 0.17827 0.0
H698 H 0.93541 0.57621 0.51741 0.0
H699 H 0.90882 0.59322 0.51208 0.0
H700 H 0.97219 0.57321 0.45871 0.0
H701 H 0.97405 0.5495 0.38836 0.0
C702 C 0.49915 0.38255 0.36699 0.0
C703 C 0.49514 0.38415 0.29197 0.0
C704 C 0.46427 0.32172 0.28865 0.0
C705 C 0.46379 0.32021 0.36452 0.0
N706 N 0.48052 0.34924 0.47644 0.0
N707 N 0.47226 0.35502 0.18166 0.0
C708 C 0.48153 0.3507 0.40376 0.0
C709 C 0.47743 0.3536 0.25288 0.0
N710 N 0.51972 0.41165 0.40323 0.0
N711 N 0.45253 0.29252 0.25058 0.0
H712 H 0.48296 0.37776 0.15344 0.0
H713 H 0.45592 0.33402 0.15145 0.0
H714 H 0.44354 0.2691 0.27498 0.0
H715 H 0.45465 0.29175 0.19549 0.0
H716 H 0.52657 0.41231 0.45625 0.0
H717 H 0.53221 0.4352 0.37845 0.0
H718 H 0.48932 0.37036 0.50915 0.0
H719 H 0.46925 0.32638 0.50427 0.0
C720 C 0.68601 0.11322 0.25744 0.0
C721 C 0.65839 0.11394 0.29071 0.0
C722 C 0.69707 0.14712 0.38971 0.0
C723 C 0.72314 0.14196 0.36111 0.0
N724 N 0.74038 0.11647 0.26856 0.0
N725 N 0.63698 0.12928 0.39355 0.0
C726 C 0.71696 0.12398 0.29528 0.0
C727 C 0.66388 0.13075 0.35775 0.0
N728 N 0.68305 0.10324 0.18791 0.0
N729 N 0.70371 0.16715 0.44833 0.0
H730 H 0.61259 0.1181 0.37266 0.0
H731 H 0.6382 0.13698 0.44617 0.0
H732 H 0.72662 0.17756 0.47575 0.0
H733 H 0.68742 0.17528 0.467 0.0
H734 H 0.70331 0.10558 0.15752 0.0
H735 H 0.66116 0.09613 0.15822 0.0
H736 H 0.73509 0.09919 0.22751 0.0
H737 H 0.7648 0.12629 0.28855 0.0
C738 C 0.49366 0.14757 0.25658 0.0
C739 C 0.49794 0.12438 0.29942 0.0
C740 C 0.46947 0.13584 0.3996 0.0
C741 C 0.46416 0.15816 0.35586 0.0
N742 N 0.46442 0.17918 0.23805 0.0
N743 N 0.48549 0.09251 0.40835 0.0
C744 C 0.4744 0.1623 0.28301 0.0
C745 C 0.48428 0.11722 0.3698 0.0
N746 N 0.50862 0.1561 0.19083 0.0
N747 N 0.46207 0.13378 0.47067 0.0
H748 H 0.49743 0.07962 0.38966 0.0
H749 H 0.47274 0.08311 0.45643 0.0
H750 H 0.45121 0.14681 0.49424 0.0
H751 H 0.46883 0.12117 0.5074 0.0
H752 H 0.51016 0.17584 0.16032 0.0
H753 H 0.52155 0.14481 0.16855 0.0
H754 H 0.46784 0.18015 0.18308 0.0
H755 H 0.44966 0.18949 0.25473 0.0
C756 C 0.89474 0.32079 0.29224 0.0
C757 C 0.87818 0.31488 0.35969 0.0
C758 C 0.89639 0.37558 0.36605 0.0
C759 C 0.90902 0.3807 0.29461 0.0
N760 N 0.91563 0.35617 0.18639 0.0
N761 N 0.85981 0.33624 0.45695 0.0
C762 C 0.9072 0.35277 0.25702 0.0
C763 C 0.87788 0.34215 0.39514 0.0
N764 N 0.89867 0.29584 0.26153 0.0
N765 N 0.90384 0.4028 0.40825 0.0
H766 H 0.84759 0.31269 0.48206 0.0
H767 H 0.85504 0.35408 0.48062 0.0
H768 H 0.91872 0.4277 0.39128 0.0
H769 H 0.89859 0.40088 0.46264 0.0
H770 H 0.91358 0.29958 0.2165 0.0
H771 H 0.88946 0.27208 0.28453 0.0
H772 H 0.91138 0.33596 0.15388 0.0
H773 H 0.92396 0.37867 0.15837 0.0
C774 C 0.682 0.52638 0.29175 0.0
C775 C 0.66279 0.54287 0.28226 0.0
C776 C 0.71135 0.59389 0.335 0.0
C777 C 0.7272 0.57502 0.35644 0.0
N778 N 0.71728 0.51818 0.37492 0.0
N779 N 0.65756 0.59135 0.31706 0.0
C780 C 0.70947 0.53975 0.34071 0.0
C781 C 0.67691 0.57639 0.31013 0.0
N782 N 0.67498 0.4984 0.25284 0.0
N783 N 0.72885 0.62839 0.33505 0.0
H784 H 0.63179 0.57927 0.30582 0.0
H785 H 0.66634 0.61447 0.34285 0.0
H786 H 0.75439 0.64286 0.34757 0.0
H787 H 0.71881 0.6426 0.31386 0.0
H788 H 0.68988 0.487 0.25571 0.0
H789 H 0.65764 0.4897 0.21105 0.0
H790 H 0.70343 0.49207 0.36725 0.0
H791 H 0.73367 0.52553 0.41826 0.0
C792 C 0.58626 0.88232 0.73268 0.0
C793 C 0.59094 0.88274 0.6574 0.0
C794 C 0.55777 0.91175 0.64467 0.0
C795 C 0.55785 0.91592 0.72003 0.0
N796 N 0.57397 0.9067 0.83588 0.0
N797 N 0.58264 0.8997 0.54154 0.0
C798 C 0.57249 0.90147 0.76402 0.0
C799 C 0.57665 0.89754 0.61322 0.0
N800 N 0.59402 0.86259 0.77425 0.0
N801 N 0.53955 0.92139 0.603 0.0
H802 H 0.59585 0.88926 0.51694 0.0
H803 H 0.57658 0.9137 0.50707 0.0
H804 H 0.52579 0.93202 0.6239 0.0
H805 H 0.53566 0.91626 0.54876 0.0
H806 H 0.58835 0.85856 0.82836 0.0
H807 H 0.60296 0.84735 0.75322 0.0
H808 H 0.588 0.90058 0.87021 0.0
H809 H 0.56271 0.91909 0.86073 0.0
C810 C 0.16448 0.70861 0.67689 0.0
C811 C 0.16282 0.71307 0.60209 0.0
C812 C 0.13239 0.65108 0.58831 0.0
C813 C 0.1288 0.6467 0.66369 0.0
N814 N 0.14046 0.6718 0.78023 0.0
N815 N 0.14415 0.68826 0.48643 0.0
C816 C 0.1451 0.67561 0.7082 0.0
C817 C 0.14665 0.68415 0.55777 0.0
N818 N 0.18458 0.73604 0.71818 0.0
N819 N 0.1229 0.62348 0.5458 0.0
H820 H 0.15588 0.71199 0.46203 0.0
H821 H 0.12905 0.66842 0.45227 0.0
H822 H 0.11353 0.59916 0.56629 0.0
H823 H 0.12756 0.62504 0.49122 0.0
H824 H 0.18947 0.73438 0.77168 0.0
H825 H 0.19889 0.76032 0.69725 0.0
H826 H 0.14804 0.69196 0.8153 0.0
H827 H 0.12694 0.6482 0.8047 0.0
C828 C 0.38218 0.4938 0.62614 0.0
C829 C 0.38619 0.48566 0.69757 0.0
C830 C 0.32529 0.44257 0.7007 0.0
C831 C 0.32132 0.45019 0.62875 0.0
N832 N 0.34427 0.48773 0.52857 0.0
N833 N 0.36009 0.4584 0.80767 0.0
C834 C 0.34921 0.47753 0.59356 0.0
C835 C 0.35716 0.46192 0.73619 0.0
N836 N 0.41026 0.51561 0.5878 0.0
N837 N 0.29869 0.41611 0.73485 0.0
H838 H 0.38298 0.47252 0.83468 0.0
H839 H 0.33959 0.44416 0.84137 0.0
H840 H 0.2745 0.40266 0.71314 0.0
H841 H 0.30081 0.40626 0.78325 0.0
H842 H 0.41014 0.51951 0.53324 0.0
H843 H 0.43434 0.52866 0.61013 0.0
H844 H 0.36239 0.50954 0.50276 0.0
H845 H 0.32091 0.47563 0.50267 0.0
C846 C 0.13055 0.45051 0.6099 0.0
C847 C 0.16182 0.4555 0.63731 0.0
C848 C 0.15821 0.49143 0.73218 0.0
C849 C 0.12612 0.4849 0.70693 0.0
N850 N 0.07709 0.44767 0.63665 0.0
N851 N 0.19789 0.47102 0.74123 0.0
C852 C 0.11075 0.46103 0.65069 0.0
C853 C 0.17359 0.47329 0.70319 0.0
N854 N 0.12027 0.43732 0.54337 0.0
N855 N 0.17399 0.51461 0.78505 0.0
H856 H 0.20753 0.45552 0.72628 0.0
H857 H 0.20517 0.48087 0.79233 0.0
H858 H 0.16239 0.52606 0.81232 0.0
H859 H 0.19918 0.52357 0.79925 0.0
H860 H 0.0995 0.43643 0.51813 0.0
H861 H 0.1345 0.43075 0.51034 0.0
H862 H 0.06414 0.42844 0.59965 0.0
H863 H 0.06125 0.45251 0.66838 0.0
C864 C 0.54575 0.67974 0.72789 0.0
C865 C 0.54763 0.65292 0.69424 0.0
C866 C 0.57837 0.69132 0.59317 0.0
C867 C 0.57864 0.71891 0.62927 0.0
N868 N 0.56928 0.74002 0.74067 0.0
N869 N 0.57023 0.6345 0.59899 0.0
C870 C 0.56403 0.71324 0.69914 0.0
C871 C 0.56559 0.65926 0.62845 0.0
N872 N 0.52629 0.67331 0.78783 0.0
N873 N 0.58838 0.69502 0.52347 0.0
H874 H 0.56035 0.61052 0.62132 0.0
H875 H 0.58612 0.63849 0.55558 0.0
H876 H 0.59673 0.71744 0.49513 0.0
H877 H 0.58537 0.67508 0.49154 0.0
H878 H 0.5199 0.69045 0.80916 0.0
H879 H 0.51466 0.64999 0.81383 0.0
H880 H 0.56283 0.73776 0.79446 0.0
H881 H 0.58357 0.76509 0.72473 0.0
C882 C 0.35467 0.88683 0.59024 0.0
C883 C 0.32529 0.87618 0.6332 0.0
C884 C 0.36187 0.89803 0.74009 0.0
C885 C 0.39128 0.90936 0.69678 0.0
N886 N 0.4161 0.91971 0.57937 0.0
N887 N 0.30067 0.87421 0.74801 0.0
C888 C 0.38773 0.90517 0.62147 0.0
C889 C 0.32892 0.88273 0.70784 0.0
N890 N 0.35091 0.87836 0.51968 0.0
N891 N 0.36536 0.90041 0.8125 0.0
H892 H 0.27627 0.86111 0.72719 0.0
H893 H 0.30124 0.88155 0.80067 0.0
H894 H 0.38892 0.91189 0.83758 0.0
H895 H 0.34515 0.88946 0.84824 0.0
H896 H 0.37072 0.88141 0.48683 0.0
H897 H 0.32735 0.86619 0.49457 0.0
H898 H 0.41556 0.92123 0.52415 0.0
H899 H 0.44057 0.93284 0.59995 0.0
loop_
_geom_bond_atom_site_label_1
_geom_bond_atom_site_label_2
_geom_bond_distance
_geom_bond_site_symmetry_2
_ccdc_geom_bond_type
Co0 O1 2.216 . S
Co0 O2 2.091 . S
Co0 O4 2.004 . S
Co0 O10 2.021 1_554 S
Co0 O12 2.137 . S
Co0 O13 2.244 . S
O1 Co0 2.216 . S
O1 C8 1.247 . S
O2 Co0 2.091 . S
O2 C8 1.261 . S
C3 O12 1.247 . S
C3 O13 1.272 . S
O4 Co0 2.004 . S
O4 C9 1.259 . S
Co5 O6 2.061 . S
Co5 O11 2.052 1_554 S
Co5 O13 2.135 . S
O6 Co5 2.061 . S
O6 C9 1.235 . S
C7 O10 1.238 . S
C7 O11 1.241 . S
C8 O1 1.247 . S
C8 O2 1.261 . S
C9 O4 1.259 . S
C9 O6 1.235 . S
O10 Co0 2.021 1_556 S
O10 C7 1.238 . S
O11 Co5 2.052 1_556 S
O11 C7 1.241 . S
O12 Co0 2.137 . S
O12 C3 1.247 . S
O13 Co0 2.244 . S
O13 C3 1.272 . S
O13 Co5 2.135 . S
Co14 O15 2.216 . S
Co14 O16 2.091 . S
Co14 O18 2.004 . S
Co14 O24 2.021 1_554 S
Co14 O26 2.137 . S
Co14 O27 2.244 . S
O15 Co14 2.216 . S
O15 C22 1.247 . S
O16 Co14 2.091 . S
O16 C22 1.261 . S
C17 O26 1.247 . S
C17 O27 1.272 . S
O18 Co14 2.004 . S
O18 C23 1.259 . S
Co19 O20 2.061 . S
Co19 O25 2.052 1_554 S
Co19 O27 2.135 . S
O20 Co19 2.061 . S
O20 C23 1.235 . S
C21 O24 1.238 . S
C21 O25 1.241 . S
C22 O15 1.247 . S
C22 O16 1.261 . S
C23 O18 1.259 . S
C23 O20 1.235 . S
O24 Co14 2.021 1_556 S
O24 C21 1.238 . S
O25 Co19 2.052 1_556 S
O25 C21 1.241 . S
O26 Co14 2.137 . S
O26 C17 1.247 . S
O27 Co14 2.244 . S
O27 C17 1.272 . S
O27 Co19 2.135 . S
Co28 O29 2.216 . S
Co28 O30 2.091 . S
Co28 O32 2.004 . S
Co28 O38 2.021 1_554 S
Co28 O40 2.137 . S
Co28 O41 2.244 . S
O29 Co28 2.216 . S
O29 C36 1.247 . S
O30 Co28 2.091 . S
O30 C36 1.261 . S
C31 O40 1.247 . S
C31 O41 1.272 . S
O32 Co28 2.004 . S
O32 C37 1.259 . S
Co33 O34 2.061 . S
Co33 O39 2.052 1_554 S
Co33 O41 2.135 . S
O34 Co33 2.061 . S
O34 C37 1.235 . S
C35 O38 1.238 . S
C35 O39 1.241 . S
C36 O29 1.247 . S
C36 O30 1.261 . S
C37 O32 1.259 . S
C37 O34 1.235 . S
O38 Co28 2.021 1_556 S
O38 C35 1.238 . S
O39 Co33 2.052 1_556 S
O39 C35 1.241 . S
O40 Co28 2.137 . S
O40 C31 1.247 . S
O41 Co28 2.244 . S
O41 C31 1.272 . S
O41 Co33 2.135 . S
Co42 O43 2.216 . S
Co42 O44 2.091 . S
Co42 O46 2.004 . S
Co42 O52 2.021 1_556 S
Co42 O54 2.137 . S
Co42 O55 2.244 . S
O43 Co42 2.216 . S
O43 C50 1.247 . S
O44 Co42 2.091 . S
O44 C50 1.261 . S
C45 O54 1.247 . S
C45 O55 1.272 . S
O46 Co42 2.004 . S
O46 C51 1.259 . S
Co47 O48 2.061 . S
Co47 O53 2.052 1_556 S
Co47 O55 2.135 . S
O48 Co47 2.061 . S
O48 C51 1.235 . S
C49 O52 1.238 . S
C49 O53 1.241 . S
C50 O43 1.247 . S
C50 O44 1.261 . S
C51 O46 1.259 . S
C51 O48 1.235 . S
O52 Co42 2.021 1_554 S
O52 C49 1.238 . S
O53 Co47 2.052 1_554 S
O53 C49 1.241 . S
O54 Co42 2.137 . S
O54 C45 1.247 . S
O55 Co42 2.244 . S
O55 C45 1.272 . S
O55 Co47 2.135 . S
Co56 O57 2.216 . S
Co56 O58 2.091 . S
Co56 O60 2.004 . S
Co56 O66 2.021 1_556 S
Co56 O68 2.137 . S
Co56 O69 2.244 . S
O57 Co56 2.216 . S
O57 C64 1.247 . S
O58 Co56 2.091 . S
O58 C64 1.261 . S
C59 O68 1.247 . S
C59 O69 1.272 . S
O60 Co56 2.004 . S
O60 C65 1.259 . S
Co61 O62 2.061 . S
Co61 O67 2.052 1_556 S
Co61 O69 2.135 . S
O62 Co61 2.061 . S
O62 C65 1.235 . S
C63 O66 1.238 . S
C63 O67 1.241 . S
C64 O57 1.247 . S
C64 O58 1.261 . S
C65 O60 1.259 . S
C65 O62 1.235 . S
O66 Co56 2.021 1_554 S
O66 C63 1.238 . S
O67 Co61 2.052 1_554 S
O67 C63 1.241 . S
O68 Co56 2.137 . S
O68 C59 1.247 . S
O69 Co56 2.244 . S
O69 C59 1.272 . S
O69 Co61 2.135 . S
Co70 O71 2.216 . S
Co70 O72 2.091 . S
Co70 O74 2.004 . S
Co70 O80 2.021 1_556 S
Co70 O82 2.137 . S
Co70 O83 2.244 . S
O71 Co70 2.216 . S
O71 C78 1.247 . S
O72 Co70 2.091 . S
O72 C78 1.261 . S
C73 O82 1.247 . S
C73 O83 1.272 . S
O74 Co70 2.004 . S
O74 C79 1.259 . S
Co75 O76 2.061 . S
Co75 O81 2.052 1_556 S
Co75 O83 2.135 . S
O76 Co75 2.061 . S
O76 C79 1.235 . S
C77 O80 1.238 . S
C77 O81 1.241 . S
C78 O71 1.247 . S
C78 O72 1.261 . S
C79 O74 1.259 . S
C79 O76 1.235 . S
O80 Co70 2.021 1_554 S
O80 C77 1.238 . S
O81 Co75 2.052 1_554 S
O81 C77 1.241 . S
O82 Co70 2.137 . S
O82 C73 1.247 . S
O83 Co70 2.244 . S
O83 C73 1.272 . S
O83 Co75 2.135 . S
Co84 O85 2.216 . S
Co84 O86 2.091 . S
Co84 O88 2.004 . S
Co84 O94 2.021 . S
Co84 O96 2.137 . S
Co84 O97 2.244 . S
O85 Co84 2.216 . S
O85 C92 1.247 . S
O86 Co84 2.091 . S
O86 C92 1.261 . S
C87 O96 1.247 . S
C87 O97 1.272 . S
O88 Co84 2.004 . S
O88 C93 1.259 . S
Co89 O90 2.061 . S
Co89 O95 2.052 . S
Co89 O97 2.135 . S
O90 Co89 2.061 . S
O90 C93 1.235 . S
C91 O94 1.238 . S
C91 O95 1.241 . S
C92 O85 1.247 . S
C92 O86 1.261 . S
C93 O88 1.259 . S
C93 O90 1.235 . S
O94 Co84 2.021 . S
O94 C91 1.238 . S
O95 Co89 2.052 . S
O95 C91 1.241 . S
O96 Co84 2.137 . S
O96 C87 1.247 . S
O97 Co84 2.244 . S
O97 C87 1.272 . S
O97 Co89 2.135 . S
Co98 O99 2.216 . S
Co98 O100 2.091 . S
Co98 O102 2.004 . S
Co98 O108 2.021 . S
Co98 O110 2.137 . S
Co98 O111 2.244 . S
O99 Co98 2.216 . S
O99 C106 1.247 . S
O100 Co98 2.091 . S
O100 C106 1.261 . S
C101 O110 1.247 . S
C101 O111 1.272 . S
O102 Co98 2.004 . S
O102 C107 1.259 . S
Co103 O104 2.061 . S
Co103 O109 2.052 . S
Co103 O111 2.135 . S
O104 Co103 2.061 . S
O104 C107 1.235 . S
C105 O108 1.238 . S
C105 O109 1.241 . S
C106 O99 1.247 . S
C106 O100 1.261 . S
C107 O102 1.259 . S
C107 O104 1.235 . S
O108 Co98 2.021 . S
O108 C105 1.238 . S
O109 Co103 2.052 . S
O109 C105 1.241 . S
O110 Co98 2.137 . S
O110 C101 1.247 . S
O111 Co98 2.244 . S
O111 C101 1.272 . S
O111 Co103 2.135 . S
Co112 O113 2.216 . S
Co112 O114 2.091 . S
Co112 O116 2.004 . S
Co112 O122 2.021 . S
Co112 O124 2.137 . S
Co112 O125 2.244 . S
O113 Co112 2.216 . S
O113 C120 1.247 . S
O114 Co112 2.091 . S
O114 C120 1.261 . S
C115 O124 1.247 . S
C115 O125 1.272 . S
O116 Co112 2.004 . S
O116 C121 1.259 . S
Co117 O118 2.061 . S
Co117 O123 2.052 . S
Co117 O125 2.135 . S
O118 Co117 2.061 . S
O118 C121 1.235 . S
C119 O122 1.238 . S
C119 O123 1.241 . S
C120 O113 1.247 . S
C120 O114 1.261 . S
C121 O116 1.259 . S
C121 O118 1.235 . S
O122 Co112 2.021 . S
O122 C119 1.238 . S
O123 Co117 2.052 . S
O123 C119 1.241 . S
O124 Co112 2.137 . S
O124 C115 1.247 . S
O125 Co112 2.244 . S
O125 C115 1.272 . S
O125 Co117 2.135 . S
Co126 O127 2.216 . S
Co126 O128 2.091 . S
Co126 O130 2.004 . S
Co126 O136 2.021 . S
Co126 O138 2.137 . S
Co126 O139 2.244 . S
O127 Co126 2.216 . S
O127 C134 1.247 . S
O128 Co126 2.091 . S
O128 C134 1.261 . S
C129 O138 1.247 . S
C129 O139 1.272 . S
O130 Co126 2.004 . S
O130 C135 1.259 . S
Co131 O132 2.061 1_455 S
Co131 O137 2.052 . S
Co131 O139 2.135 1_455 S
O132 Co131 2.061 1_655 S
O132 C135 1.235 . S
C133 O136 1.238 . S
C133 O137 1.241 1_655 S
C134 O127 1.247 . S
C134 O128 1.261 . S
C135 O130 1.259 . S
C135 O132 1.235 . S
O136 Co126 2.021 . S
O136 C133 1.238 . S
O137 Co131 2.052 . S
O137 C133 1.241 1_455 S
O138 Co126 2.137 . S
O138 C129 1.247 . S
O139 Co126 2.244 . S
O139 C129 1.272 . S
O139 Co131 2.135 1_655 S
Co140 O141 2.216 . S
Co140 O142 2.091 . S
Co140 O144 2.004 . S
Co140 O150 2.021 . S
Co140 O152 2.137 . S
Co140 O153 2.244 . S
O141 Co140 2.216 . S
O141 C148 1.247 . S
O142 Co140 2.091 . S
O142 C148 1.261 . S
C143 O152 1.247 . S
C143 O153 1.272 . S
O144 Co140 2.004 . S
O144 C149 1.259 . S
Co145 O146 2.061 . S
Co145 O151 2.052 . S
Co145 O153 2.135 . S
O146 Co145 2.061 . S
O146 C149 1.235 . S
C147 O150 1.238 . S
C147 O151 1.241 . S
C148 O141 1.247 . S
C148 O142 1.261 . S
C149 O144 1.259 . S
C149 O146 1.235 . S
O150 Co140 2.021 . S
O150 C147 1.238 . S
O151 Co145 2.052 . S
O151 C147 1.241 . S
O152 Co140 2.137 . S
O152 C143 1.247 . S
O153 Co140 2.244 . S
O153 C143 1.272 . S
O153 Co145 2.135 . S
Co154 O155 2.216 . S
Co154 O156 2.091 . S
Co154 O158 2.004 . S
Co154 O164 2.021 . S
Co154 O166 2.137 . S
Co154 O167 2.244 . S
O155 Co154 2.216 . S
O155 C162 1.247 . S
O156 Co154 2.091 . S
O156 C162 1.261 . S
C157 O166 1.247 . S
C157 O167 1.272 . S
O158 Co154 2.004 . S
O158 C163 1.259 . S
Co159 O160 2.061 1_565 S
Co159 O165 2.052 . S
Co159 O167 2.135 1_565 S
O160 Co159 2.061 1_545 S
O160 C163 1.235 . S
C161 O164 1.238 . S
C161 O165 1.241 1_545 S
C162 O155 1.247 . S
C162 O156 1.261 . S
C163 O158 1.259 . S
C163 O160 1.235 . S
O164 Co154 2.021 . S
O164 C161 1.238 . S
O165 Co159 2.052 . S
O165 C161 1.241 1_565 S
O166 Co154 2.137 . S
O166 C157 1.247 . S
O167 Co154 2.244 . S
O167 C157 1.272 . S
O167 Co159 2.135 1_545 S
Co168 O169 2.216 . S
Co168 O170 2.091 . S
Co168 O172 2.004 . S
Co168 O178 2.021 . S
Co168 O180 2.137 . S
Co168 O181 2.244 . S
O169 Co168 2.216 . S
O169 C176 1.247 . S
O170 Co168 2.091 . S
O170 C176 1.261 . S
C171 O180 1.247 . S
C171 O181 1.272 . S
O172 Co168 2.004 . S
O172 C177 1.259 . S
Co173 O174 2.061 1_545 S
Co173 O179 2.052 . S
Co173 O181 2.135 1_545 S
O174 Co173 2.061 1_565 S
O174 C177 1.235 . S
C175 O178 1.238 . S
C175 O179 1.241 1_565 S
C176 O169 1.247 . S
C176 O170 1.261 . S
C177 O172 1.259 . S
C177 O174 1.235 . S
O178 Co168 2.021 . S
O178 C175 1.238 . S
O179 Co173 2.052 . S
O179 C175 1.241 1_545 S
O180 Co168 2.137 . S
O180 C171 1.247 . S
O181 Co168 2.244 . S
O181 C171 1.272 . S
O181 Co173 2.135 1_565 S
Co182 O183 2.216 . S
Co182 O184 2.091 . S
Co182 O186 2.004 . S
Co182 O192 2.021 . S
Co182 O194 2.137 . S
Co182 O195 2.244 . S
O183 Co182 2.216 . S
O183 C190 1.247 . S
O184 Co182 2.091 . S
O184 C190 1.261 . S
C185 O194 1.247 . S
C185 O195 1.272 . S
O186 Co182 2.004 . S
O186 C191 1.259 . S
Co187 O188 2.061 1_655 S
Co187 O193 2.052 . S
Co187 O195 2.135 1_655 S
O188 Co187 2.061 1_455 S
O188 C191 1.235 . S
C189 O192 1.238 . S
C189 O193 1.241 1_455 S
C190 O183 1.247 . S
C190 O184 1.261 . S
C191 O186 1.259 . S
C191 O188 1.235 . S
O192 Co182 2.021 . S
O192 C189 1.238 . S
O193 Co187 2.052 . S
O193 C189 1.241 1_655 S
O194 Co182 2.137 . S
O194 C185 1.247 . S
O195 Co182 2.244 . S
O195 C185 1.272 . S
O195 Co187 2.135 1_455 S
Co196 O197 2.216 . S
Co196 O198 2.091 . S
Co196 O200 2.004 . S
Co196 O206 2.021 . S
Co196 O208 2.137 . S
Co196 O209 2.244 . S
O197 Co196 2.216 . S
O197 C204 1.247 . S
O198 Co196 2.091 . S
O198 C204 1.261 . S
C199 O208 1.247 . S
C199 O209 1.272 . S
O200 Co196 2.004 . S
O200 C205 1.259 . S
Co201 O202 2.061 . S
Co201 O207 2.052 . S
Co201 O209 2.135 . S
O202 Co201 2.061 . S
O202 C205 1.235 . S
C203 O206 1.238 . S
C203 O207 1.241 . S
C204 O197 1.247 . S
C204 O198 1.261 . S
C205 O200 1.259 . S
C205 O202 1.235 . S
O206 Co196 2.021 . S
O206 C203 1.238 . S
O207 Co201 2.052 . S
O207 C203 1.241 . S
O208 Co196 2.137 . S
O208 C199 1.247 . S
O209 Co196 2.244 . S
O209 C199 1.272 . S
O209 Co201 2.135 . S
Co210 O211 2.216 . S
Co210 O212 2.091 . S
Co210 O214 2.004 . S
Co210 O220 2.021 . S
Co210 O222 2.137 . S
Co210 O223 2.244 . S
O211 Co210 2.216 . S
O211 C218 1.247 . S
O212 Co210 2.091 . S
O212 C218 1.261 . S
C213 O222 1.247 . S
C213 O223 1.272 . S
O214 Co210 2.004 . S
O214 C219 1.259 . S
Co215 O216 2.061 . S
Co215 O221 2.052 . S
Co215 O223 2.135 . S
O216 Co215 2.061 . S
O216 C219 1.235 . S
C217 O220 1.238 . S
C217 O221 1.241 . S
C218 O211 1.247 . S
C218 O212 1.261 . S
C219 O214 1.259 . S
C219 O216 1.235 . S
O220 Co210 2.021 . S
O220 C217 1.238 . S
O221 Co215 2.052 . S
O221 C217 1.241 . S
O222 Co210 2.137 . S
O222 C213 1.247 . S
O223 Co210 2.244 . S
O223 C213 1.272 . S
O223 Co215 2.135 . S
Co224 O225 2.216 . S
Co224 O226 2.091 . S
Co224 O228 2.004 . S
Co224 O234 2.021 . S
Co224 O236 2.137 . S
Co224 O237 2.244 . S
O225 Co224 2.216 . S
O225 C232 1.247 . S
O226 Co224 2.091 . S
O226 C232 1.261 . S
C227 O236 1.247 . S
C227 O237 1.272 . S
O228 Co224 2.004 . S
O228 C233 1.259 . S
Co229 O230 2.061 . S
Co229 O235 2.052 . S
Co229 O237 2.135 . S
O230 Co229 2.061 . S
O230 C233 1.235 . S
C231 O234 1.238 . S
C231 O235 1.241 . S
C232 O225 1.247 . S
C232 O226 1.261 . S
C233 O228 1.259 . S
C233 O230 1.235 . S
O234 Co224 2.021 . S
O234 C231 1.238 . S
O235 Co229 2.052 . S
O235 C231 1.241 . S
O236 Co224 2.137 . S
O236 C227 1.247 . S
O237 Co224 2.244 . S
O237 C227 1.272 . S
O237 Co229 2.135 . S
Co238 O239 2.216 . S
Co238 O240 2.091 . S
Co238 O242 2.004 . S
Co238 O248 2.021 . S
Co238 O250 2.137 . S
Co238 O251 2.244 . S
O239 Co238 2.216 . S
O239 C246 1.247 . S
O240 Co238 2.091 . S
O240 C246 1.261 . S
C241 O250 1.247 . S
C241 O251 1.272 . S
O242 Co238 2.004 . S
O242 C247 1.259 . S
Co243 O244 2.061 . S
Co243 O249 2.052 . S
Co243 O251 2.135 . S
O244 Co243 2.061 . S
O244 C247 1.235 . S
C245 O248 1.238 . S
C245 O249 1.241 . S
C246 O239 1.247 . S
C246 O240 1.261 . S
C247 O242 1.259 . S
C247 O244 1.235 . S
O248 Co238 2.021 . S
O248 C245 1.238 . S
O249 Co243 2.052 . S
O249 C245 1.241 . S
O250 Co238 2.137 . S
O250 C241 1.247 . S
O251 Co238 2.244 . S
O251 C241 1.272 . S
O251 Co243 2.135 . S
C252 C253 1.363 . S
C252 C258 1.379 . S
C252 N260 1.356 . S
C253 C252 1.363 . S
C253 C259 1.363 . S
C254 C255 1.363 . S
C254 C259 1.379 . S
C254 N261 1.356 . S
C255 C254 1.363 . S
C255 C258 1.363 . S
N256 C258 1.356 . S
N256 H268 0.984 . S
N256 H269 0.985 . S
N257 C259 1.356 . S
N257 H262 0.984 . S
N257 H263 0.985 . S
C258 C252 1.379 . S
C258 C255 1.363 . S
C258 N256 1.356 . S
C259 C253 1.363 . S
C259 C254 1.379 . S
C259 N257 1.356 . S
N260 C252 1.356 . S
N260 H266 0.984 . S
N260 H267 0.984 . S
N261 C254 1.356 . S
N261 H264 0.984 . S
N261 H265 0.985 . S
H262 N257 0.984 . S
H263 N257 0.985 . S
H264 N261 0.984 . S
H265 N261 0.985 . S
H266 N260 0.984 . S
H267 N260 0.984 . S
H268 N256 0.984 . S
H269 N256 0.985 . S
C270 C271 1.363 . S
C270 C276 1.379 . S
C270 N278 1.356 . S
C271 C270 1.363 . S
C271 C277 1.363 . S
C272 C273 1.363 . S
C272 C277 1.379 . S
C272 N279 1.356 . S
C273 C272 1.363 . S
C273 C276 1.363 . S
N274 C276 1.356 . S
N274 H286 0.984 . S
N274 H287 0.985 . S
N275 C277 1.356 . S
N275 H280 0.984 . S
N275 H281 0.985 . S
C276 C270 1.379 . S
C276 C273 1.363 . S
C276 N274 1.356 . S
C277 C271 1.363 . S
C277 C272 1.379 . S
C277 N275 1.356 . S
N278 C270 1.356 . S
N278 H284 0.984 . S
N278 H285 0.984 . S
N279 C272 1.356 . S
N279 H282 0.984 . S
N279 H283 0.985 . S
H280 N275 0.984 . S
H281 N275 0.985 . S
H282 N279 0.984 . S
H283 N279 0.985 . S
H284 N278 0.984 . S
H285 N278 0.984 . S
H286 N274 0.984 . S
H287 N274 0.985 . S
C288 C289 1.363 . S
C288 C294 1.379 . S
C288 N296 1.356 . S
C289 C288 1.363 . S
C289 C295 1.363 . S
C290 C291 1.363 . S
C290 C295 1.379 . S
C290 N297 1.356 . S
C291 C290 1.363 . S
C291 C294 1.363 . S
N292 C294 1.356 . S
N292 H304 0.984 . S
N292 H305 0.985 . S
N293 C295 1.356 . S
N293 H298 0.984 . S
N293 H299 0.985 . S
C294 C288 1.379 . S
C294 C291 1.363 . S
C294 N292 1.356 . S
C295 C289 1.363 . S
C295 C290 1.379 . S
C295 N293 1.356 . S
N296 C288 1.356 . S
N296 H302 0.984 . S
N296 H303 0.984 . S
N297 C290 1.356 . S
N297 H300 0.984 . S
N297 H301 0.985 . S
H298 N293 0.984 . S
H299 N293 0.985 . S
H300 N297 0.984 . S
H301 N297 0.985 . S
H302 N296 0.984 . S
H303 N296 0.984 . S
H304 N292 0.984 . S
H305 N292 0.985 . S
C306 C307 1.363 . S
C306 C312 1.379 . S
C306 N314 1.356 . S
C307 C306 1.363 . S
C307 C313 1.363 . S
C308 C309 1.363 . S
C308 C313 1.379 . S
C308 N315 1.356 . S
C309 C308 1.363 . S
C309 C312 1.363 . S
N310 C312 1.356 . S
N310 H322 0.984 . S
N310 H323 0.985 . S
N311 C313 1.356 . S
N311 H316 0.984 . S
N311 H317 0.985 . S
C312 C306 1.379 . S
C312 C309 1.363 . S
C312 N310 1.356 . S
C313 C307 1.363 . S
C313 C308 1.379 . S
C313 N311 1.356 . S
N314 C306 1.356 . S
N314 H320 0.984 . S
N314 H321 0.984 . S
N315 C308 1.356 . S
N315 H318 0.984 . S
N315 H319 0.985 . S
H316 N311 0.984 . S
H317 N311 0.985 . S
H318 N315 0.984 . S
H319 N315 0.985 . S
H320 N314 0.984 . S
H321 N314 0.984 . S
H322 N310 0.984 . S
H323 N310 0.985 . S
C324 C325 1.363 . S
C324 C330 1.379 . S
C324 N332 1.356 . S
C325 C324 1.363 . S
C325 C331 1.363 . S
C326 C327 1.363 . S
C326 C331 1.379 . S
C326 N333 1.356 . S
C327 C326 1.363 . S
C327 C330 1.363 . S
N328 C330 1.356 . S
N328 H340 0.984 . S
N328 H341 0.985 . S
N329 C331 1.356 . S
N329 H334 0.984 . S
N329 H335 0.985 . S
C330 C324 1.379 . S
C330 C327 1.363 . S
C330 N328 1.356 . S
C331 C325 1.363 . S
C331 C326 1.379 . S
C331 N329 1.356 . S
N332 C324 1.356 . S
N332 H338 0.984 . S
N332 H339 0.984 . S
N333 C326 1.356 . S
N333 H336 0.984 . S
N333 H337 0.985 . S
H334 N329 0.984 . S
H335 N329 0.985 . S
H336 N333 0.984 . S
H337 N333 0.985 . S
H338 N332 0.984 . S
H339 N332 0.984 . S
H340 N328 0.984 . S
H341 N328 0.985 . S
C342 C343 1.363 . S
C342 C348 1.379 . S
C342 N350 1.356 . S
C343 C342 1.363 . S
C343 C349 1.363 . S
C344 C345 1.363 . S
C344 C349 1.379 . S
C344 N351 1.356 . S
C345 C344 1.363 . S
C345 C348 1.363 . S
N346 C348 1.356 . S
N346 H358 0.984 . S
N346 H359 0.985 . S
N347 C349 1.356 . S
N347 H352 0.984 . S
N347 H353 0.985 . S
C348 C342 1.379 . S
C348 C345 1.363 . S
C348 N346 1.356 . S
C349 C343 1.363 . S
C349 C344 1.379 . S
C349 N347 1.356 . S
N350 C342 1.356 . S
N350 H356 0.984 . S
N350 H357 0.984 . S
N351 C344 1.356 . S
N351 H354 0.984 . S
N351 H355 0.985 . S
H352 N347 0.984 . S
H353 N347 0.985 . S
H354 N351 0.984 . S
H355 N351 0.985 . S
H356 N350 0.984 . S
H357 N350 0.984 . S
H358 N346 0.984 . S
H359 N346 0.985 . S
C360 C361 1.363 . S
C360 C366 1.379 1_654 S
C360 N368 1.356 . S
C361 C360 1.363 . S
C361 C367 1.363 . S
C362 C363 1.363 . S
C362 C367 1.379 1_456 S
C362 N369 1.356 . S
C363 C362 1.363 . S
C363 C366 1.363 . S
N364 C366 1.356 . S
N364 H376 0.984 . S
N364 H377 0.985 . S
N365 C367 1.356 . S
N365 H370 0.984 . S
N365 H371 1.007 . S
C366 C360 1.379 1_456 S
C366 C363 1.363 . S
C366 N364 1.356 . S
C367 C361 1.363 . S
C367 C362 1.379 1_654 S
C367 N365 1.356 . S
N368 C360 1.356 . S
N368 H374 0.984 . S
N368 H375 0.984 . S
N369 C362 1.356 . S
N369 H372 0.984 . S
N369 H373 0.985 . S
H370 N365 0.984 . S
H371 N365 1.007 . S
H372 N369 0.984 . S
H373 N369 0.985 . S
H374 N368 0.984 . S
H375 N368 0.984 . S
H376 N364 0.984 . S
H377 N364 0.985 . S
C378 C379 1.363 . S
C378 C384 1.379 1_554 S
C378 N386 1.356 . S
C379 C378 1.363 . S
C379 C385 1.363 . S
C380 C381 1.363 . S
C380 C385 1.379 1_556 S
C380 N387 1.356 . S
C381 C380 1.363 . S
C381 C384 1.363 . S
N382 C384 1.356 . S
N382 H394 0.984 . S
N382 H395 0.985 . S
N383 C385 1.356 . S
N383 H388 0.984 . S
N383 H389 0.985 . S
C384 C378 1.379 1_556 S
C384 C381 1.363 . S
C384 N382 1.356 . S
C385 C379 1.363 . S
C385 C380 1.379 1_554 S
C385 N383 1.356 . S
N386 C378 1.356 . S
N386 H392 0.984 . S
N386 H393 0.984 . S
N387 C380 1.356 . S
N387 H390 0.984 . S
N387 H391 0.985 . S
H388 N383 0.984 . S
H389 N383 0.985 . S
H390 N387 0.984 . S
H391 N387 0.985 . S
H392 N386 0.984 . S
H393 N386 0.984 . S
H394 N382 0.984 . S
H395 N382 0.985 . S
C396 C397 1.363 . S
C396 C402 1.379 1_554 S
C396 N404 1.356 . S
C397 C396 1.363 . S
C397 C403 1.363 1_545 S
C398 C399 1.363 . S
C398 C403 1.379 1_556 S
C398 N405 1.356 . S
C399 C398 1.363 . S
C399 C402 1.363 1_565 S
N400 C402 1.356 . S
N400 H412 0.984 . S
N400 H413 0.985 . S
N401 C403 1.356 . S
N401 H406 0.984 . S
N401 H407 0.985 . S
C402 C396 1.379 1_556 S
C402 C399 1.363 1_545 S
C402 N400 1.356 . S
C403 C397 1.363 1_565 S
C403 C398 1.379 1_554 S
C403 N401 1.356 . S
N404 C396 1.356 . S
N404 H410 0.984 . S
N404 H411 0.984 . S
N405 C398 1.356 . S
N405 H408 0.984 . S
N405 H409 0.985 . S
H406 N401 0.984 . S
H407 N401 0.985 . S
H408 N405 0.984 . S
H409 N405 0.985 . S
H410 N404 0.984 . S
H411 N404 0.984 . S
H412 N400 0.984 . S
H413 N400 0.985 . S
C414 C415 1.363 . S
C414 C420 1.379 . S
C414 N422 1.356 . S
C415 C414 1.363 . S
C415 C421 1.363 . S
C416 C417 1.363 . S
C416 C421 1.379 . S
C416 N423 1.356 . S
C417 C416 1.363 . S
C417 C420 1.363 . S
N418 C420 1.356 . S
N418 H430 0.984 . S
N418 H431 0.985 . S
N419 C421 1.356 . S
N419 H424 0.984 . S
N419 H425 0.985 . S
C420 C414 1.379 . S
C420 C417 1.363 . S
C420 N418 1.356 . S
C421 C415 1.363 . S
C421 C416 1.379 . S
C421 N419 1.356 . S
N422 C414 1.356 . S
N422 H428 0.984 . S
N422 H429 0.984 . S
N423 C416 1.356 . S
N423 H426 0.984 . S
N423 H427 0.985 . S
H424 N419 0.984 . S
H425 N419 0.985 . S
H426 N423 0.984 . S
H427 N423 0.985 . S
H428 N422 0.984 . S
H429 N422 0.984 . S
H430 N418 0.984 . S
H431 N418 0.985 . S
C432 C433 1.363 . S
C432 C438 1.379 . S
C432 N440 1.356 . S
C433 C432 1.363 . S
C433 C439 1.363 . S
C434 C435 1.363 . S
C434 C439 1.379 . S
C434 N441 1.356 . S
C435 C434 1.363 . S
C435 C438 1.363 . S
N436 C438 1.356 . S
N436 H448 0.984 . S
N436 H449 0.985 . S
N437 C439 1.356 . S
N437 H442 0.984 . S
N437 H443 0.985 . S
C438 C432 1.379 . S
C438 C435 1.363 . S
C438 N436 1.356 . S
C439 C433 1.363 . S
C439 C434 1.379 . S
C439 N437 1.356 . S
N440 C432 1.356 . S
N440 H446 0.984 . S
N440 H447 0.984 . S
N441 C434 1.356 . S
N441 H444 0.984 . S
N441 H445 0.985 . S
H442 N437 0.984 . S
H443 N437 0.985 . S
H444 N441 0.984 . S
H445 N441 0.985 . S
H446 N440 0.984 . S
H447 N440 0.984 . S
H448 N436 0.984 . S
H449 N436 0.985 . S
C450 C451 1.363 . S
C450 C456 1.379 . S
C450 N458 1.356 . S
C451 C450 1.363 . S
C451 C457 1.363 . S
C452 C453 1.363 . S
C452 C457 1.379 . S
C452 N459 1.356 . S
C453 C452 1.363 . S
C453 C456 1.363 . S
N454 C456 1.356 . S
N454 H466 0.984 . S
N454 H467 0.985 . S
N455 C457 1.356 . S
N455 H460 0.984 . S
N455 H461 0.985 . S
C456 C450 1.379 . S
C456 C453 1.363 . S
C456 N454 1.356 . S
C457 C451 1.363 . S
C457 C452 1.379 . S
C457 N455 1.356 . S
N458 C450 1.356 . S
N458 H464 0.984 . S
N458 H465 0.984 . S
N459 C452 1.356 . S
N459 H462 0.984 . S
N459 H463 0.985 . S
H460 N455 0.984 . S
H461 N455 0.985 . S
H462 N459 0.984 . S
H463 N459 0.985 . S
H464 N458 0.984 . S
H465 N458 0.984 . S
H466 N454 0.984 . S
H467 N454 0.985 . S
C468 C469 1.363 . S
C468 C474 1.379 . S
C468 N476 1.356 . S
C469 C468 1.363 . S
C469 C475 1.363 . S
C470 C471 1.363 . S
C470 C475 1.379 . S
C470 N477 1.356 . S
C471 C470 1.363 . S
C471 C474 1.363 . S
N472 C474 1.356 . S
N472 H484 0.984 . S
N472 H485 0.985 . S
N473 C475 1.356 . S
N473 H478 0.984 . S
N473 H479 0.985 . S
C474 C468 1.379 . S
C474 C471 1.363 . S
C474 N472 1.356 . S
C475 C469 1.363 . S
C475 C470 1.379 . S
C475 N473 1.356 . S
N476 C468 1.356 . S
N476 H482 0.984 . S
N476 H483 0.984 . S
N477 C470 1.356 . S
N477 H480 0.984 . S
N477 H481 0.985 . S
H478 N473 0.984 . S
H479 N473 0.985 . S
H480 N477 0.984 . S
H481 N477 0.985 . S
H482 N476 0.984 . S
H483 N476 0.984 . S
H484 N472 0.984 . S
H485 N472 0.985 . S
C486 C487 1.363 . S
C486 C492 1.379 . S
C486 N494 1.356 . S
C487 C486 1.363 . S
C487 C493 1.363 . S
C488 C489 1.363 . S
C488 C493 1.379 . S
C488 N495 1.356 . S
C489 C488 1.363 . S
C489 C492 1.363 . S
N490 C492 1.356 . S
N490 H502 0.984 . S
N490 H503 0.985 . S
N491 C493 1.356 . S
N491 H496 0.984 . S
N491 H497 0.985 . S
C492 C486 1.379 . S
C492 C489 1.363 . S
C492 N490 1.356 . S
C493 C487 1.363 . S
C493 C488 1.379 . S
C493 N491 1.356 . S
N494 C486 1.356 . S
N494 H500 0.984 . S
N494 H501 0.984 . S
N495 C488 1.356 . S
N495 H498 0.984 . S
N495 H499 0.985 . S
H496 N491 0.984 . S
H497 N491 0.985 . S
H498 N495 0.984 . S
H499 N495 0.985 . S
H500 N494 0.984 . S
H501 N494 0.984 . S
H502 N490 0.984 . S
H503 N490 0.985 . S
C504 C505 1.363 . S
C504 C510 1.379 . S
C504 N512 1.356 . S
C505 C504 1.363 . S
C505 C511 1.363 . S
C506 C507 1.363 . S
C506 C511 1.379 . S
C506 N513 1.356 . S
C507 C506 1.363 . S
C507 C510 1.363 . S
N508 C510 1.356 . S
N508 H520 0.984 . S
N508 H521 0.985 . S
N509 C511 1.356 . S
N509 H514 0.984 . S
N509 H515 0.985 . S
C510 C504 1.379 . S
C510 C507 1.363 . S
C510 N508 1.356 . S
C511 C505 1.363 . S
C511 C506 1.379 . S
C511 N509 1.356 . S
N512 C504 1.356 . S
N512 H518 0.984 . S
N512 H519 0.984 . S
N513 C506 1.356 . S
N513 H516 0.984 . S
N513 H517 0.985 . S
H514 N509 0.984 . S
H515 N509 0.985 . S
H516 N513 0.984 . S
H517 N513 0.985 . S
H518 N512 0.984 . S
H519 N512 0.984 . S
H520 N508 0.984 . S
H521 N508 0.985 . S
C522 C523 1.363 . S
C522 C528 1.379 . S
C522 N530 1.356 . S
C523 C522 1.363 . S
C523 C529 1.363 1_655 S
C524 C525 1.363 . S
C524 C529 1.379 . S
C524 N531 1.356 . S
C525 C524 1.363 . S
C525 C528 1.363 1_455 S
N526 C528 1.356 . S
N526 H538 0.984 . S
N526 H539 0.985 . S
N527 C529 1.356 . S
N527 H532 0.984 . S
N527 H533 0.985 . S
C528 C522 1.379 . S
C528 C525 1.363 1_655 S
C528 N526 1.356 . S
C529 C523 1.363 1_455 S
C529 C524 1.379 . S
C529 N527 1.356 . S
N530 C522 1.356 . S
N530 H536 0.984 . S
N530 H537 0.984 . S
N531 C524 1.356 . S
N531 H534 0.984 . S
N531 H535 0.985 . S
H532 N527 0.984 . S
H533 N527 0.985 . S
H534 N531 0.984 . S
H535 N531 0.985 . S
H536 N530 0.984 . S
H537 N530 0.984 . S
H538 N526 0.984 . S
H539 N526 0.985 . S
C540 C541 1.363 . S
C540 C546 1.379 . S
C540 N548 1.356 . S
C541 C540 1.363 . S
C541 C547 1.363 . S
C542 C543 1.363 . S
C542 C547 1.379 . S
C542 N549 1.356 . S
C543 C542 1.363 . S
C543 C546 1.363 . S
N544 C546 1.356 . S
N544 H556 0.984 . S
N544 H557 0.985 . S
N545 C547 1.356 . S
N545 H550 0.984 . S
N545 H551 0.985 . S
C546 C540 1.379 . S
C546 C543 1.363 . S
C546 N544 1.356 . S
C547 C541 1.363 . S
C547 C542 1.379 . S
C547 N545 1.356 . S
N548 C540 1.356 . S
N548 H554 0.984 . S
N548 H555 0.984 . S
N549 C542 1.356 . S
N549 H552 0.984 . S
N549 H553 0.985 . S
H550 N545 0.984 . S
H551 N545 0.985 . S
H552 N549 0.984 . S
H553 N549 0.985 . S
H554 N548 0.984 . S
H555 N548 0.984 . S
H556 N544 0.984 . S
H557 N544 0.985 . S
C558 C559 1.363 1_545 S
C558 C564 1.379 . S
C558 N566 1.356 . S
C559 C558 1.363 1_565 S
C559 C565 1.363 . S
C560 C561 1.363 1_565 S
C560 C565 1.379 . S
C560 N567 1.356 . S
C561 C560 1.363 1_545 S
C561 C564 1.363 . S
N562 C564 1.356 . S
N562 H574 0.984 . S
N562 H575 0.985 . S
N563 C565 1.356 . S
N563 H568 0.984 . S
N563 H569 0.985 . S
C564 C558 1.379 . S
C564 C561 1.363 . S
C564 N562 1.356 . S
C565 C559 1.363 . S
C565 C560 1.379 . S
C565 N563 1.356 . S
N566 C558 1.356 . S
N566 H572 0.984 . S
N566 H573 0.984 . S
N567 C560 1.356 . S
N567 H570 0.984 . S
N567 H571 0.985 . S
H568 N563 0.984 . S
H569 N563 0.985 . S
H570 N567 0.984 . S
H571 N567 0.985 . S
H572 N566 0.984 . S
H573 N566 0.984 . S
H574 N562 0.984 . S
H575 N562 0.985 . S
C576 C577 1.363 . S
C576 C582 1.379 . S
C576 N584 1.356 . S
C577 C576 1.363 . S
C577 C583 1.363 1_554 S
C578 C579 1.363 . S
C578 C583 1.379 . S
C578 N585 1.356 . S
C579 C578 1.363 . S
C579 C582 1.363 1_556 S
N580 C582 1.356 . S
N580 H592 0.984 . S
N580 H593 0.985 . S
N581 C583 1.356 . S
N581 H586 0.984 . S
N581 H587 0.985 . S
C582 C576 1.379 . S
C582 C579 1.363 1_554 S
C582 N580 1.356 . S
C583 C577 1.363 1_556 S
C583 C578 1.379 . S
C583 N581 1.356 . S
N584 C576 1.356 . S
N584 H590 0.984 . S
N584 H591 0.984 . S
N585 C578 1.356 . S
N585 H588 0.984 . S
N585 H589 0.985 . S
H586 N581 0.984 . S
H587 N581 0.985 . S
H588 N585 0.984 . S
H589 N585 0.985 . S
H590 N584 0.984 . S
H591 N584 0.984 . S
H592 N580 0.984 . S
H593 N580 0.985 . S
C594 C595 1.363 1_554 S
C594 C600 1.379 1_545 S
C594 N602 1.356 . S
C595 C594 1.363 1_556 S
C595 C601 1.363 . S
C596 C597 1.363 1_556 S
C596 C601 1.379 1_565 S
C596 N603 1.356 . S
C597 C596 1.363 1_554 S
C597 C600 1.363 . S
N598 C600 1.356 . S
N598 H610 0.984 . S
N598 H611 0.985 . S
N599 C601 1.356 . S
N599 H604 0.984 . S
N599 H605 0.985 . S
C600 C594 1.379 1_565 S
C600 C597 1.363 . S
C600 N598 1.356 . S
C601 C595 1.363 . S
C601 C596 1.379 1_545 S
C601 N599 1.356 . S
N602 C594 1.356 . S
N602 H608 0.984 . S
N602 H609 0.984 . S
N603 C596 1.356 . S
N603 H606 0.984 . S
N603 H607 0.985 . S
H604 N599 0.984 . S
H605 N599 0.985 . S
H606 N603 0.984 . S
H607 N603 0.985 . S
H608 N602 0.984 . S
H609 N602 0.984 . S
H610 N598 0.984 . S
H611 N598 0.985 . S
C612 C613 1.363 1_554 S
C612 C618 1.379 1_655 S
C612 N620 1.356 . S
C613 C612 1.363 1_556 S
C613 C619 1.363 . S
C614 C615 1.363 1_556 S
C614 C619 1.379 1_455 S
C614 N621 1.356 . S
C615 C614 1.363 1_554 S
C615 C618 1.363 . S
N616 C618 1.356 . S
N616 H628 0.984 . S
N616 H629 0.985 . S
N617 C619 1.356 . S
N617 H622 0.984 . S
N617 H623 0.985 . S
C618 C612 1.379 1_455 S
C618 C615 1.363 . S
C618 N616 1.356 . S
C619 C613 1.363 . S
C619 C614 1.379 1_655 S
C619 N617 1.356 . S
N620 C612 1.356 . S
N620 H626 0.984 . S
N620 H627 0.984 . S
N621 C614 1.356 . S
N621 H624 0.984 . S
N621 H625 0.985 . S
H622 N617 0.984 . S
H623 N617 0.985 . S
H624 N621 0.984 . S
H625 N621 0.985 . S
H626 N620 0.984 . S
H627 N620 0.984 . S
H628 N616 0.984 . S
H629 N616 0.985 . S
C630 C631 1.363 1_554 S
C630 C636 1.379 . S
C630 N638 1.356 . S
C631 C630 1.363 1_556 S
C631 C637 1.363 . S
C632 C633 1.363 1_556 S
C632 C637 1.379 . S
C632 N639 1.356 . S
C633 C632 1.363 1_554 S
C633 C636 1.363 . S
N634 C636 1.356 . S
N634 H646 0.984 . S
N634 H647 0.985 . S
N635 C637 1.356 . S
N635 H640 0.984 . S
N635 H641 0.985 . S
C636 C630 1.379 . S
C636 C633 1.363 . S
C636 N634 1.356 . S
C637 C631 1.363 . S
C637 C632 1.379 . S
C637 N635 1.356 . S
N638 C630 1.356 . S
N638 H644 0.984 . S
N638 H645 0.984 1_554 S
N639 C632 1.356 . S
N639 H642 0.984 1_556 S
N639 H643 0.985 . S
H640 N635 0.984 . S
H641 N635 0.985 . S
H642 N639 0.984 1_554 S
H643 N639 0.985 . S
H644 N638 0.984 . S
H645 N638 0.984 1_556 S
H646 N634 0.984 . S
H647 N634 0.985 . S
C648 C649 1.363 1_556 S
C648 C654 1.379 1_565 S
C648 N656 1.356 . S
C649 C648 1.363 1_554 S
C649 C655 1.363 . S
C650 C651 1.363 1_554 S
C650 C655 1.379 1_545 S
C650 N657 1.356 . S
C651 C650 1.363 1_556 S
C651 C654 1.363 . S
N652 C654 1.356 . S
N652 H664 0.984 . S
N652 H665 0.985 . S
N653 C655 1.356 . S
N653 H658 0.984 . S
N653 H659 0.985 . S
C654 C648 1.379 1_545 S
C654 C651 1.363 . S
C654 N652 1.356 . S
C655 C649 1.363 . S
C655 C650 1.379 1_565 S
C655 N653 1.356 . S
N656 C648 1.356 . S
N656 H662 0.984 . S
N656 H663 0.984 . S
N657 C650 1.356 . S
N657 H660 0.984 . S
N657 H661 0.985 . S
H658 N653 0.984 . S
H659 N653 0.985 . S
H660 N657 0.984 . S
H661 N657 0.985 . S
H662 N656 0.984 . S
H663 N656 0.984 . S
H664 N652 0.984 . S
H665 N652 0.985 . S
C666 C667 1.363 . S
C666 C672 1.379 1_655 S
C666 N674 1.356 . S
C667 C666 1.363 . S
C667 C673 1.363 1_556 S
C668 C669 1.363 . S
C668 C673 1.379 1_455 S
C668 N675 1.356 . S
C669 C668 1.363 . S
C669 C672 1.363 1_554 S
N670 C672 1.356 . S
N670 H682 0.984 . S
N670 H683 0.985 . S
N671 C673 1.356 . S
N671 H676 0.984 . S
N671 H677 0.985 . S
C672 C666 1.379 1_455 S
C672 C669 1.363 1_556 S
C672 N670 1.356 . S
C673 C667 1.363 1_554 S
C673 C668 1.379 1_655 S
C673 N671 1.356 . S
N674 C666 1.356 . S
N674 H680 0.984 . S
N674 H681 0.984 . S
N675 C668 1.356 . S
N675 H678 0.984 . S
N675 H679 0.985 . S
H676 N671 0.984 . S
H677 N671 0.985 . S
H678 N675 0.984 . S
H679 N675 0.985 . S
H680 N674 0.984 . S
H681 N674 0.984 . S
H682 N670 0.984 . S
H683 N670 0.985 . S
C684 C685 1.363 . S
C684 C690 1.379 . S
C684 N692 1.356 . S
C685 C684 1.363 . S
C685 C691 1.363 . S
C686 C687 1.363 . S
C686 C691 1.379 . S
C686 N693 1.356 . S
C687 C686 1.363 . S
C687 C690 1.363 . S
N688 C690 1.356 . S
N688 H700 0.984 . S
N688 H701 0.985 . S
N689 C691 1.356 . S
N689 H694 0.984 . S
N689 H695 0.985 . S
C690 C684 1.379 . S
C690 C687 1.363 . S
C690 N688 1.356 . S
C691 C685 1.363 . S
C691 C686 1.379 . S
C691 N689 1.356 . S
N692 C684 1.356 . S
N692 H698 0.984 . S
N692 H699 0.984 . S
N693 C686 1.356 . S
N693 H696 0.984 . S
N693 H697 0.985 . S
H694 N689 0.984 . S
H695 N689 0.985 . S
H696 N693 0.984 . S
H697 N693 0.985 . S
H698 N692 0.984 . S
H699 N692 0.984 . S
H700 N688 0.984 . S
H701 N688 0.985 . S
C702 C703 1.363 . S
C702 C708 1.379 . S
C702 N710 1.356 . S
C703 C702 1.363 . S
C703 C709 1.363 . S
C704 C705 1.363 . S
C704 C709 1.379 . S
C704 N711 1.356 . S
C705 C704 1.363 . S
C705 C708 1.363 . S
N706 C708 1.356 . S
N706 H718 0.984 . S
N706 H719 0.985 . S
N707 C709 1.356 . S
N707 H712 0.984 . S
N707 H713 0.985 . S
C708 C702 1.379 . S
C708 C705 1.363 . S
C708 N706 1.356 . S
C709 C703 1.363 . S
C709 C704 1.379 . S
C709 N707 1.356 . S
N710 C702 1.356 . S
N710 H716 0.984 . S
N710 H717 0.984 . S
N711 C704 1.356 . S
N711 H714 0.984 . S
N711 H715 0.985 . S
H712 N707 0.984 . S
H713 N707 0.985 . S
H714 N711 0.984 . S
H715 N711 0.985 . S
H716 N710 0.984 . S
H717 N710 0.984 . S
H718 N706 0.984 . S
H719 N706 0.985 . S
C720 C721 1.363 . S
C720 C726 1.379 . S
C720 N728 1.356 . S
C721 C720 1.363 . S
C721 C727 1.363 . S
C722 C723 1.363 . S
C722 C727 1.379 . S
C722 N729 1.356 . S
C723 C722 1.363 . S
C723 C726 1.363 . S
N724 C726 1.356 . S
N724 H736 0.984 . S
N724 H737 0.985 . S
N725 C727 1.356 . S
N725 H730 0.984 . S
N725 H731 0.985 . S
C726 C720 1.379 . S
C726 C723 1.363 . S
C726 N724 1.356 . S
C727 C721 1.363 . S
C727 C722 1.379 . S
C727 N725 1.356 . S
N728 C720 1.356 . S
N728 H734 0.984 . S
N728 H735 0.984 . S
N729 C722 1.356 . S
N729 H732 0.984 . S
N729 H733 0.985 . S
H730 N725 0.984 . S
H731 N725 0.985 . S
H732 N729 0.984 . S
H733 N729 0.985 . S
H734 N728 0.984 . S
H735 N728 0.984 . S
H736 N724 0.984 . S
H737 N724 0.985 . S
C738 C739 1.363 . S
C738 C744 1.379 . S
C738 N746 1.356 . S
C739 C738 1.363 . S
C739 C745 1.363 . S
C740 C741 1.363 . S
C740 C745 1.379 . S
C740 N747 1.356 . S
C741 C740 1.363 . S
C741 C744 1.363 . S
N742 C744 1.356 . S
N742 H754 0.984 . S
N742 H755 0.985 . S
N743 C745 1.356 . S
N743 H748 0.984 . S
N743 H749 0.985 . S
C744 C738 1.379 . S
C744 C741 1.363 . S
C744 N742 1.356 . S
C745 C739 1.363 . S
C745 C740 1.379 . S
C745 N743 1.356 . S
N746 C738 1.356 . S
N746 H752 0.984 . S
N746 H753 0.984 . S
N747 C740 1.356 . S
N747 H750 0.984 . S
N747 H751 0.985 . S
H748 N743 0.984 . S
H749 N743 0.985 . S
H750 N747 0.984 . S
H751 N747 0.985 . S
H752 N746 0.984 . S
H753 N746 0.984 . S
H754 N742 0.984 . S
H755 N742 0.985 . S
C756 C757 1.363 . S
C756 C762 1.379 . S
C756 N764 1.356 . S
C757 C756 1.363 . S
C757 C763 1.363 . S
C758 C759 1.363 . S
C758 C763 1.379 . S
C758 N765 1.356 . S
C759 C758 1.363 . S
C759 C762 1.363 . S
N760 C762 1.356 . S
N760 H772 0.984 . S
N760 H773 0.985 . S
N761 C763 1.356 . S
N761 H766 0.984 . S
N761 H767 0.985 . S
C762 C756 1.379 . S
C762 C759 1.363 . S
C762 N760 1.356 . S
C763 C757 1.363 . S
C763 C758 1.379 . S
C763 N761 1.356 . S
N764 C756 1.356 . S
N764 H770 0.984 . S
N764 H771 0.984 . S
N765 C758 1.356 . S
N765 H768 0.984 . S
N765 H769 0.985 . S
H766 N761 0.984 . S
H767 N761 0.985 . S
H768 N765 0.984 . S
H769 N765 0.985 . S
H770 N764 0.984 . S
H771 N764 0.984 . S
H772 N760 0.984 . S
H773 N760 0.985 . S
C774 C775 1.363 . S
C774 C780 1.379 . S
C774 N782 1.356 . S
C775 C774 1.363 . S
C775 C781 1.363 . S
C776 C777 1.363 . S
C776 C781 1.379 . S
C776 N783 1.356 . S
C777 C776 1.363 . S
C777 C780 1.363 . S
N778 C780 1.356 . S
N778 H790 0.984 . S
N778 H791 0.985 . S
N779 C781 1.356 . S
N779 H784 0.984 . S
N779 H785 0.985 . S
C780 C774 1.379 . S
C780 C777 1.363 . S
C780 N778 1.356 . S
C781 C775 1.363 . S
C781 C776 1.379 . S
C781 N779 1.356 . S
N782 C774 1.356 . S
N782 H788 0.984 . S
N782 H789 0.984 . S
N783 C776 1.356 . S
N783 H786 0.984 . S
N783 H787 0.985 . S
H784 N779 0.984 . S
H785 N779 0.985 . S
H786 N783 0.984 . S
H787 N783 0.985 . S
H788 N782 0.984 . S
H789 N782 0.984 . S
H790 N778 0.984 . S
H791 N778 0.985 . S
C792 C793 1.363 . S
C792 C798 1.379 . S
C792 N800 1.356 . S
C793 C792 1.363 . S
C793 C799 1.363 . S
C794 C795 1.363 . S
C794 C799 1.379 . S
C794 N801 1.356 . S
C795 C794 1.363 . S
C795 C798 1.363 . S
N796 C798 1.356 . S
N796 H808 0.984 . S
N796 H809 0.985 . S
N797 C799 1.356 . S
N797 H802 0.984 . S
N797 H803 0.985 . S
C798 C792 1.379 . S
C798 C795 1.363 . S
C798 N796 1.356 . S
C799 C793 1.363 . S
C799 C794 1.379 . S
C799 N797 1.356 . S
N800 C792 1.356 . S
N800 H806 0.984 . S
N800 H807 0.984 . S
N801 C794 1.356 . S
N801 H804 0.984 . S
N801 H805 0.985 . S
H802 N797 0.984 . S
H803 N797 0.985 . S
H804 N801 0.984 . S
H805 N801 0.985 . S
H806 N800 0.984 . S
H807 N800 0.984 . S
H808 N796 0.984 . S
H809 N796 0.985 . S
C810 C811 1.363 . S
C810 C816 1.379 . S
C810 N818 1.356 . S
C811 C810 1.363 . S
C811 C817 1.363 . S
C812 C813 1.363 . S
C812 C817 1.379 . S
C812 N819 1.356 . S
C813 C812 1.363 . S
C813 C816 1.363 . S
N814 C816 1.356 . S
N814 H826 0.984 . S
N814 H827 0.985 . S
N815 C817 1.356 . S
N815 H820 0.984 . S
N815 H821 0.985 . S
C816 C810 1.379 . S
C816 C813 1.363 . S
C816 N814 1.356 . S
C817 C811 1.363 . S
C817 C812 1.379 . S
C817 N815 1.356 . S
N818 C810 1.356 . S
N818 H824 0.984 . S
N818 H825 0.984 . S
N819 C812 1.356 . S
N819 H822 0.984 . S
N819 H823 0.985 . S
H820 N815 0.984 . S
H821 N815 0.985 . S
H822 N819 0.984 . S
H823 N819 0.985 . S
H824 N818 0.984 . S
H825 N818 0.984 . S
H826 N814 0.984 . S
H827 N814 0.985 . S
C828 C829 1.363 . S
C828 C834 1.379 . S
C828 N836 1.356 . S
C829 C828 1.363 . S
C829 C835 1.363 . S
C830 C831 1.363 . S
C830 C835 1.379 . S
C830 N837 1.356 . S
C831 C830 1.363 . S
C831 C834 1.363 . S
N832 C834 1.356 . S
N832 H844 0.984 . S
N832 H845 0.985 . S
N833 C835 1.356 . S
N833 H838 0.984 . S
N833 H839 0.985 . S
C834 C828 1.379 . S
C834 C831 1.363 . S
C834 N832 1.356 . S
C835 C829 1.363 . S
C835 C830 1.379 . S
C835 N833 1.356 . S
N836 C828 1.356 . S
N836 H842 0.984 . S
N836 H843 0.984 . S
N837 C830 1.356 . S
N837 H840 0.984 . S
N837 H841 0.985 . S
H838 N833 0.984 . S
H839 N833 0.985 . S
H840 N837 0.984 . S
H841 N837 0.985 . S
H842 N836 0.984 . S
H843 N836 0.984 . S
H844 N832 0.984 . S
H845 N832 0.985 . S
C846 C847 1.363 . S
C846 C852 1.379 . S
C846 N854 1.356 . S
C847 C846 1.363 . S
C847 C853 1.363 . S
C848 C849 1.363 . S
C848 C853 1.379 . S
C848 N855 1.356 . S
C849 C848 1.363 . S
C849 C852 1.363 . S
N850 C852 1.356 . S
N850 H862 0.984 . S
N850 H863 0.985 . S
N851 C853 1.356 . S
N851 H856 0.984 . S
N851 H857 0.985 . S
C852 C846 1.379 . S
C852 C849 1.363 . S
C852 N850 1.356 . S
C853 C847 1.363 . S
C853 C848 1.379 . S
C853 N851 1.356 . S
N854 C846 1.356 . S
N854 H860 0.984 . S
N854 H861 0.984 . S
N855 C848 1.356 . S
N855 H858 0.984 . S
N855 H859 0.985 . S
H856 N851 0.984 . S
H857 N851 0.985 . S
H858 N855 0.984 . S
H859 N855 0.985 . S
H860 N854 0.984 . S
H861 N854 0.984 . S
H862 N850 0.984 . S
H863 N850 0.985 . S
C864 C865 1.363 . S
C864 C870 1.379 . S
C864 N872 1.356 . S
C865 C864 1.363 . S
C865 C871 1.363 . S
C866 C867 1.363 . S
C866 C871 1.379 . S
C866 N873 1.356 . S
C867 C866 1.363 . S
C867 C870 1.363 . S
N868 C870 1.356 . S
N868 H880 0.984 . S
N868 H881 0.985 . S
N869 C871 1.356 . S
N869 H874 0.984 . S
N869 H875 0.985 . S
C870 C864 1.379 . S
C870 C867 1.363 . S
C870 N868 1.356 . S
C871 C865 1.363 . S
C871 C866 1.379 . S
C871 N869 1.356 . S
N872 C864 1.356 . S
N872 H878 0.984 . S
N872 H879 0.984 . S
N873 C866 1.356 . S
N873 H876 0.984 . S
N873 H877 0.985 . S
H874 N869 0.984 . S
H875 N869 0.985 . S
H876 N873 0.984 . S
H877 N873 0.985 . S
H878 N872 0.984 . S
H879 N872 0.984 . S
H880 N868 0.984 . S
H881 N868 0.985 . S
C882 C883 1.363 . S
C882 C888 1.379 . S
C882 N890 1.356 . S
C883 C882 1.363 . S
C883 C889 1.363 . S
C884 C885 1.363 . S
C884 C889 1.379 . S
C884 N891 1.356 . S
C885 C884 1.363 . S
C885 C888 1.363 . S
N886 C888 1.356 . S
N886 H898 0.984 . S
N886 H899 0.985 . S
N887 C889 1.356 . S
N887 H892 0.984 . S
N887 H893 0.985 . S
C888 C882 1.379 . S
C888 C885 1.363 . S
C888 N886 1.356 . S
C889 C883 1.363 . S
C889 C884 1.379 . S
C889 N887 1.356 . S
N890 C882 1.356 . S
N890 H896 0.984 . S
N890 H897 0.984 . S
N891 C884 1.356 . S
N891 H894 0.984 . S
N891 H895 0.985 . S
H892 N887 0.984 . S
H893 N887 0.985 . S
H894 N891 0.984 . S
H895 N891 0.985 . S
H896 N890 0.984 . S
H897 N890 0.984 . S
H898 N886 0.984 . S
H899 N886 0.985 . S
C253 C241 1.760 . S
C255 C3 1.760 . S
C271 C213 1.760 . S
C273 C17 1.760 . S
C289 C227 1.760 . S
C291 C31 1.760 . S
C307 C101 1.760 . S
C309 C45 1.760 . S
C325 C115 1.760 . S
C327 C59 1.760 . S
C343 C73 1.760 . S
C345 C87 1.760 . S
C361 C129 1.760 . S
C363 C185 1.760 . S
C379 C143 1.760 . S
C381 C199 1.760 . S
C397 C157 1.760 . S
C399 C171 1.760 . S
C415 C7 0.715 . S
C417 C245 0.715 . S
C433 C217 0.716 . S
C435 C21 0.716 . S
C451 C35 0.716 . S
C453 C231 0.716 . S
C469 C105 0.715 . S
C471 C49 0.715 . S
C487 C63 0.716 . S
C489 C119 0.716 . S
C505 C77 0.716 . S
C507 C91 0.716 . S
C523 C133 0.715 . S
C525 C189 0.715 . S
C541 C203 0.716 . S
C543 C147 0.716 . S
C559 C175 0.715 . S
C561 C161 0.715 . S
C577 C9 1.704 . S
C579 C51 1.704 . S
C595 C65 1.703 . S
C597 C23 1.703 . S
C613 C79 1.703 . S
C615 C37 1.703 . S
C631 C78 1.682 . S
C633 C22 1.682 . S
C649 C36 1.682 . S
C651 C50 1.682 . S
C667 C64 1.682 . S
C669 C8 1.682 . S
C685 C93 1.703 . S
C687 C135 1.703 . S
C703 C149 1.703 . S
C705 C107 1.703 . S
C721 C163 1.703 . S
C723 C121 1.703 . S
C739 C162 1.682 . S
C741 C106 1.682 . S
C757 C120 1.682 . S
C759 C134 1.682 . S
C775 C148 1.682 . S
C777 C92 1.682 . S
C793 C219 1.703 . S
C795 C177 1.703 . S
C811 C233 1.703 . S
C813 C191 1.703 . S
C829 C205 1.703 . S
C831 C247 1.703 . S
C847 C246 1.682 . S
C849 C190 1.682 . S
C865 C204 1.682 . S
C867 C218 1.682 . S
C883 C232 1.682 . S
C885 C176 1.682 . S
