# Generated by pormake.
# Topology acs-h, (5)-cn, num edge types: 1
# Building blocks:
#     Node 0, Type 0, BuildingBlock: XOMCOT_clean_sbu_1, # of connection points: 5
#     Node 1, Type 0, BuildingBlock: XOMCOT_clean_sbu_1, # of connection points: 5
#     Node 2, Type 0, BuildingBlock: XOMCOT_clean_sbu_1, # of connection points: 5
#     Node 3, Type 0, BuildingBlock: XOMCOT_clean_sbu_1, # of connection points: 5
#     Node 4, Type 0, BuildingBlock: XOMCOT_clean_sbu_1, # of connection points: 5
#     Node 5, Type 0, BuildingBlock: XOMCOT_clean_sbu_1, # of connection points: 5
#     Node 6, Type 0, BuildingBlock: XOMCOT_clean_sbu_1, # of connection points: 5
#     Node 7, Type 0, BuildingBlock: XOMCOT_clean_sbu_1, # of connection points: 5
#     Node 8, Type 0, BuildingBlock: XOMCOT_clean_sbu_1, # of connection points: 5
#     Node 9, Type 0, BuildingBlock: XOMCOT_clean_sbu_1, # of connection points: 5
#     Node 10, Type 0, BuildingBlock: XOMCOT_clean_sbu_1, # of connection points: 5
#     Node 11, Type 0, BuildingBlock: XOMCOT_clean_sbu_1, # of connection points: 5
#     Edge 12, Type (0, 0), BuildingBlock: ZUJKAS_clean_linker_0, # of connection points: 2
#     Edge 13, Type (0, 0), BuildingBlock: ZUJKAS_clean_linker_0, # of connection points: 2
#     Edge 14, Type (0, 0), BuildingBlock: ZUJKAS_clean_linker_0, # of connection points: 2
#     Edge 15, Type (0, 0), BuildingBlock: ZUJKAS_clean_linker_0, # of connection points: 2
#     Edge 16, Type (0, 0), BuildingBlock: ZUJKAS_clean_linker_0, # of connection points: 2
#     Edge 17, Type (0, 0), BuildingBlock: ZUJKAS_clean_linker_0, # of connection points: 2
#     Edge 18, Type (0, 0), BuildingBlock: ZUJKAS_clean_linker_0, # of connection points: 2
#     Edge 19, Type (0, 0), BuildingBlock: ZUJKAS_clean_linker_0, # of connection points: 2
#     Edge 20, Type (0, 0), BuildingBlock: ZUJKAS_clean_linker_0, # of connection points: 2
#     Edge 21, Type (0, 0), BuildingBlock: ZUJKAS_clean_linker_0, # of connection points: 2
#     Edge 22, Type (0, 0), BuildingBlock: ZUJKAS_clean_linker_0, # of connection points: 2
#     Edge 23, Type (0, 0), BuildingBlock: ZUJKAS_clean_linker_0, # of connection points: 2
#     Edge 24, Type (0, 0), BuildingBlock: ZUJKAS_clean_linker_0, # of connection points: 2
#     Edge 25, Type (0, 0), BuildingBlock: ZUJKAS_clean_linker_0, # of connection points: 2
#     Edge 26, Type (0, 0), BuildingBlock: ZUJKAS_clean_linker_0, # of connection points: 2
#     Edge 27, Type (0, 0), BuildingBlock: ZUJKAS_clean_linker_0, # of connection points: 2
#     Edge 28, Type (0, 0), BuildingBlock: ZUJKAS_clean_linker_0, # of connection points: 2
#     Edge 29, Type (0, 0), BuildingBlock: ZUJKAS_clean_linker_0, # of connection points: 2
#     Edge 30, Type (0, 0), BuildingBlock: ZUJKAS_clean_linker_0, # of connection points: 2
#     Edge 31, Type (0, 0), BuildingBlock: ZUJKAS_clean_linker_0, # of connection points: 2
#     Edge 32, Type (0, 0), BuildingBlock: ZUJKAS_clean_linker_0, # of connection points: 2
#     Edge 33, Type (0, 0), BuildingBlock: ZUJKAS_clean_linker_0, # of connection points: 2
#     Edge 34, Type (0, 0), BuildingBlock: ZUJKAS_clean_linker_0, # of connection points: 2
#     Edge 35, Type (0, 0), BuildingBlock: ZUJKAS_clean_linker_0, # of connection points: 2
#     Edge 36, Type (0, 0), BuildingBlock: ZUJKAS_clean_linker_0, # of connection points: 2
#     Edge 37, Type (0, 0), BuildingBlock: ZUJKAS_clean_linker_0, # of connection points: 2
#     Edge 38, Type (0, 0), BuildingBlock: ZUJKAS_clean_linker_0, # of connection points: 2
#     Edge 39, Type (0, 0), BuildingBlock: ZUJKAS_clean_linker_0, # of connection points: 2
#     Edge 40, Type (0, 0), BuildingBlock: ZUJKAS_clean_linker_0, # of connection points: 2
#     Edge 41, Type (0, 0), BuildingBlock: ZUJKAS_clean_linker_0, # of connection points: 2
# Relax obj value: 0.901
# Max RMSD: 0.275
# Mean RMSD: 0.275
data_MOF--net-acs-h--node1-XOMCOT_clean_sbu_1--edge1-ZUJKAS_clean_linker_0
_symmetry_space_group_name_H-M    P1
_symmetry_Int_Tables_number       1
_symmetry_cell_setting            triclinic
loop_
_symmetry_equiv_pos_as_xyz
'x, y, z'
_cell_length_a     59.285219
_cell_length_b     59.282179
_cell_length_c     49.943307
_cell_angle_alpha  89.984391
_cell_angle_beta   89.988299
_cell_angle_gamma 120.02424
loop_
_atom_site_label
_atom_site_type_symbol
_atom_site_fract_x
_atom_site_fract_y
_atom_site_fract_z
_atom_type_partial_charge
C0 C 0.49924 0.17569 0.0702 0.0
C1 C 0.5253 0.18424 0.06625 0.0
N2 N 0.5344 0.17803 0.0881 0.0
N3 N 0.49204 0.16423 0.09442 0.0
C4 C 0.51384 0.1658 0.10472 0.0
H5 H 0.4863 0.17742 0.05617 0.0
Co6 Co 0.45869 0.14814 0.10883 0.0
C7 C 0.46616 0.13799 0.16666 0.0
O8 O 0.442 0.11932 0.17038 0.0
N9 N 0.42469 0.13179 0.12294 0.0
C10 C 0.38377 0.10306 0.13441 0.0
C11 C 0.4047 0.10726 0.11889 0.0
C12 C 0.41511 0.14219 0.14052 0.0
N13 N 0.39042 0.12513 0.14784 0.0
O14 O 0.46309 0.18157 0.11605 0.0
H15 H 0.40517 0.09285 0.10609 0.0
H16 H 0.42645 0.16147 0.14904 0.0
O17 O 0.47331 0.14915 0.1439 0.0
C18 C 0.45731 0.19316 0.09825 0.0
O19 O 0.44542 0.18044 0.07639 0.0
N20 N 0.45542 0.11614 0.09992 0.0
C21 C 0.45785 0.07525 0.07557 0.0
C22 C 0.46565 0.0819 0.10226 0.0
C23 C 0.4645 0.1026 0.11406 0.0
C24 C 0.44681 0.10929 0.07432 0.0
C25 C 0.44761 0.08872 0.0618 0.0
H26 H 0.47256 0.10846 0.13377 0.0
H27 H 0.44025 0.12064 0.06326 0.0
H28 H 0.51455 0.15736 0.12366 0.0
H29 H 0.53668 0.19438 0.04878 0.0
H30 H 0.36528 0.08513 0.13601 0.0
H31 H 0.47425 0.07241 0.11339 0.0
H32 H 0.44123 0.08409 0.0412 0.0
C33 C 0.82045 0.32023 0.07026 0.0
C34 C 0.81237 0.33749 0.06293 0.0
N35 N 0.82196 0.35711 0.08082 0.0
N36 N 0.83466 0.32876 0.09291 0.0
C37 C 0.83543 0.35139 0.0986 0.0
H38 H 0.81648 0.30283 0.0595 0.0
Co39 Co 0.85112 0.31379 0.11145 0.0
C40 C 0.8496 0.32877 0.16819 0.0
O41 O 0.84736 0.30727 0.17822 0.0
N42 N 0.86813 0.29893 0.12968 0.0
C43 C 0.8959 0.29331 0.15485 0.0
C44 C 0.89124 0.31135 0.14262 0.0
C45 C 0.85949 0.27339 0.13389 0.0
N46 N 0.87582 0.26942 0.14938 0.0
O47 O 0.81779 0.28627 0.12251 0.0
H48 H 0.9034 0.33222 0.14432 0.0
H49 H 0.84077 0.25792 0.12724 0.0
O50 O 0.85157 0.33274 0.14303 0.0
C51 C 0.80435 0.26713 0.10699 0.0
O52 O 0.81526 0.26457 0.08517 0.0
N53 N 0.88297 0.34072 0.09935 0.0
C54 C 0.92368 0.38101 0.07135 0.0
C55 C 0.91726 0.38516 0.0972 0.0
C56 C 0.89672 0.36477 0.11087 0.0
C57 C 0.88995 0.33586 0.07501 0.0
C58 C 0.91031 0.3558 0.06057 0.0
H59 H 0.89135 0.36889 0.13012 0.0
H60 H 0.87863 0.31673 0.06616 0.0
H61 H 0.84571 0.36359 0.11551 0.0
H62 H 0.80079 0.33596 0.04554 0.0
H63 H 0.91218 0.2975 0.16781 0.0
H64 H 0.92686 0.40439 0.10613 0.0
H65 H 0.91482 0.35178 0.04074 0.0
C66 C 0.67654 0.49632 0.06332 0.0
C67 C 0.65824 0.47068 0.05837 0.0
N68 N 0.63976 0.4627 0.07749 0.0
N69 N 0.66958 0.50435 0.08544 0.0
C70 C 0.64702 0.48354 0.09348 0.0
H71 H 0.69391 0.50831 0.0517 0.0
Co72 Co 0.6878 0.5373 0.1003 0.0
C73 C 0.66485 0.53051 0.15611 0.0
O74 O 0.6702 0.55477 0.15849 0.0
N75 N 0.70677 0.57082 0.1146 0.0
C76 C 0.72832 0.61388 0.12007 0.0
C77 C 0.7113 0.59366 0.1039 0.0
C78 C 0.72154 0.57769 0.13692 0.0
N79 N 0.73452 0.60366 0.1409 0.0
O80 O 0.71422 0.53002 0.11085 0.0
H81 H 0.70334 0.59576 0.08525 0.0
H82 H 0.72311 0.56386 0.14981 0.0
O83 O 0.67061 0.52295 0.13453 0.0
C84 C 0.73509 0.53861 0.09733 0.0
O85 O 0.73938 0.55489 0.07754 0.0
N86 N 0.66182 0.54374 0.08811 0.0
C87 C 0.62223 0.54418 0.05866 0.0
C88 C 0.61855 0.53704 0.08575 0.0
C89 C 0.63851 0.53668 0.1001 0.0
C90 C 0.66613 0.55191 0.06216 0.0
C91 C 0.64667 0.55248 0.04707 0.0
H92 H 0.63411 0.52882 0.11999 0.0
H93 H 0.68443 0.55667 0.05274 0.0
H94 H 0.63582 0.48369 0.11049 0.0
H95 H 0.65883 0.45869 0.04235 0.0
H96 H 0.7356 0.63443 0.11675 0.0
H97 H 0.59976 0.52985 0.09528 0.0
H98 H 0.65032 0.55818 0.02621 0.0
C99 C 0.82195 0.49868 0.43106 0.0
C100 C 0.81371 0.47282 0.43573 0.0
N101 N 0.82222 0.46399 0.41549 0.0
N102 N 0.83532 0.50598 0.40786 0.0
C103 C 0.83536 0.48449 0.39895 0.0
H104 H 0.81831 0.51133 0.44369 0.0
Co105 Co 0.84947 0.5388 0.39268 0.0
C106 C 0.86265 0.53214 0.3361 0.0
O107 O 0.8814 0.55647 0.33372 0.0
N108 N 0.86355 0.57234 0.37789 0.0
C109 C 0.88757 0.61475 0.36875 0.0
C110 C 0.88597 0.59451 0.38374 0.0
C111 C 0.85189 0.57975 0.35945 0.0
N112 N 0.86596 0.60537 0.35367 0.0
O113 O 0.81518 0.53155 0.38473 0.0
H114 H 0.90034 0.59625 0.39811 0.0
H115 H 0.83352 0.56647 0.35002 0.0
O116 O 0.85003 0.52417 0.35804 0.0
C117 C 0.80278 0.53791 0.40094 0.0
O118 O 0.8151 0.55243 0.42176 0.0
N119 N 0.88242 0.54489 0.40237 0.0
C120 C 0.92446 0.54603 0.42837 0.0
C121 C 0.91813 0.53676 0.40206 0.0
C122 C 0.89682 0.53605 0.38949 0.0
C123 C 0.88885 0.55481 0.42759 0.0
C124 C 0.91 0.55583 0.44091 0.0
H125 H 0.89112 0.52651 0.3704 0.0
H126 H 0.87671 0.5609 0.43783 0.0
H127 H 0.84442 0.48367 0.38045 0.0
H128 H 0.80247 0.46145 0.45276 0.0
H129 H 0.90311 0.63486 0.36933 0.0
H130 H 0.92827 0.52826 0.39197 0.0
H131 H 0.91424 0.56314 0.46124 0.0
C132 C 0.48963 0.33479 0.43521 0.0
C133 C 0.51517 0.35041 0.44301 0.0
N134 N 0.5301 0.3587 0.42082 0.0
N135 N 0.48854 0.33349 0.40827 0.0
C136 C 0.51349 0.34797 0.40012 0.0
H137 H 0.47283 0.3256 0.44826 0.0
Co138 Co 0.45858 0.31737 0.38757 0.0
C139 C 0.48063 0.33273 0.33347 0.0
O140 O 0.46845 0.30817 0.32608 0.0
N141 N 0.42841 0.30136 0.36699 0.0
C142 C 0.39727 0.2952 0.33824 0.0
C143 C 0.41838 0.31346 0.35242 0.0
C144 C 0.41287 0.2758 0.36168 0.0
N145 N 0.39391 0.27153 0.34402 0.0
O146 O 0.46778 0.29214 0.37708 0.0
H147 H 0.4266 0.33433 0.35122 0.0
H148 H 0.41639 0.26072 0.36919 0.0
O149 O 0.47761 0.33884 0.35714 0.0
C150 C 0.46424 0.27471 0.39409 0.0
O151 O 0.45187 0.27326 0.41644 0.0
N152 N 0.44988 0.34168 0.3996 0.0
C153 C 0.44154 0.37672 0.4287 0.0
C154 C 0.45973 0.3854 0.40776 0.0
C155 C 0.46385 0.36759 0.39362 0.0
C156 C 0.43099 0.33264 0.41875 0.0
C157 C 0.42652 0.34991 0.43369 0.0
H158 H 0.47949 0.375 0.37925 0.0
H159 H 0.42053 0.31208 0.42354 0.0
H160 H 0.51934 0.35152 0.37934 0.0
H161 H 0.52211 0.35553 0.46337 0.0
H162 H 0.38603 0.29914 0.32385 0.0
H163 H 0.47217 0.406 0.40372 0.0
H164 H 0.4124 0.34253 0.44981 0.0
C165 C 0.67432 0.1748 0.42697 0.0
C166 C 0.65781 0.18426 0.43248 0.0
N167 N 0.64236 0.17996 0.41098 0.0
N168 N 0.66937 0.16465 0.40214 0.0
C169 C 0.64983 0.168 0.39297 0.0
H170 H 0.68883 0.17504 0.44027 0.0
Co171 Co 0.68582 0.14867 0.38589 0.0
C172 C 0.66274 0.13504 0.33048 0.0
O173 O 0.66622 0.11494 0.32787 0.0
N174 N 0.70293 0.13262 0.36987 0.0
C175 C 0.71716 0.1056 0.35811 0.0
C176 C 0.70103 0.10931 0.37509 0.0
C177 C 0.72059 0.14273 0.34987 0.0
N178 N 0.7295 0.12674 0.34239 0.0
O179 O 0.71362 0.18213 0.37659 0.0
H180 H 0.68867 0.09555 0.39007 0.0
H181 H 0.72623 0.16117 0.34028 0.0
O182 O 0.66952 0.14834 0.35206 0.0
C183 C 0.7337 0.19425 0.39125 0.0
O184 O 0.73689 0.18205 0.41158 0.0
N185 N 0.6582 0.11664 0.39693 0.0
C186 C 0.61713 0.07678 0.42524 0.0
C187 C 0.61317 0.08372 0.39957 0.0
C188 C 0.63388 0.10393 0.38585 0.0
C189 C 0.66255 0.10968 0.42155 0.0
C190 C 0.64237 0.08956 0.43595 0.0
H191 H 0.6295 0.11037 0.36748 0.0
H192 H 0.68168 0.12065 0.4305 0.0
H193 H 0.6412 0.16175 0.37343 0.0
H194 H 0.65707 0.19321 0.45108 0.0
H195 H 0.71976 0.08879 0.3575 0.0
H196 H 0.59385 0.07497 0.39092 0.0
H197 H 0.64628 0.08483 0.45573 0.0
C198 C 0.49608 0.81539 0.93247 0.0
C199 C 0.47019 0.80649 0.93789 0.0
N200 N 0.46125 0.81707 0.91987 0.0
N201 N 0.50328 0.83128 0.91102 0.0
C202 C 0.48172 0.83207 0.90391 0.0
H203 H 0.50881 0.81045 0.94329 0.0
Co204 Co 0.53592 0.84746 0.89529 0.0
C205 C 0.52756 0.86288 0.84032 0.0
O206 O 0.55158 0.88226 0.83793 0.0
N207 N 0.56932 0.86367 0.87978 0.0
C208 C 0.61137 0.88979 0.87015 0.0
C209 C 0.59088 0.88656 0.88591 0.0
C210 C 0.57731 0.85345 0.86034 0.0
N211 N 0.60272 0.86875 0.85432 0.0
O212 O 0.52984 0.81414 0.88459 0.0
H213 H 0.59205 0.90008 0.90106 0.0
H214 H 0.56466 0.83514 0.85045 0.0
O215 O 0.52036 0.84927 0.86171 0.0
C216 C 0.53893 0.80201 0.89757 0.0
O217 O 0.55538 0.81396 0.91723 0.0
N218 N 0.54092 0.87927 0.9077 0.0
C219 C 0.54131 0.91921 0.93723 0.0
C220 C 0.53226 0.91452 0.91076 0.0
C221 C 0.53195 0.89425 0.89639 0.0
C222 C 0.55064 0.88414 0.93307 0.0
C223 C 0.55122 0.90418 0.94818 0.0
H224 H 0.52276 0.88982 0.87708 0.0
H225 H 0.55698 0.87159 0.94196 0.0
H226 H 0.48085 0.84301 0.88699 0.0
H227 H 0.45889 0.79335 0.95388 0.0
H228 H 0.63118 0.90593 0.87079 0.0
H229 H 0.52374 0.92519 0.90183 0.0
H230 H 0.5584 0.90719 0.96856 0.0
C231 C 0.17279 0.67504 0.92826 0.0
C232 C 0.18073 0.65736 0.93416 0.0
N233 N 0.17324 0.64003 0.91395 0.0
N234 N 0.16042 0.66882 0.90448 0.0
C235 C 0.16084 0.64732 0.89637 0.0
H236 H 0.17585 0.69139 0.94048 0.0
Co237 Co 0.14559 0.68618 0.88788 0.0
C238 C 0.13377 0.66455 0.83159 0.0
O239 O 0.11524 0.67017 0.82745 0.0
N240 N 0.13067 0.7042 0.87161 0.0
C241 C 0.10439 0.71921 0.85956 0.0
C242 C 0.10744 0.70258 0.87643 0.0
C243 C 0.14148 0.72228 0.85207 0.0
N244 N 0.12591 0.73162 0.84437 0.0
O245 O 0.17962 0.71345 0.87925 0.0
H246 H 0.09331 0.69006 0.89107 0.0
H247 H 0.16007 0.72783 0.84287 0.0
O248 O 0.14553 0.66979 0.85409 0.0
C249 C 0.19196 0.73334 0.89414 0.0
O250 O 0.17966 0.7369 0.91413 0.0
N251 N 0.11295 0.6591 0.89824 0.0
C252 C 0.07239 0.61792 0.92567 0.0
C253 C 0.07815 0.61479 0.89917 0.0
C254 C 0.09867 0.63557 0.88584 0.0
C255 C 0.1068 0.66286 0.92349 0.0
C256 C 0.08642 0.64259 0.93753 0.0
H257 H 0.10395 0.63173 0.86651 0.0
H258 H 0.11874 0.68142 0.93325 0.0
H259 H 0.15175 0.63679 0.87819 0.0
H260 H 0.19157 0.65755 0.95168 0.0
H261 H 0.08773 0.72205 0.85861 0.0
H262 H 0.06824 0.59593 0.88947 0.0
H263 H 0.08251 0.64588 0.95791 0.0
C264 C 0.31962 0.49979 0.93004 0.0
C265 C 0.33752 0.52537 0.93567 0.0
N266 N 0.35674 0.53381 0.91734 0.0
N267 N 0.32738 0.49232 0.90807 0.0
C268 C 0.35021 0.51335 0.90101 0.0
H269 H 0.30203 0.48749 0.9412 0.0
Co270 Co 0.30992 0.45999 0.89168 0.0
C271 C 0.32953 0.47057 0.8343 0.0
O272 O 0.3209 0.4461 0.82797 0.0
N273 N 0.2918 0.42691 0.87578 0.0
C274 C 0.27495 0.38471 0.86651 0.0
C275 C 0.29355 0.40544 0.881 0.0
C276 C 0.27189 0.4186 0.85825 0.0
N277 N 0.26123 0.39308 0.85242 0.0
O278 O 0.28234 0.46641 0.8834 0.0
H279 H 0.30698 0.40449 0.89494 0.0
H280 H 0.26537 0.4311 0.84964 0.0
O281 O 0.32617 0.47658 0.85791 0.0
C282 C 0.263 0.45908 0.89906 0.0
O283 O 0.26087 0.44463 0.91992 0.0
N284 N 0.3371 0.45454 0.9015 0.0
C285 C 0.37899 0.45477 0.92669 0.0
C286 C 0.38007 0.46047 0.8993 0.0
C287 C 0.35886 0.46029 0.88703 0.0
C288 C 0.33507 0.44731 0.92766 0.0
C289 C 0.35575 0.44714 0.94066 0.0
H290 H 0.36089 0.46625 0.86645 0.0
H291 H 0.31768 0.44292 0.93879 0.0
H292 H 0.36166 0.51385 0.88392 0.0
H293 H 0.33652 0.53681 0.95203 0.0
H294 H 0.27127 0.36489 0.86696 0.0
H295 H 0.39773 0.46675 0.88783 0.0
H296 H 0.35397 0.44222 0.96173 0.0
C297 C 0.17443 0.49858 0.56947 0.0
C298 C 0.18301 0.52446 0.56433 0.0
N299 N 0.17595 0.53416 0.58503 0.0
N300 N 0.16205 0.49209 0.59325 0.0
C301 C 0.1632 0.51414 0.60219 0.0
H302 H 0.17682 0.48525 0.55662 0.0
Co303 Co 0.14588 0.45912 0.60824 0.0
C304 C 0.131 0.46737 0.66392 0.0
O305 O 0.11047 0.44395 0.66589 0.0
N306 N 0.12984 0.42555 0.62265 0.0
C307 C 0.10705 0.38249 0.628 0.0
C308 C 0.11099 0.40301 0.61191 0.0
C309 C 0.13722 0.41817 0.64498 0.0
N310 N 0.12351 0.3922 0.64885 0.0
O311 O 0.17904 0.46435 0.61812 0.0
H312 H 0.10119 0.40125 0.59318 0.0
H313 H 0.15299 0.4316 0.65779 0.0
O314 O 0.14469 0.47406 0.64257 0.0
C315 C 0.19074 0.45643 0.60279 0.0
O316 O 0.17837 0.44236 0.58174 0.0
N317 N 0.11397 0.45472 0.59673 0.0
C318 C 0.07478 0.4567 0.568 0.0
C319 C 0.08006 0.46545 0.59455 0.0
C320 C 0.09998 0.46463 0.60848 0.0
C321 C 0.10848 0.44531 0.57125 0.0
C322 C 0.08878 0.44585 0.55657 0.0
H323 H 0.10513 0.47396 0.62769 0.0
H324 H 0.1205 0.43862 0.56179 0.0
H325 H 0.15421 0.51541 0.62052 0.0
H326 H 0.19379 0.53533 0.54687 0.0
H327 H 0.09342 0.36206 0.6245 0.0
H328 H 0.0703 0.47475 0.60384 0.0
H329 H 0.08536 0.43896 0.53608 0.0
C330 C 0.499 0.66149 0.56538 0.0
C331 C 0.47345 0.64332 0.56005 0.0
N332 N 0.46191 0.6317 0.58326 0.0
N333 N 0.50349 0.66125 0.59179 0.0
C334 C 0.48051 0.64293 0.60217 0.0
H335 H 0.51358 0.67366 0.55087 0.0
Co336 Co 0.53589 0.68061 0.60755 0.0
C337 C 0.5276 0.66252 0.66495 0.0
O338 O 0.55107 0.66561 0.66725 0.0
N339 N 0.56902 0.70078 0.62256 0.0
C340 C 0.61189 0.72329 0.6294 0.0
C341 C 0.59228 0.7046 0.61386 0.0
C342 C 0.57509 0.7176 0.64313 0.0
N343 N 0.60093 0.73132 0.64784 0.0
O344 O 0.52913 0.70842 0.61231 0.0
H345 H 0.59523 0.69513 0.59691 0.0
H346 H 0.56079 0.72024 0.65403 0.0
O347 O 0.52048 0.6677 0.64276 0.0
C348 C 0.5337 0.72467 0.59359 0.0
O349 O 0.54565 0.72358 0.57189 0.0
N350 N 0.5416 0.65273 0.60115 0.0
C351 C 0.53924 0.60883 0.57801 0.0
C352 C 0.52837 0.60736 0.6033 0.0
C353 C 0.52936 0.62939 0.61433 0.0
C354 C 0.55321 0.65473 0.57704 0.0
C355 C 0.55266 0.63313 0.56528 0.0
H356 H 0.51787 0.62651 0.63195 0.0
H357 H 0.56126 0.67278 0.56591 0.0
H358 H 0.47763 0.63706 0.62295 0.0
H359 H 0.46413 0.63896 0.54062 0.0
H360 H 0.63255 0.73051 0.62721 0.0
H361 H 0.51696 0.58885 0.6134 0.0
H362 H 0.56119 0.6351 0.54563 0.0
C363 C 0.32356 0.82569 0.56593 0.0
C364 C 0.33953 0.81607 0.5585 0.0
N365 N 0.35509 0.81884 0.57939 0.0
N366 N 0.32899 0.83436 0.59137 0.0
C367 C 0.34841 0.83011 0.59888 0.0
H368 H 0.30924 0.82675 0.5534 0.0
Co369 Co 0.31425 0.85085 0.61018 0.0
C370 C 0.32619 0.84681 0.6673 0.0
O371 O 0.30421 0.84444 0.67601 0.0
N372 N 0.2995 0.8679 0.62852 0.0
C373 C 0.29429 0.89574 0.65399 0.0
C374 C 0.31214 0.891 0.64144 0.0
C375 C 0.27402 0.85931 0.63309 0.0
N376 N 0.2703 0.87568 0.6488 0.0
O377 O 0.28584 0.81752 0.61959 0.0
H378 H 0.33305 0.9031 0.64287 0.0
H379 H 0.25846 0.84056 0.62661 0.0
O380 O 0.33172 0.84971 0.64243 0.0
C381 C 0.26755 0.80498 0.60289 0.0
O382 O 0.26662 0.81687 0.58106 0.0
N383 N 0.34214 0.88271 0.59967 0.0
C384 C 0.38313 0.92493 0.57412 0.0
C385 C 0.3873 0.91518 0.59803 0.0
C386 C 0.36656 0.89389 0.61043 0.0
C387 C 0.33741 0.89274 0.57726 0.0
C388 C 0.3577 0.91393 0.56407 0.0
H389 H 0.37065 0.88584 0.62789 0.0
H390 H 0.31798 0.88336 0.56888 0.0
H391 H 0.35838 0.83616 0.61785 0.0
H392 H 0.33966 0.80769 0.53929 0.0
H393 H 0.29871 0.91204 0.667 0.0
H394 H 0.40671 0.92282 0.60617 0.0
H395 H 0.35371 0.92099 0.54569 0.0
H396 H 0.65593 0.17723 0.32658 0.0
H397 H 0.62439 0.18159 0.2988 0.0
H398 H 0.60022 0.10659 0.26329 0.0
H399 H 0.63191 0.10214 0.29083 0.0
H400 H 0.60484 0.14349 0.22631 0.0
H401 H 0.54638 0.14168 0.31415 0.0
H402 H 0.58001 0.16676 0.31514 0.0
H403 H 0.57157 0.13315 0.31659 0.0
C404 C 0.644 0.1617 0.31276 0.0
C405 C 0.64617 0.13916 0.31119 0.0
C406 C 0.62591 0.16419 0.29699 0.0
C407 C 0.60953 0.14414 0.27947 0.0
C408 C 0.61254 0.1222 0.27686 0.0
H409 H 0.46216 0.10717 0.20934 0.0
H410 H 0.49767 0.11072 0.23731 0.0
C411 C 0.63071 0.11972 0.29257 0.0
C412 C 0.58885 0.14567 0.26427 0.0
H413 H 0.53311 0.14866 0.27174 0.0
C414 C 0.58919 0.1447 0.23621 0.0
C415 C 0.56831 0.14697 0.2773 0.0
C416 C 0.56631 0.14697 0.30745 0.0
C417 C 0.56954 0.14497 0.22077 0.0
C418 C 0.54919 0.14663 0.23378 0.0
C419 C 0.54885 0.14762 0.26185 0.0
C420 C 0.52744 0.14612 0.2186 0.0
C421 C 0.57034 0.14271 0.19071 0.0
C422 C 0.53223 0.16541 0.19955 0.0
C423 C 0.512 0.16343 0.18354 0.0
C424 C 0.48655 0.14218 0.18638 0.0
C425 C 0.48152 0.12374 0.2066 0.0
C426 C 0.50182 0.1257 0.22255 0.0
H427 H 0.58356 0.13544 0.18446 0.0
H428 H 0.5506 0.12943 0.18257 0.0
H429 H 0.57761 0.16221 0.18157 0.0
H430 H 0.55174 0.1817 0.19665 0.0
H431 H 0.51644 0.17821 0.16845 0.0
H432 H 0.82438 0.35573 0.16035 0.0
H433 H 0.82591 0.39027 0.18828 0.0
H434 H 0.87806 0.38248 0.2429 0.0
H435 H 0.87509 0.34661 0.21572 0.0
H436 H 0.8463 0.38968 0.2703 0.0
H437 H 0.88097 0.46366 0.19 0.0
H438 H 0.85027 0.4361 0.18115 0.0
H439 H 0.87846 0.43236 0.1853 0.0
C440 C 0.83617 0.36145 0.17833 0.0
C441 C 0.84983 0.34877 0.18583 0.0
C442 C 0.83724 0.38137 0.19417 0.0
C443 C 0.85283 0.38973 0.21728 0.0
C444 C 0.86607 0.37661 0.22506 0.0
H445 H 0.8975 0.53689 0.29746 0.0
H446 H 0.89514 0.50248 0.26856 0.0
C447 C 0.86437 0.35612 0.20959 0.0
C448 C 0.85483 0.41168 0.23364 0.0
H449 H 0.86511 0.4737 0.22973 0.0
C450 C 0.85065 0.40811 0.26139 0.0
C451 C 0.861 0.43604 0.22225 0.0
C452 C 0.86822 0.44236 0.1931 0.0
C453 C 0.85207 0.42794 0.27792 0.0
C454 C 0.85652 0.45161 0.26626 0.0
C455 C 0.86116 0.45538 0.23862 0.0
C456 C 0.85708 0.47289 0.28253 0.0
C457 C 0.84957 0.42348 0.3078 0.0
C458 C 0.83613 0.46802 0.29935 0.0
C459 C 0.8376 0.48756 0.31615 0.0
C460 C 0.8598 0.51256 0.31599 0.0
C461 C 0.88011 0.51785 0.29802 0.0
C462 C 0.8788 0.49816 0.28152 0.0
H463 H 0.85549 0.40915 0.31382 0.0
H464 H 0.86174 0.44182 0.31903 0.0
H465 H 0.82893 0.41553 0.31375 0.0
H466 H 0.8188 0.44894 0.29987 0.0
H467 H 0.82151 0.48295 0.32959 0.0
H468 H 0.64807 0.47827 0.15624 0.0
H469 H 0.61692 0.4452 0.18678 0.0
H470 H 0.6137 0.50493 0.23307 0.0
H471 H 0.6441 0.53812 0.20196 0.0
H472 H 0.6182 0.43742 0.24018 0.0
H473 H 0.53743 0.45609 0.21708 0.0
H474 H 0.56684 0.4696 0.19734 0.0
H475 H 0.56642 0.48442 0.22863 0.0
C476 C 0.64066 0.48443 0.17281 0.0
C477 C 0.64819 0.51084 0.1763 0.0
C478 C 0.62293 0.46546 0.19035 0.0
C479 C 0.61248 0.4725 0.21184 0.0
C480 C 0.62092 0.49896 0.21617 0.0
H481 H 0.50811 0.38546 0.34184 0.0
H482 H 0.54 0.41902 0.31213 0.0
C483 C 0.63849 0.51795 0.19848 0.0
C484 C 0.59268 0.45209 0.22959 0.0
H485 H 0.53048 0.42702 0.253 0.0
C486 C 0.599 0.43509 0.24289 0.0
C487 C 0.56754 0.44896 0.23299 0.0
C488 C 0.55901 0.46555 0.21806 0.0
C489 C 0.581 0.41535 0.25982 0.0
C490 C 0.55607 0.41249 0.26342 0.0
C491 C 0.5497 0.42941 0.25019 0.0
C492 C 0.53636 0.39207 0.28102 0.0
C493 C 0.58876 0.39783 0.27408 0.0
C494 C 0.52354 0.36586 0.27312 0.0
C495 C 0.50506 0.34658 0.28994 0.0
C496 C 0.4992 0.35322 0.31501 0.0
C497 C 0.51201 0.37961 0.32268 0.0
C498 C 0.5303 0.39885 0.30576 0.0
H499 H 0.60991 0.40482 0.27206 0.0
H500 H 0.5838 0.39649 0.29568 0.0
H501 H 0.57773 0.37791 0.26554 0.0
H502 H 0.52787 0.36033 0.25396 0.0
H503 H 0.49563 0.32648 0.28342 0.0
H504 H 0.47884 0.82087 0.83414 0.0
H505 H 0.44453 0.81655 0.80387 0.0
H506 H 0.49583 0.89381 0.77324 0.0
H507 H 0.53056 0.89779 0.80264 0.0
H508 H 0.41995 0.84263 0.80215 0.0
H509 H 0.46923 0.85551 0.70465 0.0
H510 H 0.48232 0.85086 0.7354 0.0
H511 H 0.4877 0.88264 0.72646 0.0
C512 C 0.48295 0.83677 0.82063 0.0
C513 C 0.5075 0.85958 0.8206 0.0
C514 C 0.46328 0.83432 0.8034 0.0
C515 C 0.46765 0.85469 0.78592 0.0
C516 C 0.49217 0.87751 0.78591 0.0
H517 H 0.34251 0.87228 0.71497 0.0
H518 H 0.37653 0.87411 0.74437 0.0
C519 C 0.51201 0.87981 0.80285 0.0
C520 C 0.44618 0.85246 0.76867 0.0
H521 H 0.43075 0.85884 0.70434 0.0
C522 C 0.42226 0.84598 0.78071 0.0
C523 C 0.44899 0.85644 0.74064 0.0
C524 C 0.47335 0.86146 0.726 0.0
C525 C 0.40121 0.84363 0.7656 0.0
C526 C 0.40444 0.84887 0.73778 0.0
C527 C 0.42829 0.8551 0.72571 0.0
C528 C 0.38328 0.84746 0.72057 0.0
C529 C 0.37558 0.83488 0.77961 0.0
C530 C 0.37614 0.83245 0.69705 0.0
C531 C 0.35727 0.83199 0.68 0.0
C532 C 0.34495 0.84628 0.68623 0.0
C533 C 0.35158 0.86088 0.70995 0.0
C534 C 0.37091 0.86179 0.72679 0.0
H535 H 0.37388 0.8236 0.79798 0.0
H536 H 0.37438 0.85223 0.78573 0.0
H537 H 0.3588 0.8226 0.76637 0.0
H538 H 0.38527 0.82115 0.6918 0.0
H539 H 0.35212 0.82023 0.66204 0.0
H540 H 0.17261 0.51684 0.66728 0.0
H541 H 0.17746 0.55199 0.69656 0.0
H542 H 0.10384 0.49971 0.73398 0.0
H543 H 0.09896 0.46433 0.705 0.0
H544 H 0.14601 0.5728 0.69873 0.0
H545 H 0.14978 0.53394 0.79843 0.0
H546 H 0.15372 0.52026 0.76769 0.0
H547 H 0.12169 0.51158 0.77948 0.0
C548 C 0.15758 0.51269 0.68198 0.0
C549 C 0.13534 0.48775 0.68374 0.0
C550 C 0.1604 0.53284 0.69869 0.0
C551 C 0.14115 0.52845 0.71765 0.0
C552 C 0.11922 0.50343 0.7199 0.0
H553 H 0.10421 0.63904 0.78775 0.0
H554 H 0.10824 0.6078 0.75916 0.0
C555 C 0.11641 0.48323 0.70323 0.0
C556 C 0.1432 0.5504 0.73385 0.0
H557 H 0.14162 0.56958 0.79793 0.0
C558 C 0.14528 0.5722 0.72044 0.0
C559 C 0.14266 0.54981 0.76217 0.0
C560 C 0.14212 0.52776 0.77781 0.0
C561 C 0.14601 0.59304 0.73454 0.0
C562 C 0.14406 0.5918 0.7628 0.0
C563 C 0.14282 0.57039 0.77625 0.0
C564 C 0.14274 0.61218 0.77887 0.0
C565 C 0.14907 0.61625 0.71901 0.0
C566 C 0.16065 0.62491 0.79962 0.0
C567 C 0.15829 0.64266 0.81611 0.0
C568 C 0.13783 0.6479 0.81232 0.0
C569 C 0.12029 0.63561 0.79112 0.0
C570 C 0.12263 0.6178 0.77466 0.0
H571 H 0.1584 0.61794 0.69925 0.0
H572 H 0.12955 0.61389 0.71533 0.0
H573 H 0.16092 0.63465 0.73027 0.0
H574 H 0.17629 0.62085 0.80328 0.0
H575 H 0.17225 0.65191 0.83214 0.0
H576 H 0.47887 0.65643 0.66927 0.0
H577 H 0.44391 0.62738 0.69958 0.0
H578 H 0.4954 0.6047 0.73637 0.0
H579 H 0.53057 0.63412 0.70661 0.0
H580 H 0.42138 0.57591 0.70236 0.0
H581 H 0.46341 0.61666 0.80156 0.0
H582 H 0.47719 0.63425 0.77084 0.0
H583 H 0.48465 0.60983 0.78206 0.0
C584 C 0.48289 0.6456 0.68414 0.0
C585 C 0.50754 0.64761 0.68552 0.0
C586 C 0.46286 0.62896 0.70143 0.0
C587 C 0.46704 0.61403 0.72051 0.0
C588 C 0.49182 0.61648 0.72233 0.0
H589 H 0.3528 0.46651 0.78859 0.0
H590 H 0.38464 0.50193 0.76052 0.0
C591 C 0.51193 0.63327 0.70518 0.0
C592 C 0.44505 0.59451 0.73708 0.0
H593 H 0.42714 0.57305 0.80124 0.0
C594 C 0.42254 0.57546 0.72402 0.0
C595 C 0.44632 0.5941 0.76536 0.0
C596 C 0.46908 0.61498 0.78079 0.0
C597 C 0.40166 0.55557 0.73835 0.0
C598 C 0.40361 0.55425 0.76649 0.0
C599 C 0.42575 0.57381 0.77964 0.0
C600 C 0.3832 0.53257 0.7827 0.0
C601 C 0.37765 0.53637 0.72314 0.0
C602 C 0.37207 0.53794 0.80486 0.0
C603 C 0.3541 0.51773 0.82117 0.0
C604 C 0.34688 0.49168 0.81568 0.0
C605 C 0.3577 0.4863 0.79322 0.0
C606 C 0.37584 0.50656 0.77705 0.0
H607 H 0.37568 0.54482 0.70401 0.0
H608 H 0.3792 0.51895 0.71816 0.0
H609 H 0.35971 0.53002 0.73517 0.0
H610 H 0.37749 0.55783 0.80971 0.0
H611 H 0.34609 0.52257 0.83826 0.0
H612 H 0.45099 0.02862 0.09387 0.0
H613 H 0.46512 0.00075 0.07197 0.0
H614 H 0.49155 0.05224 0.00372 0.0
H615 H 0.47782 0.08024 0.02542 0.0
H616 H 0.46289 0.99822 0.99104 0.0
H617 H 0.54306 0.02262 0.06371 0.0
H618 H 0.51116 0.01049 0.07788 0.0
H619 H 0.5268 0.04141 0.06105 0.0
C620 C 0.45972 0.0339 0.07415 0.0
C621 C 0.46333 0.05662 0.06137 0.0
C622 C 0.46781 0.01804 0.06174 0.0
C623 C 0.47971 0.02477 0.03649 0.0
C624 C 0.48243 0.04683 0.02327 0.0
H625 H 0.54971 0.96759 0.92394 0.0
H626 H 0.53586 0.99394 0.94929 0.0
C627 C 0.47438 0.06267 0.03562 0.0
C628 C 0.48991 0.00923 0.02385 0.0
H629 H 0.53695 0.99239 0.02969 0.0
C630 C 0.47905 0.99688 -0.00054 0.0
C631 C 0.51101 0.00768 0.035 0.0
C632 C 0.5239 0.02139 0.06075 0.0
C633 C 0.48872 0.98285 0.98586 0.0
C634 C 0.51005 0.98161 0.9968 0.0
C635 C 0.52069 0.99362 0.02138 0.0
C636 C 0.52127 0.96753 0.98302 0.0
C637 C 0.47587 0.96923 0.96006 0.0
C638 C 0.51865 0.94471 0.99428 0.0
C639 C 0.52652 0.92967 0.97991 0.0
C640 C 0.53722 0.93734 0.95412 0.0
C641 C 0.5412 0.96106 0.94361 0.0
C642 C 0.53331 0.97607 0.958 0.0
H643 H 0.45632 0.96723 0.95757 0.0
H644 H 0.48819 0.9807 0.94292 0.0
H645 H 0.47376 0.94954 0.95924 0.0
H646 H 0.50945 0.93793 0.01364 0.0
H647 H 0.52291 0.91134 0.98841 0.0
H648 H 0.9704 0.42283 0.0862 0.0
H649 H 0.99626 0.46322 0.06093 0.0
H650 H 0.94348 0.43069 0.99417 0.0
H651 H 0.91746 0.3904 0.01925 0.0
H652 H 0.99725 0.45942 0.97992 0.0
H653 H 0.96794 0.51369 0.04914 0.0
H654 H 0.98267 0.497 0.06493 0.0
H655 H 0.95173 0.47856 0.04851 0.0
C656 C 0.96449 0.42422 0.06603 0.0
C657 C 0.94183 0.40354 0.05476 0.0
C658 C 0.97921 0.44727 0.05169 0.0
C659 C 0.97139 0.45 0.02597 0.0
C660 C 0.94969 0.42891 0.01407 0.0
H661 H 0.02547 0.57641 0.91047 0.0
H662 H -0.0004 0.53549 0.93496 0.0
C663 C 0.93498 0.40585 0.02837 0.0
C664 C 0.98504 0.47523 0.0119 0.0
H665 H -0.00142 0.53828 0.01545 0.0
C666 C 0.99752 0.47667 0.98759 0.0
C667 C 0.98512 0.49755 0.022 0.0
C668 C 0.97097 0.49671 0.04745 0.0
C669 C 0.01064 0.50013 0.97332 0.0
C670 C 0.01081 0.52247 0.9835 0.0
C671 C -0.00173 0.52102 0.00775 0.0
C672 C 0.02479 0.5478 0.96968 0.0
C673 C 0.02471 0.50102 0.94781 0.0
C674 C 0.04679 0.56846 0.98166 0.0
C675 C 0.06155 0.59176 0.9678 0.0
C676 C 0.05444 0.59481 0.94175 0.0
C677 C 0.0316 0.57448 0.93036 0.0
C678 C 0.01686 0.55114 0.94426 0.0
H679 H 0.02718 0.48372 0.94568 0.0
H680 H 0.01332 0.5015 0.9304 0.0
H681 H 0.04422 0.51887 0.9471 0.0
H682 H 0.05311 0.56618 0.00133 0.0
H683 H 0.07924 0.60685 0.977 0.0
H684 H 0.41688 0.44406 0.91043 0.0
H685 H 0.45895 0.45811 0.93214 0.0
H686 H 0.43732 0.49179 0.99673 0.0
H687 H 0.39564 0.47824 0.97518 0.0
H688 H 0.4957 0.5108 0.9438 0.0
H689 H 0.46536 0.4498 0.03553 0.0
H690 H 0.44456 0.44207 0.00654 0.0
H691 H 0.4476 0.46656 0.02983 0.0
C692 C 0.42101 0.4542 0.92941 0.0
C693 C 0.40289 0.45991 0.94116 0.0
C694 C 0.44496 0.46214 0.94177 0.0
C695 C 0.45101 0.47569 0.96613 0.0
C696 C 0.43273 0.48083 0.97823 0.0
H697 H 0.58335 0.55461 0.07092 0.0
H698 H 0.54252 0.53978 0.04643 0.0
C699 C 0.40887 0.47297 0.9659 0.0
C700 C 0.47712 0.48632 0.97803 0.0
H701 H 0.50854 0.48622 0.03512 0.0
C702 C 0.49862 0.50528 0.96365 0.0
C703 C 0.48068 0.4791 0.00396 0.0
C704 C 0.45837 0.45809 0.0198 0.0
C705 C 0.52364 0.5178 0.97489 0.0
C706 C 0.52711 0.51086 0.00098 0.0
C707 C 0.50566 0.49165 0.0152 0.0
C708 C 0.55293 0.52272 0.01381 0.0
C709 C 0.54601 0.53877 0.95909 0.0
C710 C 0.57232 0.51839 0.00324 0.0
C711 C 0.59555 0.52675 0.01715 0.0
C712 C 0.59967 0.53946 0.04196 0.0
C713 C 0.58061 0.54472 0.05194 0.0
C714 C 0.55736 0.53633 0.03799 0.0
H715 H 0.5391 0.54618 0.9424 0.0
H716 H 0.55902 0.55537 0.9722 0.0
H717 H 0.55765 0.53064 0.95037 0.0
H718 H 0.56899 0.50746 0.98486 0.0
H719 H 0.60961 0.52193 0.0092 0.0
H720 H 0.08339 0.47586 0.51711 0.0
H721 H 0.05836 0.49156 0.49247 0.0
H722 H 0.00276 0.4671 0.55709 0.0
H723 H 0.02754 0.45102 0.58187 0.0
H724 H 0.00451 0.46638 0.47645 0.0
H725 H 0.0317 0.54685 0.54931 0.0
H726 H 0.04825 0.52829 0.5477 0.0
H727 H 0.01699 0.51477 0.56366 0.0
C728 C 0.06547 0.47318 0.52581 0.0
C729 C 0.05745 0.4623 0.55149 0.0
C730 C 0.05134 0.48235 0.51179 0.0
C731 C 0.02911 0.4809 0.52327 0.0
C732 C 0.02022 0.4688 0.54822 0.0
H733 H 0.91948 0.52795 0.4794 0.0
H734 H 0.94726 0.51456 0.50218 0.0
C735 C 0.03433 0.4596 0.56227 0.0
C736 C 0.01584 0.49304 0.5096 0.0
H737 H 0.00132 0.54169 0.51562 0.0
C738 C 0.00387 0.48292 0.48487 0.0
C739 C 0.01533 0.51471 0.52071 0.0
C740 C 0.02893 0.52701 0.54669 0.0
C741 C 0.99062 0.49347 0.47125 0.0
C742 C 0.98985 0.51496 0.48252 0.0
C743 C 0.0021 0.52527 0.50709 0.0
C744 C 0.9751 0.526 0.46979 0.0
C745 C 0.97689 0.48107 0.44534 0.0
C746 C 0.98224 0.53779 0.44451 0.0
C747 C 0.9665 0.54567 0.43148 0.0
C748 C 0.94349 0.54194 0.44366 0.0
C749 C 0.93725 0.53143 0.46963 0.0
C750 C 0.95298 0.52358 0.48261 0.0
H751 H 0.97492 0.46159 0.44229 0.0
H752 H 0.95719 0.47892 0.44487 0.0
H753 H 0.98825 0.49373 0.42834 0.0
H754 H -0.00042 0.54025 0.43459 0.0
H755 H 0.97192 0.554 0.41161 0.0
H756 H 0.44375 0.37587 0.48301 0.0
H757 H 0.45536 0.41249 0.51326 0.0
H758 H 0.45323 0.4582 0.44713 0.0
H759 H 0.44123 0.42152 0.41683 0.0
H760 H 0.50259 0.45907 0.50295 0.0
H761 H 0.41931 0.4768 0.509 0.0
H762 H 0.41556 0.44575 0.49921 0.0
H763 H 0.42723 0.47206 0.47552 0.0
C764 C 0.44467 0.39334 0.47513 0.0
C765 C 0.44168 0.39595 0.44758 0.0
C766 C 0.45148 0.41427 0.49239 0.0
C767 C 0.45507 0.43794 0.48239 0.0
C768 C 0.45017 0.43994 0.45528 0.0
H769 H 0.5248 0.59776 0.52572 0.0
H770 H 0.5062 0.55555 0.5037 0.0
C771 C 0.44348 0.41907 0.43798 0.0
C772 C 0.46773 0.46159 0.49909 0.0
H773 H 0.461 0.51204 0.52191 0.0
C774 C 0.49342 0.47051 0.50751 0.0
C775 C 0.45568 0.47641 0.50472 0.0
C776 C 0.42783 0.46719 0.49686 0.0
C777 C 0.50785 0.49455 0.52049 0.0
C778 C 0.49601 0.5097 0.52552 0.0
C779 C 0.47004 0.50039 0.51781 0.0
C780 C 0.51035 0.53568 0.53804 0.0
C781 C 0.53591 0.504 0.52767 0.0
C782 C 0.51957 0.53858 0.56439 0.0
C783 C 0.5307 0.56286 0.57693 0.0
C784 C 0.53248 0.58451 0.56339 0.0
C785 C 0.52421 0.58167 0.53659 0.0
C786 C 0.51324 0.55747 0.52406 0.0
H787 H 0.54373 0.49298 0.51689 0.0
H788 H 0.54835 0.52504 0.52299 0.0
H789 H 0.53734 0.50136 0.54947 0.0
H790 H 0.51722 0.52189 0.5756 0.0
H791 H 0.537 0.56448 0.59755 0.0
H792 H 0.57396 0.0313 0.40988 0.0
H793 H 0.53388 0.00565 0.43568 0.0
H794 H 0.56891 0.05617 0.50365 0.0
H795 H 0.6088 0.08217 0.47799 0.0
H796 H 0.53929 0.00014 0.51484 0.0
H797 H 0.48569 0.03667 0.45381 0.0
H798 H 0.502 0.02288 0.43545 0.0
H799 H 0.52081 0.05242 0.45409 0.0
C800 C 0.57318 0.03682 0.43038 0.0
C801 C 0.59448 0.05883 0.44185 0.0
C802 C 0.55032 0.02219 0.44503 0.0
C803 C 0.54846 0.02938 0.47132 0.0
C804 C 0.57007 0.05045 0.48331 0.0
H805 H 0.42637 0.96894 0.59203 0.0
H806 H 0.46662 0.99615 0.56701 0.0
C807 C 0.5929 0.06513 0.46868 0.0
C808 C 0.52363 0.01561 0.48602 0.0
H809 H 0.46146 0.00484 0.48659 0.0
C810 C 0.52226 0.00117 0.50878 0.0
C811 C 0.50161 0.0172 0.47795 0.0
C812 C 0.5025 0.03327 0.45411 0.0
C813 C 0.4991 0.98769 0.52348 0.0
C814 C 0.47706 0.98928 0.51544 0.0
C815 C 0.47849 0.00382 0.49271 0.0
C816 C 0.45202 0.97508 0.52979 0.0
C817 C 0.49823 0.97131 0.54705 0.0
C818 C 0.4302 0.95523 0.5167 0.0
C819 C 0.4072 0.93984 0.53083 0.0
C820 C 0.40571 0.94413 0.55829 0.0
C821 C 0.42714 0.96503 0.57097 0.0
C822 C 0.45011 0.98048 0.55677 0.0
H823 H 0.51466 0.96732 0.54669 0.0
H824 H 0.49959 0.98185 0.56588 0.0
H825 H 0.47963 0.95244 0.54739 0.0
H826 H 0.43132 0.9509 0.49582 0.0
H827 H 0.39112 0.9237 0.5206 0.0
H828 H 0.37109 0.22232 0.36348 0.0
H829 H 0.35075 0.18207 0.33687 0.0
H830 H 0.36218 0.22736 0.26527 0.0
H831 H 0.38136 0.26705 0.2917 0.0
H832 H 0.31813 0.18103 0.26181 0.0
H833 H 0.40005 0.16724 0.29631 0.0
H834 H 0.37772 0.16588 0.32136 0.0
H835 H 0.39874 0.19612 0.30454 0.0
C836 C 0.36868 0.22346 0.34212 0.0
C837 C 0.37806 0.24776 0.32958 0.0
C838 C 0.35717 0.20054 0.32696 0.0
C839 C 0.35558 0.20178 0.29899 0.0
C840 C 0.36318 0.22588 0.28681 0.0
H841 H 0.38724 0.16826 0.15541 0.0
H842 H 0.36797 0.17782 0.19398 0.0
C843 C 0.37419 0.24863 0.30196 0.0
C844 C 0.3495 0.1792 0.28159 0.0
H845 H 0.37779 0.14518 0.25812 0.0
C846 C 0.33068 0.17259 0.26143 0.0
C847 C 0.36577 0.16802 0.2812 0.0
C848 C 0.38681 0.17469 0.30186 0.0
C849 C 0.32954 0.1573 0.23948 0.0
C850 C 0.34745 0.14828 0.23793 0.0
C851 C 0.36415 0.15228 0.2595 0.0
C852 C 0.35334 0.13992 0.21234 0.0
C853 C 0.31049 0.15244 0.21721 0.0
C854 C 0.35119 0.11536 0.20981 0.0
C855 C 0.36205 0.10986 0.18764 0.0
C856 C 0.37571 0.12911 0.16819 0.0
C857 C 0.37686 0.15324 0.17025 0.0
C858 C 0.36563 0.15855 0.19208 0.0
H859 H 0.29326 0.1533 0.22464 0.0
H860 H 0.32019 0.16772 0.20167 0.0
H861 H 0.30383 0.13318 0.20772 0.0
H862 H 0.34218 0.10095 0.22552 0.0
H863 H 0.36119 0.09121 0.18653 0.0
H864 H 0.77058 0.17287 0.32836 0.0
H865 H 0.79916 0.18164 0.28978 0.0
H866 H 0.75853 0.09989 0.26996 0.0
H867 H 0.72969 0.09094 0.30879 0.0
H868 H 0.82972 0.15058 0.27083 0.0
H869 H 0.75201 0.14884 0.20647 0.0
H870 H 0.75319 0.15704 0.24142 0.0
H871 H 0.7447 0.12456 0.232 0.0
C872 C 0.76789 0.15675 0.31594 0.0
C873 C 0.7478 0.1313 0.32133 0.0
C874 C 0.78435 0.16171 0.29412 0.0
C875 C 0.7809 0.14137 0.27723 0.0
C876 C 0.76153 0.11575 0.28301 0.0
H877 H 0.84806 0.22064 0.12924 0.0
H878 H 0.82847 0.18017 0.15527 0.0
C879 C 0.74514 0.1107 0.3051 0.0
C880 C 0.79583 0.14805 0.25208 0.0
H881 H 0.79515 0.17313 0.19111 0.0
C882 C 0.82209 0.15477 0.25294 0.0
C883 C 0.78562 0.15292 0.22869 0.0
C884 C 0.75731 0.14544 0.22681 0.0
C885 C 0.83904 0.16861 0.23182 0.0
C886 C 0.82954 0.17667 0.20998 0.0
C887 C 0.80263 0.16725 0.20789 0.0
C888 C 0.84705 0.19889 0.19255 0.0
C889 C 0.86717 0.17561 0.23383 0.0
C890 C 0.86489 0.2227 0.20449 0.0
C891 C 0.87619 0.24568 0.18964 0.0
C892 C 0.86947 0.24541 0.16264 0.0
C893 C 0.85329 0.22137 0.15012 0.0
C894 C 0.84222 0.19826 0.16494 0.0
H895 H 0.86868 0.15929 0.24287 0.0
H896 H 0.87689 0.18031 0.21397 0.0
H897 H 0.8777 0.1927 0.24724 0.0
H898 H 0.86839 0.22401 0.22586 0.0
H899 H 0.88832 0.26389 0.19995 0.0
H900 H 0.89853 0.64696 0.32322 0.0
H901 H 0.88581 0.6676 0.2883 0.0
H902 H 0.80488 0.61548 0.30721 0.0
H903 H 0.81745 0.59548 0.34227 0.0
H904 H 0.85822 0.64144 0.24521 0.0
H905 H 0.80424 0.68224 0.29557 0.0
H906 H 0.8264 0.675 0.31343 0.0
H907 H 0.79298 0.64999 0.30799 0.0
C908 C 0.87809 0.64047 0.32034 0.0
C909 C 0.85894 0.61944 0.33521 0.0
C910 C 0.87086 0.65226 0.30044 0.0
C911 C 0.84442 0.64342 0.29548 0.0
C912 C 0.82541 0.62316 0.31114 0.0
H913 H 0.72954 0.58714 0.1918 0.0
H914 H 0.76122 0.60751 0.22782 0.0
C915 C 0.83259 0.61137 0.33085 0.0
C916 C 0.83607 0.6519 0.27143 0.0
H917 H 0.78682 0.66184 0.25121 0.0
C918 C 0.84338 0.647 0.24634 0.0
C919 C 0.81697 0.65949 0.2729 0.0
C920 C 0.80996 0.66725 0.29898 0.0
C921 C 0.82966 0.64608 0.22312 0.0
C922 C 0.80831 0.65034 0.22525 0.0
C923 C 0.80304 0.65829 0.24976 0.0
C924 C 0.78815 0.64087 0.20425 0.0
C925 C 0.83624 0.63784 0.19705 0.0
C926 C 0.79263 0.65325 0.17929 0.0
C927 C 0.77449 0.64154 0.1586 0.0
C928 C 0.75188 0.61725 0.16266 0.0
C929 C 0.74702 0.60561 0.18805 0.0
C930 C 0.76495 0.61735 0.20867 0.0
H931 H 0.85325 0.63488 0.19893 0.0
H932 H 0.81925 0.6194 0.18996 0.0
H933 H 0.84071 0.65293 0.18156 0.0
H934 H 0.81046 0.67144 0.17561 0.0
H935 H 0.77866 0.65085 0.13916 0.0
H936 H 0.59642 0.82149 0.84393 0.0
H937 H 0.61695 0.81021 0.80831 0.0
H938 H 0.66303 0.89131 0.78637 0.0
H939 H 0.64189 0.90267 0.82212 0.0
H940 H 0.63583 0.86072 0.74463 0.0
H941 H 0.68618 0.81543 0.79374 0.0
H942 H 0.65452 0.80262 0.80837 0.0
H943 H 0.67791 0.83691 0.81145 0.0
C944 C 0.61116 0.83696 0.83175 0.0
C945 C 0.61736 0.86288 0.83549 0.0
C946 C 0.62326 0.83057 0.8117 0.0
C947 C 0.64195 0.84998 0.79501 0.0
C948 C 0.64896 0.8761 0.79932 0.0
H949 H 0.64836 0.77501 0.64411 0.0
H950 H 0.66871 0.80998 0.67766 0.0
C951 C 0.6369 0.88255 0.81964 0.0
C952 C 0.65034 0.84189 0.77074 0.0
H953 H 0.66295 0.79419 0.75134 0.0
C954 C 0.64293 0.84707 0.74582 0.0
C955 C 0.65991 0.82435 0.77222 0.0
C956 C 0.67034 0.81979 0.79793 0.0
C957 C 0.64142 0.83245 0.72315 0.0
C958 C 0.64747 0.81236 0.72567 0.0
C959 C 0.658 0.80945 0.74965 0.0
C960 C 0.63727 0.79087 0.70619 0.0
C961 C 0.63062 0.83653 0.69742 0.0
C962 C 0.61315 0.76868 0.71147 0.0
C963 C 0.60151 0.74895 0.69249 0.0
C964 C 0.61388 0.75101 0.66792 0.0
C965 C 0.63852 0.77291 0.66299 0.0
C966 C 0.65012 0.79285 0.68201 0.0
H967 H 0.62905 0.85443 0.69797 0.0
H968 H 0.64324 0.83793 0.68033 0.0
H969 H 0.61095 0.81953 0.69375 0.0
H970 H 0.603 0.76694 0.73009 0.0
H971 H 0.58274 0.73213 0.69694 0.0
H972 H 0.09094 0.73215 0.80983 0.0
H973 H 0.10089 0.7609 0.77075 0.0
H974 H 0.18219 0.80114 0.79238 0.0
H975 H 0.17243 0.77261 0.83122 0.0
H976 H 0.15265 0.83219 0.77162 0.0
H977 H 0.15001 0.75294 0.7091 0.0
H978 H 0.12519 0.7463 0.73377 0.0
H979 H 0.15722 0.75425 0.74435 0.0
C980 C 0.11082 0.74751 0.8065 0.0
C981 C 0.13101 0.75006 0.8233 0.0
C982 C 0.11643 0.76385 0.78426 0.0
C983 C 0.14222 0.78306 0.77889 0.0
C984 C 0.16215 0.78645 0.79639 0.0
H985 H 0.26561 0.88869 0.69944 0.0
H986 H 0.22615 0.86929 0.726 0.0
C987 C 0.15662 0.77004 0.81836 0.0
C988 C 0.14949 0.79775 0.75357 0.0
H989 H 0.17429 0.79568 0.69286 0.0
C990 C 0.15668 0.82415 0.75396 0.0
C991 C 0.15417 0.78701 0.73048 0.0
C992 C 0.14625 0.75855 0.72912 0.0
C993 C 0.17067 0.84067 0.73261 0.0
C994 C 0.17839 0.83058 0.71101 0.0
C995 C 0.16863 0.80358 0.70945 0.0
C996 C 0.20047 0.84758 0.69318 0.0
C997 C 0.17811 0.86895 0.73409 0.0
C998 C 0.1994 0.8423 0.66564 0.0
C999 C 0.22226 0.85309 0.65044 0.0
C1000 C 0.24652 0.86941 0.6625 0.0
C1001 C 0.24724 0.87646 0.68946 0.0
C1002 C 0.2245 0.86547 0.70469 0.0
H1003 H 0.16207 0.87094 0.74315 0.0
H1004 H 0.1954 0.87952 0.74723 0.0
H1005 H 0.1827 0.8783 0.71403 0.0
H1006 H 0.18112 0.8285 0.65631 0.0
H1007 H 0.22116 0.84759 0.6296 0.0
H1008 H 0.13594 0.40785 0.69987 0.0
H1009 H 0.14803 0.38691 0.73465 0.0
H1010 H 0.13169 0.32361 0.68087 0.0
H1011 H 0.11968 0.34474 0.64572 0.0
H1012 H 0.12053 0.33224 0.75765 0.0
H1013 H 0.21194 0.36067 0.70057 0.0
H1014 H 0.19277 0.37585 0.69333 0.0
H1015 H 0.18066 0.34241 0.6845 0.0
C1016 C 0.13467 0.38935 0.69556 0.0
C1017 C 0.12726 0.37807 0.67008 0.0
C1018 C 0.14131 0.37728 0.71547 0.0
C1019 C 0.14082 0.35382 0.71019 0.0
C1020 C 0.13216 0.34173 0.68521 0.0
H1021 H 0.25221 0.35165 0.82174 0.0
H1022 H 0.21712 0.32948 0.78878 0.0
C1023 C 0.12527 0.35376 0.66526 0.0
C1024 C 0.15249 0.34433 0.73009 0.0
H1025 H 0.21247 0.35425 0.74667 0.0
C1026 C 0.14033 0.33612 0.7551 0.0
C1027 C 0.17812 0.34898 0.72652 0.0
C1028 C 0.19182 0.35747 0.69984 0.0
C1029 C 0.15418 0.33513 0.77739 0.0
C1030 C 0.18091 0.34325 0.77455 0.0
C1031 C 0.19204 0.3483 0.74888 0.0
C1032 C 0.19882 0.35234 0.79775 0.0
C1033 C 0.14052 0.32709 0.80408 0.0
C1034 C 0.20003 0.37233 0.81382 0.0
C1035 C 0.21995 0.38496 0.83243 0.0
C1036 C 0.23928 0.37807 0.83522 0.0
C1037 C 0.23748 0.35726 0.82003 0.0
C1038 C 0.21747 0.34459 0.80126 0.0
H1039 H 0.11989 0.31156 0.80144 0.0
H1040 H 0.15026 0.31993 0.81787 0.0
H1041 H 0.14047 0.34404 0.81343 0.0
H1042 H 0.18637 0.37921 0.81098 0.0
H1043 H 0.22059 0.40061 0.84416 0.0
H1044 H 0.46301 0.22625 0.05744 0.0
H1045 H 0.49003 0.27366 0.05742 0.0
H1046 H 0.50491 0.27242 0.14178 0.0
H1047 H 0.4786 0.22483 0.14179 0.0
H1048 H 0.49139 0.31464 0.08344 0.0
H1049 H 0.57753 0.30592 0.11086 0.0
H1050 H 0.54673 0.27812 0.10169 0.0
H1051 H 0.55156 0.29164 0.13485 0.0
C1052 C 0.47165 0.23606 0.07612 0.0
C1053 C 0.46903 0.22177 0.09953 0.0
C1054 C 0.48712 0.26319 0.07605 0.0
C1055 C 0.50007 0.2765 0.09942 0.0
C1056 C 0.49572 0.26246 0.12334 0.0
H1057 H 0.61735 0.43935 0.12441 0.0
H1058 H 0.58135 0.39478 0.13066 0.0
C1059 C 0.48052 0.23529 0.12336 0.0
C1060 C 0.51948 0.30472 0.09817 0.0
H1061 H 0.58416 0.34849 0.10705 0.0
C1062 C 0.51164 0.32205 0.08869 0.0
C1063 C 0.54601 0.31432 0.10474 0.0
C1064 C 0.55607 0.29654 0.11335 0.0
C1065 C 0.52963 0.34874 0.08569 0.0
C1066 C 0.556 0.35821 0.09237 0.0
C1067 C 0.56381 0.34104 0.10216 0.0
C1068 C 0.57614 0.38576 0.08839 0.0
C1069 C 0.52048 0.36671 0.07539 0.0
C1070 C 0.58505 0.3953 0.06254 0.0
C1071 C 0.60572 0.42069 0.0589 0.0
C1072 C 0.61771 0.43696 0.08107 0.0
C1073 C 0.60833 0.42743 0.10692 0.0
C1074 C 0.58784 0.40197 0.11055 0.0
H1075 H 0.49888 0.35714 0.07496 0.0
H1076 H 0.52834 0.38447 0.08803 0.0
H1077 H 0.52793 0.37298 0.05474 0.0
H1078 H 0.57638 0.3829 0.04524 0.0
H1079 H 0.61239 0.42757 0.03878 0.0
H1080 H 0.76854 0.23281 0.07165 0.0
H1081 H 0.7213 0.21323 0.07403 0.0
H1082 H 0.7281 0.24543 0.15302 0.0
H1083 H 0.77557 0.26583 0.15048 0.0
H1084 H 0.68205 0.1795 0.10712 0.0
H1085 H 0.69307 0.27825 0.1117 0.0
H1086 H 0.72007 0.27323 0.10472 0.0
H1087 H 0.70873 0.27119 0.13852 0.0
C1088 C 0.76001 0.23541 0.08974 0.0
C1089 C 0.77583 0.25123 0.11071 0.0
C1090 C 0.73297 0.22418 0.09106 0.0
C1091 C 0.72125 0.22844 0.1134 0.0
C1092 C 0.73683 0.2425 0.13528 0.0
H1093 H 0.5587 0.18684 0.13606 0.0
H1094 H 0.60356 0.19696 0.14418 0.0
C1095 C 0.76393 0.25399 0.13387 0.0
C1096 C 0.69306 0.21976 0.11278 0.0
H1097 H 0.65027 0.24251 0.1129 0.0
C1098 C 0.67509 0.19325 0.10855 0.0
C1099 C 0.68404 0.2378 0.11438 0.0
C1100 C 0.70245 0.26673 0.11733 0.0
C1101 C 0.64836 0.18436 0.10573 0.0
C1102 C 0.6395 0.20243 0.10719 0.0
C1103 C 0.65728 0.22878 0.11196 0.0
C1104 C 0.61198 0.19464 0.1025 0.0
C1105 C 0.62968 0.1558 0.10099 0.0
C1106 C 0.60208 0.19015 0.07634 0.0
C1107 C 0.57658 0.1846 0.07159 0.0
C1108 C 0.56054 0.18329 0.09296 0.0
C1109 C 0.57048 0.18745 0.11921 0.0
C1110 C 0.59607 0.19327 0.12391 0.0
H1111 H 0.63907 0.1438 0.10392 0.0
H1112 H 0.61272 0.14871 0.11471 0.0
H1113 H 0.62219 0.15298 0.08017 0.0
H1114 H 0.61424 0.19136 0.05958 0.0
H1115 H 0.56937 0.18122 0.05123 0.0
H1116 H 0.78023 0.35958 0.0628 0.0
H1117 H 0.77291 0.39654 0.06649 0.0
H1118 H 0.84788 0.44192 0.10437 0.0
H1119 H 0.85525 0.40497 0.10085 0.0
H1120 H 0.81024 0.44527 0.13131 0.0
H1121 H 0.80409 0.46327 0.02366 0.0
H1122 H 0.78187 0.43003 0.03253 0.0
H1123 H 0.81644 0.44273 0.03547 0.0
C1124 C 0.79533 0.37757 0.07148 0.0
C1125 C 0.8183 0.37935 0.0815 0.0
C1126 C 0.79116 0.3987 0.07355 0.0
C1127 C 0.81005 0.42213 0.08532 0.0
C1128 C 0.8331 0.42405 0.09514 0.0
H1129 H 0.78177 0.55299 0.07314 0.0
H1130 H 0.80533 0.5289 0.07312 0.0
C1131 C 0.83721 0.40288 0.09321 0.0
C1132 C 0.80508 0.44411 0.08851 0.0
H1133 H 0.78584 0.48126 0.05413 0.0
C1134 C 0.80527 0.45343 0.11441 0.0
C1135 C 0.79921 0.45518 0.06641 0.0
C1136 C 0.80067 0.44748 0.03794 0.0
C1137 C 0.79832 0.47254 0.11892 0.0
C1138 C 0.79042 0.48209 0.09701 0.0
C1139 C 0.79162 0.47377 0.07099 0.0
C1140 C 0.77891 0.49907 0.10058 0.0
C1141 C 0.79937 0.48212 0.14712 0.0
C1142 C 0.7566 0.49066 0.1165 0.0
C1143 C 0.74327 0.50451 0.11676 0.0
C1144 C 0.75174 0.52679 0.1007 0.0
C1145 C 0.77472 0.53585 0.08567 0.0
C1146 C 0.78819 0.52209 0.08562 0.0
H1147 H 0.81427 0.48057 0.1592 0.0
H1148 H 0.80384 0.50268 0.14739 0.0
H1149 H 0.78021 0.46984 0.15692 0.0
H1150 H 0.74866 0.47262 0.12767 0.0
H1151 H 0.72555 0.4969 0.12844 0.0
H1152 H 0.76911 0.53955 0.4373 0.0
H1153 H 0.72182 0.51095 0.43889 0.0
H1154 H 0.72408 0.47725 0.36316 0.0
H1155 H 0.77137 0.5055 0.36148 0.0
H1156 H 0.67979 0.50072 0.40306 0.0
H1157 H 0.69372 0.41537 0.41629 0.0
H1158 H 0.72002 0.4485 0.41988 0.0
H1159 H 0.7091 0.43481 0.38713 0.0
C1160 C 0.75952 0.5264 0.42073 0.0
C1161 C 0.77404 0.52452 0.39946 0.0
C1162 C 0.7325 0.51007 0.4217 0.0
C1163 C 0.71963 0.49163 0.40145 0.0
C1164 C 0.7338 0.49101 0.37926 0.0
H1165 H 0.56311 0.36221 0.38145 0.0
H1166 H 0.609 0.39538 0.37674 0.0
C1167 C 0.76079 0.50727 0.37828 0.0
C1168 C 0.69174 0.47193 0.4044 0.0
H1169 H 0.65037 0.40659 0.41193 0.0
C1170 C 0.6733 0.48014 0.40505 0.0
C1171 C 0.68346 0.44513 0.40714 0.0
C1172 C 0.70258 0.43535 0.40783 0.0
C1173 C 0.6466 0.46212 0.40781 0.0
C1174 C 0.63834 0.43532 0.41044 0.0
C1175 C 0.65681 0.42715 0.40986 0.0
C1176 C 0.61056 0.41532 0.41356 0.0
C1177 C 0.62743 0.4718 0.40733 0.0
C1178 C 0.59641 0.41527 0.4361 0.0
C1179 C 0.57013 0.39637 0.43881 0.0
C1180 C 0.55759 0.37716 0.41904 0.0
C1181 C 0.57206 0.37696 0.39681 0.0
C1182 C 0.59831 0.39583 0.39414 0.0
H1183 H 0.63619 0.49178 0.39888 0.0
H1184 H 0.60992 0.45859 0.39538 0.0
H1185 H 0.62102 0.47231 0.42809 0.0
H1186 H 0.60568 0.42988 0.45157 0.0
H1187 H 0.55952 0.39719 0.45606 0.0
H1188 H 0.63546 0.21468 0.44042 0.0
H1189 H 0.6021 0.22671 0.43433 0.0
H1190 H 0.57117 0.17457 0.36692 0.0
H1191 H 0.60345 0.16128 0.37362 0.0
H1192 H 0.59421 0.24985 0.39192 0.0
H1193 H 0.50592 0.15373 0.40966 0.0
H1194 H 0.53826 0.16007 0.41763 0.0
H1195 H 0.52669 0.15347 0.38366 0.0
C1196 C 0.62135 0.20533 0.42459 0.0
C1197 C 0.62234 0.18688 0.40763 0.0
C1198 C 0.60236 0.21242 0.421 0.0
C1199 C 0.58394 0.20131 0.40038 0.0
C1200 C 0.58486 0.18302 0.38331 0.0
H1201 H 0.4935 0.27461 0.35163 0.0
H1202 H 0.5209 0.25454 0.34995 0.0
C1203 C 0.60369 0.17572 0.387 0.0
C1204 C 0.56441 0.20966 0.39631 0.0
H1205 H 0.49907 0.18776 0.39456 0.0
C1206 C 0.5734 0.23627 0.39244 0.0
C1207 C 0.53727 0.1919 0.39717 0.0
C1208 C 0.5264 0.16323 0.4025 0.0
C1209 C 0.55605 0.24572 0.38977 0.0
C1210 C 0.52891 0.22794 0.39024 0.0
C1211 C 0.51988 0.20127 0.39384 0.0
C1212 C 0.50971 0.23698 0.38926 0.0
C1213 C 0.56699 0.27477 0.3875 0.0
C1214 C 0.49324 0.23249 0.41122 0.0
C1215 C 0.47733 0.24361 0.4121 0.0
C1216 C 0.47766 0.2595 0.39102 0.0
C1217 C 0.49298 0.26266 0.36829 0.0
C1218 C 0.50878 0.25136 0.36738 0.0
H1219 H 0.58775 0.28592 0.39372 0.0
H1220 H 0.56578 0.27982 0.36636 0.0
H1221 H 0.55569 0.28113 0.4 0.0
H1222 H 0.49352 0.2213 0.42825 0.0
H1223 H 0.46566 0.24065 0.42984 0.0
H1224 H 0.85419 0.44943 0.39211 0.0
H1225 H 0.84577 0.40485 0.38598 0.0
H1226 H 0.77058 0.37502 0.42358 0.0
H1227 H 0.77925 0.41945 0.43033 0.0
H1228 H 0.79478 0.35121 0.44246 0.0
H1229 H 0.79998 0.35237 0.33144 0.0
H1230 H 0.82922 0.37662 0.34742 0.0
H1231 H 0.79978 0.37822 0.35028 0.0
C1232 C 0.83583 0.4333 0.3989 0.0
C1233 C 0.81736 0.43787 0.41172 0.0
C1234 C 0.83098 0.40785 0.39529 0.0
C1235 C 0.80737 0.38653 0.40395 0.0
C1236 C 0.78896 0.39114 0.41676 0.0
H1237 H 0.72416 0.22672 0.36073 0.0
H1238 H 0.74625 0.27406 0.36308 0.0
C1239 C 0.79394 0.41653 0.42069 0.0
C1240 C 0.80172 0.35933 0.40031 0.0
H1241 H 0.7938 0.31423 0.35314 0.0
C1242 C 0.79467 0.34314 0.42294 0.0
C1243 C 0.80145 0.3488 0.3748 0.0
C1244 C 0.80776 0.36481 0.34955 0.0
C1245 C 0.78656 0.31657 0.42073 0.0
C1246 C 0.78641 0.30605 0.39523 0.0
C1247 C 0.79418 0.32239 0.37268 0.0
C1248 C 0.77566 0.27769 0.39122 0.0
C1249 C 0.77697 0.29984 0.44557 0.0
C1250 C 0.78551 0.26399 0.40536 0.0
C1251 C 0.77264 0.23676 0.40436 0.0
C1252 C 0.75003 0.22287 0.38879 0.0
C1253 C 0.74148 0.23679 0.37301 0.0
C1254 C 0.75411 0.26391 0.37432 0.0
H1255 H 0.77253 0.30964 0.46202 0.0
H1256 H 0.75913 0.28096 0.44127 0.0
H1257 H 0.79227 0.29578 0.45281 0.0
H1258 H 0.80259 0.27428 0.4179 0.0
H1259 H 0.77988 0.22659 0.41649 0.0
H1260 H 0.3591 0.57901 0.93102 0.0
H1261 H 0.39597 0.62298 0.925 0.0
H1262 H 0.44142 0.59126 0.89179 0.0
H1263 H 0.40434 0.54712 0.89745 0.0
H1264 H 0.44442 0.64548 0.94607 0.0
H1265 H 0.44968 0.64372 0.83498 0.0
H1266 H 0.4223 0.61919 0.85365 0.0
H1267 H 0.45212 0.61832 0.85196 0.0
C1268 C 0.37699 0.58138 0.92261 0.0
C1269 C 0.37881 0.55964 0.91464 0.0
C1270 C 0.39801 0.60651 0.91906 0.0
C1271 C 0.42131 0.61041 0.90758 0.0
C1272 C 0.42341 0.58873 0.90007 0.0
H1273 H 0.55426 0.76975 0.92024 0.0
H1274 H 0.53 0.72203 0.9204 0.0
C1275 C 0.40226 0.56354 0.9034 0.0
C1276 C 0.44332 0.6373 0.90397 0.0
H1277 H 0.48077 0.68215 0.85668 0.0
C1278 C 0.45255 0.65347 0.92656 0.0
C1279 C 0.45375 0.64764 0.87844 0.0
C1280 C 0.44386 0.63144 0.85331 0.0
C1281 C 0.47124 0.67995 0.92429 0.0
C1282 C 0.48161 0.69038 0.89876 0.0
C1283 C 0.473 0.67401 0.87624 0.0
C1284 C 0.49906 0.71874 0.89477 0.0
C1285 C 0.47857 0.69675 0.94909 0.0
C1286 C 0.49063 0.73259 0.87884 0.0
C1287 C 0.50463 0.75976 0.87833 0.0
C1288 C 0.52725 0.77359 0.89394 0.0
C1289 C 0.53671 0.75965 0.90831 0.0
C1290 C 0.52281 0.7324 0.90854 0.0
H1291 H 0.46468 0.68688 0.9658 0.0
H1292 H 0.49818 0.7012 0.95592 0.0
H1293 H 0.47923 0.71546 0.94483 0.0
H1294 H 0.47243 0.72243 0.86791 0.0
H1295 H 0.49687 0.76988 0.86691 0.0
H1296 H 0.22405 0.72321 0.86361 0.0
H1297 H 0.27126 0.7437 0.86701 0.0
H1298 H 0.27252 0.79923 0.92367 0.0
H1299 H 0.22497 0.77818 0.92111 0.0
H1300 H 0.31262 0.79118 0.85876 0.0
H1301 H 0.30535 0.76563 0.96668 0.0
H1302 H 0.27713 0.75366 0.94537 0.0
H1303 H 0.29236 0.78634 0.95833 0.0
C1304 C 0.23434 0.74002 0.87653 0.0
C1305 C 0.22071 0.74883 0.89243 0.0
C1306 C 0.26138 0.75172 0.87844 0.0
C1307 C 0.27536 0.77256 0.89612 0.0
C1308 C 0.26204 0.78268 0.91049 0.0
H1309 H 0.44644 0.85042 0.90055 0.0
H1310 H 0.40183 0.8419 0.89488 0.0
C1311 C 0.23489 0.77076 0.90884 0.0
C1312 C 0.30353 0.78239 0.90054 0.0
H1313 H 0.34747 0.78822 0.94816 0.0
C1314 C 0.32031 0.79071 0.87833 0.0
C1315 C 0.31341 0.78133 0.92604 0.0
C1316 C 0.29613 0.77104 0.95044 0.0
C1317 C 0.34657 0.79755 0.8808 0.0
C1318 C 0.3565 0.7968 0.90635 0.0
C1319 C 0.33985 0.78896 0.92863 0.0
C1320 C 0.38366 0.8025 0.91025 0.0
C1321 C 0.36305 0.80437 0.85583 0.0
C1322 C 0.3883 0.7835 0.92153 0.0
C1323 C 0.41373 0.78841 0.92502 0.0
C1324 C 0.43506 0.81242 0.91724 0.0
C1325 C 0.43039 0.83158 0.90631 0.0
C1326 C 0.40492 0.82673 0.90301 0.0
H1327 H 0.35083 0.79692 0.83755 0.0
H1328 H 0.37507 0.82588 0.85409 0.0
H1329 H 0.37634 0.79626 0.85652 0.0
H1330 H 0.37218 0.76467 0.92728 0.0
H1331 H 0.41667 0.77318 0.93323 0.0
H1332 H 0.17995 0.62041 0.86764 0.0
H1333 H 0.18978 0.58515 0.86272 0.0
H1334 H 0.1879 0.57622 0.94848 0.0
H1335 H 0.17789 0.61146 0.95362 0.0
H1336 H 0.237 0.58745 0.89441 0.0
H1337 H 0.13916 0.50006 0.91035 0.0
H1338 H 0.14312 0.53011 0.89674 0.0
H1339 H 0.14913 0.5281 0.93157 0.0
C1340 C 0.18123 0.6107 0.88544 0.0
C1341 C 0.17815 0.61871 0.91105 0.0
C1342 C 0.18692 0.59065 0.88258 0.0
C1343 C 0.18931 0.57807 0.90523 0.0
C1344 C 0.18588 0.58565 0.93079 0.0
H1345 H 0.23084 0.46096 0.93706 0.0
H1346 H 0.21075 0.48829 0.93646 0.0
C1347 C 0.1804 0.60588 0.9337 0.0
C1348 C 0.19724 0.55826 0.90223 0.0
H1349 H 0.17475 0.49291 0.90547 0.0
C1350 C 0.22343 0.56675 0.89663 0.0
C1351 C 0.17941 0.53142 0.90541 0.0
C1352 C 0.15105 0.52165 0.91125 0.0
C1353 C 0.23249 0.54904 0.89464 0.0
C1354 C 0.21462 0.52204 0.89753 0.0
C1355 C 0.18833 0.51357 0.90302 0.0
C1356 C 0.2233 0.50258 0.8962 0.0
C1357 C 0.26128 0.55954 0.89045 0.0
C1358 C 0.23592 0.50061 0.87329 0.0
C1359 C 0.24764 0.48522 0.87366 0.0
C1360 C 0.24656 0.47122 0.89681 0.0
C1361 C 0.23208 0.47157 0.91894 0.0
C1362 C 0.2206 0.4872 0.91865 0.0
H1363 H 0.27296 0.58056 0.89561 0.0
H1364 H 0.26832 0.5487 0.90274 0.0
H1365 H 0.2649 0.55736 0.86907 0.0
H1366 H 0.23759 0.51179 0.85549 0.0
H1367 H 0.25839 0.48508 0.85618 0.0
H1368 H 0.43243 0.5935 0.54812 0.0
H1369 H 0.38714 0.55905 0.55398 0.0
H1370 H 0.38626 0.58844 0.63276 0.0
H1371 H 0.43177 0.62272 0.62714 0.0
H1372 H 0.36155 0.53503 0.63171 0.0
H1373 H 0.32638 0.57175 0.54877 0.0
H1374 H 0.35109 0.56455 0.53853 0.0
H1375 H 0.35886 0.59028 0.56223 0.0
C1376 C 0.42253 0.5927 0.56661 0.0
C1377 C 0.4355 0.611 0.58702 0.0
C1378 C 0.39668 0.57301 0.56995 0.0
C1379 C 0.38318 0.57154 0.59357 0.0
C1380 C 0.3963 0.58931 0.61432 0.0
H1381 H 0.22252 0.48779 0.64273 0.0
H1382 H 0.27013 0.51253 0.64246 0.0
C1383 C 0.42227 0.60886 0.61109 0.0
C1384 C 0.35519 0.55192 0.59632 0.0
H1385 H 0.29581 0.53106 0.56752 0.0
C1386 C 0.34714 0.53414 0.61771 0.0
C1387 C 0.33643 0.55097 0.57814 0.0
C1388 C 0.34354 0.57056 0.55579 0.0
C1389 C 0.32081 0.51516 0.62112 0.0
C1390 C 0.3022 0.51405 0.60271 0.0
C1391 C 0.31025 0.53179 0.58138 0.0
C1392 C 0.274 0.49557 0.60563 0.0
C1393 C 0.31306 0.49629 0.64419 0.0
C1394 C 0.26047 0.47748 0.58527 0.0
C1395 C 0.23327 0.46333 0.58532 0.0
C1396 C 0.21915 0.4673 0.60558 0.0
C1397 C 0.23282 0.48431 0.6268 0.0
C1398 C 0.26004 0.49838 0.62678 0.0
H1399 H 0.33011 0.49594 0.65295 0.0
H1400 H 0.30403 0.50223 0.66011 0.0
H1401 H 0.29848 0.47629 0.63768 0.0
H1402 H 0.27096 0.47518 0.56871 0.0
H1403 H 0.22336 0.45036 0.56871 0.0
H1404 H 0.37085 0.80431 0.62366 0.0
H1405 H 0.40489 0.79266 0.62652 0.0
H1406 H 0.41823 0.80492 0.54154 0.0
H1407 H 0.38438 0.81709 0.53856 0.0
H1408 H 0.405 0.75084 0.59662 0.0
H1409 H 0.49219 0.84764 0.57662 0.0
H1410 H 0.4615 0.84399 0.58766 0.0
H1411 H 0.46546 0.83709 0.55355 0.0
C1412 C 0.38123 0.80488 0.60562 0.0
C1413 C 0.375 0.81174 0.58089 0.0
C1414 C 0.40059 0.79811 0.60729 0.0
C1415 C 0.41425 0.79828 0.58432 0.0
C1416 C 0.40813 0.80506 0.55956 0.0
H1417 H 0.52916 0.75259 0.55244 0.0
H1418 H 0.5016 0.77244 0.55121 0.0
C1419 C 0.38862 0.81172 0.55784 0.0
C1420 C 0.43397 0.79005 0.58619 0.0
H1421 H 0.49901 0.81165 0.58007 0.0
C1422 C 0.42558 0.76412 0.59312 0.0
C1423 C 0.46071 0.80747 0.58145 0.0
C1424 C 0.47068 0.83568 0.57458 0.0
C1425 C 0.4432 0.75497 0.59508 0.0
C1426 C 0.47005 0.77244 0.59067 0.0
C1427 C 0.47845 0.79838 0.58363 0.0
C1428 C 0.48945 0.76373 0.59258 0.0
C1429 C 0.43279 0.72649 0.60118 0.0
C1430 C 0.49264 0.75334 0.61658 0.0
C1431 C 0.50823 0.74184 0.61732 0.0
C1432 C 0.52112 0.74081 0.59411 0.0
C1433 C 0.5194 0.75296 0.57063 0.0
C1434 C 0.50365 0.76431 0.56987 0.0
H1435 H 0.41155 0.71461 0.59717 0.0
H1436 H 0.44299 0.71857 0.58911 0.0
H1437 H 0.436 0.72426 0.62267 0.0
H1438 H 0.48233 0.75329 0.6345 0.0
H1439 H 0.50939 0.73292 0.63581 0.0
H1440 H 0.2672 0.77363 0.64336 0.0
H1441 H 0.2457 0.72599 0.64295 0.0
H1442 H 0.2092 0.72405 0.56773 0.0
H1443 H 0.23045 0.7716 0.56788 0.0
H1444 H 0.18461 0.68207 0.62901 0.0
H1445 H 0.26497 0.69492 0.5612 0.0
H1446 H 0.26907 0.71977 0.58481 0.0
H1447 H 0.24972 0.71423 0.55537 0.0
C1448 C 0.2541 0.76307 0.62704 0.0
C1449 C 0.25077 0.77642 0.60548 0.0
C1450 C 0.24182 0.73587 0.6269 0.0
C1451 C 0.22606 0.7217 0.60525 0.0
C1452 C 0.22132 0.73479 0.5846 0.0
H1453 H 0.17965 0.56744 0.54596 0.0
H1454 H 0.18941 0.61244 0.55155 0.0
C1455 C 0.23351 0.76195 0.58474 0.0
C1456 C 0.21722 0.69371 0.60255 0.0
H1457 H 0.23279 0.65211 0.5715 0.0
C1458 C 0.19503 0.67538 0.61647 0.0
C1459 C 0.23095 0.68529 0.5861 0.0
C1460 C 0.25509 0.70446 0.57102 0.0
C1461 C 0.18597 0.64855 0.61407 0.0
C1462 C 0.19989 0.64009 0.59778 0.0
C1463 C 0.2221 0.65859 0.58391 0.0
C1464 C 0.19205 0.61222 0.59479 0.0
C1465 C 0.16132 0.62957 0.62852 0.0
C1466 C 0.19035 0.59716 0.6172 0.0
C1467 C 0.18464 0.57141 0.61403 0.0
C1468 C 0.18098 0.5604 0.58834 0.0
C1469 C 0.18266 0.5755 0.56594 0.0
C1470 C 0.18809 0.60114 0.56915 0.0
H1471 H 0.14917 0.63844 0.63345 0.0
H1472 H 0.14951 0.61178 0.61635 0.0
H1473 H 0.16648 0.62368 0.6476 0.0
H1474 H 0.1941 0.60549 0.63711 0.0
H1475 H 0.18385 0.56036 0.63162 0.0
loop_
_geom_bond_atom_site_label_1
_geom_bond_atom_site_label_2
_geom_bond_distance
_geom_bond_site_symmetry_2
_ccdc_geom_bond_type
C0 C1 1.351 . S
C0 N3 1.368 . S
C0 H5 0.931 . S
C1 C0 1.351 . S
C1 N2 1.373 . S
C1 H29 0.930 . S
N2 C1 1.373 . S
N2 C4 1.340 . S
N3 C0 1.368 . S
N3 C4 1.321 . S
N3 Co6 2.135 . S
C4 N2 1.340 . S
C4 N3 1.321 . S
C4 H28 0.930 . S
H5 C0 0.931 . S
Co6 N3 2.135 . S
Co6 N9 2.121 . S
Co6 O14 2.055 . S
Co6 O17 2.039 . S
Co6 N20 2.140 . S
C7 O8 1.227 . S
C7 O17 1.265 . S
O8 C7 1.227 . S
N9 Co6 2.121 . S
N9 C11 1.375 . S
N9 C12 1.313 . S
C10 C11 1.338 . S
C10 N13 1.377 . S
C10 H30 0.930 . S
C11 N9 1.375 . S
C11 C10 1.338 . S
C11 H15 0.931 . S
C12 N9 1.313 . S
C12 N13 1.344 . S
C12 H16 0.930 . S
N13 C10 1.377 . S
N13 C12 1.344 . S
O14 Co6 2.055 . S
O14 C18 1.253 . S
H15 C11 0.931 . S
H16 C12 0.930 . S
O17 Co6 2.039 . S
O17 C7 1.265 . S
C18 O14 1.253 . S
C18 O19 1.227 . S
O19 C18 1.227 . S
N20 Co6 2.140 . S
N20 C23 1.346 . S
N20 C24 1.345 . S
C21 C22 1.387 . S
C21 C25 1.391 . S
C22 C21 1.387 . S
C22 C23 1.369 . S
C22 H31 0.929 . S
C23 N20 1.346 . S
C23 C22 1.369 . S
C23 H26 0.928 . S
C24 N20 1.345 . S
C24 C25 1.371 . S
C24 H27 0.931 . S
C25 C21 1.391 . S
C25 C24 1.371 . S
C25 H32 0.930 . S
H26 C23 0.928 . S
H27 C24 0.931 . S
H28 C4 0.930 . S
H29 C1 0.930 . S
H30 C10 0.930 . S
H31 C22 0.929 . S
H32 C25 0.930 . S
C33 C34 1.351 . S
C33 N36 1.368 . S
C33 H38 0.931 . S
C34 C33 1.351 . S
C34 N35 1.373 . S
C34 H62 0.930 . S
N35 C34 1.373 . S
N35 C37 1.340 . S
N36 C33 1.368 . S
N36 C37 1.321 . S
N36 Co39 2.135 . S
C37 N35 1.340 . S
C37 N36 1.321 . S
C37 H61 0.930 . S
H38 C33 0.931 . S
Co39 N36 2.135 . S
Co39 N42 2.121 . S
Co39 O47 2.055 . S
Co39 O50 2.039 . S
Co39 N53 2.140 . S
C40 O41 1.227 . S
C40 O50 1.265 . S
O41 C40 1.227 . S
N42 Co39 2.121 . S
N42 C44 1.375 . S
N42 C45 1.313 . S
C43 C44 1.338 . S
C43 N46 1.377 . S
C43 H63 0.930 . S
C44 N42 1.375 . S
C44 C43 1.338 . S
C44 H48 0.931 . S
C45 N42 1.313 . S
C45 N46 1.344 . S
C45 H49 0.930 . S
N46 C43 1.377 . S
N46 C45 1.344 . S
O47 Co39 2.055 . S
O47 C51 1.253 . S
H48 C44 0.931 . S
H49 C45 0.930 . S
O50 Co39 2.039 . S
O50 C40 1.265 . S
C51 O47 1.253 . S
C51 O52 1.227 . S
O52 C51 1.227 . S
N53 Co39 2.140 . S
N53 C56 1.346 . S
N53 C57 1.345 . S
C54 C55 1.387 . S
C54 C58 1.391 . S
C55 C54 1.387 . S
C55 C56 1.369 . S
C55 H64 0.929 . S
C56 N53 1.346 . S
C56 C55 1.369 . S
C56 H59 0.928 . S
C57 N53 1.345 . S
C57 C58 1.371 . S
C57 H60 0.931 . S
C58 C54 1.391 . S
C58 C57 1.371 . S
C58 H65 0.930 . S
H59 C56 0.928 . S
H60 C57 0.931 . S
H61 C37 0.930 . S
H62 C34 0.930 . S
H63 C43 0.930 . S
H64 C55 0.929 . S
H65 C58 0.930 . S
C66 C67 1.351 . S
C66 N69 1.368 . S
C66 H71 0.931 . S
C67 C66 1.351 . S
C67 N68 1.373 . S
C67 H95 0.930 . S
N68 C67 1.373 . S
N68 C70 1.340 . S
N69 C66 1.368 . S
N69 C70 1.321 . S
N69 Co72 2.135 . S
C70 N68 1.340 . S
C70 N69 1.321 . S
C70 H94 0.930 . S
H71 C66 0.931 . S
Co72 N69 2.135 . S
Co72 N75 2.121 . S
Co72 O80 2.055 . S
Co72 O83 2.039 . S
Co72 N86 2.140 . S
C73 O74 1.227 . S
C73 O83 1.265 . S
O74 C73 1.227 . S
N75 Co72 2.121 . S
N75 C77 1.375 . S
N75 C78 1.313 . S
C76 C77 1.338 . S
C76 N79 1.377 . S
C76 H96 0.930 . S
C77 N75 1.375 . S
C77 C76 1.338 . S
C77 H81 0.931 . S
C78 N75 1.313 . S
C78 N79 1.344 . S
C78 H82 0.930 . S
N79 C76 1.377 . S
N79 C78 1.344 . S
O80 Co72 2.055 . S
O80 C84 1.253 . S
H81 C77 0.931 . S
H82 C78 0.930 . S
O83 Co72 2.039 . S
O83 C73 1.265 . S
C84 O80 1.253 . S
C84 O85 1.227 . S
O85 C84 1.227 . S
N86 Co72 2.140 . S
N86 C89 1.346 . S
N86 C90 1.345 . S
C87 C88 1.387 . S
C87 C91 1.391 . S
C88 C87 1.387 . S
C88 C89 1.369 . S
C88 H97 0.929 . S
C89 N86 1.346 . S
C89 C88 1.369 . S
C89 H92 0.928 . S
C90 N86 1.345 . S
C90 C91 1.371 . S
C90 H93 0.931 . S
C91 C87 1.391 . S
C91 C90 1.371 . S
C91 H98 0.930 . S
H92 C89 0.928 . S
H93 C90 0.931 . S
H94 C70 0.930 . S
H95 C67 0.930 . S
H96 C76 0.930 . S
H97 C88 0.929 . S
H98 C91 0.930 . S
C99 C100 1.351 . S
C99 N102 1.368 . S
C99 H104 0.931 . S
C100 C99 1.351 . S
C100 N101 1.373 . S
C100 H128 0.930 . S
N101 C100 1.373 . S
N101 C103 1.340 . S
N102 C99 1.368 . S
N102 C103 1.321 . S
N102 Co105 2.135 . S
C103 N101 1.340 . S
C103 N102 1.321 . S
C103 H127 0.930 . S
H104 C99 0.931 . S
Co105 N102 2.135 . S
Co105 N108 2.121 . S
Co105 O113 2.055 . S
Co105 O116 2.039 . S
Co105 N119 2.140 . S
C106 O107 1.227 . S
C106 O116 1.265 . S
O107 C106 1.227 . S
N108 Co105 2.121 . S
N108 C110 1.375 . S
N108 C111 1.313 . S
C109 C110 1.338 . S
C109 N112 1.377 . S
C109 H129 0.930 . S
C110 N108 1.375 . S
C110 C109 1.338 . S
C110 H114 0.931 . S
C111 N108 1.313 . S
C111 N112 1.344 . S
C111 H115 0.930 . S
N112 C109 1.377 . S
N112 C111 1.344 . S
O113 Co105 2.055 . S
O113 C117 1.253 . S
H114 C110 0.931 . S
H115 C111 0.930 . S
O116 Co105 2.039 . S
O116 C106 1.265 . S
C117 O113 1.253 . S
C117 O118 1.227 . S
O118 C117 1.227 . S
N119 Co105 2.140 . S
N119 C122 1.346 . S
N119 C123 1.345 . S
C120 C121 1.387 . S
C120 C124 1.391 . S
C121 C120 1.387 . S
C121 C122 1.369 . S
C121 H130 0.929 . S
C122 N119 1.346 . S
C122 C121 1.369 . S
C122 H125 0.928 . S
C123 N119 1.345 . S
C123 C124 1.371 . S
C123 H126 0.931 . S
C124 C120 1.391 . S
C124 C123 1.371 . S
C124 H131 0.930 . S
H125 C122 0.928 . S
H126 C123 0.931 . S
H127 C103 0.930 . S
H128 C100 0.930 . S
H129 C109 0.930 . S
H130 C121 0.929 . S
H131 C124 0.930 . S
C132 C133 1.351 . S
C132 N135 1.368 . S
C132 H137 0.931 . S
C133 C132 1.351 . S
C133 N134 1.373 . S
C133 H161 0.930 . S
N134 C133 1.373 . S
N134 C136 1.340 . S
N135 C132 1.368 . S
N135 C136 1.321 . S
N135 Co138 2.135 . S
C136 N134 1.340 . S
C136 N135 1.321 . S
C136 H160 0.930 . S
H137 C132 0.931 . S
Co138 N135 2.135 . S
Co138 N141 2.121 . S
Co138 O146 2.055 . S
Co138 O149 2.039 . S
Co138 N152 2.140 . S
C139 O140 1.227 . S
C139 O149 1.265 . S
O140 C139 1.227 . S
N141 Co138 2.121 . S
N141 C143 1.375 . S
N141 C144 1.313 . S
C142 C143 1.338 . S
C142 N145 1.377 . S
C142 H162 0.930 . S
C143 N141 1.375 . S
C143 C142 1.338 . S
C143 H147 0.931 . S
C144 N141 1.313 . S
C144 N145 1.344 . S
C144 H148 0.930 . S
N145 C142 1.377 . S
N145 C144 1.344 . S
O146 Co138 2.055 . S
O146 C150 1.253 . S
H147 C143 0.931 . S
H148 C144 0.930 . S
O149 Co138 2.039 . S
O149 C139 1.265 . S
C150 O146 1.253 . S
C150 O151 1.227 . S
O151 C150 1.227 . S
N152 Co138 2.140 . S
N152 C155 1.346 . S
N152 C156 1.345 . S
C153 C154 1.387 . S
C153 C157 1.391 . S
C154 C153 1.387 . S
C154 C155 1.369 . S
C154 H163 0.929 . S
C155 N152 1.346 . S
C155 C154 1.369 . S
C155 H158 0.928 . S
C156 N152 1.345 . S
C156 C157 1.371 . S
C156 H159 0.931 . S
C157 C153 1.391 . S
C157 C156 1.371 . S
C157 H164 0.930 . S
H158 C155 0.928 . S
H159 C156 0.931 . S
H160 C136 0.930 . S
H161 C133 0.930 . S
H162 C142 0.930 . S
H163 C154 0.929 . S
H164 C157 0.930 . S
C165 C166 1.351 . S
C165 N168 1.368 . S
C165 H170 0.931 . S
C166 C165 1.351 . S
C166 N167 1.373 . S
C166 H194 0.930 . S
N167 C166 1.373 . S
N167 C169 1.340 . S
N168 C165 1.368 . S
N168 C169 1.321 . S
N168 Co171 2.135 . S
C169 N167 1.340 . S
C169 N168 1.321 . S
C169 H193 0.930 . S
H170 C165 0.931 . S
Co171 N168 2.135 . S
Co171 N174 2.121 . S
Co171 O179 2.055 . S
Co171 O182 2.039 . S
Co171 N185 2.140 . S
C172 O173 1.227 . S
C172 O182 1.265 . S
O173 C172 1.227 . S
N174 Co171 2.121 . S
N174 C176 1.375 . S
N174 C177 1.313 . S
C175 C176 1.338 . S
C175 N178 1.377 . S
C175 H195 0.930 . S
C176 N174 1.375 . S
C176 C175 1.338 . S
C176 H180 0.931 . S
C177 N174 1.313 . S
C177 N178 1.344 . S
C177 H181 0.930 . S
N178 C175 1.377 . S
N178 C177 1.344 . S
O179 Co171 2.055 . S
O179 C183 1.253 . S
H180 C176 0.931 . S
H181 C177 0.930 . S
O182 Co171 2.039 . S
O182 C172 1.265 . S
C183 O179 1.253 . S
C183 O184 1.227 . S
O184 C183 1.227 . S
N185 Co171 2.140 . S
N185 C188 1.346 . S
N185 C189 1.345 . S
C186 C187 1.387 . S
C186 C190 1.391 . S
C187 C186 1.387 . S
C187 C188 1.369 . S
C187 H196 0.929 . S
C188 N185 1.346 . S
C188 C187 1.369 . S
C188 H191 0.928 . S
C189 N185 1.345 . S
C189 C190 1.371 . S
C189 H192 0.931 . S
C190 C186 1.391 . S
C190 C189 1.371 . S
C190 H197 0.930 . S
H191 C188 0.928 . S
H192 C189 0.931 . S
H193 C169 0.930 . S
H194 C166 0.930 . S
H195 C175 0.930 . S
H196 C187 0.929 . S
H197 C190 0.930 . S
C198 C199 1.351 . S
C198 N201 1.368 . S
C198 H203 0.931 . S
C199 C198 1.351 . S
C199 N200 1.373 . S
C199 H227 0.930 . S
N200 C199 1.373 . S
N200 C202 1.340 . S
N201 C198 1.368 . S
N201 C202 1.321 . S
N201 Co204 2.135 . S
C202 N200 1.340 . S
C202 N201 1.321 . S
C202 H226 0.930 . S
H203 C198 0.931 . S
Co204 N201 2.135 . S
Co204 N207 2.121 . S
Co204 O212 2.055 . S
Co204 O215 2.039 . S
Co204 N218 2.140 . S
C205 O206 1.227 . S
C205 O215 1.265 . S
O206 C205 1.227 . S
N207 Co204 2.121 . S
N207 C209 1.375 . S
N207 C210 1.313 . S
C208 C209 1.338 . S
C208 N211 1.377 . S
C208 H228 0.930 . S
C209 N207 1.375 . S
C209 C208 1.338 . S
C209 H213 0.931 . S
C210 N207 1.313 . S
C210 N211 1.344 . S
C210 H214 0.930 . S
N211 C208 1.377 . S
N211 C210 1.344 . S
O212 Co204 2.055 . S
O212 C216 1.253 . S
H213 C209 0.931 . S
H214 C210 0.930 . S
O215 Co204 2.039 . S
O215 C205 1.265 . S
C216 O212 1.253 . S
C216 O217 1.227 . S
O217 C216 1.227 . S
N218 Co204 2.140 . S
N218 C221 1.346 . S
N218 C222 1.345 . S
C219 C220 1.387 . S
C219 C223 1.391 . S
C220 C219 1.387 . S
C220 C221 1.369 . S
C220 H229 0.929 . S
C221 N218 1.346 . S
C221 C220 1.369 . S
C221 H224 0.928 . S
C222 N218 1.345 . S
C222 C223 1.371 . S
C222 H225 0.931 . S
C223 C219 1.391 . S
C223 C222 1.371 . S
C223 H230 0.930 . S
H224 C221 0.928 . S
H225 C222 0.931 . S
H226 C202 0.930 . S
H227 C199 0.930 . S
H228 C208 0.930 . S
H229 C220 0.929 . S
H230 C223 0.930 . S
C231 C232 1.351 . S
C231 N234 1.368 . S
C231 H236 0.931 . S
C232 C231 1.351 . S
C232 N233 1.373 . S
C232 H260 0.930 . S
N233 C232 1.373 . S
N233 C235 1.340 . S
N234 C231 1.368 . S
N234 C235 1.321 . S
N234 Co237 2.135 . S
C235 N233 1.340 . S
C235 N234 1.321 . S
C235 H259 0.930 . S
H236 C231 0.931 . S
Co237 N234 2.135 . S
Co237 N240 2.121 . S
Co237 O245 2.055 . S
Co237 O248 2.039 . S
Co237 N251 2.140 . S
C238 O239 1.227 . S
C238 O248 1.265 . S
O239 C238 1.227 . S
N240 Co237 2.121 . S
N240 C242 1.375 . S
N240 C243 1.313 . S
C241 C242 1.338 . S
C241 N244 1.377 . S
C241 H261 0.930 . S
C242 N240 1.375 . S
C242 C241 1.338 . S
C242 H246 0.931 . S
C243 N240 1.313 . S
C243 N244 1.344 . S
C243 H247 0.930 . S
N244 C241 1.377 . S
N244 C243 1.344 . S
O245 Co237 2.055 . S
O245 C249 1.253 . S
H246 C242 0.931 . S
H247 C243 0.930 . S
O248 Co237 2.039 . S
O248 C238 1.265 . S
C249 O245 1.253 . S
C249 O250 1.227 . S
O250 C249 1.227 . S
N251 Co237 2.140 . S
N251 C254 1.346 . S
N251 C255 1.345 . S
C252 C253 1.387 . S
C252 C256 1.391 . S
C253 C252 1.387 . S
C253 C254 1.369 . S
C253 H262 0.929 . S
C254 N251 1.346 . S
C254 C253 1.369 . S
C254 H257 0.928 . S
C255 N251 1.345 . S
C255 C256 1.371 . S
C255 H258 0.931 . S
C256 C252 1.391 . S
C256 C255 1.371 . S
C256 H263 0.930 . S
H257 C254 0.928 . S
H258 C255 0.931 . S
H259 C235 0.930 . S
H260 C232 0.930 . S
H261 C241 0.930 . S
H262 C253 0.929 . S
H263 C256 0.930 . S
C264 C265 1.351 . S
C264 N267 1.368 . S
C264 H269 0.931 . S
C265 C264 1.351 . S
C265 N266 1.373 . S
C265 H293 0.930 . S
N266 C265 1.373 . S
N266 C268 1.340 . S
N267 C264 1.368 . S
N267 C268 1.321 . S
N267 Co270 2.135 . S
C268 N266 1.340 . S
C268 N267 1.321 . S
C268 H292 0.930 . S
H269 C264 0.931 . S
Co270 N267 2.135 . S
Co270 N273 2.121 . S
Co270 O278 2.055 . S
Co270 O281 2.039 . S
Co270 N284 2.140 . S
C271 O272 1.227 . S
C271 O281 1.265 . S
O272 C271 1.227 . S
N273 Co270 2.121 . S
N273 C275 1.375 . S
N273 C276 1.313 . S
C274 C275 1.338 . S
C274 N277 1.377 . S
C274 H294 0.930 . S
C275 N273 1.375 . S
C275 C274 1.338 . S
C275 H279 0.931 . S
C276 N273 1.313 . S
C276 N277 1.344 . S
C276 H280 0.930 . S
N277 C274 1.377 . S
N277 C276 1.344 . S
O278 Co270 2.055 . S
O278 C282 1.253 . S
H279 C275 0.931 . S
H280 C276 0.930 . S
O281 Co270 2.039 . S
O281 C271 1.265 . S
C282 O278 1.253 . S
C282 O283 1.227 . S
O283 C282 1.227 . S
N284 Co270 2.140 . S
N284 C287 1.346 . S
N284 C288 1.345 . S
C285 C286 1.387 . S
C285 C289 1.391 . S
C286 C285 1.387 . S
C286 C287 1.369 . S
C286 H295 0.929 . S
C287 N284 1.346 . S
C287 C286 1.369 . S
C287 H290 0.928 . S
C288 N284 1.345 . S
C288 C289 1.371 . S
C288 H291 0.931 . S
C289 C285 1.391 . S
C289 C288 1.371 . S
C289 H296 0.930 . S
H290 C287 0.928 . S
H291 C288 0.931 . S
H292 C268 0.930 . S
H293 C265 0.930 . S
H294 C274 0.930 . S
H295 C286 0.929 . S
H296 C289 0.930 . S
C297 C298 1.351 . S
C297 N300 1.368 . S
C297 H302 0.931 . S
C298 C297 1.351 . S
C298 N299 1.373 . S
C298 H326 0.930 . S
N299 C298 1.373 . S
N299 C301 1.340 . S
N300 C297 1.368 . S
N300 C301 1.321 . S
N300 Co303 2.135 . S
C301 N299 1.340 . S
C301 N300 1.321 . S
C301 H325 0.930 . S
H302 C297 0.931 . S
Co303 N300 2.135 . S
Co303 N306 2.121 . S
Co303 O311 2.055 . S
Co303 O314 2.039 . S
Co303 N317 2.140 . S
C304 O305 1.227 . S
C304 O314 1.265 . S
O305 C304 1.227 . S
N306 Co303 2.121 . S
N306 C308 1.375 . S
N306 C309 1.313 . S
C307 C308 1.338 . S
C307 N310 1.377 . S
C307 H327 0.930 . S
C308 N306 1.375 . S
C308 C307 1.338 . S
C308 H312 0.931 . S
C309 N306 1.313 . S
C309 N310 1.344 . S
C309 H313 0.930 . S
N310 C307 1.377 . S
N310 C309 1.344 . S
O311 Co303 2.055 . S
O311 C315 1.253 . S
H312 C308 0.931 . S
H313 C309 0.930 . S
O314 Co303 2.039 . S
O314 C304 1.265 . S
C315 O311 1.253 . S
C315 O316 1.227 . S
O316 C315 1.227 . S
N317 Co303 2.140 . S
N317 C320 1.346 . S
N317 C321 1.345 . S
C318 C319 1.387 . S
C318 C322 1.391 . S
C319 C318 1.387 . S
C319 C320 1.369 . S
C319 H328 0.929 . S
C320 N317 1.346 . S
C320 C319 1.369 . S
C320 H323 0.928 . S
C321 N317 1.345 . S
C321 C322 1.371 . S
C321 H324 0.931 . S
C322 C318 1.391 . S
C322 C321 1.371 . S
C322 H329 0.930 . S
H323 C320 0.928 . S
H324 C321 0.931 . S
H325 C301 0.930 . S
H326 C298 0.930 . S
H327 C307 0.930 . S
H328 C319 0.929 . S
H329 C322 0.930 . S
C330 C331 1.351 . S
C330 N333 1.368 . S
C330 H335 0.931 . S
C331 C330 1.351 . S
C331 N332 1.373 . S
C331 H359 0.930 . S
N332 C331 1.373 . S
N332 C334 1.340 . S
N333 C330 1.368 . S
N333 C334 1.321 . S
N333 Co336 2.135 . S
C334 N332 1.340 . S
C334 N333 1.321 . S
C334 H358 0.930 . S
H335 C330 0.931 . S
Co336 N333 2.135 . S
Co336 N339 2.121 . S
Co336 O344 2.055 . S
Co336 O347 2.039 . S
Co336 N350 2.140 . S
C337 O338 1.227 . S
C337 O347 1.265 . S
O338 C337 1.227 . S
N339 Co336 2.121 . S
N339 C341 1.375 . S
N339 C342 1.313 . S
C340 C341 1.338 . S
C340 N343 1.377 . S
C340 H360 0.930 . S
C341 N339 1.375 . S
C341 C340 1.338 . S
C341 H345 0.931 . S
C342 N339 1.313 . S
C342 N343 1.344 . S
C342 H346 0.930 . S
N343 C340 1.377 . S
N343 C342 1.344 . S
O344 Co336 2.055 . S
O344 C348 1.253 . S
H345 C341 0.931 . S
H346 C342 0.930 . S
O347 Co336 2.039 . S
O347 C337 1.265 . S
C348 O344 1.253 . S
C348 O349 1.227 . S
O349 C348 1.227 . S
N350 Co336 2.140 . S
N350 C353 1.346 . S
N350 C354 1.345 . S
C351 C352 1.387 . S
C351 C355 1.391 . S
C352 C351 1.387 . S
C352 C353 1.369 . S
C352 H361 0.929 . S
C353 N350 1.346 . S
C353 C352 1.369 . S
C353 H356 0.928 . S
C354 N350 1.345 . S
C354 C355 1.371 . S
C354 H357 0.931 . S
C355 C351 1.391 . S
C355 C354 1.371 . S
C355 H362 0.930 . S
H356 C353 0.928 . S
H357 C354 0.931 . S
H358 C334 0.930 . S
H359 C331 0.930 . S
H360 C340 0.930 . S
H361 C352 0.929 . S
H362 C355 0.930 . S
C363 C364 1.351 . S
C363 N366 1.368 . S
C363 H368 0.931 . S
C364 C363 1.351 . S
C364 N365 1.373 . S
C364 H392 0.930 . S
N365 C364 1.373 . S
N365 C367 1.340 . S
N366 C363 1.368 . S
N366 C367 1.321 . S
N366 Co369 2.135 . S
C367 N365 1.340 . S
C367 N366 1.321 . S
C367 H391 0.930 . S
H368 C363 0.931 . S
Co369 N366 2.135 . S
Co369 N372 2.121 . S
Co369 O377 2.055 . S
Co369 O380 2.039 . S
Co369 N383 2.140 . S
C370 O371 1.227 . S
C370 O380 1.265 . S
O371 C370 1.227 . S
N372 Co369 2.121 . S
N372 C374 1.375 . S
N372 C375 1.313 . S
C373 C374 1.338 . S
C373 N376 1.377 . S
C373 H393 0.930 . S
C374 N372 1.375 . S
C374 C373 1.338 . S
C374 H378 0.931 . S
C375 N372 1.313 . S
C375 N376 1.344 . S
C375 H379 0.930 . S
N376 C373 1.377 . S
N376 C375 1.344 . S
O377 Co369 2.055 . S
O377 C381 1.253 . S
H378 C374 0.931 . S
H379 C375 0.930 . S
O380 Co369 2.039 . S
O380 C370 1.265 . S
C381 O377 1.253 . S
C381 O382 1.227 . S
O382 C381 1.227 . S
N383 Co369 2.140 . S
N383 C386 1.346 . S
N383 C387 1.345 . S
C384 C385 1.387 . S
C384 C388 1.391 . S
C385 C384 1.387 . S
C385 C386 1.369 . S
C385 H394 0.929 . S
C386 N383 1.346 . S
C386 C385 1.369 . S
C386 H389 0.928 . S
C387 N383 1.345 . S
C387 C388 1.371 . S
C387 H390 0.931 . S
C388 C384 1.391 . S
C388 C387 1.371 . S
C388 H395 0.930 . S
H389 C386 0.928 . S
H390 C387 0.931 . S
H391 C367 0.930 . S
H392 C364 0.930 . S
H393 C373 0.930 . S
H394 C385 0.929 . S
H395 C388 0.930 . S
H396 C404 0.929 . S
H397 C406 0.930 . S
H398 C408 0.930 . S
H399 C411 0.929 . S
H400 C414 0.930 . S
H401 C416 0.960 . S
H402 C416 0.960 . S
H403 C416 0.960 . S
C404 H396 0.929 . S
C404 C405 1.377 . S
C404 C406 1.384 . S
C405 C404 1.377 . S
C405 C411 1.390 . S
C406 H397 0.930 . S
C406 C404 1.384 . S
C406 C407 1.372 . S
C407 C406 1.372 . S
C407 C408 1.400 . S
C407 C412 1.490 . S
C408 H398 0.930 . S
C408 C407 1.400 . S
C408 C411 1.386 . S
H409 C425 0.930 . S
H410 C426 0.931 . S
C411 H399 0.929 . S
C411 C405 1.390 . S
C411 C408 1.386 . S
C412 C407 1.490 . S
C412 C414 1.395 . S
C412 C415 1.403 . S
H413 C419 0.930 . S
C414 H400 0.930 . S
C414 C412 1.395 . S
C414 C417 1.403 . S
C415 C412 1.403 . S
C415 C416 1.524 . S
C415 C419 1.400 . S
C416 H401 0.960 . S
C416 H402 0.960 . S
C416 H403 0.960 . S
C416 C415 1.524 . S
C417 C414 1.403 . S
C417 C418 1.392 . S
C417 C421 1.495 . S
C418 C417 1.392 . S
C418 C419 1.385 . S
C418 C420 1.478 . S
C419 H413 0.930 . S
C419 C415 1.400 . S
C419 C418 1.385 . S
C420 C418 1.478 . S
C420 C422 1.381 . S
C420 C426 1.383 . S
C421 C417 1.495 . S
C421 H427 0.959 . S
C421 H428 0.961 . S
C421 H429 0.960 . S
C422 C420 1.381 . S
C422 C423 1.394 . S
C422 H430 0.930 . S
C423 C422 1.394 . S
C423 C424 1.383 . S
C423 H431 0.929 . S
C424 C423 1.383 . S
C424 C425 1.377 . S
C425 H409 0.930 . S
C425 C424 1.377 . S
C425 C426 1.379 . S
C426 H410 0.931 . S
C426 C420 1.383 . S
C426 C425 1.379 . S
H427 C421 0.959 . S
H428 C421 0.961 . S
H429 C421 0.960 . S
H430 C422 0.930 . S
H431 C423 0.929 . S
H432 C440 0.929 . S
H433 C442 0.930 . S
H434 C444 0.930 . S
H435 C447 0.929 . S
H436 C450 0.930 . S
H437 C452 0.960 . S
H438 C452 0.960 . S
H439 C452 0.960 . S
C440 H432 0.929 . S
C440 C441 1.377 . S
C440 C442 1.384 . S
C441 C440 1.377 . S
C441 C447 1.390 . S
C442 H433 0.930 . S
C442 C440 1.384 . S
C442 C443 1.372 . S
C443 C442 1.372 . S
C443 C444 1.400 . S
C443 C448 1.490 . S
C444 H434 0.930 . S
C444 C443 1.400 . S
C444 C447 1.386 . S
H445 C461 0.930 . S
H446 C462 0.931 . S
C447 H435 0.929 . S
C447 C441 1.390 . S
C447 C444 1.386 . S
C448 C443 1.490 . S
C448 C450 1.395 . S
C448 C451 1.403 . S
H449 C455 0.930 . S
C450 H436 0.930 . S
C450 C448 1.395 . S
C450 C453 1.403 . S
C451 C448 1.403 . S
C451 C452 1.524 . S
C451 C455 1.400 . S
C452 H437 0.960 . S
C452 H438 0.960 . S
C452 H439 0.960 . S
C452 C451 1.524 . S
C453 C450 1.403 . S
C453 C454 1.392 . S
C453 C457 1.495 . S
C454 C453 1.392 . S
C454 C455 1.385 . S
C454 C456 1.478 . S
C455 H449 0.930 . S
C455 C451 1.400 . S
C455 C454 1.385 . S
C456 C454 1.478 . S
C456 C458 1.381 . S
C456 C462 1.383 . S
C457 C453 1.495 . S
C457 H463 0.959 . S
C457 H464 0.961 . S
C457 H465 0.960 . S
C458 C456 1.381 . S
C458 C459 1.394 . S
C458 H466 0.930 . S
C459 C458 1.394 . S
C459 C460 1.383 . S
C459 H467 0.929 . S
C460 C459 1.383 . S
C460 C461 1.377 . S
C461 H445 0.930 . S
C461 C460 1.377 . S
C461 C462 1.379 . S
C462 H446 0.931 . S
C462 C456 1.383 . S
C462 C461 1.379 . S
H463 C457 0.959 . S
H464 C457 0.961 . S
H465 C457 0.960 . S
H466 C458 0.930 . S
H467 C459 0.929 . S
H468 C476 0.929 . S
H469 C478 0.930 . S
H470 C480 0.930 . S
H471 C483 0.929 . S
H472 C486 0.930 . S
H473 C488 0.960 . S
H474 C488 0.960 . S
H475 C488 0.960 . S
C476 H468 0.929 . S
C476 C477 1.377 . S
C476 C478 1.384 . S
C477 C476 1.377 . S
C477 C483 1.390 . S
C478 H469 0.930 . S
C478 C476 1.384 . S
C478 C479 1.372 . S
C479 C478 1.372 . S
C479 C480 1.400 . S
C479 C484 1.490 . S
C480 H470 0.930 . S
C480 C479 1.400 . S
C480 C483 1.386 . S
H481 C497 0.930 . S
H482 C498 0.931 . S
C483 H471 0.929 . S
C483 C477 1.390 . S
C483 C480 1.386 . S
C484 C479 1.490 . S
C484 C486 1.395 . S
C484 C487 1.403 . S
H485 C491 0.930 . S
C486 H472 0.930 . S
C486 C484 1.395 . S
C486 C489 1.403 . S
C487 C484 1.403 . S
C487 C488 1.524 . S
C487 C491 1.400 . S
C488 H473 0.960 . S
C488 H474 0.960 . S
C488 H475 0.960 . S
C488 C487 1.524 . S
C489 C486 1.403 . S
C489 C490 1.392 . S
C489 C493 1.495 . S
C490 C489 1.392 . S
C490 C491 1.385 . S
C490 C492 1.478 . S
C491 H485 0.930 . S
C491 C487 1.400 . S
C491 C490 1.385 . S
C492 C490 1.478 . S
C492 C494 1.381 . S
C492 C498 1.383 . S
C493 C489 1.495 . S
C493 H499 0.959 . S
C493 H500 0.961 . S
C493 H501 0.960 . S
C494 C492 1.381 . S
C494 C495 1.394 . S
C494 H502 0.930 . S
C495 C494 1.394 . S
C495 C496 1.383 . S
C495 H503 0.929 . S
C496 C495 1.383 . S
C496 C497 1.377 . S
C497 H481 0.930 . S
C497 C496 1.377 . S
C497 C498 1.379 . S
C498 H482 0.931 . S
C498 C492 1.383 . S
C498 C497 1.379 . S
H499 C493 0.959 . S
H500 C493 0.961 . S
H501 C493 0.960 . S
H502 C494 0.930 . S
H503 C495 0.929 . S
H504 C512 0.929 . S
H505 C514 0.930 . S
H506 C516 0.930 . S
H507 C519 0.929 . S
H508 C522 0.930 . S
H509 C524 0.960 . S
H510 C524 0.960 . S
H511 C524 0.960 . S
C512 H504 0.929 . S
C512 C513 1.377 . S
C512 C514 1.384 . S
C513 C512 1.377 . S
C513 C519 1.390 . S
C514 H505 0.930 . S
C514 C512 1.384 . S
C514 C515 1.372 . S
C515 C514 1.372 . S
C515 C516 1.400 . S
C515 C520 1.490 . S
C516 H506 0.930 . S
C516 C515 1.400 . S
C516 C519 1.386 . S
H517 C533 0.930 . S
H518 C534 0.931 . S
C519 H507 0.929 . S
C519 C513 1.390 . S
C519 C516 1.386 . S
C520 C515 1.490 . S
C520 C522 1.395 . S
C520 C523 1.403 . S
H521 C527 0.930 . S
C522 H508 0.930 . S
C522 C520 1.395 . S
C522 C525 1.403 . S
C523 C520 1.403 . S
C523 C524 1.524 . S
C523 C527 1.400 . S
C524 H509 0.960 . S
C524 H510 0.960 . S
C524 H511 0.960 . S
C524 C523 1.524 . S
C525 C522 1.403 . S
C525 C526 1.392 . S
C525 C529 1.495 . S
C526 C525 1.392 . S
C526 C527 1.385 . S
C526 C528 1.478 . S
C527 H521 0.930 . S
C527 C523 1.400 . S
C527 C526 1.385 . S
C528 C526 1.478 . S
C528 C530 1.381 . S
C528 C534 1.383 . S
C529 C525 1.495 . S
C529 H535 0.959 . S
C529 H536 0.961 . S
C529 H537 0.960 . S
C530 C528 1.381 . S
C530 C531 1.394 . S
C530 H538 0.930 . S
C531 C530 1.394 . S
C531 C532 1.383 . S
C531 H539 0.929 . S
C532 C531 1.383 . S
C532 C533 1.377 . S
C533 H517 0.930 . S
C533 C532 1.377 . S
C533 C534 1.379 . S
C534 H518 0.931 . S
C534 C528 1.383 . S
C534 C533 1.379 . S
H535 C529 0.959 . S
H536 C529 0.961 . S
H537 C529 0.960 . S
H538 C530 0.930 . S
H539 C531 0.929 . S
H540 C548 0.929 . S
H541 C550 0.930 . S
H542 C552 0.930 . S
H543 C555 0.929 . S
H544 C558 0.930 . S
H545 C560 0.960 . S
H546 C560 0.960 . S
H547 C560 0.960 . S
C548 H540 0.929 . S
C548 C549 1.377 . S
C548 C550 1.384 . S
C549 C548 1.377 . S
C549 C555 1.390 . S
C550 H541 0.930 . S
C550 C548 1.384 . S
C550 C551 1.372 . S
C551 C550 1.372 . S
C551 C552 1.400 . S
C551 C556 1.490 . S
C552 H542 0.930 . S
C552 C551 1.400 . S
C552 C555 1.386 . S
H553 C569 0.930 . S
H554 C570 0.931 . S
C555 H543 0.929 . S
C555 C549 1.390 . S
C555 C552 1.386 . S
C556 C551 1.490 . S
C556 C558 1.395 . S
C556 C559 1.403 . S
H557 C563 0.930 . S
C558 H544 0.930 . S
C558 C556 1.395 . S
C558 C561 1.403 . S
C559 C556 1.403 . S
C559 C560 1.524 . S
C559 C563 1.400 . S
C560 H545 0.960 . S
C560 H546 0.960 . S
C560 H547 0.960 . S
C560 C559 1.524 . S
C561 C558 1.403 . S
C561 C562 1.392 . S
C561 C565 1.495 . S
C562 C561 1.392 . S
C562 C563 1.385 . S
C562 C564 1.478 . S
C563 H557 0.930 . S
C563 C559 1.400 . S
C563 C562 1.385 . S
C564 C562 1.478 . S
C564 C566 1.381 . S
C564 C570 1.383 . S
C565 C561 1.495 . S
C565 H571 0.959 . S
C565 H572 0.961 . S
C565 H573 0.960 . S
C566 C564 1.381 . S
C566 C567 1.394 . S
C566 H574 0.930 . S
C567 C566 1.394 . S
C567 C568 1.383 . S
C567 H575 0.929 . S
C568 C567 1.383 . S
C568 C569 1.377 . S
C569 H553 0.930 . S
C569 C568 1.377 . S
C569 C570 1.379 . S
C570 H554 0.931 . S
C570 C564 1.383 . S
C570 C569 1.379 . S
H571 C565 0.959 . S
H572 C565 0.961 . S
H573 C565 0.960 . S
H574 C566 0.930 . S
H575 C567 0.929 . S
H576 C584 0.929 . S
H577 C586 0.930 . S
H578 C588 0.930 . S
H579 C591 0.929 . S
H580 C594 0.930 . S
H581 C596 0.960 . S
H582 C596 0.960 . S
H583 C596 0.960 . S
C584 H576 0.929 . S
C584 C585 1.377 . S
C584 C586 1.384 . S
C585 C584 1.377 . S
C585 C591 1.390 . S
C586 H577 0.930 . S
C586 C584 1.384 . S
C586 C587 1.372 . S
C587 C586 1.372 . S
C587 C588 1.400 . S
C587 C592 1.490 . S
C588 H578 0.930 . S
C588 C587 1.400 . S
C588 C591 1.386 . S
H589 C605 0.930 . S
H590 C606 0.931 . S
C591 H579 0.929 . S
C591 C585 1.390 . S
C591 C588 1.386 . S
C592 C587 1.490 . S
C592 C594 1.395 . S
C592 C595 1.403 . S
H593 C599 0.930 . S
C594 H580 0.930 . S
C594 C592 1.395 . S
C594 C597 1.403 . S
C595 C592 1.403 . S
C595 C596 1.524 . S
C595 C599 1.400 . S
C596 H581 0.960 . S
C596 H582 0.960 . S
C596 H583 0.960 . S
C596 C595 1.524 . S
C597 C594 1.403 . S
C597 C598 1.392 . S
C597 C601 1.495 . S
C598 C597 1.392 . S
C598 C599 1.385 . S
C598 C600 1.478 . S
C599 H593 0.930 . S
C599 C595 1.400 . S
C599 C598 1.385 . S
C600 C598 1.478 . S
C600 C602 1.381 . S
C600 C606 1.383 . S
C601 C597 1.495 . S
C601 H607 0.959 . S
C601 H608 0.961 . S
C601 H609 0.960 . S
C602 C600 1.381 . S
C602 C603 1.394 . S
C602 H610 0.930 . S
C603 C602 1.394 . S
C603 C604 1.383 . S
C603 H611 0.929 . S
C604 C603 1.383 . S
C604 C605 1.377 . S
C605 H589 0.930 . S
C605 C604 1.377 . S
C605 C606 1.379 . S
C606 H590 0.931 . S
C606 C600 1.383 . S
C606 C605 1.379 . S
H607 C601 0.959 . S
H608 C601 0.961 . S
H609 C601 0.960 . S
H610 C602 0.930 . S
H611 C603 0.929 . S
H612 C620 0.929 . S
H613 C622 0.930 1_565 S
H614 C624 0.930 . S
H615 C627 0.929 . S
H616 C630 0.930 . S
H617 C632 0.960 . S
H618 C632 0.960 . S
H619 C632 0.960 . S
C620 H612 0.929 . S
C620 C621 1.377 . S
C620 C622 1.384 . S
C621 C620 1.377 . S
C621 C627 1.390 . S
C622 H613 0.930 1_545 S
C622 C620 1.384 . S
C622 C623 1.372 . S
C623 C622 1.372 . S
C623 C624 1.400 . S
C623 C628 1.490 . S
C624 H614 0.930 . S
C624 C623 1.400 . S
C624 C627 1.386 . S
H625 C641 0.930 . S
H626 C642 0.948 . S
C627 H615 0.929 . S
C627 C621 1.390 . S
C627 C624 1.386 . S
C628 C623 1.490 . S
C628 C630 1.395 1_544 S
C628 C631 1.403 . S
H629 C635 0.929 1_545 S
C630 H616 0.930 . S
C630 C628 1.395 1_566 S
C630 C633 1.403 . S
C631 C628 1.403 . S
C631 C632 1.524 . S
C631 C635 1.402 1_545 S
C632 H617 0.960 . S
C632 H618 0.960 . S
C632 H619 0.960 . S
C632 C631 1.524 . S
C633 C630 1.403 . S
C633 C634 1.392 . S
C633 C637 1.495 . S
C634 C633 1.392 . S
C634 C635 1.384 1_556 S
C634 C636 1.478 . S
C635 H629 0.929 1_565 S
C635 C631 1.402 1_565 S
C635 C634 1.384 1_554 S
C636 C634 1.478 . S
C636 C638 1.381 . S
C636 C642 1.383 . S
C637 C633 1.495 . S
C637 H643 0.959 . S
C637 H644 0.961 . S
C637 H645 0.960 . S
C638 C636 1.381 . S
C638 C639 1.394 . S
C638 H646 0.930 . S
C639 C638 1.394 . S
C639 C640 1.383 . S
C639 H647 0.929 . S
C640 C639 1.383 . S
C640 C641 1.377 . S
C641 H625 0.930 . S
C641 C640 1.377 . S
C641 C642 1.379 . S
C642 H626 0.948 . S
C642 C636 1.383 . S
C642 C641 1.379 . S
H643 C637 0.959 . S
H644 C637 0.961 . S
H645 C637 0.960 . S
H646 C638 0.930 . S
H647 C639 0.929 . S
H648 C656 0.929 . S
H649 C658 0.930 1_455 S
H650 C660 0.930 . S
H651 C663 0.929 . S
H652 C666 0.930 . S
H653 C668 0.960 . S
H654 C668 0.960 . S
H655 C668 0.960 . S
C656 H648 0.929 . S
C656 C657 1.377 . S
C656 C658 1.384 . S
C657 C656 1.377 . S
C657 C663 1.390 . S
C658 H649 0.930 1_655 S
C658 C656 1.384 . S
C658 C659 1.372 . S
C659 C658 1.372 . S
C659 C660 1.400 . S
C659 C664 1.490 . S
C660 H650 0.930 . S
C660 C659 1.400 . S
C660 C663 1.386 . S
H661 C677 0.930 . S
H662 C678 0.931 . S
C663 H651 0.929 . S
C663 C657 1.390 . S
C663 C660 1.386 . S
C664 C659 1.490 . S
C664 C666 1.395 1_654 S
C664 C667 1.403 . S
H665 C671 0.930 . S
C666 H652 0.930 . S
C666 C664 1.395 1_456 S
C666 C669 1.403 . S
C667 C664 1.403 . S
C667 C668 1.524 . S
C667 C671 1.400 . S
C668 H653 0.960 . S
C668 H654 0.960 . S
C668 H655 0.960 . S
C668 C667 1.524 . S
C669 C666 1.403 . S
C669 C670 1.392 . S
C669 C673 1.495 . S
C670 C669 1.392 . S
C670 C671 1.385 1_456 S
C670 C672 1.478 . S
C671 H665 0.930 . S
C671 C667 1.400 . S
C671 C670 1.385 1_654 S
C672 C670 1.478 . S
C672 C674 1.381 . S
C672 C678 1.383 . S
C673 C669 1.495 . S
C673 H679 0.959 . S
C673 H680 0.961 . S
C673 H681 0.960 . S
C674 C672 1.381 . S
C674 C675 1.394 . S
C674 H682 0.930 . S
C675 C674 1.394 . S
C675 C676 1.383 . S
C675 H683 0.929 . S
C676 C675 1.383 . S
C676 C677 1.377 . S
C677 H661 0.930 . S
C677 C676 1.377 . S
C677 C678 1.379 . S
C678 H662 0.931 . S
C678 C672 1.383 . S
C678 C677 1.379 . S
H679 C673 0.959 . S
H680 C673 0.961 . S
H681 C673 0.960 . S
H682 C674 0.930 . S
H683 C675 0.929 . S
H684 C692 0.929 . S
H685 C694 0.930 1_554 S
H686 C696 0.930 . S
H687 C699 0.929 . S
H688 C702 0.930 . S
H689 C704 0.960 . S
H690 C704 0.960 . S
H691 C704 0.960 . S
C692 H684 0.929 . S
C692 C693 1.377 . S
C692 C694 1.384 . S
C693 C692 1.377 . S
C693 C699 1.390 . S
C694 H685 0.930 1_556 S
C694 C692 1.384 . S
C694 C695 1.372 . S
C695 C694 1.372 . S
C695 C696 1.400 . S
C695 C700 1.490 . S
C696 H686 0.930 . S
C696 C695 1.400 . S
C696 C699 1.386 . S
H697 C713 0.930 . S
H698 C714 0.931 1_556 S
C699 H687 0.929 . S
C699 C693 1.390 . S
C699 C696 1.386 . S
C700 C695 1.490 . S
C700 C702 1.395 . S
C700 C703 1.403 1_556 S
H701 C707 0.930 . S
C702 H688 0.930 . S
C702 C700 1.395 . S
C702 C705 1.403 . S
C703 C700 1.403 1_554 S
C703 C704 1.524 . S
C703 C707 1.400 . S
C704 H689 0.960 . S
C704 H690 0.960 . S
C704 H691 0.960 . S
C704 C703 1.524 . S
C705 C702 1.403 . S
C705 C706 1.392 1_556 S
C705 C709 1.495 . S
C706 C705 1.392 1_554 S
C706 C707 1.385 . S
C706 C708 1.478 . S
C707 H701 0.930 . S
C707 C703 1.400 . S
C707 C706 1.385 . S
C708 C706 1.478 . S
C708 C710 1.381 . S
C708 C714 1.383 . S
C709 C705 1.495 . S
C709 H715 0.959 . S
C709 H716 0.961 . S
C709 H717 0.960 . S
C710 C708 1.381 . S
C710 C711 1.394 . S
C710 H718 0.930 . S
C711 C710 1.394 . S
C711 C712 1.383 . S
C711 H719 0.929 . S
C712 C711 1.383 . S
C712 C713 1.377 . S
C713 H697 0.930 . S
C713 C712 1.377 . S
C713 C714 1.379 . S
C714 H698 0.931 1_554 S
C714 C708 1.383 . S
C714 C713 1.379 . S
H715 C709 0.959 . S
H716 C709 0.961 . S
H717 C709 0.960 . S
H718 C710 0.930 . S
H719 C711 0.929 . S
H720 C728 0.929 . S
H721 C730 0.930 . S
H722 C732 0.930 . S
H723 C735 0.929 . S
H724 C738 0.930 . S
H725 C740 0.960 . S
H726 C740 0.960 . S
H727 C740 0.960 . S
C728 H720 0.929 . S
C728 C729 1.377 . S
C728 C730 1.384 . S
C729 C728 1.377 . S
C729 C735 1.390 . S
C730 H721 0.930 . S
C730 C728 1.384 . S
C730 C731 1.372 . S
C731 C730 1.372 . S
C731 C732 1.400 . S
C731 C736 1.490 . S
C732 H722 0.930 . S
C732 C731 1.400 . S
C732 C735 1.386 . S
H733 C749 0.930 . S
H734 C750 0.931 . S
C735 H723 0.929 . S
C735 C729 1.390 . S
C735 C732 1.386 . S
C736 C731 1.490 . S
C736 C738 1.395 1_455 S
C736 C739 1.403 . S
H737 C743 0.930 . S
C738 H724 0.930 . S
C738 C736 1.395 1_655 S
C738 C741 1.403 . S
C739 C736 1.403 . S
C739 C740 1.524 . S
C739 C743 1.400 . S
C740 H725 0.960 . S
C740 H726 0.960 . S
C740 H727 0.960 . S
C740 C739 1.524 . S
C741 C738 1.403 . S
C741 C742 1.392 . S
C741 C745 1.495 . S
C742 C741 1.392 . S
C742 C743 1.385 1_655 S
C742 C744 1.478 . S
C743 H737 0.930 . S
C743 C739 1.400 . S
C743 C742 1.385 1_455 S
C744 C742 1.478 . S
C744 C746 1.381 . S
C744 C750 1.383 . S
C745 C741 1.495 . S
C745 H751 0.959 . S
C745 H752 0.961 . S
C745 H753 0.960 . S
C746 C744 1.381 . S
C746 C747 1.394 . S
C746 H754 0.930 . S
C747 C746 1.394 . S
C747 C748 1.383 . S
C747 H755 0.929 . S
C748 C747 1.383 . S
C748 C749 1.377 . S
C749 H733 0.930 . S
C749 C748 1.377 . S
C749 C750 1.379 . S
C750 H734 0.931 . S
C750 C744 1.383 . S
C750 C749 1.379 . S
H751 C745 0.959 . S
H752 C745 0.961 . S
H753 C745 0.960 . S
H754 C746 0.930 . S
H755 C747 0.929 . S
H756 C764 0.929 . S
H757 C766 0.930 . S
H758 C768 0.930 . S
H759 C771 0.929 . S
H760 C774 0.930 . S
H761 C776 0.960 . S
H762 C776 0.960 . S
H763 C776 0.960 . S
C764 H756 0.929 . S
C764 C765 1.377 . S
C764 C766 1.384 . S
C765 C764 1.377 . S
C765 C771 1.390 . S
C766 H757 0.930 . S
C766 C764 1.384 . S
C766 C767 1.372 . S
C767 C766 1.372 . S
C767 C768 1.400 . S
C767 C772 1.490 . S
C768 H758 0.930 . S
C768 C767 1.400 . S
C768 C771 1.386 . S
H769 C785 0.930 . S
H770 C786 0.931 . S
C771 H759 0.929 . S
C771 C765 1.390 . S
C771 C768 1.386 . S
C772 C767 1.490 . S
C772 C774 1.395 . S
C772 C775 1.403 . S
H773 C779 0.930 . S
C774 H760 0.930 . S
C774 C772 1.395 . S
C774 C777 1.403 . S
C775 C772 1.403 . S
C775 C776 1.524 . S
C775 C779 1.400 . S
C776 H761 0.960 . S
C776 H762 0.960 . S
C776 H763 0.960 . S
C776 C775 1.524 . S
C777 C774 1.403 . S
C777 C778 1.392 . S
C777 C781 1.495 . S
C778 C777 1.392 . S
C778 C779 1.385 . S
C778 C780 1.478 . S
C779 H773 0.930 . S
C779 C775 1.400 . S
C779 C778 1.385 . S
C780 C778 1.478 . S
C780 C782 1.381 . S
C780 C786 1.383 . S
C781 C777 1.495 . S
C781 H787 0.959 . S
C781 H788 0.961 . S
C781 H789 0.960 . S
C782 C780 1.381 . S
C782 C783 1.394 . S
C782 H790 0.930 . S
C783 C782 1.394 . S
C783 C784 1.383 . S
C783 H791 0.929 . S
C784 C783 1.383 . S
C784 C785 1.377 . S
C785 H769 0.930 . S
C785 C784 1.377 . S
C785 C786 1.379 . S
C786 H770 0.931 . S
C786 C780 1.383 . S
C786 C785 1.379 . S
H787 C781 0.959 . S
H788 C781 0.961 . S
H789 C781 0.960 . S
H790 C782 0.930 . S
H791 C783 0.929 . S
H792 C800 0.929 . S
H793 C802 0.930 1_565 S
H794 C804 0.930 . S
H795 C807 0.929 . S
H796 C810 0.930 . S
H797 C812 0.960 . S
H798 C812 0.960 . S
H799 C812 0.960 . S
C800 H792 0.929 . S
C800 C801 1.377 . S
C800 C802 1.384 . S
C801 C800 1.377 . S
C801 C807 1.390 . S
C802 H793 0.930 1_545 S
C802 C800 1.384 . S
C802 C803 1.372 . S
C803 C802 1.372 . S
C803 C804 1.400 . S
C803 C808 1.490 . S
C804 H794 0.930 . S
C804 C803 1.400 . S
C804 C807 1.386 . S
H805 C821 0.930 . S
H806 C822 0.909 1_545 S
C807 H795 0.929 . S
C807 C801 1.390 . S
C807 C804 1.386 . S
C808 C803 1.490 . S
C808 C810 1.395 1_545 S
C808 C811 1.403 . S
H809 C815 0.930 . S
C810 H796 0.930 . S
C810 C808 1.395 1_565 S
C810 C813 1.403 . S
C811 C808 1.403 . S
C811 C812 1.524 . S
C811 C815 1.400 1_545 S
C812 H797 0.960 . S
C812 H798 0.960 . S
C812 H799 0.960 . S
C812 C811 1.524 . S
C813 C810 1.403 . S
C813 C814 1.392 . S
C813 C817 1.495 . S
C814 C813 1.392 . S
C814 C815 1.385 . S
C814 C816 1.478 . S
C815 H809 0.930 . S
C815 C811 1.400 1_565 S
C815 C814 1.385 . S
C816 C814 1.478 . S
C816 C818 1.381 . S
C816 C822 1.383 . S
C817 C813 1.495 . S
C817 H823 0.959 . S
C817 H824 0.961 . S
C817 H825 0.960 . S
C818 C816 1.381 . S
C818 C819 1.394 . S
C818 H826 0.930 . S
C819 C818 1.394 . S
C819 C820 1.383 . S
C819 H827 0.929 . S
C820 C819 1.383 . S
C820 C821 1.377 . S
C821 H805 0.930 . S
C821 C820 1.377 . S
C821 C822 1.379 . S
C822 H806 0.909 1_565 S
C822 C816 1.383 . S
C822 C821 1.379 . S
H823 C817 0.959 . S
H824 C817 0.961 . S
H825 C817 0.960 . S
H826 C818 0.930 . S
H827 C819 0.929 . S
H828 C836 0.929 . S
H829 C838 0.930 . S
H830 C840 0.930 . S
H831 C843 0.929 . S
H832 C846 0.930 . S
H833 C848 0.960 . S
H834 C848 0.960 . S
H835 C848 0.960 . S
C836 H828 0.929 . S
C836 C837 1.377 . S
C836 C838 1.384 . S
C837 C836 1.377 . S
C837 C843 1.390 . S
C838 H829 0.930 . S
C838 C836 1.384 . S
C838 C839 1.372 . S
C839 C838 1.372 . S
C839 C840 1.400 . S
C839 C844 1.490 . S
C840 H830 0.930 . S
C840 C839 1.400 . S
C840 C843 1.386 . S
H841 C857 0.930 . S
H842 C858 0.931 . S
C843 H831 0.929 . S
C843 C837 1.390 . S
C843 C840 1.386 . S
C844 C839 1.490 . S
C844 C846 1.395 . S
C844 C847 1.403 . S
H845 C851 0.930 . S
C846 H832 0.930 . S
C846 C844 1.395 . S
C846 C849 1.403 . S
C847 C844 1.403 . S
C847 C848 1.524 . S
C847 C851 1.400 . S
C848 H833 0.960 . S
C848 H834 0.960 . S
C848 H835 0.960 . S
C848 C847 1.524 . S
C849 C846 1.403 . S
C849 C850 1.392 . S
C849 C853 1.495 . S
C850 C849 1.392 . S
C850 C851 1.385 . S
C850 C852 1.478 . S
C851 H845 0.930 . S
C851 C847 1.400 . S
C851 C850 1.385 . S
C852 C850 1.478 . S
C852 C854 1.381 . S
C852 C858 1.383 . S
C853 C849 1.495 . S
C853 H859 0.959 . S
C853 H860 0.961 . S
C853 H861 0.960 . S
C854 C852 1.381 . S
C854 C855 1.394 . S
C854 H862 0.930 . S
C855 C854 1.394 . S
C855 C856 1.383 . S
C855 H863 0.929 . S
C856 C855 1.383 . S
C856 C857 1.377 . S
C857 H841 0.930 . S
C857 C856 1.377 . S
C857 C858 1.379 . S
C858 H842 0.931 . S
C858 C852 1.383 . S
C858 C857 1.379 . S
H859 C853 0.959 . S
H860 C853 0.961 . S
H861 C853 0.960 . S
H862 C854 0.930 . S
H863 C855 0.929 . S
H864 C872 0.929 . S
H865 C874 0.930 . S
H866 C876 0.930 . S
H867 C879 0.929 . S
H868 C882 0.930 . S
H869 C884 0.960 . S
H870 C884 0.960 . S
H871 C884 0.960 . S
C872 H864 0.929 . S
C872 C873 1.377 . S
C872 C874 1.384 . S
C873 C872 1.377 . S
C873 C879 1.390 . S
C874 H865 0.930 . S
C874 C872 1.384 . S
C874 C875 1.372 . S
C875 C874 1.372 . S
C875 C876 1.400 . S
C875 C880 1.490 . S
C876 H866 0.930 . S
C876 C875 1.400 . S
C876 C879 1.386 . S
H877 C893 0.930 . S
H878 C894 0.931 . S
C879 H867 0.929 . S
C879 C873 1.390 . S
C879 C876 1.386 . S
C880 C875 1.490 . S
C880 C882 1.395 . S
C880 C883 1.403 . S
H881 C887 0.930 . S
C882 H868 0.930 . S
C882 C880 1.395 . S
C882 C885 1.403 . S
C883 C880 1.403 . S
C883 C884 1.524 . S
C883 C887 1.400 . S
C884 H869 0.960 . S
C884 H870 0.960 . S
C884 H871 0.960 . S
C884 C883 1.524 . S
C885 C882 1.403 . S
C885 C886 1.392 . S
C885 C889 1.495 . S
C886 C885 1.392 . S
C886 C887 1.385 . S
C886 C888 1.478 . S
C887 H881 0.930 . S
C887 C883 1.400 . S
C887 C886 1.385 . S
C888 C886 1.478 . S
C888 C890 1.381 . S
C888 C894 1.383 . S
C889 C885 1.495 . S
C889 H895 0.959 . S
C889 H896 0.961 . S
C889 H897 0.960 . S
C890 C888 1.381 . S
C890 C891 1.394 . S
C890 H898 0.930 . S
C891 C890 1.394 . S
C891 C892 1.383 . S
C891 H899 0.929 . S
C892 C891 1.383 . S
C892 C893 1.377 . S
C893 H877 0.930 . S
C893 C892 1.377 . S
C893 C894 1.379 . S
C894 H878 0.931 . S
C894 C888 1.383 . S
C894 C893 1.379 . S
H895 C889 0.959 . S
H896 C889 0.961 . S
H897 C889 0.960 . S
H898 C890 0.930 . S
H899 C891 0.929 . S
H900 C908 0.929 . S
H901 C910 0.930 . S
H902 C912 0.930 . S
H903 C915 0.929 . S
H904 C918 0.930 . S
H905 C920 0.960 . S
H906 C920 0.960 . S
H907 C920 0.960 . S
C908 H900 0.929 . S
C908 C909 1.377 . S
C908 C910 1.384 . S
C909 C908 1.377 . S
C909 C915 1.390 . S
C910 H901 0.930 . S
C910 C908 1.384 . S
C910 C911 1.372 . S
C911 C910 1.372 . S
C911 C912 1.400 . S
C911 C916 1.490 . S
C912 H902 0.930 . S
C912 C911 1.400 . S
C912 C915 1.386 . S
H913 C929 0.930 . S
H914 C930 0.931 . S
C915 H903 0.929 . S
C915 C909 1.390 . S
C915 C912 1.386 . S
C916 C911 1.490 . S
C916 C918 1.395 . S
C916 C919 1.403 . S
H917 C923 0.930 . S
C918 H904 0.930 . S
C918 C916 1.395 . S
C918 C921 1.403 . S
C919 C916 1.403 . S
C919 C920 1.524 . S
C919 C923 1.400 . S
C920 H905 0.960 . S
C920 H906 0.960 . S
C920 H907 0.960 . S
C920 C919 1.524 . S
C921 C918 1.403 . S
C921 C922 1.392 . S
C921 C925 1.495 . S
C922 C921 1.392 . S
C922 C923 1.385 . S
C922 C924 1.478 . S
C923 H917 0.930 . S
C923 C919 1.400 . S
C923 C922 1.385 . S
C924 C922 1.478 . S
C924 C926 1.381 . S
C924 C930 1.383 . S
C925 C921 1.495 . S
C925 H931 0.959 . S
C925 H932 0.961 . S
C925 H933 0.960 . S
C926 C924 1.381 . S
C926 C927 1.394 . S
C926 H934 0.930 . S
C927 C926 1.394 . S
C927 C928 1.383 . S
C927 H935 0.929 . S
C928 C927 1.383 . S
C928 C929 1.377 . S
C929 H913 0.930 . S
C929 C928 1.377 . S
C929 C930 1.379 . S
C930 H914 0.931 . S
C930 C924 1.383 . S
C930 C929 1.379 . S
H931 C925 0.959 . S
H932 C925 0.961 . S
H933 C925 0.960 . S
H934 C926 0.930 . S
H935 C927 0.929 . S
H936 C944 0.929 . S
H937 C946 0.930 . S
H938 C948 0.930 . S
H939 C951 0.929 . S
H940 C954 0.930 . S
H941 C956 0.960 . S
H942 C956 0.960 . S
H943 C956 0.960 . S
C944 H936 0.929 . S
C944 C945 1.377 . S
C944 C946 1.384 . S
C945 C944 1.377 . S
C945 C951 1.390 . S
C946 H937 0.930 . S
C946 C944 1.384 . S
C946 C947 1.372 . S
C947 C946 1.372 . S
C947 C948 1.400 . S
C947 C952 1.490 . S
C948 H938 0.930 . S
C948 C947 1.400 . S
C948 C951 1.386 . S
H949 C965 0.930 . S
H950 C966 0.931 . S
C951 H939 0.929 . S
C951 C945 1.390 . S
C951 C948 1.386 . S
C952 C947 1.490 . S
C952 C954 1.395 . S
C952 C955 1.403 . S
H953 C959 0.930 . S
C954 H940 0.930 . S
C954 C952 1.395 . S
C954 C957 1.403 . S
C955 C952 1.403 . S
C955 C956 1.524 . S
C955 C959 1.400 . S
C956 H941 0.960 . S
C956 H942 0.960 . S
C956 H943 0.960 . S
C956 C955 1.524 . S
C957 C954 1.403 . S
C957 C958 1.392 . S
C957 C961 1.495 . S
C958 C957 1.392 . S
C958 C959 1.385 . S
C958 C960 1.478 . S
C959 H953 0.930 . S
C959 C955 1.400 . S
C959 C958 1.385 . S
C960 C958 1.478 . S
C960 C962 1.381 . S
C960 C966 1.383 . S
C961 C957 1.495 . S
C961 H967 0.959 . S
C961 H968 0.961 . S
C961 H969 0.960 . S
C962 C960 1.381 . S
C962 C963 1.394 . S
C962 H970 0.930 . S
C963 C962 1.394 . S
C963 C964 1.383 . S
C963 H971 0.929 . S
C964 C963 1.383 . S
C964 C965 1.377 . S
C965 H949 0.930 . S
C965 C964 1.377 . S
C965 C966 1.379 . S
C966 H950 0.931 . S
C966 C960 1.383 . S
C966 C965 1.379 . S
H967 C961 0.959 . S
H968 C961 0.961 . S
H969 C961 0.960 . S
H970 C962 0.930 . S
H971 C963 0.929 . S
H972 C980 0.929 . S
H973 C982 0.930 . S
H974 C984 0.930 . S
H975 C987 0.929 . S
H976 C990 0.930 . S
H977 C992 0.960 . S
H978 C992 0.960 . S
H979 C992 0.960 . S
C980 H972 0.929 . S
C980 C981 1.377 . S
C980 C982 1.384 . S
C981 C980 1.377 . S
C981 C987 1.390 . S
C982 H973 0.930 . S
C982 C980 1.384 . S
C982 C983 1.372 . S
C983 C982 1.372 . S
C983 C984 1.400 . S
C983 C988 1.490 . S
C984 H974 0.930 . S
C984 C983 1.400 . S
C984 C987 1.386 . S
H985 C1001 0.930 . S
H986 C1002 0.931 . S
C987 H975 0.929 . S
C987 C981 1.390 . S
C987 C984 1.386 . S
C988 C983 1.490 . S
C988 C990 1.395 . S
C988 C991 1.403 . S
H989 C995 0.930 . S
C990 H976 0.930 . S
C990 C988 1.395 . S
C990 C993 1.403 . S
C991 C988 1.403 . S
C991 C992 1.524 . S
C991 C995 1.400 . S
C992 H977 0.960 . S
C992 H978 0.960 . S
C992 H979 0.960 . S
C992 C991 1.524 . S
C993 C990 1.403 . S
C993 C994 1.392 . S
C993 C997 1.495 . S
C994 C993 1.392 . S
C994 C995 1.385 . S
C994 C996 1.478 . S
C995 H989 0.930 . S
C995 C991 1.400 . S
C995 C994 1.385 . S
C996 C994 1.478 . S
C996 C998 1.381 . S
C996 C1002 1.383 . S
C997 C993 1.495 . S
C997 H1003 0.959 . S
C997 H1004 0.961 . S
C997 H1005 0.960 . S
C998 C996 1.381 . S
C998 C999 1.394 . S
C998 H1006 0.930 . S
C999 C998 1.394 . S
C999 C1000 1.383 . S
C999 H1007 0.929 . S
C1000 C999 1.383 . S
C1000 C1001 1.377 . S
C1001 H985 0.930 . S
C1001 C1000 1.377 . S
C1001 C1002 1.379 . S
C1002 H986 0.931 . S
C1002 C996 1.383 . S
C1002 C1001 1.379 . S
H1003 C997 0.959 . S
H1004 C997 0.961 . S
H1005 C997 0.960 . S
H1006 C998 0.930 . S
H1007 C999 0.929 . S
H1008 C1016 0.929 . S
H1009 C1018 0.930 . S
H1010 C1020 0.930 . S
H1011 C1023 0.929 . S
H1012 C1026 0.930 . S
H1013 C1028 0.960 . S
H1014 C1028 0.960 . S
H1015 C1028 0.960 . S
C1016 H1008 0.929 . S
C1016 C1017 1.377 . S
C1016 C1018 1.384 . S
C1017 C1016 1.377 . S
C1017 C1023 1.390 . S
C1018 H1009 0.930 . S
C1018 C1016 1.384 . S
C1018 C1019 1.372 . S
C1019 C1018 1.372 . S
C1019 C1020 1.400 . S
C1019 C1024 1.490 . S
C1020 H1010 0.930 . S
C1020 C1019 1.400 . S
C1020 C1023 1.386 . S
H1021 C1037 0.930 . S
H1022 C1038 0.931 . S
C1023 H1011 0.929 . S
C1023 C1017 1.390 . S
C1023 C1020 1.386 . S
C1024 C1019 1.490 . S
C1024 C1026 1.395 . S
C1024 C1027 1.403 . S
H1025 C1031 0.930 . S
C1026 H1012 0.930 . S
C1026 C1024 1.395 . S
C1026 C1029 1.403 . S
C1027 C1024 1.403 . S
C1027 C1028 1.524 . S
C1027 C1031 1.400 . S
C1028 H1013 0.960 . S
C1028 H1014 0.960 . S
C1028 H1015 0.960 . S
C1028 C1027 1.524 . S
C1029 C1026 1.403 . S
C1029 C1030 1.392 . S
C1029 C1033 1.495 . S
C1030 C1029 1.392 . S
C1030 C1031 1.385 . S
C1030 C1032 1.478 . S
C1031 H1025 0.930 . S
C1031 C1027 1.400 . S
C1031 C1030 1.385 . S
C1032 C1030 1.478 . S
C1032 C1034 1.381 . S
C1032 C1038 1.383 . S
C1033 C1029 1.495 . S
C1033 H1039 0.959 . S
C1033 H1040 0.961 . S
C1033 H1041 0.960 . S
C1034 C1032 1.381 . S
C1034 C1035 1.394 . S
C1034 H1042 0.930 . S
C1035 C1034 1.394 . S
C1035 C1036 1.383 . S
C1035 H1043 0.929 . S
C1036 C1035 1.383 . S
C1036 C1037 1.377 . S
C1037 H1021 0.930 . S
C1037 C1036 1.377 . S
C1037 C1038 1.379 . S
C1038 H1022 0.931 . S
C1038 C1032 1.383 . S
C1038 C1037 1.379 . S
H1039 C1033 0.959 . S
H1040 C1033 0.961 . S
H1041 C1033 0.960 . S
H1042 C1034 0.930 . S
H1043 C1035 0.929 . S
H1044 C1052 0.929 . S
H1045 C1054 0.930 . S
H1046 C1056 0.930 . S
H1047 C1059 0.929 . S
H1048 C1062 0.930 . S
H1049 C1064 0.960 . S
H1050 C1064 0.960 . S
H1051 C1064 0.960 . S
C1052 H1044 0.929 . S
C1052 C1053 1.377 . S
C1052 C1054 1.384 . S
C1053 C1052 1.377 . S
C1053 C1059 1.390 . S
C1054 H1045 0.930 . S
C1054 C1052 1.384 . S
C1054 C1055 1.372 . S
C1055 C1054 1.372 . S
C1055 C1056 1.400 . S
C1055 C1060 1.490 . S
C1056 H1046 0.930 . S
C1056 C1055 1.400 . S
C1056 C1059 1.386 . S
H1057 C1073 0.930 . S
H1058 C1074 0.931 . S
C1059 H1047 0.929 . S
C1059 C1053 1.390 . S
C1059 C1056 1.386 . S
C1060 C1055 1.490 . S
C1060 C1062 1.395 . S
C1060 C1063 1.403 . S
H1061 C1067 0.930 . S
C1062 H1048 0.930 . S
C1062 C1060 1.395 . S
C1062 C1065 1.403 . S
C1063 C1060 1.403 . S
C1063 C1064 1.524 . S
C1063 C1067 1.400 . S
C1064 H1049 0.960 . S
C1064 H1050 0.960 . S
C1064 H1051 0.960 . S
C1064 C1063 1.524 . S
C1065 C1062 1.403 . S
C1065 C1066 1.392 . S
C1065 C1069 1.495 . S
C1066 C1065 1.392 . S
C1066 C1067 1.385 . S
C1066 C1068 1.478 . S
C1067 H1061 0.930 . S
C1067 C1063 1.400 . S
C1067 C1066 1.385 . S
C1068 C1066 1.478 . S
C1068 C1070 1.381 . S
C1068 C1074 1.383 . S
C1069 C1065 1.495 . S
C1069 H1075 0.959 . S
C1069 H1076 0.961 . S
C1069 H1077 0.960 . S
C1070 C1068 1.381 . S
C1070 C1071 1.394 . S
C1070 H1078 0.930 . S
C1071 C1070 1.394 . S
C1071 C1072 1.383 . S
C1071 H1079 0.929 . S
C1072 C1071 1.383 . S
C1072 C1073 1.377 . S
C1073 H1057 0.930 . S
C1073 C1072 1.377 . S
C1073 C1074 1.379 . S
C1074 H1058 0.931 . S
C1074 C1068 1.383 . S
C1074 C1073 1.379 . S
H1075 C1069 0.959 . S
H1076 C1069 0.961 . S
H1077 C1069 0.960 . S
H1078 C1070 0.930 . S
H1079 C1071 0.929 . S
H1080 C1088 0.929 . S
H1081 C1090 0.930 . S
H1082 C1092 0.930 . S
H1083 C1095 0.929 . S
H1084 C1098 0.930 . S
H1085 C1100 0.960 . S
H1086 C1100 0.960 . S
H1087 C1100 0.960 . S
C1088 H1080 0.929 . S
C1088 C1089 1.377 . S
C1088 C1090 1.384 . S
C1089 C1088 1.377 . S
C1089 C1095 1.390 . S
C1090 H1081 0.930 . S
C1090 C1088 1.384 . S
C1090 C1091 1.372 . S
C1091 C1090 1.372 . S
C1091 C1092 1.400 . S
C1091 C1096 1.490 . S
C1092 H1082 0.930 . S
C1092 C1091 1.400 . S
C1092 C1095 1.386 . S
H1093 C1109 0.930 . S
H1094 C1110 0.931 . S
C1095 H1083 0.929 . S
C1095 C1089 1.390 . S
C1095 C1092 1.386 . S
C1096 C1091 1.490 . S
C1096 C1098 1.395 . S
C1096 C1099 1.403 . S
H1097 C1103 0.930 . S
C1098 H1084 0.930 . S
C1098 C1096 1.395 . S
C1098 C1101 1.403 . S
C1099 C1096 1.403 . S
C1099 C1100 1.524 . S
C1099 C1103 1.400 . S
C1100 H1085 0.960 . S
C1100 H1086 0.960 . S
C1100 H1087 0.960 . S
C1100 C1099 1.524 . S
C1101 C1098 1.403 . S
C1101 C1102 1.392 . S
C1101 C1105 1.495 . S
C1102 C1101 1.392 . S
C1102 C1103 1.385 . S
C1102 C1104 1.478 . S
C1103 H1097 0.930 . S
C1103 C1099 1.400 . S
C1103 C1102 1.385 . S
C1104 C1102 1.478 . S
C1104 C1106 1.381 . S
C1104 C1110 1.383 . S
C1105 C1101 1.495 . S
C1105 H1111 0.959 . S
C1105 H1112 0.961 . S
C1105 H1113 0.960 . S
C1106 C1104 1.381 . S
C1106 C1107 1.394 . S
C1106 H1114 0.930 . S
C1107 C1106 1.394 . S
C1107 C1108 1.383 . S
C1107 H1115 0.929 . S
C1108 C1107 1.383 . S
C1108 C1109 1.377 . S
C1109 H1093 0.930 . S
C1109 C1108 1.377 . S
C1109 C1110 1.379 . S
C1110 H1094 0.931 . S
C1110 C1104 1.383 . S
C1110 C1109 1.379 . S
H1111 C1105 0.959 . S
H1112 C1105 0.961 . S
H1113 C1105 0.960 . S
H1114 C1106 0.930 . S
H1115 C1107 0.929 . S
H1116 C1124 0.929 . S
H1117 C1126 0.930 . S
H1118 C1128 0.930 . S
H1119 C1131 0.929 . S
H1120 C1134 0.930 . S
H1121 C1136 0.960 . S
H1122 C1136 0.960 . S
H1123 C1136 0.960 . S
C1124 H1116 0.929 . S
C1124 C1125 1.377 . S
C1124 C1126 1.384 . S
C1125 C1124 1.377 . S
C1125 C1131 1.390 . S
C1126 H1117 0.930 . S
C1126 C1124 1.384 . S
C1126 C1127 1.372 . S
C1127 C1126 1.372 . S
C1127 C1128 1.400 . S
C1127 C1132 1.490 . S
C1128 H1118 0.930 . S
C1128 C1127 1.400 . S
C1128 C1131 1.386 . S
H1129 C1145 0.930 . S
H1130 C1146 0.931 . S
C1131 H1119 0.929 . S
C1131 C1125 1.390 . S
C1131 C1128 1.386 . S
C1132 C1127 1.490 . S
C1132 C1134 1.395 . S
C1132 C1135 1.403 . S
H1133 C1139 0.930 . S
C1134 H1120 0.930 . S
C1134 C1132 1.395 . S
C1134 C1137 1.403 . S
C1135 C1132 1.403 . S
C1135 C1136 1.524 . S
C1135 C1139 1.400 . S
C1136 H1121 0.960 . S
C1136 H1122 0.960 . S
C1136 H1123 0.960 . S
C1136 C1135 1.524 . S
C1137 C1134 1.403 . S
C1137 C1138 1.392 . S
C1137 C1141 1.495 . S
C1138 C1137 1.392 . S
C1138 C1139 1.385 . S
C1138 C1140 1.478 . S
C1139 H1133 0.930 . S
C1139 C1135 1.400 . S
C1139 C1138 1.385 . S
C1140 C1138 1.478 . S
C1140 C1142 1.381 . S
C1140 C1146 1.383 . S
C1141 C1137 1.495 . S
C1141 H1147 0.959 . S
C1141 H1148 0.961 . S
C1141 H1149 0.960 . S
C1142 C1140 1.381 . S
C1142 C1143 1.394 . S
C1142 H1150 0.930 . S
C1143 C1142 1.394 . S
C1143 C1144 1.383 . S
C1143 H1151 0.929 . S
C1144 C1143 1.383 . S
C1144 C1145 1.377 . S
C1145 H1129 0.930 . S
C1145 C1144 1.377 . S
C1145 C1146 1.379 . S
C1146 H1130 0.931 . S
C1146 C1140 1.383 . S
C1146 C1145 1.379 . S
H1147 C1141 0.959 . S
H1148 C1141 0.961 . S
H1149 C1141 0.960 . S
H1150 C1142 0.930 . S
H1151 C1143 0.929 . S
H1152 C1160 0.929 . S
H1153 C1162 0.930 . S
H1154 C1164 0.930 . S
H1155 C1167 0.929 . S
H1156 C1170 0.930 . S
H1157 C1172 0.960 . S
H1158 C1172 0.960 . S
H1159 C1172 0.960 . S
C1160 H1152 0.929 . S
C1160 C1161 1.377 . S
C1160 C1162 1.384 . S
C1161 C1160 1.377 . S
C1161 C1167 1.390 . S
C1162 H1153 0.930 . S
C1162 C1160 1.384 . S
C1162 C1163 1.372 . S
C1163 C1162 1.372 . S
C1163 C1164 1.400 . S
C1163 C1168 1.490 . S
C1164 H1154 0.930 . S
C1164 C1163 1.400 . S
C1164 C1167 1.386 . S
H1165 C1181 0.930 . S
H1166 C1182 0.931 . S
C1167 H1155 0.929 . S
C1167 C1161 1.390 . S
C1167 C1164 1.386 . S
C1168 C1163 1.490 . S
C1168 C1170 1.395 . S
C1168 C1171 1.403 . S
H1169 C1175 0.930 . S
C1170 H1156 0.930 . S
C1170 C1168 1.395 . S
C1170 C1173 1.403 . S
C1171 C1168 1.403 . S
C1171 C1172 1.524 . S
C1171 C1175 1.400 . S
C1172 H1157 0.960 . S
C1172 H1158 0.960 . S
C1172 H1159 0.960 . S
C1172 C1171 1.524 . S
C1173 C1170 1.403 . S
C1173 C1174 1.392 . S
C1173 C1177 1.495 . S
C1174 C1173 1.392 . S
C1174 C1175 1.385 . S
C1174 C1176 1.478 . S
C1175 H1169 0.930 . S
C1175 C1171 1.400 . S
C1175 C1174 1.385 . S
C1176 C1174 1.478 . S
C1176 C1178 1.381 . S
C1176 C1182 1.383 . S
C1177 C1173 1.495 . S
C1177 H1183 0.959 . S
C1177 H1184 0.961 . S
C1177 H1185 0.960 . S
C1178 C1176 1.381 . S
C1178 C1179 1.394 . S
C1178 H1186 0.930 . S
C1179 C1178 1.394 . S
C1179 C1180 1.383 . S
C1179 H1187 0.929 . S
C1180 C1179 1.383 . S
C1180 C1181 1.377 . S
C1181 H1165 0.930 . S
C1181 C1180 1.377 . S
C1181 C1182 1.379 . S
C1182 H1166 0.931 . S
C1182 C1176 1.383 . S
C1182 C1181 1.379 . S
H1183 C1177 0.959 . S
H1184 C1177 0.961 . S
H1185 C1177 0.960 . S
H1186 C1178 0.930 . S
H1187 C1179 0.929 . S
H1188 C1196 0.929 . S
H1189 C1198 0.930 . S
H1190 C1200 0.930 . S
H1191 C1203 0.929 . S
H1192 C1206 0.930 . S
H1193 C1208 0.960 . S
H1194 C1208 0.960 . S
H1195 C1208 0.960 . S
C1196 H1188 0.929 . S
C1196 C1197 1.377 . S
C1196 C1198 1.384 . S
C1197 C1196 1.377 . S
C1197 C1203 1.390 . S
C1198 H1189 0.930 . S
C1198 C1196 1.384 . S
C1198 C1199 1.372 . S
C1199 C1198 1.372 . S
C1199 C1200 1.400 . S
C1199 C1204 1.490 . S
C1200 H1190 0.930 . S
C1200 C1199 1.400 . S
C1200 C1203 1.386 . S
H1201 C1217 0.930 . S
H1202 C1218 0.931 . S
C1203 H1191 0.929 . S
C1203 C1197 1.390 . S
C1203 C1200 1.386 . S
C1204 C1199 1.490 . S
C1204 C1206 1.395 . S
C1204 C1207 1.403 . S
H1205 C1211 0.930 . S
C1206 H1192 0.930 . S
C1206 C1204 1.395 . S
C1206 C1209 1.403 . S
C1207 C1204 1.403 . S
C1207 C1208 1.524 . S
C1207 C1211 1.400 . S
C1208 H1193 0.960 . S
C1208 H1194 0.960 . S
C1208 H1195 0.960 . S
C1208 C1207 1.524 . S
C1209 C1206 1.403 . S
C1209 C1210 1.392 . S
C1209 C1213 1.495 . S
C1210 C1209 1.392 . S
C1210 C1211 1.385 . S
C1210 C1212 1.478 . S
C1211 H1205 0.930 . S
C1211 C1207 1.400 . S
C1211 C1210 1.385 . S
C1212 C1210 1.478 . S
C1212 C1214 1.381 . S
C1212 C1218 1.383 . S
C1213 C1209 1.495 . S
C1213 H1219 0.959 . S
C1213 H1220 0.961 . S
C1213 H1221 0.960 . S
C1214 C1212 1.381 . S
C1214 C1215 1.394 . S
C1214 H1222 0.930 . S
C1215 C1214 1.394 . S
C1215 C1216 1.383 . S
C1215 H1223 0.929 . S
C1216 C1215 1.383 . S
C1216 C1217 1.377 . S
C1217 H1201 0.930 . S
C1217 C1216 1.377 . S
C1217 C1218 1.379 . S
C1218 H1202 0.931 . S
C1218 C1212 1.383 . S
C1218 C1217 1.379 . S
H1219 C1213 0.959 . S
H1220 C1213 0.961 . S
H1221 C1213 0.960 . S
H1222 C1214 0.930 . S
H1223 C1215 0.929 . S
H1224 C1232 0.929 . S
H1225 C1234 0.930 . S
H1226 C1236 0.930 . S
H1227 C1239 0.929 . S
H1228 C1242 0.930 . S
H1229 C1244 0.960 . S
H1230 C1244 0.960 . S
H1231 C1244 0.960 . S
C1232 H1224 0.929 . S
C1232 C1233 1.377 . S
C1232 C1234 1.384 . S
C1233 C1232 1.377 . S
C1233 C1239 1.390 . S
C1234 H1225 0.930 . S
C1234 C1232 1.384 . S
C1234 C1235 1.372 . S
C1235 C1234 1.372 . S
C1235 C1236 1.400 . S
C1235 C1240 1.490 . S
C1236 H1226 0.930 . S
C1236 C1235 1.400 . S
C1236 C1239 1.386 . S
H1237 C1253 0.930 . S
H1238 C1254 0.931 . S
C1239 H1227 0.929 . S
C1239 C1233 1.390 . S
C1239 C1236 1.386 . S
C1240 C1235 1.490 . S
C1240 C1242 1.395 . S
C1240 C1243 1.403 . S
H1241 C1247 0.930 . S
C1242 H1228 0.930 . S
C1242 C1240 1.395 . S
C1242 C1245 1.403 . S
C1243 C1240 1.403 . S
C1243 C1244 1.524 . S
C1243 C1247 1.400 . S
C1244 H1229 0.960 . S
C1244 H1230 0.960 . S
C1244 H1231 0.960 . S
C1244 C1243 1.524 . S
C1245 C1242 1.403 . S
C1245 C1246 1.392 . S
C1245 C1249 1.495 . S
C1246 C1245 1.392 . S
C1246 C1247 1.385 . S
C1246 C1248 1.478 . S
C1247 H1241 0.930 . S
C1247 C1243 1.400 . S
C1247 C1246 1.385 . S
C1248 C1246 1.478 . S
C1248 C1250 1.381 . S
C1248 C1254 1.383 . S
C1249 C1245 1.495 . S
C1249 H1255 0.959 . S
C1249 H1256 0.961 . S
C1249 H1257 0.960 . S
C1250 C1248 1.381 . S
C1250 C1251 1.394 . S
C1250 H1258 0.930 . S
C1251 C1250 1.394 . S
C1251 C1252 1.383 . S
C1251 H1259 0.929 . S
C1252 C1251 1.383 . S
C1252 C1253 1.377 . S
C1253 H1237 0.930 . S
C1253 C1252 1.377 . S
C1253 C1254 1.379 . S
C1254 H1238 0.931 . S
C1254 C1248 1.383 . S
C1254 C1253 1.379 . S
H1255 C1249 0.959 . S
H1256 C1249 0.961 . S
H1257 C1249 0.960 . S
H1258 C1250 0.930 . S
H1259 C1251 0.929 . S
H1260 C1268 0.929 . S
H1261 C1270 0.930 . S
H1262 C1272 0.930 . S
H1263 C1275 0.929 . S
H1264 C1278 0.930 . S
H1265 C1280 0.960 . S
H1266 C1280 0.960 . S
H1267 C1280 0.960 . S
C1268 H1260 0.929 . S
C1268 C1269 1.377 . S
C1268 C1270 1.384 . S
C1269 C1268 1.377 . S
C1269 C1275 1.390 . S
C1270 H1261 0.930 . S
C1270 C1268 1.384 . S
C1270 C1271 1.372 . S
C1271 C1270 1.372 . S
C1271 C1272 1.400 . S
C1271 C1276 1.490 . S
C1272 H1262 0.930 . S
C1272 C1271 1.400 . S
C1272 C1275 1.386 . S
H1273 C1289 0.930 . S
H1274 C1290 0.931 . S
C1275 H1263 0.929 . S
C1275 C1269 1.390 . S
C1275 C1272 1.386 . S
C1276 C1271 1.490 . S
C1276 C1278 1.395 . S
C1276 C1279 1.403 . S
H1277 C1283 0.930 . S
C1278 H1264 0.930 . S
C1278 C1276 1.395 . S
C1278 C1281 1.403 . S
C1279 C1276 1.403 . S
C1279 C1280 1.524 . S
C1279 C1283 1.400 . S
C1280 H1265 0.960 . S
C1280 H1266 0.960 . S
C1280 H1267 0.960 . S
C1280 C1279 1.524 . S
C1281 C1278 1.403 . S
C1281 C1282 1.392 . S
C1281 C1285 1.495 . S
C1282 C1281 1.392 . S
C1282 C1283 1.385 . S
C1282 C1284 1.478 . S
C1283 H1277 0.930 . S
C1283 C1279 1.400 . S
C1283 C1282 1.385 . S
C1284 C1282 1.478 . S
C1284 C1286 1.381 . S
C1284 C1290 1.383 . S
C1285 C1281 1.495 . S
C1285 H1291 0.959 . S
C1285 H1292 0.961 . S
C1285 H1293 0.960 . S
C1286 C1284 1.381 . S
C1286 C1287 1.394 . S
C1286 H1294 0.930 . S
C1287 C1286 1.394 . S
C1287 C1288 1.383 . S
C1287 H1295 0.929 . S
C1288 C1287 1.383 . S
C1288 C1289 1.377 . S
C1289 H1273 0.930 . S
C1289 C1288 1.377 . S
C1289 C1290 1.379 . S
C1290 H1274 0.931 . S
C1290 C1284 1.383 . S
C1290 C1289 1.379 . S
H1291 C1285 0.959 . S
H1292 C1285 0.961 . S
H1293 C1285 0.960 . S
H1294 C1286 0.930 . S
H1295 C1287 0.929 . S
H1296 C1304 0.929 . S
H1297 C1306 0.930 . S
H1298 C1308 0.930 . S
H1299 C1311 0.929 . S
H1300 C1314 0.930 . S
H1301 C1316 0.960 . S
H1302 C1316 0.960 . S
H1303 C1316 0.960 . S
C1304 H1296 0.929 . S
C1304 C1305 1.377 . S
C1304 C1306 1.384 . S
C1305 C1304 1.377 . S
C1305 C1311 1.390 . S
C1306 H1297 0.930 . S
C1306 C1304 1.384 . S
C1306 C1307 1.372 . S
C1307 C1306 1.372 . S
C1307 C1308 1.400 . S
C1307 C1312 1.490 . S
C1308 H1298 0.930 . S
C1308 C1307 1.400 . S
C1308 C1311 1.386 . S
H1309 C1325 0.930 . S
H1310 C1326 0.931 . S
C1311 H1299 0.929 . S
C1311 C1305 1.390 . S
C1311 C1308 1.386 . S
C1312 C1307 1.490 . S
C1312 C1314 1.395 . S
C1312 C1315 1.403 . S
H1313 C1319 0.930 . S
C1314 H1300 0.930 . S
C1314 C1312 1.395 . S
C1314 C1317 1.403 . S
C1315 C1312 1.403 . S
C1315 C1316 1.524 . S
C1315 C1319 1.400 . S
C1316 H1301 0.960 . S
C1316 H1302 0.960 . S
C1316 H1303 0.960 . S
C1316 C1315 1.524 . S
C1317 C1314 1.403 . S
C1317 C1318 1.392 . S
C1317 C1321 1.495 . S
C1318 C1317 1.392 . S
C1318 C1319 1.385 . S
C1318 C1320 1.478 . S
C1319 H1313 0.930 . S
C1319 C1315 1.400 . S
C1319 C1318 1.385 . S
C1320 C1318 1.478 . S
C1320 C1322 1.381 . S
C1320 C1326 1.383 . S
C1321 C1317 1.495 . S
C1321 H1327 0.959 . S
C1321 H1328 0.961 . S
C1321 H1329 0.960 . S
C1322 C1320 1.381 . S
C1322 C1323 1.394 . S
C1322 H1330 0.930 . S
C1323 C1322 1.394 . S
C1323 C1324 1.383 . S
C1323 H1331 0.929 . S
C1324 C1323 1.383 . S
C1324 C1325 1.377 . S
C1325 H1309 0.930 . S
C1325 C1324 1.377 . S
C1325 C1326 1.379 . S
C1326 H1310 0.931 . S
C1326 C1320 1.383 . S
C1326 C1325 1.379 . S
H1327 C1321 0.959 . S
H1328 C1321 0.961 . S
H1329 C1321 0.960 . S
H1330 C1322 0.930 . S
H1331 C1323 0.929 . S
H1332 C1340 0.929 . S
H1333 C1342 0.930 . S
H1334 C1344 0.930 . S
H1335 C1347 0.929 . S
H1336 C1350 0.930 . S
H1337 C1352 0.960 . S
H1338 C1352 0.960 . S
H1339 C1352 0.960 . S
C1340 H1332 0.929 . S
C1340 C1341 1.377 . S
C1340 C1342 1.384 . S
C1341 C1340 1.377 . S
C1341 C1347 1.390 . S
C1342 H1333 0.930 . S
C1342 C1340 1.384 . S
C1342 C1343 1.372 . S
C1343 C1342 1.372 . S
C1343 C1344 1.400 . S
C1343 C1348 1.490 . S
C1344 H1334 0.930 . S
C1344 C1343 1.400 . S
C1344 C1347 1.386 . S
H1345 C1361 0.930 . S
H1346 C1362 0.931 . S
C1347 H1335 0.929 . S
C1347 C1341 1.390 . S
C1347 C1344 1.386 . S
C1348 C1343 1.490 . S
C1348 C1350 1.395 . S
C1348 C1351 1.403 . S
H1349 C1355 0.930 . S
C1350 H1336 0.930 . S
C1350 C1348 1.395 . S
C1350 C1353 1.403 . S
C1351 C1348 1.403 . S
C1351 C1352 1.524 . S
C1351 C1355 1.400 . S
C1352 H1337 0.960 . S
C1352 H1338 0.960 . S
C1352 H1339 0.960 . S
C1352 C1351 1.524 . S
C1353 C1350 1.403 . S
C1353 C1354 1.392 . S
C1353 C1357 1.495 . S
C1354 C1353 1.392 . S
C1354 C1355 1.385 . S
C1354 C1356 1.478 . S
C1355 H1349 0.930 . S
C1355 C1351 1.400 . S
C1355 C1354 1.385 . S
C1356 C1354 1.478 . S
C1356 C1358 1.381 . S
C1356 C1362 1.383 . S
C1357 C1353 1.495 . S
C1357 H1363 0.959 . S
C1357 H1364 0.961 . S
C1357 H1365 0.960 . S
C1358 C1356 1.381 . S
C1358 C1359 1.394 . S
C1358 H1366 0.930 . S
C1359 C1358 1.394 . S
C1359 C1360 1.383 . S
C1359 H1367 0.929 . S
C1360 C1359 1.383 . S
C1360 C1361 1.377 . S
C1361 H1345 0.930 . S
C1361 C1360 1.377 . S
C1361 C1362 1.379 . S
C1362 H1346 0.931 . S
C1362 C1356 1.383 . S
C1362 C1361 1.379 . S
H1363 C1357 0.959 . S
H1364 C1357 0.961 . S
H1365 C1357 0.960 . S
H1366 C1358 0.930 . S
H1367 C1359 0.929 . S
H1368 C1376 0.929 . S
H1369 C1378 0.930 . S
H1370 C1380 0.930 . S
H1371 C1383 0.929 . S
H1372 C1386 0.930 . S
H1373 C1388 0.960 . S
H1374 C1388 0.960 . S
H1375 C1388 0.960 . S
C1376 H1368 0.929 . S
C1376 C1377 1.377 . S
C1376 C1378 1.384 . S
C1377 C1376 1.377 . S
C1377 C1383 1.390 . S
C1378 H1369 0.930 . S
C1378 C1376 1.384 . S
C1378 C1379 1.372 . S
C1379 C1378 1.372 . S
C1379 C1380 1.400 . S
C1379 C1384 1.490 . S
C1380 H1370 0.930 . S
C1380 C1379 1.400 . S
C1380 C1383 1.386 . S
H1381 C1397 0.930 . S
H1382 C1398 0.931 . S
C1383 H1371 0.929 . S
C1383 C1377 1.390 . S
C1383 C1380 1.386 . S
C1384 C1379 1.490 . S
C1384 C1386 1.395 . S
C1384 C1387 1.403 . S
H1385 C1391 0.930 . S
C1386 H1372 0.930 . S
C1386 C1384 1.395 . S
C1386 C1389 1.403 . S
C1387 C1384 1.403 . S
C1387 C1388 1.524 . S
C1387 C1391 1.400 . S
C1388 H1373 0.960 . S
C1388 H1374 0.960 . S
C1388 H1375 0.960 . S
C1388 C1387 1.524 . S
C1389 C1386 1.403 . S
C1389 C1390 1.392 . S
C1389 C1393 1.495 . S
C1390 C1389 1.392 . S
C1390 C1391 1.385 . S
C1390 C1392 1.478 . S
C1391 H1385 0.930 . S
C1391 C1387 1.400 . S
C1391 C1390 1.385 . S
C1392 C1390 1.478 . S
C1392 C1394 1.381 . S
C1392 C1398 1.383 . S
C1393 C1389 1.495 . S
C1393 H1399 0.959 . S
C1393 H1400 0.961 . S
C1393 H1401 0.960 . S
C1394 C1392 1.381 . S
C1394 C1395 1.394 . S
C1394 H1402 0.930 . S
C1395 C1394 1.394 . S
C1395 C1396 1.383 . S
C1395 H1403 0.929 . S
C1396 C1395 1.383 . S
C1396 C1397 1.377 . S
C1397 H1381 0.930 . S
C1397 C1396 1.377 . S
C1397 C1398 1.379 . S
C1398 H1382 0.931 . S
C1398 C1392 1.383 . S
C1398 C1397 1.379 . S
H1399 C1393 0.959 . S
H1400 C1393 0.961 . S
H1401 C1393 0.960 . S
H1402 C1394 0.930 . S
H1403 C1395 0.929 . S
H1404 C1412 0.929 . S
H1405 C1414 0.930 . S
H1406 C1416 0.930 . S
H1407 C1419 0.929 . S
H1408 C1422 0.930 . S
H1409 C1424 0.960 . S
H1410 C1424 0.960 . S
H1411 C1424 0.960 . S
C1412 H1404 0.929 . S
C1412 C1413 1.377 . S
C1412 C1414 1.384 . S
C1413 C1412 1.377 . S
C1413 C1419 1.390 . S
C1414 H1405 0.930 . S
C1414 C1412 1.384 . S
C1414 C1415 1.372 . S
C1415 C1414 1.372 . S
C1415 C1416 1.400 . S
C1415 C1420 1.490 . S
C1416 H1406 0.930 . S
C1416 C1415 1.400 . S
C1416 C1419 1.386 . S
H1417 C1433 0.930 . S
H1418 C1434 0.931 . S
C1419 H1407 0.929 . S
C1419 C1413 1.390 . S
C1419 C1416 1.386 . S
C1420 C1415 1.490 . S
C1420 C1422 1.395 . S
C1420 C1423 1.403 . S
H1421 C1427 0.930 . S
C1422 H1408 0.930 . S
C1422 C1420 1.395 . S
C1422 C1425 1.403 . S
C1423 C1420 1.403 . S
C1423 C1424 1.524 . S
C1423 C1427 1.400 . S
C1424 H1409 0.960 . S
C1424 H1410 0.960 . S
C1424 H1411 0.960 . S
C1424 C1423 1.524 . S
C1425 C1422 1.403 . S
C1425 C1426 1.392 . S
C1425 C1429 1.495 . S
C1426 C1425 1.392 . S
C1426 C1427 1.385 . S
C1426 C1428 1.478 . S
C1427 H1421 0.930 . S
C1427 C1423 1.400 . S
C1427 C1426 1.385 . S
C1428 C1426 1.478 . S
C1428 C1430 1.381 . S
C1428 C1434 1.383 . S
C1429 C1425 1.495 . S
C1429 H1435 0.959 . S
C1429 H1436 0.961 . S
C1429 H1437 0.960 . S
C1430 C1428 1.381 . S
C1430 C1431 1.394 . S
C1430 H1438 0.930 . S
C1431 C1430 1.394 . S
C1431 C1432 1.383 . S
C1431 H1439 0.929 . S
C1432 C1431 1.383 . S
C1432 C1433 1.377 . S
C1433 H1417 0.930 . S
C1433 C1432 1.377 . S
C1433 C1434 1.379 . S
C1434 H1418 0.931 . S
C1434 C1428 1.383 . S
C1434 C1433 1.379 . S
H1435 C1429 0.959 . S
H1436 C1429 0.961 . S
H1437 C1429 0.960 . S
H1438 C1430 0.930 . S
H1439 C1431 0.929 . S
H1440 C1448 0.929 . S
H1441 C1450 0.930 . S
H1442 C1452 0.930 . S
H1443 C1455 0.929 . S
H1444 C1458 0.930 . S
H1445 C1460 0.960 . S
H1446 C1460 0.960 . S
H1447 C1460 0.960 . S
C1448 H1440 0.929 . S
C1448 C1449 1.377 . S
C1448 C1450 1.384 . S
C1449 C1448 1.377 . S
C1449 C1455 1.390 . S
C1450 H1441 0.930 . S
C1450 C1448 1.384 . S
C1450 C1451 1.372 . S
C1451 C1450 1.372 . S
C1451 C1452 1.400 . S
C1451 C1456 1.490 . S
C1452 H1442 0.930 . S
C1452 C1451 1.400 . S
C1452 C1455 1.386 . S
H1453 C1469 0.930 . S
H1454 C1470 0.931 . S
C1455 H1443 0.929 . S
C1455 C1449 1.390 . S
C1455 C1452 1.386 . S
C1456 C1451 1.490 . S
C1456 C1458 1.395 . S
C1456 C1459 1.403 . S
H1457 C1463 0.930 . S
C1458 H1444 0.930 . S
C1458 C1456 1.395 . S
C1458 C1461 1.403 . S
C1459 C1456 1.403 . S
C1459 C1460 1.524 . S
C1459 C1463 1.400 . S
C1460 H1445 0.960 . S
C1460 H1446 0.960 . S
C1460 H1447 0.960 . S
C1460 C1459 1.524 . S
C1461 C1458 1.403 . S
C1461 C1462 1.392 . S
C1461 C1465 1.495 . S
C1462 C1461 1.392 . S
C1462 C1463 1.385 . S
C1462 C1464 1.478 . S
C1463 H1457 0.930 . S
C1463 C1459 1.400 . S
C1463 C1462 1.385 . S
C1464 C1462 1.478 . S
C1464 C1466 1.381 . S
C1464 C1470 1.383 . S
C1465 C1461 1.495 . S
C1465 H1471 0.959 . S
C1465 H1472 0.961 . S
C1465 H1473 0.960 . S
C1466 C1464 1.381 . S
C1466 C1467 1.394 . S
C1466 H1474 0.930 . S
C1467 C1466 1.394 . S
C1467 C1468 1.383 . S
C1467 H1475 0.929 . S
C1468 C1467 1.383 . S
C1468 C1469 1.377 . S
C1469 H1453 0.930 . S
C1469 C1468 1.377 . S
C1469 C1470 1.379 . S
C1470 H1454 0.931 . S
C1470 C1464 1.383 . S
C1470 C1469 1.379 . S
H1471 C1465 0.959 . S
H1472 C1465 0.961 . S
H1473 C1465 0.960 . S
H1474 C1466 0.930 . S
H1475 C1467 0.929 . S
C405 C172 0.614 . S
C424 C7 0.591 . S
C441 C40 0.616 . S
C460 C106 0.603 . S
C477 C73 0.618 . S
C496 C139 0.626 . S
C513 C205 0.625 . S
C532 C370 0.627 . S
C549 C304 0.624 . S
C568 C238 0.630 . S
C585 C337 0.616 . S
C604 C271 0.654 . S
C621 C21 1.872 . S
C640 C219 1.836 . S
C657 C54 1.871 . S
C676 C252 1.834 . S
C693 C285 1.878 . S
C712 C87 1.858 . S
C729 C318 1.870 . S
C748 C120 1.834 . S
C765 C153 1.880 . S
C784 C351 1.872 . S
C801 C186 1.873 . S
C820 C384 1.838 . S
C837 N145 1.194 . S
C856 N13 1.214 . S
C873 N178 1.194 . S
C892 N46 1.213 . S
C909 N112 1.210 . S
C928 N79 1.192 . S
C945 N211 1.205 . S
C964 N343 1.188 . S
C981 N244 1.192 . S
C1000 N376 1.245 . S
C1017 N310 1.192 . S
C1036 N277 1.247 . S
C1053 C18 0.544 . S
C1072 N68 0.678 . S
C1089 C51 0.550 . S
C1108 N2 0.685 . S
C1125 N35 0.599 . S
C1144 C84 0.504 . S
C1161 C117 0.549 . S
C1180 N134 0.686 . S
C1197 N167 0.609 . S
C1216 C150 0.498 . S
C1233 N101 0.608 . S
C1252 C183 0.599 . S
C1269 N266 0.586 . S
C1288 C216 0.579 . S
C1305 C249 0.549 . S
C1324 N200 0.559 . S
C1341 N233 0.613 . S
C1360 C282 0.498 . S
C1377 N332 0.611 . S
C1396 C315 0.570 . S
C1413 N365 0.611 . S
C1432 C348 0.499 . S
C1449 C381 0.540 . S
C1468 N299 0.670 . S
