# Generated by pormake.
# Topology vmf, (6)-cn, num edge types: 1
# Building blocks:
#     Node 0, Type 0, BuildingBlock: IZENUY_clean_sbu_0, # of connection points: 6
#     Node 1, Type 0, BuildingBlock: IZENUY_clean_sbu_0, # of connection points: 6
#     Node 2, Type 0, BuildingBlock: IZENUY_clean_sbu_0, # of connection points: 6
#     Node 3, Type 0, BuildingBlock: IZENUY_clean_sbu_0, # of connection points: 6
#     Node 4, Type 0, BuildingBlock: IZENUY_clean_sbu_0, # of connection points: 6
#     Node 5, Type 0, BuildingBlock: IZENUY_clean_sbu_0, # of connection points: 6
#     Node 6, Type 0, BuildingBlock: IZENUY_clean_sbu_0, # of connection points: 6
#     Node 7, Type 0, BuildingBlock: IZENUY_clean_sbu_0, # of connection points: 6
#     Edge 8, Type (0, 0), BuildingBlock: CIFDUS_clean_linker_0, # of connection points: 2
#     Edge 9, Type (0, 0), BuildingBlock: CIFDUS_clean_linker_0, # of connection points: 2
#     Edge 10, Type (0, 0), BuildingBlock: CIFDUS_clean_linker_0, # of connection points: 2
#     Edge 11, Type (0, 0), BuildingBlock: CIFDUS_clean_linker_0, # of connection points: 2
#     Edge 12, Type (0, 0), BuildingBlock: CIFDUS_clean_linker_0, # of connection points: 2
#     Edge 13, Type (0, 0), BuildingBlock: CIFDUS_clean_linker_0, # of connection points: 2
#     Edge 14, Type (0, 0), BuildingBlock: CIFDUS_clean_linker_0, # of connection points: 2
#     Edge 15, Type (0, 0), BuildingBlock: CIFDUS_clean_linker_0, # of connection points: 2
#     Edge 16, Type (0, 0), BuildingBlock: CIFDUS_clean_linker_0, # of connection points: 2
#     Edge 17, Type (0, 0), BuildingBlock: CIFDUS_clean_linker_0, # of connection points: 2
#     Edge 18, Type (0, 0), BuildingBlock: CIFDUS_clean_linker_0, # of connection points: 2
#     Edge 19, Type (0, 0), BuildingBlock: CIFDUS_clean_linker_0, # of connection points: 2
#     Edge 20, Type (0, 0), BuildingBlock: CIFDUS_clean_linker_0, # of connection points: 2
#     Edge 21, Type (0, 0), BuildingBlock: CIFDUS_clean_linker_0, # of connection points: 2
#     Edge 22, Type (0, 0), BuildingBlock: CIFDUS_clean_linker_0, # of connection points: 2
#     Edge 23, Type (0, 0), BuildingBlock: CIFDUS_clean_linker_0, # of connection points: 2
#     Edge 24, Type (0, 0), BuildingBlock: CIFDUS_clean_linker_0, # of connection points: 2
#     Edge 25, Type (0, 0), BuildingBlock: CIFDUS_clean_linker_0, # of connection points: 2
#     Edge 26, Type (0, 0), BuildingBlock: CIFDUS_clean_linker_0, # of connection points: 2
#     Edge 27, Type (0, 0), BuildingBlock: CIFDUS_clean_linker_0, # of connection points: 2
#     Edge 28, Type (0, 0), BuildingBlock: CIFDUS_clean_linker_0, # of connection points: 2
#     Edge 29, Type (0, 0), BuildingBlock: CIFDUS_clean_linker_0, # of connection points: 2
#     Edge 30, Type (0, 0), BuildingBlock: CIFDUS_clean_linker_0, # of connection points: 2
#     Edge 31, Type (0, 0), BuildingBlock: CIFDUS_clean_linker_0, # of connection points: 2
# Relax obj value: 0.282
# Max RMSD: 0.266
# Mean RMSD: 0.266
data_MOF--net-vmf--node1-IZENUY_clean_sbu_0--edge1-CIFDUS_clean_linker_0
_symmetry_space_group_name_H-M    P1
_symmetry_Int_Tables_number       1
_symmetry_cell_setting            triclinic
loop_
_symmetry_equiv_pos_as_xyz
'x, y, z'
_cell_length_a     25.263917
_cell_length_b     38.262291
_cell_length_c     24.727638
_cell_angle_alpha  90.208898
_cell_angle_beta   106.01321
_cell_angle_gamma 90.161632
loop_
_atom_site_label
_atom_site_type_symbol
_atom_site_fract_x
_atom_site_fract_y
_atom_site_fract_z
_atom_type_partial_charge
Fe0 Fe 0.24208 0.36223 0.20496 0.0
Fe1 Fe 0.2335 0.29309 0.26413 0.0
O2 O 0.21291 0.33733 0.25019 0.0
Fe3 Fe 0.16247 0.35588 0.27924 0.0
O4 O 0.12785 0.38063 0.21468 0.0
O5 O 0.17512 0.36763 0.15455 0.0
O6 O 0.25184 0.32529 0.1632 0.0
C7 C 0.22665 0.29655 0.15266 0.0
C8 C 0.23021 0.41313 0.28431 0.0
O9 O 0.20902 0.2815 0.18969 0.0
C10 C 0.23094 0.31397 0.36897 0.0
O11 O 0.31193 0.35745 0.25163 0.0
O12 O 0.30316 0.30067 0.25929 0.0
O13 O 0.20623 0.39303 0.31046 0.0
O14 O 0.23727 0.40421 0.23772 0.0
C15 C 0.12062 0.28924 0.25865 0.0
O16 O 0.25913 0.30161 0.33857 0.0
O17 O 0.18852 0.33276 0.34774 0.0
C18 C 0.33333 0.3276 0.26434 0.0
O19 O 0.16839 0.2767 0.27312 0.0
O20 O 0.11327 0.32148 0.25052 0.0
C21 C 0.13091 0.37739 0.16425 0.0
Fe22 Fe 0.78575 0.35724 0.82551 0.0
Fe23 Fe 0.8054 0.28793 0.77118 0.0
O24 O 0.81956 0.3335 0.7827 0.0
Fe25 Fe 0.86828 0.35498 0.75416 0.0
O26 O 0.89828 0.38125 0.81886 0.0
O27 O 0.85104 0.36538 0.87772 0.0
O28 O 0.7768 0.32049 0.8671 0.0
C29 C 0.80435 0.29313 0.88065 0.0
C30 C 0.79526 0.4091 0.74712 0.0
O31 O 0.82643 0.27853 0.84653 0.0
C32 C 0.80865 0.30826 0.66548 0.0
O33 O 0.7179 0.34898 0.77654 0.0
O34 O 0.73292 0.29239 0.77012 0.0
O35 O 0.82062 0.38978 0.72122 0.0
O36 O 0.78804 0.3995 0.79315 0.0
C37 C 0.92007 0.29115 0.78132 0.0
O38 O 0.7831 0.29335 0.69609 0.0
O39 O 0.84669 0.33063 0.68595 0.0
C40 C 0.70017 0.31814 0.76308 0.0
O41 O 0.87479 0.27486 0.76842 0.0
O42 O 0.92167 0.32389 0.78443 0.0
C43 C 0.89482 0.37703 0.869 0.0
Fe44 Fe 0.79074 0.73469 0.77073 0.0
Fe45 Fe 0.77626 0.66407 0.82258 0.0
O46 O 0.8124 0.69081 0.78577 0.0
Fe47 Fe 0.87032 0.67503 0.76571 0.0
O48 O 0.91411 0.7107 0.80051 0.0
O49 O 0.8574 0.75314 0.76844 0.0
O50 O 0.8076 0.74512 0.84515 0.0
C51 C 0.78521 0.7294 0.8781 0.0
C52 C 0.8059 0.71511 0.67051 0.0
O53 O 0.76141 0.70019 0.86463 0.0
C54 C 0.80603 0.61507 0.74831 0.0
O55 O 0.71894 0.72637 0.76792 0.0
O56 O 0.71038 0.66951 0.76915 0.0
O57 O 0.84957 0.69828 0.69602 0.0
O58 O 0.77282 0.7259 0.69676 0.0
C59 C 0.88579 0.65001 0.87851 0.0
O60 O 0.78628 0.62297 0.78849 0.0
O61 O 0.83403 0.63684 0.72957 0.0
C62 C 0.68886 0.69937 0.75812 0.0
O63 O 0.83748 0.65736 0.87937 0.0
O64 O 0.89956 0.65059 0.83254 0.0
C65 C 0.90577 0.74241 0.78894 0.0
Fe66 Fe 0.2437 0.66702 0.21867 0.0
Fe67 Fe 0.14841 0.67488 0.27343 0.0
O68 O 0.20464 0.6929 0.25321 0.0
Fe69 Fe 0.22132 0.7381 0.26544 0.0
O70 O 0.20459 0.74644 0.19003 0.0
O71 O 0.2559 0.70279 0.1753 0.0
O72 O 0.18406 0.65726 0.1613 0.0
C73 C 0.13621 0.64842 0.16192 0.0
C74 C 0.32699 0.70681 0.28028 0.0
O75 O 0.12229 0.6484 0.20782 0.0
C76 C 0.20783 0.71906 0.36679 0.0
O77 O 0.23676 0.6261 0.25409 0.0
O78 O 0.18779 0.63889 0.31218 0.0
O79 O 0.29452 0.73264 0.26896 0.0
O80 O 0.30769 0.67607 0.27326 0.0
C81 C 0.10509 0.73933 0.24954 0.0
O82 O 0.1663 0.69986 0.34199 0.0
O83 O 0.23949 0.73148 0.34006 0.0
C84 C 0.21756 0.61794 0.29441 0.0
O85 O 0.10243 0.70787 0.23553 0.0
O86 O 0.15187 0.75357 0.26715 0.0
C87 C 0.22968 0.73071 0.15911 0.0
Fe88 Fe 0.73518 0.86324 0.21216 0.0
Fe89 Fe 0.72066 0.79245 0.2645 0.0
O90 O 0.70314 0.83738 0.25386 0.0
Fe91 Fe 0.65255 0.85586 0.28261 0.0
O92 O 0.62173 0.88347 0.22026 0.0
O93 O 0.66965 0.87078 0.16074 0.0
O94 O 0.74447 0.82727 0.16761 0.0
C95 C 0.71853 0.79887 0.15461 0.0
C96 C 0.7219 0.91218 0.29468 0.0
O97 O 0.69802 0.78354 0.18928 0.0
C98 C 0.71623 0.81056 0.3699 0.0
O99 O 0.80363 0.85617 0.25994 0.0
O100 O 0.79248 0.79918 0.263 0.0
O101 O 0.69804 0.89068 0.31866 0.0
O102 O 0.73103 0.90457 0.2483 0.0
C103 C 0.60565 0.79131 0.25333 0.0
O104 O 0.7445 0.79837 0.33955 0.0
O105 O 0.67464 0.83006 0.34896 0.0
C106 C 0.82392 0.82579 0.26943 0.0
O107 O 0.65236 0.77691 0.26911 0.0
O108 O 0.60175 0.82386 0.2486 0.0
C109 C 0.62563 0.88114 0.17004 0.0
Fe110 Fe 0.30429 0.78854 0.77955 0.0
Fe111 Fe 0.36324 0.85635 0.75963 0.0
O112 O 0.31733 0.83431 0.79108 0.0
Fe113 Fe 0.28512 0.85715 0.83619 0.0
O114 O 0.28473 0.82 0.88083 0.0
O115 O 0.33326 0.77908 0.85449 0.0
O116 O 0.3707 0.77672 0.76713 0.0
C117 C 0.41566 0.79306 0.77609 0.0
C118 C 0.20003 0.81474 0.78568 0.0
O119 O 0.41763 0.82523 0.78604 0.0
C120 C 0.2891 0.90978 0.75602 0.0
O121 O 0.2745 0.79511 0.70499 0.0
O122 O 0.33697 0.83244 0.69155 0.0
O123 O 0.216 0.84629 0.79196 0.0
O124 O 0.23474 0.79056 0.78815 0.0
C125 C 0.39368 0.88 0.87413 0.0
O126 O 0.31502 0.89122 0.72982 0.0
O127 O 0.28079 0.89924 0.8012 0.0
C128 C 0.29757 0.81065 0.67249 0.0
O129 O 0.39688 0.88229 0.82366 0.0
O130 O 0.35085 0.86831 0.88453 0.0
C131 C 0.31485 0.79332 0.89197 0.0
Fe132 Fe 0.30137 0.23603 0.76992 0.0
Fe133 Fe 0.28271 0.16555 0.81967 0.0
O134 O 0.32032 0.19145 0.78312 0.0
Fe135 Fe 0.37633 0.17376 0.76126 0.0
O136 O 0.42374 0.20833 0.79391 0.0
O137 O 0.36908 0.25291 0.76874 0.0
O138 O 0.31894 0.24557 0.84476 0.0
C139 C 0.29588 0.23 0.87724 0.0
C140 C 0.31415 0.21628 0.66804 0.0
O141 O 0.27021 0.20161 0.86259 0.0
C142 C 0.30803 0.11535 0.74515 0.0
O143 O 0.22896 0.22939 0.76722 0.0
O144 O 0.21726 0.17277 0.76635 0.0
O145 O 0.3556 0.19708 0.69189 0.0
O146 O 0.28294 0.22857 0.6954 0.0
C147 C 0.39153 0.14901 0.87455 0.0
O148 O 0.28963 0.12426 0.78555 0.0
O149 O 0.3371 0.13608 0.72585 0.0
C150 C 0.19718 0.20314 0.75826 0.0
O151 O 0.34366 0.15728 0.87581 0.0
O152 O 0.40518 0.14928 0.82839 0.0
C153 C 0.41678 0.24052 0.78593 0.0
Fe154 Fe 0.71937 0.23798 0.25579 0.0
Fe155 Fe 0.74898 0.17012 0.20495 0.0
O156 O 0.70942 0.19201 0.24412 0.0
Fe157 Fe 0.65992 0.16926 0.26982 0.0
O158 O 0.60592 0.20012 0.24011 0.0
O159 O 0.65118 0.24869 0.26341 0.0
O160 O 0.69466 0.24662 0.18041 0.0
C161 C 0.71688 0.23251 0.14566 0.0
C162 C 0.71977 0.2152 0.3607 0.0
O163 O 0.74948 0.20713 0.15996 0.0
C164 C 0.73889 0.11702 0.28191 0.0
O165 O 0.79036 0.2382 0.25249 0.0
O166 O 0.81418 0.18339 0.25423 0.0
O167 O 0.68153 0.1928 0.33942 0.0
O168 O 0.7446 0.23136 0.33036 0.0
C169 C 0.64277 0.14486 0.15587 0.0
O170 O 0.75397 0.12862 0.24099 0.0
O171 O 0.70643 0.1341 0.30243 0.0
C172 C 0.82743 0.21532 0.25911 0.0
O173 O 0.68843 0.15616 0.15212 0.0
O174 O 0.63127 0.14416 0.20309 0.0
C175 C 0.60651 0.23216 0.25043 0.0
H176 H 0.56794 0.29955 0.22967 0.0
H177 H 0.53465 0.20017 0.29607 0.0
H178 H 0.45356 0.22414 0.31682 0.0
H179 H 0.38875 0.27092 0.31034 0.0
H180 H 0.41071 0.36855 0.23255 0.0
H181 H 0.50068 0.34844 0.22436 0.0
C182 C 0.54267 0.28331 0.24855 0.0
C183 C 0.55672 0.24795 0.26043 0.0
C184 C 0.4946 0.29709 0.25906 0.0
C185 C 0.52404 0.22717 0.2853 0.0
C186 C 0.47794 0.24094 0.29775 0.0
C187 C 0.41333 0.28813 0.29204 0.0
C188 C 0.39272 0.32104 0.27156 0.0
C189 C 0.46244 0.27556 0.28402 0.0
C190 C 0.42566 0.34313 0.24891 0.0
C191 C 0.4767 0.33139 0.24346 0.0
H192 H 0.625 0.33921 0.81804 0.0
H193 H 0.64452 0.27458 0.68171 0.0
H194 H 0.5572 0.24533 0.67587 0.0
H195 H 0.48092 0.23321 0.71657 0.0
H196 H 0.45841 0.29745 0.85163 0.0
H197 H 0.54113 0.33161 0.85153 0.0
C198 C 0.60898 0.31965 0.78578 0.0
C199 C 0.64091 0.30926 0.74995 0.0
C200 C 0.55904 0.30216 0.78363 0.0
C201 C 0.62038 0.28322 0.7093 0.0
C202 C 0.57078 0.26619 0.70638 0.0
C203 C 0.49416 0.25482 0.74578 0.0
C204 C 0.46467 0.26248 0.78484 0.0
C205 C 0.54084 0.27454 0.74462 0.0
C206 C 0.48113 0.29093 0.8217 0.0
C207 C 0.52826 0.31045 0.82147 0.0
H208 H 0.45444 0.72518 0.79418 0.0
H209 H 0.48449 0.82476 0.72623 0.0
H210 H 0.56522 0.80148 0.70407 0.0
H211 H 0.63213 0.75558 0.71154 0.0
H212 H 0.61206 0.65741 0.78853 0.0
H213 H 0.52198 0.67663 0.79746 0.0
C214 C 0.47873 0.74157 0.77439 0.0
C215 C 0.46396 0.77689 0.76289 0.0
C216 C 0.52666 0.72816 0.76282 0.0
C217 C 0.49555 0.79779 0.73681 0.0
C218 C 0.54156 0.78443 0.7236 0.0
C219 C 0.60768 0.73802 0.72942 0.0
C220 C 0.62901 0.70522 0.74963 0.0
C221 C 0.55811 0.75001 0.73745 0.0
C222 C 0.5965 0.68272 0.77218 0.0
C223 C 0.54536 0.69397 0.7781 0.0
H224 H 0.35905 0.74623 0.20622 0.0
H225 H 0.4239 0.68186 0.35182 0.0
H226 H 0.51839 0.69904 0.3529 0.0
H227 H 0.58155 0.7375 0.3167 0.0
H228 H 0.51227 0.80169 0.1714 0.0
H229 H 0.42066 0.77894 0.16513 0.0
C230 C 0.3939 0.73575 0.23811 0.0
C231 C 0.38466 0.71334 0.27955 0.0
C232 C 0.44734 0.74567 0.2382 0.0
C233 C 0.4301 0.69936 0.31977 0.0
C234 C 0.484 0.70927 0.32034 0.0
C235 C 0.54649 0.74569 0.28292 0.0
C236 C 0.55365 0.77127 0.2445 0.0
C237 C 0.49313 0.73303 0.28035 0.0
C238 C 0.50779 0.7821 0.20142 0.0
C239 C 0.45533 0.76926 0.19799 0.0
H240 H 0.06298 0.80719 0.23597 0.0
H241 H 0.03617 0.70427 0.29483 0.0
H242 H 0.95154 0.72345 0.31315 0.0
H243 H 0.8808 0.76701 0.30558 0.0
H244 H 0.90044 0.86974 0.24273 0.0
H245 H 0.99187 0.85351 0.2342 0.0
C246 C 0.03866 0.7892 0.25312 0.0
C247 C 0.0556 0.75409 0.26284 0.0
C248 C 0.98851 0.80033 0.26299 0.0
C249 C 0.02371 0.73117 0.28557 0.0
C250 C 0.97525 0.74213 0.29647 0.0
C251 C 0.90522 0.78614 0.29065 0.0
C252 C 0.88336 0.81946 0.2745 0.0
C253 C 0.95662 0.77631 0.28423 0.0
C254 C 0.91614 0.8439 0.25577 0.0
C255 C 0.96832 0.83448 0.25034 0.0
H256 H 1.01072 0.73462 0.8524 0.0
H257 H 0.90831 0.80111 0.72599 0.0
H258 H 0.99004 0.83235 0.71628 0.0
H259 H 0.09267 0.83648 0.73722 0.0
H260 H 0.19199 0.76853 0.86397 0.0
H261 H 0.11007 0.74273 0.88027 0.0
C262 C 1.00617 0.75628 0.82327 0.0
C263 C 0.95359 0.76526 0.78969 0.0
C264 C 0.05317 0.77382 0.81755 0.0
C265 C 0.94838 0.79367 0.75254 0.0
C266 C 0.99519 0.81141 0.74666 0.0
C267 C 0.09606 0.81644 0.76888 0.0
C268 C 0.14837 0.80402 0.7985 0.0
C269 C 0.04811 0.80113 0.77792 0.0
C270 C 0.15223 0.77812 0.83972 0.0
C271 C 0.10536 0.76329 0.84926 0.0
H272 H 0.94344 0.23309 0.72585 0.0
H273 H 0.01602 0.3082 0.85611 0.0
H274 H 0.10723 0.28494 0.86324 0.0
H275 H 0.16701 0.24784 0.82695 0.0
H276 H 0.09928 0.17326 0.69486 0.0
H277 H 1.00537 0.19135 0.69414 0.0
C278 C 0.97922 0.24377 0.75647 0.0
C279 C 0.97306 0.27247 0.79028 0.0
C280 C 0.03228 0.23071 0.75944 0.0
C281 C 0.01975 0.28633 0.82942 0.0
C282 C 0.07193 0.2731 0.83345 0.0
C283 C 0.13172 0.23536 0.79799 0.0
C284 C 0.13993 0.20974 0.7602 0.0
C285 C 0.07875 0.24609 0.79763 0.0
C286 C 0.09389 0.19321 0.72405 0.0
C287 C 0.04034 0.20368 0.7236 0.0
H288 H 0.01596 0.29886 0.19783 0.0
H289 H 0.11862 0.22965 0.31935 0.0
H290 H 0.03694 0.19782 0.32794 0.0
H291 H 0.93448 0.19355 0.30685 0.0
H292 H 0.83527 0.26405 0.18416 0.0
H293 H 0.91696 0.29094 0.16979 0.0
C294 C 0.02048 0.27658 0.22577 0.0
C295 C 0.07288 0.26688 0.25833 0.0
C296 C 0.97371 0.25866 0.23063 0.0
C297 C 0.07841 0.23761 0.29376 0.0
C298 C 0.03174 0.21953 0.29894 0.0
C299 C 0.93111 0.21448 0.27665 0.0
C300 C 0.87896 0.22733 0.24785 0.0
C301 C 0.97888 0.23035 0.26853 0.0
C302 C 0.87497 0.25424 0.20814 0.0
C303 C 0.92167 0.26966 0.19958 0.0
H304 H 0.89835 0.38123 0.98102 0.0
H305 H 1.00262 0.38637 0.8693 0.0
H306 H 0.08412 0.38889 0.95017 0.0
H307 H 0.12663 0.38544 0.05277 0.0
H308 H 0.02249 0.38119 0.16465 0.0
H309 H 0.94071 0.38281 0.08393 0.0
C310 C 0.93882 0.38344 0.97418 0.0
C311 C 0.94384 0.38365 0.91855 0.0
C312 C 0.98588 0.38486 0.02119 0.0
C313 C 0.99697 0.38646 0.91116 0.0
C314 C 0.04384 0.38768 0.9576 0.0
C315 C 0.08609 0.38536 0.05972 0.0
C316 C 0.0812 0.3832 0.11528 0.0
C317 C 0.03893 0.38631 1.01284 0.0
C318 C 0.02798 0.38313 0.12284 0.0
C319 C 0.98099 0.38384 0.07648 0.0
H320 H 0.02283 0.64085 0.13542 0.0
H321 H 0.15832 0.64006 0.06062 0.0
H322 H 0.09439 0.63821 0.96708 0.0
H323 H 0.99932 0.64221 0.9047 0.0
H324 H 0.86398 0.64178 0.97982 0.0
H325 H 0.92781 0.63841 0.07304 0.0
C326 C 0.03846 0.63952 0.0988 0.0
C327 C 0.09574 0.64083 0.10594 0.0
C328 C 1.00115 0.6386 0.04416 0.0
C329 C 0.11466 0.63928 0.05725 0.0
C330 C 0.07798 0.63832 1.00322 0.0
C331 C 0.9837 0.64074 0.94131 0.0
C332 C 0.92646 0.64257 0.93431 0.0
C333 C 0.021 0.63881 0.99588 0.0
C334 C 0.90757 0.6407 0.983 0.0
C335 C 0.9442 0.6388 0.03689 0.0
H336 H 0.6237 0.88946 0.0593 0.0
H337 H 0.51727 0.88755 0.16909 0.0
H338 H 0.43655 0.89009 0.08747 0.0
H339 H 0.39582 0.8876 0.98483 0.0
H340 H 0.50182 0.88945 0.87463 0.0
H341 H 0.58267 0.89269 0.95637 0.0
C342 C 0.5829 0.89016 0.06558 0.0
C343 C 0.57697 0.88826 0.12078 0.0
C344 C 0.53636 0.89147 0.01818 0.0
C345 C 0.5235 0.88923 0.12756 0.0
C346 C 0.47714 0.89046 0.0807 0.0
C347 C 0.43652 0.88929 0.97842 0.0
C348 C 0.44233 0.88817 0.92311 0.0
C349 C 0.48301 0.89086 0.02578 0.0
C350 C 0.49569 0.89046 0.91626 0.0
C351 C 0.54211 0.89206 0.96318 0.0
H352 H 0.5292 0.14056 0.13124 0.0
H353 H 0.66322 0.12989 0.05569 0.0
H354 H 0.59863 0.12801 0.96243 0.0
H355 H 0.504 0.13566 0.90027 0.0
H356 H 0.37006 0.14482 0.97656 0.0
H357 H 0.43388 0.14072 0.0695 0.0
C358 C 0.54424 0.13686 0.09458 0.0
C359 C 0.6014 0.13565 0.10126 0.0
C360 C 0.50658 0.13604 0.04012 0.0
C361 C 0.61964 0.13117 0.05252 0.0
C362 C 0.58261 0.13023 0.99868 0.0
C363 C 0.48861 0.13614 0.93708 0.0
C364 C 0.43185 0.14097 0.93037 0.0
C365 C 0.52593 0.13367 0.99162 0.0
C366 C 0.41328 0.14144 0.97938 0.0
C367 C 0.44992 0.13912 0.03319 0.0
H368 H 0.29476 0.57056 0.28629 0.0
H369 H 0.1497 0.58192 0.34436 0.0
H370 H 0.14524 0.51856 0.35545 0.0
H371 H 0.17432 0.45927 0.33385 0.0
H372 H 0.31838 0.44926 0.27367 0.0
H373 H 0.33197 0.51235 0.27924 0.0
C374 C 0.26283 0.55926 0.30254 0.0
C375 C 0.22224 0.58099 0.31367 0.0
C376 C 0.26005 0.5228 0.30804 0.0
C377 C 0.18152 0.56589 0.33534 0.0
C378 C 0.17868 0.52954 0.34131 0.0
C379 C 0.20962 0.47088 0.32379 0.0
C380 C 0.24501 0.44963 0.30289 0.0
C381 C 0.21653 0.50759 0.32576 0.0
C382 C 0.29032 0.46509 0.28945 0.0
C383 C 0.298 0.50122 0.29234 0.0
H384 H 0.73005 0.56588 0.75482 0.0
H385 H 0.8762 0.5805 0.6996 0.0
H386 H 0.88164 0.51744 0.68533 0.0
H387 H 0.8522 0.45722 0.70199 0.0
H388 H 0.70606 0.44386 0.75775 0.0
H389 H 0.69274 0.50689 0.75708 0.0
C390 C 0.76252 0.55536 0.73863 0.0
C391 C 0.80299 0.57797 0.72903 0.0
C392 C 0.76557 0.51903 0.73076 0.0
C393 C 0.84443 0.56381 0.70744 0.0
C394 C 0.84778 0.52763 0.69955 0.0
C395 C 0.81645 0.46811 0.71204 0.0
C396 C 0.78034 0.4458 0.73019 0.0
C397 C 0.80958 0.5048 0.71281 0.0
C398 C 0.73458 0.46042 0.74383 0.0
C399 C 0.7271 0.49654 0.74387 0.0
H400 H 0.79762 0.95854 0.27951 0.0
H401 H 0.66077 0.9492 0.35099 0.0
H402 H 0.65865 1.0128 0.36154 0.0
H403 H 0.68666 0.0714 0.33628 0.0
H404 H 0.82391 0.07951 0.26467 0.0
H405 H 0.8354 0.01641 0.26938 0.0
C406 C 0.76816 0.97038 0.29863 0.0
C407 C 0.72906 0.94918 0.31381 0.0
C408 C 0.76685 1.00694 0.30404 0.0
C409 C 0.69145 0.96488 0.33902 0.0
C410 C 0.68991 1.00133 0.34462 0.0
C411 C 0.72008 0.05946 0.32328 0.0
C412 C 0.75372 0.08029 0.29922 0.0
C413 C 0.72611 0.02274 0.32529 0.0
C414 C 0.79684 0.06421 0.2826 0.0
C415 C 0.8034 0.02801 0.28507 0.0
H416 H 0.34252 0.95539 0.70313 0.0
H417 H 0.20564 0.94771 0.77517 0.0
H418 H 0.1947 1.01097 0.77071 0.0
H419 H 0.23208 0.06865 0.75959 0.0
H420 H 0.37089 0.0777 0.69082 0.0
H421 H 0.37234 0.01409 0.67983 0.0
C422 C 0.3093 0.96751 0.71625 0.0
C423 C 0.27517 0.94675 0.73983 0.0
C424 C 0.30407 1.00431 0.71495 0.0
C425 C 0.2327 0.963 0.7572 0.0
C426 C 0.22654 0.99926 0.7549 0.0
C427 C 0.26208 0.05682 0.74118 0.0
C428 C 0.30174 0.07804 0.72675 0.0
C429 C 0.2633 0.02024 0.73598 0.0
C430 C 0.33984 0.06215 0.70236 0.0
C431 C 0.34095 0.02566 0.69645 0.0
H432 H 0.23675 0.26278 0.6132 0.0
H433 H 0.37208 0.20106 0.59074 0.0
H434 H 0.35989 0.22721 0.4976 0.0
H435 H 0.31086 0.2678 0.42301 0.0
H436 H 0.17661 0.32969 0.44786 0.0
H437 H 0.18946 0.30361 0.54054 0.0
C438 C 0.26369 0.25468 0.58814 0.0
C439 C 0.30524 0.22957 0.60934 0.0
C440 C 0.2571 0.27027 0.53531 0.0
C441 C 0.33956 0.21996 0.57572 0.0
C442 C 0.33276 0.23512 0.52253 0.0
C443 C 0.2846 0.27592 0.44877 0.0
C444 C 0.24271 0.30096 0.42804 0.0
C445 C 0.29183 0.26046 0.50204 0.0
C446 C 0.20922 0.31079 0.46238 0.0
C447 C 0.21636 0.29567 0.51537 0.0
H448 H 0.73505 0.25786 0.61299 0.0
H449 H 0.85632 0.32962 0.58339 0.0
H450 H 0.84089 0.30592 0.48819 0.0
H451 H 0.79391 0.26484 0.41405 0.0
H452 H 0.67216 0.19319 0.44287 0.0
H453 H 0.68787 0.21659 0.53845 0.0
C454 C 0.7581 0.26859 0.58583 0.0
C455 C 0.79689 0.2958 0.60582 0.0
C456 C 0.74941 0.25456 0.53124 0.0
C457 C 0.82615 0.30898 0.56951 0.0
C458 C 0.81749 0.29526 0.51505 0.0
C459 C 0.77077 0.25401 0.44106 0.0
C460 C 0.7318 0.22697 0.42076 0.0
C461 C 0.77947 0.26795 0.49563 0.0
C462 C 0.70251 0.2137 0.457 0.0
C463 C 0.71132 0.22726 0.51165 0.0
H464 H 0.79968 0.76716 0.42512 0.0
H465 H 0.65858 0.823 0.44714 0.0
H466 H 0.67304 0.79697 0.54011 0.0
H467 H 0.72401 0.7581 0.61385 0.0
H468 H 0.86653 0.70274 0.59454 0.0
H469 H 0.85231 0.72851 0.50081 0.0
C470 C 0.77214 0.7739 0.45026 0.0
C471 C 0.7279 0.79723 0.42872 0.0
C472 C 0.78049 0.75857 0.50374 0.0
C473 C 0.69295 0.80542 0.46232 0.0
C474 C 0.70105 0.79033 0.51546 0.0
C475 C 0.75215 0.75131 0.58939 0.0
C476 C 0.79635 0.72813 0.61163 0.0
C477 C 0.74435 0.76672 0.5363 0.0
C478 C 0.83207 0.72017 0.57873 0.0
C479 C 0.82406 0.7351 0.52521 0.0
H480 H 0.21998 0.76213 0.61895 0.0
H481 H 0.34355 0.83239 0.5901 0.0
H482 H 0.32689 0.80963 0.49459 0.0
H483 H 0.27999 0.76914 0.42054 0.0
H484 H 0.15518 0.69896 0.44648 0.0
H485 H 0.17016 0.72226 0.54229 0.0
C486 C 0.24305 0.77276 0.59172 0.0
C487 C 0.28319 0.79913 0.61226 0.0
C488 C 0.23351 0.7593 0.53655 0.0
C489 C 0.31243 0.81232 0.57592 0.0
C490 C 0.30309 0.79915 0.52121 0.0
C491 C 0.25591 0.75862 0.44688 0.0
C492 C 0.21667 0.73188 0.42596 0.0
C493 C 0.26424 0.77243 0.50136 0.0
C494 C 0.18582 0.71924 0.46119 0.0
C495 C 0.19433 0.73269 0.51599 0.0
H496 H 0.25459 0.32588 0.06633 0.0
H497 H 0.20578 0.22728 0.12295 0.0
H498 H 0.22492 0.19784 0.04208 0.0
H499 H 0.26018 0.20028 0.95931 0.0
H500 H 0.3129 0.29894 0.90658 0.0
H501 H 0.28978 0.32835 0.98487 0.0
C502 C 0.24799 0.29788 0.06124 0.0
C503 C 0.22939 0.27862 0.10088 0.0
C504 C 0.26102 0.28125 1.01655 0.0
C505 C 0.22005 0.24259 0.09295 0.0
C506 C 0.23152 0.2258 0.04719 0.0
C507 C 0.26677 0.22824 0.96497 0.0
C508 C 0.28812 0.24753 0.92728 0.0
C509 C 0.25302 0.24487 1.00951 0.0
C510 C 0.2969 0.28358 0.93532 0.0
C511 C 0.2832 0.30039 0.97961 0.0
H512 H 0.73055 0.20081 0.05446 0.0
H513 H 0.7122 0.30263 0.12274 0.0
H514 H 0.74508 0.33007 0.04854 0.0
H515 H 0.78493 0.32443 0.96967 0.0
H516 H 0.80441 0.22266 0.90172 0.0
H517 H 0.76925 0.1952 0.97449 0.0
C518 C 0.73284 0.2291 0.05242 0.0
C519 C 0.71912 0.24984 0.09371 0.0
C520 C 0.75447 0.2443 1.01199 0.0
C521 C 0.72176 0.28631 0.09081 0.0
C522 C 0.74171 0.30184 0.04931 0.0
C523 C 0.78198 0.29615 0.97109 0.0
C524 C 0.79711 0.27544 0.93058 0.0
C525 C 0.75961 0.28096 1.01094 0.0
C526 C 0.79371 0.23897 0.93299 0.0
C527 C 0.7726 0.22344 0.97374 0.0
H528 H 0.73498 0.70348 0.95281 0.0
H529 H 0.81859 0.79537 0.91591 0.0
H530 H 0.80175 0.82533 0.99689 0.0
H531 H 0.7639 0.82523 0.07697 0.0
H532 H 0.68185 0.73325 0.11579 0.0
H533 H 0.69643 0.70354 0.03322 0.0
C534 C 0.74965 0.73008 0.96237 0.0
C535 C 0.77797 0.74724 0.92834 0.0
C536 C 0.73961 0.74711 1.00856 0.0
C537 C 0.79679 0.7816 0.94149 0.0
C538 C 0.78699 0.79876 0.98756 0.0
C539 C 0.74895 0.79867 0.06755 0.0
C540 C 0.72209 0.78134 0.10268 0.0
C541 C 0.75837 0.78173 0.02112 0.0
C542 C 0.70266 0.7471 0.08941 0.0
C543 C 0.71125 0.73011 0.04248 0.0
H544 H 0.25923 0.69918 0.07462 0.0
H545 H 0.2287 0.80072 0.13655 0.0
H546 H 0.26326 0.82869 0.06411 0.0
H547 H 0.30104 0.82408 0.98403 0.0
H548 H 0.32475 0.72295 0.91648 0.0
H549 H 0.29764 0.69461 0.99377 0.0
C550 C 0.25976 0.72748 0.07198 0.0
C551 C 0.24119 0.74798 0.11057 0.0
C552 C 0.28018 0.74321 0.03088 0.0
C553 C 0.2419 0.78449 0.10674 0.0
C554 C 0.26245 0.8004 0.066 0.0
C555 C 0.30091 0.79575 0.98648 0.0
C556 C 0.31444 0.77552 0.94448 0.0
C557 C 0.28191 0.77996 0.02829 0.0
C558 C 0.31498 0.739 0.94857 0.0
C559 C 0.29847 0.7229 0.99204 0.0
loop_
_geom_bond_atom_site_label_1
_geom_bond_atom_site_label_2
_geom_bond_distance
_geom_bond_site_symmetry_2
_ccdc_geom_bond_type
Fe0 O2 1.918 . S
Fe0 O5 1.997 . S
Fe0 O6 2.002 . S
Fe0 O11 1.976 . S
Fe0 O14 1.996 . S
Fe1 O2 1.918 . S
Fe1 O9 1.997 . S
Fe1 O12 1.996 . S
Fe1 O16 1.976 . S
Fe1 O19 2.002 . S
O2 Fe0 1.918 . S
O2 Fe1 1.918 . S
O2 Fe3 1.918 . S
Fe3 O2 1.918 . S
Fe3 O4 2.002 . S
Fe3 O13 1.976 . S
Fe3 O17 1.996 . S
Fe3 O20 1.997 . S
O4 Fe3 2.002 . S
O4 C21 1.295 . S
O5 Fe0 1.997 . S
O5 C21 1.235 . S
O6 Fe0 2.002 . S
O6 C7 1.295 . S
C7 O6 1.295 . S
C7 O9 1.235 . S
C8 O13 1.287 . S
C8 O14 1.255 . S
O9 Fe1 1.997 . S
O9 C7 1.235 . S
C10 O16 1.287 . S
C10 O17 1.255 . S
O11 Fe0 1.976 . S
O11 C18 1.287 . S
O12 Fe1 1.996 . S
O12 C18 1.255 . S
O13 Fe3 1.976 . S
O13 C8 1.287 . S
O14 Fe0 1.996 . S
O14 C8 1.255 . S
C15 O19 1.295 . S
C15 O20 1.235 . S
O16 Fe1 1.976 . S
O16 C10 1.287 . S
O17 Fe3 1.996 . S
O17 C10 1.255 . S
C18 O11 1.287 . S
C18 O12 1.255 . S
O19 Fe1 2.002 . S
O19 C15 1.295 . S
O20 Fe3 1.997 . S
O20 C15 1.235 . S
C21 O4 1.295 . S
C21 O5 1.235 . S
Fe22 O24 1.918 . S
Fe22 O27 1.997 . S
Fe22 O28 2.002 . S
Fe22 O33 1.976 . S
Fe22 O36 1.996 . S
Fe23 O24 1.918 . S
Fe23 O31 1.997 . S
Fe23 O34 1.996 . S
Fe23 O38 1.976 . S
Fe23 O41 2.002 . S
O24 Fe22 1.918 . S
O24 Fe23 1.918 . S
O24 Fe25 1.918 . S
Fe25 O24 1.918 . S
Fe25 O26 2.002 . S
Fe25 O35 1.976 . S
Fe25 O39 1.996 . S
Fe25 O42 1.997 . S
O26 Fe25 2.002 . S
O26 C43 1.295 . S
O27 Fe22 1.997 . S
O27 C43 1.235 . S
O28 Fe22 2.002 . S
O28 C29 1.295 . S
C29 O28 1.295 . S
C29 O31 1.235 . S
C30 O35 1.287 . S
C30 O36 1.255 . S
O31 Fe23 1.997 . S
O31 C29 1.235 . S
C32 O38 1.287 . S
C32 O39 1.255 . S
O33 Fe22 1.976 . S
O33 C40 1.287 . S
O34 Fe23 1.996 . S
O34 C40 1.255 . S
O35 Fe25 1.976 . S
O35 C30 1.287 . S
O36 Fe22 1.996 . S
O36 C30 1.255 . S
C37 O41 1.295 . S
C37 O42 1.235 . S
O38 Fe23 1.976 . S
O38 C32 1.287 . S
O39 Fe25 1.996 . S
O39 C32 1.255 . S
C40 O33 1.287 . S
C40 O34 1.255 . S
O41 Fe23 2.002 . S
O41 C37 1.295 . S
O42 Fe25 1.997 . S
O42 C37 1.235 . S
C43 O26 1.295 . S
C43 O27 1.235 . S
Fe44 O46 1.918 . S
Fe44 O49 1.997 . S
Fe44 O50 2.002 . S
Fe44 O55 1.976 . S
Fe44 O58 1.996 . S
Fe45 O46 1.918 . S
Fe45 O53 1.997 . S
Fe45 O56 1.996 . S
Fe45 O60 1.976 . S
Fe45 O63 2.002 . S
O46 Fe44 1.918 . S
O46 Fe45 1.918 . S
O46 Fe47 1.918 . S
Fe47 O46 1.918 . S
Fe47 O48 2.002 . S
Fe47 O57 1.976 . S
Fe47 O61 1.996 . S
Fe47 O64 1.997 . S
O48 Fe47 2.002 . S
O48 C65 1.295 . S
O49 Fe44 1.997 . S
O49 C65 1.235 . S
O50 Fe44 2.002 . S
O50 C51 1.295 . S
C51 O50 1.295 . S
C51 O53 1.235 . S
C52 O57 1.287 . S
C52 O58 1.255 . S
O53 Fe45 1.997 . S
O53 C51 1.235 . S
C54 O60 1.287 . S
C54 O61 1.255 . S
O55 Fe44 1.976 . S
O55 C62 1.287 . S
O56 Fe45 1.996 . S
O56 C62 1.255 . S
O57 Fe47 1.976 . S
O57 C52 1.287 . S
O58 Fe44 1.996 . S
O58 C52 1.255 . S
C59 O63 1.295 . S
C59 O64 1.235 . S
O60 Fe45 1.976 . S
O60 C54 1.287 . S
O61 Fe47 1.996 . S
O61 C54 1.255 . S
C62 O55 1.287 . S
C62 O56 1.255 . S
O63 Fe45 2.002 . S
O63 C59 1.295 . S
O64 Fe47 1.997 . S
O64 C59 1.235 . S
C65 O48 1.295 . S
C65 O49 1.235 . S
Fe66 O68 1.918 . S
Fe66 O71 1.997 . S
Fe66 O72 2.002 . S
Fe66 O77 1.976 . S
Fe66 O80 1.996 . S
Fe67 O68 1.918 . S
Fe67 O75 1.997 . S
Fe67 O78 1.996 . S
Fe67 O82 1.976 . S
Fe67 O85 2.002 . S
O68 Fe66 1.918 . S
O68 Fe67 1.918 . S
O68 Fe69 1.918 . S
Fe69 O68 1.918 . S
Fe69 O70 2.002 . S
Fe69 O79 1.976 . S
Fe69 O83 1.996 . S
Fe69 O86 1.997 . S
O70 Fe69 2.002 . S
O70 C87 1.295 . S
O71 Fe66 1.997 . S
O71 C87 1.235 . S
O72 Fe66 2.002 . S
O72 C73 1.295 . S
C73 O72 1.295 . S
C73 O75 1.235 . S
C74 O79 1.287 . S
C74 O80 1.255 . S
O75 Fe67 1.997 . S
O75 C73 1.235 . S
C76 O82 1.287 . S
C76 O83 1.255 . S
O77 Fe66 1.976 . S
O77 C84 1.287 . S
O78 Fe67 1.996 . S
O78 C84 1.255 . S
O79 Fe69 1.976 . S
O79 C74 1.287 . S
O80 Fe66 1.996 . S
O80 C74 1.255 . S
C81 O85 1.295 . S
C81 O86 1.235 . S
O82 Fe67 1.976 . S
O82 C76 1.287 . S
O83 Fe69 1.996 . S
O83 C76 1.255 . S
C84 O77 1.287 . S
C84 O78 1.255 . S
O85 Fe67 2.002 . S
O85 C81 1.295 . S
O86 Fe69 1.997 . S
O86 C81 1.235 . S
C87 O70 1.295 . S
C87 O71 1.235 . S
Fe88 O90 1.918 . S
Fe88 O93 1.997 . S
Fe88 O94 2.002 . S
Fe88 O99 1.976 . S
Fe88 O102 1.996 . S
Fe89 O90 1.918 . S
Fe89 O97 1.997 . S
Fe89 O100 1.996 . S
Fe89 O104 1.976 . S
Fe89 O107 2.002 . S
O90 Fe88 1.918 . S
O90 Fe89 1.918 . S
O90 Fe91 1.918 . S
Fe91 O90 1.918 . S
Fe91 O92 2.002 . S
Fe91 O101 1.976 . S
Fe91 O105 1.996 . S
Fe91 O108 1.997 . S
O92 Fe91 2.002 . S
O92 C109 1.295 . S
O93 Fe88 1.997 . S
O93 C109 1.235 . S
O94 Fe88 2.002 . S
O94 C95 1.295 . S
C95 O94 1.295 . S
C95 O97 1.235 . S
C96 O101 1.287 . S
C96 O102 1.255 . S
O97 Fe89 1.997 . S
O97 C95 1.235 . S
C98 O104 1.287 . S
C98 O105 1.255 . S
O99 Fe88 1.976 . S
O99 C106 1.287 . S
O100 Fe89 1.996 . S
O100 C106 1.255 . S
O101 Fe91 1.976 . S
O101 C96 1.287 . S
O102 Fe88 1.996 . S
O102 C96 1.255 . S
C103 O107 1.295 . S
C103 O108 1.235 . S
O104 Fe89 1.976 . S
O104 C98 1.287 . S
O105 Fe91 1.996 . S
O105 C98 1.255 . S
C106 O99 1.287 . S
C106 O100 1.255 . S
O107 Fe89 2.002 . S
O107 C103 1.295 . S
O108 Fe91 1.997 . S
O108 C103 1.235 . S
C109 O92 1.295 . S
C109 O93 1.235 . S
Fe110 O112 1.918 . S
Fe110 O115 1.997 . S
Fe110 O116 2.002 . S
Fe110 O121 1.976 . S
Fe110 O124 1.996 . S
Fe111 O112 1.918 . S
Fe111 O119 1.997 . S
Fe111 O122 1.996 . S
Fe111 O126 1.976 . S
Fe111 O129 2.002 . S
O112 Fe110 1.918 . S
O112 Fe111 1.918 . S
O112 Fe113 1.918 . S
Fe113 O112 1.918 . S
Fe113 O114 2.002 . S
Fe113 O123 1.976 . S
Fe113 O127 1.996 . S
Fe113 O130 1.997 . S
O114 Fe113 2.002 . S
O114 C131 1.295 . S
O115 Fe110 1.997 . S
O115 C131 1.235 . S
O116 Fe110 2.002 . S
O116 C117 1.295 . S
C117 O116 1.295 . S
C117 O119 1.235 . S
C118 O123 1.287 . S
C118 O124 1.255 . S
O119 Fe111 1.997 . S
O119 C117 1.235 . S
C120 O126 1.287 . S
C120 O127 1.255 . S
O121 Fe110 1.976 . S
O121 C128 1.287 . S
O122 Fe111 1.996 . S
O122 C128 1.255 . S
O123 Fe113 1.976 . S
O123 C118 1.287 . S
O124 Fe110 1.996 . S
O124 C118 1.255 . S
C125 O129 1.295 . S
C125 O130 1.235 . S
O126 Fe111 1.976 . S
O126 C120 1.287 . S
O127 Fe113 1.996 . S
O127 C120 1.255 . S
C128 O121 1.287 . S
C128 O122 1.255 . S
O129 Fe111 2.002 . S
O129 C125 1.295 . S
O130 Fe113 1.997 . S
O130 C125 1.235 . S
C131 O114 1.295 . S
C131 O115 1.235 . S
Fe132 O134 1.918 . S
Fe132 O137 1.997 . S
Fe132 O138 2.002 . S
Fe132 O143 1.976 . S
Fe132 O146 1.996 . S
Fe133 O134 1.918 . S
Fe133 O141 1.997 . S
Fe133 O144 1.996 . S
Fe133 O148 1.976 . S
Fe133 O151 2.002 . S
O134 Fe132 1.918 . S
O134 Fe133 1.918 . S
O134 Fe135 1.918 . S
Fe135 O134 1.918 . S
Fe135 O136 2.002 . S
Fe135 O145 1.976 . S
Fe135 O149 1.996 . S
Fe135 O152 1.997 . S
O136 Fe135 2.002 . S
O136 C153 1.295 . S
O137 Fe132 1.997 . S
O137 C153 1.235 . S
O138 Fe132 2.002 . S
O138 C139 1.295 . S
C139 O138 1.295 . S
C139 O141 1.235 . S
C140 O145 1.287 . S
C140 O146 1.255 . S
O141 Fe133 1.997 . S
O141 C139 1.235 . S
C142 O148 1.287 . S
C142 O149 1.255 . S
O143 Fe132 1.976 . S
O143 C150 1.287 . S
O144 Fe133 1.996 . S
O144 C150 1.255 . S
O145 Fe135 1.976 . S
O145 C140 1.287 . S
O146 Fe132 1.996 . S
O146 C140 1.255 . S
C147 O151 1.295 . S
C147 O152 1.235 . S
O148 Fe133 1.976 . S
O148 C142 1.287 . S
O149 Fe135 1.996 . S
O149 C142 1.255 . S
C150 O143 1.287 . S
C150 O144 1.255 . S
O151 Fe133 2.002 . S
O151 C147 1.295 . S
O152 Fe135 1.997 . S
O152 C147 1.235 . S
C153 O136 1.295 . S
C153 O137 1.235 . S
Fe154 O156 1.918 . S
Fe154 O159 1.997 . S
Fe154 O160 2.002 . S
Fe154 O165 1.976 . S
Fe154 O168 1.996 . S
Fe155 O156 1.918 . S
Fe155 O163 1.997 . S
Fe155 O166 1.996 . S
Fe155 O170 1.976 . S
Fe155 O173 2.002 . S
O156 Fe154 1.918 . S
O156 Fe155 1.918 . S
O156 Fe157 1.918 . S
Fe157 O156 1.918 . S
Fe157 O158 2.002 . S
Fe157 O167 1.976 . S
Fe157 O171 1.996 . S
Fe157 O174 1.997 . S
O158 Fe157 2.002 . S
O158 C175 1.295 . S
O159 Fe154 1.997 . S
O159 C175 1.235 . S
O160 Fe154 2.002 . S
O160 C161 1.295 . S
C161 O160 1.295 . S
C161 O163 1.235 . S
C162 O167 1.287 . S
C162 O168 1.255 . S
O163 Fe155 1.997 . S
O163 C161 1.235 . S
C164 O170 1.287 . S
C164 O171 1.255 . S
O165 Fe154 1.976 . S
O165 C172 1.287 . S
O166 Fe155 1.996 . S
O166 C172 1.255 . S
O167 Fe157 1.976 . S
O167 C162 1.287 . S
O168 Fe154 1.996 . S
O168 C162 1.255 . S
C169 O173 1.295 . S
C169 O174 1.235 . S
O170 Fe155 1.976 . S
O170 C164 1.287 . S
O171 Fe157 1.996 . S
O171 C164 1.255 . S
C172 O165 1.287 . S
C172 O166 1.255 . S
O173 Fe155 2.002 . S
O173 C169 1.295 . S
O174 Fe157 1.997 . S
O174 C169 1.235 . S
C175 O158 1.295 . S
C175 O159 1.235 . S
H176 C182 0.930 . S
H177 C185 0.930 . S
H178 C186 0.930 . S
H179 C187 0.930 . S
H180 C190 0.930 . S
H181 C191 0.930 . S
C182 H176 0.930 . S
C182 C183 1.355 . S
C182 C184 1.415 . S
C183 C182 1.355 . S
C183 C185 1.419 . S
C184 C182 1.415 . S
C184 C189 1.425 . S
C184 C191 1.409 . S
C185 H177 0.930 . S
C185 C183 1.419 . S
C185 C186 1.362 . S
C186 H178 0.930 . S
C186 C185 1.362 . S
C186 C189 1.409 . S
C187 H179 0.930 . S
C187 C188 1.355 . S
C187 C189 1.415 . S
C188 C187 1.355 . S
C188 C190 1.419 . S
C189 C184 1.425 . S
C189 C186 1.409 . S
C189 C187 1.415 . S
C190 H180 0.930 . S
C190 C188 1.419 . S
C190 C191 1.362 . S
C191 H181 0.930 . S
C191 C184 1.409 . S
C191 C190 1.362 . S
H192 C198 0.930 . S
H193 C201 0.930 . S
H194 C202 0.930 . S
H195 C203 0.930 . S
H196 C206 0.930 . S
H197 C207 0.930 . S
C198 H192 0.930 . S
C198 C199 1.355 . S
C198 C200 1.415 . S
C199 C198 1.355 . S
C199 C201 1.419 . S
C200 C198 1.415 . S
C200 C205 1.425 . S
C200 C207 1.409 . S
C201 H193 0.930 . S
C201 C199 1.419 . S
C201 C202 1.362 . S
C202 H194 0.930 . S
C202 C201 1.362 . S
C202 C205 1.409 . S
C203 H195 0.930 . S
C203 C204 1.355 . S
C203 C205 1.415 . S
C204 C203 1.355 . S
C204 C206 1.419 . S
C205 C200 1.425 . S
C205 C202 1.409 . S
C205 C203 1.415 . S
C206 H196 0.930 . S
C206 C204 1.419 . S
C206 C207 1.362 . S
C207 H197 0.930 . S
C207 C200 1.409 . S
C207 C206 1.362 . S
H208 C214 0.930 . S
H209 C217 0.930 . S
H210 C218 0.930 . S
H211 C219 0.930 . S
H212 C222 0.930 . S
H213 C223 0.930 . S
C214 H208 0.930 . S
C214 C215 1.355 . S
C214 C216 1.415 . S
C215 C214 1.355 . S
C215 C217 1.419 . S
C216 C214 1.415 . S
C216 C221 1.425 . S
C216 C223 1.409 . S
C217 H209 0.930 . S
C217 C215 1.419 . S
C217 C218 1.362 . S
C218 H210 0.930 . S
C218 C217 1.362 . S
C218 C221 1.409 . S
C219 H211 0.930 . S
C219 C220 1.355 . S
C219 C221 1.415 . S
C220 C219 1.355 . S
C220 C222 1.419 . S
C221 C216 1.425 . S
C221 C218 1.409 . S
C221 C219 1.415 . S
C222 H212 0.930 . S
C222 C220 1.419 . S
C222 C223 1.362 . S
C223 H213 0.930 . S
C223 C216 1.409 . S
C223 C222 1.362 . S
H224 C230 0.930 . S
H225 C233 0.930 . S
H226 C234 0.930 . S
H227 C235 0.930 . S
H228 C238 0.930 . S
H229 C239 0.930 . S
C230 H224 0.930 . S
C230 C231 1.355 . S
C230 C232 1.415 . S
C231 C230 1.355 . S
C231 C233 1.419 . S
C232 C230 1.415 . S
C232 C237 1.425 . S
C232 C239 1.409 . S
C233 H225 0.930 . S
C233 C231 1.419 . S
C233 C234 1.362 . S
C234 H226 0.930 . S
C234 C233 1.362 . S
C234 C237 1.409 . S
C235 H227 0.930 . S
C235 C236 1.355 . S
C235 C237 1.415 . S
C236 C235 1.355 . S
C236 C238 1.419 . S
C237 C232 1.425 . S
C237 C234 1.409 . S
C237 C235 1.415 . S
C238 H228 0.930 . S
C238 C236 1.419 . S
C238 C239 1.362 . S
C239 H229 0.930 . S
C239 C232 1.409 . S
C239 C238 1.362 . S
H240 C246 0.930 . S
H241 C249 0.930 . S
H242 C250 0.930 . S
H243 C251 0.930 . S
H244 C254 0.930 . S
H245 C255 0.930 1_455 S
C246 H240 0.930 . S
C246 C247 1.355 . S
C246 C248 1.415 . S
C247 C246 1.355 . S
C247 C249 1.419 . S
C248 C246 1.415 . S
C248 C253 1.425 1_455 S
C248 C255 1.409 1_455 S
C249 H241 0.930 . S
C249 C247 1.419 . S
C249 C250 1.362 1_455 S
C250 H242 0.930 . S
C250 C249 1.362 1_655 S
C250 C253 1.409 . S
C251 H243 0.930 . S
C251 C252 1.355 . S
C251 C253 1.415 . S
C252 C251 1.355 . S
C252 C254 1.419 . S
C253 C248 1.425 1_655 S
C253 C250 1.409 . S
C253 C251 1.415 . S
C254 H244 0.930 . S
C254 C252 1.419 . S
C254 C255 1.362 . S
C255 H245 0.930 1_655 S
C255 C248 1.409 1_655 S
C255 C254 1.362 . S
H256 C262 0.930 . S
H257 C265 0.930 . S
H258 C266 0.930 . S
H259 C267 0.930 . S
H260 C270 0.930 . S
H261 C271 0.930 . S
C262 H256 0.930 . S
C262 C263 1.355 . S
C262 C264 1.415 1_655 S
C263 C262 1.355 . S
C263 C265 1.419 . S
C264 C262 1.415 1_455 S
C264 C269 1.425 . S
C264 C271 1.409 . S
C265 H257 0.930 . S
C265 C263 1.419 . S
C265 C266 1.362 . S
C266 H258 0.930 . S
C266 C265 1.362 . S
C266 C269 1.409 1_655 S
C267 H259 0.930 . S
C267 C268 1.355 . S
C267 C269 1.415 . S
C268 C267 1.355 . S
C268 C270 1.419 . S
C269 C264 1.425 . S
C269 C266 1.409 1_455 S
C269 C267 1.415 . S
C270 H260 0.930 . S
C270 C268 1.419 . S
C270 C271 1.362 . S
C271 H261 0.930 . S
C271 C264 1.409 . S
C271 C270 1.362 . S
H272 C278 0.930 . S
H273 C281 0.930 . S
H274 C282 0.930 . S
H275 C283 0.930 . S
H276 C286 0.930 . S
H277 C287 0.930 1_655 S
C278 H272 0.930 . S
C278 C279 1.355 . S
C278 C280 1.415 . S
C279 C278 1.355 . S
C279 C281 1.419 . S
C280 C278 1.415 . S
C280 C285 1.425 1_655 S
C280 C287 1.409 1_655 S
C281 H273 0.930 . S
C281 C279 1.419 . S
C281 C282 1.362 1_655 S
C282 H274 0.930 . S
C282 C281 1.362 1_455 S
C282 C285 1.409 . S
C283 H275 0.930 . S
C283 C284 1.355 . S
C283 C285 1.415 . S
C284 C283 1.355 . S
C284 C286 1.419 . S
C285 C280 1.425 1_455 S
C285 C282 1.409 . S
C285 C283 1.415 . S
C286 H276 0.930 . S
C286 C284 1.419 . S
C286 C287 1.362 . S
C287 H277 0.930 1_455 S
C287 C280 1.409 1_455 S
C287 C286 1.362 . S
H288 C294 0.930 . S
H289 C297 0.930 . S
H290 C298 0.930 . S
H291 C299 0.930 . S
H292 C302 0.930 . S
H293 C303 0.930 . S
C294 H288 0.930 . S
C294 C295 1.355 . S
C294 C296 1.415 1_455 S
C295 C294 1.355 . S
C295 C297 1.419 . S
C296 C294 1.415 1_655 S
C296 C301 1.425 . S
C296 C303 1.409 . S
C297 H289 0.930 . S
C297 C295 1.419 . S
C297 C298 1.362 . S
C298 H290 0.930 . S
C298 C297 1.362 . S
C298 C301 1.409 1_455 S
C299 H291 0.930 . S
C299 C300 1.355 . S
C299 C301 1.415 . S
C300 C299 1.355 . S
C300 C302 1.419 . S
C301 C296 1.425 . S
C301 C298 1.409 1_655 S
C301 C299 1.415 . S
C302 H292 0.930 . S
C302 C300 1.419 . S
C302 C303 1.362 . S
C303 H293 0.930 . S
C303 C296 1.409 . S
C303 C302 1.362 . S
H304 C310 0.930 . S
H305 C313 0.930 . S
H306 C314 0.930 . S
H307 C315 0.930 . S
H308 C318 0.930 . S
H309 C319 0.930 . S
C310 H304 0.930 . S
C310 C311 1.355 . S
C310 C312 1.415 1_556 S
C311 C310 1.355 . S
C311 C313 1.419 . S
C312 C310 1.415 1_554 S
C312 C317 1.425 1_654 S
C312 C319 1.409 . S
C313 H305 0.930 . S
C313 C311 1.419 . S
C313 C314 1.362 1_655 S
C314 H306 0.930 . S
C314 C313 1.362 1_455 S
C314 C317 1.409 . S
C315 H307 0.930 . S
C315 C316 1.355 . S
C315 C317 1.415 1_554 S
C316 C315 1.355 . S
C316 C318 1.419 . S
C317 C312 1.425 1_456 S
C317 C314 1.409 . S
C317 C315 1.415 1_556 S
C318 H308 0.930 . S
C318 C316 1.419 . S
C318 C319 1.362 1_455 S
C319 H309 0.930 . S
C319 C312 1.409 . S
C319 C318 1.362 1_655 S
H320 C326 0.930 . S
H321 C329 0.930 . S
H322 C330 0.930 . S
H323 C331 0.930 . S
H324 C334 0.930 . S
H325 C335 0.930 . S
C326 H320 0.930 . S
C326 C327 1.355 . S
C326 C328 1.415 1_455 S
C327 C326 1.355 . S
C327 C329 1.419 . S
C328 C326 1.415 1_655 S
C328 C333 1.425 1_654 S
C328 C335 1.409 . S
C329 H321 0.930 . S
C329 C327 1.419 . S
C329 C330 1.362 1_554 S
C330 H322 0.930 . S
C330 C329 1.362 1_556 S
C330 C333 1.409 . S
C331 H323 0.930 . S
C331 C332 1.355 . S
C331 C333 1.415 1_655 S
C332 C331 1.355 . S
C332 C334 1.419 . S
C333 C328 1.425 1_456 S
C333 C330 1.409 . S
C333 C331 1.415 1_455 S
C334 H324 0.930 . S
C334 C332 1.419 . S
C334 C335 1.362 1_556 S
C335 H325 0.930 . S
C335 C328 1.409 . S
C335 C334 1.362 1_554 S
H336 C342 0.930 . S
H337 C345 0.930 . S
H338 C346 0.930 . S
H339 C347 0.930 . S
H340 C350 0.930 . S
H341 C351 0.930 . S
C342 H336 0.930 . S
C342 C343 1.355 . S
C342 C344 1.415 1_554 S
C343 C342 1.355 . S
C343 C345 1.419 . S
C344 C342 1.415 1_556 S
C344 C349 1.425 1_556 S
C344 C351 1.409 . S
C345 H337 0.930 . S
C345 C343 1.419 . S
C345 C346 1.362 . S
C346 H338 0.930 . S
C346 C345 1.362 . S
C346 C349 1.409 . S
C347 H339 0.930 . S
C347 C348 1.355 . S
C347 C349 1.415 1_556 S
C348 C347 1.355 . S
C348 C350 1.419 . S
C349 C344 1.425 1_554 S
C349 C346 1.409 . S
C349 C347 1.415 1_554 S
C350 H340 0.930 . S
C350 C348 1.419 . S
C350 C351 1.362 . S
C351 H341 0.930 . S
C351 C344 1.409 . S
C351 C350 1.362 . S
H352 C358 0.930 . S
H353 C361 0.930 . S
H354 C362 0.930 . S
H355 C363 0.930 . S
H356 C366 0.930 . S
H357 C367 0.930 . S
C358 H352 0.930 . S
C358 C359 1.355 . S
C358 C360 1.415 . S
C359 C358 1.355 . S
C359 C361 1.419 . S
C360 C358 1.415 . S
C360 C365 1.425 1_554 S
C360 C367 1.409 . S
C361 H353 0.930 . S
C361 C359 1.419 . S
C361 C362 1.362 1_554 S
C362 H354 0.930 . S
C362 C361 1.362 1_556 S
C362 C365 1.409 . S
C363 H355 0.930 . S
C363 C364 1.355 . S
C363 C365 1.415 . S
C364 C363 1.355 . S
C364 C366 1.419 . S
C365 C360 1.425 1_556 S
C365 C362 1.409 . S
C365 C363 1.415 . S
C366 H356 0.930 . S
C366 C364 1.419 . S
C366 C367 1.362 1_556 S
C367 H357 0.930 . S
C367 C360 1.409 . S
C367 C366 1.362 1_554 S
H368 C374 0.930 . S
H369 C377 0.930 . S
H370 C378 0.930 . S
H371 C379 0.930 . S
H372 C382 0.930 . S
H373 C383 0.930 . S
C374 H368 0.930 . S
C374 C375 1.355 . S
C374 C376 1.415 . S
C375 C374 1.355 . S
C375 C377 1.419 . S
C376 C374 1.415 . S
C376 C381 1.425 . S
C376 C383 1.409 . S
C377 H369 0.930 . S
C377 C375 1.419 . S
C377 C378 1.362 . S
C378 H370 0.930 . S
C378 C377 1.362 . S
C378 C381 1.409 . S
C379 H371 0.930 . S
C379 C380 1.355 . S
C379 C381 1.415 . S
C380 C379 1.355 . S
C380 C382 1.419 . S
C381 C376 1.425 . S
C381 C378 1.409 . S
C381 C379 1.415 . S
C382 H372 0.930 . S
C382 C380 1.419 . S
C382 C383 1.362 . S
C383 H373 0.930 . S
C383 C376 1.409 . S
C383 C382 1.362 . S
H384 C390 0.930 . S
H385 C393 0.930 . S
H386 C394 0.930 . S
H387 C395 0.930 . S
H388 C398 0.930 . S
H389 C399 0.930 . S
C390 H384 0.930 . S
C390 C391 1.355 . S
C390 C392 1.415 . S
C391 C390 1.355 . S
C391 C393 1.419 . S
C392 C390 1.415 . S
C392 C397 1.425 . S
C392 C399 1.409 . S
C393 H385 0.930 . S
C393 C391 1.419 . S
C393 C394 1.362 . S
C394 H386 0.930 . S
C394 C393 1.362 . S
C394 C397 1.409 . S
C395 H387 0.930 . S
C395 C396 1.355 . S
C395 C397 1.415 . S
C396 C395 1.355 . S
C396 C398 1.419 . S
C397 C392 1.425 . S
C397 C394 1.409 . S
C397 C395 1.415 . S
C398 H388 0.930 . S
C398 C396 1.419 . S
C398 C399 1.362 . S
C399 H389 0.930 . S
C399 C392 1.409 . S
C399 C398 1.362 . S
H400 C406 0.930 . S
H401 C409 0.930 . S
H402 C410 0.930 . S
H403 C411 0.930 . S
H404 C414 0.930 . S
H405 C415 0.930 . S
C406 H400 0.930 . S
C406 C407 1.355 . S
C406 C408 1.415 . S
C407 C406 1.355 . S
C407 C409 1.419 . S
C408 C406 1.415 . S
C408 C413 1.425 1_565 S
C408 C415 1.409 1_565 S
C409 H401 0.930 . S
C409 C407 1.419 . S
C409 C410 1.362 . S
C410 H402 0.930 . S
C410 C409 1.362 . S
C410 C413 1.409 1_565 S
C411 H403 0.930 . S
C411 C412 1.355 . S
C411 C413 1.415 . S
C412 C411 1.355 . S
C412 C414 1.419 . S
C413 C408 1.425 1_545 S
C413 C410 1.409 1_545 S
C413 C411 1.415 . S
C414 H404 0.930 . S
C414 C412 1.419 . S
C414 C415 1.362 . S
C415 H405 0.930 . S
C415 C408 1.409 1_545 S
C415 C414 1.362 . S
H416 C422 0.930 . S
H417 C425 0.930 . S
H418 C426 0.930 . S
H419 C427 0.930 . S
H420 C430 0.930 . S
H421 C431 0.930 . S
C422 H416 0.930 . S
C422 C423 1.355 . S
C422 C424 1.415 . S
C423 C422 1.355 . S
C423 C425 1.419 . S
C424 C422 1.415 . S
C424 C429 1.425 1_565 S
C424 C431 1.409 1_565 S
C425 H417 0.930 . S
C425 C423 1.419 . S
C425 C426 1.362 . S
C426 H418 0.930 . S
C426 C425 1.362 . S
C426 C429 1.409 1_565 S
C427 H419 0.930 . S
C427 C428 1.355 . S
C427 C429 1.415 . S
C428 C427 1.355 . S
C428 C430 1.419 . S
C429 C424 1.425 1_545 S
C429 C426 1.409 1_545 S
C429 C427 1.415 . S
C430 H420 0.930 . S
C430 C428 1.419 . S
C430 C431 1.362 . S
C431 H421 0.930 . S
C431 C424 1.409 1_545 S
C431 C430 1.362 . S
H432 C438 0.930 . S
H433 C441 0.930 . S
H434 C442 0.930 . S
H435 C443 0.930 . S
H436 C446 0.930 . S
H437 C447 0.930 . S
C438 H432 0.930 . S
C438 C439 1.355 . S
C438 C440 1.415 . S
C439 C438 1.355 . S
C439 C441 1.419 . S
C440 C438 1.415 . S
C440 C445 1.425 . S
C440 C447 1.409 . S
C441 H433 0.930 . S
C441 C439 1.419 . S
C441 C442 1.362 . S
C442 H434 0.930 . S
C442 C441 1.362 . S
C442 C445 1.409 . S
C443 H435 0.930 . S
C443 C444 1.355 . S
C443 C445 1.415 . S
C444 C443 1.355 . S
C444 C446 1.419 . S
C445 C440 1.425 . S
C445 C442 1.409 . S
C445 C443 1.415 . S
C446 H436 0.930 . S
C446 C444 1.419 . S
C446 C447 1.362 . S
C447 H437 0.930 . S
C447 C440 1.409 . S
C447 C446 1.362 . S
H448 C454 0.930 . S
H449 C457 0.930 . S
H450 C458 0.930 . S
H451 C459 0.930 . S
H452 C462 0.930 . S
H453 C463 0.930 . S
C454 H448 0.930 . S
C454 C455 1.355 . S
C454 C456 1.415 . S
C455 C454 1.355 . S
C455 C457 1.419 . S
C456 C454 1.415 . S
C456 C461 1.425 . S
C456 C463 1.409 . S
C457 H449 0.930 . S
C457 C455 1.419 . S
C457 C458 1.362 . S
C458 H450 0.930 . S
C458 C457 1.362 . S
C458 C461 1.409 . S
C459 H451 0.930 . S
C459 C460 1.355 . S
C459 C461 1.415 . S
C460 C459 1.355 . S
C460 C462 1.419 . S
C461 C456 1.425 . S
C461 C458 1.409 . S
C461 C459 1.415 . S
C462 H452 0.930 . S
C462 C460 1.419 . S
C462 C463 1.362 . S
C463 H453 0.930 . S
C463 C456 1.409 . S
C463 C462 1.362 . S
H464 C470 0.930 . S
H465 C473 0.930 . S
H466 C474 0.930 . S
H467 C475 0.930 . S
H468 C478 0.930 . S
H469 C479 0.930 . S
C470 H464 0.930 . S
C470 C471 1.355 . S
C470 C472 1.415 . S
C471 C470 1.355 . S
C471 C473 1.419 . S
C472 C470 1.415 . S
C472 C477 1.425 . S
C472 C479 1.409 . S
C473 H465 0.930 . S
C473 C471 1.419 . S
C473 C474 1.362 . S
C474 H466 0.930 . S
C474 C473 1.362 . S
C474 C477 1.409 . S
C475 H467 0.930 . S
C475 C476 1.355 . S
C475 C477 1.415 . S
C476 C475 1.355 . S
C476 C478 1.419 . S
C477 C472 1.425 . S
C477 C474 1.409 . S
C477 C475 1.415 . S
C478 H468 0.930 . S
C478 C476 1.419 . S
C478 C479 1.362 . S
C479 H469 0.930 . S
C479 C472 1.409 . S
C479 C478 1.362 . S
H480 C486 0.930 . S
H481 C489 0.930 . S
H482 C490 0.930 . S
H483 C491 0.930 . S
H484 C494 0.930 . S
H485 C495 0.930 . S
C486 H480 0.930 . S
C486 C487 1.355 . S
C486 C488 1.415 . S
C487 C486 1.355 . S
C487 C489 1.419 . S
C488 C486 1.415 . S
C488 C493 1.425 . S
C488 C495 1.409 . S
C489 H481 0.930 . S
C489 C487 1.419 . S
C489 C490 1.362 . S
C490 H482 0.930 . S
C490 C489 1.362 . S
C490 C493 1.409 . S
C491 H483 0.930 . S
C491 C492 1.355 . S
C491 C493 1.415 . S
C492 C491 1.355 . S
C492 C494 1.419 . S
C493 C488 1.425 . S
C493 C490 1.409 . S
C493 C491 1.415 . S
C494 H484 0.930 . S
C494 C492 1.419 . S
C494 C495 1.362 . S
C495 H485 0.930 . S
C495 C488 1.409 . S
C495 C494 1.362 . S
H496 C502 0.930 . S
H497 C505 0.930 . S
H498 C506 0.930 . S
H499 C507 0.930 . S
H500 C510 0.930 . S
H501 C511 0.930 . S
C502 H496 0.930 . S
C502 C503 1.355 . S
C502 C504 1.404 1_554 S
C503 C502 1.355 . S
C503 C505 1.419 . S
C504 C502 1.404 1_556 S
C504 C509 1.426 . S
C504 C511 1.418 . S
C505 H497 0.930 . S
C505 C503 1.419 . S
C505 C506 1.362 . S
C506 H498 0.930 . S
C506 C505 1.362 . S
C506 C509 1.403 1_554 S
C507 H499 0.930 . S
C507 C508 1.355 . S
C507 C509 1.422 . S
C508 C507 1.355 . S
C508 C510 1.419 . S
C509 C504 1.426 . S
C509 C506 1.403 1_556 S
C509 C507 1.422 . S
C510 H500 0.930 . S
C510 C508 1.419 . S
C510 C511 1.362 . S
C511 H501 0.930 . S
C511 C504 1.418 . S
C511 C510 1.362 . S
H512 C518 0.930 . S
H513 C521 0.930 . S
H514 C522 0.930 . S
H515 C523 0.930 . S
H516 C526 0.930 . S
H517 C527 0.930 . S
C518 H512 0.930 . S
C518 C519 1.355 . S
C518 C520 1.416 1_554 S
C519 C518 1.355 . S
C519 C521 1.419 . S
C520 C518 1.416 1_556 S
C520 C525 1.425 1_556 S
C520 C527 1.408 . S
C521 H513 0.930 . S
C521 C519 1.419 . S
C521 C522 1.362 . S
C522 H514 0.930 . S
C522 C521 1.362 . S
C522 C525 1.409 . S
C523 H515 0.930 . S
C523 C524 1.355 . S
C523 C525 1.415 1_556 S
C524 C523 1.355 . S
C524 C526 1.419 . S
C525 C520 1.425 1_554 S
C525 C522 1.409 . S
C525 C523 1.415 1_554 S
C526 H516 0.930 . S
C526 C524 1.419 . S
C526 C527 1.362 . S
C527 H517 0.930 . S
C527 C520 1.408 . S
C527 C526 1.362 . S
H528 C534 0.930 . S
H529 C537 0.930 . S
H530 C538 0.930 1_554 S
H531 C539 0.930 . S
H532 C542 0.930 . S
H533 C543 0.930 1_556 S
C534 H528 0.930 . S
C534 C535 1.355 . S
C534 C536 1.415 . S
C535 C534 1.355 . S
C535 C537 1.419 . S
C536 C534 1.415 . S
C536 C541 1.425 1_556 S
C536 C543 1.409 1_556 S
C537 H529 0.930 . S
C537 C535 1.419 . S
C537 C538 1.362 . S
C538 H530 0.930 1_556 S
C538 C537 1.362 . S
C538 C541 1.409 1_556 S
C539 H531 0.930 . S
C539 C540 1.355 . S
C539 C541 1.415 . S
C540 C539 1.355 . S
C540 C542 1.419 . S
C541 C536 1.425 1_554 S
C541 C538 1.409 1_554 S
C541 C539 1.415 . S
C542 H532 0.930 . S
C542 C540 1.419 . S
C542 C543 1.362 . S
C543 H533 0.930 1_554 S
C543 C536 1.409 1_554 S
C543 C542 1.362 . S
H544 C550 0.930 . S
H545 C553 0.930 . S
H546 C554 0.930 . S
H547 C555 0.930 . S
H548 C558 0.930 . S
H549 C559 0.930 . S
C550 H544 0.930 . S
C550 C551 1.355 . S
C550 C552 1.415 . S
C551 C550 1.355 . S
C551 C553 1.419 . S
C552 C550 1.415 . S
C552 C557 1.425 1_554 S
C552 C559 1.409 1_554 S
C553 H545 0.930 . S
C553 C551 1.419 . S
C553 C554 1.362 . S
C554 H546 0.930 . S
C554 C553 1.362 . S
C554 C557 1.409 1_554 S
C555 H547 0.930 . S
C555 C556 1.355 . S
C555 C557 1.415 . S
C556 C555 1.355 . S
C556 C558 1.419 . S
C557 C552 1.425 1_556 S
C557 C554 1.409 1_556 S
C557 C555 1.415 . S
C558 H548 0.930 . S
C558 C556 1.419 . S
C558 C559 1.362 . S
C559 H549 0.930 . S
C559 C552 1.409 1_556 S
C559 C558 1.362 . S
C183 C175 1.394 . S
C188 C18 1.347 . S
C199 C40 1.384 . S
C204 C153 1.413 . S
C215 C117 1.393 . S
C220 C62 1.356 . S
C231 C74 1.408 . S
C236 C103 1.387 . S
C247 C81 1.369 . S
C252 C106 1.394 . S
C263 C65 1.412 . S
C268 C118 1.347 . S
C279 C37 1.409 . S
C284 C150 1.408 . S
C295 C15 1.394 . S
C300 C172 1.355 . S
C311 C43 1.622 . S
C316 C21 1.596 . S
C327 C73 1.620 . S
C332 C59 1.604 . S
C343 C109 1.616 . S
C348 C125 1.602 . S
C359 C169 1.627 . S
C364 C147 1.600 . S
C375 C84 1.460 . S
C380 C8 1.429 . S
C391 C54 1.430 . S
C396 C30 1.459 . S
C407 C96 1.444 . S
C412 C164 1.453 . S
C423 C120 1.424 . S
C428 C142 1.469 . S
C439 C140 1.824 . S
C444 C10 1.834 . S
C455 C32 1.839 . S
C460 C162 1.824 . S
C471 C98 1.845 . S
C476 C52 1.832 . S
C487 C128 1.796 . S
C492 C76 1.781 . S
C503 C7 1.082 . S
C508 C139 1.084 . S
C519 C161 1.048 . S
C524 C29 1.043 . S
C535 C51 1.022 . S
C540 C95 1.011 . S
C551 C87 1.097 . S
C556 C131 1.095 . S
