# Generated by pormake.
# Topology xfk, (7)-cn, num edge types: 1
# Building blocks:
#     Node 0, Type 0, BuildingBlock: HICVOG_clean_sbu_0, # of connection points: 7
#     Node 1, Type 0, BuildingBlock: HICVOG_clean_sbu_0, # of connection points: 7
#     Node 2, Type 0, BuildingBlock: HICVOG_clean_sbu_0, # of connection points: 7
#     Node 3, Type 0, BuildingBlock: HICVOG_clean_sbu_0, # of connection points: 7
#     Node 4, Type 0, BuildingBlock: HICVOG_clean_sbu_0, # of connection points: 7
#     Node 5, Type 0, BuildingBlock: HICVOG_clean_sbu_0, # of connection points: 7
#     Node 6, Type 0, BuildingBlock: HICVOG_clean_sbu_0, # of connection points: 7
#     Node 7, Type 0, BuildingBlock: HICVOG_clean_sbu_0, # of connection points: 7
#     Node 8, Type 0, BuildingBlock: HICVOG_clean_sbu_0, # of connection points: 7
#     Node 9, Type 0, BuildingBlock: HICVOG_clean_sbu_0, # of connection points: 7
#     Node 10, Type 0, BuildingBlock: HICVOG_clean_sbu_0, # of connection points: 7
#     Node 11, Type 0, BuildingBlock: HICVOG_clean_sbu_0, # of connection points: 7
#     Node 12, Type 0, BuildingBlock: HICVOG_clean_sbu_0, # of connection points: 7
#     Node 13, Type 0, BuildingBlock: HICVOG_clean_sbu_0, # of connection points: 7
#     Node 14, Type 0, BuildingBlock: HICVOG_clean_sbu_0, # of connection points: 7
#     Node 15, Type 0, BuildingBlock: HICVOG_clean_sbu_0, # of connection points: 7
#     Edge 16, Type (0, 0), BuildingBlock: AJUNOK_clean_linker_0, # of connection points: 2
#     Edge 17, Type (0, 0), BuildingBlock: AJUNOK_clean_linker_0, # of connection points: 2
#     Edge 18, Type (0, 0), BuildingBlock: AJUNOK_clean_linker_0, # of connection points: 2
#     Edge 19, Type (0, 0), BuildingBlock: AJUNOK_clean_linker_0, # of connection points: 2
#     Edge 20, Type (0, 0), BuildingBlock: AJUNOK_clean_linker_0, # of connection points: 2
#     Edge 21, Type (0, 0), BuildingBlock: AJUNOK_clean_linker_0, # of connection points: 2
#     Edge 22, Type (0, 0), BuildingBlock: AJUNOK_clean_linker_0, # of connection points: 2
#     Edge 23, Type (0, 0), BuildingBlock: AJUNOK_clean_linker_0, # of connection points: 2
#     Edge 24, Type (0, 0), BuildingBlock: AJUNOK_clean_linker_0, # of connection points: 2
#     Edge 25, Type (0, 0), BuildingBlock: AJUNOK_clean_linker_0, # of connection points: 2
#     Edge 26, Type (0, 0), BuildingBlock: AJUNOK_clean_linker_0, # of connection points: 2
#     Edge 27, Type (0, 0), BuildingBlock: AJUNOK_clean_linker_0, # of connection points: 2
#     Edge 28, Type (0, 0), BuildingBlock: AJUNOK_clean_linker_0, # of connection points: 2
#     Edge 29, Type (0, 0), BuildingBlock: AJUNOK_clean_linker_0, # of connection points: 2
#     Edge 30, Type (0, 0), BuildingBlock: AJUNOK_clean_linker_0, # of connection points: 2
#     Edge 31, Type (0, 0), BuildingBlock: AJUNOK_clean_linker_0, # of connection points: 2
#     Edge 32, Type (0, 0), BuildingBlock: AJUNOK_clean_linker_0, # of connection points: 2
#     Edge 33, Type (0, 0), BuildingBlock: AJUNOK_clean_linker_0, # of connection points: 2
#     Edge 34, Type (0, 0), BuildingBlock: AJUNOK_clean_linker_0, # of connection points: 2
#     Edge 35, Type (0, 0), BuildingBlock: AJUNOK_clean_linker_0, # of connection points: 2
#     Edge 36, Type (0, 0), BuildingBlock: AJUNOK_clean_linker_0, # of connection points: 2
#     Edge 37, Type (0, 0), BuildingBlock: AJUNOK_clean_linker_0, # of connection points: 2
#     Edge 38, Type (0, 0), BuildingBlock: AJUNOK_clean_linker_0, # of connection points: 2
#     Edge 39, Type (0, 0), BuildingBlock: AJUNOK_clean_linker_0, # of connection points: 2
#     Edge 40, Type (0, 0), BuildingBlock: AJUNOK_clean_linker_0, # of connection points: 2
#     Edge 41, Type (0, 0), BuildingBlock: AJUNOK_clean_linker_0, # of connection points: 2
#     Edge 42, Type (0, 0), BuildingBlock: AJUNOK_clean_linker_0, # of connection points: 2
#     Edge 43, Type (0, 0), BuildingBlock: AJUNOK_clean_linker_0, # of connection points: 2
#     Edge 44, Type (0, 0), BuildingBlock: AJUNOK_clean_linker_0, # of connection points: 2
#     Edge 45, Type (0, 0), BuildingBlock: AJUNOK_clean_linker_0, # of connection points: 2
#     Edge 46, Type (0, 0), BuildingBlock: AJUNOK_clean_linker_0, # of connection points: 2
#     Edge 47, Type (0, 0), BuildingBlock: AJUNOK_clean_linker_0, # of connection points: 2
#     Edge 48, Type (0, 0), BuildingBlock: AJUNOK_clean_linker_0, # of connection points: 2
#     Edge 49, Type (0, 0), BuildingBlock: AJUNOK_clean_linker_0, # of connection points: 2
#     Edge 50, Type (0, 0), BuildingBlock: AJUNOK_clean_linker_0, # of connection points: 2
#     Edge 51, Type (0, 0), BuildingBlock: AJUNOK_clean_linker_0, # of connection points: 2
#     Edge 52, Type (0, 0), BuildingBlock: AJUNOK_clean_linker_0, # of connection points: 2
#     Edge 53, Type (0, 0), BuildingBlock: AJUNOK_clean_linker_0, # of connection points: 2
#     Edge 54, Type (0, 0), BuildingBlock: AJUNOK_clean_linker_0, # of connection points: 2
#     Edge 55, Type (0, 0), BuildingBlock: AJUNOK_clean_linker_0, # of connection points: 2
#     Edge 56, Type (0, 0), BuildingBlock: AJUNOK_clean_linker_0, # of connection points: 2
#     Edge 57, Type (0, 0), BuildingBlock: AJUNOK_clean_linker_0, # of connection points: 2
#     Edge 58, Type (0, 0), BuildingBlock: AJUNOK_clean_linker_0, # of connection points: 2
#     Edge 59, Type (0, 0), BuildingBlock: AJUNOK_clean_linker_0, # of connection points: 2
#     Edge 60, Type (0, 0), BuildingBlock: AJUNOK_clean_linker_0, # of connection points: 2
#     Edge 61, Type (0, 0), BuildingBlock: AJUNOK_clean_linker_0, # of connection points: 2
#     Edge 62, Type (0, 0), BuildingBlock: AJUNOK_clean_linker_0, # of connection points: 2
#     Edge 63, Type (0, 0), BuildingBlock: AJUNOK_clean_linker_0, # of connection points: 2
#     Edge 64, Type (0, 0), BuildingBlock: AJUNOK_clean_linker_0, # of connection points: 2
#     Edge 65, Type (0, 0), BuildingBlock: AJUNOK_clean_linker_0, # of connection points: 2
#     Edge 66, Type (0, 0), BuildingBlock: AJUNOK_clean_linker_0, # of connection points: 2
#     Edge 67, Type (0, 0), BuildingBlock: AJUNOK_clean_linker_0, # of connection points: 2
#     Edge 68, Type (0, 0), BuildingBlock: AJUNOK_clean_linker_0, # of connection points: 2
#     Edge 69, Type (0, 0), BuildingBlock: AJUNOK_clean_linker_0, # of connection points: 2
#     Edge 70, Type (0, 0), BuildingBlock: AJUNOK_clean_linker_0, # of connection points: 2
#     Edge 71, Type (0, 0), BuildingBlock: AJUNOK_clean_linker_0, # of connection points: 2
# Relax obj value: 0.549
# Max RMSD: 0.290
# Mean RMSD: 0.290
data_MOF--net-xfk--node1-HICVOG_clean_sbu_0--edge1-AJUNOK_clean_linker_0
_symmetry_space_group_name_H-M    P1
_symmetry_Int_Tables_number       1
_symmetry_cell_setting            triclinic
loop_
_symmetry_equiv_pos_as_xyz
'x, y, z'
_cell_length_a     29.12176
_cell_length_b     29.202992
_cell_length_c     27.175417
_cell_angle_alpha  90.201208
_cell_angle_beta   90.440541
_cell_angle_gamma 89.773209
loop_
_atom_site_label
_atom_site_type_symbol
_atom_site_fract_x
_atom_site_fract_y
_atom_site_fract_z
_atom_type_partial_charge
Zn0 Zn 0.31544 0.04235 0.13107 0.0
C1 C 0.25523 0.12794 1.02699 0.0
N2 N 0.29563 0.14678 1.0161 0.0
C3 C 0.32763 0.12727 1.04419 0.0
N4 N 0.30507 0.09451 0.07552 0.0
N5 N 0.25972 0.09786 0.06524 0.0
C6 C 0.19624 1.00923 1.01558 0.0
O7 O 0.23466 1.02926 1.00315 0.0
O8 O 0.34541 0.08151 0.18124 0.0
Zn9 Zn 0.20404 0.06784 0.10139 0.0
N10 N 0.36095 1.00256 0.10252 0.0
C11 C 0.38351 0.94747 1.04254 0.0
C12 C 0.34935 0.97366 0.06518 0.0
C13 C 0.40507 1.00627 0.1182 0.0
N14 N 0.42785 0.95141 1.05799 0.0
C15 C 0.43944 0.97992 0.09573 0.0
O16 O 0.19961 1.01363 0.15376 0.0
C17 C 0.22327 0.9879 0.18181 0.0
O18 O 0.26749 0.99378 0.17804 0.0
H19 H 0.31404 0.97152 1.05271 0.0
H20 H 0.41346 1.03047 0.1471 0.0
C21 C 0.15702 0.16052 0.12312 0.0
C22 C 0.12684 0.18836 0.15157 0.0
C23 C 0.12031 0.12734 0.20864 0.0
C24 C 0.14736 0.09974 0.1793 0.0
N25 N 0.16539 0.1159 0.13663 0.0
N26 N 0.11053 0.17034 0.19403 0.0
H27 H 0.17254 0.17304 0.09011 0.0
C28 C 0.31655 0.11183 0.19403 0.0
O29 O 0.2727 0.10324 0.18714 0.0
O30 O 0.17324 1.02589 1.05107 0.0
H31 H 0.15343 0.06551 0.19156 0.0
H32 H 0.37488 0.92437 1.01284 0.0
H33 H 0.1056 0.11404 0.242 0.0
Zn34 Zn 0.20378 0.6406 0.98614 0.0
C35 C 0.17049 0.62462 0.1296 0.0
N36 N 0.20062 0.59122 0.13992 0.0
C37 C 0.22284 0.58249 0.09776 0.0
N38 N 0.20449 0.61192 1.05999 0.0
N39 N 0.17154 0.63656 0.08173 0.0
C40 C 0.05901 0.72857 0.10088 0.0
O41 O 0.04018 0.69641 0.07365 0.0
O42 O 0.2681 0.66207 0.97367 0.0
Zn43 Zn 0.14043 0.69447 1.0546 0.0
N44 N 0.19465 0.59049 0.94191 0.0
C45 C 0.21607 0.53552 0.88154 0.0
C46 C 0.22821 0.56616 0.91908 0.0
C47 C 0.15004 0.58569 0.92909 0.0
N48 N 0.17119 0.53154 0.86783 0.0
C49 C 0.13769 0.55647 0.89035 0.0
O50 O 0.09454 0.69723 0.99337 0.0
C51 C 0.11227 0.70957 0.95289 0.0
O52 O 0.15494 0.69635 0.94743 0.0
H53 H 0.26385 0.57128 0.92901 0.0
H54 H 0.12465 0.60544 0.94889 0.0
C55 C 0.17432 0.78029 1.02463 0.0
C56 C 0.20722 0.81462 1.01738 0.0
C57 C 0.26592 0.76147 1.03925 0.0
C58 C 0.23301 0.72815 1.04778 0.0
N59 N 0.18798 0.73811 1.04014 0.0
N60 N 0.25228 0.80371 1.02472 0.0
H61 H 0.13821 0.78629 1.01809 0.0
C62 C 0.30211 0.64527 0.997 0.0
O63 O 0.29616 0.61184 1.02811 0.0
O64 O 0.10258 0.72887 0.10553 0.0
H65 H 0.24329 0.69479 1.06069 0.0
H66 H 0.24216 0.51575 0.86281 0.0
H67 H 0.30196 0.75435 1.04501 0.0
Zn68 Zn 0.86529 1.00687 0.10442 0.0
C69 C 0.73617 0.95626 1.04725 0.0
N70 N 0.767 0.93785 1.01695 0.0
C71 C 0.80763 0.95346 1.03196 0.0
N72 N 0.80477 0.9817 0.07132 0.0
N73 N 0.75982 0.98564 0.0821 0.0
C74 C 0.75001 0.96104 0.22644 0.0
O75 O 0.71731 0.98721 0.2443 0.0
O76 O 0.89838 0.04321 1.05231 0.0
Zn77 Zn 0.76069 1.02722 0.14805 0.0
N78 N 0.90303 0.95785 0.13579 0.0
C79 C 0.93669 0.94182 0.21429 0.0
C80 C 0.90591 0.96611 0.1851 0.0
C81 C 0.92752 0.92244 0.11529 0.0
N82 N 0.96187 0.90787 0.19391 0.0
C83 C 0.95751 0.89618 0.14567 0.0
O84 O 0.80794 0.08362 0.18136 0.0
C85 C 0.85222 0.08874 0.18302 0.0
O86 O 0.87473 0.06113 0.15605 0.0
H87 H 0.88503 0.99223 0.20199 0.0
H88 H 0.92465 0.91542 0.07629 0.0
C89 C 0.66168 1.02435 0.14459 0.0
C90 C 0.61792 1.03639 0.1616 0.0
C91 C 0.65107 0.09349 0.21281 0.0
C92 C 0.69452 0.08135 0.19608 0.0
N93 N 0.69901 0.04684 0.1627 0.0
N94 N 0.61389 0.07063 0.19543 0.0
H95 H 0.66618 0.99639 0.11889 0.0
C96 C 0.87057 0.07527 1.04069 0.0
O97 O 0.82905 0.0747 1.05925 0.0
O98 O 0.77564 0.97666 0.19318 0.0
H99 H 0.72456 0.09833 0.21075 0.0
H100 H 0.94014 0.94942 0.25312 0.0
H101 H 0.64694 0.12042 0.23988 0.0
Zn102 Zn 0.88082 0.43989 0.97745 0.0
C103 C 0.91217 0.45041 0.12295 0.0
N104 N 0.88118 0.48291 0.13351 0.0
C105 C 0.85937 0.49253 0.09099 0.0
N106 N 0.87907 0.4649 1.05262 0.0
N107 N 0.912 0.43998 0.07437 0.0
C108 C 1.02874 0.35346 0.08818 0.0
O109 O 0.04565 0.384 1.05806 0.0
O110 O 0.81538 0.42645 0.96537 0.0
Zn111 Zn 0.94361 0.38346 1.04459 0.0
N112 N 0.89106 0.49236 0.937 0.0
C113 C 0.8669 0.55793 0.89184 0.0
C114 C 0.85702 0.52193 0.92378 0.0
C115 C 0.93413 0.4969 0.91955 0.0
N116 N 0.91032 0.56272 0.87456 0.0
C117 C 0.94416 0.53254 0.88708 0.0
O118 O 0.98706 0.38117 0.98238 0.0
C119 C 0.96843 0.36799 0.94227 0.0
O120 O 0.92583 0.3818 0.93697 0.0
H121 H 0.82263 0.51749 0.9377 0.0
H122 H 0.96047 0.47332 0.93202 0.0
C123 C 0.90964 0.29609 1.01591 0.0
C124 C 0.87621 0.26238 1.00665 0.0
C125 C 0.81792 0.31795 1.02173 0.0
C126 C 0.8512 0.35062 1.03185 0.0
N127 N 0.8963 0.33907 1.02925 0.0
N128 N 0.83116 0.27488 1.0098 0.0
H129 H 0.94587 0.2892 1.01245 0.0
C130 C 0.79722 0.39704 0.93719 0.0
O131 O 0.82335 0.36962 0.911 0.0
O132 O 0.98535 0.35174 0.09414 0.0
H133 H 0.841 0.38468 1.04261 0.0
H134 H 0.84036 0.58201 0.88109 0.0
H135 H 0.78183 0.32647 1.02414 0.0
Zn136 Zn 0.38481 0.43366 0.2998 0.0
C137 C 0.49105 0.34614 0.34538 0.0
N138 N 0.48136 0.36695 0.38838 0.0
C139 C 0.45014 0.39936 0.3777 0.0
N140 N 0.44029 0.40053 0.32913 0.0
N141 N 0.46422 0.36726 0.30709 0.0
C142 C 0.3885 0.29607 0.18905 0.0
O143 O 0.36922 0.32851 0.16262 0.0
O144 O 0.35149 0.47377 0.34875 0.0
Zn145 Zn 0.43789 0.3709 0.23248 0.0
N146 N 0.3397 0.38721 0.28415 0.0
C147 C 0.31579 0.30964 0.28269 0.0
C148 C 0.34935 0.34225 0.29166 0.0
C149 C 0.29775 0.401 0.26728 0.0
N150 N 0.27395 0.32337 0.26638 0.0
C151 C 0.26339 0.36824 0.25812 0.0
O152 O 0.38055 0.41766 0.19407 0.0
C153 C 0.36968 0.46076 0.19944 0.0
O154 O 0.38505 0.47837 0.23906 0.0
H155 H 0.38269 0.33161 0.30483 0.0
H156 H 0.29229 0.43699 0.26088 0.0
C157 C 0.49201 0.4289 0.17921 0.0
C158 C 0.52148 0.44279 0.14171 0.0
C159 C 0.54397 0.3652 0.13005 0.0
C160 C 0.51344 0.35158 0.16656 0.0
N161 N 0.48825 0.38392 0.19029 0.0
N162 N 0.54715 0.41034 0.11834 0.0
H163 H 0.4715 0.45338 0.19943 0.0
C164 C 0.34764 0.51677 0.34148 0.0
O165 O 0.37766 0.53725 0.31337 0.0
O166 O 0.42019 0.30633 0.2192 0.0
H167 H 0.50895 0.3157 0.17496 0.0
H168 H 0.32278 0.27369 0.28879 0.0
H169 H 0.56439 0.34008 0.11059 0.0
Zn170 Zn 0.53105 0.76239 0.87886 0.0
C171 C 0.44721 0.82108 0.77333 0.0
N172 N 0.42956 0.7805 0.76065 0.0
C173 C 0.44955 0.74935 0.7894 0.0
N174 N 0.48124 0.77227 0.82186 0.0
N175 N 0.4779 0.81718 0.81149 0.0
C176 C 0.54707 0.94259 0.79935 0.0
O177 O 0.54671 0.97946 0.77182 0.0
O178 O 0.49314 0.72689 0.92422 0.0
Zn179 Zn 0.49615 0.8721 0.85692 0.0
N180 N 0.57204 0.71684 0.85226 0.0
C181 C 0.64472 0.69093 0.82444 0.0
C182 C 0.61662 0.72593 0.84229 0.0
C183 C 0.55423 0.67438 0.84502 0.0
N184 N 0.62714 0.64821 0.81798 0.0
C185 C 0.58237 0.63864 0.82776 0.0
O186 O 0.55136 0.88224 0.90877 0.0
C187 C 0.57964 0.85776 0.93349 0.0
O188 O 0.57625 0.81359 0.92616 0.0
H189 H 0.63024 0.75975 0.84891 0.0
H190 H 0.51882 0.66841 0.85468 0.0
C191 C 0.4123 0.92029 0.89414 0.0
C192 C 0.3656 0.91689 0.90758 0.0
C193 C 0.37994 0.84082 0.93479 0.0
C194 C 0.4243 0.84288 0.91627 0.0
N195 N 0.43942 0.88198 0.89506 0.0
N196 N 0.35127 0.87704 0.92829 0.0
H197 H 0.42563 0.95123 0.8783 0.0
C198 C 0.47553 0.73399 0.96592 0.0
O199 O 0.48741 0.77019 0.99179 0.0
O200 O 0.5089 0.92539 0.81209 0.0
H201 H 0.44588 0.8128 0.91627 0.0
H202 H 0.68047 0.69747 0.81669 0.0
H203 H 0.36739 0.80961 0.95121 0.0
Zn204 Zn 0.64055 0.69739 0.23038 0.0
C205 C 0.62225 0.66482 0.37385 0.0
N206 N 0.58999 0.69667 0.38232 0.0
C207 C 0.58293 0.71779 0.33911 0.0
N208 N 0.61212 0.69711 0.30299 0.0
N209 N 0.6349 0.66356 0.32613 0.0
C210 C 0.73205 0.55376 0.34283 0.0
O211 O 0.69937 0.53461 0.31642 0.0
O212 O 0.66275 0.76078 0.22604 0.0
Zn213 Zn 0.6951 0.63596 0.30069 0.0
N214 N 0.58921 0.69127 0.18711 0.0
C215 C 0.52743 0.7159 0.13605 0.0
C216 C 0.56308 0.72602 0.16904 0.0
C217 C 0.58163 0.64736 0.17368 0.0
N218 N 0.51985 0.67161 0.12227 0.0
C219 C 0.54681 0.63703 0.13982 0.0
O220 O 0.70353 0.59303 0.23797 0.0
C221 C 0.71286 0.61014 0.19632 0.0
O222 O 0.69597 0.65109 0.18955 0.0
H223 H 0.56991 0.761 0.18002 0.0
H224 H 0.6027 0.62068 0.1899 0.0
C225 C 0.77609 0.68181 0.27417 0.0
C226 C 0.80814 0.71734 0.27647 0.0
C227 C 0.75476 0.76284 0.32098 0.0
C228 C 0.72334 0.72726 0.31914 0.0
N229 N 0.73442 0.68774 0.29526 0.0
N230 N 0.79634 0.75695 0.29993 0.0
H231 H 0.78433 0.64931 0.25716 0.0
C232 C 0.70165 0.7713 0.20912 0.0
O233 O 0.72741 0.73962 0.18874 0.0
O234 O 0.73267 0.59714 0.34754 0.0
H235 H 0.69095 0.73105 0.3376 0.0
H236 H 0.50619 0.74315 0.12151 0.0
H237 H 0.74658 0.79454 0.33972 0.0
Zn238 Zn 0.53684 0.32067 0.88139 0.0
C239 C 0.61295 0.2699 0.76504 0.0
N240 N 0.62676 0.31157 0.75274 0.0
C241 C 0.60872 0.34074 0.78452 0.0
N242 N 0.57988 0.31564 0.81767 0.0
N243 N 0.58403 0.27119 0.8047 0.0
C244 C 0.50318 0.19303 0.7584 0.0
O245 O 0.51684 0.23405 0.74572 0.0
O246 O 0.58724 0.32952 0.92997 0.0
Zn247 Zn 0.56057 0.21308 0.84246 0.0
N248 N 0.50325 0.37779 0.87361 0.0
C249 C 0.43652 0.42316 0.88622 0.0
C250 C 0.45933 0.38125 0.88957 0.0
C251 C 0.52503 0.41429 0.85349 0.0
N252 N 0.45914 0.46013 0.86853 0.0
C253 C 0.50333 0.45745 0.85247 0.0
O254 O 0.51067 0.20207 0.90112 0.0
C255 C 0.48358 0.22568 0.92817 0.0
O256 O 0.48742 0.26996 0.92284 0.0
H257 H 0.44236 0.35181 0.90506 0.0
H258 H 0.55918 0.40923 0.83992 0.0
C259 C 0.64922 0.15806 0.8565 0.0
C260 C 0.68974 0.15125 0.88452 0.0
C261 C 0.66345 0.20559 0.94307 0.0
C262 C 0.62372 0.21236 0.9154 0.0
N263 N 0.61706 0.18884 0.8727 0.0
N264 N 0.69538 0.17536 0.92706 0.0
H265 H 0.64358 0.13875 0.82305 0.0
C266 C 0.60103 0.36776 0.94639 0.0
O267 O 0.57286 0.40294 0.94615 0.0
O268 O 0.52266 0.17377 0.79501 0.0
H269 H 0.59832 0.23698 0.92742 0.0
H270 H 0.40148 0.42661 0.89867 0.0
H271 H 0.66905 0.22443 0.97693 0.0
Zn272 Zn 0.80925 0.55064 0.63784 0.0
C273 C 0.76194 0.61037 0.51235 0.0
N274 N 0.80215 0.62707 0.49779 0.0
C275 C 0.83266 0.61414 0.53223 0.0
N276 N 0.80955 0.58718 0.56887 0.0
N277 N 0.76522 0.58725 0.55529 0.0
C278 C 0.69352 0.50209 0.51992 0.0
O279 O 0.7376 0.51057 0.51684 0.0
O280 O 0.8062 0.60522 0.67953 0.0
Zn281 Zn 0.70632 0.56506 0.59038 0.0
N282 N 0.86925 0.5239 0.64663 0.0
C283 C 0.9146 0.46266 0.67825 0.0
C284 C 0.8718 0.4816 0.6672 0.0
C285 C 0.90781 0.54786 0.63569 0.0
N286 N 0.95307 0.48688 0.66837 0.0
C287 C 0.95093 0.52903 0.64722 0.0
O288 O 0.6927 0.5151 0.64514 0.0
C289 C 0.71458 0.4929 0.67799 0.0
O290 O 0.75869 0.5005 0.67886 0.0
H291 H 0.84083 0.46309 0.67574 0.0
H292 H 0.90479 0.58175 0.61994 0.0
C293 C 0.65178 0.65086 0.60337 0.0
C294 C 0.63725 0.68725 0.63421 0.0
C295 C 0.67845 0.6537 0.7009 0.0
C296 C 0.69291 0.61855 0.67045 0.0
N297 N 0.67964 0.6177 0.62245 0.0
N298 N 0.65151 0.6872 0.68206 0.0
H299 H 0.64125 0.6485 0.56524 0.0
C300 C 0.83052 0.61677 0.71611 0.0
O301 O 0.85965 0.58715 0.73518 0.0
O302 O 0.6678 0.5318 0.54031 0.0
H303 H 0.71536 0.59226 0.68488 0.0
H304 H 0.91725 0.42921 0.69504 0.0
H305 H 0.68963 0.655 0.73883 0.0
Zn306 Zn 0.69555 0.12307 0.4815 0.0
C307 C 0.66472 0.1265 0.6264 0.0
N308 N 0.69345 0.09319 0.64023 0.0
C309 C 0.7134 0.07757 0.5988 0.0
N310 N 0.69565 0.10368 0.55799 0.0
N311 N 0.6648 0.13275 0.57736 0.0
C312 C 0.54613 0.22833 0.58164 0.0
O313 O 0.52675 0.19973 0.55055 0.0
O314 O 0.76303 0.13482 0.46604 0.0
Zn315 Zn 0.6284 0.1863 0.54592 0.0
N316 N 0.68382 0.06969 0.4425 0.0
C317 C 0.70809 1.00303 0.39922 0.0
C318 C 0.71704 0.03812 0.433 0.0
C319 C 0.64249 0.06806 0.41951 0.0
N320 N 0.66637 1.00113 0.37648 0.0
C321 C 0.63343 1.03332 0.38521 0.0
O322 O 0.58683 0.18034 0.48317 0.0
C323 C 0.60669 0.19406 0.4444 0.0
O324 O 0.64956 0.18059 0.44053 0.0
H325 H 0.75027 0.04064 0.45085 0.0
H326 H 0.61668 0.09329 0.42884 0.0
C327 C 0.65618 0.27711 0.52142 0.0
C328 C 0.68725 0.30931 0.5039 0.0
C329 C 0.74301 0.25106 0.49319 0.0
C330 C 0.71278 0.21981 0.51339 0.0
N331 N 0.67007 0.23292 0.52589 0.0
N332 N 0.72982 0.29539 0.48974 0.0
H333 H 0.62232 0.28729 0.53354 0.0
C334 C 0.7954 0.141 0.49723 0.0
O335 O 0.78653 0.14335 0.5445 0.0
O336 O 0.58808 0.22221 0.59356 0.0
H337 H 0.72191 0.18533 0.51945 0.0
H338 H 0.73398 0.97746 0.39125 0.0
H339 H 0.77714 0.24075 0.48221 0.0
Zn340 Zn 0.36925 0.51433 0.59395 0.0
C341 C 0.24182 0.45882 0.53853 0.0
N342 N 0.27197 0.43906 0.50882 0.0
C343 C 0.31345 0.45426 0.52131 0.0
N344 N 0.31126 0.48543 0.55904 0.0
N345 N 0.26633 0.48993 0.5704 0.0
C346 C 0.2481 0.462 0.68595 0.0
O347 O 0.28997 0.4568 0.66914 0.0
O348 O 0.40277 0.55507 0.54583 0.0
Zn349 Zn 0.25762 0.53892 0.62883 0.0
N350 N 0.40442 0.46455 0.62668 0.0
C351 C 0.41908 0.43408 0.70672 0.0
C352 C 0.3981 0.46617 0.67626 0.0
C353 C 0.43113 0.43088 0.60638 0.0
N354 N 0.44466 0.40025 0.68654 0.0
C355 C 0.45115 0.39695 0.63713 0.0
O356 O 0.30834 0.58537 0.67412 0.0
C357 C 0.35254 0.59182 0.67722 0.0
O358 O 0.37644 0.56682 0.64864 0.0
H359 H 0.37639 0.49216 0.69232 0.0
H360 H 0.43708 0.43062 0.56735 0.0
C361 C 0.16615 0.56983 0.61728 0.0
C362 C 0.13053 0.59976 0.60387 0.0
C363 C 0.18492 0.64873 0.56686 0.0
C364 C 0.2204 0.61906 0.58103 0.0
N365 N 0.21021 0.58031 0.60617 0.0
N366 N 0.14082 0.63854 0.57871 0.0
H367 H 0.15885 0.5383 0.63638 0.0
C368 C 0.38078 0.57349 0.51043 0.0
O369 O 0.33965 0.55803 0.49943 0.0
O370 O 0.22768 0.49972 0.67847 0.0
H371 H 0.25571 0.62686 0.57234 0.0
H372 H 0.41442 0.43554 0.74617 0.0
H373 H 0.19239 0.67969 0.54674 0.0
Zn374 Zn 0.44771 0.88736 0.53667 0.0
C375 C 0.35585 0.99113 0.58368 0.0
N376 N 0.37829 0.98372 0.62611 0.0
C377 C 0.41063 0.9523 0.61652 0.0
N378 N 0.41169 0.94133 0.56799 0.0
N379 N 0.37652 0.96324 0.54615 0.0
C380 C 0.30407 0.87971 0.4336 0.0
O381 O 0.33558 0.86763 0.40178 0.0
O382 O 0.49709 0.85586 0.57989 0.0
Zn383 Zn 0.37603 0.93431 0.47274 0.0
N384 N 0.40136 0.84036 0.52672 0.0
C385 C 0.32425 0.81452 0.53335 0.0
C386 C 0.35707 0.84845 0.53999 0.0
C387 C 0.41448 0.79883 0.50893 0.0
N388 N 0.33727 0.77329 0.51519 0.0
C389 C 0.38168 0.76422 0.50317 0.0
O390 O 0.42244 0.87747 0.43395 0.0
C391 C 0.46648 0.86976 0.43545 0.0
O392 O 0.48638 0.88955 0.4713 0.0
H393 H 0.34701 0.88078 0.55585 0.0
H394 H 0.45013 0.79296 0.49988 0.0
C395 C 0.42772 0.98902 0.4165 0.0
C396 C 0.44041 1.01624 0.37672 0.0
C397 C 0.36201 1.03552 0.3639 0.0
C398 C 0.34952 1.00615 0.40217 0.0
N399 N 0.383 0.98364 0.42751 0.0
N400 N 0.40713 0.03961 0.35169 0.0
H401 H 0.45304 0.9708 0.43823 0.0
C402 C 0.53845 0.84923 0.56654 0.0
O403 O 0.55468 0.87154 0.52873 0.0
O404 O 0.31305 0.91048 0.46519 0.0
H405 H 0.31376 1.00047 0.41065 0.0
H406 H 0.28883 0.8206 0.54325 0.0
H407 H 0.33601 0.05392 0.34323 0.0
Zn408 Zn 0.85989 0.92489 0.81969 0.0
C409 C 0.98365 0.85019 0.85272 0.0
N410 N 0.97157 0.86694 0.89671 0.0
C411 C 0.93634 0.89527 0.88782 0.0
N412 N 0.92442 0.8972 0.83984 0.0
N413 N 0.9546 0.87067 0.81561 0.0
C414 C 0.87234 0.80738 0.73216 0.0
O415 O 0.84392 0.84191 0.73806 0.0
O416 O 0.83994 0.98289 0.85793 0.0
Zn417 Zn 0.93716 0.87638 0.73952 0.0
N418 N 0.81165 0.88209 0.83646 0.0
C419 C 0.78101 0.81017 0.86008 0.0
C420 C 0.81877 0.83791 0.84993 0.0
C421 C 0.76839 0.8995 0.83215 0.0
N422 N 0.73776 0.82775 0.85615 0.0
C423 C 0.73014 0.87208 0.84279 0.0
O424 O 0.88706 0.92521 0.69593 0.0
C425 C 0.85003 0.94841 0.70584 0.0
O426 O 0.83794 0.94787 0.75054 0.0
H427 H 0.85328 0.8242 0.85196 0.0
H428 H 0.76415 0.93416 0.81899 0.0
C429 C 0.99669 0.92854 0.68829 0.0
C430 C 1.02695 0.93994 0.65043 0.0
C431 C 0.05018 0.86187 0.64632 0.0
C432 C 1.01792 0.85058 0.68213 0.0
N433 N 0.9919 0.88441 0.70213 0.0
N434 N 0.05356 0.90605 0.63088 0.0
H435 H 0.97546 0.954 0.70609 0.0
C436 C 0.83547 1.02089 0.83503 0.0
O437 O 0.85712 1.02628 0.79326 0.0
O438 O 0.91487 0.81444 0.72727 0.0
H439 H 1.01258 0.81529 0.69254 0.0
H440 H 0.78602 0.77481 0.87062 0.0
H441 H 0.07132 0.83554 0.62979 0.0
Zn442 Zn 1.03404 0.25815 0.38486 0.0
C443 C 0.95157 0.31493 0.27358 0.0
N444 N 0.93592 0.27388 0.26095 0.0
C445 C 0.95584 0.24373 0.29042 0.0
N446 N 0.98693 0.26741 0.32313 0.0
N447 N 0.98285 0.31212 0.31138 0.0
C448 C 0.06972 0.37646 0.25897 0.0
O449 O 0.0499 0.33716 0.2494 0.0
O450 O 0.99067 0.22944 0.43371 0.0
Zn451 Zn 1.01178 0.36967 0.34422 0.0
N452 N 0.07876 0.21076 0.36572 0.0
C453 C 0.14191 0.18777 0.31594 0.0
C454 C 0.11235 0.22191 0.33347 0.0
C455 C 0.07506 0.16696 0.3824 0.0
N456 N 0.13468 0.14337 0.32874 0.0
C457 C 0.10139 0.13201 0.36125 0.0
O458 O 0.06149 0.37858 0.40144 0.0
C459 C 0.08513 0.35543 0.43217 0.0
O460 O 0.07883 0.31118 0.43007 0.0
H461 H 0.11568 0.25687 0.32096 0.0
H462 H 0.04995 0.15834 0.40972 0.0
C463 C 0.92668 0.43021 0.3616 0.0
C464 C 0.89005 0.44116 0.3936 0.0
C465 C 0.92288 0.3935 0.45491 0.0
C466 C 0.95797 0.38155 0.423 0.0
N467 N 0.95984 0.40008 0.37715 0.0
N468 N 0.88961 0.42253 0.43936 0.0
H469 H 0.92742 0.44392 0.32475 0.0
C470 C 0.96813 0.19598 0.41573 0.0
O471 O 0.97819 0.18168 0.3714 0.0
O472 O 0.05421 0.40077 0.29421 0.0
H473 H 0.98319 0.35647 0.43445 0.0
H474 H 0.16866 0.19615 0.29011 0.0
H475 H 0.92138 0.37884 0.49136 0.0
Zn476 Zn 0.14027 0.19657 0.72475 0.0
C477 C 0.12335 0.16319 0.8684 0.0
N478 N 0.09196 0.19532 0.87909 0.0
C479 C 0.08436 0.21846 0.83707 0.0
N480 N 0.11238 0.19858 0.79902 0.0
N481 N 0.13489 0.16373 0.82036 0.0
C482 C 0.22248 0.04275 0.83679 0.0
O483 O 0.19192 1.02494 0.80659 0.0
O484 O 0.16507 0.25897 0.71243 0.0
Zn485 Zn 0.19137 0.12951 0.79273 0.0
N486 N 0.08886 0.1882 0.68086 0.0
C487 C 1.02576 0.21071 0.63013 0.0
C488 C 0.06095 0.22193 0.66335 0.0
C489 C 0.0837 0.14425 0.6659 0.0
N490 N 1.02014 0.16637 0.61581 0.0
C491 C 0.04896 0.13288 0.63232 0.0
O492 O 0.19353 0.08708 0.72942 0.0
C493 C 0.20778 0.10577 0.69015 0.0
O494 O 0.19576 0.1487 0.68574 0.0
H495 H 0.06588 0.25702 0.67482 0.0
H496 H 0.10595 0.11813 0.68129 0.0
C497 C 0.27816 0.16176 0.76549 0.0
C498 C 0.31257 0.19396 0.75766 0.0
C499 C 0.26243 0.2531 0.78401 0.0
C500 C 0.22786 0.22109 0.79075 0.0
N501 N 0.23633 0.17613 0.781 0.0
N502 N 0.30385 0.23891 0.76728 0.0
H503 H 0.2845 0.12558 0.75971 0.0
C504 C 0.14694 0.29623 0.72673 0.0
O505 O 0.10801 0.29542 0.75073 0.0
O506 O 0.2243 0.08617 0.8412 0.0
H507 H 0.19509 0.23201 0.8049 0.0
H508 H 1.00289 0.23698 0.61615 0.0
H509 H 0.25663 0.28884 0.79253 0.0
Zn510 Zn 0.06386 0.70515 0.34432 0.0
C511 C 0.12269 0.83212 0.29326 0.0
N512 N 0.14181 0.80141 0.26355 0.0
C513 C 0.12639 0.76045 0.27672 0.0
N514 N 0.0959 0.7634 0.31447 0.0
N515 N 0.09231 0.80828 0.32632 0.0
C516 C 0.12718 0.79342 0.44089 0.0
O517 O 0.11796 0.75401 0.41993 0.0
O518 O 1.01769 0.68129 0.29331 0.0
Zn519 Zn 0.0487 0.81362 0.39069 0.0
N520 N 0.11053 0.66135 0.3741 0.0
C521 C 0.12604 0.62455 0.45109 0.0
C522 C 0.10003 0.65395 0.42232 0.0
C523 C 0.149 0.64086 0.35469 0.0
N524 N 0.16301 0.60369 0.43164 0.0
C525 C 0.17576 0.61079 0.38442 0.0
O526 O 0.99693 0.76471 0.4306 0.0
C527 C 0.98744 0.72119 0.42887 0.0
O528 O 1.01024 0.69861 0.39721 0.0
H529 H 0.07225 0.67152 0.4399 0.0
H530 H 0.15882 0.64715 0.31719 0.0
C531 C 0.04287 0.91035 0.38405 0.0
C532 C 1.02007 0.95263 0.38395 0.0
C533 C 0.94863 0.91412 0.39082 0.0
C534 C 0.97137 0.87215 0.39029 0.0
N535 N 1.01786 0.87121 0.3869 0.0
N536 N 0.9734 0.95321 0.38741 0.0
H537 H 0.07987 0.90834 0.38102 0.0
C538 C 1.00251 0.7081 0.26006 0.0
O539 O 1.02659 0.74442 0.2489 0.0
O540 O 0.09618 0.82389 0.4413 0.0
H541 H 0.95231 0.84056 0.39307 0.0
H542 H 0.11688 0.6183 0.48878 0.0
H543 H 0.91162 0.91571 0.39361 0.0
C544 C 0.56547 1.01048 0.09371 0.0
C545 C 0.57609 1.01296 0.14426 0.0
C546 C 0.52171 0.99659 0.07762 0.0
C547 C 0.48767 0.98484 0.11171 0.0
H548 H 0.59003 1.02201 0.06674 0.0
H549 H 0.51361 0.9978 1.03866 0.0
S550 S 0.50208 0.97597 0.24672 0.0
N551 N 0.55171 0.99602 0.22743 0.0
N552 N 0.46985 0.96922 0.19708 0.0
C553 C 0.49941 0.98327 0.16182 0.0
C554 C 0.54357 0.99762 0.17816 0.0
C555 C 1.0111 0.58398 0.87942 0.0
C556 C 0.99207 0.54044 0.87241 0.0
C557 C 0.05871 0.58971 0.88083 0.0
C558 C 0.08874 0.55191 0.87598 0.0
H559 H 0.98933 0.61313 0.88778 0.0
H560 H 0.07189 0.62363 0.88853 0.0
S561 S 0.05496 0.43403 0.84078 0.0
N562 N 1.00584 0.46149 0.84799 0.0
N563 N 0.09574 0.47171 0.85262 0.0
C564 C 0.06995 0.50946 0.86242 0.0
C565 C 1.02141 0.50384 0.86027 0.0
C566 C 0.48853 0.52238 0.1344 0.0
C567 C 0.52623 0.4921 0.12961 0.0
C568 C 0.49452 0.56998 0.13303 0.0
C569 C 0.53831 0.58872 0.12655 0.0
H570 H 0.45444 0.5094 0.14151 0.0
H571 H 0.4654 0.59204 0.14063 0.0
S572 S 0.64589 0.52498 0.10165 0.0
N573 N 0.60733 0.48471 0.11068 0.0
N574 N 0.61822 0.57413 0.10668 0.0
C575 C 0.57511 0.55901 0.11615 0.0
C576 C 0.56914 0.51066 0.11792 0.0
C577 C 0.49978 0.53796 0.82164 0.0
C578 C 0.52696 0.50071 0.83749 0.0
C579 C 0.51831 0.58176 0.81559 0.0
C580 C 0.56506 0.59057 0.82504 0.0
H581 H 0.46325 0.53374 0.81541 0.0
H582 H 0.49529 0.60914 0.80474 0.0
S583 S 0.6535 0.50417 0.85892 0.0
N584 N 0.60496 0.47532 0.8575 0.0
N585 N 0.6396 0.55716 0.84413 0.0
C586 C 0.5936 0.55303 0.83649 0.0
C587 C 0.57467 0.50831 0.84337 0.0
C588 C 1.00452 0.56955 0.59049 0.0
C589 C 0.99396 0.55387 0.63796 0.0
C590 C 0.04831 0.58685 0.57999 0.0
C591 C 0.0826 0.58886 0.61668 0.0
H592 H 0.97962 0.56633 0.56085 0.0
H593 H 0.05596 0.59653 0.54255 0.0
S594 S 0.06858 0.56119 0.74857 0.0
N595 N 1.01882 0.54746 0.72311 0.0
N596 N 0.10082 0.58045 0.70353 0.0
C597 C 0.07116 0.5765 0.66491 0.0
C598 C 1.02689 0.55879 0.6755 0.0
C599 C 0.51805 0.9805 0.36969 0.0
C600 C 0.48951 1.01923 0.36348 0.0
C601 C 0.56574 0.98459 0.3708 0.0
C602 C 0.58644 1.02746 0.36578 0.0
H603 H 0.50345 0.94711 0.37654 0.0
H604 H 0.58619 0.95481 0.38008 0.0
S605 S 0.5282 0.13574 0.33061 0.0
N606 N 0.48584 0.09931 0.33955 0.0
N607 N 0.57617 0.10686 0.34105 0.0
C608 C 0.55884 0.065 0.35192 0.0
C609 C 0.51007 0.06087 0.3508 0.0
C610 C 0.9926 1.01843 0.63868 0.0
C611 C 1.03017 0.98813 0.6329 0.0
C612 C 0.99766 0.06569 0.63323 0.0
C613 C 0.04029 0.08429 0.62117 0.0
H614 H 0.95938 1.00608 0.64992 0.0
H615 H 0.96903 0.08789 0.64237 0.0
S616 S 0.14429 1.01988 0.58408 0.0
N617 N 0.1081 0.97998 0.60201 0.0
N618 N 0.11725 0.06923 0.59127 0.0
C619 C 0.07617 0.05439 0.60825 0.0
C620 C 0.07113 1.00613 0.61398 0.0
C621 C 0.08408 1.00868 0.4029 0.0
C622 C 0.04455 0.99621 0.37577 0.0
C623 C 0.10389 0.05241 0.39734 0.0
C624 C 0.08484 0.08431 0.36422 0.0
H625 H 0.09867 0.9853 0.42969 0.0
H626 H 0.13325 0.06172 0.41988 0.0
S627 S 0.98467 0.06569 0.28208 0.0
N628 N 0.98973 1.01751 0.31267 0.0
N629 N 1.02626 0.09924 0.30237 0.0
C630 C 0.04661 0.07123 0.33587 0.0
C631 C 1.02666 1.02727 0.3416 0.0
C632 C 0.37758 0.16895 0.21275 0.0
C633 C 0.33236 0.15963 0.1975 0.0
C634 C 0.39559 0.21317 0.20948 0.0
C635 C 0.36931 0.24945 0.18996 0.0
H636 H 0.39944 0.14171 0.22663 0.0
H637 H 0.4306 0.2188 0.22178 0.0
S638 S 0.24901 0.24311 0.1452 0.0
N639 N 0.26144 0.19052 0.16279 0.0
N640 N 0.29561 0.27343 0.15614 0.0
C641 C 0.32396 0.24071 0.17495 0.0
C642 C 0.30535 0.19587 0.179 0.0
C643 C 0.36673 0.66698 0.94433 0.0
C644 C 0.34756 0.66504 0.99119 0.0
C645 C 0.40916 0.6877 0.93729 0.0
C646 C 0.43322 0.70852 0.97674 0.0
H647 H 0.34878 0.65239 0.91295 0.0
H648 H 0.42231 0.68864 0.90012 0.0
S649 S 0.39616 0.71257 0.10675 0.0
N650 N 0.35516 0.6839 0.07795 0.0
N651 N 0.43409 0.72577 0.06424 0.0
C652 C 0.41416 0.7066 1.0239 0.0
C653 C 0.37152 0.684 1.03129 0.0
C654 C 0.71109 0.89187 0.25865 0.0
C655 C 0.74589 0.91076 0.22968 0.0
C656 C 0.69776 0.84636 0.25236 0.0
C657 C 0.71892 0.818 0.2171 0.0
H658 H 0.69223 0.91295 0.2845 0.0
H659 H 0.66984 0.8337 0.2746 0.0
S660 S 0.81511 0.84917 0.13575 0.0
N661 N 0.80459 0.89599 0.1678 0.0
N662 N 0.77855 0.81062 0.15566 0.0
C663 C 0.75583 0.83534 0.19033 0.0
C664 C 0.76972 0.88163 0.19688 0.0
C665 C 0.68104 0.34031 0.9323 0.0
C666 C 0.65119 0.37499 0.94942 0.0
C667 C 0.72807 0.34799 0.92728 0.0
C668 C 0.7472 0.39047 0.93967 0.0
H669 H 0.66799 0.30717 0.9212 0.0
H670 H 0.74955 0.32026 0.91406 0.0
S671 S 0.68479 0.4926 0.98651 0.0
N672 N 0.64465 0.45334 0.97935 0.0
N673 N 0.73323 0.46785 0.9698 0.0
C674 C 0.71808 0.42532 0.95745 0.0
C675 C 0.67009 0.41754 0.96248 0.0
C676 C 0.86907 0.68155 0.75928 0.0
C677 C 0.83426 0.66612 0.72727 0.0
C678 C 0.88009 0.72799 0.76203 0.0
C679 C 0.85595 0.7604 0.73378 0.0
H680 H 0.88971 0.65749 0.78025 0.0
H681 H 0.90856 0.73851 0.78534 0.0
S682 S 0.75977 0.73924 0.64738 0.0
N683 N 0.77418 0.68819 0.66841 0.0
N684 N 0.7943 0.77555 0.67578 0.0
C685 C 0.81915 0.7463 0.70441 0.0
C686 C 0.80838 0.69902 0.70064 0.0
C687 C 0.91055 0.19789 0.48338 0.0
C688 C 0.92787 0.17671 0.4408 0.0
C689 C 0.86829 0.18468 0.5029 0.0
C690 C 0.84188 0.15045 0.47996 0.0
H691 H 0.92873 0.22606 0.50062 0.0
H692 H 0.8552 0.20293 0.53466 0.0
S693 S 0.87508 0.07901 0.37308 0.0
N694 N 0.91799 0.11517 0.38059 0.0
N695 N 0.83784 0.09193 0.41651 0.0
C696 C 0.85989 0.12716 0.43932 0.0
C697 C 0.90319 0.13985 0.41997 0.0
C698 C 0.21871 0.33836 0.70834 0.0
C699 C 0.17149 0.3396 0.71856 0.0
C700 C 0.24356 0.37842 0.70106 0.0
C701 C 0.22188 0.42148 0.70173 0.0
H702 H 0.23683 0.30608 0.70532 0.0
H703 H 0.27982 0.37525 0.69302 0.0
S704 S 0.09739 0.44304 0.7203 0.0
N705 N 0.10318 0.38707 0.72608 0.0
N706 N 0.14948 0.46283 0.7103 0.0
C707 C 0.17433 0.42334 0.71104 0.0
C708 C 0.14919 0.38231 0.71967 0.0
C709 C 0.18431 0.84846 0.47303 0.0
C710 C 0.17491 0.80898 0.44521 0.0
C711 C 0.22627 0.87088 0.469 0.0
C712 C 0.26038 0.85473 0.43684 0.0
H713 H 0.15831 0.86325 0.49665 0.0
H714 H 0.23148 0.9017 0.4906 0.0
S715 S 0.25399 0.75049 0.3585 0.0
N716 N 0.20395 0.75286 0.38648 0.0
N717 N 0.28317 0.79506 0.37902 0.0
C718 C 0.25224 0.81408 0.41034 0.0
C719 C 0.20948 0.79102 0.4147 0.0
C720 C 0.21828 0.91908 0.24913 0.0
C721 C 0.1967 0.95238 0.2181 0.0
C722 C 0.19344 0.88587 0.27904 0.0
C723 C 0.14403 0.88185 0.28258 0.0
H724 H 0.2554 0.9172 0.24921 0.0
H725 H 0.21407 0.86023 0.29772 0.0
S726 S 0.06807 0.96273 0.21328 0.0
N727 N 0.11985 0.97965 0.19715 0.0
N728 N 0.0756 0.91891 0.25084 0.0
C729 C 0.12209 0.91611 0.25305 0.0
C730 C 0.14726 0.95018 0.22246 0.0
C731 C 1.03454 0.73502 0.90718 0.0
C732 C 0.08271 0.74161 0.91574 0.0
C733 C 1.00485 0.76642 0.87981 0.0
C734 C 1.01939 0.80853 0.85773 0.0
H735 H 1.0186 0.70539 0.92361 0.0
H736 H 0.96846 0.75893 0.87923 0.0
S737 S 0.14117 0.84747 0.87218 0.0
N738 N 0.14239 0.79706 0.89965 0.0
N739 N 0.08799 0.85508 0.852 0.0
C740 C 0.06766 0.81566 0.86643 0.0
C741 C 0.09832 0.78313 0.89358 0.0
C742 C 0.88874 0.18419 0.28512 0.0
C743 C 0.93678 0.19392 0.27835 0.0
C744 C 0.86198 0.15141 0.25613 0.0
C745 C 0.88012 0.12547 0.21595 0.0
H746 H 0.87035 0.20446 0.31203 0.0
H747 H 0.82605 0.14731 0.26491 0.0
S748 S 1.00303 0.13618 0.179 0.0
N749 N 0.99937 0.17266 0.22531 0.0
N750 N 0.95161 0.11341 0.17234 0.0
C751 C 0.92793 0.13468 0.20874 0.0
C752 C 0.95494 0.16774 0.23862 0.0
C753 C 1.00579 0.2654 0.84765 0.0
C754 C 0.05527 0.26463 0.84581 0.0
C755 C 0.97823 0.29916 0.87486 0.0
C756 C 0.99715 0.33451 0.90571 0.0
H757 H 0.98759 0.23771 0.82964 0.0
H758 H 0.94127 0.29545 0.87391 0.0
S759 S 0.12435 0.34852 0.91904 0.0
N760 N 0.12033 0.30487 0.88054 0.0
N761 N 0.07119 0.36383 0.93216 0.0
C762 C 0.04641 0.33369 0.90472 0.0
C763 C 0.07412 0.30062 0.87553 0.0
C764 C 0.26801 0.50277 0.10584 0.0
C765 C 0.26807 0.55207 0.10649 0.0
C766 C 0.30121 0.47376 0.13221 0.0
C767 C 0.33685 0.49101 0.16392 0.0
H768 H 0.24011 0.48585 0.08663 0.0
H769 H 0.29695 0.43702 0.12976 0.0
S770 S 0.35169 0.61665 0.18499 0.0
N771 N 0.30796 0.61488 0.14604 0.0
N772 N 0.36748 0.56299 0.19401 0.0
C773 C 0.33707 0.54001 0.16505 0.0
C774 C 0.30401 0.56921 0.13762 0.0
C775 C 0.65533 0.95691 1.00103 0.0
C776 C 0.68622 0.93588 1.03562 0.0
C777 C 0.62148 0.93223 0.97109 0.0
C778 C 0.61595 0.88323 0.97003 0.0
H779 H 0.65884 0.99329 0.99472 0.0
H780 H 0.60027 0.95242 0.94648 0.0
S781 S 0.68784 0.80837 1.05108 0.0
N782 N 0.7069 0.86008 0.06487 0.0
N783 N 0.64668 0.8154 1.00956 0.0
C784 C 0.64615 0.86161 1.00458 0.0
C785 C 0.67975 0.88693 1.03605 0.0
C786 C 0.74775 0.53261 0.1605 0.0
C787 C 0.74528 0.58156 0.15907 0.0
C788 C 0.77954 0.50478 0.13211 0.0
C789 C 0.81367 0.52218 0.09936 0.0
H790 H 0.72513 0.5149 0.18542 0.0
H791 H 0.77949 0.46827 0.13904 0.0
S792 S 0.82784 0.64862 0.08359 0.0
N793 N 0.78346 0.64593 0.12104 0.0
N794 N 0.84337 0.59519 0.07174 0.0
C795 C 0.81206 0.57138 0.09792 0.0
C796 C 0.7785 0.60002 0.12596 0.0
C797 C 0.40951 0.12606 0.99809 0.0
C798 C 0.37767 0.1476 1.03107 0.0
C799 C 0.44281 0.15053 0.96738 0.0
C800 C 0.44788 0.19971 0.96502 0.0
H801 H 0.40742 0.08928 0.99396 0.0
H802 H 0.46419 0.12992 0.9435 0.0
S803 S 0.37528 0.2756 1.04369 0.0
N804 N 0.35655 0.22408 1.05805 0.0
N805 N 0.41648 0.26792 1.00302 0.0
C806 C 0.41738 0.22161 0.99883 0.0
C807 C 0.38383 0.19669 1.03021 0.0
C808 C 0.67927 0.39568 0.77795 0.0
C809 C 0.62998 0.3904 0.77606 0.0
C810 C 0.70585 0.42812 0.7489 0.0
C811 C 0.68621 0.45876 0.71356 0.0
H812 H 0.69859 0.37156 0.80019 0.0
H813 H 0.74284 0.42758 0.75302 0.0
S814 S 0.55878 0.46346 0.69256 0.0
N815 N 0.56401 0.42257 0.73403 0.0
N816 N 0.61128 0.48195 0.68187 0.0
C817 C 0.63685 0.45523 0.71242 0.0
C818 C 0.61003 0.42213 0.74211 0.0
C819 C 0.50271 0.26334 0.3799 0.0
C820 C 0.52103 0.30056 0.35207 0.0
C821 C 0.53002 0.22969 0.4066 0.0
C822 C 0.5792 0.22877 0.40855 0.0
H823 H 0.46581 0.26184 0.3842 0.0
H824 H 0.51163 0.20436 0.42764 0.0
S825 S 0.6479 0.32004 0.34798 0.0
N826 N 0.59464 0.33488 0.33351 0.0
N827 N 0.64453 0.27228 0.38019 0.0
C828 C 0.5985 0.26545 0.38079 0.0
C829 C 0.57038 0.30051 0.35425 0.0
C830 C 0.42646 0.63922 0.70721 0.0
C831 C 0.37867 0.62815 0.71283 0.0
C832 C 0.45132 0.67326 0.73645 0.0
C833 C 0.43208 0.6989 0.77642 0.0
H834 H 0.44511 0.62259 0.67778 0.0
H835 H 0.48597 0.68141 0.72537 0.0
S836 S 0.3082 0.68542 0.8095 0.0
N837 N 0.31389 0.64807 0.76411 0.0
N838 N 0.35905 0.70937 0.81744 0.0
C839 C 0.38449 0.68728 0.78303 0.0
C840 C 0.35883 0.65319 0.75266 0.0
C841 C 0.504 0.7621 0.34932 0.0
C842 C 0.55317 0.76348 0.34443 0.0
C843 C 0.47634 0.79652 0.37497 0.0
C844 C 0.49513 0.83516 0.40064 0.0
H845 H 0.48636 0.73212 0.3354 0.0
H846 H 0.43968 0.79097 0.3771 0.0
S847 S 0.62188 0.85586 0.40474 0.0
N848 N 0.61806 0.80883 0.37112 0.0
N849 N 0.5687 0.87047 0.41874 0.0
C850 C 0.54415 0.83696 0.39612 0.0
C851 C 0.57191 0.80258 0.36902 0.0
C852 C 0.76952 0.97909 0.67768 0.0
C853 C 0.81736 0.97569 0.66799 0.0
C854 C 0.7377 1.00712 0.65019 0.0
C855 C 0.74935 0.0368 0.6102 0.0
H856 H 0.75594 0.96021 0.70853 0.0
H857 H 0.7026 1.00734 0.66308 0.0
S858 S 0.87015 0.03963 0.5638 0.0
N859 N 0.87409 1.00329 0.61018 0.0
N860 N 0.81583 0.05618 0.5607 0.0
C861 C 0.79719 1.03242 0.59817 0.0
C862 C 0.83008 1.00244 0.626 0.0
C863 C 0.19033 0.38698 0.52488 0.0
C864 C 0.19218 0.43622 0.53043 0.0
C865 C 0.15646 0.36157 0.4961 0.0
C866 C 0.11999 0.38243 0.46893 0.0
H867 H 0.21835 0.36717 0.54049 0.0
H868 H 0.1605 0.32478 0.49353 0.0
S869 S 0.10081 0.5095 0.47409 0.0
N870 N 0.14832 0.50341 0.50715 0.0
N871 N 0.08574 0.45764 0.45579 0.0
C872 C 0.1192 0.43143 0.47649 0.0
C873 C 0.15415 0.45733 0.50582 0.0
C874 C 0.2742 0.0958 0.62091 0.0
C875 C 0.24056 0.07691 0.65335 0.0
C876 C 0.3074 0.06839 0.59295 0.0
C877 C 0.30916 1.01907 0.59208 0.0
H878 H 0.27702 0.1327 0.61918 0.0
H879 H 0.33406 0.08664 0.57371 0.0
S880 S 0.23048 0.9503 0.67051 0.0
N881 N 0.21399 1.00329 0.6825 0.0
N882 N 0.27223 0.95423 0.63003 0.0
C883 C 0.27481 1.00023 0.62348 0.0
C884 C 0.24229 1.02786 0.65324 0.0
C885 C 0.94449 0.64527 0.45803 0.0
C886 C 0.95145 0.69377 0.46319 0.0
C887 C 0.91131 0.61856 0.48565 0.0
C888 C 0.88188 0.63653 0.52314 0.0
H889 H 0.9641 0.62721 0.43035 0.0
H890 H 0.90677 0.5831 0.47495 0.0
S891 S 0.88339 0.76159 0.55412 0.0
N892 N 0.92359 0.75789 0.51163 0.0
N893 N 0.86315 0.70929 0.56155 0.0
C894 C 0.8891 0.68497 0.52938 0.0
C895 C 0.92281 0.7125 0.5009 0.0
C896 C 0.20096 0.15791 0.90413 0.0
C897 C 0.15464 0.14707 0.90765 0.0
C898 C 0.23151 0.14997 0.94255 0.0
C899 C 0.21745 0.13283 0.98874 0.0
H900 H 0.21407 0.17374 0.87159 0.0
H901 H 0.26692 0.15848 0.9351 0.0
S902 S 0.09594 0.10528 1.01879 0.0
N903 N 0.09375 0.12146 0.96076 0.0
N904 N 0.1505 0.10881 1.03516 0.0
C905 C 0.17004 0.12327 0.99328 0.0
C906 C 0.13884 0.13037 0.95267 0.0
C907 C 0.12266 0.65039 0.20063 0.0
C908 C 0.15935 0.65752 0.16861 0.0
C909 C 0.11466 0.68087 0.23982 0.0
C910 C 0.1417 0.71993 0.24733 0.0
H911 H 0.10051 0.62098 0.19577 0.0
H912 H 0.08859 0.6727 0.26508 0.0
S913 S 0.25238 0.74254 0.18448 0.0
N914 N 0.23072 0.69785 0.15538 0.0
N915 N 0.21456 0.75602 0.22706 0.0
C916 C 0.18189 0.7236 0.2189 0.0
C917 C 0.19061 0.69239 0.17982 0.0
C918 C 0.90243 0.95688 0.93935 0.0
C919 C 0.90704 0.9104 0.92796 0.0
C920 C 0.87295 0.97106 0.97692 0.0
C921 C 0.84891 0.93921 1.00541 0.0
H922 H 0.91988 0.98241 0.91759 0.0
H923 H 0.86568 1.00698 0.97993 0.0
S924 S 0.84829 0.8134 0.98722 0.0
N925 N 0.88545 0.83233 0.94663 0.0
N926 N 0.83022 0.85907 1.01743 0.0
C927 C 0.85458 0.89244 0.99481 0.0
C928 C 0.88395 0.87802 0.95628 0.0
C929 C 0.95395 0.42717 0.20044 0.0
C930 C 0.92345 0.41683 0.16165 0.0
C931 C 0.95975 0.39681 0.24037 0.0
C932 C 0.93699 0.35461 0.24192 0.0
H933 H 0.97257 0.4592 0.20046 0.0
H934 H 0.98047 0.40727 0.27069 0.0
S935 S 0.83775 0.3235 0.16103 0.0
N936 N 0.85882 0.37039 0.13658 0.0
N937 N 0.87099 0.31266 0.20892 0.0
C938 C 0.90155 0.34776 0.20668 0.0
C939 C 0.89502 0.37875 0.167 0.0
C940 C 0.42578 0.44951 0.44819 0.0
C941 C 0.41694 0.41325 0.41562 0.0
C942 C 0.39464 0.46034 0.48596 0.0
C943 C 0.35337 0.43653 0.49195 0.0
H944 H 0.45699 0.46926 0.4448 0.0
H945 H 0.40386 0.48617 0.51126 0.0
S946 S 0.32333 0.32847 0.42581 0.0
N947 N 0.3707 0.34621 0.39923 0.0
N948 N 0.312 0.36701 0.46852 0.0
C949 C 0.34728 0.39686 0.4625 0.0
C950 C 0.37891 0.38551 0.42462 0.0
C951 C 0.43119 0.87527 0.64874 0.0
C952 C 0.42688 0.92218 0.65711 0.0
C953 C 0.44159 0.84478 0.68646 0.0
C954 C 0.4429 0.85859 0.73621 0.0
H955 H 0.42352 0.86108 0.61327 0.0
H956 H 0.44597 0.80912 0.67625 0.0
S957 S 0.40889 0.97428 0.77963 0.0
N958 N 0.41421 0.98018 0.71974 0.0
N959 N 0.42091 0.92 0.79127 0.0
C960 C 0.43126 0.90441 0.74593 0.0
C961 C 0.42591 0.93676 0.70658 0.0
C962 C 0.66387 0.60391 0.42018 0.0
C963 C 0.65259 0.65004 0.41428 0.0
C964 C 0.69856 0.59077 0.45327 0.0
C965 C 0.7194 0.62243 0.48551 0.0
H966 H 0.64871 0.5784 0.39607 0.0
H967 H 0.71185 0.5566 0.44951 0.0
S968 S 0.70349 0.74826 0.48218 0.0
N969 N 0.66707 0.72849 0.44043 0.0
N970 N 0.72819 0.70267 0.50676 0.0
C971 C 0.70706 0.66869 0.48092 0.0
C972 C 0.67394 0.68262 0.44506 0.0
C973 C 0.62361 0.15183 0.70274 0.0
C974 C 0.65093 0.16201 0.66188 0.0
C975 C 0.61401 0.18553 0.73849 0.0
C976 C 0.62977 0.23055 0.73404 0.0
H977 H 0.61021 0.11759 0.70746 0.0
H978 H 0.59577 0.17583 0.77039 0.0
S979 S 0.71888 0.2671 0.64423 0.0
N980 N 0.70524 0.21477 0.62708 0.0
N981 N 0.68609 0.27845 0.69187 0.0
C982 C 0.66194 0.23886 0.69603 0.0
C983 C 0.67234 0.20458 0.66045 0.0
C984 C 0.22921 0.88915 0.98145 0.0
C985 C 0.19552 0.86289 1.00497 0.0
C986 C 0.22673 0.93683 0.98067 0.0
C987 C 0.19001 0.96043 1.00246 0.0
H988 H 0.25969 0.87298 0.96667 0.0
H989 H 0.25602 0.95527 0.96689 0.0
S990 S 0.0871 0.90838 1.05821 0.0
N991 N 0.12032 0.86438 1.04426 0.0
N992 N 0.11485 0.95423 1.03979 0.0
C993 C 0.15316 0.9347 1.02049 0.0
C994 C 0.15603 0.88584 1.02243 0.0
C995 C 0.05352 0.8085 0.13516 0.0
C996 C 1.03166 0.76999 0.11451 0.0
C997 C 1.02952 0.84963 0.14299 0.0
C998 C 0.98312 0.85481 0.12908 0.0
H999 H 0.08959 0.80711 0.14517 0.0
H1000 H 0.04763 0.87781 0.16005 0.0
S1001 S 0.90781 0.76231 0.0821 0.0
N1002 N 0.9589 0.73806 0.08658 0.0
N1003 N 0.91489 0.81618 0.09904 0.0
C1004 C 0.96051 0.81638 0.10956 0.0
C1005 C 0.98449 0.77388 0.10297 0.0
C1006 C 0.85059 0.13854 0.98497 0.0
C1007 C 0.88432 0.11652 1.01351 0.0
C1008 C 0.85195 0.18569 0.97711 0.0
C1009 C 0.88671 0.21288 0.99837 0.0
H1010 H 0.82037 0.12016 0.97295 0.0
H1011 H 0.82291 0.20138 0.95843 0.0
S1012 S 0.99226 0.16815 1.05969 0.0
N1013 N 0.96014 0.12235 1.05056 0.0
N1014 N 0.96263 0.21166 1.03732 0.0
C1015 C 0.92475 0.18997 1.01978 0.0
C1016 C 0.92353 0.14144 1.02701 0.0
C1017 C 0.0429 0.2887 0.14572 0.0
C1018 C 0.05826 0.31561 0.10679 0.0
C1019 C 0.06711 0.24972 0.16061 0.0
C1020 C 0.10695 0.23394 0.13611 0.0
H1021 H 1.01153 0.29758 0.16482 0.0
H1022 H 0.0534 0.23154 0.19156 0.0
S1023 S 0.16382 0.29551 1.03364 0.0
N1024 N 0.11808 0.32685 1.04605 0.0
N1025 N 0.16244 0.25223 0.07237 0.0
C1026 C 0.12363 0.26172 0.0978 0.0
C1027 C 0.09954 0.30266 0.08358 0.0
C1028 C 0.29739 0.58728 0.34089 0.0
C1029 C 0.30389 0.54075 0.35354 0.0
C1030 C 0.2549 0.6095 0.34783 0.0
C1031 C 0.21743 0.58603 0.36777 0.0
H1032 H 0.32531 0.6068 0.32544 0.0
H1033 H 0.25185 0.64552 0.33908 0.0
S1034 S 0.21455 0.46317 0.40211 0.0
N1035 N 0.26764 0.47159 0.38386 0.0
N1036 N 0.18861 0.51331 0.39729 0.0
C1037 C 0.22323 0.53949 0.37968 0.0
C1038 C 0.26616 0.51687 0.3725 0.0
C1039 C 0.64769 0.86088 0.81727 0.0
C1040 C 0.68214 0.88964 0.83683 0.0
C1041 C 0.60305 0.87741 0.80755 0.0
C1042 C 0.59161 0.92349 0.81605 0.0
H1043 H 0.65574 0.8258 0.80762 0.0
H1044 H 0.57784 0.85455 0.79171 0.0
S1045 S 0.66574 1.01104 0.87395 0.0
N1046 N 0.69882 0.9651 0.87087 0.0
N1047 N 0.61607 0.9964 0.84924 0.0
C1048 C 0.62484 0.95204 0.83731 0.0
C1049 C 0.66979 0.9351 0.84854 0.0
C1050 C 0.81684 0.5428 0.35386 0.0
C1051 C 0.77184 0.52585 0.35895 0.0
C1052 C 0.85536 0.51482 0.36315 0.0
C1053 C 0.85002 0.46932 0.37867 0.0
H1054 H 0.82232 0.57752 0.34132 0.0
H1055 H 0.88941 0.52907 0.35907 0.0
S1056 S 0.73983 0.40935 0.39955 0.0
N1057 N 0.72441 0.46107 0.3812 0.0
N1058 N 0.79653 0.40902 0.4 0.0
C1059 C 0.80527 0.4524 0.38479 0.0
C1060 C 0.76624 0.4805 0.37455 0.0
C1061 C 0.43185 0.14902 0.77473 0.0
C1062 C 0.45646 0.17859 0.74374 0.0
C1063 C 0.3838 0.14996 0.77523 0.0
C1064 C 0.35937 0.18022 0.74461 0.0
H1065 H 0.44946 0.12891 0.80254 0.0
H1066 H 0.3661 0.13065 0.80319 0.0
S1067 S 0.40659 0.25244 0.64606 0.0
N1068 N 0.45218 0.22965 0.67315 0.0
N1069 N 0.36174 0.23181 0.67516 0.0
C1070 C 0.38309 0.20434 0.70857 0.0
C1071 C 0.43185 0.20316 0.70764 0.0
C1072 C 0.64986 0.38493 0.48598 0.0
C1073 C 0.68032 0.35777 0.51382 0.0
C1074 C 0.65083 0.43292 0.49066 0.0
C1075 C 0.68204 0.45373 0.52338 0.0
H1076 H 0.6276 0.36933 0.45861 0.0
H1077 H 0.62969 0.45366 0.46643 0.0
S1078 S 0.7649 0.39607 0.60732 0.0
N1079 N 0.73901 0.3542 0.57742 0.0
N1080 N 0.74114 0.44345 0.58614 0.0
C1081 C 0.70995 0.42622 0.55358 0.0
C1082 C 0.70903 0.37825 0.54876 0.0
C1083 C 0.5133 0.33828 0.64827 0.0
C1084 C 0.47782 0.35677 0.61858 0.0
C1085 C 0.53567 0.29722 0.63592 0.0
C1086 C 0.52268 0.27213 0.59395 0.0
H1087 H 0.52342 0.35525 0.68206 0.0
H1088 H 0.56247 0.28444 0.66016 0.0
S1089 S 0.43286 0.3053 0.50281 0.0
N1090 N 0.43152 0.34653 0.54445 0.0
N1091 N 0.4736 0.26971 0.52107 0.0
C1092 C 0.4881 0.2906 0.56315 0.0
C1093 C 0.46565 0.33275 0.57546 0.0
C1094 C 0.36347 0.64359 0.46227 0.0
C1095 C 0.39385 0.61971 0.49359 0.0
C1096 C 0.36333 0.69139 0.46102 0.0
C1097 C 0.39406 0.71675 0.49028 0.0
H1098 H 0.33647 0.6257 0.44251 0.0
H1099 H 0.33634 0.70862 0.44046 0.0
S1100 S 0.48904 0.67026 0.56732 0.0
N1101 N 0.4622 0.62464 0.54572 0.0
N1102 N 0.46153 0.71466 0.54373 0.0
C1103 C 0.42907 0.69328 0.51581 0.0
C1104 C 0.42918 0.6445 0.51719 0.0
C1105 C 0.58708 0.78036 0.55137 0.0
C1106 C 0.56368 0.80872 0.58487 0.0
C1107 C 0.60896 0.74001 0.56685 0.0
C1108 C 0.60899 0.72673 0.6166 0.0
H1109 H 0.58795 0.78901 0.51263 0.0
H1110 H 0.62653 0.71978 0.53957 0.0
S1111 S 0.55075 0.78866 0.71829 0.0
N1112 N 0.54104 0.82076 0.66945 0.0
N1113 N 0.58093 0.74448 0.69877 0.0
C1114 C 0.58459 0.75449 0.65016 0.0
C1115 C 0.56236 0.79555 0.63428 0.0
C1116 C 0.78162 0.08571 0.81334 0.0
C1117 C 0.79908 0.05476 0.84892 0.0
C1118 C 0.74525 0.11605 0.82402 0.0
C1119 C 0.72571 0.11739 0.87109 0.0
H1120 H 0.79554 0.08603 0.77649 0.0
H1121 H 0.73303 0.13914 0.79564 0.0
S1122 S 0.75594 0.04311 0.97602 0.0
N1123 N 0.79097 1.0262 0.93208 0.0
N1124 N 0.72513 0.08519 0.95283 0.0
C1125 C 0.74286 0.08722 0.90683 0.0
C1126 C 0.77868 0.05534 0.89558 0.0
C1127 C 0.1888 0.34374 0.22258 0.0
C1128 C 0.2152 0.37943 0.24307 0.0
C1129 C 0.14102 0.34549 0.22214 0.0
C1130 C 0.11741 0.38313 0.24215 0.0
H1131 H 0.20489 0.31224 0.21049 0.0
H1132 H 0.12287 0.31506 0.21049 0.0
S1133 S 0.16895 0.49375 0.27912 0.0
N1134 N 0.21338 0.45966 0.26955 0.0
N1135 N 0.12296 0.4625 0.26797 0.0
C1136 C 0.14286 0.42223 0.25459 0.0
C1137 C 0.19199 0.42056 0.25525 0.0
C1138 C 0.25254 0.96478 0.85846 0.0
C1139 C 0.25853 1.01256 0.85909 0.0
C1140 C 0.28734 0.93491 0.87454 0.0
C1141 C 0.32991 0.95117 0.89231 0.0
H1142 H 0.22078 0.95006 0.84485 0.0
H1143 H 0.28081 0.89845 0.87245 0.0
S1144 S 0.36405 0.07327 0.89927 0.0
N1145 N 0.31113 0.07483 0.87731 0.0
N1146 N 0.37619 1.01871 0.9087 0.0
C1147 C 0.33651 0.99893 0.8932 0.0
C1148 C 0.3009 1.02952 0.8766 0.0
C1149 C 0.8793 0.66997 0.26376 0.0
C1150 C 0.8556 0.71181 0.25842 0.0
C1151 C 0.92714 0.66786 0.25899 0.0
C1152 C 0.95276 0.70744 0.24888 0.0
H1153 H 0.86168 0.63947 0.27578 0.0
H1154 H 0.94441 0.63579 0.26706 0.0
S1155 S 0.90542 0.8236 0.22595 0.0
N1156 N 0.86013 0.79192 0.23675 0.0
N1157 N 0.94992 0.78863 0.22871 0.0
C1158 C 0.92881 0.74837 0.23877 0.0
C1159 C 0.88024 0.75036 0.24352 0.0
loop_
_geom_bond_atom_site_label_1
_geom_bond_atom_site_label_2
_geom_bond_distance
_geom_bond_site_symmetry_2
_ccdc_geom_bond_type
Zn0 N4 2.020 . S
Zn0 O8 2.019 . S
Zn0 N10 2.119 . S
Zn0 O18 1.975 . S
C1 N2 1.334 . S
C1 N5 1.336 1_556 S
N2 C1 1.334 . S
N2 C3 1.334 1_556 S
C3 N2 1.334 1_554 S
C3 N4 1.336 . S
N4 Zn0 2.020 . S
N4 C3 1.336 . S
N4 N5 1.354 . S
N5 C1 1.336 1_554 S
N5 N4 1.354 . S
N5 Zn9 2.020 . S
C6 O7 1.244 . S
C6 O30 1.257 1_565 S
O7 C6 1.244 . S
O8 Zn0 2.019 . S
O8 C28 1.257 . S
Zn9 N5 2.020 . S
Zn9 O16 1.975 . S
Zn9 N25 2.119 . S
Zn9 O30 2.019 . S
N10 Zn0 2.119 . S
N10 C12 1.334 . S
N10 C13 1.328 . S
C11 C12 1.391 1_565 S
C11 N14 1.329 . S
C11 H32 0.930 . S
C12 N10 1.334 . S
C12 C11 1.391 1_545 S
C12 H19 0.930 . S
C13 N10 1.328 . S
C13 C15 1.392 . S
C13 H20 0.930 . S
N14 C11 1.329 . S
N14 C15 1.331 1_565 S
C15 C13 1.392 . S
C15 N14 1.331 1_545 S
O16 Zn9 1.975 . S
O16 C17 1.252 . S
C17 O16 1.252 . S
C17 O18 1.252 . S
O18 Zn0 1.975 . S
O18 C17 1.252 . S
H19 C12 0.930 . S
H20 C13 0.930 . S
C21 C22 1.392 . S
C21 N25 1.328 . S
C21 H27 0.930 . S
C22 C21 1.392 . S
C22 N26 1.331 . S
C23 C24 1.391 . S
C23 N26 1.329 . S
C23 H33 0.930 . S
C24 C23 1.391 . S
C24 N25 1.334 . S
C24 H31 0.930 . S
N25 Zn9 2.119 . S
N25 C21 1.328 . S
N25 C24 1.334 . S
N26 C22 1.331 . S
N26 C23 1.329 . S
H27 C21 0.930 . S
C28 O8 1.257 . S
C28 O29 1.244 . S
O29 C28 1.244 . S
O30 C6 1.257 1_545 S
O30 Zn9 2.019 . S
H31 C24 0.930 . S
H32 C11 0.930 . S
H33 C23 0.930 . S
Zn34 N38 2.020 . S
Zn34 O42 2.019 . S
Zn34 N44 2.119 . S
Zn34 O52 1.975 . S
C35 N36 1.334 . S
C35 N39 1.336 1_554 S
N36 C35 1.334 . S
N36 C37 1.334 1_554 S
C37 N36 1.334 1_556 S
C37 N38 1.336 . S
N38 Zn34 2.020 . S
N38 C37 1.336 . S
N38 N39 1.354 . S
N39 C35 1.336 1_556 S
N39 N38 1.354 . S
N39 Zn43 2.020 . S
C40 O41 1.244 . S
C40 O64 1.257 1_655 S
O41 C40 1.244 . S
O42 Zn34 2.019 . S
O42 C62 1.257 . S
Zn43 N39 2.020 . S
Zn43 O50 1.975 . S
Zn43 N59 2.119 . S
Zn43 O64 2.019 . S
N44 Zn34 2.119 . S
N44 C46 1.334 . S
N44 C47 1.328 . S
C45 C46 1.391 1_655 S
C45 N48 1.329 . S
C45 H66 0.930 . S
C46 N44 1.334 . S
C46 C45 1.391 1_455 S
C46 H53 0.930 . S
C47 N44 1.328 . S
C47 C49 1.392 . S
C47 H54 0.930 . S
N48 C45 1.329 . S
N48 C49 1.331 1_655 S
C49 C47 1.392 . S
C49 N48 1.331 1_455 S
O50 Zn43 1.975 . S
O50 C51 1.252 . S
C51 O50 1.252 . S
C51 O52 1.252 . S
O52 Zn34 1.975 . S
O52 C51 1.252 . S
H53 C46 0.930 . S
H54 C47 0.930 . S
C55 C56 1.392 . S
C55 N59 1.328 . S
C55 H61 0.930 . S
C56 C55 1.392 . S
C56 N60 1.331 . S
C57 C58 1.391 . S
C57 N60 1.329 . S
C57 H67 0.930 . S
C58 C57 1.391 . S
C58 N59 1.334 . S
C58 H65 0.930 . S
N59 Zn43 2.119 . S
N59 C55 1.328 . S
N59 C58 1.334 . S
N60 C56 1.331 . S
N60 C57 1.329 . S
H61 C55 0.930 . S
C62 O42 1.257 . S
C62 O63 1.244 . S
O63 C62 1.244 . S
O64 C40 1.257 1_455 S
O64 Zn43 2.019 . S
H65 C58 0.930 . S
H66 C45 0.930 . S
H67 C57 0.930 . S
Zn68 N72 2.020 . S
Zn68 O76 2.019 . S
Zn68 N78 2.119 . S
Zn68 O86 1.975 . S
C69 N70 1.334 1_554 S
C69 N73 1.336 . S
N70 C69 1.334 1_556 S
N70 C71 1.334 . S
C71 N70 1.334 . S
C71 N72 1.336 1_556 S
N72 Zn68 2.020 . S
N72 C71 1.336 1_554 S
N72 N73 1.354 . S
N73 C69 1.336 . S
N73 N72 1.354 . S
N73 Zn77 2.020 . S
C74 O75 1.244 . S
C74 O98 1.257 . S
O75 C74 1.244 . S
O76 Zn68 2.019 . S
O76 C96 1.257 1_565 S
Zn77 N73 2.020 . S
Zn77 O84 1.975 . S
Zn77 N93 2.119 . S
Zn77 O98 2.019 . S
N78 Zn68 2.119 . S
N78 C80 1.334 . S
N78 C81 1.328 . S
C79 C80 1.391 . S
C79 N82 1.329 . S
C79 H100 0.930 . S
C80 N78 1.334 . S
C80 C79 1.391 . S
C80 H87 0.930 . S
C81 N78 1.328 . S
C81 C83 1.392 . S
C81 H88 0.930 . S
N82 C79 1.329 . S
N82 C83 1.331 . S
C83 C81 1.392 . S
C83 N82 1.331 . S
O84 Zn77 1.975 . S
O84 C85 1.252 . S
C85 O84 1.252 . S
C85 O86 1.252 . S
O86 Zn68 1.975 . S
O86 C85 1.252 . S
H87 C80 0.930 . S
H88 C81 0.930 . S
C89 C90 1.392 . S
C89 N93 1.328 . S
C89 H95 0.930 . S
C90 C89 1.392 . S
C90 N94 1.331 1_565 S
C91 C92 1.391 1_545 S
C91 N94 1.329 . S
C91 H101 0.930 . S
C92 C91 1.391 1_565 S
C92 N93 1.334 . S
C92 H99 0.930 . S
N93 Zn77 2.119 . S
N93 C89 1.328 . S
N93 C92 1.334 . S
N94 C90 1.331 1_545 S
N94 C91 1.329 . S
H95 C89 0.930 . S
C96 O76 1.257 1_545 S
C96 O97 1.244 . S
O97 C96 1.244 . S
O98 C74 1.257 . S
O98 Zn77 2.019 . S
H99 C92 0.930 . S
H100 C79 0.930 . S
H101 C91 0.930 . S
Zn102 N106 2.020 . S
Zn102 O110 2.019 . S
Zn102 N112 2.119 . S
Zn102 O120 1.975 . S
C103 N104 1.334 . S
C103 N107 1.336 1_554 S
N104 C103 1.334 . S
N104 C105 1.334 1_554 S
C105 N104 1.334 1_556 S
C105 N106 1.336 . S
N106 Zn102 2.020 . S
N106 C105 1.336 . S
N106 N107 1.354 . S
N107 C103 1.336 1_556 S
N107 N106 1.354 . S
N107 Zn111 2.020 . S
C108 O109 1.244 . S
C108 O132 1.257 1_455 S
O109 C108 1.244 . S
O110 Zn102 2.019 . S
O110 C130 1.257 . S
Zn111 N107 2.020 . S
Zn111 O118 1.975 . S
Zn111 N127 2.119 . S
Zn111 O132 2.019 . S
N112 Zn102 2.119 . S
N112 C114 1.334 . S
N112 C115 1.328 . S
C113 C114 1.391 1_455 S
C113 N116 1.329 . S
C113 H134 0.930 . S
C114 N112 1.334 . S
C114 C113 1.391 1_655 S
C114 H121 0.930 . S
C115 N112 1.328 . S
C115 C117 1.392 . S
C115 H122 0.930 . S
N116 C113 1.329 . S
N116 C117 1.331 1_455 S
C117 C115 1.392 . S
C117 N116 1.331 1_655 S
O118 Zn111 1.975 . S
O118 C119 1.252 . S
C119 O118 1.252 . S
C119 O120 1.252 . S
O120 Zn102 1.975 . S
O120 C119 1.252 . S
H121 C114 0.930 . S
H122 C115 0.930 . S
C123 C124 1.392 . S
C123 N127 1.328 . S
C123 H129 0.930 . S
C124 C123 1.392 . S
C124 N128 1.331 . S
C125 C126 1.391 . S
C125 N128 1.329 . S
C125 H135 0.930 . S
C126 C125 1.391 . S
C126 N127 1.334 . S
C126 H133 0.930 . S
N127 Zn111 2.119 . S
N127 C123 1.328 . S
N127 C126 1.334 . S
N128 C124 1.331 . S
N128 C125 1.329 . S
H129 C123 0.930 . S
C130 O110 1.257 . S
C130 O131 1.244 . S
O131 C130 1.244 . S
O132 C108 1.257 1_655 S
O132 Zn111 2.019 . S
H133 C126 0.930 . S
H134 C113 0.930 . S
H135 C125 0.930 . S
Zn136 N140 2.020 . S
Zn136 O144 2.019 . S
Zn136 N146 2.119 . S
Zn136 O154 1.975 . S
C137 N138 1.334 . S
C137 N141 1.336 . S
N138 C137 1.334 . S
N138 C139 1.334 . S
C139 N138 1.334 . S
C139 N140 1.336 . S
N140 Zn136 2.020 . S
N140 C139 1.336 . S
N140 N141 1.354 . S
N141 C137 1.336 . S
N141 N140 1.354 . S
N141 Zn145 2.020 . S
C142 O143 1.244 . S
C142 O166 1.257 . S
O143 C142 1.244 . S
O144 Zn136 2.019 . S
O144 C164 1.257 . S
Zn145 N141 2.020 . S
Zn145 O152 1.975 . S
Zn145 N161 2.119 . S
Zn145 O166 2.019 . S
N146 Zn136 2.119 . S
N146 C148 1.334 . S
N146 C149 1.328 . S
C147 C148 1.391 . S
C147 N150 1.329 . S
C147 H168 0.930 . S
C148 N146 1.334 . S
C148 C147 1.391 . S
C148 H155 0.930 . S
C149 N146 1.328 . S
C149 C151 1.392 . S
C149 H156 0.930 . S
N150 C147 1.329 . S
N150 C151 1.331 . S
C151 C149 1.392 . S
C151 N150 1.331 . S
O152 Zn145 1.975 . S
O152 C153 1.252 . S
C153 O152 1.252 . S
C153 O154 1.252 . S
O154 Zn136 1.975 . S
O154 C153 1.252 . S
H155 C148 0.930 . S
H156 C149 0.930 . S
C157 C158 1.392 . S
C157 N161 1.328 . S
C157 H163 0.930 . S
C158 C157 1.392 . S
C158 N162 1.331 . S
C159 C160 1.391 . S
C159 N162 1.329 . S
C159 H169 0.930 . S
C160 C159 1.391 . S
C160 N161 1.334 . S
C160 H167 0.930 . S
N161 Zn145 2.119 . S
N161 C157 1.328 . S
N161 C160 1.334 . S
N162 C158 1.331 . S
N162 C159 1.329 . S
H163 C157 0.930 . S
C164 O144 1.257 . S
C164 O165 1.244 . S
O165 C164 1.244 . S
O166 C142 1.257 . S
O166 Zn145 2.019 . S
H167 C160 0.930 . S
H168 C147 0.930 . S
H169 C159 0.930 . S
Zn170 N174 2.020 . S
Zn170 O178 2.019 . S
Zn170 N180 2.119 . S
Zn170 O188 1.975 . S
C171 N172 1.334 . S
C171 N175 1.336 . S
N172 C171 1.334 . S
N172 C173 1.334 . S
C173 N172 1.334 . S
C173 N174 1.336 . S
N174 Zn170 2.020 . S
N174 C173 1.336 . S
N174 N175 1.354 . S
N175 C171 1.336 . S
N175 N174 1.354 . S
N175 Zn179 2.020 . S
C176 O177 1.244 . S
C176 O200 1.257 . S
O177 C176 1.244 . S
O178 Zn170 2.019 . S
O178 C198 1.257 . S
Zn179 N175 2.020 . S
Zn179 O186 1.975 . S
Zn179 N195 2.119 . S
Zn179 O200 2.019 . S
N180 Zn170 2.119 . S
N180 C182 1.334 . S
N180 C183 1.328 . S
C181 C182 1.391 . S
C181 N184 1.329 . S
C181 H202 0.930 . S
C182 N180 1.334 . S
C182 C181 1.391 . S
C182 H189 0.930 . S
C183 N180 1.328 . S
C183 C185 1.392 . S
C183 H190 0.930 . S
N184 C181 1.329 . S
N184 C185 1.331 . S
C185 C183 1.392 . S
C185 N184 1.331 . S
O186 Zn179 1.975 . S
O186 C187 1.252 . S
C187 O186 1.252 . S
C187 O188 1.252 . S
O188 Zn170 1.975 . S
O188 C187 1.252 . S
H189 C182 0.930 . S
H190 C183 0.930 . S
C191 C192 1.392 . S
C191 N195 1.328 . S
C191 H197 0.930 . S
C192 C191 1.392 . S
C192 N196 1.331 . S
C193 C194 1.391 . S
C193 N196 1.329 . S
C193 H203 0.930 . S
C194 C193 1.391 . S
C194 N195 1.334 . S
C194 H201 0.930 . S
N195 Zn179 2.119 . S
N195 C191 1.328 . S
N195 C194 1.334 . S
N196 C192 1.331 . S
N196 C193 1.329 . S
H197 C191 0.930 . S
C198 O178 1.257 . S
C198 O199 1.244 . S
O199 C198 1.244 . S
O200 C176 1.257 . S
O200 Zn179 2.019 . S
H201 C194 0.930 . S
H202 C181 0.930 . S
H203 C193 0.930 . S
Zn204 N208 2.020 . S
Zn204 O212 2.019 . S
Zn204 N214 2.119 . S
Zn204 O222 1.975 . S
C205 N206 1.334 . S
C205 N209 1.336 . S
N206 C205 1.334 . S
N206 C207 1.334 . S
C207 N206 1.334 . S
C207 N208 1.336 . S
N208 Zn204 2.020 . S
N208 C207 1.336 . S
N208 N209 1.354 . S
N209 C205 1.336 . S
N209 N208 1.354 . S
N209 Zn213 2.020 . S
C210 O211 1.244 . S
C210 O234 1.257 . S
O211 C210 1.244 . S
O212 Zn204 2.019 . S
O212 C232 1.257 . S
Zn213 N209 2.020 . S
Zn213 O220 1.975 . S
Zn213 N229 2.119 . S
Zn213 O234 2.019 . S
N214 Zn204 2.119 . S
N214 C216 1.334 . S
N214 C217 1.328 . S
C215 C216 1.391 . S
C215 N218 1.329 . S
C215 H236 0.930 . S
C216 N214 1.334 . S
C216 C215 1.391 . S
C216 H223 0.930 . S
C217 N214 1.328 . S
C217 C219 1.392 . S
C217 H224 0.930 . S
N218 C215 1.329 . S
N218 C219 1.331 . S
C219 C217 1.392 . S
C219 N218 1.331 . S
O220 Zn213 1.975 . S
O220 C221 1.252 . S
C221 O220 1.252 . S
C221 O222 1.252 . S
O222 Zn204 1.975 . S
O222 C221 1.252 . S
H223 C216 0.930 . S
H224 C217 0.930 . S
C225 C226 1.392 . S
C225 N229 1.328 . S
C225 H231 0.930 . S
C226 C225 1.392 . S
C226 N230 1.331 . S
C227 C228 1.391 . S
C227 N230 1.329 . S
C227 H237 0.930 . S
C228 C227 1.391 . S
C228 N229 1.334 . S
C228 H235 0.930 . S
N229 Zn213 2.119 . S
N229 C225 1.328 . S
N229 C228 1.334 . S
N230 C226 1.331 . S
N230 C227 1.329 . S
H231 C225 0.930 . S
C232 O212 1.257 . S
C232 O233 1.244 . S
O233 C232 1.244 . S
O234 C210 1.257 . S
O234 Zn213 2.019 . S
H235 C228 0.930 . S
H236 C215 0.930 . S
H237 C227 0.930 . S
Zn238 N242 2.020 . S
Zn238 O246 2.019 . S
Zn238 N248 2.119 . S
Zn238 O256 1.975 . S
C239 N240 1.334 . S
C239 N243 1.336 . S
N240 C239 1.334 . S
N240 C241 1.334 . S
C241 N240 1.334 . S
C241 N242 1.336 . S
N242 Zn238 2.020 . S
N242 C241 1.336 . S
N242 N243 1.354 . S
N243 C239 1.336 . S
N243 N242 1.354 . S
N243 Zn247 2.020 . S
C244 O245 1.244 . S
C244 O268 1.257 . S
O245 C244 1.244 . S
O246 Zn238 2.019 . S
O246 C266 1.257 . S
Zn247 N243 2.020 . S
Zn247 O254 1.975 . S
Zn247 N263 2.119 . S
Zn247 O268 2.019 . S
N248 Zn238 2.119 . S
N248 C250 1.334 . S
N248 C251 1.328 . S
C249 C250 1.391 . S
C249 N252 1.329 . S
C249 H270 0.930 . S
C250 N248 1.334 . S
C250 C249 1.391 . S
C250 H257 0.930 . S
C251 N248 1.328 . S
C251 C253 1.392 . S
C251 H258 0.930 . S
N252 C249 1.329 . S
N252 C253 1.331 . S
C253 C251 1.392 . S
C253 N252 1.331 . S
O254 Zn247 1.975 . S
O254 C255 1.252 . S
C255 O254 1.252 . S
C255 O256 1.252 . S
O256 Zn238 1.975 . S
O256 C255 1.252 . S
H257 C250 0.930 . S
H258 C251 0.930 . S
C259 C260 1.392 . S
C259 N263 1.328 . S
C259 H265 0.930 . S
C260 C259 1.392 . S
C260 N264 1.331 . S
C261 C262 1.391 . S
C261 N264 1.329 . S
C261 H271 0.930 . S
C262 C261 1.391 . S
C262 N263 1.334 . S
C262 H269 0.930 . S
N263 Zn247 2.119 . S
N263 C259 1.328 . S
N263 C262 1.334 . S
N264 C260 1.331 . S
N264 C261 1.329 . S
H265 C259 0.930 . S
C266 O246 1.257 . S
C266 O267 1.244 . S
O267 C266 1.244 . S
O268 C244 1.257 . S
O268 Zn247 2.019 . S
H269 C262 0.930 . S
H270 C249 0.930 . S
H271 C261 0.930 . S
Zn272 N276 2.020 . S
Zn272 O280 2.019 . S
Zn272 N282 2.119 . S
Zn272 O290 1.975 . S
C273 N274 1.334 . S
C273 N277 1.336 . S
N274 C273 1.334 . S
N274 C275 1.334 . S
C275 N274 1.334 . S
C275 N276 1.336 . S
N276 Zn272 2.020 . S
N276 C275 1.336 . S
N276 N277 1.354 . S
N277 C273 1.336 . S
N277 N276 1.354 . S
N277 Zn281 2.020 . S
C278 O279 1.244 . S
C278 O302 1.257 . S
O279 C278 1.244 . S
O280 Zn272 2.019 . S
O280 C300 1.257 . S
Zn281 N277 2.020 . S
Zn281 O288 1.975 . S
Zn281 N297 2.119 . S
Zn281 O302 2.019 . S
N282 Zn272 2.119 . S
N282 C284 1.334 . S
N282 C285 1.328 . S
C283 C284 1.391 . S
C283 N286 1.329 . S
C283 H304 0.930 . S
C284 N282 1.334 . S
C284 C283 1.391 . S
C284 H291 0.930 . S
C285 N282 1.328 . S
C285 C287 1.392 . S
C285 H292 0.930 . S
N286 C283 1.329 . S
N286 C287 1.331 . S
C287 C285 1.392 . S
C287 N286 1.331 . S
O288 Zn281 1.975 . S
O288 C289 1.252 . S
C289 O288 1.252 . S
C289 O290 1.252 . S
O290 Zn272 1.975 . S
O290 C289 1.252 . S
H291 C284 0.930 . S
H292 C285 0.930 . S
C293 C294 1.392 . S
C293 N297 1.328 . S
C293 H299 0.930 . S
C294 C293 1.392 . S
C294 N298 1.331 . S
C295 C296 1.391 . S
C295 N298 1.329 . S
C295 H305 0.930 . S
C296 C295 1.391 . S
C296 N297 1.334 . S
C296 H303 0.930 . S
N297 Zn281 2.119 . S
N297 C293 1.328 . S
N297 C296 1.334 . S
N298 C294 1.331 . S
N298 C295 1.329 . S
H299 C293 0.930 . S
C300 O280 1.257 . S
C300 O301 1.244 . S
O301 C300 1.244 . S
O302 C278 1.257 . S
O302 Zn281 2.019 . S
H303 C296 0.930 . S
H304 C283 0.930 . S
H305 C295 0.930 . S
Zn306 N310 2.020 . S
Zn306 O314 2.019 . S
Zn306 N316 2.119 . S
Zn306 O324 1.975 . S
C307 N308 1.334 . S
C307 N311 1.336 . S
N308 C307 1.334 . S
N308 C309 1.334 . S
C309 N308 1.334 . S
C309 N310 1.336 . S
N310 Zn306 2.020 . S
N310 C309 1.336 . S
N310 N311 1.354 . S
N311 C307 1.336 . S
N311 N310 1.354 . S
N311 Zn315 2.020 . S
C312 O313 1.244 . S
C312 O336 1.257 . S
O313 C312 1.244 . S
O314 Zn306 2.019 . S
O314 C334 1.257 . S
Zn315 N311 2.020 . S
Zn315 O322 1.975 . S
Zn315 N331 2.119 . S
Zn315 O336 2.019 . S
N316 Zn306 2.119 . S
N316 C318 1.334 . S
N316 C319 1.328 . S
C317 C318 1.391 . S
C317 N320 1.329 . S
C317 H338 0.930 . S
C318 N316 1.334 . S
C318 C317 1.391 . S
C318 H325 0.930 . S
C319 N316 1.328 . S
C319 C321 1.392 . S
C319 H326 0.930 . S
N320 C317 1.329 . S
N320 C321 1.331 . S
C321 C319 1.392 . S
C321 N320 1.331 . S
O322 Zn315 1.975 . S
O322 C323 1.252 . S
C323 O322 1.252 . S
C323 O324 1.252 . S
O324 Zn306 1.975 . S
O324 C323 1.252 . S
H325 C318 0.930 . S
H326 C319 0.930 . S
C327 C328 1.392 . S
C327 N331 1.328 . S
C327 H333 0.930 . S
C328 C327 1.392 . S
C328 N332 1.331 . S
C329 C330 1.391 . S
C329 N332 1.329 . S
C329 H339 0.930 . S
C330 C329 1.391 . S
C330 N331 1.334 . S
C330 H337 0.930 . S
N331 Zn315 2.119 . S
N331 C327 1.328 . S
N331 C330 1.334 . S
N332 C328 1.331 . S
N332 C329 1.329 . S
H333 C327 0.930 . S
C334 O314 1.257 . S
C334 O335 1.244 . S
O335 C334 1.244 . S
O336 C312 1.257 . S
O336 Zn315 2.019 . S
H337 C330 0.930 . S
H338 C317 0.930 . S
H339 C329 0.930 . S
Zn340 N344 2.020 . S
Zn340 O348 2.019 . S
Zn340 N350 2.119 . S
Zn340 O358 1.975 . S
C341 N342 1.334 . S
C341 N345 1.336 . S
N342 C341 1.334 . S
N342 C343 1.334 . S
C343 N342 1.334 . S
C343 N344 1.336 . S
N344 Zn340 2.020 . S
N344 C343 1.336 . S
N344 N345 1.354 . S
N345 C341 1.336 . S
N345 N344 1.354 . S
N345 Zn349 2.020 . S
C346 O347 1.244 . S
C346 O370 1.257 . S
O347 C346 1.244 . S
O348 Zn340 2.019 . S
O348 C368 1.257 . S
Zn349 N345 2.020 . S
Zn349 O356 1.975 . S
Zn349 N365 2.119 . S
Zn349 O370 2.019 . S
N350 Zn340 2.119 . S
N350 C352 1.334 . S
N350 C353 1.328 . S
C351 C352 1.391 . S
C351 N354 1.329 . S
C351 H372 0.930 . S
C352 N350 1.334 . S
C352 C351 1.391 . S
C352 H359 0.930 . S
C353 N350 1.328 . S
C353 C355 1.392 . S
C353 H360 0.930 . S
N354 C351 1.329 . S
N354 C355 1.331 . S
C355 C353 1.392 . S
C355 N354 1.331 . S
O356 Zn349 1.975 . S
O356 C357 1.252 . S
C357 O356 1.252 . S
C357 O358 1.252 . S
O358 Zn340 1.975 . S
O358 C357 1.252 . S
H359 C352 0.930 . S
H360 C353 0.930 . S
C361 C362 1.392 . S
C361 N365 1.328 . S
C361 H367 0.930 . S
C362 C361 1.392 . S
C362 N366 1.331 . S
C363 C364 1.391 . S
C363 N366 1.329 . S
C363 H373 0.930 . S
C364 C363 1.391 . S
C364 N365 1.334 . S
C364 H371 0.930 . S
N365 Zn349 2.119 . S
N365 C361 1.328 . S
N365 C364 1.334 . S
N366 C362 1.331 . S
N366 C363 1.329 . S
H367 C361 0.930 . S
C368 O348 1.257 . S
C368 O369 1.244 . S
O369 C368 1.244 . S
O370 C346 1.257 . S
O370 Zn349 2.019 . S
H371 C364 0.930 . S
H372 C351 0.930 . S
H373 C363 0.930 . S
Zn374 N378 2.020 . S
Zn374 O382 2.019 . S
Zn374 N384 2.119 . S
Zn374 O392 1.975 . S
C375 N376 1.334 . S
C375 N379 1.336 . S
N376 C375 1.334 . S
N376 C377 1.334 . S
C377 N376 1.334 . S
C377 N378 1.336 . S
N378 Zn374 2.020 . S
N378 C377 1.336 . S
N378 N379 1.354 . S
N379 C375 1.336 . S
N379 N378 1.354 . S
N379 Zn383 2.020 . S
C380 O381 1.244 . S
C380 O404 1.257 . S
O381 C380 1.244 . S
O382 Zn374 2.019 . S
O382 C402 1.257 . S
Zn383 N379 2.020 . S
Zn383 O390 1.975 . S
Zn383 N399 2.119 . S
Zn383 O404 2.019 . S
N384 Zn374 2.119 . S
N384 C386 1.334 . S
N384 C387 1.328 . S
C385 C386 1.391 . S
C385 N388 1.329 . S
C385 H406 0.930 . S
C386 N384 1.334 . S
C386 C385 1.391 . S
C386 H393 0.930 . S
C387 N384 1.328 . S
C387 C389 1.392 . S
C387 H394 0.930 . S
N388 C385 1.329 . S
N388 C389 1.331 . S
C389 C387 1.392 . S
C389 N388 1.331 . S
O390 Zn383 1.975 . S
O390 C391 1.252 . S
C391 O390 1.252 . S
C391 O392 1.252 . S
O392 Zn374 1.975 . S
O392 C391 1.252 . S
H393 C386 0.930 . S
H394 C387 0.930 . S
C395 C396 1.392 . S
C395 N399 1.328 . S
C395 H401 0.930 . S
C396 C395 1.392 . S
C396 N400 1.331 . S
C397 C398 1.391 . S
C397 N400 1.329 . S
C397 H407 0.930 . S
C398 C397 1.391 . S
C398 N399 1.334 . S
C398 H405 0.930 . S
N399 Zn383 2.119 . S
N399 C395 1.328 . S
N399 C398 1.334 . S
N400 C396 1.331 . S
N400 C397 1.329 . S
H401 C395 0.930 . S
C402 O382 1.257 . S
C402 O403 1.244 . S
O403 C402 1.244 . S
O404 C380 1.257 . S
O404 Zn383 2.019 . S
H405 C398 0.930 . S
H406 C385 0.930 . S
H407 C397 0.930 . S
Zn408 N412 2.020 . S
Zn408 O416 2.019 . S
Zn408 N418 2.119 . S
Zn408 O426 1.975 . S
C409 N410 1.334 . S
C409 N413 1.336 . S
N410 C409 1.334 . S
N410 C411 1.334 . S
C411 N410 1.334 . S
C411 N412 1.336 . S
N412 Zn408 2.020 . S
N412 C411 1.336 . S
N412 N413 1.354 . S
N413 C409 1.336 . S
N413 N412 1.354 . S
N413 Zn417 2.020 . S
C414 O415 1.244 . S
C414 O438 1.257 . S
O415 C414 1.244 . S
O416 Zn408 2.019 . S
O416 C436 1.257 1_565 S
Zn417 N413 2.020 . S
Zn417 O424 1.975 . S
Zn417 N433 2.119 . S
Zn417 O438 2.019 . S
N418 Zn408 2.119 . S
N418 C420 1.334 . S
N418 C421 1.328 . S
C419 C420 1.391 . S
C419 N422 1.329 . S
C419 H440 0.930 . S
C420 N418 1.334 . S
C420 C419 1.391 . S
C420 H427 0.930 . S
C421 N418 1.328 . S
C421 C423 1.392 . S
C421 H428 0.930 . S
N422 C419 1.329 . S
N422 C423 1.331 . S
C423 C421 1.392 . S
C423 N422 1.331 . S
O424 Zn417 1.975 . S
O424 C425 1.252 . S
C425 O424 1.252 . S
C425 O426 1.252 . S
O426 Zn408 1.975 . S
O426 C425 1.252 . S
H427 C420 0.930 . S
H428 C421 0.930 . S
C429 C430 1.392 . S
C429 N433 1.328 . S
C429 H435 0.930 . S
C430 C429 1.392 . S
C430 N434 1.331 1_565 S
C431 C432 1.391 1_545 S
C431 N434 1.329 . S
C431 H441 0.930 . S
C432 C431 1.391 1_565 S
C432 N433 1.334 . S
C432 H439 0.930 . S
N433 Zn417 2.119 . S
N433 C429 1.328 . S
N433 C432 1.334 . S
N434 C430 1.331 1_545 S
N434 C431 1.329 . S
H435 C429 0.930 . S
C436 O416 1.257 1_545 S
C436 O437 1.244 . S
O437 C436 1.244 . S
O438 C414 1.257 . S
O438 Zn417 2.019 . S
H439 C432 0.930 . S
H440 C419 0.930 . S
H441 C431 0.930 . S
Zn442 N446 2.020 . S
Zn442 O450 2.019 . S
Zn442 N452 2.119 . S
Zn442 O460 1.975 . S
C443 N444 1.334 . S
C443 N447 1.336 . S
N444 C443 1.334 . S
N444 C445 1.334 . S
C445 N444 1.334 . S
C445 N446 1.336 . S
N446 Zn442 2.020 . S
N446 C445 1.336 . S
N446 N447 1.354 . S
N447 C443 1.336 . S
N447 N446 1.354 . S
N447 Zn451 2.020 . S
C448 O449 1.244 . S
C448 O472 1.257 1_455 S
O449 C448 1.244 . S
O450 Zn442 2.019 . S
O450 C470 1.257 . S
Zn451 N447 2.020 . S
Zn451 O458 1.975 . S
Zn451 N467 2.119 . S
Zn451 O472 2.019 . S
N452 Zn442 2.119 . S
N452 C454 1.334 . S
N452 C455 1.328 . S
C453 C454 1.391 1_455 S
C453 N456 1.329 . S
C453 H474 0.930 . S
C454 N452 1.334 . S
C454 C453 1.391 1_655 S
C454 H461 0.930 . S
C455 N452 1.328 . S
C455 C457 1.392 . S
C455 H462 0.930 . S
N456 C453 1.329 . S
N456 C457 1.331 1_455 S
C457 C455 1.392 . S
C457 N456 1.331 1_655 S
O458 Zn451 1.975 . S
O458 C459 1.252 . S
C459 O458 1.252 . S
C459 O460 1.252 . S
O460 Zn442 1.975 . S
O460 C459 1.252 . S
H461 C454 0.930 . S
H462 C455 0.930 . S
C463 C464 1.392 . S
C463 N467 1.328 . S
C463 H469 0.930 . S
C464 C463 1.392 . S
C464 N468 1.331 . S
C465 C466 1.391 . S
C465 N468 1.329 . S
C465 H475 0.930 . S
C466 C465 1.391 . S
C466 N467 1.334 . S
C466 H473 0.930 . S
N467 Zn451 2.119 . S
N467 C463 1.328 . S
N467 C466 1.334 . S
N468 C464 1.331 . S
N468 C465 1.329 . S
H469 C463 0.930 . S
C470 O450 1.257 . S
C470 O471 1.244 . S
O471 C470 1.244 . S
O472 C448 1.257 1_655 S
O472 Zn451 2.019 . S
H473 C466 0.930 . S
H474 C453 0.930 . S
H475 C465 0.930 . S
Zn476 N480 2.020 . S
Zn476 O484 2.019 . S
Zn476 N486 2.119 . S
Zn476 O494 1.975 . S
C477 N478 1.334 . S
C477 N481 1.336 . S
N478 C477 1.334 . S
N478 C479 1.334 . S
C479 N478 1.334 . S
C479 N480 1.336 . S
N480 Zn476 2.020 . S
N480 C479 1.336 . S
N480 N481 1.354 . S
N481 C477 1.336 . S
N481 N480 1.354 . S
N481 Zn485 2.020 . S
C482 O483 1.244 . S
C482 O506 1.257 1_565 S
O483 C482 1.244 . S
O484 Zn476 2.019 . S
O484 C504 1.257 . S
Zn485 N481 2.020 . S
Zn485 O492 1.975 . S
Zn485 N501 2.119 . S
Zn485 O506 2.019 . S
N486 Zn476 2.119 . S
N486 C488 1.334 . S
N486 C489 1.328 . S
C487 C488 1.391 1_565 S
C487 N490 1.329 . S
C487 H508 0.930 . S
C488 N486 1.334 . S
C488 C487 1.391 1_545 S
C488 H495 0.930 . S
C489 N486 1.328 . S
C489 C491 1.392 . S
C489 H496 0.930 . S
N490 C487 1.329 . S
N490 C491 1.331 1_565 S
C491 C489 1.392 . S
C491 N490 1.331 1_545 S
O492 Zn485 1.975 . S
O492 C493 1.252 . S
C493 O492 1.252 . S
C493 O494 1.252 . S
O494 Zn476 1.975 . S
O494 C493 1.252 . S
H495 C488 0.930 . S
H496 C489 0.930 . S
C497 C498 1.392 . S
C497 N501 1.328 . S
C497 H503 0.930 . S
C498 C497 1.392 . S
C498 N502 1.331 . S
C499 C500 1.391 . S
C499 N502 1.329 . S
C499 H509 0.930 . S
C500 C499 1.391 . S
C500 N501 1.334 . S
C500 H507 0.930 . S
N501 Zn485 2.119 . S
N501 C497 1.328 . S
N501 C500 1.334 . S
N502 C498 1.331 . S
N502 C499 1.329 . S
H503 C497 0.930 . S
C504 O484 1.257 . S
C504 O505 1.244 . S
O505 C504 1.244 . S
O506 C482 1.257 1_545 S
O506 Zn485 2.019 . S
H507 C500 0.930 . S
H508 C487 0.930 . S
H509 C499 0.930 . S
Zn510 N514 2.020 . S
Zn510 O518 2.019 . S
Zn510 N520 2.119 . S
Zn510 O528 1.975 . S
C511 N512 1.334 . S
C511 N515 1.336 . S
N512 C511 1.334 . S
N512 C513 1.334 . S
C513 N512 1.334 . S
C513 N514 1.336 . S
N514 Zn510 2.020 . S
N514 C513 1.336 . S
N514 N515 1.354 . S
N515 C511 1.336 . S
N515 N514 1.354 . S
N515 Zn519 2.020 . S
C516 O517 1.244 . S
C516 O540 1.257 . S
O517 C516 1.244 . S
O518 Zn510 2.019 . S
O518 C538 1.257 1_455 S
Zn519 N515 2.020 . S
Zn519 O526 1.975 . S
Zn519 N535 2.119 . S
Zn519 O540 2.019 . S
N520 Zn510 2.119 . S
N520 C522 1.334 . S
N520 C523 1.328 . S
C521 C522 1.391 . S
C521 N524 1.329 . S
C521 H542 0.930 . S
C522 N520 1.334 . S
C522 C521 1.391 . S
C522 H529 0.930 . S
C523 N520 1.328 . S
C523 C525 1.392 . S
C523 H530 0.930 . S
N524 C521 1.329 . S
N524 C525 1.331 . S
C525 C523 1.392 . S
C525 N524 1.331 . S
O526 Zn519 1.975 . S
O526 C527 1.252 . S
C527 O526 1.252 . S
C527 O528 1.252 . S
O528 Zn510 1.975 . S
O528 C527 1.252 . S
H529 C522 0.930 . S
H530 C523 0.930 . S
C531 C532 1.392 . S
C531 N535 1.328 . S
C531 H537 0.930 . S
C532 C531 1.392 . S
C532 N536 1.331 1_455 S
C533 C534 1.391 1_655 S
C533 N536 1.329 . S
C533 H543 0.930 . S
C534 C533 1.391 1_455 S
C534 N535 1.334 . S
C534 H541 0.930 . S
N535 Zn519 2.119 . S
N535 C531 1.328 . S
N535 C534 1.334 . S
N536 C532 1.331 1_655 S
N536 C533 1.329 . S
H537 C531 0.930 . S
C538 O518 1.257 1_655 S
C538 O539 1.244 . S
O539 C538 1.244 . S
O540 C516 1.257 . S
O540 Zn519 2.019 . S
H541 C534 0.930 . S
H542 C521 0.930 . S
H543 C533 0.930 . S
C544 C545 1.369 . S
C544 C546 1.419 1_565 S
C544 H548 0.930 . S
C545 C544 1.369 . S
C545 C554 1.428 . S
C546 C544 1.419 1_545 S
C546 C547 1.363 . S
C546 H549 0.929 . S
C547 C546 1.363 . S
C547 C553 1.428 . S
H548 C544 0.930 . S
H549 C546 0.929 . S
S550 N551 1.613 . S
S550 N552 1.610 . S
N551 S550 1.613 . S
N551 C554 1.350 1_545 S
N552 S550 1.610 . S
N552 C553 1.351 . S
C553 C547 1.428 . S
C553 N552 1.351 . S
C553 C554 1.434 1_545 S
C554 C545 1.428 . S
C554 N551 1.350 1_565 S
C554 C553 1.434 1_565 S
C555 C556 1.369 . S
C555 C557 1.419 . S
C555 H559 0.930 . S
C556 C555 1.369 . S
C556 C565 1.429 1_655 S
C557 C555 1.419 . S
C557 C558 1.363 1_655 S
C557 H560 0.929 . S
C558 C557 1.363 1_455 S
C558 C564 1.428 . S
H559 C555 0.930 . S
H560 C557 0.929 . S
S561 N562 1.613 . S
S561 N563 1.610 . S
N562 S561 1.613 . S
N562 C565 1.350 . S
N563 S561 1.610 . S
N563 C564 1.351 . S
C564 C558 1.428 . S
C564 N563 1.351 . S
C564 C565 1.434 . S
C565 C556 1.429 1_455 S
C565 N562 1.350 . S
C565 C564 1.434 . S
C566 C567 1.369 . S
C566 C568 1.419 . S
C566 H570 0.930 . S
C567 C566 1.369 . S
C567 C576 1.429 . S
C568 C566 1.419 . S
C568 C569 1.363 . S
C568 H571 0.929 . S
C569 C568 1.363 . S
C569 C575 1.428 . S
H570 C566 0.930 . S
H571 C568 0.929 . S
S572 N573 1.613 . S
S572 N574 1.610 . S
N573 S572 1.613 . S
N573 C576 1.350 . S
N574 S572 1.610 . S
N574 C575 1.351 . S
C575 C569 1.428 . S
C575 N574 1.351 . S
C575 C576 1.434 . S
C576 C567 1.429 . S
C576 N573 1.350 . S
C576 C575 1.434 . S
C577 C578 1.369 . S
C577 C579 1.419 . S
C577 H581 0.930 . S
C578 C577 1.369 . S
C578 C587 1.429 . S
C579 C577 1.419 . S
C579 C580 1.363 . S
C579 H582 0.929 . S
C580 C579 1.363 . S
C580 C586 1.428 . S
H581 C577 0.930 . S
H582 C579 0.929 . S
S583 N584 1.613 . S
S583 N585 1.610 . S
N584 S583 1.613 . S
N584 C587 1.350 . S
N585 S583 1.610 . S
N585 C586 1.351 . S
C586 C580 1.428 . S
C586 N585 1.351 . S
C586 C587 1.434 . S
C587 C578 1.429 . S
C587 N584 1.350 . S
C587 C586 1.434 . S
C588 C589 1.369 1_455 S
C588 C590 1.419 . S
C588 H592 0.930 . S
C589 C588 1.369 1_655 S
C589 C598 1.429 . S
C590 C588 1.419 . S
C590 C591 1.363 . S
C590 H593 0.929 . S
C591 C590 1.363 . S
C591 C597 1.428 1_455 S
H592 C588 0.930 . S
H593 C590 0.929 . S
S594 N595 1.613 . S
S594 N596 1.610 . S
N595 S594 1.613 . S
N595 C598 1.350 . S
N596 S594 1.610 . S
N596 C597 1.351 . S
C597 C591 1.428 1_655 S
C597 N596 1.351 . S
C597 C598 1.434 . S
C598 C589 1.429 . S
C598 N595 1.350 . S
C598 C597 1.434 . S
C599 C600 1.369 . S
C599 C601 1.399 1_565 S
C599 H603 0.930 . S
C600 C599 1.369 . S
C600 C609 1.429 1_565 S
C601 C599 1.399 1_545 S
C601 C602 1.383 . S
C601 H604 0.929 . S
C602 C601 1.383 . S
C602 C608 1.428 . S
H603 C599 0.930 . S
H604 C601 0.929 . S
S605 N606 1.613 . S
S605 N607 1.610 . S
N606 S605 1.613 . S
N606 C609 1.350 . S
N607 S605 1.610 . S
N607 C608 1.351 . S
C608 C602 1.428 . S
C608 N607 1.351 . S
C608 C609 1.434 . S
C609 C600 1.429 1_545 S
C609 N606 1.350 . S
C609 C608 1.434 . S
C610 C611 1.369 . S
C610 C612 1.419 1_665 S
C610 H614 0.930 . S
C611 C610 1.369 . S
C611 C620 1.429 . S
C612 C610 1.419 1_445 S
C612 C613 1.363 . S
C612 H615 0.929 . S
C613 C612 1.363 . S
C613 C619 1.428 . S
H614 C610 0.930 . S
H615 C612 0.929 . S
S616 N617 1.613 1_455 S
S616 N618 1.610 1_565 S
N617 S616 1.613 1_655 S
N617 C620 1.350 . S
N618 S616 1.610 1_545 S
N618 C619 1.351 . S
C619 C613 1.428 . S
C619 N618 1.351 . S
C619 C620 1.434 1_445 S
C620 C611 1.429 . S
C620 N617 1.350 . S
C620 C619 1.434 1_665 S
C621 C622 1.369 . S
C621 C623 1.419 1_465 S
C621 H625 0.930 . S
C622 C621 1.369 . S
C622 C631 1.429 . S
C623 C621 1.419 1_645 S
C623 C624 1.363 . S
C623 H626 0.929 . S
C624 C623 1.363 . S
C624 C630 1.428 . S
H625 C621 0.930 . S
H626 C623 0.929 . S
S627 N628 1.613 1_545 S
S627 N629 1.610 1_455 S
N628 S627 1.613 1_565 S
N628 C631 1.350 . S
N629 S627 1.610 1_655 S
N629 C630 1.351 . S
C630 C624 1.428 . S
C630 N629 1.351 . S
C630 C631 1.434 1_645 S
C631 C622 1.429 . S
C631 N628 1.350 . S
C631 C630 1.434 1_465 S
C632 C633 1.369 . S
C632 C634 1.419 . S
C632 H636 0.930 . S
C633 C632 1.369 . S
C633 C642 1.429 . S
C634 C632 1.419 . S
C634 C635 1.363 . S
C634 H637 0.929 . S
C635 C634 1.363 . S
C635 C641 1.428 . S
H636 C632 0.930 . S
H637 C634 0.929 . S
S638 N639 1.613 . S
S638 N640 1.610 . S
N639 S638 1.613 . S
N639 C642 1.350 . S
N640 S638 1.610 . S
N640 C641 1.351 . S
C641 C635 1.428 . S
C641 N640 1.351 . S
C641 C642 1.434 . S
C642 C633 1.429 . S
C642 N639 1.350 . S
C642 C641 1.434 . S
C643 C644 1.369 . S
C643 C645 1.419 . S
C643 H647 0.930 . S
C644 C643 1.369 . S
C644 C653 1.429 . S
C645 C643 1.419 . S
C645 C646 1.363 . S
C645 H648 0.929 . S
C646 C645 1.363 . S
C646 C652 1.428 . S
H647 C643 0.930 . S
H648 C645 0.929 . S
S649 N650 1.613 . S
S649 N651 1.610 . S
N650 S649 1.613 . S
N650 C653 1.350 . S
N651 S649 1.610 . S
N651 C652 1.351 . S
C652 C646 1.428 . S
C652 N651 1.351 . S
C652 C653 1.434 . S
C653 C644 1.429 . S
C653 N650 1.350 . S
C653 C652 1.434 . S
C654 C655 1.369 . S
C654 C656 1.419 . S
C654 H658 0.930 . S
C655 C654 1.369 . S
C655 C664 1.429 . S
C656 C654 1.419 . S
C656 C657 1.363 . S
C656 H659 0.929 . S
C657 C656 1.363 . S
C657 C663 1.428 . S
H658 C654 0.930 . S
H659 C656 0.929 . S
S660 N661 1.613 . S
S660 N662 1.610 . S
N661 S660 1.613 . S
N661 C664 1.350 . S
N662 S660 1.610 . S
N662 C663 1.351 . S
C663 C657 1.428 . S
C663 N662 1.351 . S
C663 C664 1.434 . S
C664 C655 1.429 . S
C664 N661 1.350 . S
C664 C663 1.434 . S
C665 C666 1.369 . S
C665 C667 1.419 . S
C665 H669 0.930 . S
C666 C665 1.369 . S
C666 C675 1.429 . S
C667 C665 1.419 . S
C667 C668 1.363 . S
C667 H670 0.929 . S
C668 C667 1.363 . S
C668 C674 1.428 . S
H669 C665 0.930 . S
H670 C667 0.929 . S
S671 N672 1.613 . S
S671 N673 1.610 . S
N672 S671 1.613 . S
N672 C675 1.350 . S
N673 S671 1.610 . S
N673 C674 1.351 . S
C674 C668 1.428 . S
C674 N673 1.351 . S
C674 C675 1.434 . S
C675 C666 1.429 . S
C675 N672 1.350 . S
C675 C674 1.434 . S
C676 C677 1.369 . S
C676 C678 1.419 . S
C676 H680 0.930 . S
C677 C676 1.369 . S
C677 C686 1.429 . S
C678 C676 1.419 . S
C678 C679 1.363 . S
C678 H681 0.929 . S
C679 C678 1.363 . S
C679 C685 1.428 . S
H680 C676 0.930 . S
H681 C678 0.929 . S
S682 N683 1.613 . S
S682 N684 1.610 . S
N683 S682 1.613 . S
N683 C686 1.350 . S
N684 S682 1.610 . S
N684 C685 1.351 . S
C685 C679 1.428 . S
C685 N684 1.351 . S
C685 C686 1.434 . S
C686 C677 1.429 . S
C686 N683 1.350 . S
C686 C685 1.434 . S
C687 C688 1.369 . S
C687 C689 1.419 . S
C687 H691 0.930 . S
C688 C687 1.369 . S
C688 C697 1.429 . S
C689 C687 1.419 . S
C689 C690 1.363 . S
C689 H692 0.929 . S
C690 C689 1.363 . S
C690 C696 1.428 . S
H691 C687 0.930 . S
H692 C689 0.929 . S
S693 N694 1.613 . S
S693 N695 1.610 . S
N694 S693 1.613 . S
N694 C697 1.350 . S
N695 S693 1.610 . S
N695 C696 1.351 . S
C696 C690 1.428 . S
C696 N695 1.351 . S
C696 C697 1.434 . S
C697 C688 1.429 . S
C697 N694 1.350 . S
C697 C696 1.434 . S
C698 C699 1.369 . S
C698 C700 1.419 . S
C698 H702 0.930 . S
C699 C698 1.369 . S
C699 C708 1.429 . S
C700 C698 1.419 . S
C700 C701 1.363 . S
C700 H703 0.929 . S
C701 C700 1.363 . S
C701 C707 1.428 . S
H702 C698 0.930 . S
H703 C700 0.929 . S
S704 N705 1.613 . S
S704 N706 1.610 . S
N705 S704 1.613 . S
N705 C708 1.350 . S
N706 S704 1.610 . S
N706 C707 1.351 . S
C707 C701 1.428 . S
C707 N706 1.351 . S
C707 C708 1.434 . S
C708 C699 1.429 . S
C708 N705 1.350 . S
C708 C707 1.434 . S
C709 C710 1.369 . S
C709 C711 1.419 . S
C709 H713 0.930 . S
C710 C709 1.369 . S
C710 C719 1.429 . S
C711 C709 1.419 . S
C711 C712 1.363 . S
C711 H714 0.929 . S
C712 C711 1.363 . S
C712 C718 1.428 . S
H713 C709 0.930 . S
H714 C711 0.929 . S
S715 N716 1.613 . S
S715 N717 1.610 . S
N716 S715 1.613 . S
N716 C719 1.350 . S
N717 S715 1.610 . S
N717 C718 1.351 . S
C718 C712 1.428 . S
C718 N717 1.351 . S
C718 C719 1.434 . S
C719 C710 1.429 . S
C719 N716 1.350 . S
C719 C718 1.434 . S
C720 C721 1.369 . S
C720 C722 1.419 . S
C720 H724 0.930 1_565 S
C721 C720 1.369 . S
C721 C730 1.429 . S
C722 C720 1.419 . S
C722 C723 1.363 . S
C722 H725 0.929 . S
C723 C722 1.363 . S
C723 C729 1.428 . S
H724 C720 0.930 1_545 S
H725 C722 0.929 . S
S726 N727 1.613 . S
S726 N728 1.610 . S
N727 S726 1.613 . S
N727 C730 1.350 . S
N728 S726 1.610 . S
N728 C729 1.351 . S
C729 C723 1.428 . S
C729 N728 1.351 . S
C729 C730 1.434 . S
C730 C721 1.429 . S
C730 N727 1.350 . S
C730 C729 1.434 . S
C731 C732 1.369 . S
C731 C733 1.419 . S
C731 H735 0.930 . S
C732 C731 1.369 . S
C732 C741 1.429 . S
C733 C731 1.419 . S
C733 C734 1.363 . S
C733 H736 0.929 . S
C734 C733 1.363 . S
C734 C740 1.428 . S
H735 C731 0.930 . S
H736 C733 0.929 . S
S737 N738 1.613 1_655 S
S737 N739 1.610 . S
N738 S737 1.613 1_455 S
N738 C741 1.350 1_455 S
N739 S737 1.610 . S
N739 C740 1.351 . S
C740 C734 1.428 . S
C740 N739 1.351 . S
C740 C741 1.434 . S
C741 C732 1.429 . S
C741 N738 1.350 1_655 S
C741 C740 1.434 . S
C742 C743 1.369 . S
C742 C744 1.419 . S
C742 H746 0.930 . S
C743 C742 1.369 . S
C743 C752 1.429 . S
C744 C742 1.419 . S
C744 C745 1.363 . S
C744 H747 0.929 . S
C745 C744 1.363 . S
C745 C751 1.428 . S
H746 C742 0.930 . S
H747 C744 0.929 . S
S748 N749 1.613 . S
S748 N750 1.610 . S
N749 S748 1.613 . S
N749 C752 1.350 . S
N750 S748 1.610 . S
N750 C751 1.351 . S
C751 C745 1.428 . S
C751 N750 1.351 . S
C751 C752 1.434 . S
C752 C743 1.429 . S
C752 N749 1.350 . S
C752 C751 1.434 . S
C753 C754 1.369 . S
C753 C755 1.419 . S
C753 H757 0.930 . S
C754 C753 1.369 . S
C754 C763 1.429 . S
C755 C753 1.419 . S
C755 C756 1.363 . S
C755 H758 0.929 . S
C756 C755 1.363 . S
C756 C762 1.428 . S
H757 C753 0.930 . S
H758 C755 0.929 . S
S759 N760 1.613 . S
S759 N761 1.610 . S
N760 S759 1.613 . S
N760 C763 1.350 . S
N761 S759 1.610 . S
N761 C762 1.351 . S
C762 C756 1.428 . S
C762 N761 1.351 . S
C762 C763 1.434 . S
C763 C754 1.429 . S
C763 N760 1.350 . S
C763 C762 1.434 . S
C764 C765 1.369 . S
C764 C766 1.419 . S
C764 H768 0.930 1_554 S
C765 C764 1.369 . S
C765 C774 1.429 . S
C766 C764 1.419 . S
C766 C767 1.363 . S
C766 H769 0.929 . S
C767 C766 1.363 . S
C767 C773 1.428 . S
H768 C764 0.930 1_556 S
H769 C766 0.929 . S
S770 N771 1.613 . S
S770 N772 1.610 . S
N771 S770 1.613 . S
N771 C774 1.350 . S
N772 S770 1.610 . S
N772 C773 1.351 . S
C773 C767 1.428 . S
C773 N772 1.351 . S
C773 C774 1.434 . S
C774 C765 1.429 . S
C774 N771 1.350 . S
C774 C773 1.434 . S
C775 C776 1.369 . S
C775 C777 1.419 . S
C775 H779 0.930 . S
C776 C775 1.369 . S
C776 C785 1.429 . S
C777 C775 1.419 . S
C777 C778 1.363 . S
C777 H780 0.929 . S
C778 C777 1.363 . S
C778 C784 1.428 . S
H779 C775 0.930 . S
H780 C777 0.929 . S
S781 N782 1.613 . S
S781 N783 1.610 . S
N782 S781 1.613 . S
N782 C785 1.350 1_554 S
N783 S781 1.610 . S
N783 C784 1.351 1_554 S
C784 C778 1.428 . S
C784 N783 1.351 1_556 S
C784 C785 1.434 . S
C785 C776 1.429 . S
C785 N782 1.350 1_556 S
C785 C784 1.434 . S
C786 C787 1.369 . S
C786 C788 1.419 . S
C786 H790 0.930 . S
C787 C786 1.369 . S
C787 C796 1.429 . S
C788 C786 1.419 . S
C788 C789 1.363 . S
C788 H791 0.929 . S
C789 C788 1.363 . S
C789 C795 1.428 . S
H790 C786 0.930 . S
H791 C788 0.929 . S
S792 N793 1.613 1_556 S
S792 N794 1.610 . S
N793 S792 1.613 1_554 S
N793 C796 1.350 . S
N794 S792 1.610 . S
N794 C795 1.351 1_556 S
C795 C789 1.428 . S
C795 N794 1.351 1_554 S
C795 C796 1.434 . S
C796 C787 1.429 . S
C796 N793 1.350 . S
C796 C795 1.434 . S
C797 C798 1.369 . S
C797 C799 1.419 . S
C797 H801 0.930 . S
C798 C797 1.369 . S
C798 C807 1.429 . S
C799 C797 1.419 . S
C799 C800 1.363 . S
C799 H802 0.929 . S
C800 C799 1.363 . S
C800 C806 1.428 . S
H801 C797 0.930 . S
H802 C799 0.929 . S
S803 N804 1.613 . S
S803 N805 1.610 . S
N804 S803 1.613 . S
N804 C807 1.350 . S
N805 S803 1.610 . S
N805 C806 1.351 . S
C806 C800 1.428 . S
C806 N805 1.351 . S
C806 C807 1.434 . S
C807 C798 1.429 . S
C807 N804 1.350 . S
C807 C806 1.434 . S
C808 C809 1.369 . S
C808 C810 1.419 . S
C808 H812 0.930 . S
C809 C808 1.369 . S
C809 C818 1.429 . S
C810 C808 1.419 . S
C810 C811 1.363 . S
C810 H813 0.929 . S
C811 C810 1.363 . S
C811 C817 1.428 . S
H812 C808 0.930 . S
H813 C810 0.929 . S
S814 N815 1.613 . S
S814 N816 1.610 . S
N815 S814 1.613 . S
N815 C818 1.350 . S
N816 S814 1.610 . S
N816 C817 1.351 . S
C817 C811 1.428 . S
C817 N816 1.351 . S
C817 C818 1.434 . S
C818 C809 1.429 . S
C818 N815 1.350 . S
C818 C817 1.434 . S
C819 C820 1.369 . S
C819 C821 1.419 . S
C819 H823 0.930 . S
C820 C819 1.369 . S
C820 C829 1.429 . S
C821 C819 1.419 . S
C821 C822 1.363 . S
C821 H824 0.929 . S
C822 C821 1.363 . S
C822 C828 1.428 . S
H823 C819 0.930 . S
H824 C821 0.929 . S
S825 N826 1.613 . S
S825 N827 1.610 . S
N826 S825 1.613 . S
N826 C829 1.350 . S
N827 S825 1.610 . S
N827 C828 1.351 . S
C828 C822 1.428 . S
C828 N827 1.351 . S
C828 C829 1.434 . S
C829 C820 1.429 . S
C829 N826 1.350 . S
C829 C828 1.434 . S
C830 C831 1.369 . S
C830 C832 1.419 . S
C830 H834 0.930 . S
C831 C830 1.369 . S
C831 C840 1.429 . S
C832 C830 1.419 . S
C832 C833 1.363 . S
C832 H835 0.929 . S
C833 C832 1.363 . S
C833 C839 1.428 . S
H834 C830 0.930 . S
H835 C832 0.929 . S
S836 N837 1.613 . S
S836 N838 1.610 . S
N837 S836 1.613 . S
N837 C840 1.350 . S
N838 S836 1.610 . S
N838 C839 1.351 . S
C839 C833 1.428 . S
C839 N838 1.351 . S
C839 C840 1.434 . S
C840 C831 1.429 . S
C840 N837 1.350 . S
C840 C839 1.434 . S
C841 C842 1.369 . S
C841 C843 1.419 . S
C841 H845 0.930 . S
C842 C841 1.369 . S
C842 C851 1.429 . S
C843 C841 1.419 . S
C843 C844 1.363 . S
C843 H846 0.929 . S
C844 C843 1.363 . S
C844 C850 1.428 . S
H845 C841 0.930 . S
H846 C843 0.929 . S
S847 N848 1.613 . S
S847 N849 1.610 . S
N848 S847 1.613 . S
N848 C851 1.350 . S
N849 S847 1.610 . S
N849 C850 1.351 . S
C850 C844 1.428 . S
C850 N849 1.351 . S
C850 C851 1.434 . S
C851 C842 1.429 . S
C851 N848 1.350 . S
C851 C850 1.434 . S
C852 C853 1.369 . S
C852 C854 1.419 . S
C852 H856 0.947 . S
C853 C852 1.369 . S
C853 C862 1.429 . S
C854 C852 1.419 . S
C854 C855 1.363 . S
C854 H857 0.929 . S
C855 C854 1.363 . S
C855 C861 1.428 . S
H856 C852 0.947 . S
H857 C854 0.929 . S
S858 N859 1.613 . S
S858 N860 1.610 . S
N859 S858 1.613 . S
N859 C862 1.350 . S
N860 S858 1.610 . S
N860 C861 1.351 . S
C861 C855 1.428 . S
C861 N860 1.351 . S
C861 C862 1.434 . S
C862 C853 1.429 . S
C862 N859 1.350 . S
C862 C861 1.434 . S
C863 C864 1.369 . S
C863 C865 1.419 . S
C863 H867 0.930 . S
C864 C863 1.369 . S
C864 C873 1.429 . S
C865 C863 1.419 . S
C865 C866 1.363 . S
C865 H868 0.921 1_455 S
C866 C865 1.363 . S
C866 C872 1.428 . S
H867 C863 0.930 . S
H868 C865 0.921 1_655 S
S869 N870 1.613 . S
S869 N871 1.610 . S
N870 S869 1.613 . S
N870 C873 1.350 . S
N871 S869 1.610 . S
N871 C872 1.351 . S
C872 C866 1.428 . S
C872 N871 1.351 . S
C872 C873 1.434 . S
C873 C864 1.429 . S
C873 N870 1.350 . S
C873 C872 1.434 . S
C874 C875 1.369 . S
C874 C876 1.419 . S
C874 H878 0.930 . S
C875 C874 1.369 . S
C875 C884 1.429 . S
C876 C874 1.419 . S
C876 C877 1.363 . S
C876 H879 0.929 . S
C877 C876 1.363 . S
C877 C883 1.428 . S
H878 C874 0.930 . S
H879 C876 0.929 . S
S880 N881 1.613 1_565 S
S880 N882 1.610 . S
N881 S880 1.613 1_545 S
N881 C884 1.350 1_545 S
N882 S880 1.610 . S
N882 C883 1.351 . S
C883 C877 1.428 . S
C883 N882 1.351 . S
C883 C884 1.434 . S
C884 C875 1.429 . S
C884 N881 1.350 1_565 S
C884 C883 1.434 . S
C885 C886 1.369 . S
C885 C887 1.419 . S
C885 H889 0.930 1_655 S
C886 C885 1.369 . S
C886 C895 1.429 . S
C887 C885 1.419 . S
C887 C888 1.363 . S
C887 H890 0.929 . S
C888 C887 1.363 . S
C888 C894 1.428 . S
H889 C885 0.930 1_455 S
H890 C887 0.929 . S
S891 N892 1.613 . S
S891 N893 1.610 . S
N892 S891 1.613 . S
N892 C895 1.350 . S
N893 S891 1.610 . S
N893 C894 1.351 . S
C894 C888 1.428 . S
C894 N893 1.351 . S
C894 C895 1.434 . S
C895 C886 1.429 . S
C895 N892 1.350 . S
C895 C894 1.434 . S
C896 C897 1.369 . S
C896 C898 1.419 . S
C896 H900 0.930 . S
C897 C896 1.369 . S
C897 C906 1.429 . S
C898 C896 1.419 . S
C898 C899 1.363 . S
C898 H901 0.929 . S
C899 C898 1.363 . S
C899 C905 1.428 . S
H900 C896 0.930 . S
H901 C898 0.929 . S
S902 N903 1.613 . S
S902 N904 1.610 . S
N903 S902 1.613 . S
N903 C906 1.350 . S
N904 S902 1.610 . S
N904 C905 1.351 . S
C905 C899 1.428 . S
C905 N904 1.351 . S
C905 C906 1.434 . S
C906 C897 1.429 . S
C906 N903 1.350 . S
C906 C905 1.434 . S
C907 C908 1.369 . S
C907 C909 1.419 . S
C907 H911 0.930 . S
C908 C907 1.369 . S
C908 C917 1.429 . S
C909 C907 1.419 . S
C909 C910 1.363 . S
C909 H912 0.929 . S
C910 C909 1.363 . S
C910 C916 1.428 . S
H911 C907 0.930 . S
H912 C909 0.929 . S
S913 N914 1.613 . S
S913 N915 1.610 . S
N914 S913 1.613 . S
N914 C917 1.350 . S
N915 S913 1.610 . S
N915 C916 1.351 . S
C916 C910 1.428 . S
C916 N915 1.351 . S
C916 C917 1.434 . S
C917 C908 1.429 . S
C917 N914 1.350 . S
C917 C916 1.434 . S
C918 C919 1.369 . S
C918 C920 1.419 . S
C918 H922 0.930 . S
C919 C918 1.369 . S
C919 C928 1.429 . S
C920 C918 1.419 . S
C920 C921 1.363 . S
C920 H923 0.929 . S
C921 C920 1.363 . S
C921 C927 1.428 . S
H922 C918 0.930 . S
H923 C920 0.929 . S
S924 N925 1.613 . S
S924 N926 1.610 . S
N925 S924 1.613 . S
N925 C928 1.350 . S
N926 S924 1.610 . S
N926 C927 1.351 . S
C927 C921 1.428 . S
C927 N926 1.351 . S
C927 C928 1.434 . S
C928 C919 1.429 . S
C928 N925 1.350 . S
C928 C927 1.434 . S
C929 C930 1.369 . S
C929 C931 1.419 . S
C929 H933 0.930 . S
C930 C929 1.369 . S
C930 C939 1.429 . S
C931 C929 1.419 . S
C931 C932 1.363 . S
C931 H934 0.929 . S
C932 C931 1.363 . S
C932 C938 1.428 . S
H933 C929 0.930 . S
H934 C931 0.929 . S
S935 N936 1.613 . S
S935 N937 1.610 . S
N936 S935 1.613 . S
N936 C939 1.350 . S
N937 S935 1.610 . S
N937 C938 1.351 . S
C938 C932 1.428 . S
C938 N937 1.351 . S
C938 C939 1.434 . S
C939 C930 1.429 . S
C939 N936 1.350 . S
C939 C938 1.434 . S
C940 C941 1.369 . S
C940 C942 1.419 . S
C940 H944 0.930 . S
C941 C940 1.369 . S
C941 C950 1.429 . S
C942 C940 1.419 . S
C942 C943 1.363 . S
C942 H945 0.929 . S
C943 C942 1.363 . S
C943 C949 1.428 . S
H944 C940 0.930 . S
H945 C942 0.929 . S
S946 N947 1.613 . S
S946 N948 1.610 . S
N947 S946 1.613 . S
N947 C950 1.350 . S
N948 S946 1.610 . S
N948 C949 1.351 . S
C949 C943 1.428 . S
C949 N948 1.351 . S
C949 C950 1.434 . S
C950 C941 1.429 . S
C950 N947 1.350 . S
C950 C949 1.434 . S
C951 C952 1.369 . S
C951 C953 1.419 . S
C951 H955 0.930 . S
C952 C951 1.369 . S
C952 C961 1.429 . S
C953 C951 1.419 . S
C953 C954 1.363 . S
C953 H956 0.929 . S
C954 C953 1.363 . S
C954 C960 1.428 . S
H955 C951 0.930 . S
H956 C953 0.929 . S
S957 N958 1.613 . S
S957 N959 1.610 . S
N958 S957 1.613 . S
N958 C961 1.350 . S
N959 S957 1.610 . S
N959 C960 1.351 . S
C960 C954 1.428 . S
C960 N959 1.351 . S
C960 C961 1.434 . S
C961 C952 1.429 . S
C961 N958 1.350 . S
C961 C960 1.434 . S
C962 C963 1.369 . S
C962 C964 1.419 . S
C962 H966 0.930 . S
C963 C962 1.369 . S
C963 C972 1.429 . S
C964 C962 1.419 . S
C964 C965 1.363 . S
C964 H967 0.929 . S
C965 C964 1.363 . S
C965 C971 1.428 . S
H966 C962 0.930 . S
H967 C964 0.929 . S
S968 N969 1.613 . S
S968 N970 1.610 . S
N969 S968 1.613 . S
N969 C972 1.350 . S
N970 S968 1.610 . S
N970 C971 1.351 . S
C971 C965 1.428 . S
C971 N970 1.351 . S
C971 C972 1.434 . S
C972 C963 1.429 . S
C972 N969 1.350 . S
C972 C971 1.434 . S
C973 C974 1.369 . S
C973 C975 1.419 . S
C973 H977 0.930 . S
C974 C973 1.369 . S
C974 C983 1.429 . S
C975 C973 1.419 . S
C975 C976 1.363 . S
C975 H978 0.929 . S
C976 C975 1.363 . S
C976 C982 1.428 . S
H977 C973 0.930 . S
H978 C975 0.929 . S
S979 N980 1.613 . S
S979 N981 1.610 . S
N980 S979 1.613 . S
N980 C983 1.350 . S
N981 S979 1.610 . S
N981 C982 1.351 . S
C982 C976 1.428 . S
C982 N981 1.351 . S
C982 C983 1.434 . S
C983 C974 1.429 . S
C983 N980 1.350 . S
C983 C982 1.434 . S
C984 C985 1.369 . S
C984 C986 1.419 . S
C984 H988 0.930 . S
C985 C984 1.369 . S
C985 C994 1.429 . S
C986 C984 1.419 . S
C986 C987 1.363 . S
C986 H989 0.929 . S
C987 C986 1.363 . S
C987 C993 1.428 . S
H988 C984 0.930 . S
H989 C986 0.929 . S
S990 N991 1.613 1_545 S
S990 N992 1.610 . S
N991 S990 1.613 1_565 S
N991 C994 1.350 . S
N992 S990 1.610 . S
N992 C993 1.351 1_545 S
C993 C987 1.428 . S
C993 N992 1.351 1_565 S
C993 C994 1.434 . S
C994 C985 1.429 . S
C994 N991 1.350 . S
C994 C993 1.434 . S
C995 C996 1.369 . S
C995 C997 1.419 . S
C995 H999 0.930 . S
C996 C995 1.369 . S
C996 C1005 1.429 1_554 S
C997 C995 1.419 . S
C997 C998 1.363 . S
C997 H1000 0.929 . S
C998 C997 1.363 . S
C998 C1004 1.428 1_554 S
H999 C995 0.930 . S
H1000 C997 0.929 . S
S1001 N1002 1.613 . S
S1001 N1003 1.610 . S
N1002 S1001 1.613 . S
N1002 C1005 1.350 . S
N1003 S1001 1.610 . S
N1003 C1004 1.351 . S
C1004 C998 1.428 1_556 S
C1004 N1003 1.351 . S
C1004 C1005 1.434 . S
C1005 C996 1.429 1_556 S
C1005 N1002 1.350 . S
C1005 C1004 1.434 . S
C1006 C1007 1.369 . S
C1006 C1008 1.419 . S
C1006 H1010 0.930 . S
C1007 C1006 1.369 . S
C1007 C1016 1.429 1_556 S
C1008 C1006 1.419 . S
C1008 C1009 1.363 . S
C1008 H1011 0.929 . S
C1009 C1008 1.363 . S
C1009 C1015 1.428 . S
H1010 C1006 0.930 . S
H1011 C1008 0.929 . S
S1012 N1013 1.613 . S
S1012 N1014 1.610 1_565 S
N1013 S1012 1.613 . S
N1013 C1016 1.350 1_565 S
N1014 S1012 1.610 1_545 S
N1014 C1015 1.351 1_554 S
C1015 C1009 1.428 . S
C1015 N1014 1.351 1_556 S
C1015 C1016 1.434 1_556 S
C1016 C1007 1.429 1_554 S
C1016 N1013 1.350 1_545 S
C1016 C1015 1.434 1_554 S
C1017 C1018 1.369 . S
C1017 C1019 1.419 . S
C1017 H1021 0.930 . S
C1018 C1017 1.369 . S
C1018 C1027 1.429 1_554 S
C1019 C1017 1.419 . S
C1019 C1020 1.363 . S
C1019 H1022 0.929 . S
C1020 C1019 1.363 . S
C1020 C1026 1.428 1_554 S
H1021 C1017 0.930 . S
H1022 C1019 0.929 . S
S1023 N1024 1.613 . S
S1023 N1025 1.610 . S
N1024 S1023 1.613 . S
N1024 C1027 1.350 . S
N1025 S1023 1.610 . S
N1025 C1026 1.351 . S
C1026 C1020 1.428 1_556 S
C1026 N1025 1.351 . S
C1026 C1027 1.434 . S
C1027 C1018 1.429 1_556 S
C1027 N1024 1.350 . S
C1027 C1026 1.434 . S
C1028 C1029 1.369 . S
C1028 C1030 1.419 . S
C1028 H1032 0.930 . S
C1029 C1028 1.369 . S
C1029 C1038 1.429 . S
C1030 C1028 1.419 . S
C1030 C1031 1.363 . S
C1030 H1033 0.929 . S
C1031 C1030 1.363 . S
C1031 C1037 1.428 . S
H1032 C1028 0.930 . S
H1033 C1030 0.929 . S
S1034 N1035 1.613 . S
S1034 N1036 1.610 . S
N1035 S1034 1.613 . S
N1035 C1038 1.350 . S
N1036 S1034 1.610 . S
N1036 C1037 1.351 . S
C1037 C1031 1.428 . S
C1037 N1036 1.351 . S
C1037 C1038 1.434 . S
C1038 C1029 1.429 . S
C1038 N1035 1.350 . S
C1038 C1037 1.434 . S
C1039 C1040 1.369 . S
C1039 C1041 1.419 . S
C1039 H1043 0.930 . S
C1040 C1039 1.369 . S
C1040 C1049 1.429 . S
C1041 C1039 1.419 . S
C1041 C1042 1.363 . S
C1041 H1044 0.929 . S
C1042 C1041 1.363 . S
C1042 C1048 1.428 . S
H1043 C1039 0.930 . S
H1044 C1041 0.929 . S
S1045 N1046 1.613 . S
S1045 N1047 1.610 . S
N1046 S1045 1.613 . S
N1046 C1049 1.350 . S
N1047 S1045 1.610 . S
N1047 C1048 1.351 . S
C1048 C1042 1.428 . S
C1048 N1047 1.351 . S
C1048 C1049 1.434 . S
C1049 C1040 1.429 . S
C1049 N1046 1.350 . S
C1049 C1048 1.434 . S
C1050 C1051 1.369 . S
C1050 C1052 1.419 . S
C1050 H1054 0.930 . S
C1051 C1050 1.369 . S
C1051 C1060 1.429 . S
C1052 C1050 1.419 . S
C1052 C1053 1.363 . S
C1052 H1055 0.929 . S
C1053 C1052 1.363 . S
C1053 C1059 1.428 . S
H1054 C1050 0.930 . S
H1055 C1052 0.929 . S
S1056 N1057 1.613 . S
S1056 N1058 1.610 . S
N1057 S1056 1.613 . S
N1057 C1060 1.350 . S
N1058 S1056 1.610 . S
N1058 C1059 1.351 . S
C1059 C1053 1.428 . S
C1059 N1058 1.351 . S
C1059 C1060 1.434 . S
C1060 C1051 1.429 . S
C1060 N1057 1.350 . S
C1060 C1059 1.434 . S
C1061 C1062 1.369 . S
C1061 C1063 1.419 . S
C1061 H1065 0.930 . S
C1062 C1061 1.369 . S
C1062 C1071 1.429 . S
C1063 C1061 1.419 . S
C1063 C1064 1.363 . S
C1063 H1066 0.929 . S
C1064 C1063 1.363 . S
C1064 C1070 1.428 . S
H1065 C1061 0.930 . S
H1066 C1063 0.929 . S
S1067 N1068 1.613 . S
S1067 N1069 1.610 . S
N1068 S1067 1.613 . S
N1068 C1071 1.350 . S
N1069 S1067 1.610 . S
N1069 C1070 1.351 . S
C1070 C1064 1.428 . S
C1070 N1069 1.351 . S
C1070 C1071 1.434 . S
C1071 C1062 1.429 . S
C1071 N1068 1.350 . S
C1071 C1070 1.434 . S
C1072 C1073 1.369 . S
C1072 C1074 1.419 . S
C1072 H1076 0.930 . S
C1073 C1072 1.369 . S
C1073 C1082 1.429 . S
C1074 C1072 1.419 . S
C1074 C1075 1.363 . S
C1074 H1077 0.929 . S
C1075 C1074 1.363 . S
C1075 C1081 1.428 . S
H1076 C1072 0.930 . S
H1077 C1074 0.929 . S
S1078 N1079 1.613 . S
S1078 N1080 1.610 . S
N1079 S1078 1.613 . S
N1079 C1082 1.350 . S
N1080 S1078 1.610 . S
N1080 C1081 1.351 . S
C1081 C1075 1.428 . S
C1081 N1080 1.351 . S
C1081 C1082 1.434 . S
C1082 C1073 1.429 . S
C1082 N1079 1.350 . S
C1082 C1081 1.434 . S
C1083 C1084 1.369 . S
C1083 C1085 1.419 . S
C1083 H1087 0.930 . S
C1084 C1083 1.369 . S
C1084 C1093 1.429 . S
C1085 C1083 1.419 . S
C1085 C1086 1.363 . S
C1085 H1088 0.929 . S
C1086 C1085 1.363 . S
C1086 C1092 1.428 . S
H1087 C1083 0.930 . S
H1088 C1085 0.929 . S
S1089 N1090 1.613 . S
S1089 N1091 1.610 . S
N1090 S1089 1.613 . S
N1090 C1093 1.350 . S
N1091 S1089 1.610 . S
N1091 C1092 1.351 . S
C1092 C1086 1.428 . S
C1092 N1091 1.351 . S
C1092 C1093 1.434 . S
C1093 C1084 1.429 . S
C1093 N1090 1.350 . S
C1093 C1092 1.434 . S
C1094 C1095 1.369 . S
C1094 C1096 1.419 . S
C1094 H1098 0.930 . S
C1095 C1094 1.369 . S
C1095 C1104 1.429 . S
C1096 C1094 1.419 . S
C1096 C1097 1.363 . S
C1096 H1099 0.929 . S
C1097 C1096 1.363 . S
C1097 C1103 1.428 . S
H1098 C1094 0.930 . S
H1099 C1096 0.929 . S
S1100 N1101 1.613 . S
S1100 N1102 1.610 . S
N1101 S1100 1.613 . S
N1101 C1104 1.350 . S
N1102 S1100 1.610 . S
N1102 C1103 1.351 . S
C1103 C1097 1.428 . S
C1103 N1102 1.351 . S
C1103 C1104 1.434 . S
C1104 C1095 1.429 . S
C1104 N1101 1.350 . S
C1104 C1103 1.434 . S
C1105 C1106 1.369 . S
C1105 C1107 1.419 . S
C1105 H1109 0.930 . S
C1106 C1105 1.369 . S
C1106 C1115 1.429 . S
C1107 C1105 1.419 . S
C1107 C1108 1.363 . S
C1107 H1110 0.929 . S
C1108 C1107 1.363 . S
C1108 C1114 1.428 . S
H1109 C1105 0.930 . S
H1110 C1107 0.929 . S
S1111 N1112 1.613 . S
S1111 N1113 1.610 . S
N1112 S1111 1.613 . S
N1112 C1115 1.350 . S
N1113 S1111 1.610 . S
N1113 C1114 1.351 . S
C1114 C1108 1.428 . S
C1114 N1113 1.351 . S
C1114 C1115 1.434 . S
C1115 C1106 1.429 . S
C1115 N1112 1.350 . S
C1115 C1114 1.434 . S
C1116 C1117 1.369 . S
C1116 C1118 1.419 . S
C1116 H1120 0.930 . S
C1117 C1116 1.369 . S
C1117 C1126 1.429 . S
C1118 C1116 1.419 . S
C1118 C1119 1.363 . S
C1118 H1121 0.929 . S
C1119 C1118 1.363 . S
C1119 C1125 1.428 . S
H1120 C1116 0.930 . S
H1121 C1118 0.929 . S
S1122 N1123 1.613 . S
S1122 N1124 1.610 1_565 S
N1123 S1122 1.613 . S
N1123 C1126 1.350 1_565 S
N1124 S1122 1.610 1_545 S
N1124 C1125 1.351 . S
C1125 C1119 1.428 . S
C1125 N1124 1.351 . S
C1125 C1126 1.434 . S
C1126 C1117 1.429 . S
C1126 N1123 1.350 1_545 S
C1126 C1125 1.434 . S
C1127 C1128 1.369 . S
C1127 C1129 1.419 . S
C1127 H1131 0.930 . S
C1128 C1127 1.369 . S
C1128 C1137 1.429 . S
C1129 C1127 1.419 . S
C1129 C1130 1.363 . S
C1129 H1132 0.929 . S
C1130 C1129 1.363 . S
C1130 C1136 1.428 . S
H1131 C1127 0.930 . S
H1132 C1129 0.929 . S
S1133 N1134 1.613 1_655 S
S1133 N1135 1.610 . S
N1134 S1133 1.613 1_455 S
N1134 C1137 1.350 . S
N1135 S1133 1.610 . S
N1135 C1136 1.351 1_655 S
C1136 C1130 1.428 . S
C1136 N1135 1.351 1_455 S
C1136 C1137 1.434 . S
C1137 C1128 1.429 . S
C1137 N1134 1.350 . S
C1137 C1136 1.434 . S
C1138 C1139 1.369 . S
C1138 C1140 1.419 . S
C1138 H1142 0.930 . S
C1139 C1138 1.369 . S
C1139 C1148 1.429 . S
C1140 C1138 1.419 . S
C1140 C1141 1.363 . S
C1140 H1143 0.929 . S
C1141 C1140 1.363 . S
C1141 C1147 1.428 . S
H1142 C1138 0.930 . S
H1143 C1140 0.929 . S
S1144 N1145 1.613 . S
S1144 N1146 1.610 1_545 S
N1145 S1144 1.613 . S
N1145 C1148 1.350 1_545 S
N1146 S1144 1.610 1_565 S
N1146 C1147 1.351 . S
C1147 C1141 1.428 . S
C1147 N1146 1.351 . S
C1147 C1148 1.434 . S
C1148 C1139 1.429 . S
C1148 N1145 1.350 1_565 S
C1148 C1147 1.434 . S
C1149 C1150 1.369 . S
C1149 C1151 1.419 . S
C1149 H1153 0.930 . S
C1150 C1149 1.369 . S
C1150 C1159 1.429 . S
C1151 C1149 1.419 . S
C1151 C1152 1.363 . S
C1151 H1154 0.929 . S
C1152 C1151 1.363 . S
C1152 C1158 1.428 . S
H1153 C1149 0.930 . S
H1154 C1151 0.929 . S
S1155 N1156 1.613 . S
S1155 N1157 1.610 . S
N1156 S1155 1.613 . S
N1156 C1159 1.350 . S
N1157 S1155 1.610 . S
N1157 C1158 1.351 . S
C1158 C1152 1.428 . S
C1158 N1157 1.351 . S
C1158 C1159 1.434 . S
C1159 C1150 1.429 . S
C1159 N1156 1.350 . S
C1159 C1158 1.434 . S
C545 C90 0.779 . S
C547 C15 0.798 . S
C556 C117 0.780 . S
C558 C49 0.796 . S
C567 C158 0.792 . S
C569 C219 0.784 . S
C578 C253 0.807 . S
C580 C185 0.786 . S
C589 C287 0.780 . S
C591 C362 0.800 . S
C600 C396 0.801 . S
C602 C321 0.783 . S
C611 C430 0.806 . S
C613 C491 0.795 . S
C622 C532 0.793 . S
C624 C457 0.785 . S
C633 C28 1.046 . S
C635 C142 1.064 . S
C644 C62 1.044 . S
C646 C198 1.064 . S
C655 C74 1.044 . S
C657 C232 1.063 . S
C666 C266 1.067 . S
C668 C130 1.050 . S
C677 C300 1.044 . S
C679 C414 1.062 . S
C688 C470 1.051 . S
C690 C334 1.063 . S
C699 C504 1.063 . S
C701 C346 1.056 . S
C710 C516 1.044 . S
C712 C380 1.062 . S
C721 C17 2.974 1_565 S
C723 C511 2.965 . S
C732 C51 2.974 1_655 S
C734 C409 2.966 . S
C743 C445 2.964 . S
C745 C85 2.974 1_545 S
C754 C479 2.969 . S
C756 C119 2.977 1_455 S
C765 C37 2.965 1_554 S
C767 C153 2.974 . S
C776 C69 2.970 1_556 S
C778 C187 2.978 . S
C787 C221 2.976 . S
C789 C105 2.968 1_554 S
C798 C3 2.966 1_556 S
C800 C255 2.975 . S
C809 C241 2.965 . S
C811 C289 2.974 . S
C820 C137 2.969 . S
C822 C323 2.977 . S
C831 C357 2.973 . S
C833 C173 2.965 . S
C842 C207 2.965 . S
C844 C391 2.974 . S
C853 C425 2.976 1_545 S
C855 C309 2.968 . S
C864 C341 2.965 . S
C866 C459 2.974 1_455 S
C875 C493 2.978 1_565 S
C877 C375 2.969 . S
C886 C527 2.976 1_655 S
C888 C275 2.967 . S
C897 C477 1.719 . S
C899 C1 1.724 . S
C908 C35 1.725 . S
C910 C513 1.721 . S
C919 C411 1.721 . S
C921 C71 1.720 . S
C930 C103 1.724 . S
C932 C443 1.720 . S
C941 C139 1.725 . S
C943 C343 1.723 . S
C952 C377 1.719 . S
C954 C171 1.724 . S
C963 C205 1.719 . S
C965 C273 1.721 . S
C974 C307 1.725 . S
C976 C239 1.721 . S
C985 C56 0.906 . S
C987 C6 0.991 1_556 S
C996 C40 0.991 1_554 S
C998 C83 0.901 . S
C1007 C96 0.988 1_556 S
C1009 C124 0.907 . S
C1018 C108 0.994 1_554 S
C1020 C22 0.897 . S
C1029 C164 0.997 . S
C1031 C525 0.893 . S
C1040 C423 0.884 . S
C1042 C176 0.999 . S
C1051 C210 0.997 . S
C1053 C464 0.893 . S
C1062 C244 1.001 . S
C1064 C498 0.887 . S
C1073 C328 0.892 . S
C1075 C278 0.996 . S
C1084 C355 0.892 . S
C1086 C312 0.996 . S
C1095 C368 1.000 . S
C1097 C389 0.888 . S
C1106 C402 0.989 . S
C1108 C294 0.906 . S
C1117 C436 0.989 . S
C1119 C260 0.906 . S
C1128 C151 0.910 . S
C1130 C448 0.989 . S
C1139 C482 0.988 . S
C1141 C192 0.907 . S
C1150 C226 0.900 . S
C1152 C538 0.994 . S
