# Generated by pormake.
# Topology ukg, (4)-cn, num edge types: 1
# Building blocks:
#     Node 0, Type 0, BuildingBlock: CEKHIL_clean_sbu_0, # of connection points: 4
#     Node 1, Type 0, BuildingBlock: CEKHIL_clean_sbu_0, # of connection points: 4
#     Node 2, Type 0, BuildingBlock: CEKHIL_clean_sbu_0, # of connection points: 4
#     Node 3, Type 0, BuildingBlock: CEKHIL_clean_sbu_0, # of connection points: 4
#     Node 4, Type 0, BuildingBlock: CEKHIL_clean_sbu_0, # of connection points: 4
#     Node 5, Type 0, BuildingBlock: CEKHIL_clean_sbu_0, # of connection points: 4
#     Node 6, Type 0, BuildingBlock: CEKHIL_clean_sbu_0, # of connection points: 4
#     Node 7, Type 0, BuildingBlock: CEKHIL_clean_sbu_0, # of connection points: 4
#     Edge 8, Type (0, 0), BuildingBlock: KIFKEQ_clean_linker_1, # of connection points: 2
#     Edge 9, Type (0, 0), BuildingBlock: KIFKEQ_clean_linker_1, # of connection points: 2
#     Edge 10, Type (0, 0), BuildingBlock: KIFKEQ_clean_linker_1, # of connection points: 2
#     Edge 11, Type (0, 0), BuildingBlock: KIFKEQ_clean_linker_1, # of connection points: 2
#     Edge 12, Type (0, 0), BuildingBlock: KIFKEQ_clean_linker_1, # of connection points: 2
#     Edge 13, Type (0, 0), BuildingBlock: KIFKEQ_clean_linker_1, # of connection points: 2
#     Edge 14, Type (0, 0), BuildingBlock: KIFKEQ_clean_linker_1, # of connection points: 2
#     Edge 15, Type (0, 0), BuildingBlock: KIFKEQ_clean_linker_1, # of connection points: 2
#     Edge 16, Type (0, 0), BuildingBlock: KIFKEQ_clean_linker_1, # of connection points: 2
#     Edge 17, Type (0, 0), BuildingBlock: KIFKEQ_clean_linker_1, # of connection points: 2
#     Edge 18, Type (0, 0), BuildingBlock: KIFKEQ_clean_linker_1, # of connection points: 2
#     Edge 19, Type (0, 0), BuildingBlock: KIFKEQ_clean_linker_1, # of connection points: 2
#     Edge 20, Type (0, 0), BuildingBlock: KIFKEQ_clean_linker_1, # of connection points: 2
#     Edge 21, Type (0, 0), BuildingBlock: KIFKEQ_clean_linker_1, # of connection points: 2
#     Edge 22, Type (0, 0), BuildingBlock: KIFKEQ_clean_linker_1, # of connection points: 2
#     Edge 23, Type (0, 0), BuildingBlock: KIFKEQ_clean_linker_1, # of connection points: 2
# Relax obj value: 0.122
# Max RMSD: 0.207
# Mean RMSD: 0.202
data_MOF--net-ukg--node1-CEKHIL_clean_sbu_0--edge1-KIFKEQ_clean_linker_1
_symmetry_space_group_name_H-M    P1
_symmetry_Int_Tables_number       1
_symmetry_cell_setting            triclinic
loop_
_symmetry_equiv_pos_as_xyz
'x, y, z'
_cell_length_a     30.7742
_cell_length_b     30.275437
_cell_length_c     38.258377
_cell_angle_alpha  90.043855
_cell_angle_beta   90.067835
_cell_angle_gamma 89.750786
loop_
_atom_site_label
_atom_site_type_symbol
_atom_site_fract_x
_atom_site_fract_y
_atom_site_fract_z
_atom_type_partial_charge
Co0 Co 0.0326 0.62232 0.15457 0.0
O1 O 0.05701 0.57025 0.13365 0.0
O2 O 0.03638 0.62968 0.10423 0.0
C3 C 0.98286 0.58784 0.1882 0.0
O4 O 0.00438 0.68108 0.16794 0.0
Co5 Co 0.04136 0.63538 0.23507 0.0
O6 O 0.99314 0.67761 0.22609 0.0
C7 C 0.11529 0.65793 0.18909 0.0
C8 C 0.05112 0.5893 0.10368 0.0
C9 C 0.9867 0.69534 0.19631 0.0
O10 O 0.09237 0.64876 0.1618 0.0
O11 O 0.10178 0.65175 0.22037 0.0
O12 O 0.97556 0.59502 0.15532 0.0
O13 O 0.022 0.59627 0.19854 0.0
Co14 Co 0.33046 0.50141 0.62468 0.0
O15 O 0.38541 0.51567 0.60393 0.0
O16 O 0.32813 0.49249 0.57431 0.0
C17 C 0.35756 0.45875 0.66768 0.0
O18 O 0.26937 0.48167 0.63879 0.0
Co19 Co 0.31356 0.53479 0.70051 0.0
O20 O 0.26093 0.49775 0.69612 0.0
C21 C 0.30927 0.59729 0.64199 0.0
C22 C 0.36895 0.50382 0.57425 0.0
C23 C 0.24764 0.48067 0.66761 0.0
O24 O 0.3106 0.56495 0.62013 0.0
O25 O 0.31493 0.59249 0.67491 0.0
O26 O 0.35163 0.44287 0.63657 0.0
O27 O 0.35181 0.5009 0.67073 0.0
Co28 Co 0.46804 0.88145 0.15761 0.0
O29 O 0.44435 0.93511 0.13835 0.0
O30 O 0.46438 0.87679 0.10719 0.0
C31 C 0.5184 0.91311 0.19255 0.0
O32 O 0.49538 0.82151 0.16851 0.0
Co33 Co 0.45988 0.86321 0.23745 0.0
O34 O 0.50685 0.82019 0.22669 0.0
C35 C 0.38505 0.84526 0.19088 0.0
C36 C 0.45029 0.91738 0.10786 0.0
C37 C 0.51277 0.80467 0.19608 0.0
O38 O 0.40788 0.85556 0.16386 0.0
O39 O 0.39897 0.84928 0.22231 0.0
O40 O 0.52549 0.90774 0.15943 0.0
O41 O 0.47918 0.90464 0.2026 0.0
Co42 Co 0.16329 0.98898 0.63798 0.0
O43 O 0.10775 0.97887 0.61658 0.0
O44 O 0.16526 0.00383 0.5884 0.0
C45 C 0.13806 0.02658 0.68436 0.0
O46 O 0.22511 0.00511 0.6533 0.0
Co47 Co 0.1799 0.94576 0.71064 0.0
O48 O 0.2346 0.97995 0.70843 0.0
C49 C 0.181 0.89078 0.64758 0.0
C50 C 0.1242 0.99336 0.5877 0.0
C51 C 0.24776 0.00087 0.68156 0.0
O52 O 0.18127 0.9257 0.62838 0.0
O53 O 0.17523 0.89173 0.68068 0.0
O54 O 0.14417 0.04644 0.65477 0.0
O55 O 0.14232 0.98414 0.68385 0.0
Co56 Co 0.97971 0.30261 0.86666 0.0
O57 O 0.94081 0.27853 0.90095 0.0
O58 O 0.92203 0.32798 0.86118 0.0
C59 C 0.00682 0.23647 0.85032 0.0
O60 O 0.01075 0.33262 0.82558 0.0
Co61 Co 0.07969 0.29005 0.87302 0.0
O62 O 0.07732 0.30191 0.82215 0.0
C63 C 0.03561 0.36061 0.91399 0.0
C64 C 0.91017 0.30107 0.88591 0.0
C65 C 0.04646 0.32461 0.80903 0.0
O66 O 0.9987 0.35134 0.89972 0.0
O67 O 0.07045 0.33852 0.90803 0.0
O68 O 0.9702 0.25066 0.83776 0.0
O69 O 0.02416 0.26087 0.87425 0.0
Co70 Co 0.62886 0.47289 0.33342 0.0
O71 O 0.57247 0.45403 0.34841 0.0
O72 O 0.62758 0.46641 0.38408 0.0
C73 C 0.60509 0.52802 0.29865 0.0
O74 O 0.69106 0.49475 0.32603 0.0
Co75 Co 0.65089 0.46432 0.25412 0.0
O76 O 0.6974 0.50597 0.26791 0.0
C77 C 0.66014 0.38645 0.30018 0.0
C78 C 0.58656 0.45692 0.3802 0.0
C79 C 0.71126 0.51009 0.29915 0.0
O80 O 0.64935 0.40986 0.32696 0.0
O81 O 0.65949 0.40127 0.26882 0.0
O82 O 0.60869 0.53366 0.3321 0.0
O83 O 0.61063 0.48791 0.28787 0.0
Co84 Co 0.52883 0.19787 0.86571 0.0
O85 O 0.56824 0.22796 0.89635 0.0
O86 O 0.58652 0.17121 0.86309 0.0
C87 C 0.50167 0.25938 0.84076 0.0
O88 O 0.49573 0.16096 0.82945 0.0
Co89 Co 0.42959 0.21394 0.87548 0.0
O90 O 0.42824 0.19027 0.82705 0.0
C91 C 0.47552 0.15221 0.9225 0.0
C92 C 0.59862 0.20237 0.8845 0.0
C93 C 0.45819 0.16561 0.81471 0.0
O94 O 0.51043 0.15623 0.90424 0.0
O95 O 0.44102 0.17506 0.91713 0.0
O96 O 0.53823 0.24262 0.83033 0.0
O97 O 0.48531 0.24153 0.86847 0.0
Co98 Co 0.87139 0.02424 0.34192 0.0
O99 O 0.92682 0.04459 0.35828 0.0
O100 O 0.87071 0.03138 0.39257 0.0
C101 C 0.89785 0.96937 0.30804 0.0
O102 O 0.80992 0.0009 0.33308 0.0
Co103 Co 0.85195 0.03055 0.26188 0.0
O104 O 0.80618 0.98779 0.27505 0.0
C105 C 0.83996 0.1093 0.3068 0.0
C106 C 0.91164 0.04174 0.38972 0.0
C107 C 0.79112 0.98427 0.30595 0.0
O108 O 0.84978 0.08673 0.33429 0.0
O109 O 0.84226 0.09373 0.2757 0.0
O110 O 0.89313 0.96386 0.34141 0.0
O111 O 0.8915 0.00919 0.29701 0.0
H112 H 0.10932 0.39444 0.94312 0.0
H113 H 0.97016 0.41454 0.93941 0.0
H114 H 0.11615 0.45506 0.98409 0.0
H115 H 0.97726 0.47541 0.98126 0.0
H116 H 0.09913 0.51512 0.09417 0.0
H117 H 0.09606 0.46388 0.04534 0.0
H118 H 0.00806 0.55171 0.991 0.0
H119 H 0.01107 0.60336 0.04047 0.0
C120 C 0.08003 0.41169 0.95102 0.0
C121 C 0.03902 0.39896 0.93821 0.0
C122 C 0.08407 0.44659 0.97459 0.0
C123 C 0.04727 0.46986 0.98619 0.0
C124 C 0.0063 0.45831 0.97261 0.0
C125 C 0.00221 0.42319 0.94886 0.0
C126 C 0.07982 0.524 0.07152 0.0
C127 C 0.05543 0.56329 0.07112 0.0
C128 C 0.07808 0.49463 0.04346 0.0
C129 C 0.0516 0.50357 0.01432 0.0
C130 C 0.0284 0.54371 0.01325 0.0
C131 C 0.03056 0.57351 0.04133 0.0
H132 H 0.35758 0.45029 0.51721 0.0
H133 H 0.446 0.54454 0.56263 0.0
H134 H 0.41085 0.43346 0.4718 0.0
H135 H 0.49839 0.52956 0.51658 0.0
H136 H 0.60267 0.46738 0.45057 0.0
H137 H 0.54894 0.47701 0.49699 0.0
H138 H 0.44566 0.45848 0.42172 0.0
H139 H 0.49902 0.44669 0.37622 0.0
C140 C 0.38797 0.4682 0.51694 0.0
C141 C 0.39756 0.49877 0.54341 0.0
C142 C 0.41869 0.45852 0.49096 0.0
C143 C 0.45946 0.47968 0.49058 0.0
C144 C 0.46807 0.51156 0.51642 0.0
C145 C 0.4377 0.5207 0.5426 0.0
C146 C 0.5685 0.46445 0.4442 0.0
C147 C 0.55525 0.45632 0.40968 0.0
C148 C 0.53756 0.47058 0.47069 0.0
C149 C 0.49264 0.46925 0.46318 0.0
C150 C 0.4797 0.45936 0.42883 0.0
C151 C 0.51052 0.45273 0.40256 0.0
H152 H 0.3918 0.98216 0.09266 0.0
H153 H 0.50617 0.91664 0.05305 0.0
H154 H 0.39621 0.03644 0.04596 0.0
H155 H 0.51352 0.97289 0.00822 0.0
H156 H 0.50597 0.06802 0.91733 0.0
H157 H 0.49526 0.00756 0.95823 0.0
H158 H 0.43168 0.09793 0.02982 0.0
H159 H 0.4392 0.15692 0.98724 0.0
C160 C 0.41772 0.9793 0.07364 0.0
C161 C 0.44839 0.9451 0.0762 0.0
C162 C 0.4209 0.01095 0.04716 0.0
C163 C 0.45592 0.01025 0.02337 0.0
C164 C 0.4857 0.97476 0.02541 0.0
C165 C 0.48158 0.94227 0.05121 0.0
C166 C 0.48994 0.07476 0.94198 0.0
C167 C 0.47352 0.11709 0.94923 0.0
C168 C 0.48382 0.04007 0.96563 0.0
C169 C 0.46222 0.04715 0.99768 0.0
C170 C 0.44716 0.09024 0.00518 0.0
C171 C 0.45205 0.12449 0.981 0.0
H172 H 0.89314 0.03152 0.45969 0.0
H173 H 0.99911 0.05395 0.38809 0.0
H174 H 0.94525 0.02299 0.5075 0.0
H175 H 0.05096 0.04328 0.435 0.0
H176 H 0.13638 0.04957 0.53224 0.0
H177 H 0.08412 0.0677 0.48619 0.0
H178 H 0.99537 0.97082 0.52797 0.0
H179 H 0.04663 0.95451 0.57453 0.0
C180 C 0.92747 0.0351 0.45422 0.0
C181 C 0.94184 0.04329 0.42003 0.0
C182 C 0.95751 0.02961 0.48153 0.0
C183 C 0.00267 0.03166 0.47521 0.0
C184 C 0.0167 0.04182 0.44121 0.0
C185 C 0.98674 0.04778 0.41412 0.0
C186 C 0.10587 0.03192 0.53125 0.0
C187 C 0.09568 0.0006 0.55696 0.0
C188 C 0.07575 0.04231 0.50488 0.0
C189 C 0.03497 0.02116 0.50337 0.0
C190 C 0.02566 0.98884 0.52864 0.0
C191 C 0.05542 0.97897 0.55515 0.0
H192 H 0.18014 0.66606 0.23725 0.0
H193 H 0.14588 0.70277 0.1316 0.0
H194 H 0.24383 0.71289 0.23432 0.0
H195 H 0.20968 0.75071 0.12895 0.0
H196 H 0.35403 0.80227 0.13261 0.0
H197 H 0.28976 0.75504 0.12908 0.0
H198 H 0.25551 0.79149 0.23472 0.0
H199 H 0.31972 0.83757 0.2385 0.0
C200 C 0.18634 0.68388 0.21325 0.0
C201 C 0.15756 0.68087 0.18479 0.0
C202 C 0.22274 0.71114 0.21167 0.0
C203 C 0.23135 0.7365 0.18171 0.0
C204 C 0.20396 0.73174 0.15246 0.0
C205 C 0.16745 0.70416 0.15398 0.0
C206 C 0.33231 0.80079 0.15483 0.0
C207 C 0.34234 0.82335 0.18599 0.0
C208 C 0.29552 0.77362 0.15283 0.0
C209 C 0.26802 0.76859 0.18191 0.0
C210 C 0.27669 0.79344 0.21218 0.0
C211 C 0.31337 0.82026 0.21425 0.0
H212 H 0.33589 0.6766 0.66714 0.0
H213 H 0.25103 0.6175 0.5904 0.0
H214 H 0.30274 0.74874 0.65587 0.0
H215 H 0.21693 0.68991 0.58002 0.0
H216 H 0.14891 0.8101 0.66401 0.0
H217 H 0.18203 0.73855 0.6504 0.0
H218 H 0.27724 0.80302 0.58578 0.0
H219 H 0.24324 0.87487 0.59842 0.0
C220 C 0.31095 0.67928 0.64723 0.0
C221 C 0.29594 0.64152 0.62969 0.0
C222 C 0.29218 0.72048 0.64072 0.0
C223 C 0.25761 0.72452 0.61702 0.0
C224 C 0.24396 0.68739 0.59809 0.0
C225 C 0.26349 0.64617 0.60401 0.0
C226 C 0.17583 0.80883 0.6458 0.0
C227 C 0.19357 0.84789 0.63226 0.0
C228 C 0.19464 0.76799 0.63799 0.0
C229 C 0.2319 0.76565 0.61702 0.0
C230 C 0.24814 0.80425 0.60166 0.0
C231 C 0.22865 0.84516 0.60883 0.0
H232 H 0.6722 0.15493 0.86698 0.0
H233 H 0.62964 0.27662 0.91543 0.0
H234 H 0.74791 0.17997 0.87135 0.0
H235 H 0.70458 0.30168 0.91877 0.0
H236 H 0.83708 0.34599 0.86437 0.0
H237 H 0.76159 0.32052 0.86782 0.0
H238 H 0.80388 0.20356 0.92267 0.0
H239 H 0.87886 0.22928 0.92022 0.0
C240 C 0.67896 0.18661 0.87894 0.0
C241 C 0.64485 0.21365 0.89089 0.0
C242 C 0.72219 0.20097 0.88137 0.0
C243 C 0.7319 0.24296 0.8951 0.0
C244 C 0.69794 0.2694 0.90779 0.0
C245 C 0.65503 0.25476 0.90606 0.0
C246 C 0.83014 0.31534 0.87779 0.0
C247 C 0.86396 0.28985 0.89216 0.0
C248 C 0.78703 0.30069 0.87965 0.0
C249 C 0.77711 0.25985 0.89521 0.0
C250 C 0.81073 0.23492 0.91026 0.0
C251 C 0.85359 0.24997 0.9091 0.0
H252 H 0.69837 0.35404 0.35974 0.0
H253 H 0.66824 0.31951 0.25286 0.0
H254 H 0.74449 0.2884 0.36456 0.0
H255 H 0.71318 0.25362 0.25796 0.0
H256 H 0.83588 0.17538 0.25864 0.0
H257 H 0.79026 0.24103 0.26036 0.0
H258 H 0.74946 0.2078 0.36508 0.0
H259 H 0.79626 0.14232 0.36366 0.0
C260 C 0.70061 0.33185 0.33759 0.0
C261 C 0.67997 0.34228 0.30577 0.0
C262 C 0.72721 0.29429 0.34033 0.0
C263 C 0.73348 0.26635 0.31136 0.0
C264 C 0.71027 0.27521 0.28043 0.0
C265 C 0.68406 0.31276 0.27762 0.0
C266 C 0.8178 0.18243 0.2823 0.0
C267 C 0.8195 0.15341 0.3109 0.0
C268 C 0.7912 0.21983 0.28315 0.0
C269 C 0.76519 0.22904 0.31248 0.0
C270 C 0.76893 0.2016 0.34202 0.0
C271 C 0.79593 0.16417 0.34126 0.0
H272 H 0.78698 0.46985 0.31738 0.0
H273 H 0.73198 0.59442 0.28498 0.0
H274 H 0.85889 0.49425 0.29799 0.0
H275 H 0.80363 0.61929 0.26634 0.0
H276 H 0.89716 0.59519 0.17373 0.0
H277 H 0.83609 0.58387 0.21247 0.0
H278 H 0.92375 0.55091 0.2968 0.0
H279 H 0.98602 0.56298 0.25751 0.0
C280 C 0.79083 0.5034 0.30808 0.0
C281 C 0.75424 0.53042 0.30271 0.0
C282 C 0.8319 0.51729 0.29679 0.0
C283 C 0.83658 0.55829 0.27999 0.0
C284 C 0.80079 0.58726 0.27873 0.0
C285 C 0.75989 0.57329 0.28973 0.0
C286 C 0.90369 0.58562 0.20051 0.0
C287 C 0.94644 0.57973 0.21251 0.0
C288 C 0.86861 0.57965 0.22288 0.0
C289 C 0.87514 0.5672 0.25785 0.0
C290 C 0.91786 0.56083 0.27002 0.0
C291 C 0.95335 0.56759 0.24758 0.0
H292 H 0.37328 0.48185 0.73603 0.0
H293 H 0.37387 0.37096 0.66476 0.0
H294 H 0.40441 0.43432 0.78187 0.0
H295 H 0.40493 0.3243 0.71012 0.0
H296 H 0.52424 0.28714 0.7762 0.0
H297 H 0.4842 0.33628 0.73764 0.0
H298 H 0.38586 0.35451 0.81672 0.0
H299 H 0.42598 0.30415 0.85582 0.0
C300 C 0.37951 0.44736 0.73032 0.0
C301 C 0.3718 0.43022 0.69673 0.0
C302 C 0.39702 0.42026 0.75652 0.0
C303 C 0.40726 0.37598 0.7492 0.0
C304 C 0.39758 0.3585 0.71618 0.0
C305 C 0.37987 0.38527 0.69026 0.0
C306 C 0.49425 0.3017 0.78563 0.0
C307 C 0.47809 0.29167 0.81898 0.0
C308 C 0.47132 0.32971 0.76347 0.0
C309 C 0.43197 0.34874 0.77426 0.0
C310 C 0.41625 0.3401 0.808 0.0
C311 C 0.43906 0.31135 0.83019 0.0
H312 H 0.51584 0.93454 0.26264 0.0
H313 H 0.60397 0.90537 0.17783 0.0
H314 H 0.57843 0.94434 0.30215 0.0
H315 H 0.66535 0.91451 0.21673 0.0
H316 H 0.77017 0.90092 0.28839 0.0
H317 H 0.69844 0.87711 0.269 0.0
H318 H 0.64329 9e-05 0.30552 0.0
H319 H 0.71531 0.02335 0.32574 0.0
C320 C 0.54842 0.93009 0.25252 0.0
C321 C 0.55503 0.91951 0.2171 0.0
C322 C 0.5841 0.93557 0.27509 0.0
C323 C 0.62673 0.92948 0.26266 0.0
C324 C 0.63294 0.91849 0.22734 0.0
C325 C 0.59766 0.91377 0.20488 0.0
C326 C 0.74229 0.92176 0.29397 0.0
C327 C 0.74804 0.96382 0.30857 0.0
C328 C 0.70133 0.9084 0.28255 0.0
C329 C 0.66552 0.93723 0.28497 0.0
C330 C 0.67029 0.97718 0.30335 0.0
C331 C 0.71144 0.99042 0.31511 0.0
H332 H 0.09366 0.21679 0.8526 0.0
H333 H 0.97073 0.1705 0.8124 0.0
H334 H 0.1315 0.15975 0.81868 0.0
H335 H 0.00847 0.11282 0.77956 0.0
H336 H 0.15828 0.11141 0.69924 0.0
H337 H 0.13116 0.15614 0.74776 0.0
H338 H 0.06316 0.04298 0.78857 0.0
H339 H 0.09137 -0.00235 0.74032 0.0
C340 C 0.07471 0.19388 0.83717 0.0
C341 C 0.02937 0.1984 0.83461 0.0
C342 C 0.09633 0.1613 0.81791 0.0
C343 C 0.07275 0.13207 0.79671 0.0
C344 C 0.02725 0.13477 0.79603 0.0
C345 C 0.00576 0.16793 0.81458 0.0
C346 C 0.13826 0.0959 0.71898 0.0
C347 C 0.12644 0.05135 0.71603 0.0
C348 C 0.1231 0.12135 0.74681 0.0
C349 C 0.09519 0.10282 0.77172 0.0
C350 C 0.08479 0.05778 0.76962 0.0
C351 C 0.10085 0.03199 0.74215 0.0
H352 H 0.04514 0.41272 0.79616 0.0
H353 H 0.07258 0.28679 0.74837 0.0
H354 H 0.08454 0.44986 0.74975 0.0
H355 H 0.10937 0.32366 0.70019 0.0
H356 H 0.23885 0.39236 0.67128 0.0
H357 H 0.17731 0.35357 0.696 0.0
H358 H 0.10252 0.47504 0.69502 0.0
H359 H 0.16587 0.51399 0.67235 0.0
C360 C 0.05773 0.39323 0.77463 0.0
C361 C 0.05609 0.34703 0.77581 0.0
C362 C 0.08045 0.41447 0.74782 0.0
C363 C 0.10137 0.38985 0.72129 0.0
C364 C 0.09516 0.34378 0.72063 0.0
C365 C 0.07347 0.32258 0.74794 0.0
C366 C 0.2086 0.41021 0.67506 0.0
C367 C 0.2068 0.4559 0.66972 0.0
C368 C 0.17303 0.38804 0.68933 0.0
C369 C 0.13465 0.41112 0.69828 0.0
C370 C 0.1317 0.45623 0.68947 0.0
C371 C 0.16769 0.47853 0.67588 0.0
H372 H 0.58412 0.52856 0.22861 0.0
H373 H 0.61466 0.61386 0.31571 0.0
H374 H 0.57151 0.59396 0.19172 0.0
H375 H 0.60202 0.67805 0.27968 0.0
H376 H 0.59595 0.79139 0.2156 0.0
H377 H 0.62854 0.72029 0.23071 0.0
H378 H 0.51511 0.65358 0.19047 0.0
H379 H 0.48366 0.72494 0.17387 0.0
C380 C 0.58854 0.56116 0.2397 0.0
C381 C 0.59988 0.5662 0.27507 0.0
C382 C 0.58137 0.59847 0.21867 0.0
C383 C 0.58619 0.64121 0.23264 0.0
C384 C 0.59894 0.64576 0.26774 0.0
C385 C 0.60562 0.60883 0.28862 0.0
C386 C 0.57906 0.76132 0.20855 0.0
C387 C 0.53743 0.76326 0.19379 0.0
C388 C 0.59743 0.72068 0.21743 0.0
C389 C 0.57382 0.68142 0.2127 0.0
C390 C 0.53414 0.68317 0.19442 0.0
C391 C 0.5161 0.72397 0.1849 0.0
H392 H 0.4345 0.19469 0.75054 0.0
H393 H 0.45115 0.07652 0.81175 0.0
H394 H 0.39434 0.15316 0.70651 0.0
H395 H 0.40846 0.03521 0.76951 0.0
H396 H 0.32619 0.96405 0.69596 0.0
H397 H 0.39039 0.00212 0.71786 0.0
H398 H 0.3248 0.12742 0.70241 0.0
H399 H 0.26243 0.08894 0.67823 0.0
C400 C 0.43049 0.15941 0.75396 0.0
C401 C 0.44613 0.13858 0.78424 0.0
C402 C 0.40679 0.13564 0.72907 0.0
C403 C 0.39685 0.09078 0.73453 0.0
C404 C 0.41551 0.06942 0.76379 0.0
C405 C 0.44016 0.09304 0.78821 0.0
C406 C 0.32653 -0.00016 0.69598 0.0
C407 C 0.28969 0.02369 0.6852 0.0
C408 C 0.36302 0.02177 0.70909 0.0
C409 C 0.36289 0.06807 0.71292 0.0
C410 C 0.32688 0.09191 0.69969 0.0
C411 C 0.29085 0.06992 0.68572 0.0
H412 H 0.01201 0.77591 0.17274 0.0
H413 H 0.9062 0.7073 0.22228 0.0
H414 H 0.98225 0.84654 0.19307 0.0
H415 H 0.87542 0.77762 0.24145 0.0
H416 H 0.89745 0.88304 0.32598 0.0
H417 H 0.90905 0.81945 0.28882 0.0
H418 H 0.92398 0.9049 0.19925 0.0
H419 H 0.9124 0.96957 0.23709 0.0
C420 C 0.98117 0.77625 0.18637 0.0
C421 C 0.96145 0.73651 0.19632 0.0
C422 C 0.96416 0.81661 0.19809 0.0
C423 C 0.92714 0.81743 0.21964 0.0
C424 C 0.90458 0.77787 0.22561 0.0
C425 C 0.92189 0.7377 0.21441 0.0
C426 C 0.90294 0.88847 0.29835 0.0
C427 C 0.90428 0.93131 0.28448 0.0
C428 C 0.90906 0.85189 0.2769 0.0
C429 C 0.9168 0.85707 0.24095 0.0
C430 C 0.91792 0.89995 0.22685 0.0
C431 C 0.91139 0.93684 0.24846 0.0
loop_
_geom_bond_atom_site_label_1
_geom_bond_atom_site_label_2
_geom_bond_distance
_geom_bond_site_symmetry_2
_ccdc_geom_bond_type
Co0 O1 2.216 . S
Co0 O2 2.091 . S
Co0 O4 2.004 1_455 S
Co0 O10 2.021 . S
Co0 O12 2.137 1_455 S
Co0 O13 2.244 . S
O1 Co0 2.216 . S
O1 C8 1.247 . S
O2 Co0 2.091 . S
O2 C8 1.261 . S
C3 O12 1.247 . S
C3 O13 1.272 1_655 S
O4 Co0 2.004 1_655 S
O4 C9 1.259 . S
Co5 O6 2.061 . S
Co5 O11 2.052 . S
Co5 O13 2.135 . S
O6 Co5 2.061 . S
O6 C9 1.235 1_455 S
C7 O10 1.238 . S
C7 O11 1.241 . S
C8 O1 1.247 . S
C8 O2 1.261 . S
C9 O4 1.259 . S
C9 O6 1.235 1_655 S
O10 Co0 2.021 . S
O10 C7 1.238 . S
O11 Co5 2.052 . S
O11 C7 1.241 . S
O12 Co0 2.137 1_655 S
O12 C3 1.247 . S
O13 Co0 2.244 . S
O13 C3 1.272 1_455 S
O13 Co5 2.135 . S
Co14 O15 2.216 . S
Co14 O16 2.091 . S
Co14 O18 2.004 . S
Co14 O24 2.021 . S
Co14 O26 2.137 . S
Co14 O27 2.244 . S
O15 Co14 2.216 . S
O15 C22 1.247 . S
O16 Co14 2.091 . S
O16 C22 1.261 . S
C17 O26 1.247 . S
C17 O27 1.272 . S
O18 Co14 2.004 . S
O18 C23 1.259 . S
Co19 O20 2.061 . S
Co19 O25 2.052 . S
Co19 O27 2.135 . S
O20 Co19 2.061 . S
O20 C23 1.235 . S
C21 O24 1.238 . S
C21 O25 1.241 . S
C22 O15 1.247 . S
C22 O16 1.261 . S
C23 O18 1.259 . S
C23 O20 1.235 . S
O24 Co14 2.021 . S
O24 C21 1.238 . S
O25 Co19 2.052 . S
O25 C21 1.241 . S
O26 Co14 2.137 . S
O26 C17 1.247 . S
O27 Co14 2.244 . S
O27 C17 1.272 . S
O27 Co19 2.135 . S
Co28 O29 2.216 . S
Co28 O30 2.091 . S
Co28 O32 2.004 . S
Co28 O38 2.021 . S
Co28 O40 2.137 . S
Co28 O41 2.244 . S
O29 Co28 2.216 . S
O29 C36 1.247 . S
O30 Co28 2.091 . S
O30 C36 1.261 . S
C31 O40 1.247 . S
C31 O41 1.272 . S
O32 Co28 2.004 . S
O32 C37 1.259 . S
Co33 O34 2.061 . S
Co33 O39 2.052 . S
Co33 O41 2.135 . S
O34 Co33 2.061 . S
O34 C37 1.235 . S
C35 O38 1.238 . S
C35 O39 1.241 . S
C36 O29 1.247 . S
C36 O30 1.261 . S
C37 O32 1.259 . S
C37 O34 1.235 . S
O38 Co28 2.021 . S
O38 C35 1.238 . S
O39 Co33 2.052 . S
O39 C35 1.241 . S
O40 Co28 2.137 . S
O40 C31 1.247 . S
O41 Co28 2.244 . S
O41 C31 1.272 . S
O41 Co33 2.135 . S
Co42 O43 2.216 . S
Co42 O44 2.093 . S
Co42 O46 2.004 1_565 S
Co42 O52 2.021 . S
Co42 O54 2.137 1_565 S
Co42 O55 2.244 . S
O43 Co42 2.216 . S
O43 C50 1.247 . S
O44 Co42 2.093 . S
O44 C50 1.267 . S
C45 O54 1.247 . S
C45 O55 1.272 1_545 S
O46 Co42 2.004 1_545 S
O46 C51 1.259 . S
Co47 O48 2.061 . S
Co47 O53 2.052 . S
Co47 O55 2.135 . S
O48 Co47 2.061 . S
O48 C51 1.235 1_565 S
C49 O52 1.238 . S
C49 O53 1.241 . S
C50 O43 1.247 . S
C50 O44 1.267 . S
C51 O46 1.259 . S
C51 O48 1.235 1_545 S
O52 Co42 2.021 . S
O52 C49 1.238 . S
O53 Co47 2.052 . S
O53 C49 1.241 . S
O54 Co42 2.137 1_545 S
O54 C45 1.247 . S
O55 Co42 2.244 . S
O55 C45 1.272 1_565 S
O55 Co47 2.135 . S
Co56 O57 2.216 . S
Co56 O58 2.091 . S
Co56 O60 2.004 1_655 S
Co56 O66 2.021 . S
Co56 O68 2.137 . S
Co56 O69 2.244 1_655 S
O57 Co56 2.216 . S
O57 C64 1.247 . S
O58 Co56 2.091 . S
O58 C64 1.261 . S
C59 O68 1.247 1_455 S
C59 O69 1.272 . S
O60 Co56 2.004 1_455 S
O60 C65 1.259 . S
Co61 O62 2.061 . S
Co61 O67 2.052 . S
Co61 O69 2.135 . S
O62 Co61 2.061 . S
O62 C65 1.235 . S
C63 O66 1.238 . S
C63 O67 1.241 1_655 S
C64 O57 1.247 . S
C64 O58 1.261 . S
C65 O60 1.259 . S
C65 O62 1.235 . S
O66 Co56 2.021 . S
O66 C63 1.238 . S
O67 Co61 2.052 . S
O67 C63 1.241 1_455 S
O68 Co56 2.137 . S
O68 C59 1.247 1_655 S
O69 Co56 2.244 1_455 S
O69 C59 1.272 . S
O69 Co61 2.135 . S
Co70 O71 2.216 . S
Co70 O72 2.091 . S
Co70 O74 2.004 . S
Co70 O80 2.021 . S
Co70 O82 2.137 . S
Co70 O83 2.244 . S
O71 Co70 2.216 . S
O71 C78 1.247 . S
O72 Co70 2.091 . S
O72 C78 1.261 . S
C73 O82 1.247 . S
C73 O83 1.272 . S
O74 Co70 2.004 . S
O74 C79 1.259 . S
Co75 O76 2.061 . S
Co75 O81 2.052 . S
Co75 O83 2.135 . S
O76 Co75 2.061 . S
O76 C79 1.235 . S
C77 O80 1.238 . S
C77 O81 1.241 . S
C78 O71 1.247 . S
C78 O72 1.261 . S
C79 O74 1.259 . S
C79 O76 1.235 . S
O80 Co70 2.021 . S
O80 C77 1.238 . S
O81 Co75 2.052 . S
O81 C77 1.241 . S
O82 Co70 2.137 . S
O82 C73 1.247 . S
O83 Co70 2.244 . S
O83 C73 1.272 . S
O83 Co75 2.135 . S
Co84 O85 2.216 . S
Co84 O86 2.091 . S
Co84 O88 2.004 . S
Co84 O94 2.021 . S
Co84 O96 2.137 . S
Co84 O97 2.244 . S
O85 Co84 2.216 . S
O85 C92 1.247 . S
O86 Co84 2.091 . S
O86 C92 1.261 . S
C87 O96 1.247 . S
C87 O97 1.272 . S
O88 Co84 2.004 . S
O88 C93 1.259 . S
Co89 O90 2.061 . S
Co89 O95 2.052 . S
Co89 O97 2.135 . S
O90 Co89 2.061 . S
O90 C93 1.235 . S
C91 O94 1.238 . S
C91 O95 1.241 . S
C92 O85 1.247 . S
C92 O86 1.261 . S
C93 O88 1.259 . S
C93 O90 1.235 . S
O94 Co84 2.021 . S
O94 C91 1.238 . S
O95 Co89 2.052 . S
O95 C91 1.241 . S
O96 Co84 2.137 . S
O96 C87 1.247 . S
O97 Co84 2.244 . S
O97 C87 1.272 . S
O97 Co89 2.135 . S
Co98 O99 2.216 . S
Co98 O100 2.087 1_545 S
Co98 O102 2.004 1_545 S
Co98 O108 2.021 . S
Co98 O110 2.137 1_545 S
Co98 O111 2.244 . S
O99 Co98 2.216 . S
O99 C106 1.247 . S
O100 Co98 2.087 1_565 S
O100 C106 1.250 1_565 S
C101 O110 1.247 . S
C101 O111 1.272 1_565 S
O102 Co98 2.004 1_565 S
O102 C107 1.259 . S
Co103 O104 2.061 . S
Co103 O109 2.052 . S
Co103 O111 2.135 . S
O104 Co103 2.061 . S
O104 C107 1.235 1_545 S
C105 O108 1.238 . S
C105 O109 1.241 . S
C106 O99 1.247 . S
C106 O100 1.250 1_545 S
C107 O102 1.259 . S
C107 O104 1.235 1_565 S
O108 Co98 2.021 . S
O108 C105 1.238 . S
O109 Co103 2.052 . S
O109 C105 1.241 . S
O110 Co98 2.137 1_565 S
O110 C101 1.247 . S
O111 Co98 2.244 . S
O111 C101 1.272 1_545 S
O111 Co103 2.135 . S
H112 C120 0.950 . S
H113 C125 0.950 . S
H114 C122 0.950 . S
H115 C124 0.950 1_554 S
H116 C126 0.950 . S
H117 C128 0.950 . S
H118 C130 0.950 1_556 S
H119 C131 0.950 . S
C120 H112 0.950 . S
C120 C121 1.386 1_455 S
C120 C122 1.391 . S
C121 C120 1.386 1_655 S
C121 C125 1.393 . S
C122 H114 0.950 . S
C122 C120 1.391 . S
C122 C123 1.400 . S
C123 C122 1.400 . S
C123 C124 1.398 1_455 S
C123 C129 1.491 1_556 S
C124 H115 0.950 1_556 S
C124 C123 1.398 1_655 S
C124 C125 1.391 . S
C125 H113 0.950 . S
C125 C121 1.393 . S
C125 C124 1.391 . S
C126 H116 0.950 . S
C126 C127 1.386 1_655 S
C126 C128 1.391 . S
C127 C126 1.386 1_455 S
C127 C131 1.393 . S
C128 H117 0.950 . S
C128 C126 1.391 . S
C128 C129 1.400 1_655 S
C129 C123 1.491 1_554 S
C129 C128 1.400 1_455 S
C129 C130 1.398 . S
C130 H118 0.950 1_554 S
C130 C129 1.398 . S
C130 C131 1.391 . S
C131 H119 0.950 . S
C131 C127 1.393 . S
C131 C130 1.391 . S
H132 C140 0.950 . S
H133 C145 0.950 . S
H134 C142 0.950 . S
H135 C144 0.950 . S
H136 C146 0.950 . S
H137 C148 0.950 . S
H138 C150 0.950 . S
H139 C151 0.950 . S
C140 H132 0.950 . S
C140 C141 1.386 . S
C140 C142 1.391 . S
C141 C140 1.386 . S
C141 C145 1.393 . S
C142 H134 0.950 . S
C142 C140 1.391 . S
C142 C143 1.400 . S
C143 C142 1.400 . S
C143 C144 1.398 . S
C143 C149 1.491 . S
C144 H135 0.950 . S
C144 C143 1.398 . S
C144 C145 1.391 . S
C145 H133 0.950 . S
C145 C141 1.393 . S
C145 C144 1.391 . S
C146 H136 0.950 . S
C146 C147 1.386 . S
C146 C148 1.391 . S
C147 C146 1.386 . S
C147 C151 1.393 . S
C148 H137 0.950 . S
C148 C146 1.391 . S
C148 C149 1.400 . S
C149 C143 1.491 . S
C149 C148 1.400 . S
C149 C150 1.398 . S
C150 H138 0.950 . S
C150 C149 1.398 . S
C150 C151 1.391 . S
C151 H139 0.950 . S
C151 C147 1.393 . S
C151 C150 1.391 . S
H152 C160 0.950 . S
H153 C165 0.950 . S
H154 C162 0.950 1_545 S
H155 C164 0.943 1_556 S
H156 C166 0.950 . S
H157 C168 0.950 . S
H158 C170 0.950 . S
H159 C171 0.950 . S
C160 H152 0.950 . S
C160 C161 1.386 . S
C160 C162 1.391 . S
C161 C160 1.386 . S
C161 C165 1.393 . S
C162 H154 0.950 1_565 S
C162 C160 1.391 . S
C162 C163 1.400 . S
C163 C162 1.400 . S
C163 C164 1.398 . S
C163 C169 1.491 1_564 S
C164 H155 0.943 1_554 S
C164 C163 1.398 . S
C164 C165 1.391 . S
C165 H153 0.950 . S
C165 C161 1.393 . S
C165 C164 1.391 . S
C166 H156 0.950 . S
C166 C167 1.386 . S
C166 C168 1.391 . S
C167 C166 1.386 . S
C167 C171 1.393 . S
C168 H157 0.950 . S
C168 C166 1.391 . S
C168 C169 1.400 . S
C169 C163 1.491 1_546 S
C169 C168 1.400 . S
C169 C170 1.398 . S
C170 H158 0.950 . S
C170 C169 1.398 . S
C170 C171 1.391 . S
C171 H159 0.950 . S
C171 C167 1.393 . S
C171 C170 1.391 . S
H172 C180 0.950 . S
H173 C185 0.950 . S
H174 C182 0.950 . S
H175 C184 0.950 1_455 S
H176 C186 0.950 . S
H177 C188 0.950 1_545 S
H178 C190 0.938 1_655 S
H179 C191 0.950 . S
C180 H172 0.950 . S
C180 C181 1.386 . S
C180 C182 1.391 1_545 S
C181 C180 1.386 . S
C181 C185 1.393 . S
C182 H174 0.950 . S
C182 C180 1.391 1_565 S
C182 C183 1.400 1_565 S
C183 C182 1.400 1_545 S
C183 C184 1.398 . S
C183 C189 1.491 1_645 S
C184 H175 0.950 1_655 S
C184 C183 1.398 . S
C184 C185 1.391 . S
C185 H173 0.950 . S
C185 C181 1.393 . S
C185 C184 1.391 . S
C186 H176 0.950 . S
C186 C187 1.386 . S
C186 C188 1.391 . S
C187 C186 1.386 . S
C187 C191 1.393 . S
C188 H177 0.950 1_565 S
C188 C186 1.391 . S
C188 C189 1.400 . S
C189 C183 1.491 1_465 S
C189 C188 1.400 . S
C189 C190 1.401 . S
C190 H178 0.938 1_455 S
C190 C189 1.401 . S
C190 C191 1.400 . S
C191 H179 0.950 . S
C191 C187 1.393 . S
C191 C190 1.400 . S
H192 C200 0.950 . S
H193 C205 0.950 . S
H194 C202 0.950 . S
H195 C204 0.950 . S
H196 C206 0.950 . S
H197 C208 0.950 . S
H198 C210 0.950 . S
H199 C211 0.950 . S
C200 H192 0.950 . S
C200 C201 1.386 . S
C200 C202 1.391 . S
C201 C200 1.386 . S
C201 C205 1.393 . S
C202 H194 0.950 . S
C202 C200 1.391 . S
C202 C203 1.400 . S
C203 C202 1.400 . S
C203 C204 1.398 . S
C203 C209 1.491 . S
C204 H195 0.950 . S
C204 C203 1.398 . S
C204 C205 1.391 . S
C205 H193 0.950 . S
C205 C201 1.393 . S
C205 C204 1.391 . S
C206 H196 0.950 . S
C206 C207 1.386 . S
C206 C208 1.391 . S
C207 C206 1.386 . S
C207 C211 1.393 . S
C208 H197 0.950 . S
C208 C206 1.391 . S
C208 C209 1.400 . S
C209 C203 1.491 . S
C209 C208 1.400 . S
C209 C210 1.398 . S
C210 H198 0.950 . S
C210 C209 1.398 . S
C210 C211 1.391 . S
C211 H199 0.950 . S
C211 C207 1.393 . S
C211 C210 1.391 . S
H212 C220 0.950 . S
H213 C225 0.950 . S
H214 C222 0.950 . S
H215 C224 0.950 . S
H216 C226 0.950 . S
H217 C228 0.950 . S
H218 C230 0.950 . S
H219 C231 0.950 . S
C220 H212 0.950 . S
C220 C221 1.386 . S
C220 C222 1.391 . S
C221 C220 1.386 . S
C221 C225 1.393 . S
C222 H214 0.950 . S
C222 C220 1.391 . S
C222 C223 1.400 . S
C223 C222 1.400 . S
C223 C224 1.398 . S
C223 C229 1.491 . S
C224 H215 0.950 . S
C224 C223 1.398 . S
C224 C225 1.391 . S
C225 H213 0.950 . S
C225 C221 1.393 . S
C225 C224 1.391 . S
C226 H216 0.950 . S
C226 C227 1.386 . S
C226 C228 1.391 . S
C227 C226 1.386 . S
C227 C231 1.393 . S
C228 H217 0.950 . S
C228 C226 1.391 . S
C228 C229 1.400 . S
C229 C223 1.491 . S
C229 C228 1.400 . S
C229 C230 1.398 . S
C230 H218 0.950 . S
C230 C229 1.398 . S
C230 C231 1.391 . S
C231 H219 0.950 . S
C231 C227 1.393 . S
C231 C230 1.391 . S
H232 C240 0.950 . S
H233 C245 0.950 . S
H234 C242 0.950 . S
H235 C244 0.950 . S
H236 C246 0.950 . S
H237 C248 0.950 . S
H238 C250 0.950 . S
H239 C251 0.950 . S
C240 H232 0.950 . S
C240 C241 1.386 . S
C240 C242 1.391 . S
C241 C240 1.386 . S
C241 C245 1.393 . S
C242 H234 0.950 . S
C242 C240 1.391 . S
C242 C243 1.400 . S
C243 C242 1.400 . S
C243 C244 1.398 . S
C243 C249 1.491 . S
C244 H235 0.950 . S
C244 C243 1.398 . S
C244 C245 1.391 . S
C245 H233 0.950 . S
C245 C241 1.393 . S
C245 C244 1.391 . S
C246 H236 0.950 . S
C246 C247 1.386 . S
C246 C248 1.391 . S
C247 C246 1.386 . S
C247 C251 1.393 . S
C248 H237 0.950 . S
C248 C246 1.391 . S
C248 C249 1.400 . S
C249 C243 1.491 . S
C249 C248 1.400 . S
C249 C250 1.398 . S
C250 H238 0.950 . S
C250 C249 1.398 . S
C250 C251 1.391 . S
C251 H239 0.950 . S
C251 C247 1.393 . S
C251 C250 1.391 . S
H252 C260 0.950 . S
H253 C265 0.950 . S
H254 C262 0.950 . S
H255 C264 0.950 . S
H256 C266 0.950 . S
H257 C268 0.950 . S
H258 C270 0.950 . S
H259 C271 0.950 . S
C260 H252 0.950 . S
C260 C261 1.386 . S
C260 C262 1.391 . S
C261 C260 1.386 . S
C261 C265 1.393 . S
C262 H254 0.950 . S
C262 C260 1.391 . S
C262 C263 1.400 . S
C263 C262 1.400 . S
C263 C264 1.398 . S
C263 C269 1.491 . S
C264 H255 0.950 . S
C264 C263 1.398 . S
C264 C265 1.391 . S
C265 H253 0.950 . S
C265 C261 1.393 . S
C265 C264 1.391 . S
C266 H256 0.950 . S
C266 C267 1.386 . S
C266 C268 1.391 . S
C267 C266 1.386 . S
C267 C271 1.393 . S
C268 H257 0.950 . S
C268 C266 1.391 . S
C268 C269 1.400 . S
C269 C263 1.491 . S
C269 C268 1.400 . S
C269 C270 1.398 . S
C270 H258 0.950 . S
C270 C269 1.398 . S
C270 C271 1.391 . S
C271 H259 0.950 . S
C271 C267 1.393 . S
C271 C270 1.391 . S
H272 C280 0.950 . S
H273 C285 0.950 . S
H274 C282 0.950 . S
H275 C284 0.950 . S
H276 C286 0.950 . S
H277 C288 0.950 . S
H278 C290 0.950 . S
H279 C291 0.950 . S
C280 H272 0.950 . S
C280 C281 1.386 . S
C280 C282 1.391 . S
C281 C280 1.386 . S
C281 C285 1.393 . S
C282 H274 0.950 . S
C282 C280 1.391 . S
C282 C283 1.400 . S
C283 C282 1.400 . S
C283 C284 1.398 . S
C283 C289 1.491 . S
C284 H275 0.950 . S
C284 C283 1.398 . S
C284 C285 1.391 . S
C285 H273 0.950 . S
C285 C281 1.393 . S
C285 C284 1.391 . S
C286 H276 0.950 . S
C286 C287 1.386 . S
C286 C288 1.391 . S
C287 C286 1.386 . S
C287 C291 1.393 . S
C288 H277 0.950 . S
C288 C286 1.391 . S
C288 C289 1.400 . S
C289 C283 1.491 . S
C289 C288 1.400 . S
C289 C290 1.398 . S
C290 H278 0.950 . S
C290 C289 1.398 . S
C290 C291 1.391 . S
C291 H279 0.950 . S
C291 C287 1.393 . S
C291 C290 1.391 . S
H292 C300 0.950 . S
H293 C305 0.950 . S
H294 C302 0.950 . S
H295 C304 0.950 . S
H296 C306 0.950 . S
H297 C308 0.950 . S
H298 C310 0.950 . S
H299 C311 0.950 . S
C300 H292 0.950 . S
C300 C301 1.386 . S
C300 C302 1.391 . S
C301 C300 1.386 . S
C301 C305 1.393 . S
C302 H294 0.950 . S
C302 C300 1.391 . S
C302 C303 1.400 . S
C303 C302 1.400 . S
C303 C304 1.398 . S
C303 C309 1.491 . S
C304 H295 0.950 . S
C304 C303 1.398 . S
C304 C305 1.391 . S
C305 H293 0.950 . S
C305 C301 1.393 . S
C305 C304 1.391 . S
C306 H296 0.950 . S
C306 C307 1.386 . S
C306 C308 1.391 . S
C307 C306 1.386 . S
C307 C311 1.393 . S
C308 H297 0.950 . S
C308 C306 1.391 . S
C308 C309 1.400 . S
C309 C303 1.491 . S
C309 C308 1.400 . S
C309 C310 1.398 . S
C310 H298 0.950 . S
C310 C309 1.398 . S
C310 C311 1.391 . S
C311 H299 0.950 . S
C311 C307 1.393 . S
C311 C310 1.391 . S
H312 C320 0.950 . S
H313 C325 0.950 . S
H314 C322 0.950 . S
H315 C324 0.950 . S
H316 C326 0.950 . S
H317 C328 0.950 . S
H318 C330 0.950 1_545 S
H319 C331 0.950 . S
C320 H312 0.950 . S
C320 C321 1.386 . S
C320 C322 1.391 . S
C321 C320 1.386 . S
C321 C325 1.393 . S
C322 H314 0.950 . S
C322 C320 1.391 . S
C322 C323 1.400 . S
C323 C322 1.400 . S
C323 C324 1.398 . S
C323 C329 1.491 . S
C324 H315 0.950 . S
C324 C323 1.398 . S
C324 C325 1.391 . S
C325 H313 0.950 . S
C325 C321 1.393 . S
C325 C324 1.391 . S
C326 H316 0.950 . S
C326 C327 1.386 . S
C326 C328 1.391 . S
C327 C326 1.386 . S
C327 C331 1.393 1_565 S
C328 H317 0.950 . S
C328 C326 1.391 . S
C328 C329 1.400 . S
C329 C323 1.491 . S
C329 C328 1.400 . S
C329 C330 1.398 . S
C330 H318 0.950 1_565 S
C330 C329 1.398 . S
C330 C331 1.391 1_565 S
C331 H319 0.950 . S
C331 C327 1.393 1_545 S
C331 C330 1.391 1_545 S
H332 C340 0.950 . S
H333 C345 0.950 . S
H334 C342 0.950 . S
H335 C344 0.950 1_655 S
H336 C346 0.950 . S
H337 C348 0.950 . S
H338 C350 0.950 . S
H339 C351 0.950 . S
C340 H332 0.950 . S
C340 C341 1.386 . S
C340 C342 1.391 . S
C341 C340 1.386 . S
C341 C345 1.393 1_455 S
C342 H334 0.950 . S
C342 C340 1.391 . S
C342 C343 1.400 . S
C343 C342 1.400 . S
C343 C344 1.398 . S
C343 C349 1.491 . S
C344 H335 0.950 1_455 S
C344 C343 1.398 . S
C344 C345 1.391 1_455 S
C345 H333 0.950 . S
C345 C341 1.393 1_655 S
C345 C344 1.391 1_655 S
C346 H336 0.950 . S
C346 C347 1.386 . S
C346 C348 1.391 . S
C347 C346 1.386 . S
C347 C351 1.393 . S
C348 H337 0.950 . S
C348 C346 1.391 . S
C348 C349 1.400 . S
C349 C343 1.491 . S
C349 C348 1.400 . S
C349 C350 1.398 . S
C350 H338 0.950 . S
C350 C349 1.398 . S
C350 C351 1.391 . S
C351 H339 0.950 . S
C351 C347 1.393 . S
C351 C350 1.391 . S
H352 C360 0.950 . S
H353 C365 0.950 . S
H354 C362 0.950 . S
H355 C364 0.950 . S
H356 C366 0.950 . S
H357 C368 0.950 . S
H358 C370 0.950 . S
H359 C371 0.950 . S
C360 H352 0.950 . S
C360 C361 1.386 . S
C360 C362 1.391 . S
C361 C360 1.386 . S
C361 C365 1.393 . S
C362 H354 0.950 . S
C362 C360 1.391 . S
C362 C363 1.400 . S
C363 C362 1.400 . S
C363 C364 1.398 . S
C363 C369 1.491 . S
C364 H355 0.950 . S
C364 C363 1.398 . S
C364 C365 1.391 . S
C365 H353 0.950 . S
C365 C361 1.393 . S
C365 C364 1.391 . S
C366 H356 0.950 . S
C366 C367 1.386 . S
C366 C368 1.391 . S
C367 C366 1.386 . S
C367 C371 1.393 . S
C368 H357 0.950 . S
C368 C366 1.391 . S
C368 C369 1.400 . S
C369 C363 1.491 . S
C369 C368 1.400 . S
C369 C370 1.398 . S
C370 H358 0.950 . S
C370 C369 1.398 . S
C370 C371 1.391 . S
C371 H359 0.950 . S
C371 C367 1.393 . S
C371 C370 1.391 . S
H372 C380 0.950 . S
H373 C385 0.950 . S
H374 C382 0.950 . S
H375 C384 0.950 . S
H376 C386 0.950 . S
H377 C388 0.950 . S
H378 C390 0.950 . S
H379 C391 0.950 . S
C380 H372 0.950 . S
C380 C381 1.386 . S
C380 C382 1.391 . S
C381 C380 1.386 . S
C381 C385 1.393 . S
C382 H374 0.950 . S
C382 C380 1.391 . S
C382 C383 1.400 . S
C383 C382 1.400 . S
C383 C384 1.398 . S
C383 C389 1.491 . S
C384 H375 0.950 . S
C384 C383 1.398 . S
C384 C385 1.391 . S
C385 H373 0.950 . S
C385 C381 1.393 . S
C385 C384 1.391 . S
C386 H376 0.950 . S
C386 C387 1.386 . S
C386 C388 1.391 . S
C387 C386 1.386 . S
C387 C391 1.393 . S
C388 H377 0.950 . S
C388 C386 1.391 . S
C388 C389 1.400 . S
C389 C383 1.491 . S
C389 C388 1.400 . S
C389 C390 1.398 . S
C390 H378 0.950 . S
C390 C389 1.398 . S
C390 C391 1.391 . S
C391 H379 0.950 . S
C391 C387 1.393 . S
C391 C390 1.391 . S
H392 C400 0.950 . S
H393 C405 0.950 . S
H394 C402 0.950 . S
H395 C404 0.950 . S
H396 C406 0.950 . S
H397 C408 0.950 1_565 S
H398 C410 0.950 . S
H399 C411 0.950 . S
C400 H392 0.950 . S
C400 C401 1.386 . S
C400 C402 1.391 . S
C401 C400 1.386 . S
C401 C405 1.393 . S
C402 H394 0.950 . S
C402 C400 1.391 . S
C402 C403 1.400 . S
C403 C402 1.400 . S
C403 C404 1.398 . S
C403 C409 1.491 . S
C404 H395 0.950 . S
C404 C403 1.398 . S
C404 C405 1.391 . S
C405 H393 0.950 . S
C405 C401 1.393 . S
C405 C404 1.391 . S
C406 H396 0.950 . S
C406 C407 1.386 1_565 S
C406 C408 1.391 1_565 S
C407 C406 1.386 1_545 S
C407 C411 1.393 . S
C408 H397 0.950 1_545 S
C408 C406 1.391 1_545 S
C408 C409 1.400 . S
C409 C403 1.491 . S
C409 C408 1.400 . S
C409 C410 1.398 . S
C410 H398 0.950 . S
C410 C409 1.398 . S
C410 C411 1.391 . S
C411 H399 0.950 . S
C411 C407 1.393 . S
C411 C410 1.391 . S
H412 C420 0.950 . S
H413 C425 0.950 . S
H414 C422 0.950 . S
H415 C424 0.950 . S
H416 C426 0.950 . S
H417 C428 0.950 . S
H418 C430 0.950 . S
H419 C431 0.950 . S
C420 H412 0.950 . S
C420 C421 1.386 . S
C420 C422 1.391 . S
C421 C420 1.386 . S
C421 C425 1.393 . S
C422 H414 0.950 . S
C422 C420 1.391 . S
C422 C423 1.400 . S
C423 C422 1.400 . S
C423 C424 1.398 . S
C423 C429 1.491 . S
C424 H415 0.950 . S
C424 C423 1.398 . S
C424 C425 1.391 . S
C425 H413 0.950 . S
C425 C421 1.393 . S
C425 C424 1.391 . S
C426 H416 0.950 . S
C426 C427 1.386 . S
C426 C428 1.391 . S
C427 C426 1.386 . S
C427 C431 1.393 . S
C428 H417 0.950 . S
C428 C426 1.391 . S
C428 C429 1.400 . S
C429 C423 1.491 . S
C429 C428 1.400 . S
C429 C430 1.398 . S
C430 H418 0.950 . S
C430 C429 1.398 . S
C430 C431 1.391 . S
C431 H419 0.950 . S
C431 C427 1.393 . S
C431 C430 1.391 . S
C121 C63 1.583 . S
C127 C8 1.610 . S
C141 C22 1.621 . S
C147 C78 1.621 . S
C161 C36 1.601 . S
C167 C91 1.566 . S
C181 C106 1.609 . S
C187 C50 1.609 . S
C201 C7 1.500 . S
C207 C35 1.508 . S
C221 C21 1.421 . S
C227 C49 1.409 . S
C241 C92 1.375 . S
C247 C64 1.378 . S
C261 C77 1.389 . S
C267 C105 1.393 . S
C281 C79 1.029 . S
C287 C3 1.065 . S
C301 C17 0.958 . S
C307 C87 0.962 . S
C321 C31 1.062 . S
C327 C107 1.029 . S
C341 C59 0.983 . S
C347 C45 0.956 . S
C361 C65 0.947 . S
C367 C23 0.977 . S
C381 C73 1.003 . S
C387 C37 1.013 . S
C401 C93 0.976 . S
C407 C51 0.944 . S
C421 C9 0.997 . S
C427 C101 1.020 . S
