# Generated by pormake.
# Topology snp, (6)-cn, num edge types: 1
# Building blocks:
#     Node 0, Type 0, BuildingBlock: INOVEN_clean_sbu_0, # of connection points: 6
#     Node 1, Type 0, BuildingBlock: INOVEN_clean_sbu_0, # of connection points: 6
#     Node 2, Type 0, BuildingBlock: INOVEN_clean_sbu_0, # of connection points: 6
#     Node 3, Type 0, BuildingBlock: INOVEN_clean_sbu_0, # of connection points: 6
#     Edge 4, Type (0, 0), BuildingBlock: UVAHIK_clean_linker_0, # of connection points: 2
#     Edge 5, Type (0, 0), BuildingBlock: UVAHIK_clean_linker_0, # of connection points: 2
#     Edge 6, Type (0, 0), BuildingBlock: UVAHIK_clean_linker_0, # of connection points: 2
#     Edge 7, Type (0, 0), BuildingBlock: UVAHIK_clean_linker_0, # of connection points: 2
#     Edge 8, Type (0, 0), BuildingBlock: UVAHIK_clean_linker_0, # of connection points: 2
#     Edge 9, Type (0, 0), BuildingBlock: UVAHIK_clean_linker_0, # of connection points: 2
#     Edge 10, Type (0, 0), BuildingBlock: UVAHIK_clean_linker_0, # of connection points: 2
#     Edge 11, Type (0, 0), BuildingBlock: UVAHIK_clean_linker_0, # of connection points: 2
#     Edge 12, Type (0, 0), BuildingBlock: UVAHIK_clean_linker_0, # of connection points: 2
#     Edge 13, Type (0, 0), BuildingBlock: UVAHIK_clean_linker_0, # of connection points: 2
#     Edge 14, Type (0, 0), BuildingBlock: UVAHIK_clean_linker_0, # of connection points: 2
#     Edge 15, Type (0, 0), BuildingBlock: UVAHIK_clean_linker_0, # of connection points: 2
# Relax obj value: 0.191
# Max RMSD: 0.206
# Mean RMSD: 0.199
data_MOF--net-snp--node1-INOVEN_clean_sbu_0--edge1-UVAHIK_clean_linker_0
_symmetry_space_group_name_H-M    P1
_symmetry_Int_Tables_number       1
_symmetry_cell_setting            triclinic
loop_
_symmetry_equiv_pos_as_xyz
'x, y, z'
_cell_length_a     32.479791
_cell_length_b     31.752131
_cell_length_c     44.098707
_cell_angle_alpha  87.471942
_cell_angle_beta   102.85586
_cell_angle_gamma 94.671021
loop_
_atom_site_label
_atom_site_type_symbol
_atom_site_fract_x
_atom_site_fract_y
_atom_site_fract_z
_atom_type_partial_charge
Gd0 Gd 0.24795 0.13285 0.10338 0.0
Gd1 Gd 0.24225 0.047 0.0696 0.0
C2 C 0.24472 0.04307 0.14223 0.0
C3 C 0.24282 0.19165 0.141 0.0
C4 C 0.22861 0.19302 0.17068 0.0
C5 C 0.24578 0.16762 0.19663 0.0
C6 C 0.19798 0.22055 0.1734 0.0
C7 C 0.20338 0.19874 0.22785 0.0
C8 C 0.18532 0.22324 0.2016 0.0
C9 C 0.23334 0.17048 0.22485 0.0
C10 C 0.3203 0.10704 0.0929 0.0
C11 C 0.23043 0.13744 0.02921 0.0
C12 C 0.25912 0.98727 0.03721 0.0
C13 C 0.25143 0.97492 1.00448 0.0
C14 C 0.24738 0.93189 0.99773 0.0
C15 C 0.24795 0.00513 0.97996 0.0
C16 C 0.23633 0.94905 0.94223 0.0
C17 C 0.24064 0.99229 0.94909 0.0
C18 C 0.23988 0.91905 0.96695 0.0
C19 C 0.16849 0.06787 0.08082 0.0
O20 O 0.23538 0.08304 0.13881 0.0
O21 O 0.25575 0.02314 0.11973 0.0
O22 O 0.2775 0.1729 0.14186 0.0
O23 O 0.21362 0.18314 0.11599 0.0
O24 O 0.31158 0.14643 0.09067 0.0
O25 O 0.29145 0.08412 0.10148 0.0
O26 O 0.23768 0.09669 0.03024 0.0
O27 O 0.22938 0.15828 0.05439 0.0
O28 O 0.226 0.985 0.04972 0.0
O29 O 0.28485 0.02088 0.04525 0.0
O30 O 0.17634 0.02944 0.07617 0.0
O31 O 0.19754 0.09293 0.07407 0.0
H32 H 0.26919 0.14576 0.1953 0.0
H33 H 0.18415 0.24038 0.15375 0.0
H34 H 0.16234 0.24549 0.20313 0.0
H35 H 0.24737 0.15064 0.24442 0.0
H36 H 0.25007 0.90812 1.01633 0.0
H37 H 0.25075 0.03855 0.98464 0.0
H38 H 0.23765 0.01618 0.93057 0.0
H39 H 0.2373 0.88554 0.96254 0.0
Gd40 Gd 0.95819 0.24248 0.67506 0.0
Gd41 Gd 0.03358 0.26216 0.64654 0.0
C42 C 0.04482 0.27366 0.72106 0.0
C43 C 0.89588 0.21008 0.69841 0.0
C44 C 0.88848 0.20299 0.73003 0.0
C45 C 0.84741 0.19215 0.73423 0.0
C46 C 0.92201 0.20793 0.75617 0.0
C47 C 0.87332 0.19118 0.79058 0.0
C48 C 0.91452 0.20205 0.78616 0.0
C49 C 0.83985 0.18625 0.76422 0.0
C50 C 0.97066 0.32403 0.6577 0.0
C51 C 0.94853 0.22849 0.60077 0.0
C52 C 0.09532 0.28911 0.62064 0.0
C53 C 0.10178 0.28518 0.58879 0.0
C54 C 0.07473 0.25746 0.56803 0.0
C55 C 0.13573 0.30788 0.5792 0.0
C56 C 0.11597 0.27451 0.52856 0.0
C57 C 0.14282 0.30258 0.5494 0.0
C58 C 0.08165 0.25225 0.53825 0.0
C59 C 0.02306 0.18051 0.6662 0.0
O60 O 0.00754 0.25263 0.71886 0.0
O61 O 0.0597 0.2852 0.69595 0.0
O62 O 0.89933 0.24959 0.68908 0.0
O63 O 0.92402 0.18751 0.69103 0.0
O64 O 0.95777 0.31227 0.68277 0.0
O65 O 0.97452 0.29247 0.64262 0.0
O66 O 0.985 0.25073 0.60291 0.0
O67 O 0.93346 0.21784 0.62586 0.0
O68 O 0.09479 0.25368 0.63685 0.0
O69 O 0.06538 0.31287 0.62358 0.0
O70 O 0.03035 0.19237 0.63924 0.0
O71 O 0.01847 0.21289 0.68012 0.0
H72 H 0.82111 0.1885 0.71431 0.0
H73 H 0.95397 0.21633 0.7534 0.0
H74 H 0.94112 0.20553 0.80587 0.0
H75 H 0.80769 0.17843 0.76675 0.0
H76 H 0.0486 0.23923 0.57504 0.0
H77 H 0.15699 0.32942 0.59486 0.0
H78 H 0.16925 0.32061 0.54263 0.0
H79 H 0.06068 0.22993 0.52312 0.0
Gd80 Gd 0.78795 0.04958 0.15886 0.0
Gd81 Gd 0.82369 0.97713 0.13484 0.0
C82 C 0.80275 0.96132 0.2008 0.0
C83 C 0.74423 0.09657 0.18407 0.0
C84 C 0.74722 0.10722 0.21699 0.0
C85 C 0.75962 0.14883 0.22652 0.0
C86 C 0.74197 0.07586 0.23965 0.0
C87 C 0.7659 0.12674 0.28099 0.0
C88 C 0.75135 0.08547 0.2713 0.0
C89 C 0.7688 0.15849 0.25808 0.0
C90 C 0.87244 0.05167 0.17798 0.0
C91 C 0.81799 0.06618 0.09591 0.0
C92 C 0.864 0.92832 0.10759 0.0
C93 C 0.86901 0.92322 0.07545 0.0
C94 C 0.85383 0.95245 0.05154 0.0
C95 C 0.88883 0.88842 0.06846 0.0
C96 C 0.8786 0.9121 1.01395 0.0
C97 C 0.89357 0.88288 0.0381 0.0
C98 C 0.85863 0.94701 1.02114 0.0
C99 C 0.73853 0.9813 0.11707 0.0
O100 O 0.78113 -0.0045 0.19388 0.0
O101 O 0.82719 0.95 0.18279 0.0
O102 O 0.77629 0.11147 0.17237 0.0
O103 O 0.73125 0.05767 0.17583 0.0
O104 O 0.85098 0.08463 0.17104 0.0
O105 O 0.84816 0.01826 0.17561 0.0
O106 O 0.83971 0.03276 0.10485 0.0
O107 O 0.7887 0.07581 0.11052 0.0
O108 O 0.82634 0.91794 0.11272 0.0
O109 O 0.88125 0.96326 0.12116 0.0
O110 O 0.75602 0.94621 0.12549 0.0
O111 O 0.76636 0.01095 0.11822 0.0
H112 H 0.76359 0.17373 0.20958 0.0
H113 H 0.73191 0.0436 0.23306 0.0
H114 H 0.7488 0.06015 0.2882 0.0
H115 H 0.77891 0.19083 0.26455 0.0
H116 H 0.83828 0.9795 0.05637 0.0
H117 H 0.90052 0.86535 0.08651 0.0
H118 H 0.90845 0.85527 0.03348 0.0
H119 H 0.84713 0.97047 1.00336 0.0
Gd120 Gd 0.01233 0.83245 0.58319 0.0
Gd121 Gd 0.0878 0.82448 0.55209 0.0
C122 C 0.10187 0.81919 0.62817 0.0
C123 C 0.94678 0.8275 0.6079 0.0
C124 C 0.94126 0.83352 0.63978 0.0
C125 C 0.97575 0.84766 0.66327 0.0
C126 C 0.90137 0.82536 0.64694 0.0
C127 C 0.93035 0.84575 0.70079 0.0
C128 C 0.89594 0.83139 0.67709 0.0
C129 C 0.97038 0.85373 0.69341 0.0
C130 C 0.06339 0.90331 0.58108 0.0
C131 C 0.99771 0.83982 0.50844 0.0
C132 C 0.15377 0.83358 0.52771 0.0
C133 C 0.16087 0.84584 0.49644 0.0
C134 C 0.19619 0.83275 0.48702 0.0
C135 C 0.13233 0.87015 0.47564 0.0
C136 C 0.17469 0.86854 0.43639 0.0
C137 C 0.13919 0.88145 0.446 0.0
C138 C 0.20307 0.84397 0.45733 0.0
C139 C 0.03843 0.7527 0.55652 0.0
O140 O 0.06045 0.81505 0.62526 0.0
O141 O 0.11962 0.82474 0.60376 0.0
O142 O 0.95898 0.8615 0.59338 0.0
O143 O 0.96677 0.79456 0.60415 0.0
O144 O 0.04471 0.8932 0.60369 0.0
O145 O 0.05234 0.87694 0.55979 0.0
O146 O 0.03907 0.84753 0.51191 0.0
O147 O 0.9805 0.82701 0.53213 0.0
O148 O 0.1326 0.79719 0.53004 0.0
O149 O 0.1421 0.86318 0.54305 0.0
O150 O 0.05581 0.76236 0.5331 0.0
O151 O 0.04978 0.78032 0.57686 0.0
H152 H 0.00685 0.85424 0.65824 0.0
H153 H 0.87438 0.81428 0.62919 0.0
H154 H 0.86481 0.82429 0.6819 0.0
H155 H 0.99753 0.86533 0.71079 0.0
H156 H 0.21844 0.81372 0.50262 0.0
H157 H 0.10478 0.88058 0.48236 0.0
H158 H 0.11694 0.90086 0.4308 0.0
H159 H 0.23039 0.83291 0.45068 0.0
C160 C 0.94355 0.02469 0.19812 0.0
C161 C 0.91489 0.05518 0.19824 0.0
C162 C 0.98641 0.03355 0.21154 0.0
C163 C 0.04739 0.12757 0.20566 0.0
H164 H 0.13242 0.04665 0.21647 0.0
C165 C 0.14129 0.11774 0.11243 0.0
C166 C 0.14632 0.07628 0.10528 0.0
C167 C 0.13059 0.1262 0.14043 0.0
C168 C 0.10921 0.06991 0.21344 0.0
H169 H 0.90618 0.11497 0.21716 0.0
H170 H 0.98088 0.13035 0.24046 0.0
H171 H 0.0768 0.03667 0.2456 0.0
H172 H 0.13956 0.0104 0.11985 0.0
H173 H 0.11664 0.02422 0.16645 0.0
H174 H 0.07505 0.15724 0.17027 0.0
C175 C 0.9708 0.10016 0.22962 0.0
C176 C 0.07779 0.06452 0.2306 0.0
C177 C 0.9282 0.09162 0.21582 0.0
C178 C 0.13648 0.04292 0.12493 0.0
C179 C 0.12464 0.05109 0.15235 0.0
C180 C 0.07792 0.13218 0.18786 0.0
C181 C 0.00074 0.07297 0.22519 0.0
C182 C 0.04392 0.09061 0.224 0.0
C183 C 0.12266 0.09292 0.16106 0.0
C184 C 0.10595 0.10044 0.18899 0.0
H185 H 0.93362 -0.004 0.1852 0.0
H186 H 0.00864 0.01177 0.20773 0.0
H187 H 0.02245 0.14918 0.20071 0.0
H188 H 0.14649 0.14356 0.09659 0.0
H189 H 0.12854 0.15878 0.14573 0.0
C190 C 0.08767 0.97852 0.58314 0.0
C191 C 0.098 0.93655 0.58388 0.0
C192 C 0.11639 0.00878 0.59978 0.0
C193 C 0.16269 0.00173 0.67454 0.0
H194 H 0.16832 0.12316 0.66181 0.0
C195 C 0.08826 0.16012 0.70244 0.0
C196 C 0.0489 0.14769 0.68308 0.0
C197 C 0.12072 0.13262 0.70864 0.0
C198 C 0.16869 0.08941 0.66665 0.0
H199 H 0.14873 0.89489 0.59806 0.0
H200 H 0.19731 0.94653 0.62943 0.0
H201 H 0.18741 0.07912 0.62418 0.0
H202 H 0.01041 0.09592 0.6585 0.0
H203 H 0.06626 0.04698 0.67059 0.0
H204 H 0.13559 0.0117 0.71344 0.0
C205 C 0.16775 0.95645 0.61533 0.0
C206 C 0.17977 0.06422 0.64502 0.0
C207 C 0.13949 0.92665 0.59768 0.0
C208 C 0.04036 0.10584 0.67372 0.0
C209 C 0.07234 0.07791 0.68082 0.0
C210 C 0.15032 0.02688 0.69563 0.0
C211 C 0.15507 -0.00315 0.6183 0.0
C212 C 0.17211 0.02023 0.64706 0.0
C213 C 0.11358 0.09213 0.69628 0.0
C214 C 0.14892 0.07052 0.68969 0.0
H215 H 0.05576 0.98685 0.57285 0.0
H216 H 0.10561 0.03973 0.60187 0.0
H217 H 0.15707 0.96773 0.67685 0.0
H218 H 0.0956 0.1926 0.70956 0.0
H219 H 0.15233 0.14438 0.72017 0.0
C220 C 0.68049 0.02731 0.09643 0.0
C221 C 0.6931 0.98801 0.10944 0.0
C222 C 0.63857 0.0369 0.09184 0.0
C223 C 0.5291 0.99374 0.08518 0.0
H224 H 0.51549 0.10424 0.11437 0.0
C225 C 0.36847 0.04895 0.09775 0.0
C226 C 0.3607 0.09144 0.09023 0.0
C227 C 0.40773 0.03436 0.09749 0.0
C228 C 0.5187 0.07358 0.10566 0.0
H229 H 0.67169 0.92705 0.12657 0.0
H230 H 0.59734 0.94406 0.11862 0.0
H231 H 0.58613 0.08088 0.11929 0.0
H232 H 0.38699 0.15172 0.07549 0.0
H233 H 0.45577 0.1262 0.07472 0.0
H234 H 0.46138 0.98658 0.0716 0.0
C235 C 0.62024 0.96729 0.11194 0.0
C236 C 0.55916 0.06011 0.1086 0.0
C237 C 0.6626 0.95757 0.11652 0.0
C238 C 0.39236 0.11888 0.08155 0.0
C239 C 0.4317 0.10429 0.08126 0.0
C240 C 0.48843 0.0073 0.08218 0.0
C241 C 0.6082 0.00751 0.10026 0.0
C242 C 0.56482 0.02026 0.09816 0.0
C243 C 0.44001 0.06204 0.08975 0.0
C244 C 0.48288 0.04751 0.09222 0.0
H245 H 0.70325 0.05119 0.09032 0.0
H246 H 0.63003 0.06776 0.08213 0.0
H247 H 0.53265 0.96299 0.07679 0.0
H248 H 0.34455 0.02712 0.10461 0.0
H249 H 0.41327 0.0018 0.10445 0.0
C250 C 0.96952 0.40162 0.66417 0.0
C251 C 0.97405 0.36796 0.6459 0.0
C252 C 0.97228 0.44325 0.65267 0.0
C253 C 0.01365 0.50879 0.59316 0.0
H254 H 0.94013 0.59051 0.61073 0.0
C255 C 0.01757 0.67786 0.54146 0.0
C256 C 0.02105 0.70982 0.56307 0.0
C257 C 0.00649 0.63603 0.54934 0.0
C258 C 0.96092 0.56803 0.60573 0.0
H259 H 0.98454 0.35104 0.60127 0.0
H260 H 0.98876 0.42351 0.581 0.0
H261 H 0.93224 0.51731 0.62932 0.0
H262 H 0.01379 0.7237 0.60921 0.0
H263 H 0.99429 0.6507 0.62294 0.0
H264 H 0.04248 0.55947 0.56975 0.0
C265 C 0.98382 0.41802 0.60438 0.0
C266 C 0.95655 0.52618 0.61647 0.0
C267 C 0.98125 0.3765 0.61594 0.0
C268 C 0.0112 0.69966 0.59207 0.0
C269 C -6e-05 0.65788 0.5999 0.0
C270 C 0.01787 0.55052 0.58232 0.0
C271 C 0.97946 0.45192 0.62262 0.0
C272 C 0.9831 0.49615 0.61051 0.0
C273 C 0.99851 0.62548 0.5789 0.0
C274 C 0.99178 0.58065 0.58868 0.0
H275 H 0.96406 0.39582 0.6874 0.0
H276 H 0.96942 0.46865 0.6675 0.0
H277 H 0.0351 0.48669 0.5886 0.0
H278 H 0.02479 0.68492 0.51887 0.0
H279 H 0.00502 0.61177 0.53253 0.0
C280 C 0.16566 0.26477 0.49323 0.0
C281 C 0.12416 0.26762 0.49715 0.0
C282 C 0.17322 0.25678 0.46402 0.0
C283 C 0.12512 0.26143 0.37938 0.0
H284 H 0.20921 0.18356 0.37453 0.0
C285 C 0.15068 0.20802 0.26098 0.0
C286 C 0.19267 0.2041 0.2586 0.0
C287 C 0.1412 0.21446 0.28988 0.0
C288 C 0.18593 0.20577 0.37541 0.0
H289 H 0.05813 0.26518 0.47296 0.0
H290 H 0.07128 0.25081 0.42218 0.0
H291 H 0.19537 0.19828 0.42493 0.0
H292 H 0.25761 0.20432 0.28482 0.0
H293 H 0.24129 0.21589 0.33491 0.0
H294 H 0.11594 0.26921 0.32988 0.0
C295 C 0.09805 0.25495 0.4417 0.0
C296 C 0.17799 0.21422 0.4044 0.0
C297 C 0.09047 0.26277 0.47094 0.0
C298 C 0.22484 0.2065 0.28584 0.0
C299 C 0.21543 0.21311 0.31465 0.0
C300 C 0.13316 0.25307 0.35036 0.0
C301 C 0.13952 0.25157 0.43787 0.0
C302 C 0.1476 0.2423 0.40683 0.0
C303 C 0.1735 0.21733 0.31713 0.0
C304 C 0.16385 0.22526 0.34796 0.0
H305 H 0.19236 0.2679 0.51289 0.0
H306 H 0.20561 0.2549 0.46192 0.0
H307 H 0.10185 0.2836 0.38036 0.0
H308 H 0.12507 0.20578 0.24051 0.0
H309 H 0.10847 0.21685 0.29087 0.0
C310 C 0.83701 0.15174 0.82929 0.0
C311 C 0.86536 0.18485 0.82253 0.0
C312 C 0.83029 0.14519 0.85945 0.0
C313 C 0.88139 0.1663 0.94129 0.0
H314 H 0.7707 0.1286 0.95597 0.0
C315 C 0.85923 0.08165 0.05481 0.0
C316 C 0.82429 0.08937 0.06718 0.0
C317 C 0.86372 0.09944 0.02615 0.0
C318 C 0.8017 0.13969 0.95233 0.0
H319 H 0.90787 0.23784 0.84217 0.0
H320 H 0.89625 0.22633 0.89476 0.0
H321 H 0.77836 0.14812 0.9032 0.0
H322 H 0.76716 0.12283 0.05941 0.0
H323 H 0.77517 0.15435 1.00904 0.0
H324 H 0.9048 0.15771 0.99033 0.0
C325 C 0.87967 0.20503 0.8768 0.0
C326 C 0.8062 0.15035 0.92203 0.0
C327 C 0.88639 0.21158 0.84664 0.0
C328 C 0.7945 0.11642 0.05057 0.0
C329 C 0.79891 0.13415 0.02163 0.0
C330 C 0.8769 0.15558 0.97153 0.0
C331 C 0.85174 0.17158 0.88364 0.0
C332 C 0.84623 0.16317 0.91607 0.0
C333 C 0.8334 0.12546 1.00897 0.0
C334 C 0.83715 0.14143 0.97736 0.0
H335 H 0.82073 0.13017 0.81142 0.0
H336 H 0.80911 0.11869 0.86397 0.0
H337 H 0.91274 0.17572 0.93758 0.0
H338 H 0.88283 0.06096 0.06693 0.0
H339 H 0.89031 0.09151 1.01697 0.0
C340 C 0.98673 0.87289 0.45507 0.0
C341 C 0.97024 0.84816 0.47747 0.0
C342 C 0.96105 0.88231 0.42616 0.0
C343 C 0.86849 0.84625 0.36847 0.0
H344 H 0.87062 0.96339 0.33946 0.0
C345 C 0.82696 0.903 0.23925 0.0
C346 C 0.80638 0.94064 0.232 0.0
C347 C 0.83787 0.88786 0.27006 0.0
C348 C 0.86916 0.93061 0.34734 0.0
H349 H 0.91399 0.81311 0.48672 0.0
H350 H 0.86913 0.82897 0.4355 0.0
H351 H 0.9085 0.94505 0.39198 0.0
H352 H 0.77881 0.99028 0.2513 0.0
H353 H 0.79791 0.964 0.30492 0.0
H354 H 0.83039 0.83174 0.32322 0.0
C355 C 0.90195 0.84128 0.44072 0.0
C356 C 0.89114 0.92011 0.3773 0.0
C357 C 0.92756 0.83238 0.47001 0.0
C358 C 0.79451 0.96122 0.25596 0.0
C359 C 0.80575 0.94632 0.28677 0.0
C360 C 0.84693 0.85672 0.3382 0.0
C361 C 0.91841 0.86678 0.41871 0.0
C362 C 0.89159 0.87781 0.388 0.0
C363 C 0.82876 0.91027 0.29427 0.0
C364 C 0.84748 0.89899 0.32723 0.0
H365 H 0.01942 0.88562 0.45999 0.0
H366 H 0.97464 0.90166 0.40947 0.0
H367 H 0.8685 0.81338 0.37617 0.0
H368 H 0.83644 0.88627 0.22133 0.0
H369 H 0.85576 0.86009 0.27512 0.0
C370 C 0.1112 0.80574 0.6853 0.0
C371 C 0.12796 0.82263 0.66021 0.0
C372 C 0.13055 0.81632 0.71581 0.0
C373 C 0.19256 0.90338 0.75941 0.0
H374 H 0.19998 0.82376 0.82931 0.0
C375 C 0.24948 0.95495 0.88789 0.0
C376 C 0.2278 0.93496 0.9095 0.0
C377 C 0.2422 0.94056 0.85743 0.0
C378 C 0.19777 0.84651 0.8101 0.0
H379 H 0.17959 0.86213 0.6477 0.0
H380 H 0.21314 0.8813 0.70121 0.0
H381 H 0.18075 0.79793 0.77642 0.0
H382 H 0.18036 0.88515 0.91564 0.0
H383 H 0.16728 0.86048 0.86268 0.0
H384 H 0.20811 0.95212 0.79303 0.0
C385 C 0.18494 0.8598 0.69709 0.0
C386 C 0.187 0.83163 0.77978 0.0
C387 C 0.16592 0.84854 0.66648 0.0
C388 C 0.19822 0.90074 0.89978 0.0
C389 C 0.19082 0.8865 0.86938 0.0
C390 C 0.2031 0.91833 0.78979 0.0
C391 C 0.16688 0.8445 0.722 0.0
C392 C 0.18355 0.85991 0.75409 0.0
C393 C 0.21295 0.90594 0.84784 0.0
C394 C 0.20505 0.89012 0.81553 0.0
H395 H 0.08194 0.78574 0.68127 0.0
H396 H 0.11565 0.80423 0.73442 0.0
H397 H 0.18961 0.92601 0.74007 0.0
H398 H 0.27276 0.98115 0.89473 0.0
H399 H 0.26008 0.95608 0.84158 0.0
C400 C 0.92071 0.89016 0.97624 0.0
C401 C 0.88373 0.90602 0.98151 0.0
C402 C 0.92533 0.8838 0.94596 0.0
C403 C 0.88401 0.91492 0.86312 0.0
H404 H 0.93613 0.81525 0.84667 0.0
C405 C 0.8877 0.86925 0.73769 0.0
C406 C 0.92455 0.85248 0.73297 0.0
C407 C 0.88238 0.87572 0.7678 0.0
C408 C 0.92197 0.84355 0.85085 0.0
H409 H 0.82244 0.92728 0.95854 0.0
H410 H 0.83058 0.91637 0.90584 0.0
H411 H 0.92762 0.8268 0.89912 0.0
H412 H 0.98449 0.82895 0.75675 0.0
H413 H 0.97567 0.84108 0.80901 0.0
H414 H 0.87849 0.93175 0.81487 0.0
C415 C 0.8563 0.90932 0.92519 0.0
C416 C 0.91705 0.85018 0.88102 0.0
C417 C 0.85164 0.91563 0.9555 0.0
C418 C 0.95588 0.84235 0.75932 0.0
C419 C 0.95056 0.84882 0.78942 0.0
C420 C 0.88899 0.90832 0.83294 0.0
C421 C 0.89317 0.89317 0.91997 0.0
C422 C 0.89808 0.886 0.88764 0.0
C423 C 0.91373 0.86562 0.79414 0.0
C424 C 0.90812 0.87257 0.82634 0.0
H425 H 0.94649 0.88311 0.99555 0.0
H426 H 0.9545 0.87204 0.94292 0.0
H427 H 0.86981 0.94317 0.86734 0.0
H428 H 0.86305 0.87792 0.71807 0.0
H429 H 0.85338 0.88827 0.7704 0.0
C430 C 0.24633 0.97743 0.1774 0.0
C431 C 0.24021 0.0207 0.17188 0.0
C432 C 0.23955 0.95706 0.20507 0.0
C433 C 0.18195 0.96843 0.26776 0.0
H434 H 0.25953 0.89136 0.31596 0.0
C435 C 0.14803 0.88241 0.37879 0.0
C436 C 0.18213 0.88096 0.40479 0.0
C437 C 0.15478 0.89545 0.34942 0.0
C438 C 0.2376 0.91292 0.3028 0.0
H439 H 0.22255 0.07631 0.19164 0.0
H440 H 0.21182 0.04141 0.23932 0.0
H441 H 0.27234 0.92172 0.26656 0.0
H442 H 0.25032 0.89199 0.41984 0.0
H443 H 0.26204 0.91456 0.36866 0.0
H444 H 0.14775 0.96071 0.30408 0.0
C445 C 0.22109 0.02286 0.22225 0.0
C446 C 0.24473 0.92995 0.27433 0.0
C447 C 0.2278 0.04304 0.19486 0.0
C448 C 0.2233 0.89214 0.40038 0.0
C449 C 0.23005 0.9051 0.37095 0.0
C450 C 0.17474 0.95133 0.29604 0.0
C451 C 0.22627 0.97952 0.22763 0.0
C452 C 0.21732 0.95846 0.25668 0.0
C453 C 0.19584 0.90735 0.34512 0.0
C454 C 0.20269 0.92369 0.31417 0.0
H455 H 0.25574 0.95919 0.16023 0.0
H456 H 0.24375 0.92356 0.20849 0.0
H457 H 0.15983 0.98982 0.25462 0.0
H458 H 0.11599 0.87324 0.38106 0.0
H459 H 0.12772 0.89609 0.32999 0.0
C460 C 0.11539 0.26719 0.75738 0.0
C461 C 0.07278 0.2764 0.75251 0.0
C462 C 0.13882 0.25894 0.78756 0.0
C463 C 0.14697 0.27168 0.87086 0.0
H464 H 0.18234 0.15733 0.88174 0.0
C465 C 0.19245 0.19223 0.99327 0.0
C466 C 0.21976 0.1593 0.9983 0.0
C467 C 0.17927 0.2104 0.96349 0.0
C468 C 0.17381 0.18973 0.87934 0.0
H469 H 0.02213 0.2868 0.77542 0.0
H470 H 0.06371 0.27454 0.82814 0.0
H471 H 0.15333 0.18508 0.82979 0.0
H472 H 0.25629 0.12095 0.97627 0.0
H473 H 0.23555 0.15404 0.92486 0.0
H474 H 0.16819 0.27714 0.92009 0.0
C475 C 0.07878 0.27307 0.80866 0.0
C476 C 0.15691 0.20552 0.84938 0.0
C477 C 0.05504 0.28019 0.7785 0.0
C478 C 0.23484 0.14598 0.97309 0.0
C479 C 0.22252 0.16483 0.94344 0.0
C480 C 0.16485 0.2563 0.9008 0.0
C481 C 0.1204 0.26091 0.81342 0.0
C482 C 0.14267 0.24637 0.84488 0.0
C483 C 0.19381 0.19683 0.93794 0.0
C484 C 0.17784 0.2147 0.90567 0.0
H485 H 0.12969 0.26337 0.73779 0.0
H486 H 0.17088 0.24964 0.79063 0.0
H487 H 0.13634 0.30337 0.868 0.0
H488 H 0.17988 0.20292 1.01215 0.0
H489 H 0.15656 0.23417 0.9605 0.0
C490 C 0.75824 0.11802 0.33689 0.0
C491 C 0.78 0.13642 0.31475 0.0
C492 C 0.77208 0.12725 0.36854 0.0
C493 C 0.8381 0.20733 0.42068 0.0
H494 H 0.84269 0.11929 0.48491 0.0
C495 C 0.94027 0.23136 0.54301 0.0
C496 C 0.92446 0.21661 0.5691 0.0
C497 C 0.91863 0.22106 0.51297 0.0
C498 C 0.84101 0.14434 0.46729 0.0
H499 H 0.83444 0.1778 0.30901 0.0
H500 H 0.85825 0.19393 0.36373 0.0
H501 H 0.81254 0.10213 0.43047 0.0
H502 H 0.87331 0.17885 0.58373 0.0
H503 H 0.83516 0.16071 0.53072 0.0
H504 H 0.86707 0.24939 0.45718 0.0
C505 C 0.82991 0.17311 0.35666 0.0
C506 C 0.82376 0.13452 0.43608 0.0
C507 C 0.81616 0.16387 0.32516 0.0
C508 C 0.88633 0.19085 0.56421 0.0
C509 C 0.8646 0.18031 0.53387 0.0
C510 C 0.85528 0.21708 0.45173 0.0
C511 C 0.80797 0.15516 0.37878 0.0
C512 C 0.82292 0.16577 0.4123 0.0
C513 C 0.88041 0.19566 0.50788 0.0
C514 C 0.85783 0.18559 0.47539 0.0
H515 H 0.73011 0.09696 0.32973 0.0
H516 H 0.75426 0.11309 0.38489 0.0
H517 H 0.83703 0.23243 0.40314 0.0
H518 H 0.96958 0.2511 0.54564 0.0
H519 H 0.93224 0.23275 0.49363 0.0
loop_
_geom_bond_atom_site_label_1
_geom_bond_atom_site_label_2
_geom_bond_distance
_geom_bond_site_symmetry_2
_ccdc_geom_bond_type
Gd0 C3 2.818 . S
Gd0 O20 2.377 . S
Gd0 O22 2.448 . S
Gd0 O23 2.506 . S
Gd0 O24 2.435 . S
Gd0 O25 2.717 . S
Gd0 O27 2.395 . S
Gd0 O31 2.327 . S
Gd1 C12 2.818 1_554 S
Gd1 O21 2.395 . S
Gd1 O25 2.327 . S
Gd1 O26 2.377 . S
Gd1 O28 2.451 . S
Gd1 O29 2.506 . S
Gd1 O30 2.435 . S
Gd1 O31 2.717 . S
C2 O20 1.240 . S
C2 O21 1.240 . S
C3 Gd0 2.818 . S
C3 C4 1.510 . S
C3 O22 1.249 . S
C3 O23 1.252 . S
C4 C3 1.510 . S
C4 C5 1.404 . S
C4 C6 1.352 . S
C5 C4 1.404 . S
C5 C9 1.389 . S
C5 H32 0.930 . S
C6 C4 1.352 . S
C6 C8 1.374 . S
C6 H33 0.931 . S
C7 C8 1.359 . S
C7 C9 1.364 . S
C8 C6 1.374 . S
C8 C7 1.359 . S
C8 H34 0.931 . S
C9 C5 1.389 . S
C9 C7 1.364 . S
C9 H35 0.931 . S
C10 O24 1.256 . S
C10 O25 1.257 . S
C11 O26 1.240 . S
C11 O27 1.240 . S
C12 Gd1 2.818 1_556 S
C12 C13 1.510 1_545 S
C12 O28 1.249 1_556 S
C12 O29 1.252 1_556 S
C13 C12 1.510 1_565 S
C13 C14 1.404 . S
C13 C15 1.352 1_565 S
C14 C13 1.404 . S
C14 C18 1.389 . S
C14 H36 0.930 . S
C15 C13 1.352 1_545 S
C15 C17 1.374 1_545 S
C15 H37 0.931 . S
C16 C17 1.359 . S
C16 C18 1.364 . S
C17 C15 1.374 1_565 S
C17 C16 1.359 . S
C17 H38 0.931 . S
C18 C14 1.389 . S
C18 C16 1.364 . S
C18 H39 0.931 . S
C19 O30 1.256 . S
C19 O31 1.257 . S
O20 Gd0 2.377 . S
O20 C2 1.240 . S
O21 Gd1 2.395 . S
O21 C2 1.240 . S
O22 Gd0 2.448 . S
O22 C3 1.249 . S
O23 Gd0 2.506 . S
O23 C3 1.252 . S
O24 Gd0 2.435 . S
O24 C10 1.256 . S
O25 Gd0 2.717 . S
O25 Gd1 2.327 . S
O25 C10 1.257 . S
O26 Gd1 2.377 . S
O26 C11 1.240 . S
O27 Gd0 2.395 . S
O27 C11 1.240 . S
O28 Gd1 2.451 . S
O28 C12 1.249 1_554 S
O29 Gd1 2.506 . S
O29 C12 1.252 1_554 S
O30 Gd1 2.435 . S
O30 C19 1.256 . S
O31 Gd0 2.327 . S
O31 Gd1 2.717 . S
O31 C19 1.257 . S
H32 C5 0.930 . S
H33 C6 0.931 . S
H34 C8 0.931 . S
H35 C9 0.931 . S
H36 C14 0.930 . S
H37 C15 0.931 . S
H38 C17 0.931 . S
H39 C18 0.931 . S
Gd40 C43 2.818 . S
Gd40 O60 2.377 1_655 S
Gd40 O62 2.448 . S
Gd40 O63 2.506 . S
Gd40 O64 2.435 . S
Gd40 O65 2.717 1_655 S
Gd40 O67 2.395 . S
Gd40 O71 2.327 1_655 S
Gd41 C52 2.818 . S
Gd41 O61 2.395 . S
Gd41 O65 2.327 . S
Gd41 O66 2.377 . S
Gd41 O68 2.448 . S
Gd41 O69 2.506 . S
Gd41 O70 2.435 . S
Gd41 O71 2.717 . S
C42 O60 1.240 . S
C42 O61 1.240 . S
C43 Gd40 2.818 . S
C43 C44 1.510 . S
C43 O62 1.249 . S
C43 O63 1.252 . S
C44 C43 1.510 . S
C44 C45 1.404 . S
C44 C46 1.352 . S
C45 C44 1.404 . S
C45 C49 1.389 . S
C45 H72 0.930 . S
C46 C44 1.352 . S
C46 C48 1.374 . S
C46 H73 0.931 . S
C47 C48 1.359 . S
C47 C49 1.364 . S
C48 C46 1.374 . S
C48 C47 1.359 . S
C48 H74 0.931 . S
C49 C45 1.389 . S
C49 C47 1.364 . S
C49 H75 0.931 . S
C50 O64 1.256 1_455 S
C50 O65 1.257 . S
C51 O66 1.240 1_655 S
C51 O67 1.240 . S
C52 Gd41 2.818 . S
C52 C53 1.510 . S
C52 O68 1.249 . S
C52 O69 1.252 . S
C53 C52 1.510 . S
C53 C54 1.404 . S
C53 C55 1.352 . S
C54 C53 1.404 . S
C54 C58 1.389 . S
C54 H76 0.930 . S
C55 C53 1.352 . S
C55 C57 1.374 . S
C55 H77 0.931 . S
C56 C57 1.359 . S
C56 C58 1.364 . S
C57 C55 1.374 . S
C57 C56 1.359 . S
C57 H78 0.931 . S
C58 C54 1.389 . S
C58 C56 1.364 . S
C58 H79 0.931 . S
C59 O70 1.256 . S
C59 O71 1.257 . S
O60 Gd40 2.377 1_455 S
O60 C42 1.240 . S
O61 Gd41 2.395 . S
O61 C42 1.240 . S
O62 Gd40 2.448 . S
O62 C43 1.249 . S
O63 Gd40 2.506 . S
O63 C43 1.252 . S
O64 Gd40 2.435 . S
O64 C50 1.256 1_655 S
O65 Gd40 2.717 1_455 S
O65 Gd41 2.327 . S
O65 C50 1.257 . S
O66 Gd41 2.377 . S
O66 C51 1.240 1_455 S
O67 Gd40 2.395 . S
O67 C51 1.240 . S
O68 Gd41 2.448 . S
O68 C52 1.249 . S
O69 Gd41 2.506 . S
O69 C52 1.252 . S
O70 Gd41 2.435 . S
O70 C59 1.256 . S
O71 Gd40 2.327 1_455 S
O71 Gd41 2.717 . S
O71 C59 1.257 . S
H72 C45 0.930 . S
H73 C46 0.931 . S
H74 C48 0.931 . S
H75 C49 0.931 . S
H76 C54 0.930 . S
H77 C55 0.931 . S
H78 C57 0.931 . S
H79 C58 0.931 . S
Gd80 C83 2.818 . S
Gd80 O100 2.377 . S
Gd80 O102 2.448 . S
Gd80 O103 2.506 . S
Gd80 O104 2.435 . S
Gd80 O105 2.717 . S
Gd80 O107 2.395 . S
Gd80 O111 2.327 . S
Gd81 C92 2.818 . S
Gd81 O101 2.395 . S
Gd81 O105 2.327 1_565 S
Gd81 O106 2.377 1_565 S
Gd81 O108 2.448 . S
Gd81 O109 2.506 . S
Gd81 O110 2.435 . S
Gd81 O111 2.717 1_565 S
C82 O100 1.240 1_565 S
C82 O101 1.240 . S
C83 Gd80 2.818 . S
C83 C84 1.510 . S
C83 O102 1.249 . S
C83 O103 1.252 . S
C84 C83 1.510 . S
C84 C85 1.404 . S
C84 C86 1.352 . S
C85 C84 1.404 . S
C85 C89 1.389 . S
C85 H112 0.930 . S
C86 C84 1.352 . S
C86 C88 1.374 . S
C86 H113 0.931 . S
C87 C88 1.359 . S
C87 C89 1.364 . S
C88 C86 1.374 . S
C88 C87 1.359 . S
C88 H114 0.931 . S
C89 C85 1.389 . S
C89 C87 1.364 . S
C89 H115 0.931 . S
C90 O104 1.256 . S
C90 O105 1.257 . S
C91 O106 1.240 . S
C91 O107 1.240 . S
C92 Gd81 2.818 . S
C92 C93 1.510 . S
C92 O108 1.249 . S
C92 O109 1.252 . S
C93 C92 1.510 . S
C93 C94 1.404 1_554 S
C93 C95 1.329 1_554 S
C94 C93 1.404 1_556 S
C94 C98 1.389 . S
C94 H116 0.930 1_556 S
C95 C93 1.329 1_556 S
C95 C97 1.411 . S
C95 H117 0.917 1_556 S
C96 C97 1.359 . S
C96 C98 1.364 . S
C97 C95 1.411 . S
C97 C96 1.359 . S
C97 H118 0.931 . S
C98 C94 1.389 . S
C98 C96 1.364 . S
C98 H119 0.931 . S
C99 O110 1.256 1_545 S
C99 O111 1.257 . S
O100 Gd80 2.377 . S
O100 C82 1.240 1_545 S
O101 Gd81 2.395 . S
O101 C82 1.240 . S
O102 Gd80 2.448 . S
O102 C83 1.249 . S
O103 Gd80 2.506 . S
O103 C83 1.252 . S
O104 Gd80 2.435 . S
O104 C90 1.256 . S
O105 Gd80 2.717 . S
O105 Gd81 2.327 1_545 S
O105 C90 1.257 . S
O106 Gd81 2.377 1_545 S
O106 C91 1.240 . S
O107 Gd80 2.395 . S
O107 C91 1.240 . S
O108 Gd81 2.448 . S
O108 C92 1.249 . S
O109 Gd81 2.506 . S
O109 C92 1.252 . S
O110 Gd81 2.435 . S
O110 C99 1.256 1_565 S
O111 Gd80 2.327 . S
O111 Gd81 2.717 1_545 S
O111 C99 1.257 . S
H112 C85 0.930 . S
H113 C86 0.931 . S
H114 C88 0.931 . S
H115 C89 0.931 . S
H116 C94 0.930 1_554 S
H117 C95 0.917 1_554 S
H118 C97 0.931 . S
H119 C98 0.931 . S
Gd120 C123 2.818 . S
Gd120 O140 2.377 1_655 S
Gd120 O142 2.448 . S
Gd120 O143 2.506 . S
Gd120 O144 2.435 . S
Gd120 O145 2.717 1_655 S
Gd120 O147 2.395 . S
Gd120 O151 2.327 1_655 S
Gd121 C132 2.818 . S
Gd121 O141 2.395 . S
Gd121 O145 2.327 . S
Gd121 O146 2.377 . S
Gd121 O148 2.448 . S
Gd121 O149 2.506 . S
Gd121 O150 2.435 . S
Gd121 O151 2.717 . S
C122 O140 1.240 . S
C122 O141 1.240 . S
C123 Gd120 2.818 . S
C123 C124 1.510 . S
C123 O142 1.249 . S
C123 O143 1.252 . S
C124 C123 1.510 . S
C124 C125 1.404 . S
C124 C126 1.352 . S
C125 C124 1.404 . S
C125 C129 1.389 . S
C125 H152 0.930 . S
C126 C124 1.352 . S
C126 C128 1.374 . S
C126 H153 0.931 . S
C127 C128 1.359 . S
C127 C129 1.364 . S
C128 C126 1.374 . S
C128 C127 1.359 . S
C128 H154 0.931 . S
C129 C125 1.389 . S
C129 C127 1.364 . S
C129 H155 0.931 . S
C130 O144 1.256 1_455 S
C130 O145 1.257 . S
C131 O146 1.240 1_655 S
C131 O147 1.240 . S
C132 Gd121 2.818 . S
C132 C133 1.510 . S
C132 O148 1.249 . S
C132 O149 1.252 . S
C133 C132 1.510 . S
C133 C134 1.404 . S
C133 C135 1.352 . S
C134 C133 1.404 . S
C134 C138 1.389 . S
C134 H156 0.930 . S
C135 C133 1.352 . S
C135 C137 1.374 . S
C135 H157 0.931 . S
C136 C137 1.359 . S
C136 C138 1.364 . S
C137 C135 1.374 . S
C137 C136 1.359 . S
C137 H158 0.931 . S
C138 C134 1.389 . S
C138 C136 1.364 . S
C138 H159 0.931 . S
C139 O150 1.256 . S
C139 O151 1.257 . S
O140 Gd120 2.377 1_455 S
O140 C122 1.240 . S
O141 Gd121 2.395 . S
O141 C122 1.240 . S
O142 Gd120 2.448 . S
O142 C123 1.249 . S
O143 Gd120 2.506 . S
O143 C123 1.252 . S
O144 Gd120 2.435 . S
O144 C130 1.256 1_655 S
O145 Gd120 2.717 1_455 S
O145 Gd121 2.327 . S
O145 C130 1.257 . S
O146 Gd121 2.377 . S
O146 C131 1.240 1_455 S
O147 Gd120 2.395 . S
O147 C131 1.240 . S
O148 Gd121 2.448 . S
O148 C132 1.249 . S
O149 Gd121 2.506 . S
O149 C132 1.252 . S
O150 Gd121 2.435 . S
O150 C139 1.256 . S
O151 Gd120 2.327 1_455 S
O151 Gd121 2.717 . S
O151 C139 1.257 . S
H152 C125 0.930 . S
H153 C126 0.931 . S
H154 C128 0.931 . S
H155 C129 0.931 . S
H156 C134 0.930 . S
H157 C135 0.931 . S
H158 C137 0.931 . S
H159 C138 0.931 . S
C160 C161 1.349 . S
C160 C162 1.327 . S
C160 H185 0.950 . S
C161 C160 1.349 . S
C161 C177 1.349 1_545 S
C162 C160 1.327 . S
C162 C181 1.429 . S
C162 H186 0.950 . S
C163 C180 1.574 . S
C163 C182 1.368 1_455 S
C163 H187 0.949 1_545 S
H164 C168 0.949 . S
C165 C166 1.349 . S
C165 C167 1.327 . S
C165 H188 0.950 . S
C166 C165 1.349 . S
C166 C178 1.349 . S
C167 C165 1.327 . S
C167 C183 1.429 . S
C167 H189 0.950 . S
C168 H164 0.949 . S
C168 C176 1.574 1_455 S
C168 C184 1.368 . S
H169 C177 0.950 . S
H170 C175 0.950 . S
H171 C176 0.949 . S
H172 C178 0.950 . S
H173 C179 0.950 . S
H174 C180 0.949 . S
C175 H170 0.950 . S
C175 C177 1.327 . S
C175 C181 1.429 1_565 S
C176 C168 1.574 1_655 S
C176 H171 0.949 . S
C176 C182 1.368 . S
C177 C161 1.349 1_565 S
C177 H169 0.950 . S
C177 C175 1.327 . S
C178 C166 1.349 . S
C178 H172 0.950 . S
C178 C179 1.327 . S
C179 H173 0.950 . S
C179 C178 1.327 . S
C179 C183 1.429 . S
C180 C163 1.574 . S
C180 H174 0.949 . S
C180 C184 1.368 . S
C181 C162 1.429 . S
C181 C175 1.429 1_545 S
C181 C182 1.523 . S
C182 C163 1.368 1_655 S
C182 C176 1.368 . S
C182 C181 1.523 . S
C183 C167 1.429 . S
C183 C179 1.429 . S
C183 C184 1.523 . S
C184 C168 1.368 . S
C184 C180 1.368 . S
C184 C183 1.523 . S
H185 C160 0.950 . S
H186 C162 0.950 . S
H187 C163 0.949 1_565 S
H188 C165 0.950 . S
H189 C167 0.950 . S
C190 C191 1.349 . S
C190 C192 1.327 . S
C190 H215 0.950 1_455 S
C191 C190 1.349 . S
C191 C207 1.349 . S
C192 C190 1.327 . S
C192 C211 1.429 . S
C192 H216 0.950 1_455 S
C193 C210 1.574 . S
C193 C212 1.368 . S
C193 H217 0.949 1_545 S
H194 C198 0.949 1_655 S
C195 C196 1.349 . S
C195 C197 1.327 . S
C195 H218 0.950 . S
C196 C195 1.349 . S
C196 C208 1.349 . S
C197 C195 1.327 . S
C197 C213 1.429 . S
C197 H219 0.950 . S
C198 H194 0.949 1_455 S
C198 C206 1.574 . S
C198 C214 1.368 . S
H199 C207 0.950 . S
H200 C205 0.950 . S
H201 C206 0.949 1_655 S
H202 C208 0.950 1_655 S
H203 C209 0.950 1_655 S
H204 C210 0.949 . S
C205 H200 0.950 . S
C205 C207 1.327 . S
C205 C211 1.429 . S
C206 C198 1.574 . S
C206 H201 0.949 1_455 S
C206 C212 1.368 . S
C207 C191 1.349 . S
C207 H199 0.950 . S
C207 C205 1.327 . S
C208 C196 1.349 . S
C208 H202 0.950 1_455 S
C208 C209 1.327 . S
C209 H203 0.950 1_455 S
C209 C208 1.327 . S
C209 C213 1.429 . S
C210 C193 1.574 . S
C210 H204 0.949 . S
C210 C214 1.368 . S
C211 C192 1.429 . S
C211 C205 1.429 . S
C211 C212 1.523 1_565 S
C212 C193 1.368 . S
C212 C206 1.368 . S
C212 C211 1.523 1_545 S
C213 C197 1.429 . S
C213 C209 1.429 . S
C213 C214 1.523 . S
C214 C198 1.368 . S
C214 C210 1.368 . S
C214 C213 1.523 . S
H215 C190 0.950 1_655 S
H216 C192 0.950 1_655 S
H217 C193 0.949 1_565 S
H218 C195 0.950 . S
H219 C197 0.950 . S
C220 C221 1.349 . S
C220 C222 1.327 . S
C220 H245 0.950 . S
C221 C220 1.349 . S
C221 C237 1.349 1_545 S
C222 C220 1.327 . S
C222 C241 1.429 . S
C222 H246 0.950 . S
C223 C240 1.574 . S
C223 C242 1.368 . S
C223 H247 0.949 1_545 S
H224 C228 0.949 . S
C225 C226 1.349 . S
C225 C227 1.327 . S
C225 H248 0.950 . S
C226 C225 1.349 . S
C226 C238 1.349 . S
C227 C225 1.327 . S
C227 C243 1.429 . S
C227 H249 0.950 . S
C228 H224 0.949 . S
C228 C236 1.574 . S
C228 C244 1.368 . S
H229 C237 0.950 . S
H230 C235 0.950 . S
H231 C236 0.949 . S
H232 C238 0.950 . S
H233 C239 0.950 . S
H234 C240 0.949 1_565 S
C235 H230 0.950 . S
C235 C237 1.327 . S
C235 C241 1.429 1_565 S
C236 C228 1.574 . S
C236 H231 0.949 . S
C236 C242 1.368 . S
C237 C221 1.349 1_565 S
C237 H229 0.950 . S
C237 C235 1.327 . S
C238 C226 1.349 . S
C238 H232 0.950 . S
C238 C239 1.327 . S
C239 H233 0.950 . S
C239 C238 1.327 . S
C239 C243 1.429 . S
C240 C223 1.574 . S
C240 H234 0.949 1_545 S
C240 C244 1.368 . S
C241 C222 1.429 . S
C241 C235 1.429 1_545 S
C241 C242 1.523 . S
C242 C223 1.368 . S
C242 C236 1.368 . S
C242 C241 1.523 . S
C243 C227 1.429 . S
C243 C239 1.429 . S
C243 C244 1.523 . S
C244 C228 1.368 . S
C244 C240 1.368 . S
C244 C243 1.523 . S
H245 C220 0.950 . S
H246 C222 0.950 . S
H247 C223 0.949 1_565 S
H248 C225 0.950 . S
H249 C227 0.950 . S
C250 C251 1.349 . S
C250 C252 1.327 . S
C250 H275 0.950 . S
C251 C250 1.349 . S
C251 C267 1.349 . S
C252 C250 1.327 . S
C252 C271 1.429 . S
C252 H276 0.950 . S
C253 C270 1.574 . S
C253 C272 1.368 . S
C253 H277 0.949 . S
H254 C258 0.949 . S
C255 C256 1.349 . S
C255 C257 1.327 . S
C255 H278 0.950 . S
C256 C255 1.349 . S
C256 C268 1.349 . S
C257 C255 1.327 . S
C257 C273 1.429 . S
C257 H279 0.950 . S
C258 H254 0.949 . S
C258 C266 1.574 . S
C258 C274 1.368 . S
H259 C267 0.950 . S
H260 C265 0.950 . S
H261 C266 0.949 . S
H262 C268 0.950 . S
H263 C269 0.950 . S
H264 C270 0.949 . S
C265 H260 0.950 . S
C265 C267 1.327 . S
C265 C271 1.429 . S
C266 C258 1.574 . S
C266 H261 0.949 . S
C266 C272 1.368 . S
C267 C251 1.349 . S
C267 H259 0.950 . S
C267 C265 1.327 . S
C268 C256 1.349 . S
C268 H262 0.950 . S
C268 C269 1.327 . S
C269 H263 0.950 . S
C269 C268 1.327 . S
C269 C273 1.429 . S
C270 C253 1.574 . S
C270 H264 0.949 . S
C270 C274 1.368 . S
C271 C252 1.429 . S
C271 C265 1.429 . S
C271 C272 1.523 . S
C272 C253 1.368 . S
C272 C266 1.368 . S
C272 C271 1.523 . S
C273 C257 1.429 . S
C273 C269 1.429 . S
C273 C274 1.523 . S
C274 C258 1.368 . S
C274 C270 1.368 . S
C274 C273 1.523 . S
H275 C250 0.950 . S
H276 C252 0.950 . S
H277 C253 0.949 . S
H278 C255 0.950 . S
H279 C257 0.950 . S
C280 C281 1.349 . S
C280 C282 1.327 . S
C280 H305 0.950 . S
C281 C280 1.349 . S
C281 C297 1.349 . S
C282 C280 1.327 . S
C282 C301 1.429 . S
C282 H306 0.950 . S
C283 C300 1.574 . S
C283 C302 1.368 . S
C283 H307 0.949 . S
H284 C288 0.949 . S
C285 C286 1.349 . S
C285 C287 1.327 . S
C285 H308 0.950 . S
C286 C285 1.349 . S
C286 C298 1.349 . S
C287 C285 1.327 . S
C287 C303 1.429 . S
C287 H309 0.950 . S
C288 H284 0.949 . S
C288 C296 1.574 . S
C288 C304 1.368 . S
H289 C297 0.950 . S
H290 C295 0.950 . S
H291 C296 0.949 . S
H292 C298 0.950 . S
H293 C299 0.950 . S
H294 C300 0.949 . S
C295 H290 0.950 . S
C295 C297 1.327 . S
C295 C301 1.429 . S
C296 C288 1.574 . S
C296 H291 0.949 . S
C296 C302 1.368 . S
C297 C281 1.349 . S
C297 H289 0.950 . S
C297 C295 1.327 . S
C298 C286 1.349 . S
C298 H292 0.950 . S
C298 C299 1.327 . S
C299 H293 0.950 . S
C299 C298 1.327 . S
C299 C303 1.429 . S
C300 C283 1.574 . S
C300 H294 0.949 . S
C300 C304 1.368 . S
C301 C282 1.429 . S
C301 C295 1.429 . S
C301 C302 1.523 . S
C302 C283 1.368 . S
C302 C296 1.368 . S
C302 C301 1.523 . S
C303 C287 1.429 . S
C303 C299 1.429 . S
C303 C304 1.523 . S
C304 C288 1.368 . S
C304 C300 1.368 . S
C304 C303 1.523 . S
H305 C280 0.950 . S
H306 C282 0.950 . S
H307 C283 0.949 . S
H308 C285 0.950 . S
H309 C287 0.950 . S
C310 C311 1.349 . S
C310 C312 1.327 . S
C310 H335 0.950 . S
C311 C310 1.349 . S
C311 C327 1.349 . S
C312 C310 1.327 . S
C312 C331 1.429 . S
C312 H336 0.950 . S
C313 C330 1.574 . S
C313 C332 1.368 . S
C313 H337 0.949 . S
H314 C318 0.949 . S
C315 C316 1.349 . S
C315 C317 1.314 1_554 S
C315 H338 0.950 . S
C316 C315 1.349 . S
C316 C328 1.349 . S
C317 C315 1.314 1_556 S
C317 C333 1.435 . S
C317 H339 0.956 . S
C318 H314 0.949 . S
C318 C326 1.574 . S
C318 C334 1.368 . S
H319 C327 0.950 . S
H320 C325 0.950 . S
H321 C326 0.949 . S
H322 C328 0.950 . S
H323 C329 0.950 . S
H324 C330 0.949 . S
C325 H320 0.950 . S
C325 C327 1.327 . S
C325 C331 1.429 . S
C326 C318 1.574 . S
C326 H321 0.949 . S
C326 C332 1.368 . S
C327 C311 1.349 . S
C327 H319 0.950 . S
C327 C325 1.327 . S
C328 C316 1.349 . S
C328 H322 0.950 . S
C328 C329 1.327 1_554 S
C329 H323 0.950 . S
C329 C328 1.327 1_556 S
C329 C333 1.429 . S
C330 C313 1.574 . S
C330 H324 0.949 . S
C330 C334 1.368 . S
C331 C312 1.429 . S
C331 C325 1.429 . S
C331 C332 1.523 . S
C332 C313 1.368 . S
C332 C326 1.368 . S
C332 C331 1.523 . S
C333 C317 1.435 . S
C333 C329 1.429 . S
C333 C334 1.523 . S
C334 C318 1.368 . S
C334 C330 1.368 . S
C334 C333 1.523 . S
H335 C310 0.950 . S
H336 C312 0.950 . S
H337 C313 0.949 . S
H338 C315 0.950 . S
H339 C317 0.956 . S
C340 C341 1.349 . S
C340 C342 1.327 . S
C340 H365 0.950 . S
C341 C340 1.349 . S
C341 C357 1.349 . S
C342 C340 1.327 . S
C342 C361 1.429 . S
C342 H366 0.950 . S
C343 C360 1.574 . S
C343 C362 1.368 . S
C343 H367 0.949 . S
H344 C348 0.949 . S
C345 C346 1.349 . S
C345 C347 1.327 . S
C345 H368 0.950 . S
C346 C345 1.349 . S
C346 C358 1.349 . S
C347 C345 1.327 . S
C347 C363 1.429 . S
C347 H369 0.950 . S
C348 H344 0.949 . S
C348 C356 1.574 . S
C348 C364 1.368 . S
H349 C357 0.950 . S
H350 C355 0.950 . S
H351 C356 0.949 . S
H352 C358 0.950 1_545 S
H353 C359 0.950 . S
H354 C360 0.949 . S
C355 H350 0.950 . S
C355 C357 1.327 . S
C355 C361 1.429 . S
C356 C348 1.574 . S
C356 H351 0.949 . S
C356 C362 1.368 . S
C357 C341 1.349 . S
C357 H349 0.950 . S
C357 C355 1.327 . S
C358 C346 1.349 . S
C358 H352 0.950 1_565 S
C358 C359 1.327 . S
C359 H353 0.950 . S
C359 C358 1.327 . S
C359 C363 1.429 . S
C360 C343 1.574 . S
C360 H354 0.949 . S
C360 C364 1.368 . S
C361 C342 1.429 . S
C361 C355 1.429 . S
C361 C362 1.523 . S
C362 C343 1.368 . S
C362 C356 1.368 . S
C362 C361 1.523 . S
C363 C347 1.429 . S
C363 C359 1.429 . S
C363 C364 1.523 . S
C364 C348 1.368 . S
C364 C360 1.368 . S
C364 C363 1.523 . S
H365 C340 0.950 . S
H366 C342 0.950 . S
H367 C343 0.949 . S
H368 C345 0.950 . S
H369 C347 0.950 . S
C370 C371 1.349 . S
C370 C372 1.327 . S
C370 H395 0.950 . S
C371 C370 1.349 . S
C371 C387 1.349 . S
C372 C370 1.327 . S
C372 C391 1.429 . S
C372 H396 0.950 . S
C373 C390 1.574 . S
C373 C392 1.368 . S
C373 H397 0.949 . S
H374 C378 0.949 . S
C375 C376 1.349 . S
C375 C377 1.327 . S
C375 H398 0.950 . S
C376 C375 1.349 . S
C376 C388 1.349 . S
C377 C375 1.327 . S
C377 C393 1.429 . S
C377 H399 0.950 . S
C378 H374 0.949 . S
C378 C386 1.574 . S
C378 C394 1.368 . S
H379 C387 0.950 . S
H380 C385 0.950 . S
H381 C386 0.949 . S
H382 C388 0.950 . S
H383 C389 0.950 . S
H384 C390 0.949 . S
C385 H380 0.950 . S
C385 C387 1.327 . S
C385 C391 1.429 . S
C386 C378 1.574 . S
C386 H381 0.949 . S
C386 C392 1.368 . S
C387 C371 1.349 . S
C387 H379 0.950 . S
C387 C385 1.327 . S
C388 C376 1.349 . S
C388 H382 0.950 . S
C388 C389 1.327 . S
C389 H383 0.950 . S
C389 C388 1.327 . S
C389 C393 1.429 . S
C390 C373 1.574 . S
C390 H384 0.949 . S
C390 C394 1.368 . S
C391 C372 1.429 . S
C391 C385 1.429 . S
C391 C392 1.523 . S
C392 C373 1.368 . S
C392 C386 1.368 . S
C392 C391 1.523 . S
C393 C377 1.429 . S
C393 C389 1.429 . S
C393 C394 1.523 . S
C394 C378 1.368 . S
C394 C390 1.368 . S
C394 C393 1.523 . S
H395 C370 0.950 . S
H396 C372 0.950 . S
H397 C373 0.949 . S
H398 C375 0.950 . S
H399 C377 0.950 . S
C400 C401 1.349 . S
C400 C402 1.327 . S
C400 H425 0.950 . S
C401 C400 1.349 . S
C401 C417 1.349 . S
C402 C400 1.327 . S
C402 C421 1.429 . S
C402 H426 0.950 . S
C403 C420 1.574 . S
C403 C422 1.368 . S
C403 H427 0.949 . S
H404 C408 0.949 . S
C405 C406 1.349 . S
C405 C407 1.327 . S
C405 H428 0.950 . S
C406 C405 1.349 . S
C406 C418 1.349 . S
C407 C405 1.327 . S
C407 C423 1.429 . S
C407 H429 0.950 . S
C408 H404 0.949 . S
C408 C416 1.574 . S
C408 C424 1.368 . S
H409 C417 0.950 . S
H410 C415 0.950 . S
H411 C416 0.949 . S
H412 C418 0.950 . S
H413 C419 0.950 . S
H414 C420 0.949 . S
C415 H410 0.950 . S
C415 C417 1.327 . S
C415 C421 1.429 . S
C416 C408 1.574 . S
C416 H411 0.949 . S
C416 C422 1.368 . S
C417 C401 1.349 . S
C417 H409 0.950 . S
C417 C415 1.327 . S
C418 C406 1.349 . S
C418 H412 0.950 . S
C418 C419 1.327 . S
C419 H413 0.950 . S
C419 C418 1.327 . S
C419 C423 1.429 . S
C420 C403 1.574 . S
C420 H414 0.949 . S
C420 C424 1.368 . S
C421 C402 1.429 . S
C421 C415 1.429 . S
C421 C422 1.523 . S
C422 C403 1.368 . S
C422 C416 1.368 . S
C422 C421 1.523 . S
C423 C407 1.429 . S
C423 C419 1.429 . S
C423 C424 1.523 . S
C424 C408 1.368 . S
C424 C420 1.368 . S
C424 C423 1.523 . S
H425 C400 0.950 . S
H426 C402 0.950 . S
H427 C403 0.949 . S
H428 C405 0.950 . S
H429 C407 0.950 . S
C430 C431 1.349 1_565 S
C430 C432 1.327 . S
C430 H455 0.950 . S
C431 C430 1.349 1_545 S
C431 C447 1.349 . S
C432 C430 1.327 . S
C432 C451 1.429 . S
C432 H456 0.950 . S
C433 C450 1.574 . S
C433 C452 1.368 . S
C433 H457 0.949 1_565 S
H434 C438 0.949 . S
C435 C436 1.349 . S
C435 C437 1.327 . S
C435 H458 0.950 . S
C436 C435 1.349 . S
C436 C448 1.349 . S
C437 C435 1.327 . S
C437 C453 1.429 . S
C437 H459 0.950 . S
C438 H434 0.949 . S
C438 C446 1.574 . S
C438 C454 1.368 . S
H439 C447 0.950 . S
H440 C445 0.950 . S
H441 C446 0.949 . S
H442 C448 0.950 . S
H443 C449 0.950 . S
H444 C450 0.949 . S
C445 H440 0.950 . S
C445 C447 1.327 . S
C445 C451 1.429 1_545 S
C446 C438 1.574 . S
C446 H441 0.949 . S
C446 C452 1.368 . S
C447 C431 1.349 . S
C447 H439 0.950 . S
C447 C445 1.327 . S
C448 C436 1.349 . S
C448 H442 0.950 . S
C448 C449 1.327 . S
C449 H443 0.950 . S
C449 C448 1.327 . S
C449 C453 1.429 . S
C450 C433 1.574 . S
C450 H444 0.949 . S
C450 C454 1.368 . S
C451 C432 1.429 . S
C451 C445 1.429 1_565 S
C451 C452 1.523 . S
C452 C433 1.368 . S
C452 C446 1.368 . S
C452 C451 1.523 . S
C453 C437 1.429 . S
C453 C449 1.429 . S
C453 C454 1.523 . S
C454 C438 1.368 . S
C454 C450 1.368 . S
C454 C453 1.523 . S
H455 C430 0.950 . S
H456 C432 0.950 . S
H457 C433 0.949 1_545 S
H458 C435 0.950 . S
H459 C437 0.950 . S
C460 C461 1.349 . S
C460 C462 1.327 . S
C460 H485 0.950 . S
C461 C460 1.349 . S
C461 C477 1.349 . S
C462 C460 1.327 . S
C462 C481 1.429 . S
C462 H486 0.950 . S
C463 C480 1.574 . S
C463 C482 1.368 . S
C463 H487 0.949 . S
H464 C468 0.949 . S
C465 C466 1.349 . S
C465 C467 1.327 . S
C465 H488 0.950 . S
C466 C465 1.349 . S
C466 C478 1.349 . S
C467 C465 1.327 . S
C467 C483 1.429 . S
C467 H489 0.950 . S
C468 H464 0.949 . S
C468 C476 1.574 . S
C468 C484 1.368 . S
H469 C477 0.950 . S
H470 C475 0.950 . S
H471 C476 0.949 . S
H472 C478 0.950 . S
H473 C479 0.950 . S
H474 C480 0.949 . S
C475 H470 0.950 . S
C475 C477 1.327 . S
C475 C481 1.429 . S
C476 C468 1.574 . S
C476 H471 0.949 . S
C476 C482 1.368 . S
C477 C461 1.349 . S
C477 H469 0.950 . S
C477 C475 1.327 . S
C478 C466 1.349 . S
C478 H472 0.950 . S
C478 C479 1.327 . S
C479 H473 0.950 . S
C479 C478 1.327 . S
C479 C483 1.429 . S
C480 C463 1.574 . S
C480 H474 0.949 . S
C480 C484 1.368 . S
C481 C462 1.429 . S
C481 C475 1.429 . S
C481 C482 1.523 . S
C482 C463 1.368 . S
C482 C476 1.368 . S
C482 C481 1.523 . S
C483 C467 1.429 . S
C483 C479 1.429 . S
C483 C484 1.523 . S
C484 C468 1.368 . S
C484 C480 1.368 . S
C484 C483 1.523 . S
H485 C460 0.950 . S
H486 C462 0.950 . S
H487 C463 0.949 . S
H488 C465 0.950 . S
H489 C467 0.950 . S
C490 C491 1.349 . S
C490 C492 1.327 . S
C490 H515 0.950 . S
C491 C490 1.349 . S
C491 C507 1.349 . S
C492 C490 1.327 . S
C492 C511 1.429 . S
C492 H516 0.950 . S
C493 C510 1.574 . S
C493 C512 1.368 . S
C493 H517 0.949 . S
H494 C498 0.949 . S
C495 C496 1.349 . S
C495 C497 1.327 . S
C495 H518 0.950 1_655 S
C496 C495 1.349 . S
C496 C508 1.349 . S
C497 C495 1.327 . S
C497 C513 1.429 . S
C497 H519 0.950 . S
C498 H494 0.949 . S
C498 C506 1.574 . S
C498 C514 1.368 . S
H499 C507 0.950 . S
H500 C505 0.950 . S
H501 C506 0.949 . S
H502 C508 0.950 . S
H503 C509 0.950 . S
H504 C510 0.949 . S
C505 H500 0.950 . S
C505 C507 1.327 . S
C505 C511 1.429 . S
C506 C498 1.574 . S
C506 H501 0.949 . S
C506 C512 1.368 . S
C507 C491 1.349 . S
C507 H499 0.950 . S
C507 C505 1.327 . S
C508 C496 1.349 . S
C508 H502 0.950 . S
C508 C509 1.327 . S
C509 H503 0.950 . S
C509 C508 1.327 . S
C509 C513 1.429 . S
C510 C493 1.574 . S
C510 H504 0.949 . S
C510 C514 1.368 . S
C511 C492 1.429 . S
C511 C505 1.429 . S
C511 C512 1.523 . S
C512 C493 1.368 . S
C512 C506 1.368 . S
C512 C511 1.523 . S
C513 C497 1.429 . S
C513 C509 1.429 . S
C513 C514 1.523 . S
C514 C498 1.368 . S
C514 C510 1.368 . S
C514 C513 1.523 . S
H515 C490 0.950 . S
H516 C492 0.950 . S
H517 C493 0.949 . S
H518 C495 0.950 1_455 S
H519 C497 0.950 . S
C161 C90 0.868 . S
C166 C19 0.868 . S
C191 C130 1.128 . S
C196 C59 1.128 . S
C221 C99 0.974 . S
C226 C10 0.974 . S
C251 C50 0.952 . S
C256 C139 0.952 . S
C281 C56 1.006 . S
C286 C7 1.001 . S
C311 C47 1.780 . S
C316 C91 1.804 . S
C341 C131 2.151 . S
C346 C82 2.103 . S
C371 C122 1.285 . S
C376 C16 1.305 . S
C401 C96 1.001 . S
C406 C127 1.006 . S
C431 C2 1.804 . S
C436 C136 1.780 . S
C461 C42 2.151 . S
C466 C11 2.103 1_556 S
C491 C87 1.305 . S
C496 C51 1.285 . S
