# Generated by pormake.
# Topology uoe, (4)-cn, num edge types: 1
# Building blocks:
#     Node 0, Type 0, BuildingBlock: MUDLON_clean_sbu_0, # of connection points: 4
#     Node 1, Type 0, BuildingBlock: MUDLON_clean_sbu_0, # of connection points: 4
#     Node 2, Type 0, BuildingBlock: MUDLON_clean_sbu_0, # of connection points: 4
#     Node 3, Type 0, BuildingBlock: MUDLON_clean_sbu_0, # of connection points: 4
#     Node 4, Type 0, BuildingBlock: MUDLON_clean_sbu_0, # of connection points: 4
#     Node 5, Type 0, BuildingBlock: MUDLON_clean_sbu_0, # of connection points: 4
#     Node 6, Type 0, BuildingBlock: MUDLON_clean_sbu_0, # of connection points: 4
#     Node 7, Type 0, BuildingBlock: MUDLON_clean_sbu_0, # of connection points: 4
#     Node 8, Type 0, BuildingBlock: MUDLON_clean_sbu_0, # of connection points: 4
#     Node 9, Type 0, BuildingBlock: MUDLON_clean_sbu_0, # of connection points: 4
#     Node 10, Type 0, BuildingBlock: MUDLON_clean_sbu_0, # of connection points: 4
#     Node 11, Type 0, BuildingBlock: MUDLON_clean_sbu_0, # of connection points: 4
#     Node 12, Type 0, BuildingBlock: MUDLON_clean_sbu_0, # of connection points: 4
#     Node 13, Type 0, BuildingBlock: MUDLON_clean_sbu_0, # of connection points: 4
#     Node 14, Type 0, BuildingBlock: MUDLON_clean_sbu_0, # of connection points: 4
#     Node 15, Type 0, BuildingBlock: MUDLON_clean_sbu_0, # of connection points: 4
#     Node 16, Type 0, BuildingBlock: MUDLON_clean_sbu_0, # of connection points: 4
#     Node 17, Type 0, BuildingBlock: MUDLON_clean_sbu_0, # of connection points: 4
#     Node 18, Type 0, BuildingBlock: MUDLON_clean_sbu_0, # of connection points: 4
#     Node 19, Type 0, BuildingBlock: MUDLON_clean_sbu_0, # of connection points: 4
#     Node 20, Type 0, BuildingBlock: MUDLON_clean_sbu_0, # of connection points: 4
#     Node 21, Type 0, BuildingBlock: MUDLON_clean_sbu_0, # of connection points: 4
#     Node 22, Type 0, BuildingBlock: MUDLON_clean_sbu_0, # of connection points: 4
#     Node 23, Type 0, BuildingBlock: MUDLON_clean_sbu_0, # of connection points: 4
#     Node 24, Type 0, BuildingBlock: MUDLON_clean_sbu_0, # of connection points: 4
#     Node 25, Type 0, BuildingBlock: MUDLON_clean_sbu_0, # of connection points: 4
#     Node 26, Type 0, BuildingBlock: MUDLON_clean_sbu_0, # of connection points: 4
#     Node 27, Type 0, BuildingBlock: MUDLON_clean_sbu_0, # of connection points: 4
#     Node 28, Type 0, BuildingBlock: MUDLON_clean_sbu_0, # of connection points: 4
#     Node 29, Type 0, BuildingBlock: MUDLON_clean_sbu_0, # of connection points: 4
#     Node 30, Type 0, BuildingBlock: MUDLON_clean_sbu_0, # of connection points: 4
#     Node 31, Type 0, BuildingBlock: MUDLON_clean_sbu_0, # of connection points: 4
#     Edge 32, Type (0, 0), BuildingBlock: EZIPEK_clean_linker_0, # of connection points: 2
#     Edge 33, Type (0, 0), BuildingBlock: EZIPEK_clean_linker_0, # of connection points: 2
#     Edge 34, Type (0, 0), BuildingBlock: EZIPEK_clean_linker_0, # of connection points: 2
#     Edge 35, Type (0, 0), BuildingBlock: EZIPEK_clean_linker_0, # of connection points: 2
#     Edge 36, Type (0, 0), BuildingBlock: EZIPEK_clean_linker_0, # of connection points: 2
#     Edge 37, Type (0, 0), BuildingBlock: EZIPEK_clean_linker_0, # of connection points: 2
#     Edge 38, Type (0, 0), BuildingBlock: EZIPEK_clean_linker_0, # of connection points: 2
#     Edge 39, Type (0, 0), BuildingBlock: EZIPEK_clean_linker_0, # of connection points: 2
#     Edge 40, Type (0, 0), BuildingBlock: EZIPEK_clean_linker_0, # of connection points: 2
#     Edge 41, Type (0, 0), BuildingBlock: EZIPEK_clean_linker_0, # of connection points: 2
#     Edge 42, Type (0, 0), BuildingBlock: EZIPEK_clean_linker_0, # of connection points: 2
#     Edge 43, Type (0, 0), BuildingBlock: EZIPEK_clean_linker_0, # of connection points: 2
#     Edge 44, Type (0, 0), BuildingBlock: EZIPEK_clean_linker_0, # of connection points: 2
#     Edge 45, Type (0, 0), BuildingBlock: EZIPEK_clean_linker_0, # of connection points: 2
#     Edge 46, Type (0, 0), BuildingBlock: EZIPEK_clean_linker_0, # of connection points: 2
#     Edge 47, Type (0, 0), BuildingBlock: EZIPEK_clean_linker_0, # of connection points: 2
#     Edge 48, Type (0, 0), BuildingBlock: EZIPEK_clean_linker_0, # of connection points: 2
#     Edge 49, Type (0, 0), BuildingBlock: EZIPEK_clean_linker_0, # of connection points: 2
#     Edge 50, Type (0, 0), BuildingBlock: EZIPEK_clean_linker_0, # of connection points: 2
#     Edge 51, Type (0, 0), BuildingBlock: EZIPEK_clean_linker_0, # of connection points: 2
#     Edge 52, Type (0, 0), BuildingBlock: EZIPEK_clean_linker_0, # of connection points: 2
#     Edge 53, Type (0, 0), BuildingBlock: EZIPEK_clean_linker_0, # of connection points: 2
#     Edge 54, Type (0, 0), BuildingBlock: EZIPEK_clean_linker_0, # of connection points: 2
#     Edge 55, Type (0, 0), BuildingBlock: EZIPEK_clean_linker_0, # of connection points: 2
#     Edge 56, Type (0, 0), BuildingBlock: EZIPEK_clean_linker_0, # of connection points: 2
#     Edge 57, Type (0, 0), BuildingBlock: EZIPEK_clean_linker_0, # of connection points: 2
#     Edge 58, Type (0, 0), BuildingBlock: EZIPEK_clean_linker_0, # of connection points: 2
#     Edge 59, Type (0, 0), BuildingBlock: EZIPEK_clean_linker_0, # of connection points: 2
#     Edge 60, Type (0, 0), BuildingBlock: EZIPEK_clean_linker_0, # of connection points: 2
#     Edge 61, Type (0, 0), BuildingBlock: EZIPEK_clean_linker_0, # of connection points: 2
#     Edge 62, Type (0, 0), BuildingBlock: EZIPEK_clean_linker_0, # of connection points: 2
#     Edge 63, Type (0, 0), BuildingBlock: EZIPEK_clean_linker_0, # of connection points: 2
#     Edge 64, Type (0, 0), BuildingBlock: EZIPEK_clean_linker_0, # of connection points: 2
#     Edge 65, Type (0, 0), BuildingBlock: EZIPEK_clean_linker_0, # of connection points: 2
#     Edge 66, Type (0, 0), BuildingBlock: EZIPEK_clean_linker_0, # of connection points: 2
#     Edge 67, Type (0, 0), BuildingBlock: EZIPEK_clean_linker_0, # of connection points: 2
#     Edge 68, Type (0, 0), BuildingBlock: EZIPEK_clean_linker_0, # of connection points: 2
#     Edge 69, Type (0, 0), BuildingBlock: EZIPEK_clean_linker_0, # of connection points: 2
#     Edge 70, Type (0, 0), BuildingBlock: EZIPEK_clean_linker_0, # of connection points: 2
#     Edge 71, Type (0, 0), BuildingBlock: EZIPEK_clean_linker_0, # of connection points: 2
#     Edge 72, Type (0, 0), BuildingBlock: EZIPEK_clean_linker_0, # of connection points: 2
#     Edge 73, Type (0, 0), BuildingBlock: EZIPEK_clean_linker_0, # of connection points: 2
#     Edge 74, Type (0, 0), BuildingBlock: EZIPEK_clean_linker_0, # of connection points: 2
#     Edge 75, Type (0, 0), BuildingBlock: EZIPEK_clean_linker_0, # of connection points: 2
#     Edge 76, Type (0, 0), BuildingBlock: EZIPEK_clean_linker_0, # of connection points: 2
#     Edge 77, Type (0, 0), BuildingBlock: EZIPEK_clean_linker_0, # of connection points: 2
#     Edge 78, Type (0, 0), BuildingBlock: EZIPEK_clean_linker_0, # of connection points: 2
#     Edge 79, Type (0, 0), BuildingBlock: EZIPEK_clean_linker_0, # of connection points: 2
#     Edge 80, Type (0, 0), BuildingBlock: EZIPEK_clean_linker_0, # of connection points: 2
#     Edge 81, Type (0, 0), BuildingBlock: EZIPEK_clean_linker_0, # of connection points: 2
#     Edge 82, Type (0, 0), BuildingBlock: EZIPEK_clean_linker_0, # of connection points: 2
#     Edge 83, Type (0, 0), BuildingBlock: EZIPEK_clean_linker_0, # of connection points: 2
#     Edge 84, Type (0, 0), BuildingBlock: EZIPEK_clean_linker_0, # of connection points: 2
#     Edge 85, Type (0, 0), BuildingBlock: EZIPEK_clean_linker_0, # of connection points: 2
#     Edge 86, Type (0, 0), BuildingBlock: EZIPEK_clean_linker_0, # of connection points: 2
#     Edge 87, Type (0, 0), BuildingBlock: EZIPEK_clean_linker_0, # of connection points: 2
#     Edge 88, Type (0, 0), BuildingBlock: EZIPEK_clean_linker_0, # of connection points: 2
#     Edge 89, Type (0, 0), BuildingBlock: EZIPEK_clean_linker_0, # of connection points: 2
#     Edge 90, Type (0, 0), BuildingBlock: EZIPEK_clean_linker_0, # of connection points: 2
#     Edge 91, Type (0, 0), BuildingBlock: EZIPEK_clean_linker_0, # of connection points: 2
#     Edge 92, Type (0, 0), BuildingBlock: EZIPEK_clean_linker_0, # of connection points: 2
#     Edge 93, Type (0, 0), BuildingBlock: EZIPEK_clean_linker_0, # of connection points: 2
#     Edge 94, Type (0, 0), BuildingBlock: EZIPEK_clean_linker_0, # of connection points: 2
#     Edge 95, Type (0, 0), BuildingBlock: EZIPEK_clean_linker_0, # of connection points: 2
# Relax obj value: 0.170
# Max RMSD: 0.257
# Mean RMSD: 0.257
data_MOF--net-uoe--node1-MUDLON_clean_sbu_0--edge1-EZIPEK_clean_linker_0
_symmetry_space_group_name_H-M    P1
_symmetry_Int_Tables_number       1
_symmetry_cell_setting            triclinic
loop_
_symmetry_equiv_pos_as_xyz
'x, y, z'
_cell_length_a     57.927111
_cell_length_b     58.098279
_cell_length_c     21.486438
_cell_angle_alpha  90.083564
_cell_angle_beta   90.174402
_cell_angle_gamma 89.893128
loop_
_atom_site_label
_atom_site_type_symbol
_atom_site_fract_x
_atom_site_fract_y
_atom_site_fract_z
_atom_type_partial_charge
Mg0 Mg 0.08649 0.47041 0.07841 0.0
C1 C 0.07715 0.48605 0.20793 0.0
O2 O 0.06019 0.47154 0.19866 0.0
C3 C 0.09161 0.48352 0.9466 0.0
O4 O 0.07509 0.46807 0.94526 0.0
C5 C 0.0995 0.42477 0.14306 0.0
O6 O 0.07996 0.42813 0.17238 0.0
O7 O 0.10469 0.43785 0.09771 0.0
O8 O 0.09131 0.49001 0.16405 0.0
O9 O 0.04961 0.47404 0.05757 0.0
C10 C 0.03143 0.46482 0.07907 0.0
O11 O 0.03297 0.44729 0.11738 0.0
O12 O 0.10181 0.48758 0.99805 0.0
Mg13 Mg 0.78995 0.84529 0.31505 0.0
C14 C 0.76513 0.80045 0.32015 0.0
O15 O 0.74787 0.81506 0.32365 0.0
C16 C 0.82584 0.87683 0.36423 0.0
O17 O 0.80756 0.8901 0.35879 0.0
C18 C 0.76066 0.85723 0.19808 0.0
O19 O 0.7435 0.85698 0.23792 0.0
O20 O 0.78126 0.8548 0.21811 0.0
O21 O 0.78571 0.80802 0.31713 0.0
O22 O 0.76837 0.85854 0.39062 0.0
C23 C 0.77555 0.85197 0.44391 0.0
O24 O 0.79348 0.83817 0.44701 0.0
O25 O 0.82472 0.85623 0.34405 0.0
Mg26 Mg 0.41799 0.54148 0.56563 0.0
C27 C 0.42318 0.52866 0.69299 0.0
O28 O 0.43336 0.54871 0.68691 0.0
C29 C 0.41245 0.5347 0.42814 0.0
O30 O 0.42245 0.55497 0.42971 0.0
C31 C 0.40319 0.58964 0.62076 0.0
O32 O 0.42521 0.59326 0.63153 0.0
O33 O 0.39687 0.57156 0.59171 0.0
O34 O 0.41361 0.5196 0.64556 0.0
O35 O 0.45563 0.54171 0.56683 0.0
C36 C 0.46364 0.52165 0.55561 0.0
O37 O 0.44935 0.5055 0.53691 0.0
O38 O 0.40715 0.52495 0.47908 0.0
Mg39 Mg 0.7116 0.16044 0.82239 0.0
C40 C 0.73236 0.207 0.81581 0.0
O41 O 0.75066 0.19367 0.81626 0.0
C42 C 0.67573 0.12534 0.8603 0.0
O43 O 0.6849 0.11406 0.81339 0.0
C44 C 0.73674 0.14884 0.69995 0.0
O45 O 0.7547 0.15662 0.73078 0.0
O46 O 0.71738 0.14704 0.72756 0.0
O47 O 0.71234 0.19798 0.81738 0.0
O48 O 0.73678 0.15269 0.89453 0.0
C49 C 0.72991 0.16123 0.94595 0.0
O50 O 0.71059 0.17305 0.94726 0.0
O51 O 0.68115 0.14632 0.86858 0.0
Mg52 Mg 0.08248 0.54265 0.57878 0.0
C53 C 0.07628 0.52757 0.45198 0.0
O54 O 0.06181 0.54485 0.45846 0.0
C55 C 0.08748 0.5314 0.71392 0.0
O56 O 0.06918 0.54476 0.7143 0.0
C57 C 0.12038 0.57219 0.53569 0.0
O58 O 0.13118 0.55424 0.55896 0.0
O59 O 0.09866 0.57389 0.54339 0.0
O60 O 0.0881 0.52105 0.49874 0.0
O61 O 0.04488 0.5423 0.58804 0.0
C62 C 0.03619 0.52229 0.59409 0.0
O63 O 0.05 0.50436 0.59647 0.0
O64 O 0.09816 0.52827 0.66292 0.0
Mg65 Mg 0.72172 0.84485 0.80419 0.0
C66 C 0.74438 0.79882 0.80065 0.0
O67 O 0.7617 0.81247 0.78723 0.0
C68 C 0.67643 0.87245 0.78493 0.0
O69 O 0.67899 0.87799 0.84386 0.0
C70 C 0.74594 0.85127 0.93041 0.0
O71 O 0.76087 0.83735 0.90408 0.0
O72 O 0.72858 0.85833 0.89902 0.0
O73 O 0.72441 0.80741 0.80968 0.0
O74 O 0.74564 0.85353 0.72964 0.0
C75 C 0.74029 0.8691 0.69051 0.0
O76 O 0.7234 0.88344 0.70313 0.0
O77 O 0.68956 0.85723 0.76141 0.0
Mg78 Mg 0.41315 0.4718 0.06409 0.0
C79 C 0.42289 0.48769 0.9376 0.0
O80 O 0.43945 0.47281 0.94845 0.0
C81 C 0.40985 0.48302 0.19734 0.0
O82 O 0.42367 0.46506 0.1962 0.0
C83 C 0.39488 0.4294 0.99487 0.0
O84 O 0.41086 0.43543 0.95509 0.0
O85 O 0.39384 0.43964 0.04734 0.0
O86 O 0.40803 0.49172 0.97972 0.0
O87 O 0.45046 0.47484 0.07855 0.0
C88 C 0.46837 0.4633 0.06478 0.0
O89 O 0.46652 0.44308 0.03785 0.0
O90 O 0.40064 0.48976 0.14668 0.0
Mg91 Mg 0.7839 0.15489 0.32011 0.0
C92 C 0.76372 0.20069 0.32514 0.0
O93 O 0.74602 0.18663 0.32415 0.0
C94 C 0.815 0.12088 0.25911 0.0
O95 O 0.79423 0.11328 0.24574 0.0
C96 C 0.75164 0.14379 0.43271 0.0
O97 O 0.73472 0.14623 0.3924 0.0
O98 O 0.77247 0.14474 0.41405 0.0
O99 O 0.78408 0.19233 0.32401 0.0
O100 O 0.76182 0.15025 0.23845 0.0
C101 C 0.77246 0.15617 0.18908 0.0
O102 O 0.79412 0.16257 0.19375 0.0
O103 O 0.81688 0.13844 0.2945 0.0
Mg104 Mg 0.89913 0.53483 0.07029 0.0
C105 C 0.94354 0.51044 0.03252 0.0
O106 O 0.93084 0.50458 0.98431 0.0
C107 C 0.90118 0.57941 0.99513 0.0
O108 O 0.92173 0.57187 0.97918 0.0
C109 C 0.8994 0.52606 0.20717 0.0
O110 O 0.92045 0.53367 0.19815 0.0
O111 O 0.88528 0.52572 0.16161 0.0
O112 O 0.93548 0.52455 0.07242 0.0
O113 O 0.88353 0.51441 0.9971 0.0
C114 C 0.86777 0.52252 0.96192 0.0
O115 O 0.85948 0.54298 0.97496 0.0
O116 O 0.89055 0.56965 0.0396 0.0
Mg117 Mg 0.21065 0.16527 0.83396 0.0
C118 C 0.22701 0.16256 0.70653 0.0
O119 O 0.20719 0.17347 0.70304 0.0
C120 C 0.24042 0.15013 0.94759 0.0
O121 O 0.25672 0.14723 0.90592 0.0
C122 C 0.18012 0.13109 0.77462 0.0
O123 O 0.20064 0.12142 0.77468 0.0
O124 O 0.17773 0.15033 0.80245 0.0
O125 O 0.2345 0.15613 0.75956 0.0
O126 O 0.21214 0.20277 0.83235 0.0
C127 C 0.2325 0.21073 0.83845 0.0
O128 O 0.24979 0.19637 0.8462 0.0
O129 O 0.22019 0.15579 0.92988 0.0
Mg130 Mg 0.60087 0.46319 0.58208 0.0
C131 C 0.55778 0.49134 0.60224 0.0
O132 O 0.57303 0.50405 0.63167 0.0
C133 C 0.60176 0.41728 0.5082 0.0
O134 O 0.58015 0.42205 0.49468 0.0
C135 C 0.60446 0.47296 0.71884 0.0
O136 O 0.5841 0.46308 0.71627 0.0
O137 O 0.61654 0.47413 0.66968 0.0
O138 O 0.56396 0.47182 0.58056 0.0
O139 O 0.61386 0.48398 0.50745 0.0
C140 C 0.60155 0.48173 0.45888 0.0
O141 O 0.58257 0.46947 0.46137 0.0
O142 O 0.61243 0.42937 0.54856 0.0
Mg143 Mg 0.29507 0.83206 0.32382 0.0
C144 C 0.28442 0.83424 0.18973 0.0
O145 O 0.30636 0.82864 0.19169 0.0
C146 C 0.26783 0.83758 0.44567 0.0
O147 O 0.25665 0.81981 0.42311 0.0
C148 C 0.3281 0.86511 0.26917 0.0
O149 O 0.30782 0.87473 0.26018 0.0
O150 O 0.32906 0.8463 0.29956 0.0
O151 O 0.27392 0.83808 0.24082 0.0
O152 O 0.29377 0.79461 0.33276 0.0
C153 C 0.27414 0.78567 0.32104 0.0
O154 O 0.25693 0.7991 0.30439 0.0
O155 O 0.28371 0.84685 0.4134 0.0
Mg156 Mg 0.89356 0.47723 0.58791 0.0
C157 C 0.93849 0.50093 0.59831 0.0
O158 O 0.92356 0.51787 0.60323 0.0
C159 C 0.88336 0.43041 0.64496 0.0
O160 O 0.90284 0.43457 0.67417 0.0
C161 C 0.89323 0.48564 0.45113 0.0
O162 O 0.90707 0.46777 0.45543 0.0
O163 O 0.88347 0.49322 0.50005 0.0
O164 O 0.9311 0.48038 0.59222 0.0
O165 O 0.87979 0.49526 0.66836 0.0
C166 C 0.89051 0.49318 0.71984 0.0
O167 O 0.91073 0.48293 0.72043 0.0
O168 O 0.87748 0.44333 0.59978 0.0
Mg169 Mg 0.28435 0.16132 0.33676 0.0
C170 C 0.27392 0.15993 0.46957 0.0
O171 O 0.29549 0.16669 0.46657 0.0
C172 C 0.25701 0.15602 0.2136 0.0
O173 O 0.24406 0.17209 0.23845 0.0
C174 C 0.31877 0.12923 0.39259 0.0
O175 O 0.29886 0.11929 0.40371 0.0
O176 O 0.31888 0.14785 0.36114 0.0
O177 O 0.2635 0.15456 0.41922 0.0
O178 O 0.28118 0.19876 0.33071 0.0
C179 C 0.26095 0.20665 0.34068 0.0
O180 O 0.24425 0.19228 0.35439 0.0
O181 O 0.27365 0.14748 0.24507 0.0
Mg182 Mg 0.60351 0.5272 0.08618 0.0
C183 C 0.55014 0.51903 0.10235 0.0
O184 O 0.5506 0.53436 0.14725 0.0
C185 C 0.63097 0.57102 0.09369 0.0
O186 O 0.64249 0.56082 0.0488 0.0
C187 C 0.61021 0.51801 0.95409 0.0
O188 O 0.59218 0.53174 0.95543 0.0
O189 O 0.62111 0.51401 1.00441 0.0
O190 O 0.5682 0.51519 0.07052 0.0
O191 O 0.61297 0.50926 0.17107 0.0
C192 C 0.61904 0.52088 0.21861 0.0
O193 O 0.62183 0.54317 0.214 0.0
O194 O 0.61113 0.56329 0.10801 0.0
Mg195 Mg 0.22049 0.83651 0.82435 0.0
C196 C 0.23718 0.83614 0.95206 0.0
O197 O 0.217 0.82593 0.95408 0.0
C198 C 0.25145 0.84802 0.71052 0.0
O199 O 0.26809 0.84903 0.7521 0.0
C200 C 0.19113 0.87124 0.88667 0.0
O201 O 0.21214 0.87929 0.89376 0.0
O202 O 0.1883 0.8531 0.85414 0.0
O203 O 0.24471 0.84345 0.90002 0.0
O204 O 0.21933 0.79913 0.82462 0.0
C205 C 0.23928 0.7902 0.81887 0.0
O206 O 0.2573 0.80367 0.81347 0.0
O207 O 0.23073 0.845 0.72841 0.0
Mg208 Mg 0.59734 0.97223 0.57805 0.0
C209 C 0.60148 0.9828 0.70894 0.0
O210 O 0.59329 0.96174 0.70703 0.0
C211 C 0.62021 0.9749 0.44711 0.0
O212 O 0.62743 0.95378 0.45722 0.0
C213 C 0.63078 0.93454 0.61058 0.0
O214 O 0.64447 0.94989 0.58527 0.0
O215 O 0.60902 0.93756 0.60632 0.0
O216 O 0.60702 0.99261 0.65832 0.0
O217 O 0.56015 0.9795 0.57018 0.0
C218 C 0.55396 0.99951 0.58856 0.0
O219 O 0.56937 0.01284 0.61515 0.0
O220 O 0.60994 0.98589 0.4901 0.0
Mg221 Mg 0.28269 0.35114 0.82499 0.0
C222 C 0.25796 0.30685 0.82781 0.0
O223 O 0.2412 0.3219 0.82149 0.0
C224 C 0.31742 0.38324 0.87651 0.0
O225 O 0.29757 0.39378 0.8846 0.0
C226 C 0.25262 0.36386 0.70739 0.0
O227 O 0.23548 0.36606 0.74685 0.0
O228 O 0.27285 0.35959 0.72791 0.0
O229 O 0.27875 0.31387 0.83092 0.0
O230 O 0.2625 0.36326 0.90477 0.0
C231 C 0.27059 0.35541 0.9559 0.0
O232 O 0.2881 0.34102 0.95394 0.0
O233 O 0.31747 0.36407 0.8475 0.0
Mg234 Mg 0.90755 0.02664 0.07438 0.0
C235 C 0.92128 0.01684 0.20326 0.0
O236 O 0.93625 0.03247 0.18581 0.0
C237 C 0.89926 0.01034 0.94437 0.0
O238 O 0.91417 0.02703 0.93583 0.0
C239 C 0.889 0.07024 0.13914 0.0
O240 O 0.90697 0.06719 0.17532 0.0
O241 O 0.88682 0.05805 0.09004 0.0
O242 O 0.9065 0.00954 0.1639 0.0
O243 O 0.94479 0.0275 0.05826 0.0
C244 C 0.95328 0.0077 0.04634 0.0
O245 O 0.9392 0.9903 0.03772 0.0
O246 O 0.89216 0.00622 0.99923 0.0
Mg247 Mg 0.22265 0.64611 0.32885 0.0
C248 C 0.25102 0.68892 0.33614 0.0
O249 O 0.26735 0.67322 0.336 0.0
C250 C 0.18451 0.61832 0.37834 0.0
O251 O 0.20193 0.60385 0.37536 0.0
C252 C 0.24936 0.63458 0.20752 0.0
O253 O 0.26744 0.63484 0.24457 0.0
O254 O 0.22926 0.63694 0.23069 0.0
O255 O 0.22997 0.68272 0.33493 0.0
O256 O 0.2429 0.62999 0.40327 0.0
C257 C 0.2375 0.63798 0.45662 0.0
O258 O 0.22209 0.65455 0.45975 0.0
O259 O 0.18708 0.63846 0.35624 0.0
Mg260 Mg 0.59716 0.03395 0.08059 0.0
C261 C 0.59388 0.02382 0.95147 0.0
O262 O 0.58049 0.04177 0.96049 0.0
C263 C 0.60574 0.02073 0.21376 0.0
O264 O 0.5862 0.03203 0.21923 0.0
C265 C 0.62968 0.07364 0.05622 0.0
O266 O 0.64176 0.0635 0.10022 0.0
O267 O 0.60891 0.06741 0.04714 0.0
O268 O 0.60453 0.01492 0.99736 0.0
O269 O 0.55994 0.02837 0.08732 0.0
C270 C 0.55355 0.00805 0.10141 0.0
O271 O 0.5692 0.99282 0.11762 0.0
O272 O 0.61539 0.01948 0.16078 0.0
Mg273 Mg 0.21183 0.348 0.31752 0.0
C274 C 0.23582 0.30279 0.31433 0.0
O275 O 0.25179 0.31671 0.29307 0.0
C276 C 0.17526 0.37857 0.26801 0.0
O277 O 0.19378 0.39154 0.26792 0.0
C278 C 0.23907 0.35588 0.43945 0.0
O279 O 0.25275 0.34039 0.41461 0.0
O280 O 0.222 0.3635 0.40785 0.0
O281 O 0.2161 0.31091 0.32889 0.0
O282 O 0.2307 0.35423 0.23127 0.0
C283 C 0.23993 0.37201 0.20776 0.0
O284 O 0.24101 0.3913 0.23958 0.0
O285 O 0.17663 0.35844 0.29125 0.0
Mg286 Mg 0.91438 0.96642 0.57804 0.0
C287 C 0.91926 0.98325 0.45512 0.0
O288 O 0.9332 0.96552 0.46129 0.0
C289 C 0.89119 0.9655 0.70758 0.0
O290 O 0.88648 0.94392 0.69448 0.0
C291 C 0.88286 0.934 0.51275 0.0
O292 O 0.87134 0.95346 0.51321 0.0
O293 O 0.9022 0.93301 0.54126 0.0
O294 O 0.90719 0.98946 0.50149 0.0
O295 O 0.95161 0.97148 0.58949 0.0
C296 C 0.95709 0.99275 0.58887 0.0
O297 O 0.94061 0.00816 0.58291 0.0
O298 O 0.90035 0.97824 0.66647 0.0
Mg299 Mg 0.28714 0.64899 0.81734 0.0
C300 C 0.26194 0.69359 0.80676 0.0
O301 O 0.24646 0.67924 0.78471 0.0
C302 C 0.32919 0.64169 0.73746 0.0
O303 O 0.31562 0.65228 0.69761 0.0
C304 C 0.25995 0.64066 0.93845 0.0
O305 O 0.24439 0.65326 0.90985 0.0
O306 O 0.2783 0.63493 0.90964 0.0
O307 O 0.28156 0.686 0.82406 0.0
O308 O 0.26758 0.63859 0.73452 0.0
C309 C 0.27043 0.62004 0.70384 0.0
O310 O 0.28261 0.60316 0.72776 0.0
O311 O 0.32283 0.64007 0.794 0.0
Mg312 Mg 0.40828 0.03506 0.57741 0.0
C313 C 0.46266 0.04035 0.5586 0.0
O314 O 0.45896 0.05594 0.51553 0.0
C315 C 0.39407 0.08004 0.5119 0.0
O316 O 0.41323 0.07666 0.48085 0.0
C317 C 0.40512 0.02545 0.7125 0.0
O318 O 0.41801 0.04402 0.71102 0.0
O319 O 0.39637 0.01803 0.66193 0.0
O320 O 0.44583 0.03256 0.58998 0.0
O321 O 0.40001 0.01423 0.49581 0.0
C322 C 0.4119 0.01821 0.44736 0.0
O323 O 0.42846 0.03343 0.4499 0.0
O324 O 0.38966 0.06743 0.55889 0.0
Mg325 Mg 0.72105 0.65748 0.30827 0.0
C326 C 0.73808 0.65302 0.18291 0.0
O327 O 0.71973 0.66625 0.17927 0.0
C328 C 0.74875 0.64571 0.42694 0.0
O329 O 0.76623 0.64765 0.38853 0.0
C330 C 0.68233 0.62382 0.27901 0.0
O331 O 0.69172 0.61278 0.32609 0.0
O332 O 0.68893 0.64424 0.26749 0.0
O333 O 0.7448 0.64595 0.23615 0.0
O334 O 0.72354 0.69495 0.30734 0.0
C335 C 0.74387 0.70325 0.30867 0.0
O336 O 0.76167 0.68924 0.30873 0.0
O337 O 0.72824 0.6472 0.40551 0.0
Mg338 Mg 0.09774 0.96874 0.05214 0.0
C339 C 0.05178 0.98844 0.05064 0.0
O340 O 0.06607 0.00592 0.04693 0.0
C341 C 0.11737 0.92166 0.00867 0.0
O342 O 0.09803 0.91984 0.97726 0.0
C343 C 0.10168 0.98519 0.18355 0.0
O344 O 0.0893 0.96647 0.19045 0.0
O345 O 0.10858 0.99079 0.12947 0.0
O346 O 0.06013 0.96816 0.05545 0.0
O347 O 0.10361 0.9843 0.96186 0.0
C348 C 0.09337 0.97441 0.91666 0.0
O349 O 0.0799 0.95683 0.9283 0.0
O350 O 0.11941 0.93748 0.04942 0.0
Mg351 Mg 0.77667 0.34943 0.82586 0.0
C352 C 0.76283 0.35323 0.69538 0.0
O353 O 0.7783 0.33666 0.69686 0.0
C354 C 0.75095 0.35397 0.95108 0.0
O355 O 0.73593 0.34069 0.92277 0.0
C356 C 0.81176 0.38001 0.77316 0.0
O357 O 0.79218 0.39127 0.76774 0.0
O358 O 0.81166 0.36062 0.80083 0.0
O359 O 0.75658 0.36237 0.74669 0.0
O360 O 0.77218 0.31215 0.82472 0.0
C361 C 0.75219 0.30445 0.81143 0.0
O362 O 0.73548 0.31892 0.79791 0.0
O363 O 0.76845 0.36126 0.92115 0.0
Mg364 Mg 0.41129 0.96138 0.07644 0.0
C365 C 0.45713 0.98246 0.07578 0.0
O366 O 0.44279 0.99979 0.06813 0.0
C367 C 0.39902 0.91613 0.1395 0.0
O368 O 0.41917 0.91931 0.16609 0.0
C369 C 0.40881 0.97157 0.93971 0.0
O370 O 0.42169 0.95293 0.93981 0.0
O371 O 0.4007 0.97893 0.99098 0.0
O372 O 0.44899 0.96212 0.07907 0.0
O373 O 0.40194 0.98107 0.15812 0.0
C374 C 0.41429 0.9771 0.20599 0.0
O375 O 0.43191 0.96298 0.2016 0.0
O376 O 0.39299 0.92906 0.09444 0.0
Mg377 Mg 0.79152 0.65667 0.81595 0.0
C378 C 0.77574 0.63498 0.93935 0.0
O379 O 0.79502 0.62333 0.93445 0.0
C380 C 0.7646 0.64877 0.69472 0.0
O381 O 0.74918 0.66097 0.72494 0.0
C382 C 0.83397 0.62797 0.84855 0.0
O383 O 0.82082 0.61193 0.82393 0.0
O384 O 0.82709 0.6488 0.84662 0.0
O385 O 0.76909 0.64769 0.8945 0.0
O386 O 0.78628 0.69383 0.80771 0.0
C387 C 0.76677 0.70206 0.82381 0.0
O388 O 0.75083 0.68826 0.84567 0.0
O389 O 0.78325 0.64299 0.72238 0.0
Mg390 Mg 0.09804 0.03603 0.55524 0.0
C391 C 0.04859 0.03301 0.60285 0.0
O392 O 0.05875 0.03375 0.65739 0.0
C393 C 0.11286 0.08011 0.62743 0.0
O394 O 0.09164 0.07955 0.64876 0.0
C395 C 0.10861 0.03539 0.41522 0.0
O396 O 0.10759 0.05788 0.42106 0.0
O397 O 0.10684 0.02277 0.46326 0.0
O398 O 0.06022 0.03736 0.55408 0.0
O399 O 0.10512 0.00885 0.62224 0.0
C400 C 0.10603 0.0147 0.67915 0.0
O401 O 0.10425 0.03646 0.69427 0.0
O402 O 0.11879 0.06606 0.5847 0.0
Mg403 Mg 0.71203 0.34051 0.33631 0.0
C404 C 0.73251 0.37053 0.44462 0.0
O405 O 0.72272 0.38848 0.41852 0.0
C406 C 0.74 0.35554 0.22035 0.0
O407 O 0.75767 0.3542 0.25867 0.0
C408 C 0.6702 0.36827 0.36925 0.0
O409 O 0.68366 0.38421 0.34586 0.0
O410 O 0.67646 0.34732 0.36544 0.0
O411 O 0.73254 0.35117 0.41692 0.0
O412 O 0.71883 0.30375 0.33182 0.0
C413 C 0.73974 0.29734 0.33806 0.0
O414 O 0.75586 0.31283 0.34738 0.0
O415 O 0.71966 0.35283 0.2415 0.0
C416 C 0.9675 0.47428 0.04249 0.0
C417 C 0.96606 0.49874 0.0439 0.0
C418 C 0.00647 0.50045 0.07755 0.0
C419 C 0.00877 0.4763 0.06763 0.0
N420 N 0.99219 0.44097 0.029 0.0
N421 N 0.98572 0.53525 0.0507 0.0
C422 C 0.98948 0.4634 0.04677 0.0
C423 C 0.986 0.51188 0.05796 0.0
N424 N 0.94786 0.46129 0.04041 0.0
N425 N 0.02326 0.51238 0.10861 0.0
H426 H 0.97127 0.54425 0.03483 0.0
H427 H 1.00052 0.54535 0.05421 0.0
H428 H 0.03798 0.50463 0.1271 0.0
H429 H 0.02132 0.52949 0.12229 0.0
H430 H 0.94794 0.44345 0.04549 0.0
H431 H 0.93132 0.46837 0.04068 0.0
H432 H 0.97916 0.43153 1.00734 0.0
H433 H 0.00807 0.4325 0.03017 0.0
C434 C 0.76218 0.76355 0.25985 0.0
C435 C 0.76024 0.77544 0.31738 0.0
C436 C 0.74454 0.74074 0.36687 0.0
C437 C 0.7479 0.72845 0.31042 0.0
N438 N 0.76113 0.72715 0.20423 0.0
N439 N 0.75227 0.77531 0.4273 0.0
C440 C 0.75711 0.73959 0.25722 0.0
C441 C 0.75203 0.76404 0.37133 0.0
N442 N 0.76799 0.77542 0.20722 0.0
N443 N 0.73414 0.73009 0.41611 0.0
H444 H 0.75772 0.79233 0.43218 0.0
H445 H 0.7488 0.76749 0.46976 0.0
H446 H 0.72927 0.71283 0.4154 0.0
H447 H 0.72893 0.73859 0.45635 0.0
H448 H 0.76705 0.76857 0.16252 0.0
H449 H 0.77244 0.79281 0.20757 0.0
H450 H 0.77051 0.73328 0.16653 0.0
H451 H 0.75586 0.71011 0.19884 0.0
C452 C 0.50662 0.52718 0.54414 0.0
C453 C 0.48787 0.51524 0.57118 0.0
C454 C 0.5149 0.48739 0.618 0.0
C455 C 0.53375 0.50001 0.59349 0.0
N456 N 0.5476 0.53488 0.54438 0.0
N457 N 0.47438 0.48718 0.64553 0.0
C458 C 0.52964 0.5209 0.5604 0.0
C459 C 0.49207 0.49618 0.61125 0.0
N460 N 0.50254 0.54363 0.49995 0.0
N461 N 0.51876 0.46709 0.64846 0.0
H462 H 0.45757 0.49356 0.64393 0.0
H463 H 0.47672 0.47504 0.68059 0.0
H464 H 0.53519 0.46109 0.66001 0.0
H465 H 0.50569 0.45554 0.65962 0.0
H466 H 0.51551 0.5509 0.47291 0.0
H467 H 0.486 0.54857 0.48609 0.0
H468 H 0.54532 0.55153 0.52748 0.0
H469 H 0.56487 0.53068 0.55166 0.0
C470 C 0.73993 0.24328 0.75643 0.0
C471 C 0.73554 0.23226 0.81408 0.0
C472 C 0.74431 0.26804 0.87019 0.0
C473 C 0.74731 0.27943 0.81235 0.0
N474 N 0.74521 0.27909 0.70022 0.0
N475 N 0.73011 0.23441 0.925 0.0
C476 C 0.74423 0.2674 0.75536 0.0
C477 C 0.73671 0.24475 0.87077 0.0
N478 N 0.74063 0.23052 0.70291 0.0
N479 N 0.74901 0.27943 0.92453 0.0
H480 H 0.72454 0.21738 0.92697 0.0
H481 H 0.72833 0.24307 0.96715 0.0
H482 H 0.7539 0.29668 0.92607 0.0
H483 H 0.74969 0.27148 0.96787 0.0
H484 H 0.74636 0.23686 0.66041 0.0
H485 H 0.7368 0.21299 0.7017 0.0
H486 H 0.74047 0.27198 0.65757 0.0
H487 H 0.74946 0.29649 0.69732 0.0
C488 C 0.99741 0.52436 0.64617 0.0
C489 C 0.01081 0.51857 0.59325 0.0
C490 C 0.97638 0.50259 0.54181 0.0
C491 C 0.96355 0.50626 0.59714 0.0
N492 N 0.96212 0.51833 0.70447 0.0
N493 N 0.01379 0.50105 0.4917 0.0
C494 C 0.97411 0.51667 0.64989 0.0
C495 C 1.0005 0.50728 0.54144 0.0
N496 N 0.00692 0.53733 0.69275 0.0
N497 N 0.96526 0.49579 0.48861 0.0
H498 H 0.03098 0.50602 0.48699 0.0
H499 H 0.00817 0.49009 0.45643 0.0
H500 H 0.9476 0.49243 0.48674 0.0
H501 H 0.97304 0.49532 0.44502 0.0
H502 H 0.99747 0.54433 0.72931 0.0
H503 H 0.02407 0.54267 0.69247 0.0
H504 H 0.96951 0.52329 0.7466 0.0
H505 H 0.94506 0.51296 0.70903 0.0
C506 C 0.75714 0.7402 0.87181 0.0
C507 C 0.76157 0.72695 0.81754 0.0
C508 C 0.7545 0.76087 0.75207 0.0
C509 C 0.74867 0.77373 0.80608 0.0
N510 N 0.74183 0.77542 0.91668 0.0
N511 N 0.76103 0.72331 0.70574 0.0
C512 C 0.74908 0.76327 0.86576 0.0
C513 C 0.75944 0.73694 0.75753 0.0
N514 N 0.76168 0.731 0.92917 0.0
N515 N 0.75544 0.77159 0.69548 0.0
H516 H 0.76464 0.70576 0.70783 0.0
H517 H 0.75707 0.72889 0.66095 0.0
H518 H 0.75033 0.78863 0.68871 0.0
H519 H 0.7624 0.76403 0.65578 0.0
H520 H 0.76121 0.74039 0.97043 0.0
H521 H 0.76788 0.71428 0.93536 0.0
H522 H 0.73918 0.76809 0.96025 0.0
H523 H 0.7369 0.79266 0.9147 0.0
C524 C 0.52036 0.49127 0.14345 0.0
C525 C 0.52953 0.50407 0.09283 0.0
C526 C 0.50242 0.4847 0.02194 0.0
C527 C 0.49118 0.47455 0.07369 0.0
N528 N 0.48811 0.46962 0.18471 0.0
N529 N 0.52689 0.51558 0.98518 0.0
C530 C 0.49974 0.47834 0.13479 0.0
C531 C 0.52 0.50138 0.03227 0.0
N532 N 0.532 0.49037 0.19887 0.0
N533 N 0.4964 0.47839 0.96282 0.0
H534 H 0.53918 0.52849 0.99122 0.0
H535 H 0.5188 0.51615 0.94184 0.0
H536 H 0.48374 0.46618 0.9533 0.0
H537 H 0.50548 0.48353 0.92347 0.0
H538 H 0.52736 0.47951 0.23525 0.0
H539 H 0.54772 0.49861 0.20649 0.0
H540 H 0.49174 0.47425 0.23055 0.0
H541 H 0.47386 0.45878 0.18006 0.0
C542 C 0.74245 0.26031 0.27819 0.0
C543 C 0.74615 0.27266 0.33433 0.0
C544 C 0.76486 0.23874 0.38077 0.0
C545 C 0.75936 0.22585 0.32654 0.0
N546 N 0.74041 0.22334 0.22638 0.0
N547 N 0.7577 0.2731 0.44223 0.0
C548 C 0.74741 0.23635 0.27607 0.0
C549 C 0.75669 0.26179 0.38638 0.0
N550 N 0.73508 0.27168 0.22605 0.0
N551 N 0.7776 0.22886 0.42734 0.0
H552 H 0.7515 0.28981 0.44852 0.0
H553 H 0.76279 0.26538 0.48375 0.0
H554 H 0.78263 0.21162 0.42699 0.0
H555 H 0.7845 0.23805 0.4646 0.0
H556 H 0.73483 0.26431 0.18185 0.0
H557 H 0.73096 0.28915 0.2257 0.0
H558 H 0.72915 0.22929 0.19213 0.0
H559 H 0.74465 0.20602 0.22108 0.0
C560 C 0.24628 0.27022 0.77513 0.0
C561 C 0.25223 0.28204 0.83072 0.0
C562 C 0.24457 0.24721 0.89179 0.0
C563 C 0.2373 0.23579 0.83661 0.0
N564 N 0.22833 0.23687 0.72699 0.0
N565 N 0.25417 0.28333 0.94269 0.0
C566 C 0.23719 0.24748 0.77863 0.0
C567 C 0.25066 0.27094 0.88931 0.0
N568 N 0.25012 0.2805 0.71887 0.0
N569 N 0.24583 0.23528 0.94653 0.0
H570 H 0.25913 0.30058 0.94258 0.0
H571 H 0.25073 0.27709 0.98707 0.0
H572 H 0.2399 0.21843 0.95123 0.0
H573 H 0.25374 0.2416 0.98661 0.0
H574 H 0.24837 0.27215 0.67626 0.0
H575 H 0.25698 0.29702 0.71477 0.0
H576 H 0.22552 0.24516 0.68474 0.0
H577 H 0.22213 0.22004 0.72737 0.0
C578 C 0.2614 0.74888 0.27108 0.0
C579 C 0.27022 0.76044 0.32437 0.0
C580 C 0.26823 0.72446 0.38409 0.0
C581 C 0.25733 0.71359 0.33257 0.0
N582 N 0.24144 0.71574 0.2287 0.0
N583 N 0.27906 0.76032 0.43421 0.0
C584 C 0.25325 0.72591 0.2766 0.0
C585 C 0.27307 0.74849 0.38152 0.0
N586 N 0.2617 0.7596 0.21446 0.0
N587 N 0.27386 0.71184 0.43566 0.0
H588 H 0.28261 0.77789 0.43453 0.0
H589 H 0.27876 0.75319 0.47863 0.0
H590 H 0.26927 0.69461 0.44109 0.0
H591 H 0.28429 0.71801 0.4715 0.0
H592 H 0.25807 0.75134 0.17254 0.0
H593 H 0.26762 0.77636 0.20848 0.0
H594 H 0.2354 0.72467 0.18994 0.0
H595 H 0.23626 0.69857 0.22913 0.0
C596 C 0.25691 0.24239 0.27546 0.0
C597 C 0.25545 0.23154 0.33457 0.0
C598 C 0.24127 0.26762 0.38094 0.0
C599 C 0.24125 0.27795 0.32116 0.0
N600 N 0.24506 0.27433 0.20993 0.0
N601 N 0.24306 0.23266 0.4419 0.0
C602 C 0.24811 0.26513 0.26799 0.0
C603 C 0.2466 0.2438 0.38674 0.0
N604 N 0.26642 0.23089 0.22617 0.0
N605 N 0.2373 0.2808 0.43265 0.0
H606 H 0.24786 0.21562 0.44957 0.0
H607 H 0.23396 0.2398 0.47895 0.0
H608 H 0.23313 0.29823 0.43062 0.0
H609 H 0.23991 0.27498 0.47794 0.0
H610 H 0.27063 0.23875 0.18422 0.0
H611 H 0.27147 0.21369 0.22801 0.0
H612 H 0.24733 0.26511 0.16882 0.0
H613 H 0.23814 0.29069 0.20252 0.0
C614 C 0.25118 0.72856 0.86908 0.0
C615 C 0.25632 0.71841 0.81054 0.0
C616 C 0.24626 0.75444 0.75743 0.0
C617 C 0.24271 0.76502 0.81614 0.0
N618 N 0.2434 0.7634 0.92812 0.0
N619 N 0.26166 0.72191 0.69978 0.0
C620 C 0.24552 0.75239 0.87211 0.0
C621 C 0.25456 0.7314 0.75483 0.0
N622 N 0.25105 0.71521 0.92147 0.0
N623 N 0.24127 0.7664 0.70422 0.0
H624 H 0.26787 0.70509 0.69621 0.0
H625 H 0.26317 0.7311 0.65847 0.0
H626 H 0.23527 0.78335 0.70464 0.0
H627 H 0.2413 0.75913 0.65994 0.0
H628 H 0.24494 0.72079 0.96443 0.0
H629 H 0.25583 0.69791 0.92136 0.0
H630 H 0.24809 0.75611 0.97055 0.0
H631 H 0.23797 0.78046 0.93203 0.0
C632 C 0.48829 0.00524 0.57226 0.0
C633 C 0.48597 0.02955 0.56535 0.0
C634 C 0.52799 0.03234 0.55801 0.0
C635 C 0.53037 0.00897 0.57682 0.0
N636 N 0.51169 0.97456 0.61485 0.0
N637 N 0.50473 0.0667 0.56612 0.0
C638 C 0.51022 0.99574 0.58769 0.0
C639 C 0.50614 0.04327 0.56238 0.0
N640 N 0.47006 0.99095 0.5607 0.0
N641 N 0.5463 0.04391 0.53323 0.0
H642 H 0.48923 0.07544 0.57327 0.0
H643 H 0.51928 0.07718 0.56949 0.0
H644 H 0.56212 0.03605 0.52404 0.0
H645 H 0.54476 0.06038 0.51443 0.0
H646 H 0.47167 0.97307 0.56038 0.0
H647 H 0.45425 0.99671 0.54346 0.0
H648 H 0.49716 0.96536 0.6288 0.0
H649 H 0.52723 0.96729 0.62955 0.0
C650 C 0.98783 0.98792 0.09348 0.0
C651 C 0.97858 0.00335 0.04834 0.0
C652 C 0.01688 0.00672 1.00061 0.0
C653 C 0.02645 0.99287 0.04894 0.0
N654 N 0.02178 0.97474 0.14905 0.0
N655 N 0.98459 0.0295 0.96289 0.0
C656 C 0.01212 0.98454 0.09727 0.0
C657 C 0.99325 0.0135 1.00338 0.0
N658 N 0.97348 0.97642 0.13308 0.0
N659 N 0.03009 0.01249 0.95034 0.0
H660 H 0.96713 0.0338 0.96049 0.0
H661 H 0.99489 0.03963 0.93435 0.0
H662 H 0.04736 0.0078 0.94589 0.0
H663 H 0.02349 0.02015 0.91028 0.0
H664 H 0.97894 0.9627 0.16065 0.0
H665 H 0.95585 0.97973 0.13657 0.0
H666 H 0.01243 0.97083 0.18898 0.0
H667 H 0.03952 0.97263 0.15497 0.0
C668 C 0.51204 0.01124 0.13472 0.0
C669 C 0.52895 1.00095 0.09593 0.0
C670 C 0.49883 0.9778 0.04442 0.0
C671 C 0.48212 0.98729 0.08525 0.0
N672 N 0.47349 0.00912 0.17792 0.0
N673 N 0.53918 0.97182 0.02017 0.0
C674 C 0.48891 0.00299 0.13271 0.0
C675 C 0.52258 0.98333 0.05301 0.0
N676 N 0.51805 0.02883 0.17386 0.0
N677 N 0.49193 0.96453 0.99516 0.0
H678 H 0.55656 0.97638 0.0205 0.0
H679 H 0.53595 0.95685 0.99491 0.0
H680 H 0.47483 0.95969 0.98764 0.0
H681 H 0.50282 0.95969 0.95895 0.0
H682 H 0.50606 0.03904 0.19716 0.0
H683 H 0.53503 0.03422 0.18051 0.0
H684 H 0.47789 0.01851 0.21748 0.0
H685 H 0.45664 0.00291 0.17927 0.0
C686 C 0.00696 0.03142 0.63479 0.0
C687 C 0.02522 0.02252 0.59815 0.0
C688 C 0.99915 0.99288 0.55621 0.0
C689 C 0.98134 1.00087 0.59614 0.0
N690 N 0.97059 0.0236 0.68563 0.0
N691 N 0.04022 0.99077 0.5372 0.0
C692 C 0.98595 0.01894 0.63906 0.0
C693 C 0.02178 0.00212 0.56249 0.0
N694 N 0.00938 0.05218 0.66405 0.0
N695 N 0.99445 0.97714 0.51061 0.0
H696 H 0.05723 0.99627 0.54211 0.0
H697 H 0.0389 0.97454 0.51684 0.0
H698 H 0.97834 0.96957 0.50449 0.0
H699 H 0.0061 0.97304 0.47542 0.0
H700 H 0.99579 0.06062 0.68616 0.0
H701 H 0.02436 0.06206 0.66105 0.0
H702 H 0.97403 0.03507 0.72177 0.0
H703 H 0.95554 0.01408 0.69216 0.0
C704 C 0.10008 0.484 0.83273 0.0
C705 C 0.09677 0.49655 0.88866 0.0
C706 C 0.09608 0.53234 0.82816 0.0
C707 C 0.09436 0.51937 0.77232 0.0
N708 N 0.09241 0.48203 0.72228 0.0
N709 N 0.08946 0.53312 0.93917 0.0
C710 C 0.09615 0.49497 0.77451 0.0
C711 C 0.09459 0.52092 0.88656 0.0
N712 N 0.10702 0.46154 0.8354 0.0
N713 N 0.09929 0.5556 0.82531 0.0
H714 H 0.08779 0.52566 0.98294 0.0
H715 H 0.08496 0.55049 0.93853 0.0
H716 H 0.10095 0.56437 0.78319 0.0
H717 H 0.10279 0.5657 0.86432 0.0
H718 H 0.11177 0.45209 0.79621 0.0
H719 H 0.11042 0.4532 0.87746 0.0
H720 H 0.09086 0.46417 0.72322 0.0
H721 H 0.08882 0.48902 0.67875 0.0
C722 C 0.73552 0.84004 0.03948 0.0
C723 C 0.74751 0.8551 0.999 0.0
C724 C 0.76577 0.87372 0.08974 0.0
C725 C 0.75577 0.85696 0.12957 0.0
N726 N 0.73451 0.82142 0.14014 0.0
N727 N 0.77567 0.88498 0.98415 0.0
C728 C 0.74137 0.83949 0.10394 0.0
C729 C 0.76309 0.87161 0.02378 0.0
N730 N 0.71853 0.82613 0.0163 0.0
N731 N 0.77716 0.89208 0.11506 0.0
H732 H 0.77333 0.88463 0.93598 0.0
H733 H 0.78928 0.8954 0.99856 0.0
H734 H 0.77922 0.89429 0.16294 0.0
H735 H 0.78284 0.9061 0.0892 0.0
H736 H 0.70743 0.81664 0.04436 0.0
H737 H 0.71411 0.82559 0.96924 0.0
H738 H 0.72637 0.80683 0.12243 0.0
H739 H 0.73894 0.81974 0.18693 0.0
C740 C 0.389 0.50072 0.28892 0.0
C741 C 0.4095 0.49779 0.2538 0.0
C742 C 0.43184 0.51721 0.33536 0.0
C743 C 0.41116 0.52179 0.36847 0.0
N744 N 0.36959 0.52105 0.3728 0.0
N745 N 0.44925 0.5082 0.23609 0.0
C746 C 0.38956 0.5144 0.34417 0.0
C747 C 0.43057 0.50752 0.27483 0.0
N748 N 0.36922 0.48982 0.27065 0.0
N749 N 0.45282 0.52103 0.36286 0.0
H750 H 0.44881 0.50192 0.19059 0.0
H751 H 0.46435 0.51711 0.24666 0.0
H752 H 0.45466 0.52738 0.40801 0.0
H753 H 0.46838 0.51565 0.34341 0.0
H754 H 0.35438 0.48912 0.29777 0.0
H755 H 0.36815 0.48007 0.22993 0.0
H756 H 0.35325 0.51828 0.35396 0.0
H757 H 0.3694 0.53099 0.41327 0.0
C758 C 0.75107 0.12729 0.60541 0.0
C759 C 0.73842 0.14597 0.63113 0.0
C760 C 0.73544 0.16357 0.52747 0.0
C761 C 0.74663 0.14411 0.50087 0.0
N762 N 0.76207 0.10585 0.51276 0.0
N763 N 0.71513 0.18 0.61537 0.0
C764 C 0.75363 0.12551 0.53942 0.0
C765 C 0.72939 0.1634 0.59163 0.0
N766 N 0.7609 0.1114 0.64419 0.0
N767 N 0.73201 0.18296 0.49254 0.0
H768 H 0.71101 0.18124 0.66243 0.0
H769 H 0.70587 0.19148 0.58767 0.0
H770 H 0.73686 0.18425 0.44605 0.0
H771 H 0.72653 0.1986 0.51111 0.0
H772 H 0.77258 0.09892 0.62937 0.0
H773 H 0.75835 0.11149 0.69224 0.0
H774 H 0.7653 0.09077 0.53738 0.0
H775 H 0.76411 0.10399 0.46478 0.0
C776 C 0.89666 0.53091 0.32268 0.0
C777 C 0.89314 0.51685 0.26946 0.0
C778 C 0.88315 0.4845 0.33766 0.0
C779 C 0.89055 0.49742 0.39011 0.0
N780 N 0.90717 0.53238 0.43167 0.0
N781 N 0.88549 0.47918 0.22612 0.0
C782 C 0.89778 0.52061 0.38264 0.0
C783 C 0.88671 0.49341 0.27675 0.0
N784 N 0.89868 0.5542 0.31587 0.0
N785 N 0.87247 0.4638 0.34616 0.0
H786 H 0.88827 0.48473 0.18069 0.0
H787 H 0.8836 0.4614 0.22959 0.0
H788 H 0.86936 0.45695 0.39022 0.0
H789 H 0.86466 0.45461 0.31017 0.0
H790 H 0.89905 0.5656 0.35333 0.0
H791 H 0.89756 0.56229 0.27262 0.0
H792 H 0.9152 0.54831 0.42698 0.0
H793 H 0.90879 0.52549 0.4762 0.0
C794 C 0.23404 0.13493 0.05639 0.0
C795 C 0.24618 0.14978 0.01544 0.0
C796 C 0.26891 0.16443 0.104 0.0
C797 C 0.25491 0.15165 0.14553 0.0
N798 N 0.22294 0.12608 0.16274 0.0
N799 N 0.27261 0.18154 1.00194 0.0
C800 C 0.23715 0.13722 0.12209 0.0
C801 C 0.26313 0.16512 0.03956 0.0
N802 N 0.22008 0.11817 0.03234 0.0
N803 N 0.28769 0.17611 0.1262 0.0
H804 H 0.26858 0.1832 0.95492 0.0
H805 H 0.28281 0.19498 0.01843 0.0
H806 H 0.29207 0.17674 0.17327 0.0
H807 H 0.30006 0.18354 0.09751 0.0
H808 H 0.21251 0.10533 0.05912 0.0
H809 H 0.21765 0.11584 0.98461 0.0
H810 H 0.20798 0.1175 0.14921 0.0
H811 H 0.22545 0.12652 0.21085 0.0
C812 C 0.61095 0.48122 0.89214 0.0
C813 C 0.61524 0.50524 0.8959 0.0
C814 C 0.61679 0.50765 0.78208 0.0
C815 C 0.61221 0.48363 0.77827 0.0
N816 N 0.6122 0.44667 0.82871 0.0
N817 N 0.62871 0.53983 0.8469 0.0
C818 C 0.61173 0.47014 0.83316 0.0
C819 C 0.62038 0.51792 0.84149 0.0
N820 N 0.60454 0.46922 0.94396 0.0
N821 N 0.61616 0.52103 0.72981 0.0
H822 H 0.63157 0.54763 0.89003 0.0
H823 H 0.63492 0.54929 0.8094 0.0
H824 H 0.61387 0.51447 0.68515 0.0
H825 H 0.61636 0.53894 0.731 0.0
H826 H 0.59839 0.45239 0.94238 0.0
H827 H 0.60374 0.4765 0.98824 0.0
H828 H 0.61407 0.43587 0.86705 0.0
H829 H 0.61318 0.43812 0.78604 0.0
C830 C 0.27197 0.82927 0.62018 0.0
C831 C 0.25708 0.84691 0.64274 0.0
C832 C 0.24987 0.85951 0.53492 0.0
C833 C 0.26574 0.84271 0.51324 0.0
N834 N 0.29561 0.81501 0.53557 0.0
N835 N 0.23505 0.88136 0.62278 0.0
C836 C 0.27801 0.82875 0.55611 0.0
C837 C 0.24692 0.86278 0.60036 0.0
N838 N 0.27918 0.81204 0.65892 0.0
N839 N 0.23721 0.87191 0.49292 0.0
H840 H 0.23278 0.88438 0.67024 0.0
H841 H 0.22913 0.89478 0.59487 0.0
H842 H 0.23965 0.87051 0.44495 0.0
H843 H 0.22346 0.88251 0.50525 0.0
H844 H 0.28764 0.79728 0.64338 0.0
H845 H 0.27479 0.8112 0.70575 0.0
H846 H 0.30686 0.80634 0.56536 0.0
H847 H 0.3004 0.81395 0.48888 0.0
C848 C 0.61087 0.98393 0.2726 0.0
C849 C 0.6149 0.00791 0.26827 0.0
C850 C 0.62913 0.008 0.37599 0.0
C851 C 0.62092 0.98515 0.38363 0.0
N852 N 0.60026 0.95259 0.34023 0.0
N853 N 0.62767 0.04327 0.31554 0.0
C854 C 0.61113 0.97323 0.33202 0.0
C855 C 0.62412 0.02008 0.31986 0.0
N856 N 0.60644 0.97136 0.22015 0.0
N857 N 0.64211 0.01794 0.42191 0.0
H858 H 0.62548 0.05232 0.27401 0.0
H859 H 0.63169 0.05365 0.3536 0.0
H860 H 0.64656 0.0093 0.46277 0.0
H861 H 0.65032 0.03376 0.41704 0.0
H862 H 0.60551 0.95345 0.22001 0.0
H863 H 0.60626 0.97857 0.17581 0.0
H864 H 0.5906 0.9446 0.30542 0.0
H865 H 0.59867 0.94448 0.38315 0.0
C866 C 0.22723 0.34666 0.54894 0.0
C867 C 0.24071 0.3602 0.50785 0.0
C868 C 0.25968 0.37851 0.59798 0.0
C869 C 0.24795 0.36324 0.63875 0.0
N870 N 0.22353 0.32991 0.65155 0.0
N871 N 0.27131 0.38749 0.49206 0.0
C872 C 0.23234 0.34669 0.6139 0.0
C873 C 0.25737 0.37573 0.53209 0.0
N874 N 0.20952 0.33362 0.52588 0.0
N875 N 0.2724 0.39618 0.62231 0.0
H876 H 0.26937 0.38662 0.44381 0.0
H877 H 0.28561 0.39699 0.50633 0.0
H878 H 0.27424 0.39886 0.67008 0.0
H879 H 0.27949 0.40929 0.59556 0.0
H880 H 0.19738 0.32552 0.55395 0.0
H881 H 0.20574 0.33236 0.47853 0.0
H882 H 0.21442 0.31574 0.63491 0.0
H883 H 0.22714 0.32878 0.69894 0.0
C884 C 0.89987 0.97359 0.88275 0.0
C885 C 0.89169 0.99645 0.88979 0.0
C886 C 0.87688 0.99548 0.7825 0.0
C887 C 0.88894 0.97453 0.77219 0.0
N888 N 0.91471 0.94503 0.8114 0.0
N889 N 0.87185 0.02936 0.84737 0.0
C890 C 0.90085 0.96369 0.82222 0.0
C891 C 0.87986 0.00739 0.83998 0.0
N892 N 0.90703 0.96138 0.93356 0.0
N893 N 0.86224 0.00369 0.7377 0.0
H894 H 0.87223 0.0379 0.89013 0.0
H895 H 0.86571 0.03943 0.81084 0.0
H896 H 0.8594 0.99508 0.69572 0.0
H897 H 0.85134 0.01775 0.74425 0.0
H898 H 0.91105 0.94391 0.93189 0.0
H899 H 0.9065 0.96797 0.97859 0.0
H900 H 0.92591 0.93824 0.8447 0.0
H901 H 0.91688 0.93758 0.76772 0.0
C902 C 0.26986 0.65383 0.04661 0.0
C903 C 0.2584 0.63781 1.00729 0.0
C904 C 0.24273 0.61821 0.09955 0.0
C905 C 0.25262 0.63538 0.13852 0.0
N906 N 0.27192 0.67206 0.14794 0.0
N907 N 0.23184 0.60632 0.99488 0.0
C908 C 0.26534 0.65379 0.11176 0.0
C909 C 0.24421 0.62044 0.0334 0.0
N910 N 0.28513 0.66918 0.02169 0.0
N911 N 0.23265 0.59934 0.12585 0.0
H912 H 0.23327 0.6069 0.9465 0.0
H913 H 0.21916 0.59506 0.01044 0.0
H914 H 0.23137 0.59711 0.17388 0.0
H915 H 0.22722 0.58504 0.10052 0.0
H916 H 0.2961 0.67937 0.04849 0.0
H917 H 0.28819 0.67058 0.97405 0.0
H918 H 0.27867 0.68725 0.13002 0.0
H919 H 0.26867 0.67308 0.19551 0.0
C920 C 0.42786 0.99323 0.85335 0.0
C921 C 0.4072 0.98577 0.88225 0.0
C922 C 0.38455 0.00548 0.8011 0.0
C923 C 0.40531 0.01086 0.76932 0.0
N924 N 0.44632 0.0046 0.75758 0.0
N925 N 0.36576 0.98196 0.87941 0.0
C926 C 0.42685 0.0032 0.79325 0.0
C927 C 0.38545 0.99115 0.85504 0.0
N928 N 0.44843 0.99182 0.8845 0.0
N929 N 0.36412 0.01464 0.78098 0.0
H930 H 0.36579 0.97146 0.91875 0.0
H931 H 0.34967 0.98322 0.85795 0.0
H932 H 0.36285 0.02499 0.74147 0.0
H933 H 0.34878 0.01345 0.8059 0.0
H934 H 0.46365 0.9991 0.86799 0.0
H935 H 0.44979 0.98573 0.92997 0.0
H936 H 0.46198 0.99712 0.77042 0.0
H937 H 0.44626 0.01096 0.71222 0.0
C938 C 0.76577 0.66418 0.52276 0.0
C939 C 0.75306 0.64577 0.49566 0.0
C940 C 0.74779 0.62895 0.59995 0.0
C941 C 0.76218 0.64629 0.62586 0.0
N942 N 0.78815 0.67816 0.61043 0.0
N943 N 0.73465 0.60886 0.507 0.0
C944 C 0.77227 0.66312 0.58666 0.0
C945 C 0.74474 0.62766 0.53393 0.0
N946 N 0.77041 0.68345 0.48852 0.0
N947 N 0.73674 0.61394 0.6386 0.0
H948 H 0.7322 0.60735 0.45906 0.0
H949 H 0.73037 0.59402 0.53141 0.0
H950 H 0.73941 0.61378 0.68666 0.0
H951 H 0.72397 0.6026 0.62367 0.0
H952 H 0.77725 0.69846 0.50757 0.0
H953 H 0.76518 0.68547 0.44239 0.0
H954 H 0.79798 0.68911 0.58284 0.0
H955 H 0.79302 0.67836 0.65718 0.0
C956 C 0.09022 0.02917 0.31018 0.0
C957 C 0.10856 0.02449 0.35249 0.0
C958 C 0.1235 0.9948 0.28151 0.0
C959 C 0.1058 1.0003 0.2382 0.0
N960 N 0.07525 0.02571 0.20515 0.0
N961 N 0.14511 0.00618 0.37354 0.0
C962 C 0.09022 0.01858 0.25047 0.0
C963 C 0.12595 0.00825 0.33667 0.0
N964 N 0.07186 0.04237 0.32849 0.0
N965 N 0.13762 0.97636 0.27053 0.0
H966 H 0.14758 0.01599 0.41372 0.0
H967 H 0.15946 0.99631 0.36164 0.0
H968 H 0.137 0.96685 0.22933 0.0
H969 H 0.149 0.96968 0.30349 0.0
H970 H 0.05682 0.04418 0.30229 0.0
H971 H 0.07053 0.0498 0.37249 0.0
H972 H 0.06527 0.04058 0.20872 0.0
H973 H 0.07429 0.01789 0.16158 0.0
C974 C 0.73359 0.37386 0.11471 0.0
C975 C 0.74392 0.35631 0.15155 0.0
C976 C 0.76209 0.34013 0.0576 0.0
C977 C 0.74988 0.3562 0.02018 0.0
N978 N 0.72225 0.38703 0.01158 0.0
N979 N 0.76451 0.3201 0.15608 0.0
C980 C 0.73512 0.37271 0.04836 0.0
C981 C 0.7574 0.33883 0.12255 0.0
N982 N 0.72299 0.39206 0.14326 0.0
N983 N 0.77822 0.32601 0.03105 0.0
H984 H 0.76104 0.31794 0.20324 0.0
H985 H 0.77189 0.30553 0.136 0.0
H986 H 0.78164 0.32582 0.98344 0.0
H987 H 0.78958 0.31584 0.05678 0.0
H988 H 0.71715 0.40659 0.11965 0.0
H989 H 0.72176 0.39355 0.19153 0.0
H990 H 0.70919 0.39762 0.02853 0.0
H991 H 0.72372 0.38727 0.96319 0.0
C992 C 0.07701 0.49247 0.38343 0.0
C993 C 0.07908 0.51666 0.39014 0.0
C994 C 0.08033 0.52101 0.27661 0.0
C995 C 0.07983 0.49673 0.27014 0.0
N996 N 0.0833 0.45925 0.31799 0.0
N997 N 0.08839 0.55342 0.34389 0.0
C998 C 0.07994 0.48244 0.32377 0.0
C999 C 0.08251 0.53078 0.33695 0.0
N1000 N 0.07089 0.47909 0.43302 0.0
N1001 N 0.07734 0.53485 0.22578 0.0
H1002 H 0.09041 0.56131 0.38716 0.0
H1003 H 0.0936 0.56375 0.30693 0.0
H1004 H 0.07514 0.52852 0.18075 0.0
H1005 H 0.07489 0.55258 0.22899 0.0
H1006 H 0.0664 0.4618 0.42874 0.0
H1007 H 0.06812 0.48557 0.47759 0.0
H1008 H 0.08622 0.44843 0.35584 0.0
H1009 H 0.08547 0.45111 0.27525 0.0
C1010 C 0.73372 0.85659 0.58002 0.0
C1011 C 0.74842 0.86687 0.62541 0.0
C1012 C 0.77817 0.87249 0.54617 0.0
C1013 C 0.76468 0.85975 0.50287 0.0
N1014 N 0.73049 0.83779 0.47945 0.0
N1015 N 0.78518 0.88306 0.65394 0.0
C1016 C 0.74253 0.85156 0.51969 0.0
C1017 C 0.77081 0.87442 0.60908 0.0
N1018 N 0.71135 0.85142 0.59466 0.0
N1019 N 0.79769 0.88336 0.52636 0.0
H1020 H 0.78001 0.88554 0.69995 0.0
H1021 H 0.80263 0.88637 0.64671 0.0
H1022 H 0.80295 0.88291 0.48011 0.0
H1023 H 0.80735 0.89459 0.55378 0.0
H1024 H 0.69902 0.84667 0.56175 0.0
H1025 H 0.70456 0.85323 0.63923 0.0
H1026 H 0.71572 0.82871 0.49175 0.0
H1027 H 0.73609 0.83416 0.43446 0.0
C1028 C 0.44327 0.51716 0.79141 0.0
C1029 C 0.42276 0.51755 0.75491 0.0
C1030 C 0.40239 0.497 0.8374 0.0
C1031 C 0.42202 0.49925 0.87648 0.0
N1032 N 0.45949 0.51603 0.89517 0.0
N1033 N 0.38128 0.51241 0.74986 0.0
C1034 C 0.44199 0.51071 0.85481 0.0
C1035 C 0.40184 0.50877 0.77966 0.0
N1036 N 0.46418 0.52198 0.76515 0.0
N1037 N 0.38476 0.48271 0.85371 0.0
H1038 H 0.37974 0.52159 0.70847 0.0
H1039 H 0.36541 0.50836 0.76974 0.0
H1040 H 0.38513 0.47301 0.89432 0.0
H1041 H 0.37113 0.47863 0.82393 0.0
H1042 H 0.47982 0.51954 0.78837 0.0
H1043 H 0.46623 0.52597 0.71824 0.0
H1044 H 0.47348 0.5263 0.88292 0.0
H1045 H 0.45883 0.51225 0.94259 0.0
C1046 C 0.7482 0.13793 0.10402 0.0
C1047 C 0.76105 0.15698 0.127 0.0
C1048 C 0.75776 0.17575 0.025 0.0
C1049 C 0.74278 0.15808 1.00478 0.0
N1050 N 0.7204 0.12427 0.02803 0.0
N1051 N 0.77351 0.19642 0.11281 0.0
C1052 C 0.73702 0.1397 0.04516 0.0
C1053 C 0.76466 0.17654 0.08835 0.0
N1054 N 0.74744 0.11778 0.13668 0.0
N1055 N 0.76547 0.19178 0.98354 0.0
H1056 H 0.77785 0.19835 0.15961 0.0
H1057 H 0.77415 0.21186 0.08831 0.0
H1058 H 0.76074 0.19159 0.9367 0.0
H1059 H 0.77825 0.20377 0.99412 0.0
H1060 H 0.7404 0.10267 0.11873 0.0
H1061 H 0.75568 0.11545 0.17931 0.0
H1062 H 0.71356 0.11207 0.05826 0.0
H1063 H 0.71218 0.12488 0.98485 0.0
C1064 C 0.87844 0.48212 0.8282 0.0
C1065 C 0.87898 0.49888 0.77975 0.0
C1066 C 0.85802 0.52559 0.84752 0.0
C1067 C 0.86397 0.51172 0.89938 0.0
N1068 N 0.87251 0.47389 0.93792 0.0
N1069 N 0.86824 0.53679 0.74278 0.0
C1070 C 0.87169 0.48891 0.88908 0.0
C1071 C 0.86806 0.52056 0.78876 0.0
N1072 N 0.88355 0.45963 0.81546 0.0
N1073 N 0.84227 0.54293 0.85389 0.0
H1074 H 0.87643 0.53444 0.70016 0.0
H1075 H 0.86196 0.55345 0.74878 0.0
H1076 H 0.8326 0.54501 0.89434 0.0
H1077 H 0.83629 0.55281 0.81677 0.0
H1078 H 0.88164 0.4462 0.84695 0.0
H1079 H 0.88777 0.45385 0.77116 0.0
H1080 H 0.88096 0.45808 0.93694 0.0
H1081 H 0.86453 0.47757 0.98031 0.0
C1082 C 0.23585 0.1422 0.60618 0.0
C1083 C 0.24089 0.16001 0.64934 0.0
C1084 C 0.26513 0.17895 0.57197 0.0
C1085 C 0.26207 0.15992 0.53087 0.0
N1086 N 0.2487 0.1209 0.51583 0.0
N1087 N 0.26379 0.19294 0.67806 0.0
C1088 C 0.24858 0.1408 0.54981 0.0
C1089 C 0.25677 0.17753 0.63382 0.0
N1090 N 0.21858 0.12689 0.61821 0.0
N1091 N 0.2747 0.19901 0.55114 0.0
H1092 H 0.2578 0.19256 0.72372 0.0
H1093 H 0.27713 0.20466 0.67106 0.0
H1094 H 0.28001 0.20154 0.50541 0.0
H1095 H 0.27497 0.21412 0.57731 0.0
H1096 H 0.2124 0.11522 0.5853 0.0
H1097 H 0.20918 0.12708 0.65943 0.0
H1098 H 0.24099 0.10574 0.53105 0.0
H1099 H 0.25849 0.11873 0.47565 0.0
C1100 C 0.63236 0.49693 0.30855 0.0
C1101 C 0.61537 0.51118 0.28087 0.0
C1102 C 0.59171 0.50922 0.37469 0.0
C1103 C 0.60757 0.49321 0.4002 0.0
N1104 N 0.64155 0.46939 0.38969 0.0
N1105 N 0.57765 0.52898 0.28326 0.0
C1106 C 0.62766 0.4865 0.36696 0.0
C1107 C 0.59473 0.51687 0.31283 0.0
N1108 N 0.6531 0.49377 0.27952 0.0
N1109 N 0.57406 0.51756 0.41038 0.0
H1110 H 0.57938 0.53555 0.23846 0.0
H1111 H 0.56109 0.53106 0.30108 0.0
H1112 H 0.57116 0.51207 0.45579 0.0
H1113 H 0.56348 0.53123 0.39723 0.0
H1114 H 0.66715 0.48559 0.30023 0.0
H1115 H 0.65682 0.50085 0.23609 0.0
H1116 H 0.65487 0.46188 0.3643 0.0
H1117 H 0.63873 0.46139 0.43239 0.0
C1118 C 0.26858 0.82132 0.02103 0.0
C1119 C 0.25099 0.83774 0.00994 0.0
C1120 C 0.25734 0.85397 0.11403 0.0
C1121 C 0.27248 0.83543 0.12835 0.0
N1122 N 0.28825 0.79836 0.09808 0.0
N1123 N 0.22578 0.86745 0.04961 0.0
C1124 C 0.27707 0.8183 0.08247 0.0
C1125 C 0.24447 0.85337 0.05761 0.0
N1126 N 0.2771 0.80842 0.97311 0.0
N1127 N 0.25605 0.87272 0.15234 0.0
H1128 H 0.21621 0.86792 0.00855 0.0
H1129 H 0.21875 0.87728 0.08549 0.0
H1130 H 0.26605 0.87454 0.19239 0.0
H1131 H 0.24695 0.8876 0.14071 0.0
H1132 H 0.29156 0.79784 0.97751 0.0
H1133 H 0.27112 0.80996 0.92756 0.0
H1134 H 0.28971 0.78439 0.06789 0.0
H1135 H 0.29378 0.79454 0.14302 0.0
C1136 C 0.6191 0.00633 0.79547 0.0
C1137 C 0.59946 0.99597 0.76749 0.0
C1138 C 0.57643 0.00375 0.86053 0.0
C1139 C 0.59597 0.01417 0.88843 0.0
N1140 N 0.63405 0.03032 0.87878 0.0
N1141 N 0.55808 0.9909 0.76553 0.0
C1142 C 0.61683 0.01685 0.8549 0.0
C1143 C 0.57771 0.99645 0.79778 0.0
N1144 N 0.63998 0.00564 0.76614 0.0
N1145 N 0.55681 1.00031 0.8945 0.0
H1146 H 0.55815 0.9862 0.71871 0.0
H1147 H 0.5415 0.99325 0.78303 0.0
H1148 H 0.55485 0.00619 0.94004 0.0
H1149 H 0.54308 0.99019 0.87928 0.0
H1150 H 0.65549 0.00999 0.7877 0.0
H1151 H 0.64202 0.99978 0.7207 0.0
H1152 H 0.64872 0.03504 0.85406 0.0
H1153 H 0.63271 0.03849 0.92183 0.0
C1154 C 0.23078 0.36573 0.09479 0.0
C1155 C 0.2473 0.37112 0.14164 0.0
C1156 C 0.27767 0.37176 0.06262 0.0
C1157 C 0.26181 0.363 0.01771 0.0
N1158 N 0.22369 0.34875 0.99352 0.0
N1159 N 0.28695 0.37703 0.1718 0.0
C1160 C 0.23839 0.35942 0.03419 0.0
C1161 C 0.27086 0.37377 0.12594 0.0
N1162 N 0.20775 0.36714 0.10792 0.0
N1163 N 0.29915 0.37868 0.04453 0.0
H1164 H 0.28266 0.37877 0.21867 0.0
H1165 H 0.30467 0.37623 0.1641 0.0
H1166 H 0.30478 0.37761 0.99873 0.0
H1167 H 0.31056 0.38749 0.07354 0.0
H1168 H 0.19487 0.36565 0.07425 0.0
H1169 H 0.20157 0.37213 0.15141 0.0
H1170 H 0.20721 0.34326 1.00579 0.0
H1171 H 0.22855 0.34356 0.94899 0.0
C1172 C 0.94021 1.00123 0.36743 0.0
C1173 C 0.91881 0.99566 0.39512 0.0
C1174 C 0.89894 0.00903 0.30141 0.0
C1175 C 0.92042 0.0098 0.26957 0.0
N1176 N 0.96182 0.00347 0.27214 0.0
N1177 N 0.87732 0.99221 0.38562 0.0
C1178 C 0.9412 0.00515 0.30257 0.0
C1179 C 0.89797 0.9991 0.36159 0.0
N1180 N 0.95951 0.00345 0.40359 0.0
N1181 N 0.87973 0.01895 0.276 0.0
H1182 H 0.87559 0.98521 0.42985 0.0
H1183 H 0.86213 0.99186 0.35948 0.0
H1184 H 0.88016 0.02805 0.23438 0.0
H1185 H 0.8642 0.02068 0.29993 0.0
H1186 H 0.97524 0.00938 0.38656 0.0
H1187 H 0.95893 0.00212 0.45196 0.0
H1188 H 0.97689 0.99768 0.29365 0.0
H1189 H 0.96355 0.00562 0.22437 0.0
C1190 C 0.23838 0.61915 0.62508 0.0
C1191 C 0.26234 0.61906 0.63817 0.0
C1192 C 0.2707 0.62812 0.52881 0.0
C1193 C 0.24669 0.62814 0.51571 0.0
N1194 N 0.20853 0.61639 0.54634 0.0
N1195 N 0.30136 0.61653 0.59904 0.0
C1196 C 0.23078 0.62138 0.56244 0.0
C1197 C 0.27853 0.62112 0.5888 0.0
N1198 N 0.22285 0.61741 0.67261 0.0
N1199 N 0.28596 0.63624 0.48572 0.0
H1200 H 0.3078 0.61124 0.64195 0.0
H1201 H 0.31354 0.61571 0.56354 0.0
H1202 H 0.28101 0.64165 0.44143 0.0
H1203 H 0.30329 0.63932 0.49556 0.0
H1204 H 0.20521 0.62024 0.66693 0.0
H1205 H 0.2278 0.61429 0.71857 0.0
H1206 H 0.19649 0.60954 0.57706 0.0
H1207 H 0.20291 0.61668 0.50029 0.0
C1208 C 0.40726 0.97302 0.32005 0.0
C1209 C 0.4089 0.98752 0.26703 0.0
C1210 C 0.40418 0.02125 0.33377 0.0
C1211 C 0.407 0.00704 0.38698 0.0
N1212 N 0.4133 0.96931 0.43101 0.0
N1213 N 0.41137 0.02585 0.22383 0.0
C1214 C 0.40871 0.98284 0.38044 0.0
C1215 C 0.40763 0.01176 0.27371 0.0
N1216 N 0.40411 0.94987 0.31272 0.0
N1217 N 0.39816 0.04385 0.34075 0.0
H1218 H 0.4145 0.01981 0.17899 0.0
H1219 H 0.41341 0.0436 0.2279 0.0
H1220 H 0.3956 0.05139 0.38418 0.0
H1221 H 0.39349 0.05442 0.30364 0.0
H1222 H 0.40033 0.93884 0.34947 0.0
H1223 H 0.40303 0.94202 0.26921 0.0
H1224 H 0.41757 0.95193 0.42756 0.0
H1225 H 0.41464 0.9757 0.47618 0.0
C1226 C 0.7384 0.62972 0.08445 0.0
C1227 C 0.7495 0.64583 0.1244 0.0
C1228 C 0.77614 0.65611 0.04081 0.0
C1229 C 0.76612 0.63888 1.00229 0.0
N1230 N 0.74022 0.60687 0.98976 0.0
N1231 N 0.78155 0.67101 0.14534 0.0
C1232 C 0.74802 0.62488 0.02491 0.0
C1233 C 0.76929 0.65789 0.10409 0.0
N1234 N 0.71828 0.61956 0.10282 0.0
N1235 N 0.79149 0.67143 0.01619 0.0
H1236 H 0.77695 0.67263 0.19202 0.0
H1237 H 0.7974 0.67848 0.1349 0.0
H1238 H 0.79655 0.67107 0.96968 0.0
H1239 H 0.79752 0.68583 0.0401 0.0
H1240 H 0.70795 0.60965 0.07353 0.0
H1241 H 0.71115 0.62222 0.14671 0.0
H1242 H 0.72877 0.59451 1.00622 0.0
H1243 H 0.74646 0.60336 0.94523 0.0
C1244 C 0.12042 0.98574 0.83046 0.0
C1245 C 0.09752 0.98143 0.85122 0.0
C1246 C 0.08334 0.98842 0.74539 0.0
C1247 C 0.10506 0.99765 0.7296 0.0
N1248 N 0.14486 0.00456 0.75469 0.0
N1249 N 0.05644 0.981 0.82819 0.0
C1250 C 0.12384 0.996 0.77138 0.0
C1251 C 0.07875 0.98302 0.80842 0.0
N1252 N 0.13889 0.97909 0.86573 0.0
N1253 N 0.06704 0.98502 0.7003 0.0
H1254 H 0.05184 0.97787 0.87413 0.0
H1255 H 0.04226 0.98471 0.79995 0.0
H1256 H 0.07025 0.98828 0.65346 0.0
H1257 H 0.05148 0.97656 0.70826 0.0
H1258 H 0.15591 0.97988 0.85035 0.0
H1259 H 0.13706 0.97042 0.90768 0.0
H1260 H 0.15849 0.00673 0.7859 0.0
H1261 H 0.14826 0.0102 0.70955 0.0
C1262 C 0.77163 0.36628 0.58667 0.0
C1263 C 0.75494 0.36217 0.63383 0.0
C1264 C 0.72435 0.37215 0.55934 0.0
C1265 C 0.74069 0.37149 0.51016 0.0
N1266 N 0.78006 0.36727 0.47628 0.0
N1267 N 0.71479 0.3589 0.66281 0.0
C1268 C 0.76442 0.36842 0.52367 0.0
C1269 C 0.73111 0.36486 0.61997 0.0
N1270 N 0.79432 0.36903 0.60243 0.0
N1271 N 0.70234 0.37954 0.5483 0.0
H1272 H 0.71881 0.35286 0.70715 0.0
H1273 H 0.69724 0.35796 0.65242 0.0
H1274 H 0.69656 0.38472 0.50457 0.0
H1275 H 0.69049 0.38267 0.58372 0.0
H1276 H 0.80698 0.37408 0.57096 0.0
H1277 H 0.80002 0.36886 0.64841 0.0
H1278 H 0.79716 0.36221 0.4827 0.0
H1279 H 0.77558 0.37019 0.42986 0.0
C1280 C 0.13092 0.42318 0.22326 0.0
C1281 C 0.11822 0.41191 0.17556 0.0
C1282 C 0.14209 0.37727 0.19021 0.0
C1283 C 0.15348 0.38811 0.24126 0.0
N1284 N 0.15411 0.41895 0.31632 0.0
N1285 N 0.10904 0.37711 0.12 0.0
C1286 C 0.14641 0.41032 0.26082 0.0
C1287 C 0.12291 0.38854 0.16119 0.0
N1288 N 0.12897 0.44644 0.2312 0.0
N1289 N 0.15031 0.35695 0.16703 0.0
H1290 H 0.09538 0.38512 0.09676 0.0
H1291 H 0.11003 0.35943 0.11243 0.0
H1292 H 0.16427 0.34818 0.18648 0.0
H1293 H 0.14443 0.34966 0.12565 0.0
H1294 H 0.13959 0.45587 0.26096 0.0
H1295 H 0.11823 0.45665 0.20377 0.0
H1296 H 0.14777 0.43412 0.33584 0.0
H1297 H 0.16491 0.40965 0.3461 0.0
C1298 C 0.86488 0.89473 0.49672 0.0
C1299 C 0.8745 0.91508 0.47144 0.0
C1300 C 0.8575 0.906 0.36942 0.0
C1301 C 0.84678 0.88637 0.39545 0.0
N1302 N 0.84627 0.85797 0.47705 0.0
N1303 N 0.88632 0.93594 0.38042 0.0
C1304 C 0.85263 0.87928 0.45681 0.0
C1305 C 0.87285 0.91933 0.40653 0.0
N1306 N 0.86626 0.89086 0.55932 0.0
N1307 N 0.85242 0.91226 0.30962 0.0
H1308 H 0.89826 0.94523 0.40649 0.0
H1309 H 0.88745 0.93887 0.33274 0.0
H1310 H 0.84261 0.90191 0.27991 0.0
H1311 H 0.85715 0.92796 0.29023 0.0
H1312 H 0.85714 0.87793 0.58197 0.0
H1313 H 0.87561 0.9015 0.58929 0.0
H1314 H 0.85143 0.85109 0.51958 0.0
H1315 H 0.83777 0.84623 0.44845 0.0
C1316 C 0.37208 0.59332 0.70137 0.0
C1317 C 0.3855 0.6037 0.65397 0.0
C1318 C 0.36556 0.6404 0.67328 0.0
C1319 C 0.3499 0.62907 0.71387 0.0
N1320 N 0.3364 0.59317 0.75848 0.0
N1321 N 0.39395 0.63678 0.59075 0.0
C1322 C 0.35274 0.60516 0.72618 0.0
C1323 C 0.38205 0.62722 0.63901 0.0
N1324 N 0.37824 0.57232 0.72458 0.0
N1325 N 0.36518 0.66387 0.6691 0.0
H1326 H 0.40629 0.6277 0.56528 0.0
H1327 H 0.39038 0.65307 0.57293 0.0
H1328 H 0.35389 0.67406 0.69501 0.0
H1329 H 0.3775 0.67334 0.64499 0.0
H1330 H 0.37085 0.56515 0.76423 0.0
H1331 H 0.39237 0.56314 0.70824 0.0
H1332 H 0.33617 0.57526 0.7608 0.0
H1333 H 0.32193 0.6006 0.77867 0.0
C1334 C 0.64231 0.12029 0.93504 0.0
C1335 C 0.66376 0.11247 0.91091 0.0
C1336 C 0.66172 0.07847 0.97824 0.0
C1337 C 0.64161 0.08746 1.00742 0.0
N1338 N 0.61487 0.11895 0.02022 0.0
N1339 N 0.69678 0.0872 0.92304 0.0
C1340 C 0.63247 0.10897 0.98764 0.0
C1341 C 0.6743 0.09246 0.93635 0.0
N1342 N 0.63089 0.13795 0.9064 0.0
N1343 N 0.66829 0.05611 0.98755 0.0
H1344 H 0.70732 0.09752 0.89556 0.0
H1345 H 0.70587 0.07418 0.94578 0.0
H1346 H 0.65895 0.0445 0.01438 0.0
H1347 H 0.68138 0.0482 0.96206 0.0
H1348 H 0.61412 0.14285 0.91781 0.0
H1349 H 0.63734 0.14638 0.86734 0.0
H1350 H 0.60904 0.13564 0.01201 0.0
H1351 H 0.60751 0.11134 0.05935 0.0
C1352 C 0.15422 0.62156 0.46342 0.0
C1353 C 0.16281 0.61055 0.40889 0.0
C1354 C 0.1403 0.57605 0.43265 0.0
C1355 C 0.13244 0.58653 0.48858 0.0
N1356 N 0.12706 0.62088 0.54965 0.0
N1357 N 0.15778 0.58122 0.33122 0.0
C1358 C 0.13764 0.60994 0.50112 0.0
C1359 C 0.15374 0.58903 0.39025 0.0
N1360 N 0.16299 0.64233 0.48159 0.0
N1361 N 0.13556 0.55342 0.42075 0.0
H1362 H 0.16716 0.59076 0.29886 0.0
H1363 H 0.14987 0.5667 0.31234 0.0
H1364 H 0.12452 0.5436 0.44809 0.0
H1365 H 0.14335 0.54405 0.38518 0.0
H1366 H 0.15987 0.64974 0.5249 0.0
H1367 H 0.17447 0.65178 0.45474 0.0
H1368 H 0.12825 0.63851 0.55769 0.0
H1369 H 0.11552 0.61258 0.57924 0.0
C1370 C 0.63669 0.89411 0.65388 0.0
C1371 C 0.64064 0.9182 0.65751 0.0
C1372 C 0.66877 0.91187 0.74147 0.0
C1373 C 0.66338 0.88805 0.74218 0.0
N1374 N 0.63974 0.85684 0.70487 0.0
N1375 N 0.65544 0.95014 0.71767 0.0
C1376 C 0.64659 0.87924 0.69997 0.0
C1377 C 0.65516 0.92708 0.70522 0.0
N1378 N 0.62425 0.88534 0.60526 0.0
N1379 N 0.68779 0.92 0.77225 0.0
H1380 H 0.64517 0.96187 0.69373 0.0
H1381 H 0.66381 0.95717 0.75624 0.0
H1382 H 0.69926 0.90951 0.79666 0.0
H1383 H 0.69373 0.93683 0.76742 0.0
H1384 H 0.62281 0.8678 0.59615 0.0
H1385 H 0.61676 0.89572 0.57114 0.0
H1386 H 0.626 0.84992 0.67974 0.0
H1387 H 0.64657 0.84562 0.73807 0.0
C1388 C 0.34077 0.4182 0.90192 0.0
C1389 C 0.33871 0.39386 0.90385 0.0
C1390 C 0.37452 0.39234 0.9661 0.0
C1391 C 0.37449 0.41669 0.97047 0.0
N1392 N 0.35348 0.45224 0.95637 0.0
N1393 N 0.35151 0.35804 0.9505 0.0
C1394 C 0.35629 0.42943 0.94291 0.0
C1395 C 0.35508 0.38088 0.93914 0.0
N1396 N 0.3287 0.43066 0.85879 0.0
N1397 N 0.39303 0.38014 0.9878 0.0
H1398 H 0.33714 0.34906 0.93455 0.0
H1399 H 0.3617 0.34851 0.98113 0.0
H1400 H 0.40696 0.38796 0.0103 0.0
H1401 H 0.39516 0.36257 0.97978 0.0
H1402 H 0.33119 0.44826 0.8522 0.0
H1403 H 0.31846 0.42299 0.82456 0.0
H1404 H 0.33912 0.46166 0.94176 0.0
H1405 H 0.36431 0.46118 0.98673 0.0
C1406 C 0.85304 0.12082 0.19945 0.0
C1407 C 0.83533 0.10875 0.23165 0.0
C1408 C 0.85015 0.07229 0.18988 0.0
C1409 C 0.86932 0.08395 0.16378 0.0
N1410 N 0.8908 0.11909 0.15082 0.0
N1411 N 0.8215 0.07247 0.27126 0.0
C1412 C 0.87136 0.10815 0.17107 0.0
C1413 C 0.83517 0.08432 0.23067 0.0
N1414 N 0.85186 0.14417 0.19281 0.0
N1415 N 0.84605 0.04971 0.1759 0.0
H1416 H 0.81135 0.08061 0.30478 0.0
H1417 H 0.82239 0.05467 0.27677 0.0
H1418 H 0.8566 0.03993 0.14695 0.0
H1419 H 0.83095 0.04125 0.18875 0.0
H1420 H 0.86282 0.15342 0.1638 0.0
H1421 H 0.83881 0.15424 0.21191 0.0
H1422 H 0.89456 0.13617 0.16152 0.0
H1423 H 0.90386 0.11063 0.12641 0.0
C1424 C 0.87638 0.61458 0.98121 0.0
C1425 C 0.88807 0.5956 0.95416 0.0
C1426 C 0.87065 0.60531 0.85297 0.0
C1427 C 0.85539 0.62087 0.88276 0.0
N1428 N 0.84377 0.64055 0.97713 0.0
N1429 N 0.89473 0.57153 0.86367 0.0
C1430 C 0.85852 0.62593 0.94719 0.0
C1431 C 0.88516 0.59082 0.88954 0.0
N1432 N 0.88265 0.62198 0.03925 0.0
N1433 N 0.87112 0.60439 0.78942 0.0
H1434 H 0.90371 0.55911 0.88881 0.0
H1435 H 0.89203 0.56658 0.81775 0.0
H1436 H 0.86084 0.61506 0.76175 0.0
H1437 H 0.88336 0.59508 0.76439 0.0
H1438 H 0.87646 0.6371 0.05929 0.0
H1439 H 0.89588 0.6142 0.06481 0.0
H1440 H 0.84308 0.64215 0.02538 0.0
H1441 H 0.83136 0.65033 0.95435 0.0
C1442 C 0.14702 0.08232 0.70018 0.0
C1443 C 0.13061 0.09379 0.6619 0.0
C1444 C 0.14637 0.13095 0.69734 0.0
C1445 C 0.16081 0.11926 0.74096 0.0
N1446 N 0.1689 0.08397 0.79588 0.0
N1447 N 0.11246 0.12934 0.63065 0.0
C1448 C 0.1593 0.09499 0.74592 0.0
C1449 C 0.12947 0.11822 0.663 0.0
N1450 N 0.15148 0.05941 0.69255 0.0
N1451 N 0.14956 0.15382 0.68555 0.0
H1452 H 0.10079 0.12076 0.60179 0.0
H1453 H 0.1091 0.14688 0.63554 0.0
H1454 H 0.1618 0.16386 0.7083 0.0
H1455 H 0.14135 0.16245 0.64921 0.0
H1456 H 0.16496 0.05105 0.71556 0.0
H1457 H 0.14378 0.04934 0.65834 0.0
H1458 H 0.16643 0.0665 0.80465 0.0
H1459 H 0.17686 0.09278 0.83244 0.0
C1460 C 0.64472 0.37034 0.46527 0.0
C1461 C 0.64854 0.37545 0.4013 0.0
C1462 C 0.61849 0.40517 0.4046 0.0
C1463 C 0.61518 0.40079 0.46917 0.0
N1464 N 0.62026 0.37536 0.55628 0.0
N1465 N 0.63387 0.39164 0.30625 0.0
C1466 C 0.62672 0.38203 0.49791 0.0
C1467 C 0.63365 0.39088 0.36983 0.0
N1468 N 0.65897 0.35536 0.49588 0.0
N1469 N 0.60842 0.42385 0.37699 0.0
H1470 H 0.64451 0.38097 0.27964 0.0
H1471 H 0.62189 0.40086 0.27996 0.0
H1472 H 0.59695 0.43475 0.3996 0.0
H1473 H 0.61276 0.42961 0.33267 0.0
H1474 H 0.65874 0.35293 0.54385 0.0
H1475 H 0.67219 0.34625 0.47425 0.0
H1476 H 0.62629 0.3605 0.57798 0.0
H1477 H 0.60711 0.3836 0.58087 0.0
C1478 C 0.3823 0.87796 0.17242 0.0
C1479 C 0.38137 0.90237 0.17302 0.0
C1480 C 0.35068 0.90088 0.25123 0.0
C1481 C 0.34894 0.87673 0.24328 0.0
N1482 N 0.36228 0.84211 0.19175 0.0
N1483 N 0.36235 0.93724 0.2075 0.0
C1484 C 0.3647 0.86511 0.2032 0.0
C1485 C 0.36484 0.91387 0.21068 0.0
N1486 N 0.39999 0.86704 0.14245 0.0
N1487 N 0.33943 0.91135 0.29949 0.0
H1488 H 0.37272 0.9477 0.1801 0.0
H1489 H 0.3488 0.94609 0.22856 0.0
H1490 H 0.32978 0.90217 0.332 0.0
H1491 H 0.34189 0.92855 0.31155 0.0
H1492 H 0.40318 0.84945 0.14631 0.0
H1493 H 0.41249 0.87586 0.11707 0.0
H1494 H 0.37125 0.83345 0.15688 0.0
H1495 H 0.35033 0.83176 0.21435 0.0
C1496 C 0.83569 0.41483 0.75767 0.0
C1497 C 0.83306 0.3909 0.74784 0.0
C1498 C 0.86587 0.39206 0.67513 0.0
C1499 C 0.86545 0.41648 0.67727 0.0
N1500 N 0.84586 0.45106 0.71165 0.0
N1501 N 0.84454 0.35667 0.69141 0.0
C1502 C 0.84915 0.42785 0.71584 0.0
C1503 C 0.84803 0.37933 0.7055 0.0
N1504 N 0.82571 0.42512 0.80813 0.0
N1505 N 0.88315 0.38104 0.64382 0.0
H1506 H 0.8318 0.3467 0.7121 0.0
H1507 H 0.8532 0.3482 0.65564 0.0
H1508 H 0.89581 0.38987 0.61904 0.0
H1509 H 0.88579 0.36332 0.64603 0.0
H1510 H 0.82889 0.44217 0.8206 0.0
H1511 H 0.81657 0.41583 0.84151 0.0
H1512 H 0.83267 0.45971 0.73495 0.0
H1513 H 0.8547 0.46131 0.68025 0.0
C1514 C 0.37517 0.11774 0.48252 0.0
C1515 C 0.37517 0.09332 0.4815 0.0
C1516 C 0.34262 0.09391 0.40824 0.0
C1517 C 0.34027 0.11802 0.41654 0.0
N1518 N 0.35327 0.15289 0.46728 0.0
N1519 N 0.35663 0.0579 0.4498 0.0
C1520 C 0.35641 0.13005 0.4547 0.0
C1521 C 0.35819 0.08134 0.44639 0.0
N1522 N 0.3931 0.12918 0.51 0.0
N1523 N 0.33062 0.0831 0.36176 0.0
H1524 H 0.36804 0.04776 0.47544 0.0
H1525 H 0.34292 0.04862 0.43086 0.0
H1526 H 0.31992 0.09196 0.3308 0.0
H1527 H 0.33336 0.06597 0.34933 0.0
H1528 H 0.39549 0.14689 0.50619 0.0
H1529 H 0.40653 0.12072 0.53305 0.0
H1530 H 0.36276 0.16179 0.50077 0.0
H1531 H 0.34018 0.16274 0.44744 0.0
C1532 C 0.66418 0.5758 0.16835 0.0
C1533 C 0.64388 0.58506 0.14057 0.0
C1534 C 0.64723 0.61902 0.20885 0.0
C1535 C 0.66887 0.61079 0.23112 0.0
N1536 N 0.70066 0.58414 0.21756 0.0
N1537 N 0.61754 0.61688 0.12872 0.0
C1538 C 0.67811 0.58997 0.20681 0.0
C1539 C 0.63578 0.6071 0.1593 0.0
N1540 N 0.66973 0.55306 0.1609 0.0
N1541 N 0.63722 0.63772 0.23647 0.0
H1542 H 0.60881 0.60859 0.09256 0.0
H1543 H 0.61228 0.63384 0.13564 0.0
H1544 H 0.64496 0.64666 0.27311 0.0
H1545 H 0.62046 0.64318 0.22676 0.0
H1546 H 0.68293 0.54507 0.18591 0.0
H1547 H 0.65959 0.54146 0.13595 0.0
H1548 H 0.70875 0.57036 0.19539 0.0
H1549 H 0.71216 0.5946 0.24196 0.0
C1550 C 0.17117 0.90777 0.91713 0.0
C1551 C 0.17156 0.88338 0.9179 0.0
C1552 C 0.13669 0.8838 0.98315 0.0
C1553 C 0.13784 0.9082 0.98701 0.0
N1554 N 0.16136 0.94234 0.97279 0.0
N1555 N 0.15752 0.84824 0.96473 0.0
C1556 C 0.15675 0.91985 0.95922 0.0
C1557 C 0.15506 0.87131 0.95438 0.0
N1558 N 0.18365 0.91959 0.87377 0.0
N1559 N 0.11816 0.87248 1.00754 0.0
H1560 H 0.17106 0.83852 0.9468 0.0
H1561 H 0.14738 0.83915 0.99616 0.0
H1562 H 0.10543 0.88078 0.03356 0.0
H1563 H 0.11491 0.85511 0.99935 0.0
H1564 H 0.18213 0.93732 0.8675 0.0
H1565 H 0.19323 0.91144 0.83909 0.0
H1566 H 0.17639 0.95053 0.95809 0.0
H1567 H 0.15169 0.9523 1.0033 0.0
loop_
_geom_bond_atom_site_label_1
_geom_bond_atom_site_label_2
_geom_bond_distance
_geom_bond_site_symmetry_2
_ccdc_geom_bond_type
Mg0 O7 2.141 . S
Mg0 O8 2.048 . S
Mg0 O9 2.048 . S
Mg0 O12 2.141 1_554 S
C1 O2 1.313 . S
C1 O8 1.195 . S
O2 C1 1.313 . S
C3 O4 1.245 . S
C3 O12 1.289 . S
O4 C3 1.245 . S
C5 O6 1.245 . S
C5 O7 1.289 . S
O6 C5 1.245 . S
O7 Mg0 2.141 . S
O7 C5 1.289 . S
O8 Mg0 2.048 . S
O8 C1 1.195 . S
O9 Mg0 2.048 . S
O9 C10 1.195 . S
C10 O9 1.195 . S
C10 O11 1.313 . S
O11 C10 1.313 . S
O12 Mg0 2.141 1_556 S
O12 C3 1.289 . S
Mg13 O20 2.141 . S
Mg13 O21 2.048 . S
Mg13 O22 2.048 . S
Mg13 O25 2.141 . S
C14 O15 1.313 . S
C14 O21 1.195 . S
O15 C14 1.313 . S
C16 O17 1.245 . S
C16 O25 1.289 . S
O17 C16 1.245 . S
C18 O19 1.245 . S
C18 O20 1.289 . S
O19 C18 1.245 . S
O20 Mg13 2.141 . S
O20 C18 1.289 . S
O21 Mg13 2.048 . S
O21 C14 1.195 . S
O22 Mg13 2.048 . S
O22 C23 1.195 . S
C23 O22 1.195 . S
C23 O24 1.313 . S
O24 C23 1.313 . S
O25 Mg13 2.141 . S
O25 C16 1.289 . S
Mg26 O33 2.141 . S
Mg26 O34 2.048 . S
Mg26 O35 2.048 . S
Mg26 O38 2.141 . S
C27 O28 1.313 . S
C27 O34 1.195 . S
O28 C27 1.313 . S
C29 O30 1.245 . S
C29 O38 1.289 . S
O30 C29 1.245 . S
C31 O32 1.245 . S
C31 O33 1.289 . S
O32 C31 1.245 . S
O33 Mg26 2.141 . S
O33 C31 1.289 . S
O34 Mg26 2.048 . S
O34 C27 1.195 . S
O35 Mg26 2.048 . S
O35 C36 1.195 . S
C36 O35 1.195 . S
C36 O37 1.313 . S
O37 C36 1.313 . S
O38 Mg26 2.141 . S
O38 C29 1.289 . S
Mg39 O46 2.141 . S
Mg39 O47 2.048 . S
Mg39 O48 2.048 . S
Mg39 O51 2.141 . S
C40 O41 1.313 . S
C40 O47 1.195 . S
O41 C40 1.313 . S
C42 O43 1.245 . S
C42 O51 1.289 . S
O43 C42 1.245 . S
C44 O45 1.245 . S
C44 O46 1.289 . S
O45 C44 1.245 . S
O46 Mg39 2.141 . S
O46 C44 1.289 . S
O47 Mg39 2.048 . S
O47 C40 1.195 . S
O48 Mg39 2.048 . S
O48 C49 1.195 . S
C49 O48 1.195 . S
C49 O50 1.313 . S
O50 C49 1.313 . S
O51 Mg39 2.141 . S
O51 C42 1.289 . S
Mg52 O59 2.141 . S
Mg52 O60 2.048 . S
Mg52 O61 2.048 . S
Mg52 O64 2.141 . S
C53 O54 1.313 . S
C53 O60 1.195 . S
O54 C53 1.313 . S
C55 O56 1.245 . S
C55 O64 1.289 . S
O56 C55 1.245 . S
C57 O58 1.245 . S
C57 O59 1.289 . S
O58 C57 1.245 . S
O59 Mg52 2.141 . S
O59 C57 1.289 . S
O60 Mg52 2.048 . S
O60 C53 1.195 . S
O61 Mg52 2.048 . S
O61 C62 1.195 . S
C62 O61 1.195 . S
C62 O63 1.313 . S
O63 C62 1.313 . S
O64 Mg52 2.141 . S
O64 C55 1.289 . S
Mg65 O72 2.141 . S
Mg65 O73 2.048 . S
Mg65 O74 2.048 . S
Mg65 O77 2.141 . S
C66 O67 1.313 . S
C66 O73 1.195 . S
O67 C66 1.313 . S
C68 O69 1.245 . S
C68 O77 1.289 . S
O69 C68 1.245 . S
C70 O71 1.245 . S
C70 O72 1.289 . S
O71 C70 1.245 . S
O72 Mg65 2.141 . S
O72 C70 1.289 . S
O73 Mg65 2.048 . S
O73 C66 1.195 . S
O74 Mg65 2.048 . S
O74 C75 1.195 . S
C75 O74 1.195 . S
C75 O76 1.313 . S
O76 C75 1.313 . S
O77 Mg65 2.141 . S
O77 C68 1.289 . S
Mg78 O85 2.141 . S
Mg78 O86 2.048 1_554 S
Mg78 O87 2.048 . S
Mg78 O90 2.141 . S
C79 O80 1.313 . S
C79 O86 1.195 . S
O80 C79 1.313 . S
C81 O82 1.245 . S
C81 O90 1.289 . S
O82 C81 1.245 . S
C83 O84 1.245 . S
C83 O85 1.289 . S
O84 C83 1.245 . S
O85 Mg78 2.141 . S
O85 C83 1.289 . S
O86 Mg78 2.048 1_556 S
O86 C79 1.195 . S
O87 Mg78 2.048 . S
O87 C88 1.195 . S
C88 O87 1.195 . S
C88 O89 1.313 . S
O89 C88 1.313 . S
O90 Mg78 2.141 . S
O90 C81 1.289 . S
Mg91 O98 2.141 . S
Mg91 O99 2.048 . S
Mg91 O100 2.048 . S
Mg91 O103 2.141 . S
C92 O93 1.313 . S
C92 O99 1.195 . S
O93 C92 1.313 . S
C94 O95 1.245 . S
C94 O103 1.289 . S
O95 C94 1.245 . S
C96 O97 1.245 . S
C96 O98 1.289 . S
O97 C96 1.245 . S
O98 Mg91 2.141 . S
O98 C96 1.289 . S
O99 Mg91 2.048 . S
O99 C92 1.195 . S
O100 Mg91 2.048 . S
O100 C101 1.195 . S
C101 O100 1.195 . S
C101 O102 1.313 . S
O102 C101 1.313 . S
O103 Mg91 2.141 . S
O103 C94 1.289 . S
Mg104 O111 2.141 . S
Mg104 O112 2.048 . S
Mg104 O113 2.048 1_554 S
Mg104 O116 2.141 . S
C105 O106 1.313 . S
C105 O112 1.195 . S
O106 C105 1.313 . S
C107 O108 1.245 . S
C107 O116 1.289 . S
O108 C107 1.245 . S
C109 O110 1.245 . S
C109 O111 1.289 . S
O110 C109 1.245 . S
O111 Mg104 2.141 . S
O111 C109 1.289 . S
O112 Mg104 2.048 . S
O112 C105 1.195 . S
O113 Mg104 2.048 1_556 S
O113 C114 1.195 . S
C114 O113 1.195 . S
C114 O115 1.313 . S
O115 C114 1.313 . S
O116 Mg104 2.141 . S
O116 C107 1.289 . S
Mg117 O124 2.141 . S
Mg117 O125 2.048 . S
Mg117 O126 2.048 . S
Mg117 O129 2.141 . S
C118 O119 1.313 . S
C118 O125 1.195 . S
O119 C118 1.313 . S
C120 O121 1.245 . S
C120 O129 1.289 . S
O121 C120 1.245 . S
C122 O123 1.245 . S
C122 O124 1.289 . S
O123 C122 1.245 . S
O124 Mg117 2.141 . S
O124 C122 1.289 . S
O125 Mg117 2.048 . S
O125 C118 1.195 . S
O126 Mg117 2.048 . S
O126 C127 1.195 . S
C127 O126 1.195 . S
C127 O128 1.313 . S
O128 C127 1.313 . S
O129 Mg117 2.141 . S
O129 C120 1.289 . S
Mg130 O137 2.141 . S
Mg130 O138 2.048 . S
Mg130 O139 2.048 . S
Mg130 O142 2.141 . S
C131 O132 1.313 . S
C131 O138 1.195 . S
O132 C131 1.313 . S
C133 O134 1.245 . S
C133 O142 1.289 . S
O134 C133 1.245 . S
C135 O136 1.245 . S
C135 O137 1.289 . S
O136 C135 1.245 . S
O137 Mg130 2.141 . S
O137 C135 1.289 . S
O138 Mg130 2.048 . S
O138 C131 1.195 . S
O139 Mg130 2.048 . S
O139 C140 1.195 . S
C140 O139 1.195 . S
C140 O141 1.313 . S
O141 C140 1.313 . S
O142 Mg130 2.141 . S
O142 C133 1.289 . S
Mg143 O150 2.141 . S
Mg143 O151 2.048 . S
Mg143 O152 2.048 . S
Mg143 O155 2.141 . S
C144 O145 1.313 . S
C144 O151 1.195 . S
O145 C144 1.313 . S
C146 O147 1.245 . S
C146 O155 1.289 . S
O147 C146 1.245 . S
C148 O149 1.245 . S
C148 O150 1.289 . S
O149 C148 1.245 . S
O150 Mg143 2.141 . S
O150 C148 1.289 . S
O151 Mg143 2.048 . S
O151 C144 1.195 . S
O152 Mg143 2.048 . S
O152 C153 1.195 . S
C153 O152 1.195 . S
C153 O154 1.313 . S
O154 C153 1.313 . S
O155 Mg143 2.141 . S
O155 C146 1.289 . S
Mg156 O163 2.141 . S
Mg156 O164 2.048 . S
Mg156 O165 2.048 . S
Mg156 O168 2.141 . S
C157 O158 1.313 . S
C157 O164 1.195 . S
O158 C157 1.313 . S
C159 O160 1.245 . S
C159 O168 1.289 . S
O160 C159 1.245 . S
C161 O162 1.245 . S
C161 O163 1.289 . S
O162 C161 1.245 . S
O163 Mg156 2.141 . S
O163 C161 1.289 . S
O164 Mg156 2.048 . S
O164 C157 1.195 . S
O165 Mg156 2.048 . S
O165 C166 1.195 . S
C166 O165 1.195 . S
C166 O167 1.313 . S
O167 C166 1.313 . S
O168 Mg156 2.141 . S
O168 C159 1.289 . S
Mg169 O176 2.141 . S
Mg169 O177 2.048 . S
Mg169 O178 2.048 . S
Mg169 O181 2.141 . S
C170 O171 1.313 . S
C170 O177 1.195 . S
O171 C170 1.313 . S
C172 O173 1.245 . S
C172 O181 1.289 . S
O173 C172 1.245 . S
C174 O175 1.245 . S
C174 O176 1.289 . S
O175 C174 1.245 . S
O176 Mg169 2.141 . S
O176 C174 1.289 . S
O177 Mg169 2.048 . S
O177 C170 1.195 . S
O178 Mg169 2.048 . S
O178 C179 1.195 . S
C179 O178 1.195 . S
C179 O180 1.313 . S
O180 C179 1.313 . S
O181 Mg169 2.141 . S
O181 C172 1.289 . S
Mg182 O189 2.141 1_554 S
Mg182 O190 2.048 . S
Mg182 O191 2.048 . S
Mg182 O194 2.141 . S
C183 O184 1.313 . S
C183 O190 1.195 . S
O184 C183 1.313 . S
C185 O186 1.245 . S
C185 O194 1.289 . S
O186 C185 1.245 . S
C187 O188 1.245 . S
C187 O189 1.289 . S
O188 C187 1.245 . S
O189 Mg182 2.141 1_556 S
O189 C187 1.289 . S
O190 Mg182 2.048 . S
O190 C183 1.195 . S
O191 Mg182 2.048 . S
O191 C192 1.195 . S
C192 O191 1.195 . S
C192 O193 1.313 . S
O193 C192 1.313 . S
O194 Mg182 2.141 . S
O194 C185 1.289 . S
Mg195 O202 2.141 . S
Mg195 O203 2.048 . S
Mg195 O204 2.048 . S
Mg195 O207 2.141 . S
C196 O197 1.313 . S
C196 O203 1.195 . S
O197 C196 1.313 . S
C198 O199 1.245 . S
C198 O207 1.289 . S
O199 C198 1.245 . S
C200 O201 1.245 . S
C200 O202 1.289 . S
O201 C200 1.245 . S
O202 Mg195 2.141 . S
O202 C200 1.289 . S
O203 Mg195 2.048 . S
O203 C196 1.195 . S
O204 Mg195 2.048 . S
O204 C205 1.195 . S
C205 O204 1.195 . S
C205 O206 1.313 . S
O206 C205 1.313 . S
O207 Mg195 2.141 . S
O207 C198 1.289 . S
Mg208 O215 2.157 . S
Mg208 O216 2.046 1_565 S
Mg208 O217 2.031 1_565 S
Mg208 O220 2.143 . S
C209 O210 1.313 . S
C209 O216 1.195 1_565 S
O210 C209 1.313 . S
C211 O212 1.245 . S
C211 O220 1.289 . S
O212 C211 1.245 . S
C213 O214 1.245 . S
C213 O215 1.289 . S
O214 C213 1.245 . S
O215 Mg208 2.157 . S
O215 C213 1.289 . S
O216 Mg208 2.046 1_545 S
O216 C209 1.195 1_545 S
O217 Mg208 2.031 1_545 S
O217 C218 1.195 . S
C218 O217 1.195 . S
C218 O219 1.313 1_545 S
O219 C218 1.313 1_565 S
O220 Mg208 2.143 . S
O220 C211 1.289 . S
Mg221 O228 2.141 . S
Mg221 O229 2.048 . S
Mg221 O230 2.048 . S
Mg221 O233 2.141 . S
C222 O223 1.313 . S
C222 O229 1.195 . S
O223 C222 1.313 . S
C224 O225 1.245 . S
C224 O233 1.289 . S
O225 C224 1.245 . S
C226 O227 1.245 . S
C226 O228 1.289 . S
O227 C226 1.245 . S
O228 Mg221 2.141 . S
O228 C226 1.289 . S
O229 Mg221 2.048 . S
O229 C222 1.195 . S
O230 Mg221 2.048 . S
O230 C231 1.195 . S
C231 O230 1.195 . S
C231 O232 1.313 . S
O232 C231 1.313 . S
O233 Mg221 2.141 . S
O233 C224 1.289 . S
Mg234 O241 2.158 . S
Mg234 O242 2.046 1_545 S
Mg234 O243 2.031 1_545 S
Mg234 O246 2.144 1_554 S
C235 O236 1.313 . S
C235 O242 1.195 1_545 S
O236 C235 1.313 . S
C237 O238 1.245 . S
C237 O246 1.289 . S
O238 C237 1.245 . S
C239 O240 1.245 . S
C239 O241 1.289 . S
O240 C239 1.245 . S
O241 Mg234 2.158 . S
O241 C239 1.289 . S
O242 Mg234 2.046 1_565 S
O242 C235 1.195 1_565 S
O243 Mg234 2.031 1_565 S
O243 C244 1.195 . S
C244 O243 1.195 . S
C244 O245 1.313 1_565 S
O245 C244 1.313 1_545 S
O246 Mg234 2.144 1_556 S
O246 C237 1.289 . S
Mg247 O254 2.141 . S
Mg247 O255 2.048 . S
Mg247 O256 2.048 . S
Mg247 O259 2.141 . S
C248 O249 1.313 . S
C248 O255 1.195 . S
O249 C248 1.313 . S
C250 O251 1.245 . S
C250 O259 1.289 . S
O251 C250 1.245 . S
C252 O253 1.245 . S
C252 O254 1.289 . S
O253 C252 1.245 . S
O254 Mg247 2.141 . S
O254 C252 1.289 . S
O255 Mg247 2.048 . S
O255 C248 1.195 . S
O256 Mg247 2.048 . S
O256 C257 1.195 . S
C257 O256 1.195 . S
C257 O258 1.313 . S
O258 C257 1.313 . S
O259 Mg247 2.141 . S
O259 C250 1.289 . S
Mg260 O267 2.157 . S
Mg260 O268 2.046 1_544 S
Mg260 O269 2.031 1_545 S
Mg260 O272 2.143 . S
C261 O262 1.313 . S
C261 O268 1.195 1_545 S
O262 C261 1.313 . S
C263 O264 1.245 . S
C263 O272 1.289 . S
O264 C263 1.245 . S
C265 O266 1.245 . S
C265 O267 1.289 . S
O266 C265 1.245 . S
O267 Mg260 2.157 . S
O267 C265 1.289 . S
O268 Mg260 2.046 1_566 S
O268 C261 1.195 1_565 S
O269 Mg260 2.031 1_565 S
O269 C270 1.195 . S
C270 O269 1.195 . S
C270 O271 1.313 1_565 S
O271 C270 1.313 1_545 S
O272 Mg260 2.143 . S
O272 C263 1.289 . S
Mg273 O280 2.141 . S
Mg273 O281 2.048 . S
Mg273 O282 2.048 . S
Mg273 O285 2.141 . S
C274 O275 1.313 . S
C274 O281 1.195 . S
O275 C274 1.313 . S
C276 O277 1.245 . S
C276 O285 1.289 . S
O277 C276 1.245 . S
C278 O279 1.245 . S
C278 O280 1.289 . S
O279 C278 1.245 . S
O280 Mg273 2.141 . S
O280 C278 1.289 . S
O281 Mg273 2.048 . S
O281 C274 1.195 . S
O282 Mg273 2.048 . S
O282 C283 1.195 . S
C283 O282 1.195 . S
C283 O284 1.313 . S
O284 C283 1.313 . S
O285 Mg273 2.141 . S
O285 C276 1.289 . S
Mg286 O293 2.157 . S
Mg286 O294 2.046 1_565 S
Mg286 O295 2.031 1_565 S
Mg286 O298 2.143 . S
C287 O288 1.313 . S
C287 O294 1.195 1_565 S
O288 C287 1.313 . S
C289 O290 1.245 . S
C289 O298 1.289 . S
O290 C289 1.245 . S
C291 O292 1.245 . S
C291 O293 1.289 . S
O292 C291 1.245 . S
O293 Mg286 2.157 . S
O293 C291 1.289 . S
O294 Mg286 2.046 1_545 S
O294 C287 1.195 1_545 S
O295 Mg286 2.031 1_545 S
O295 C296 1.195 . S
C296 O295 1.195 . S
C296 O297 1.313 1_545 S
O297 C296 1.313 1_565 S
O298 Mg286 2.143 . S
O298 C289 1.289 . S
Mg299 O306 2.141 . S
Mg299 O307 2.048 . S
Mg299 O308 2.048 . S
Mg299 O311 2.141 . S
C300 O301 1.313 . S
C300 O307 1.195 . S
O301 C300 1.313 . S
C302 O303 1.245 . S
C302 O311 1.289 . S
O303 C302 1.245 . S
C304 O305 1.245 . S
C304 O306 1.289 . S
O305 C304 1.245 . S
O306 Mg299 2.141 . S
O306 C304 1.289 . S
O307 Mg299 2.048 . S
O307 C300 1.195 . S
O308 Mg299 2.048 . S
O308 C309 1.195 . S
C309 O308 1.195 . S
C309 O310 1.313 . S
O310 C309 1.313 . S
O311 Mg299 2.141 . S
O311 C302 1.289 . S
Mg312 O319 2.143 . S
Mg312 O320 2.031 1_545 S
Mg312 O321 2.046 1_545 S
Mg312 O324 2.157 . S
C313 O314 1.313 1_565 S
C313 O320 1.195 . S
O314 C313 1.313 1_545 S
C315 O316 1.245 . S
C315 O324 1.289 . S
O316 C315 1.245 . S
C317 O318 1.245 . S
C317 O319 1.289 . S
O318 C317 1.245 . S
O319 Mg312 2.143 . S
O319 C317 1.289 . S
O320 Mg312 2.031 1_565 S
O320 C313 1.195 . S
O321 Mg312 2.046 1_565 S
O321 C322 1.195 1_565 S
C322 O321 1.195 1_545 S
C322 O323 1.313 . S
O323 C322 1.313 . S
O324 Mg312 2.157 . S
O324 C315 1.289 . S
Mg325 O332 2.141 . S
Mg325 O333 2.048 . S
Mg325 O334 2.048 . S
Mg325 O337 2.141 . S
C326 O327 1.313 . S
C326 O333 1.195 . S
O327 C326 1.313 . S
C328 O329 1.245 . S
C328 O337 1.289 . S
O329 C328 1.245 . S
C330 O331 1.245 . S
C330 O332 1.289 . S
O331 C330 1.245 . S
O332 Mg325 2.141 . S
O332 C330 1.289 . S
O333 Mg325 2.048 . S
O333 C326 1.195 . S
O334 Mg325 2.048 . S
O334 C335 1.195 . S
C335 O334 1.195 . S
C335 O336 1.313 . S
O336 C335 1.313 . S
O337 Mg325 2.141 . S
O337 C328 1.289 . S
Mg338 O345 2.143 . S
Mg338 O346 2.031 1_565 S
Mg338 O347 2.046 1_564 S
Mg338 O350 2.157 . S
C339 O340 1.313 1_545 S
C339 O346 1.195 . S
O340 C339 1.313 1_565 S
C341 O342 1.245 . S
C341 O350 1.289 . S
O342 C341 1.245 . S
C343 O344 1.245 . S
C343 O345 1.289 . S
O344 C343 1.245 . S
O345 Mg338 2.143 . S
O345 C343 1.289 . S
O346 Mg338 2.031 1_545 S
O346 C339 1.195 . S
O347 Mg338 2.046 1_546 S
O347 C348 1.195 1_545 S
C348 O347 1.195 1_565 S
C348 O349 1.313 . S
O349 C348 1.313 . S
O350 Mg338 2.157 . S
O350 C341 1.289 . S
Mg351 O358 2.141 . S
Mg351 O359 2.048 . S
Mg351 O360 2.048 . S
Mg351 O363 2.141 . S
C352 O353 1.313 . S
C352 O359 1.195 . S
O353 C352 1.313 . S
C354 O355 1.245 . S
C354 O363 1.289 . S
O355 C354 1.245 . S
C356 O357 1.245 . S
C356 O358 1.289 . S
O357 C356 1.245 . S
O358 Mg351 2.141 . S
O358 C356 1.289 . S
O359 Mg351 2.048 . S
O359 C352 1.195 . S
O360 Mg351 2.048 . S
O360 C361 1.195 . S
C361 O360 1.195 . S
C361 O362 1.313 . S
O362 C361 1.313 . S
O363 Mg351 2.141 . S
O363 C354 1.289 . S
Mg364 O371 2.144 1_554 S
Mg364 O372 2.031 1_565 S
Mg364 O373 2.046 1_565 S
Mg364 O376 2.158 . S
C365 O366 1.313 1_545 S
C365 O372 1.195 . S
O366 C365 1.313 1_565 S
C367 O368 1.245 . S
C367 O376 1.289 . S
O368 C367 1.245 . S
C369 O370 1.245 . S
C369 O371 1.289 . S
O370 C369 1.245 . S
O371 Mg364 2.144 1_556 S
O371 C369 1.289 . S
O372 Mg364 2.031 1_545 S
O372 C365 1.195 . S
O373 Mg364 2.046 1_545 S
O373 C374 1.195 1_545 S
C374 O373 1.195 1_565 S
C374 O375 1.313 . S
O375 C374 1.313 . S
O376 Mg364 2.158 . S
O376 C367 1.289 . S
Mg377 O384 2.141 . S
Mg377 O385 2.048 . S
Mg377 O386 2.048 . S
Mg377 O389 2.141 . S
C378 O379 1.313 . S
C378 O385 1.195 . S
O379 C378 1.313 . S
C380 O381 1.245 . S
C380 O389 1.289 . S
O381 C380 1.245 . S
C382 O383 1.245 . S
C382 O384 1.289 . S
O383 C382 1.245 . S
O384 Mg377 2.141 . S
O384 C382 1.289 . S
O385 Mg377 2.048 . S
O385 C378 1.195 . S
O386 Mg377 2.048 . S
O386 C387 1.195 . S
C387 O386 1.195 . S
C387 O388 1.313 . S
O388 C387 1.313 . S
O389 Mg377 2.141 . S
O389 C380 1.289 . S
Mg390 O397 2.143 . S
Mg390 O398 2.031 1_545 S
Mg390 O399 2.046 1_545 S
Mg390 O402 2.157 . S
C391 O392 1.313 1_565 S
C391 O398 1.195 . S
O392 C391 1.313 1_545 S
C393 O394 1.245 . S
C393 O402 1.289 . S
O394 C393 1.245 . S
C395 O396 1.245 . S
C395 O397 1.289 . S
O396 C395 1.245 . S
O397 Mg390 2.143 . S
O397 C395 1.289 . S
O398 Mg390 2.031 1_565 S
O398 C391 1.195 . S
O399 Mg390 2.046 1_565 S
O399 C400 1.195 1_565 S
C400 O399 1.195 1_545 S
C400 O401 1.313 . S
O401 C400 1.313 . S
O402 Mg390 2.157 . S
O402 C393 1.289 . S
Mg403 O410 2.141 . S
Mg403 O411 2.048 . S
Mg403 O412 2.048 . S
Mg403 O415 2.141 . S
C404 O405 1.313 . S
C404 O411 1.195 . S
O405 C404 1.313 . S
C406 O407 1.245 . S
C406 O415 1.289 . S
O407 C406 1.245 . S
C408 O409 1.245 . S
C408 O410 1.289 . S
O409 C408 1.245 . S
O410 Mg403 2.141 . S
O410 C408 1.289 . S
O411 Mg403 2.048 . S
O411 C404 1.195 . S
O412 Mg403 2.048 . S
O412 C413 1.195 . S
C413 O412 1.195 . S
C413 O414 1.313 . S
O414 C413 1.313 . S
O415 Mg403 2.141 . S
O415 C406 1.289 . S
C416 C417 1.363 . S
C416 C422 1.379 1_655 S
C416 N424 1.356 1_554 S
C417 C416 1.363 . S
C417 C423 1.363 . S
C418 C419 1.363 . S
C418 C423 1.379 1_455 S
C418 N425 1.356 . S
C419 C418 1.363 . S
C419 C422 1.363 . S
N420 C422 1.356 1_556 S
N420 H432 0.984 . S
N420 H433 0.985 1_556 S
N421 C423 1.356 . S
N421 H426 0.984 . S
N421 H427 0.985 . S
C422 C416 1.379 1_455 S
C422 C419 1.363 . S
C422 N420 1.356 1_554 S
C423 C417 1.363 . S
C423 C418 1.379 1_655 S
C423 N421 1.356 . S
N424 C416 1.356 1_556 S
N424 H430 0.984 . S
N424 H431 0.984 . S
N425 C418 1.356 . S
N425 H428 0.984 . S
N425 H429 0.985 . S
H426 N421 0.984 . S
H427 N421 0.985 . S
H428 N425 0.984 . S
H429 N425 0.985 . S
H430 N424 0.984 . S
H431 N424 0.984 . S
H432 N420 0.984 . S
H433 N420 0.985 1_554 S
C434 C435 1.363 . S
C434 C440 1.379 . S
C434 N442 1.356 . S
C435 C434 1.363 . S
C435 C441 1.363 . S
C436 C437 1.363 . S
C436 C441 1.379 . S
C436 N443 1.356 . S
C437 C436 1.363 . S
C437 C440 1.363 . S
N438 C440 1.356 . S
N438 H450 0.984 . S
N438 H451 0.985 . S
N439 C441 1.356 . S
N439 H444 0.984 . S
N439 H445 0.985 . S
C440 C434 1.379 . S
C440 C437 1.363 . S
C440 N438 1.356 . S
C441 C435 1.363 . S
C441 C436 1.379 . S
C441 N439 1.356 . S
N442 C434 1.356 . S
N442 H448 0.984 . S
N442 H449 0.984 . S
N443 C436 1.356 . S
N443 H446 0.984 . S
N443 H447 0.985 . S
H444 N439 0.984 . S
H445 N439 0.985 . S
H446 N443 0.984 . S
H447 N443 0.985 . S
H448 N442 0.984 . S
H449 N442 0.984 . S
H450 N438 0.984 . S
H451 N438 0.985 . S
C452 C453 1.363 . S
C452 C458 1.379 . S
C452 N460 1.356 . S
C453 C452 1.363 . S
C453 C459 1.363 . S
C454 C455 1.363 . S
C454 C459 1.379 . S
C454 N461 1.356 . S
C455 C454 1.363 . S
C455 C458 1.363 . S
N456 C458 1.356 . S
N456 H468 0.984 . S
N456 H469 0.985 . S
N457 C459 1.356 . S
N457 H462 0.984 . S
N457 H463 0.985 . S
C458 C452 1.379 . S
C458 C455 1.363 . S
C458 N456 1.356 . S
C459 C453 1.363 . S
C459 C454 1.379 . S
C459 N457 1.356 . S
N460 C452 1.356 . S
N460 H466 0.984 . S
N460 H467 0.984 . S
N461 C454 1.356 . S
N461 H464 0.984 . S
N461 H465 0.985 . S
H462 N457 0.984 . S
H463 N457 0.985 . S
H464 N461 0.984 . S
H465 N461 0.985 . S
H466 N460 0.984 . S
H467 N460 0.984 . S
H468 N456 0.984 . S
H469 N456 0.985 . S
C470 C471 1.363 . S
C470 C476 1.379 . S
C470 N478 1.356 . S
C471 C470 1.363 . S
C471 C477 1.363 . S
C472 C473 1.363 . S
C472 C477 1.379 . S
C472 N479 1.356 . S
C473 C472 1.363 . S
C473 C476 1.363 . S
N474 C476 1.356 . S
N474 H486 0.984 . S
N474 H487 0.985 . S
N475 C477 1.356 . S
N475 H480 0.984 . S
N475 H481 0.985 . S
C476 C470 1.379 . S
C476 C473 1.363 . S
C476 N474 1.356 . S
C477 C471 1.363 . S
C477 C472 1.379 . S
C477 N475 1.356 . S
N478 C470 1.356 . S
N478 H484 0.984 . S
N478 H485 0.984 . S
N479 C472 1.356 . S
N479 H482 0.984 . S
N479 H483 0.985 . S
H480 N475 0.984 . S
H481 N475 0.985 . S
H482 N479 0.984 . S
H483 N479 0.985 . S
H484 N478 0.984 . S
H485 N478 0.984 . S
H486 N474 0.984 . S
H487 N474 0.985 . S
C488 C489 1.363 . S
C488 C494 1.379 1_455 S
C488 N496 1.356 . S
C489 C488 1.363 . S
C489 C495 1.363 . S
C490 C491 1.363 . S
C490 C495 1.379 1_655 S
C490 N497 1.356 . S
C491 C490 1.363 . S
C491 C494 1.363 . S
N492 C494 1.356 . S
N492 H504 0.984 . S
N492 H505 0.985 . S
N493 C495 1.356 . S
N493 H498 0.984 . S
N493 H499 0.985 . S
C494 C488 1.379 1_655 S
C494 C491 1.363 . S
C494 N492 1.356 . S
C495 C489 1.363 . S
C495 C490 1.379 1_455 S
C495 N493 1.356 . S
N496 C488 1.356 . S
N496 H502 0.984 . S
N496 H503 0.984 . S
N497 C490 1.356 . S
N497 H500 0.984 . S
N497 H501 0.985 . S
H498 N493 0.984 . S
H499 N493 0.985 . S
H500 N497 0.984 . S
H501 N497 0.985 . S
H502 N496 0.984 . S
H503 N496 0.984 . S
H504 N492 0.984 . S
H505 N492 0.985 . S
C506 C507 1.363 . S
C506 C512 1.379 . S
C506 N514 1.356 . S
C507 C506 1.363 . S
C507 C513 1.363 . S
C508 C509 1.363 . S
C508 C513 1.379 . S
C508 N515 1.356 . S
C509 C508 1.363 . S
C509 C512 1.363 . S
N510 C512 1.356 . S
N510 H522 0.984 . S
N510 H523 0.985 . S
N511 C513 1.356 . S
N511 H516 0.984 . S
N511 H517 0.985 . S
C512 C506 1.379 . S
C512 C509 1.363 . S
C512 N510 1.356 . S
C513 C507 1.363 . S
C513 C508 1.379 . S
C513 N511 1.356 . S
N514 C506 1.356 . S
N514 H520 0.984 . S
N514 H521 0.984 . S
N515 C508 1.356 . S
N515 H518 0.984 . S
N515 H519 0.985 . S
H516 N511 0.984 . S
H517 N511 0.985 . S
H518 N515 0.984 . S
H519 N515 0.985 . S
H520 N514 0.984 . S
H521 N514 0.984 . S
H522 N510 0.984 . S
H523 N510 0.985 . S
C524 C525 1.363 . S
C524 C530 1.379 . S
C524 N532 1.356 . S
C525 C524 1.363 . S
C525 C531 1.363 . S
C526 C527 1.363 . S
C526 C531 1.379 . S
C526 N533 1.356 1_554 S
C527 C526 1.363 . S
C527 C530 1.363 . S
N528 C530 1.356 . S
N528 H540 0.984 . S
N528 H541 0.985 . S
N529 C531 1.356 1_556 S
N529 H534 0.984 . S
N529 H535 0.985 . S
C530 C524 1.379 . S
C530 C527 1.363 . S
C530 N528 1.356 . S
C531 C525 1.363 . S
C531 C526 1.379 . S
C531 N529 1.356 1_554 S
N532 C524 1.356 . S
N532 H538 0.984 . S
N532 H539 0.984 . S
N533 C526 1.356 1_556 S
N533 H536 0.984 . S
N533 H537 0.985 . S
H534 N529 0.984 . S
H535 N529 0.985 . S
H536 N533 0.984 . S
H537 N533 0.985 . S
H538 N532 0.984 . S
H539 N532 0.984 . S
H540 N528 0.984 . S
H541 N528 0.985 . S
C542 C543 1.363 . S
C542 C548 1.379 . S
C542 N550 1.356 . S
C543 C542 1.363 . S
C543 C549 1.363 . S
C544 C545 1.363 . S
C544 C549 1.379 . S
C544 N551 1.356 . S
C545 C544 1.363 . S
C545 C548 1.363 . S
N546 C548 1.356 . S
N546 H558 0.984 . S
N546 H559 0.985 . S
N547 C549 1.356 . S
N547 H552 0.984 . S
N547 H553 0.985 . S
C548 C542 1.379 . S
C548 C545 1.363 . S
C548 N546 1.356 . S
C549 C543 1.363 . S
C549 C544 1.379 . S
C549 N547 1.356 . S
N550 C542 1.356 . S
N550 H556 0.984 . S
N550 H557 0.984 . S
N551 C544 1.356 . S
N551 H554 0.984 . S
N551 H555 0.985 . S
H552 N547 0.984 . S
H553 N547 0.985 . S
H554 N551 0.984 . S
H555 N551 0.985 . S
H556 N550 0.984 . S
H557 N550 0.984 . S
H558 N546 0.984 . S
H559 N546 0.985 . S
C560 C561 1.363 . S
C560 C566 1.379 . S
C560 N568 1.356 . S
C561 C560 1.363 . S
C561 C567 1.363 . S
C562 C563 1.363 . S
C562 C567 1.379 . S
C562 N569 1.356 . S
C563 C562 1.363 . S
C563 C566 1.363 . S
N564 C566 1.356 . S
N564 H576 0.984 . S
N564 H577 0.985 . S
N565 C567 1.356 . S
N565 H570 0.984 . S
N565 H571 0.985 . S
C566 C560 1.379 . S
C566 C563 1.363 . S
C566 N564 1.356 . S
C567 C561 1.363 . S
C567 C562 1.379 . S
C567 N565 1.356 . S
N568 C560 1.356 . S
N568 H574 0.984 . S
N568 H575 0.984 . S
N569 C562 1.356 . S
N569 H572 0.984 . S
N569 H573 0.985 . S
H570 N565 0.984 . S
H571 N565 0.985 . S
H572 N569 0.984 . S
H573 N569 0.985 . S
H574 N568 0.984 . S
H575 N568 0.984 . S
H576 N564 0.984 . S
H577 N564 0.985 . S
C578 C579 1.363 . S
C578 C584 1.379 . S
C578 N586 1.356 . S
C579 C578 1.363 . S
C579 C585 1.363 . S
C580 C581 1.363 . S
C580 C585 1.379 . S
C580 N587 1.356 . S
C581 C580 1.363 . S
C581 C584 1.363 . S
N582 C584 1.356 . S
N582 H594 0.984 . S
N582 H595 0.985 . S
N583 C585 1.356 . S
N583 H588 0.984 . S
N583 H589 0.985 . S
C584 C578 1.379 . S
C584 C581 1.363 . S
C584 N582 1.356 . S
C585 C579 1.363 . S
C585 C580 1.379 . S
C585 N583 1.356 . S
N586 C578 1.356 . S
N586 H592 0.984 . S
N586 H593 0.984 . S
N587 C580 1.356 . S
N587 H590 0.984 . S
N587 H591 0.985 . S
H588 N583 0.984 . S
H589 N583 0.985 . S
H590 N587 0.984 . S
H591 N587 0.985 . S
H592 N586 0.984 . S
H593 N586 0.984 . S
H594 N582 0.984 . S
H595 N582 0.985 . S
C596 C597 1.363 . S
C596 C602 1.379 . S
C596 N604 1.356 . S
C597 C596 1.363 . S
C597 C603 1.363 . S
C598 C599 1.363 . S
C598 C603 1.379 . S
C598 N605 1.356 . S
C599 C598 1.363 . S
C599 C602 1.363 . S
N600 C602 1.356 . S
N600 H612 0.984 . S
N600 H613 0.985 . S
N601 C603 1.356 . S
N601 H606 0.984 . S
N601 H607 0.985 . S
C602 C596 1.379 . S
C602 C599 1.363 . S
C602 N600 1.356 . S
C603 C597 1.363 . S
C603 C598 1.379 . S
C603 N601 1.356 . S
N604 C596 1.356 . S
N604 H610 0.984 . S
N604 H611 0.984 . S
N605 C598 1.356 . S
N605 H608 0.984 . S
N605 H609 0.985 . S
H606 N601 0.984 . S
H607 N601 0.985 . S
H608 N605 0.984 . S
H609 N605 0.985 . S
H610 N604 0.984 . S
H611 N604 0.984 . S
H612 N600 0.984 . S
H613 N600 0.985 . S
C614 C615 1.363 . S
C614 C620 1.379 . S
C614 N622 1.356 . S
C615 C614 1.363 . S
C615 C621 1.363 . S
C616 C617 1.363 . S
C616 C621 1.379 . S
C616 N623 1.356 . S
C617 C616 1.363 . S
C617 C620 1.363 . S
N618 C620 1.356 . S
N618 H630 0.984 . S
N618 H631 0.985 . S
N619 C621 1.356 . S
N619 H624 0.984 . S
N619 H625 0.985 . S
C620 C614 1.379 . S
C620 C617 1.363 . S
C620 N618 1.356 . S
C621 C615 1.363 . S
C621 C616 1.379 . S
C621 N619 1.356 . S
N622 C614 1.356 . S
N622 H628 0.984 . S
N622 H629 0.984 . S
N623 C616 1.356 . S
N623 H626 0.984 . S
N623 H627 0.985 . S
H624 N619 0.984 . S
H625 N619 0.985 . S
H626 N623 0.984 . S
H627 N623 0.985 . S
H628 N622 0.984 . S
H629 N622 0.984 . S
H630 N618 0.984 . S
H631 N618 0.985 . S
C632 C633 1.363 . S
C632 C638 1.379 . S
C632 N640 1.356 . S
C633 C632 1.363 . S
C633 C639 1.363 1_565 S
C634 C635 1.363 . S
C634 C639 1.379 . S
C634 N641 1.356 . S
C635 C634 1.363 . S
C635 C638 1.363 1_545 S
N636 C638 1.356 . S
N636 H648 0.984 . S
N636 H649 0.985 . S
N637 C639 1.356 . S
N637 H642 0.984 . S
N637 H643 0.985 . S
C638 C632 1.379 . S
C638 C635 1.363 1_565 S
C638 N636 1.356 . S
C639 C633 1.363 1_545 S
C639 C634 1.379 . S
C639 N637 1.356 . S
N640 C632 1.356 . S
N640 H646 0.984 . S
N640 H647 0.984 . S
N641 C634 1.356 . S
N641 H644 0.984 . S
N641 H645 0.985 . S
H642 N637 0.984 . S
H643 N637 0.985 . S
H644 N641 0.984 . S
H645 N641 0.985 . S
H646 N640 0.984 . S
H647 N640 0.984 . S
H648 N636 0.984 . S
H649 N636 0.985 . S
C650 C651 1.363 . S
C650 C656 1.379 1_655 S
C650 N658 1.356 1_554 S
C651 C650 1.363 . S
C651 C657 1.363 1_565 S
C652 C653 1.363 . S
C652 C657 1.379 1_455 S
C652 N659 1.356 . S
C653 C652 1.363 . S
C653 C656 1.363 1_545 S
N654 C656 1.356 1_556 S
N654 H666 0.984 . S
N654 H667 0.989 . S
N655 C657 1.356 . S
N655 H660 0.984 . S
N655 H661 0.985 . S
C656 C650 1.379 1_455 S
C656 C653 1.363 1_565 S
C656 N654 1.356 1_554 S
C657 C651 1.363 1_545 S
C657 C652 1.379 1_655 S
C657 N655 1.356 . S
N658 C650 1.356 1_556 S
N658 H664 0.984 . S
N658 H665 0.984 1_556 S
N659 C652 1.356 . S
N659 H662 0.984 . S
N659 H663 0.985 . S
H660 N655 0.984 . S
H661 N655 0.985 . S
H662 N659 0.984 . S
H663 N659 0.985 . S
H664 N658 0.984 . S
H665 N658 0.984 1_554 S
H666 N654 0.984 . S
H667 N654 0.989 . S
C668 C669 1.363 1_545 S
C668 C674 1.379 . S
C668 N676 1.356 . S
C669 C668 1.363 1_565 S
C669 C675 1.363 . S
C670 C671 1.363 1_565 S
C670 C675 1.379 . S
C670 N677 1.356 . S
C671 C670 1.363 1_545 S
C671 C674 1.363 . S
N672 C674 1.356 . S
N672 H684 0.984 1_554 S
N672 H685 0.985 . S
N673 C675 1.356 . S
N673 H678 0.984 . S
N673 H679 0.985 . S
C674 C668 1.379 . S
C674 C671 1.363 . S
C674 N672 1.356 . S
C675 C669 1.363 . S
C675 C670 1.379 . S
C675 N673 1.356 . S
N676 C668 1.356 . S
N676 H682 0.984 1_554 S
N676 H683 0.984 . S
N677 C670 1.356 . S
N677 H680 0.984 . S
N677 H681 0.985 . S
H678 N673 0.984 . S
H679 N673 0.985 . S
H680 N677 0.984 . S
H681 N677 0.985 . S
H682 N676 0.984 1_556 S
H683 N676 0.984 . S
H684 N672 0.984 1_556 S
H685 N672 0.985 . S
C686 C687 1.363 1_545 S
C686 C692 1.379 1_455 S
C686 N694 1.356 . S
C687 C686 1.363 1_565 S
C687 C693 1.363 . S
C688 C689 1.363 1_565 S
C688 C693 1.379 1_655 S
C688 N695 1.356 . S
C689 C688 1.363 1_545 S
C689 C692 1.363 . S
N690 C692 1.356 . S
N690 H702 0.984 . S
N690 H703 0.985 . S
N691 C693 1.356 . S
N691 H696 0.984 . S
N691 H697 0.985 . S
C692 C686 1.379 1_655 S
C692 C689 1.363 . S
C692 N690 1.356 . S
C693 C687 1.363 . S
C693 C688 1.379 1_455 S
C693 N691 1.356 . S
N694 C686 1.356 . S
N694 H700 0.984 . S
N694 H701 0.976 1_545 S
N695 C688 1.356 . S
N695 H698 0.976 1_565 S
N695 H699 0.985 . S
H696 N691 0.984 . S
H697 N691 0.985 . S
H698 N695 0.976 1_545 S
H699 N695 0.985 . S
H700 N694 0.984 . S
H701 N694 0.976 1_565 S
H702 N690 0.984 . S
H703 N690 0.985 . S
C704 C705 1.363 . S
C704 C710 1.379 . S
C704 N712 1.356 . S
C705 C704 1.363 . S
C705 C711 1.363 . S
C706 C707 1.363 . S
C706 C711 1.379 . S
C706 N713 1.356 . S
C707 C706 1.363 . S
C707 C710 1.363 . S
N708 C710 1.356 . S
N708 H720 0.984 . S
N708 H721 0.985 . S
N709 C711 1.356 . S
N709 H714 0.984 . S
N709 H715 0.985 . S
C710 C704 1.379 . S
C710 C707 1.363 . S
C710 N708 1.356 . S
C711 C705 1.363 . S
C711 C706 1.379 . S
C711 N709 1.356 . S
N712 C704 1.356 . S
N712 H718 0.984 . S
N712 H719 0.984 . S
N713 C706 1.356 . S
N713 H716 0.984 . S
N713 H717 0.985 . S
H714 N709 0.984 . S
H715 N709 0.985 . S
H716 N713 0.984 . S
H717 N713 0.985 . S
H718 N712 0.984 . S
H719 N712 0.984 . S
H720 N708 0.984 . S
H721 N708 0.985 . S
C722 C723 1.363 . S
C722 C728 1.379 . S
C722 N730 1.356 . S
C723 C722 1.363 . S
C723 C729 1.363 . S
C724 C725 1.363 . S
C724 C729 1.379 . S
C724 N731 1.356 . S
C725 C724 1.363 . S
C725 C728 1.363 . S
N726 C728 1.356 . S
N726 H738 0.984 . S
N726 H739 0.985 . S
N727 C729 1.356 1_556 S
N727 H732 0.984 . S
N727 H733 0.985 . S
C728 C722 1.379 . S
C728 C725 1.363 . S
C728 N726 1.356 . S
C729 C723 1.363 . S
C729 C724 1.379 . S
C729 N727 1.356 1_554 S
N730 C722 1.356 . S
N730 H736 0.984 . S
N730 H737 0.984 1_554 S
N731 C724 1.356 . S
N731 H734 0.984 . S
N731 H735 0.985 . S
H732 N727 0.984 . S
H733 N727 0.985 . S
H734 N731 0.984 . S
H735 N731 0.985 . S
H736 N730 0.984 . S
H737 N730 0.984 1_556 S
H738 N726 0.984 . S
H739 N726 0.985 . S
C740 C741 1.363 . S
C740 C746 1.379 . S
C740 N748 1.356 . S
C741 C740 1.363 . S
C741 C747 1.363 . S
C742 C743 1.363 . S
C742 C747 1.379 . S
C742 N749 1.356 . S
C743 C742 1.363 . S
C743 C746 1.363 . S
N744 C746 1.356 . S
N744 H756 0.984 . S
N744 H757 0.985 . S
N745 C747 1.356 . S
N745 H750 0.984 . S
N745 H751 0.985 . S
C746 C740 1.379 . S
C746 C743 1.363 . S
C746 N744 1.356 . S
C747 C741 1.363 . S
C747 C742 1.379 . S
C747 N745 1.356 . S
N748 C740 1.356 . S
N748 H754 0.984 . S
N748 H755 0.984 . S
N749 C742 1.356 . S
N749 H752 0.984 . S
N749 H753 0.985 . S
H750 N745 0.984 . S
H751 N745 0.985 . S
H752 N749 0.984 . S
H753 N749 0.985 . S
H754 N748 0.984 . S
H755 N748 0.984 . S
H756 N744 0.984 . S
H757 N744 0.985 . S
C758 C759 1.363 . S
C758 C764 1.379 . S
C758 N766 1.356 . S
C759 C758 1.363 . S
C759 C765 1.363 . S
C760 C761 1.363 . S
C760 C765 1.379 . S
C760 N767 1.356 . S
C761 C760 1.363 . S
C761 C764 1.363 . S
N762 C764 1.356 . S
N762 H774 0.984 . S
N762 H775 0.985 . S
N763 C765 1.356 . S
N763 H768 0.984 . S
N763 H769 0.985 . S
C764 C758 1.379 . S
C764 C761 1.363 . S
C764 N762 1.356 . S
C765 C759 1.363 . S
C765 C760 1.379 . S
C765 N763 1.356 . S
N766 C758 1.356 . S
N766 H772 0.984 . S
N766 H773 0.984 . S
N767 C760 1.356 . S
N767 H770 0.984 . S
N767 H771 0.985 . S
H768 N763 0.984 . S
H769 N763 0.985 . S
H770 N767 0.984 . S
H771 N767 0.985 . S
H772 N766 0.984 . S
H773 N766 0.984 . S
H774 N762 0.984 . S
H775 N762 0.985 . S
C776 C777 1.363 . S
C776 C782 1.379 . S
C776 N784 1.356 . S
C777 C776 1.363 . S
C777 C783 1.363 . S
C778 C779 1.363 . S
C778 C783 1.379 . S
C778 N785 1.356 . S
C779 C778 1.363 . S
C779 C782 1.363 . S
N780 C782 1.356 . S
N780 H792 0.984 . S
N780 H793 0.985 . S
N781 C783 1.356 . S
N781 H786 0.984 . S
N781 H787 0.985 . S
C782 C776 1.379 . S
C782 C779 1.363 . S
C782 N780 1.356 . S
C783 C777 1.363 . S
C783 C778 1.379 . S
C783 N781 1.356 . S
N784 C776 1.356 . S
N784 H790 0.984 . S
N784 H791 0.984 . S
N785 C778 1.356 . S
N785 H788 0.984 . S
N785 H789 0.985 . S
H786 N781 0.984 . S
H787 N781 0.985 . S
H788 N785 0.984 . S
H789 N785 0.985 . S
H790 N784 0.984 . S
H791 N784 0.984 . S
H792 N780 0.984 . S
H793 N780 0.985 . S
C794 C795 1.363 . S
C794 C800 1.379 . S
C794 N802 1.356 . S
C795 C794 1.363 . S
C795 C801 1.363 . S
C796 C797 1.363 . S
C796 C801 1.379 . S
C796 N803 1.356 . S
C797 C796 1.363 . S
C797 C800 1.363 . S
N798 C800 1.356 . S
N798 H810 0.984 . S
N798 H811 0.985 . S
N799 C801 1.356 1_556 S
N799 H804 0.984 . S
N799 H805 0.985 . S
C800 C794 1.379 . S
C800 C797 1.363 . S
C800 N798 1.356 . S
C801 C795 1.363 . S
C801 C796 1.379 . S
C801 N799 1.356 1_554 S
N802 C794 1.356 . S
N802 H808 0.984 . S
N802 H809 0.984 1_554 S
N803 C796 1.356 . S
N803 H806 0.984 . S
N803 H807 0.985 . S
H804 N799 0.984 . S
H805 N799 0.985 . S
H806 N803 0.984 . S
H807 N803 0.985 . S
H808 N802 0.984 . S
H809 N802 0.984 1_556 S
H810 N798 0.984 . S
H811 N798 0.985 . S
C812 C813 1.363 . S
C812 C818 1.379 . S
C812 N820 1.356 . S
C813 C812 1.363 . S
C813 C819 1.363 . S
C814 C815 1.363 . S
C814 C819 1.379 . S
C814 N821 1.356 . S
C815 C814 1.363 . S
C815 C818 1.363 . S
N816 C818 1.356 . S
N816 H828 0.984 . S
N816 H829 0.985 . S
N817 C819 1.356 . S
N817 H822 0.984 . S
N817 H823 0.985 . S
C818 C812 1.379 . S
C818 C815 1.363 . S
C818 N816 1.356 . S
C819 C813 1.363 . S
C819 C814 1.379 . S
C819 N817 1.356 . S
N820 C812 1.356 . S
N820 H826 0.984 . S
N820 H827 0.984 . S
N821 C814 1.356 . S
N821 H824 0.984 . S
N821 H825 0.985 . S
H822 N817 0.984 . S
H823 N817 0.985 . S
H824 N821 0.984 . S
H825 N821 0.985 . S
H826 N820 0.984 . S
H827 N820 0.984 . S
H828 N816 0.984 . S
H829 N816 0.985 . S
C830 C831 1.363 . S
C830 C836 1.379 . S
C830 N838 1.356 . S
C831 C830 1.363 . S
C831 C837 1.363 . S
C832 C833 1.363 . S
C832 C837 1.379 . S
C832 N839 1.356 . S
C833 C832 1.363 . S
C833 C836 1.363 . S
N834 C836 1.356 . S
N834 H846 0.984 . S
N834 H847 0.985 . S
N835 C837 1.356 . S
N835 H840 0.984 . S
N835 H841 0.985 . S
C836 C830 1.379 . S
C836 C833 1.363 . S
C836 N834 1.356 . S
C837 C831 1.363 . S
C837 C832 1.379 . S
C837 N835 1.356 . S
N838 C830 1.356 . S
N838 H844 0.984 . S
N838 H845 0.984 . S
N839 C832 1.356 . S
N839 H842 0.984 . S
N839 H843 0.985 . S
H840 N835 0.984 . S
H841 N835 0.985 . S
H842 N839 0.984 . S
H843 N839 0.985 . S
H844 N838 0.984 . S
H845 N838 0.984 . S
H846 N834 0.984 . S
H847 N834 0.985 . S
C848 C849 1.363 . S
C848 C854 1.379 1_545 S
C848 N856 1.356 . S
C849 C848 1.363 . S
C849 C855 1.363 . S
C850 C851 1.363 . S
C850 C855 1.379 1_565 S
C850 N857 1.356 . S
C851 C850 1.363 . S
C851 C854 1.363 . S
N852 C854 1.356 . S
N852 H864 0.984 . S
N852 H865 0.985 . S
N853 C855 1.356 . S
N853 H858 0.984 . S
N853 H859 0.985 . S
C854 C848 1.379 1_565 S
C854 C851 1.363 . S
C854 N852 1.356 . S
C855 C849 1.363 . S
C855 C850 1.379 1_545 S
C855 N853 1.356 . S
N856 C848 1.356 . S
N856 H862 0.984 . S
N856 H863 0.984 . S
N857 C850 1.356 . S
N857 H860 0.984 . S
N857 H861 0.985 . S
H858 N853 0.984 . S
H859 N853 0.985 . S
H860 N857 0.984 . S
H861 N857 0.985 . S
H862 N856 0.984 . S
H863 N856 0.984 . S
H864 N852 0.984 . S
H865 N852 0.985 . S
C866 C867 1.363 . S
C866 C872 1.379 . S
C866 N874 1.356 . S
C867 C866 1.363 . S
C867 C873 1.363 . S
C868 C869 1.363 . S
C868 C873 1.379 . S
C868 N875 1.356 . S
C869 C868 1.363 . S
C869 C872 1.363 . S
N870 C872 1.356 . S
N870 H882 0.984 . S
N870 H883 0.985 . S
N871 C873 1.356 . S
N871 H876 0.984 . S
N871 H877 0.985 . S
C872 C866 1.379 . S
C872 C869 1.363 . S
C872 N870 1.356 . S
C873 C867 1.363 . S
C873 C868 1.379 . S
C873 N871 1.356 . S
N874 C866 1.356 . S
N874 H880 0.984 . S
N874 H881 0.984 . S
N875 C868 1.356 . S
N875 H878 0.984 . S
N875 H879 0.985 . S
H876 N871 0.984 . S
H877 N871 0.985 . S
H878 N875 0.984 . S
H879 N875 0.985 . S
H880 N874 0.984 . S
H881 N874 0.984 . S
H882 N870 0.984 . S
H883 N870 0.985 . S
C884 C885 1.363 1_565 S
C884 C890 1.379 . S
C884 N892 1.356 . S
C885 C884 1.363 1_545 S
C885 C891 1.363 . S
C886 C887 1.363 1_545 S
C886 C891 1.379 . S
C886 N893 1.356 . S
C887 C886 1.363 1_565 S
C887 C890 1.363 . S
N888 C890 1.356 . S
N888 H900 0.984 . S
N888 H901 0.985 . S
N889 C891 1.356 . S
N889 H894 0.984 . S
N889 H895 0.985 . S
C890 C884 1.379 . S
C890 C887 1.363 . S
C890 N888 1.356 . S
C891 C885 1.363 . S
C891 C886 1.379 . S
C891 N889 1.356 . S
N892 C884 1.356 . S
N892 H898 0.984 . S
N892 H899 0.984 . S
N893 C886 1.356 . S
N893 H896 0.984 . S
N893 H897 0.985 . S
H894 N889 0.984 . S
H895 N889 0.985 . S
H896 N893 0.984 . S
H897 N893 0.985 . S
H898 N892 0.984 . S
H899 N892 0.984 . S
H900 N888 0.984 . S
H901 N888 0.985 . S
C902 C903 1.363 . S
C902 C908 1.379 . S
C902 N910 1.356 . S
C903 C902 1.363 . S
C903 C909 1.363 . S
C904 C905 1.363 . S
C904 C909 1.379 . S
C904 N911 1.356 . S
C905 C904 1.363 . S
C905 C908 1.363 . S
N906 C908 1.356 . S
N906 H918 0.984 . S
N906 H919 0.985 . S
N907 C909 1.356 1_556 S
N907 H912 0.984 . S
N907 H913 0.985 . S
C908 C902 1.379 . S
C908 C905 1.363 . S
C908 N906 1.356 . S
C909 C903 1.363 . S
C909 C904 1.379 . S
C909 N907 1.356 1_554 S
N910 C902 1.356 . S
N910 H916 0.984 . S
N910 H917 0.984 1_554 S
N911 C904 1.356 . S
N911 H914 0.984 . S
N911 H915 0.985 . S
H912 N907 0.984 . S
H913 N907 0.985 . S
H914 N911 0.984 . S
H915 N911 0.985 . S
H916 N910 0.984 . S
H917 N910 0.984 1_556 S
H918 N906 0.984 . S
H919 N906 0.985 . S
C920 C921 1.363 . S
C920 C926 1.379 . S
C920 N928 1.356 . S
C921 C920 1.363 . S
C921 C927 1.363 1_565 S
C922 C923 1.363 . S
C922 C927 1.379 . S
C922 N929 1.356 . S
C923 C922 1.363 . S
C923 C926 1.363 1_545 S
N924 C926 1.356 . S
N924 H936 0.984 . S
N924 H937 0.985 . S
N925 C927 1.356 . S
N925 H930 0.984 . S
N925 H931 0.985 . S
C926 C920 1.379 . S
C926 C923 1.363 1_565 S
C926 N924 1.356 . S
C927 C921 1.363 1_545 S
C927 C922 1.379 . S
C927 N925 1.356 . S
N928 C920 1.356 . S
N928 H934 0.984 . S
N928 H935 0.984 . S
N929 C922 1.356 . S
N929 H932 0.984 . S
N929 H933 0.985 . S
H930 N925 0.984 . S
H931 N925 0.985 . S
H932 N929 0.984 . S
H933 N929 0.985 . S
H934 N928 0.984 . S
H935 N928 0.984 . S
H936 N924 0.984 . S
H937 N924 0.985 . S
C938 C939 1.363 . S
C938 C944 1.379 . S
C938 N946 1.356 . S
C939 C938 1.363 . S
C939 C945 1.363 . S
C940 C941 1.363 . S
C940 C945 1.379 . S
C940 N947 1.356 . S
C941 C940 1.363 . S
C941 C944 1.363 . S
N942 C944 1.356 . S
N942 H954 0.984 . S
N942 H955 0.985 . S
N943 C945 1.356 . S
N943 H948 0.984 . S
N943 H949 0.985 . S
C944 C938 1.379 . S
C944 C941 1.363 . S
C944 N942 1.356 . S
C945 C939 1.363 . S
C945 C940 1.379 . S
C945 N943 1.356 . S
N946 C938 1.356 . S
N946 H952 0.984 . S
N946 H953 0.984 . S
N947 C940 1.356 . S
N947 H950 0.984 . S
N947 H951 0.985 . S
H948 N943 0.984 . S
H949 N943 0.985 . S
H950 N947 0.984 . S
H951 N947 0.985 . S
H952 N946 0.984 . S
H953 N946 0.984 . S
H954 N942 0.984 . S
H955 N942 0.985 . S
C956 C957 1.363 . S
C956 C962 1.379 . S
C956 N964 1.356 . S
C957 C956 1.363 . S
C957 C963 1.363 1_545 S
C958 C959 1.363 . S
C958 C963 1.379 . S
C958 N965 1.356 . S
C959 C958 1.363 . S
C959 C962 1.363 1_565 S
N960 C962 1.356 . S
N960 H972 0.984 . S
N960 H973 0.985 . S
N961 C963 1.356 . S
N961 H966 0.984 . S
N961 H967 0.985 . S
C962 C956 1.379 . S
C962 C959 1.363 1_545 S
C962 N960 1.356 . S
C963 C957 1.363 1_565 S
C963 C958 1.379 . S
C963 N961 1.356 . S
N964 C956 1.356 . S
N964 H970 0.984 . S
N964 H971 0.984 . S
N965 C958 1.356 . S
N965 H968 0.984 . S
N965 H969 0.985 . S
H966 N961 0.984 . S
H967 N961 0.985 . S
H968 N965 0.984 . S
H969 N965 0.985 . S
H970 N964 0.984 . S
H971 N964 0.984 . S
H972 N960 0.984 . S
H973 N960 0.985 . S
C974 C975 1.363 . S
C974 C980 1.379 . S
C974 N982 1.356 . S
C975 C974 1.363 . S
C975 C981 1.363 . S
C976 C977 1.363 . S
C976 C981 1.379 . S
C976 N983 1.356 . S
C977 C976 1.363 . S
C977 C980 1.363 . S
N978 C980 1.356 1_556 S
N978 H990 0.984 . S
N978 H991 0.985 . S
N979 C981 1.356 . S
N979 H984 0.984 . S
N979 H985 0.985 . S
C980 C974 1.379 . S
C980 C977 1.363 . S
C980 N978 1.356 1_554 S
C981 C975 1.363 . S
C981 C976 1.379 . S
C981 N979 1.356 . S
N982 C974 1.356 . S
N982 H988 0.984 . S
N982 H989 0.984 . S
N983 C976 1.356 . S
N983 H986 0.984 1_554 S
N983 H987 0.985 . S
H984 N979 0.984 . S
H985 N979 0.985 . S
H986 N983 0.984 1_556 S
H987 N983 0.985 . S
H988 N982 0.984 . S
H989 N982 0.984 . S
H990 N978 0.984 . S
H991 N978 0.985 . S
C992 C993 1.363 . S
C992 C998 1.379 . S
C992 N1000 1.356 . S
C993 C992 1.363 . S
C993 C999 1.363 . S
C994 C995 1.363 . S
C994 C999 1.379 . S
C994 N1001 1.356 . S
C995 C994 1.363 . S
C995 C998 1.363 . S
N996 C998 1.356 . S
N996 H1008 0.984 . S
N996 H1009 0.985 . S
N997 C999 1.356 . S
N997 H1002 0.984 . S
N997 H1003 0.985 . S
C998 C992 1.379 . S
C998 C995 1.363 . S
C998 N996 1.356 . S
C999 C993 1.363 . S
C999 C994 1.379 . S
C999 N997 1.356 . S
N1000 C992 1.356 . S
N1000 H1006 0.984 . S
N1000 H1007 0.984 . S
N1001 C994 1.356 . S
N1001 H1004 0.984 . S
N1001 H1005 0.985 . S
H1002 N997 0.984 . S
H1003 N997 0.985 . S
H1004 N1001 0.984 . S
H1005 N1001 0.985 . S
H1006 N1000 0.984 . S
H1007 N1000 0.984 . S
H1008 N996 0.984 . S
H1009 N996 0.985 . S
C1010 C1011 1.363 . S
C1010 C1016 1.379 . S
C1010 N1018 1.356 . S
C1011 C1010 1.363 . S
C1011 C1017 1.363 . S
C1012 C1013 1.363 . S
C1012 C1017 1.379 . S
C1012 N1019 1.356 . S
C1013 C1012 1.363 . S
C1013 C1016 1.363 . S
N1014 C1016 1.356 . S
N1014 H1026 0.984 . S
N1014 H1027 0.985 . S
N1015 C1017 1.356 . S
N1015 H1020 0.984 . S
N1015 H1021 0.985 . S
C1016 C1010 1.379 . S
C1016 C1013 1.363 . S
C1016 N1014 1.356 . S
C1017 C1011 1.363 . S
C1017 C1012 1.379 . S
C1017 N1015 1.356 . S
N1018 C1010 1.356 . S
N1018 H1024 0.984 . S
N1018 H1025 0.984 . S
N1019 C1012 1.356 . S
N1019 H1022 0.984 . S
N1019 H1023 0.985 . S
H1020 N1015 0.984 . S
H1021 N1015 0.985 . S
H1022 N1019 0.984 . S
H1023 N1019 0.985 . S
H1024 N1018 0.984 . S
H1025 N1018 0.984 . S
H1026 N1014 0.984 . S
H1027 N1014 0.985 . S
C1028 C1029 1.363 . S
C1028 C1034 1.379 . S
C1028 N1036 1.356 . S
C1029 C1028 1.363 . S
C1029 C1035 1.363 . S
C1030 C1031 1.363 . S
C1030 C1035 1.379 . S
C1030 N1037 1.356 . S
C1031 C1030 1.363 . S
C1031 C1034 1.363 . S
N1032 C1034 1.356 . S
N1032 H1044 0.984 . S
N1032 H1045 0.985 . S
N1033 C1035 1.356 . S
N1033 H1038 0.984 . S
N1033 H1039 0.985 . S
C1034 C1028 1.379 . S
C1034 C1031 1.363 . S
C1034 N1032 1.356 . S
C1035 C1029 1.363 . S
C1035 C1030 1.379 . S
C1035 N1033 1.356 . S
N1036 C1028 1.356 . S
N1036 H1042 0.984 . S
N1036 H1043 0.984 . S
N1037 C1030 1.356 . S
N1037 H1040 0.984 . S
N1037 H1041 0.985 . S
H1038 N1033 0.984 . S
H1039 N1033 0.985 . S
H1040 N1037 0.984 . S
H1041 N1037 0.985 . S
H1042 N1036 0.984 . S
H1043 N1036 0.984 . S
H1044 N1032 0.984 . S
H1045 N1032 0.985 . S
C1046 C1047 1.363 . S
C1046 C1052 1.379 . S
C1046 N1054 1.356 . S
C1047 C1046 1.363 . S
C1047 C1053 1.363 . S
C1048 C1049 1.363 . S
C1048 C1053 1.379 . S
C1048 N1055 1.356 1_554 S
C1049 C1048 1.363 . S
C1049 C1052 1.363 . S
N1050 C1052 1.356 . S
N1050 H1062 0.984 . S
N1050 H1063 0.985 1_554 S
N1051 C1053 1.356 . S
N1051 H1056 0.984 . S
N1051 H1057 0.985 . S
C1052 C1046 1.379 . S
C1052 C1049 1.363 . S
C1052 N1050 1.356 . S
C1053 C1047 1.363 . S
C1053 C1048 1.379 . S
C1053 N1051 1.356 . S
N1054 C1046 1.356 . S
N1054 H1060 0.984 . S
N1054 H1061 0.984 . S
N1055 C1048 1.356 1_556 S
N1055 H1058 0.984 . S
N1055 H1059 0.985 . S
H1056 N1051 0.984 . S
H1057 N1051 0.985 . S
H1058 N1055 0.984 . S
H1059 N1055 0.985 . S
H1060 N1054 0.984 . S
H1061 N1054 0.984 . S
H1062 N1050 0.984 . S
H1063 N1050 0.985 1_556 S
C1064 C1065 1.363 . S
C1064 C1070 1.379 . S
C1064 N1072 1.356 . S
C1065 C1064 1.363 . S
C1065 C1071 1.363 . S
C1066 C1067 1.363 . S
C1066 C1071 1.379 . S
C1066 N1073 1.356 . S
C1067 C1066 1.363 . S
C1067 C1070 1.363 . S
N1068 C1070 1.356 . S
N1068 H1080 0.984 . S
N1068 H1081 0.985 . S
N1069 C1071 1.356 . S
N1069 H1074 0.984 . S
N1069 H1075 0.985 . S
C1070 C1064 1.379 . S
C1070 C1067 1.363 . S
C1070 N1068 1.356 . S
C1071 C1065 1.363 . S
C1071 C1066 1.379 . S
C1071 N1069 1.356 . S
N1072 C1064 1.356 . S
N1072 H1078 0.984 . S
N1072 H1079 0.984 . S
N1073 C1066 1.356 . S
N1073 H1076 0.984 . S
N1073 H1077 0.985 . S
H1074 N1069 0.984 . S
H1075 N1069 0.985 . S
H1076 N1073 0.984 . S
H1077 N1073 0.985 . S
H1078 N1072 0.984 . S
H1079 N1072 0.984 . S
H1080 N1068 0.984 . S
H1081 N1068 0.985 . S
C1082 C1083 1.363 . S
C1082 C1088 1.379 . S
C1082 N1090 1.356 . S
C1083 C1082 1.363 . S
C1083 C1089 1.363 . S
C1084 C1085 1.363 . S
C1084 C1089 1.379 . S
C1084 N1091 1.356 . S
C1085 C1084 1.363 . S
C1085 C1088 1.363 . S
N1086 C1088 1.356 . S
N1086 H1098 0.984 . S
N1086 H1099 0.985 . S
N1087 C1089 1.356 . S
N1087 H1092 0.984 . S
N1087 H1093 0.985 . S
C1088 C1082 1.379 . S
C1088 C1085 1.363 . S
C1088 N1086 1.356 . S
C1089 C1083 1.363 . S
C1089 C1084 1.379 . S
C1089 N1087 1.356 . S
N1090 C1082 1.356 . S
N1090 H1096 0.984 . S
N1090 H1097 0.984 . S
N1091 C1084 1.356 . S
N1091 H1094 0.984 . S
N1091 H1095 0.985 . S
H1092 N1087 0.984 . S
H1093 N1087 0.985 . S
H1094 N1091 0.984 . S
H1095 N1091 0.985 . S
H1096 N1090 0.984 . S
H1097 N1090 0.984 . S
H1098 N1086 0.984 . S
H1099 N1086 0.985 . S
C1100 C1101 1.363 . S
C1100 C1106 1.379 . S
C1100 N1108 1.356 . S
C1101 C1100 1.363 . S
C1101 C1107 1.363 . S
C1102 C1103 1.363 . S
C1102 C1107 1.379 . S
C1102 N1109 1.356 . S
C1103 C1102 1.363 . S
C1103 C1106 1.363 . S
N1104 C1106 1.356 . S
N1104 H1116 0.984 . S
N1104 H1117 0.985 . S
N1105 C1107 1.356 . S
N1105 H1110 0.984 . S
N1105 H1111 0.985 . S
C1106 C1100 1.379 . S
C1106 C1103 1.363 . S
C1106 N1104 1.356 . S
C1107 C1101 1.363 . S
C1107 C1102 1.379 . S
C1107 N1105 1.356 . S
N1108 C1100 1.356 . S
N1108 H1114 0.984 . S
N1108 H1115 0.984 . S
N1109 C1102 1.356 . S
N1109 H1112 0.984 . S
N1109 H1113 0.985 . S
H1110 N1105 0.984 . S
H1111 N1105 0.985 . S
H1112 N1109 0.984 . S
H1113 N1109 0.985 . S
H1114 N1108 0.984 . S
H1115 N1108 0.984 . S
H1116 N1104 0.984 . S
H1117 N1104 0.985 . S
C1118 C1119 1.363 . S
C1118 C1124 1.379 . S
C1118 N1126 1.356 1_554 S
C1119 C1118 1.363 . S
C1119 C1125 1.363 . S
C1120 C1121 1.363 . S
C1120 C1125 1.379 . S
C1120 N1127 1.356 . S
C1121 C1120 1.363 . S
C1121 C1124 1.363 . S
N1122 C1124 1.356 . S
N1122 H1134 0.984 . S
N1122 H1135 0.985 . S
N1123 C1125 1.356 . S
N1123 H1128 0.984 1_554 S
N1123 H1129 0.985 . S
C1124 C1118 1.379 . S
C1124 C1121 1.363 . S
C1124 N1122 1.356 . S
C1125 C1119 1.363 . S
C1125 C1120 1.379 . S
C1125 N1123 1.356 . S
N1126 C1118 1.356 1_556 S
N1126 H1132 0.984 . S
N1126 H1133 0.984 . S
N1127 C1120 1.356 . S
N1127 H1130 0.984 . S
N1127 H1131 0.985 . S
H1128 N1123 0.984 1_556 S
H1129 N1123 0.985 . S
H1130 N1127 0.984 . S
H1131 N1127 0.985 . S
H1132 N1126 0.984 . S
H1133 N1126 0.984 . S
H1134 N1122 0.984 . S
H1135 N1122 0.985 . S
C1136 C1137 1.363 1_545 S
C1136 C1142 1.379 . S
C1136 N1144 1.356 . S
C1137 C1136 1.363 1_565 S
C1137 C1143 1.363 . S
C1138 C1139 1.363 1_565 S
C1138 C1143 1.379 . S
C1138 N1145 1.356 . S
C1139 C1138 1.363 1_545 S
C1139 C1142 1.363 . S
N1140 C1142 1.356 . S
N1140 H1152 0.984 . S
N1140 H1153 0.985 . S
N1141 C1143 1.356 . S
N1141 H1146 0.984 . S
N1141 H1147 0.985 . S
C1142 C1136 1.379 . S
C1142 C1139 1.363 . S
C1142 N1140 1.356 . S
C1143 C1137 1.363 . S
C1143 C1138 1.379 . S
C1143 N1141 1.356 . S
N1144 C1136 1.356 . S
N1144 H1150 0.984 . S
N1144 H1151 0.984 . S
N1145 C1138 1.356 . S
N1145 H1148 0.984 . S
N1145 H1149 0.985 . S
H1146 N1141 0.984 . S
H1147 N1141 0.985 . S
H1148 N1145 0.984 . S
H1149 N1145 0.985 . S
H1150 N1144 0.984 . S
H1151 N1144 0.984 . S
H1152 N1140 0.984 . S
H1153 N1140 0.985 . S
C1154 C1155 1.363 . S
C1154 C1160 1.379 . S
C1154 N1162 1.356 . S
C1155 C1154 1.363 . S
C1155 C1161 1.363 . S
C1156 C1157 1.363 . S
C1156 C1161 1.379 . S
C1156 N1163 1.356 . S
C1157 C1156 1.363 . S
C1157 C1160 1.363 . S
N1158 C1160 1.356 1_556 S
N1158 H1170 0.984 . S
N1158 H1171 0.985 . S
N1159 C1161 1.356 . S
N1159 H1164 0.984 . S
N1159 H1165 0.985 . S
C1160 C1154 1.379 . S
C1160 C1157 1.363 . S
C1160 N1158 1.356 1_554 S
C1161 C1155 1.363 . S
C1161 C1156 1.379 . S
C1161 N1159 1.356 . S
N1162 C1154 1.356 . S
N1162 H1168 0.984 . S
N1162 H1169 0.984 . S
N1163 C1156 1.356 . S
N1163 H1166 0.984 1_554 S
N1163 H1167 0.985 . S
H1164 N1159 0.984 . S
H1165 N1159 0.985 . S
H1166 N1163 0.984 1_556 S
H1167 N1163 0.985 . S
H1168 N1162 0.984 . S
H1169 N1162 0.984 . S
H1170 N1158 0.984 . S
H1171 N1158 0.985 . S
C1172 C1173 1.363 . S
C1172 C1178 1.379 . S
C1172 N1180 1.356 . S
C1173 C1172 1.363 . S
C1173 C1179 1.363 1_565 S
C1174 C1175 1.363 . S
C1174 C1179 1.379 . S
C1174 N1181 1.356 . S
C1175 C1174 1.363 . S
C1175 C1178 1.363 1_545 S
N1176 C1178 1.356 . S
N1176 H1188 0.984 . S
N1176 H1189 0.985 . S
N1177 C1179 1.356 . S
N1177 H1182 0.984 . S
N1177 H1183 0.985 . S
C1178 C1172 1.379 . S
C1178 C1175 1.363 1_565 S
C1178 N1176 1.356 . S
C1179 C1173 1.363 1_545 S
C1179 C1174 1.379 . S
C1179 N1177 1.356 . S
N1180 C1172 1.356 . S
N1180 H1186 0.984 . S
N1180 H1187 0.984 . S
N1181 C1174 1.356 . S
N1181 H1184 0.984 . S
N1181 H1185 0.985 . S
H1182 N1177 0.984 . S
H1183 N1177 0.985 . S
H1184 N1181 0.984 . S
H1185 N1181 0.985 . S
H1186 N1180 0.984 . S
H1187 N1180 0.984 . S
H1188 N1176 0.984 . S
H1189 N1176 0.985 . S
C1190 C1191 1.363 . S
C1190 C1196 1.379 . S
C1190 N1198 1.356 . S
C1191 C1190 1.363 . S
C1191 C1197 1.363 . S
C1192 C1193 1.363 . S
C1192 C1197 1.379 . S
C1192 N1199 1.356 . S
C1193 C1192 1.363 . S
C1193 C1196 1.363 . S
N1194 C1196 1.356 . S
N1194 H1206 0.984 . S
N1194 H1207 0.985 . S
N1195 C1197 1.356 . S
N1195 H1200 0.984 . S
N1195 H1201 0.985 . S
C1196 C1190 1.379 . S
C1196 C1193 1.363 . S
C1196 N1194 1.356 . S
C1197 C1191 1.363 . S
C1197 C1192 1.379 . S
C1197 N1195 1.356 . S
N1198 C1190 1.356 . S
N1198 H1204 0.984 . S
N1198 H1205 0.984 . S
N1199 C1192 1.356 . S
N1199 H1202 0.984 . S
N1199 H1203 0.985 . S
H1200 N1195 0.984 . S
H1201 N1195 0.985 . S
H1202 N1199 0.984 . S
H1203 N1199 0.985 . S
H1204 N1198 0.984 . S
H1205 N1198 0.984 . S
H1206 N1194 0.984 . S
H1207 N1194 0.985 . S
C1208 C1209 1.363 . S
C1208 C1214 1.379 . S
C1208 N1216 1.356 . S
C1209 C1208 1.363 . S
C1209 C1215 1.363 1_565 S
C1210 C1211 1.363 . S
C1210 C1215 1.379 . S
C1210 N1217 1.356 . S
C1211 C1210 1.363 . S
C1211 C1214 1.363 1_545 S
N1212 C1214 1.356 . S
N1212 H1224 0.984 . S
N1212 H1225 0.985 . S
N1213 C1215 1.356 . S
N1213 H1218 0.984 . S
N1213 H1219 0.985 . S
C1214 C1208 1.379 . S
C1214 C1211 1.363 1_565 S
C1214 N1212 1.356 . S
C1215 C1209 1.363 1_545 S
C1215 C1210 1.379 . S
C1215 N1213 1.356 . S
N1216 C1208 1.356 . S
N1216 H1222 0.984 . S
N1216 H1223 0.984 . S
N1217 C1210 1.356 . S
N1217 H1220 0.984 . S
N1217 H1221 0.985 . S
H1218 N1213 0.984 . S
H1219 N1213 0.985 . S
H1220 N1217 0.984 . S
H1221 N1217 0.985 . S
H1222 N1216 0.984 . S
H1223 N1216 0.984 . S
H1224 N1212 0.984 . S
H1225 N1212 0.985 . S
C1226 C1227 1.363 . S
C1226 C1232 1.379 . S
C1226 N1234 1.356 . S
C1227 C1226 1.363 . S
C1227 C1233 1.363 . S
C1228 C1229 1.363 . S
C1228 C1233 1.379 . S
C1228 N1235 1.356 . S
C1229 C1228 1.363 . S
C1229 C1232 1.363 . S
N1230 C1232 1.356 1_556 S
N1230 H1242 0.984 . S
N1230 H1243 0.985 . S
N1231 C1233 1.356 . S
N1231 H1236 0.984 . S
N1231 H1237 0.985 . S
C1232 C1226 1.379 . S
C1232 C1229 1.363 . S
C1232 N1230 1.356 1_554 S
C1233 C1227 1.363 . S
C1233 C1228 1.379 . S
C1233 N1231 1.356 . S
N1234 C1226 1.356 . S
N1234 H1240 0.984 . S
N1234 H1241 0.984 . S
N1235 C1228 1.356 . S
N1235 H1238 0.984 1_554 S
N1235 H1239 0.985 . S
H1236 N1231 0.984 . S
H1237 N1231 0.985 . S
H1238 N1235 0.984 1_556 S
H1239 N1235 0.985 . S
H1240 N1234 0.984 . S
H1241 N1234 0.984 . S
H1242 N1230 0.984 . S
H1243 N1230 0.985 . S
C1244 C1245 1.363 . S
C1244 C1250 1.379 . S
C1244 N1252 1.356 . S
C1245 C1244 1.363 . S
C1245 C1251 1.363 1_565 S
C1246 C1247 1.363 . S
C1246 C1251 1.379 . S
C1246 N1253 1.356 . S
C1247 C1246 1.363 . S
C1247 C1250 1.363 1_545 S
N1248 C1250 1.356 . S
N1248 H1260 0.984 . S
N1248 H1261 0.985 . S
N1249 C1251 1.356 . S
N1249 H1254 0.984 . S
N1249 H1255 0.985 . S
C1250 C1244 1.379 . S
C1250 C1247 1.363 1_565 S
C1250 N1248 1.356 . S
C1251 C1245 1.363 1_545 S
C1251 C1246 1.379 . S
C1251 N1249 1.356 . S
N1252 C1244 1.356 . S
N1252 H1258 0.984 . S
N1252 H1259 0.984 . S
N1253 C1246 1.356 . S
N1253 H1256 0.984 . S
N1253 H1257 0.985 . S
H1254 N1249 0.984 . S
H1255 N1249 0.985 . S
H1256 N1253 0.984 . S
H1257 N1253 0.985 . S
H1258 N1252 0.984 . S
H1259 N1252 0.984 . S
H1260 N1248 0.984 . S
H1261 N1248 0.985 . S
C1262 C1263 1.363 . S
C1262 C1268 1.379 . S
C1262 N1270 1.356 . S
C1263 C1262 1.363 . S
C1263 C1269 1.363 . S
C1264 C1265 1.363 . S
C1264 C1269 1.379 . S
C1264 N1271 1.356 . S
C1265 C1264 1.363 . S
C1265 C1268 1.363 . S
N1266 C1268 1.356 . S
N1266 H1278 0.984 . S
N1266 H1279 0.985 . S
N1267 C1269 1.356 . S
N1267 H1272 0.984 . S
N1267 H1273 0.985 . S
C1268 C1262 1.379 . S
C1268 C1265 1.363 . S
C1268 N1266 1.356 . S
C1269 C1263 1.363 . S
C1269 C1264 1.379 . S
C1269 N1267 1.356 . S
N1270 C1262 1.356 . S
N1270 H1276 0.984 . S
N1270 H1277 0.984 . S
N1271 C1264 1.356 . S
N1271 H1274 0.984 . S
N1271 H1275 0.985 . S
H1272 N1267 0.984 . S
H1273 N1267 0.985 . S
H1274 N1271 0.984 . S
H1275 N1271 0.985 . S
H1276 N1270 0.984 . S
H1277 N1270 0.984 . S
H1278 N1266 0.984 . S
H1279 N1266 0.985 . S
C1280 C1281 1.363 . S
C1280 C1286 1.379 . S
C1280 N1288 1.356 . S
C1281 C1280 1.363 . S
C1281 C1287 1.363 . S
C1282 C1283 1.363 . S
C1282 C1287 1.379 . S
C1282 N1289 1.356 . S
C1283 C1282 1.363 . S
C1283 C1286 1.363 . S
N1284 C1286 1.356 . S
N1284 H1296 0.984 . S
N1284 H1297 0.985 . S
N1285 C1287 1.356 . S
N1285 H1290 0.984 . S
N1285 H1291 0.985 . S
C1286 C1280 1.379 . S
C1286 C1283 1.363 . S
C1286 N1284 1.356 . S
C1287 C1281 1.363 . S
C1287 C1282 1.379 . S
C1287 N1285 1.356 . S
N1288 C1280 1.356 . S
N1288 H1294 0.984 . S
N1288 H1295 0.984 . S
N1289 C1282 1.356 . S
N1289 H1292 0.984 . S
N1289 H1293 0.985 . S
H1290 N1285 0.984 . S
H1291 N1285 0.985 . S
H1292 N1289 0.984 . S
H1293 N1289 0.985 . S
H1294 N1288 0.984 . S
H1295 N1288 0.984 . S
H1296 N1284 0.984 . S
H1297 N1284 0.985 . S
C1298 C1299 1.363 . S
C1298 C1304 1.379 . S
C1298 N1306 1.356 . S
C1299 C1298 1.363 . S
C1299 C1305 1.363 . S
C1300 C1301 1.363 . S
C1300 C1305 1.379 . S
C1300 N1307 1.356 . S
C1301 C1300 1.363 . S
C1301 C1304 1.363 . S
N1302 C1304 1.356 . S
N1302 H1314 0.984 . S
N1302 H1315 0.985 . S
N1303 C1305 1.356 . S
N1303 H1308 0.984 . S
N1303 H1309 0.985 . S
C1304 C1298 1.379 . S
C1304 C1301 1.363 . S
C1304 N1302 1.356 . S
C1305 C1299 1.363 . S
C1305 C1300 1.379 . S
C1305 N1303 1.356 . S
N1306 C1298 1.356 . S
N1306 H1312 0.984 . S
N1306 H1313 0.984 . S
N1307 C1300 1.356 . S
N1307 H1310 0.984 . S
N1307 H1311 0.985 . S
H1308 N1303 0.984 . S
H1309 N1303 0.985 . S
H1310 N1307 0.984 . S
H1311 N1307 0.985 . S
H1312 N1306 0.984 . S
H1313 N1306 0.984 . S
H1314 N1302 0.984 . S
H1315 N1302 0.985 . S
C1316 C1317 1.363 . S
C1316 C1322 1.379 . S
C1316 N1324 1.356 . S
C1317 C1316 1.363 . S
C1317 C1323 1.363 . S
C1318 C1319 1.363 . S
C1318 C1323 1.379 . S
C1318 N1325 1.356 . S
C1319 C1318 1.363 . S
C1319 C1322 1.363 . S
N1320 C1322 1.356 . S
N1320 H1332 0.984 . S
N1320 H1333 0.985 . S
N1321 C1323 1.356 . S
N1321 H1326 0.984 . S
N1321 H1327 0.985 . S
C1322 C1316 1.379 . S
C1322 C1319 1.363 . S
C1322 N1320 1.356 . S
C1323 C1317 1.363 . S
C1323 C1318 1.379 . S
C1323 N1321 1.356 . S
N1324 C1316 1.356 . S
N1324 H1330 0.984 . S
N1324 H1331 0.984 . S
N1325 C1318 1.356 . S
N1325 H1328 0.984 . S
N1325 H1329 0.985 . S
H1326 N1321 0.984 . S
H1327 N1321 0.985 . S
H1328 N1325 0.984 . S
H1329 N1325 0.985 . S
H1330 N1324 0.984 . S
H1331 N1324 0.984 . S
H1332 N1320 0.984 . S
H1333 N1320 0.985 . S
C1334 C1335 1.363 . S
C1334 C1340 1.379 . S
C1334 N1342 1.356 . S
C1335 C1334 1.363 . S
C1335 C1341 1.363 . S
C1336 C1337 1.363 . S
C1336 C1341 1.379 . S
C1336 N1343 1.356 1_556 S
C1337 C1336 1.363 . S
C1337 C1340 1.363 . S
N1338 C1340 1.356 . S
N1338 H1350 0.984 . S
N1338 H1351 0.985 . S
N1339 C1341 1.356 . S
N1339 H1344 0.984 . S
N1339 H1345 0.985 . S
C1340 C1334 1.379 . S
C1340 C1337 1.363 . S
C1340 N1338 1.356 . S
C1341 C1335 1.363 . S
C1341 C1336 1.379 . S
C1341 N1339 1.356 . S
N1342 C1334 1.356 . S
N1342 H1348 0.984 . S
N1342 H1349 0.984 . S
N1343 C1336 1.356 1_554 S
N1343 H1346 0.984 . S
N1343 H1347 0.985 . S
H1344 N1339 0.984 . S
H1345 N1339 0.985 . S
H1346 N1343 0.984 . S
H1347 N1343 0.985 . S
H1348 N1342 0.984 . S
H1349 N1342 0.984 . S
H1350 N1338 0.984 . S
H1351 N1338 0.985 . S
C1352 C1353 1.363 . S
C1352 C1358 1.379 . S
C1352 N1360 1.356 . S
C1353 C1352 1.363 . S
C1353 C1359 1.363 . S
C1354 C1355 1.363 . S
C1354 C1359 1.379 . S
C1354 N1361 1.356 . S
C1355 C1354 1.363 . S
C1355 C1358 1.363 . S
N1356 C1358 1.356 . S
N1356 H1368 0.984 . S
N1356 H1369 0.985 . S
N1357 C1359 1.356 . S
N1357 H1362 0.984 . S
N1357 H1363 0.985 . S
C1358 C1352 1.379 . S
C1358 C1355 1.363 . S
C1358 N1356 1.356 . S
C1359 C1353 1.363 . S
C1359 C1354 1.379 . S
C1359 N1357 1.356 . S
N1360 C1352 1.356 . S
N1360 H1366 0.984 . S
N1360 H1367 0.984 . S
N1361 C1354 1.356 . S
N1361 H1364 0.984 . S
N1361 H1365 0.985 . S
H1362 N1357 0.984 . S
H1363 N1357 0.985 . S
H1364 N1361 0.984 . S
H1365 N1361 0.985 . S
H1366 N1360 0.984 . S
H1367 N1360 0.984 . S
H1368 N1356 0.984 . S
H1369 N1356 0.985 . S
C1370 C1371 1.363 . S
C1370 C1376 1.379 . S
C1370 N1378 1.356 . S
C1371 C1370 1.363 . S
C1371 C1377 1.363 . S
C1372 C1373 1.363 . S
C1372 C1377 1.379 . S
C1372 N1379 1.356 . S
C1373 C1372 1.363 . S
C1373 C1376 1.363 . S
N1374 C1376 1.356 . S
N1374 H1386 0.984 . S
N1374 H1387 0.985 . S
N1375 C1377 1.356 . S
N1375 H1380 0.984 . S
N1375 H1381 0.985 . S
C1376 C1370 1.379 . S
C1376 C1373 1.363 . S
C1376 N1374 1.356 . S
C1377 C1371 1.363 . S
C1377 C1372 1.379 . S
C1377 N1375 1.356 . S
N1378 C1370 1.356 . S
N1378 H1384 0.984 . S
N1378 H1385 0.984 . S
N1379 C1372 1.356 . S
N1379 H1382 0.984 . S
N1379 H1383 0.985 . S
H1380 N1375 0.984 . S
H1381 N1375 0.985 . S
H1382 N1379 0.984 . S
H1383 N1379 0.985 . S
H1384 N1378 0.984 . S
H1385 N1378 0.984 . S
H1386 N1374 0.984 . S
H1387 N1374 0.985 . S
C1388 C1389 1.363 . S
C1388 C1394 1.379 . S
C1388 N1396 1.356 . S
C1389 C1388 1.363 . S
C1389 C1395 1.363 . S
C1390 C1391 1.363 1_554 S
C1390 C1395 1.379 1_554 S
C1390 N1397 1.356 . S
C1391 C1390 1.363 1_556 S
C1391 C1394 1.363 . S
N1392 C1394 1.356 . S
N1392 H1404 0.984 . S
N1392 H1405 0.985 . S
N1393 C1395 1.356 . S
N1393 H1398 0.984 . S
N1393 H1399 0.985 1_556 S
C1394 C1388 1.379 . S
C1394 C1391 1.363 . S
C1394 N1392 1.356 . S
C1395 C1389 1.363 . S
C1395 C1390 1.379 1_556 S
C1395 N1393 1.356 . S
N1396 C1388 1.356 . S
N1396 H1402 0.984 . S
N1396 H1403 0.984 . S
N1397 C1390 1.356 . S
N1397 H1400 0.984 . S
N1397 H1401 0.985 . S
H1398 N1393 0.984 . S
H1399 N1393 0.985 1_554 S
H1400 N1397 0.984 . S
H1401 N1397 0.985 . S
H1402 N1396 0.984 . S
H1403 N1396 0.984 . S
H1404 N1392 0.984 . S
H1405 N1392 0.985 . S
C1406 C1407 1.363 . S
C1406 C1412 1.379 . S
C1406 N1414 1.356 . S
C1407 C1406 1.363 . S
C1407 C1413 1.363 . S
C1408 C1409 1.363 . S
C1408 C1413 1.379 . S
C1408 N1415 1.356 . S
C1409 C1408 1.363 . S
C1409 C1412 1.363 . S
N1410 C1412 1.356 . S
N1410 H1422 0.984 . S
N1410 H1423 0.985 . S
N1411 C1413 1.356 . S
N1411 H1416 0.984 . S
N1411 H1417 0.985 . S
C1412 C1406 1.379 . S
C1412 C1409 1.363 . S
C1412 N1410 1.356 . S
C1413 C1407 1.363 . S
C1413 C1408 1.379 . S
C1413 N1411 1.356 . S
N1414 C1406 1.356 . S
N1414 H1420 0.984 . S
N1414 H1421 0.984 . S
N1415 C1408 1.356 . S
N1415 H1418 0.984 . S
N1415 H1419 0.985 . S
H1416 N1411 0.984 . S
H1417 N1411 0.985 . S
H1418 N1415 0.984 . S
H1419 N1415 0.985 . S
H1420 N1414 0.984 . S
H1421 N1414 0.984 . S
H1422 N1410 0.984 . S
H1423 N1410 0.985 . S
C1424 C1425 1.363 1_554 S
C1424 C1430 1.379 1_554 S
C1424 N1432 1.356 . S
C1425 C1424 1.363 1_556 S
C1425 C1431 1.363 . S
C1426 C1427 1.363 . S
C1426 C1431 1.379 . S
C1426 N1433 1.356 . S
C1427 C1426 1.363 . S
C1427 C1430 1.363 . S
N1428 C1430 1.356 . S
N1428 H1440 0.984 1_556 S
N1428 H1441 0.985 . S
N1429 C1431 1.356 . S
N1429 H1434 0.984 . S
N1429 H1435 0.985 . S
C1430 C1424 1.379 1_556 S
C1430 C1427 1.363 . S
C1430 N1428 1.356 . S
C1431 C1425 1.363 . S
C1431 C1426 1.379 . S
C1431 N1429 1.356 . S
N1432 C1424 1.356 . S
N1432 H1438 0.984 . S
N1432 H1439 0.984 . S
N1433 C1426 1.356 . S
N1433 H1436 0.984 . S
N1433 H1437 0.985 . S
H1434 N1429 0.984 . S
H1435 N1429 0.985 . S
H1436 N1433 0.984 . S
H1437 N1433 0.985 . S
H1438 N1432 0.984 . S
H1439 N1432 0.984 . S
H1440 N1428 0.984 1_554 S
H1441 N1428 0.985 . S
C1442 C1443 1.363 . S
C1442 C1448 1.379 . S
C1442 N1450 1.356 . S
C1443 C1442 1.363 . S
C1443 C1449 1.363 . S
C1444 C1445 1.363 . S
C1444 C1449 1.379 . S
C1444 N1451 1.356 . S
C1445 C1444 1.363 . S
C1445 C1448 1.363 . S
N1446 C1448 1.356 . S
N1446 H1458 0.984 . S
N1446 H1459 0.985 . S
N1447 C1449 1.356 . S
N1447 H1452 0.984 . S
N1447 H1453 0.985 . S
C1448 C1442 1.379 . S
C1448 C1445 1.363 . S
C1448 N1446 1.356 . S
C1449 C1443 1.363 . S
C1449 C1444 1.379 . S
C1449 N1447 1.356 . S
N1450 C1442 1.356 . S
N1450 H1456 0.984 . S
N1450 H1457 0.984 . S
N1451 C1444 1.356 . S
N1451 H1454 0.984 . S
N1451 H1455 0.985 . S
H1452 N1447 0.984 . S
H1453 N1447 0.985 . S
H1454 N1451 0.984 . S
H1455 N1451 0.985 . S
H1456 N1450 0.984 . S
H1457 N1450 0.984 . S
H1458 N1446 0.984 . S
H1459 N1446 0.985 . S
C1460 C1461 1.363 . S
C1460 C1466 1.379 . S
C1460 N1468 1.356 . S
C1461 C1460 1.363 . S
C1461 C1467 1.363 . S
C1462 C1463 1.363 . S
C1462 C1467 1.379 . S
C1462 N1469 1.356 . S
C1463 C1462 1.363 . S
C1463 C1466 1.363 . S
N1464 C1466 1.356 . S
N1464 H1476 0.984 . S
N1464 H1477 0.985 . S
N1465 C1467 1.356 . S
N1465 H1470 0.984 . S
N1465 H1471 0.985 . S
C1466 C1460 1.379 . S
C1466 C1463 1.363 . S
C1466 N1464 1.356 . S
C1467 C1461 1.363 . S
C1467 C1462 1.379 . S
C1467 N1465 1.356 . S
N1468 C1460 1.356 . S
N1468 H1474 0.984 . S
N1468 H1475 0.984 . S
N1469 C1462 1.356 . S
N1469 H1472 0.984 . S
N1469 H1473 0.985 . S
H1470 N1465 0.984 . S
H1471 N1465 0.985 . S
H1472 N1469 0.984 . S
H1473 N1469 0.985 . S
H1474 N1468 0.984 . S
H1475 N1468 0.984 . S
H1476 N1464 0.984 . S
H1477 N1464 0.985 . S
C1478 C1479 1.363 . S
C1478 C1484 1.379 . S
C1478 N1486 1.356 . S
C1479 C1478 1.363 . S
C1479 C1485 1.363 . S
C1480 C1481 1.363 . S
C1480 C1485 1.379 . S
C1480 N1487 1.356 . S
C1481 C1480 1.363 . S
C1481 C1484 1.363 . S
N1482 C1484 1.356 . S
N1482 H1494 0.984 . S
N1482 H1495 0.985 . S
N1483 C1485 1.356 . S
N1483 H1488 0.984 . S
N1483 H1489 0.985 . S
C1484 C1478 1.379 . S
C1484 C1481 1.363 . S
C1484 N1482 1.356 . S
C1485 C1479 1.363 . S
C1485 C1480 1.379 . S
C1485 N1483 1.356 . S
N1486 C1478 1.356 . S
N1486 H1492 0.984 . S
N1486 H1493 0.984 . S
N1487 C1480 1.356 . S
N1487 H1490 0.984 . S
N1487 H1491 0.985 . S
H1488 N1483 0.984 . S
H1489 N1483 0.985 . S
H1490 N1487 0.984 . S
H1491 N1487 0.985 . S
H1492 N1486 0.984 . S
H1493 N1486 0.984 . S
H1494 N1482 0.984 . S
H1495 N1482 0.985 . S
C1496 C1497 1.363 . S
C1496 C1502 1.379 . S
C1496 N1504 1.356 . S
C1497 C1496 1.363 . S
C1497 C1503 1.363 . S
C1498 C1499 1.363 . S
C1498 C1503 1.379 . S
C1498 N1505 1.356 . S
C1499 C1498 1.363 . S
C1499 C1502 1.363 . S
N1500 C1502 1.356 . S
N1500 H1512 0.984 . S
N1500 H1513 0.985 . S
N1501 C1503 1.356 . S
N1501 H1506 0.984 . S
N1501 H1507 0.985 . S
C1502 C1496 1.379 . S
C1502 C1499 1.363 . S
C1502 N1500 1.356 . S
C1503 C1497 1.363 . S
C1503 C1498 1.379 . S
C1503 N1501 1.356 . S
N1504 C1496 1.356 . S
N1504 H1510 0.984 . S
N1504 H1511 0.984 . S
N1505 C1498 1.356 . S
N1505 H1508 0.984 . S
N1505 H1509 0.985 . S
H1506 N1501 0.984 . S
H1507 N1501 0.985 . S
H1508 N1505 0.984 . S
H1509 N1505 0.985 . S
H1510 N1504 0.984 . S
H1511 N1504 0.984 . S
H1512 N1500 0.984 . S
H1513 N1500 0.985 . S
C1514 C1515 1.363 . S
C1514 C1520 1.379 . S
C1514 N1522 1.356 . S
C1515 C1514 1.363 . S
C1515 C1521 1.363 . S
C1516 C1517 1.363 . S
C1516 C1521 1.379 . S
C1516 N1523 1.356 . S
C1517 C1516 1.363 . S
C1517 C1520 1.363 . S
N1518 C1520 1.356 . S
N1518 H1530 0.984 . S
N1518 H1531 0.985 . S
N1519 C1521 1.356 . S
N1519 H1524 0.984 . S
N1519 H1525 0.985 . S
C1520 C1514 1.379 . S
C1520 C1517 1.363 . S
C1520 N1518 1.356 . S
C1521 C1515 1.363 . S
C1521 C1516 1.379 . S
C1521 N1519 1.356 . S
N1522 C1514 1.356 . S
N1522 H1528 0.984 . S
N1522 H1529 0.984 . S
N1523 C1516 1.356 . S
N1523 H1526 0.984 . S
N1523 H1527 0.985 . S
H1524 N1519 0.984 . S
H1525 N1519 0.985 . S
H1526 N1523 0.984 . S
H1527 N1523 0.985 . S
H1528 N1522 0.984 . S
H1529 N1522 0.984 . S
H1530 N1518 0.984 . S
H1531 N1518 0.985 . S
C1532 C1533 1.363 . S
C1532 C1538 1.379 . S
C1532 N1540 1.356 . S
C1533 C1532 1.363 . S
C1533 C1539 1.363 . S
C1534 C1535 1.363 . S
C1534 C1539 1.379 . S
C1534 N1541 1.356 . S
C1535 C1534 1.363 . S
C1535 C1538 1.363 . S
N1536 C1538 1.356 . S
N1536 H1548 0.984 . S
N1536 H1549 0.985 . S
N1537 C1539 1.356 . S
N1537 H1542 0.984 . S
N1537 H1543 0.985 . S
C1538 C1532 1.379 . S
C1538 C1535 1.363 . S
C1538 N1536 1.356 . S
C1539 C1533 1.363 . S
C1539 C1534 1.379 . S
C1539 N1537 1.356 . S
N1540 C1532 1.356 . S
N1540 H1546 0.984 . S
N1540 H1547 0.984 . S
N1541 C1534 1.356 . S
N1541 H1544 0.984 . S
N1541 H1545 0.985 . S
H1542 N1537 0.984 . S
H1543 N1537 0.985 . S
H1544 N1541 0.984 . S
H1545 N1541 0.985 . S
H1546 N1540 0.984 . S
H1547 N1540 0.984 . S
H1548 N1536 0.984 . S
H1549 N1536 0.985 . S
C1550 C1551 1.363 . S
C1550 C1556 1.379 . S
C1550 N1558 1.356 . S
C1551 C1550 1.363 . S
C1551 C1557 1.363 . S
C1552 C1553 1.363 . S
C1552 C1557 1.379 . S
C1552 N1559 1.356 1_556 S
C1553 C1552 1.363 . S
C1553 C1556 1.363 . S
N1554 C1556 1.356 . S
N1554 H1566 0.984 . S
N1554 H1567 0.987 . S
N1555 C1557 1.356 . S
N1555 H1560 0.984 . S
N1555 H1561 0.985 . S
C1556 C1550 1.379 . S
C1556 C1553 1.363 . S
C1556 N1554 1.356 . S
C1557 C1551 1.363 . S
C1557 C1552 1.379 . S
C1557 N1555 1.356 . S
N1558 C1550 1.356 . S
N1558 H1564 0.984 . S
N1558 H1565 0.984 . S
N1559 C1552 1.356 1_554 S
N1559 H1562 0.984 . S
N1559 H1563 0.985 . S
H1560 N1555 0.984 . S
H1561 N1555 0.985 . S
H1562 N1559 0.984 . S
H1563 N1559 0.985 . S
H1564 N1558 0.984 . S
H1565 N1558 0.984 . S
H1566 N1554 0.984 . S
H1567 N1554 0.987 . S
C417 C105 1.920 . S
C419 C10 1.920 . S
C435 C14 2.046 . S
C437 C335 2.046 . S
C453 C36 1.920 . S
C455 C131 1.920 . S
C471 C40 2.046 . S
C473 C361 2.046 . S
C489 C62 1.920 . S
C491 C157 1.920 . S
C507 C387 2.046 . S
C509 C66 2.046 . S
C525 C183 1.920 . S
C527 C88 1.920 . S
C543 C413 2.046 . S
C545 C92 2.046 . S
C561 C222 2.046 . S
C563 C127 2.046 . S
C579 C153 2.046 . S
C581 C248 2.046 . S
C597 C179 2.046 . S
C599 C274 2.046 . S
C615 C300 2.046 . S
C617 C205 2.046 . S
C633 C313 1.920 . S
C635 C218 1.920 . S
C651 C244 1.920 . S
C653 C339 1.920 . S
C669 C270 1.920 . S
C671 C365 1.920 . S
C687 C391 1.920 . S
C689 C296 1.920 . S
C705 C3 1.746 . S
C707 C55 1.746 . S
C723 C70 1.671 1_554 S
C725 C18 1.671 . S
C741 C81 1.746 . S
C743 C29 1.746 . S
C759 C44 1.671 . S
C761 C96 1.671 . S
C777 C109 1.746 . S
C779 C161 1.746 . S
C795 C120 1.671 1_554 S
C797 C172 1.671 . S
C813 C187 1.746 . S
C815 C135 1.746 . S
C831 C198 1.671 . S
C833 C146 1.671 . S
C849 C263 1.746 . S
C851 C211 1.746 . S
C867 C278 1.671 . S
C869 C226 1.671 . S
C885 C237 1.746 . S
C887 C289 1.746 . S
C903 C304 1.671 1_554 S
C905 C252 1.671 . S
C921 C369 1.746 . S
C923 C317 1.746 . S
C939 C328 1.671 . S
C941 C380 1.671 . S
C957 C395 1.746 . S
C959 C343 1.746 . S
C975 C406 1.671 . S
C977 C354 1.671 1_554 S
C993 C53 0.796 . S
C995 C1 0.796 . S
C1011 C75 0.793 . S
C1013 C23 0.793 . S
C1029 C27 0.797 . S
C1031 C79 0.797 . S
C1047 C101 0.793 . S
C1049 C49 0.793 1_554 S
C1065 C166 0.797 . S
C1067 C114 0.797 . S
C1083 C118 0.793 . S
C1085 C170 0.793 . S
C1101 C192 0.796 . S
C1103 C140 0.796 . S
C1119 C196 0.793 1_554 S
C1121 C144 0.793 . S
C1137 C209 0.796 . S
C1139 C261 0.796 . S
C1155 C283 0.793 . S
C1157 C231 0.793 1_554 S
C1173 C287 0.797 . S
C1175 C235 0.797 . S
C1191 C309 0.793 . S
C1193 C257 0.793 . S
C1209 C374 0.797 . S
C1211 C322 0.797 . S
C1227 C326 0.793 . S
C1229 C378 0.793 1_554 S
C1245 C348 0.796 . S
C1247 C400 0.796 . S
C1263 C352 0.793 . S
C1265 C404 0.793 . S
C1281 C5 1.984 . S
C1283 C276 2.051 . S
C1299 C291 1.984 . S
C1301 C16 2.051 . S
C1317 C31 1.984 . S
C1319 C302 2.051 . S
C1335 C42 2.051 . S
C1337 C265 1.984 1_556 S
C1353 C250 2.051 . S
C1355 C57 1.984 . S
C1371 C213 1.984 . S
C1373 C68 2.051 . S
C1389 C224 2.051 . S
C1391 C83 1.984 1_556 S
C1407 C94 2.051 . S
C1409 C239 1.984 . S
C1425 C107 1.984 1_556 S
C1427 C382 2.051 . S
C1443 C393 1.984 . S
C1445 C122 2.051 . S
C1461 C408 2.051 . S
C1463 C133 1.984 . S
C1479 C367 1.984 . S
C1481 C148 2.051 . S
C1497 C356 2.051 . S
C1499 C159 1.984 . S
C1515 C315 1.984 . S
C1517 C174 2.051 . S
C1533 C185 1.984 . S
C1535 C330 2.051 . S
C1551 C200 2.051 . S
C1553 C341 1.984 1_556 S
