# Generated by pormake.
# Topology wiu, (6)-cn, num edge types: 1
# Building blocks:
#     Node 0, Type 0, BuildingBlock: BETDEL_clean_sbu_0, # of connection points: 6
#     Node 1, Type 0, BuildingBlock: BETDEL_clean_sbu_0, # of connection points: 6
#     Node 2, Type 0, BuildingBlock: BETDEL_clean_sbu_0, # of connection points: 6
#     Node 3, Type 0, BuildingBlock: BETDEL_clean_sbu_0, # of connection points: 6
#     Node 4, Type 0, BuildingBlock: BETDEL_clean_sbu_0, # of connection points: 6
#     Node 5, Type 0, BuildingBlock: BETDEL_clean_sbu_0, # of connection points: 6
#     Node 6, Type 0, BuildingBlock: BETDEL_clean_sbu_0, # of connection points: 6
#     Node 7, Type 0, BuildingBlock: BETDEL_clean_sbu_0, # of connection points: 6
#     Node 8, Type 0, BuildingBlock: BETDEL_clean_sbu_0, # of connection points: 6
#     Node 9, Type 0, BuildingBlock: BETDEL_clean_sbu_0, # of connection points: 6
#     Node 10, Type 0, BuildingBlock: BETDEL_clean_sbu_0, # of connection points: 6
#     Node 11, Type 0, BuildingBlock: BETDEL_clean_sbu_0, # of connection points: 6
#     Node 12, Type 0, BuildingBlock: BETDEL_clean_sbu_0, # of connection points: 6
#     Node 13, Type 0, BuildingBlock: BETDEL_clean_sbu_0, # of connection points: 6
#     Node 14, Type 0, BuildingBlock: BETDEL_clean_sbu_0, # of connection points: 6
#     Node 15, Type 0, BuildingBlock: BETDEL_clean_sbu_0, # of connection points: 6
#     Edge 16, Type (0, 0), BuildingBlock: OJICUG_clean_linker_0, # of connection points: 2
#     Edge 17, Type (0, 0), BuildingBlock: OJICUG_clean_linker_0, # of connection points: 2
#     Edge 18, Type (0, 0), BuildingBlock: OJICUG_clean_linker_0, # of connection points: 2
#     Edge 19, Type (0, 0), BuildingBlock: OJICUG_clean_linker_0, # of connection points: 2
#     Edge 20, Type (0, 0), BuildingBlock: OJICUG_clean_linker_0, # of connection points: 2
#     Edge 21, Type (0, 0), BuildingBlock: OJICUG_clean_linker_0, # of connection points: 2
#     Edge 22, Type (0, 0), BuildingBlock: OJICUG_clean_linker_0, # of connection points: 2
#     Edge 23, Type (0, 0), BuildingBlock: OJICUG_clean_linker_0, # of connection points: 2
#     Edge 24, Type (0, 0), BuildingBlock: OJICUG_clean_linker_0, # of connection points: 2
#     Edge 25, Type (0, 0), BuildingBlock: OJICUG_clean_linker_0, # of connection points: 2
#     Edge 26, Type (0, 0), BuildingBlock: OJICUG_clean_linker_0, # of connection points: 2
#     Edge 27, Type (0, 0), BuildingBlock: OJICUG_clean_linker_0, # of connection points: 2
#     Edge 28, Type (0, 0), BuildingBlock: OJICUG_clean_linker_0, # of connection points: 2
#     Edge 29, Type (0, 0), BuildingBlock: OJICUG_clean_linker_0, # of connection points: 2
#     Edge 30, Type (0, 0), BuildingBlock: OJICUG_clean_linker_0, # of connection points: 2
#     Edge 31, Type (0, 0), BuildingBlock: OJICUG_clean_linker_0, # of connection points: 2
#     Edge 32, Type (0, 0), BuildingBlock: OJICUG_clean_linker_0, # of connection points: 2
#     Edge 33, Type (0, 0), BuildingBlock: OJICUG_clean_linker_0, # of connection points: 2
#     Edge 34, Type (0, 0), BuildingBlock: OJICUG_clean_linker_0, # of connection points: 2
#     Edge 35, Type (0, 0), BuildingBlock: OJICUG_clean_linker_0, # of connection points: 2
#     Edge 36, Type (0, 0), BuildingBlock: OJICUG_clean_linker_0, # of connection points: 2
#     Edge 37, Type (0, 0), BuildingBlock: OJICUG_clean_linker_0, # of connection points: 2
#     Edge 38, Type (0, 0), BuildingBlock: OJICUG_clean_linker_0, # of connection points: 2
#     Edge 39, Type (0, 0), BuildingBlock: OJICUG_clean_linker_0, # of connection points: 2
#     Edge 40, Type (0, 0), BuildingBlock: OJICUG_clean_linker_0, # of connection points: 2
#     Edge 41, Type (0, 0), BuildingBlock: OJICUG_clean_linker_0, # of connection points: 2
#     Edge 42, Type (0, 0), BuildingBlock: OJICUG_clean_linker_0, # of connection points: 2
#     Edge 43, Type (0, 0), BuildingBlock: OJICUG_clean_linker_0, # of connection points: 2
#     Edge 44, Type (0, 0), BuildingBlock: OJICUG_clean_linker_0, # of connection points: 2
#     Edge 45, Type (0, 0), BuildingBlock: OJICUG_clean_linker_0, # of connection points: 2
#     Edge 46, Type (0, 0), BuildingBlock: OJICUG_clean_linker_0, # of connection points: 2
#     Edge 47, Type (0, 0), BuildingBlock: OJICUG_clean_linker_0, # of connection points: 2
#     Edge 48, Type (0, 0), BuildingBlock: OJICUG_clean_linker_0, # of connection points: 2
#     Edge 49, Type (0, 0), BuildingBlock: OJICUG_clean_linker_0, # of connection points: 2
#     Edge 50, Type (0, 0), BuildingBlock: OJICUG_clean_linker_0, # of connection points: 2
#     Edge 51, Type (0, 0), BuildingBlock: OJICUG_clean_linker_0, # of connection points: 2
#     Edge 52, Type (0, 0), BuildingBlock: OJICUG_clean_linker_0, # of connection points: 2
#     Edge 53, Type (0, 0), BuildingBlock: OJICUG_clean_linker_0, # of connection points: 2
#     Edge 54, Type (0, 0), BuildingBlock: OJICUG_clean_linker_0, # of connection points: 2
#     Edge 55, Type (0, 0), BuildingBlock: OJICUG_clean_linker_0, # of connection points: 2
#     Edge 56, Type (0, 0), BuildingBlock: OJICUG_clean_linker_0, # of connection points: 2
#     Edge 57, Type (0, 0), BuildingBlock: OJICUG_clean_linker_0, # of connection points: 2
#     Edge 58, Type (0, 0), BuildingBlock: OJICUG_clean_linker_0, # of connection points: 2
#     Edge 59, Type (0, 0), BuildingBlock: OJICUG_clean_linker_0, # of connection points: 2
#     Edge 60, Type (0, 0), BuildingBlock: OJICUG_clean_linker_0, # of connection points: 2
#     Edge 61, Type (0, 0), BuildingBlock: OJICUG_clean_linker_0, # of connection points: 2
#     Edge 62, Type (0, 0), BuildingBlock: OJICUG_clean_linker_0, # of connection points: 2
#     Edge 63, Type (0, 0), BuildingBlock: OJICUG_clean_linker_0, # of connection points: 2
# Relax obj value: 0.333
# Max RMSD: 0.282
# Mean RMSD: 0.282
data_MOF--net-wiu--node1-BETDEL_clean_sbu_0--edge1-OJICUG_clean_linker_0
_symmetry_space_group_name_H-M    P1
_symmetry_Int_Tables_number       1
_symmetry_cell_setting            triclinic
loop_
_symmetry_equiv_pos_as_xyz
'x, y, z'
_cell_length_a     23.774861
_cell_length_b     23.738596
_cell_length_c     41.643101
_cell_angle_alpha  89.744969
_cell_angle_beta   90.051801
_cell_angle_gamma 90.562001
loop_
_atom_site_label
_atom_site_type_symbol
_atom_site_fract_x
_atom_site_fract_y
_atom_site_fract_z
_atom_type_partial_charge
Dy0 Dy 0.28756 0.17026 0.1606 0.0
C1 C 0.42184 0.00631 0.11388 0.0
C2 C 0.24287 0.27252 0.17302 0.0
Dy3 Dy 0.34416 0.06841 0.14444 0.0
O4 O 0.23935 0.22968 0.19267 0.0
O5 O 0.26774 0.25814 0.14694 0.0
O6 O 0.34829 0.21513 0.1282 0.0
O7 O 0.37752 0.15113 0.15745 0.0
C8 C 0.39201 0.18779 0.13706 0.0
C9 C 0.24084 0.04812 0.16724 0.0
O10 O 0.36998 0.0656 0.19554 0.0
O11 O 0.30885 0.13585 0.21096 0.0
O12 O 0.36832 -0.00527 0.11429 0.0
O13 O 0.43257 0.04912 0.13202 0.0
O14 O 0.28232 0.01303 0.17085 0.0
O15 O 0.25524 0.08802 0.14909 0.0
O16 O 0.23886 0.14589 0.11568 0.0
O17 O 0.31498 0.10005 0.09578 0.0
C18 C 0.34573 0.09542 0.21822 0.0
C19 C 0.26528 0.12323 0.09089 0.0
Dy20 Dy 0.57093 0.5337 0.42615 0.0
C21 C 0.71863 0.67937 0.36389 0.0
C22 C 0.48683 0.47275 0.45471 0.0
Dy23 Dy 0.66557 0.60066 0.39997 0.0
O24 O 0.51314 0.45848 0.42878 0.0
O25 O 0.50931 0.51847 0.46602 0.0
O26 O 0.50948 0.58658 0.39903 0.0
O27 O 0.58205 0.62459 0.41727 0.0
C28 C 0.53823 0.63287 0.40073 0.0
C29 C 0.69603 0.49867 0.42094 0.0
O30 O 0.6814 0.62302 0.45105 0.0
O31 O 0.62222 0.5535 0.47168 0.0
O32 O 0.72828 0.62574 0.36262 0.0
O33 O 0.68301 0.69003 0.3865 0.0
O34 O 0.73079 0.54151 0.42025 0.0
O35 O 0.65122 0.5117 0.40722 0.0
O36 O 0.58223 0.49112 0.37743 0.0
O37 O 0.62456 0.56866 0.35448 0.0
C38 C 0.66123 0.59385 0.47571 0.0
C39 C 0.60066 0.5184 0.3514 0.0
Dy40 Dy 0.20519 0.82387 0.66421 0.0
C41 C 0.06322 0.98315 0.61369 0.0
C42 C 0.24801 0.73035 0.69239 0.0
Dy43 Dy 0.14846 0.9226 0.63833 0.0
O44 O 0.19739 0.74872 0.69617 0.0
O45 O 0.27718 0.7659 0.67508 0.0
O46 O 0.15352 0.77063 0.6308 0.0
O47 O 0.11696 0.83941 0.65233 0.0
C48 C 0.10765 0.79869 0.63369 0.0
C49 C 0.25838 0.93976 0.64605 0.0
O50 O 0.13483 0.94601 0.68911 0.0
O51 O 0.17849 0.86755 0.71103 0.0
O52 O 0.11534 6e-05 0.61454 0.0
O53 O 0.05806 0.93523 0.62823 0.0
O54 O 0.22939 0.96415 0.62353 0.0
O55 O 0.22675 0.91242 0.66489 0.0
O56 O 0.25087 0.83562 0.61659 0.0
O57 O 0.17492 0.87846 0.59328 0.0
C58 C 0.15035 0.91584 0.7143 0.0
C59 C 0.22488 0.85496 0.5906 0.0
Dy60 Dy 0.92027 0.46446 0.92657 0.0
C61 C 0.78944 0.30224 0.86592 0.0
C62 C -0.00039 0.53129 0.95502 0.0
Dy63 Dy 0.83033 0.38699 0.90219 0.0
O64 O 0.97588 0.48737 0.96797 0.0
O65 O 0.97613 0.54109 0.92745 0.0
O66 O 0.98539 0.41075 0.90322 0.0
O67 O 0.91365 0.37238 0.92258 0.0
C68 C 0.95835 0.36382 0.9071 0.0
C69 C 0.79341 0.48905 0.9182 0.0
O70 O 0.82491 0.36346 0.95434 0.0
O71 O 0.86532 0.44778 0.9708 0.0
O72 O 0.75828 0.33626 0.8825 0.0
O73 O 0.84225 0.31348 0.87021 0.0
O74 O 0.76033 0.44491 0.91825 0.0
O75 O 0.83937 0.47668 0.90586 0.0
O76 O 0.90966 0.50225 0.87637 0.0
O77 O 0.86178 0.42575 0.8554 0.0
C78 C 0.83615 0.40064 0.97723 0.0
C79 C 0.8885 0.47462 0.85122 0.0
Dy80 Dy 0.63293 0.91965 0.96883 0.0
C81 C 0.73177 0.72139 0.92269 0.0
C82 C 0.55601 0.9768 1.0027 0.0
Dy83 Dy 0.69028 0.81867 0.94668 0.0
O84 O 0.60942 0.98893 1.00216 0.0
O85 O 0.54467 0.93646 0.98285 0.0
O86 O 0.69474 0.97797 0.94446 0.0
O87 O 0.72084 0.89948 0.96235 0.0
C88 C 0.73569 0.94187 0.94633 0.0
C89 C 0.59067 0.79818 0.97505 0.0
O90 O 0.7348 0.82957 0.9948 0.0
O91 O 0.66447 0.88412 1.01579 0.0
O92 O 0.76224 0.76041 0.93629 0.0
O93 O 0.68019 0.73752 0.92053 0.0
O94 O 0.63574 0.76991 0.9808 0.0
O95 O 0.6016 0.83676 0.955 0.0
O96 O 0.60899 0.93039 0.91785 0.0
O97 O 0.67268 0.865 0.89905 0.0
C98 C 0.71111 0.85493 1.01975 0.0
C99 C 0.63545 0.90598 0.89385 0.0
Dy100 Dy 0.32461 0.39122 0.71684 0.0
C101 C 0.50813 0.51689 0.66482 0.0
C102 C 0.26872 0.31268 0.7517 0.0
Dy103 Dy 0.42223 0.45588 0.69167 0.0
O104 O 0.2614 0.36659 0.75407 0.0
O105 O 0.30344 0.30194 0.72866 0.0
O106 O 0.26163 0.45346 0.6974 0.0
O107 O 0.34246 0.4799 0.71054 0.0
C108 C 0.29808 0.49489 0.69701 0.0
C109 C 0.45009 0.35325 0.71478 0.0
O110 O 0.41082 0.49668 0.74089 0.0
O111 O 0.36701 0.41908 0.76271 0.0
O112 O 0.48402 0.47323 0.65204 0.0
O113 O 0.48292 0.52897 0.69144 0.0
O114 O 0.48109 0.39798 0.71748 0.0
O115 O 0.40684 0.36525 0.69862 0.0
O116 O 0.30937 0.37089 0.66551 0.0
O117 O 0.37116 0.439 0.64573 0.0
C118 C 0.39161 0.4688 0.76651 0.0
C119 C 0.33108 0.39986 0.64121 0.0
Dy120 Dy 0.85158 0.06369 0.46863 0.0
C121 C 0.75557 0.26538 0.42346 0.0
C122 C 0.93016 0.00817 0.50215 0.0
Dy123 Dy 0.79657 0.1669 0.4468 0.0
O124 O 0.87731 0.99367 0.50119 0.0
O125 O 0.94006 0.04973 0.48271 0.0
O126 O 0.78848 0.00637 0.44514 0.0
O127 O 0.76455 0.08627 0.46176 0.0
C128 C 0.74872 0.04397 0.44606 0.0
C129 C 0.89684 0.18428 0.47498 0.0
O130 O 0.75372 0.15799 0.49574 0.0
O131 O 0.81688 0.09355 0.5158 0.0
O132 O 0.72495 0.22601 0.43677 0.0
O133 O 0.80705 0.24891 0.42108 0.0
O134 O 0.85252 0.21342 0.48092 0.0
O135 O 0.88466 0.14639 0.45489 0.0
O136 O 0.87375 0.05175 0.41775 0.0
O137 O 0.81325 0.12066 0.39901 0.0
C138 C 0.77374 0.12745 0.52009 0.0
C139 C 0.84836 0.07777 0.39382 0.0
Dy140 Dy 0.15067 0.60394 0.21244 0.0
C141 C 0.98328 0.45597 0.16362 0.0
C142 C 0.1897 0.69294 0.24554 0.0
Dy143 Dy 0.06197 0.5247 0.19121 0.0
O144 O 0.22144 0.65947 0.22893 0.0
O145 O 0.13737 0.67815 0.24347 0.0
O146 O 0.22017 0.54813 0.19383 0.0
O147 O 0.14433 0.51357 0.21098 0.0
C148 C 0.18955 0.50266 0.19731 0.0
C149 C 0.0233 0.62611 0.20929 0.0
O150 O 0.07447 0.48905 0.24167 0.0
O151 O 0.12445 0.56584 0.26053 0.0
O152 O 0.00727 0.49902 0.14995 0.0
O153 O 0.00586 0.44819 0.19163 0.0
O154 O -0.00284 0.57916 0.21482 0.0
O155 O 0.06681 0.6168 0.19301 0.0
O156 O 0.1525 0.62606 0.16019 0.0
O157 O 0.11491 0.53961 0.14588 0.0
C158 C 0.09767 0.51732 0.26597 0.0
C159 C 0.14207 0.58731 0.13815 0.0
Dy160 Dy 0.79256 0.66323 0.67333 0.0
C161 C 0.94137 0.52127 0.61538 0.0
C162 C 0.74935 0.75594 0.70175 0.0
Dy163 Dy 0.85502 0.56606 0.6475 0.0
O164 O 0.80011 0.73777 0.70544 0.0
O165 O 0.72026 0.72033 0.68457 0.0
O166 O 0.84351 0.71737 0.63947 0.0
O167 O 0.88123 0.64987 0.66251 0.0
C168 C 0.88982 0.69037 0.64347 0.0
C169 C 0.74575 0.54419 0.65449 0.0
O170 O 0.8736 0.54606 0.6988 0.0
O171 O 0.8191 0.61817 0.72 0.0
O172 O 0.90055 0.49136 0.628 0.0
O173 O 0.9358 0.57398 0.62209 0.0
O174 O 0.77654 0.51996 0.63283 0.0
O175 O 0.77575 0.57361 0.67311 0.0
O176 O 0.7451 0.6507 0.62643 0.0
O177 O 0.8198 0.60649 0.60265 0.0
C178 C 0.85262 0.57342 0.72377 0.0
C179 C 0.76971 0.63011 0.60044 0.0
Dy180 Dy 0.07279 0.03809 0.91127 0.0
C181 C 0.24019 0.16411 0.85802 0.0
C182 C 0.96772 -0.00028 0.92566 0.0
Dy183 Dy 0.17528 0.0888 0.89018 0.0
O184 O 0.01318 0.98074 0.93946 0.0
O185 O 0.9806 0.03761 0.90473 0.0
O186 O 0.02957 0.10346 0.88182 0.0
O187 O 0.0989 0.12725 0.90879 0.0
C188 C 0.06027 0.14541 0.89084 0.0
C189 C 0.19137 0.98252 0.90919 0.0
O190 O 0.19147 0.10589 0.94148 0.0
O191 O 0.11399 0.05571 0.96029 0.0
O192 O 0.24397 0.10983 0.85526 0.0
O193 O 0.20391 0.17641 0.87996 0.0
O194 O 0.22984 0.02186 0.91136 0.0
O195 O 0.14928 0.00047 0.89417 0.0
O196 O 0.08631 0.99208 0.86406 0.0
O197 O 0.13341 0.0674 0.84305 0.0
C198 C 0.16151 0.08501 0.96547 0.0
C199 C 0.10678 0.01904 0.83857 0.0
Dy200 Dy 0.70002 0.33016 0.17403 0.0
C201 C 0.54874 0.47667 0.11827 0.0
C202 C 0.74338 0.23736 0.20254 0.0
Dy203 Dy 0.63652 0.42851 0.14828 0.0
O204 O 0.69244 0.25525 0.20598 0.0
O205 O 0.7727 0.27355 0.18568 0.0
O206 O 0.65347 0.27571 0.1391 0.0
O207 O 0.61216 0.34201 0.16044 0.0
C208 C 0.60649 0.30206 0.14078 0.0
C209 C 0.74557 0.44952 0.15733 0.0
O210 O 0.61878 0.44778 0.19957 0.0
O211 O 0.67058 0.37334 0.22077 0.0
O212 O 0.59488 0.50344 0.12602 0.0
O213 O 0.54977 0.42571 0.12926 0.0
O214 O 0.716 0.47522 0.13549 0.0
O215 O 0.71423 0.41959 0.17491 0.0
O216 O 0.74626 0.34367 0.12663 0.0
O217 O 0.67369 0.39291 0.10302 0.0
C218 C 0.63805 0.41886 0.22456 0.0
C219 C 0.72289 0.36744 0.10091 0.0
Dy220 Dy 0.41698 0.95341 0.41461 0.0
C221 C 0.26936 0.82915 0.34799 0.0
C222 C 0.51326 0.99331 0.44172 0.0
Dy223 Dy 0.31462 0.90099 0.39035 0.0
O224 O 0.47707 0.02432 0.42652 0.0
O225 O 0.49453 0.94219 0.44384 0.0
O226 O 0.46494 0.89654 0.38245 0.0
O227 O 0.39441 0.86499 0.40654 0.0
C228 C 0.43481 0.85208 0.3883 0.0
C229 C 0.29549 0.00319 0.41415 0.0
O230 O 0.30437 0.86897 0.44011 0.0
O231 O 0.36797 0.93375 0.461 0.0
O232 O 0.23943 0.85905 0.36779 0.0
O233 O 0.32264 0.83747 0.35233 0.0
O234 O 0.25676 0.96376 0.413 0.0
O235 O 0.33837 0.98745 0.39931 0.0
O236 O 0.41447 -0.00063 0.36598 0.0
O237 O 0.3379 0.95041 0.34595 0.0
C238 C 0.32757 0.89468 0.46501 0.0
C239 C 0.37857 0.9882 0.34212 0.0
Dy240 Dy 0.14018 0.42518 0.46872 0.0
C241 C 0.25096 0.23989 0.41363 0.0
C242 C 0.05323 0.4741 0.49869 0.0
Dy243 Dy 0.20539 0.33084 0.44255 0.0
O244 O 0.09834 0.50098 0.48929 0.0
O245 O 0.05473 0.42229 0.48944 0.0
O246 O 0.21753 0.473 0.48341 0.0
O247 O 0.21925 0.42079 0.44254 0.0
C248 C 0.2486 0.45078 0.4612 0.0
C249 C 0.1113 0.2987 0.4745 0.0
O250 O 0.25202 0.34491 0.48962 0.0
O251 O 0.17496 0.38477 0.5135 0.0
O252 O 0.20035 0.25801 0.40925 0.0
O253 O 0.27893 0.27502 0.43172 0.0
O254 O 0.15898 0.27364 0.4766 0.0
O255 O 0.1166 0.33946 0.45518 0.0
O256 O 0.12148 0.44595 0.41765 0.0
O257 O 0.17584 0.37437 0.396 0.0
C258 C 0.22609 0.36351 0.51571 0.0
C259 C 0.14185 0.41876 0.39254 0.0
Dy260 Dy 0.8047 0.89593 0.22009 0.0
C261 C 0.00679 0.98858 0.17131 0.0
C262 C 0.74243 0.82192 0.25466 0.0
Dy263 Dy 0.90768 0.94847 0.19515 0.0
O264 O 0.73819 0.87629 0.25653 0.0
O265 O 0.77774 0.80865 0.23237 0.0
O266 O 0.7484 0.96163 0.19864 0.0
O267 O 0.83041 0.9828 0.21275 0.0
C268 C 0.7875 0.0006 0.19862 0.0
C269 C 0.92368 0.84628 0.22202 0.0
O270 O 0.90153 0.99331 0.24336 0.0
O271 O 0.84681 0.9236 0.26606 0.0
O272 O 0.98985 0.93677 0.17053 0.0
O273 O 0.96753 0.02003 0.18323 0.0
O274 O 0.9549 0.89012 0.22736 0.0
O275 O 0.88386 0.86026 0.20364 0.0
O276 O 0.78901 0.87339 0.16931 0.0
O277 O 0.8593 0.93124 0.14838 0.0
C278 C 0.87751 0.97004 0.26911 0.0
C279 C 0.81506 0.89666 0.14451 0.0
Dy280 Dy 0.34644 0.55715 0.96929 0.0
C281 C 0.24088 0.74675 0.91244 0.0
C282 C 0.43312 0.50914 1.00047 0.0
Dy283 Dy 0.28363 0.65506 0.94258 0.0
O284 O 0.387 0.48251 0.99259 0.0
O285 O 0.4327 0.55977 0.98899 0.0
O286 O 0.26726 0.50988 0.98149 0.0
O287 O 0.26916 0.56554 0.94198 0.0
C288 C 0.23781 0.53537 0.95952 0.0
C289 C 0.37642 0.68361 0.97663 0.0
O290 O 0.23583 0.64212 0.98944 0.0
O291 O 0.30784 0.5934 1.01396 0.0
O292 O 0.29228 0.72957 0.91038 0.0
O293 O 0.211 0.71083 0.92917 0.0
O294 O 0.32919 0.70967 0.97796 0.0
O295 O 0.37109 0.64357 0.957 0.0
O296 O 0.36601 0.5373 0.91832 0.0
O297 O 0.31521 0.61175 0.8964 0.0
C298 C 0.25839 0.61854 1.01544 0.0
C299 C 0.34787 0.56625 0.89308 0.0
Dy300 Dy 0.66987 0.09567 0.71921 0.0
C301 C 0.49455 0.96373 0.66235 0.0
C302 C 0.71297 0.17492 0.75844 0.0
Dy303 Dy 0.57546 0.02635 0.69247 0.0
O304 O 0.74345 0.14123 0.7412 0.0
O305 O 0.65996 0.16655 0.7531 0.0
O306 O 0.73631 0.03363 0.7034 0.0
O307 O 0.65463 0.00688 0.71359 0.0
C308 C 0.70038 0.99183 0.70196 0.0
C309 C 0.54448 0.12907 0.71313 0.0
O310 O 0.58237 0.98499 0.74197 0.0
O311 O 0.63413 0.05707 0.76481 0.0
O312 O 0.51904 0.00817 0.65051 0.0
O313 O 0.51682 0.95185 0.68995 0.0
O314 O 0.51394 0.084 0.71607 0.0
O315 O 0.58877 0.11743 0.69799 0.0
O316 O 0.67807 0.12295 0.66791 0.0
O317 O 0.63185 0.04331 0.64895 0.0
C318 C 0.60449 0.00976 0.76778 0.0
C319 C 0.66413 0.08895 0.64394 0.0
C320 C 0.45678 0.26462 0.1184 0.0
C321 C 0.44885 0.21327 0.13493 0.0
H322 H 0.51331 0.33271 0.10697 0.0
C323 C 0.49439 0.18967 0.15149 0.0
H324 H 0.42254 0.28366 0.1052 0.0
C325 C 0.54621 0.21809 0.15254 0.0
C326 C 0.55313 0.27069 0.13729 0.0
H327 H 0.48951 0.15019 0.16439 0.0
H328 H 0.5804 0.19983 0.16617 0.0
C329 C 0.50845 0.29316 0.11968 0.0
C330 C 0.54502 0.73823 0.39532 0.0
C331 C 0.51221 0.68883 0.39545 0.0
H332 H 0.54648 0.82823 0.39197 0.0
C333 C 0.45347 0.69339 0.39166 0.0
H334 H 0.59005 0.73634 0.39851 0.0
C335 C 0.42806 0.74632 0.3889 0.0
C336 C 0.46102 0.79564 0.38882 0.0
H337 H 0.42686 0.6561 0.3918 0.0
H338 H 0.38269 0.74871 0.38702 0.0
C339 C 0.51986 0.79094 0.39154 0.0
C340 C 0.04777 0.71355 0.64344 0.0
C341 C 0.05246 0.76956 0.63259 0.0
H342 H 0.99277 0.64526 0.65631 0.0
C343 C 0.00365 0.79809 0.62332 0.0
H344 H 0.08471 0.69074 0.65115 0.0
C345 C 0.9509 0.77136 0.6254 0.0
C346 C 0.94597 0.71607 0.63753 0.0
H347 H 0.00615 0.84111 0.61474 0.0
H348 H 0.91383 0.79471 0.61854 0.0
C349 C -0.00494 0.68737 0.6463 0.0
C350 C 0.06747 0.251 0.89208 0.0
C351 C 0.03495 0.20162 0.89457 0.0
H352 H 0.06822 0.34134 0.89322 0.0
C353 C 0.97708 0.20589 0.90117 0.0
H354 H 0.11208 0.2488 0.88707 0.0
C355 C 0.95228 0.25845 0.90559 0.0
C356 C 0.98441 0.308 0.90249 0.0
H357 H 0.95106 0.16838 0.90361 0.0
H358 H 0.90797 0.26022 0.91143 0.0
C359 C 0.04224 0.3038 0.89554 0.0
C360 C 0.52809 0.72052 0.99515 0.0
C361 C 0.53412 0.77293 0.97953 0.0
H362 H 0.47301 0.65162 1.00707 0.0
C363 C 0.48659 0.79781 0.96562 0.0
H364 H 0.56388 0.70052 1.00639 0.0
C365 C 0.43473 0.76943 0.96588 0.0
C366 C 0.42961 0.71559 0.97987 0.0
H367 H 0.48993 0.83816 0.95348 0.0
H368 H 0.39914 0.7886 0.95395 0.0
C369 C 0.4763 0.69205 0.99522 0.0
C370 C 0.55595 0.2344 0.71433 0.0
C371 C 0.52092 0.18651 0.71567 0.0
H372 H 0.56105 0.3246 0.71398 0.0
C373 C 0.46241 0.19389 0.718 0.0
H374 H 0.60108 0.23013 0.7122 0.0
C375 C 0.43932 0.24796 0.71792 0.0
C376 C 0.47423 0.29588 0.71657 0.0
H377 H 0.4342 0.15781 0.71889 0.0
H378 H 0.39417 0.25209 0.7187 0.0
C379 C 0.53291 0.28851 0.71531 0.0
C380 C 0.01251 0.28908 0.49442 0.0
C381 C 0.05824 0.26654 0.47788 0.0
H382 H 0.92572 0.27985 0.50717 0.0
C383 C 0.05237 0.21351 0.46328 0.0
H384 H 0.0165 0.3288 0.50679 0.0
C385 C 0.00049 0.18503 0.46361 0.0
C386 C 0.95381 0.20903 0.47877 0.0
H387 H 0.08733 0.1951 0.4505 0.0
H388 H -0.00357 0.14541 0.45098 0.0
C389 C 0.96079 0.26054 0.49496 0.0
C390 C 0.03009 0.73143 0.20839 0.0
C391 C -0.00186 0.68236 0.21393 0.0
H392 H 0.03187 0.82157 0.20755 0.0
C393 C 0.94142 0.68754 0.22313 0.0
H394 H 0.07351 0.72889 0.20077 0.0
C395 C 0.91692 0.74082 0.22606 0.0
C396 C 0.94919 0.78976 0.22079 0.0
H397 H 0.91563 0.6504 0.2274 0.0
H398 H 0.87293 0.74374 0.23246 0.0
C399 C 0.00615 0.78452 0.21228 0.0
C400 C 0.51186 0.01798 0.08529 0.0
C401 C 0.45846 0.99243 0.08714 0.0
H402 H 0.58387 0.03535 1.05613 0.0
C403 C 0.43637 0.96399 0.0605 0.0
H404 H 0.52931 0.04097 0.10546 0.0
C405 C 0.46698 0.96197 1.03211 0.0
C406 C 0.52008 0.98812 1.03015 0.0
H407 H 0.39477 0.94497 0.06122 0.0
H408 H 0.44949 0.93915 1.01188 0.0
C409 C 0.54241 0.01604 0.0569 0.0
C410 C 0.70573 0.77184 0.33737 0.0
C411 C 0.7279 0.71729 0.33679 0.0
H412 H 0.69108 0.84773 0.31089 0.0
C413 C 0.75047 0.69606 0.30829 0.0
H414 H 0.68701 0.78853 0.35901 0.0
C415 C 0.75112 0.72906 0.28069 0.0
C416 C 0.7299 0.78397 0.28135 0.0
H417 H 0.76665 0.65361 0.30713 0.0
H418 H 0.76987 0.71215 0.25912 0.0
C419 C 0.70681 0.8051 0.30976 0.0
C420 C 0.97371 0.9685 0.58526 0.0
C421 C 0.02509 -0.00223 0.58779 0.0
H422 H 0.9043 0.94643 0.55508 0.0
C423 C 0.04557 0.02916 0.5617 0.0
H424 H 0.95763 0.94335 0.60507 0.0
C425 C 0.0161 0.02939 0.53293 0.0
C426 C 0.96546 -0.00107 0.53012 0.0
H427 H 0.08565 0.05118 0.56295 0.0
H428 H 0.03262 0.05404 0.51304 0.0
C429 C 0.94411 0.9689 0.55651 0.0
C430 C 0.80784 0.23583 0.82166 0.0
C431 C 0.76914 0.26615 0.84009 0.0
H432 H 0.82034 0.18372 0.78049 0.0
C433 C 0.71244 0.26721 0.83115 0.0
H434 H 0.85201 0.23493 0.82807 0.0
C435 C 0.69469 0.23882 0.80378 0.0
C436 C 0.73342 0.20889 0.78516 0.0
H437 H 0.68211 0.29095 0.84483 0.0
H438 H 0.65056 0.24004 0.79731 0.0
C439 C 0.79005 0.2073 0.79428 0.0
C440 C 0.23611 0.29353 0.80696 0.0
C441 C 0.25829 0.27346 0.77809 0.0
H442 H 0.21575 0.27485 0.85574 0.0
C443 C 0.279 0.21839 0.77648 0.0
H444 H 0.22104 0.3363 0.80892 0.0
C445 C 0.27688 0.1835 0.80341 0.0
C446 C 0.25408 0.20344 0.83218 0.0
H447 H 0.29742 0.20251 0.75455 0.0
H448 H 0.29147 0.14056 0.80145 0.0
C449 C 0.23429 0.25883 0.83388 0.0
C450 C 0.19039 0.79295 0.3147 0.0
C451 C 0.24796 0.79577 0.3214 0.0
H452 H 0.12661 0.7585 0.28418 0.0
C453 C 0.28654 0.76858 0.30135 0.0
H454 H 0.1602 0.81441 0.32967 0.0
C455 C 0.26769 0.73749 0.27531 0.0
C456 C 0.21007 0.73308 0.26917 0.0
H457 H 0.33138 0.77081 0.30592 0.0
H458 H 0.29801 0.71544 0.26071 0.0
C459 C 0.17146 0.76166 0.28859 0.0
C460 C 0.97922 0.45216 0.53834 0.0
C461 C 0.0206 0.4897 0.52675 0.0
H462 H 0.92333 0.4311 0.57688 0.0
C463 C 0.03843 0.53502 0.54568 0.0
H464 H 0.96539 0.41641 0.52421 0.0
C465 C 0.01544 0.54246 0.576 0.0
C466 C 0.97418 0.50488 0.58761 0.0
H467 H 0.0712 0.56369 0.53752 0.0
H468 H 0.02894 0.57847 0.59006 0.0
C469 C 0.95632 0.45953 0.56873 0.0
C470 C 0.53544 0.5292 0.06756 0.0
C471 C 0.51519 0.48985 0.08997 0.0
H472 H 0.52707 0.56342 1.02032 0.0
C473 C 0.47011 0.454 0.08179 0.0
H474 H 0.57116 0.55619 0.07303 0.0
C475 C 0.44587 0.45707 1.05143 0.0
C476 C 0.46622 0.49633 1.02899 0.0
H477 H 0.45445 0.42265 0.09863 0.0
H478 H 0.41019 0.43004 1.04593 0.0
C479 C 0.51127 0.53221 1.03719 0.0
C480 C 0.19729 0.34553 0.20665 0.0
C481 C 0.22992 0.3313 0.1801 0.0
H482 H 0.15928 0.41211 0.23286 0.0
C483 C 0.25236 0.37417 0.16023 0.0
H484 H 0.18012 0.31324 0.22239 0.0
C485 C 0.24167 0.43064 0.1666 0.0
C486 C 0.20752 0.44467 0.19253 0.0
H487 H 0.2783 0.3641 0.1397 0.0
H488 H 0.2583 0.463 0.15071 0.0
C489 C 0.18568 0.40192 0.21261 0.0
C490 C 0.39935 0.4216 0.43949 0.0
C491 C 0.42825 0.45644 0.46124 0.0
H492 H 0.31918 0.39362 0.42197 0.0
C493 C 0.39791 0.48541 0.48477 0.0
H494 H 0.42178 0.39903 0.42101 0.0
C495 C 0.33929 0.48295 0.485 0.0
C496 C 0.31031 0.45132 0.4618 0.0
H497 H 0.41924 0.51267 0.50177 0.0
H498 H 0.31669 0.50706 0.50276 0.0
C499 C 0.34071 0.41922 0.4397 0.0
C500 C 0.21854 0.63092 0.70136 0.0
C501 C 0.26205 0.67066 0.69638 0.0
H502 H 0.19541 0.54348 0.70419 0.0
C503 C 0.3168 0.65199 0.69073 0.0
H504 H 0.17565 0.64427 0.70526 0.0
C505 C 0.32791 0.5944 0.69016 0.0
C506 C 0.28424 0.55475 0.69458 0.0
H507 H 0.35078 0.68178 0.68635 0.0
H508 H 0.37069 0.58077 0.68616 0.0
C509 C 0.22946 0.57332 0.70015 0.0
C510 C 0.08731 0.51726 0.986 0.0
C511 C 0.05865 0.54585 0.96144 0.0
H512 H 0.1669 0.49009 1.00398 0.0
C513 C 0.08957 0.57607 0.93826 0.0
H514 H 0.06445 0.49358 1.00415 0.0
C515 C 0.14813 0.57329 0.93788 0.0
C516 C 0.17642 0.54058 0.96079 0.0
H517 H 0.06848 0.59833 0.91901 0.0
H518 H 0.17107 0.59494 0.91896 0.0
C519 C 0.14582 0.5144 0.98556 0.0
C520 C 0.81814 0.58972 0.92427 0.0
C521 C 0.77631 0.5479 0.92077 0.0
H522 H 0.83689 0.678 0.9272 0.0
C523 C 0.72023 0.56353 0.91656 0.0
H524 H 0.86185 0.57841 0.92738 0.0
C525 C 0.70627 0.62049 0.9156 0.0
C526 C 0.74812 0.66234 0.91937 0.0
H527 H 0.68752 0.53195 0.91335 0.0
H528 H 0.66251 0.6317 0.91262 0.0
C529 C 0.80412 0.64655 0.92379 0.0
C530 C 0.59602 0.50637 0.63339 0.0
C531 C 0.56631 0.534 0.6577 0.0
H532 H 0.67672 0.48737 0.6137 0.0
C533 C 0.59555 0.56917 0.67914 0.0
H534 H 0.57444 0.47892 0.6166 0.0
C535 C 0.65408 0.57339 0.67774 0.0
C536 C 0.68402 0.54261 0.65483 0.0
H537 H 0.57359 0.59079 0.69817 0.0
H538 H 0.67597 0.59925 0.69521 0.0
C539 C 0.65453 0.51055 0.63202 0.0
C540 C 0.78182 0.36644 0.41766 0.0
C541 C 0.73963 0.32478 0.42088 0.0
H542 H 0.80139 0.45481 0.41633 0.0
C543 C 0.68375 0.3409 0.42545 0.0
H544 H 0.82548 0.35501 0.41459 0.0
C545 C 0.67018 0.39787 0.42649 0.0
C546 C 0.71239 0.43948 0.42347 0.0
H547 H 0.65071 0.30957 0.42845 0.0
H548 H 0.62655 0.40949 0.42953 0.0
C549 C 0.76835 0.42345 0.41921 0.0
C550 C 0.83785 0.47032 0.13158 0.0
C551 C 0.80694 0.44442 0.15631 0.0
H552 H 0.91946 0.49156 0.11354 0.0
C553 C 0.83496 0.41239 0.17965 0.0
H554 H 0.81698 0.49409 0.11286 0.0
C555 C 0.89354 0.41027 0.17982 0.0
C556 C 0.92469 0.44039 0.15672 0.0
H557 H 0.81176 0.39092 0.19853 0.0
H558 H 0.91436 0.38871 0.19942 0.0
C559 C 0.89639 0.46801 0.13166 0.0
C560 C 0.77866 0.85541 0.71098 0.0
C561 C 0.73542 0.81578 0.70508 0.0
H562 H 0.8021 0.94286 0.71339 0.0
C563 C 0.68146 0.83472 0.69742 0.0
H564 H 0.82098 0.84187 0.71648 0.0
C565 C 0.67095 0.89232 0.69555 0.0
C566 C 0.71438 0.93187 0.70081 0.0
H567 H 0.64772 0.80508 0.69231 0.0
H568 H 0.62875 0.90605 0.68988 0.0
C569 C 0.76832 0.9131 0.70859 0.0
C570 C 0.80993 0.00404 0.92338 0.0
C571 C 0.79513 0.95582 0.94085 0.0
H572 H 0.87655 0.05538 0.90508 0.0
C573 C 0.83767 0.92158 0.95388 0.0
H574 H 0.77798 0.03097 0.91314 0.0
C575 C 0.89439 0.93583 0.94969 0.0
C576 C 0.90899 0.98396 0.932 0.0
H577 H 0.82719 0.88404 0.96757 0.0
H578 H 0.92655 0.90908 0.95985 0.0
C579 C 0.86636 0.01783 0.91887 0.0
C580 C 0.72165 0.08048 0.20521 0.0
C581 C 0.77574 0.06112 0.19841 0.0
H582 H 0.6698 0.15177 0.21351 0.0
C583 C 0.8204 0.10006 0.19535 0.0
H584 H 0.68682 0.05122 0.20838 0.0
C585 C 0.81078 0.15779 0.19819 0.0
C586 C 0.7566 0.17716 0.20491 0.0
H587 H 0.86272 0.08577 0.19061 0.0
H588 H 0.84537 0.1872 0.19463 0.0
C589 C 0.71229 0.13797 0.20879 0.0
C590 C 0.66962 0.97493 0.44649 0.0
C591 C 0.68879 0.03056 0.44328 0.0
H592 H 0.59833 0.91998 0.44998 0.0
C593 C 0.64982 0.07458 0.44116 0.0
H594 H 0.69895 0.94049 0.44872 0.0
C595 C 0.59219 0.063 0.44178 0.0
C596 C 0.57303 0.00736 0.44525 0.0
H597 H 0.66399 0.11795 0.43904 0.0
H598 H 0.56277 0.0973 0.43929 0.0
C599 C 0.61212 0.96347 0.44782 0.0
C600 C 0.3179 0.16005 0.41878 0.0
C601 C 0.26436 0.17985 0.41077 0.0
H602 H 0.3693 0.08756 0.42651 0.0
C603 C 0.22049 0.14093 0.40498 0.0
H604 H 0.35209 0.18919 0.42383 0.0
C605 C 0.22967 0.08321 0.4078 0.0
C606 C 0.28316 0.06346 0.41578 0.0
H607 H 0.17845 0.15505 0.39923 0.0
H608 H 0.19531 0.05415 0.40299 0.0
C609 C 0.32738 0.10217 0.42089 0.0
C610 C 0.0833 0.06117 0.16908 0.0
C611 C 0.0664 0.00453 0.16886 0.0
H612 H 0.15286 0.11922 0.16899 0.0
C613 C 0.10733 0.96212 0.16976 0.0
H614 H 0.05246 0.09447 0.16887 0.0
C615 C 0.16438 0.97611 0.17093 0.0
C616 C 0.18131 0.03271 0.17056 0.0
H617 H 0.0953 0.91798 0.17016 0.0
H618 H 0.19511 0.94272 0.17124 0.0
C619 C 0.14047 0.07517 0.16957 0.0
C620 C 0.25901 0.90362 0.90589 0.0
C621 C 0.20381 0.92215 0.91 0.0
H622 H 0.31339 0.83313 0.90184 0.0
C623 C 0.15969 0.88246 0.91232 0.0
H624 H 0.29355 0.93344 0.90345 0.0
C625 C 0.17099 0.82477 0.91172 0.0
C626 C 0.22637 0.80626 0.90788 0.0
H627 H 0.11661 0.8961 0.91511 0.0
H628 H 0.13676 0.79479 0.91483 0.0
C629 C 0.2701 0.84619 0.90442 0.0
C630 C 0.40605 0.91151 0.67418 0.0
C631 C 0.43739 0.94618 0.6533 0.0
H632 H 0.32406 0.88317 0.68853 0.0
C633 C 0.41009 0.97366 0.62786 0.0
H634 H 0.42614 0.88994 0.69402 0.0
C635 C 0.35171 0.97037 0.62499 0.0
C636 C 0.32002 0.93942 0.64746 0.0
H637 H 0.43336 0.00066 0.61144 0.0
H638 H 0.33128 0.99371 0.60593 0.0
C639 C 0.34766 0.90828 0.67132 0.0
C640 C 0.26977 0.10655 1.03159 0.0
C641 C 0.23698 0.11554 0.05907 0.0
H642 H 0.27173 0.08997 0.98123 0.0
C643 C 0.17784 0.11291 1.0559 0.0
H644 H 0.31527 0.10774 1.03306 0.0
C645 C 0.15242 0.1012 1.0259 0.0
C646 C 0.18566 0.09318 0.99837 0.0
H647 H 0.15128 0.11878 0.07671 0.0
H648 H 0.10699 0.09956 1.02414 0.0
C649 C 0.2446 0.09617 1.00178 0.0
C650 C 0.61203 0.49937 0.26081 0.0
C651 C 0.62571 0.44198 0.25747 0.0
H652 H 0.59364 0.56785 0.29247 0.0
C653 C 0.62734 0.40873 0.28561 0.0
H654 H 0.61048 0.52675 0.23996 0.0
C655 C 0.61592 0.43245 0.31605 0.0
C656 C 0.60389 0.4903 0.3192 0.0
H657 H 0.63753 0.36445 0.28414 0.0
H658 H 0.61877 0.40601 0.33725 0.0
C659 C 0.60208 0.52316 0.29107 0.0
C660 C 0.22208 0.85456 0.53035 0.0
C661 C 0.25381 0.85853 0.55874 0.0
H662 H 0.22046 0.86182 0.4791 0.0
C663 C 0.31126 0.87332 0.55617 0.0
H664 H 0.1777 0.84395 0.53141 0.0
C665 C 0.33567 0.88568 0.52596 0.0
C666 C 0.30358 0.8818 0.49758 0.0
H667 H 0.33676 0.8776 0.57759 0.0
H668 H 0.37957 0.89815 0.52483 0.0
C669 C 0.24672 0.8651 0.5003 0.0
C670 C 0.86382 0.58361 0.7845 0.0
C671 C 0.86442 0.54996 0.75669 0.0
H672 H 0.87297 0.58684 0.83603 0.0
C673 C 0.87644 0.49225 0.76045 0.0
H674 H 0.85493 0.62816 0.78263 0.0
C675 C 0.88576 0.46853 0.79093 0.0
C676 C 0.88514 0.5019 0.81873 0.0
H677 H 0.8771 0.46473 0.73977 0.0
H678 H 0.89297 0.42364 0.79279 0.0
C679 C 0.87479 0.56001 0.81509 0.0
C680 C 0.73247 0.87339 0.10938 0.0
C681 C 0.79056 0.88485 0.11202 0.0
H682 H 0.66244 0.85498 0.07857 0.0
C683 C 0.82338 0.88268 0.08391 0.0
H684 H 0.70566 0.87476 0.13038 0.0
C685 C 0.79844 0.86936 1.05401 0.0
C686 C 0.74 0.8593 1.05153 0.0
H687 H 0.86822 0.89086 0.08506 0.0
H688 H 0.82446 0.86914 1.03268 0.0
C689 C 0.70756 0.86163 0.07964 0.0
C690 C 0.36198 0.57727 0.83238 0.0
C691 C 0.36198 0.54353 0.86035 0.0
H692 H 0.37333 0.58087 0.78096 0.0
C693 C 0.37582 0.4862 0.85698 0.0
H694 H 0.35176 0.62153 0.8339 0.0
C695 C 0.38741 0.4629 0.82679 0.0
C696 C 0.38717 0.49626 0.79882 0.0
H697 H 0.37618 0.4585 0.87772 0.0
H698 H 0.3958 0.41821 0.82528 0.0
C699 C 0.37505 0.55406 0.80205 0.0
C700 C 0.69743 0.05601 0.58969 0.0
C701 C 0.6883 0.10042 0.61122 0.0
H702 H 0.73209 0.03011 0.54457 0.0
C703 C 0.70498 0.15529 0.60164 0.0
H704 H 0.68558 0.01327 0.59616 0.0
C705 C 0.73051 0.16523 0.57148 0.0
C706 C 0.74139 0.12026 0.55063 0.0
H707 H 0.69853 0.1906 0.61755 0.0
H708 H 0.74349 0.20763 0.56499 0.0
C709 C 0.72427 0.06569 0.5601 0.0
C710 C 0.12204 0.50094 0.35604 0.0
C711 C 0.12892 0.4424 0.3599 0.0
H712 H 0.10738 0.57008 0.3238 0.0
C713 C 0.12214 0.40806 0.33265 0.0
H714 H 0.12696 0.52885 0.37638 0.0
C715 C 0.10878 0.43182 0.30244 0.0
C716 C 0.10372 0.49067 0.29852 0.0
H717 H 0.12663 0.36283 0.33474 0.0
H718 H 0.10419 0.4042 0.28198 0.0
C719 C 0.11056 0.52471 0.32582 0.0
C720 C 0.74437 0.62006 0.51021 0.0
C721 C 0.68707 0.60475 0.5081 0.0
H722 H 0.81495 0.63948 0.54055 0.0
C723 C 0.65601 0.60126 0.53688 0.0
H724 H 0.76982 0.62309 0.48869 0.0
C725 C 0.68174 0.61294 0.56682 0.0
C726 C 0.73957 0.62651 0.56881 0.0
H727 H 0.61178 0.58996 0.53623 0.0
H728 H 0.65684 0.60933 0.58849 0.0
C729 C 0.77034 0.62977 0.54002 0.0
C730 C 0.1324 0.907 0.77452 0.0
C731 C 0.13809 0.94026 0.74661 0.0
H732 H 0.11608 0.90549 0.82546 0.0
C733 C 0.1302 -0.00115 0.74931 0.0
H734 H 0.13786 0.86182 0.77335 0.0
C735 C 0.11823 0.02369 0.77891 0.0
C736 C 0.11246 0.99079 0.8068 0.0
H737 H 0.13437 0.0261 0.7285 0.0
H738 H 0.11408 0.06906 0.78001 0.0
C739 C 0.11914 0.93197 0.80427 0.0
C740 C 0.80599 0.33739 1.02382 0.0
C741 C 0.81094 0.39165 1.00996 0.0
H742 H 0.7763 0.28703 0.06386 0.0
C743 C 0.78842 0.43722 1.02695 0.0
H744 H 0.82274 0.30127 1.01139 0.0
C745 C 0.7601 0.42869 1.05624 0.0
C746 C 0.75517 0.37466 0.0702 0.0
H747 H 0.79087 0.47941 1.017 0.0
H748 H 0.74196 0.46473 0.06809 0.0
C749 C 0.77946 0.32916 1.0539 0.0
C750 C 0.41876 0.02836 0.29048 0.0
C751 C 0.37494 0.02486 0.31295 0.0
H752 H 0.44377 0.05349 0.2429 0.0
C753 C 0.32349 0.05099 0.30538 0.0
H754 H 0.45857 0.00825 0.29541 0.0
C755 C 0.31522 0.07803 0.27561 0.0
C756 C 0.35775 0.07835 0.25223 0.0
H757 H 0.28877 0.04879 0.3222 0.0
H758 H 0.27434 0.09543 0.27017 0.0
C759 C 0.41004 0.0542 0.26036 0.0
C760 C 0.24896 0.37423 0.60599 0.0
C761 C 0.30616 0.38957 0.60858 0.0
H762 H 0.17935 0.35436 0.57511 0.0
C763 C 0.33808 0.39299 0.58011 0.0
H764 H 0.22289 0.37119 0.62726 0.0
C765 C 0.31321 0.38119 0.54997 0.0
C766 C 0.25548 0.36747 0.54751 0.0
H767 H 0.3823 0.40421 0.58117 0.0
H768 H 0.33872 0.38467 0.52851 0.0
C769 C 0.22391 0.36425 0.576 0.0
C770 C 0.86472 0.99404 0.35885 0.0
C771 C 0.85643 0.05262 0.36118 0.0
H772 H 0.87785 0.9227 0.32847 0.0
C773 C 0.8583 0.08477 0.33268 0.0
H774 H 0.86331 0.96765 0.38014 0.0
C775 C 0.86855 0.05868 0.30276 0.0
C776 C 0.87576 -0.00019 0.30068 0.0
H777 H 0.8524 0.12991 0.33354 0.0
H778 H 0.86875 0.08425 0.28115 0.0
C779 C 0.87344 0.96807 0.32916 0.0
C780 C 0.17016 0.64873 0.09052 0.0
C781 C 0.16712 0.59514 0.10534 0.0
H782 H 0.19945 0.69819 1.05006 0.0
C783 C 0.19252 0.54974 0.08961 0.0
H784 H 0.15127 0.68471 0.10204 0.0
C785 C 0.22187 0.55798 0.06063 0.0
C786 C 0.22509 0.61143 1.04579 0.0
H787 H 0.19167 0.50811 0.10038 0.0
H788 H 0.24222 0.5222 1.04973 0.0
C789 C 0.19777 0.65655 0.06076 0.0
C790 C 0.61126 0.98737 0.85798 0.0
C791 C 0.62568 0.93011 0.86098 0.0
H792 H 0.5935 0.05687 0.82658 0.0
C793 C 0.62955 0.89799 0.83272 0.0
H794 H 0.60818 0.01374 0.87906 0.0
C795 C 0.61917 0.92276 0.80235 0.0
C796 C 0.60614 0.98047 0.7996 0.0
H797 H 0.64039 0.85384 0.83408 0.0
H798 H 0.62362 0.89738 0.78096 0.0
C799 C 0.6025 0.01225 0.82783 0.0
loop_
_geom_bond_atom_site_label_1
_geom_bond_atom_site_label_2
_geom_bond_distance
_geom_bond_site_symmetry_2
_ccdc_geom_bond_type
Dy0 O4 2.398 . S
Dy0 O5 2.491 . S
Dy0 O6 2.403 . S
Dy0 O7 2.664 . S
Dy0 O11 2.326 . S
Dy0 O15 2.310 . S
Dy0 O16 2.351 . S
C1 O12 1.189 . S
C1 O13 1.345 1_565 S
C2 O4 1.185 . S
C2 O5 1.355 . S
Dy3 O7 2.310 . S
Dy3 O10 2.351 . S
Dy3 O12 2.398 1_545 S
Dy3 O13 2.491 . S
Dy3 O14 2.403 . S
Dy3 O15 2.664 . S
Dy3 O17 2.326 . S
O4 Dy0 2.398 . S
O4 C2 1.185 . S
O5 Dy0 2.491 . S
O5 C2 1.355 . S
O6 Dy0 2.403 . S
O6 C8 1.254 . S
O7 Dy0 2.664 . S
O7 Dy3 2.310 . S
O7 C8 1.268 . S
C8 O6 1.254 . S
C8 O7 1.268 . S
C9 O14 1.254 . S
C9 O15 1.268 . S
O10 Dy3 2.351 . S
O10 C18 1.249 . S
O11 Dy0 2.326 . S
O11 C18 1.267 . S
O12 C1 1.189 . S
O12 Dy3 2.398 1_565 S
O13 C1 1.345 1_545 S
O13 Dy3 2.491 . S
O14 Dy3 2.403 . S
O14 C9 1.254 . S
O15 Dy0 2.310 . S
O15 Dy3 2.664 . S
O15 C9 1.268 . S
O16 Dy0 2.351 . S
O16 C19 1.249 . S
O17 Dy3 2.326 . S
O17 C19 1.267 . S
C18 O10 1.249 . S
C18 O11 1.267 . S
C19 O16 1.249 . S
C19 O17 1.267 . S
Dy20 O24 2.398 . S
Dy20 O25 2.491 . S
Dy20 O26 2.403 . S
Dy20 O27 2.664 . S
Dy20 O31 2.326 . S
Dy20 O35 2.310 . S
Dy20 O36 2.351 . S
C21 O32 1.185 . S
C21 O33 1.355 . S
C22 O24 1.185 . S
C22 O25 1.355 . S
Dy23 O27 2.310 . S
Dy23 O30 2.351 . S
Dy23 O32 2.398 . S
Dy23 O33 2.491 . S
Dy23 O34 2.403 . S
Dy23 O35 2.664 . S
Dy23 O37 2.326 . S
O24 Dy20 2.398 . S
O24 C22 1.185 . S
O25 Dy20 2.491 . S
O25 C22 1.355 . S
O26 Dy20 2.403 . S
O26 C28 1.254 . S
O27 Dy20 2.664 . S
O27 Dy23 2.310 . S
O27 C28 1.268 . S
C28 O26 1.254 . S
C28 O27 1.268 . S
C29 O34 1.254 . S
C29 O35 1.268 . S
O30 Dy23 2.351 . S
O30 C38 1.249 . S
O31 Dy20 2.326 . S
O31 C38 1.267 . S
O32 C21 1.185 . S
O32 Dy23 2.398 . S
O33 C21 1.355 . S
O33 Dy23 2.491 . S
O34 Dy23 2.403 . S
O34 C29 1.254 . S
O35 Dy20 2.310 . S
O35 Dy23 2.664 . S
O35 C29 1.268 . S
O36 Dy20 2.351 . S
O36 C39 1.249 . S
O37 Dy23 2.326 . S
O37 C39 1.267 . S
C38 O30 1.249 . S
C38 O31 1.267 . S
C39 O36 1.249 . S
C39 O37 1.267 . S
Dy40 O44 2.398 . S
Dy40 O45 2.491 . S
Dy40 O46 2.403 . S
Dy40 O47 2.664 . S
Dy40 O51 2.326 . S
Dy40 O55 2.310 . S
Dy40 O56 2.351 . S
C41 O52 1.189 . S
C41 O53 1.345 1_545 S
C42 O44 1.185 . S
C42 O45 1.355 . S
Dy43 O47 2.310 . S
Dy43 O50 2.351 . S
Dy43 O52 2.398 1_565 S
Dy43 O53 2.491 . S
Dy43 O54 2.403 . S
Dy43 O55 2.664 . S
Dy43 O57 2.326 . S
O44 Dy40 2.398 . S
O44 C42 1.185 . S
O45 Dy40 2.491 . S
O45 C42 1.355 . S
O46 Dy40 2.403 . S
O46 C48 1.254 . S
O47 Dy40 2.664 . S
O47 Dy43 2.310 . S
O47 C48 1.268 . S
C48 O46 1.254 . S
C48 O47 1.268 . S
C49 O54 1.254 . S
C49 O55 1.268 . S
O50 Dy43 2.351 . S
O50 C58 1.249 . S
O51 Dy40 2.326 . S
O51 C58 1.267 . S
O52 C41 1.189 . S
O52 Dy43 2.398 1_545 S
O53 C41 1.345 1_565 S
O53 Dy43 2.491 . S
O54 Dy43 2.403 . S
O54 C49 1.254 . S
O55 Dy40 2.310 . S
O55 Dy43 2.664 . S
O55 C49 1.268 . S
O56 Dy40 2.351 . S
O56 C59 1.249 . S
O57 Dy43 2.326 . S
O57 C59 1.267 . S
C58 O50 1.249 . S
C58 O51 1.267 . S
C59 O56 1.249 . S
C59 O57 1.267 . S
Dy60 O64 2.398 1_655 S
Dy60 O65 2.491 . S
Dy60 O66 2.401 1_655 S
Dy60 O67 2.664 . S
Dy60 O71 2.326 . S
Dy60 O75 2.310 . S
Dy60 O76 2.351 . S
C61 O72 1.185 . S
C61 O73 1.355 . S
C62 O64 1.185 . S
C62 O65 1.355 1_455 S
Dy63 O67 2.310 . S
Dy63 O70 2.351 . S
Dy63 O72 2.398 . S
Dy63 O73 2.491 . S
Dy63 O74 2.403 . S
Dy63 O75 2.664 . S
Dy63 O77 2.326 . S
O64 Dy60 2.398 1_455 S
O64 C62 1.185 . S
O65 Dy60 2.491 . S
O65 C62 1.355 1_655 S
O66 Dy60 2.401 1_455 S
O66 C68 1.250 1_455 S
O67 Dy60 2.664 . S
O67 Dy63 2.310 . S
O67 C68 1.268 . S
C68 O66 1.250 1_655 S
C68 O67 1.268 . S
C69 O74 1.254 . S
C69 O75 1.268 . S
O70 Dy63 2.351 . S
O70 C78 1.249 . S
O71 Dy60 2.326 . S
O71 C78 1.267 . S
O72 C61 1.185 . S
O72 Dy63 2.398 . S
O73 C61 1.355 . S
O73 Dy63 2.491 . S
O74 Dy63 2.403 . S
O74 C69 1.254 . S
O75 Dy60 2.310 . S
O75 Dy63 2.664 . S
O75 C69 1.268 . S
O76 Dy60 2.351 . S
O76 C79 1.249 . S
O77 Dy63 2.326 . S
O77 C79 1.267 . S
C78 O70 1.249 . S
C78 O71 1.267 . S
C79 O76 1.249 . S
C79 O77 1.267 . S
Dy80 O84 2.398 1_565 S
Dy80 O85 2.491 . S
Dy80 O86 2.403 . S
Dy80 O87 2.664 . S
Dy80 O91 2.326 . S
Dy80 O95 2.310 . S
Dy80 O96 2.351 . S
C81 O92 1.185 . S
C81 O93 1.355 . S
C82 O84 1.189 . S
C82 O85 1.345 1_545 S
Dy83 O87 2.310 . S
Dy83 O90 2.351 . S
Dy83 O92 2.398 . S
Dy83 O93 2.491 . S
Dy83 O94 2.403 . S
Dy83 O95 2.664 . S
Dy83 O97 2.326 . S
O84 Dy80 2.398 1_545 S
O84 C82 1.189 . S
O85 Dy80 2.491 . S
O85 C82 1.345 1_565 S
O86 Dy80 2.403 . S
O86 C88 1.254 . S
O87 Dy80 2.664 . S
O87 Dy83 2.310 . S
O87 C88 1.268 . S
C88 O86 1.254 . S
C88 O87 1.268 . S
C89 O94 1.254 . S
C89 O95 1.268 . S
O90 Dy83 2.351 . S
O90 C98 1.249 . S
O91 Dy80 2.326 . S
O91 C98 1.267 . S
O92 C81 1.185 . S
O92 Dy83 2.398 . S
O93 C81 1.355 . S
O93 Dy83 2.491 . S
O94 Dy83 2.403 . S
O94 C89 1.254 . S
O95 Dy80 2.310 . S
O95 Dy83 2.664 . S
O95 C89 1.268 . S
O96 Dy80 2.351 . S
O96 C99 1.249 . S
O97 Dy83 2.326 . S
O97 C99 1.267 . S
C98 O90 1.249 . S
C98 O91 1.267 . S
C99 O96 1.249 . S
C99 O97 1.267 . S
Dy100 O104 2.398 . S
Dy100 O105 2.491 . S
Dy100 O106 2.403 . S
Dy100 O107 2.664 . S
Dy100 O111 2.326 . S
Dy100 O115 2.310 . S
Dy100 O116 2.351 . S
C101 O112 1.185 . S
C101 O113 1.355 . S
C102 O104 1.185 . S
C102 O105 1.355 . S
Dy103 O107 2.310 . S
Dy103 O110 2.351 . S
Dy103 O112 2.398 . S
Dy103 O113 2.491 . S
Dy103 O114 2.403 . S
Dy103 O115 2.664 . S
Dy103 O117 2.326 . S
O104 Dy100 2.398 . S
O104 C102 1.185 . S
O105 Dy100 2.491 . S
O105 C102 1.355 . S
O106 Dy100 2.403 . S
O106 C108 1.254 . S
O107 Dy100 2.664 . S
O107 Dy103 2.310 . S
O107 C108 1.268 . S
C108 O106 1.254 . S
C108 O107 1.268 . S
C109 O114 1.254 . S
C109 O115 1.268 . S
O110 Dy103 2.351 . S
O110 C118 1.249 . S
O111 Dy100 2.326 . S
O111 C118 1.267 . S
O112 C101 1.185 . S
O112 Dy103 2.398 . S
O113 C101 1.355 . S
O113 Dy103 2.491 . S
O114 Dy103 2.403 . S
O114 C109 1.254 . S
O115 Dy100 2.310 . S
O115 Dy103 2.664 . S
O115 C109 1.268 . S
O116 Dy100 2.351 . S
O116 C119 1.249 . S
O117 Dy103 2.326 . S
O117 C119 1.267 . S
C118 O110 1.249 . S
C118 O111 1.267 . S
C119 O116 1.249 . S
C119 O117 1.267 . S
Dy120 O124 2.398 1_545 S
Dy120 O125 2.491 . S
Dy120 O126 2.403 . S
Dy120 O127 2.664 . S
Dy120 O131 2.326 . S
Dy120 O135 2.310 . S
Dy120 O136 2.351 . S
C121 O132 1.185 . S
C121 O133 1.355 . S
C122 O124 1.189 . S
C122 O125 1.345 1_565 S
Dy123 O127 2.310 . S
Dy123 O130 2.351 . S
Dy123 O132 2.398 . S
Dy123 O133 2.491 . S
Dy123 O134 2.403 . S
Dy123 O135 2.664 . S
Dy123 O137 2.326 . S
O124 Dy120 2.398 1_565 S
O124 C122 1.189 . S
O125 Dy120 2.491 . S
O125 C122 1.345 1_545 S
O126 Dy120 2.403 . S
O126 C128 1.254 . S
O127 Dy120 2.664 . S
O127 Dy123 2.310 . S
O127 C128 1.268 . S
C128 O126 1.254 . S
C128 O127 1.268 . S
C129 O134 1.254 . S
C129 O135 1.268 . S
O130 Dy123 2.351 . S
O130 C138 1.249 . S
O131 Dy120 2.326 . S
O131 C138 1.267 . S
O132 C121 1.185 . S
O132 Dy123 2.398 . S
O133 C121 1.355 . S
O133 Dy123 2.491 . S
O134 Dy123 2.403 . S
O134 C129 1.254 . S
O135 Dy120 2.310 . S
O135 Dy123 2.664 . S
O135 C129 1.268 . S
O136 Dy120 2.351 . S
O136 C139 1.249 . S
O137 Dy123 2.326 . S
O137 C139 1.267 . S
C138 O130 1.249 . S
C138 O131 1.267 . S
C139 O136 1.249 . S
C139 O137 1.267 . S
Dy140 O144 2.398 . S
Dy140 O145 2.491 . S
Dy140 O146 2.403 . S
Dy140 O147 2.664 . S
Dy140 O151 2.326 . S
Dy140 O155 2.310 . S
Dy140 O156 2.351 . S
C141 O152 1.185 . S
C141 O153 1.355 1_655 S
C142 O144 1.185 . S
C142 O145 1.355 . S
Dy143 O147 2.310 . S
Dy143 O150 2.351 . S
Dy143 O152 2.398 1_455 S
Dy143 O153 2.491 . S
Dy143 O154 2.401 1_455 S
Dy143 O155 2.664 . S
Dy143 O157 2.326 . S
O144 Dy140 2.398 . S
O144 C142 1.185 . S
O145 Dy140 2.491 . S
O145 C142 1.355 . S
O146 Dy140 2.403 . S
O146 C148 1.254 . S
O147 Dy140 2.664 . S
O147 Dy143 2.310 . S
O147 C148 1.268 . S
C148 O146 1.254 . S
C148 O147 1.268 . S
C149 O154 1.250 1_455 S
C149 O155 1.268 . S
O150 Dy143 2.351 . S
O150 C158 1.249 . S
O151 Dy140 2.326 . S
O151 C158 1.267 . S
O152 C141 1.185 . S
O152 Dy143 2.398 1_655 S
O153 C141 1.355 1_455 S
O153 Dy143 2.491 . S
O154 Dy143 2.401 1_655 S
O154 C149 1.250 1_655 S
O155 Dy140 2.310 . S
O155 Dy143 2.664 . S
O155 C149 1.268 . S
O156 Dy140 2.351 . S
O156 C159 1.249 . S
O157 Dy143 2.326 . S
O157 C159 1.267 . S
C158 O150 1.249 . S
C158 O151 1.267 . S
C159 O156 1.249 . S
C159 O157 1.267 . S
Dy160 O164 2.398 . S
Dy160 O165 2.491 . S
Dy160 O166 2.403 . S
Dy160 O167 2.664 . S
Dy160 O171 2.326 . S
Dy160 O175 2.310 . S
Dy160 O176 2.351 . S
C161 O172 1.185 . S
C161 O173 1.355 . S
C162 O164 1.185 . S
C162 O165 1.355 . S
Dy163 O167 2.310 . S
Dy163 O170 2.351 . S
Dy163 O172 2.398 . S
Dy163 O173 2.491 . S
Dy163 O174 2.403 . S
Dy163 O175 2.664 . S
Dy163 O177 2.326 . S
O164 Dy160 2.398 . S
O164 C162 1.185 . S
O165 Dy160 2.491 . S
O165 C162 1.355 . S
O166 Dy160 2.403 . S
O166 C168 1.254 . S
O167 Dy160 2.664 . S
O167 Dy163 2.310 . S
O167 C168 1.268 . S
C168 O166 1.254 . S
C168 O167 1.268 . S
C169 O174 1.254 . S
C169 O175 1.268 . S
O170 Dy163 2.351 . S
O170 C178 1.249 . S
O171 Dy160 2.326 . S
O171 C178 1.267 . S
O172 C161 1.185 . S
O172 Dy163 2.398 . S
O173 C161 1.355 . S
O173 Dy163 2.491 . S
O174 Dy163 2.403 . S
O174 C169 1.254 . S
O175 Dy160 2.310 . S
O175 Dy163 2.664 . S
O175 C169 1.268 . S
O176 Dy160 2.351 . S
O176 C179 1.249 . S
O177 Dy163 2.326 . S
O177 C179 1.267 . S
C178 O170 1.249 . S
C178 O171 1.267 . S
C179 O176 1.249 . S
C179 O177 1.267 . S
Dy180 O184 2.398 1_455 S
Dy180 O185 2.491 1_545 S
Dy180 O186 2.401 1_455 S
Dy180 O187 2.664 . S
Dy180 O191 2.326 . S
Dy180 O195 2.310 . S
Dy180 O196 2.351 . S
C181 O192 1.185 . S
C181 O193 1.355 . S
C182 O184 1.185 1_565 S
C182 O185 1.355 1_655 S
Dy183 O187 2.310 . S
Dy183 O190 2.351 . S
Dy183 O192 2.398 . S
Dy183 O193 2.491 . S
Dy183 O194 2.403 . S
Dy183 O195 2.664 . S
Dy183 O197 2.326 . S
O184 Dy180 2.398 1_655 S
O184 C182 1.185 1_545 S
O185 Dy180 2.491 1_565 S
O185 C182 1.355 1_455 S
O186 Dy180 2.401 1_655 S
O186 C188 1.250 1_655 S
O187 Dy180 2.664 . S
O187 Dy183 2.310 . S
O187 C188 1.268 . S
C188 O186 1.250 1_455 S
C188 O187 1.268 . S
C189 O194 1.254 1_565 S
C189 O195 1.268 1_565 S
O190 Dy183 2.351 . S
O190 C198 1.249 . S
O191 Dy180 2.326 . S
O191 C198 1.267 . S
O192 C181 1.185 . S
O192 Dy183 2.398 . S
O193 C181 1.355 . S
O193 Dy183 2.491 . S
O194 Dy183 2.403 . S
O194 C189 1.254 1_545 S
O195 Dy180 2.310 . S
O195 Dy183 2.664 . S
O195 C189 1.268 1_545 S
O196 Dy180 2.351 . S
O196 C199 1.249 . S
O197 Dy183 2.326 . S
O197 C199 1.267 . S
C198 O190 1.249 . S
C198 O191 1.267 . S
C199 O196 1.249 . S
C199 O197 1.267 . S
Dy200 O204 2.398 . S
Dy200 O205 2.491 . S
Dy200 O206 2.403 . S
Dy200 O207 2.664 . S
Dy200 O211 2.326 . S
Dy200 O215 2.310 . S
Dy200 O216 2.351 . S
C201 O212 1.185 . S
C201 O213 1.355 . S
C202 O204 1.185 . S
C202 O205 1.355 . S
Dy203 O207 2.310 . S
Dy203 O210 2.351 . S
Dy203 O212 2.398 . S
Dy203 O213 2.491 . S
Dy203 O214 2.403 . S
Dy203 O215 2.664 . S
Dy203 O217 2.326 . S
O204 Dy200 2.398 . S
O204 C202 1.185 . S
O205 Dy200 2.491 . S
O205 C202 1.355 . S
O206 Dy200 2.403 . S
O206 C208 1.254 . S
O207 Dy200 2.664 . S
O207 Dy203 2.310 . S
O207 C208 1.268 . S
C208 O206 1.254 . S
C208 O207 1.268 . S
C209 O214 1.254 . S
C209 O215 1.268 . S
O210 Dy203 2.351 . S
O210 C218 1.249 . S
O211 Dy200 2.326 . S
O211 C218 1.267 . S
O212 C201 1.185 . S
O212 Dy203 2.398 . S
O213 C201 1.355 . S
O213 Dy203 2.491 . S
O214 Dy203 2.403 . S
O214 C209 1.254 . S
O215 Dy200 2.310 . S
O215 Dy203 2.664 . S
O215 C209 1.268 . S
O216 Dy200 2.351 . S
O216 C219 1.249 . S
O217 Dy203 2.326 . S
O217 C219 1.267 . S
C218 O210 1.249 . S
C218 O211 1.267 . S
C219 O216 1.249 . S
C219 O217 1.267 . S
Dy220 O224 2.398 . S
Dy220 O225 2.491 1_565 S
Dy220 O226 2.403 . S
Dy220 O227 2.664 . S
Dy220 O231 2.326 . S
Dy220 O235 2.310 . S
Dy220 O236 2.351 . S
C221 O232 1.185 . S
C221 O233 1.355 . S
C222 O224 1.185 1_545 S
C222 O225 1.355 . S
Dy223 O227 2.310 . S
Dy223 O230 2.351 . S
Dy223 O232 2.398 . S
Dy223 O233 2.491 . S
Dy223 O234 2.403 . S
Dy223 O235 2.664 . S
Dy223 O237 2.326 . S
O224 Dy220 2.398 . S
O224 C222 1.185 1_565 S
O225 Dy220 2.491 1_545 S
O225 C222 1.355 . S
O226 Dy220 2.403 . S
O226 C228 1.254 . S
O227 Dy220 2.664 . S
O227 Dy223 2.310 . S
O227 C228 1.268 . S
C228 O226 1.254 . S
C228 O227 1.268 . S
C229 O234 1.254 1_545 S
C229 O235 1.268 1_545 S
O230 Dy223 2.351 . S
O230 C238 1.249 . S
O231 Dy220 2.326 . S
O231 C238 1.267 . S
O232 C221 1.185 . S
O232 Dy223 2.398 . S
O233 C221 1.355 . S
O233 Dy223 2.491 . S
O234 Dy223 2.403 . S
O234 C229 1.254 1_565 S
O235 Dy220 2.310 . S
O235 Dy223 2.664 . S
O235 C229 1.268 1_565 S
O236 Dy220 2.351 . S
O236 C239 1.249 . S
O237 Dy223 2.326 . S
O237 C239 1.267 . S
C238 O230 1.249 . S
C238 O231 1.267 . S
C239 O236 1.249 . S
C239 O237 1.267 . S
Dy240 O244 2.398 . S
Dy240 O245 2.491 . S
Dy240 O246 2.403 . S
Dy240 O247 2.664 . S
Dy240 O251 2.326 . S
Dy240 O255 2.310 . S
Dy240 O256 2.351 . S
C241 O252 1.185 . S
C241 O253 1.355 . S
C242 O244 1.185 . S
C242 O245 1.355 . S
Dy243 O247 2.310 . S
Dy243 O250 2.351 . S
Dy243 O252 2.398 . S
Dy243 O253 2.491 . S
Dy243 O254 2.403 . S
Dy243 O255 2.664 . S
Dy243 O257 2.326 . S
O244 Dy240 2.398 . S
O244 C242 1.185 . S
O245 Dy240 2.491 . S
O245 C242 1.355 . S
O246 Dy240 2.403 . S
O246 C248 1.254 . S
O247 Dy240 2.664 . S
O247 Dy243 2.310 . S
O247 C248 1.268 . S
C248 O246 1.254 . S
C248 O247 1.268 . S
C249 O254 1.254 . S
C249 O255 1.268 . S
O250 Dy243 2.351 . S
O250 C258 1.249 . S
O251 Dy240 2.326 . S
O251 C258 1.267 . S
O252 C241 1.185 . S
O252 Dy243 2.398 . S
O253 C241 1.355 . S
O253 Dy243 2.491 . S
O254 Dy243 2.403 . S
O254 C249 1.254 . S
O255 Dy240 2.310 . S
O255 Dy243 2.664 . S
O255 C249 1.268 . S
O256 Dy240 2.351 . S
O256 C259 1.249 . S
O257 Dy243 2.326 . S
O257 C259 1.267 . S
C258 O250 1.249 . S
C258 O251 1.267 . S
C259 O256 1.249 . S
C259 O257 1.267 . S
Dy260 O264 2.398 . S
Dy260 O265 2.491 . S
Dy260 O266 2.403 . S
Dy260 O267 2.664 . S
Dy260 O271 2.326 . S
Dy260 O275 2.310 . S
Dy260 O276 2.351 . S
C261 O272 1.185 1_545 S
C261 O273 1.355 1_455 S
C262 O264 1.185 . S
C262 O265 1.355 . S
Dy263 O267 2.310 . S
Dy263 O270 2.351 . S
Dy263 O272 2.398 1_655 S
Dy263 O273 2.491 1_565 S
Dy263 O274 2.401 1_655 S
Dy263 O275 2.664 . S
Dy263 O277 2.326 . S
O264 Dy260 2.398 . S
O264 C262 1.185 . S
O265 Dy260 2.491 . S
O265 C262 1.355 . S
O266 Dy260 2.403 . S
O266 C268 1.254 1_565 S
O267 Dy260 2.664 . S
O267 Dy263 2.310 . S
O267 C268 1.268 1_565 S
C268 O266 1.254 1_545 S
C268 O267 1.268 1_545 S
C269 O274 1.250 1_655 S
C269 O275 1.268 . S
O270 Dy263 2.351 . S
O270 C278 1.249 . S
O271 Dy260 2.326 . S
O271 C278 1.267 . S
O272 C261 1.185 1_565 S
O272 Dy263 2.398 1_455 S
O273 C261 1.355 1_655 S
O273 Dy263 2.491 1_545 S
O274 Dy263 2.401 1_455 S
O274 C269 1.250 1_455 S
O275 Dy260 2.310 . S
O275 Dy263 2.664 . S
O275 C269 1.268 . S
O276 Dy260 2.351 . S
O276 C279 1.249 . S
O277 Dy263 2.326 . S
O277 C279 1.267 . S
C278 O270 1.249 . S
C278 O271 1.267 . S
C279 O276 1.249 . S
C279 O277 1.267 . S
Dy280 O284 2.398 . S
Dy280 O285 2.491 . S
Dy280 O286 2.403 . S
Dy280 O287 2.664 . S
Dy280 O291 2.326 . S
Dy280 O295 2.310 . S
Dy280 O296 2.351 . S
C281 O292 1.185 . S
C281 O293 1.355 . S
C282 O284 1.185 . S
C282 O285 1.355 . S
Dy283 O287 2.310 . S
Dy283 O290 2.351 . S
Dy283 O292 2.398 . S
Dy283 O293 2.491 . S
Dy283 O294 2.403 . S
Dy283 O295 2.664 . S
Dy283 O297 2.326 . S
O284 Dy280 2.398 . S
O284 C282 1.185 . S
O285 Dy280 2.491 . S
O285 C282 1.355 . S
O286 Dy280 2.403 . S
O286 C288 1.254 . S
O287 Dy280 2.664 . S
O287 Dy283 2.310 . S
O287 C288 1.268 . S
C288 O286 1.254 . S
C288 O287 1.268 . S
C289 O294 1.254 . S
C289 O295 1.268 . S
O290 Dy283 2.351 . S
O290 C298 1.249 . S
O291 Dy280 2.326 . S
O291 C298 1.267 . S
O292 C281 1.185 . S
O292 Dy283 2.398 . S
O293 C281 1.355 . S
O293 Dy283 2.491 . S
O294 Dy283 2.403 . S
O294 C289 1.254 . S
O295 Dy280 2.310 . S
O295 Dy283 2.664 . S
O295 C289 1.268 . S
O296 Dy280 2.351 . S
O296 C299 1.249 . S
O297 Dy283 2.326 . S
O297 C299 1.267 . S
C298 O290 1.249 . S
C298 O291 1.267 . S
C299 O296 1.249 . S
C299 O297 1.267 . S
Dy300 O304 2.398 . S
Dy300 O305 2.491 . S
Dy300 O306 2.403 . S
Dy300 O307 2.664 . S
Dy300 O311 2.326 . S
Dy300 O315 2.310 . S
Dy300 O316 2.351 . S
C301 O312 1.185 1_565 S
C301 O313 1.355 . S
C302 O304 1.185 . S
C302 O305 1.355 . S
Dy303 O307 2.310 . S
Dy303 O310 2.351 . S
Dy303 O312 2.398 . S
Dy303 O313 2.491 1_545 S
Dy303 O314 2.403 . S
Dy303 O315 2.664 . S
Dy303 O317 2.326 . S
O304 Dy300 2.398 . S
O304 C302 1.185 . S
O305 Dy300 2.491 . S
O305 C302 1.355 . S
O306 Dy300 2.403 . S
O306 C308 1.254 1_545 S
O307 Dy300 2.664 . S
O307 Dy303 2.310 . S
O307 C308 1.268 1_545 S
C308 O306 1.254 1_565 S
C308 O307 1.268 1_565 S
C309 O314 1.254 . S
C309 O315 1.268 . S
O310 Dy303 2.351 . S
O310 C318 1.249 . S
O311 Dy300 2.326 . S
O311 C318 1.267 . S
O312 C301 1.185 1_545 S
O312 Dy303 2.398 . S
O313 C301 1.355 . S
O313 Dy303 2.491 1_565 S
O314 Dy303 2.403 . S
O314 C309 1.254 . S
O315 Dy300 2.310 . S
O315 Dy303 2.664 . S
O315 C309 1.268 . S
O316 Dy300 2.351 . S
O316 C319 1.249 . S
O317 Dy303 2.326 . S
O317 C319 1.267 . S
C318 O310 1.249 . S
C318 O311 1.267 . S
C319 O316 1.249 . S
C319 O317 1.267 . S
C320 C321 1.387 . S
C320 H324 0.950 . S
C320 C329 1.390 . S
C321 C320 1.387 . S
C321 C323 1.387 . S
H322 C329 0.950 . S
C323 C321 1.387 . S
C323 C325 1.390 . S
C323 H327 0.950 . S
H324 C320 0.950 . S
C325 C323 1.390 . S
C325 C326 1.387 . S
C325 H328 0.950 . S
C326 C325 1.387 . S
C326 C329 1.387 . S
H327 C323 0.950 . S
H328 C325 0.950 . S
C329 C320 1.390 . S
C329 H322 0.950 . S
C329 C326 1.387 . S
C330 C331 1.387 . S
C330 H334 0.950 . S
C330 C339 1.390 . S
C331 C330 1.387 . S
C331 C333 1.387 . S
H332 C339 0.950 . S
C333 C331 1.387 . S
C333 C335 1.390 . S
C333 H337 0.950 . S
H334 C330 0.950 . S
C335 C333 1.390 . S
C335 C336 1.387 . S
C335 H338 0.950 . S
C336 C335 1.387 . S
C336 C339 1.387 . S
H337 C333 0.950 . S
H338 C335 0.950 . S
C339 C330 1.390 . S
C339 H332 0.950 . S
C339 C336 1.387 . S
C340 C341 1.387 . S
C340 H344 0.950 . S
C340 C349 1.390 1_455 S
C341 C340 1.387 . S
C341 C343 1.387 . S
H342 C349 0.950 . S
C343 C341 1.387 . S
C343 C345 1.390 1_455 S
C343 H347 0.950 . S
H344 C340 0.950 . S
C345 C343 1.390 1_655 S
C345 C346 1.387 . S
C345 H348 0.950 . S
C346 C345 1.387 . S
C346 C349 1.387 . S
H347 C343 0.950 . S
H348 C345 0.950 . S
C349 C340 1.390 1_655 S
C349 H342 0.950 . S
C349 C346 1.387 . S
C350 C351 1.387 . S
C350 H354 0.950 . S
C350 C359 1.390 1_455 S
C351 C350 1.387 . S
C351 C353 1.387 . S
H352 C359 0.950 . S
C353 C351 1.387 . S
C353 C355 1.390 1_455 S
C353 H357 0.950 . S
H354 C350 0.950 . S
C355 C353 1.390 1_655 S
C355 C356 1.387 . S
C355 H358 0.950 . S
C356 C355 1.387 . S
C356 C359 1.387 . S
H357 C353 0.950 . S
H358 C355 0.950 . S
C359 C350 1.390 1_655 S
C359 H352 0.950 . S
C359 C356 1.387 . S
C360 C361 1.387 . S
C360 H364 0.950 . S
C360 C369 1.390 . S
C361 C360 1.387 . S
C361 C363 1.387 . S
H362 C369 0.950 . S
C363 C361 1.387 . S
C363 C365 1.390 . S
C363 H367 0.950 . S
H364 C360 0.950 . S
C365 C363 1.390 . S
C365 C366 1.387 . S
C365 H368 0.950 . S
C366 C365 1.387 . S
C366 C369 1.387 . S
H367 C363 0.950 . S
H368 C365 0.950 . S
C369 C360 1.390 . S
C369 H362 0.950 . S
C369 C366 1.387 . S
C370 C371 1.387 . S
C370 H374 0.950 . S
C370 C379 1.390 . S
C371 C370 1.387 . S
C371 C373 1.387 . S
H372 C379 0.950 . S
C373 C371 1.387 . S
C373 C375 1.390 . S
C373 H377 0.950 . S
H374 C370 0.950 . S
C375 C373 1.390 . S
C375 C376 1.387 . S
C375 H378 0.950 . S
C376 C375 1.387 . S
C376 C379 1.387 . S
H377 C373 0.950 . S
H378 C375 0.950 . S
C379 C370 1.390 . S
C379 H372 0.950 . S
C379 C376 1.387 . S
C380 C381 1.387 . S
C380 H384 0.950 . S
C380 C389 1.390 1_455 S
C381 C380 1.387 . S
C381 C383 1.387 . S
H382 C389 0.950 . S
C383 C381 1.387 . S
C383 C385 1.390 1_455 S
C383 H387 0.950 . S
H384 C380 0.950 . S
C385 C383 1.390 1_655 S
C385 C386 1.387 . S
C385 H388 0.950 . S
C386 C385 1.387 . S
C386 C389 1.387 . S
H387 C383 0.950 . S
H388 C385 0.950 . S
C389 C380 1.390 1_655 S
C389 H382 0.950 . S
C389 C386 1.387 . S
C390 C391 1.387 . S
C390 H394 0.950 . S
C390 C399 1.390 1_455 S
C391 C390 1.387 . S
C391 C393 1.387 . S
H392 C399 0.950 . S
C393 C391 1.387 . S
C393 C395 1.390 1_455 S
C393 H397 0.950 . S
H394 C390 0.950 . S
C395 C393 1.390 1_655 S
C395 C396 1.387 . S
C395 H398 0.950 . S
C396 C395 1.387 . S
C396 C399 1.387 . S
H397 C393 0.950 . S
H398 C395 0.950 . S
C399 C390 1.390 1_655 S
C399 H392 0.950 . S
C399 C396 1.387 . S
C400 C401 1.387 1_546 S
C400 H404 0.950 . S
C400 C409 1.390 . S
C401 C400 1.387 1_564 S
C401 C403 1.387 . S
H402 C409 0.950 . S
C403 C401 1.387 . S
C403 C405 1.390 . S
C403 H407 0.950 . S
H404 C400 0.950 . S
C405 C403 1.390 . S
C405 C406 1.387 1_564 S
C405 H408 0.950 . S
C406 C405 1.387 1_546 S
C406 C409 1.387 . S
H407 C403 0.950 . S
H408 C405 0.950 . S
C409 C400 1.390 . S
C409 H402 0.950 . S
C409 C406 1.387 . S
C410 C411 1.387 . S
C410 H414 0.950 . S
C410 C419 1.390 . S
C411 C410 1.387 . S
C411 C413 1.387 . S
H412 C419 0.950 . S
C413 C411 1.387 . S
C413 C415 1.390 . S
C413 H417 0.950 . S
H414 C410 0.950 . S
C415 C413 1.390 . S
C415 C416 1.387 . S
C415 H418 0.950 . S
C416 C415 1.387 . S
C416 C419 1.387 . S
H417 C413 0.950 . S
H418 C415 0.950 . S
C419 C410 1.390 . S
C419 H412 0.950 . S
C419 C416 1.387 . S
C420 C421 1.387 1_565 S
C420 H424 0.950 . S
C420 C429 1.390 1_455 S
C421 C420 1.387 1_545 S
C421 C423 1.387 . S
H422 C429 0.950 . S
C423 C421 1.387 . S
C423 C425 1.390 1_455 S
C423 H427 0.950 . S
H424 C420 0.950 . S
C425 C423 1.390 1_655 S
C425 C426 1.387 1_545 S
C425 H428 0.950 . S
C426 C425 1.387 1_565 S
C426 C429 1.387 . S
H427 C423 0.950 . S
H428 C425 0.950 . S
C429 C420 1.390 1_655 S
C429 H422 0.950 . S
C429 C426 1.387 . S
C430 C431 1.387 . S
C430 H434 0.950 . S
C430 C439 1.390 . S
C431 C430 1.387 . S
C431 C433 1.387 . S
H432 C439 0.950 . S
C433 C431 1.387 . S
C433 C435 1.390 . S
C433 H437 0.950 . S
H434 C430 0.950 . S
C435 C433 1.390 . S
C435 C436 1.387 . S
C435 H438 0.950 . S
C436 C435 1.387 . S
C436 C439 1.387 . S
H437 C433 0.950 . S
H438 C435 0.950 . S
C439 C430 1.390 . S
C439 H432 0.950 . S
C439 C436 1.387 . S
C440 C441 1.387 . S
C440 H444 0.950 . S
C440 C449 1.390 . S
C441 C440 1.387 . S
C441 C443 1.387 . S
H442 C449 0.950 . S
C443 C441 1.387 . S
C443 C445 1.390 . S
C443 H447 0.950 . S
H444 C440 0.950 . S
C445 C443 1.390 . S
C445 C446 1.387 . S
C445 H448 0.950 . S
C446 C445 1.387 . S
C446 C449 1.387 . S
H447 C443 0.950 . S
H448 C445 0.950 . S
C449 C440 1.390 . S
C449 H442 0.950 . S
C449 C446 1.387 . S
C450 C451 1.387 . S
C450 H454 0.950 . S
C450 C459 1.390 . S
C451 C450 1.387 . S
C451 C453 1.387 . S
H452 C459 0.950 . S
C453 C451 1.387 . S
C453 C455 1.390 . S
C453 H457 0.950 . S
H454 C450 0.950 . S
C455 C453 1.390 . S
C455 C456 1.387 . S
C455 H458 0.950 . S
C456 C455 1.387 . S
C456 C459 1.387 . S
H457 C453 0.950 . S
H458 C455 0.950 . S
C459 C450 1.390 . S
C459 H452 0.950 . S
C459 C456 1.387 . S
C460 C461 1.387 . S
C460 H464 0.950 . S
C460 C469 1.390 1_455 S
C461 C460 1.387 . S
C461 C463 1.387 . S
H462 C469 0.950 . S
C463 C461 1.387 . S
C463 C465 1.390 1_455 S
C463 H467 0.950 . S
H464 C460 0.950 . S
C465 C463 1.390 1_655 S
C465 C466 1.387 . S
C465 H468 0.950 . S
C466 C465 1.387 . S
C466 C469 1.387 . S
H467 C463 0.950 . S
H468 C465 0.950 . S
C469 C460 1.390 1_655 S
C469 H462 0.950 . S
C469 C466 1.387 . S
C470 C471 1.387 1_556 S
C470 H474 0.950 . S
C470 C479 1.390 . S
C471 C470 1.387 1_554 S
C471 C473 1.387 . S
H472 C479 0.950 . S
C473 C471 1.387 . S
C473 C475 1.390 . S
C473 H477 0.950 . S
H474 C470 0.950 . S
C475 C473 1.390 . S
C475 C476 1.387 1_554 S
C475 H478 0.950 . S
C476 C475 1.387 1_556 S
C476 C479 1.387 . S
H477 C473 0.950 . S
H478 C475 0.950 . S
C479 C470 1.390 . S
C479 H472 0.950 . S
C479 C476 1.387 . S
C480 C481 1.387 . S
C480 H484 0.950 . S
C480 C489 1.390 . S
C481 C480 1.387 . S
C481 C483 1.387 . S
H482 C489 0.950 . S
C483 C481 1.387 . S
C483 C485 1.390 . S
C483 H487 0.950 . S
H484 C480 0.950 . S
C485 C483 1.390 . S
C485 C486 1.387 . S
C485 H488 0.950 . S
C486 C485 1.387 . S
C486 C489 1.387 . S
H487 C483 0.950 . S
H488 C485 0.950 . S
C489 C480 1.390 . S
C489 H482 0.950 . S
C489 C486 1.387 . S
C490 C491 1.387 . S
C490 H494 0.950 . S
C490 C499 1.390 . S
C491 C490 1.387 . S
C491 C493 1.387 . S
H492 C499 0.950 . S
C493 C491 1.387 . S
C493 C495 1.390 . S
C493 H497 0.950 . S
H494 C490 0.950 . S
C495 C493 1.390 . S
C495 C496 1.387 . S
C495 H498 0.950 . S
C496 C495 1.387 . S
C496 C499 1.387 . S
H497 C493 0.950 . S
H498 C495 0.950 . S
C499 C490 1.390 . S
C499 H492 0.950 . S
C499 C496 1.387 . S
C500 C501 1.387 . S
C500 H504 0.950 . S
C500 C509 1.390 . S
C501 C500 1.387 . S
C501 C503 1.387 . S
H502 C509 0.950 . S
C503 C501 1.387 . S
C503 C505 1.390 . S
C503 H507 0.950 . S
H504 C500 0.950 . S
C505 C503 1.390 . S
C505 C506 1.387 . S
C505 H508 0.950 . S
C506 C505 1.387 . S
C506 C509 1.387 . S
H507 C503 0.950 . S
H508 C505 0.950 . S
C509 C500 1.390 . S
C509 H502 0.950 . S
C509 C506 1.387 . S
C510 C511 1.387 . S
C510 H514 0.950 . S
C510 C519 1.390 . S
C511 C510 1.387 . S
C511 C513 1.387 . S
H512 C519 0.950 . S
C513 C511 1.387 . S
C513 C515 1.390 . S
C513 H517 0.950 . S
H514 C510 0.950 . S
C515 C513 1.390 . S
C515 C516 1.387 . S
C515 H518 0.950 . S
C516 C515 1.387 . S
C516 C519 1.387 . S
H517 C513 0.950 . S
H518 C515 0.950 . S
C519 C510 1.390 . S
C519 H512 0.950 . S
C519 C516 1.387 . S
C520 C521 1.387 . S
C520 H524 0.950 . S
C520 C529 1.390 . S
C521 C520 1.387 . S
C521 C523 1.387 . S
H522 C529 0.950 . S
C523 C521 1.387 . S
C523 C525 1.390 . S
C523 H527 0.950 . S
H524 C520 0.950 . S
C525 C523 1.390 . S
C525 C526 1.387 . S
C525 H528 0.950 . S
C526 C525 1.387 . S
C526 C529 1.387 . S
H527 C523 0.950 . S
H528 C525 0.950 . S
C529 C520 1.390 . S
C529 H522 0.950 . S
C529 C526 1.387 . S
C530 C531 1.387 . S
C530 H534 0.950 . S
C530 C539 1.390 . S
C531 C530 1.387 . S
C531 C533 1.387 . S
H532 C539 0.950 . S
C533 C531 1.387 . S
C533 C535 1.390 . S
C533 H537 0.950 . S
H534 C530 0.950 . S
C535 C533 1.390 . S
C535 C536 1.387 . S
C535 H538 0.950 . S
C536 C535 1.387 . S
C536 C539 1.387 . S
H537 C533 0.950 . S
H538 C535 0.950 . S
C539 C530 1.390 . S
C539 H532 0.950 . S
C539 C536 1.387 . S
C540 C541 1.387 . S
C540 H544 0.950 . S
C540 C549 1.390 . S
C541 C540 1.387 . S
C541 C543 1.387 . S
H542 C549 0.950 . S
C543 C541 1.387 . S
C543 C545 1.390 . S
C543 H547 0.950 . S
H544 C540 0.950 . S
C545 C543 1.390 . S
C545 C546 1.387 . S
C545 H548 0.950 . S
C546 C545 1.387 . S
C546 C549 1.387 . S
H547 C543 0.950 . S
H548 C545 0.950 . S
C549 C540 1.390 . S
C549 H542 0.950 . S
C549 C546 1.387 . S
C550 C551 1.387 . S
C550 H554 0.950 . S
C550 C559 1.390 . S
C551 C550 1.387 . S
C551 C553 1.387 . S
H552 C559 0.950 . S
C553 C551 1.387 . S
C553 C555 1.390 . S
C553 H557 0.950 . S
H554 C550 0.950 . S
C555 C553 1.390 . S
C555 C556 1.387 . S
C555 H558 0.950 . S
C556 C555 1.387 . S
C556 C559 1.387 . S
H557 C553 0.950 . S
H558 C555 0.950 . S
C559 C550 1.390 . S
C559 H552 0.950 . S
C559 C556 1.387 . S
C560 C561 1.387 . S
C560 H564 0.950 . S
C560 C569 1.390 . S
C561 C560 1.387 . S
C561 C563 1.387 . S
H562 C569 0.950 . S
C563 C561 1.387 . S
C563 C565 1.390 . S
C563 H567 0.950 . S
H564 C560 0.950 . S
C565 C563 1.390 . S
C565 C566 1.387 . S
C565 H568 0.950 . S
C566 C565 1.387 . S
C566 C569 1.387 . S
H567 C563 0.950 . S
H568 C565 0.950 . S
C569 C560 1.390 . S
C569 H562 0.950 . S
C569 C566 1.387 . S
C570 C571 1.387 . S
C570 H574 0.950 . S
C570 C579 1.390 . S
C571 C570 1.387 . S
C571 C573 1.387 . S
H572 C579 0.950 . S
C573 C571 1.387 . S
C573 C575 1.390 . S
C573 H577 0.950 . S
H574 C570 0.950 . S
C575 C573 1.390 . S
C575 C576 1.387 . S
C575 H578 0.950 . S
C576 C575 1.387 . S
C576 C579 1.387 . S
H577 C573 0.950 . S
H578 C575 0.950 . S
C579 C570 1.390 . S
C579 H572 0.950 . S
C579 C576 1.387 . S
C580 C581 1.387 . S
C580 H584 0.950 . S
C580 C589 1.390 . S
C581 C580 1.387 . S
C581 C583 1.387 . S
H582 C589 0.950 . S
C583 C581 1.387 . S
C583 C585 1.390 . S
C583 H587 0.950 . S
H584 C580 0.950 . S
C585 C583 1.390 . S
C585 C586 1.387 . S
C585 H588 0.950 . S
C586 C585 1.387 . S
C586 C589 1.387 . S
H587 C583 0.950 . S
H588 C585 0.950 . S
C589 C580 1.390 . S
C589 H582 0.950 . S
C589 C586 1.387 . S
C590 C591 1.387 . S
C590 H594 0.950 . S
C590 C599 1.390 . S
C591 C590 1.387 . S
C591 C593 1.387 . S
H592 C599 0.950 . S
C593 C591 1.387 . S
C593 C595 1.390 . S
C593 H597 0.950 . S
H594 C590 0.950 . S
C595 C593 1.390 . S
C595 C596 1.387 . S
C595 H598 0.950 . S
C596 C595 1.387 . S
C596 C599 1.387 . S
H597 C593 0.950 . S
H598 C595 0.950 . S
C599 C590 1.390 . S
C599 H592 0.950 . S
C599 C596 1.387 . S
C600 C601 1.387 . S
C600 H604 0.950 . S
C600 C609 1.390 . S
C601 C600 1.387 . S
C601 C603 1.387 . S
H602 C609 0.950 . S
C603 C601 1.387 . S
C603 C605 1.390 . S
C603 H607 0.950 . S
H604 C600 0.950 . S
C605 C603 1.390 . S
C605 C606 1.387 . S
C605 H608 0.950 . S
C606 C605 1.387 . S
C606 C609 1.387 . S
H607 C603 0.950 . S
H608 C605 0.950 . S
C609 C600 1.390 . S
C609 H602 0.950 . S
C609 C606 1.387 . S
C610 C611 1.387 . S
C610 H614 0.950 . S
C610 C619 1.390 . S
C611 C610 1.387 . S
C611 C613 1.387 . S
H612 C619 0.950 . S
C613 C611 1.387 . S
C613 C615 1.390 . S
C613 H617 0.950 . S
H614 C610 0.950 . S
C615 C613 1.390 . S
C615 C616 1.387 . S
C615 H618 0.950 . S
C616 C615 1.387 . S
C616 C619 1.387 . S
H617 C613 0.950 . S
H618 C615 0.950 . S
C619 C610 1.390 . S
C619 H612 0.950 . S
C619 C616 1.387 . S
C620 C621 1.387 . S
C620 H624 0.950 . S
C620 C629 1.390 . S
C621 C620 1.387 . S
C621 C623 1.387 . S
H622 C629 0.950 . S
C623 C621 1.387 . S
C623 C625 1.390 . S
C623 H627 0.950 . S
H624 C620 0.950 . S
C625 C623 1.390 . S
C625 C626 1.387 . S
C625 H628 0.950 . S
C626 C625 1.387 . S
C626 C629 1.387 . S
H627 C623 0.950 . S
H628 C625 0.950 . S
C629 C620 1.390 . S
C629 H622 0.950 . S
C629 C626 1.387 . S
C630 C631 1.387 . S
C630 H634 0.950 . S
C630 C639 1.390 . S
C631 C630 1.387 . S
C631 C633 1.387 . S
H632 C639 0.950 . S
C633 C631 1.387 . S
C633 C635 1.390 . S
C633 H637 0.950 . S
H634 C630 0.950 . S
C635 C633 1.390 . S
C635 C636 1.387 . S
C635 H638 0.950 . S
C636 C635 1.387 . S
C636 C639 1.387 . S
H637 C633 0.950 . S
H638 C635 0.950 . S
C639 C630 1.390 . S
C639 H632 0.950 . S
C639 C636 1.387 . S
C640 C641 1.387 . S
C640 H644 0.952 1_556 S
C640 C649 1.390 . S
C641 C640 1.387 . S
C641 C643 1.387 . S
H642 C649 0.950 . S
C643 C641 1.387 . S
C643 C645 1.390 . S
C643 H647 0.950 . S
H644 C640 0.952 1_554 S
C645 C643 1.390 . S
C645 C646 1.387 . S
C645 H648 0.950 . S
C646 C645 1.387 . S
C646 C649 1.387 . S
H647 C643 0.950 . S
H648 C645 0.950 . S
C649 C640 1.390 . S
C649 H642 0.950 . S
C649 C646 1.387 . S
C650 C651 1.387 . S
C650 H654 0.950 . S
C650 C659 1.390 . S
C651 C650 1.387 . S
C651 C653 1.387 . S
H652 C659 0.950 . S
C653 C651 1.387 . S
C653 C655 1.390 . S
C653 H657 0.950 . S
H654 C650 0.950 . S
C655 C653 1.390 . S
C655 C656 1.387 . S
C655 H658 0.950 . S
C656 C655 1.387 . S
C656 C659 1.387 . S
H657 C653 0.950 . S
H658 C655 0.950 . S
C659 C650 1.390 . S
C659 H652 0.950 . S
C659 C656 1.387 . S
C660 C661 1.387 . S
C660 H664 0.950 . S
C660 C669 1.390 . S
C661 C660 1.387 . S
C661 C663 1.387 . S
H662 C669 0.950 . S
C663 C661 1.387 . S
C663 C665 1.390 . S
C663 H667 0.950 . S
H664 C660 0.950 . S
C665 C663 1.390 . S
C665 C666 1.387 . S
C665 H668 0.950 . S
C666 C665 1.387 . S
C666 C669 1.387 . S
H667 C663 0.950 . S
H668 C665 0.950 . S
C669 C660 1.390 . S
C669 H662 0.950 . S
C669 C666 1.387 . S
C670 C671 1.387 . S
C670 H674 0.950 . S
C670 C679 1.390 . S
C671 C670 1.387 . S
C671 C673 1.387 . S
H672 C679 0.950 . S
C673 C671 1.387 . S
C673 C675 1.390 . S
C673 H677 0.950 . S
H674 C670 0.950 . S
C675 C673 1.390 . S
C675 C676 1.387 . S
C675 H678 0.950 . S
C676 C675 1.387 . S
C676 C679 1.387 . S
H677 C673 0.950 . S
H678 C675 0.950 . S
C679 C670 1.390 . S
C679 H672 0.950 . S
C679 C676 1.387 . S
C680 C681 1.387 . S
C680 H684 0.950 . S
C680 C689 1.390 . S
C681 C680 1.387 . S
C681 C683 1.387 . S
H682 C689 0.950 . S
C683 C681 1.387 . S
C683 C685 1.390 . S
C683 H687 0.950 . S
H684 C680 0.950 . S
C685 C683 1.390 . S
C685 C686 1.387 . S
C685 H688 0.950 . S
C686 C685 1.387 . S
C686 C689 1.387 . S
H687 C683 0.950 . S
H688 C685 0.950 . S
C689 C680 1.390 . S
C689 H682 0.950 . S
C689 C686 1.387 . S
C690 C691 1.387 . S
C690 H694 0.950 . S
C690 C699 1.390 . S
C691 C690 1.387 . S
C691 C693 1.387 . S
H692 C699 0.950 . S
C693 C691 1.387 . S
C693 C695 1.390 . S
C693 H697 0.950 . S
H694 C690 0.950 . S
C695 C693 1.390 . S
C695 C696 1.387 . S
C695 H698 0.950 . S
C696 C695 1.387 . S
C696 C699 1.387 . S
H697 C693 0.950 . S
H698 C695 0.950 . S
C699 C690 1.390 . S
C699 H692 0.950 . S
C699 C696 1.387 . S
C700 C701 1.387 . S
C700 H704 0.950 . S
C700 C709 1.390 . S
C701 C700 1.387 . S
C701 C703 1.387 . S
H702 C709 0.950 . S
C703 C701 1.387 . S
C703 C705 1.390 . S
C703 H707 0.950 . S
H704 C700 0.950 . S
C705 C703 1.390 . S
C705 C706 1.387 . S
C705 H708 0.950 . S
C706 C705 1.387 . S
C706 C709 1.387 . S
H707 C703 0.950 . S
H708 C705 0.950 . S
C709 C700 1.390 . S
C709 H702 0.950 . S
C709 C706 1.387 . S
C710 C711 1.387 . S
C710 H714 0.950 . S
C710 C719 1.390 . S
C711 C710 1.387 . S
C711 C713 1.387 . S
H712 C719 0.950 . S
C713 C711 1.387 . S
C713 C715 1.390 . S
C713 H717 0.950 . S
H714 C710 0.950 . S
C715 C713 1.390 . S
C715 C716 1.387 . S
C715 H718 0.950 . S
C716 C715 1.387 . S
C716 C719 1.387 . S
H717 C713 0.950 . S
H718 C715 0.950 . S
C719 C710 1.390 . S
C719 H712 0.950 . S
C719 C716 1.387 . S
C720 C721 1.387 . S
C720 H724 0.950 . S
C720 C729 1.390 . S
C721 C720 1.387 . S
C721 C723 1.387 . S
H722 C729 0.950 . S
C723 C721 1.387 . S
C723 C725 1.390 . S
C723 H727 0.950 . S
H724 C720 0.950 . S
C725 C723 1.390 . S
C725 C726 1.387 . S
C725 H728 0.950 . S
C726 C725 1.387 . S
C726 C729 1.387 . S
H727 C723 0.950 . S
H728 C725 0.950 . S
C729 C720 1.390 . S
C729 H722 0.950 . S
C729 C726 1.387 . S
C730 C731 1.387 . S
C730 H734 0.950 . S
C730 C739 1.390 . S
C731 C730 1.387 . S
C731 C733 1.387 . S
H732 C739 0.950 . S
C733 C731 1.387 . S
C733 C735 1.390 . S
C733 H737 0.950 . S
H734 C730 0.950 . S
C735 C733 1.390 . S
C735 C736 1.387 . S
C735 H738 0.950 1_565 S
C736 C735 1.387 . S
C736 C739 1.387 . S
H737 C733 0.950 . S
H738 C735 0.950 1_545 S
C739 C730 1.390 . S
C739 H732 0.950 . S
C739 C736 1.387 . S
C740 C741 1.387 . S
C740 H744 0.950 . S
C740 C749 1.390 . S
C741 C740 1.387 . S
C741 C743 1.387 . S
H742 C749 0.950 . S
C743 C741 1.387 . S
C743 C745 1.390 . S
C743 H747 0.950 . S
H744 C740 0.950 . S
C745 C743 1.390 . S
C745 C746 1.387 . S
C745 H748 0.950 . S
C746 C745 1.387 . S
C746 C749 1.387 . S
H747 C743 0.950 . S
H748 C745 0.950 . S
C749 C740 1.390 . S
C749 H742 0.950 . S
C749 C746 1.387 . S
C750 C751 1.387 . S
C750 H754 0.950 . S
C750 C759 1.390 . S
C751 C750 1.387 . S
C751 C753 1.387 . S
H752 C759 0.950 . S
C753 C751 1.387 . S
C753 C755 1.390 . S
C753 H757 0.950 . S
H754 C750 0.950 . S
C755 C753 1.390 . S
C755 C756 1.387 . S
C755 H758 0.950 . S
C756 C755 1.387 . S
C756 C759 1.387 . S
H757 C753 0.950 . S
H758 C755 0.950 . S
C759 C750 1.390 . S
C759 H752 0.950 . S
C759 C756 1.387 . S
C760 C761 1.387 . S
C760 H764 0.950 . S
C760 C769 1.390 . S
C761 C760 1.387 . S
C761 C763 1.387 . S
H762 C769 0.950 . S
C763 C761 1.387 . S
C763 C765 1.390 . S
C763 H767 0.950 . S
H764 C760 0.950 . S
C765 C763 1.390 . S
C765 C766 1.387 . S
C765 H768 0.950 . S
C766 C765 1.387 . S
C766 C769 1.387 . S
H767 C763 0.950 . S
H768 C765 0.950 . S
C769 C760 1.390 . S
C769 H762 0.950 . S
C769 C766 1.387 . S
C770 C771 1.387 . S
C770 H774 0.950 . S
C770 C779 1.390 1_545 S
C771 C770 1.387 . S
C771 C773 1.387 . S
H772 C779 0.950 . S
C773 C771 1.387 . S
C773 C775 1.390 . S
C773 H777 0.950 . S
H774 C770 0.950 . S
C775 C773 1.390 . S
C775 C776 1.387 . S
C775 H778 0.950 . S
C776 C775 1.387 . S
C776 C779 1.387 1_545 S
H777 C773 0.950 . S
H778 C775 0.950 . S
C779 C770 1.390 1_565 S
C779 H772 0.950 . S
C779 C776 1.387 1_565 S
C780 C781 1.387 . S
C780 H784 0.950 . S
C780 C789 1.390 . S
C781 C780 1.387 . S
C781 C783 1.387 . S
H782 C789 0.950 . S
C783 C781 1.387 . S
C783 C785 1.390 . S
C783 H787 0.950 . S
H784 C780 0.950 . S
C785 C783 1.390 . S
C785 C786 1.387 . S
C785 H788 0.950 . S
C786 C785 1.387 . S
C786 C789 1.387 . S
H787 C783 0.950 . S
H788 C785 0.950 . S
C789 C780 1.390 . S
C789 H782 0.950 . S
C789 C786 1.387 . S
C790 C791 1.387 . S
C790 H794 0.950 . S
C790 C799 1.390 1_565 S
C791 C790 1.387 . S
C791 C793 1.387 . S
H792 C799 0.950 . S
C793 C791 1.387 . S
C793 C795 1.390 . S
C793 H797 0.950 . S
H794 C790 0.950 . S
C795 C793 1.390 . S
C795 C796 1.387 . S
C795 H798 0.950 . S
C796 C795 1.387 . S
C796 C799 1.387 1_565 S
H797 C793 0.950 . S
H798 C795 0.950 . S
C799 C790 1.390 1_545 S
C799 H792 0.950 . S
C799 C796 1.387 1_545 S
C321 C8 1.349 . S
C326 C208 1.349 . S
C331 C28 1.346 . S
C336 C228 1.346 . S
C341 C48 1.346 . S
C346 C168 1.346 . S
C351 C188 1.346 . S
C356 C68 1.346 . S
C361 C89 1.346 . S
C366 C289 1.346 . S
C371 C309 1.346 . S
C376 C109 1.346 . S
C381 C249 1.346 . S
C386 C129 1.346 . S
C391 C149 1.349 . S
C396 C269 1.349 . S
C401 C1 1.554 . S
C406 C82 1.554 . S
C411 C21 1.550 . S
C416 C262 1.550 . S
C421 C41 1.552 . S
C426 C122 1.552 . S
C431 C61 1.551 . S
C436 C302 1.551 . S
C441 C102 1.552 . S
C446 C181 1.552 . S
C451 C221 1.550 . S
C456 C142 1.550 . S
C461 C242 1.550 . S
C466 C161 1.550 . S
C471 C201 1.549 . S
C476 C282 1.549 . S
C481 C2 1.147 . S
C486 C148 1.268 . S
C491 C22 1.143 . S
C496 C248 1.269 . S
C501 C42 1.146 . S
C506 C108 1.268 . S
C511 C62 1.148 . S
C516 C288 1.268 . S
C521 C69 1.269 . S
C526 C81 1.144 . S
C531 C101 1.143 . S
C536 C169 1.269 . S
C541 C121 1.146 . S
C546 C29 1.268 . S
C551 C209 1.269 . S
C556 C141 1.144 . S
C561 C162 1.146 . S
C566 C308 1.268 . S
C571 C88 1.269 . S
C576 C182 1.144 . S
C581 C268 1.268 . S
C586 C202 1.146 . S
C591 C128 1.269 . S
C596 C222 1.145 . S
C601 C241 1.146 . S
C606 C229 1.268 . S
C611 C261 1.143 . S
C616 C9 1.269 . S
C621 C189 1.269 . S
C626 C281 1.145 . S
C631 C301 1.146 . S
C636 C49 1.268 . S
C641 C19 2.426 1_556 S
C646 C198 2.478 . S
C651 C218 2.478 . S
C656 C39 2.426 . S
C661 C59 2.425 . S
C666 C238 2.476 . S
C671 C178 2.476 . S
C676 C79 2.424 . S
C681 C279 2.476 . S
C686 C98 2.424 1_554 S
C691 C299 2.476 . S
C696 C118 2.424 . S
C701 C319 2.476 . S
C706 C138 2.424 . S
C711 C259 2.477 . S
C716 C158 2.426 . S
C721 C38 2.478 . S
C726 C179 2.427 . S
C731 C58 2.476 . S
C736 C199 2.424 1_565 S
C741 C78 2.476 . S
C746 C219 2.424 1_556 S
C751 C239 2.424 1_545 S
C756 C18 2.476 . S
C761 C119 2.478 . S
C766 C258 2.427 . S
C771 C139 2.476 . S
C776 C278 2.424 1_545 S
C781 C159 2.478 . S
C786 C298 2.427 1_554 S
C791 C99 2.477 . S
C796 C318 2.426 1_565 S
