# Generated by pormake.
# Topology wme, (6)-cn, num edge types: 1
# Building blocks:
#     Node 0, Type 0, BuildingBlock: KUMBUR_clean_sbu_1, # of connection points: 6
#     Node 1, Type 0, BuildingBlock: KUMBUR_clean_sbu_1, # of connection points: 6
#     Node 2, Type 0, BuildingBlock: KUMBUR_clean_sbu_1, # of connection points: 6
#     Node 3, Type 0, BuildingBlock: KUMBUR_clean_sbu_1, # of connection points: 6
#     Node 4, Type 0, BuildingBlock: KUMBUR_clean_sbu_1, # of connection points: 6
#     Node 5, Type 0, BuildingBlock: KUMBUR_clean_sbu_1, # of connection points: 6
#     Node 6, Type 0, BuildingBlock: KUMBUR_clean_sbu_1, # of connection points: 6
#     Node 7, Type 0, BuildingBlock: KUMBUR_clean_sbu_1, # of connection points: 6
#     Node 8, Type 0, BuildingBlock: KUMBUR_clean_sbu_1, # of connection points: 6
#     Node 9, Type 0, BuildingBlock: KUMBUR_clean_sbu_1, # of connection points: 6
#     Node 10, Type 0, BuildingBlock: KUMBUR_clean_sbu_1, # of connection points: 6
#     Node 11, Type 0, BuildingBlock: KUMBUR_clean_sbu_1, # of connection points: 6
#     Edge 12, Type (0, 0), BuildingBlock: CIFDUS_clean_linker_0, # of connection points: 2
#     Edge 13, Type (0, 0), BuildingBlock: CIFDUS_clean_linker_0, # of connection points: 2
#     Edge 14, Type (0, 0), BuildingBlock: CIFDUS_clean_linker_0, # of connection points: 2
#     Edge 15, Type (0, 0), BuildingBlock: CIFDUS_clean_linker_0, # of connection points: 2
#     Edge 16, Type (0, 0), BuildingBlock: CIFDUS_clean_linker_0, # of connection points: 2
#     Edge 17, Type (0, 0), BuildingBlock: CIFDUS_clean_linker_0, # of connection points: 2
#     Edge 18, Type (0, 0), BuildingBlock: CIFDUS_clean_linker_0, # of connection points: 2
#     Edge 19, Type (0, 0), BuildingBlock: CIFDUS_clean_linker_0, # of connection points: 2
#     Edge 20, Type (0, 0), BuildingBlock: CIFDUS_clean_linker_0, # of connection points: 2
#     Edge 21, Type (0, 0), BuildingBlock: CIFDUS_clean_linker_0, # of connection points: 2
#     Edge 22, Type (0, 0), BuildingBlock: CIFDUS_clean_linker_0, # of connection points: 2
#     Edge 23, Type (0, 0), BuildingBlock: CIFDUS_clean_linker_0, # of connection points: 2
#     Edge 24, Type (0, 0), BuildingBlock: CIFDUS_clean_linker_0, # of connection points: 2
#     Edge 25, Type (0, 0), BuildingBlock: CIFDUS_clean_linker_0, # of connection points: 2
#     Edge 26, Type (0, 0), BuildingBlock: CIFDUS_clean_linker_0, # of connection points: 2
#     Edge 27, Type (0, 0), BuildingBlock: CIFDUS_clean_linker_0, # of connection points: 2
#     Edge 28, Type (0, 0), BuildingBlock: CIFDUS_clean_linker_0, # of connection points: 2
#     Edge 29, Type (0, 0), BuildingBlock: CIFDUS_clean_linker_0, # of connection points: 2
#     Edge 30, Type (0, 0), BuildingBlock: CIFDUS_clean_linker_0, # of connection points: 2
#     Edge 31, Type (0, 0), BuildingBlock: CIFDUS_clean_linker_0, # of connection points: 2
#     Edge 32, Type (0, 0), BuildingBlock: CIFDUS_clean_linker_0, # of connection points: 2
#     Edge 33, Type (0, 0), BuildingBlock: CIFDUS_clean_linker_0, # of connection points: 2
#     Edge 34, Type (0, 0), BuildingBlock: CIFDUS_clean_linker_0, # of connection points: 2
#     Edge 35, Type (0, 0), BuildingBlock: CIFDUS_clean_linker_0, # of connection points: 2
#     Edge 36, Type (0, 0), BuildingBlock: CIFDUS_clean_linker_0, # of connection points: 2
#     Edge 37, Type (0, 0), BuildingBlock: CIFDUS_clean_linker_0, # of connection points: 2
#     Edge 38, Type (0, 0), BuildingBlock: CIFDUS_clean_linker_0, # of connection points: 2
#     Edge 39, Type (0, 0), BuildingBlock: CIFDUS_clean_linker_0, # of connection points: 2
#     Edge 40, Type (0, 0), BuildingBlock: CIFDUS_clean_linker_0, # of connection points: 2
#     Edge 41, Type (0, 0), BuildingBlock: CIFDUS_clean_linker_0, # of connection points: 2
#     Edge 42, Type (0, 0), BuildingBlock: CIFDUS_clean_linker_0, # of connection points: 2
#     Edge 43, Type (0, 0), BuildingBlock: CIFDUS_clean_linker_0, # of connection points: 2
#     Edge 44, Type (0, 0), BuildingBlock: CIFDUS_clean_linker_0, # of connection points: 2
#     Edge 45, Type (0, 0), BuildingBlock: CIFDUS_clean_linker_0, # of connection points: 2
#     Edge 46, Type (0, 0), BuildingBlock: CIFDUS_clean_linker_0, # of connection points: 2
#     Edge 47, Type (0, 0), BuildingBlock: CIFDUS_clean_linker_0, # of connection points: 2
# Relax obj value: 0.061
# Max RMSD: 0.174
# Mean RMSD: 0.174
data_MOF--net-wme--node1-KUMBUR_clean_sbu_1--edge1-CIFDUS_clean_linker_0
_symmetry_space_group_name_H-M    P1
_symmetry_Int_Tables_number       1
_symmetry_cell_setting            triclinic
loop_
_symmetry_equiv_pos_as_xyz
'x, y, z'
_cell_length_a     35.464096
_cell_length_b     35.467928
_cell_length_c     46.604899
_cell_angle_alpha  89.924225
_cell_angle_beta   90.07125
_cell_angle_gamma 119.92316
loop_
_atom_site_label
_atom_site_type_symbol
_atom_site_fract_x
_atom_site_fract_y
_atom_site_fract_z
_atom_type_partial_charge
Tb0 Tb 0.26035 0.31041 0.14315 0.0
C1 C 0.11036 0.3246 0.07903 0.0
N2 N 0.15308 0.34668 0.07166 0.0
C3 C 0.13409 0.3376 0.02176 0.0
C4 C 0.07765 0.30702 0.05782 0.0
C5 C 0.16533 0.35477 0.04355 0.0
C6 C 0.09007 0.31322 0.02893 0.0
C7 C 0.05514 0.29876 0.11619 0.0
C8 C 0.09934 0.32033 0.10797 0.0
C9 C 0.0225 0.28054 0.09513 0.0
C10 C 0.03373 0.28449 0.06604 0.0
Tb11 Tb 0.20077 0.37204 0.10887 0.0
N12 N 0.13182 0.33794 0.12792 0.0
C13 C 0.04498 0.29638 0.14533 0.0
C14 C 0.12174 0.33812 0.15621 0.0
C15 C 0.07842 0.31665 0.16536 0.0
H16 H 0.19929 0.3744 0.03786 0.0
H17 H 0.07084 0.31636 0.18788 0.0
H18 H 0.21389 0.25747 0.20252 0.0
H19 H 0.43092 0.40829 0.11449 0.0
H20 H 0.14632 0.35588 0.1719 0.0
H21 H 1.01146 0.27985 0.15252 0.0
H22 H 0.35296 0.3641 0.10462 0.0
H23 H 0.14396 0.3434 0.99948 0.0
H24 H 0.98844 0.26341 0.10112 0.0
H25 H 1.00817 0.27047 0.05006 0.0
H26 H 0.2346 0.25916 0.25357 0.0
H27 H 0.06593 0.30009 0.01203 0.0
H28 H 0.45802 0.41881 0.16442 0.0
N29 N 0.27703 0.30624 0.18976 0.0
C30 C 0.31928 0.33154 0.1974 0.0
C31 C 0.25868 0.27999 0.23802 0.0
C32 C 0.33287 0.33323 0.22602 0.0
C33 C 0.24697 0.27929 0.20924 0.0
C34 C 0.30172 0.30761 0.24655 0.0
N35 N 0.33465 0.34949 0.14864 0.0
C36 C 0.3637 0.36773 0.12653 0.0
C37 C 0.3939 0.37886 0.18267 0.0
C38 C 0.34926 0.35377 0.17606 0.0
C39 C 0.42344 0.39915 0.16025 0.0
C40 C 0.40828 0.39319 0.13204 0.0
H41 H 0.31076 0.30799 0.26881 0.0
H42 H 0.38822 0.36144 0.25489 0.0
H43 H 0.44172 0.40156 0.21688 0.0
O44 O 0.23791 0.25706 0.11475 0.0
O45 O 0.2973 0.38248 0.1448 0.0
O46 O 0.27189 0.406 0.10675 0.0
O47 O 0.27062 0.25843 0.15384 0.0
O48 O 0.27719 0.33087 0.09852 0.0
O49 O 0.22518 0.34328 0.07641 0.0
O50 O 0.17637 0.41443 0.11658 0.0
O51 O 0.17059 0.30095 0.10427 0.0
O52 O 0.1897 0.28361 0.14677 0.0
O53 O 0.22263 0.42836 0.08309 0.0
O54 O 0.22064 0.38472 0.155 0.0
O55 O 0.21473 0.31988 0.16908 0.0
C56 C 0.30028 0.413 0.12711 0.0
C57 C 0.21313 0.18992 0.13933 0.0
C58 C 0.18243 0.11048 0.13953 0.0
C59 C 0.14532 0.1061 0.1535 0.0
C60 C 0.17615 0.18409 0.15411 0.0
C61 C 0.14238 0.14261 0.1608 0.0
C62 C 0.2165 0.15285 0.13241 0.0
C63 C 0.2554 0.33144 0.07579 0.0
C64 C 0.24827 0.23471 0.13215 0.0
C65 C 0.37712 0.35938 0.23297 0.0
C66 C 0.40759 0.38217 0.21133 0.0
C67 C 0.16155 0.27381 0.12572 0.0
C68 C 0.22134 0.4886 0.10544 0.0
C69 C 0.21706 0.55467 0.11535 0.0
C70 C 0.26078 0.57552 0.12422 0.0
C71 C 0.26495 0.51058 0.11423 0.0
C72 C 0.19754 0.51098 0.1058 0.0
C73 C 0.28448 0.55371 0.1235 0.0
C74 C 0.21893 0.3579 0.17544 0.0
C75 C 0.19981 0.44207 0.09689 0.0
H76 H 0.11898 0.07435 0.15966 0.0
H77 H 0.17341 0.21157 0.16093 0.0
H78 H 0.11401 0.13877 0.17209 0.0
H79 H 0.24533 0.15692 0.1216 0.0
H80 H 0.277 0.60913 0.13118 0.0
H81 H 0.28387 0.49435 0.11398 0.0
H82 H 0.1638 0.49423 0.09903 0.0
H83 H 0.31824 0.57042 0.13012 0.0
Tb84 Tb 0.96181 0.25413 0.63993 0.0
C85 C 0.80563 0.1034 0.57707 0.0
N86 N 0.8298 0.14597 0.56947 0.0
C87 C 0.83682 0.12522 0.52164 0.0
C88 C 0.79692 0.06995 0.55731 0.0
C89 C 0.84472 0.15728 0.542 0.0
C90 C 0.8131 0.08137 0.52936 0.0
C91 C 0.76456 0.0497 0.61363 0.0
C92 C 0.78992 0.09345 0.60493 0.0
C93 C 0.7562 0.01622 0.59412 0.0
C94 C 0.77235 0.02632 0.56604 0.0
Tb95 Tb 0.83997 0.19501 0.60459 0.0
N96 N 0.79972 0.12671 0.62349 0.0
C97 C 0.74808 0.04094 0.64159 0.0
C98 C 0.78161 0.11827 0.65023 0.0
C99 C 0.75611 0.07537 0.65982 0.0
H100 H 0.86191 0.19088 0.53538 0.0
H101 H 0.74253 0.06891 0.68124 0.0
H102 H 0.96609 0.23599 0.70928 0.0
H103 H 0.03687 0.40278 0.57753 0.0
H104 H 0.78593 0.1442 0.66423 0.0
H105 H 0.72852 1.00777 0.64914 0.0
H106 H 0.99704 0.32376 0.58484 0.0
H107 H 0.8488 0.13435 0.49994 0.0
H108 H 0.73705 0.98242 0.60049 0.0
H109 H 0.76545 1.00017 0.55119 0.0
H110 H 0.98976 0.27928 0.75395 0.0
H111 H 0.80718 0.05667 0.51354 0.0
H112 H 0.06348 0.452 0.61948 0.0
N113 N 0.98681 0.29085 0.68217 0.0
C114 C 1.00834 0.33489 0.68029 0.0
C115 C 0.99487 0.29536 0.7334 0.0
C116 C 0.02368 0.36109 0.70504 0.0
C117 C 0.9806 0.27083 0.70818 0.0
C118 C 1.01626 0.34072 0.73185 0.0
N119 N 0.99959 0.32714 0.63011 0.0
C120 C 1.00801 0.34437 0.60315 0.0
C121 C 0.03861 0.39934 0.65035 0.0
C122 C 1.01558 0.3537 0.65336 0.0
C123 C 0.04592 0.4171 0.62274 0.0
C124 C 0.03087 0.38943 0.59902 0.0
H125 H 0.02747 0.35969 0.75139 0.0
H126 H 0.058 0.4273 0.72099 0.0
H127 H 0.07115 0.46082 0.67307 0.0
O128 O 1.00156 0.23746 0.61595 0.0
O129 O 0.93011 0.29489 0.63751 0.0
O130 O 0.88161 0.26472 0.60045 0.0
O131 O 1.01458 0.25327 0.66056 0.0
O132 O 0.95115 0.23395 0.59458 0.0
O133 O 0.89422 0.23937 0.57541 0.0
O134 O 0.78251 0.1967 0.61713 0.0
O135 O 0.87808 0.16122 0.60919 0.0
O136 O 0.91766 0.18576 0.65081 0.0
O137 O 0.79722 0.19239 0.5725 0.0
O138 O 0.84466 0.21467 0.65064 0.0
O139 O 0.90732 0.21761 0.66926 0.0
C140 C 0.89905 0.2934 0.62099 0.0
C141 C 0.07367 0.26178 0.63174 0.0
C142 C 0.13915 0.25505 0.62776 0.0
C143 C 0.16179 0.29774 0.61699 0.0
C144 C 0.09714 0.30441 0.62122 0.0
C145 C 0.14101 0.32226 0.61399 0.0
C146 C 0.09496 0.23735 0.63537 0.0
C147 C 0.93413 0.24489 0.5734 0.0
C148 C 0.02656 0.24139 0.6376 0.0
C149 C 0.04608 0.4066 0.70223 0.0
C150 C 0.05359 0.42568 0.67494 0.0
C151 C 0.89269 0.15383 0.63327 0.0
C152 C 0.72987 0.19348 0.58044 0.0
C153 C 0.65408 0.1779 0.58592 0.0
C154 C 0.65474 0.1899 0.55712 0.0
C155 C 0.72889 0.20547 0.5518 0.0
C156 C 0.69229 0.18037 0.59782 0.0
C157 C 0.69182 0.20384 0.54038 0.0
C158 C 0.86909 0.21531 0.67248 0.0
C159 C 0.76989 0.1934 0.59057 0.0
H160 H 0.19577 0.31226 0.61108 0.0
H161 H 0.08141 0.32363 0.61829 0.0
H162 H 0.15894 0.35517 0.60579 0.0
H163 H 0.0769 0.20426 0.64335 0.0
H164 H 0.62645 0.18909 0.54759 0.0
H165 H 0.75697 0.21606 0.53801 0.0
H166 H 0.69233 0.17112 0.61997 0.0
H167 H 0.69177 0.21328 0.51828 0.0
Tb168 Tb 0.72496 0.95633 0.14015 0.0
C169 C 0.70539 0.7905 0.07538 0.0
N170 N 0.68375 0.81234 0.06995 0.0
C171 C 0.68924 0.80385 0.01933 0.0
C172 C 0.72077 0.77528 0.05286 0.0
C173 C 0.6743 0.81792 0.04243 0.0
C174 C 0.71293 0.78279 0.02456 0.0
C175 C 0.73307 0.75954 0.11029 0.0
C176 C 0.71157 0.78285 0.10369 0.0
C177 C 0.74889 0.7447 0.08794 0.0
C178 C 0.74285 0.75265 0.05929 0.0
Tb179 Tb 0.66026 0.83292 0.10932 0.0
N180 N 0.69712 0.79904 0.12475 0.0
C181 C 0.73824 0.75214 0.13915 0.0
C182 C 0.70039 0.79024 0.15289 0.0
C183 C 0.72155 0.76731 0.16052 0.0
H184 H 0.65353 0.83135 0.03831 0.0
H185 H 0.7248 0.76117 0.18288 0.0
H186 H 0.7496 0.96355 0.20922 0.0
H187 H 0.64003 0.01989 0.07781 0.0
H188 H 0.68671 0.80062 0.16956 0.0
H189 H 0.75481 0.73461 0.14515 0.0
H190 H 0.67805 0.97897 0.08562 0.0
H191 H 0.68175 0.80851 0.99755 0.0
H192 H 0.76583 0.72704 0.09258 0.0
H193 H 0.755 0.74081 0.04228 0.0
H194 H 0.73619 0.99398 0.25309 0.0
H195 H 0.72411 0.77163 1.00663 0.0
H196 H 0.62645 0.05586 0.11874 0.0
N197 N 0.71607 0.98482 0.18181 0.0
C198 C 0.69487 1.00763 0.17961 0.0
C199 C 0.72414 0.99787 0.23259 0.0
C200 C 0.68742 0.02663 0.20393 0.0
C201 C 0.73098 0.97993 0.2078 0.0
C202 C 0.7022 0.02131 0.23066 0.0
N203 N 0.68739 0.9919 0.13019 0.0
C204 C 0.67343 0.99502 0.10346 0.0
C205 C 0.65822 0.03518 0.14956 0.0
C206 C 0.68046 1.01176 0.15286 0.0
C207 C 0.64372 0.03822 0.12219 0.0
C208 C 0.65136 0.018 0.09905 0.0
H209 H 0.69708 0.03535 0.24987 0.0
H210 H 0.65944 0.06504 0.21919 0.0
H211 H 0.63391 0.0726 0.17152 0.0
O212 O 0.776 1.00244 0.11419 0.0
O213 O 0.65272 0.9228 0.14162 0.0
O214 O 0.63052 0.87357 0.10423 0.0
O215 O 0.78265 1.00335 0.15999 0.0
O216 O 0.73193 0.94211 0.0951 0.0
O217 O 0.66919 0.88392 0.07751 0.0
O218 O 0.61155 0.77737 0.13031 0.0
O219 O 0.73264 0.86843 0.1101 0.0
O220 O 0.7501 0.91287 0.14946 0.0
O221 O 0.60904 0.7837 0.08479 0.0
O222 O 0.64906 0.84256 0.15523 0.0
O223 O 0.71178 0.90419 0.17055 0.0
C224 C 0.62219 0.89369 0.12466 0.0
C225 C 0.82951 0.06885 0.13576 0.0
C226 C 0.90263 0.13211 0.13162 0.0
C227 C 0.88626 0.15879 0.14094 0.0
C228 C 0.81366 0.09603 0.14477 0.0
C229 C 0.84198 0.14085 0.14722 0.0
C230 C 0.87396 0.0871 0.12884 0.0
C231 C 0.70309 0.92386 0.07452 0.0
C232 C 0.80164 0.02119 0.13597 0.0
C233 C 0.66544 0.05015 0.20078 0.0
C234 C 0.65093 0.05447 0.17364 0.0
C235 C 0.75917 0.89018 0.13139 0.0
C236 C 0.54261 0.73529 0.10862 0.0
C237 C 0.47398 0.66604 0.11304 0.0
C238 C 0.45188 0.68946 0.11607 0.0
C239 C 0.5197 0.75781 0.11125 0.0
C240 C 0.51954 0.68931 0.10913 0.0
C241 C 0.47455 0.73493 0.1149 0.0
C242 C 0.67485 0.86809 0.17589 0.0
C243 C 0.59061 0.75885 0.10687 0.0
H244 H 0.90778 0.19352 0.14332 0.0
H245 H 0.7797 0.08253 0.1504 0.0
H246 H 0.8297 0.16171 0.15441 0.0
H247 H 0.88649 0.06615 0.12219 0.0
H248 H 0.41688 0.6725 0.11881 0.0
H249 H 0.53678 0.79295 0.11067 0.0
H250 H 0.53708 0.67169 0.10705 0.0
H251 H 0.45699 0.75246 0.11687 0.0
Tb252 Tb 0.78148 0.71894 0.64111 0.0
C253 C 0.90972 0.69733 0.57288 0.0
N254 N 0.86587 0.67591 0.5689 0.0
C255 C 0.87693 0.69609 0.51898 0.0
C256 C 0.93878 0.72085 0.55048 0.0
C257 C 0.84956 0.67258 0.54177 0.0
C258 C 0.92169 0.7211 0.52348 0.0
C259 C 0.97062 0.71098 0.60346 0.0
C260 C 0.92557 0.69226 0.59876 0.0
C261 C 0.99978 0.73656 0.58184 0.0
C262 C 0.98388 0.74147 0.55536 0.0
Tb263 Tb 0.8242 0.6397 0.60845 0.0
N264 N 0.89632 0.66746 0.61912 0.0
C265 C 0.9848 0.7024 0.62943 0.0
C266 C 0.9098 0.6568 0.64381 0.0
C267 C 0.95422 0.67467 0.64952 0.0
H268 H 0.81557 0.65106 0.53719 0.0
H269 H 0.96484 0.66706 0.66937 0.0
H270 H 0.79233 0.72499 0.71208 0.0
H271 H 0.64424 0.68975 0.57457 0.0
H272 H 0.88611 0.63546 0.65935 0.0
H273 H 0.01918 0.71614 0.63388 0.0
H274 H 0.72157 0.71826 0.58547 0.0
H275 H 0.86352 0.69406 0.49779 0.0
H276 H 0.0346 0.75164 0.58507 0.0
H277 H 1.00668 0.76005 0.5385 0.0
H278 H 0.74444 0.69949 0.75437 0.0
H279 H 0.94287 0.73864 0.50567 0.0
H280 H 0.58957 0.65683 0.61331 0.0
N281 N 0.74063 0.69994 0.68199 0.0
C282 C 0.69725 0.68352 0.67817 0.0
C283 C 0.73059 0.69398 0.73304 0.0
C284 C 0.66846 0.66974 0.70171 0.0
C285 C 0.75773 0.70735 0.70898 0.0
C286 C 0.68563 0.67439 0.72938 0.0
N287 N 0.71115 0.69748 0.62865 0.0
C288 C 0.69819 0.70182 0.60193 0.0
C289 C 0.63735 0.66676 0.6458 0.0
C290 C 0.68196 0.68223 0.6506 0.0
C291 C 0.62355 0.66832 0.61792 0.0
C292 C 0.65426 0.68669 0.59599 0.0
H293 H 0.66465 0.66435 0.74805 0.0
H294 H 0.6011 0.64187 0.71472 0.0
H295 H 0.57381 0.63911 0.66573 0.0
O296 O 0.77297 0.77353 0.63563 0.0
O297 O 0.73613 0.64707 0.64287 0.0
O298 O 0.75527 0.61754 0.60507 0.0
O299 O 0.82084 0.77504 0.66517 0.0
O300 O 0.794 0.72346 0.59495 0.0
O301 O 0.7835 0.65647 0.57983 0.0
O302 O 0.8166 0.58043 0.62503 0.0
O303 O 0.86655 0.69897 0.63162 0.0
O304 O 0.8429 0.7444 0.61706 0.0
O305 O 0.82126 0.59223 0.58008 0.0
O306 O 0.80536 0.63065 0.65485 0.0
O307 O 0.81565 0.69785 0.67059 0.0
C308 C 0.72814 0.6148 0.62511 0.0
C309 C 0.80112 0.82988 0.67132 0.0
C310 C 0.8152 0.90526 0.67473 0.0
C311 C 0.8122 0.90016 0.70492 0.0
C312 C 0.79737 0.82591 0.7012 0.0
C313 C 0.80249 0.86075 0.7178 0.0
C314 C 0.80862 0.8689 0.65819 0.0
C315 C 0.78261 0.69317 0.57527 0.0
C316 C 0.80404 0.7969 0.65366 0.0
C317 C 0.62378 0.65292 0.69693 0.0
C318 C 0.60825 0.65137 0.66903 0.0
C319 C 0.87449 0.73802 0.62545 0.0
C320 C 0.85899 0.55795 0.59807 0.0
C321 C 0.89302 0.51409 0.60982 0.0
C322 C 0.93049 0.54418 0.59491 0.0
C323 C 0.89661 0.58637 0.58249 0.0
C324 C 0.85701 0.52106 0.61141 0.0
C325 C 0.93208 0.5798 0.58124 0.0
C326 C 0.81263 0.6596 0.67545 0.0
C327 C 0.82281 0.56779 0.60024 0.0
H328 H 0.81859 0.92667 0.71915 0.0
H329 H 0.7921 0.79658 0.71182 0.0
H330 H 0.8005 0.85776 0.74094 0.0
H331 H 0.81052 0.87073 0.63505 0.0
H332 H 0.95827 0.53939 0.5931 0.0
H333 H 0.89877 0.61385 0.57104 0.0
H334 H 0.82799 0.49821 0.62295 0.0
H335 H 0.96084 0.60225 0.56933 0.0
Tb336 Tb 0.08194 0.77723 0.1431 0.0
C337 C 0.2332 0.90498 0.06847 0.0
N338 N 0.21089 0.86081 0.06677 0.0
C339 C 0.20389 0.86591 0.01573 0.0
C340 C 0.23992 0.93129 0.04413 0.0
C341 C 0.19902 0.84133 0.04039 0.0
C342 C 0.2236 0.91107 0.0177 0.0
C343 C 0.27967 0.96925 0.09656 0.0
C344 C 0.25266 0.92383 0.09421 0.0
C345 C 0.2845 0.99578 0.07285 0.0
C346 C 0.26448 0.9768 0.04669 0.0
Tb347 Tb 0.20286 0.82425 0.10936 0.0
N348 N 0.24643 0.8972 0.11679 0.0
C349 C 0.30187 0.98638 0.12241 0.0
C350 C 0.27005 0.91336 0.14146 0.0
C351 C 0.29758 0.95822 0.1448 0.0
H352 H 0.18668 0.80692 0.03788 0.0
H353 H 0.31537 0.97102 0.16462 0.0
H354 H 0.08607 0.81079 0.21041 0.0
H355 H 1.00005 0.61796 0.09406 0.0
H356 H 0.26682 0.89151 0.15867 0.0
H357 H 0.32306 0.02111 0.12506 0.0
H358 H 0.04262 0.69788 0.094 0.0
H359 H 0.19335 0.85004 0.9951 0.0
H360 H 0.30456 0.03083 0.07428 0.0
H361 H 0.26952 0.99748 0.02831 0.0
H362 H 0.06029 0.77639 0.25779 0.0
H363 H 0.22805 0.93008 0.99848 0.0
H364 H 0.97438 0.57798 0.13993 0.0
N365 N 0.06192 0.75053 0.18826 0.0
C366 C 0.03814 0.70644 0.18999 0.0
C367 C 0.05412 0.75636 0.23892 0.0
C368 C 0.0226 0.68549 0.21663 0.0
C369 C 0.06893 0.77572 0.21204 0.0
C370 C 0.03131 0.71106 0.24129 0.0
N371 N 0.04251 0.7035 0.1394 0.0
C372 C 0.03217 0.68109 0.11414 0.0
C373 C 1.00313 0.63643 0.16585 0.0
C374 C 0.02801 0.68218 0.16484 0.0
C375 C 0.99337 0.61319 0.14006 0.0
C376 C 1.00782 0.63564 0.11411 0.0
H377 H 0.01986 0.69619 0.26214 0.0
H378 H 0.9861 0.62318 0.23802 0.0
H379 H 0.96942 0.58025 0.19364 0.0
O380 O 1.01744 0.75874 0.1325 0.0
O381 O 0.11402 0.73683 0.14705 0.0
O382 O 0.15668 0.75473 0.10652 0.0
O383 O 0.05525 0.81383 0.16029 0.0
O384 O 0.08383 0.78033 0.0965 0.0
O385 O 0.14643 0.78118 0.0801 0.0
O386 O 0.25029 0.81578 0.13052 0.0
O387 O 0.18452 0.86934 0.12856 0.0
O388 O 0.1143 0.83434 0.11524 0.0
O389 O 0.2542 0.82551 0.08503 0.0
O390 O 0.1943 0.80878 0.156 0.0
O391 O 0.13732 0.81877 0.171 0.0
C392 C 0.1377 0.72918 0.1285 0.0
C393 C 0.97793 0.78151 0.16178 0.0
C394 C 0.91496 0.79221 0.16374 0.0
C395 C 0.90041 0.76559 0.18829 0.0
C396 C 0.96256 0.7546 0.186 0.0
C397 C 0.92401 0.74685 0.19923 0.0
C398 C 0.95386 0.79991 0.15057 0.0
C399 C 0.10621 0.77477 0.07615 0.0
C400 C 1.01821 0.79042 0.14708 0.0
C401 C 0.99815 0.63986 0.21773 0.0
C402 C 0.98855 0.61541 0.19244 0.0
C403 C 0.14896 0.87025 0.12285 0.0
C404 C 0.29673 0.79693 0.10603 0.0
C405 C 0.36677 0.799 0.10853 0.0
C406 C 0.34441 0.75352 0.11161 0.0
C407 C 0.275 0.75154 0.10884 0.0
C408 C 0.3426 0.82043 0.10542 0.0
C409 C 0.29883 0.72997 0.11144 0.0
C410 C 0.17151 0.81437 0.17639 0.0
C411 C 0.27323 0.82134 0.10764 0.0
H412 H 0.87043 0.75878 0.19881 0.0
H413 H 0.98 0.73943 0.19461 0.0
H414 H 0.91228 0.72609 0.21797 0.0
H415 H 0.96571 0.82064 0.13177 0.0
H416 H 0.36224 0.73623 0.1139 0.0
H417 H 0.23982 0.73304 0.1097 0.0
H418 H 0.35955 0.85561 0.10367 0.0
H419 H 0.28191 0.69493 0.11377 0.0
Tb420 Tb 0.30865 0.07268 0.63833 0.0
C421 C 0.35792 0.24385 0.57272 0.0
N422 N 0.37376 0.21663 0.56771 0.0
C423 C 0.36507 0.22136 0.51705 0.0
C424 C 0.34348 0.25974 0.54998 0.0
C425 C 0.3785 0.20603 0.54035 0.0
C426 C 0.34714 0.24805 0.52188 0.0
C427 C 0.33704 0.28143 0.60703 0.0
C428 C 0.3549 0.2546 0.60089 0.0
C429 C 0.32212 0.29695 0.58448 0.0
C430 C 0.32547 0.28626 0.55602 0.0
Tb431 Tb 0.39448 0.19338 0.60704 0.0
N432 N 0.3688 0.23814 0.62223 0.0
C433 C 0.33469 0.29185 0.63563 0.0
C434 C 0.36943 0.25098 0.64995 0.0
C435 C 0.35156 0.27709 0.65713 0.0
H436 H 0.39319 0.18628 0.53636 0.0
H437 H 0.35144 0.28637 0.67923 0.0
H438 H 0.28428 0.07915 0.70624 0.0
H439 H 0.34727 0.95586 0.59306 0.0
H440 H 0.38474 0.24266 0.6667 0.0
H441 H 0.32092 0.3121 0.64128 0.0
H442 H 0.31677 1.00519 0.59329 0.0
H443 H 0.36862 0.21265 0.49538 0.0
H444 H 0.30799 0.31729 0.58883 0.0
H445 H 0.31387 0.29849 0.53885 0.0
H446 H 0.3057 0.06702 0.75437 0.0
H447 H 0.33649 0.25961 0.5038 0.0
H448 H 0.37991 0.94588 0.6374 0.0
N449 N 0.32241 0.0579 0.68394 0.0
C450 C 0.34348 0.03499 0.68612 0.0
C451 C 0.3175 0.05873 0.73534 0.0
C452 C 0.35469 0.02512 0.71302 0.0
C453 C 0.30643 0.06675 0.70808 0.0
C454 C 0.34279 0.03882 0.73783 0.0
N455 N 0.33403 0.02452 0.63656 0.0
C456 C 0.33108 1.00108 0.61252 0.0
C457 C 0.36637 0.98899 0.66262 0.0
C458 C 0.34902 0.01706 0.66147 0.0
C459 C 0.36688 0.96777 0.63745 0.0
C460 C 0.34837 0.97321 0.61241 0.0
H461 H 0.35067 0.03186 0.75894 0.0
H462 H 0.38419 0.9921 0.73468 0.0
H463 H 0.39458 0.96047 0.6904 0.0
O464 O 0.25294 0.02992 0.614 0.0
O465 O 0.37395 0.0858 0.62322 0.0
O466 O 0.41621 0.15746 0.63388 0.0
O467 O 0.25082 0.02942 0.65964 0.0
O468 O 0.3099 0.08486 0.59199 0.0
O469 O 0.37954 0.13722 0.57757 0.0
O470 O 0.44699 0.25457 0.61769 0.0
O471 O 0.32413 0.16267 0.59862 0.0
O472 O 0.29135 0.12458 0.63955 0.0
O473 O 0.45181 0.21907 0.58188 0.0
O474 O 0.39618 0.18356 0.65392 0.0
O475 O 0.32634 0.1299 0.66566 0.0
C476 C 0.41271 0.12029 0.627 0.0
C477 C 0.20171 0.96402 0.63698 0.0
C478 C 0.12894 0.89956 0.63547 0.0
C479 C 0.14709 0.87414 0.64444 0.0
C480 C 0.21899 0.93792 0.64583 0.0
C481 C 0.19178 0.8932 0.64938 0.0
C482 C 0.15671 0.94464 0.63148 0.0
C483 C 0.3423 0.09972 0.57342 0.0
C484 C 0.2291 1.0118 0.63647 0.0
C485 C 0.37484 0.99963 0.71426 0.0
C486 C 0.38067 0.98155 0.68906 0.0
C487 C 0.29293 0.14915 0.61782 0.0
C488 C 0.49526 0.29764 0.58119 0.0
C489 C 0.5464 0.37671 0.58311 0.0
C490 C 0.54393 0.378 0.55301 0.0
C491 C 0.49368 0.30021 0.55123 0.0
C492 C 0.5219 0.33607 0.59701 0.0
C493 C 0.51788 0.34015 0.53732 0.0
C494 C 0.36514 0.16191 0.673 0.0
C495 C 0.47098 0.25536 0.59646 0.0
H496 H 0.12666 0.83938 0.64752 0.0
H497 H 0.25327 0.95223 0.65068 0.0
H498 H 0.20528 0.87328 0.6564 0.0
H499 H 0.14311 0.96485 0.6252 0.0
H500 H 0.56301 0.40821 0.54143 0.0
H501 H 0.47406 0.27139 0.53849 0.0
H502 H 0.52348 0.33426 0.62017 0.0
H503 H 0.51679 0.34174 0.51416 0.0
Tb504 Tb 0.72214 0.7728 0.3773 0.0
C505 C 0.69231 0.90855 0.44902 0.0
N506 N 0.67102 0.86443 0.45103 0.0
C507 C 0.67273 0.86966 0.50252 0.0
C508 C 0.70595 0.935 0.47374 0.0
C509 C 0.65911 0.84482 0.47741 0.0
C510 C 0.69683 0.91495 0.50069 0.0
C511 C 0.7159 0.97256 0.41917 0.0
C512 C 0.69744 0.92719 0.42215 0.0
C513 C 0.73148 0.99919 0.44358 0.0
C514 C 0.72656 0.98045 0.47082 0.0
Tb515 Tb 0.65186 0.82784 0.40804 0.0
N516 N 0.68228 0.90048 0.39899 0.0
C517 C 0.71663 0.98955 0.3919 0.0
C518 C 0.68005 0.9165 0.37269 0.0
C519 C 0.69791 0.96131 0.36866 0.0
H520 H 0.63912 0.80984 0.47913 0.0
H521 H 0.69721 0.97403 0.34766 0.0
H522 H 0.70944 0.78098 0.30693 0.0
H523 H 0.72616 0.64261 0.43546 0.0
H524 H 0.66525 0.8947 0.35478 0.0
H525 H 0.73042 0.02424 0.38872 0.0
H526 H 0.74557 0.71872 0.42633 0.0
H527 H 0.66411 0.85386 0.52327 0.0
H528 H 0.74618 0.03419 0.44174 0.0
H529 H 0.73742 1.00127 0.48956 0.0
H530 H 0.67328 0.73117 0.26663 0.0
H531 H 0.70678 0.93411 0.52019 0.0
H532 H 0.68179 0.58534 0.40013 0.0
N533 N 0.69504 0.7306 0.33717 0.0
C534 C 0.68046 0.68753 0.34077 0.0
C535 C 0.67445 0.71833 0.28749 0.0
C536 C 0.66085 0.65779 0.31804 0.0
C537 C 0.69414 0.74654 0.31064 0.0
C538 C 0.65704 0.67363 0.29132 0.0
N539 N 0.70959 0.70425 0.38734 0.0
C540 C 0.72526 0.69386 0.41108 0.0
C541 C 0.67687 0.6301 0.37081 0.0
C542 C 0.68795 0.67385 0.36684 0.0
C543 C 0.6896 0.61859 0.39625 0.0
C544 C 0.71468 0.65082 0.41622 0.0
H545 H 0.64223 0.65188 0.27328 0.0
H546 H 0.6317 0.59017 0.30534 0.0
H547 H 0.64601 0.56593 0.35155 0.0
O548 O 0.78337 0.7857 0.39268 0.0
O549 O 0.65024 0.73837 0.37033 0.0
O550 O 0.62493 0.75766 0.41033 0.0
O551 O 0.77374 0.79179 0.34789 0.0
O552 O 0.69662 0.75084 0.42035 0.0
O553 O 0.68083 0.80183 0.44042 0.0
O554 O 0.59899 0.82487 0.3851 0.0
O555 O 0.71768 0.87168 0.39288 0.0
O556 O 0.74929 0.83147 0.40479 0.0
O557 O 0.59886 0.82495 0.43092 0.0
O558 O 0.64929 0.81336 0.3614 0.0
O559 O 0.71693 0.82139 0.3516 0.0
C560 C 0.61868 0.73191 0.38844 0.0
C561 C 0.82866 0.77487 0.36058 0.0
C562 C 0.90094 0.78191 0.3573 0.0
C563 C 0.88151 0.73938 0.34642 0.0
C564 C 0.8101 0.73241 0.34979 0.0
C565 C 0.83642 0.71478 0.3429 0.0
C566 C 0.87423 0.79948 0.36461 0.0
C567 C 0.6931 0.77183 0.44246 0.0
C568 C 0.80112 0.7941 0.3674 0.0
C569 C 0.64719 0.61362 0.32245 0.0
C570 C 0.65527 0.5998 0.34878 0.0
C571 C 0.75256 0.86903 0.39815 0.0
C572 C 0.53098 0.80408 0.40752 0.0
C573 C 0.46357 0.80631 0.39902 0.0
C574 C 0.4397 0.76149 0.40493 0.0
C575 C 0.50627 0.75959 0.41367 0.0
C576 C 0.50947 0.82754 0.40049 0.0
C577 C 0.46087 0.73849 0.41236 0.0
C578 C 0.68185 0.82248 0.34368 0.0
C579 C 0.57912 0.82677 0.40793 0.0
H580 H 0.90134 0.72522 0.34059 0.0
H581 H 0.77537 0.71304 0.34645 0.0
H582 H 0.82185 0.68201 0.33452 0.0
H583 H 0.8889 0.83242 0.37279 0.0
H584 H 0.40449 0.74424 0.40386 0.0
H585 H 0.52208 0.74119 0.41931 0.0
H586 H 0.52838 0.86198 0.39564 0.0
H587 H 0.44197 0.70404 0.41697 0.0
Tb588 Tb 0.96797 0.72111 0.87448 0.0
C589 C 0.80459 0.6885 0.94481 0.0
N590 N 0.82792 0.66786 0.94836 0.0
C591 C 0.82665 0.67643 0.9995 0.0
C592 C 0.79297 0.70548 0.96837 0.0
C593 C 0.83648 0.65925 0.97551 0.0
C594 C 0.80563 0.70046 0.99588 0.0
C595 C 0.76022 0.70522 0.91345 0.0
C596 C 0.78824 0.68831 0.91785 0.0
C597 C 0.75065 0.72451 0.9365 0.0
C598 C 0.76711 0.72473 0.9639 0.0
Tb599 Tb 0.84333 0.64247 0.90701 0.0
N600 N 0.79857 0.66966 0.89606 0.0
C601 C 0.74189 0.7012 0.88621 0.0
C602 C 0.77909 0.66365 0.86983 0.0
C603 C 0.75098 0.67986 0.8644 0.0
H604 H 0.85069 0.63883 0.97897 0.0
H605 H 0.73624 0.67576 0.84345 0.0
H606 H 0.95244 0.74479 0.80753 0.0
H607 H 0.0837 0.67651 0.91411 0.0
H608 H 0.78552 0.64665 0.85306 0.0
H609 H 0.72009 0.71367 0.88195 0.0
H610 H 0.0358 0.70795 0.91731 0.0
H611 H 0.83467 0.67046 0.02082 0.0
H612 H 0.72961 0.73823 0.93354 0.0
H613 H 0.75832 0.73834 0.98171 0.0
H614 H 0.96343 0.7265 0.75846 0.0
H615 H 0.79743 0.71308 0.01455 0.0
H616 H 0.09514 0.65094 0.86729 0.0
N617 N 0.9802 0.71042 0.8277 0.0
C618 C 1.00495 0.69151 0.82375 0.0
C619 C 0.97468 0.71578 0.77665 0.0
C620 C 1.01386 0.68207 0.79603 0.0
C621 C 0.96755 0.72519 0.80459 0.0
C622 C 0.99723 0.69334 0.77235 0.0
N623 N 1.0163 0.6962 0.87366 0.0
C624 C 0.03844 0.69476 0.89721 0.0
C625 C 0.05245 0.6678 0.84436 0.0
C626 C 0.02417 0.68471 0.84752 0.0
C627 C 0.07313 0.66373 0.86878 0.0
C628 C 0.06658 0.67792 0.89526 0.0
H629 H 1.00324 0.6866 0.75068 0.0
H630 H 0.04731 0.65551 0.77171 0.0
H631 H 0.081 0.64283 0.81411 0.0
O632 O 0.02965 0.7724 0.88618 0.0
O633 O 0.93858 0.64954 0.86936 0.0
O634 O 0.89158 0.62157 0.9078 0.0
O635 O 0.98987 0.7832 0.85636 0.0
O636 O 0.96892 0.70857 0.92022 0.0
O637 O 0.89832 0.66473 0.93905 0.0
O638 O 0.79313 0.58535 0.88732 0.0
O639 O 0.86264 0.70805 0.89196 0.0
O640 O 0.93384 0.74186 0.90448 0.0
O641 O 0.79963 0.58949 0.93265 0.0
O642 O 0.85445 0.63919 0.86018 0.0
O643 O 0.91006 0.70905 0.8505 0.0
C644 C 0.91174 0.61648 0.88586 0.0
C645 C 0.06624 0.8299 0.85327 0.0
C646 C 0.12669 0.90337 0.84424 0.0
C647 C 0.1414 0.88642 0.82245 0.0
C648 C 0.08168 0.81379 0.83159 0.0
C649 C 0.11909 0.84197 0.81628 0.0
C650 C 0.08904 0.87468 0.85976 0.0
C651 C 0.94177 0.68826 0.94152 0.0
C652 C 0.027 0.80059 0.86976 0.0
C653 C 0.04044 0.66339 0.79282 0.0
C654 C 0.05973 0.65629 0.81695 0.0
C655 C 0.89888 0.74381 0.89795 0.0
C656 C 0.72743 0.55296 0.91451 0.0
C657 C 0.64959 0.50106 0.90621 0.0
C658 C 0.63938 0.53012 0.91991 0.0
C659 C 0.71528 0.57971 0.92932 0.0
C660 C 0.69408 0.51282 0.90335 0.0
C661 C 0.67193 0.56888 0.93149 0.0
C662 C 0.87694 0.67171 0.84209 0.0
C663 C 0.77468 0.56731 0.91146 0.0
H664 H 0.17042 0.90759 0.81029 0.0
H665 H 0.06502 0.77953 0.82655 0.0
H666 H 0.13087 0.82932 0.79956 0.0
H667 H 0.0771 0.88724 0.87649 0.0
H668 H 0.60584 0.52197 0.92281 0.0
H669 H 0.73922 0.60881 0.9398 0.0
H670 H 0.70258 0.49091 0.89275 0.0
H671 H 0.66346 0.59026 0.9428 0.0
Tb672 Tb 0.24796 0.94918 0.37199 0.0
C673 C 0.11445 0.78478 0.44397 0.0
N674 N 0.15781 0.80883 0.44928 0.0
C675 C 0.14404 0.80292 0.49997 0.0
C676 C 0.084 0.76921 0.46659 0.0
C677 C 0.17301 0.81761 0.47684 0.0
C678 C 0.09934 0.77867 0.49484 0.0
C679 C 0.05571 0.75212 0.40928 0.0
C680 C 0.10052 0.77633 0.41566 0.0
C681 C 0.02526 0.73641 0.43175 0.0
C682 C 0.03937 0.74492 0.46032 0.0
Tb683 Tb 0.20154 0.82983 0.40979 0.0
N684 N 0.13084 0.79314 0.39442 0.0
C685 C 0.04282 0.74496 0.3805 0.0
C686 C 0.11838 0.78548 0.36636 0.0
C687 C 0.07432 0.7616 0.35896 0.0
H688 H 0.20754 0.83472 0.48116 0.0
H689 H 0.06471 0.75622 0.33662 0.0
H690 H 0.19237 0.93615 0.31272 0.0
H691 H 0.41917 0.04887 0.39691 0.0
H692 H 0.14201 0.798 0.34962 0.0
H693 H 1.0087 0.7268 0.37469 0.0
H694 H 0.34192 0.99908 0.40768 0.0
H695 H 0.15625 0.80987 0.52175 0.0
H696 H 0.9907 0.71788 0.42724 0.0
H697 H 1.01548 0.73274 0.47742 0.0
H698 H 0.20797 0.95853 0.26174 0.0
H699 H 0.077 0.76721 0.51282 0.0
H700 H 0.44223 0.07311 0.34696 0.0
N701 N 0.25901 0.96909 0.32492 0.0
C702 C 0.30078 0.99543 0.31664 0.0
C703 C 0.23439 0.96909 0.27697 0.0
C704 C 0.31128 1.0093 0.28796 0.0
C705 C 0.22567 0.95629 0.30575 0.0
C706 C 0.27741 0.99551 0.26799 0.0
N707 N 0.32085 0.99519 0.36458 0.0
C708 C 0.35123 1.01008 0.38603 0.0
C709 C 0.37676 0.03723 0.32991 0.0
C710 C 0.33288 1.00899 0.33723 0.0
C711 C 0.40813 0.05146 0.35166 0.0
C712 C 0.39523 0.03797 0.37989 0.0
H713 H 0.28409 1.00534 0.2457 0.0
H714 H 0.36388 0.04759 0.25836 0.0
H715 H 0.4213 0.07219 0.29517 0.0
O716 O 0.22092 0.9747 0.40107 0.0
O717 O 0.29507 0.92468 0.37455 0.0
O718 O 0.272 0.8709 0.4103 0.0
O719 O 0.24268 1.00357 0.35941 0.0
O720 O 0.26395 0.95294 0.41764 0.0
O721 O 0.2353 0.88498 0.44092 0.0
O722 O 0.1896 0.76814 0.39511 0.0
O723 O 0.16669 0.86673 0.4131 0.0
O724 O 0.17924 0.89863 0.36914 0.0
O725 O 0.21813 0.79187 0.43626 0.0
O726 O 0.2218 0.83608 0.36374 0.0
O727 O 0.20885 0.88951 0.34784 0.0
C728 C 0.30088 0.89817 0.39191 0.0
C729 C 0.24226 0.04961 0.3961 0.0
C730 C 0.23462 0.11425 0.40375 0.0
C731 C 0.27214 0.13182 0.42107 0.0
C732 C 0.27964 0.06823 0.41332 0.0
C733 C 0.29442 0.10907 0.42569 0.0
C734 C 0.22004 0.07293 0.39109 0.0
C735 C 0.25595 0.92854 0.44076 0.0
C736 C 0.22571 1.0057 0.38366 0.0
C737 C 0.35504 0.03669 0.28031 0.0
C738 C 0.38773 0.05067 0.30127 0.0
C739 C 0.15412 0.88207 0.39173 0.0
C740 C 0.17441 0.71416 0.43129 0.0
C741 C 0.14198 0.6339 0.42994 0.0
C742 C 0.12299 0.63174 0.45682 0.0
C743 C 0.15491 0.70982 0.45822 0.0
C744 C 0.16823 0.67568 0.41723 0.0
C745 C 0.12943 0.66918 0.47071 0.0
C746 C 0.2208 0.86064 0.34273 0.0
C747 C 0.20249 0.75876 0.41883 0.0
H748 H 0.28472 0.1636 0.43079 0.0
H749 H 0.29728 0.05108 0.41729 0.0
H750 H 0.32332 0.12321 0.43898 0.0
H751 H 0.19106 0.05858 0.37783 0.0
H752 H 0.10342 0.60076 0.46747 0.0
H753 H 0.15973 0.73788 0.47009 0.0
H754 H 0.18337 0.6782 0.3966 0.0
H755 H 0.11482 0.6667 0.49151 0.0
Tb756 Tb 0.3063 0.24773 0.87507 0.0
C757 C 0.33268 0.11058 0.93992 0.0
N758 N 0.35235 0.15395 0.94543 0.0
C759 C 0.3395 0.1393 0.99582 0.0
C760 C 0.31533 0.07974 0.96226 0.0
C761 C 0.35647 0.16867 0.97295 0.0
C762 C 0.31871 0.09464 0.99046 0.0
C763 C 0.31113 0.05263 0.90511 0.0
C764 C 0.33058 0.09729 0.91168 0.0
C765 C 0.29346 0.02171 0.92727 0.0
C766 C 0.29553 0.03522 0.95577 0.0
Tb767 Tb 0.37963 0.19887 0.90656 0.0
N768 N 0.34768 0.12823 0.89074 0.0
C769 C 0.31019 0.04041 0.8765 0.0
C770 C 0.34954 0.11638 0.86313 0.0
C771 C 0.32994 0.07246 0.85549 0.0
H772 H 0.37372 0.20303 0.97748 0.0
H773 H 0.33088 0.06338 0.83345 0.0
H774 H 0.28135 0.21894 0.80689 0.0
H775 H 0.37675 0.40343 0.92827 0.0
H776 H 0.36723 0.14023 0.84691 0.0
H777 H 0.29529 1.00644 0.87053 0.0
H778 H 0.34419 0.32391 0.92559 0.0
H779 H 0.34286 0.15115 0.01759 0.0
H780 H 0.27821 0.98726 0.9226 0.0
H781 H 0.28191 1.01099 0.97262 0.0
H782 H 0.29305 0.25567 0.76004 0.0
H783 H 0.30585 0.07205 0.00825 0.0
H784 H 0.38886 0.44621 0.8838 0.0
N785 N 0.31305 0.2777 0.8307 0.0
C786 C 0.33148 0.32163 0.83002 0.0
C787 C 0.30436 0.27467 0.77953 0.0
C788 C 0.33739 0.34402 0.80392 0.0
C789 C 0.29864 0.25394 0.80603 0.0
C790 C 0.324 0.31996 0.77844 0.0
N791 N 0.33891 0.32136 0.88028 0.0
C792 C 0.34962 0.342 0.90615 0.0
C793 C 0.36249 0.38973 0.85611 0.0
C794 C 0.34408 0.34417 0.85571 0.0
C795 C 0.37457 0.41121 0.88255 0.0
C796 C 0.36792 0.38719 0.90768 0.0
H797 H 0.32808 0.33594 0.75792 0.0
H798 H 0.36096 0.40731 0.78429 0.0
H799 H 0.38278 0.44734 0.83002 0.0
O800 O 0.25536 0.2412 0.90144 0.0
O801 O 0.37816 0.29092 0.87163 0.0
O802 O 0.4082 0.26917 0.9075 0.0
O803 O 0.24835 0.23735 0.85552 0.0
O804 O 0.306 0.23547 0.92112 0.0
O805 O 0.37213 0.2445 0.93605 0.0
O806 O 0.43506 0.20029 0.88851 0.0
O807 O 0.30787 0.16265 0.91241 0.0
O808 O 0.2812 0.17752 0.87182 0.0
O809 O 0.42957 0.20387 0.93384 0.0
O810 O 0.38378 0.21254 0.85919 0.0
O811 O 0.31618 0.20315 0.849 0.0
C812 C 0.41205 0.29566 0.88661 0.0
C813 C 0.20358 0.25707 0.88138 0.0
C814 C 0.1326 0.25048 0.88905 0.0
C815 C 0.15071 0.29504 0.8833 0.0
C816 C 0.22143 0.30158 0.87571 0.0
C817 C 0.19497 0.32044 0.87668 0.0
C818 C 0.15918 0.23166 0.88807 0.0
C819 C 0.33725 0.24873 0.94021 0.0
C820 C 0.2298 0.23568 0.87986 0.0
C821 C 0.35613 0.3895 0.80412 0.0
C822 C 0.36851 0.41229 0.83017 0.0
C823 C 0.27754 0.15076 0.89263 0.0
C824 C 0.4675 0.16855 0.91703 0.0
C825 C 0.5226 0.14633 0.91102 0.0
C826 C 0.49332 0.10562 0.92289 0.0
C827 C 0.44001 0.12809 0.92981 0.0
C828 C 0.5095 0.17794 0.90805 0.0
C829 C 0.45254 0.09678 0.93238 0.0
C830 C 0.35306 0.20674 0.84055 0.0
C831 C 0.45232 0.20058 0.91318 0.0
H832 H 0.13053 0.31002 0.88372 0.0
H833 H 0.25553 0.32154 0.87038 0.0
H834 H 0.20872 0.35476 0.87214 0.0
H835 H 0.14519 0.19713 0.89224 0.0
H836 H 0.50259 0.08099 0.92568 0.0
H837 H 0.40896 0.12064 0.93823 0.0
H838 H 0.53169 0.20941 0.8988 0.0
H839 H 0.43069 0.06566 0.94215 0.0
Tb840 Tb 0.07609 0.30655 0.37737 0.0
C841 C 0.24521 0.33914 0.44012 0.0
N842 N 0.22356 0.36072 0.44597 0.0
C843 C 0.23115 0.3531 0.49643 0.0
C844 C 0.25933 0.32208 0.46232 0.0
C845 C 0.21771 0.3693 0.47362 0.0
C846 C 0.25158 0.32889 0.49077 0.0
C847 C 0.27628 0.31273 0.40471 0.0
C848 C 0.25347 0.33461 0.41173 0.0
C849 C 0.28901 0.29414 0.42664 0.0
C850 C 0.28074 0.29899 0.4554 0.0
Tb851 Tb 0.20042 0.38351 0.40765 0.0
N852 N 0.24076 0.35325 0.39117 0.0
C853 C 0.28675 0.31135 0.37598 0.0
C854 C 0.25535 0.35604 0.36365 0.0
C855 C 0.27715 0.33399 0.35547 0.0
H856 H 0.20255 0.38854 0.47818 0.0
H857 H 0.28741 0.33535 0.33345 0.0
H858 H 0.08612 0.28134 0.30982 0.0
H859 H 0.96467 0.3573 0.41427 0.0
H860 H 0.25188 0.37627 0.34789 0.0
H861 H 0.30405 0.2947 0.36965 0.0
H862 H 1.00493 0.31666 0.41639 0.0
H863 H 0.22577 0.35931 0.51835 0.0
H864 H 0.30607 0.27675 0.42161 0.0
H865 H 0.29134 0.28512 0.47213 0.0
H866 H 0.08572 0.30946 0.26126 0.0
H867 H 0.26181 0.31625 0.50847 0.0
H868 H 0.96899 0.39897 0.37042 0.0
N869 N 0.07055 0.32491 0.33086 0.0
C870 C 0.05356 0.35143 0.32737 0.0
C871 C 0.07744 0.32231 0.27976 0.0
C872 C 0.05044 0.36686 0.3001 0.0
C873 C 0.07869 0.30719 0.30733 0.0
C874 C 0.06445 0.35332 0.2762 0.0
N875 N 0.03418 0.33867 0.37567 0.0
C876 C 1.0077 0.33592 0.39775 0.0
C877 C 1.01108 0.38087 0.34799 0.0
C878 C 0.03399 0.35813 0.35072 0.0
C879 C 0.98714 0.38188 0.37158 0.0
C880 C 0.9846 0.35838 0.39637 0.0
H881 H 0.0627 0.36438 0.25482 0.0
H882 H 0.02863 0.40548 0.27678 0.0
H883 H 0.9942 0.41792 0.3189 0.0
O884 O 0.03446 0.25043 0.4013 0.0
O885 O 0.09626 0.37402 0.39229 0.0
O886 O 0.16636 0.40473 0.37903 0.0
O887 O 0.02153 0.25497 0.35712 0.0
O888 O 0.08009 0.3142 0.42386 0.0
O889 O 0.14815 0.37119 0.43992 0.0
O890 O 0.2666 0.43251 0.40342 0.0
O891 O 0.16045 0.31528 0.42123 0.0
O892 O 0.12196 0.28142 0.3808 0.0
O893 O 0.22131 0.44357 0.42859 0.0
O894 O 0.19024 0.38118 0.36025 0.0
O895 O 0.13198 0.31218 0.35334 0.0
C896 C 0.13405 0.40932 0.38774 0.0
C897 C 1.00558 0.18594 0.37415 0.0
C898 C 0.96116 0.10628 0.37591 0.0
C899 C 0.99665 0.1036 0.36483 0.0
C900 C 0.04005 0.18212 0.36263 0.0
C901 C 0.03571 0.14124 0.35829 0.0
C902 C 0.96616 0.14794 0.38076 0.0
C903 C 0.10618 0.34109 0.44374 0.0
C904 C 1.01091 0.22949 0.37927 0.0
C905 C 0.03076 0.39269 0.29747 0.0
C906 C 1.01105 0.3997 0.32144 0.0
C907 C 0.14382 0.28176 0.4038 0.0
C908 C 0.29611 0.50495 0.42498 0.0
C909 C 0.37113 0.56548 0.41886 0.0
C910 C 0.35883 0.5934 0.43188 0.0
C911 C 0.28529 0.53383 0.43824 0.0
C912 C 0.33959 0.52093 0.41561 0.0
C913 C 0.31642 0.5776 0.44165 0.0
C914 C 0.16612 0.34745 0.34345 0.0
C915 C 0.26073 0.45991 0.41852 0.0
H916 H 0.99389 0.07237 0.36036 0.0
H917 H 0.07026 0.2107 0.35673 0.0
H918 H 0.06256 0.13871 0.34942 0.0
H919 H 0.93951 0.1509 0.38962 0.0
H920 H 0.38236 0.62754 0.43485 0.0
H921 H 0.25235 0.52286 0.44538 0.0
H922 H 0.34859 0.49925 0.40521 0.0
H923 H 0.30749 0.59954 0.4517 0.0
Tb924 Tb 0.77767 0.06354 0.87083 0.0
C925 C 0.91884 0.22808 0.9381 0.0
N926 N 0.87562 0.207 0.94405 0.0
C927 C 0.8913 0.21571 0.99452 0.0
C928 C 0.95014 0.24375 0.96023 0.0
C929 C 0.86156 0.2018 0.9718 0.0
C930 C 0.93582 0.23645 0.98872 0.0
C931 C 0.97608 0.26132 0.90258 0.0
C932 C 0.93154 0.23666 0.90967 0.0
C933 C 1.00747 0.27645 0.92449 0.0
C934 C 0.99452 0.26751 0.95325 0.0
Tb935 Tb 0.82961 0.18518 0.90549 0.0
N936 N 0.90011 0.2221 0.88909 0.0
C937 C 0.98768 0.27071 0.87373 0.0
C938 C 0.9114 0.23474 0.86128 0.0
C939 C 0.95513 0.25785 0.85302 0.0
H940 H 0.8274 0.18819 0.97643 0.0
H941 H 0.96367 0.26682 0.83078 0.0
H942 H 0.81492 0.07326 0.80436 0.0
H943 H 0.61496 0.98269 0.91501 0.0
H944 H 0.88725 0.22904 0.84546 0.0
H945 H 0.02153 0.28915 0.86735 0.0
H946 H 0.69471 0.02749 0.91698 0.0
H947 H 0.87988 0.2112 0.01646 0.0
H948 H 0.04182 0.29527 0.91944 0.0
H949 H 0.01906 0.27976 0.96992 0.0
H950 H 0.78378 0.05289 0.75559 0.0
H951 H 0.95882 0.24789 1.00634 0.0
H952 H 0.57793 0.95609 0.86828 0.0
N953 N 0.75322 0.04544 0.82492 0.0
C954 C 0.70934 0.02179 0.8218 0.0
C955 C 0.76249 0.04411 0.77403 0.0
C956 C 0.69017 1.00843 0.79448 0.0
C957 C 0.78001 0.05612 0.80163 0.0
C958 C 0.71736 0.02027 0.77042 0.0
N959 N 0.70339 0.02511 0.87205 0.0
C960 C 0.67929 0.01502 0.89663 0.0
C961 C 0.63795 0.98543 0.84396 0.0
C962 C 0.68362 1.01049 0.84619 0.0
C963 C 0.61311 0.97515 0.86908 0.0
C964 C 0.6339 0.99007 0.8955 0.0
H965 H 0.7039 1.01077 0.74903 0.0
H966 H 0.62927 0.97299 0.77131 0.0
H967 H 0.58357 0.95286 0.81463 0.0
O968 O 0.79355 0.02406 0.89626 0.0
O969 O 0.73654 0.09457 0.87014 0.0
O970 O 0.75945 0.1429 0.90811 0.0
O971 O 0.77514 1.00822 0.85223 0.0
O972 O 0.77509 0.0654 0.91742 0.0
O973 O 0.79218 0.1327 0.93786 0.0
O974 O 0.82985 0.2395 0.8864 0.0
O975 O 0.86407 0.14786 0.91037 0.0
O976 O 0.84786 0.10895 0.86868 0.0
O977 O 0.82204 0.22978 0.93158 0.0
O978 O 0.8127 0.17637 0.85856 0.0
O979 O 0.82329 0.11989 0.84653 0.0
C980 C 0.73219 0.12204 0.88717 0.0
C981 C 0.82818 0.9927 0.86995 0.0
C982 C 0.86353 0.94827 0.8731 0.0
C983 C 0.90059 0.98225 0.85986 0.0
C984 C 0.86512 0.0252 0.85596 0.0
C985 C 0.90125 0.02029 0.85135 0.0
C986 C 0.82732 0.95401 0.87835 0.0
C987 C 0.779 0.09019 0.93954 0.0
C988 C 0.7904 0.99898 0.87486 0.0
C989 C 0.64465 0.98357 0.79211 0.0
C990 C 0.61862 0.97202 0.81679 0.0
C991 C 0.87445 0.12873 0.89025 0.0
C992 C 0.86004 0.30337 0.91501 0.0
C993 C 0.88472 0.38116 0.90774 0.0
C994 C 0.92398 0.39156 0.92154 0.0
C995 C 0.89899 0.31551 0.92969 0.0
C996 C 0.85264 0.33666 0.90439 0.0
C997 C 0.93085 0.35901 0.93255 0.0
C998 C 0.81732 0.15209 0.83889 0.0
C999 C 0.82771 0.25634 0.91066 0.0
H1000 H 0.92861 0.97882 0.85507 0.0
H1001 H 0.86569 0.0541 0.84815 0.0
H1002 H 0.92959 0.04575 0.84059 0.0
H1003 H 0.79852 0.92842 0.88868 0.0
H1004 H 0.94893 0.42516 0.92479 0.0
H1005 H 0.90485 0.29156 0.9394 0.0
H1006 H 0.8223 0.32805 0.89363 0.0
H1007 H 0.9608 0.36756 0.94379 0.0
H1008 H 0.2132 0.94962 0.14161 0.0
H1009 H 0.08408 0.88576 0.10552 0.0
H1010 H 0.0841 0.95469 0.10575 0.0
H1011 H 0.12035 0.03305 0.11702 0.0
H1012 H 0.25084 0.09749 0.15105 0.0
H1013 H 0.25176 0.02894 0.14932 0.0
C1014 C 0.18555 0.95087 0.13306 0.0
C1015 C 0.14907 0.91241 0.1231 0.0
C1016 C 0.18626 0.99096 0.13258 0.0
C1017 C 0.11274 0.91465 0.11323 0.0
C1018 C 0.11279 0.95419 0.11325 0.0
C1019 C 0.14917 0.03218 0.12382 0.0
C1020 C 0.18548 0.07049 0.13425 0.0
C1021 C 0.14933 0.99254 0.12292 0.0
C1022 C 0.22266 0.06878 0.14267 0.0
C1023 C 0.223 0.02942 0.14196 0.0
H1024 H 0.24466 0.15936 0.66032 0.0
H1025 H 0.2676 0.17221 0.56902 0.0
H1026 H 0.22223 0.20553 0.56401 0.0
H1027 H 0.17896 0.23488 0.58567 0.0
H1028 H 0.15128 0.21849 0.67619 0.0
H1029 H 0.19496 0.18263 0.68142 0.0
C1030 C 0.23916 0.16887 0.6393 0.0
C1031 C 0.26043 0.16408 0.61516 0.0
C1032 C 0.21228 0.1877 0.63645 0.0
C1033 C 0.25261 0.17638 0.58807 0.0
C1034 C 0.22646 0.19536 0.58514 0.0
C1035 C 0.1822 0.22307 0.60649 0.0
C1036 C 0.16206 0.22948 0.63053 0.0
C1037 C 0.20678 0.20194 0.6092 0.0
C1038 C 0.16629 0.21376 0.65734 0.0
C1039 C 0.19142 0.19341 0.66034 0.0
H1040 H 0.96846 0.16218 0.17019 0.0
H1041 H 0.94215 0.14593 0.07951 0.0
H1042 H 0.02054 0.18499 0.06927 0.0
H1043 H 0.0966 0.22967 0.08637 0.0
H1044 H 0.1219 0.24393 0.17744 0.0
H1045 H 0.04442 0.1992 0.18727 0.0
C1046 C 0.98007 0.16675 0.14823 0.0
C1047 C 0.94983 0.15152 0.1256 0.0
C1048 C 0.02508 0.18889 0.1426 0.0
C1049 C 0.96499 0.15738 0.09722 0.0
C1050 C 1.00976 0.17969 0.09141 0.0
C1051 C 0.08514 0.22233 0.10833 0.0
C1052 C 0.11512 0.24079 0.13109 0.0
C1053 C 0.04016 0.19644 0.11392 0.0
C1054 C 0.09975 0.23045 0.15945 0.0
C1055 C 0.05527 0.205 0.16515 0.0
H1056 H 0.80895 0.97426 0.69747 0.0
H1057 H 0.84985 0.9369 0.62016 0.0
H1058 H 0.87211 1.00759 0.59961 0.0
H1059 H 0.8859 0.08328 0.60454 0.0
H1060 H 0.85908 0.12318 0.68562 0.0
H1061 H 0.82794 0.04934 0.70407 0.0
C1062 C 0.82386 0.9811 0.67648 0.0
C1063 C 0.82756 0.94876 0.66105 0.0
C1064 C 0.84011 0.02329 0.66538 0.0
C1065 C 0.8452 0.95953 0.63304 0.0
C1066 C 0.85881 1.00071 0.62114 0.0
C1067 C 0.87332 0.07562 0.62625 0.0
C1068 C 0.87471 0.10862 0.64372 0.0
C1069 C 0.8572 0.03318 0.63729 0.0
C1070 C 0.85877 0.09849 0.67189 0.0
C1071 C 0.84069 0.05614 0.68239 0.0
H1072 H 0.88187 0.83459 0.19351 0.0
H1073 H 0.89136 0.79432 0.10791 0.0
H1074 H 0.8466 0.82395 0.08954 0.0
H1075 H 0.80145 0.85828 0.0985 0.0
H1076 H 0.79266 0.89731 0.18485 0.0
H1077 H 0.84071 0.87191 0.20196 0.0
C1078 C 0.8741 0.83227 0.17083 0.0
C1079 C 0.88961 0.81199 0.15217 0.0
C1080 C 0.84852 0.84937 0.16047 0.0
C1081 C 0.87995 0.80994 0.12272 0.0
C1082 C 0.85427 0.82679 0.11223 0.0
C1083 C 0.81032 0.86143 0.121 0.0
C1084 C 0.7928 0.87916 0.14032 0.0
C1085 C 0.83795 0.84622 0.13097 0.0
C1086 C 0.80532 0.88372 0.16937 0.0
C1087 C 0.83271 0.86891 0.17932 0.0
H1088 H 0.93267 0.80767 0.59333 0.0
H1089 H 0.91415 0.74622 0.67598 0.0
H1090 H 0.99104 0.7924 0.68708 0.0
H1091 H 0.06489 0.84504 0.6716 0.0
H1092 H 0.08551 0.90712 0.58907 0.0
H1093 H 1.00692 0.86665 0.57971 0.0
C1094 C 0.94534 0.80571 0.61412 0.0
C1095 C 0.91768 0.77407 0.63398 0.0
C1096 C 0.99022 0.83196 0.62018 0.0
C1097 C 0.93471 0.77077 0.66052 0.0
C1098 C 0.9788 0.79688 0.66679 0.0
C1099 C 0.05213 0.84994 0.65164 0.0
C1100 C 0.08103 0.87866 0.63092 0.0
C1101 C 1.00707 0.82668 0.64648 0.0
C1102 C 0.06393 0.8852 0.60536 0.0
C1103 C 0.019 0.86194 0.59998 0.0
H1104 H 0.10513 0.87246 0.34403 0.0
H1105 H 0.09755 0.86312 0.43633 0.0
H1106 H 0.01899 0.83441 0.4342 0.0
H1107 H 0.95107 0.80695 0.40577 0.0
H1108 H 0.95869 0.81282 0.31353 0.0
H1109 H 0.03813 0.84806 0.31588 0.0
C1110 C 0.08644 0.86492 0.36371 0.0
C1111 C 0.10735 0.86986 0.39031 0.0
C1112 C 0.04099 0.84752 0.3623 0.0
C1113 C 0.08237 0.8595 0.41556 0.0
C1114 C 0.03734 0.84298 0.41436 0.0
C1115 C 0.97034 0.81673 0.38628 0.0
C1116 C 0.94921 0.80779 0.3595 0.0
C1117 C 1.01609 0.83612 0.38782 0.0
C1118 C 0.97436 0.81974 0.33435 0.0
C1119 C 0.01975 0.83975 0.33571 0.0
H1120 H 0.15436 0.94583 0.89588 0.0
H1121 H 0.15215 0.96803 0.805 0.0
H1122 H 0.19532 0.04638 0.81251 0.0
H1123 H 0.23623 0.10806 0.84423 0.0
H1124 H 0.24211 0.08814 0.93485 0.0
H1125 H 0.19397 1.00957 0.92839 0.0
C1126 C 0.16295 0.96794 0.87783 0.0
C1127 C 0.15028 0.95107 0.84986 0.0
C1128 C 0.18841 0.01326 0.88227 0.0
C1129 C 0.16191 0.9801 0.82665 0.0
C1130 C 0.18647 0.02493 0.83094 0.0
C1131 C 0.22724 0.08673 0.86259 0.0
C1132 C 0.24409 0.10395 0.8898 0.0
C1133 C 0.2004 0.0418 0.85855 0.0
C1134 C 0.23058 0.07565 0.91351 0.0
C1135 C 0.20296 0.03071 0.90981 0.0
H1136 H 0.15252 0.22973 0.36352 0.0
H1137 H 0.16104 0.25542 0.45442 0.0
H1138 H 0.18823 0.2052 0.46248 0.0
H1139 H 0.21369 0.15708 0.4437 0.0
H1140 H 0.20405 0.12918 0.35315 0.0
H1141 H 0.17279 0.17637 0.34506 0.0
C1142 C 0.15971 0.22382 0.38513 0.0
C1143 C 0.15531 0.24697 0.40831 0.0
C1144 C 0.17544 0.19457 0.38968 0.0
C1145 C 0.16471 0.23868 0.43614 0.0
C1146 C 0.18024 0.20984 0.44079 0.0
C1147 C 0.20464 0.16115 0.42217 0.0
C1148 C 0.21164 0.1397 0.39905 0.0
C1149 C 0.18657 0.18826 0.4177 0.0
C1150 C 0.19893 0.14498 0.37139 0.0
C1151 C 0.18125 0.17223 0.36673 0.0
H1152 H 0.06884 0.20587 0.85068 0.0
H1153 H 0.092 0.23448 0.9408 0.0
H1154 H 1.01339 0.19317 0.95021 0.0
H1155 H 0.93784 0.15624 0.93162 0.0
H1156 H 0.91618 0.12835 0.84113 0.0
H1157 H 0.99381 0.16166 0.83305 0.0
C1158 C 0.05646 0.20274 0.87235 0.0
C1159 C 0.08563 0.22336 0.89501 0.0
C1160 C 1.01144 0.1796 0.87745 0.0
C1161 C 0.06975 0.21896 0.92308 0.0
C1162 C 0.02493 0.19534 0.92842 0.0
C1163 C 0.95015 0.15713 0.9102 0.0
C1164 C 0.92105 0.14142 0.88686 0.0
C1165 C 0.99535 0.17664 0.90562 0.0
C1166 C 0.93755 0.14149 0.85941 0.0
C1167 C 0.98218 0.16056 0.8547 0.0
H1168 H 0.94629 0.02808 0.39808 0.0
H1169 H 0.87986 0.0925 0.36388 0.0
H1170 H 0.81045 0.02519 0.36796 0.0
H1171 H 0.76928 0.94786 0.37867 0.0
H1172 H 0.83342 0.88179 0.4133 0.0
H1173 H 0.90352 0.9497 0.41053 0.0
C1174 C 0.91664 0.02742 0.39148 0.0
C1175 C 0.91856 0.06563 0.38068 0.0
C1176 C 0.87659 0.98823 0.39357 0.0
C1177 C 0.87957 0.06407 0.37266 0.0
C1178 C 0.8398 0.02539 0.37472 0.0
C1179 C 0.79822 0.94818 0.38618 0.0
C1180 C 0.79565 0.90966 0.39658 0.0
C1181 C 0.83802 0.98728 0.38487 0.0
C1182 C 0.8342 0.91085 0.40528 0.0
C1183 C 0.8743 0.94975 0.40377 0.0
H1184 H 0.83509 0.75806 0.87796 0.0
H1185 H 0.9653 0.82569 0.91224 0.0
H1186 H 0.96526 0.8947 0.90888 0.0
H1187 H 0.92791 0.93567 0.89587 0.0
H1188 H 0.79639 0.86598 0.86345 0.0
H1189 H 0.79637 0.79742 0.868 0.0
C1190 C 0.8631 0.78751 0.88545 0.0
C1191 C 0.8998 0.78623 0.89585 0.0
C1192 C 0.86236 0.82671 0.88411 0.0
C1193 C 0.93649 0.82546 0.90426 0.0
C1194 C 0.93639 0.86495 0.90243 0.0
C1195 C 0.89916 0.90545 0.8899 0.0
C1196 C 0.86217 0.90619 0.87925 0.0
C1197 C 0.89946 0.86595 0.89238 0.0
C1198 C 0.82507 0.86655 0.87202 0.0
C1199 C 0.8252 0.82729 0.87433 0.0
H1200 H 0.12843 0.66848 0.08938 0.0
H1201 H 0.16753 0.70901 0.17664 0.0
H1202 H 0.1945 0.65754 0.1808 0.0
H1203 H 0.2119 0.60478 0.15823 0.0
H1204 H 0.16909 0.56145 0.07175 0.0
H1205 H 0.13793 0.60935 0.0688 0.0
C1206 C 0.14201 0.66526 0.10949 0.0
C1207 C 0.14585 0.69235 0.13275 0.0
C1208 C 0.15697 0.63518 0.11178 0.0
C1209 C 0.16363 0.68807 0.15864 0.0
C1210 C 0.17942 0.65891 0.16089 0.0
C1211 C 0.19534 0.60549 0.13884 0.0
C1212 C 0.19319 0.57966 0.11513 0.0
C1213 C 0.17702 0.63286 0.13742 0.0
C1214 C 0.17113 0.5807 0.09032 0.0
C1215 C 0.15352 0.60835 0.08857 0.0
H1216 H 0.57257 0.11096 0.57441 0.0
H1217 H 0.64317 0.2168 0.63339 0.0
H1218 H 0.57431 0.20673 0.6526 0.0
H1219 H 0.49415 0.17308 0.64871 0.0
H1220 H 0.42353 0.06583 0.59055 0.0
H1221 H 0.49191 0.07087 0.57512 0.0
C1222 C 0.57281 0.13102 0.59204 0.0
C1223 C 0.61313 0.16453 0.60254 0.0
C1224 C 0.53297 0.12516 0.6028 0.0
C1225 C 0.61282 0.19045 0.6252 0.0
C1226 C 0.57336 0.18499 0.63593 0.0
C1227 C 0.49364 0.15038 0.63293 0.0
C1228 C 0.45354 0.11926 0.62063 0.0
C1229 C 0.53326 0.1533 0.6243 0.0
C1230 C 0.45363 0.08992 0.60046 0.0
C1231 C 0.49288 0.09299 0.59151 0.0
H1232 H 0.41977 0.61235 0.15473 0.0
H1233 H 0.47159 0.61091 0.07145 0.0
H1234 H 0.42412 0.53177 0.06881 0.0
H1235 H 0.36331 0.46348 0.08873 0.0
H1236 H 0.31589 0.46419 0.17362 0.0
H1237 H 0.366 0.54276 0.17727 0.0
C1238 C 0.42098 0.59455 0.13618 0.0
C1239 C 0.4489 0.61749 0.11318 0.0
C1240 C 0.3942 0.54889 0.13511 0.0
C1241 C 0.45044 0.59401 0.08939 0.0
C1242 C 0.42315 0.54878 0.08784 0.0
C1243 C 0.36475 0.48085 0.10822 0.0
C1244 C 0.33612 0.45828 0.13092 0.0
C1245 C 0.39431 0.52594 0.11034 0.0
C1246 C 0.33808 0.4809 0.15607 0.0
C1247 C 0.36648 0.52586 0.15805 0.0
H1248 H 0.83725 0.42958 0.59652 0.0
H1249 H 0.94954 0.51116 0.64819 0.0
H1250 H 0.96033 0.44938 0.65827 0.0
H1251 H 0.94251 0.37375 0.64779 0.0
H1252 H 0.83129 0.29377 0.5943 0.0
H1253 H 0.81551 0.35265 0.58977 0.0
C1254 C 0.8632 0.43341 0.61071 0.0
C1255 C 0.89235 0.47477 0.62173 0.0
C1256 C 0.87007 0.39805 0.61562 0.0
C1257 C 0.92648 0.4795 0.63961 0.0
C1258 C 0.9329 0.44426 0.64516 0.0
C1259 C 0.91471 0.36913 0.63533 0.0
C1260 C 0.88887 0.32946 0.62092 0.0
C1261 C 0.90576 0.40363 0.6325 0.0
C1262 C 0.85251 0.32409 0.60518 0.0
C1263 C 0.84318 0.35779 0.60263 0.0
H1264 H 0.56957 0.89966 0.08486 0.0
H1265 H 0.572 0.86048 0.172 0.0
H1266 H 0.4927 0.82767 0.17511 0.0
H1267 H 0.42185 0.80526 0.15152 0.0
H1268 H 0.42006 0.84868 0.06543 0.0
H1269 H 0.49968 0.88508 0.06338 0.0
C1270 C 0.55269 0.88485 0.10471 0.0
C1271 C 0.5764 0.88266 0.12825 0.0
C1272 C 0.50716 0.86647 0.10638 0.0
C1273 C 0.55439 0.86318 0.15383 0.0
C1274 C 0.50903 0.84405 0.15548 0.0
C1275 C 0.43906 0.82307 0.13246 0.0
C1276 C 0.41521 0.82388 0.10849 0.0
C1277 C 0.48495 0.84473 0.1317 0.0
C1278 C 0.43778 0.84745 0.08403 0.0
C1279 C 0.48326 0.8682 0.08286 0.0
H1280 H 0.70097 0.53528 0.64837 0.0
H1281 H 0.65978 0.60667 0.59452 0.0
H1282 H 0.5968 0.53873 0.57854 0.0
H1283 H 0.55905 0.45878 0.57503 0.0
H1284 H 0.60139 0.38682 0.62776 0.0
H1285 H 0.65727 0.45463 0.64948 0.0
C1286 C 0.6771 0.53585 0.63407 0.0
C1287 C 0.68423 0.57602 0.62329 0.0
C1288 C 0.64152 0.49633 0.62434 0.0
C1289 C 0.65407 0.57635 0.60393 0.0
C1290 C 0.61845 0.53737 0.59441 0.0
C1291 C 0.58026 0.45783 0.59144 0.0
C1292 C 0.57624 0.4175 0.59932 0.0
C1293 C 0.61271 0.49712 0.60368 0.0
C1294 C 0.60352 0.4171 0.62115 0.0
C1295 C 0.63576 0.45602 0.6335 0.0
H1296 H 0.32941 0.86085 0.35322 0.0
H1297 H 0.3632 0.93103 0.43303 0.0
H1298 H 0.42055 0.91277 0.4412 0.0
H1299 H 0.45484 0.86855 0.42857 0.0
H1300 H 0.41691 0.79415 0.35034 0.0
H1301 H 0.36835 0.8224 0.33841 0.0
C1302 C 0.35055 0.87353 0.3718 0.0
C1303 C 0.34286 0.89831 0.39211 0.0
C1304 C 0.38239 0.86133 0.37688 0.0
C1305 C 0.36928 0.91296 0.41672 0.0
C1306 C 0.40173 0.902 0.42156 0.0
C1307 C 0.43665 0.85939 0.40862 0.0
C1308 C 0.43967 0.82938 0.39028 0.0
C1309 C 0.40774 0.87501 0.40225 0.0
C1310 C 0.41527 0.81723 0.36475 0.0
C1311 C 0.38737 0.83331 0.35797 0.0
H1312 H 0.57777 0.48368 0.87464 0.0
H1313 H 0.63727 0.42079 0.92004 0.0
H1314 H 0.56934 0.351 0.91672 0.0
H1315 H 0.4908 0.3098 0.90579 0.0
H1316 H 0.43201 0.37218 0.85891 0.0
H1317 H 0.50151 0.44011 0.85818 0.0
C1318 C 0.57612 0.45448 0.88328 0.0
C1319 C 0.61263 0.45757 0.89771 0.0
C1320 C 0.53669 0.41457 0.88165 0.0
C1321 C 0.60997 0.41937 0.90862 0.0
C1322 C 0.57088 0.37953 0.90704 0.0
C1323 C 0.49309 0.33818 0.8953 0.0
C1324 C 0.45539 0.33603 0.88332 0.0
C1325 C 0.53363 0.37705 0.89444 0.0
C1326 C 0.45971 0.37292 0.86906 0.0
C1327 C 0.49973 0.41186 0.86849 0.0
H1328 H 0.2003 0.61087 0.40802 0.0
H1329 H 0.06345 0.56046 0.42282 0.0
H1330 H 0.04828 0.48708 0.41134 0.0
H1331 H 0.07433 0.43544 0.40094 0.0
H1332 H 0.21048 0.48634 0.38291 0.0
H1333 H 0.22518 0.55994 0.39212 0.0
C1334 C 0.16707 0.58403 0.40806 0.0
C1335 C 0.13321 0.59156 0.41658 0.0
C1336 C 0.15837 0.5413 0.4015 0.0
C1337 C 0.09034 0.55589 0.41663 0.0
C1338 C 0.08157 0.51367 0.41019 0.0
C1339 C 0.10713 0.46257 0.39881 0.0
C1340 C 0.14122 0.45455 0.3919 0.0
C1341 C 0.11541 0.50563 0.40332 0.0
C1342 C 0.18346 0.49076 0.38889 0.0
C1343 C 0.19202 0.53329 0.39395 0.0
H1344 H 0.71437 0.17983 0.9144 0.0
H1345 H 0.65956 0.07348 0.85408 0.0
H1346 H 0.59114 0.07394 0.85426 0.0
H1347 H 0.54461 0.10077 0.87455 0.0
H1348 H 0.60007 0.20982 0.93251 0.0
H1349 H 0.67071 0.21307 0.92959 0.0
C1350 C 0.68754 0.15675 0.90121 0.0
C1351 C 0.6918 0.12527 0.88518 0.0
C1352 C 0.64842 0.15811 0.90075 0.0
C1353 C 0.65698 0.09683 0.86752 0.0
C1354 C 0.6178 0.09738 0.86739 0.0
C1355 C 0.57249 0.12587 0.886 0.0
C1356 C 0.56715 0.15503 0.90375 0.0
C1357 C 0.61284 0.12728 0.88436 0.0
C1358 C 0.60347 0.18736 0.91849 0.0
C1359 C 0.64371 0.18885 0.91708 0.0
H1360 H 0.41555 0.62912 0.37937 0.0
H1361 H 0.43089 0.54495 0.43906 0.0
H1362 H 0.51004 0.58621 0.43225 0.0
H1363 H 0.57544 0.65265 0.4142 0.0
H1364 H 0.55953 0.73544 0.35366 0.0
H1365 H 0.48036 0.68824 0.3554 0.0
C1366 C 0.43621 0.61914 0.39026 0.0
C1367 C 0.41739 0.584 0.40972 0.0
C1368 C 0.48169 0.64303 0.38614 0.0
C1369 C 0.44452 0.57157 0.42382 0.0
C1370 C 0.48983 0.59543 0.42008 0.0
C1371 C 0.55457 0.65931 0.40063 0.0
C1372 C 0.57322 0.69707 0.38347 0.0
C1373 C 0.5089 0.63204 0.40196 0.0
C1374 C 0.54593 0.70606 0.3665 0.0
C1375 C 0.50062 0.67928 0.36775 0.0
H1376 H 0.84799 0.53765 0.9053 0.0
H1377 H 0.96958 0.5977 0.85927 0.0
H1378 H 0.96966 0.52896 0.85928 0.0
H1379 H 0.93844 0.4532 0.87633 0.0
H1380 H 0.81589 0.39228 0.92119 0.0
H1381 H 0.81223 0.45929 0.917 0.0
C1382 C 0.87442 0.53568 0.89509 0.0
C1383 C 0.90941 0.57343 0.88289 0.0
C1384 C 0.87386 0.49561 0.89484 0.0
C1385 C 0.94269 0.56974 0.86919 0.0
C1386 C 0.94268 0.53023 0.86917 0.0
C1387 C 0.91051 0.45435 0.8847 0.0
C1388 C 0.87755 0.41776 0.89921 0.0
C1389 C 0.90892 0.49319 0.88248 0.0
C1390 C 0.84146 0.41971 0.90974 0.0
C1391 C 0.83965 0.45825 0.90763 0.0
H1392 H 0.20474 0.41399 0.30347 0.0
H1393 H 0.15799 0.27706 0.31604 0.0
H1394 H 0.16672 0.26837 0.26525 0.0
H1395 H 0.182 0.29762 0.21715 0.0
H1396 H 0.23899 0.43531 0.20277 0.0
H1397 H 0.22966 0.44561 0.25405 0.0
C1398 C 0.19742 0.38256 0.29509 0.0
C1399 C 0.17983 0.34599 0.31349 0.0
C1400 C 0.20332 0.37776 0.2655 0.0
C1401 C 0.17078 0.30553 0.30234 0.0
C1402 C 0.17561 0.30044 0.27324 0.0
C1403 C 0.19436 0.33028 0.22519 0.0
C1404 C 0.21273 0.36574 0.20613 0.0
C1405 C 0.19109 0.33607 0.25461 0.0
C1406 C 0.22516 0.40736 0.21694 0.0
C1407 C 0.2201 0.41326 0.24632 0.0
H1408 H 0.89779 0.18759 0.71652 0.0
H1409 H 0.7983 0.21911 0.69614 0.0
H1410 H 0.77307 0.20419 0.74647 0.0
H1411 H 0.78061 0.18135 0.79709 0.0
H1412 H 0.88884 0.16116 0.81414 0.0
H1413 H 0.91122 0.17542 0.76468 0.0
C1414 C 0.8719 0.19345 0.72291 0.0
C1415 C 0.85127 0.20611 0.70243 0.0
C1416 C 0.85929 0.187 0.75166 0.0
C1417 C 0.8153 0.2098 0.71136 0.0
C1418 C 0.80104 0.20149 0.74023 0.0
C1419 C 0.8095 0.181 0.78995 0.0
C1420 C 0.83261 0.16928 0.80942 0.0
C1421 C 0.82305 0.19019 0.76078 0.0
C1422 C 0.86989 0.16891 0.79971 0.0
C1423 C 0.88282 0.17715 0.77131 0.0
H1424 H 0.73326 0.89542 0.21915 0.0
H1425 H 0.59801 0.80598 0.20164 0.0
H1426 H 0.58631 0.78534 0.25274 0.0
H1427 H 0.61608 0.79302 0.30291 0.0
H1428 H 0.75074 0.88847 0.31809 0.0
H1429 H 0.76033 0.90865 0.2677 0.0
C1430 C 0.70069 0.87266 0.22641 0.0
C1431 C 0.66637 0.85342 0.20648 0.0
C1432 C 0.694 0.86247 0.25569 0.0
C1433 C 0.6251 0.82165 0.21642 0.0
C1434 C 0.61836 0.81009 0.24572 0.0
C1435 C 0.64708 0.81897 0.2952 0.0
C1436 C 0.68272 0.83919 0.31429 0.0
C1437 C 0.65263 0.8305 0.2657 0.0
C1438 C 0.7229 0.87228 0.3039 0.0
C1439 C 0.72854 0.88369 0.27502 0.0
H1440 H 0.85139 0.71967 0.71729 0.0
H1441 H 0.79855 0.58273 0.70167 0.0
H1442 H 0.81215 0.57266 0.75227 0.0
H1443 H 0.83905 0.60433 0.80183 0.0
H1444 H 0.87689 0.73902 0.81585 0.0
H1445 H 0.86567 0.74754 0.76554 0.0
C1446 C 0.84069 0.68701 0.72489 0.0
C1447 C 0.82221 0.65181 0.70558 0.0
C1448 C 0.84545 0.68101 0.75412 0.0
C1449 C 0.8123 0.61053 0.71593 0.0
C1450 C 0.81975 0.60472 0.74499 0.0
C1451 C 0.84386 0.63516 0.79391 0.0
C1452 C 0.86009 0.67137 0.81264 0.0
C1453 C 0.83597 0.63979 0.76451 0.0
C1454 C 0.86556 0.71091 0.80197 0.0
C1455 C 0.85933 0.71597 0.77308 0.0
H1456 H 0.23791 0.87724 0.20864 0.0
H1457 H 0.13057 0.74603 0.21281 0.0
H1458 H 0.13766 0.74595 0.26508 0.0
H1459 H 0.16998 0.78641 0.31018 0.0
H1460 H 0.28358 0.91355 0.30566 0.0
H1461 H 0.27992 0.91153 0.2532 0.0
C1462 C 0.21667 0.84839 0.22096 0.0
C1463 C 0.18242 0.81233 0.20703 0.0
C1464 C 0.22206 0.84801 0.25107 0.0
C1465 C 0.1559 0.77485 0.22322 0.0
C1466 C 0.16022 0.77466 0.25313 0.0
C1467 C 0.1942 0.81355 0.29785 0.0
C1468 C 0.22546 0.85159 0.31199 0.0
C1469 C 0.19234 0.81161 0.26747 0.0
C1470 C 0.25767 0.88521 0.29532 0.0
C1471 C 0.25577 0.88386 0.26527 0.0
H1472 H 0.42193 0.22913 0.80178 0.0
H1473 H 0.28247 0.15038 0.81078 0.0
H1474 H 0.27431 0.13562 0.76034 0.0
H1475 H 0.30467 0.14882 0.71279 0.0
H1476 H 0.44336 0.21124 0.70158 0.0
H1477 H 0.45398 0.23139 0.75274 0.0
C1478 C 0.38998 0.20813 0.79272 0.0
C1479 C 0.35273 0.19226 0.81037 0.0
C1480 C 0.38521 0.19796 0.76293 0.0
C1481 C 0.31175 0.16427 0.79807 0.0
C1482 C 0.30678 0.15583 0.76892 0.0
C1483 C 0.33731 0.16509 0.72158 0.0
C1484 C 0.37289 0.1767 0.70349 0.0
C1485 C 0.34304 0.17315 0.75109 0.0
C1486 C 0.41509 0.20114 0.7151 0.0
C1487 C 0.4212 0.21234 0.74445 0.0
H1488 H 0.27057 0.26351 0.95314 0.0
H1489 H 0.38757 0.27497 0.98996 0.0
H1490 H 0.37306 0.30217 0.03462 0.0
H1491 H 0.32598 0.32113 0.06342 0.0
H1492 H 0.21133 0.3125 0.02454 0.0
H1493 H 0.22689 0.28661 0.98015 0.0
C1494 C 0.29323 0.27177 0.97073 0.0
C1495 C 0.32994 0.26612 0.96792 0.0
C1496 C 0.28529 0.28849 0.99598 0.0
C1497 C 0.35874 0.27801 0.99131 0.0
C1498 C 0.35051 0.29388 0.01688 0.0
C1499 C 0.30452 0.31417 0.04523 0.0
C1500 C 0.26743 0.31939 0.04767 0.0
C1501 C 0.31372 0.29908 0.01951 0.0
C1502 C 0.24028 0.30968 0.02356 0.0
C1503 C 0.24901 0.29441 0.99811 0.0
H1504 H 0.03348 0.34387 0.45919 0.0
H1505 H 0.12988 0.31593 0.49291 0.0
H1506 H 0.08481 0.2828 0.53554 0.0
H1507 H 1.01504 0.25589 0.56112 0.0
H1508 H 0.91658 0.2805 0.52614 0.0
H1509 H 0.96409 0.31832 0.48532 0.0
C1510 C 0.04467 0.33062 0.47587 0.0
C1511 C 0.08542 0.33287 0.47275 0.0
C1512 C 1.01738 0.3096 0.49968 0.0
C1513 C 0.09963 0.31618 0.49499 0.0
C1514 C 0.07324 0.29625 0.51913 0.0
C1515 C 1.0036 0.26926 0.54461 0.0
C1516 C 0.96157 0.26467 0.54692 0.0
C1517 C 0.03153 0.29172 0.52134 0.0
C1518 C 0.94815 0.28277 0.52505 0.0
C1519 C 0.97562 0.30488 0.50177 0.0
H1520 H 0.75573 1.01173 0.06533 0.0
H1521 H 0.66703 0.89397 0.0206 0.0
H1522 H 0.68361 0.93435 0.97569 0.0
H1523 H 0.72487 1.0027 0.94885 0.0
H1524 H 0.80522 0.12216 0.99469 0.0
H1525 H 0.79004 0.08153 0.03943 0.0
C1526 C 0.74007 0.99445 0.0459 0.0
C1527 C 0.71128 0.94881 0.04673 0.0
C1528 C 0.74789 0.01856 0.02025 0.0
C1529 C 0.69038 0.92822 0.02102 0.0
C1530 C 0.69957 0.95163 0.99517 0.0
C1531 C 0.73832 0.0205 0.96856 0.0
C1532 C 0.7659 0.06638 0.96787 0.0
C1533 C 0.72846 0.9968 0.99451 0.0
C1534 C 0.78345 0.0876 0.99405 0.0
C1535 C 0.77499 0.06406 0.01982 0.0
H1536 H 0.7918 0.76976 0.55503 0.0
H1537 H 0.73356 0.6338 0.53321 0.0
H1538 H 0.69824 0.6455 0.49155 0.0
H1539 H 0.68181 0.69404 0.46219 0.0
H1540 H 0.73749 0.82894 0.48576 0.0
H1541 H 0.77334 0.81723 0.52702 0.0
C1542 C 0.77159 0.74253 0.54113 0.0
C1543 C 0.76555 0.70075 0.54753 0.0
C1544 C 0.7496 0.74906 0.51807 0.0
C1545 C 0.73923 0.66625 0.52898 0.0
C1546 C 0.71849 0.67286 0.50531 0.0
C1547 C 0.7017 0.72088 0.47642 0.0
C1548 C 0.70707 0.76251 0.47065 0.0
C1549 C 0.72293 0.71399 0.49988 0.0
C1550 C 0.73223 0.79656 0.48974 0.0
C1551 C 0.75334 0.78998 0.51311 0.0
H1552 H 1.0107 0.67908 0.95988 0.0
H1553 H 0.92221 0.72141 0.98806 0.0
H1554 H 0.96534 0.75178 0.03158 0.0
H1555 H 0.03103 0.77181 0.05963 0.0
H1556 H 0.12293 0.73365 0.0311 0.0
H1557 H 0.0774 0.69899 0.98869 0.0
C1558 C 1.00104 0.69527 0.97539 0.0
C1559 C 0.96277 0.69759 0.97053 0.0
C1560 C 0.02751 0.71474 0.99986 0.0
C1561 C 0.95024 0.71753 0.99151 0.0
C1562 C 0.97563 0.73588 0.01616 0.0
C1563 C 0.04152 0.75602 0.04424 0.0
C1564 C 0.08115 0.75608 0.04872 0.0
C1565 C 1.01479 0.73554 0.02024 0.0
C1566 C 0.09341 0.73516 0.02822 0.0
C1567 C 0.06696 0.71479 1.00408 0.0
H1568 H 0.32768 1.00938 0.452 0.0
H1569 H 0.21412 0.90556 0.49266 0.0
H1570 H 0.2301 0.9494 0.5361 0.0
H1571 H 0.27351 0.01851 0.56153 0.0
H1572 H 0.39163 0.12009 0.52342 0.0
H1573 H 0.37568 0.07649 0.47956 0.0
C1574 C 0.3067 0.99577 0.47038 0.0
C1575 C 0.26986 0.95325 0.46874 0.0
C1576 C 0.31641 0.02138 0.49561 0.0
C1577 C 0.24323 0.93715 0.49317 0.0
C1578 C 0.25207 0.96268 0.51801 0.0
C1579 C 0.2965 0.03129 0.54398 0.0
C1580 C 0.33402 0.07322 0.54629 0.0
C1581 C 0.28826 1.00502 0.51936 0.0
C1582 C 0.36249 0.08848 0.52266 0.0
C1583 C 0.35343 0.06326 0.49751 0.0
loop_
_geom_bond_atom_site_label_1
_geom_bond_atom_site_label_2
_geom_bond_distance
_geom_bond_site_symmetry_2
_ccdc_geom_bond_type
Tb0 N29 2.617 . S
Tb0 N35 2.572 . S
Tb0 O44 2.465 . S
Tb0 O45 2.387 . S
Tb0 O47 2.428 . S
Tb0 O48 2.308 . S
Tb0 O52 2.349 . S
Tb0 O55 2.393 . S
Tb0 C64 2.802 . S
C1 N2 1.379 . S
C1 C4 1.416 . S
C1 C8 1.424 . S
N2 C1 1.379 . S
N2 C5 1.334 . S
N2 Tb11 2.617 . S
C3 C5 1.390 1_556 S
C3 C6 1.339 . S
C3 H23 0.930 . S
C4 C1 1.416 . S
C4 C6 1.416 1_554 S
C4 C10 1.448 1_455 S
C5 N2 1.334 . S
C5 C3 1.390 1_554 S
C5 H16 0.930 . S
C6 C3 1.339 . S
C6 C4 1.416 1_556 S
C6 H27 0.930 . S
C7 C8 1.413 . S
C7 C9 1.427 1_455 S
C7 C13 1.416 1_455 S
C8 C1 1.424 . S
C8 C7 1.413 . S
C8 N12 1.361 . S
C9 C7 1.427 1_655 S
C9 C10 1.328 . S
C9 H24 0.929 . S
C10 C4 1.448 1_655 S
C10 C9 1.328 . S
C10 H25 0.930 . S
Tb11 N2 2.617 . S
Tb11 N12 2.572 . S
Tb11 O46 2.349 . S
Tb11 O49 2.393 . S
Tb11 O50 2.465 . S
Tb11 O51 2.387 . S
Tb11 O53 2.428 . S
Tb11 O54 2.308 . S
Tb11 C75 2.802 . S
N12 C8 1.361 . S
N12 Tb11 2.572 . S
N12 C14 1.340 . S
C13 C7 1.416 1_655 S
C13 C15 1.332 1_655 S
C13 H21 0.931 . S
C14 N12 1.340 . S
C14 C15 1.407 . S
C14 H20 0.930 . S
C15 C13 1.332 1_455 S
C15 C14 1.407 . S
C15 H17 0.929 . S
H16 C5 0.930 . S
H17 C15 0.929 . S
H18 C33 0.930 . S
H19 C40 0.929 . S
H20 C14 0.930 . S
H21 C13 0.931 . S
H22 C36 0.930 . S
H23 C3 0.930 . S
H24 C9 0.929 . S
H25 C10 0.930 . S
H26 C31 0.930 . S
H27 C6 0.930 . S
H28 C39 0.931 . S
N29 Tb0 2.617 . S
N29 C30 1.379 . S
N29 C33 1.334 . S
C30 N29 1.379 . S
C30 C32 1.416 . S
C30 C38 1.424 . S
C31 H26 0.930 . S
C31 C33 1.390 . S
C31 C34 1.339 . S
C32 C30 1.416 . S
C32 C34 1.416 . S
C32 C65 1.448 . S
C33 H18 0.930 . S
C33 N29 1.334 . S
C33 C31 1.390 . S
C34 C31 1.339 . S
C34 C32 1.416 . S
C34 H41 0.930 . S
N35 Tb0 2.572 . S
N35 C36 1.340 . S
N35 C38 1.361 . S
C36 H22 0.930 . S
C36 N35 1.340 . S
C36 C40 1.407 . S
C37 C38 1.413 . S
C37 C39 1.416 . S
C37 C66 1.427 . S
C38 C30 1.424 . S
C38 N35 1.361 . S
C38 C37 1.413 . S
C39 H28 0.931 . S
C39 C37 1.416 . S
C39 C40 1.332 . S
C40 H19 0.929 . S
C40 C36 1.407 . S
C40 C39 1.332 . S
H41 C34 0.930 . S
H42 C65 0.930 . S
H43 C66 0.929 . S
O44 Tb0 2.465 . S
O44 C64 1.264 . S
O45 Tb0 2.387 . S
O45 C56 1.264 . S
O46 Tb11 2.349 . S
O46 C56 1.243 . S
O47 Tb0 2.428 . S
O47 C64 1.256 . S
O48 Tb0 2.308 . S
O48 C63 1.266 . S
O49 Tb11 2.393 . S
O49 C63 1.248 . S
O50 Tb11 2.465 . S
O50 C75 1.264 . S
O51 Tb11 2.387 . S
O51 C67 1.264 . S
O52 Tb0 2.349 . S
O52 C67 1.243 . S
O53 Tb11 2.428 . S
O53 C75 1.256 . S
O54 Tb11 2.308 . S
O54 C74 1.266 . S
O55 Tb0 2.393 . S
O55 C74 1.248 . S
C56 O45 1.264 . S
C56 O46 1.243 . S
C57 C60 1.399 . S
C57 C62 1.383 . S
C57 C64 1.496 . S
C58 C59 1.399 . S
C58 C62 1.389 . S
C59 C58 1.399 . S
C59 C61 1.380 . S
C59 H76 0.929 . S
C60 C57 1.399 . S
C60 C61 1.392 . S
C60 H77 0.929 . S
C61 C59 1.380 . S
C61 C60 1.392 . S
C61 H78 0.929 . S
C62 C57 1.383 . S
C62 C58 1.389 . S
C62 H79 0.931 . S
C63 O48 1.266 . S
C63 O49 1.248 . S
C64 Tb0 2.802 . S
C64 O44 1.264 . S
C64 O47 1.256 . S
C64 C57 1.496 . S
C65 C32 1.448 . S
C65 H42 0.930 . S
C65 C66 1.328 . S
C66 C37 1.427 . S
C66 H43 0.929 . S
C66 C65 1.328 . S
C67 O51 1.264 . S
C67 O52 1.243 . S
C68 C71 1.399 . S
C68 C72 1.383 . S
C68 C75 1.496 . S
C69 C70 1.399 . S
C69 C72 1.389 . S
C70 C69 1.399 . S
C70 C73 1.380 . S
C70 H80 0.929 . S
C71 C68 1.399 . S
C71 C73 1.392 . S
C71 H81 0.929 . S
C72 C68 1.383 . S
C72 C69 1.389 . S
C72 H82 0.931 . S
C73 C70 1.380 . S
C73 C71 1.392 . S
C73 H83 0.929 . S
C74 O54 1.266 . S
C74 O55 1.248 . S
C75 Tb11 2.802 . S
C75 O50 1.264 . S
C75 O53 1.256 . S
C75 C68 1.496 . S
H76 C59 0.929 . S
H77 C60 0.929 . S
H78 C61 0.929 . S
H79 C62 0.931 . S
H80 C70 0.929 . S
H81 C71 0.929 . S
H82 C72 0.931 . S
H83 C73 0.929 . S
Tb84 N113 2.617 . S
Tb84 N119 2.572 . S
Tb84 O128 2.465 . S
Tb84 O129 2.387 . S
Tb84 O131 2.428 . S
Tb84 O132 2.308 . S
Tb84 O136 2.349 . S
Tb84 O139 2.393 . S
Tb84 C148 2.802 . S
C85 N86 1.379 . S
C85 C88 1.416 . S
C85 C92 1.424 . S
N86 C85 1.379 . S
N86 C89 1.334 . S
N86 Tb95 2.617 . S
C87 C89 1.390 . S
C87 C90 1.339 . S
C87 H107 0.930 . S
C88 C85 1.416 . S
C88 C90 1.416 . S
C88 C94 1.448 1_545 S
C89 N86 1.334 . S
C89 C87 1.390 . S
C89 H100 0.930 . S
C90 C87 1.339 . S
C90 C88 1.416 . S
C90 H111 0.930 . S
C91 C92 1.413 . S
C91 C93 1.427 1_545 S
C91 C97 1.416 1_545 S
C92 C85 1.424 . S
C92 C91 1.413 . S
C92 N96 1.361 . S
C93 C91 1.427 1_565 S
C93 C94 1.328 . S
C93 H108 0.929 . S
C94 C88 1.448 1_565 S
C94 C93 1.328 . S
C94 H109 0.930 . S
Tb95 N86 2.617 . S
Tb95 N96 2.572 . S
Tb95 O130 2.349 . S
Tb95 O133 2.393 . S
Tb95 O134 2.465 . S
Tb95 O135 2.387 . S
Tb95 O137 2.428 . S
Tb95 O138 2.308 . S
Tb95 C159 2.802 . S
N96 C92 1.361 . S
N96 Tb95 2.572 . S
N96 C98 1.340 . S
C97 C91 1.416 1_565 S
C97 C99 1.332 1_565 S
C97 H105 0.931 . S
C98 N96 1.340 . S
C98 C99 1.407 . S
C98 H104 0.930 . S
C99 C97 1.332 1_545 S
C99 C98 1.407 . S
C99 H101 0.929 . S
H100 C89 0.930 . S
H101 C99 0.929 . S
H102 C117 0.930 . S
H103 C124 0.929 . S
H104 C98 0.930 . S
H105 C97 0.931 . S
H106 C120 0.930 . S
H107 C87 0.930 . S
H108 C93 0.929 . S
H109 C94 0.930 . S
H110 C115 0.930 . S
H111 C90 0.930 . S
H112 C123 0.931 . S
N113 Tb84 2.617 . S
N113 C114 1.379 . S
N113 C117 1.334 . S
C114 N113 1.379 . S
C114 C116 1.416 . S
C114 C122 1.424 . S
C115 H110 0.930 . S
C115 C117 1.390 . S
C115 C118 1.339 . S
C116 C114 1.416 . S
C116 C118 1.416 . S
C116 C149 1.448 1_655 S
C117 H102 0.930 . S
C117 N113 1.334 . S
C117 C115 1.390 . S
C118 C115 1.339 . S
C118 C116 1.416 . S
C118 H125 0.930 . S
N119 Tb84 2.572 . S
N119 C120 1.340 . S
N119 C122 1.361 . S
C120 H106 0.930 . S
C120 N119 1.340 . S
C120 C124 1.407 1_655 S
C121 C122 1.413 1_455 S
C121 C123 1.416 . S
C121 C150 1.427 . S
C122 C114 1.424 . S
C122 N119 1.361 . S
C122 C121 1.413 1_655 S
C123 H112 0.931 . S
C123 C121 1.416 . S
C123 C124 1.332 . S
C124 H103 0.929 . S
C124 C120 1.407 1_455 S
C124 C123 1.332 . S
H125 C118 0.930 . S
H126 C149 0.930 . S
H127 C150 0.929 . S
O128 Tb84 2.465 . S
O128 C148 1.264 . S
O129 Tb84 2.387 . S
O129 C140 1.264 . S
O130 Tb95 2.349 . S
O130 C140 1.243 . S
O131 Tb84 2.428 . S
O131 C148 1.256 . S
O132 Tb84 2.308 . S
O132 C147 1.266 . S
O133 Tb95 2.393 . S
O133 C147 1.248 . S
O134 Tb95 2.465 . S
O134 C159 1.264 . S
O135 Tb95 2.387 . S
O135 C151 1.264 . S
O136 Tb84 2.349 . S
O136 C151 1.243 . S
O137 Tb95 2.428 . S
O137 C159 1.256 . S
O138 Tb95 2.308 . S
O138 C158 1.266 . S
O139 Tb84 2.393 . S
O139 C158 1.248 . S
C140 O129 1.264 . S
C140 O130 1.243 . S
C141 C144 1.399 . S
C141 C146 1.383 . S
C141 C148 1.496 1_455 S
C142 C143 1.399 . S
C142 C146 1.389 . S
C143 C142 1.399 . S
C143 C145 1.380 . S
C143 H160 0.929 . S
C144 C141 1.399 . S
C144 C145 1.392 . S
C144 H161 0.929 . S
C145 C143 1.380 . S
C145 C144 1.392 . S
C145 H162 0.929 . S
C146 C141 1.383 . S
C146 C142 1.389 . S
C146 H163 0.931 . S
C147 O132 1.266 . S
C147 O133 1.248 . S
C148 Tb84 2.802 . S
C148 O128 1.264 . S
C148 O131 1.256 . S
C148 C141 1.496 1_655 S
C149 C116 1.448 1_455 S
C149 H126 0.930 . S
C149 C150 1.328 . S
C150 C121 1.427 . S
C150 H127 0.929 . S
C150 C149 1.328 . S
C151 O135 1.264 . S
C151 O136 1.243 . S
C152 C155 1.399 . S
C152 C156 1.383 . S
C152 C159 1.496 . S
C153 C154 1.399 . S
C153 C156 1.389 . S
C154 C153 1.399 . S
C154 C157 1.380 . S
C154 H164 0.929 . S
C155 C152 1.399 . S
C155 C157 1.392 . S
C155 H165 0.929 . S
C156 C152 1.383 . S
C156 C153 1.389 . S
C156 H166 0.931 . S
C157 C154 1.380 . S
C157 C155 1.392 . S
C157 H167 0.929 . S
C158 O138 1.266 . S
C158 O139 1.248 . S
C159 Tb95 2.802 . S
C159 O134 1.264 . S
C159 O137 1.256 . S
C159 C152 1.496 . S
H160 C143 0.929 . S
H161 C144 0.929 . S
H162 C145 0.929 . S
H163 C146 0.931 . S
H164 C154 0.929 . S
H165 C155 0.929 . S
H166 C156 0.931 . S
H167 C157 0.929 . S
Tb168 N197 2.617 . S
Tb168 N203 2.572 . S
Tb168 O212 2.465 . S
Tb168 O213 2.387 . S
Tb168 O215 2.428 . S
Tb168 O216 2.308 . S
Tb168 O220 2.349 . S
Tb168 O223 2.393 . S
Tb168 C232 2.802 . S
C169 N170 1.379 . S
C169 C172 1.416 . S
C169 C176 1.424 . S
N170 C169 1.379 . S
N170 C173 1.334 . S
N170 Tb179 2.617 . S
C171 C173 1.390 1_556 S
C171 C174 1.339 . S
C171 H191 0.930 . S
C172 C169 1.416 . S
C172 C174 1.416 1_554 S
C172 C178 1.448 . S
C173 N170 1.334 . S
C173 C171 1.390 1_554 S
C173 H184 0.930 . S
C174 C171 1.339 . S
C174 C172 1.416 1_556 S
C174 H195 0.930 . S
C175 C176 1.413 . S
C175 C177 1.427 . S
C175 C181 1.416 . S
C176 C169 1.424 . S
C176 C175 1.413 . S
C176 N180 1.361 . S
C177 C175 1.427 . S
C177 C178 1.328 . S
C177 H192 0.929 . S
C178 C172 1.448 . S
C178 C177 1.328 . S
C178 H193 0.930 . S
Tb179 N170 2.617 . S
Tb179 N180 2.572 . S
Tb179 O214 2.349 . S
Tb179 O217 2.393 . S
Tb179 O218 2.465 . S
Tb179 O219 2.387 . S
Tb179 O221 2.428 . S
Tb179 O222 2.308 . S
Tb179 C243 2.802 . S
N180 C176 1.361 . S
N180 Tb179 2.572 . S
N180 C182 1.340 . S
C181 C175 1.416 . S
C181 C183 1.332 . S
C181 H189 0.931 . S
C182 N180 1.340 . S
C182 C183 1.407 . S
C182 H188 0.930 . S
C183 C181 1.332 . S
C183 C182 1.407 . S
C183 H185 0.929 . S
H184 C173 0.930 . S
H185 C183 0.929 . S
H186 C201 0.930 . S
H187 C208 0.929 . S
H188 C182 0.930 . S
H189 C181 0.931 . S
H190 C204 0.930 . S
H191 C171 0.930 . S
H192 C177 0.929 . S
H193 C178 0.930 . S
H194 C199 0.930 . S
H195 C174 0.930 . S
H196 C207 0.931 . S
N197 Tb168 2.617 . S
N197 C198 1.379 . S
N197 C201 1.334 . S
C198 N197 1.379 . S
C198 C200 1.416 . S
C198 C206 1.424 . S
C199 H194 0.930 . S
C199 C201 1.390 . S
C199 C202 1.339 . S
C200 C198 1.416 . S
C200 C202 1.416 . S
C200 C233 1.448 1_565 S
C201 H186 0.930 . S
C201 N197 1.334 . S
C201 C199 1.390 . S
C202 C199 1.339 . S
C202 C200 1.416 . S
C202 H209 0.930 . S
N203 Tb168 2.572 . S
N203 C204 1.340 . S
N203 C206 1.361 . S
C204 H190 0.930 . S
C204 N203 1.340 . S
C204 C208 1.407 1_565 S
C205 C206 1.413 1_545 S
C205 C207 1.416 . S
C205 C234 1.427 . S
C206 C198 1.424 . S
C206 N203 1.361 . S
C206 C205 1.413 1_565 S
C207 H196 0.931 . S
C207 C205 1.416 . S
C207 C208 1.332 . S
C208 H187 0.929 . S
C208 C204 1.407 1_545 S
C208 C207 1.332 . S
H209 C202 0.930 . S
H210 C233 0.930 . S
H211 C234 0.929 . S
O212 Tb168 2.465 . S
O212 C232 1.264 . S
O213 Tb168 2.387 . S
O213 C224 1.264 . S
O214 Tb179 2.349 . S
O214 C224 1.243 . S
O215 Tb168 2.428 . S
O215 C232 1.256 . S
O216 Tb168 2.308 . S
O216 C231 1.266 . S
O217 Tb179 2.393 . S
O217 C231 1.248 . S
O218 Tb179 2.465 . S
O218 C243 1.264 . S
O219 Tb179 2.387 . S
O219 C235 1.264 . S
O220 Tb168 2.349 . S
O220 C235 1.243 . S
O221 Tb179 2.428 . S
O221 C243 1.256 . S
O222 Tb179 2.308 . S
O222 C242 1.266 . S
O223 Tb168 2.393 . S
O223 C242 1.248 . S
C224 O213 1.264 . S
C224 O214 1.243 . S
C225 C228 1.399 . S
C225 C230 1.383 . S
C225 C232 1.496 1_545 S
C226 C227 1.399 . S
C226 C230 1.389 . S
C227 C226 1.399 . S
C227 C229 1.380 . S
C227 H244 0.929 . S
C228 C225 1.399 . S
C228 C229 1.392 . S
C228 H245 0.929 . S
C229 C227 1.380 . S
C229 C228 1.392 . S
C229 H246 0.929 . S
C230 C225 1.383 . S
C230 C226 1.389 . S
C230 H247 0.931 . S
C231 O216 1.266 . S
C231 O217 1.248 . S
C232 Tb168 2.802 . S
C232 O212 1.264 . S
C232 O215 1.256 . S
C232 C225 1.496 1_565 S
C233 C200 1.448 1_545 S
C233 H210 0.930 . S
C233 C234 1.328 . S
C234 C205 1.427 . S
C234 H211 0.929 . S
C234 C233 1.328 . S
C235 O219 1.264 . S
C235 O220 1.243 . S
C236 C239 1.399 . S
C236 C240 1.383 . S
C236 C243 1.496 . S
C237 C238 1.399 . S
C237 C240 1.389 . S
C238 C237 1.399 . S
C238 C241 1.380 . S
C238 H248 0.929 . S
C239 C236 1.399 . S
C239 C241 1.392 . S
C239 H249 0.929 . S
C240 C236 1.383 . S
C240 C237 1.389 . S
C240 H250 0.931 . S
C241 C238 1.380 . S
C241 C239 1.392 . S
C241 H251 0.929 . S
C242 O222 1.266 . S
C242 O223 1.248 . S
C243 Tb179 2.802 . S
C243 O218 1.264 . S
C243 O221 1.256 . S
C243 C236 1.496 . S
H244 C227 0.929 . S
H245 C228 0.929 . S
H246 C229 0.929 . S
H247 C230 0.931 . S
H248 C238 0.929 . S
H249 C239 0.929 . S
H250 C240 0.931 . S
H251 C241 0.929 . S
Tb252 N281 2.617 . S
Tb252 N287 2.572 . S
Tb252 O296 2.465 . S
Tb252 O297 2.387 . S
Tb252 O299 2.428 . S
Tb252 O300 2.308 . S
Tb252 O304 2.349 . S
Tb252 O307 2.393 . S
Tb252 C316 2.802 . S
C253 N254 1.379 . S
C253 C256 1.416 . S
C253 C260 1.424 . S
N254 C253 1.379 . S
N254 C257 1.334 . S
N254 Tb263 2.617 . S
C255 C257 1.390 . S
C255 C258 1.339 . S
C255 H275 0.930 . S
C256 C253 1.416 . S
C256 C258 1.416 . S
C256 C262 1.448 1_655 S
C257 N254 1.334 . S
C257 C255 1.390 . S
C257 H268 0.930 . S
C258 C255 1.339 . S
C258 C256 1.416 . S
C258 H279 0.930 . S
C259 C260 1.413 . S
C259 C261 1.427 1_655 S
C259 C265 1.416 1_655 S
C260 C253 1.424 . S
C260 C259 1.413 . S
C260 N264 1.361 . S
C261 C259 1.427 1_455 S
C261 C262 1.328 . S
C261 H276 0.929 . S
C262 C256 1.448 1_455 S
C262 C261 1.328 . S
C262 H277 0.930 . S
Tb263 N254 2.617 . S
Tb263 N264 2.572 . S
Tb263 O298 2.349 . S
Tb263 O301 2.393 . S
Tb263 O302 2.465 . S
Tb263 O303 2.387 . S
Tb263 O305 2.428 . S
Tb263 O306 2.308 . S
Tb263 C327 2.802 . S
N264 C260 1.361 . S
N264 Tb263 2.572 . S
N264 C266 1.340 . S
C265 C259 1.416 1_455 S
C265 C267 1.332 1_455 S
C265 H273 0.931 . S
C266 N264 1.340 . S
C266 C267 1.407 . S
C266 H272 0.930 . S
C267 C265 1.332 1_655 S
C267 C266 1.407 . S
C267 H269 0.929 . S
H268 C257 0.930 . S
H269 C267 0.929 . S
H270 C285 0.930 . S
H271 C292 0.929 . S
H272 C266 0.930 . S
H273 C265 0.931 . S
H274 C288 0.930 . S
H275 C255 0.930 . S
H276 C261 0.929 . S
H277 C262 0.930 . S
H278 C283 0.930 . S
H279 C258 0.930 . S
H280 C291 0.931 . S
N281 Tb252 2.617 . S
N281 C282 1.379 . S
N281 C285 1.334 . S
C282 N281 1.379 . S
C282 C284 1.416 . S
C282 C290 1.424 . S
C283 H278 0.930 . S
C283 C285 1.390 . S
C283 C286 1.339 . S
C284 C282 1.416 . S
C284 C286 1.416 . S
C284 C317 1.448 . S
C285 H270 0.930 . S
C285 N281 1.334 . S
C285 C283 1.390 . S
C286 C283 1.339 . S
C286 C284 1.416 . S
C286 H293 0.930 . S
N287 Tb252 2.572 . S
N287 C288 1.340 . S
N287 C290 1.361 . S
C288 H274 0.930 . S
C288 N287 1.340 . S
C288 C292 1.407 . S
C289 C290 1.413 . S
C289 C291 1.416 . S
C289 C318 1.427 . S
C290 C282 1.424 . S
C290 N287 1.361 . S
C290 C289 1.413 . S
C291 H280 0.931 . S
C291 C289 1.416 . S
C291 C292 1.332 . S
C292 H271 0.929 . S
C292 C288 1.407 . S
C292 C291 1.332 . S
H293 C286 0.930 . S
H294 C317 0.930 . S
H295 C318 0.929 . S
O296 Tb252 2.465 . S
O296 C316 1.264 . S
O297 Tb252 2.387 . S
O297 C308 1.264 . S
O298 Tb263 2.349 . S
O298 C308 1.243 . S
O299 Tb252 2.428 . S
O299 C316 1.256 . S
O300 Tb252 2.308 . S
O300 C315 1.266 . S
O301 Tb263 2.393 . S
O301 C315 1.248 . S
O302 Tb263 2.465 . S
O302 C327 1.264 . S
O303 Tb263 2.387 . S
O303 C319 1.264 . S
O304 Tb252 2.349 . S
O304 C319 1.243 . S
O305 Tb263 2.428 . S
O305 C327 1.256 . S
O306 Tb263 2.308 . S
O306 C326 1.266 . S
O307 Tb252 2.393 . S
O307 C326 1.248 . S
C308 O297 1.264 . S
C308 O298 1.243 . S
C309 C312 1.399 . S
C309 C314 1.383 . S
C309 C316 1.496 . S
C310 C311 1.399 . S
C310 C314 1.389 . S
C311 C310 1.399 . S
C311 C313 1.380 . S
C311 H328 0.929 . S
C312 C309 1.399 . S
C312 C313 1.392 . S
C312 H329 0.929 . S
C313 C311 1.380 . S
C313 C312 1.392 . S
C313 H330 0.929 . S
C314 C309 1.383 . S
C314 C310 1.389 . S
C314 H331 0.931 . S
C315 O300 1.266 . S
C315 O301 1.248 . S
C316 Tb252 2.802 . S
C316 O296 1.264 . S
C316 O299 1.256 . S
C316 C309 1.496 . S
C317 C284 1.448 . S
C317 H294 0.930 . S
C317 C318 1.328 . S
C318 C289 1.427 . S
C318 H295 0.929 . S
C318 C317 1.328 . S
C319 O303 1.264 . S
C319 O304 1.243 . S
C320 C323 1.399 . S
C320 C324 1.383 . S
C320 C327 1.496 . S
C321 C322 1.399 . S
C321 C324 1.389 . S
C322 C321 1.399 . S
C322 C325 1.380 . S
C322 H332 0.929 . S
C323 C320 1.399 . S
C323 C325 1.392 . S
C323 H333 0.929 . S
C324 C320 1.383 . S
C324 C321 1.389 . S
C324 H334 0.931 . S
C325 C322 1.380 . S
C325 C323 1.392 . S
C325 H335 0.929 . S
C326 O306 1.266 . S
C326 O307 1.248 . S
C327 Tb263 2.802 . S
C327 O302 1.264 . S
C327 O305 1.256 . S
C327 C320 1.496 . S
H328 C311 0.929 . S
H329 C312 0.929 . S
H330 C313 0.929 . S
H331 C314 0.931 . S
H332 C322 0.929 . S
H333 C323 0.929 . S
H334 C324 0.931 . S
H335 C325 0.929 . S
Tb336 N365 2.617 . S
Tb336 N371 2.572 . S
Tb336 O380 2.465 . S
Tb336 O381 2.387 . S
Tb336 O383 2.428 . S
Tb336 O384 2.308 . S
Tb336 O388 2.349 . S
Tb336 O391 2.393 . S
Tb336 C400 2.802 . S
C337 N338 1.379 . S
C337 C340 1.416 . S
C337 C344 1.424 . S
N338 C337 1.379 . S
N338 C341 1.334 . S
N338 Tb347 2.617 . S
C339 C341 1.390 1_556 S
C339 C342 1.339 . S
C339 H359 0.930 . S
C340 C337 1.416 . S
C340 C342 1.416 1_554 S
C340 C346 1.448 1_565 S
C341 N338 1.334 . S
C341 C339 1.390 1_554 S
C341 H352 0.930 . S
C342 C339 1.339 . S
C342 C340 1.416 1_556 S
C342 H363 0.930 . S
C343 C344 1.413 . S
C343 C345 1.427 1_565 S
C343 C349 1.416 1_565 S
C344 C337 1.424 . S
C344 C343 1.413 . S
C344 N348 1.361 . S
C345 C343 1.427 1_545 S
C345 C346 1.328 . S
C345 H360 0.929 . S
C346 C340 1.448 1_545 S
C346 C345 1.328 . S
C346 H361 0.930 . S
Tb347 N338 2.617 . S
Tb347 N348 2.572 . S
Tb347 O382 2.349 . S
Tb347 O385 2.393 . S
Tb347 O386 2.465 . S
Tb347 O387 2.387 . S
Tb347 O389 2.428 . S
Tb347 O390 2.308 . S
Tb347 C411 2.802 . S
N348 C344 1.361 . S
N348 Tb347 2.572 . S
N348 C350 1.340 . S
C349 C343 1.416 1_545 S
C349 C351 1.332 1_545 S
C349 H357 0.931 . S
C350 N348 1.340 . S
C350 C351 1.407 . S
C350 H356 0.930 . S
C351 C349 1.332 1_565 S
C351 C350 1.407 . S
C351 H353 0.929 . S
H352 C341 0.930 . S
H353 C351 0.929 . S
H354 C369 0.930 . S
H355 C376 0.929 . S
H356 C350 0.930 . S
H357 C349 0.931 . S
H358 C372 0.930 . S
H359 C339 0.930 . S
H360 C345 0.929 . S
H361 C346 0.930 . S
H362 C367 0.930 . S
H363 C342 0.930 . S
H364 C375 0.931 . S
N365 Tb336 2.617 . S
N365 C366 1.379 . S
N365 C369 1.334 . S
C366 N365 1.379 . S
C366 C368 1.416 . S
C366 C374 1.424 . S
C367 H362 0.930 . S
C367 C369 1.390 . S
C367 C370 1.339 . S
C368 C366 1.416 . S
C368 C370 1.416 . S
C368 C401 1.448 1_455 S
C369 H354 0.930 . S
C369 N365 1.334 . S
C369 C367 1.390 . S
C370 C367 1.339 . S
C370 C368 1.416 . S
C370 H377 0.930 . S
N371 Tb336 2.572 . S
N371 C372 1.340 . S
N371 C374 1.361 . S
C372 H358 0.930 . S
C372 N371 1.340 . S
C372 C376 1.407 1_455 S
C373 C374 1.413 1_655 S
C373 C375 1.416 . S
C373 C402 1.427 . S
C374 C366 1.424 . S
C374 N371 1.361 . S
C374 C373 1.413 1_455 S
C375 H364 0.931 . S
C375 C373 1.416 . S
C375 C376 1.332 . S
C376 H355 0.929 . S
C376 C372 1.407 1_655 S
C376 C375 1.332 . S
H377 C370 0.930 . S
H378 C401 0.930 . S
H379 C402 0.929 . S
O380 Tb336 2.465 . S
O380 C400 1.264 . S
O381 Tb336 2.387 . S
O381 C392 1.264 . S
O382 Tb347 2.349 . S
O382 C392 1.243 . S
O383 Tb336 2.428 . S
O383 C400 1.256 . S
O384 Tb336 2.308 . S
O384 C399 1.266 . S
O385 Tb347 2.393 . S
O385 C399 1.248 . S
O386 Tb347 2.465 . S
O386 C411 1.264 . S
O387 Tb347 2.387 . S
O387 C403 1.264 . S
O388 Tb336 2.349 . S
O388 C403 1.243 . S
O389 Tb347 2.428 . S
O389 C411 1.256 . S
O390 Tb347 2.308 . S
O390 C410 1.266 . S
O391 Tb336 2.393 . S
O391 C410 1.248 . S
C392 O381 1.264 . S
C392 O382 1.243 . S
C393 C396 1.399 . S
C393 C398 1.383 . S
C393 C400 1.496 1_655 S
C394 C395 1.399 . S
C394 C398 1.389 . S
C395 C394 1.399 . S
C395 C397 1.380 . S
C395 H412 0.929 . S
C396 C393 1.399 . S
C396 C397 1.392 . S
C396 H413 0.929 . S
C397 C395 1.380 . S
C397 C396 1.392 . S
C397 H414 0.929 . S
C398 C393 1.383 . S
C398 C394 1.389 . S
C398 H415 0.931 . S
C399 O384 1.266 . S
C399 O385 1.248 . S
C400 Tb336 2.802 . S
C400 O380 1.264 . S
C400 O383 1.256 . S
C400 C393 1.496 1_455 S
C401 C368 1.448 1_655 S
C401 H378 0.930 . S
C401 C402 1.328 . S
C402 C373 1.427 . S
C402 H379 0.929 . S
C402 C401 1.328 . S
C403 O387 1.264 . S
C403 O388 1.243 . S
C404 C407 1.399 . S
C404 C408 1.383 . S
C404 C411 1.496 . S
C405 C406 1.399 . S
C405 C408 1.389 . S
C406 C405 1.399 . S
C406 C409 1.380 . S
C406 H416 0.929 . S
C407 C404 1.399 . S
C407 C409 1.392 . S
C407 H417 0.929 . S
C408 C404 1.383 . S
C408 C405 1.389 . S
C408 H418 0.931 . S
C409 C406 1.380 . S
C409 C407 1.392 . S
C409 H419 0.929 . S
C410 O390 1.266 . S
C410 O391 1.248 . S
C411 Tb347 2.802 . S
C411 O386 1.264 . S
C411 O389 1.256 . S
C411 C404 1.496 . S
H412 C395 0.929 . S
H413 C396 0.929 . S
H414 C397 0.929 . S
H415 C398 0.931 . S
H416 C406 0.929 . S
H417 C407 0.929 . S
H418 C408 0.931 . S
H419 C409 0.929 . S
Tb420 N449 2.617 . S
Tb420 N455 2.572 . S
Tb420 O464 2.465 . S
Tb420 O465 2.387 . S
Tb420 O467 2.428 . S
Tb420 O468 2.308 . S
Tb420 O472 2.349 . S
Tb420 O475 2.393 . S
Tb420 C484 2.802 . S
C421 N422 1.379 . S
C421 C424 1.416 . S
C421 C428 1.424 . S
N422 C421 1.379 . S
N422 C425 1.334 . S
N422 Tb431 2.617 . S
C423 C425 1.390 . S
C423 C426 1.339 . S
C423 H443 0.930 . S
C424 C421 1.416 . S
C424 C426 1.416 . S
C424 C430 1.448 . S
C425 N422 1.334 . S
C425 C423 1.390 . S
C425 H436 0.930 . S
C426 C423 1.339 . S
C426 C424 1.416 . S
C426 H447 0.930 . S
C427 C428 1.413 . S
C427 C429 1.427 . S
C427 C433 1.416 . S
C428 C421 1.424 . S
C428 C427 1.413 . S
C428 N432 1.361 . S
C429 C427 1.427 . S
C429 C430 1.328 . S
C429 H444 0.929 . S
C430 C424 1.448 . S
C430 C429 1.328 . S
C430 H445 0.930 . S
Tb431 N422 2.617 . S
Tb431 N432 2.572 . S
Tb431 O466 2.349 . S
Tb431 O469 2.393 . S
Tb431 O470 2.465 . S
Tb431 O471 2.387 . S
Tb431 O473 2.428 . S
Tb431 O474 2.308 . S
Tb431 C495 2.802 . S
N432 C428 1.361 . S
N432 Tb431 2.572 . S
N432 C434 1.340 . S
C433 C427 1.416 . S
C433 C435 1.332 . S
C433 H441 0.931 . S
C434 N432 1.340 . S
C434 C435 1.407 . S
C434 H440 0.930 . S
C435 C433 1.332 . S
C435 C434 1.407 . S
C435 H437 0.929 . S
H436 C425 0.930 . S
H437 C435 0.929 . S
H438 C453 0.930 . S
H439 C460 0.929 . S
H440 C434 0.930 . S
H441 C433 0.931 . S
H442 C456 0.930 . S
H443 C423 0.930 . S
H444 C429 0.929 . S
H445 C430 0.930 . S
H446 C451 0.930 . S
H447 C426 0.930 . S
H448 C459 0.931 . S
N449 Tb420 2.617 . S
N449 C450 1.379 . S
N449 C453 1.334 . S
C450 N449 1.379 . S
C450 C452 1.416 . S
C450 C458 1.424 . S
C451 H446 0.930 . S
C451 C453 1.390 . S
C451 C454 1.339 . S
C452 C450 1.416 . S
C452 C454 1.416 . S
C452 C485 1.448 1_545 S
C453 H438 0.930 . S
C453 N449 1.334 . S
C453 C451 1.390 . S
C454 C451 1.339 . S
C454 C452 1.416 . S
C454 H461 0.930 . S
N455 Tb420 2.572 . S
N455 C456 1.340 . S
N455 C458 1.361 . S
C456 H442 0.930 . S
C456 N455 1.340 . S
C456 C460 1.407 1_545 S
C457 C458 1.413 1_565 S
C457 C459 1.416 . S
C457 C486 1.427 . S
C458 C450 1.424 . S
C458 N455 1.361 . S
C458 C457 1.413 1_545 S
C459 H448 0.931 . S
C459 C457 1.416 . S
C459 C460 1.332 . S
C460 H439 0.929 . S
C460 C456 1.407 1_565 S
C460 C459 1.332 . S
H461 C454 0.930 . S
H462 C485 0.930 . S
H463 C486 0.929 . S
O464 Tb420 2.465 . S
O464 C484 1.264 . S
O465 Tb420 2.387 . S
O465 C476 1.264 . S
O466 Tb431 2.349 . S
O466 C476 1.243 . S
O467 Tb420 2.428 . S
O467 C484 1.256 . S
O468 Tb420 2.308 . S
O468 C483 1.266 . S
O469 Tb431 2.393 . S
O469 C483 1.248 . S
O470 Tb431 2.465 . S
O470 C495 1.264 . S
O471 Tb431 2.387 . S
O471 C487 1.264 . S
O472 Tb420 2.349 . S
O472 C487 1.243 . S
O473 Tb431 2.428 . S
O473 C495 1.256 . S
O474 Tb431 2.308 . S
O474 C494 1.266 . S
O475 Tb420 2.393 . S
O475 C494 1.248 . S
C476 O465 1.264 . S
C476 O466 1.243 . S
C477 C480 1.399 . S
C477 C482 1.383 . S
C477 C484 1.496 1_565 S
C478 C479 1.399 . S
C478 C482 1.389 . S
C479 C478 1.399 . S
C479 C481 1.380 . S
C479 H496 0.929 . S
C480 C477 1.399 . S
C480 C481 1.392 . S
C480 H497 0.929 . S
C481 C479 1.380 . S
C481 C480 1.392 . S
C481 H498 0.929 . S
C482 C477 1.383 . S
C482 C478 1.389 . S
C482 H499 0.931 . S
C483 O468 1.266 . S
C483 O469 1.248 . S
C484 Tb420 2.802 . S
C484 O464 1.264 . S
C484 O467 1.256 . S
C484 C477 1.496 1_545 S
C485 C452 1.448 1_565 S
C485 H462 0.930 . S
C485 C486 1.328 . S
C486 C457 1.427 . S
C486 H463 0.929 . S
C486 C485 1.328 . S
C487 O471 1.264 . S
C487 O472 1.243 . S
C488 C491 1.399 . S
C488 C492 1.383 . S
C488 C495 1.496 . S
C489 C490 1.399 . S
C489 C492 1.389 . S
C490 C489 1.399 . S
C490 C493 1.380 . S
C490 H500 0.929 . S
C491 C488 1.399 . S
C491 C493 1.392 . S
C491 H501 0.929 . S
C492 C488 1.383 . S
C492 C489 1.389 . S
C492 H502 0.931 . S
C493 C490 1.380 . S
C493 C491 1.392 . S
C493 H503 0.929 . S
C494 O474 1.266 . S
C494 O475 1.248 . S
C495 Tb431 2.802 . S
C495 O470 1.264 . S
C495 O473 1.256 . S
C495 C488 1.496 . S
H496 C479 0.929 . S
H497 C480 0.929 . S
H498 C481 0.929 . S
H499 C482 0.931 . S
H500 C490 0.929 . S
H501 C491 0.929 . S
H502 C492 0.931 . S
H503 C493 0.929 . S
Tb504 N533 2.617 . S
Tb504 N539 2.572 . S
Tb504 O548 2.465 . S
Tb504 O549 2.387 . S
Tb504 O551 2.428 . S
Tb504 O552 2.308 . S
Tb504 O556 2.349 . S
Tb504 O559 2.393 . S
Tb504 C568 2.802 . S
C505 N506 1.379 . S
C505 C508 1.416 . S
C505 C512 1.424 . S
N506 C505 1.379 . S
N506 C509 1.334 . S
N506 Tb515 2.617 . S
C507 C509 1.390 . S
C507 C510 1.339 . S
C507 H527 0.930 . S
C508 C505 1.416 . S
C508 C510 1.416 . S
C508 C514 1.448 1_565 S
C509 N506 1.334 . S
C509 C507 1.390 . S
C509 H520 0.930 . S
C510 C507 1.339 . S
C510 C508 1.416 . S
C510 H531 0.930 . S
C511 C512 1.413 . S
C511 C513 1.427 1_565 S
C511 C517 1.416 1_565 S
C512 C505 1.424 . S
C512 C511 1.413 . S
C512 N516 1.361 . S
C513 C511 1.427 1_545 S
C513 C514 1.328 . S
C513 H528 0.929 . S
C514 C508 1.448 1_545 S
C514 C513 1.328 . S
C514 H529 0.930 . S
Tb515 N506 2.617 . S
Tb515 N516 2.572 . S
Tb515 O550 2.349 . S
Tb515 O553 2.393 . S
Tb515 O554 2.465 . S
Tb515 O555 2.387 . S
Tb515 O557 2.428 . S
Tb515 O558 2.308 . S
Tb515 C579 2.802 . S
N516 C512 1.361 . S
N516 Tb515 2.572 . S
N516 C518 1.340 . S
C517 C511 1.416 1_545 S
C517 C519 1.332 1_545 S
C517 H525 0.931 . S
C518 N516 1.340 . S
C518 C519 1.407 . S
C518 H524 0.930 . S
C519 C517 1.332 1_565 S
C519 C518 1.407 . S
C519 H521 0.929 . S
H520 C509 0.930 . S
H521 C519 0.929 . S
H522 C537 0.930 . S
H523 C544 0.929 . S
H524 C518 0.930 . S
H525 C517 0.931 . S
H526 C540 0.930 . S
H527 C507 0.930 . S
H528 C513 0.929 . S
H529 C514 0.930 . S
H530 C535 0.930 . S
H531 C510 0.930 . S
H532 C543 0.931 . S
N533 Tb504 2.617 . S
N533 C534 1.379 . S
N533 C537 1.334 . S
C534 N533 1.379 . S
C534 C536 1.416 . S
C534 C542 1.424 . S
C535 H530 0.930 . S
C535 C537 1.390 . S
C535 C538 1.339 . S
C536 C534 1.416 . S
C536 C538 1.416 . S
C536 C569 1.448 . S
C537 H522 0.930 . S
C537 N533 1.334 . S
C537 C535 1.390 . S
C538 C535 1.339 . S
C538 C536 1.416 . S
C538 H545 0.930 . S
N539 Tb504 2.572 . S
N539 C540 1.340 . S
N539 C542 1.361 . S
C540 H526 0.930 . S
C540 N539 1.340 . S
C540 C544 1.407 . S
C541 C542 1.413 . S
C541 C543 1.416 . S
C541 C570 1.427 . S
C542 C534 1.424 . S
C542 N539 1.361 . S
C542 C541 1.413 . S
C543 H532 0.931 . S
C543 C541 1.416 . S
C543 C544 1.332 . S
C544 H523 0.929 . S
C544 C540 1.407 . S
C544 C543 1.332 . S
H545 C538 0.930 . S
H546 C569 0.930 . S
H547 C570 0.929 . S
O548 Tb504 2.465 . S
O548 C568 1.264 . S
O549 Tb504 2.387 . S
O549 C560 1.264 . S
O550 Tb515 2.349 . S
O550 C560 1.243 . S
O551 Tb504 2.428 . S
O551 C568 1.256 . S
O552 Tb504 2.308 . S
O552 C567 1.266 . S
O553 Tb515 2.393 . S
O553 C567 1.248 . S
O554 Tb515 2.465 . S
O554 C579 1.264 . S
O555 Tb515 2.387 . S
O555 C571 1.264 . S
O556 Tb504 2.349 . S
O556 C571 1.243 . S
O557 Tb515 2.428 . S
O557 C579 1.256 . S
O558 Tb515 2.308 . S
O558 C578 1.266 . S
O559 Tb504 2.393 . S
O559 C578 1.248 . S
C560 O549 1.264 . S
C560 O550 1.243 . S
C561 C564 1.399 . S
C561 C566 1.383 . S
C561 C568 1.496 . S
C562 C563 1.399 . S
C562 C566 1.389 . S
C563 C562 1.399 . S
C563 C565 1.380 . S
C563 H580 0.929 . S
C564 C561 1.399 . S
C564 C565 1.392 . S
C564 H581 0.929 . S
C565 C563 1.380 . S
C565 C564 1.392 . S
C565 H582 0.929 . S
C566 C561 1.383 . S
C566 C562 1.389 . S
C566 H583 0.931 . S
C567 O552 1.266 . S
C567 O553 1.248 . S
C568 Tb504 2.802 . S
C568 O548 1.264 . S
C568 O551 1.256 . S
C568 C561 1.496 . S
C569 C536 1.448 . S
C569 H546 0.930 . S
C569 C570 1.328 . S
C570 C541 1.427 . S
C570 H547 0.929 . S
C570 C569 1.328 . S
C571 O555 1.264 . S
C571 O556 1.243 . S
C572 C575 1.399 . S
C572 C576 1.383 . S
C572 C579 1.496 . S
C573 C574 1.399 . S
C573 C576 1.389 . S
C574 C573 1.399 . S
C574 C577 1.380 . S
C574 H584 0.929 . S
C575 C572 1.399 . S
C575 C577 1.392 . S
C575 H585 0.929 . S
C576 C572 1.383 . S
C576 C573 1.389 . S
C576 H586 0.931 . S
C577 C574 1.380 . S
C577 C575 1.392 . S
C577 H587 0.929 . S
C578 O558 1.266 . S
C578 O559 1.248 . S
C579 Tb515 2.802 . S
C579 O554 1.264 . S
C579 O557 1.256 . S
C579 C572 1.496 . S
H580 C563 0.929 . S
H581 C564 0.929 . S
H582 C565 0.929 . S
H583 C566 0.931 . S
H584 C574 0.929 . S
H585 C575 0.929 . S
H586 C576 0.931 . S
H587 C577 0.929 . S
Tb588 N617 2.617 . S
Tb588 N623 2.572 . S
Tb588 O632 2.465 . S
Tb588 O633 2.387 . S
Tb588 O635 2.428 . S
Tb588 O636 2.308 . S
Tb588 O640 2.349 . S
Tb588 O643 2.393 . S
Tb588 C652 2.802 . S
C589 N590 1.379 . S
C589 C592 1.416 . S
C589 C596 1.424 . S
N590 C589 1.379 . S
N590 C593 1.334 . S
N590 Tb599 2.617 . S
C591 C593 1.390 1_554 S
C591 C594 1.339 . S
C591 H611 0.930 . S
C592 C589 1.416 . S
C592 C594 1.416 1_556 S
C592 C598 1.448 . S
C593 N590 1.334 . S
C593 C591 1.390 1_556 S
C593 H604 0.930 . S
C594 C591 1.339 . S
C594 C592 1.416 1_554 S
C594 H615 0.930 . S
C595 C596 1.413 . S
C595 C597 1.427 . S
C595 C601 1.416 . S
C596 C589 1.424 . S
C596 C595 1.413 . S
C596 N600 1.361 . S
C597 C595 1.427 . S
C597 C598 1.328 . S
C597 H612 0.929 . S
C598 C592 1.448 . S
C598 C597 1.328 . S
C598 H613 0.930 . S
Tb599 N590 2.617 . S
Tb599 N600 2.572 . S
Tb599 O634 2.349 . S
Tb599 O637 2.393 . S
Tb599 O638 2.465 . S
Tb599 O639 2.387 . S
Tb599 O641 2.428 . S
Tb599 O642 2.308 . S
Tb599 C663 2.802 . S
N600 C596 1.361 . S
N600 Tb599 2.572 . S
N600 C602 1.340 . S
C601 C595 1.416 . S
C601 C603 1.332 . S
C601 H609 0.931 . S
C602 N600 1.340 . S
C602 C603 1.407 . S
C602 H608 0.930 . S
C603 C601 1.332 . S
C603 C602 1.407 . S
C603 H605 0.929 . S
H604 C593 0.930 . S
H605 C603 0.929 . S
H606 C621 0.930 . S
H607 C628 0.929 . S
H608 C602 0.930 . S
H609 C601 0.931 . S
H610 C624 0.930 . S
H611 C591 0.930 . S
H612 C597 0.929 . S
H613 C598 0.930 . S
H614 C619 0.930 . S
H615 C594 0.930 . S
H616 C627 0.931 . S
N617 Tb588 2.617 . S
N617 C618 1.379 . S
N617 C621 1.334 . S
C618 N617 1.379 . S
C618 C620 1.416 . S
C618 C626 1.424 . S
C619 H614 0.930 . S
C619 C621 1.390 . S
C619 C622 1.339 . S
C620 C618 1.416 . S
C620 C622 1.416 . S
C620 C653 1.448 1_655 S
C621 H606 0.930 . S
C621 N617 1.334 . S
C621 C619 1.390 . S
C622 C619 1.339 . S
C622 C620 1.416 . S
C622 H629 0.930 . S
N623 Tb588 2.572 . S
N623 C624 1.340 . S
N623 C626 1.361 . S
C624 H610 0.930 . S
C624 N623 1.340 . S
C624 C628 1.407 1_655 S
C625 C626 1.413 1_455 S
C625 C627 1.416 . S
C625 C654 1.427 . S
C626 C618 1.424 . S
C626 N623 1.361 . S
C626 C625 1.413 1_655 S
C627 H616 0.931 . S
C627 C625 1.416 . S
C627 C628 1.332 . S
C628 H607 0.929 . S
C628 C624 1.407 1_455 S
C628 C627 1.332 . S
H629 C622 0.930 . S
H630 C653 0.930 . S
H631 C654 0.929 . S
O632 Tb588 2.465 . S
O632 C652 1.264 . S
O633 Tb588 2.387 . S
O633 C644 1.264 . S
O634 Tb599 2.349 . S
O634 C644 1.243 . S
O635 Tb588 2.428 . S
O635 C652 1.256 . S
O636 Tb588 2.308 . S
O636 C651 1.266 . S
O637 Tb599 2.393 . S
O637 C651 1.248 . S
O638 Tb599 2.465 . S
O638 C663 1.264 . S
O639 Tb599 2.387 . S
O639 C655 1.264 . S
O640 Tb588 2.349 . S
O640 C655 1.243 . S
O641 Tb599 2.428 . S
O641 C663 1.256 . S
O642 Tb599 2.308 . S
O642 C662 1.266 . S
O643 Tb588 2.393 . S
O643 C662 1.248 . S
C644 O633 1.264 . S
C644 O634 1.243 . S
C645 C648 1.399 . S
C645 C650 1.383 . S
C645 C652 1.496 1_455 S
C646 C647 1.399 . S
C646 C650 1.389 . S
C647 C646 1.399 . S
C647 C649 1.380 . S
C647 H664 0.929 . S
C648 C645 1.399 . S
C648 C649 1.392 . S
C648 H665 0.929 . S
C649 C647 1.380 . S
C649 C648 1.392 . S
C649 H666 0.929 . S
C650 C645 1.383 . S
C650 C646 1.389 . S
C650 H667 0.931 . S
C651 O636 1.266 . S
C651 O637 1.248 . S
C652 Tb588 2.802 . S
C652 O632 1.264 . S
C652 O635 1.256 . S
C652 C645 1.496 1_655 S
C653 C620 1.448 1_455 S
C653 H630 0.930 . S
C653 C654 1.328 . S
C654 C625 1.427 . S
C654 H631 0.929 . S
C654 C653 1.328 . S
C655 O639 1.264 . S
C655 O640 1.243 . S
C656 C659 1.399 . S
C656 C660 1.383 . S
C656 C663 1.496 . S
C657 C658 1.399 . S
C657 C660 1.389 . S
C658 C657 1.399 . S
C658 C661 1.380 . S
C658 H668 0.929 . S
C659 C656 1.399 . S
C659 C661 1.392 . S
C659 H669 0.929 . S
C660 C656 1.383 . S
C660 C657 1.389 . S
C660 H670 0.931 . S
C661 C658 1.380 . S
C661 C659 1.392 . S
C661 H671 0.929 . S
C662 O642 1.266 . S
C662 O643 1.248 . S
C663 Tb599 2.802 . S
C663 O638 1.264 . S
C663 O641 1.256 . S
C663 C656 1.496 . S
H664 C647 0.929 . S
H665 C648 0.929 . S
H666 C649 0.929 . S
H667 C650 0.931 . S
H668 C658 0.929 . S
H669 C659 0.929 . S
H670 C660 0.931 . S
H671 C661 0.929 . S
Tb672 N701 2.617 . S
Tb672 N707 2.572 . S
Tb672 O716 2.465 . S
Tb672 O717 2.387 . S
Tb672 O719 2.428 . S
Tb672 O720 2.308 . S
Tb672 O724 2.349 . S
Tb672 O727 2.393 . S
Tb672 C736 2.802 . S
C673 N674 1.379 . S
C673 C676 1.416 . S
C673 C680 1.424 . S
N674 C673 1.379 . S
N674 C677 1.334 . S
N674 Tb683 2.617 . S
C675 C677 1.390 . S
C675 C678 1.339 . S
C675 H695 0.930 . S
C676 C673 1.416 . S
C676 C678 1.416 . S
C676 C682 1.448 1_455 S
C677 N674 1.334 . S
C677 C675 1.390 . S
C677 H688 0.930 . S
C678 C675 1.339 . S
C678 C676 1.416 . S
C678 H699 0.930 . S
C679 C680 1.413 . S
C679 C681 1.427 1_455 S
C679 C685 1.416 1_455 S
C680 C673 1.424 . S
C680 C679 1.413 . S
C680 N684 1.361 . S
C681 C679 1.427 1_655 S
C681 C682 1.328 . S
C681 H696 0.929 . S
C682 C676 1.448 1_655 S
C682 C681 1.328 . S
C682 H697 0.930 . S
Tb683 N674 2.617 . S
Tb683 N684 2.572 . S
Tb683 O718 2.349 . S
Tb683 O721 2.393 . S
Tb683 O722 2.465 . S
Tb683 O723 2.387 . S
Tb683 O725 2.428 . S
Tb683 O726 2.308 . S
Tb683 C747 2.802 . S
N684 C680 1.361 . S
N684 Tb683 2.572 . S
N684 C686 1.340 . S
C685 C679 1.416 1_655 S
C685 C687 1.332 1_655 S
C685 H693 0.931 . S
C686 N684 1.340 . S
C686 C687 1.407 . S
C686 H692 0.930 . S
C687 C685 1.332 1_455 S
C687 C686 1.407 . S
C687 H689 0.929 . S
H688 C677 0.930 . S
H689 C687 0.929 . S
H690 C705 0.930 . S
H691 C712 0.929 . S
H692 C686 0.930 . S
H693 C685 0.931 . S
H694 C708 0.930 . S
H695 C675 0.930 . S
H696 C681 0.929 . S
H697 C682 0.930 . S
H698 C703 0.930 . S
H699 C678 0.930 . S
H700 C711 0.931 . S
N701 Tb672 2.617 . S
N701 C702 1.379 . S
N701 C705 1.334 . S
C702 N701 1.379 . S
C702 C704 1.416 . S
C702 C710 1.424 . S
C703 H698 0.930 . S
C703 C705 1.390 . S
C703 C706 1.339 . S
C704 C702 1.416 . S
C704 C706 1.416 . S
C704 C737 1.448 1_565 S
C705 H690 0.930 . S
C705 N701 1.334 . S
C705 C703 1.390 . S
C706 C703 1.339 . S
C706 C704 1.416 . S
C706 H713 0.930 . S
N707 Tb672 2.572 . S
N707 C708 1.340 . S
N707 C710 1.361 . S
C708 H694 0.930 . S
C708 N707 1.340 . S
C708 C712 1.407 1_565 S
C709 C710 1.413 1_545 S
C709 C711 1.416 . S
C709 C738 1.427 . S
C710 C702 1.424 . S
C710 N707 1.361 . S
C710 C709 1.413 1_565 S
C711 H700 0.931 . S
C711 C709 1.416 . S
C711 C712 1.332 . S
C712 H691 0.929 . S
C712 C708 1.407 1_545 S
C712 C711 1.332 . S
H713 C706 0.930 . S
H714 C737 0.930 . S
H715 C738 0.929 . S
O716 Tb672 2.465 . S
O716 C736 1.264 . S
O717 Tb672 2.387 . S
O717 C728 1.264 . S
O718 Tb683 2.349 . S
O718 C728 1.243 . S
O719 Tb672 2.428 . S
O719 C736 1.256 . S
O720 Tb672 2.308 . S
O720 C735 1.266 . S
O721 Tb683 2.393 . S
O721 C735 1.248 . S
O722 Tb683 2.465 . S
O722 C747 1.264 . S
O723 Tb683 2.387 . S
O723 C739 1.264 . S
O724 Tb672 2.349 . S
O724 C739 1.243 . S
O725 Tb683 2.428 . S
O725 C747 1.256 . S
O726 Tb683 2.308 . S
O726 C746 1.266 . S
O727 Tb672 2.393 . S
O727 C746 1.248 . S
C728 O717 1.264 . S
C728 O718 1.243 . S
C729 C732 1.399 . S
C729 C734 1.383 . S
C729 C736 1.496 1_545 S
C730 C731 1.399 . S
C730 C734 1.389 . S
C731 C730 1.399 . S
C731 C733 1.380 . S
C731 H748 0.929 . S
C732 C729 1.399 . S
C732 C733 1.392 . S
C732 H749 0.929 . S
C733 C731 1.380 . S
C733 C732 1.392 . S
C733 H750 0.929 . S
C734 C729 1.383 . S
C734 C730 1.389 . S
C734 H751 0.931 . S
C735 O720 1.266 . S
C735 O721 1.248 . S
C736 Tb672 2.802 . S
C736 O716 1.264 . S
C736 O719 1.256 . S
C736 C729 1.496 1_565 S
C737 C704 1.448 1_545 S
C737 H714 0.930 . S
C737 C738 1.328 . S
C738 C709 1.427 . S
C738 H715 0.929 . S
C738 C737 1.328 . S
C739 O723 1.264 . S
C739 O724 1.243 . S
C740 C743 1.399 . S
C740 C744 1.383 . S
C740 C747 1.496 . S
C741 C742 1.399 . S
C741 C744 1.389 . S
C742 C741 1.399 . S
C742 C745 1.380 . S
C742 H752 0.929 . S
C743 C740 1.399 . S
C743 C745 1.392 . S
C743 H753 0.929 . S
C744 C740 1.383 . S
C744 C741 1.389 . S
C744 H754 0.931 . S
C745 C742 1.380 . S
C745 C743 1.392 . S
C745 H755 0.929 . S
C746 O726 1.266 . S
C746 O727 1.248 . S
C747 Tb683 2.802 . S
C747 O722 1.264 . S
C747 O725 1.256 . S
C747 C740 1.496 . S
H748 C731 0.929 . S
H749 C732 0.929 . S
H750 C733 0.929 . S
H751 C734 0.931 . S
H752 C742 0.929 . S
H753 C743 0.929 . S
H754 C744 0.931 . S
H755 C745 0.929 . S
Tb756 N785 2.617 . S
Tb756 N791 2.572 . S
Tb756 O800 2.465 . S
Tb756 O801 2.387 . S
Tb756 O803 2.428 . S
Tb756 O804 2.308 . S
Tb756 O808 2.349 . S
Tb756 O811 2.393 . S
Tb756 C820 2.802 . S
C757 N758 1.379 . S
C757 C760 1.416 . S
C757 C764 1.424 . S
N758 C757 1.379 . S
N758 C761 1.334 . S
N758 Tb767 2.617 . S
C759 C761 1.390 1_554 S
C759 C762 1.339 . S
C759 H779 0.930 . S
C760 C757 1.416 . S
C760 C762 1.416 1_556 S
C760 C766 1.448 1_545 S
C761 N758 1.334 . S
C761 C759 1.390 1_556 S
C761 H772 0.930 . S
C762 C759 1.339 . S
C762 C760 1.416 1_554 S
C762 H783 0.930 . S
C763 C764 1.413 . S
C763 C765 1.427 1_545 S
C763 C769 1.416 1_545 S
C764 C757 1.424 . S
C764 C763 1.413 . S
C764 N768 1.361 . S
C765 C763 1.427 1_565 S
C765 C766 1.328 . S
C765 H780 0.929 . S
C766 C760 1.448 1_565 S
C766 C765 1.328 . S
C766 H781 0.930 . S
Tb767 N758 2.617 . S
Tb767 N768 2.572 . S
Tb767 O802 2.349 . S
Tb767 O805 2.393 . S
Tb767 O806 2.465 . S
Tb767 O807 2.387 . S
Tb767 O809 2.428 . S
Tb767 O810 2.308 . S
Tb767 C831 2.802 . S
N768 C764 1.361 . S
N768 Tb767 2.572 . S
N768 C770 1.340 . S
C769 C763 1.416 1_565 S
C769 C771 1.332 1_565 S
C769 H777 0.931 . S
C770 N768 1.340 . S
C770 C771 1.407 . S
C770 H776 0.930 . S
C771 C769 1.332 1_545 S
C771 C770 1.407 . S
C771 H773 0.929 . S
H772 C761 0.930 . S
H773 C771 0.929 . S
H774 C789 0.930 . S
H775 C796 0.929 . S
H776 C770 0.930 . S
H777 C769 0.931 . S
H778 C792 0.930 . S
H779 C759 0.930 . S
H780 C765 0.929 . S
H781 C766 0.930 . S
H782 C787 0.930 . S
H783 C762 0.930 . S
H784 C795 0.931 . S
N785 Tb756 2.617 . S
N785 C786 1.379 . S
N785 C789 1.334 . S
C786 N785 1.379 . S
C786 C788 1.416 . S
C786 C794 1.424 . S
C787 H782 0.930 . S
C787 C789 1.390 . S
C787 C790 1.339 . S
C788 C786 1.416 . S
C788 C790 1.416 . S
C788 C821 1.448 . S
C789 H774 0.930 . S
C789 N785 1.334 . S
C789 C787 1.390 . S
C790 C787 1.339 . S
C790 C788 1.416 . S
C790 H797 0.930 . S
N791 Tb756 2.572 . S
N791 C792 1.340 . S
N791 C794 1.361 . S
C792 H778 0.930 . S
C792 N791 1.340 . S
C792 C796 1.407 . S
C793 C794 1.413 . S
C793 C795 1.416 . S
C793 C822 1.427 . S
C794 C786 1.424 . S
C794 N791 1.361 . S
C794 C793 1.413 . S
C795 H784 0.931 . S
C795 C793 1.416 . S
C795 C796 1.332 . S
C796 H775 0.929 . S
C796 C792 1.407 . S
C796 C795 1.332 . S
H797 C790 0.930 . S
H798 C821 0.930 . S
H799 C822 0.929 . S
O800 Tb756 2.465 . S
O800 C820 1.264 . S
O801 Tb756 2.387 . S
O801 C812 1.264 . S
O802 Tb767 2.349 . S
O802 C812 1.243 . S
O803 Tb756 2.428 . S
O803 C820 1.256 . S
O804 Tb756 2.308 . S
O804 C819 1.266 . S
O805 Tb767 2.393 . S
O805 C819 1.248 . S
O806 Tb767 2.465 . S
O806 C831 1.264 . S
O807 Tb767 2.387 . S
O807 C823 1.264 . S
O808 Tb756 2.349 . S
O808 C823 1.243 . S
O809 Tb767 2.428 . S
O809 C831 1.256 . S
O810 Tb767 2.308 . S
O810 C830 1.266 . S
O811 Tb756 2.393 . S
O811 C830 1.248 . S
C812 O801 1.264 . S
C812 O802 1.243 . S
C813 C816 1.399 . S
C813 C818 1.383 . S
C813 C820 1.496 . S
C814 C815 1.399 . S
C814 C818 1.389 . S
C815 C814 1.399 . S
C815 C817 1.380 . S
C815 H832 0.929 . S
C816 C813 1.399 . S
C816 C817 1.392 . S
C816 H833 0.929 . S
C817 C815 1.380 . S
C817 C816 1.392 . S
C817 H834 0.929 . S
C818 C813 1.383 . S
C818 C814 1.389 . S
C818 H835 0.931 . S
C819 O804 1.266 . S
C819 O805 1.248 . S
C820 Tb756 2.802 . S
C820 O800 1.264 . S
C820 O803 1.256 . S
C820 C813 1.496 . S
C821 C788 1.448 . S
C821 H798 0.930 . S
C821 C822 1.328 . S
C822 C793 1.427 . S
C822 H799 0.929 . S
C822 C821 1.328 . S
C823 O807 1.264 . S
C823 O808 1.243 . S
C824 C827 1.399 . S
C824 C828 1.383 . S
C824 C831 1.496 . S
C825 C826 1.399 . S
C825 C828 1.389 . S
C826 C825 1.399 . S
C826 C829 1.380 . S
C826 H836 0.929 . S
C827 C824 1.399 . S
C827 C829 1.392 . S
C827 H837 0.929 . S
C828 C824 1.383 . S
C828 C825 1.389 . S
C828 H838 0.931 . S
C829 C826 1.380 . S
C829 C827 1.392 . S
C829 H839 0.929 . S
C830 O810 1.266 . S
C830 O811 1.248 . S
C831 Tb767 2.802 . S
C831 O806 1.264 . S
C831 O809 1.256 . S
C831 C824 1.496 . S
H832 C815 0.929 . S
H833 C816 0.929 . S
H834 C817 0.929 . S
H835 C818 0.931 . S
H836 C826 0.929 . S
H837 C827 0.929 . S
H838 C828 0.931 . S
H839 C829 0.929 . S
Tb840 N869 2.617 . S
Tb840 N875 2.572 . S
Tb840 O884 2.465 . S
Tb840 O885 2.387 . S
Tb840 O887 2.428 . S
Tb840 O888 2.308 . S
Tb840 O892 2.349 . S
Tb840 O895 2.393 . S
Tb840 C904 2.802 . S
C841 N842 1.379 . S
C841 C844 1.416 . S
C841 C848 1.424 . S
N842 C841 1.379 . S
N842 C845 1.334 . S
N842 Tb851 2.617 . S
C843 C845 1.390 . S
C843 C846 1.339 . S
C843 H863 0.930 . S
C844 C841 1.416 . S
C844 C846 1.416 . S
C844 C850 1.448 . S
C845 N842 1.334 . S
C845 C843 1.390 . S
C845 H856 0.930 . S
C846 C843 1.339 . S
C846 C844 1.416 . S
C846 H867 0.930 . S
C847 C848 1.413 . S
C847 C849 1.427 . S
C847 C853 1.416 . S
C848 C841 1.424 . S
C848 C847 1.413 . S
C848 N852 1.361 . S
C849 C847 1.427 . S
C849 C850 1.328 . S
C849 H864 0.929 . S
C850 C844 1.448 . S
C850 C849 1.328 . S
C850 H865 0.930 . S
Tb851 N842 2.617 . S
Tb851 N852 2.572 . S
Tb851 O886 2.349 . S
Tb851 O889 2.393 . S
Tb851 O890 2.465 . S
Tb851 O891 2.387 . S
Tb851 O893 2.428 . S
Tb851 O894 2.308 . S
Tb851 C915 2.802 . S
N852 C848 1.361 . S
N852 Tb851 2.572 . S
N852 C854 1.340 . S
C853 C847 1.416 . S
C853 C855 1.332 . S
C853 H861 0.931 . S
C854 N852 1.340 . S
C854 C855 1.407 . S
C854 H860 0.930 . S
C855 C853 1.332 . S
C855 C854 1.407 . S
C855 H857 0.929 . S
H856 C845 0.930 . S
H857 C855 0.929 . S
H858 C873 0.930 . S
H859 C880 0.929 . S
H860 C854 0.930 . S
H861 C853 0.931 . S
H862 C876 0.930 . S
H863 C843 0.930 . S
H864 C849 0.929 . S
H865 C850 0.930 . S
H866 C871 0.930 . S
H867 C846 0.930 . S
H868 C879 0.931 . S
N869 Tb840 2.617 . S
N869 C870 1.379 . S
N869 C873 1.334 . S
C870 N869 1.379 . S
C870 C872 1.416 . S
C870 C878 1.424 . S
C871 H866 0.930 . S
C871 C873 1.390 . S
C871 C874 1.339 . S
C872 C870 1.416 . S
C872 C874 1.416 . S
C872 C905 1.448 1_455 S
C873 H858 0.930 . S
C873 N869 1.334 . S
C873 C871 1.390 . S
C874 C871 1.339 . S
C874 C872 1.416 . S
C874 H881 0.930 . S
N875 Tb840 2.572 . S
N875 C876 1.340 . S
N875 C878 1.361 . S
C876 H862 0.930 . S
C876 N875 1.340 . S
C876 C880 1.407 1_455 S
C877 C878 1.413 1_655 S
C877 C879 1.416 . S
C877 C906 1.427 . S
C878 C870 1.424 . S
C878 N875 1.361 . S
C878 C877 1.413 1_455 S
C879 H868 0.931 . S
C879 C877 1.416 . S
C879 C880 1.332 . S
C880 H859 0.929 . S
C880 C876 1.407 1_655 S
C880 C879 1.332 . S
H881 C874 0.930 . S
H882 C905 0.930 . S
H883 C906 0.929 . S
O884 Tb840 2.465 . S
O884 C904 1.264 . S
O885 Tb840 2.387 . S
O885 C896 1.264 . S
O886 Tb851 2.349 . S
O886 C896 1.243 . S
O887 Tb840 2.428 . S
O887 C904 1.256 . S
O888 Tb840 2.308 . S
O888 C903 1.266 . S
O889 Tb851 2.393 . S
O889 C903 1.248 . S
O890 Tb851 2.465 . S
O890 C915 1.264 . S
O891 Tb851 2.387 . S
O891 C907 1.264 . S
O892 Tb840 2.349 . S
O892 C907 1.243 . S
O893 Tb851 2.428 . S
O893 C915 1.256 . S
O894 Tb851 2.308 . S
O894 C914 1.266 . S
O895 Tb840 2.393 . S
O895 C914 1.248 . S
C896 O885 1.264 . S
C896 O886 1.243 . S
C897 C900 1.399 . S
C897 C902 1.383 . S
C897 C904 1.496 1_655 S
C898 C899 1.399 . S
C898 C902 1.389 . S
C899 C898 1.399 . S
C899 C901 1.380 . S
C899 H916 0.929 . S
C900 C897 1.399 . S
C900 C901 1.392 . S
C900 H917 0.929 . S
C901 C899 1.380 . S
C901 C900 1.392 . S
C901 H918 0.929 . S
C902 C897 1.383 . S
C902 C898 1.389 . S
C902 H919 0.931 . S
C903 O888 1.266 . S
C903 O889 1.248 . S
C904 Tb840 2.802 . S
C904 O884 1.264 . S
C904 O887 1.256 . S
C904 C897 1.496 1_455 S
C905 C872 1.448 1_655 S
C905 H882 0.930 . S
C905 C906 1.328 . S
C906 C877 1.427 . S
C906 H883 0.929 . S
C906 C905 1.328 . S
C907 O891 1.264 . S
C907 O892 1.243 . S
C908 C911 1.399 . S
C908 C912 1.383 . S
C908 C915 1.496 . S
C909 C910 1.399 . S
C909 C912 1.389 . S
C910 C909 1.399 . S
C910 C913 1.380 . S
C910 H920 0.929 . S
C911 C908 1.399 . S
C911 C913 1.392 . S
C911 H921 0.929 . S
C912 C908 1.383 . S
C912 C909 1.389 . S
C912 H922 0.931 . S
C913 C910 1.380 . S
C913 C911 1.392 . S
C913 H923 0.929 . S
C914 O894 1.266 . S
C914 O895 1.248 . S
C915 Tb851 2.802 . S
C915 O890 1.264 . S
C915 O893 1.256 . S
C915 C908 1.496 . S
H916 C899 0.929 . S
H917 C900 0.929 . S
H918 C901 0.929 . S
H919 C902 0.931 . S
H920 C910 0.929 . S
H921 C911 0.929 . S
H922 C912 0.931 . S
H923 C913 0.929 . S
Tb924 N953 2.617 . S
Tb924 N959 2.572 . S
Tb924 O968 2.465 . S
Tb924 O969 2.387 . S
Tb924 O971 2.428 . S
Tb924 O972 2.308 . S
Tb924 O976 2.349 . S
Tb924 O979 2.393 . S
Tb924 C988 2.802 . S
C925 N926 1.379 . S
C925 C928 1.416 . S
C925 C932 1.424 . S
N926 C925 1.379 . S
N926 C929 1.334 . S
N926 Tb935 2.617 . S
C927 C929 1.390 1_554 S
C927 C930 1.339 . S
C927 H947 0.930 . S
C928 C925 1.416 . S
C928 C930 1.416 1_556 S
C928 C934 1.448 1_655 S
C929 N926 1.334 . S
C929 C927 1.390 1_556 S
C929 H940 0.930 . S
C930 C927 1.339 . S
C930 C928 1.416 1_554 S
C930 H951 0.930 . S
C931 C932 1.413 . S
C931 C933 1.427 1_655 S
C931 C937 1.416 1_655 S
C932 C925 1.424 . S
C932 C931 1.413 . S
C932 N936 1.361 . S
C933 C931 1.427 1_455 S
C933 C934 1.328 . S
C933 H948 0.929 . S
C934 C928 1.448 1_455 S
C934 C933 1.328 . S
C934 H949 0.930 . S
Tb935 N926 2.617 . S
Tb935 N936 2.572 . S
Tb935 O970 2.349 . S
Tb935 O973 2.393 . S
Tb935 O974 2.465 . S
Tb935 O975 2.387 . S
Tb935 O977 2.428 . S
Tb935 O978 2.308 . S
Tb935 C999 2.802 . S
N936 C932 1.361 . S
N936 Tb935 2.572 . S
N936 C938 1.340 . S
C937 C931 1.416 1_455 S
C937 C939 1.332 1_455 S
C937 H945 0.931 . S
C938 N936 1.340 . S
C938 C939 1.407 . S
C938 H944 0.930 . S
C939 C937 1.332 1_655 S
C939 C938 1.407 . S
C939 H941 0.929 . S
H940 C929 0.930 . S
H941 C939 0.929 . S
H942 C957 0.930 . S
H943 C964 0.929 . S
H944 C938 0.930 . S
H945 C937 0.931 . S
H946 C960 0.930 . S
H947 C927 0.930 . S
H948 C933 0.929 . S
H949 C934 0.930 . S
H950 C955 0.930 . S
H951 C930 0.930 . S
H952 C963 0.931 . S
N953 Tb924 2.617 . S
N953 C954 1.379 . S
N953 C957 1.334 . S
C954 N953 1.379 . S
C954 C956 1.416 . S
C954 C962 1.424 . S
C955 H950 0.930 . S
C955 C957 1.390 . S
C955 C958 1.339 . S
C956 C954 1.416 . S
C956 C958 1.416 . S
C956 C989 1.448 1_545 S
C957 H942 0.930 . S
C957 N953 1.334 . S
C957 C955 1.390 . S
C958 C955 1.339 . S
C958 C956 1.416 . S
C958 H965 0.930 . S
N959 Tb924 2.572 . S
N959 C960 1.340 . S
N959 C962 1.361 . S
C960 H946 0.930 . S
C960 N959 1.340 . S
C960 C964 1.407 1_545 S
C961 C962 1.413 1_565 S
C961 C963 1.416 . S
C961 C990 1.427 . S
C962 C954 1.424 . S
C962 N959 1.361 . S
C962 C961 1.413 1_545 S
C963 H952 0.931 . S
C963 C961 1.416 . S
C963 C964 1.332 . S
C964 H943 0.929 . S
C964 C960 1.407 1_565 S
C964 C963 1.332 . S
H965 C958 0.930 . S
H966 C989 0.930 . S
H967 C990 0.929 . S
O968 Tb924 2.465 . S
O968 C988 1.264 . S
O969 Tb924 2.387 . S
O969 C980 1.264 . S
O970 Tb935 2.349 . S
O970 C980 1.243 . S
O971 Tb924 2.428 . S
O971 C988 1.256 . S
O972 Tb924 2.308 . S
O972 C987 1.266 . S
O973 Tb935 2.393 . S
O973 C987 1.248 . S
O974 Tb935 2.465 . S
O974 C999 1.264 . S
O975 Tb935 2.387 . S
O975 C991 1.264 . S
O976 Tb924 2.349 . S
O976 C991 1.243 . S
O977 Tb935 2.428 . S
O977 C999 1.256 . S
O978 Tb935 2.308 . S
O978 C998 1.266 . S
O979 Tb924 2.393 . S
O979 C998 1.248 . S
C980 O969 1.264 . S
C980 O970 1.243 . S
C981 C984 1.399 . S
C981 C986 1.383 . S
C981 C988 1.496 1_565 S
C982 C983 1.399 . S
C982 C986 1.389 . S
C983 C982 1.399 . S
C983 C985 1.380 . S
C983 H1000 0.929 . S
C984 C981 1.399 . S
C984 C985 1.392 . S
C984 H1001 0.929 . S
C985 C983 1.380 . S
C985 C984 1.392 . S
C985 H1002 0.929 . S
C986 C981 1.383 . S
C986 C982 1.389 . S
C986 H1003 0.931 . S
C987 O972 1.266 . S
C987 O973 1.248 . S
C988 Tb924 2.802 . S
C988 O968 1.264 . S
C988 O971 1.256 . S
C988 C981 1.496 1_545 S
C989 C956 1.448 1_565 S
C989 H966 0.930 . S
C989 C990 1.328 . S
C990 C961 1.427 . S
C990 H967 0.929 . S
C990 C989 1.328 . S
C991 O975 1.264 . S
C991 O976 1.243 . S
C992 C995 1.399 . S
C992 C996 1.383 . S
C992 C999 1.496 . S
C993 C994 1.399 . S
C993 C996 1.389 . S
C994 C993 1.399 . S
C994 C997 1.380 . S
C994 H1004 0.929 . S
C995 C992 1.399 . S
C995 C997 1.392 . S
C995 H1005 0.929 . S
C996 C992 1.383 . S
C996 C993 1.389 . S
C996 H1006 0.931 . S
C997 C994 1.380 . S
C997 C995 1.392 . S
C997 H1007 0.929 . S
C998 O978 1.266 . S
C998 O979 1.248 . S
C999 Tb935 2.802 . S
C999 O974 1.264 . S
C999 O977 1.256 . S
C999 C992 1.496 . S
H1000 C983 0.929 . S
H1001 C984 0.929 . S
H1002 C985 0.929 . S
H1003 C986 0.931 . S
H1004 C994 0.929 . S
H1005 C995 0.929 . S
H1006 C996 0.931 . S
H1007 C997 0.929 . S
H1008 C1014 0.930 . S
H1009 C1017 0.930 . S
H1010 C1018 0.930 . S
H1011 C1019 0.930 . S
H1012 C1022 0.930 . S
H1013 C1023 0.930 . S
C1014 H1008 0.930 . S
C1014 C1015 1.355 . S
C1014 C1016 1.395 1_565 S
C1015 C1014 1.355 . S
C1015 C1017 1.419 . S
C1016 C1014 1.395 1_545 S
C1016 C1021 1.435 . S
C1016 C1023 1.420 . S
C1017 H1009 0.930 . S
C1017 C1015 1.419 . S
C1017 C1018 1.362 . S
C1018 H1010 0.930 . S
C1018 C1017 1.362 . S
C1018 C1021 1.409 1_565 S
C1019 H1011 0.930 . S
C1019 C1020 1.355 . S
C1019 C1021 1.415 . S
C1020 C1019 1.355 . S
C1020 C1022 1.419 . S
C1021 C1016 1.435 . S
C1021 C1018 1.409 1_545 S
C1021 C1019 1.415 . S
C1022 H1012 0.930 . S
C1022 C1020 1.419 . S
C1022 C1023 1.362 . S
C1023 H1013 0.930 . S
C1023 C1016 1.420 . S
C1023 C1022 1.362 . S
H1024 C1030 0.930 . S
H1025 C1033 0.930 . S
H1026 C1034 0.930 . S
H1027 C1035 0.930 . S
H1028 C1038 0.930 . S
H1029 C1039 0.930 . S
C1030 H1024 0.930 . S
C1030 C1031 1.355 . S
C1030 C1032 1.415 . S
C1031 C1030 1.355 . S
C1031 C1033 1.419 . S
C1032 C1030 1.415 . S
C1032 C1037 1.425 . S
C1032 C1039 1.409 . S
C1033 H1025 0.930 . S
C1033 C1031 1.419 . S
C1033 C1034 1.362 . S
C1034 H1026 0.930 . S
C1034 C1033 1.362 . S
C1034 C1037 1.409 . S
C1035 H1027 0.930 . S
C1035 C1036 1.355 . S
C1035 C1037 1.415 . S
C1036 C1035 1.355 . S
C1036 C1038 1.419 . S
C1037 C1032 1.425 . S
C1037 C1034 1.409 . S
C1037 C1035 1.415 . S
C1038 H1028 0.930 . S
C1038 C1036 1.419 . S
C1038 C1039 1.362 . S
C1039 H1029 0.930 . S
C1039 C1032 1.409 . S
C1039 C1038 1.362 . S
H1040 C1046 0.930 . S
H1041 C1049 0.930 . S
H1042 C1050 0.930 . S
H1043 C1051 0.930 . S
H1044 C1054 0.930 . S
H1045 C1055 0.930 . S
C1046 H1040 0.930 . S
C1046 C1047 1.355 . S
C1046 C1048 1.415 . S
C1047 C1046 1.355 . S
C1047 C1049 1.419 . S
C1048 C1046 1.415 . S
C1048 C1053 1.425 1_655 S
C1048 C1055 1.409 1_655 S
C1049 H1041 0.930 . S
C1049 C1047 1.419 . S
C1049 C1050 1.362 . S
C1050 H1042 0.930 . S
C1050 C1049 1.362 . S
C1050 C1053 1.409 1_655 S
C1051 H1043 0.930 . S
C1051 C1052 1.355 . S
C1051 C1053 1.415 . S
C1052 C1051 1.355 . S
C1052 C1054 1.419 . S
C1053 C1048 1.425 1_455 S
C1053 C1050 1.409 1_455 S
C1053 C1051 1.415 . S
C1054 H1044 0.930 . S
C1054 C1052 1.419 . S
C1054 C1055 1.362 . S
C1055 H1045 0.930 . S
C1055 C1048 1.409 1_455 S
C1055 C1054 1.362 . S
H1056 C1062 0.930 . S
H1057 C1065 0.930 . S
H1058 C1066 0.930 1_545 S
H1059 C1067 0.930 . S
H1060 C1070 0.930 . S
H1061 C1071 0.930 1_565 S
C1062 H1056 0.930 . S
C1062 C1063 1.355 . S
C1062 C1064 1.415 . S
C1063 C1062 1.355 . S
C1063 C1065 1.419 . S
C1064 C1062 1.415 . S
C1064 C1069 1.425 1_565 S
C1064 C1071 1.409 1_565 S
C1065 H1057 0.930 . S
C1065 C1063 1.419 . S
C1065 C1066 1.362 . S
C1066 H1058 0.930 1_565 S
C1066 C1065 1.362 . S
C1066 C1069 1.409 1_565 S
C1067 H1059 0.930 . S
C1067 C1068 1.355 . S
C1067 C1069 1.415 . S
C1068 C1067 1.355 . S
C1068 C1070 1.419 . S
C1069 C1064 1.425 1_545 S
C1069 C1066 1.409 1_545 S
C1069 C1067 1.415 . S
C1070 H1060 0.930 . S
C1070 C1068 1.419 . S
C1070 C1071 1.362 . S
C1071 H1061 0.930 1_545 S
C1071 C1064 1.409 1_545 S
C1071 C1070 1.362 . S
H1072 C1078 0.930 . S
H1073 C1081 0.930 . S
H1074 C1082 0.930 . S
H1075 C1083 0.930 . S
H1076 C1086 0.930 . S
H1077 C1087 0.930 . S
C1078 H1072 0.930 . S
C1078 C1079 1.355 . S
C1078 C1080 1.415 . S
C1079 C1078 1.355 . S
C1079 C1081 1.419 . S
C1080 C1078 1.415 . S
C1080 C1085 1.425 . S
C1080 C1087 1.409 . S
C1081 H1073 0.930 . S
C1081 C1079 1.419 . S
C1081 C1082 1.362 . S
C1082 H1074 0.930 . S
C1082 C1081 1.362 . S
C1082 C1085 1.409 . S
C1083 H1075 0.930 . S
C1083 C1084 1.355 . S
C1083 C1085 1.415 . S
C1084 C1083 1.355 . S
C1084 C1086 1.419 . S
C1085 C1080 1.425 . S
C1085 C1082 1.409 . S
C1085 C1083 1.415 . S
C1086 H1076 0.930 . S
C1086 C1084 1.419 . S
C1086 C1087 1.362 . S
C1087 H1077 0.930 . S
C1087 C1080 1.409 . S
C1087 C1086 1.362 . S
H1088 C1094 0.930 . S
H1089 C1097 0.930 . S
H1090 C1098 0.930 1_455 S
H1091 C1099 0.930 . S
H1092 C1102 0.930 . S
H1093 C1103 0.930 1_655 S
C1094 H1088 0.930 . S
C1094 C1095 1.355 . S
C1094 C1096 1.415 . S
C1095 C1094 1.355 . S
C1095 C1097 1.419 . S
C1096 C1094 1.415 . S
C1096 C1101 1.425 1_655 S
C1096 C1103 1.409 1_655 S
C1097 H1089 0.930 . S
C1097 C1095 1.419 . S
C1097 C1098 1.362 . S
C1098 H1090 0.930 1_655 S
C1098 C1097 1.362 . S
C1098 C1101 1.409 1_655 S
C1099 H1091 0.930 . S
C1099 C1100 1.355 . S
C1099 C1101 1.415 . S
C1100 C1099 1.355 . S
C1100 C1102 1.419 . S
C1101 C1096 1.425 1_455 S
C1101 C1098 1.409 1_455 S
C1101 C1099 1.415 . S
C1102 H1092 0.930 . S
C1102 C1100 1.419 . S
C1102 C1103 1.362 . S
C1103 H1093 0.930 1_455 S
C1103 C1096 1.409 1_455 S
C1103 C1102 1.362 . S
H1104 C1110 0.930 . S
H1105 C1113 0.930 . S
H1106 C1114 0.930 . S
H1107 C1115 0.930 . S
H1108 C1118 0.930 . S
H1109 C1119 0.930 . S
C1110 H1104 0.930 . S
C1110 C1111 1.355 . S
C1110 C1112 1.415 . S
C1111 C1110 1.355 . S
C1111 C1113 1.419 . S
C1112 C1110 1.415 . S
C1112 C1117 1.425 1_455 S
C1112 C1119 1.409 1_455 S
C1113 H1105 0.930 . S
C1113 C1111 1.419 . S
C1113 C1114 1.362 . S
C1114 H1106 0.930 . S
C1114 C1113 1.362 . S
C1114 C1117 1.409 1_455 S
C1115 H1107 0.930 . S
C1115 C1116 1.355 . S
C1115 C1117 1.415 . S
C1116 C1115 1.355 . S
C1116 C1118 1.419 . S
C1117 C1112 1.425 1_655 S
C1117 C1114 1.409 1_655 S
C1117 C1115 1.415 . S
C1118 H1108 0.930 . S
C1118 C1116 1.419 . S
C1118 C1119 1.362 . S
C1119 H1109 0.930 . S
C1119 C1112 1.409 1_655 S
C1119 C1118 1.362 . S
H1120 C1126 0.930 . S
H1121 C1129 0.930 . S
H1122 C1130 0.930 1_545 S
H1123 C1131 0.930 . S
H1124 C1134 0.930 . S
H1125 C1135 0.930 1_565 S
C1126 H1120 0.930 . S
C1126 C1127 1.355 . S
C1126 C1128 1.415 . S
C1127 C1126 1.355 . S
C1127 C1129 1.419 . S
C1128 C1126 1.415 . S
C1128 C1133 1.425 1_565 S
C1128 C1135 1.409 1_565 S
C1129 H1121 0.930 . S
C1129 C1127 1.419 . S
C1129 C1130 1.362 . S
C1130 H1122 0.930 1_565 S
C1130 C1129 1.362 . S
C1130 C1133 1.409 1_565 S
C1131 H1123 0.930 . S
C1131 C1132 1.355 . S
C1131 C1133 1.415 . S
C1132 C1131 1.355 . S
C1132 C1134 1.419 . S
C1133 C1128 1.425 1_545 S
C1133 C1130 1.409 1_545 S
C1133 C1131 1.415 . S
C1134 H1124 0.930 . S
C1134 C1132 1.419 . S
C1134 C1135 1.362 . S
C1135 H1125 0.930 1_545 S
C1135 C1128 1.409 1_545 S
C1135 C1134 1.362 . S
H1136 C1142 0.930 . S
H1137 C1145 0.930 . S
H1138 C1146 0.930 . S
H1139 C1147 0.930 . S
H1140 C1150 0.930 . S
H1141 C1151 0.930 . S
C1142 H1136 0.930 . S
C1142 C1143 1.355 . S
C1142 C1144 1.415 . S
C1143 C1142 1.355 . S
C1143 C1145 1.419 . S
C1144 C1142 1.415 . S
C1144 C1149 1.425 . S
C1144 C1151 1.409 . S
C1145 H1137 0.930 . S
C1145 C1143 1.419 . S
C1145 C1146 1.362 . S
C1146 H1138 0.930 . S
C1146 C1145 1.362 . S
C1146 C1149 1.409 . S
C1147 H1139 0.930 . S
C1147 C1148 1.355 . S
C1147 C1149 1.415 . S
C1148 C1147 1.355 . S
C1148 C1150 1.419 . S
C1149 C1144 1.425 . S
C1149 C1146 1.409 . S
C1149 C1147 1.415 . S
C1150 H1140 0.930 . S
C1150 C1148 1.419 . S
C1150 C1151 1.362 . S
C1151 H1141 0.930 . S
C1151 C1144 1.409 . S
C1151 C1150 1.362 . S
H1152 C1158 0.930 . S
H1153 C1161 0.930 . S
H1154 C1162 0.930 . S
H1155 C1163 0.930 . S
H1156 C1166 0.930 . S
H1157 C1167 0.930 . S
C1158 H1152 0.930 . S
C1158 C1159 1.355 . S
C1158 C1160 1.415 . S
C1159 C1158 1.355 . S
C1159 C1161 1.419 . S
C1160 C1158 1.415 . S
C1160 C1165 1.425 . S
C1160 C1167 1.409 1_455 S
C1161 H1153 0.930 . S
C1161 C1159 1.419 . S
C1161 C1162 1.362 . S
C1162 H1154 0.930 . S
C1162 C1161 1.362 . S
C1162 C1165 1.408 . S
C1163 H1155 0.930 . S
C1163 C1164 1.355 . S
C1163 C1165 1.416 1_655 S
C1164 C1163 1.355 . S
C1164 C1166 1.419 . S
C1165 C1160 1.425 . S
C1165 C1162 1.408 . S
C1165 C1163 1.416 1_455 S
C1166 H1156 0.930 . S
C1166 C1164 1.419 . S
C1166 C1167 1.362 . S
C1167 H1157 0.930 . S
C1167 C1160 1.409 1_655 S
C1167 C1166 1.362 . S
H1168 C1174 0.930 . S
H1169 C1177 0.930 . S
H1170 C1178 0.930 . S
H1171 C1179 0.930 . S
H1172 C1182 0.930 . S
H1173 C1183 0.930 . S
C1174 H1168 0.930 . S
C1174 C1175 1.355 . S
C1174 C1176 1.415 . S
C1175 C1174 1.355 . S
C1175 C1177 1.419 . S
C1176 C1174 1.415 . S
C1176 C1181 1.425 . S
C1176 C1183 1.409 1_545 S
C1177 H1169 0.930 . S
C1177 C1175 1.419 . S
C1177 C1178 1.362 . S
C1178 H1170 0.930 . S
C1178 C1177 1.362 . S
C1178 C1181 1.409 . S
C1179 H1171 0.930 . S
C1179 C1180 1.355 . S
C1179 C1181 1.415 1_565 S
C1180 C1179 1.355 . S
C1180 C1182 1.419 . S
C1181 C1176 1.425 . S
C1181 C1178 1.409 . S
C1181 C1179 1.415 1_545 S
C1182 H1172 0.930 . S
C1182 C1180 1.419 . S
C1182 C1183 1.362 . S
C1183 H1173 0.930 . S
C1183 C1176 1.409 1_565 S
C1183 C1182 1.362 . S
H1184 C1190 0.930 . S
H1185 C1193 0.930 . S
H1186 C1194 0.930 . S
H1187 C1195 0.930 . S
H1188 C1198 0.930 . S
H1189 C1199 0.930 . S
C1190 H1184 0.930 . S
C1190 C1191 1.355 . S
C1190 C1192 1.415 . S
C1191 C1190 1.355 . S
C1191 C1193 1.419 . S
C1192 C1190 1.415 . S
C1192 C1197 1.425 . S
C1192 C1199 1.409 . S
C1193 H1185 0.930 . S
C1193 C1191 1.419 . S
C1193 C1194 1.362 . S
C1194 H1186 0.930 . S
C1194 C1193 1.362 . S
C1194 C1197 1.409 . S
C1195 H1187 0.930 . S
C1195 C1196 1.355 . S
C1195 C1197 1.415 . S
C1196 C1195 1.355 . S
C1196 C1198 1.419 . S
C1197 C1192 1.425 . S
C1197 C1194 1.409 . S
C1197 C1195 1.415 . S
C1198 H1188 0.930 . S
C1198 C1196 1.419 . S
C1198 C1199 1.362 . S
C1199 H1189 0.930 . S
C1199 C1192 1.409 . S
C1199 C1198 1.362 . S
H1200 C1206 0.930 . S
H1201 C1209 0.930 . S
H1202 C1210 0.930 . S
H1203 C1211 0.930 . S
H1204 C1214 0.930 . S
H1205 C1215 0.930 . S
C1206 H1200 0.930 . S
C1206 C1207 1.355 . S
C1206 C1208 1.415 . S
C1207 C1206 1.355 . S
C1207 C1209 1.419 . S
C1208 C1206 1.415 . S
C1208 C1213 1.425 . S
C1208 C1215 1.409 . S
C1209 H1201 0.930 . S
C1209 C1207 1.419 . S
C1209 C1210 1.362 . S
C1210 H1202 0.930 . S
C1210 C1209 1.362 . S
C1210 C1213 1.409 . S
C1211 H1203 0.930 . S
C1211 C1212 1.355 . S
C1211 C1213 1.415 . S
C1212 C1211 1.355 . S
C1212 C1214 1.419 . S
C1213 C1208 1.425 . S
C1213 C1210 1.409 . S
C1213 C1211 1.415 . S
C1214 H1204 0.930 . S
C1214 C1212 1.419 . S
C1214 C1215 1.362 . S
C1215 H1205 0.930 . S
C1215 C1208 1.409 . S
C1215 C1214 1.362 . S
H1216 C1222 0.930 . S
H1217 C1225 0.930 . S
H1218 C1226 0.930 . S
H1219 C1227 0.930 . S
H1220 C1230 0.930 . S
H1221 C1231 0.930 . S
C1222 H1216 0.930 . S
C1222 C1223 1.355 . S
C1222 C1224 1.415 . S
C1223 C1222 1.355 . S
C1223 C1225 1.419 . S
C1224 C1222 1.415 . S
C1224 C1229 1.425 . S
C1224 C1231 1.409 . S
C1225 H1217 0.930 . S
C1225 C1223 1.419 . S
C1225 C1226 1.362 . S
C1226 H1218 0.930 . S
C1226 C1225 1.362 . S
C1226 C1229 1.409 . S
C1227 H1219 0.930 . S
C1227 C1228 1.355 . S
C1227 C1229 1.415 . S
C1228 C1227 1.355 . S
C1228 C1230 1.419 . S
C1229 C1224 1.425 . S
C1229 C1226 1.409 . S
C1229 C1227 1.415 . S
C1230 H1220 0.930 . S
C1230 C1228 1.419 . S
C1230 C1231 1.362 . S
C1231 H1221 0.930 . S
C1231 C1224 1.409 . S
C1231 C1230 1.362 . S
H1232 C1238 0.930 . S
H1233 C1241 0.930 . S
H1234 C1242 0.930 . S
H1235 C1243 0.930 . S
H1236 C1246 0.930 . S
H1237 C1247 0.930 . S
C1238 H1232 0.930 . S
C1238 C1239 1.355 . S
C1238 C1240 1.415 . S
C1239 C1238 1.355 . S
C1239 C1241 1.419 . S
C1240 C1238 1.415 . S
C1240 C1245 1.425 . S
C1240 C1247 1.409 . S
C1241 H1233 0.930 . S
C1241 C1239 1.419 . S
C1241 C1242 1.362 . S
C1242 H1234 0.930 . S
C1242 C1241 1.362 . S
C1242 C1245 1.409 . S
C1243 H1235 0.930 . S
C1243 C1244 1.355 . S
C1243 C1245 1.415 . S
C1244 C1243 1.355 . S
C1244 C1246 1.419 . S
C1245 C1240 1.425 . S
C1245 C1242 1.409 . S
C1245 C1243 1.415 . S
C1246 H1236 0.930 . S
C1246 C1244 1.419 . S
C1246 C1247 1.362 . S
C1247 H1237 0.930 . S
C1247 C1240 1.409 . S
C1247 C1246 1.362 . S
H1248 C1254 0.930 . S
H1249 C1257 0.930 . S
H1250 C1258 0.930 . S
H1251 C1259 0.930 . S
H1252 C1262 0.930 . S
H1253 C1263 0.930 . S
C1254 H1248 0.930 . S
C1254 C1255 1.355 . S
C1254 C1256 1.415 . S
C1255 C1254 1.355 . S
C1255 C1257 1.419 . S
C1256 C1254 1.415 . S
C1256 C1261 1.425 . S
C1256 C1263 1.409 . S
C1257 H1249 0.930 . S
C1257 C1255 1.419 . S
C1257 C1258 1.362 . S
C1258 H1250 0.930 . S
C1258 C1257 1.362 . S
C1258 C1261 1.409 . S
C1259 H1251 0.930 . S
C1259 C1260 1.355 . S
C1259 C1261 1.415 . S
C1260 C1259 1.355 . S
C1260 C1262 1.419 . S
C1261 C1256 1.425 . S
C1261 C1258 1.409 . S
C1261 C1259 1.415 . S
C1262 H1252 0.930 . S
C1262 C1260 1.419 . S
C1262 C1263 1.362 . S
C1263 H1253 0.930 . S
C1263 C1256 1.409 . S
C1263 C1262 1.362 . S
H1264 C1270 0.930 . S
H1265 C1273 0.930 . S
H1266 C1274 0.930 . S
H1267 C1275 0.930 . S
H1268 C1278 0.930 . S
H1269 C1279 0.930 . S
C1270 H1264 0.930 . S
C1270 C1271 1.355 . S
C1270 C1272 1.415 . S
C1271 C1270 1.355 . S
C1271 C1273 1.419 . S
C1272 C1270 1.415 . S
C1272 C1277 1.425 . S
C1272 C1279 1.409 . S
C1273 H1265 0.930 . S
C1273 C1271 1.419 . S
C1273 C1274 1.362 . S
C1274 H1266 0.930 . S
C1274 C1273 1.362 . S
C1274 C1277 1.409 . S
C1275 H1267 0.930 . S
C1275 C1276 1.355 . S
C1275 C1277 1.415 . S
C1276 C1275 1.355 . S
C1276 C1278 1.419 . S
C1277 C1272 1.425 . S
C1277 C1274 1.409 . S
C1277 C1275 1.415 . S
C1278 H1268 0.930 . S
C1278 C1276 1.419 . S
C1278 C1279 1.362 . S
C1279 H1269 0.930 . S
C1279 C1272 1.409 . S
C1279 C1278 1.362 . S
H1280 C1286 0.930 . S
H1281 C1289 0.930 . S
H1282 C1290 0.930 . S
H1283 C1291 0.930 . S
H1284 C1294 0.930 . S
H1285 C1295 0.930 . S
C1286 H1280 0.930 . S
C1286 C1287 1.355 . S
C1286 C1288 1.415 . S
C1287 C1286 1.355 . S
C1287 C1289 1.419 . S
C1288 C1286 1.415 . S
C1288 C1293 1.425 . S
C1288 C1295 1.409 . S
C1289 H1281 0.930 . S
C1289 C1287 1.419 . S
C1289 C1290 1.362 . S
C1290 H1282 0.930 . S
C1290 C1289 1.362 . S
C1290 C1293 1.409 . S
C1291 H1283 0.930 . S
C1291 C1292 1.355 . S
C1291 C1293 1.415 . S
C1292 C1291 1.355 . S
C1292 C1294 1.419 . S
C1293 C1288 1.425 . S
C1293 C1290 1.409 . S
C1293 C1291 1.415 . S
C1294 H1284 0.930 . S
C1294 C1292 1.419 . S
C1294 C1295 1.362 . S
C1295 H1285 0.930 . S
C1295 C1288 1.409 . S
C1295 C1294 1.362 . S
H1296 C1302 0.930 . S
H1297 C1305 0.930 . S
H1298 C1306 0.930 . S
H1299 C1307 0.930 . S
H1300 C1310 0.930 . S
H1301 C1311 0.930 . S
C1302 H1296 0.930 . S
C1302 C1303 1.355 . S
C1302 C1304 1.415 . S
C1303 C1302 1.355 . S
C1303 C1305 1.419 . S
C1304 C1302 1.415 . S
C1304 C1309 1.425 . S
C1304 C1311 1.409 . S
C1305 H1297 0.930 . S
C1305 C1303 1.419 . S
C1305 C1306 1.362 . S
C1306 H1298 0.930 . S
C1306 C1305 1.362 . S
C1306 C1309 1.409 . S
C1307 H1299 0.930 . S
C1307 C1308 1.355 . S
C1307 C1309 1.415 . S
C1308 C1307 1.355 . S
C1308 C1310 1.419 . S
C1309 C1304 1.425 . S
C1309 C1306 1.409 . S
C1309 C1307 1.415 . S
C1310 H1300 0.930 . S
C1310 C1308 1.419 . S
C1310 C1311 1.362 . S
C1311 H1301 0.930 . S
C1311 C1304 1.409 . S
C1311 C1310 1.362 . S
H1312 C1318 0.930 . S
H1313 C1321 0.930 . S
H1314 C1322 0.930 . S
H1315 C1323 0.930 . S
H1316 C1326 0.930 . S
H1317 C1327 0.930 . S
C1318 H1312 0.930 . S
C1318 C1319 1.355 . S
C1318 C1320 1.415 . S
C1319 C1318 1.355 . S
C1319 C1321 1.419 . S
C1320 C1318 1.415 . S
C1320 C1325 1.425 . S
C1320 C1327 1.409 . S
C1321 H1313 0.930 . S
C1321 C1319 1.419 . S
C1321 C1322 1.362 . S
C1322 H1314 0.930 . S
C1322 C1321 1.362 . S
C1322 C1325 1.409 . S
C1323 H1315 0.930 . S
C1323 C1324 1.355 . S
C1323 C1325 1.415 . S
C1324 C1323 1.355 . S
C1324 C1326 1.419 . S
C1325 C1320 1.425 . S
C1325 C1322 1.409 . S
C1325 C1323 1.415 . S
C1326 H1316 0.930 . S
C1326 C1324 1.419 . S
C1326 C1327 1.362 . S
C1327 H1317 0.930 . S
C1327 C1320 1.409 . S
C1327 C1326 1.362 . S
H1328 C1334 0.930 . S
H1329 C1337 0.930 . S
H1330 C1338 0.930 . S
H1331 C1339 0.930 . S
H1332 C1342 0.930 . S
H1333 C1343 0.930 . S
C1334 H1328 0.930 . S
C1334 C1335 1.355 . S
C1334 C1336 1.415 . S
C1335 C1334 1.355 . S
C1335 C1337 1.419 . S
C1336 C1334 1.415 . S
C1336 C1341 1.425 . S
C1336 C1343 1.409 . S
C1337 H1329 0.930 . S
C1337 C1335 1.419 . S
C1337 C1338 1.362 . S
C1338 H1330 0.930 . S
C1338 C1337 1.362 . S
C1338 C1341 1.409 . S
C1339 H1331 0.930 . S
C1339 C1340 1.355 . S
C1339 C1341 1.415 . S
C1340 C1339 1.355 . S
C1340 C1342 1.419 . S
C1341 C1336 1.425 . S
C1341 C1338 1.409 . S
C1341 C1339 1.415 . S
C1342 H1332 0.930 . S
C1342 C1340 1.419 . S
C1342 C1343 1.362 . S
C1343 H1333 0.930 . S
C1343 C1336 1.409 . S
C1343 C1342 1.362 . S
H1344 C1350 0.930 . S
H1345 C1353 0.930 . S
H1346 C1354 0.930 . S
H1347 C1355 0.930 . S
H1348 C1358 0.930 . S
H1349 C1359 0.930 . S
C1350 H1344 0.930 . S
C1350 C1351 1.355 . S
C1350 C1352 1.415 . S
C1351 C1350 1.355 . S
C1351 C1353 1.419 . S
C1352 C1350 1.415 . S
C1352 C1357 1.425 . S
C1352 C1359 1.409 . S
C1353 H1345 0.930 . S
C1353 C1351 1.419 . S
C1353 C1354 1.362 . S
C1354 H1346 0.930 . S
C1354 C1353 1.362 . S
C1354 C1357 1.409 . S
C1355 H1347 0.930 . S
C1355 C1356 1.355 . S
C1355 C1357 1.415 . S
C1356 C1355 1.355 . S
C1356 C1358 1.419 . S
C1357 C1352 1.425 . S
C1357 C1354 1.409 . S
C1357 C1355 1.415 . S
C1358 H1348 0.930 . S
C1358 C1356 1.419 . S
C1358 C1359 1.362 . S
C1359 H1349 0.930 . S
C1359 C1352 1.409 . S
C1359 C1358 1.362 . S
H1360 C1366 0.930 . S
H1361 C1369 0.930 . S
H1362 C1370 0.930 . S
H1363 C1371 0.930 . S
H1364 C1374 0.930 . S
H1365 C1375 0.930 . S
C1366 H1360 0.930 . S
C1366 C1367 1.355 . S
C1366 C1368 1.415 . S
C1367 C1366 1.355 . S
C1367 C1369 1.419 . S
C1368 C1366 1.415 . S
C1368 C1373 1.425 . S
C1368 C1375 1.409 . S
C1369 H1361 0.930 . S
C1369 C1367 1.419 . S
C1369 C1370 1.362 . S
C1370 H1362 0.930 . S
C1370 C1369 1.362 . S
C1370 C1373 1.409 . S
C1371 H1363 0.930 . S
C1371 C1372 1.355 . S
C1371 C1373 1.415 . S
C1372 C1371 1.355 . S
C1372 C1374 1.419 . S
C1373 C1368 1.425 . S
C1373 C1370 1.409 . S
C1373 C1371 1.415 . S
C1374 H1364 0.930 . S
C1374 C1372 1.419 . S
C1374 C1375 1.362 . S
C1375 H1365 0.930 . S
C1375 C1368 1.409 . S
C1375 C1374 1.362 . S
H1376 C1382 0.930 . S
H1377 C1385 0.930 . S
H1378 C1386 0.930 . S
H1379 C1387 0.930 . S
H1380 C1390 0.930 . S
H1381 C1391 0.930 . S
C1382 H1376 0.930 . S
C1382 C1383 1.355 . S
C1382 C1384 1.415 . S
C1383 C1382 1.355 . S
C1383 C1385 1.419 . S
C1384 C1382 1.415 . S
C1384 C1389 1.425 . S
C1384 C1391 1.409 . S
C1385 H1377 0.930 . S
C1385 C1383 1.419 . S
C1385 C1386 1.362 . S
C1386 H1378 0.930 . S
C1386 C1385 1.362 . S
C1386 C1389 1.409 . S
C1387 H1379 0.930 . S
C1387 C1388 1.355 . S
C1387 C1389 1.415 . S
C1388 C1387 1.355 . S
C1388 C1390 1.419 . S
C1389 C1384 1.425 . S
C1389 C1386 1.409 . S
C1389 C1387 1.415 . S
C1390 H1380 0.930 . S
C1390 C1388 1.419 . S
C1390 C1391 1.362 . S
C1391 H1381 0.930 . S
C1391 C1384 1.409 . S
C1391 C1390 1.362 . S
H1392 C1398 0.930 . S
H1393 C1401 0.930 . S
H1394 C1402 0.930 . S
H1395 C1403 0.930 . S
H1396 C1406 0.930 . S
H1397 C1407 0.930 . S
C1398 H1392 0.930 . S
C1398 C1399 1.355 . S
C1398 C1400 1.415 . S
C1399 C1398 1.355 . S
C1399 C1401 1.419 . S
C1400 C1398 1.415 . S
C1400 C1405 1.425 . S
C1400 C1407 1.409 . S
C1401 H1393 0.930 . S
C1401 C1399 1.419 . S
C1401 C1402 1.362 . S
C1402 H1394 0.930 . S
C1402 C1401 1.362 . S
C1402 C1405 1.409 . S
C1403 H1395 0.930 . S
C1403 C1404 1.355 . S
C1403 C1405 1.415 . S
C1404 C1403 1.355 . S
C1404 C1406 1.419 . S
C1405 C1400 1.425 . S
C1405 C1402 1.409 . S
C1405 C1403 1.415 . S
C1406 H1396 0.930 . S
C1406 C1404 1.419 . S
C1406 C1407 1.362 . S
C1407 H1397 0.930 . S
C1407 C1400 1.409 . S
C1407 C1406 1.362 . S
H1408 C1414 0.930 . S
H1409 C1417 0.930 . S
H1410 C1418 0.930 . S
H1411 C1419 0.930 . S
H1412 C1422 0.930 . S
H1413 C1423 0.930 . S
C1414 H1408 0.930 . S
C1414 C1415 1.355 . S
C1414 C1416 1.415 . S
C1415 C1414 1.355 . S
C1415 C1417 1.419 . S
C1416 C1414 1.415 . S
C1416 C1421 1.425 . S
C1416 C1423 1.409 . S
C1417 H1409 0.930 . S
C1417 C1415 1.419 . S
C1417 C1418 1.362 . S
C1418 H1410 0.930 . S
C1418 C1417 1.362 . S
C1418 C1421 1.409 . S
C1419 H1411 0.930 . S
C1419 C1420 1.355 . S
C1419 C1421 1.415 . S
C1420 C1419 1.355 . S
C1420 C1422 1.419 . S
C1421 C1416 1.425 . S
C1421 C1418 1.409 . S
C1421 C1419 1.415 . S
C1422 H1412 0.930 . S
C1422 C1420 1.419 . S
C1422 C1423 1.362 . S
C1423 H1413 0.930 . S
C1423 C1416 1.409 . S
C1423 C1422 1.362 . S
H1424 C1430 0.930 . S
H1425 C1433 0.930 . S
H1426 C1434 0.930 . S
H1427 C1435 0.930 . S
H1428 C1438 0.930 . S
H1429 C1439 0.930 . S
C1430 H1424 0.930 . S
C1430 C1431 1.355 . S
C1430 C1432 1.415 . S
C1431 C1430 1.355 . S
C1431 C1433 1.419 . S
C1432 C1430 1.415 . S
C1432 C1437 1.425 . S
C1432 C1439 1.409 . S
C1433 H1425 0.930 . S
C1433 C1431 1.419 . S
C1433 C1434 1.362 . S
C1434 H1426 0.930 . S
C1434 C1433 1.362 . S
C1434 C1437 1.409 . S
C1435 H1427 0.930 . S
C1435 C1436 1.355 . S
C1435 C1437 1.415 . S
C1436 C1435 1.355 . S
C1436 C1438 1.419 . S
C1437 C1432 1.425 . S
C1437 C1434 1.409 . S
C1437 C1435 1.415 . S
C1438 H1428 0.930 . S
C1438 C1436 1.419 . S
C1438 C1439 1.362 . S
C1439 H1429 0.930 . S
C1439 C1432 1.409 . S
C1439 C1438 1.362 . S
H1440 C1446 0.930 . S
H1441 C1449 0.930 . S
H1442 C1450 0.930 . S
H1443 C1451 0.930 . S
H1444 C1454 0.930 . S
H1445 C1455 0.930 . S
C1446 H1440 0.930 . S
C1446 C1447 1.355 . S
C1446 C1448 1.415 . S
C1447 C1446 1.355 . S
C1447 C1449 1.419 . S
C1448 C1446 1.415 . S
C1448 C1453 1.425 . S
C1448 C1455 1.409 . S
C1449 H1441 0.930 . S
C1449 C1447 1.419 . S
C1449 C1450 1.362 . S
C1450 H1442 0.930 . S
C1450 C1449 1.362 . S
C1450 C1453 1.409 . S
C1451 H1443 0.930 . S
C1451 C1452 1.355 . S
C1451 C1453 1.415 . S
C1452 C1451 1.355 . S
C1452 C1454 1.419 . S
C1453 C1448 1.425 . S
C1453 C1450 1.409 . S
C1453 C1451 1.415 . S
C1454 H1444 0.930 . S
C1454 C1452 1.419 . S
C1454 C1455 1.362 . S
C1455 H1445 0.930 . S
C1455 C1448 1.409 . S
C1455 C1454 1.362 . S
H1456 C1462 0.930 . S
H1457 C1465 0.930 . S
H1458 C1466 0.930 . S
H1459 C1467 0.930 . S
H1460 C1470 0.930 . S
H1461 C1471 0.930 . S
C1462 H1456 0.930 . S
C1462 C1463 1.355 . S
C1462 C1464 1.415 . S
C1463 C1462 1.355 . S
C1463 C1465 1.419 . S
C1464 C1462 1.415 . S
C1464 C1469 1.425 . S
C1464 C1471 1.409 . S
C1465 H1457 0.930 . S
C1465 C1463 1.419 . S
C1465 C1466 1.362 . S
C1466 H1458 0.930 . S
C1466 C1465 1.362 . S
C1466 C1469 1.409 . S
C1467 H1459 0.930 . S
C1467 C1468 1.355 . S
C1467 C1469 1.415 . S
C1468 C1467 1.355 . S
C1468 C1470 1.419 . S
C1469 C1464 1.425 . S
C1469 C1466 1.409 . S
C1469 C1467 1.415 . S
C1470 H1460 0.930 . S
C1470 C1468 1.419 . S
C1470 C1471 1.362 . S
C1471 H1461 0.930 . S
C1471 C1464 1.409 . S
C1471 C1470 1.362 . S
H1472 C1478 0.930 . S
H1473 C1481 0.930 . S
H1474 C1482 0.930 . S
H1475 C1483 0.930 . S
H1476 C1486 0.930 . S
H1477 C1487 0.930 . S
C1478 H1472 0.930 . S
C1478 C1479 1.355 . S
C1478 C1480 1.415 . S
C1479 C1478 1.355 . S
C1479 C1481 1.419 . S
C1480 C1478 1.415 . S
C1480 C1485 1.425 . S
C1480 C1487 1.409 . S
C1481 H1473 0.930 . S
C1481 C1479 1.419 . S
C1481 C1482 1.362 . S
C1482 H1474 0.930 . S
C1482 C1481 1.362 . S
C1482 C1485 1.409 . S
C1483 H1475 0.930 . S
C1483 C1484 1.355 . S
C1483 C1485 1.415 . S
C1484 C1483 1.355 . S
C1484 C1486 1.419 . S
C1485 C1480 1.425 . S
C1485 C1482 1.409 . S
C1485 C1483 1.415 . S
C1486 H1476 0.930 . S
C1486 C1484 1.419 . S
C1486 C1487 1.362 . S
C1487 H1477 0.930 . S
C1487 C1480 1.409 . S
C1487 C1486 1.362 . S
H1488 C1494 0.930 . S
H1489 C1497 0.930 . S
H1490 C1498 0.930 . S
H1491 C1499 0.930 . S
H1492 C1502 0.930 . S
H1493 C1503 0.930 . S
C1494 H1488 0.930 . S
C1494 C1495 1.355 . S
C1494 C1496 1.415 . S
C1495 C1494 1.355 . S
C1495 C1497 1.419 . S
C1496 C1494 1.415 . S
C1496 C1501 1.425 1_556 S
C1496 C1503 1.409 . S
C1497 H1489 0.930 . S
C1497 C1495 1.419 . S
C1497 C1498 1.362 1_556 S
C1498 H1490 0.930 . S
C1498 C1497 1.362 1_554 S
C1498 C1501 1.409 . S
C1499 H1491 0.930 . S
C1499 C1500 1.355 . S
C1499 C1501 1.415 . S
C1500 C1499 1.355 . S
C1500 C1502 1.419 . S
C1501 C1496 1.425 1_554 S
C1501 C1498 1.409 . S
C1501 C1499 1.415 . S
C1502 H1492 0.930 . S
C1502 C1500 1.419 . S
C1502 C1503 1.362 1_554 S
C1503 H1493 0.930 . S
C1503 C1496 1.409 . S
C1503 C1502 1.362 1_556 S
H1504 C1510 0.930 . S
H1505 C1513 0.930 . S
H1506 C1514 0.930 . S
H1507 C1515 0.930 . S
H1508 C1518 0.930 . S
H1509 C1519 0.930 . S
C1510 H1504 0.930 . S
C1510 C1511 1.355 . S
C1510 C1512 1.415 . S
C1511 C1510 1.355 . S
C1511 C1513 1.419 . S
C1512 C1510 1.415 . S
C1512 C1517 1.425 1_455 S
C1512 C1519 1.409 1_455 S
C1513 H1505 0.930 . S
C1513 C1511 1.419 . S
C1513 C1514 1.362 . S
C1514 H1506 0.930 . S
C1514 C1513 1.362 . S
C1514 C1517 1.409 1_455 S
C1515 H1507 0.930 . S
C1515 C1516 1.355 . S
C1515 C1517 1.415 . S
C1516 C1515 1.355 . S
C1516 C1518 1.419 . S
C1517 C1512 1.425 1_655 S
C1517 C1514 1.409 1_655 S
C1517 C1515 1.415 . S
C1518 H1508 0.930 . S
C1518 C1516 1.419 . S
C1518 C1519 1.362 . S
C1519 H1509 0.930 . S
C1519 C1512 1.409 1_655 S
C1519 C1518 1.362 . S
H1520 C1526 0.930 . S
H1521 C1529 0.930 1_556 S
H1522 C1530 0.930 . S
H1523 C1531 0.930 . S
H1524 C1534 0.930 1_554 S
H1525 C1535 0.930 . S
C1526 H1520 0.930 . S
C1526 C1527 1.355 . S
C1526 C1528 1.415 1_565 S
C1527 C1526 1.355 . S
C1527 C1529 1.417 . S
C1528 C1526 1.415 1_545 S
C1528 C1533 1.425 1_544 S
C1528 C1535 1.409 . S
C1529 H1521 0.930 1_554 S
C1529 C1527 1.417 . S
C1529 C1530 1.364 1_554 S
C1530 H1522 0.930 . S
C1530 C1529 1.364 1_556 S
C1530 C1533 1.409 . S
C1531 H1523 0.930 . S
C1531 C1532 1.355 . S
C1531 C1533 1.415 1_545 S
C1532 C1531 1.355 . S
C1532 C1534 1.417 . S
C1533 C1528 1.425 1_566 S
C1533 C1530 1.409 . S
C1533 C1531 1.415 1_565 S
C1534 H1524 0.930 1_556 S
C1534 C1532 1.417 . S
C1534 C1535 1.363 1_556 S
C1535 H1525 0.930 . S
C1535 C1528 1.409 . S
C1535 C1534 1.363 1_554 S
H1536 C1542 0.930 . S
H1537 C1545 0.930 . S
H1538 C1546 0.930 . S
H1539 C1547 0.930 . S
H1540 C1550 0.930 . S
H1541 C1551 0.930 . S
C1542 H1536 0.930 . S
C1542 C1543 1.355 . S
C1542 C1544 1.415 . S
C1543 C1542 1.355 . S
C1543 C1545 1.419 . S
C1544 C1542 1.415 . S
C1544 C1549 1.425 . S
C1544 C1551 1.409 . S
C1545 H1537 0.930 . S
C1545 C1543 1.419 . S
C1545 C1546 1.362 . S
C1546 H1538 0.930 . S
C1546 C1545 1.362 . S
C1546 C1549 1.409 . S
C1547 H1539 0.930 . S
C1547 C1548 1.355 . S
C1547 C1549 1.415 . S
C1548 C1547 1.355 . S
C1548 C1550 1.419 . S
C1549 C1544 1.425 . S
C1549 C1546 1.409 . S
C1549 C1547 1.415 . S
C1550 H1540 0.930 . S
C1550 C1548 1.419 . S
C1550 C1551 1.362 . S
C1551 H1541 0.930 . S
C1551 C1544 1.409 . S
C1551 C1550 1.362 . S
H1552 C1558 0.930 . S
H1553 C1561 0.930 . S
H1554 C1562 0.930 . S
H1555 C1563 0.930 . S
H1556 C1566 0.930 . S
H1557 C1567 0.930 . S
C1558 H1552 0.930 . S
C1558 C1559 1.355 . S
C1558 C1560 1.415 1_655 S
C1559 C1558 1.355 . S
C1559 C1561 1.419 . S
C1560 C1558 1.415 1_455 S
C1560 C1565 1.425 1_456 S
C1560 C1567 1.409 . S
C1561 H1553 0.930 . S
C1561 C1559 1.419 . S
C1561 C1562 1.362 1_556 S
C1562 H1554 0.930 . S
C1562 C1561 1.362 1_554 S
C1562 C1565 1.409 . S
C1563 H1555 0.930 . S
C1563 C1564 1.355 . S
C1563 C1565 1.415 1_455 S
C1564 C1563 1.355 . S
C1564 C1566 1.419 . S
C1565 C1560 1.425 1_654 S
C1565 C1562 1.409 . S
C1565 C1563 1.415 1_655 S
C1566 H1556 0.930 . S
C1566 C1564 1.419 . S
C1566 C1567 1.362 1_554 S
C1567 H1557 0.930 . S
C1567 C1560 1.409 . S
C1567 C1566 1.362 1_556 S
H1568 C1574 0.930 . S
H1569 C1577 0.930 . S
H1570 C1578 0.930 . S
H1571 C1579 0.930 . S
H1572 C1582 0.930 . S
H1573 C1583 0.930 . S
C1574 H1568 0.930 . S
C1574 C1575 1.355 . S
C1574 C1576 1.415 1_565 S
C1575 C1574 1.355 . S
C1575 C1577 1.419 . S
C1576 C1574 1.415 1_545 S
C1576 C1581 1.425 1_545 S
C1576 C1583 1.409 . S
C1577 H1569 0.930 . S
C1577 C1575 1.419 . S
C1577 C1578 1.362 . S
C1578 H1570 0.930 . S
C1578 C1577 1.362 . S
C1578 C1581 1.409 . S
C1579 H1571 0.930 . S
C1579 C1580 1.355 . S
C1579 C1581 1.415 1_545 S
C1580 C1579 1.355 . S
C1580 C1582 1.419 . S
C1581 C1576 1.425 1_565 S
C1581 C1578 1.409 . S
C1581 C1579 1.415 1_565 S
C1582 H1572 0.930 . S
C1582 C1580 1.419 . S
C1582 C1583 1.362 . S
C1583 H1573 0.930 . S
C1583 C1576 1.409 . S
C1583 C1582 1.362 . S
C1015 C403 1.379 . S
C1020 C58 1.200 . S
C1031 C487 1.357 . S
C1036 C142 1.147 . S
C1047 C226 1.282 . S
C1052 C67 1.390 . S
C1063 C310 1.249 . S
C1068 C151 1.373 . S
C1079 C394 1.245 . S
C1084 C235 1.388 . S
C1095 C319 1.357 . S
C1100 C478 1.163 . S
C1111 C739 1.365 . S
C1116 C562 1.150 . S
C1127 C646 1.195 . S
C1132 C823 1.361 . S
C1143 C907 1.362 . S
C1148 C730 1.145 . S
C1159 C814 1.252 . S
C1164 C991 1.389 . S
C1175 C898 1.203 . S
C1180 C571 1.380 . S
C1191 C655 1.389 . S
C1196 C982 1.259 . S
C1207 C392 1.415 . S
C1212 C69 1.252 . S
C1223 C153 1.308 . S
C1228 C476 1.459 . S
C1239 C237 1.278 . S
C1244 C56 1.416 . S
C1255 C321 1.357 . S
C1260 C140 1.450 . S
C1271 C224 1.422 . S
C1276 C405 1.230 . S
C1287 C308 1.454 . S
C1292 C489 1.356 . S
C1303 C728 1.445 . S
C1308 C573 1.355 . S
C1319 C657 1.232 . S
C1324 C812 1.433 . S
C1335 C741 1.342 . S
C1340 C896 1.435 . S
C1351 C980 1.447 . S
C1356 C825 1.259 . S
C1367 C909 1.241 . S
C1372 C560 1.417 . S
C1383 C644 1.460 . S
C1388 C993 1.316 . S
C1399 C914 1.768 . S
C1404 C74 1.820 . S
C1415 C158 1.843 . S
C1420 C998 1.790 . S
C1431 C242 1.837 . S
C1436 C578 1.780 . S
C1447 C326 1.844 . S
C1452 C662 1.813 . S
C1463 C410 1.807 . S
C1468 C746 1.766 . S
C1479 C830 1.766 . S
C1484 C494 1.803 . S
C1495 C819 1.964 . S
C1500 C63 1.984 . S
C1511 C903 1.983 . S
C1516 C147 1.959 . S
C1527 C231 1.979 . S
C1532 C987 1.981 . S
C1543 C315 1.962 . S
C1548 C567 1.984 . S
C1559 C651 1.984 . S
C1564 C399 1.972 . S
C1575 C735 1.978 . S
C1580 C483 1.981 . S
