# Generated by pormake.
# Topology nfa, (4)-cn, num edge types: 1
# Building blocks:
#     Node 0, Type 0, BuildingBlock: ESEHIV_clean_sbu_0, # of connection points: 4
#     Node 1, Type 0, BuildingBlock: ESEHIV_clean_sbu_0, # of connection points: 4
#     Node 2, Type 0, BuildingBlock: ESEHIV_clean_sbu_0, # of connection points: 4
#     Node 3, Type 0, BuildingBlock: ESEHIV_clean_sbu_0, # of connection points: 4
#     Node 4, Type 0, BuildingBlock: ESEHIV_clean_sbu_0, # of connection points: 4
#     Node 5, Type 0, BuildingBlock: ESEHIV_clean_sbu_0, # of connection points: 4
#     Node 6, Type 0, BuildingBlock: ESEHIV_clean_sbu_0, # of connection points: 4
#     Node 7, Type 0, BuildingBlock: ESEHIV_clean_sbu_0, # of connection points: 4
#     Node 8, Type 0, BuildingBlock: ESEHIV_clean_sbu_0, # of connection points: 4
#     Node 9, Type 0, BuildingBlock: ESEHIV_clean_sbu_0, # of connection points: 4
#     Node 10, Type 0, BuildingBlock: ESEHIV_clean_sbu_0, # of connection points: 4
#     Node 11, Type 0, BuildingBlock: ESEHIV_clean_sbu_0, # of connection points: 4
#     Node 12, Type 0, BuildingBlock: ESEHIV_clean_sbu_0, # of connection points: 4
#     Node 13, Type 0, BuildingBlock: ESEHIV_clean_sbu_0, # of connection points: 4
#     Node 14, Type 0, BuildingBlock: ESEHIV_clean_sbu_0, # of connection points: 4
#     Node 15, Type 0, BuildingBlock: ESEHIV_clean_sbu_0, # of connection points: 4
#     Node 16, Type 0, BuildingBlock: ESEHIV_clean_sbu_0, # of connection points: 4
#     Node 17, Type 0, BuildingBlock: ESEHIV_clean_sbu_0, # of connection points: 4
#     Node 18, Type 0, BuildingBlock: ESEHIV_clean_sbu_0, # of connection points: 4
#     Node 19, Type 0, BuildingBlock: ESEHIV_clean_sbu_0, # of connection points: 4
#     Node 20, Type 0, BuildingBlock: ESEHIV_clean_sbu_0, # of connection points: 4
#     Node 21, Type 0, BuildingBlock: ESEHIV_clean_sbu_0, # of connection points: 4
#     Node 22, Type 0, BuildingBlock: ESEHIV_clean_sbu_0, # of connection points: 4
#     Node 23, Type 0, BuildingBlock: ESEHIV_clean_sbu_0, # of connection points: 4
#     Edge 24, Type (0, 0), BuildingBlock: XIVTED_clean_linker_0, # of connection points: 2
#     Edge 25, Type (0, 0), BuildingBlock: XIVTED_clean_linker_0, # of connection points: 2
#     Edge 26, Type (0, 0), BuildingBlock: XIVTED_clean_linker_0, # of connection points: 2
#     Edge 27, Type (0, 0), BuildingBlock: XIVTED_clean_linker_0, # of connection points: 2
#     Edge 28, Type (0, 0), BuildingBlock: XIVTED_clean_linker_0, # of connection points: 2
#     Edge 29, Type (0, 0), BuildingBlock: XIVTED_clean_linker_0, # of connection points: 2
#     Edge 30, Type (0, 0), BuildingBlock: XIVTED_clean_linker_0, # of connection points: 2
#     Edge 31, Type (0, 0), BuildingBlock: XIVTED_clean_linker_0, # of connection points: 2
#     Edge 32, Type (0, 0), BuildingBlock: XIVTED_clean_linker_0, # of connection points: 2
#     Edge 33, Type (0, 0), BuildingBlock: XIVTED_clean_linker_0, # of connection points: 2
#     Edge 34, Type (0, 0), BuildingBlock: XIVTED_clean_linker_0, # of connection points: 2
#     Edge 35, Type (0, 0), BuildingBlock: XIVTED_clean_linker_0, # of connection points: 2
#     Edge 36, Type (0, 0), BuildingBlock: XIVTED_clean_linker_0, # of connection points: 2
#     Edge 37, Type (0, 0), BuildingBlock: XIVTED_clean_linker_0, # of connection points: 2
#     Edge 38, Type (0, 0), BuildingBlock: XIVTED_clean_linker_0, # of connection points: 2
#     Edge 39, Type (0, 0), BuildingBlock: XIVTED_clean_linker_0, # of connection points: 2
#     Edge 40, Type (0, 0), BuildingBlock: XIVTED_clean_linker_0, # of connection points: 2
#     Edge 41, Type (0, 0), BuildingBlock: XIVTED_clean_linker_0, # of connection points: 2
#     Edge 42, Type (0, 0), BuildingBlock: XIVTED_clean_linker_0, # of connection points: 2
#     Edge 43, Type (0, 0), BuildingBlock: XIVTED_clean_linker_0, # of connection points: 2
#     Edge 44, Type (0, 0), BuildingBlock: XIVTED_clean_linker_0, # of connection points: 2
#     Edge 45, Type (0, 0), BuildingBlock: XIVTED_clean_linker_0, # of connection points: 2
#     Edge 46, Type (0, 0), BuildingBlock: XIVTED_clean_linker_0, # of connection points: 2
#     Edge 47, Type (0, 0), BuildingBlock: XIVTED_clean_linker_0, # of connection points: 2
#     Edge 48, Type (0, 0), BuildingBlock: XIVTED_clean_linker_0, # of connection points: 2
#     Edge 49, Type (0, 0), BuildingBlock: XIVTED_clean_linker_0, # of connection points: 2
#     Edge 50, Type (0, 0), BuildingBlock: XIVTED_clean_linker_0, # of connection points: 2
#     Edge 51, Type (0, 0), BuildingBlock: XIVTED_clean_linker_0, # of connection points: 2
#     Edge 52, Type (0, 0), BuildingBlock: XIVTED_clean_linker_0, # of connection points: 2
#     Edge 53, Type (0, 0), BuildingBlock: XIVTED_clean_linker_0, # of connection points: 2
#     Edge 54, Type (0, 0), BuildingBlock: XIVTED_clean_linker_0, # of connection points: 2
#     Edge 55, Type (0, 0), BuildingBlock: XIVTED_clean_linker_0, # of connection points: 2
#     Edge 56, Type (0, 0), BuildingBlock: XIVTED_clean_linker_0, # of connection points: 2
#     Edge 57, Type (0, 0), BuildingBlock: XIVTED_clean_linker_0, # of connection points: 2
#     Edge 58, Type (0, 0), BuildingBlock: XIVTED_clean_linker_0, # of connection points: 2
#     Edge 59, Type (0, 0), BuildingBlock: XIVTED_clean_linker_0, # of connection points: 2
#     Edge 60, Type (0, 0), BuildingBlock: XIVTED_clean_linker_0, # of connection points: 2
#     Edge 61, Type (0, 0), BuildingBlock: XIVTED_clean_linker_0, # of connection points: 2
#     Edge 62, Type (0, 0), BuildingBlock: XIVTED_clean_linker_0, # of connection points: 2
#     Edge 63, Type (0, 0), BuildingBlock: XIVTED_clean_linker_0, # of connection points: 2
#     Edge 64, Type (0, 0), BuildingBlock: XIVTED_clean_linker_0, # of connection points: 2
#     Edge 65, Type (0, 0), BuildingBlock: XIVTED_clean_linker_0, # of connection points: 2
#     Edge 66, Type (0, 0), BuildingBlock: XIVTED_clean_linker_0, # of connection points: 2
#     Edge 67, Type (0, 0), BuildingBlock: XIVTED_clean_linker_0, # of connection points: 2
#     Edge 68, Type (0, 0), BuildingBlock: XIVTED_clean_linker_0, # of connection points: 2
#     Edge 69, Type (0, 0), BuildingBlock: XIVTED_clean_linker_0, # of connection points: 2
#     Edge 70, Type (0, 0), BuildingBlock: XIVTED_clean_linker_0, # of connection points: 2
#     Edge 71, Type (0, 0), BuildingBlock: XIVTED_clean_linker_0, # of connection points: 2
# Relax obj value: 0.075
# Max RMSD: 0.185
# Mean RMSD: 0.160
data_MOF--net-nfa--node1-ESEHIV_clean_sbu_0--edge1-XIVTED_clean_linker_0
_symmetry_space_group_name_H-M    P1
_symmetry_Int_Tables_number       1
_symmetry_cell_setting            triclinic
loop_
_symmetry_equiv_pos_as_xyz
'x, y, z'
_cell_length_a     41.547302
_cell_length_b     46.388566
_cell_length_c     44.315646
_cell_angle_alpha  88.953518
_cell_angle_beta   88.9971
_cell_angle_gamma 91.257026
loop_
_atom_site_label
_atom_site_type_symbol
_atom_site_fract_x
_atom_site_fract_y
_atom_site_fract_z
_atom_type_partial_charge
Cu0 Cu 0.08168 0.38479 0.4015 0.0
N1 N 0.04085 0.3675 0.4068 0.0
N2 N 1.00569 0.3303 0.40832 0.0
C3 C 0.0369 0.33864 0.4074 0.0
C4 C 0.98901 0.35495 0.40832 0.0
C5 C 1.01086 0.37799 0.40766 0.0
O6 O 0.11022 0.35416 0.41486 0.0
C7 C 0.07119 0.42107 0.35314 0.0
O8 O 0.04941 0.42932 0.37281 0.0
H9 H 0.05663 0.32394 0.40532 0.0
H10 H 1.00521 0.40063 0.40682 0.0
N11 N 0.08843 0.41809 0.42391 0.0
N12 N 0.10777 0.4628 0.43047 0.0
C13 C 0.11026 0.43836 0.4148 0.0
C14 C 0.07156 0.42994 0.44656 0.0
C15 C 0.08374 0.45761 0.45088 0.0
C16 C 0.11395 0.351 0.44325 0.0
O17 O 0.10419 0.37144 0.46111 0.0
H18 H 0.12664 0.43567 0.39584 0.0
H19 H 0.05089 0.41985 0.45796 0.0
O20 O 0.08772 0.39894 0.35967 0.0
H21 H 0.96303 0.35619 0.40805 0.0
H22 H 0.07442 0.47322 0.46645 0.0
Cu23 Cu 0.89243 0.89252 0.65822 0.0
N24 N 0.89704 0.8935 0.61606 0.0
N25 N 0.88275 0.88756 0.56807 0.0
C26 C 0.8756 0.88146 0.59736 0.0
C27 C 0.91008 0.90385 0.56836 0.0
C28 C 0.91894 0.90738 0.59801 0.0
O29 O 0.84827 0.90613 0.66805 0.0
C30 C 0.93689 0.84986 0.66579 0.0
O31 O 0.95332 0.87058 0.65149 0.0
H32 H 0.85416 0.8698 0.6053 0.0
H33 H 0.93938 0.91978 0.60582 0.0
N34 N 0.92059 0.91801 0.6775 0.0
N35 N 0.95261 0.93362 0.71431 0.0
C36 C 0.93209 0.91265 0.70519 0.0
C37 C 0.93381 0.94358 0.66868 0.0
C38 C 0.95365 0.95323 0.69132 0.0
C39 C 0.83692 0.9262 0.65119 0.0
O40 O 0.85425 0.93593 0.628 0.0
H41 H 0.92528 0.89352 0.71828 0.0
H42 H 0.92953 0.95434 0.64733 0.0
O43 O 0.90689 0.85373 0.67147 0.0
H44 H 0.92254 0.91294 0.54863 0.0
H45 H 0.96811 0.97292 0.69051 0.0
Cu46 Cu 0.40034 0.6588 0.86459 0.0
N47 N 0.40752 0.65711 0.82279 0.0
N48 N 0.41896 0.63339 0.78048 0.0
C49 C 0.42112 0.63378 0.81078 0.0
C50 C 0.40355 0.65779 0.77297 0.0
C51 C 0.39661 0.67248 0.79917 0.0
O52 O 0.38091 0.62046 0.87378 0.0
C53 C 0.44862 0.69726 0.87552 0.0
O54 O 0.42918 0.71164 0.85801 0.0
H55 H 0.43016 0.61623 0.8244 0.0
H56 H 0.38312 0.69204 0.80085 0.0
N57 N 0.37121 0.6864 0.87819 0.0
N58 N 0.35006 0.71689 0.91141 0.0
C59 C 0.37033 0.69494 0.90708 0.0
C60 C 0.35051 0.70342 0.86359 0.0
C61 C 0.33748 0.72232 0.88404 0.0
C62 C 0.35533 0.61696 0.85847 0.0
O63 O 0.34482 0.63921 0.84308 0.0
H64 H 0.38561 0.68604 0.92428 0.0
H65 H 0.34571 0.70268 0.83973 0.0
O66 O 0.44167 0.67079 0.88187 0.0
H67 H 0.39676 0.66405 0.75036 0.0
H68 H 0.32039 0.73893 0.87902 0.0
Cu69 Cu 0.64466 0.12547 0.09207 0.0
N70 N 0.61662 0.13835 0.06277 0.0
N71 N 0.57462 0.16023 0.04248 0.0
C72 C 0.58765 0.14976 0.06798 0.0
C73 C 0.59615 0.15477 0.02023 0.0
C74 C 0.62201 0.14112 0.03284 0.0
O75 O 0.62552 0.13286 0.13149 0.0
C76 C 0.71219 0.13272 0.09549 0.0
O77 O 0.70954 0.11036 0.11407 0.0
H78 H 0.57728 0.15204 0.09033 0.0
H79 H 0.64382 0.13482 0.02127 0.0
N80 N 0.65013 0.08621 0.08735 0.0
N81 N 0.67738 0.04705 0.07547 0.0
C82 C 0.67192 0.07485 0.06846 0.0
C83 C 0.64075 0.06472 0.1065 0.0
C84 C 0.65772 0.0405 0.09932 0.0
C85 C 0.61849 0.15831 0.13916 0.0
O86 O 0.62751 0.18012 0.1214 0.0
H87 H 0.6865 0.08769 0.05254 0.0
H88 H 0.62521 0.06729 0.12607 0.0
O89 O 0.68674 0.14408 0.08546 0.0
H90 H 0.59401 0.16119 0.99677 0.0
H91 H 0.65788 0.02051 0.11231 0.0
Cu92 Cu 0.121 0.59107 0.12599 0.0
N93 N 0.15586 0.56991 0.1116 0.0
N94 N 0.18663 0.53172 0.10347 0.0
C95 C 0.15669 0.54247 0.10196 0.0
C96 C 0.20537 0.55349 0.11353 0.0
C97 C 0.18638 0.5767 0.11881 0.0
O98 O 0.11173 0.57462 0.16678 0.0
C99 C 0.15023 0.64205 0.10135 0.0
O100 O 0.16257 0.62348 0.08267 0.0
H101 H 0.13552 0.52991 0.09617 0.0
H102 H 0.19374 0.5963 0.12988 0.0
N103 N 0.08397 0.5891 0.10233 0.0
N104 N 0.04382 0.61404 0.0818 0.0
C105 C 0.07592 0.61184 0.08489 0.0
C106 C 0.05579 0.57544 0.10929 0.0
C107 C 0.03111 0.5906 0.09652 0.0
C108 C 0.10591 0.54741 0.16808 0.0
O109 O 0.10278 0.53354 0.14277 0.0
H110 H 0.09279 0.62898 0.07865 0.0
H111 H 0.05263 0.5583 0.12595 0.0
O112 O 0.13299 0.63259 0.1238 0.0
H113 H 0.23037 0.55183 0.11971 0.0
H114 H 1.00569 0.58648 0.10085 0.0
Cu115 Cu 0.64508 0.88625 0.36732 0.0
N116 N 0.64681 0.88542 0.32536 0.0
N117 N 0.62814 0.88781 0.27846 0.0
C118 C 0.62132 0.88091 0.30762 0.0
C119 C 0.65921 0.89693 0.2778 0.0
C120 C 0.67071 0.89536 0.30683 0.0
O121 O 0.60199 0.87209 0.37898 0.0
C122 C 0.6612 0.93557 0.40303 0.0
O123 O 0.66048 0.91792 0.42656 0.0
H124 H 0.59751 0.87497 0.31628 0.0
H125 H 0.69412 0.90273 0.31421 0.0
N126 N 0.67764 0.86353 0.38342 0.0
N127 N 0.7211 0.8513 0.40957 0.0
C128 C 0.70419 0.87309 0.39753 0.0
C129 C 0.67827 0.83459 0.38575 0.0
C130 C 0.70491 0.82698 0.40203 0.0
C131 C 0.59453 0.85513 0.40103 0.0
O132 O 0.61663 0.84797 0.42044 0.0
H133 H 0.71028 0.89566 0.40005 0.0
H134 H 0.65997 0.82011 0.3772 0.0
O135 O 0.65308 0.92629 0.37736 0.0
H136 H 0.6722 0.9053 0.25802 0.0
H137 H 0.71137 0.80526 0.40839 0.0
Cu138 Cu 0.41106 0.3758 0.64465 0.0
N139 N 0.41844 0.37168 0.60326 0.0
N140 N 0.43007 0.34889 0.56039 0.0
C141 C 0.42059 0.34606 0.58963 0.0
C142 C 0.4339 0.37763 0.55546 0.0
C143 C 0.42677 0.39161 0.58198 0.0
O144 O 0.42134 0.33701 0.66047 0.0
C145 C 0.35743 0.39744 0.67789 0.0
O146 O 0.37525 0.39118 0.70122 0.0
H147 H 0.41658 0.32565 0.60141 0.0
H148 H 0.42852 0.41457 0.58573 0.0
N149 N 0.4387 0.40503 0.65858 0.0
N150 N 0.45409 0.44801 0.67646 0.0
C151 C 0.42943 0.4316 0.66637 0.0
C152 C 0.4706 0.40475 0.66326 0.0
C153 C 0.48012 0.43114 0.67453 0.0
C154 C 0.44019 0.33053 0.68185 0.0
O155 O 0.44999 0.35076 0.70011 0.0
H156 H 0.40483 0.43859 0.66525 0.0
H157 H 0.4858 0.38656 0.65908 0.0
O158 O 0.367 0.38972 0.65175 0.0
H159 H 0.4416 0.38789 0.53435 0.0
H160 H 0.50433 0.43736 0.68076 0.0
Cu161 Cu 0.90993 0.14316 0.89521 0.0
N162 N 0.86962 0.12634 0.88679 0.0
N163 N 0.82787 0.09538 0.89478 0.0
C164 C 0.85914 0.10156 0.90035 0.0
C165 C 0.81837 0.11725 0.87666 0.0
C166 C 0.84409 0.13644 0.87199 0.0
O167 O 0.90808 0.14465 0.93915 0.0
C168 C 0.94002 0.11014 0.85152 0.0
O169 O 0.91044 0.10827 0.84167 0.0
H170 H 0.87424 0.08873 0.91472 0.0
H171 H 0.84371 0.15683 0.8598 0.0
N172 N 0.91788 0.18036 0.87933 0.0
N173 N 0.94859 0.22005 0.87044 0.0
C174 C 0.94158 0.19768 0.88954 0.0
C175 C 0.90957 0.19203 0.85264 0.0
C176 C 0.92836 0.21664 0.84717 0.0
C177 C 0.89058 0.16454 0.94964 0.0
O178 O 0.88068 0.18464 0.93096 0.0
H179 H 0.95516 0.19258 0.90949 0.0
H180 H 0.89277 0.18229 0.83727 0.0
O181 O 0.94491 0.12154 0.87705 0.0
H182 H 0.79424 0.11992 0.8684 0.0
H183 H 0.928 0.23024 0.82709 0.0
Cu184 Cu 0.40286 0.16193 0.37429 0.0
N185 N 0.41393 0.1783 0.33648 0.0
N186 N 0.444 0.18483 0.29438 0.0
C187 C 0.44066 0.17079 0.32122 0.0
C188 C 0.41816 0.20192 0.29264 0.0
C189 C 0.39952 0.19772 0.3186 0.0
O190 O 0.40198 0.12038 0.36712 0.0
C191 C 0.44538 0.20116 0.40173 0.0
O192 O 0.44533 0.214 0.3751 0.0
H193 H 0.45756 0.15547 0.33 0.0
H194 H 0.37706 0.20795 0.32375 0.0
N195 N 0.36294 0.17197 0.39074 0.0
N196 N 0.32582 0.17303 0.42805 0.0
C197 C 0.35129 0.15922 0.4163 0.0
C198 C 0.3443 0.19492 0.38601 0.0
C199 C 0.32122 0.19551 0.40887 0.0
C200 C 0.3768 0.11084 0.35414 0.0
O201 O 0.35314 0.12857 0.34929 0.0
H202 H 0.36298 0.14128 0.42713 0.0
H203 H 0.34827 0.21111 0.36846 0.0
O204 O 0.43238 0.17606 0.40487 0.0
H205 H 0.41276 0.21603 0.27378 0.0
H206 H 0.30328 0.21184 0.41162 0.0
Cu207 Cu 0.13863 0.11812 0.63137 0.0
N208 N 0.11786 0.13295 0.59748 0.0
N209 N 0.10985 0.16465 0.55961 0.0
C210 C 0.12429 0.15967 0.58625 0.0
C211 C 0.09353 0.13984 0.55392 0.0
C212 C 0.0986 0.1203 0.57728 0.0
O213 O 0.18158 0.13554 0.62642 0.0
C214 C 0.08701 0.11642 0.67054 0.0
O215 O 0.07588 0.1025 0.64721 0.0
H216 H 0.14062 0.17466 0.5969 0.0
H217 H 0.08976 0.09821 0.5789 0.0
N218 N 0.1405 0.07774 0.63209 0.0
N219 N 0.14366 0.03341 0.65247 0.0
C220 C 0.13966 0.06166 0.65772 0.0
C221 C 0.14508 0.05899 0.60966 0.0
C222 C 0.14726 0.03156 0.62223 0.0
C223 C 0.20595 0.12087 0.61903 0.0
O224 O 0.20562 0.09309 0.62526 0.0
H225 H 0.13724 0.07071 0.67996 0.0
H226 H 0.14751 0.06493 0.586 0.0
O227 O 0.11519 0.12781 0.66835 0.0
H228 H 0.07927 0.13587 0.53417 0.0
H229 H 0.15128 1.01187 0.61012 0.0
Cu230 Cu 0.14009 0.87869 0.91075 0.0
N231 N 0.16136 0.88026 0.87305 0.0
N232 N 0.169 0.89639 0.82537 0.0
C233 C 0.1473 0.8881 0.84707 0.0
C234 C 0.19801 0.89251 0.83794 0.0
C235 C 0.19322 0.88269 0.86735 0.0
O236 O 0.09862 0.89662 0.90412 0.0
C237 C 0.18328 0.92005 0.93865 0.0
O238 O 0.18045 0.93674 0.91467 0.0
H239 H 0.12155 0.88975 0.84488 0.0
H240 H 0.21156 0.88021 0.88418 0.0
N241 N 0.13162 0.84065 0.9242 0.0
N242 N 0.12668 0.80226 0.95557 0.0
C243 C 0.14167 0.82806 0.95002 0.0
C244 C 0.10973 0.82213 0.913 0.0
C245 C 0.10664 0.79846 0.93225 0.0
C246 C 0.09598 0.92125 0.89126 0.0
O247 O 0.12154 0.9383 0.88864 0.0
H248 H 0.15831 0.8383 0.96524 0.0
H249 H 0.09596 0.82615 0.89292 0.0
O250 O 0.16731 0.89635 0.94097 0.0
H251 H 0.22096 0.89891 0.82767 0.0
H252 H 0.09048 0.7801 0.92955 0.0
Cu253 Cu 0.37507 0.90452 0.13928 0.0
N254 N 0.35814 0.8683 0.12945 0.0
N255 N 0.3451 0.83153 0.09962 0.0
C256 C 0.35587 0.85913 0.1009 0.0
C257 C 0.34051 0.82292 0.12871 0.0
C258 C 0.34858 0.84569 0.14708 0.0
O259 O 0.36518 0.9285 0.10435 0.0
C260 C 0.4418 0.91981 0.14636 0.0
O261 O 0.43383 0.94633 0.13941 0.0
H262 H 0.36341 0.87216 0.08146 0.0
H263 H 0.34822 0.84554 0.1715 0.0
N264 N 0.35719 0.91849 0.17519 0.0
N265 N 0.35133 0.94434 0.21715 0.0
C266 C 0.36981 0.93947 0.19239 0.0
C267 C 0.32984 0.90967 0.18953 0.0
C268 C 0.32612 0.92557 0.21533 0.0
C269 C 0.33967 0.94321 0.10344 0.0
O270 O 0.32406 0.94835 0.12872 0.0
H271 H 0.39187 0.95122 0.18656 0.0
H272 H 0.31371 0.89288 0.18176 0.0
O273 O 0.4206 0.89967 0.1457 0.0
H274 H 0.33224 0.80166 0.13623 0.0
H275 H 0.30646 0.92321 0.23159 0.0
Cu276 Cu 0.39204 0.38048 0.1313 0.0
N277 N 0.42129 0.36036 0.10788 0.0
N278 N 0.44658 0.32691 0.08159 0.0
C279 C 0.4201 0.33299 0.09821 0.0
C280 C 0.46511 0.35115 0.08115 0.0
C281 C 0.44958 0.37163 0.09756 0.0
O282 O 0.41412 0.38986 0.1688 0.0
C283 C 0.37703 0.41397 0.07892 0.0
O284 O 0.39589 0.39605 0.06492 0.0
H285 H 0.40042 0.31791 0.10334 0.0
H286 H 0.45821 0.39333 0.10178 0.0
N287 N 0.35444 0.35882 0.14014 0.0
N288 N 0.30045 0.35834 0.14 0.0
C289 C 0.32794 0.36305 0.12379 0.0
C290 C 0.34343 0.34956 0.16745 0.0
C291 C 0.31019 0.34911 0.16738 0.0
C292 C 0.42509 0.36837 0.18348 0.0
O293 O 0.42027 0.34237 0.17293 0.0
H294 H 0.32886 0.37426 0.10218 0.0
H295 H 0.35803 0.3475 0.18728 0.0
O296 O 0.37569 0.41338 0.10779 0.0
H297 H 0.48871 0.35357 0.07054 0.0
H298 H 0.29466 0.3459 0.18708 0.0
Cu299 Cu 0.90132 0.8736 0.09209 0.0
N300 N 0.89782 0.90216 0.06236 0.0
N301 N 0.87496 0.94062 0.04153 0.0
C302 C 0.88248 0.92679 0.06737 0.0
C303 C 0.88645 0.92409 0.01918 0.0
C304 C 0.90075 0.90034 0.03216 0.0
O305 O 0.89768 0.89311 0.13095 0.0
C306 C 0.84495 0.84748 0.06726 0.0
O307 O 0.83595 0.87383 0.06088 0.0
H308 H 0.8735 0.9326 0.08947 0.0
H309 H 0.9098 0.88184 0.02047 0.0
N310 N 0.94005 0.85443 0.08762 0.0
N311 N 0.97132 0.81632 0.08088 0.0
C312 C 0.94243 0.82564 0.09053 0.0
C313 C 0.96843 0.86387 0.07568 0.0
C314 C 0.98786 0.84038 0.0716 0.0
C315 C 0.91886 0.9128 0.13562 0.0
O316 O 0.94284 0.91608 0.11604 0.0
H317 H 0.92246 0.81166 0.09776 0.0
H318 H 0.974 0.88598 0.06897 0.0
O319 O 0.86873 0.84382 0.08457 0.0
H320 H 0.88267 0.92775 0.99533 0.0
H321 H 0.01191 0.84097 0.06181 0.0
Cu322 Cu 0.13234 0.61375 0.67487 0.0
N323 N 0.16383 0.59275 0.6958 0.0
N324 N 0.20083 0.55873 0.70394 0.0
C325 C 0.18003 0.57039 0.68415 0.0
C326 C 0.19748 0.57462 0.72907 0.0
C327 C 0.17479 0.59548 0.724 0.0
O328 O 0.15084 0.61918 0.63424 0.0
C329 C 0.08373 0.57759 0.70123 0.0
O330 O 0.10724 0.5652 0.71558 0.0
H331 H 0.17607 0.56259 0.66163 0.0
H332 H 0.16665 0.61128 0.73988 0.0
N333 N 0.12237 0.65045 0.69013 0.0
N334 N 0.09348 0.69045 0.6977 0.0
C335 C 0.09559 0.66513 0.68302 0.0
C336 C 0.13778 0.66699 0.71012 0.0
C337 C 0.12018 0.69156 0.71475 0.0
C338 C 0.17655 0.63477 0.63374 0.0
O339 O 0.18585 0.6464 0.65905 0.0
H340 H 0.07811 0.65734 0.66713 0.0
H341 H 0.16016 0.66159 0.72071 0.0
O342 O 0.09056 0.59387 0.67838 0.0
H343 H 0.21059 0.57165 0.74974 0.0
H344 H 0.1265 0.70868 0.72994 0.0
Cu345 Cu 0.68852 0.86434 0.92214 0.0
N346 N 0.70276 0.8767 0.88379 0.0
N347 N 0.71038 0.91312 0.8503 0.0
C348 C 0.69027 0.90041 0.87106 0.0
C349 C 0.73636 0.89616 0.84935 0.0
C350 C 0.73179 0.87393 0.87031 0.0
O351 O 0.69154 0.90065 0.94369 0.0
C352 C 0.64384 0.82268 0.90557 0.0
O353 O 0.66979 0.81404 0.89137 0.0
H354 H 0.66824 0.90973 0.87932 0.0
H355 H 0.74995 0.85914 0.87759 0.0
N356 N 0.7144 0.83633 0.93987 0.0
N357 N 0.72564 0.80176 0.97362 0.0
C358 C 0.71161 0.82737 0.96893 0.0
C359 C 0.73107 0.81576 0.92582 0.0
C360 C 0.73768 0.79428 0.94652 0.0
C361 C 0.71974 0.90911 0.95102 0.0
O362 O 0.74293 0.89032 0.95087 0.0
H363 H 0.69655 0.83777 0.98548 0.0
H364 H 0.73502 0.81477 0.9017 0.0
O365 O 0.64542 0.84633 0.91987 0.0
H366 H 0.75848 0.90113 0.83687 0.0
H367 H 0.74802 0.77366 0.94156 0.0
Cu368 Cu 0.88159 0.11793 0.35576 0.0
N369 N 0.87092 0.15668 0.36057 0.0
N370 N 0.874 0.20054 0.38117 0.0
C371 C 0.88021 0.17215 0.38446 0.0
C372 C 0.85964 0.20276 0.35407 0.0
C373 C 0.8578 0.17574 0.34145 0.0
O374 O 0.92357 0.11626 0.37423 0.0
C375 C 0.82049 0.09526 0.36681 0.0
O376 O 0.81449 0.11429 0.34542 0.0
H377 H 0.8924 0.16262 0.4034 0.0
H378 H 0.84868 0.17062 0.31944 0.0
N379 N 0.88452 0.10699 0.31514 0.0
N380 N 0.89009 0.07917 0.27457 0.0
C381 C 0.88438 0.07978 0.30471 0.0
C382 C 0.89024 0.12415 0.29075 0.0
C383 C 0.89372 0.10711 0.26578 0.0
C384 C 0.94717 0.1273 0.35902 0.0
O385 O 0.94996 0.12061 0.33044 0.0
H386 H 0.88159 0.06079 0.31916 0.0
H387 H 0.89299 0.14736 0.29124 0.0
O388 O 0.84924 0.09325 0.37596 0.0
H389 H 0.8522 0.2226 0.34336 0.0
H390 H 0.89907 0.11472 0.24297 0.0
Cu391 Cu 0.64425 0.1335 0.6786 0.0
N392 N 0.66602 0.16272 0.65457 0.0
N393 N 0.66707 0.20204 0.62375 0.0
C394 C 0.65575 0.19 0.64996 0.0
C395 C 0.68578 0.18193 0.61143 0.0
C396 C 0.68459 0.1578 0.62993 0.0
O397 O 0.59828 0.145 0.67523 0.0
C398 C 0.68911 0.09061 0.66494 0.0
O399 O 0.7083 0.11292 0.66943 0.0
H400 H 0.63792 0.2001 0.66381 0.0
H401 H 0.693 0.13699 0.62324 0.0
N402 N 0.65277 0.13113 0.72082 0.0
N403 N 0.66951 0.10602 0.76156 0.0
C404 C 0.67723 0.11672 0.73367 0.0
C405 C 0.62921 0.12985 0.74226 0.0
C406 C 0.63956 0.11511 0.76726 0.0
C407 C 0.59048 0.16733 0.69027 0.0
O408 O 0.61207 0.1793 0.70767 0.0
H409 H 0.69898 0.11121 0.7219 0.0
H410 H 0.60431 0.13483 0.73865 0.0
O411 O 0.65857 0.09469 0.66479 0.0
H412 H 0.69628 0.18318 0.58889 0.0
H413 H 0.62434 0.10786 0.78611 0.0
Cu414 Cu 0.15075 0.42264 0.87022 0.0
N415 N 0.11503 0.43812 0.85083 0.0
N416 N 0.07425 0.43847 0.81813 0.0
C417 C 0.10146 0.42544 0.82691 0.0
C418 C 0.0708 0.46051 0.83744 0.0
C419 C 0.09588 0.46017 0.85761 0.0
O420 O 0.14053 0.38131 0.87079 0.0
C421 C 0.19357 0.45894 0.8365 0.0
O422 O 0.16715 0.47257 0.82997 0.0
H423 H 0.11148 0.40668 0.81648 0.0
H424 H 0.09947 0.47461 0.87619 0.0
N425 N 0.15788 0.43539 0.90948 0.0
N426 N 0.18812 0.44522 0.9496 0.0
C427 C 0.18693 0.43309 0.92218 0.0
C428 C 0.1397 0.44947 0.9296 0.0
C429 C 0.15828 0.4554 0.95452 0.0
C430 C 0.12005 0.37229 0.89077 0.0
O431 O 0.1115 0.3898 0.91228 0.0
H432 H 0.20689 0.42261 0.91127 0.0
H433 H 0.11493 0.45529 0.92634 0.0
O434 O 0.19127 0.43447 0.85 0.0
H435 H 0.05118 0.47545 0.83762 0.0
H436 H 0.15058 0.46686 0.97434 0.0
Cu437 Cu 0.34434 0.65978 0.39653 0.0
N438 N 0.30294 0.6518 0.38246 0.0
N439 N 0.25498 0.62897 0.38204 0.0
C440 C 0.28359 0.63147 0.39569 0.0
C441 C 0.25632 0.64847 0.35905 0.0
C442 C 0.28592 0.66274 0.3595 0.0
O443 O 0.3394 0.65003 0.43951 0.0
C444 C 0.37503 0.63995 0.34538 0.0
O445 O 0.35292 0.65616 0.33343 0.0
H446 H 0.29077 0.61821 0.41464 0.0
H447 H 0.29443 0.67963 0.34402 0.0
N448 N 0.35745 0.69851 0.39137 0.0
N449 N 0.38998 0.73768 0.39136 0.0
C450 C 0.38698 0.70912 0.39769 0.0
C451 C 0.34108 0.7211 0.38066 0.0
C452 C 0.36109 0.74527 0.38058 0.0
C453 C 0.32617 0.66876 0.4561 0.0
O454 O 0.32198 0.69478 0.44491 0.0
H455 H 0.40604 0.6959 0.40628 0.0
H456 H 0.31633 0.72015 0.37357 0.0
O457 O 0.37576 0.63725 0.37406 0.0
H458 H 0.2373 0.65222 0.34317 0.0
H459 H 0.35469 0.7668 0.37345 0.0
Cu460 Cu 0.844 0.62928 0.86243 0.0
N461 N 0.82764 0.62136 0.82431 0.0
N462 N 0.82985 0.60599 0.77673 0.0
C463 C 0.84383 0.60582 0.80393 0.0
C464 C 0.80319 0.62183 0.78023 0.0
C465 C 0.80198 0.63145 0.80966 0.0
O466 O 0.88969 0.62133 0.85688 0.0
C467 C 0.83234 0.60099 0.91936 0.0
O468 O 0.86248 0.60806 0.92467 0.0
H469 H 0.86597 0.59498 0.80886 0.0
H470 H 0.7844 0.64566 0.81927 0.0
N471 N 0.83783 0.66777 0.87294 0.0
N472 N 0.83125 0.70646 0.90185 0.0
C473 C 0.83808 0.67809 0.90118 0.0
C474 C 0.83049 0.6903 0.85502 0.0
C475 C 0.82655 0.71417 0.87272 0.0
C476 C 0.90457 0.63823 0.83807 0.0
O477 O 0.89052 0.66213 0.82984 0.0
H478 H 0.84246 0.66478 0.92089 0.0
H479 H 0.82804 0.68941 0.8308 0.0
O480 O 0.82113 0.60601 0.89328 0.0
H481 H 0.78657 0.62711 0.76253 0.0
H482 H 0.82086 0.73555 0.86458 0.0
Cu483 Cu 0.63928 0.61642 0.16627 0.0
N484 N 0.65936 0.59044 0.14064 0.0
N485 N 0.68989 0.57497 0.10232 0.0
C486 C 0.67215 0.59674 0.11304 0.0
C487 C 0.688 0.55411 0.12397 0.0
C488 C 0.66913 0.5637 0.14754 0.0
O489 O 0.64684 0.6543 0.14793 0.0
C490 C 0.64435 0.62521 0.22891 0.0
O491 O 0.62534 0.64691 0.22351 0.0
H492 H 0.67015 0.61756 0.10188 0.0
H493 H 0.66419 0.55257 0.16884 0.0
N494 N 0.59471 0.60928 0.16926 0.0
N495 N 0.54571 0.60459 0.19117 0.0
C496 C 0.57779 0.60188 0.19462 0.0
C497 C 0.57259 0.61631 0.14879 0.0
C498 C 0.54241 0.61336 0.16215 0.0
C499 C 0.67426 0.66706 0.14648 0.0
O500 O 0.69823 0.6565 0.1618 0.0
H501 H 0.58888 0.59586 0.21559 0.0
H502 H 0.57814 0.62485 0.12638 0.0
O503 O 0.656 0.61164 0.20668 0.0
H504 H 0.70011 0.5337 0.12319 0.0
H505 H 0.52002 0.61926 0.15182 0.0
Cu506 Cu 0.59328 0.405 0.41723 0.0
N507 N 0.58616 0.4446 0.41616 0.0
N508 N 0.59297 0.48979 0.3982 0.0
C509 C 0.6013 0.46199 0.39562 0.0
C510 C 0.57143 0.48986 0.42141 0.0
C511 C 0.56736 0.46189 0.43257 0.0
O512 O 0.57809 0.391 0.37841 0.0
C513 C 0.64691 0.41117 0.4502 0.0
O514 O 0.62465 0.42353 0.4666 0.0
H515 H 0.61768 0.45406 0.37859 0.0
H516 H 0.55184 0.45481 0.4512 0.0
N517 N 0.57428 0.38421 0.45005 0.0
N518 N 0.57539 0.35339 0.48961 0.0
C519 C 0.58946 0.36206 0.4632 0.0
C520 C 0.54903 0.38947 0.46845 0.0
C521 C 0.54955 0.37032 0.49282 0.0
C522 C 0.54855 0.38344 0.37602 0.0
O523 O 0.53015 0.38199 0.40042 0.0
H524 H 0.61148 0.35342 0.4541 0.0
H525 H 0.53238 0.40679 0.46525 0.0
O526 O 0.63927 0.40157 0.4244 0.0
H527 H 0.55958 0.50871 0.42985 0.0
H528 H 0.53329 0.37007 0.51219 0.0
Cu529 Cu 0.91243 0.40999 0.58619 0.0
N530 N 0.93475 0.38954 0.55636 0.0
N531 N 0.94035 0.35844 0.51863 0.0
C532 C 0.92041 0.36898 0.53983 0.0
C533 C 0.96872 0.37261 0.52206 0.0
C534 C 0.9651 0.39204 0.54522 0.0
O535 O 0.86723 0.40535 0.57582 0.0
C536 C 0.95047 0.38822 0.63402 0.0
O537 O 0.96951 0.37975 0.61214 0.0
H538 H 0.89557 0.36195 0.54314 0.0
H539 H 0.9832 0.40708 0.55309 0.0
N540 N 0.9208 0.44962 0.58588 0.0
N541 N 0.91523 0.49323 0.6059 0.0
C542 C 0.90098 0.46751 0.60037 0.0
C543 C 0.9487 0.46454 0.58174 0.0
C544 C 0.9453 0.49155 0.59402 0.0
C545 C 0.8611 0.41478 0.54933 0.0
O546 O 0.88443 0.42764 0.53341 0.0
H547 H 0.8778 0.46051 0.60973 0.0
H548 H 0.97075 0.45563 0.57306 0.0
O549 O 0.92313 0.39841 0.62751 0.0
H550 H 0.99013 0.36974 0.50827 0.0
H551 H 0.96415 0.50786 0.59586 0.0
H552 H 0.13688 0.3409 0.49937 0.0
H553 H 0.09919 0.1707 0.499 0.0
H554 H 0.10705 0.29652 0.41954 0.0
H555 H 0.12748 0.21854 0.57725 0.0
H556 H 0.10503 0.21512 0.46835 0.0
H557 H 0.13867 0.29482 0.52643 0.0
C558 C 0.13124 0.32135 0.48735 0.0
C559 C 0.12171 0.32266 0.45714 0.0
C560 C 0.11011 0.21578 0.49221 0.0
C561 C 0.1229 0.26948 0.48838 0.0
C562 C 0.10654 0.19043 0.50984 0.0
C563 C 0.11286 0.19062 0.54095 0.0
C564 C 0.12004 0.2416 0.50572 0.0
C565 C 0.12273 0.21696 0.55343 0.0
C566 C 0.13205 0.29498 0.5029 0.0
C567 C 0.11467 0.29655 0.44277 0.0
N568 N 0.12592 0.24121 0.53587 0.0
N569 N 0.11499 0.27104 0.45863 0.0
H570 H 0.98415 0.97947 0.73954 0.0
H571 H 0.0456 0.88429 0.87895 0.0
H572 H 0.96225 0.88865 0.75357 0.0
H573 H 0.08383 0.96951 0.85684 0.0
H574 H 1.00757 0.88905 0.83793 0.0
H575 H 0.01489 0.97895 0.78611 0.0
C576 C 0.98564 0.95943 0.75223 0.0
C577 C 0.97032 0.93407 0.74223 0.0
C578 C 0.02401 0.90687 0.84226 0.0
C579 C 1.00519 0.93355 0.79609 0.0
C580 C 0.04559 0.90428 0.86593 0.0
C581 C 0.06825 0.92642 0.87128 0.0
C582 C 0.02494 0.93181 0.82374 0.0
C583 C 0.06696 0.95179 0.85349 0.0
C584 C 1.0031 0.95923 0.779 0.0
C585 C 0.97301 0.90891 0.76019 0.0
N586 N 0.04596 0.95367 0.83032 0.0
N587 N 0.99005 0.90933 0.78607 0.0
H588 H 0.33272 0.85102 0.04286 0.0
H589 H 0.35616 0.69652 0.96883 0.0
H590 H 0.34976 0.77333 0.09458 0.0
H591 H 0.33327 0.77299 0.91745 0.0
H592 H 0.352 0.72395 0.01519 0.0
H593 H 0.3309 0.82263 0.99699 0.0
C594 C 0.3361 0.82799 0.04461 0.0
C595 C 0.3417 0.81463 0.07271 0.0
C596 C 0.34772 0.73474 0.99381 0.0
C597 C 0.33946 0.78185 0.02006 0.0
C598 C 0.35025 0.71909 0.96726 0.0
C599 C 0.34532 0.73247 0.93906 0.0
C600 C 0.34035 0.76413 0.99233 0.0
C601 C 0.3371 0.7617 0.9386 0.0
C602 C 0.33488 0.81174 0.01837 0.0
C603 C 0.34523 0.78457 0.07354 0.0
N604 N 0.33512 0.77657 0.96477 0.0
N605 N 0.3443 0.76927 0.04763 0.0
H606 H 0.46602 0.22459 0.25257 0.0
H607 H 0.59557 0.11856 0.18135 0.0
H608 H 0.48107 0.13803 0.28584 0.0
H609 H 0.58874 0.20819 0.15485 0.0
H610 H 0.55382 0.12543 0.21995 0.0
H611 H 0.51029 0.21893 0.21608 0.0
C612 C 0.47851 0.20437 0.25215 0.0
C613 C 0.46978 0.1818 0.27242 0.0
C614 C 0.5616 0.14366 0.20583 0.0
C615 C 0.52071 0.17521 0.23082 0.0
C616 C 0.58553 0.13976 0.18381 0.0
C617 C 0.59572 0.16281 0.16475 0.0
C618 C 0.54748 0.17076 0.20873 0.0
C619 C 0.58173 0.18979 0.16903 0.0
C620 C 0.50396 0.20122 0.23145 0.0
C621 C 0.48716 0.15618 0.27102 0.0
N622 N 0.5582 0.19296 0.19039 0.0
N623 N 0.51165 0.15358 0.25057 0.0
H624 H 0.07987 0.76907 0.98326 0.0
H625 H 0.19896 0.67368 0.07479 0.0
H626 H 0.18068 0.79227 0.98754 0.0
H627 H 0.09889 0.67847 0.101 0.0
H628 H 0.19361 0.71726 0.04346 0.0
H629 H 0.08642 0.73495 0.02549 0.0
C630 C 0.10336 0.76706 0.99316 0.0
C631 C 0.12986 0.78338 0.98165 0.0
C632 C 0.17299 0.70923 0.0566 0.0
C633 C 0.13741 0.74446 0.03021 0.0
C634 C 0.17609 0.68446 0.07467 0.0
C635 C 0.14939 0.67248 0.09063 0.0
C636 C 0.14268 0.72166 0.05366 0.0
C637 C 0.12017 0.68709 0.08929 0.0
C638 C 0.10698 0.74784 0.0175 0.0
C639 C 0.15964 0.78017 0.99572 0.0
N640 N 0.11739 0.71051 0.07052 0.0
N641 N 0.16273 0.76079 0.01895 0.0
H642 H 0.57815 0.85123 0.2689 0.0
H643 H 0.49305 0.95736 0.15443 0.0
H644 H 0.62532 0.92889 0.23418 0.0
H645 H 0.46279 0.86847 0.16897 0.0
H646 H 0.54209 0.94778 0.18257 0.0
H647 H 0.53571 0.85734 0.23192 0.0
C648 C 0.57965 0.86943 0.25325 0.0
C649 C 0.60516 0.8896 0.2546 0.0
C650 C 0.52487 0.93032 0.17922 0.0
C651 C 0.55656 0.89703 0.21243 0.0
C652 C 0.49687 0.93577 0.16316 0.0
C653 C 0.47357 0.91377 0.15955 0.0
C654 C 0.52936 0.9028 0.19205 0.0
C655 C 0.4799 0.88618 0.17133 0.0
C656 C 0.55553 0.87289 0.23208 0.0
C657 C 0.60616 0.91275 0.2337 0.0
N658 N 0.50693 0.88161 0.18734 0.0
N659 N 0.58194 0.91607 0.21372 0.0
H660 H 0.40597 0.29379 0.56348 0.0
H661 H 0.48026 0.25163 0.40341 0.0
H662 H 0.46807 0.35082 0.50944 0.0
H663 H 0.42415 0.19247 0.46044 0.0
H664 H 0.48053 0.28645 0.44407 0.0
H665 H 0.41587 0.25534 0.52799 0.0
C666 C 0.42191 0.29828 0.54433 0.0
C667 C 0.43603 0.32585 0.53952 0.0
C668 C 0.46857 0.26571 0.44792 0.0
C669 C 0.44727 0.28161 0.49838 0.0
C670 C 0.46855 0.2457 0.42473 0.0
C671 C 0.45203 0.21909 0.42841 0.0
C672 C 0.45161 0.25927 0.47498 0.0
C673 C 0.4373 0.21264 0.45658 0.0
C674 C 0.42749 0.27621 0.52397 0.0
C675 C 0.45615 0.3302 0.51392 0.0
N676 N 0.43705 0.23275 0.4786 0.0
N677 N 0.46102 0.30839 0.49431 0.0
H678 H 0.10098 0.14141 0.72545 0.0
H679 H 0.93998 0.07414 0.80399 0.0
H680 H 0.02997 0.08814 0.68164 0.0
H681 H 1.0002 0.1366 0.84843 0.0
H682 H 0.97831 0.07413 0.76183 0.0
H683 H 0.06888 0.13668 0.77272 0.0
C684 C 0.0787 0.12883 0.7257 0.0
C685 C 0.06812 0.11533 0.69939 0.0
C686 C 0.98348 0.08767 0.78087 0.0
C687 C 0.03171 0.10943 0.75334 0.0
C688 C 0.96165 0.08748 0.80511 0.0
C689 C 0.96681 0.10543 0.82974 0.0
C690 C 1.01068 0.10624 0.78088 0.0
C691 C 0.99538 0.12227 0.82995 0.0
C692 C 0.06049 0.12605 0.75268 0.0
C693 C 0.03916 0.09913 0.70114 0.0
N694 N 0.01608 0.12257 0.80566 0.0
N695 N 0.02215 0.09666 0.72749 0.0
H696 H 0.24537 0.5118 0.08976 0.0
H697 H 0.27359 0.36605 0.08531 0.0
H698 H 0.14945 0.48381 0.11754 0.0
H699 H 0.26091 0.38571 0.17949 0.0
H700 H 0.23661 0.40468 0.0725 0.0
H701 H 0.26375 0.46291 0.09881 0.0
C702 C 0.228 0.49521 0.09691 0.0
C703 C 0.19583 0.50196 0.10281 0.0
C704 C 0.24114 0.39974 0.09599 0.0
C705 C 0.21658 0.44565 0.11142 0.0
C706 C 0.26213 0.37773 0.10335 0.0
C707 C 0.27101 0.37303 0.13345 0.0
C708 C 0.22883 0.41697 0.1189 0.0
C709 C 0.25509 0.38863 0.15597 0.0
C710 C 0.23848 0.46731 0.10166 0.0
C711 C 0.17435 0.47946 0.11218 0.0
N712 N 0.23542 0.4105 0.14817 0.0
N713 N 0.1852 0.45218 0.11656 0.0
H714 H 0.8393 0.06299 0.94532 0.0
H715 H 0.68832 0.95487 0.92528 0.0
H716 H 0.77177 0.07254 0.87304 0.0
H717 H 0.77315 0.93403 0.97504 0.0
H718 H 0.71178 1.00315 0.91402 0.0
H719 H 0.80879 0.02073 0.96389 0.0
C720 C 0.81819 0.05623 0.93315 0.0
C721 C 0.80865 0.07127 0.90705 0.0
C722 C 0.72498 0.98812 0.92781 0.0
C723 C 0.77297 0.02275 0.92886 0.0
C724 C 0.71151 0.96067 0.93442 0.0
C725 C 0.72899 0.94024 0.95077 0.0
C726 C 0.75588 0.99533 0.93817 0.0
C727 C 0.75891 0.94897 0.96215 0.0
C728 C 0.80059 0.03211 0.94399 0.0
C729 C 0.78022 0.06174 0.89313 0.0
N730 N 0.77145 0.97568 0.95548 0.0
N731 N 0.76353 0.03801 0.90406 0.0
H732 H 0.82353 0.05204 0.41014 0.0
H733 H 0.65518 0.98218 0.36536 0.0
H734 H 0.75816 0.09238 0.3485 0.0
H735 H 0.70818 0.95216 0.4422 0.0
H736 H 0.69138 0.02427 0.361 0.0
H737 H 0.78104 0.0165 0.42419 0.0
C738 C 0.8002 0.0536 0.39977 0.0
C739 C 0.79454 0.07507 0.37786 0.0
C740 C 0.69485 1.00876 0.37915 0.0
C741 C 0.74593 0.03445 0.39372 0.0
C742 C 0.6741 0.98476 0.38168 0.0
C743 C 0.67871 0.96363 0.40412 0.0
C744 C 0.72086 1.01143 0.39883 0.0
C745 C 0.70365 0.96803 0.42466 0.0
C746 C 0.77593 0.03335 0.40785 0.0
C747 C 0.76378 0.07611 0.36529 0.0
N748 N 0.72415 0.99121 0.42121 0.0
N749 N 0.74082 0.05595 0.37316 0.0
H750 H 0.70007 0.03803 0.01885 0.0
H751 H 0.86743 0.9841 0.08024 0.0
H752 H 0.72048 0.02413 0.11289 0.0
H753 H 0.82865 0.94775 0.99934 0.0
H754 H 0.81944 1.01323 0.08548 0.0
H755 H 0.75217 0.01641 1.00539 0.0
C756 C 0.71544 0.03014 0.03652 0.0
C757 C 0.70595 0.03221 0.06694 0.0
C758 C 0.82173 0.99922 0.0663 0.0
C759 C 0.76537 1.00903 0.052 0.0
C760 C 0.84909 0.98274 0.06322 0.0
C761 C 0.85164 0.96303 0.03974 0.0
C762 C 0.79685 0.99621 0.04559 0.0
C763 C 0.82752 0.96254 0.0179 0.0
C764 C 0.745 0.01804 0.0289 0.0
C765 C 0.72669 0.02226 0.0892 0.0
N766 N 0.80074 0.97861 0.02159 0.0
N767 N 0.75554 1.01132 0.0813 0.0
H768 H 0.22065 0.53546 0.65047 0.0
H769 H 0.33111 0.41739 0.73048 0.0
H770 H 0.22955 0.52557 0.74693 0.0
H771 H 0.32294 0.42577 0.63384 0.0
H772 H 0.29199 0.45545 0.7366 0.0
H773 H 0.25606 0.49453 0.64371 0.0
C774 C 0.22976 0.52471 0.67031 0.0
C775 C 0.2218 0.53434 0.69942 0.0
C776 C 0.2985 0.44889 0.71401 0.0
C777 C 0.26294 0.48712 0.69166 0.0
C778 C 0.32085 0.42697 0.71047 0.0
C779 C 0.33051 0.41814 0.68156 0.0
C780 C 0.28553 0.46246 0.68848 0.0
C781 C 0.31623 0.43164 0.65658 0.0
C782 C 0.25019 0.50129 0.66637 0.0
C783 C 0.23503 0.51942 0.72407 0.0
N784 N 0.29469 0.45316 0.66061 0.0
N785 N 0.25481 0.49674 0.71963 0.0
H786 H 0.12383 0.48448 0.37513 0.0
H787 H 0.23857 0.60831 0.43794 0.0
H788 H 0.13012 0.50224 0.46997 0.0
H789 H 0.21336 0.60261 0.34425 0.0
H790 H 0.19888 0.57002 0.45046 0.0
H791 H 0.1563 0.5279 0.36352 0.0
C792 C 0.1321 0.49761 0.39353 0.0
C793 C 0.1247 0.48961 0.4236 0.0
C794 C 0.20178 0.57731 0.4272 0.0
C795 C 0.16193 0.53945 0.41049 0.0
C796 C 0.22456 0.59905 0.42001 0.0
C797 C 0.22948 0.60846 0.38994 0.0
C798 C 0.18401 0.56457 0.40411 0.0
C799 C 0.21028 0.59607 0.36769 0.0
C800 C 0.15046 0.5225 0.38689 0.0
C801 C 0.1354 0.5077 0.44654 0.0
N802 N 0.18867 0.57454 0.37517 0.0
N803 N 0.15385 0.53162 0.43954 0.0
H804 H 0.34958 0.56883 0.89727 0.0
H805 H 0.21214 0.50009 0.79518 0.0
H806 H 0.32339 0.60053 0.80915 0.0
H807 H 0.24433 0.45674 0.87562 0.0
H808 H 0.25694 0.53457 0.79868 0.0
H809 H 0.3153 0.52539 0.88935 0.0
C810 C 0.33707 0.56649 0.87619 0.0
C811 C 0.33888 0.58859 0.8541 0.0
C812 C 0.25469 0.5173 0.81541 0.0
C813 C 0.2999 0.5393 0.84485 0.0
C814 C 0.22915 0.49748 0.81324 0.0
C815 C 0.22455 0.47546 0.83501 0.0
C816 C 0.2756 0.51567 0.84001 0.0
C817 C 0.24719 0.47326 0.85817 0.0
C818 C 0.31748 0.54178 0.87168 0.0
C819 C 0.32222 0.58442 0.82715 0.0
N820 N 0.27144 0.49344 0.8604 0.0
N821 N 0.3034 0.56057 0.82346 0.0
H822 H 0.73657 0.81439 0.03198 0.0
H823 H 0.64044 0.67668 0.0953 0.0
H824 H 0.7026 0.74707 0.97416 0.0
H825 H 0.72281 0.70845 0.14368 0.0
H826 H 0.65432 0.71022 0.05371 0.0
H827 H 0.72445 0.78264 0.07635 0.0
C828 C 0.7267 0.79288 0.02876 0.0
C829 C 0.72069 0.7831 0.9996 0.0
C830 C 0.66918 0.70998 0.07356 0.0
C831 C 0.70596 0.74742 0.04964 0.0
C832 C 0.66115 0.69106 0.09743 0.0
C833 C 0.68051 0.68977 0.12305 0.0
C834 C 0.69637 0.72825 0.07547 0.0
C835 C 0.70729 0.70873 0.12431 0.0
C836 C 0.71988 0.77488 0.05389 0.0
C837 C 0.70785 0.75518 0.99632 0.0
N838 N 0.7144 0.72737 0.10086 0.0
N839 N 0.7005 0.73844 0.02105 0.0
H840 H 0.56575 0.40919 0.32137 0.0
H841 H 0.42809 0.32923 0.22947 0.0
H842 H 0.49614 0.35002 0.36309 0.0
H843 H 0.46302 0.4142 0.20238 0.0
H844 H 0.45964 0.33229 0.27528 0.0
H845 H 0.5356 0.40673 0.274 0.0
C846 C 0.54449 0.39532 0.32042 0.0
C847 C 0.5335 0.37966 0.34617 0.0
C848 C 0.46037 0.35033 0.25941 0.0
C849 C 0.49905 0.37684 0.2923 0.0
C850 C 0.44237 0.34862 0.23321 0.0
C851 C 0.44278 0.37157 0.2121 0.0
C852 C 0.47962 0.37493 0.26446 0.0
C853 C 0.46177 0.39615 0.21821 0.0
C854 C 0.52714 0.3942 0.29354 0.0
C855 C 0.5055 0.36242 0.34381 0.0
N856 N 0.47972 0.3971 0.24374 0.0
N857 N 0.4894 0.36135 0.3174 0.0
H858 H 0.885 0.35472 0.48774 0.0
H859 H 0.91501 0.19798 0.42891 0.0
H860 H 0.9764 0.31414 0.49899 0.0
H861 H 0.85473 0.25665 0.37989 0.0
H862 H 0.9329 0.2376 0.46006 0.0
H863 H 0.86913 0.31677 0.45274 0.0
C864 C 0.90171 0.33779 0.48275 0.0
C865 C 0.93196 0.33738 0.49639 0.0
C866 C 0.91582 0.24174 0.44239 0.0
C867 C 0.91377 0.29373 0.45686 0.0
C868 C 0.90537 0.21902 0.42449 0.0
C869 C 0.88357 0.2237 0.401 0.0
C870 C 0.90378 0.26937 0.43757 0.0
C871 C 0.87196 0.25181 0.39714 0.0
C872 C 0.89272 0.31627 0.46272 0.0
C873 C 0.95291 0.31519 0.48892 0.0
N874 N 0.88204 0.27348 0.41531 0.0
N875 N 0.94323 0.29396 0.47001 0.0
H876 H 0.93667 0.66811 0.79306 0.0
H877 H 0.05975 0.54607 0.74993 0.0
H878 H 0.93462 0.58545 0.83952 0.0
H879 H 0.03729 0.61767 0.69097 0.0
H880 H 0.01525 0.55921 0.78363 0.0
H881 H 0.9764 0.65029 0.75758 0.0
C882 C 0.94482 0.64624 0.79609 0.0
C883 C 0.9322 0.6283 0.8195 0.0
C884 C 0.01979 0.57175 0.76308 0.0
C885 C 0.97789 0.60756 0.77834 0.0
C886 C 0.04509 0.56419 0.74371 0.0
C887 C 0.05255 0.58092 0.71762 0.0
C888 C 1.00211 0.59646 0.75656 0.0
C889 C 0.03263 0.60414 0.71079 0.0
C890 C 0.96736 0.63598 0.77552 0.0
C891 C 0.94381 0.60013 0.822 0.0
N892 N 1.00872 0.61145 0.73035 0.0
N893 N 0.96607 0.59062 0.80168 0.0
H894 H 0.54235 0.32168 0.53295 0.0
H895 H 0.69935 0.23655 0.58311 0.0
H896 H 0.63795 0.33888 0.49638 0.0
H897 H 0.60676 0.22413 0.62748 0.0
H898 H 0.67702 0.27505 0.55201 0.0
H899 H 0.56499 0.28674 0.56865 0.0
C900 C 0.56804 0.31821 0.53245 0.0
C901 C 0.58812 0.33302 0.51123 0.0
C902 C 0.66159 0.26412 0.56873 0.0
C903 C 0.61421 0.29302 0.55197 0.0
C904 C 0.67439 0.24212 0.58649 0.0
C905 C 0.65501 0.22705 0.60798 0.0
C906 C 0.62896 0.27105 0.57215 0.0
C907 C 0.62278 0.23532 0.61149 0.0
C908 C 0.58095 0.29822 0.55279 0.0
C909 C 0.62128 0.32754 0.51164 0.0
N910 N 0.61071 0.25656 0.5936 0.0
N911 N 0.63316 0.30801 0.53151 0.0
H912 H 0.02632 0.46955 0.79213 0.0
H913 H 0.99961 0.35861 0.65931 0.0
H914 H 0.07322 0.38745 0.788 0.0
H915 H 0.93284 0.42615 0.67808 0.0
H916 H 0.02726 0.36937 0.70616 0.0
H917 H 0.99248 0.455 0.75021 0.0
C918 C 0.02955 0.44846 0.78271 0.0
C919 C 0.05322 0.42996 0.7938 0.0
C920 C 1.00631 0.38162 0.70029 0.0
C921 C 0.01446 0.41328 0.74525 0.0
C922 C 0.99044 0.37542 0.67354 0.0
C923 C 0.96377 0.39141 0.66474 0.0
C924 C 0.99594 0.40442 0.71824 0.0
C925 C 0.9531 0.41307 0.68408 0.0
C926 C 1.01012 0.44017 0.75866 0.0
C927 C 0.05605 0.40291 0.78016 0.0
N928 N 0.96947 0.4192 0.70969 0.0
N929 N 0.03717 0.39556 0.7566 0.0
H930 H 0.8561 0.69648 0.95768 0.0
H931 H 0.80243 0.84908 0.02057 0.0
H932 H 0.80169 0.7582 0.90662 0.0
H933 H 0.86439 0.79121 0.06859 0.0
H934 H 0.79521 0.81277 0.98197 0.0
H935 H 0.85331 0.72787 1.00114 0.0
C936 C 0.84333 0.71644 0.95552 0.0
C937 C 0.82924 0.72457 0.92809 0.0
C938 C 0.80998 0.80782 1.00118 0.0
C939 C 0.82627 0.76095 0.97808 0.0
C940 C 0.814 0.82853 0.02339 0.0
C941 C 0.83443 0.82343 0.04776 0.0
C942 C 0.82639 0.78172 1.00331 0.0
C943 C 0.84863 0.79626 0.05012 0.0
C944 C 0.84187 0.73447 0.98044 0.0
C945 C 0.81342 0.75106 0.92691 0.0
N946 N 0.84464 0.77659 0.02801 0.0
N947 N 0.81254 0.76828 0.95142 0.0
H948 H 0.43707 0.62391 0.35842 0.0
H949 H 0.48113 0.59742 0.18408 0.0
H950 H 0.36944 0.6285 0.28584 0.0
H951 H 0.55303 0.6091 0.25222 0.0
H952 H 0.43923 0.6007 0.22302 0.0
H953 H 0.47905 0.61023 0.32179 0.0
C954 C 0.43091 0.62154 0.33494 0.0
C955 C 0.39977 0.62756 0.32514 0.0
C956 C 0.4642 0.60236 0.2295 0.0
C957 C 0.44751 0.61207 0.28321 0.0
C958 C 0.48821 0.60058 0.20718 0.0
C959 C 0.52085 0.60336 0.21457 0.0
C960 C 0.47268 0.60694 0.25963 0.0
C961 C 0.52835 0.60676 0.24522 0.0
C962 C 0.4549 0.61393 0.31401 0.0
C963 C 0.39318 0.62435 0.29439 0.0
N964 N 0.50448 0.60869 0.26653 0.0
N965 N 0.41679 0.61698 0.2746 0.0
H966 H 0.81764 0.95042 0.70457 0.0
H967 H 0.67021 0.03922 0.6369 0.0
H968 H 0.78877 0.93907 0.61262 0.0
H969 H 0.74318 0.07568 0.69378 0.0
H970 H 0.70049 0.99365 0.63635 0.0
H971 H 0.77592 0.98697 0.71039 0.0
C972 C 0.80171 0.95475 0.68602 0.0
C973 C 0.80655 0.94149 0.65816 0.0
C974 C 0.70941 1.01165 0.64926 0.0
C975 C 0.75893 0.98344 0.66453 0.0
C976 C 0.69213 0.03758 0.64962 0.0
C977 C 0.70409 0.06148 0.66533 0.0
C978 C 0.73814 1.00938 0.66558 0.0
C979 C 0.73294 0.05805 0.68116 0.0
C980 C 0.77816 0.97585 0.6892 0.0
C981 C 0.78569 0.94864 0.63455 0.0
N982 N 0.74866 0.03267 0.68108 0.0
N983 N 0.76294 0.96916 0.63818 0.0
H984 H 0.11919 0.49083 0.17516 0.0
H985 H 0.05333 0.47665 0.34441 0.0
H986 H 0.09001 0.56447 0.22613 0.0
H987 H 0.10666 0.4095 0.30136 0.0
H988 H 0.06502 0.50853 0.30114 0.0
H989 H 0.11367 0.46068 0.22057 0.0
C990 C 0.11163 0.50074 0.196 0.0
C991 C 0.10472 0.53027 0.19673 0.0
C992 C 0.07426 0.48689 0.30112 0.0
C993 C 0.09815 0.49548 0.2491 0.0
C994 C 0.06741 0.46847 0.32576 0.0
C995 C 0.07869 0.44009 0.32644 0.0
C996 C 0.09225 0.4769 0.27655 0.0
C997 C 0.09728 0.43108 0.30176 0.0
C998 C 0.10864 0.48343 0.22199 0.0
C999 C 0.09552 0.54185 0.22451 0.0
N1000 N 0.10321 0.44933 0.2777 0.0
N1001 N 0.09213 0.52434 0.24954 0.0
H1002 H 0.87793 0.91788 0.51523 0.0
H1003 H 0.7385 0.81347 0.45371 0.0
H1004 H 0.84259 0.84112 0.56244 0.0
H1005 H 0.76519 0.89546 0.41184 0.0
H1006 H 0.7811 0.82044 0.49025 0.0
H1007 H 0.84138 0.90726 0.47395 0.0
C1008 C 0.86279 0.89861 0.51678 0.0
C1009 C 0.8632 0.88047 0.54249 0.0
C1010 C 0.77777 0.83685 0.47296 0.0
C1011 C 0.82106 0.86828 0.49537 0.0
C1012 C 0.75355 0.83277 0.45188 0.0
C1013 C 0.74801 0.85398 0.42966 0.0
C1014 C 0.79677 0.86229 0.47188 0.0
C1015 C 0.76818 0.87873 0.42881 0.0
C1016 C 0.84175 0.89265 0.49328 0.0
C1017 C 0.84273 0.85595 0.54332 0.0
N1018 N 0.79153 0.88225 0.44966 0.0
N1019 N 0.82248 0.85064 0.52021 0.0
H1020 H 0.38927 0.61609 0.72932 0.0
H1021 H 0.49379 0.47313 0.71708 0.0
H1022 H 0.46705 0.59567 0.78863 0.0
H1023 H 0.40983 0.48877 0.66374 0.0
H1024 H 0.48796 0.52047 0.7396 0.0
H1025 H 0.40012 0.57229 0.70108 0.0
C1026 C 0.40893 0.60265 0.73613 0.0
C1027 C 0.42714 0.6095 0.76153 0.0
C1028 C 0.47088 0.5136 0.72286 0.0
C1029 C 0.43952 0.55912 0.7295 0.0
C1030 C 0.47433 0.48658 0.70982 0.0
C1031 C 0.45217 0.47671 0.68856 0.0
C1032 C 0.44513 0.53108 0.71457 0.0
C1033 C 0.4272 0.49515 0.68038 0.0
C1034 C 0.41497 0.5775 0.72015 0.0
C1035 C 0.45211 0.59103 0.76949 0.0
N1036 N 0.42432 0.52133 0.69343 0.0
N1037 N 0.45746 0.56671 0.75366 0.0
H1038 H 0.88196 0.11591 0.98594 0.0
H1039 H 0.72987 0.18282 0.06542 0.0
H1040 H 0.8605 0.20642 0.9807 0.0
H1041 H 0.76636 0.10022 0.09292 0.0
H1042 H 0.77965 0.19252 0.03645 0.0
H1043 H 0.84287 0.11006 0.0279 0.0
C1044 C 0.86979 0.1347 0.99418 0.0
C1045 C 0.87426 0.16164 0.97958 0.0
C1046 C 0.77704 0.17244 0.0492 0.0
C1047 C 0.82902 0.15499 0.02696 0.0
C1048 C 0.74856 0.16691 0.06571 0.0
C1049 C 0.7439 0.14068 0.08155 0.0
C1050 C 0.80082 0.15134 0.04794 0.0
C1051 C 0.76898 0.12081 0.08113 0.0
C1052 C 0.84728 0.13132 0.01799 0.0
C1053 C 0.85753 0.18517 0.99102 0.0
N1054 N 0.79614 0.12634 0.06418 0.0
N1055 N 0.83532 0.18121 0.01363 0.0
H1056 H 0.32462 0.12205 0.45944 0.0
H1057 H 0.20625 0.17404 0.59015 0.0
H1058 H 0.28983 0.209 0.46271 0.0
H1059 H 0.25738 0.09404 0.59344 0.0
H1060 H 0.23716 0.18827 0.54454 0.0
H1061 H 0.2997 0.11192 0.50859 0.0
C1062 C 0.31196 0.13916 0.47047 0.0
C1063 C 0.30968 0.16655 0.45669 0.0
C1064 C 0.24191 0.16779 0.55551 0.0
C1065 C 0.28043 0.15481 0.51338 0.0
C1066 C 0.22441 0.1597 0.58172 0.0
C1067 C 0.22898 0.13264 0.59564 0.0
C1068 C 0.26399 0.14863 0.543 0.0
C1069 C 0.25281 0.115 0.58348 0.0
C1070 C 0.29761 0.13329 0.49867 0.0
C1071 C 0.29212 0.1875 0.47213 0.0
N1072 N 0.26908 0.12315 0.55774 0.0
N1073 N 0.27813 0.18118 0.49957 0.0
H1074 H 0.18086 0.98587 0.65132 0.0
H1075 H 0.11696 0.92923 0.8138 0.0
H1076 H 0.11001 0.0291 0.7052 0.0
H1077 H 0.20654 0.90152 0.77439 0.0
H1078 H 0.10877 0.95996 0.76971 0.0
H1079 H 0.18549 0.94936 0.6919 0.0
C1080 C 0.16604 0.98747 0.67152 0.0
C1081 C 0.14516 1.01063 0.675 0.0
C1082 C 0.13015 0.94704 0.77056 0.0
C1083 C 0.15022 0.96904 0.72134 0.0
C1084 C 0.13474 0.92918 0.79572 0.0
C1085 C 0.16258 0.91264 0.798 0.0
C1086 C 0.15343 0.94843 0.74721 0.0
C1087 C 0.18491 0.91407 0.77378 0.0
C1088 C 0.16883 0.96678 0.69472 0.0
C1089 C 0.12669 1.01183 0.70176 0.0
N1090 N 0.1799 0.93169 0.74942 0.0
N1091 N 0.12963 0.99136 0.72383 0.0
H1092 H 0.34969 0.91397 0.0511 0.0
H1093 H 0.20256 0.97321 0.95882 0.0
H1094 H 0.28992 0.97901 0.09016 0.0
H1095 H 0.22028 0.88234 0.96935 0.0
H1096 H 0.24434 0.98332 0.99638 0.0
H1097 H 0.31294 0.91076 0.00875 0.0
C1098 C 0.32934 0.92812 0.05047 0.0
C1099 C 0.32262 0.94649 0.07451 0.0
C1100 C 0.23901 0.96125 0.99025 0.0
C1101 C 0.28087 0.94315 0.02583 0.0
C1102 C 0.2153 0.95547 0.96895 0.0
C1103 C 0.20783 0.9269 0.96129 0.0
C1104 C 0.256 0.93834 1.00295 0.0
C1105 C 0.22505 0.90465 0.97493 0.0
C1106 C 0.30831 0.92611 0.02636 0.0
C1107 C 0.29584 0.96437 0.07225 0.0
N1108 N 0.24855 0.91085 0.99489 0.0
N1109 N 0.27579 0.96219 0.04837 0.0
H1110 H 0.32284 0.07865 0.34483 0.0
H1111 H 0.40844 0.96983 0.23278 0.0
H1112 H 0.42585 0.07769 0.33164 0.0
H1113 H 0.30672 0.96792 0.25441 0.0
H1114 H 0.41634 1.00729 0.27038 0.0
H1115 H 0.31763 0.03558 0.31454 0.0
C1116 C 0.34447 0.06905 0.33591 0.0
C1117 C 0.37482 0.08182 0.34075 0.0
C1118 C 0.39235 0.99849 0.26701 0.0
C1119 C 0.369 0.0326 0.3052 0.0
C1120 C 0.38774 0.97721 0.24535 0.0
C1121 C 0.35677 0.96566 0.24012 0.0
C1122 C 0.3658 1.00847 0.28354 0.0
C1123 C 0.33104 0.97585 0.25763 0.0
C1124 C 0.34148 0.04446 0.31848 0.0
C1125 C 0.40202 0.06841 0.32864 0.0
N1126 N 0.33612 0.9967 0.2783 0.0
N1127 N 0.39844 0.04473 0.31105 0.0
H1128 H 0.52209 0.15908 0.07974 0.0
H1129 H 0.47966 0.3185 0.02974 0.0
H1130 H 0.56488 0.20418 1.00253 0.0
H1131 H 0.43431 0.27353 0.10563 0.0
H1132 H 0.5032 0.2734 0.01369 0.0
H1133 H 0.48224 0.19681 0.08389 0.0
C1134 C 0.52281 0.17671 0.06339 0.0
C1135 C 0.54731 0.17879 0.04117 0.0
C1136 C 0.48772 0.2732 0.03361 0.0
C1137 C 0.50181 0.22207 0.04576 0.0
C1138 C 0.47438 0.29895 0.04278 0.0
C1139 C 0.45555 0.29973 0.06929 0.0
C1140 C 0.4826 0.24807 0.05136 0.0
C1141 C 0.44882 0.27379 0.08511 0.0
C1142 C 0.49999 0.1982 0.06571 0.0
C1143 C 0.54661 0.20171 0.02011 0.0
N1144 N 0.46285 0.24905 0.07622 0.0
N1145 N 0.52459 0.22271 0.02326 0.0
H1146 H 0.97506 0.23908 0.92208 0.0
H1147 H 0.10638 0.34354 0.83845 0.0
H1148 H 0.98235 0.2486 0.82518 0.0
H1149 H 0.08841 0.34067 0.93461 0.0
H1150 H 0.06578 0.30471 0.8328 0.0
H1151 H 0.02047 0.27278 0.9267 0.0
C1152 C 0.98627 0.24817 0.90173 0.0
C1153 C 0.97473 0.24091 0.8732 0.0
C1154 C 0.07107 0.31235 0.85516 0.0
C1155 C 0.02704 0.27985 0.87832 0.0
C1156 C 0.0945 0.33426 0.85843 0.0
C1157 C 0.10082 0.34532 0.88708 0.0
C1158 C 0.05404 0.30136 0.88074 0.0
C1159 C 0.08427 0.33286 0.9121 0.0
C1160 C 0.01222 0.26753 0.90438 0.0
C1161 C 0.9901 0.25378 0.84765 0.0
N1162 N 0.06163 0.31172 0.90834 0.0
N1163 N 0.01546 0.27258 0.8508 0.0
H1164 H 0.98824 0.63326 0.10728 0.0
H1165 H 0.01601 0.79422 0.04232 0.0
H1166 H 0.06378 0.65707 0.0429 0.0
H1167 H 0.94811 0.77016 0.11371 0.0
H1168 H 0.03029 0.74357 0.03808 0.0
H1169 H 0.96853 0.68219 0.10426 0.0
C1170 C 1.0003 0.6485 0.09192 0.0
C1171 C 0.02797 0.6409 0.07548 0.0
C1172 C 0.01232 0.74942 0.05469 0.0
C1173 C 1.00586 0.69758 0.07258 0.0
C1174 C 1.00425 0.77841 0.05726 0.0
C1175 C 0.9808 0.78664 0.07848 0.0
C1176 C 0.99695 0.72845 0.07351 0.0
C1177 C 0.96603 0.76494 0.09681 0.0
C1178 C 0.98923 0.67668 0.09051 0.0
C1179 C 0.04265 0.66201 0.05628 0.0
N1180 N 0.97439 0.73696 0.09395 0.0
N1181 N 0.03166 0.68944 0.05561 0.0
H1182 H 0.43885 0.73007 0.43062 0.0
H1183 H 0.54296 0.865 0.36468 0.0
H1184 H 0.40602 0.78727 0.36031 0.0
H1185 H 0.57244 0.81201 0.43992 0.0
H1186 H 0.49194 0.83785 0.36391 0.0
H1187 H 0.48732 0.76035 0.43508 0.0
C1188 C 0.44182 0.74893 0.41604 0.0
C1189 C 0.41827 0.75596 0.39491 0.0
C1190 C 0.50945 0.83228 0.38075 0.0
C1191 C 0.47383 0.791 0.4001 0.0
C1192 C 0.53863 0.84784 0.38125 0.0
C1193 C 0.56218 0.84077 0.40236 0.0
C1194 C 0.50371 0.80929 0.40136 0.0
C1195 C 0.55507 0.81826 0.42323 0.0
C1196 C 0.46946 0.76636 0.41875 0.0
C1197 C 0.4233 0.78106 0.37706 0.0
N1198 N 0.52662 0.80322 0.42206 0.0
N1199 N 0.45056 0.79753 0.37993 0.0
H1200 H 0.0316 0.68346 0.67763 0.0
H1201 H 0.99395 0.85165 0.69364 0.0
H1202 H 0.09752 0.74724 0.7126 0.0
H1203 H 0.92306 0.79089 0.66173 0.0
H1204 H 0.03022 0.8122 0.70358 0.0
H1205 H 0.99063 0.72067 0.67334 0.0
C1206 C 0.03764 0.70518 0.68437 0.0
C1207 C 0.06848 0.71195 0.69545 0.0
C1208 C 1.00667 0.8072 0.69473 0.0
C1209 C 0.02114 0.75483 0.69083 0.0
C1210 C 0.98578 0.82981 0.68919 0.0
C1211 C 0.95527 0.82464 0.677 0.0
C1212 C 0.99751 0.77882 0.68762 0.0
C1213 C 0.94617 0.79585 0.67152 0.0
C1214 C 0.01403 0.72642 0.68208 0.0
C1215 C 0.0743 0.74059 0.70421 0.0
N1216 N 0.96733 0.77404 0.67655 0.0
N1217 N 0.05109 0.76075 0.7016 0.0
H1218 H 0.95676 0.31196 0.37339 0.0
H1219 H 0.97342 0.14464 0.41231 0.0
H1220 H 0.02859 0.28223 0.43487 0.0
H1221 H 0.94423 0.17647 0.32521 0.0
H1222 H 0.98723 0.19455 0.42645 0.0
H1223 H 0.94311 0.26159 0.36188 0.0
C1224 C 0.96921 0.29479 0.38483 0.0
C1225 C 0.99393 0.30114 0.40493 0.0
C1226 C 0.97811 0.19044 0.40416 0.0
C1227 C 0.97872 0.24373 0.39183 0.0
C1228 C 0.9703 0.16209 0.39613 0.0
C1229 C 0.95828 0.15649 0.36742 0.0
C1230 C 0.97252 0.21327 0.38374 0.0
C1231 C 0.95408 0.17983 0.34736 0.0
C1232 C 0.96177 0.26614 0.37799 0.0
C1233 C 1.00957 0.27811 0.41904 0.0
N1234 N 0.96079 0.20721 0.35603 0.0
N1235 N 1.00169 0.25038 0.41227 0.0
H1236 H 0.50977 0.67738 0.88648 0.0
H1237 H 0.5813 0.83579 0.9218 0.0
H1238 H 0.45209 0.75338 0.89075 0.0
H1239 H 0.63945 0.76606 0.89048 0.0
H1240 H 0.53353 0.80363 0.92002 0.0
H1241 H 0.55763 0.7073 0.89812 0.0
C1242 C 0.50709 0.70018 0.89047 0.0
C1243 C 0.47703 0.71297 0.88742 0.0
C1244 C 0.55683 0.79539 0.91368 0.0
C1245 C 0.53135 0.74725 0.90061 0.0
C1246 C 0.58407 0.81376 0.9147 0.0
C1247 C 0.6144 0.80379 0.90591 0.0
C1248 C 0.56 0.76674 0.90422 0.0
C1249 C 0.61653 0.77488 0.89706 0.0
C1250 C 0.53437 0.7173 0.89685 0.0
C1251 C 0.47491 0.74269 0.89257 0.0
N1252 N 0.5898 0.75745 0.89642 0.0
N1253 N 0.50162 0.75879 0.89878 0.0
H1254 H 0.73869 0.93478 0.79857 0.0
H1255 H 0.66625 0.09199 0.82123 0.0
H1256 H 0.67682 0.95782 0.87312 0.0
H1257 H 0.70315 0.06296 0.73588 0.0
H1258 H 0.68024 0.04559 0.84423 0.0
H1259 H 0.7349 0.98421 0.77825 0.0
C1260 C 0.72446 0.95017 0.81074 0.0
C1261 C 0.70794 0.94192 0.83756 0.0
C1262 C 0.68573 0.04957 0.82052 0.0
C1263 C 0.70386 0.99854 0.81472 0.0
C1264 C 0.67789 0.07609 0.80745 0.0
C1265 C 0.68355 0.08148 0.77651 0.0
C1266 C 0.69935 0.02819 0.80254 0.0
C1267 C 0.69887 0.06009 0.75978 0.0
C1268 C 0.72231 0.97835 0.79915 0.0
C1269 C 0.68974 0.96284 0.8523 0.0
N1270 N 0.70595 0.03432 0.7729 0.0
N1271 N 0.68827 0.99007 0.84075 0.0
H1272 H 0.18855 0.45034 0.01084 0.0
H1273 H 0.3788 0.42766 0.01879 0.0
H1274 H 0.25141 0.44405 0.93281 0.0
H1275 H 0.31693 0.43102 0.09775 0.0
H1276 H 0.33338 0.44036 0.98735 0.0
H1277 H 0.23575 0.4496 0.04302 0.0
C1278 C 0.21221 0.44903 1.00042 0.0
C1279 C 0.21578 0.44678 0.96898 0.0
C1280 C 0.32975 0.43874 0.01158 0.0
C1281 C 0.2701 0.44565 1.00596 0.0
C1282 C 0.35579 0.43167 0.02961 0.0
C1283 C 0.35176 0.42821 0.06102 0.0
C1284 C 0.29917 0.44211 0.02491 0.0
C1285 C 0.32131 0.43363 0.07369 0.0
C1286 C 0.23921 0.44847 0.01889 0.0
C1287 C 0.24722 0.44508 0.9569 0.0
N1288 N 0.29613 0.43985 0.05554 0.0
N1289 N 0.27301 0.44436 0.97535 0.0
H1290 H 0.93008 0.07484 0.22606 0.0
H1291 H 0.86976 0.91752 0.17856 0.0
H1292 H 0.86024 0.02629 0.2805 0.0
H1293 H 0.95873 0.95849 0.14713 0.0
H1294 H 0.8626 0.95716 0.21426 0.0
H1295 H 0.9371 0.03302 0.19432 0.0
C1296 C 0.91604 0.0554 0.23125 0.0
C1297 C 0.89443 0.05419 0.25595 0.0
C1298 C 0.88377 0.95722 0.19966 0.0
C1299 C 0.90245 1.00578 0.21951 0.0
C1300 C 0.88791 0.9346 0.17932 0.0
C1301 C 0.91486 0.9346 0.15965 0.0
C1302 C 0.90653 0.98014 0.20001 0.0
C1303 C 0.9375 0.95743 0.16164 0.0
C1304 C 0.92024 0.03137 0.21322 0.0
C1305 C 0.87729 0.02811 0.26179 0.0
N1306 N 0.93268 0.97923 0.18114 0.0
N1307 N 0.88147 1.00498 0.24358 0.0
H1308 H 0.17963 0.60162 0.58234 0.0
H1309 H 0.31677 0.7028 0.50427 0.0
H1310 H 0.2221 0.67663 0.62345 0.0
H1311 H 0.29563 0.61731 0.47244 0.0
H1312 H 0.28039 0.69359 0.54726 0.0
H1313 H 0.21889 0.60749 0.54011 0.0
C1314 C 0.19691 0.61944 0.58234 0.0
C1315 C 0.19751 0.63871 0.60644 0.0
C1316 C 0.28391 0.67662 0.53116 0.0
C1317 C 0.24248 0.64536 0.5586 0.0
C1318 C 0.30488 0.68184 0.50669 0.0
C1319 C 0.30944 0.66073 0.4849 0.0
C1320 C 0.26671 0.65024 0.53373 0.0
C1321 C 0.29312 0.63403 0.48898 0.0
C1322 C 0.21949 0.6226 0.55844 0.0
C1323 C 0.2207 0.6612 0.60546 0.0
N1324 N 0.27211 0.62964 0.51274 0.0
N1325 N 0.24206 0.66391 0.58203 0.0
H1326 H 0.74766 0.54974 0.09375 0.0
H1327 H 0.76636 0.60175 0.92106 0.0
H1328 H 0.6774 0.60153 0.04888 0.0
H1329 H 0.8478 0.58114 0.97594 0.0
H1330 H 0.73072 0.59305 0.96499 0.0
H1331 H 0.78187 0.55275 0.04809 0.0
C1332 C 0.73926 0.56147 0.07418 0.0
C1333 C 0.70961 0.57543 0.07513 0.0
C1334 C 0.75637 0.59021 0.96733 0.0
C1335 C 0.74862 0.57889 0.0228 0.0
C1336 C 0.77675 0.59495 0.9422 0.0
C1337 C 0.81021 0.59223 0.94478 0.0
C1338 C 0.7694 0.58228 0.99522 0.0
C1339 C 0.8222 0.58358 0.9729 0.0
C1340 C 0.7589 0.56333 0.04822 0.0
C1341 C 0.70017 0.59066 0.0492 0.0
N1342 N 0.80184 0.57892 0.99701 0.0
N1343 N 0.71953 0.5919 0.02408 0.0
H1344 H 0.56211 0.53986 0.38591 0.0
H1345 H 0.68219 0.58156 0.24928 0.0
H1346 H 0.64932 0.49443 0.36629 0.0
H1347 H 0.60447 0.63579 0.27728 0.0
H1348 H 0.67318 0.55188 0.29482 0.0
H1349 H 0.5792 0.57741 0.34909 0.0
C1350 C 0.585 0.53791 0.3742 0.0
C1351 C 0.60399 0.5136 0.37891 0.0
C1352 C 0.65838 0.57053 0.29129 0.0
C1353 C 0.62361 0.55642 0.3365 0.0
C1354 C 0.66363 0.58758 0.26529 0.0
C1355 C 0.6439 0.61109 0.25925 0.0
C1356 C 0.6329 0.57673 0.31127 0.0
C1357 C 0.62024 0.61784 0.28091 0.0
C1358 C 0.59473 0.55934 0.35308 0.0
C1359 C 0.63342 0.51229 0.36289 0.0
N1360 N 0.61504 0.60047 0.30568 0.0
N1361 N 0.64213 0.53318 0.34227 0.0
H1362 H 0.80284 0.39975 0.57661 0.0
H1363 H 0.70552 0.40334 0.4214 0.0
H1364 H 0.84749 0.4186 0.4896 0.0
H1365 H 0.66079 0.40891 0.50964 0.0
H1366 H 0.75829 0.40021 0.44558 0.0
H1367 H 0.75067 0.39445 0.55182 0.0
C1368 C 0.80169 0.40262 0.55234 0.0
C1369 C 0.82943 0.41003 0.53523 0.0
C1370 C 0.73682 0.40196 0.45957 0.0
C1371 C 0.77012 0.40377 0.50672 0.0
C1372 C 0.70679 0.40364 0.44578 0.0
C1373 C 0.67888 0.40684 0.4635 0.0
C1374 C 0.73871 0.40306 0.49124 0.0
C1375 C 0.68179 0.40701 0.49505 0.0
C1376 C 0.77197 0.39964 0.5382 0.0
C1377 C 0.82663 0.41333 0.50378 0.0
N1378 N 0.7111 0.40523 0.50788 0.0
N1379 N 0.79754 0.41024 0.49056 0.0
H1380 H 0.89268 0.59859 0.76164 0.0
H1381 H 0.85288 0.50714 0.61528 0.0
H1382 H 0.79626 0.58505 0.72943 0.0
H1383 H 0.94932 0.52731 0.64389 0.0
H1384 H 0.83171 0.53791 0.65491 0.0
H1385 H 0.91383 0.5747 0.71719 0.0
C1386 C 0.8759 0.59049 0.74524 0.0
C1387 C 0.84254 0.59346 0.74953 0.0
C1388 C 0.85752 0.53587 0.65233 0.0
C1389 C 0.86675 0.56618 0.69817 0.0
C1390 C 0.86962 0.51827 0.62973 0.0
C1391 C 0.90293 0.51445 0.62633 0.0
C1392 C 0.87885 0.54967 0.67194 0.0
C1393 C 0.92352 0.5297 0.64547 0.0
C1394 C 0.88805 0.57702 0.71969 0.0
C1395 C 0.82209 0.58322 0.72704 0.0
N1396 N 0.91114 0.54636 0.66763 0.0
N1397 N 0.83449 0.56979 0.70248 0.0
H1398 H 0.55464 0.18615 0.73677 0.0
H1399 H 0.44544 0.29031 0.63689 0.0
H1400 H 0.55666 0.18426 0.63965 0.0
H1401 H 0.47015 0.30471 0.72959 0.0
H1402 H 0.47627 0.24564 0.63809 0.0
H1403 H 0.51298 0.22234 0.73496 0.0
C1404 C 0.54554 0.19274 0.715 0.0
C1405 C 0.559 0.18189 0.68835 0.0
C1406 C 0.47459 0.25842 0.65824 0.0
C1407 C 0.51169 0.22443 0.68601 0.0
C1408 C 0.45681 0.28387 0.65768 0.0
C1409 C 0.4551 0.30146 0.68323 0.0
C1410 C 0.49042 0.25013 0.68469 0.0
C1411 C 0.47074 0.29202 0.70934 0.0
C1412 C 0.52198 0.21372 0.71397 0.0
C1413 C 0.54657 0.19161 0.66076 0.0
N1414 N 0.48763 0.26716 0.70936 0.0
N1415 N 0.52387 0.21261 0.66027 0.0
loop_
_geom_bond_atom_site_label_1
_geom_bond_atom_site_label_2
_geom_bond_distance
_geom_bond_site_symmetry_2
_ccdc_geom_bond_type
Cu0 N1 1.999 . S
Cu0 O6 1.974 . S
Cu0 N11 1.985 . S
Cu0 O20 1.959 . S
N1 Cu0 1.999 . S
N1 C3 1.263 . S
N1 C5 1.389 . S
N2 C3 1.358 . S
N2 C4 1.400 . S
C3 N1 1.263 . S
C3 N2 1.358 . S
C3 H9 0.930 . S
C4 N2 1.400 . S
C4 C5 1.351 . S
C4 H21 0.930 . S
C5 N1 1.389 . S
C5 C4 1.351 . S
C5 H10 0.930 . S
O6 Cu0 1.974 . S
O6 C16 1.282 . S
C7 O8 1.261 . S
C7 O20 1.251 . S
O8 C7 1.261 . S
H9 C3 0.930 . S
H10 C5 0.930 . S
N11 Cu0 1.985 . S
N11 C13 1.335 . S
N11 C14 1.390 . S
N12 C13 1.345 . S
N12 C15 1.336 . S
C13 N11 1.335 . S
C13 N12 1.345 . S
C13 H18 0.930 . S
C14 N11 1.390 . S
C14 C15 1.346 . S
C14 H19 0.930 . S
C15 N12 1.336 . S
C15 C14 1.346 . S
C15 H22 0.929 . S
C16 O6 1.282 . S
C16 O17 1.216 . S
O17 C16 1.216 . S
H18 C13 0.930 . S
H19 C14 0.930 . S
O20 Cu0 1.959 . S
O20 C7 1.251 . S
H21 C4 0.930 . S
H22 C15 0.929 . S
Cu23 N24 1.999 . S
Cu23 O29 1.974 . S
Cu23 N34 1.985 . S
Cu23 O43 1.959 . S
N24 Cu23 1.999 . S
N24 C26 1.263 . S
N24 C28 1.389 . S
N25 C26 1.358 . S
N25 C27 1.400 . S
C26 N24 1.263 . S
C26 N25 1.358 . S
C26 H32 0.930 . S
C27 N25 1.400 . S
C27 C28 1.351 . S
C27 H44 0.930 . S
C28 N24 1.389 . S
C28 C27 1.351 . S
C28 H33 0.930 . S
O29 Cu23 1.974 . S
O29 C39 1.282 . S
C30 O31 1.261 . S
C30 O43 1.251 . S
O31 C30 1.261 . S
H32 C26 0.930 . S
H33 C28 0.930 . S
N34 Cu23 1.985 . S
N34 C36 1.335 . S
N34 C37 1.390 . S
N35 C36 1.345 . S
N35 C38 1.336 . S
C36 N34 1.335 . S
C36 N35 1.345 . S
C36 H41 0.930 . S
C37 N34 1.390 . S
C37 C38 1.346 . S
C37 H42 0.930 . S
C38 N35 1.336 . S
C38 C37 1.346 . S
C38 H45 0.929 . S
C39 O29 1.282 . S
C39 O40 1.216 . S
O40 C39 1.216 . S
H41 C36 0.930 . S
H42 C37 0.930 . S
O43 Cu23 1.959 . S
O43 C30 1.251 . S
H44 C27 0.930 . S
H45 C38 0.929 . S
Cu46 N47 1.999 . S
Cu46 O52 1.974 . S
Cu46 N57 1.985 . S
Cu46 O66 1.959 . S
N47 Cu46 1.999 . S
N47 C49 1.263 . S
N47 C51 1.389 . S
N48 C49 1.358 . S
N48 C50 1.400 . S
C49 N47 1.263 . S
C49 N48 1.358 . S
C49 H55 0.930 . S
C50 N48 1.400 . S
C50 C51 1.351 . S
C50 H67 0.930 . S
C51 N47 1.389 . S
C51 C50 1.351 . S
C51 H56 0.930 . S
O52 Cu46 1.974 . S
O52 C62 1.282 . S
C53 O54 1.261 . S
C53 O66 1.251 . S
O54 C53 1.261 . S
H55 C49 0.930 . S
H56 C51 0.930 . S
N57 Cu46 1.985 . S
N57 C59 1.335 . S
N57 C60 1.390 . S
N58 C59 1.345 . S
N58 C61 1.336 . S
C59 N57 1.335 . S
C59 N58 1.345 . S
C59 H64 0.930 . S
C60 N57 1.390 . S
C60 C61 1.346 . S
C60 H65 0.930 . S
C61 N58 1.336 . S
C61 C60 1.346 . S
C61 H68 0.929 . S
C62 O52 1.282 . S
C62 O63 1.216 . S
O63 C62 1.216 . S
H64 C59 0.930 . S
H65 C60 0.930 . S
O66 Cu46 1.959 . S
O66 C53 1.251 . S
H67 C50 0.930 . S
H68 C61 0.929 . S
Cu69 N70 1.999 . S
Cu69 O75 1.974 . S
Cu69 N80 1.985 . S
Cu69 O89 1.959 . S
N70 Cu69 1.999 . S
N70 C72 1.263 . S
N70 C74 1.389 . S
N71 C72 1.358 . S
N71 C73 1.400 . S
C72 N70 1.263 . S
C72 N71 1.358 . S
C72 H78 0.930 . S
C73 N71 1.400 . S
C73 C74 1.351 . S
C73 H90 0.930 . S
C74 N70 1.389 . S
C74 C73 1.351 . S
C74 H79 0.930 . S
O75 Cu69 1.974 . S
O75 C85 1.282 . S
C76 O77 1.261 . S
C76 O89 1.251 . S
O77 C76 1.261 . S
H78 C72 0.930 . S
H79 C74 0.930 . S
N80 Cu69 1.985 . S
N80 C82 1.335 . S
N80 C83 1.390 . S
N81 C82 1.345 . S
N81 C84 1.336 . S
C82 N80 1.335 . S
C82 N81 1.345 . S
C82 H87 0.930 . S
C83 N80 1.390 . S
C83 C84 1.346 . S
C83 H88 0.930 . S
C84 N81 1.336 . S
C84 C83 1.346 . S
C84 H91 0.929 . S
C85 O75 1.282 . S
C85 O86 1.216 . S
O86 C85 1.216 . S
H87 C82 0.930 . S
H88 C83 0.930 . S
O89 Cu69 1.959 . S
O89 C76 1.251 . S
H90 C73 0.930 . S
H91 C84 0.929 . S
Cu92 N93 1.999 . S
Cu92 O98 1.974 . S
Cu92 N103 1.985 . S
Cu92 O112 1.959 . S
N93 Cu92 1.999 . S
N93 C95 1.263 . S
N93 C97 1.389 . S
N94 C95 1.358 . S
N94 C96 1.400 . S
C95 N93 1.263 . S
C95 N94 1.358 . S
C95 H101 0.930 . S
C96 N94 1.400 . S
C96 C97 1.351 . S
C96 H113 0.930 . S
C97 N93 1.389 . S
C97 C96 1.351 . S
C97 H102 0.930 . S
O98 Cu92 1.974 . S
O98 C108 1.282 . S
C99 O100 1.261 . S
C99 O112 1.251 . S
O100 C99 1.261 . S
H101 C95 0.930 . S
H102 C97 0.930 . S
N103 Cu92 1.985 . S
N103 C105 1.335 . S
N103 C106 1.390 . S
N104 C105 1.345 . S
N104 C107 1.336 . S
C105 N103 1.335 . S
C105 N104 1.345 . S
C105 H110 0.930 . S
C106 N103 1.390 . S
C106 C107 1.346 . S
C106 H111 0.930 . S
C107 N104 1.336 . S
C107 C106 1.346 . S
C107 H114 0.929 1_455 S
C108 O98 1.282 . S
C108 O109 1.216 . S
O109 C108 1.216 . S
H110 C105 0.930 . S
H111 C106 0.930 . S
O112 Cu92 1.959 . S
O112 C99 1.251 . S
H113 C96 0.930 . S
H114 C107 0.929 1_655 S
Cu115 N116 1.999 . S
Cu115 O121 1.974 . S
Cu115 N126 1.985 . S
Cu115 O135 1.959 . S
N116 Cu115 1.999 . S
N116 C118 1.263 . S
N116 C120 1.389 . S
N117 C118 1.358 . S
N117 C119 1.400 . S
C118 N116 1.263 . S
C118 N117 1.358 . S
C118 H124 0.930 . S
C119 N117 1.400 . S
C119 C120 1.351 . S
C119 H136 0.930 . S
C120 N116 1.389 . S
C120 C119 1.351 . S
C120 H125 0.930 . S
O121 Cu115 1.974 . S
O121 C131 1.282 . S
C122 O123 1.261 . S
C122 O135 1.251 . S
O123 C122 1.261 . S
H124 C118 0.930 . S
H125 C120 0.930 . S
N126 Cu115 1.985 . S
N126 C128 1.335 . S
N126 C129 1.390 . S
N127 C128 1.345 . S
N127 C130 1.336 . S
C128 N126 1.335 . S
C128 N127 1.345 . S
C128 H133 0.930 . S
C129 N126 1.390 . S
C129 C130 1.346 . S
C129 H134 0.930 . S
C130 N127 1.336 . S
C130 C129 1.346 . S
C130 H137 0.929 . S
C131 O121 1.282 . S
C131 O132 1.216 . S
O132 C131 1.216 . S
H133 C128 0.930 . S
H134 C129 0.930 . S
O135 Cu115 1.959 . S
O135 C122 1.251 . S
H136 C119 0.930 . S
H137 C130 0.929 . S
Cu138 N139 1.999 . S
Cu138 O144 1.974 . S
Cu138 N149 1.985 . S
Cu138 O158 1.959 . S
N139 Cu138 1.999 . S
N139 C141 1.263 . S
N139 C143 1.389 . S
N140 C141 1.358 . S
N140 C142 1.400 . S
C141 N139 1.263 . S
C141 N140 1.358 . S
C141 H147 0.930 . S
C142 N140 1.400 . S
C142 C143 1.351 . S
C142 H159 0.930 . S
C143 N139 1.389 . S
C143 C142 1.351 . S
C143 H148 0.930 . S
O144 Cu138 1.974 . S
O144 C154 1.282 . S
C145 O146 1.261 . S
C145 O158 1.251 . S
O146 C145 1.261 . S
H147 C141 0.930 . S
H148 C143 0.930 . S
N149 Cu138 1.985 . S
N149 C151 1.335 . S
N149 C152 1.390 . S
N150 C151 1.345 . S
N150 C153 1.336 . S
C151 N149 1.335 . S
C151 N150 1.345 . S
C151 H156 0.930 . S
C152 N149 1.390 . S
C152 C153 1.346 . S
C152 H157 0.930 . S
C153 N150 1.336 . S
C153 C152 1.346 . S
C153 H160 0.929 . S
C154 O144 1.282 . S
C154 O155 1.216 . S
O155 C154 1.216 . S
H156 C151 0.930 . S
H157 C152 0.930 . S
O158 Cu138 1.959 . S
O158 C145 1.251 . S
H159 C142 0.930 . S
H160 C153 0.929 . S
Cu161 N162 1.999 . S
Cu161 O167 1.974 . S
Cu161 N172 1.985 . S
Cu161 O181 1.959 . S
N162 Cu161 1.999 . S
N162 C164 1.263 . S
N162 C166 1.389 . S
N163 C164 1.358 . S
N163 C165 1.400 . S
C164 N162 1.263 . S
C164 N163 1.358 . S
C164 H170 0.930 . S
C165 N163 1.400 . S
C165 C166 1.351 . S
C165 H182 0.930 . S
C166 N162 1.389 . S
C166 C165 1.351 . S
C166 H171 0.930 . S
O167 Cu161 1.974 . S
O167 C177 1.282 . S
C168 O169 1.261 . S
C168 O181 1.251 . S
O169 C168 1.261 . S
H170 C164 0.930 . S
H171 C166 0.930 . S
N172 Cu161 1.985 . S
N172 C174 1.335 . S
N172 C175 1.390 . S
N173 C174 1.345 . S
N173 C176 1.336 . S
C174 N172 1.335 . S
C174 N173 1.345 . S
C174 H179 0.930 . S
C175 N172 1.390 . S
C175 C176 1.346 . S
C175 H180 0.930 . S
C176 N173 1.336 . S
C176 C175 1.346 . S
C176 H183 0.929 . S
C177 O167 1.282 . S
C177 O178 1.216 . S
O178 C177 1.216 . S
H179 C174 0.930 . S
H180 C175 0.930 . S
O181 Cu161 1.959 . S
O181 C168 1.251 . S
H182 C165 0.930 . S
H183 C176 0.929 . S
Cu184 N185 1.999 . S
Cu184 O190 1.974 . S
Cu184 N195 1.985 . S
Cu184 O204 1.959 . S
N185 Cu184 1.999 . S
N185 C187 1.263 . S
N185 C189 1.389 . S
N186 C187 1.358 . S
N186 C188 1.400 . S
C187 N185 1.263 . S
C187 N186 1.358 . S
C187 H193 0.930 . S
C188 N186 1.400 . S
C188 C189 1.351 . S
C188 H205 0.930 . S
C189 N185 1.389 . S
C189 C188 1.351 . S
C189 H194 0.930 . S
O190 Cu184 1.974 . S
O190 C200 1.282 . S
C191 O192 1.261 . S
C191 O204 1.251 . S
O192 C191 1.261 . S
H193 C187 0.930 . S
H194 C189 0.930 . S
N195 Cu184 1.985 . S
N195 C197 1.335 . S
N195 C198 1.390 . S
N196 C197 1.345 . S
N196 C199 1.336 . S
C197 N195 1.335 . S
C197 N196 1.345 . S
C197 H202 0.930 . S
C198 N195 1.390 . S
C198 C199 1.346 . S
C198 H203 0.930 . S
C199 N196 1.336 . S
C199 C198 1.346 . S
C199 H206 0.929 . S
C200 O190 1.282 . S
C200 O201 1.216 . S
O201 C200 1.216 . S
H202 C197 0.930 . S
H203 C198 0.930 . S
O204 Cu184 1.959 . S
O204 C191 1.251 . S
H205 C188 0.930 . S
H206 C199 0.929 . S
Cu207 N208 1.999 . S
Cu207 O213 1.974 . S
Cu207 N218 1.985 . S
Cu207 O227 1.959 . S
N208 Cu207 1.999 . S
N208 C210 1.263 . S
N208 C212 1.389 . S
N209 C210 1.358 . S
N209 C211 1.400 . S
C210 N208 1.263 . S
C210 N209 1.358 . S
C210 H216 0.930 . S
C211 N209 1.400 . S
C211 C212 1.351 . S
C211 H228 0.930 . S
C212 N208 1.389 . S
C212 C211 1.351 . S
C212 H217 0.930 . S
O213 Cu207 1.974 . S
O213 C223 1.282 . S
C214 O215 1.261 . S
C214 O227 1.251 . S
O215 C214 1.261 . S
H216 C210 0.930 . S
H217 C212 0.930 . S
N218 Cu207 1.985 . S
N218 C220 1.335 . S
N218 C221 1.390 . S
N219 C220 1.345 . S
N219 C222 1.336 . S
C220 N218 1.335 . S
C220 N219 1.345 . S
C220 H225 0.930 . S
C221 N218 1.390 . S
C221 C222 1.346 . S
C221 H226 0.930 . S
C222 N219 1.336 . S
C222 C221 1.346 . S
C222 H229 0.929 . S
C223 O213 1.282 . S
C223 O224 1.216 . S
O224 C223 1.216 . S
H225 C220 0.930 . S
H226 C221 0.930 . S
O227 Cu207 1.959 . S
O227 C214 1.251 . S
H228 C211 0.930 . S
H229 C222 0.929 . S
Cu230 N231 1.999 . S
Cu230 O236 1.974 . S
Cu230 N241 1.985 . S
Cu230 O250 1.959 . S
N231 Cu230 1.999 . S
N231 C233 1.263 . S
N231 C235 1.389 . S
N232 C233 1.358 . S
N232 C234 1.400 . S
C233 N231 1.263 . S
C233 N232 1.358 . S
C233 H239 0.930 . S
C234 N232 1.400 . S
C234 C235 1.351 . S
C234 H251 0.930 . S
C235 N231 1.389 . S
C235 C234 1.351 . S
C235 H240 0.930 . S
O236 Cu230 1.974 . S
O236 C246 1.282 . S
C237 O238 1.261 . S
C237 O250 1.251 . S
O238 C237 1.261 . S
H239 C233 0.930 . S
H240 C235 0.930 . S
N241 Cu230 1.985 . S
N241 C243 1.335 . S
N241 C244 1.390 . S
N242 C243 1.345 . S
N242 C245 1.336 . S
C243 N241 1.335 . S
C243 N242 1.345 . S
C243 H248 0.930 . S
C244 N241 1.390 . S
C244 C245 1.346 . S
C244 H249 0.930 . S
C245 N242 1.336 . S
C245 C244 1.346 . S
C245 H252 0.929 . S
C246 O236 1.282 . S
C246 O247 1.216 . S
O247 C246 1.216 . S
H248 C243 0.930 . S
H249 C244 0.930 . S
O250 Cu230 1.959 . S
O250 C237 1.251 . S
H251 C234 0.930 . S
H252 C245 0.929 . S
Cu253 N254 1.999 . S
Cu253 O259 1.974 . S
Cu253 N264 1.985 . S
Cu253 O273 1.959 . S
N254 Cu253 1.999 . S
N254 C256 1.263 . S
N254 C258 1.389 . S
N255 C256 1.358 . S
N255 C257 1.400 . S
C256 N254 1.263 . S
C256 N255 1.358 . S
C256 H262 0.930 . S
C257 N255 1.400 . S
C257 C258 1.351 . S
C257 H274 0.930 . S
C258 N254 1.389 . S
C258 C257 1.351 . S
C258 H263 0.930 . S
O259 Cu253 1.974 . S
O259 C269 1.282 . S
C260 O261 1.261 . S
C260 O273 1.251 . S
O261 C260 1.261 . S
H262 C256 0.930 . S
H263 C258 0.930 . S
N264 Cu253 1.985 . S
N264 C266 1.335 . S
N264 C267 1.390 . S
N265 C266 1.345 . S
N265 C268 1.336 . S
C266 N264 1.335 . S
C266 N265 1.345 . S
C266 H271 0.930 . S
C267 N264 1.390 . S
C267 C268 1.346 . S
C267 H272 0.930 . S
C268 N265 1.336 . S
C268 C267 1.346 . S
C268 H275 0.929 . S
C269 O259 1.282 . S
C269 O270 1.216 . S
O270 C269 1.216 . S
H271 C266 0.930 . S
H272 C267 0.930 . S
O273 Cu253 1.959 . S
O273 C260 1.251 . S
H274 C257 0.930 . S
H275 C268 0.929 . S
Cu276 N277 1.999 . S
Cu276 O282 1.974 . S
Cu276 N287 1.985 . S
Cu276 O296 1.959 . S
N277 Cu276 1.999 . S
N277 C279 1.263 . S
N277 C281 1.389 . S
N278 C279 1.358 . S
N278 C280 1.400 . S
C279 N277 1.263 . S
C279 N278 1.358 . S
C279 H285 0.930 . S
C280 N278 1.400 . S
C280 C281 1.351 . S
C280 H297 0.930 . S
C281 N277 1.389 . S
C281 C280 1.351 . S
C281 H286 0.930 . S
O282 Cu276 1.974 . S
O282 C292 1.282 . S
C283 O284 1.261 . S
C283 O296 1.251 . S
O284 C283 1.261 . S
H285 C279 0.930 . S
H286 C281 0.930 . S
N287 Cu276 1.985 . S
N287 C289 1.335 . S
N287 C290 1.390 . S
N288 C289 1.345 . S
N288 C291 1.336 . S
C289 N287 1.335 . S
C289 N288 1.345 . S
C289 H294 0.930 . S
C290 N287 1.390 . S
C290 C291 1.346 . S
C290 H295 0.930 . S
C291 N288 1.336 . S
C291 C290 1.346 . S
C291 H298 0.929 . S
C292 O282 1.282 . S
C292 O293 1.216 . S
O293 C292 1.216 . S
H294 C289 0.930 . S
H295 C290 0.930 . S
O296 Cu276 1.959 . S
O296 C283 1.251 . S
H297 C280 0.930 . S
H298 C291 0.929 . S
Cu299 N300 1.999 . S
Cu299 O305 1.974 . S
Cu299 N310 1.985 . S
Cu299 O319 1.959 . S
N300 Cu299 1.999 . S
N300 C302 1.263 . S
N300 C304 1.389 . S
N301 C302 1.358 . S
N301 C303 1.400 . S
C302 N300 1.263 . S
C302 N301 1.358 . S
C302 H308 0.930 . S
C303 N301 1.400 . S
C303 C304 1.351 . S
C303 H320 0.930 . S
C304 N300 1.389 . S
C304 C303 1.351 . S
C304 H309 0.930 . S
O305 Cu299 1.974 . S
O305 C315 1.282 . S
C306 O307 1.261 . S
C306 O319 1.251 . S
O307 C306 1.261 . S
H308 C302 0.930 . S
H309 C304 0.930 . S
N310 Cu299 1.985 . S
N310 C312 1.335 . S
N310 C313 1.390 . S
N311 C312 1.345 . S
N311 C314 1.336 . S
C312 N310 1.335 . S
C312 N311 1.345 . S
C312 H317 0.930 . S
C313 N310 1.390 . S
C313 C314 1.346 . S
C313 H318 0.930 . S
C314 N311 1.336 . S
C314 C313 1.346 . S
C314 H321 0.929 . S
C315 O305 1.282 . S
C315 O316 1.216 . S
O316 C315 1.216 . S
H317 C312 0.930 . S
H318 C313 0.930 . S
O319 Cu299 1.959 . S
O319 C306 1.251 . S
H320 C303 0.930 . S
H321 C314 0.929 . S
Cu322 N323 1.999 . S
Cu322 O328 1.974 . S
Cu322 N333 1.985 . S
Cu322 O342 1.959 . S
N323 Cu322 1.999 . S
N323 C325 1.263 . S
N323 C327 1.389 . S
N324 C325 1.358 . S
N324 C326 1.400 . S
C325 N323 1.263 . S
C325 N324 1.358 . S
C325 H331 0.930 . S
C326 N324 1.400 . S
C326 C327 1.351 . S
C326 H343 0.930 . S
C327 N323 1.389 . S
C327 C326 1.351 . S
C327 H332 0.930 . S
O328 Cu322 1.974 . S
O328 C338 1.282 . S
C329 O330 1.261 . S
C329 O342 1.251 . S
O330 C329 1.261 . S
H331 C325 0.930 . S
H332 C327 0.930 . S
N333 Cu322 1.985 . S
N333 C335 1.335 . S
N333 C336 1.390 . S
N334 C335 1.345 . S
N334 C337 1.336 . S
C335 N333 1.335 . S
C335 N334 1.345 . S
C335 H340 0.930 . S
C336 N333 1.390 . S
C336 C337 1.346 . S
C336 H341 0.930 . S
C337 N334 1.336 . S
C337 C336 1.346 . S
C337 H344 0.929 . S
C338 O328 1.282 . S
C338 O339 1.216 . S
O339 C338 1.216 . S
H340 C335 0.930 . S
H341 C336 0.930 . S
O342 Cu322 1.959 . S
O342 C329 1.251 . S
H343 C326 0.930 . S
H344 C337 0.929 . S
Cu345 N346 1.999 . S
Cu345 O351 1.974 . S
Cu345 N356 1.985 . S
Cu345 O365 1.959 . S
N346 Cu345 1.999 . S
N346 C348 1.263 . S
N346 C350 1.389 . S
N347 C348 1.358 . S
N347 C349 1.400 . S
C348 N346 1.263 . S
C348 N347 1.358 . S
C348 H354 0.930 . S
C349 N347 1.400 . S
C349 C350 1.351 . S
C349 H366 0.930 . S
C350 N346 1.389 . S
C350 C349 1.351 . S
C350 H355 0.930 . S
O351 Cu345 1.974 . S
O351 C361 1.282 . S
C352 O353 1.261 . S
C352 O365 1.251 . S
O353 C352 1.261 . S
H354 C348 0.930 . S
H355 C350 0.930 . S
N356 Cu345 1.985 . S
N356 C358 1.335 . S
N356 C359 1.390 . S
N357 C358 1.345 . S
N357 C360 1.336 . S
C358 N356 1.335 . S
C358 N357 1.345 . S
C358 H363 0.930 . S
C359 N356 1.390 . S
C359 C360 1.346 . S
C359 H364 0.930 . S
C360 N357 1.336 . S
C360 C359 1.346 . S
C360 H367 0.929 . S
C361 O351 1.282 . S
C361 O362 1.216 . S
O362 C361 1.216 . S
H363 C358 0.930 . S
H364 C359 0.930 . S
O365 Cu345 1.959 . S
O365 C352 1.251 . S
H366 C349 0.930 . S
H367 C360 0.929 . S
Cu368 N369 1.999 . S
Cu368 O374 1.974 . S
Cu368 N379 1.985 . S
Cu368 O388 1.959 . S
N369 Cu368 1.999 . S
N369 C371 1.263 . S
N369 C373 1.389 . S
N370 C371 1.358 . S
N370 C372 1.400 . S
C371 N369 1.263 . S
C371 N370 1.358 . S
C371 H377 0.930 . S
C372 N370 1.400 . S
C372 C373 1.351 . S
C372 H389 0.930 . S
C373 N369 1.389 . S
C373 C372 1.351 . S
C373 H378 0.930 . S
O374 Cu368 1.974 . S
O374 C384 1.282 . S
C375 O376 1.261 . S
C375 O388 1.251 . S
O376 C375 1.261 . S
H377 C371 0.930 . S
H378 C373 0.930 . S
N379 Cu368 1.985 . S
N379 C381 1.335 . S
N379 C382 1.390 . S
N380 C381 1.345 . S
N380 C383 1.336 . S
C381 N379 1.335 . S
C381 N380 1.345 . S
C381 H386 0.930 . S
C382 N379 1.390 . S
C382 C383 1.346 . S
C382 H387 0.930 . S
C383 N380 1.336 . S
C383 C382 1.346 . S
C383 H390 0.929 . S
C384 O374 1.282 . S
C384 O385 1.216 . S
O385 C384 1.216 . S
H386 C381 0.930 . S
H387 C382 0.930 . S
O388 Cu368 1.959 . S
O388 C375 1.251 . S
H389 C372 0.930 . S
H390 C383 0.929 . S
Cu391 N392 1.999 . S
Cu391 O397 1.974 . S
Cu391 N402 1.985 . S
Cu391 O411 1.959 . S
N392 Cu391 1.999 . S
N392 C394 1.263 . S
N392 C396 1.389 . S
N393 C394 1.358 . S
N393 C395 1.400 . S
C394 N392 1.263 . S
C394 N393 1.358 . S
C394 H400 0.930 . S
C395 N393 1.400 . S
C395 C396 1.351 . S
C395 H412 0.930 . S
C396 N392 1.389 . S
C396 C395 1.351 . S
C396 H401 0.930 . S
O397 Cu391 1.974 . S
O397 C407 1.282 . S
C398 O399 1.261 . S
C398 O411 1.251 . S
O399 C398 1.261 . S
H400 C394 0.930 . S
H401 C396 0.930 . S
N402 Cu391 1.985 . S
N402 C404 1.335 . S
N402 C405 1.390 . S
N403 C404 1.345 . S
N403 C406 1.336 . S
C404 N402 1.335 . S
C404 N403 1.345 . S
C404 H409 0.930 . S
C405 N402 1.390 . S
C405 C406 1.346 . S
C405 H410 0.930 . S
C406 N403 1.336 . S
C406 C405 1.346 . S
C406 H413 0.929 . S
C407 O397 1.282 . S
C407 O408 1.216 . S
O408 C407 1.216 . S
H409 C404 0.930 . S
H410 C405 0.930 . S
O411 Cu391 1.959 . S
O411 C398 1.251 . S
H412 C395 0.930 . S
H413 C406 0.929 . S
Cu414 N415 1.999 . S
Cu414 O420 1.974 . S
Cu414 N425 1.985 . S
Cu414 O434 1.959 . S
N415 Cu414 1.999 . S
N415 C417 1.263 . S
N415 C419 1.389 . S
N416 C417 1.358 . S
N416 C418 1.400 . S
C417 N415 1.263 . S
C417 N416 1.358 . S
C417 H423 0.930 . S
C418 N416 1.400 . S
C418 C419 1.351 . S
C418 H435 0.930 . S
C419 N415 1.389 . S
C419 C418 1.351 . S
C419 H424 0.930 . S
O420 Cu414 1.974 . S
O420 C430 1.282 . S
C421 O422 1.261 . S
C421 O434 1.251 . S
O422 C421 1.261 . S
H423 C417 0.930 . S
H424 C419 0.930 . S
N425 Cu414 1.985 . S
N425 C427 1.335 . S
N425 C428 1.390 . S
N426 C427 1.345 . S
N426 C429 1.336 . S
C427 N425 1.335 . S
C427 N426 1.345 . S
C427 H432 0.930 . S
C428 N425 1.390 . S
C428 C429 1.346 . S
C428 H433 0.930 . S
C429 N426 1.336 . S
C429 C428 1.346 . S
C429 H436 0.929 . S
C430 O420 1.282 . S
C430 O431 1.216 . S
O431 C430 1.216 . S
H432 C427 0.930 . S
H433 C428 0.930 . S
O434 Cu414 1.959 . S
O434 C421 1.251 . S
H435 C418 0.930 . S
H436 C429 0.929 . S
Cu437 N438 1.999 . S
Cu437 O443 1.974 . S
Cu437 N448 1.985 . S
Cu437 O457 1.959 . S
N438 Cu437 1.999 . S
N438 C440 1.263 . S
N438 C442 1.389 . S
N439 C440 1.358 . S
N439 C441 1.400 . S
C440 N438 1.263 . S
C440 N439 1.358 . S
C440 H446 0.930 . S
C441 N439 1.400 . S
C441 C442 1.351 . S
C441 H458 0.930 . S
C442 N438 1.389 . S
C442 C441 1.351 . S
C442 H447 0.930 . S
O443 Cu437 1.974 . S
O443 C453 1.282 . S
C444 O445 1.261 . S
C444 O457 1.251 . S
O445 C444 1.261 . S
H446 C440 0.930 . S
H447 C442 0.930 . S
N448 Cu437 1.985 . S
N448 C450 1.335 . S
N448 C451 1.390 . S
N449 C450 1.345 . S
N449 C452 1.336 . S
C450 N448 1.335 . S
C450 N449 1.345 . S
C450 H455 0.930 . S
C451 N448 1.390 . S
C451 C452 1.346 . S
C451 H456 0.930 . S
C452 N449 1.336 . S
C452 C451 1.346 . S
C452 H459 0.929 . S
C453 O443 1.282 . S
C453 O454 1.216 . S
O454 C453 1.216 . S
H455 C450 0.930 . S
H456 C451 0.930 . S
O457 Cu437 1.959 . S
O457 C444 1.251 . S
H458 C441 0.930 . S
H459 C452 0.929 . S
Cu460 N461 1.999 . S
Cu460 O466 1.974 . S
Cu460 N471 1.985 . S
Cu460 O480 1.959 . S
N461 Cu460 1.999 . S
N461 C463 1.263 . S
N461 C465 1.389 . S
N462 C463 1.358 . S
N462 C464 1.400 . S
C463 N461 1.263 . S
C463 N462 1.358 . S
C463 H469 0.930 . S
C464 N462 1.400 . S
C464 C465 1.351 . S
C464 H481 0.930 . S
C465 N461 1.389 . S
C465 C464 1.351 . S
C465 H470 0.930 . S
O466 Cu460 1.974 . S
O466 C476 1.282 . S
C467 O468 1.261 . S
C467 O480 1.251 . S
O468 C467 1.261 . S
H469 C463 0.930 . S
H470 C465 0.930 . S
N471 Cu460 1.985 . S
N471 C473 1.335 . S
N471 C474 1.390 . S
N472 C473 1.345 . S
N472 C475 1.336 . S
C473 N471 1.335 . S
C473 N472 1.345 . S
C473 H478 0.930 . S
C474 N471 1.390 . S
C474 C475 1.346 . S
C474 H479 0.930 . S
C475 N472 1.336 . S
C475 C474 1.346 . S
C475 H482 0.929 . S
C476 O466 1.282 . S
C476 O477 1.216 . S
O477 C476 1.216 . S
H478 C473 0.930 . S
H479 C474 0.930 . S
O480 Cu460 1.959 . S
O480 C467 1.251 . S
H481 C464 0.930 . S
H482 C475 0.929 . S
Cu483 N484 1.999 . S
Cu483 O489 1.974 . S
Cu483 N494 1.985 . S
Cu483 O503 1.959 . S
N484 Cu483 1.999 . S
N484 C486 1.263 . S
N484 C488 1.389 . S
N485 C486 1.358 . S
N485 C487 1.400 . S
C486 N484 1.263 . S
C486 N485 1.358 . S
C486 H492 0.930 . S
C487 N485 1.400 . S
C487 C488 1.351 . S
C487 H504 0.930 . S
C488 N484 1.389 . S
C488 C487 1.351 . S
C488 H493 0.930 . S
O489 Cu483 1.974 . S
O489 C499 1.282 . S
C490 O491 1.261 . S
C490 O503 1.251 . S
O491 C490 1.261 . S
H492 C486 0.930 . S
H493 C488 0.930 . S
N494 Cu483 1.985 . S
N494 C496 1.335 . S
N494 C497 1.390 . S
N495 C496 1.345 . S
N495 C498 1.336 . S
C496 N494 1.335 . S
C496 N495 1.345 . S
C496 H501 0.930 . S
C497 N494 1.390 . S
C497 C498 1.346 . S
C497 H502 0.930 . S
C498 N495 1.336 . S
C498 C497 1.346 . S
C498 H505 0.929 . S
C499 O489 1.282 . S
C499 O500 1.216 . S
O500 C499 1.216 . S
H501 C496 0.930 . S
H502 C497 0.930 . S
O503 Cu483 1.959 . S
O503 C490 1.251 . S
H504 C487 0.930 . S
H505 C498 0.929 . S
Cu506 N507 1.999 . S
Cu506 O512 1.974 . S
Cu506 N517 1.985 . S
Cu506 O526 1.959 . S
N507 Cu506 1.999 . S
N507 C509 1.263 . S
N507 C511 1.389 . S
N508 C509 1.358 . S
N508 C510 1.400 . S
C509 N507 1.263 . S
C509 N508 1.358 . S
C509 H515 0.930 . S
C510 N508 1.400 . S
C510 C511 1.351 . S
C510 H527 0.930 . S
C511 N507 1.389 . S
C511 C510 1.351 . S
C511 H516 0.930 . S
O512 Cu506 1.974 . S
O512 C522 1.282 . S
C513 O514 1.261 . S
C513 O526 1.251 . S
O514 C513 1.261 . S
H515 C509 0.930 . S
H516 C511 0.930 . S
N517 Cu506 1.985 . S
N517 C519 1.335 . S
N517 C520 1.390 . S
N518 C519 1.345 . S
N518 C521 1.336 . S
C519 N517 1.335 . S
C519 N518 1.345 . S
C519 H524 0.930 . S
C520 N517 1.390 . S
C520 C521 1.346 . S
C520 H525 0.930 . S
C521 N518 1.336 . S
C521 C520 1.346 . S
C521 H528 0.929 . S
C522 O512 1.282 . S
C522 O523 1.216 . S
O523 C522 1.216 . S
H524 C519 0.930 . S
H525 C520 0.930 . S
O526 Cu506 1.959 . S
O526 C513 1.251 . S
H527 C510 0.930 . S
H528 C521 0.929 . S
Cu529 N530 1.999 . S
Cu529 O535 1.974 . S
Cu529 N540 1.985 . S
Cu529 O549 1.959 . S
N530 Cu529 1.999 . S
N530 C532 1.263 . S
N530 C534 1.389 . S
N531 C532 1.358 . S
N531 C533 1.400 . S
C532 N530 1.263 . S
C532 N531 1.358 . S
C532 H538 0.930 . S
C533 N531 1.400 . S
C533 C534 1.351 . S
C533 H550 0.930 . S
C534 N530 1.389 . S
C534 C533 1.351 . S
C534 H539 0.930 . S
O535 Cu529 1.974 . S
O535 C545 1.282 . S
C536 O537 1.261 . S
C536 O549 1.251 . S
O537 C536 1.261 . S
H538 C532 0.930 . S
H539 C534 0.930 . S
N540 Cu529 1.985 . S
N540 C542 1.335 . S
N540 C543 1.390 . S
N541 C542 1.345 . S
N541 C544 1.336 . S
C542 N540 1.335 . S
C542 N541 1.345 . S
C542 H547 0.930 . S
C543 N540 1.390 . S
C543 C544 1.346 . S
C543 H548 0.930 . S
C544 N541 1.336 . S
C544 C543 1.346 . S
C544 H551 0.929 . S
C545 O535 1.282 . S
C545 O546 1.216 . S
O546 C545 1.216 . S
H547 C542 0.930 . S
H548 C543 0.930 . S
O549 Cu529 1.959 . S
O549 C536 1.251 . S
H550 C533 0.930 . S
H551 C544 0.929 . S
H552 C558 0.930 . S
H553 C562 0.930 . S
H554 C567 0.929 . S
H555 C565 0.929 . S
H556 C560 0.929 . S
H557 C566 0.929 . S
C558 H552 0.930 . S
C558 C559 1.367 . S
C558 C566 1.378 . S
C559 C558 1.367 . S
C559 C567 1.433 . S
C560 H556 0.929 . S
C560 C562 1.378 . S
C560 C564 1.350 . S
C561 C564 1.463 . S
C561 C566 1.350 . S
C561 N569 1.427 . S
C562 H553 0.930 . S
C562 C560 1.378 . S
C562 C563 1.367 . S
C563 C562 1.367 . S
C563 C565 1.433 . S
C564 C560 1.350 . S
C564 C561 1.463 . S
C564 N568 1.427 . S
C565 H555 0.929 . S
C565 C563 1.433 . S
C565 N568 1.384 . S
C566 H557 0.929 . S
C566 C558 1.378 . S
C566 C561 1.350 . S
C567 H554 0.929 . S
C567 C559 1.433 . S
C567 N569 1.384 . S
N568 C564 1.427 . S
N568 C565 1.384 . S
N569 C561 1.427 . S
N569 C567 1.384 . S
H570 C576 0.930 . S
H571 C580 0.930 . S
H572 C585 0.929 . S
H573 C583 0.929 . S
H574 C578 0.929 . S
H575 C584 0.922 1_455 S
C576 H570 0.930 . S
C576 C577 1.367 . S
C576 C584 1.378 . S
C577 C576 1.367 . S
C577 C585 1.433 . S
C578 H574 0.929 . S
C578 C580 1.378 . S
C578 C582 1.350 . S
C579 C582 1.463 . S
C579 C584 1.350 1_455 S
C579 N587 1.427 1_455 S
C580 H571 0.930 . S
C580 C578 1.378 . S
C580 C581 1.367 . S
C581 C580 1.367 . S
C581 C583 1.433 . S
C582 C578 1.350 . S
C582 C579 1.463 . S
C582 N586 1.427 . S
C583 H573 0.929 . S
C583 C581 1.433 . S
C583 N586 1.384 . S
C584 H575 0.922 1_655 S
C584 C576 1.378 . S
C584 C579 1.350 1_655 S
C585 H572 0.929 . S
C585 C577 1.433 . S
C585 N587 1.384 . S
N586 C582 1.427 . S
N586 C583 1.384 . S
N587 C579 1.427 1_655 S
N587 C585 1.384 . S
H588 C594 0.930 . S
H589 C598 0.930 . S
H590 C603 0.929 . S
H591 C601 0.929 . S
H592 C596 0.929 1_554 S
H593 C602 0.929 . S
C594 H588 0.930 . S
C594 C595 1.367 . S
C594 C602 1.378 . S
C595 C594 1.367 . S
C595 C603 1.433 . S
C596 H592 0.929 1_556 S
C596 C598 1.378 . S
C596 C600 1.350 1_556 S
C597 C600 1.463 . S
C597 C602 1.350 . S
C597 N605 1.427 . S
C598 H589 0.930 . S
C598 C596 1.378 . S
C598 C599 1.367 . S
C599 C598 1.367 . S
C599 C601 1.433 . S
C600 C596 1.350 1_554 S
C600 C597 1.463 . S
C600 N604 1.427 1_554 S
C601 H591 0.929 . S
C601 C599 1.433 . S
C601 N604 1.384 . S
C602 H593 0.929 . S
C602 C594 1.378 . S
C602 C597 1.350 . S
C603 H590 0.929 . S
C603 C595 1.433 . S
C603 N605 1.384 . S
N604 C600 1.427 1_556 S
N604 C601 1.384 . S
N605 C597 1.427 . S
N605 C603 1.384 . S
H606 C612 0.930 . S
H607 C616 0.930 . S
H608 C621 0.929 . S
H609 C619 0.929 . S
H610 C614 0.929 . S
H611 C620 0.929 . S
C612 H606 0.930 . S
C612 C613 1.367 . S
C612 C620 1.378 . S
C613 C612 1.367 . S
C613 C621 1.433 . S
C614 H610 0.929 . S
C614 C616 1.378 . S
C614 C618 1.350 . S
C615 C618 1.463 . S
C615 C620 1.350 . S
C615 N623 1.427 . S
C616 H607 0.930 . S
C616 C614 1.378 . S
C616 C617 1.367 . S
C617 C616 1.367 . S
C617 C619 1.433 . S
C618 C614 1.350 . S
C618 C615 1.463 . S
C618 N622 1.427 . S
C619 H609 0.929 . S
C619 C617 1.433 . S
C619 N622 1.384 . S
C620 H611 0.929 . S
C620 C612 1.378 . S
C620 C615 1.350 . S
C621 H608 0.929 . S
C621 C613 1.433 . S
C621 N623 1.384 . S
N622 C618 1.427 . S
N622 C619 1.384 . S
N623 C615 1.427 . S
N623 C621 1.384 . S
H624 C630 0.930 . S
H625 C634 0.930 . S
H626 C639 0.929 . S
H627 C637 0.929 . S
H628 C632 0.929 . S
H629 C638 0.929 . S
C630 H624 0.930 . S
C630 C631 1.367 . S
C630 C638 1.378 1_556 S
C631 C630 1.367 . S
C631 C639 1.433 . S
C632 H628 0.929 . S
C632 C634 1.378 . S
C632 C636 1.350 . S
C633 C636 1.463 . S
C633 C638 1.350 . S
C633 N641 1.427 1_554 S
C634 H625 0.930 . S
C634 C632 1.378 . S
C634 C635 1.367 . S
C635 C634 1.367 . S
C635 C637 1.433 . S
C636 C632 1.350 . S
C636 C633 1.463 . S
C636 N640 1.427 . S
C637 H627 0.929 . S
C637 C635 1.433 . S
C637 N640 1.384 . S
C638 H629 0.929 . S
C638 C630 1.378 1_554 S
C638 C633 1.350 . S
C639 H626 0.929 . S
C639 C631 1.433 . S
C639 N641 1.384 . S
N640 C636 1.427 . S
N640 C637 1.384 . S
N641 C633 1.427 1_556 S
N641 C639 1.384 . S
H642 C648 0.930 . S
H643 C652 0.930 . S
H644 C657 0.929 . S
H645 C655 0.929 . S
H646 C650 0.929 . S
H647 C656 0.929 . S
C648 H642 0.930 . S
C648 C649 1.367 . S
C648 C656 1.378 . S
C649 C648 1.367 . S
C649 C657 1.433 . S
C650 H646 0.929 . S
C650 C652 1.378 . S
C650 C654 1.350 . S
C651 C654 1.463 . S
C651 C656 1.350 . S
C651 N659 1.427 . S
C652 H643 0.930 . S
C652 C650 1.378 . S
C652 C653 1.367 . S
C653 C652 1.367 . S
C653 C655 1.433 . S
C654 C650 1.350 . S
C654 C651 1.463 . S
C654 N658 1.427 . S
C655 H645 0.929 . S
C655 C653 1.433 . S
C655 N658 1.384 . S
C656 H647 0.929 . S
C656 C648 1.378 . S
C656 C651 1.350 . S
C657 H644 0.929 . S
C657 C649 1.433 . S
C657 N659 1.384 . S
N658 C654 1.427 . S
N658 C655 1.384 . S
N659 C651 1.427 . S
N659 C657 1.384 . S
H660 C666 0.930 . S
H661 C670 0.930 . S
H662 C675 0.929 . S
H663 C673 0.929 . S
H664 C668 0.929 . S
H665 C674 0.929 . S
C666 H660 0.930 . S
C666 C667 1.367 . S
C666 C674 1.378 . S
C667 C666 1.367 . S
C667 C675 1.433 . S
C668 H664 0.929 . S
C668 C670 1.378 . S
C668 C672 1.350 . S
C669 C672 1.463 . S
C669 C674 1.350 . S
C669 N677 1.427 . S
C670 H661 0.930 . S
C670 C668 1.378 . S
C670 C671 1.367 . S
C671 C670 1.367 . S
C671 C673 1.433 . S
C672 C668 1.350 . S
C672 C669 1.463 . S
C672 N676 1.427 . S
C673 H663 0.929 . S
C673 C671 1.433 . S
C673 N676 1.384 . S
C674 H665 0.929 . S
C674 C666 1.378 . S
C674 C669 1.350 . S
C675 H662 0.929 . S
C675 C667 1.433 . S
C675 N677 1.384 . S
N676 C672 1.427 . S
N676 C673 1.384 . S
N677 C669 1.427 . S
N677 C675 1.384 . S
H678 C684 0.930 . S
H679 C688 0.930 . S
H680 C693 0.929 . S
H681 C691 0.929 . S
H682 C686 0.929 . S
H683 C692 0.929 . S
C684 H678 0.930 . S
C684 C685 1.367 . S
C684 C692 1.378 . S
C685 C684 1.367 . S
C685 C693 1.433 . S
C686 H682 0.929 . S
C686 C688 1.378 . S
C686 C690 1.350 . S
C687 C690 1.463 1_455 S
C687 C692 1.350 . S
C687 N695 1.427 . S
C688 H679 0.930 . S
C688 C686 1.378 . S
C688 C689 1.367 . S
C689 C688 1.367 . S
C689 C691 1.433 . S
C690 C686 1.350 . S
C690 C687 1.463 1_655 S
C690 N694 1.427 . S
C691 H681 0.929 . S
C691 C689 1.433 . S
C691 N694 1.384 . S
C692 H683 0.929 . S
C692 C684 1.378 . S
C692 C687 1.350 . S
C693 H680 0.929 . S
C693 C685 1.433 . S
C693 N695 1.384 . S
N694 C690 1.427 . S
N694 C691 1.384 . S
N695 C687 1.427 . S
N695 C693 1.384 . S
H696 C702 0.930 . S
H697 C706 0.930 . S
H698 C711 0.929 . S
H699 C709 0.929 . S
H700 C704 0.929 . S
H701 C710 0.929 . S
C702 H696 0.930 . S
C702 C703 1.367 . S
C702 C710 1.378 . S
C703 C702 1.367 . S
C703 C711 1.433 . S
C704 H700 0.929 . S
C704 C706 1.378 . S
C704 C708 1.350 . S
C705 C708 1.463 . S
C705 C710 1.350 . S
C705 N713 1.427 . S
C706 H697 0.930 . S
C706 C704 1.378 . S
C706 C707 1.367 . S
C707 C706 1.367 . S
C707 C709 1.433 . S
C708 C704 1.350 . S
C708 C705 1.463 . S
C708 N712 1.427 . S
C709 H699 0.929 . S
C709 C707 1.433 . S
C709 N712 1.384 . S
C710 H701 0.929 . S
C710 C702 1.378 . S
C710 C705 1.350 . S
C711 H698 0.929 . S
C711 C703 1.433 . S
C711 N713 1.384 . S
N712 C708 1.427 . S
N712 C709 1.384 . S
N713 C705 1.427 . S
N713 C711 1.384 . S
H714 C720 0.930 . S
H715 C724 0.930 . S
H716 C729 0.929 . S
H717 C727 0.929 . S
H718 C722 0.929 . S
H719 C728 0.937 . S
C720 H714 0.930 . S
C720 C721 1.367 . S
C720 C728 1.351 1_545 S
C721 C720 1.367 . S
C721 C729 1.433 . S
C722 H718 0.929 . S
C722 C724 1.378 . S
C722 C726 1.350 . S
C723 C726 1.463 . S
C723 C728 1.370 . S
C723 N731 1.427 . S
C724 H715 0.930 . S
C724 C722 1.378 . S
C724 C725 1.367 . S
C725 C724 1.367 . S
C725 C727 1.433 . S
C726 C722 1.350 . S
C726 C723 1.463 . S
C726 N730 1.427 . S
C727 H717 0.929 . S
C727 C725 1.433 . S
C727 N730 1.384 . S
C728 H719 0.937 . S
C728 C720 1.351 1_565 S
C728 C723 1.370 . S
C729 H716 0.929 . S
C729 C721 1.433 . S
C729 N731 1.384 1_545 S
N730 C726 1.427 . S
N730 C727 1.384 . S
N731 C723 1.427 . S
N731 C729 1.384 1_565 S
H732 C738 0.930 . S
H733 C742 0.930 . S
H734 C747 0.929 . S
H735 C745 0.929 . S
H736 C740 0.929 . S
H737 C746 0.929 . S
C738 H732 0.930 . S
C738 C739 1.367 . S
C738 C746 1.378 . S
C739 C738 1.367 . S
C739 C747 1.433 . S
C740 H736 0.929 . S
C740 C742 1.378 . S
C740 C744 1.350 . S
C741 C744 1.463 1_545 S
C741 C746 1.350 . S
C741 N749 1.427 . S
C742 H733 0.930 . S
C742 C740 1.378 . S
C742 C743 1.367 . S
C743 C742 1.367 . S
C743 C745 1.433 . S
C744 C740 1.350 . S
C744 C741 1.463 1_565 S
C744 N748 1.427 . S
C745 H735 0.929 . S
C745 C743 1.433 . S
C745 N748 1.384 . S
C746 H737 0.929 . S
C746 C738 1.378 . S
C746 C741 1.350 . S
C747 H734 0.929 . S
C747 C739 1.433 . S
C747 N749 1.384 . S
N748 C744 1.427 . S
N748 C745 1.384 . S
N749 C741 1.427 . S
N749 C747 1.384 . S
H750 C756 0.930 . S
H751 C760 0.930 . S
H752 C765 0.929 . S
H753 C763 0.929 . S
H754 C758 0.929 . S
H755 C764 0.929 . S
C756 H750 0.930 . S
C756 C757 1.367 . S
C756 C764 1.378 . S
C757 C756 1.367 . S
C757 C765 1.433 . S
C758 H754 0.929 . S
C758 C760 1.378 . S
C758 C762 1.350 . S
C759 C762 1.481 . S
C759 C764 1.337 1_565 S
C759 N767 1.423 1_565 S
C760 H751 0.930 . S
C760 C758 1.378 . S
C760 C761 1.367 . S
C761 C760 1.367 . S
C761 C763 1.433 . S
C762 C758 1.350 . S
C762 C759 1.481 . S
C762 N766 1.427 . S
C763 H753 0.929 . S
C763 C761 1.433 . S
C763 N766 1.384 . S
C764 H755 0.929 . S
C764 C756 1.378 . S
C764 C759 1.337 1_545 S
C765 H752 0.929 . S
C765 C757 1.433 . S
C765 N767 1.384 . S
N766 C762 1.427 . S
N766 C763 1.384 . S
N767 C759 1.423 1_545 S
N767 C765 1.384 . S
H768 C774 0.930 . S
H769 C778 0.930 . S
H770 C783 0.929 . S
H771 C781 0.929 . S
H772 C776 0.929 . S
H773 C782 0.929 . S
C774 H768 0.930 . S
C774 C775 1.367 . S
C774 C782 1.378 . S
C775 C774 1.367 . S
C775 C783 1.433 . S
C776 H772 0.929 . S
C776 C778 1.378 . S
C776 C780 1.350 . S
C777 C780 1.463 . S
C777 C782 1.350 . S
C777 N785 1.427 . S
C778 H769 0.930 . S
C778 C776 1.378 . S
C778 C779 1.367 . S
C779 C778 1.367 . S
C779 C781 1.433 . S
C780 C776 1.350 . S
C780 C777 1.463 . S
C780 N784 1.427 . S
C781 H771 0.929 . S
C781 C779 1.433 . S
C781 N784 1.384 . S
C782 H773 0.929 . S
C782 C774 1.378 . S
C782 C777 1.350 . S
C783 H770 0.929 . S
C783 C775 1.433 . S
C783 N785 1.384 . S
N784 C780 1.427 . S
N784 C781 1.384 . S
N785 C777 1.427 . S
N785 C783 1.384 . S
H786 C792 0.930 . S
H787 C796 0.930 . S
H788 C801 0.929 . S
H789 C799 0.929 . S
H790 C794 0.929 . S
H791 C800 0.929 . S
C792 H786 0.930 . S
C792 C793 1.367 . S
C792 C800 1.378 . S
C793 C792 1.367 . S
C793 C801 1.433 . S
C794 H790 0.929 . S
C794 C796 1.378 . S
C794 C798 1.350 . S
C795 C798 1.463 . S
C795 C800 1.350 . S
C795 N803 1.427 . S
C796 H787 0.930 . S
C796 C794 1.378 . S
C796 C797 1.367 . S
C797 C796 1.367 . S
C797 C799 1.433 . S
C798 C794 1.350 . S
C798 C795 1.463 . S
C798 N802 1.427 . S
C799 H789 0.929 . S
C799 C797 1.433 . S
C799 N802 1.384 . S
C800 H791 0.929 . S
C800 C792 1.378 . S
C800 C795 1.350 . S
C801 H788 0.929 . S
C801 C793 1.433 . S
C801 N803 1.384 . S
N802 C798 1.427 . S
N802 C799 1.384 . S
N803 C795 1.427 . S
N803 C801 1.384 . S
H804 C810 0.930 . S
H805 C814 0.930 . S
H806 C819 0.929 . S
H807 C817 0.929 . S
H808 C812 0.929 . S
H809 C818 0.929 . S
C810 H804 0.930 . S
C810 C811 1.367 . S
C810 C818 1.378 . S
C811 C810 1.367 . S
C811 C819 1.433 . S
C812 H808 0.929 . S
C812 C814 1.378 . S
C812 C816 1.350 . S
C813 C816 1.463 . S
C813 C818 1.350 . S
C813 N821 1.427 . S
C814 H805 0.930 . S
C814 C812 1.378 . S
C814 C815 1.367 . S
C815 C814 1.367 . S
C815 C817 1.433 . S
C816 C812 1.350 . S
C816 C813 1.463 . S
C816 N820 1.427 . S
C817 H807 0.929 . S
C817 C815 1.433 . S
C817 N820 1.384 . S
C818 H809 0.929 . S
C818 C810 1.378 . S
C818 C813 1.350 . S
C819 H806 0.929 . S
C819 C811 1.433 . S
C819 N821 1.384 . S
N820 C816 1.427 . S
N820 C817 1.384 . S
N821 C813 1.427 . S
N821 C819 1.384 . S
H822 C828 0.930 . S
H823 C832 0.930 . S
H824 C837 0.929 . S
H825 C835 0.929 . S
H826 C830 0.929 . S
H827 C836 0.929 . S
C828 H822 0.930 . S
C828 C829 1.367 . S
C828 C836 1.378 1_556 S
C829 C828 1.367 . S
C829 C837 1.433 . S
C830 H826 0.929 . S
C830 C832 1.378 . S
C830 C834 1.350 . S
C831 C834 1.463 . S
C831 C836 1.350 . S
C831 N839 1.427 1_554 S
C832 H823 0.930 . S
C832 C830 1.378 . S
C832 C833 1.367 . S
C833 C832 1.367 . S
C833 C835 1.433 . S
C834 C830 1.350 . S
C834 C831 1.463 . S
C834 N838 1.427 . S
C835 H825 0.929 . S
C835 C833 1.433 . S
C835 N838 1.384 . S
C836 H827 0.929 . S
C836 C828 1.378 1_554 S
C836 C831 1.350 . S
C837 H824 0.929 . S
C837 C829 1.433 . S
C837 N839 1.384 . S
N838 C834 1.427 . S
N838 C835 1.384 . S
N839 C831 1.427 1_556 S
N839 C837 1.384 . S
H840 C846 0.930 . S
H841 C850 0.930 . S
H842 C855 0.929 . S
H843 C853 0.929 . S
H844 C848 0.929 . S
H845 C854 0.929 . S
C846 H840 0.930 . S
C846 C847 1.367 . S
C846 C854 1.378 . S
C847 C846 1.367 . S
C847 C855 1.433 . S
C848 H844 0.929 . S
C848 C850 1.378 . S
C848 C852 1.350 . S
C849 C852 1.463 . S
C849 C854 1.350 . S
C849 N857 1.427 . S
C850 H841 0.930 . S
C850 C848 1.378 . S
C850 C851 1.367 . S
C851 C850 1.367 . S
C851 C853 1.433 . S
C852 C848 1.350 . S
C852 C849 1.463 . S
C852 N856 1.427 . S
C853 H843 0.929 . S
C853 C851 1.433 . S
C853 N856 1.384 . S
C854 H845 0.929 . S
C854 C846 1.378 . S
C854 C849 1.350 . S
C855 H842 0.929 . S
C855 C847 1.433 . S
C855 N857 1.384 . S
N856 C852 1.427 . S
N856 C853 1.384 . S
N857 C849 1.427 . S
N857 C855 1.384 . S
H858 C864 0.930 . S
H859 C868 0.930 . S
H860 C873 0.929 . S
H861 C871 0.929 . S
H862 C866 0.929 . S
H863 C872 0.929 . S
C864 H858 0.930 . S
C864 C865 1.367 . S
C864 C872 1.378 . S
C865 C864 1.367 . S
C865 C873 1.433 . S
C866 H862 0.929 . S
C866 C868 1.378 . S
C866 C870 1.350 . S
C867 C870 1.463 . S
C867 C872 1.350 . S
C867 N875 1.427 . S
C868 H859 0.930 . S
C868 C866 1.378 . S
C868 C869 1.367 . S
C869 C868 1.367 . S
C869 C871 1.433 . S
C870 C866 1.350 . S
C870 C867 1.463 . S
C870 N874 1.427 . S
C871 H861 0.929 . S
C871 C869 1.433 . S
C871 N874 1.384 . S
C872 H863 0.929 . S
C872 C864 1.378 . S
C872 C867 1.350 . S
C873 H860 0.929 . S
C873 C865 1.433 . S
C873 N875 1.384 . S
N874 C870 1.427 . S
N874 C871 1.384 . S
N875 C867 1.427 . S
N875 C873 1.384 . S
H876 C882 0.930 . S
H877 C886 0.930 . S
H878 C891 0.929 . S
H879 C889 0.929 . S
H880 C884 0.929 1_655 S
H881 C890 0.929 . S
C882 H876 0.930 . S
C882 C883 1.367 . S
C882 C890 1.378 1_655 S
C883 C882 1.367 . S
C883 C891 1.433 . S
C884 H880 0.929 1_455 S
C884 C886 1.378 . S
C884 C888 1.350 . S
C885 C888 1.463 . S
C885 C890 1.350 . S
C885 N893 1.427 1_455 S
C886 H877 0.930 . S
C886 C884 1.378 . S
C886 C887 1.367 . S
C887 C886 1.367 . S
C887 C889 1.433 . S
C888 C884 1.350 . S
C888 C885 1.463 . S
C888 N892 1.427 . S
C889 H879 0.929 . S
C889 C887 1.433 . S
C889 N892 1.384 . S
C890 H881 0.929 . S
C890 C882 1.378 1_455 S
C890 C885 1.350 . S
C891 H878 0.929 . S
C891 C883 1.433 . S
C891 N893 1.384 . S
N892 C888 1.427 . S
N892 C889 1.384 . S
N893 C885 1.427 1_655 S
N893 C891 1.384 . S
H894 C900 0.930 . S
H895 C904 0.930 . S
H896 C909 0.929 . S
H897 C907 0.929 . S
H898 C902 0.929 . S
H899 C908 0.929 . S
C900 H894 0.930 . S
C900 C901 1.367 . S
C900 C908 1.378 . S
C901 C900 1.367 . S
C901 C909 1.433 . S
C902 H898 0.929 . S
C902 C904 1.378 . S
C902 C906 1.350 . S
C903 C906 1.463 . S
C903 C908 1.350 . S
C903 N911 1.427 . S
C904 H895 0.930 . S
C904 C902 1.378 . S
C904 C905 1.367 . S
C905 C904 1.367 . S
C905 C907 1.433 . S
C906 C902 1.350 . S
C906 C903 1.463 . S
C906 N910 1.427 . S
C907 H897 0.929 . S
C907 C905 1.433 . S
C907 N910 1.384 . S
C908 H899 0.929 . S
C908 C900 1.378 . S
C908 C903 1.350 . S
C909 H896 0.929 . S
C909 C901 1.433 . S
C909 N911 1.384 . S
N910 C906 1.427 . S
N910 C907 1.384 . S
N911 C903 1.427 . S
N911 C909 1.384 . S
H912 C918 0.930 . S
H913 C922 0.930 . S
H914 C927 0.929 . S
H915 C925 0.929 . S
H916 C920 0.929 . S
H917 C926 0.929 . S
C918 H912 0.930 . S
C918 C919 1.367 . S
C918 C926 1.378 . S
C919 C918 1.367 . S
C919 C927 1.433 . S
C920 H916 0.929 . S
C920 C922 1.378 . S
C920 C924 1.350 . S
C921 C924 1.463 1_455 S
C921 C926 1.350 . S
C921 N929 1.427 . S
C922 H913 0.930 . S
C922 C920 1.378 . S
C922 C923 1.367 . S
C923 C922 1.367 . S
C923 C925 1.433 . S
C924 C920 1.350 . S
C924 C921 1.463 1_655 S
C924 N928 1.427 . S
C925 H915 0.929 . S
C925 C923 1.433 . S
C925 N928 1.384 . S
C926 H917 0.929 . S
C926 C918 1.378 . S
C926 C921 1.350 . S
C927 H914 0.929 . S
C927 C919 1.433 . S
C927 N929 1.384 . S
N928 C924 1.427 . S
N928 C925 1.384 . S
N929 C921 1.427 . S
N929 C927 1.384 . S
H930 C936 0.930 . S
H931 C940 0.930 . S
H932 C945 0.929 . S
H933 C943 0.929 . S
H934 C938 0.929 1_556 S
H935 C944 0.929 . S
C936 H930 0.930 . S
C936 C937 1.367 . S
C936 C944 1.378 . S
C937 C936 1.367 . S
C937 C945 1.433 . S
C938 H934 0.929 1_554 S
C938 C940 1.378 . S
C938 C942 1.350 . S
C939 C942 1.463 1_556 S
C939 C944 1.350 . S
C939 N947 1.427 . S
C940 H931 0.930 . S
C940 C938 1.378 . S
C940 C941 1.367 . S
C941 C940 1.367 . S
C941 C943 1.433 . S
C942 C938 1.350 . S
C942 C939 1.463 1_554 S
C942 N946 1.427 . S
C943 H933 0.929 . S
C943 C941 1.433 . S
C943 N946 1.384 . S
C944 H935 0.929 . S
C944 C936 1.378 . S
C944 C939 1.350 . S
C945 H932 0.929 . S
C945 C937 1.433 . S
C945 N947 1.384 . S
N946 C942 1.427 . S
N946 C943 1.384 . S
N947 C939 1.427 . S
N947 C945 1.384 . S
H948 C954 0.930 . S
H949 C958 0.930 . S
H950 C963 0.929 . S
H951 C961 0.929 . S
H952 C956 0.929 . S
H953 C962 0.929 . S
C954 H948 0.930 . S
C954 C955 1.367 . S
C954 C962 1.378 . S
C955 C954 1.367 . S
C955 C963 1.433 . S
C956 H952 0.929 . S
C956 C958 1.378 . S
C956 C960 1.350 . S
C957 C960 1.463 . S
C957 C962 1.350 . S
C957 N965 1.427 . S
C958 H949 0.930 . S
C958 C956 1.378 . S
C958 C959 1.367 . S
C959 C958 1.367 . S
C959 C961 1.433 . S
C960 C956 1.350 . S
C960 C957 1.463 . S
C960 N964 1.427 . S
C961 H951 0.929 . S
C961 C959 1.433 . S
C961 N964 1.384 . S
C962 H953 0.929 . S
C962 C954 1.378 . S
C962 C957 1.350 . S
C963 H950 0.929 . S
C963 C955 1.433 . S
C963 N965 1.384 . S
N964 C960 1.427 . S
N964 C961 1.384 . S
N965 C957 1.427 . S
N965 C963 1.384 . S
H966 C972 0.930 . S
H967 C976 0.930 . S
H968 C981 0.929 . S
H969 C979 0.929 . S
H970 C974 0.929 . S
H971 C980 0.929 . S
C972 H966 0.930 . S
C972 C973 1.367 . S
C972 C980 1.378 1_565 S
C973 C972 1.367 . S
C973 C981 1.433 . S
C974 H970 0.929 . S
C974 C976 1.378 . S
C974 C978 1.350 . S
C975 C978 1.463 . S
C975 C980 1.350 . S
C975 N983 1.427 1_545 S
C976 H967 0.930 . S
C976 C974 1.378 . S
C976 C977 1.367 . S
C977 C976 1.367 . S
C977 C979 1.433 . S
C978 C974 1.350 . S
C978 C975 1.463 . S
C978 N982 1.427 . S
C979 H969 0.929 . S
C979 C977 1.433 . S
C979 N982 1.384 . S
C980 H971 0.929 . S
C980 C972 1.378 1_545 S
C980 C975 1.350 . S
C981 H968 0.929 . S
C981 C973 1.433 . S
C981 N983 1.384 . S
N982 C978 1.427 . S
N982 C979 1.384 . S
N983 C975 1.427 1_565 S
N983 C981 1.384 . S
H984 C990 0.930 . S
H985 C994 0.930 . S
H986 C999 0.929 . S
H987 C997 0.929 . S
H988 C992 0.929 . S
H989 C998 0.929 . S
C990 H984 0.930 . S
C990 C991 1.367 . S
C990 C998 1.378 . S
C991 C990 1.367 . S
C991 C999 1.433 . S
C992 H988 0.929 . S
C992 C994 1.378 . S
C992 C996 1.350 . S
C993 C996 1.463 . S
C993 C998 1.350 . S
C993 N1001 1.427 . S
C994 H985 0.930 . S
C994 C992 1.378 . S
C994 C995 1.367 . S
C995 C994 1.367 . S
C995 C997 1.433 . S
C996 C992 1.350 . S
C996 C993 1.463 . S
C996 N1000 1.427 . S
C997 H987 0.929 . S
C997 C995 1.433 . S
C997 N1000 1.384 . S
C998 H989 0.929 . S
C998 C990 1.378 . S
C998 C993 1.350 . S
C999 H986 0.929 . S
C999 C991 1.433 . S
C999 N1001 1.384 . S
N1000 C996 1.427 . S
N1000 C997 1.384 . S
N1001 C993 1.427 . S
N1001 C999 1.384 . S
H1002 C1008 0.930 . S
H1003 C1012 0.930 . S
H1004 C1017 0.929 . S
H1005 C1015 0.929 . S
H1006 C1010 0.929 . S
H1007 C1016 0.929 . S
C1008 H1002 0.930 . S
C1008 C1009 1.367 . S
C1008 C1016 1.378 . S
C1009 C1008 1.367 . S
C1009 C1017 1.433 . S
C1010 H1006 0.929 . S
C1010 C1012 1.378 . S
C1010 C1014 1.350 . S
C1011 C1014 1.463 . S
C1011 C1016 1.350 . S
C1011 N1019 1.427 . S
C1012 H1003 0.930 . S
C1012 C1010 1.378 . S
C1012 C1013 1.367 . S
C1013 C1012 1.367 . S
C1013 C1015 1.433 . S
C1014 C1010 1.350 . S
C1014 C1011 1.463 . S
C1014 N1018 1.427 . S
C1015 H1005 0.929 . S
C1015 C1013 1.433 . S
C1015 N1018 1.384 . S
C1016 H1007 0.929 . S
C1016 C1008 1.378 . S
C1016 C1011 1.350 . S
C1017 H1004 0.929 . S
C1017 C1009 1.433 . S
C1017 N1019 1.384 . S
N1018 C1014 1.427 . S
N1018 C1015 1.384 . S
N1019 C1011 1.427 . S
N1019 C1017 1.384 . S
H1020 C1026 0.930 . S
H1021 C1030 0.930 . S
H1022 C1035 0.929 . S
H1023 C1033 0.929 . S
H1024 C1028 0.929 . S
H1025 C1034 0.929 . S
C1026 H1020 0.930 . S
C1026 C1027 1.367 . S
C1026 C1034 1.378 . S
C1027 C1026 1.367 . S
C1027 C1035 1.433 . S
C1028 H1024 0.929 . S
C1028 C1030 1.378 . S
C1028 C1032 1.350 . S
C1029 C1032 1.463 . S
C1029 C1034 1.350 . S
C1029 N1037 1.427 . S
C1030 H1021 0.930 . S
C1030 C1028 1.378 . S
C1030 C1031 1.367 . S
C1031 C1030 1.367 . S
C1031 C1033 1.433 . S
C1032 C1028 1.350 . S
C1032 C1029 1.463 . S
C1032 N1036 1.427 . S
C1033 H1023 0.929 . S
C1033 C1031 1.433 . S
C1033 N1036 1.384 . S
C1034 H1025 0.929 . S
C1034 C1026 1.378 . S
C1034 C1029 1.350 . S
C1035 H1022 0.929 . S
C1035 C1027 1.433 . S
C1035 N1037 1.384 . S
N1036 C1032 1.427 . S
N1036 C1033 1.384 . S
N1037 C1029 1.427 . S
N1037 C1035 1.384 . S
H1038 C1044 0.930 . S
H1039 C1048 0.930 . S
H1040 C1053 0.929 . S
H1041 C1051 0.929 . S
H1042 C1046 0.929 . S
H1043 C1052 0.929 1_554 S
C1044 H1038 0.930 . S
C1044 C1045 1.367 . S
C1044 C1052 1.378 . S
C1045 C1044 1.367 . S
C1045 C1053 1.433 . S
C1046 H1042 0.929 . S
C1046 C1048 1.378 1_556 S
C1046 C1050 1.350 1_556 S
C1047 C1050 1.463 1_556 S
C1047 C1052 1.350 . S
C1047 N1055 1.427 . S
C1048 H1039 0.930 . S
C1048 C1046 1.378 1_554 S
C1048 C1049 1.367 . S
C1049 C1048 1.367 . S
C1049 C1051 1.433 . S
C1050 C1046 1.350 1_554 S
C1050 C1047 1.463 1_554 S
C1050 N1054 1.427 . S
C1051 H1041 0.929 . S
C1051 C1049 1.433 . S
C1051 N1054 1.384 . S
C1052 H1043 0.929 1_556 S
C1052 C1044 1.378 . S
C1052 C1047 1.350 . S
C1053 H1040 0.929 . S
C1053 C1045 1.433 . S
C1053 N1055 1.384 . S
N1054 C1050 1.427 . S
N1054 C1051 1.384 . S
N1055 C1047 1.427 . S
N1055 C1053 1.384 . S
H1056 C1062 0.930 . S
H1057 C1066 0.930 . S
H1058 C1071 0.929 . S
H1059 C1069 0.929 . S
H1060 C1064 0.929 . S
H1061 C1070 0.929 . S
C1062 H1056 0.930 . S
C1062 C1063 1.367 . S
C1062 C1070 1.378 . S
C1063 C1062 1.367 . S
C1063 C1071 1.433 . S
C1064 H1060 0.929 . S
C1064 C1066 1.378 . S
C1064 C1068 1.350 . S
C1065 C1068 1.463 . S
C1065 C1070 1.350 . S
C1065 N1073 1.427 . S
C1066 H1057 0.930 . S
C1066 C1064 1.378 . S
C1066 C1067 1.367 . S
C1067 C1066 1.367 . S
C1067 C1069 1.433 . S
C1068 C1064 1.350 . S
C1068 C1065 1.463 . S
C1068 N1072 1.427 . S
C1069 H1059 0.929 . S
C1069 C1067 1.433 . S
C1069 N1072 1.384 . S
C1070 H1061 0.929 . S
C1070 C1062 1.378 . S
C1070 C1065 1.350 . S
C1071 H1058 0.929 . S
C1071 C1063 1.433 . S
C1071 N1073 1.384 . S
N1072 C1068 1.427 . S
N1072 C1069 1.384 . S
N1073 C1065 1.427 . S
N1073 C1071 1.384 . S
H1074 C1080 0.930 . S
H1075 C1084 0.930 . S
H1076 C1089 0.929 . S
H1077 C1087 0.929 . S
H1078 C1082 0.945 . S
H1079 C1088 0.929 . S
C1080 H1074 0.930 . S
C1080 C1081 1.367 . S
C1080 C1088 1.378 . S
C1081 C1080 1.367 . S
C1081 C1089 1.433 . S
C1082 H1078 0.945 . S
C1082 C1084 1.378 . S
C1082 C1086 1.350 . S
C1083 C1086 1.463 1_545 S
C1083 C1088 1.350 . S
C1083 N1091 1.427 . S
C1084 H1075 0.930 . S
C1084 C1082 1.378 . S
C1084 C1085 1.367 . S
C1085 C1084 1.367 . S
C1085 C1087 1.433 . S
C1086 C1082 1.350 . S
C1086 C1083 1.463 1_565 S
C1086 N1090 1.427 . S
C1087 H1077 0.929 . S
C1087 C1085 1.433 . S
C1087 N1090 1.384 . S
C1088 H1079 0.929 . S
C1088 C1080 1.378 . S
C1088 C1083 1.350 . S
C1089 H1076 0.929 . S
C1089 C1081 1.433 . S
C1089 N1091 1.384 . S
N1090 C1086 1.427 . S
N1090 C1087 1.384 . S
N1091 C1083 1.427 . S
N1091 C1089 1.384 . S
H1092 C1098 0.930 . S
H1093 C1102 0.930 . S
H1094 C1107 0.929 . S
H1095 C1105 0.929 . S
H1096 C1100 0.934 . S
H1097 C1106 0.929 . S
C1098 H1092 0.930 . S
C1098 C1099 1.367 . S
C1098 C1106 1.378 . S
C1099 C1098 1.367 . S
C1099 C1107 1.433 . S
C1100 H1096 0.934 . S
C1100 C1102 1.378 . S
C1100 C1104 1.350 1_556 S
C1101 C1104 1.463 . S
C1101 C1106 1.350 . S
C1101 N1109 1.427 . S
C1102 H1093 0.930 . S
C1102 C1100 1.378 . S
C1102 C1103 1.367 . S
C1103 C1102 1.367 . S
C1103 C1105 1.433 . S
C1104 C1100 1.350 1_554 S
C1104 C1101 1.463 . S
C1104 N1108 1.427 . S
C1105 H1095 0.929 . S
C1105 C1103 1.433 . S
C1105 N1108 1.384 1_556 S
C1106 H1097 0.929 . S
C1106 C1098 1.378 . S
C1106 C1101 1.350 . S
C1107 H1094 0.929 . S
C1107 C1099 1.433 . S
C1107 N1109 1.384 . S
N1108 C1104 1.427 . S
N1108 C1105 1.384 1_554 S
N1109 C1101 1.427 . S
N1109 C1107 1.384 . S
H1110 C1116 0.930 . S
H1111 C1120 0.930 . S
H1112 C1125 0.929 . S
H1113 C1123 0.929 . S
H1114 C1118 0.929 . S
H1115 C1124 0.929 . S
C1116 H1110 0.930 . S
C1116 C1117 1.367 . S
C1116 C1124 1.378 . S
C1117 C1116 1.367 . S
C1117 C1125 1.433 . S
C1118 H1114 0.929 . S
C1118 C1120 1.378 . S
C1118 C1122 1.350 1_565 S
C1119 C1122 1.463 . S
C1119 C1124 1.350 . S
C1119 N1127 1.427 . S
C1120 H1111 0.930 . S
C1120 C1118 1.378 . S
C1120 C1121 1.367 . S
C1121 C1120 1.367 . S
C1121 C1123 1.433 . S
C1122 C1118 1.350 1_545 S
C1122 C1119 1.463 . S
C1122 N1126 1.427 1_545 S
C1123 H1113 0.929 . S
C1123 C1121 1.433 . S
C1123 N1126 1.384 . S
C1124 H1115 0.929 . S
C1124 C1116 1.378 . S
C1124 C1119 1.350 . S
C1125 H1112 0.929 . S
C1125 C1117 1.433 . S
C1125 N1127 1.384 . S
N1126 C1122 1.427 1_565 S
N1126 C1123 1.384 . S
N1127 C1119 1.427 . S
N1127 C1125 1.384 . S
H1128 C1134 0.930 . S
H1129 C1138 0.930 . S
H1130 C1143 0.929 . S
H1131 C1141 0.929 . S
H1132 C1136 0.929 . S
H1133 C1142 0.929 . S
C1134 H1128 0.930 . S
C1134 C1135 1.367 . S
C1134 C1142 1.378 . S
C1135 C1134 1.367 . S
C1135 C1143 1.433 . S
C1136 H1132 0.929 . S
C1136 C1138 1.378 . S
C1136 C1140 1.350 . S
C1137 C1140 1.463 . S
C1137 C1142 1.350 . S
C1137 N1145 1.427 . S
C1138 H1129 0.930 . S
C1138 C1136 1.378 . S
C1138 C1139 1.367 . S
C1139 C1138 1.367 . S
C1139 C1141 1.433 . S
C1140 C1136 1.350 . S
C1140 C1137 1.463 . S
C1140 N1144 1.427 . S
C1141 H1131 0.929 . S
C1141 C1139 1.433 . S
C1141 N1144 1.384 . S
C1142 H1133 0.929 . S
C1142 C1134 1.378 . S
C1142 C1137 1.350 . S
C1143 H1130 0.929 . S
C1143 C1135 1.433 . S
C1143 N1145 1.384 . S
N1144 C1140 1.427 . S
N1144 C1141 1.384 . S
N1145 C1137 1.427 . S
N1145 C1143 1.384 . S
H1146 C1152 0.930 . S
H1147 C1156 0.930 . S
H1148 C1161 0.929 . S
H1149 C1159 0.929 . S
H1150 C1154 0.929 . S
H1151 C1160 0.929 . S
C1152 H1146 0.930 . S
C1152 C1153 1.367 . S
C1152 C1160 1.378 1_655 S
C1153 C1152 1.367 . S
C1153 C1161 1.433 . S
C1154 H1150 0.929 . S
C1154 C1156 1.378 . S
C1154 C1158 1.350 . S
C1155 C1158 1.463 . S
C1155 C1160 1.350 . S
C1155 N1163 1.427 1_455 S
C1156 H1147 0.930 . S
C1156 C1154 1.378 . S
C1156 C1157 1.367 . S
C1157 C1156 1.367 . S
C1157 C1159 1.433 . S
C1158 C1154 1.350 . S
C1158 C1155 1.463 . S
C1158 N1162 1.427 . S
C1159 H1149 0.929 . S
C1159 C1157 1.433 . S
C1159 N1162 1.384 . S
C1160 H1151 0.929 . S
C1160 C1152 1.378 1_455 S
C1160 C1155 1.350 . S
C1161 H1148 0.929 . S
C1161 C1153 1.433 . S
C1161 N1163 1.384 . S
N1162 C1158 1.427 . S
N1162 C1159 1.384 . S
N1163 C1155 1.427 1_655 S
N1163 C1161 1.384 . S
H1164 C1170 0.930 . S
H1165 C1174 0.930 . S
H1166 C1179 0.926 1_655 S
H1167 C1177 0.929 . S
H1168 C1172 0.929 . S
H1169 C1178 0.929 . S
C1170 H1164 0.930 . S
C1170 C1171 1.367 . S
C1170 C1178 1.378 . S
C1171 C1170 1.367 . S
C1171 C1179 1.442 . S
C1172 H1168 0.929 . S
C1172 C1174 1.378 . S
C1172 C1176 1.350 . S
C1173 C1176 1.463 . S
C1173 C1178 1.350 1_655 S
C1173 N1181 1.427 . S
C1174 H1165 0.930 . S
C1174 C1172 1.378 . S
C1174 C1175 1.367 . S
C1175 C1174 1.367 . S
C1175 C1177 1.433 . S
C1176 C1172 1.350 . S
C1176 C1173 1.463 . S
C1176 N1180 1.427 . S
C1177 H1167 0.929 . S
C1177 C1175 1.433 . S
C1177 N1180 1.384 . S
C1178 H1169 0.929 . S
C1178 C1170 1.378 . S
C1178 C1173 1.350 1_455 S
C1179 H1166 0.926 1_455 S
C1179 C1171 1.442 . S
C1179 N1181 1.378 1_455 S
N1180 C1176 1.427 . S
N1180 C1177 1.384 . S
N1181 C1173 1.427 . S
N1181 C1179 1.378 1_655 S
H1182 C1188 0.930 . S
H1183 C1192 0.930 . S
H1184 C1197 0.929 . S
H1185 C1195 0.929 . S
H1186 C1190 0.929 . S
H1187 C1196 0.929 . S
C1188 H1182 0.930 . S
C1188 C1189 1.367 . S
C1188 C1196 1.378 . S
C1189 C1188 1.367 . S
C1189 C1197 1.433 . S
C1190 H1186 0.929 . S
C1190 C1192 1.378 . S
C1190 C1194 1.350 . S
C1191 C1194 1.463 . S
C1191 C1196 1.350 . S
C1191 N1199 1.427 . S
C1192 H1183 0.930 . S
C1192 C1190 1.378 . S
C1192 C1193 1.367 . S
C1193 C1192 1.367 . S
C1193 C1195 1.433 . S
C1194 C1190 1.350 . S
C1194 C1191 1.463 . S
C1194 N1198 1.427 . S
C1195 H1185 0.929 . S
C1195 C1193 1.433 . S
C1195 N1198 1.384 . S
C1196 H1187 0.929 . S
C1196 C1188 1.378 . S
C1196 C1191 1.350 . S
C1197 H1184 0.929 . S
C1197 C1189 1.433 . S
C1197 N1199 1.384 . S
N1198 C1194 1.427 . S
N1198 C1195 1.384 . S
N1199 C1191 1.427 . S
N1199 C1197 1.384 . S
H1200 C1206 0.930 . S
H1201 C1210 0.930 . S
H1202 C1215 0.929 . S
H1203 C1213 0.929 . S
H1204 C1208 0.929 1_455 S
H1205 C1214 0.901 1_655 S
C1206 H1200 0.930 . S
C1206 C1207 1.367 . S
C1206 C1214 1.399 . S
C1207 C1206 1.367 . S
C1207 C1215 1.433 . S
C1208 H1204 0.929 1_655 S
C1208 C1210 1.378 . S
C1208 C1212 1.350 . S
C1209 C1212 1.463 1_455 S
C1209 C1214 1.358 . S
C1209 N1217 1.427 . S
C1210 H1201 0.930 . S
C1210 C1208 1.378 . S
C1210 C1211 1.367 . S
C1211 C1210 1.367 . S
C1211 C1213 1.433 . S
C1212 C1208 1.350 . S
C1212 C1209 1.463 1_655 S
C1212 N1216 1.427 . S
C1213 H1203 0.929 . S
C1213 C1211 1.433 . S
C1213 N1216 1.384 . S
C1214 H1205 0.901 1_455 S
C1214 C1206 1.399 . S
C1214 C1209 1.358 . S
C1215 H1202 0.929 . S
C1215 C1207 1.433 . S
C1215 N1217 1.384 . S
N1216 C1212 1.427 . S
N1216 C1213 1.384 . S
N1217 C1209 1.427 . S
N1217 C1215 1.384 . S
H1218 C1224 0.930 . S
H1219 C1228 0.930 . S
H1220 C1233 0.929 . S
H1221 C1231 0.929 . S
H1222 C1226 0.929 . S
H1223 C1232 0.929 . S
C1224 H1218 0.930 . S
C1224 C1225 1.367 . S
C1224 C1232 1.378 . S
C1225 C1224 1.367 . S
C1225 C1233 1.433 1_455 S
C1226 H1222 0.929 . S
C1226 C1228 1.378 . S
C1226 C1230 1.350 . S
C1227 C1230 1.463 . S
C1227 C1232 1.350 1_655 S
C1227 N1235 1.427 . S
C1228 H1219 0.930 . S
C1228 C1226 1.378 . S
C1228 C1229 1.367 . S
C1229 C1228 1.367 . S
C1229 C1231 1.433 . S
C1230 C1226 1.350 . S
C1230 C1227 1.463 . S
C1230 N1234 1.427 . S
C1231 H1221 0.929 . S
C1231 C1229 1.433 . S
C1231 N1234 1.384 . S
C1232 H1223 0.929 . S
C1232 C1224 1.378 . S
C1232 C1227 1.350 1_455 S
C1233 H1220 0.929 . S
C1233 C1225 1.433 1_655 S
C1233 N1235 1.384 . S
N1234 C1230 1.427 . S
N1234 C1231 1.384 . S
N1235 C1227 1.427 . S
N1235 C1233 1.384 . S
H1236 C1242 0.930 . S
H1237 C1246 0.930 . S
H1238 C1251 0.929 . S
H1239 C1249 0.929 . S
H1240 C1244 0.929 . S
H1241 C1250 0.929 . S
C1242 H1236 0.930 . S
C1242 C1243 1.367 . S
C1242 C1250 1.378 . S
C1243 C1242 1.367 . S
C1243 C1251 1.433 . S
C1244 H1240 0.929 . S
C1244 C1246 1.378 . S
C1244 C1248 1.350 . S
C1245 C1248 1.463 . S
C1245 C1250 1.350 . S
C1245 N1253 1.427 . S
C1246 H1237 0.930 . S
C1246 C1244 1.378 . S
C1246 C1247 1.367 . S
C1247 C1246 1.367 . S
C1247 C1249 1.433 . S
C1248 C1244 1.350 . S
C1248 C1245 1.463 . S
C1248 N1252 1.427 . S
C1249 H1239 0.929 . S
C1249 C1247 1.433 . S
C1249 N1252 1.384 . S
C1250 H1241 0.929 . S
C1250 C1242 1.378 . S
C1250 C1245 1.350 . S
C1251 H1238 0.929 . S
C1251 C1243 1.433 . S
C1251 N1253 1.384 . S
N1252 C1248 1.427 . S
N1252 C1249 1.384 . S
N1253 C1245 1.427 . S
N1253 C1251 1.384 . S
H1254 C1260 0.930 . S
H1255 C1264 0.930 . S
H1256 C1269 0.929 . S
H1257 C1267 0.929 . S
H1258 C1262 0.929 . S
H1259 C1268 0.929 . S
C1260 H1254 0.930 . S
C1260 C1261 1.367 . S
C1260 C1268 1.378 . S
C1261 C1260 1.367 . S
C1261 C1269 1.433 . S
C1262 H1258 0.929 . S
C1262 C1264 1.378 . S
C1262 C1266 1.350 . S
C1263 C1266 1.463 1_565 S
C1263 C1268 1.350 . S
C1263 N1271 1.427 . S
C1264 H1255 0.930 . S
C1264 C1262 1.378 . S
C1264 C1265 1.367 . S
C1265 C1264 1.367 . S
C1265 C1267 1.433 . S
C1266 C1262 1.350 . S
C1266 C1263 1.463 1_545 S
C1266 N1270 1.430 . S
C1267 H1257 0.929 . S
C1267 C1265 1.433 . S
C1267 N1270 1.396 . S
C1268 H1259 0.929 . S
C1268 C1260 1.378 . S
C1268 C1263 1.350 . S
C1269 H1256 0.929 . S
C1269 C1261 1.433 . S
C1269 N1271 1.384 . S
N1270 C1266 1.430 . S
N1270 C1267 1.396 . S
N1271 C1263 1.427 . S
N1271 C1269 1.384 . S
H1272 C1278 0.930 . S
H1273 C1282 0.930 . S
H1274 C1287 0.929 . S
H1275 C1285 0.929 . S
H1276 C1280 0.929 . S
H1277 C1286 0.929 1_554 S
C1278 H1272 0.930 . S
C1278 C1279 1.367 . S
C1278 C1286 1.378 . S
C1279 C1278 1.367 . S
C1279 C1287 1.433 . S
C1280 H1276 0.929 . S
C1280 C1282 1.378 . S
C1280 C1284 1.350 . S
C1281 C1284 1.463 1_556 S
C1281 C1286 1.350 . S
C1281 N1289 1.427 . S
C1282 H1273 0.930 . S
C1282 C1280 1.378 . S
C1282 C1283 1.367 . S
C1283 C1282 1.367 . S
C1283 C1285 1.433 . S
C1284 C1280 1.350 . S
C1284 C1281 1.463 1_554 S
C1284 N1288 1.427 . S
C1285 H1275 0.929 . S
C1285 C1283 1.433 . S
C1285 N1288 1.384 . S
C1286 H1277 0.929 1_556 S
C1286 C1278 1.378 . S
C1286 C1281 1.350 . S
C1287 H1274 0.929 . S
C1287 C1279 1.433 . S
C1287 N1289 1.384 . S
N1288 C1284 1.427 . S
N1288 C1285 1.384 . S
N1289 C1281 1.427 . S
N1289 C1287 1.384 . S
H1290 C1296 0.930 . S
H1291 C1300 0.930 . S
H1292 C1305 0.929 1_565 S
H1293 C1303 0.929 . S
H1294 C1298 0.929 . S
H1295 C1304 0.929 . S
C1296 H1290 0.930 . S
C1296 C1297 1.367 . S
C1296 C1304 1.378 . S
C1297 C1296 1.367 . S
C1297 C1305 1.433 . S
C1298 H1294 0.929 . S
C1298 C1300 1.378 . S
C1298 C1302 1.350 . S
C1299 C1302 1.463 . S
C1299 C1304 1.350 1_565 S
C1299 N1307 1.427 . S
C1300 H1291 0.930 . S
C1300 C1298 1.378 . S
C1300 C1301 1.367 . S
C1301 C1300 1.367 . S
C1301 C1303 1.433 . S
C1302 C1298 1.350 . S
C1302 C1299 1.463 . S
C1302 N1306 1.427 . S
C1303 H1293 0.929 . S
C1303 C1301 1.433 . S
C1303 N1306 1.384 . S
C1304 H1295 0.929 . S
C1304 C1296 1.378 . S
C1304 C1299 1.350 1_545 S
C1305 H1292 0.929 1_545 S
C1305 C1297 1.433 . S
C1305 N1307 1.384 1_545 S
N1306 C1302 1.427 . S
N1306 C1303 1.384 . S
N1307 C1299 1.427 . S
N1307 C1305 1.384 1_565 S
H1308 C1314 0.930 . S
H1309 C1318 0.930 . S
H1310 C1323 0.929 . S
H1311 C1321 0.929 . S
H1312 C1316 0.929 . S
H1313 C1322 0.929 . S
C1314 H1308 0.930 . S
C1314 C1315 1.367 . S
C1314 C1322 1.378 . S
C1315 C1314 1.367 . S
C1315 C1323 1.433 . S
C1316 H1312 0.929 . S
C1316 C1318 1.378 . S
C1316 C1320 1.350 . S
C1317 C1320 1.463 . S
C1317 C1322 1.350 . S
C1317 N1325 1.427 . S
C1318 H1309 0.930 . S
C1318 C1316 1.378 . S
C1318 C1319 1.367 . S
C1319 C1318 1.367 . S
C1319 C1321 1.433 . S
C1320 C1316 1.350 . S
C1320 C1317 1.463 . S
C1320 N1324 1.427 . S
C1321 H1311 0.929 . S
C1321 C1319 1.433 . S
C1321 N1324 1.384 . S
C1322 H1313 0.929 . S
C1322 C1314 1.378 . S
C1322 C1317 1.350 . S
C1323 H1310 0.929 . S
C1323 C1315 1.433 . S
C1323 N1325 1.384 . S
N1324 C1320 1.427 . S
N1324 C1321 1.384 . S
N1325 C1317 1.427 . S
N1325 C1323 1.384 . S
H1326 C1332 0.930 . S
H1327 C1336 0.930 . S
H1328 C1341 0.929 . S
H1329 C1339 0.929 . S
H1330 C1334 0.929 . S
H1331 C1340 0.929 . S
C1332 H1326 0.930 . S
C1332 C1333 1.367 . S
C1332 C1340 1.378 . S
C1333 C1332 1.367 . S
C1333 C1341 1.433 . S
C1334 H1330 0.929 . S
C1334 C1336 1.378 . S
C1334 C1338 1.350 . S
C1335 C1338 1.463 . S
C1335 C1340 1.350 1_556 S
C1335 N1343 1.427 . S
C1336 H1327 0.930 . S
C1336 C1334 1.378 . S
C1336 C1337 1.367 . S
C1337 C1336 1.367 . S
C1337 C1339 1.433 . S
C1338 C1334 1.350 . S
C1338 C1335 1.463 . S
C1338 N1342 1.427 . S
C1339 H1329 0.929 . S
C1339 C1337 1.433 . S
C1339 N1342 1.384 . S
C1340 H1331 0.929 . S
C1340 C1332 1.378 . S
C1340 C1335 1.350 1_554 S
C1341 H1328 0.929 . S
C1341 C1333 1.433 . S
C1341 N1343 1.384 1_554 S
N1342 C1338 1.427 . S
N1342 C1339 1.384 . S
N1343 C1335 1.427 . S
N1343 C1341 1.384 1_556 S
H1344 C1350 0.930 . S
H1345 C1354 0.930 . S
H1346 C1359 0.929 . S
H1347 C1357 0.929 . S
H1348 C1352 0.929 . S
H1349 C1358 0.929 . S
C1350 H1344 0.930 . S
C1350 C1351 1.367 . S
C1350 C1358 1.378 . S
C1351 C1350 1.367 . S
C1351 C1359 1.433 . S
C1352 H1348 0.929 . S
C1352 C1354 1.378 . S
C1352 C1356 1.350 . S
C1353 C1356 1.463 . S
C1353 C1358 1.350 . S
C1353 N1361 1.427 . S
C1354 H1345 0.930 . S
C1354 C1352 1.378 . S
C1354 C1355 1.367 . S
C1355 C1354 1.367 . S
C1355 C1357 1.433 . S
C1356 C1352 1.350 . S
C1356 C1353 1.463 . S
C1356 N1360 1.427 . S
C1357 H1347 0.929 . S
C1357 C1355 1.433 . S
C1357 N1360 1.384 . S
C1358 H1349 0.929 . S
C1358 C1350 1.378 . S
C1358 C1353 1.350 . S
C1359 H1346 0.929 . S
C1359 C1351 1.433 . S
C1359 N1361 1.384 . S
N1360 C1356 1.427 . S
N1360 C1357 1.384 . S
N1361 C1353 1.427 . S
N1361 C1359 1.384 . S
H1362 C1368 0.930 . S
H1363 C1372 0.930 . S
H1364 C1377 0.929 . S
H1365 C1375 0.929 . S
H1366 C1370 0.929 . S
H1367 C1376 0.929 . S
C1368 H1362 0.930 . S
C1368 C1369 1.367 . S
C1368 C1376 1.378 . S
C1369 C1368 1.367 . S
C1369 C1377 1.433 . S
C1370 H1366 0.929 . S
C1370 C1372 1.378 . S
C1370 C1374 1.350 . S
C1371 C1374 1.463 . S
C1371 C1376 1.350 . S
C1371 N1379 1.427 . S
C1372 H1363 0.930 . S
C1372 C1370 1.378 . S
C1372 C1373 1.367 . S
C1373 C1372 1.367 . S
C1373 C1375 1.433 . S
C1374 C1370 1.350 . S
C1374 C1371 1.463 . S
C1374 N1378 1.427 . S
C1375 H1365 0.929 . S
C1375 C1373 1.433 . S
C1375 N1378 1.384 . S
C1376 H1367 0.929 . S
C1376 C1368 1.378 . S
C1376 C1371 1.350 . S
C1377 H1364 0.929 . S
C1377 C1369 1.433 . S
C1377 N1379 1.384 . S
N1378 C1374 1.427 . S
N1378 C1375 1.384 . S
N1379 C1371 1.427 . S
N1379 C1377 1.384 . S
H1380 C1386 0.930 . S
H1381 C1390 0.930 . S
H1382 C1395 0.929 . S
H1383 C1393 0.929 . S
H1384 C1388 0.929 . S
H1385 C1394 0.929 . S
C1386 H1380 0.930 . S
C1386 C1387 1.367 . S
C1386 C1394 1.378 . S
C1387 C1386 1.367 . S
C1387 C1395 1.433 . S
C1388 H1384 0.929 . S
C1388 C1390 1.378 . S
C1388 C1392 1.350 . S
C1389 C1392 1.463 . S
C1389 C1394 1.350 . S
C1389 N1397 1.427 . S
C1390 H1381 0.930 . S
C1390 C1388 1.378 . S
C1390 C1391 1.367 . S
C1391 C1390 1.367 . S
C1391 C1393 1.433 . S
C1392 C1388 1.350 . S
C1392 C1389 1.463 . S
C1392 N1396 1.427 . S
C1393 H1383 0.929 . S
C1393 C1391 1.433 . S
C1393 N1396 1.384 . S
C1394 H1385 0.929 . S
C1394 C1386 1.378 . S
C1394 C1389 1.350 . S
C1395 H1382 0.929 . S
C1395 C1387 1.433 . S
C1395 N1397 1.384 . S
N1396 C1392 1.427 . S
N1396 C1393 1.384 . S
N1397 C1389 1.427 . S
N1397 C1395 1.384 . S
H1398 C1404 0.930 . S
H1399 C1408 0.930 . S
H1400 C1413 0.929 . S
H1401 C1411 0.929 . S
H1402 C1406 0.929 . S
H1403 C1412 0.929 . S
C1404 H1398 0.930 . S
C1404 C1405 1.367 . S
C1404 C1412 1.378 . S
C1405 C1404 1.367 . S
C1405 C1413 1.433 . S
C1406 H1402 0.929 . S
C1406 C1408 1.378 . S
C1406 C1410 1.350 . S
C1407 C1410 1.463 . S
C1407 C1412 1.350 . S
C1407 N1415 1.427 . S
C1408 H1399 0.930 . S
C1408 C1406 1.378 . S
C1408 C1409 1.367 . S
C1409 C1408 1.367 . S
C1409 C1411 1.433 . S
C1410 C1406 1.350 . S
C1410 C1407 1.463 . S
C1410 N1414 1.427 . S
C1411 H1401 0.929 . S
C1411 C1409 1.433 . S
C1411 N1414 1.384 . S
C1412 H1403 0.929 . S
C1412 C1404 1.378 . S
C1412 C1407 1.350 . S
C1413 H1400 0.929 . S
C1413 C1405 1.433 . S
C1413 N1415 1.384 . S
N1414 C1410 1.427 . S
N1414 C1411 1.384 . S
N1415 C1407 1.427 . S
N1415 C1413 1.384 . S
C559 C16 1.608 . S
C563 N209 1.608 . S
C577 N35 1.287 . S
C581 C246 1.284 . S
C595 N255 1.402 . S
C599 N58 1.400 . S
C613 N186 1.510 . S
C617 C85 1.545 . S
C631 N242 1.591 . S
C635 C99 1.618 . S
C649 N117 1.337 . S
C653 C260 1.343 . S
C667 N140 1.420 . S
C671 C191 1.443 . S
C685 C214 1.463 . S
C689 C168 1.464 . S
C703 N94 1.002 . S
C707 N288 1.040 . S
C721 N163 1.584 . S
C725 C361 1.597 . S
C739 C375 1.357 . S
C743 C122 1.354 . S
C757 N81 0.954 . S
C761 N301 0.930 . S
C775 N324 1.919 . S
C779 C145 1.936 . S
C793 N12 1.286 . S
C797 N439 1.298 . S
C811 C62 1.638 . S
C815 C421 1.644 . S
C829 N357 1.193 . S
C833 C499 1.224 . S
C847 C522 1.640 . S
C851 C292 1.650 . S
C865 N531 1.356 . S
C869 N370 1.352 . S
C883 C476 1.519 . S
C887 C329 1.533 . S
C901 N518 1.251 . S
C905 N393 1.233 . S
C919 N416 1.639 . S
C923 C536 1.661 . S
C937 N472 1.422 . S
C941 C306 1.435 . S
C955 C444 1.491 . S
C959 N495 1.462 . S
C973 C39 1.990 . S
C977 C398 1.995 . S
C991 C108 1.328 . S
C995 C7 1.332 . S
C1009 N25 0.870 . S
C1013 N127 0.860 . S
C1027 N48 1.007 . S
C1031 N150 1.005 . S
C1045 C177 1.049 . S
C1049 C76 1.051 . S
C1063 N196 1.091 . S
C1067 C223 1.087 . S
C1081 N219 1.150 . S
C1085 N232 1.169 . S
C1099 C269 0.901 . S
C1103 C237 0.903 . S
C1117 C200 1.084 . S
C1121 N265 1.078 . S
C1135 N71 0.603 . S
C1139 N278 0.588 . S
C1153 N173 1.214 . S
C1157 C430 1.219 . S
C1171 N104 0.631 . S
C1175 N311 0.642 . S
C1189 N449 0.965 . S
C1193 C131 0.975 . S
C1207 N334 1.507 . S
C1211 C30 1.528 . S
C1225 N2 0.956 . S
C1229 C384 0.968 . S
C1243 C53 1.350 . S
C1247 C352 1.349 . S
C1261 N347 0.909 . S
C1265 N403 0.902 . S
C1279 N426 1.203 . S
C1283 C283 1.221 . S
C1297 N380 1.031 . S
C1301 C315 1.047 . S
C1315 C338 1.025 . S
C1319 C453 1.024 . S
C1333 N485 1.139 . S
C1337 C467 1.154 . S
C1351 N508 0.971 . S
C1355 C490 0.970 . S
C1369 C545 1.182 . S
C1373 C513 1.190 . S
C1387 N462 0.985 . S
C1391 N541 0.993 . S
C1405 C407 1.598 . S
C1409 C154 1.600 . S
