# Generated by pormake.
# Topology snp, (6)-cn, num edge types: 1
# Building blocks:
#     Node 0, Type 0, BuildingBlock: BETFEN_clean_sbu_0, # of connection points: 6
#     Node 1, Type 0, BuildingBlock: BETFEN_clean_sbu_0, # of connection points: 6
#     Node 2, Type 0, BuildingBlock: BETFEN_clean_sbu_0, # of connection points: 6
#     Node 3, Type 0, BuildingBlock: BETFEN_clean_sbu_0, # of connection points: 6
#     Edge 4, Type (0, 0), BuildingBlock: XUDNAN_clean_linker_2, # of connection points: 2
#     Edge 5, Type (0, 0), BuildingBlock: XUDNAN_clean_linker_2, # of connection points: 2
#     Edge 6, Type (0, 0), BuildingBlock: XUDNAN_clean_linker_2, # of connection points: 2
#     Edge 7, Type (0, 0), BuildingBlock: XUDNAN_clean_linker_2, # of connection points: 2
#     Edge 8, Type (0, 0), BuildingBlock: XUDNAN_clean_linker_2, # of connection points: 2
#     Edge 9, Type (0, 0), BuildingBlock: XUDNAN_clean_linker_2, # of connection points: 2
#     Edge 10, Type (0, 0), BuildingBlock: XUDNAN_clean_linker_2, # of connection points: 2
#     Edge 11, Type (0, 0), BuildingBlock: XUDNAN_clean_linker_2, # of connection points: 2
#     Edge 12, Type (0, 0), BuildingBlock: XUDNAN_clean_linker_2, # of connection points: 2
#     Edge 13, Type (0, 0), BuildingBlock: XUDNAN_clean_linker_2, # of connection points: 2
#     Edge 14, Type (0, 0), BuildingBlock: XUDNAN_clean_linker_2, # of connection points: 2
#     Edge 15, Type (0, 0), BuildingBlock: XUDNAN_clean_linker_2, # of connection points: 2
# Relax obj value: 0.242
# Max RMSD: 0.219
# Mean RMSD: 0.219
data_MOF--net-snp--node1-BETFEN_clean_sbu_0--edge1-XUDNAN_clean_linker_2
_symmetry_space_group_name_H-M    P1
_symmetry_Int_Tables_number       1
_symmetry_cell_setting            triclinic
loop_
_symmetry_equiv_pos_as_xyz
'x, y, z'
_cell_length_a     25.386839
_cell_length_b     25.178407
_cell_length_c     36.024742
_cell_angle_alpha  83.652302
_cell_angle_beta   83.530957
_cell_angle_gamma 94.030937
loop_
_atom_site_label
_atom_site_type_symbol
_atom_site_fract_x
_atom_site_fract_y
_atom_site_fract_z
_atom_type_partial_charge
Pr0 Pr 0.23161 0.03256 0.22591 0.0
Pr1 Pr 0.25676 0.92483 0.19174 0.0
C2 C 0.19205 0.10365 0.27015 0.0
C3 C 0.17442 0.10518 0.31077 0.0
C4 C 0.2112 0.11831 0.33537 0.0
C5 C 0.19458 0.11982 0.37355 0.0
C6 C 0.14069 0.10846 0.38821 0.0
C7 C 0.10373 0.09579 0.36358 0.0
C8 C 0.12039 0.09423 0.3253 0.0
C9 C 0.33764 0.02217 0.20132 0.0
C10 C 0.24334 0.91975 0.28227 0.0
C11 C 0.29539 0.85446 0.14765 0.0
C12 C 0.27498 0.83383 0.11487 0.0
C13 C 0.22087 0.8163 0.11629 0.0
C14 C 0.20068 0.80071 0.08437 0.0
C15 C 0.23396 0.80308 0.0503 0.0
C16 C 0.28798 0.82093 0.04875 0.0
C17 C 0.30837 0.836 0.08087 0.0
C18 C 0.1493 0.93421 0.21237 0.0
C19 C 0.21977 0.03166 0.13571 0.0
O20 O 0.16252 0.07303 0.25223 0.0
O21 O 0.24306 0.10233 0.25978 0.0
O22 O 0.30516 0.98563 0.21909 0.0
O23 O 0.31668 0.06792 0.19718 0.0
O24 O 0.26926 0.89891 0.25421 0.0
O25 O 0.22044 0.965 0.27681 0.0
O26 O 0.31301 0.90527 0.14269 0.0
O27 O 0.26686 0.83969 0.18032 0.0
O28 O 0.18454 0.97069 0.19887 0.0
O29 O 0.16908 0.88788 0.21231 0.0
O30 O 0.2101 0.05768 0.16546 0.0
O31 O 0.24095 0.98465 0.1383 0.0
H32 H 0.25297 0.12763 0.32517 0.0
H33 H 0.22402 0.13075 0.39152 0.0
H34 H 0.06201 0.08651 0.37395 0.0
H35 H 0.09089 0.08435 0.30708 0.0
H36 H 0.19381 0.8154 0.1419 0.0
H37 H 0.15878 0.78769 0.08616 0.0
H38 H 0.31449 0.82277 1.0228 0.0
H39 H 0.35001 0.8501 0.07905 0.0
Pr40 Pr 0.90247 0.2533 0.68439 0.0
Pr41 Pr -0.0143 0.18827 0.73285 0.0
C42 C 0.85409 0.32199 0.63974 0.0
C43 C 0.83748 0.31888 0.60202 0.0
C44 C 0.83736 0.27021 0.58636 0.0
C45 C 0.82116 0.26678 0.55076 0.0
C46 C 0.80507 0.31213 0.52982 0.0
C47 C 0.80644 0.36115 0.54544 0.0
C48 C 0.82239 0.36441 0.58119 0.0
C49 C 0.88344 0.14257 0.69079 0.0
C50 C 0.00075 0.19201 0.63952 0.0
C51 C 0.03991 0.12213 0.77597 0.0
C52 C 0.05585 0.11679 0.8145 0.0
C53 C 0.06662 0.16208 0.83272 0.0
C54 C 0.08058 0.1564 0.86942 0.0
C55 C 0.08362 0.10522 0.88912 0.0
C56 C 0.07285 0.0599 0.87062 0.0
C57 C 0.0591 0.06568 0.83376 0.0
C58 C 0.00178 0.29971 0.7209 0.0
C59 C 0.88569 0.24203 0.77785 0.0
O60 O 0.90556 0.32627 0.64115 0.0
O61 O 0.828 0.28813 0.66703 0.0
O62 O 0.90344 0.16866 0.71467 0.0
O63 O 0.86034 0.17533 0.6687 0.0
O64 O 0.01354 0.17014 0.67209 0.0
O65 O 0.96377 0.22662 0.63685 0.0
O66 O -0.01091 0.11324 0.77343 0.0
O67 O 0.06306 0.16219 0.75191 0.0
O68 O -0.0131 0.26973 0.69789 0.0
O69 O 0.01569 0.27206 0.7503 0.0
O70 O 0.87585 0.27071 0.74659 0.0
O71 O 0.9191 0.20419 0.77825 0.0
H72 H 0.84944 0.23464 0.60181 0.0
H73 H 0.82024 0.22825 0.54005 0.0
H74 H 0.79548 0.39722 0.52996 0.0
H75 H 0.82292 0.4025 0.59257 0.0
H76 H 0.06412 0.20197 0.81862 0.0
H77 H 0.08939 0.19241 0.88223 0.0
H78 H 0.07401 0.01986 0.88482 0.0
H79 H 0.05055 0.03009 0.82037 0.0
Pr80 Pr 0.76775 0.12055 0.12962 0.0
Pr81 Pr 0.82137 0.02417 0.09034 0.0
C82 C 0.7111 0.18777 0.16755 0.0
C83 C 0.71538 0.2063 0.20474 0.0
C84 C 0.765 0.21181 0.21835 0.0
C85 C 0.76884 0.2272 0.25418 0.0
C86 C 0.72306 0.23698 0.27749 0.0
C87 C 0.67331 0.23073 0.26383 0.0
C88 C 0.66957 0.2156 0.22785 0.0
C89 C 0.87854 0.12971 0.11748 0.0
C90 C 0.81715 0.02529 0.18376 0.0
C91 C 0.8748 0.95302 0.0522 0.0
C92 C 0.88224 0.93941 1.01289 0.0
C93 C 0.91279 0.89723 1.00373 0.0
C94 C 0.91992 0.88397 0.96666 0.0
C95 C 0.8965 0.91252 0.93776 0.0
C96 C 0.86663 0.95546 0.94709 0.0
C97 C 0.85961 0.9687 0.98412 0.0
C98 C 0.71065 0.01943 0.10147 0.0
C99 C 0.78315 0.12777 0.03764 0.0
O100 O 0.6953 0.137 0.16814 0.0
O101 O 0.75024 0.20451 0.14095 0.0
O102 O 0.8478 0.11165 0.09586 0.0
O103 O 0.85149 0.14838 0.1452 0.0
O104 O 0.84089 0.00628 0.15366 0.0
O105 O 0.78249 0.06191 0.18115 0.0
O106 O 0.8959 -0.00022 0.05776 0.0
O107 O 0.82755 0.94132 0.07113 0.0
O108 O 0.74112 0.0338 0.12429 0.0
O109 O 0.73675 0.00192 0.07292 0.0
O110 O 0.75123 0.13932 0.06678 0.0
O111 O 0.81829 0.09158 0.04084 0.0
H112 H 0.80094 0.20406 0.20131 0.0
H113 H 0.80787 0.23209 0.26336 0.0
H114 H 0.63701 0.23678 0.28113 0.0
H115 H 0.6308 0.21062 0.21822 0.0
H116 H 0.93088 0.87418 1.02537 0.0
H117 H 0.94275 0.85044 0.96086 0.0
H118 H 0.84869 0.97911 0.92568 0.0
H119 H 0.83635 0.00181 0.99032 0.0
Pr120 Pr -0.00493 0.78278 0.59525 0.0
Pr121 Pr 0.09999 0.76188 0.63302 0.0
C122 C 0.92618 0.81518 0.54692 0.0
C123 C 0.9256 0.83904 0.50722 0.0
C124 C 0.89491 0.81266 0.48352 0.0
C125 C 0.89005 0.83639 0.44703 0.0
C126 C 0.91542 0.88741 0.43345 0.0
C127 C 0.94793 0.9128 0.45667 0.0
C128 C 0.95306 0.88892 0.49303 0.0
C129 C 0.00772 0.67666 0.62036 0.0
C130 C 0.1137 0.78126 0.543 0.0
C131 C 0.16564 0.72182 0.68015 0.0
C132 C 0.16594 0.72196 0.72102 0.0
C133 C 0.21122 0.74307 0.73508 0.0
C134 C 0.21031 0.74723 0.77352 0.0
C135 C 0.16412 0.73007 0.79858 0.0
C136 C 0.11916 0.70809 0.78445 0.0
C137 C 0.11989 0.70444 0.74609 0.0
C138 C 0.08905 0.86766 0.60819 0.0
C139 C -0.01199 0.79147 0.68654 0.0
O140 O 0.94492 0.8456 0.57051 0.0
O141 O 0.93868 0.76565 0.55246 0.0
O142 O 0.044 0.71043 0.60357 0.0
O143 O 0.96171 0.69663 0.62355 0.0
O144 O 0.13332 0.75424 0.57108 0.0
O145 O 0.06695 0.80135 0.54748 0.0
O146 O 0.12636 0.69278 0.66967 0.0
O147 O 0.17657 0.76844 0.65966 0.0
O148 O 0.05251 0.83339 0.62362 0.0
O149 O 0.13567 0.84947 0.60948 0.0
O150 O 0.96356 0.80108 0.65606 0.0
O151 O 0.0359 0.77295 0.68473 0.0
H152 H 0.87333 0.77418 0.49365 0.0
H153 H 0.86439 0.81589 0.43013 0.0
H154 H 0.96862 0.95182 0.44696 0.0
H155 H 0.97754 0.91018 0.51029 0.0
H156 H 0.24704 0.75703 0.71625 0.0
H157 H 0.24589 0.76353 0.78366 0.0
H158 H 0.08293 0.69465 0.80294 0.0
H159 H 0.08401 0.68861 0.73608 0.0
H160 H 0.9351 0.13327 0.17725 0.0
H161 H 0.94192 0.08545 0.06522 0.0
H162 H 0.00669 0.01968 0.08141 0.0
H163 H 0.08696 0.11752 0.17989 0.0
H164 H 0.07328 0.10311 0.23035 0.0
H165 H 0.03486 0.14904 0.20529 0.0
H166 H 0.94976 0.08905 0.23817 0.0
H167 H -0.00896 0.04273 0.26019 0.0
H168 H 0.94427 0.01931 0.2306 0.0
H169 H 0.05047 0.94554 0.11588 0.0
H170 H 0.1066 0.89339 0.15546 0.0
H171 H 0.08027 -0.00107 0.24173 0.0
C172 C 0.95169 0.11039 0.15568 0.0
C173 C 0.93098 0.11044 0.121 0.0
C174 C 0.95488 0.08202 0.09291 0.0
C175 C -0.00826 0.04525 0.10175 0.0
C176 C 0.00628 0.04091 0.13801 0.0
C177 C -0.00975 0.07549 0.16351 0.0
C178 C 0.01447 0.06461 0.19975 0.0
C179 C 0.05487 0.1113 0.20402 0.0
C180 C 0.97227 0.05342 0.23425 0.0
C181 C 0.04148 0.01476 0.19217 0.0
C182 C 0.03622 0.00169 0.15642 0.0
C183 C 0.05598 0.95598 0.14362 0.0
C184 C 0.08619 0.92556 0.16678 0.0
C185 C 0.09684 0.94206 0.20168 0.0
C186 C 0.07164 0.9851 0.21545 0.0
H187 H 0.08963 0.92275 0.6669 0.0
H188 H 0.05999 0.93233 0.55052 0.0
H189 H 0.00375 0.00716 0.55995 0.0
H190 H 0.96261 0.93136 0.70065 0.0
H191 H 0.97395 0.96916 0.73907 0.0
H192 H 0.02361 0.92754 0.72171 0.0
H193 H 0.09586 0.00788 0.70736 0.0
H194 H 0.04696 0.04707 0.7285 0.0
H195 H 0.08024 0.06939 0.68199 0.0
H196 H 0.93458 0.06089 0.58575 0.0
H197 H 0.87465 0.11424 0.62117 0.0
H198 H 0.94775 0.07004 0.72227 0.0
C199 C 0.07433 0.94343 0.64288 0.0
C200 C 0.08009 0.92377 0.60773 0.0
C201 C 0.05713 0.9487 0.5772 0.0
C202 C 0.02449 -0.00964 0.58256 0.0
C203 C 0.01542 0.00552 0.61866 0.0
C204 C 0.04081 0.98404 0.64809 0.0
C205 C 0.01927 0.00235 0.68503 0.0
C206 C -0.00666 0.95475 0.71325 0.0
C207 C 0.06323 0.03367 0.70161 0.0
C208 C 0.97783 0.0378 0.67178 0.0
C209 C 0.97556 0.03776 0.63359 0.0
C210 C 0.93714 0.06284 0.61536 0.0
C211 C 0.90279 0.09249 0.63603 0.0
C212 C 0.90807 0.09797 0.6743 0.0
C213 C 0.94416 0.06795 0.69288 0.0
H214 H 0.64162 0.09404 0.11652 0.0
H215 H 0.65143 0.92454 0.10848 0.0
H216 H 0.55562 0.90708 0.13225 0.0
H217 H 0.5537 0.08324 0.19978 0.0
H218 H 0.51519 0.13768 0.18538 0.0
H219 H 0.58367 0.13814 0.16588 0.0
H220 H 0.5574 0.1468 0.09836 0.0
H221 H 0.48872 0.1478 0.11729 0.0
H222 H 0.50769 0.09917 0.08621 0.0
H223 H 0.46364 0.90709 0.16451 0.0
H224 H 0.37538 0.92536 0.19382 0.0
H225 H 0.42142 0.0963 0.17414 0.0
C226 C 0.62316 0.05345 0.11953 0.0
C227 C 0.65311 0.01039 0.11113 0.0
C228 C 0.62841 0.95778 0.11475 0.0
C229 C 0.57435 0.94759 0.12833 0.0
C230 C 0.54586 -0.00922 0.13718 0.0
C231 C 0.56896 0.04284 0.1321 0.0
C232 C 0.52911 0.08197 0.14337 0.0
C233 C 0.54647 0.11199 0.17552 0.0
C234 C 0.5202 0.12124 0.10927 0.0
C235 C 0.48036 0.04353 0.15657 0.0
C236 C 0.49122 -0.00889 0.15313 0.0
C237 C 0.45408 0.94801 0.16632 0.0
C238 C 0.4041 0.95881 0.18286 0.0
C239 C 0.39125 0.01226 0.18505 0.0
C240 C 0.42993 0.05515 0.17189 0.0
H241 H 0.93017 0.37325 0.71039 0.0
H242 H 0.09883 0.3548 0.70801 0.0
H243 H 0.11893 0.45035 0.68191 0.0
H244 H 0.93479 0.45914 0.62701 0.0
H245 H 0.8853 0.5016 0.64383 0.0
H246 H 0.88308 0.43288 0.66432 0.0
H247 H 0.88574 0.46184 0.73069 0.0
H248 H 0.88618 0.53087 0.71099 0.0
H249 H 0.93771 0.51032 0.73868 0.0
H250 H 0.12 0.54302 0.64811 0.0
H251 H 0.10287 0.6329 0.61967 0.0
H252 H 0.9334 0.59506 0.65178 0.0
C253 C 0.9712 0.38991 0.70504 0.0
C254 C 0.01317 0.35755 0.71118 0.0
C255 C 0.06644 0.37975 0.70375 0.0
C256 C 0.07809 0.43362 0.68875 0.0
C257 C 0.03582 0.46451 0.68226 0.0
C258 C 0.98341 0.44393 0.69109 0.0
C259 C 0.94548 0.48593 0.68184 0.0
C260 C 0.91011 0.46885 0.6525 0.0
C261 C 0.9118 0.49796 0.71769 0.0
C262 C -0.01524 0.53301 0.66559 0.0
C263 C 0.03661 0.51948 0.66557 0.0
C264 C 0.0797 0.55474 0.64913 0.0
C265 C 0.0696 0.60573 0.63321 0.0
C266 C 0.01706 0.62158 0.63501 0.0
C267 C 0.97409 0.58445 0.65099 0.0
H268 H 0.97127 0.20267 0.5675 0.0
H269 H 0.09212 0.14138 0.633 0.0
H270 H 0.13552 0.10648 0.57735 0.0
H271 H 0.96538 0.0923 0.50912 0.0
H272 H 0.95649 0.13544 0.4673 0.0
H273 H 0.93233 0.15287 0.51301 0.0
H274 H -0.01285 0.24499 0.49785 0.0
H275 H 0.01124 0.22793 0.45212 0.0
H276 H 0.05775 0.24741 0.48346 0.0
H277 H 0.16839 0.08127 0.51474 0.0
H278 H 0.1914 0.07122 0.44776 0.0
H279 H 0.05153 0.15051 0.42105 0.0
C280 C 0.00701 0.18217 0.57005 0.0
C281 C 0.02801 0.17448 0.60485 0.0
C282 C 0.0747 0.14712 0.60695 0.0
C283 C 0.09977 0.12712 0.57542 0.0
C284 C 0.0779 0.13485 0.54173 0.0
C285 C 0.03275 0.16186 0.53866 0.0
C286 C 0.0188 0.16614 0.4986 0.0
C287 C 0.96506 0.13482 0.49692 0.0
C288 C 0.01877 0.22513 0.48203 0.0
C289 C 0.06443 0.13925 0.47947 0.0
C290 C 0.0974 0.12067 0.50513 0.0
C291 C 0.1429 0.09562 0.49433 0.0
C292 C 0.15582 0.09041 0.45614 0.0
C293 C 0.12361 0.11041 0.42898 0.0
C294 C 0.07674 0.1343 0.44108 0.0
H295 H 0.93276 0.24153 0.84041 0.0
H296 H 0.78018 0.25686 0.79925 0.0
H297 H 0.73586 0.2432 0.86517 0.0
H298 H 0.89366 0.1338 0.90161 0.0
H299 H 0.93453 0.14976 0.93731 0.0
H300 H 0.9548 0.17612 0.88914 0.0
H301 H 0.95965 0.27302 0.90709 0.0
H302 H 0.94032 0.24687 0.95572 0.0
H303 H 0.90277 0.29651 0.93312 0.0
H304 H 0.70807 0.21096 0.9356 0.0
H305 H 0.70047 0.16421 1.00085 0.0
H306 H 0.87202 0.16433 0.99186 0.0
C307 C 0.89018 0.24434 0.84536 0.0
C308 C 0.85975 0.2507 0.81506 0.0
C309 C 0.80414 0.25313 0.82229 0.0
C310 C 0.77878 0.24506 0.85962 0.0
C311 C 0.80989 0.23514 0.88895 0.0
C312 C 0.86467 0.2355 0.88197 0.0
C313 C 0.88912 0.21577 0.9167 0.0
C314 C 0.91975 0.16593 0.91081 0.0
C315 C 0.92507 0.26075 0.92888 0.0
C316 C 0.83949 0.2019 0.94417 0.0
C317 C 0.7941 0.21444 0.92829 0.0
C318 C 0.74348 0.20184 0.94836 0.0
C319 C 0.73943 0.17529 0.98527 0.0
C320 C 0.78568 0.16056 1.00096 0.0
C321 C 0.83604 0.17499 0.98033 0.0
H322 H 0.91091 0.84957 0.36372 0.0
H323 H 0.89177 -0.00894 0.42117 0.0
H324 H 0.86634 0.03951 0.3637 0.0
H325 H 0.96598 0.92525 0.27168 0.0
H326 H 0.93335 0.87969 0.24467 0.0
H327 H 0.95214 0.85544 0.28989 0.0
H328 H 0.85481 0.81781 0.31236 0.0
H329 H 0.83558 0.84204 0.2673 0.0
H330 H 0.80212 0.862 0.30975 0.0
H331 H 0.83907 0.07188 0.30259 0.0
H332 H 0.81615 0.08986 0.23855 0.0
H333 H 0.85303 0.92942 0.21651 0.0
C334 C 0.90162 0.89084 0.36404 0.0
C335 C 0.90363 0.91653 0.39716 0.0
C336 C 0.8914 0.97066 0.39625 0.0
C337 C 0.87654 -0.00151 0.36372 0.0
C338 C 0.87444 0.97205 0.33188 0.0
C339 C 0.88732 0.91977 0.33134 0.0
C340 C 0.88215 0.9017 0.29271 0.0
C341 C 0.93664 0.88981 0.27362 0.0
C342 C 0.84122 0.85299 0.29573 0.0
C343 C 0.86248 0.95137 0.27226 0.0
C344 C 0.85875 -0.00872 0.29568 0.0
C345 C 0.84184 0.04099 0.28399 0.0
C346 C 0.82864 0.05064 0.24738 0.0
C347 C 0.83235 0.01104 0.22223 0.0
C348 C 0.84971 0.96051 0.23492 0.0
H349 H 0.20521 0.81417 0.83185 0.0
H350 H 0.12082 0.65596 0.85738 0.0
H351 H 0.12234 0.6615 0.92516 0.0
H352 H 0.29329 0.79752 0.89886 0.0
H353 H 0.29343 0.8649 0.91138 0.0
H354 H 0.27985 0.85181 0.86515 0.0
H355 H 0.19019 0.89503 0.87475 0.0
H356 H 0.20398 0.90864 0.92094 0.0
H357 H 0.14297 0.87092 0.91532 0.0
H358 H 0.13951 0.68047 0.98937 0.0
H359 H 0.17232 0.71142 0.04599 0.0
H360 H 0.24736 0.85634 0.97889 0.0
C361 C 0.18682 0.78081 0.85172 0.0
C362 C 0.1629 0.73461 0.83934 0.0
C363 C 0.13877 0.69203 0.86622 0.0
C364 C 0.1395 0.69476 0.90478 0.0
C365 C 0.16418 0.74047 0.91599 0.0
C366 C 0.18717 0.78289 0.89031 0.0
C367 C 0.21391 0.82598 0.90967 0.0
C368 C 0.27366 0.83557 0.89542 0.0
C369 C 0.18609 0.87823 0.90489 0.0
C370 C 0.20447 0.79996 0.95003 0.0
C371 C 0.17477 0.75116 0.95314 0.0
C372 C 0.1623 0.71886 0.98741 0.0
C373 C 0.18103 0.73674 1.01935 0.0
C374 C 0.21239 0.78609 1.01665 0.0
C375 C 0.22377 0.81824 0.98159 0.0
H376 H 0.984 0.87751 0.89606 0.0
H377 H 0.81926 0.91014 0.89025 0.0
H378 H 0.82486 0.88258 0.8265 0.0
H379 H 0.03031 0.92383 0.79754 0.0
H380 H 0.07615 0.87281 0.79267 0.0
H381 H 0.06017 0.89631 0.83772 0.0
H382 H 0.03067 0.79913 0.86806 0.0
H383 H 0.04755 0.77586 0.82317 0.0
H384 H 0.98164 0.75962 0.8479 0.0
H385 H 0.84746 0.85052 0.76319 0.0
H386 H 0.88599 0.81778 0.70481 0.0
H387 H 0.03564 0.80306 0.7512 0.0
C388 C 0.94898 0.87866 0.8815 0.0
C389 C 0.90113 0.8964 0.89855 0.0
C390 C 0.85665 0.89772 0.87796 0.0
C391 C 0.8593 0.88173 0.84166 0.0
C392 C 0.90679 0.86435 0.82585 0.0
C393 C 0.95097 0.86292 0.845 0.0
C394 C -0.00276 0.84276 0.82132 0.0
C395 C 0.0437 0.88654 0.81174 0.0
C396 C 0.01527 0.79125 0.84133 0.0
C397 C 0.97169 0.83182 0.78632 0.0
C398 C 0.91963 0.8451 0.78946 0.0
C399 C 0.88814 0.83981 0.76051 0.0
C400 C 0.91039 0.82096 0.72738 0.0
C401 C 0.96375 0.80718 0.7232 0.0
C402 C -0.00551 0.81239 0.75346 0.0
H403 H 0.18273 0.94795 0.34286 0.0
H404 H 0.28704 0.82755 0.30955 0.0
H405 H 0.27026 0.78041 0.37459 0.0
H406 H 0.21709 0.95187 0.43719 0.0
H407 H 0.14971 0.9603 0.45591 0.0
H408 H 0.17372 0.98564 0.40782 0.0
H409 H 0.09557 0.93105 0.38536 0.0
H410 H 0.07146 0.90534 0.43327 0.0
H411 H 0.08562 0.85963 0.39902 0.0
H412 H 0.2383 0.7454 0.44433 0.0
H413 H 0.19123 0.72429 0.50928 0.0
H414 H 0.10733 0.86765 0.49269 0.0
C415 C 0.20278 0.91201 0.34902 0.0
C416 C 0.23651 0.8916 0.32105 0.0
C417 C 0.2612 0.84405 0.33057 0.0
C418 C 0.25196 0.81712 0.36743 0.0
C419 C 0.21793 0.83832 0.39421 0.0
C420 C 0.19371 0.88472 0.38518 0.0
C421 C 0.15655 0.89834 0.41784 0.0
C422 C 0.17543 0.9522 0.43043 0.0
C423 C 0.09892 0.89855 0.40828 0.0
C424 C 0.16289 0.85191 0.44676 0.0
C425 C 0.19884 0.81788 0.43309 0.0
C426 C 0.21016 0.77189 0.45524 0.0
C427 C 0.18343 0.76023 0.49204 0.0
C428 C 0.14539 0.79404 0.50576 0.0
C429 C 0.13577 0.84063 0.48285 0.0
H430 H 0.14367 0.03041 0.92426 0.0
H431 H 0.05334 0.1668 0.94486 0.0
H432 H 0.07946 0.16272 1.00873 0.0
H433 H 0.10909 0.95949 1.02069 0.0
H434 H 0.17342 0.93356 1.02144 0.0
H435 H 0.14621 0.9461 0.97752 0.0
H436 H 0.23135 0.00692 0.9502 0.0
H437 H 0.25811 -0.00478 0.99431 0.0
H438 H 0.2516 0.06285 0.97408 0.0
H439 H 0.11824 0.1476 0.0691 0.0
H440 H 0.16243 0.11859 0.1242 0.0
H441 H 0.2252 0.98871 0.06746 0.0
C442 C 0.12876 0.05904 0.9423 0.0
C443 C 0.0971 0.0997 0.92885 0.0
C444 C 0.07883 0.1363 0.9537 0.0
C445 C 0.09309 0.13404 0.99031 0.0
C446 C 0.12523 0.09449 1.00223 0.0
C447 C 0.14227 0.05707 0.97929 0.0
C448 C 0.17639 0.01859 0.99949 0.0
C449 C 0.14968 0.96103 1.00512 0.0
C450 C 0.23271 0.02109 0.97824 0.0
C451 C 0.17702 0.04138 0.03689 0.0
C452 C 0.14698 0.085 0.03774 0.0
C453 C 0.14176 0.1134 0.06881 0.0
C454 C 0.16742 0.09665 0.10001 0.0
C455 C 0.19794 0.05152 0.10039 0.0
C456 C 0.20274 0.02366 0.06813 0.0
H457 H 0.79131 0.20467 0.32897 0.0
H458 H 0.66488 0.30937 0.31245 0.0
H459 H 0.67148 0.33855 0.37493 0.0
H460 H 0.75525 0.16515 0.42809 0.0
H461 H 0.82296 0.16596 0.43876 0.0
H462 H 0.80763 0.15196 0.39302 0.0
H463 H 0.87591 0.22965 0.3616 0.0
H464 H 0.89152 0.24375 0.40726 0.0
H465 H 0.87042 0.29599 0.37525 0.0
H466 H 0.69152 0.35672 0.43922 0.0
H467 H 0.72411 0.36324 0.50053 0.0
H468 H 0.84132 0.25097 0.4742 0.0
C469 C 0.76523 0.23407 0.33825 0.0
C470 C 0.72725 0.25435 0.31555 0.0
C471 C 0.69356 0.29226 0.32934 0.0
C472 C 0.69727 0.30947 0.36477 0.0
C473 C 0.73508 0.28874 0.38625 0.0
C474 C 0.76861 0.252 0.37352 0.0
C475 C 0.80624 0.23654 0.40207 0.0
C476 C 0.79747 0.17633 0.41632 0.0
C477 C 0.86447 0.25245 0.38555 0.0
C478 C 0.78856 0.2704 0.43281 0.0
C479 C 0.74739 0.30007 0.4231 0.0
C480 C 0.72404 0.33397 0.447 0.0
C481 C 0.74322 0.33774 0.48174 0.0
C482 C 0.78571 0.30804 0.49241 0.0
C483 C 0.80851 0.27393 0.46733 0.0
loop_
_geom_bond_atom_site_label_1
_geom_bond_atom_site_label_2
_geom_bond_distance
_geom_bond_site_symmetry_2
_ccdc_geom_bond_type
Pr0 C2 2.880 . S
Pr0 O20 2.562 . S
Pr0 O21 2.490 . S
Pr0 O22 2.695 . S
Pr0 O23 2.512 . S
Pr0 O25 2.437 . S
Pr0 O28 2.436 . S
Pr0 O30 2.438 . S
Pr1 C11 2.880 . S
Pr1 O22 2.436 1_565 S
Pr1 O24 2.438 . S
Pr1 O26 2.562 . S
Pr1 O27 2.490 . S
Pr1 O28 2.695 1_565 S
Pr1 O29 2.512 . S
Pr1 O31 2.437 1_565 S
C2 Pr0 2.880 . S
C2 C3 1.491 . S
C2 O20 1.254 . S
C2 O21 1.225 . S
C3 C2 1.491 . S
C3 C4 1.392 . S
C3 C8 1.356 . S
C4 C3 1.392 . S
C4 C5 1.368 . S
C4 H32 0.929 . S
C5 C4 1.368 . S
C5 C6 1.386 . S
C5 H33 0.929 . S
C6 C5 1.386 . S
C6 C7 1.373 . S
C7 C6 1.373 . S
C7 C8 1.409 . S
C7 H34 0.931 . S
C8 C3 1.356 . S
C8 C7 1.409 . S
C8 H35 0.930 . S
C9 O22 1.270 . S
C9 O23 1.248 . S
C10 O24 1.267 . S
C10 O25 1.278 1_565 S
C11 Pr1 2.880 . S
C11 C12 1.491 . S
C11 O26 1.254 . S
C11 O27 1.225 . S
C12 C11 1.491 . S
C12 C13 1.392 . S
C12 C17 1.356 . S
C13 C12 1.392 . S
C13 C14 1.368 1_554 S
C13 H36 0.929 . S
C14 C13 1.368 1_556 S
C14 C15 1.386 . S
C14 H37 0.929 . S
C15 C14 1.386 . S
C15 C16 1.373 . S
C16 C15 1.373 . S
C16 C17 1.409 1_556 S
C16 H38 0.931 . S
C17 C12 1.356 . S
C17 C16 1.409 1_554 S
C17 H39 0.930 . S
C18 O28 1.270 . S
C18 O29 1.248 1_545 S
C19 O30 1.267 . S
C19 O31 1.278 . S
O20 Pr0 2.562 . S
O20 C2 1.254 . S
O21 Pr0 2.490 . S
O21 C2 1.225 . S
O22 Pr0 2.695 . S
O22 Pr1 2.436 1_545 S
O22 C9 1.270 . S
O23 Pr0 2.512 . S
O23 C9 1.248 . S
O24 Pr1 2.438 . S
O24 C10 1.267 . S
O25 Pr0 2.437 . S
O25 C10 1.278 1_545 S
O26 Pr1 2.562 . S
O26 C11 1.254 . S
O27 Pr1 2.490 . S
O27 C11 1.225 . S
O28 Pr0 2.436 . S
O28 Pr1 2.695 1_545 S
O28 C18 1.270 . S
O29 Pr1 2.512 . S
O29 C18 1.248 1_565 S
O30 Pr0 2.438 . S
O30 C19 1.267 . S
O31 Pr1 2.437 1_545 S
O31 C19 1.278 . S
H32 C4 0.929 . S
H33 C5 0.929 . S
H34 C7 0.931 . S
H35 C8 0.930 . S
H36 C13 0.929 . S
H37 C14 0.929 . S
H38 C16 0.931 . S
H39 C17 0.930 . S
Pr40 C42 2.880 . S
Pr40 O60 2.562 . S
Pr40 O61 2.490 . S
Pr40 O62 2.695 1_655 S
Pr40 O63 2.512 . S
Pr40 O65 2.437 1_655 S
Pr40 O68 2.436 1_655 S
Pr40 O70 2.438 . S
Pr41 C51 2.880 . S
Pr41 O62 2.436 . S
Pr41 O64 2.438 . S
Pr41 O66 2.562 . S
Pr41 O67 2.490 . S
Pr41 O68 2.695 . S
Pr41 O69 2.512 . S
Pr41 O71 2.437 . S
C42 Pr40 2.880 . S
C42 C43 1.491 . S
C42 O60 1.254 . S
C42 O61 1.225 . S
C43 C42 1.491 . S
C43 C44 1.392 . S
C43 C48 1.356 . S
C44 C43 1.392 . S
C44 C45 1.368 . S
C44 H72 0.929 . S
C45 C44 1.368 . S
C45 C46 1.386 . S
C45 H73 0.929 . S
C46 C45 1.386 . S
C46 C47 1.373 . S
C47 C46 1.373 . S
C47 C48 1.409 . S
C47 H74 0.931 . S
C48 C43 1.356 . S
C48 C47 1.409 . S
C48 H75 0.930 . S
C49 O62 1.270 . S
C49 O63 1.248 1_455 S
C50 O64 1.267 . S
C50 O65 1.278 . S
C51 Pr41 2.880 . S
C51 C52 1.491 . S
C51 O66 1.254 . S
C51 O67 1.225 . S
C52 C51 1.491 . S
C52 C53 1.392 . S
C52 C57 1.356 . S
C53 C52 1.392 . S
C53 C54 1.368 . S
C53 H76 0.929 . S
C54 C53 1.368 . S
C54 C55 1.386 . S
C54 H77 0.929 . S
C55 C54 1.386 . S
C55 C56 1.373 . S
C56 C55 1.373 . S
C56 C57 1.409 . S
C56 H78 0.931 . S
C57 C52 1.356 . S
C57 C56 1.409 . S
C57 H79 0.930 . S
C58 O68 1.270 . S
C58 O69 1.248 . S
C59 O70 1.267 . S
C59 O71 1.278 1_655 S
O60 Pr40 2.562 . S
O60 C42 1.254 . S
O61 Pr40 2.490 . S
O61 C42 1.225 . S
O62 Pr40 2.695 1_455 S
O62 Pr41 2.436 . S
O62 C49 1.270 . S
O63 Pr40 2.512 . S
O63 C49 1.248 1_655 S
O64 Pr41 2.438 . S
O64 C50 1.267 . S
O65 Pr40 2.437 1_455 S
O65 C50 1.278 . S
O66 Pr41 2.562 . S
O66 C51 1.254 . S
O67 Pr41 2.490 . S
O67 C51 1.225 . S
O68 Pr40 2.436 1_455 S
O68 Pr41 2.695 . S
O68 C58 1.270 . S
O69 Pr41 2.512 . S
O69 C58 1.248 . S
O70 Pr40 2.438 . S
O70 C59 1.267 . S
O71 Pr41 2.437 . S
O71 C59 1.278 1_455 S
H72 C44 0.929 . S
H73 C45 0.929 . S
H74 C47 0.931 . S
H75 C48 0.930 . S
H76 C53 0.929 . S
H77 C54 0.929 . S
H78 C56 0.931 . S
H79 C57 0.930 . S
Pr80 C82 2.880 . S
Pr80 O100 2.562 . S
Pr80 O101 2.490 . S
Pr80 O102 2.695 . S
Pr80 O103 2.512 . S
Pr80 O105 2.437 . S
Pr80 O108 2.436 . S
Pr80 O110 2.438 . S
Pr81 C91 2.880 1_554 S
Pr81 O102 2.436 1_565 S
Pr81 O104 2.438 . S
Pr81 O106 2.562 . S
Pr81 O107 2.490 . S
Pr81 O108 2.695 1_565 S
Pr81 O109 2.512 . S
Pr81 O111 2.437 1_565 S
C82 Pr80 2.880 . S
C82 C83 1.491 . S
C82 O100 1.254 . S
C82 O101 1.225 . S
C83 C82 1.491 . S
C83 C84 1.392 . S
C83 C88 1.356 . S
C84 C83 1.392 . S
C84 C85 1.368 . S
C84 H112 0.929 . S
C85 C84 1.368 . S
C85 C86 1.386 . S
C85 H113 0.929 . S
C86 C85 1.386 . S
C86 C87 1.373 . S
C87 C86 1.373 . S
C87 C88 1.409 . S
C87 H114 0.931 . S
C88 C83 1.356 . S
C88 C87 1.409 . S
C88 H115 0.930 . S
C89 O102 1.270 . S
C89 O103 1.248 . S
C90 O104 1.267 . S
C90 O105 1.278 1_565 S
C91 Pr81 2.880 1_556 S
C91 C92 1.491 . S
C91 O106 1.254 1_556 S
C91 O107 1.225 1_556 S
C92 C91 1.491 . S
C92 C93 1.392 . S
C92 C97 1.356 . S
C93 C92 1.392 . S
C93 C94 1.368 . S
C93 H116 0.929 . S
C94 C93 1.368 . S
C94 C95 1.386 . S
C94 H117 0.929 . S
C95 C94 1.386 . S
C95 C96 1.373 . S
C96 C95 1.373 . S
C96 C97 1.409 . S
C96 H118 0.931 . S
C97 C92 1.356 . S
C97 C96 1.409 . S
C97 H119 0.930 . S
C98 O108 1.270 . S
C98 O109 1.248 1_545 S
C99 O110 1.267 . S
C99 O111 1.278 . S
O100 Pr80 2.562 . S
O100 C82 1.254 . S
O101 Pr80 2.490 . S
O101 C82 1.225 . S
O102 Pr80 2.695 . S
O102 Pr81 2.436 1_545 S
O102 C89 1.270 . S
O103 Pr80 2.512 . S
O103 C89 1.248 . S
O104 Pr81 2.438 . S
O104 C90 1.267 . S
O105 Pr80 2.437 . S
O105 C90 1.278 1_545 S
O106 Pr81 2.562 . S
O106 C91 1.254 1_554 S
O107 Pr81 2.490 . S
O107 C91 1.225 1_554 S
O108 Pr80 2.436 . S
O108 Pr81 2.695 1_545 S
O108 C98 1.270 . S
O109 Pr81 2.512 . S
O109 C98 1.248 1_565 S
O110 Pr80 2.438 . S
O110 C99 1.267 . S
O111 Pr81 2.437 1_545 S
O111 C99 1.278 . S
H112 C84 0.929 . S
H113 C85 0.929 . S
H114 C87 0.931 . S
H115 C88 0.930 . S
H116 C93 0.929 . S
H117 C94 0.929 . S
H118 C96 0.931 . S
H119 C97 0.930 . S
Pr120 C122 2.880 . S
Pr120 O140 2.562 . S
Pr120 O141 2.490 . S
Pr120 O142 2.695 1_655 S
Pr120 O143 2.512 . S
Pr120 O145 2.437 1_655 S
Pr120 O148 2.436 1_655 S
Pr120 O150 2.438 . S
Pr121 C131 2.880 . S
Pr121 O142 2.436 . S
Pr121 O144 2.438 . S
Pr121 O146 2.562 . S
Pr121 O147 2.490 . S
Pr121 O148 2.695 . S
Pr121 O149 2.512 . S
Pr121 O151 2.437 . S
C122 Pr120 2.880 . S
C122 C123 1.491 . S
C122 O140 1.254 . S
C122 O141 1.225 . S
C123 C122 1.491 . S
C123 C124 1.392 . S
C123 C128 1.356 . S
C124 C123 1.392 . S
C124 C125 1.368 . S
C124 H152 0.929 . S
C125 C124 1.368 . S
C125 C126 1.386 . S
C125 H153 0.929 . S
C126 C125 1.386 . S
C126 C127 1.373 . S
C127 C126 1.373 . S
C127 C128 1.409 . S
C127 H154 0.931 . S
C128 C123 1.356 . S
C128 C127 1.409 . S
C128 H155 0.930 . S
C129 O142 1.270 . S
C129 O143 1.248 1_455 S
C130 O144 1.267 . S
C130 O145 1.278 . S
C131 Pr121 2.880 . S
C131 C132 1.491 . S
C131 O146 1.254 . S
C131 O147 1.225 . S
C132 C131 1.491 . S
C132 C133 1.392 . S
C132 C137 1.356 . S
C133 C132 1.392 . S
C133 C134 1.368 . S
C133 H156 0.929 . S
C134 C133 1.368 . S
C134 C135 1.386 . S
C134 H157 0.929 . S
C135 C134 1.386 . S
C135 C136 1.373 . S
C136 C135 1.373 . S
C136 C137 1.409 . S
C136 H158 0.931 . S
C137 C132 1.356 . S
C137 C136 1.409 . S
C137 H159 0.930 . S
C138 O148 1.270 . S
C138 O149 1.248 . S
C139 O150 1.267 . S
C139 O151 1.278 1_655 S
O140 Pr120 2.562 . S
O140 C122 1.254 . S
O141 Pr120 2.490 . S
O141 C122 1.225 . S
O142 Pr120 2.695 1_455 S
O142 Pr121 2.436 . S
O142 C129 1.270 . S
O143 Pr120 2.512 . S
O143 C129 1.248 1_655 S
O144 Pr121 2.438 . S
O144 C130 1.267 . S
O145 Pr120 2.437 1_455 S
O145 C130 1.278 . S
O146 Pr121 2.562 . S
O146 C131 1.254 . S
O147 Pr121 2.490 . S
O147 C131 1.225 . S
O148 Pr120 2.436 1_455 S
O148 Pr121 2.695 . S
O148 C138 1.270 . S
O149 Pr121 2.512 . S
O149 C138 1.248 . S
O150 Pr120 2.438 . S
O150 C139 1.267 . S
O151 Pr121 2.437 . S
O151 C139 1.278 1_455 S
H152 C124 0.929 . S
H153 C125 0.929 . S
H154 C127 0.931 . S
H155 C128 0.930 . S
H156 C133 0.929 . S
H157 C134 0.929 . S
H158 C136 0.931 . S
H159 C137 0.930 . S
H160 C172 0.930 . S
H161 C174 0.930 . S
H162 C175 0.930 . S
H163 C179 0.959 . S
H164 C179 0.959 . S
H165 C179 0.961 . S
H166 C180 0.960 1_655 S
H167 C180 0.961 . S
H168 C180 0.959 1_655 S
H169 C183 0.929 . S
H170 C184 0.931 . S
H171 C186 0.930 . S
C172 H160 0.930 . S
C172 C173 1.399 . S
C172 C177 1.399 . S
C173 C172 1.399 . S
C173 C174 1.376 1_545 S
C174 H161 0.930 . S
C174 C173 1.376 1_565 S
C174 C175 1.388 . S
C175 H162 0.930 . S
C175 C174 1.388 . S
C175 C176 1.402 . S
C176 C175 1.402 . S
C176 C177 1.379 1_565 S
C176 C182 1.465 1_655 S
C177 C172 1.399 . S
C177 C176 1.379 1_545 S
C177 C178 1.516 1_655 S
C178 C177 1.516 1_455 S
C178 C179 1.502 . S
C178 C180 1.561 . S
C178 C181 1.526 . S
C179 H163 0.959 . S
C179 H164 0.959 . S
C179 H165 0.961 . S
C179 C178 1.502 . S
C180 H166 0.960 1_455 S
C180 H167 0.961 . S
C180 H168 0.959 1_455 S
C180 C178 1.561 . S
C181 C178 1.526 . S
C181 C182 1.396 1_545 S
C181 C186 1.390 . S
C182 C176 1.465 1_455 S
C182 C181 1.396 1_565 S
C182 C183 1.399 . S
C183 H169 0.929 . S
C183 C182 1.399 . S
C183 C184 1.385 . S
C184 H170 0.931 . S
C184 C183 1.385 . S
C184 C185 1.389 1_565 S
C185 C184 1.389 1_545 S
C185 C186 1.387 . S
C186 H171 0.930 . S
C186 C181 1.390 . S
C186 C185 1.387 . S
H187 C199 0.930 . S
H188 C201 0.930 . S
H189 C202 0.930 . S
H190 C206 0.959 . S
H191 C206 0.959 . S
H192 C206 0.961 . S
H193 C207 0.960 . S
H194 C207 0.961 1_545 S
H195 C207 0.959 1_545 S
H196 C210 0.929 . S
H197 C211 0.931 . S
H198 C213 0.930 . S
C199 H187 0.930 . S
C199 C200 1.399 . S
C199 C204 1.399 . S
C200 C199 1.399 . S
C200 C201 1.376 1_455 S
C201 H188 0.930 . S
C201 C200 1.376 1_655 S
C201 C202 1.388 1_565 S
C202 H189 0.930 . S
C202 C201 1.388 1_545 S
C202 C203 1.390 1_655 S
C203 C202 1.390 1_455 S
C203 C204 1.394 1_545 S
C203 C209 1.465 . S
C204 C199 1.399 . S
C204 C203 1.394 1_565 S
C204 C205 1.516 . S
C205 C204 1.516 . S
C205 C206 1.502 . S
C205 C207 1.561 . S
C205 C208 1.526 1_565 S
C206 H190 0.959 . S
C206 H191 0.959 . S
C206 H192 0.961 . S
C206 C205 1.502 . S
C207 H193 0.960 . S
C207 H194 0.961 1_565 S
C207 H195 0.959 1_565 S
C207 C205 1.561 . S
C208 C205 1.526 1_545 S
C208 C209 1.396 . S
C208 C213 1.390 . S
C209 C203 1.465 . S
C209 C208 1.396 . S
C209 C210 1.399 1_455 S
C210 H196 0.929 . S
C210 C209 1.399 1_655 S
C210 C211 1.385 . S
C211 H197 0.931 . S
C211 C210 1.385 . S
C211 C212 1.389 1_655 S
C212 C211 1.389 1_455 S
C212 C213 1.387 . S
C213 H198 0.930 . S
C213 C208 1.390 . S
C213 C212 1.387 . S
H214 C226 0.930 . S
H215 C228 0.930 . S
H216 C229 0.930 . S
H217 C233 0.959 . S
H218 C233 0.959 . S
H219 C233 0.961 . S
H220 C234 0.960 . S
H221 C234 0.961 . S
H222 C234 0.959 . S
H223 C237 0.929 . S
H224 C238 0.931 . S
H225 C240 0.930 . S
C226 H214 0.930 . S
C226 C227 1.399 . S
C226 C231 1.399 . S
C227 C226 1.399 . S
C227 C228 1.376 1_545 S
C228 H215 0.930 . S
C228 C227 1.376 1_565 S
C228 C229 1.388 . S
C229 H216 0.930 . S
C229 C228 1.388 . S
C229 C230 1.390 . S
C230 C229 1.390 . S
C230 C231 1.394 1_565 S
C230 C236 1.465 . S
C231 C226 1.399 . S
C231 C230 1.394 1_545 S
C231 C232 1.516 . S
C232 C231 1.516 . S
C232 C233 1.502 . S
C232 C234 1.561 . S
C232 C235 1.526 . S
C233 H217 0.959 . S
C233 H218 0.959 . S
C233 H219 0.961 . S
C233 C232 1.502 . S
C234 H220 0.960 . S
C234 H221 0.961 . S
C234 H222 0.959 . S
C234 C232 1.561 . S
C235 C232 1.526 . S
C235 C236 1.396 1_545 S
C235 C240 1.390 . S
C236 C230 1.465 . S
C236 C235 1.396 1_565 S
C236 C237 1.399 . S
C237 H223 0.929 . S
C237 C236 1.399 . S
C237 C238 1.385 . S
C238 H224 0.931 . S
C238 C237 1.385 . S
C238 C239 1.389 1_565 S
C239 C238 1.389 1_545 S
C239 C240 1.387 . S
C240 H225 0.930 . S
C240 C235 1.390 . S
C240 C239 1.387 . S
H241 C253 0.930 . S
H242 C255 0.930 . S
H243 C256 0.930 . S
H244 C260 0.959 . S
H245 C260 0.959 . S
H246 C260 0.961 . S
H247 C261 0.960 . S
H248 C261 0.961 . S
H249 C261 0.959 . S
H250 C264 0.929 . S
H251 C265 0.931 . S
H252 C267 0.930 . S
C253 H241 0.930 . S
C253 C254 1.399 1_655 S
C253 C258 1.399 . S
C254 C253 1.399 1_455 S
C254 C255 1.376 . S
C255 H242 0.930 . S
C255 C254 1.376 . S
C255 C256 1.388 . S
C256 H243 0.930 . S
C256 C255 1.388 . S
C256 C257 1.390 . S
C257 C256 1.390 . S
C257 C258 1.394 1_455 S
C257 C263 1.465 . S
C258 C253 1.399 . S
C258 C257 1.394 1_655 S
C258 C259 1.516 . S
C259 C258 1.516 . S
C259 C260 1.502 . S
C259 C261 1.561 . S
C259 C262 1.526 . S
C260 H244 0.959 . S
C260 H245 0.959 . S
C260 H246 0.961 . S
C260 C259 1.502 . S
C261 H247 0.960 . S
C261 H248 0.961 . S
C261 H249 0.959 . S
C261 C259 1.561 . S
C262 C259 1.526 . S
C262 C263 1.396 1_655 S
C262 C267 1.390 . S
C263 C257 1.465 . S
C263 C262 1.396 1_455 S
C263 C264 1.399 . S
C264 H250 0.929 . S
C264 C263 1.399 . S
C264 C265 1.385 . S
C265 H251 0.931 . S
C265 C264 1.385 . S
C265 C266 1.389 . S
C266 C265 1.389 . S
C266 C267 1.387 1_455 S
C267 H252 0.930 . S
C267 C262 1.390 . S
C267 C266 1.387 1_655 S
H268 C280 0.930 . S
H269 C282 0.930 . S
H270 C283 0.930 . S
H271 C287 0.959 . S
H272 C287 0.959 . S
H273 C287 0.961 . S
H274 C288 0.960 . S
H275 C288 0.961 . S
H276 C288 0.959 . S
H277 C291 0.929 . S
H278 C292 0.931 . S
H279 C294 0.930 . S
C280 H268 0.930 . S
C280 C281 1.399 . S
C280 C285 1.399 . S
C281 C280 1.399 . S
C281 C282 1.376 . S
C282 H269 0.930 . S
C282 C281 1.376 . S
C282 C283 1.388 . S
C283 H270 0.930 . S
C283 C282 1.388 . S
C283 C284 1.390 . S
C284 C283 1.390 . S
C284 C285 1.394 . S
C284 C290 1.465 . S
C285 C280 1.399 . S
C285 C284 1.394 . S
C285 C286 1.516 . S
C286 C285 1.516 . S
C286 C287 1.502 . S
C286 C288 1.561 . S
C286 C289 1.526 . S
C287 H271 0.959 . S
C287 H272 0.959 . S
C287 H273 0.961 . S
C287 C286 1.502 . S
C288 H274 0.960 . S
C288 H275 0.961 . S
C288 H276 0.959 . S
C288 C286 1.561 . S
C289 C286 1.526 . S
C289 C290 1.396 . S
C289 C294 1.390 . S
C290 C284 1.465 . S
C290 C289 1.396 . S
C290 C291 1.399 . S
C291 H277 0.929 . S
C291 C290 1.399 . S
C291 C292 1.385 . S
C292 H278 0.931 . S
C292 C291 1.385 . S
C292 C293 1.389 . S
C293 C292 1.389 . S
C293 C294 1.387 . S
C294 H279 0.930 . S
C294 C289 1.390 . S
C294 C293 1.387 . S
H295 C307 0.930 . S
H296 C309 0.930 . S
H297 C310 0.930 . S
H298 C314 0.959 . S
H299 C314 0.959 . S
H300 C314 0.961 . S
H301 C315 0.960 . S
H302 C315 0.961 . S
H303 C315 0.959 . S
H304 C318 0.929 . S
H305 C319 0.931 . S
H306 C321 0.930 . S
C307 H295 0.930 . S
C307 C308 1.399 . S
C307 C312 1.399 . S
C308 C307 1.399 . S
C308 C309 1.376 . S
C309 H296 0.930 . S
C309 C308 1.376 . S
C309 C310 1.388 . S
C310 H297 0.930 . S
C310 C309 1.388 . S
C310 C311 1.390 . S
C311 C310 1.390 . S
C311 C312 1.394 . S
C311 C317 1.465 . S
C312 C307 1.399 . S
C312 C311 1.394 . S
C312 C313 1.516 . S
C313 C312 1.516 . S
C313 C314 1.502 . S
C313 C315 1.561 . S
C313 C316 1.526 . S
C314 H298 0.959 . S
C314 H299 0.959 . S
C314 H300 0.961 . S
C314 C313 1.502 . S
C315 H301 0.960 . S
C315 H302 0.961 . S
C315 H303 0.959 . S
C315 C313 1.561 . S
C316 C313 1.526 . S
C316 C317 1.396 . S
C316 C321 1.390 . S
C317 C311 1.465 . S
C317 C316 1.396 . S
C317 C318 1.399 . S
C318 H304 0.929 . S
C318 C317 1.399 . S
C318 C319 1.385 . S
C319 H305 0.931 . S
C319 C318 1.385 . S
C319 C320 1.389 . S
C320 C319 1.389 . S
C320 C321 1.387 . S
C321 H306 0.930 . S
C321 C316 1.390 . S
C321 C320 1.387 . S
H322 C334 0.930 . S
H323 C336 0.930 . S
H324 C337 0.930 . S
H325 C341 0.959 . S
H326 C341 0.959 . S
H327 C341 0.961 . S
H328 C342 0.960 . S
H329 C342 0.961 . S
H330 C342 0.959 . S
H331 C345 0.929 . S
H332 C346 0.931 1_545 S
H333 C348 0.930 . S
C334 H322 0.930 . S
C334 C335 1.399 . S
C334 C339 1.399 . S
C335 C334 1.399 . S
C335 C336 1.376 . S
C336 H323 0.930 . S
C336 C335 1.376 . S
C336 C337 1.388 . S
C337 H324 0.930 . S
C337 C336 1.388 . S
C337 C338 1.390 . S
C338 C337 1.390 . S
C338 C339 1.394 . S
C338 C344 1.465 . S
C339 C334 1.399 . S
C339 C338 1.394 . S
C339 C340 1.516 . S
C340 C339 1.516 . S
C340 C341 1.502 . S
C340 C342 1.561 . S
C340 C343 1.526 . S
C341 H325 0.959 . S
C341 H326 0.959 . S
C341 H327 0.961 . S
C341 C340 1.502 . S
C342 H328 0.960 . S
C342 H329 0.961 . S
C342 H330 0.959 . S
C342 C340 1.561 . S
C343 C340 1.526 . S
C343 C344 1.396 . S
C343 C348 1.390 . S
C344 C338 1.465 . S
C344 C343 1.396 . S
C344 C345 1.399 . S
C345 H331 0.929 . S
C345 C344 1.399 . S
C345 C346 1.385 . S
C346 H332 0.931 1_565 S
C346 C345 1.385 . S
C346 C347 1.389 . S
C347 C346 1.389 . S
C347 C348 1.387 . S
C348 H333 0.930 . S
C348 C343 1.390 . S
C348 C347 1.387 . S
H349 C361 0.930 . S
H350 C363 0.930 . S
H351 C364 0.930 . S
H352 C368 0.959 . S
H353 C368 0.959 . S
H354 C368 0.961 . S
H355 C369 0.960 . S
H356 C369 0.961 . S
H357 C369 0.959 . S
H358 C372 0.929 . S
H359 C373 0.931 . S
H360 C375 0.930 . S
C361 H349 0.930 . S
C361 C362 1.399 . S
C361 C366 1.399 . S
C362 C361 1.399 . S
C362 C363 1.376 . S
C363 H350 0.930 . S
C363 C362 1.376 . S
C363 C364 1.388 . S
C364 H351 0.930 . S
C364 C363 1.388 . S
C364 C365 1.390 . S
C365 C364 1.390 . S
C365 C366 1.394 . S
C365 C371 1.465 . S
C366 C361 1.399 . S
C366 C365 1.394 . S
C366 C367 1.516 . S
C367 C366 1.516 . S
C367 C368 1.502 . S
C367 C369 1.561 . S
C367 C370 1.526 . S
C368 H352 0.959 . S
C368 H353 0.959 . S
C368 H354 0.961 . S
C368 C367 1.502 . S
C369 H355 0.960 . S
C369 H356 0.961 . S
C369 H357 0.959 . S
C369 C367 1.561 . S
C370 C367 1.526 . S
C370 C371 1.396 . S
C370 C375 1.390 . S
C371 C365 1.465 . S
C371 C370 1.396 . S
C371 C372 1.399 . S
C372 H358 0.929 . S
C372 C371 1.399 . S
C372 C373 1.385 . S
C373 H359 0.931 . S
C373 C372 1.385 . S
C373 C374 1.389 . S
C374 C373 1.389 . S
C374 C375 1.387 . S
C375 H360 0.930 . S
C375 C370 1.390 . S
C375 C374 1.387 . S
H376 C388 0.930 . S
H377 C390 0.930 . S
H378 C391 0.930 . S
H379 C395 0.959 . S
H380 C395 0.959 . S
H381 C395 0.961 . S
H382 C396 0.960 . S
H383 C396 0.961 . S
H384 C396 0.959 . S
H385 C399 0.929 . S
H386 C400 0.931 . S
H387 C402 0.930 . S
C388 H376 0.930 . S
C388 C389 1.399 . S
C388 C393 1.399 . S
C389 C388 1.399 . S
C389 C390 1.376 . S
C390 H377 0.930 . S
C390 C389 1.376 . S
C390 C391 1.388 . S
C391 H378 0.930 . S
C391 C390 1.388 . S
C391 C392 1.390 . S
C392 C391 1.390 . S
C392 C393 1.394 . S
C392 C398 1.465 . S
C393 C388 1.399 . S
C393 C392 1.394 . S
C393 C394 1.516 . S
C394 C393 1.516 . S
C394 C395 1.502 . S
C394 C396 1.561 . S
C394 C397 1.526 . S
C395 H379 0.959 . S
C395 H380 0.959 . S
C395 H381 0.961 . S
C395 C394 1.502 . S
C396 H382 0.960 . S
C396 H383 0.961 . S
C396 H384 0.959 . S
C396 C394 1.561 . S
C397 C394 1.526 . S
C397 C398 1.396 . S
C397 C402 1.390 . S
C398 C392 1.465 . S
C398 C397 1.396 . S
C398 C399 1.399 . S
C399 H385 0.929 . S
C399 C398 1.399 . S
C399 C400 1.385 . S
C400 H386 0.931 . S
C400 C399 1.385 . S
C400 C401 1.389 . S
C401 C400 1.389 . S
C401 C402 1.387 . S
C402 H387 0.930 . S
C402 C397 1.390 . S
C402 C401 1.387 . S
H403 C415 0.930 . S
H404 C417 0.930 . S
H405 C418 0.930 . S
H406 C422 0.959 . S
H407 C422 0.959 . S
H408 C422 0.961 . S
H409 C423 0.960 1_545 S
H410 C423 0.961 . S
H411 C423 0.959 . S
H412 C426 0.929 . S
H413 C427 0.931 . S
H414 C429 0.930 . S
C415 H403 0.930 . S
C415 C416 1.399 . S
C415 C420 1.399 . S
C416 C415 1.399 . S
C416 C417 1.376 . S
C417 H404 0.930 . S
C417 C416 1.376 . S
C417 C418 1.388 . S
C418 H405 0.930 . S
C418 C417 1.388 . S
C418 C419 1.390 . S
C419 C418 1.390 . S
C419 C420 1.394 . S
C419 C425 1.465 . S
C420 C415 1.399 . S
C420 C419 1.394 . S
C420 C421 1.516 . S
C421 C420 1.516 . S
C421 C422 1.502 . S
C421 C423 1.561 . S
C421 C424 1.526 . S
C422 H406 0.959 . S
C422 H407 0.959 . S
C422 H408 0.961 . S
C422 C421 1.502 . S
C423 H409 0.960 1_565 S
C423 H410 0.961 . S
C423 H411 0.959 . S
C423 C421 1.561 . S
C424 C421 1.526 . S
C424 C425 1.396 . S
C424 C429 1.390 . S
C425 C419 1.465 . S
C425 C424 1.396 . S
C425 C426 1.399 . S
C426 H412 0.929 . S
C426 C425 1.399 . S
C426 C427 1.385 . S
C427 H413 0.931 . S
C427 C426 1.385 . S
C427 C428 1.389 . S
C428 C427 1.389 . S
C428 C429 1.387 . S
C429 H414 0.930 . S
C429 C424 1.390 . S
C429 C428 1.387 . S
H430 C442 0.930 . S
H431 C444 0.930 . S
H432 C445 0.930 . S
H433 C449 0.959 . S
H434 C449 0.959 . S
H435 C449 0.961 . S
H436 C450 0.960 . S
H437 C450 0.961 . S
H438 C450 0.959 . S
H439 C453 0.929 . S
H440 C454 0.931 . S
H441 C456 0.930 . S
C442 H430 0.930 . S
C442 C443 1.399 . S
C442 C447 1.399 . S
C443 C442 1.399 . S
C443 C444 1.376 . S
C444 H431 0.930 . S
C444 C443 1.376 . S
C444 C445 1.388 . S
C445 H432 0.930 . S
C445 C444 1.388 . S
C445 C446 1.390 . S
C446 C445 1.390 . S
C446 C447 1.394 . S
C446 C452 1.465 1_556 S
C447 C442 1.399 . S
C447 C446 1.394 . S
C447 C448 1.516 . S
C448 C447 1.516 . S
C448 C449 1.502 . S
C448 C450 1.561 . S
C448 C451 1.526 1_556 S
C449 H433 0.959 . S
C449 H434 0.959 . S
C449 H435 0.961 . S
C449 C448 1.502 . S
C450 H436 0.960 . S
C450 H437 0.961 . S
C450 H438 0.959 . S
C450 C448 1.561 . S
C451 C448 1.526 1_554 S
C451 C452 1.396 . S
C451 C456 1.390 . S
C452 C446 1.465 1_554 S
C452 C451 1.396 . S
C452 C453 1.399 . S
C453 H439 0.929 . S
C453 C452 1.399 . S
C453 C454 1.385 . S
C454 H440 0.931 . S
C454 C453 1.385 . S
C454 C455 1.389 . S
C455 C454 1.389 . S
C455 C456 1.387 . S
C456 H441 0.930 . S
C456 C451 1.390 . S
C456 C455 1.387 . S
H457 C469 0.930 . S
H458 C471 0.930 . S
H459 C472 0.930 . S
H460 C476 0.959 . S
H461 C476 0.959 . S
H462 C476 0.961 . S
H463 C477 0.960 . S
H464 C477 0.961 . S
H465 C477 0.959 . S
H466 C480 0.929 . S
H467 C481 0.931 . S
H468 C483 0.930 . S
C469 H457 0.930 . S
C469 C470 1.399 . S
C469 C474 1.399 . S
C470 C469 1.399 . S
C470 C471 1.376 . S
C471 H458 0.930 . S
C471 C470 1.376 . S
C471 C472 1.388 . S
C472 H459 0.930 . S
C472 C471 1.388 . S
C472 C473 1.390 . S
C473 C472 1.390 . S
C473 C474 1.394 . S
C473 C479 1.465 . S
C474 C469 1.399 . S
C474 C473 1.394 . S
C474 C475 1.516 . S
C475 C474 1.516 . S
C475 C476 1.502 . S
C475 C477 1.561 . S
C475 C478 1.526 . S
C476 H460 0.959 . S
C476 H461 0.959 . S
C476 H462 0.961 . S
C476 C475 1.502 . S
C477 H463 0.960 . S
C477 H464 0.961 . S
C477 H465 0.959 . S
C477 C475 1.561 . S
C478 C475 1.526 . S
C478 C479 1.396 . S
C478 C483 1.390 . S
C479 C473 1.465 . S
C479 C478 1.396 . S
C479 C480 1.399 . S
C480 H466 0.929 . S
C480 C479 1.399 . S
C480 C481 1.385 . S
C481 H467 0.931 . S
C481 C480 1.385 . S
C481 C482 1.389 . S
C482 C481 1.389 . S
C482 C483 1.387 . S
C483 H468 0.930 . S
C483 C478 1.390 . S
C483 C482 1.387 . S
C173 C89 0.634 . S
C185 C18 0.689 . S
C200 C138 0.806 . S
C212 C49 0.525 . S
C227 C98 0.967 . S
C239 C9 1.045 . S
C254 C58 0.962 . S
C266 C129 1.046 . S
C281 C50 1.502 . S
C293 C6 1.549 . S
C308 C59 2.286 . S
C320 C99 2.288 1_556 S
C335 C126 1.540 . S
C347 C90 1.533 . S
C362 C135 0.921 . S
C374 C15 0.891 . S
C389 C95 1.532 . S
C401 C139 1.487 . S
C416 C10 2.284 . S
C428 C130 2.288 . S
C443 C55 1.565 . S
C455 C19 1.515 . S
C470 C86 0.925 . S
C482 C46 0.938 . S
