# Generated by pormake.
# Topology acs-a, (4)-cn, num edge types: 1
# Building blocks:
#     Node 0, Type 0, BuildingBlock: CEKHIL_clean_sbu_0, # of connection points: 4
#     Node 1, Type 0, BuildingBlock: CEKHIL_clean_sbu_0, # of connection points: 4
#     Node 2, Type 0, BuildingBlock: CEKHIL_clean_sbu_0, # of connection points: 4
#     Node 3, Type 0, BuildingBlock: CEKHIL_clean_sbu_0, # of connection points: 4
#     Node 4, Type 0, BuildingBlock: CEKHIL_clean_sbu_0, # of connection points: 4
#     Node 5, Type 0, BuildingBlock: CEKHIL_clean_sbu_0, # of connection points: 4
#     Node 6, Type 0, BuildingBlock: CEKHIL_clean_sbu_0, # of connection points: 4
#     Node 7, Type 0, BuildingBlock: CEKHIL_clean_sbu_0, # of connection points: 4
#     Node 8, Type 0, BuildingBlock: CEKHIL_clean_sbu_0, # of connection points: 4
#     Node 9, Type 0, BuildingBlock: CEKHIL_clean_sbu_0, # of connection points: 4
#     Node 10, Type 0, BuildingBlock: CEKHIL_clean_sbu_0, # of connection points: 4
#     Node 11, Type 0, BuildingBlock: CEKHIL_clean_sbu_0, # of connection points: 4
#     Edge 12, Type (0, 0), BuildingBlock: OJICUG_clean_linker_0, # of connection points: 2
#     Edge 13, Type (0, 0), BuildingBlock: OJICUG_clean_linker_0, # of connection points: 2
#     Edge 14, Type (0, 0), BuildingBlock: OJICUG_clean_linker_0, # of connection points: 2
#     Edge 15, Type (0, 0), BuildingBlock: OJICUG_clean_linker_0, # of connection points: 2
#     Edge 16, Type (0, 0), BuildingBlock: OJICUG_clean_linker_0, # of connection points: 2
#     Edge 17, Type (0, 0), BuildingBlock: OJICUG_clean_linker_0, # of connection points: 2
#     Edge 18, Type (0, 0), BuildingBlock: OJICUG_clean_linker_0, # of connection points: 2
#     Edge 19, Type (0, 0), BuildingBlock: OJICUG_clean_linker_0, # of connection points: 2
#     Edge 20, Type (0, 0), BuildingBlock: OJICUG_clean_linker_0, # of connection points: 2
#     Edge 21, Type (0, 0), BuildingBlock: OJICUG_clean_linker_0, # of connection points: 2
#     Edge 22, Type (0, 0), BuildingBlock: OJICUG_clean_linker_0, # of connection points: 2
#     Edge 23, Type (0, 0), BuildingBlock: OJICUG_clean_linker_0, # of connection points: 2
#     Edge 24, Type (0, 0), BuildingBlock: OJICUG_clean_linker_0, # of connection points: 2
#     Edge 25, Type (0, 0), BuildingBlock: OJICUG_clean_linker_0, # of connection points: 2
#     Edge 26, Type (0, 0), BuildingBlock: OJICUG_clean_linker_0, # of connection points: 2
#     Edge 27, Type (0, 0), BuildingBlock: OJICUG_clean_linker_0, # of connection points: 2
#     Edge 28, Type (0, 0), BuildingBlock: OJICUG_clean_linker_0, # of connection points: 2
#     Edge 29, Type (0, 0), BuildingBlock: OJICUG_clean_linker_0, # of connection points: 2
#     Edge 30, Type (0, 0), BuildingBlock: OJICUG_clean_linker_0, # of connection points: 2
#     Edge 31, Type (0, 0), BuildingBlock: OJICUG_clean_linker_0, # of connection points: 2
#     Edge 32, Type (0, 0), BuildingBlock: OJICUG_clean_linker_0, # of connection points: 2
#     Edge 33, Type (0, 0), BuildingBlock: OJICUG_clean_linker_0, # of connection points: 2
#     Edge 34, Type (0, 0), BuildingBlock: OJICUG_clean_linker_0, # of connection points: 2
#     Edge 35, Type (0, 0), BuildingBlock: OJICUG_clean_linker_0, # of connection points: 2
# Relax obj value: 0.515
# Max RMSD: 0.262
# Mean RMSD: 0.237
data_MOF--net-acs-a--node1-CEKHIL_clean_sbu_0--edge1-OJICUG_clean_linker_0
_symmetry_space_group_name_H-M    P1
_symmetry_Int_Tables_number       1
_symmetry_cell_setting            triclinic
loop_
_symmetry_equiv_pos_as_xyz
'x, y, z'
_cell_length_a     35.663733
_cell_length_b     35.563222
_cell_length_c     27.335672
_cell_angle_alpha  90.068413
_cell_angle_beta   89.922528
_cell_angle_gamma 114.38518
loop_
_atom_site_label
_atom_site_type_symbol
_atom_site_fract_x
_atom_site_fract_y
_atom_site_fract_z
_atom_type_partial_charge
Co0 Co 0.62676 0.13448 0.03988 0.0
O1 O 0.62788 0.08269 0.01904 0.0
O2 O 0.57408 0.09876 0.01536 0.0
C3 C 0.6865 0.1802 0.00742 0.0
O4 O 0.61137 0.18208 0.05375 0.0
Co5 Co 0.68978 0.19735 0.1098 0.0
O6 O 0.65952 0.23278 0.09684 0.0
C7 C 0.63004 0.11838 0.1483 0.0
C8 C 0.58906 0.07157 0.00872 0.0
C9 C 0.62574 0.21799 0.0732 0.0
O10 O 0.60953 0.11182 0.10807 0.0
O11 O 0.66576 0.14781 0.15343 0.0
O12 O 0.65402 0.16299 0.97984 0.0
O13 O 0.68306 0.16492 0.05071 0.0
Co14 Co 0.45961 0.62277 0.56892 0.0
O15 O 0.51661 0.63205 0.56013 0.0
O16 O 0.46225 0.58027 0.52866 0.0
C17 C 0.46302 0.68665 0.55745 0.0
O18 O 0.39776 0.60273 0.56683 0.0
Co19 Co 0.43135 0.66274 0.6542 0.0
O20 O 0.37697 0.63836 0.62031 0.0
C21 C 0.4584 0.59717 0.67453 0.0
C22 C 0.50179 0.59772 0.53529 0.0
C23 C 0.37005 0.61247 0.58548 0.0
O24 O 0.45562 0.58805 0.62877 0.0
O25 O 0.45585 0.62971 0.69103 0.0
O26 O 0.46313 0.6642 0.51975 0.0
O27 O 0.46817 0.67263 0.5991 0.0
Co28 Co 0.8428 0.43347 0.06699 0.0
O29 O 0.88165 0.49057 0.07045 0.0
O30 O 0.88836 0.4424 0.02419 0.0
C31 C 0.78585 0.4458 0.06304 0.0
O32 O 0.80947 0.37248 0.05109 0.0
Co33 Co 0.77307 0.39216 0.14349 0.0
O34 O 0.74916 0.34988 0.09127 0.0
C35 C 0.86046 0.41368 0.16848 0.0
C36 C 0.90341 0.48051 0.03917 0.0
C37 C 0.77227 0.34587 0.05796 0.0
O38 O 0.87154 0.41946 0.12326 0.0
O39 O 0.82412 0.40655 0.18346 0.0
O40 O 0.80663 0.44761 0.02321 0.0
O41 O 0.80157 0.43951 0.10265 0.0
Co42 Co 0.35925 0.85964 0.53892 0.0
O43 O 0.35745 0.91128 0.51886 0.0
O44 O 0.41181 0.8961 0.51483 0.0
C45 C 0.29995 0.81352 0.506 0.0
O46 O 0.37543 0.81246 0.55187 0.0
Co47 Co 0.29666 0.79568 0.60818 0.0
O48 O 0.32788 0.7612 0.59489 0.0
C49 C 0.35482 0.87512 0.64731 0.0
C50 C 0.3964 0.92297 0.50865 0.0
C51 C 0.36155 0.77647 0.57098 0.0
O52 O 0.37589 0.88193 0.60743 0.0
O53 O 0.31928 0.84529 0.65192 0.0
O54 O 0.33246 0.83138 0.47857 0.0
O55 O 0.30302 0.82842 0.54949 0.0
Co56 Co 0.52591 0.37026 0.07118 0.0
O57 O 0.46969 0.36166 0.05826 0.0
O58 O 0.5258 0.41417 0.03148 0.0
C59 C 0.52355 0.30707 0.05828 0.0
O60 O 0.58767 0.38965 0.074 0.0
Co61 Co 0.5474 0.32757 0.15892 0.0
O62 O 0.6046 0.35519 0.13279 0.0
C63 C 0.52059 0.39325 0.17704 0.0
C64 C 0.48595 0.39672 0.03505 0.0
C65 C 0.61405 0.38083 0.09742 0.0
O66 O 0.52667 0.40334 0.13163 0.0
O67 O 0.52072 0.35971 0.19364 0.0
O68 O 0.52516 0.33061 0.02109 0.0
O69 O 0.51538 0.3193 0.09971 0.0
Co70 Co 0.14478 0.55914 0.56138 0.0
O71 O 0.10556 0.5023 0.56464 0.0
O72 O 0.09687 0.55196 0.52373 0.0
C73 C 0.20047 0.54589 0.54879 0.0
O74 O 0.17833 0.6204 0.54706 0.0
Co75 Co 0.21821 0.59635 0.63379 0.0
O76 O 0.23998 0.64095 0.58382 0.0
C77 C 0.13289 0.57606 0.66646 0.0
C78 C 0.0823 0.51344 0.53712 0.0
C79 C 0.2159 0.64647 0.55307 0.0
O80 O 0.11996 0.57228 0.62202 0.0
O81 O 0.16948 0.58144 0.67829 0.0
O82 O 0.17745 0.5457 0.51176 0.0
O83 O 0.18748 0.55105 0.59096 0.0
Co84 Co 0.85407 0.36428 0.45439 0.0
O85 O 0.90552 0.36275 0.47491 0.0
O86 O 0.88999 0.41703 0.47876 0.0
C87 C 0.80839 0.30446 0.48705 0.0
O88 O 0.80711 0.38037 0.44081 0.0
Co89 Co 0.79004 0.30144 0.3854 0.0
O90 O 0.75451 0.33104 0.40169 0.0
C91 C 0.86947 0.36012 0.34616 0.0
C92 C 0.9169 0.40177 0.48519 0.0
C93 C 0.77049 0.36563 0.4238 0.0
O94 O 0.87664 0.38105 0.38618 0.0
O95 O 0.8393 0.32478 0.34125 0.0
O96 O 0.82559 0.33711 0.51456 0.0
O97 O 0.82329 0.30791 0.44355 0.0
Co98 Co 0.42768 0.84659 0.92664 0.0
O99 O 0.48492 0.88487 0.92169 0.0
O100 O 0.43817 0.89263 0.96927 0.0
C101 C 0.43847 0.78843 0.92993 0.0
O102 O 0.3671 0.81443 0.94456 0.0
Co103 Co 0.3834 0.77647 0.85136 0.0
O104 O 0.34234 0.75367 0.90494 0.0
C105 C 0.40641 0.86423 0.82574 0.0
C106 C 0.47583 0.90721 0.95324 0.0
C107 C 0.33978 0.77738 0.93852 0.0
O108 O 0.41336 0.87566 0.8708 0.0
O109 O 0.39805 0.82747 0.81097 0.0
O110 O 0.44188 0.80983 0.96971 0.0
O111 O 0.4318 0.80437 0.89068 0.0
Co112 Co 0.62217 0.46813 0.43739 0.0
O113 O 0.63066 0.52404 0.45327 0.0
O114 O 0.57812 0.46696 0.47772 0.0
C115 C 0.68496 0.47003 0.44969 0.0
O116 O 0.60291 0.40627 0.43127 0.0
Co117 Co 0.66577 0.45009 0.34793 0.0
O118 O 0.63702 0.39163 0.37002 0.0
C119 C 0.5998 0.47642 0.33208 0.0
C120 C 0.59562 0.50702 0.47624 0.0
C121 C 0.61132 0.38071 0.40537 0.0
O122 O 0.58958 0.46908 0.37735 0.0
O123 O 0.63379 0.47779 0.31524 0.0
O124 O 0.66116 0.46717 0.48702 0.0
O125 O 0.6733 0.47983 0.40892 0.0
Co126 Co 0.13163 0.62949 0.95555 0.0
O127 O 0.07958 0.6313 0.97304 0.0
O128 O 0.09496 0.5771 0.98003 0.0
C129 C 0.17608 0.68995 0.98829 0.0
O130 O 0.17883 0.61313 0.94528 0.0
Co131 Co 0.19827 0.69152 0.88825 0.0
O132 O 0.23328 0.66253 0.90903 0.0
C133 C 0.12063 0.63151 0.84609 0.0
C134 C 0.06791 0.59246 0.98432 0.0
C135 C 0.21621 0.62787 0.93075 0.0
O136 O 0.11139 0.6116 0.88682 0.0
O137 O 0.15114 0.66664 0.84136 0.0
O138 O 0.1583 0.65767 0.01616 0.0
O139 O 0.16267 0.68568 0.94406 0.0
Co140 Co 0.55583 0.14878 0.42702 0.0
O141 O 0.49868 0.11023 0.42313 0.0
O142 O 0.54623 0.10282 0.46941 0.0
C143 C 0.54467 0.20662 0.43137 0.0
O144 O 0.61661 0.18144 0.44348 0.0
Co145 Co 0.59826 0.21867 0.35095 0.0
O146 O 0.64032 0.24194 0.40338 0.0
C147 C 0.57565 0.13097 0.32538 0.0
C148 C 0.50835 0.08802 0.45417 0.0
C149 C 0.64364 0.21853 0.43677 0.0
O150 O 0.5697 0.11985 0.37059 0.0
O151 O 0.58322 0.16752 0.31055 0.0
O152 O 0.54203 0.18531 0.47098 0.0
O153 O 0.55073 0.19072 0.39167 0.0
Co154 Co 0.36506 0.52712 0.94024 0.0
O155 O 0.3572 0.47158 0.9565 0.0
O156 O 0.41132 0.52892 0.97676 0.0
C157 C 0.30299 0.52524 0.95793 0.0
O158 O 0.38392 0.58887 0.93264 0.0
Co159 Co 0.31624 0.54272 0.85472 0.0
O160 O 0.34578 0.60163 0.87483 0.0
C161 C 0.38177 0.51677 0.83309 0.0
C162 C 0.39345 0.48883 0.97656 0.0
C163 C 0.37364 0.61364 0.90772 0.0
O164 O 0.39411 0.52461 0.87763 0.0
O165 O 0.34711 0.51538 0.81875 0.0
O166 O 0.32905 0.52939 0.99309 0.0
O167 O 0.3124 0.51463 0.91621 0.0
C168 C 0.61731 0.10127 0.28229 0.0
C169 C 0.57908 0.10322 0.28771 0.0
H170 H 0.66397 0.10361 0.23161 0.0
C171 C 0.55277 0.09491 0.24711 0.0
H172 H 0.63819 0.10789 0.31308 0.0
C173 C 0.56739 0.09227 0.20033 0.0
C174 C 0.6087 0.09879 0.19396 0.0
H175 H 0.52321 0.09655 0.25054 0.0
H176 H 0.5484 0.09154 0.16912 0.0
C177 C 0.63218 0.09921 0.23548 0.0
C178 C 0.47136 0.57694 0.75719 0.0
C179 C 0.45318 0.56503 0.71096 0.0
H180 H 0.46294 0.5684 0.83432 0.0
C181 C 0.41929 0.52681 0.70597 0.0
H182 H 0.4978 0.60614 0.76177 0.0
C183 C 0.39863 0.5056 0.74767 0.0
C184 C 0.41235 0.52219 0.79434 0.0
H185 H 0.40483 0.51681 0.67063 0.0
H186 H 0.36898 0.47979 0.74328 0.0
C187 C 0.45129 0.55518 0.79882 0.0
C188 C 0.89682 0.43691 0.24626 0.0
C189 C 0.88792 0.40997 0.20608 0.0
H190 H 0.89931 0.44202 0.32421 0.0
C191 C 0.88833 0.37104 0.21236 0.0
H192 H 0.89641 0.46705 0.24215 0.0
C193 C 0.88912 0.35627 0.25952 0.0
C194 C 0.88994 0.3806 0.3005 0.0
H195 H 0.88129 0.34969 0.1819 0.0
H196 H 0.88348 0.32411 0.26399 0.0
C197 C 0.89818 0.42238 0.29341 0.0
C198 C 0.43055 0.90069 0.74809 0.0
C199 C 0.40345 0.8921 0.78802 0.0
H200 H 0.43625 0.90344 0.67016 0.0
C201 C 0.36499 0.89323 0.78132 0.0
H202 H 0.46032 0.89967 0.75249 0.0
C203 C 0.3508 0.89461 0.734 0.0
C204 C 0.37518 0.89518 0.69324 0.0
H205 H 0.34349 0.88639 0.81155 0.0
H206 H 0.31892 0.88959 0.72922 0.0
C207 C 0.41658 0.90257 0.70078 0.0
C208 C 0.57902 0.48667 0.24839 0.0
C209 C 0.56744 0.47003 0.29546 0.0
H210 H 0.57095 0.47489 0.17163 0.0
C211 C 0.52949 0.43594 0.30153 0.0
H212 H 0.60782 0.51337 0.24285 0.0
C213 C 0.5088 0.4133 0.26065 0.0
C214 C 0.52546 0.42534 0.21369 0.0
H215 H 0.51944 0.42271 0.33744 0.0
H216 H 0.4834 0.38351 0.26627 0.0
C217 C 0.55778 0.46452 0.20749 0.0
C218 C 0.10472 0.61822 0.71186 0.0
C219 C 0.10769 0.58035 0.70661 0.0
H220 H 0.10572 0.66466 0.76236 0.0
C221 C 0.10098 0.55449 0.74746 0.0
H222 H 0.11024 0.63879 0.68084 0.0
C223 C 0.09777 0.56898 0.79411 0.0
C224 C 0.10245 0.60989 0.8002 0.0
H225 H 0.10354 0.52527 0.74412 0.0
H226 H 0.09779 0.55039 0.82549 0.0
C227 C 0.10238 0.6331 0.75859 0.0
C228 C 0.51882 0.01601 0.00148 0.0
C229 C 0.56136 0.02916 0.99423 0.0
H230 H 0.4589 0.96727 0.99502 0.0
C231 C 0.57612 0.00149 0.97413 0.0
H232 H 0.50645 0.03644 0.01735 0.0
C233 C 0.54844 0.96154 0.96057 0.0
C234 C 0.50587 0.94861 0.96809 0.0
H235 H 0.60879 0.01087 0.96829 0.0
H236 H 0.5603 0.94079 0.94449 0.0
C237 C 0.49149 0.97618 0.98899 0.0
C238 C 0.56995 0.59662 0.51339 0.0
C239 C 0.52724 0.57595 0.52054 0.0
H240 H 0.62563 0.59085 0.49299 0.0
C241 C 0.50814 0.5329 0.51531 0.0
H242 H 0.58536 0.62981 0.5176 0.0
C243 C 0.53099 0.5108 0.50283 0.0
C244 C 0.57345 0.53123 0.49424 0.0
H245 H 0.47537 0.51602 0.52136 0.0
H246 H 0.51497 0.47763 0.4987 0.0
C247 C 0.5929 0.57438 0.49961 0.0
C248 C 0.01166 0.52241 0.99023 0.0
C249 C 0.02522 0.56512 0.99763 0.0
H250 H 0.96256 0.46258 0.99672 0.0
C251 C -0.00212 0.58035 0.01741 0.0
H252 H 0.03189 0.50975 0.97454 0.0
C253 C 0.95791 0.55294 0.03087 0.0
C254 C 0.94464 0.51016 0.02357 0.0
H255 H 0.00761 0.61315 0.02335 0.0
H256 H 0.93747 0.56515 0.04693 0.0
C257 C 0.97179 0.49533 0.00264 0.0
C258 C 0.49336 0.01919 0.48979 0.0
C259 C 0.47864 0.04654 0.46915 0.0
H260 H 0.47896 0.95892 0.51763 0.0
C261 C 0.43602 0.03323 0.46174 0.0
H262 H 0.52599 0.0284 0.49575 0.0
C263 C 0.40864 0.9931 0.475 0.0
C264 C 0.42375 0.96563 0.49473 0.0
H265 H 0.42389 0.0538 0.44585 0.0
H266 H 0.37594 0.98341 0.46916 0.0
C267 C 0.46633 0.97919 0.50202 0.0
C268 C 0.39567 0.42168 0.00105 0.0
C269 C 0.41585 0.46448 0.99312 0.0
H270 H 0.40218 0.36623 0.02105 0.0
C271 C 0.45876 0.48412 0.99814 0.0
H272 H 0.36258 0.40581 0.99712 0.0
C273 C 0.48123 0.46156 0.01037 0.0
C274 C 0.4613 0.4189 0.01879 0.0
H275 H 0.47526 0.51696 0.99177 0.0
H276 H 0.51432 0.47787 0.01402 0.0
C277 C 0.41826 0.39907 0.01441 0.0
C278 C 0.98755 0.41394 0.51576 0.0
C279 C 0.95931 0.42932 0.49941 0.0
H280 H 0.049 0.42881 0.54118 0.0
C281 C 0.97206 0.47224 0.49516 0.0
H282 H 0.97853 0.38101 0.51923 0.0
C283 C 0.01217 0.4993 0.50668 0.0
C284 C 0.04037 0.48417 0.52351 0.0
H285 H 0.95114 0.48512 0.48228 0.0
H286 H 0.02089 0.53218 0.50296 0.0
C287 C 0.02776 0.44126 0.52823 0.0
C288 C 0.60183 0.26445 0.02701 0.0
C289 C 0.60037 0.24148 0.06925 0.0
H290 H 0.57789 0.30279 0.98962 0.0
C291 C 0.57075 0.23676 0.10514 0.0
H292 H 0.6238 0.26764 0.99831 0.0
C293 C 0.54382 0.25593 0.09974 0.0
C294 C 0.54601 0.28019 0.05828 0.0
H295 H 0.56839 0.21814 0.13733 0.0
H296 H 0.52196 0.25269 0.12874 0.0
C297 C 0.57495 0.28381 0.02159 0.0
C298 C 0.30156 0.55498 0.59335 0.0
C299 C 0.32779 0.59028 0.56826 0.0
H300 H 0.23944 0.51149 0.60442 0.0
C301 C 0.31286 0.60487 0.5284 0.0
H302 H 0.31286 0.54309 0.62376 0.0
C303 C 0.27093 0.58618 0.51647 0.0
C304 C 0.24391 0.55325 0.54486 0.0
H305 H 0.33306 0.63199 0.50842 0.0
H306 H 0.25913 0.60004 0.48861 0.0
C307 C 0.25987 0.53656 0.5817 0.0
C308 C 0.72091 0.29403 0.00285 0.0
C309 C 0.75704 0.30658 0.03085 0.0
H310 H 0.67156 0.24326 0.96869 0.0
C311 C 0.77489 0.27867 0.03906 0.0
H312 H 0.70677 0.31526 0.99597 0.0
C313 C 0.75416 0.23739 0.02483 0.0
C314 C 0.71579 0.22372 0.00122 0.0
H315 H 0.80275 0.28776 0.06061 0.0
H316 H 0.76612 0.21538 0.03655 0.0
C317 C 0.70099 0.25301 0.98693 0.0
C318 C 0.38837 0.73293 0.52313 0.0
C319 C 0.38745 0.75353 0.56668 0.0
H320 H 0.41377 0.69585 0.48532 0.0
C321 C 0.41496 0.75615 0.60429 0.0
H322 H 0.36808 0.73148 0.49315 0.0
C323 C 0.44196 0.73704 0.59929 0.0
C324 C 0.44172 0.7146 0.55672 0.0
H325 H 0.41555 0.773 0.63755 0.0
H326 H 0.46207 0.73857 0.62963 0.0
C327 C 0.41514 0.71335 0.51825 0.0
C328 C 0.68494 0.42836 0.11889 0.0
C329 C 0.65747 0.40282 0.08422 0.0
H330 H 0.74768 0.46444 0.13736 0.0
C331 C 0.67205 0.39759 0.03802 0.0
H332 H 0.67406 0.43321 0.15437 0.0
C333 C 0.71447 0.41522 0.0282 0.0
C334 C 0.74221 0.4386 0.0644 0.0
H335 H 0.65095 0.37797 0.01079 0.0
H336 H 0.72557 0.40797 0.99413 0.0
C337 C 0.72688 0.44654 0.10882 0.0
C338 C 0.21245 0.71368 0.53606 0.0
C339 C 0.23099 0.6864 0.5273 0.0
H340 H 0.2202 0.77671 0.53487 0.0
C341 C 0.26745 0.69996 0.49968 0.0
H342 H 0.18434 0.70384 0.55731 0.0
C343 C 0.28688 0.74122 0.48458 0.0
C344 C 0.2713 0.76981 0.49934 0.0
H345 H 0.28219 0.67933 0.49233 0.0
H346 H 0.31647 0.75165 0.46652 0.0
C347 C 0.23274 0.75524 0.52274 0.0
C348 C 0.75698 0.42605 0.40015 0.0
C349 C 0.74739 0.39122 0.42982 0.0
H350 H 0.74518 0.47909 0.38406 0.0
C351 C 0.72042 0.38485 0.46944 0.0
H352 H 0.77866 0.4321 0.37023 0.0
C353 C 0.70232 0.41239 0.47849 0.0
C354 C 0.71075 0.44657 0.44773 0.0
H355 H 0.71349 0.35884 0.49362 0.0
H356 H 0.68044 0.40592 0.50822 0.0
C357 C 0.73851 0.45328 0.40871 0.0
C358 C 0.27277 0.77988 0.95742 0.0
C359 C 0.30128 0.76306 0.96691 0.0
H360 H 0.20927 0.76961 0.95901 0.0
C361 C 0.28963 0.72793 0.9967 0.0
H362 H 0.28119 0.80704 0.93458 0.0
C363 C 0.24864 0.70712 0.01214 0.0
C364 C 0.21876 0.72056 0.9963 0.0
H365 H 0.31155 0.71494 0.00486 0.0
H366 H 0.23954 0.67779 0.03075 0.0
C367 C 0.23172 0.75865 0.97185 0.0
C368 C 0.54885 0.26772 0.38546 0.0
C369 C 0.55289 0.25075 0.43057 0.0
H370 H 0.56537 0.32224 0.34203 0.0
C371 C 0.57256 0.27731 0.46954 0.0
H372 H 0.53368 0.24794 0.35481 0.0
C373 C 0.59028 0.32021 0.46217 0.0
C374 C 0.58903 0.33653 0.41565 0.0
H375 H 0.57665 0.26502 0.50437 0.0
H376 H 0.60691 0.34041 0.49183 0.0
C377 C 0.56726 0.31012 0.37787 0.0
C378 C 0.22477 0.56328 0.91549 0.0
C379 C 0.2387 0.6019 0.93851 0.0
H380 H 0.23417 0.50817 0.90438 0.0
C381 C 0.27061 0.61283 0.97289 0.0
H382 H 0.19949 0.55391 0.88969 0.0
C383 C 0.2892 0.58589 0.98305 0.0
C384 C 0.27667 0.54808 0.95807 0.0
H385 H 0.28099 0.64192 0.99209 0.0
H386 H 0.31481 0.59564 0.00836 0.0
C387 C 0.24399 0.53686 0.92463 0.0
C388 C 0.71065 0.21576 0.45486 0.0
C389 C 0.6826 0.23321 0.46421 0.0
H390 H 0.77386 0.22497 0.45662 0.0
C391 C 0.69479 0.2687 0.49355 0.0
H392 H 0.7018 0.18834 0.43235 0.0
C393 C 0.73575 0.28879 0.50929 0.0
C394 C 0.76519 0.27462 0.49375 0.0
H395 H 0.67334 0.28235 0.50148 0.0
H396 H 0.74528 0.318 0.52828 0.0
C397 C 0.75176 0.23651 0.46921 0.0
C398 C 0.41346 0.68406 0.87658 0.0
C399 C 0.39583 0.65814 0.91635 0.0
H400 H 0.44326 0.74584 0.85086 0.0
C401 C 0.39809 0.67529 0.96326 0.0
H402 H 0.41265 0.67138 0.84031 0.0
C403 C 0.41498 0.71834 0.96941 0.0
C404 C 0.43046 0.7443 0.92876 0.0
H405 H 0.38476 0.65554 0.99449 0.0
H406 H 0.41365 0.73111 0.00503 0.0
C407 C 0.43119 0.72663 0.88286 0.0
loop_
_geom_bond_atom_site_label_1
_geom_bond_atom_site_label_2
_geom_bond_distance
_geom_bond_site_symmetry_2
_ccdc_geom_bond_type
Co0 O1 2.216 . S
Co0 O2 2.090 1_554 S
Co0 O4 2.004 . S
Co0 O10 2.021 . S
Co0 O12 2.137 1_554 S
Co0 O13 2.244 . S
O1 Co0 2.216 . S
O1 C8 1.247 . S
O2 Co0 2.090 1_556 S
O2 C8 1.261 1_556 S
C3 O12 1.247 1_554 S
C3 O13 1.272 . S
O4 Co0 2.004 . S
O4 C9 1.259 . S
Co5 O6 2.061 . S
Co5 O11 2.052 . S
Co5 O13 2.135 . S
O6 Co5 2.061 . S
O6 C9 1.235 . S
C7 O10 1.238 . S
C7 O11 1.241 . S
C8 O1 1.247 . S
C8 O2 1.261 1_554 S
C9 O4 1.259 . S
C9 O6 1.235 . S
O10 Co0 2.021 . S
O10 C7 1.238 . S
O11 Co5 2.052 . S
O11 C7 1.241 . S
O12 Co0 2.137 1_556 S
O12 C3 1.247 1_556 S
O13 Co0 2.244 . S
O13 C3 1.272 . S
O13 Co5 2.135 . S
Co14 O15 2.216 . S
Co14 O16 2.091 . S
Co14 O18 2.004 . S
Co14 O24 2.021 . S
Co14 O26 2.137 . S
Co14 O27 2.244 . S
O15 Co14 2.216 . S
O15 C22 1.247 . S
O16 Co14 2.091 . S
O16 C22 1.261 . S
C17 O26 1.247 . S
C17 O27 1.272 . S
O18 Co14 2.004 . S
O18 C23 1.259 . S
Co19 O20 2.061 . S
Co19 O25 2.052 . S
Co19 O27 2.135 . S
O20 Co19 2.061 . S
O20 C23 1.235 . S
C21 O24 1.238 . S
C21 O25 1.241 . S
C22 O15 1.247 . S
C22 O16 1.261 . S
C23 O18 1.259 . S
C23 O20 1.235 . S
O24 Co14 2.021 . S
O24 C21 1.238 . S
O25 Co19 2.052 . S
O25 C21 1.241 . S
O26 Co14 2.137 . S
O26 C17 1.247 . S
O27 Co14 2.244 . S
O27 C17 1.272 . S
O27 Co19 2.135 . S
Co28 O29 2.216 . S
Co28 O30 2.091 1_554 S
Co28 O32 2.004 . S
Co28 O38 2.021 . S
Co28 O40 2.137 1_554 S
Co28 O41 2.244 . S
O29 Co28 2.216 . S
O29 C36 1.247 . S
O30 Co28 2.091 1_556 S
O30 C36 1.261 1_556 S
C31 O40 1.247 1_554 S
C31 O41 1.272 . S
O32 Co28 2.004 . S
O32 C37 1.259 . S
Co33 O34 2.061 . S
Co33 O39 2.052 . S
Co33 O41 2.135 . S
O34 Co33 2.061 . S
O34 C37 1.235 . S
C35 O38 1.238 . S
C35 O39 1.241 . S
C36 O29 1.247 . S
C36 O30 1.261 1_554 S
C37 O32 1.259 . S
C37 O34 1.235 . S
O38 Co28 2.021 . S
O38 C35 1.238 . S
O39 Co33 2.052 . S
O39 C35 1.241 . S
O40 Co28 2.137 1_556 S
O40 C31 1.247 1_556 S
O41 Co28 2.244 . S
O41 C31 1.272 . S
O41 Co33 2.135 . S
Co42 O43 2.216 . S
Co42 O44 2.091 . S
Co42 O46 2.004 . S
Co42 O52 2.021 . S
Co42 O54 2.137 . S
Co42 O55 2.244 . S
O43 Co42 2.216 . S
O43 C50 1.247 . S
O44 Co42 2.091 . S
O44 C50 1.261 . S
C45 O54 1.247 . S
C45 O55 1.272 . S
O46 Co42 2.004 . S
O46 C51 1.259 . S
Co47 O48 2.061 . S
Co47 O53 2.052 . S
Co47 O55 2.135 . S
O48 Co47 2.061 . S
O48 C51 1.235 . S
C49 O52 1.238 . S
C49 O53 1.241 . S
C50 O43 1.247 . S
C50 O44 1.261 . S
C51 O46 1.259 . S
C51 O48 1.235 . S
O52 Co42 2.021 . S
O52 C49 1.238 . S
O53 Co47 2.052 . S
O53 C49 1.241 . S
O54 Co42 2.137 . S
O54 C45 1.247 . S
O55 Co42 2.244 . S
O55 C45 1.272 . S
O55 Co47 2.135 . S
Co56 O57 2.216 . S
Co56 O58 2.096 . S
Co56 O60 2.004 . S
Co56 O66 2.021 . S
Co56 O68 2.137 1_554 S
Co56 O69 2.244 . S
O57 Co56 2.216 . S
O57 C64 1.247 . S
O58 Co56 2.096 . S
O58 C64 1.264 . S
C59 O68 1.247 1_554 S
C59 O69 1.272 . S
O60 Co56 2.004 . S
O60 C65 1.259 . S
Co61 O62 2.061 . S
Co61 O67 2.052 . S
Co61 O69 2.135 . S
O62 Co61 2.061 . S
O62 C65 1.235 . S
C63 O66 1.238 . S
C63 O67 1.241 . S
C64 O57 1.247 . S
C64 O58 1.264 . S
C65 O60 1.259 . S
C65 O62 1.235 . S
O66 Co56 2.021 . S
O66 C63 1.238 . S
O67 Co61 2.052 . S
O67 C63 1.241 . S
O68 Co56 2.137 1_556 S
O68 C59 1.247 1_556 S
O69 Co56 2.244 . S
O69 C59 1.272 . S
O69 Co61 2.135 . S
Co70 O71 2.216 . S
Co70 O72 2.091 . S
Co70 O74 2.004 . S
Co70 O80 2.021 . S
Co70 O82 2.137 . S
Co70 O83 2.244 . S
O71 Co70 2.216 . S
O71 C78 1.247 . S
O72 Co70 2.091 . S
O72 C78 1.261 . S
C73 O82 1.247 . S
C73 O83 1.272 . S
O74 Co70 2.004 . S
O74 C79 1.259 . S
Co75 O76 2.061 . S
Co75 O81 2.052 . S
Co75 O83 2.135 . S
O76 Co75 2.061 . S
O76 C79 1.235 . S
C77 O80 1.238 . S
C77 O81 1.241 . S
C78 O71 1.247 . S
C78 O72 1.261 . S
C79 O74 1.259 . S
C79 O76 1.235 . S
O80 Co70 2.021 . S
O80 C77 1.238 . S
O81 Co75 2.052 . S
O81 C77 1.241 . S
O82 Co70 2.137 . S
O82 C73 1.247 . S
O83 Co70 2.244 . S
O83 C73 1.272 . S
O83 Co75 2.135 . S
Co84 O85 2.216 . S
Co84 O86 2.091 . S
Co84 O88 2.004 . S
Co84 O94 2.021 . S
Co84 O96 2.137 . S
Co84 O97 2.244 . S
O85 Co84 2.216 . S
O85 C92 1.247 . S
O86 Co84 2.091 . S
O86 C92 1.261 . S
C87 O96 1.247 . S
C87 O97 1.272 . S
O88 Co84 2.004 . S
O88 C93 1.259 . S
Co89 O90 2.061 . S
Co89 O95 2.052 . S
Co89 O97 2.135 . S
O90 Co89 2.061 . S
O90 C93 1.235 . S
C91 O94 1.238 . S
C91 O95 1.241 . S
C92 O85 1.247 . S
C92 O86 1.261 . S
C93 O88 1.259 . S
C93 O90 1.235 . S
O94 Co84 2.021 . S
O94 C91 1.238 . S
O95 Co89 2.052 . S
O95 C91 1.241 . S
O96 Co84 2.137 . S
O96 C87 1.247 . S
O97 Co84 2.244 . S
O97 C87 1.272 . S
O97 Co89 2.135 . S
Co98 O99 2.216 . S
Co98 O100 2.091 1_556 S
Co98 O102 2.004 . S
Co98 O108 2.021 . S
Co98 O110 2.137 1_556 S
Co98 O111 2.244 . S
O99 Co98 2.216 . S
O99 C106 1.247 . S
O100 Co98 2.091 1_554 S
O100 C106 1.261 1_554 S
C101 O110 1.247 1_556 S
C101 O111 1.272 . S
O102 Co98 2.004 . S
O102 C107 1.259 . S
Co103 O104 2.061 . S
Co103 O109 2.052 . S
Co103 O111 2.135 . S
O104 Co103 2.061 . S
O104 C107 1.235 . S
C105 O108 1.238 . S
C105 O109 1.241 . S
C106 O99 1.247 . S
C106 O100 1.261 1_556 S
C107 O102 1.259 . S
C107 O104 1.235 . S
O108 Co98 2.021 . S
O108 C105 1.238 . S
O109 Co103 2.052 . S
O109 C105 1.241 . S
O110 Co98 2.137 1_554 S
O110 C101 1.247 1_554 S
O111 Co98 2.244 . S
O111 C101 1.272 . S
O111 Co103 2.135 . S
Co112 O113 2.216 . S
Co112 O114 2.091 . S
Co112 O116 2.004 . S
Co112 O122 2.021 . S
Co112 O124 2.137 . S
Co112 O125 2.244 . S
O113 Co112 2.216 . S
O113 C120 1.247 . S
O114 Co112 2.091 . S
O114 C120 1.261 . S
C115 O124 1.247 . S
C115 O125 1.272 . S
O116 Co112 2.004 . S
O116 C121 1.259 . S
Co117 O118 2.061 . S
Co117 O123 2.052 . S
Co117 O125 2.135 . S
O118 Co117 2.061 . S
O118 C121 1.235 . S
C119 O122 1.238 . S
C119 O123 1.241 . S
C120 O113 1.247 . S
C120 O114 1.261 . S
C121 O116 1.259 . S
C121 O118 1.235 . S
O122 Co112 2.021 . S
O122 C119 1.238 . S
O123 Co117 2.052 . S
O123 C119 1.241 . S
O124 Co112 2.137 . S
O124 C115 1.247 . S
O125 Co112 2.244 . S
O125 C115 1.272 . S
O125 Co117 2.135 . S
Co126 O127 2.216 . S
Co126 O128 2.090 1_556 S
Co126 O130 2.004 . S
Co126 O136 2.021 . S
Co126 O138 2.137 1_556 S
Co126 O139 2.244 . S
O127 Co126 2.216 . S
O127 C134 1.247 . S
O128 Co126 2.090 1_554 S
O128 C134 1.261 1_554 S
C129 O138 1.247 1_556 S
C129 O139 1.272 . S
O130 Co126 2.004 . S
O130 C135 1.259 . S
Co131 O132 2.061 . S
Co131 O137 2.052 . S
Co131 O139 2.135 . S
O132 Co131 2.061 . S
O132 C135 1.235 . S
C133 O136 1.238 . S
C133 O137 1.241 . S
C134 O127 1.247 . S
C134 O128 1.261 1_556 S
C135 O130 1.259 . S
C135 O132 1.235 . S
O136 Co126 2.021 . S
O136 C133 1.238 . S
O137 Co131 2.052 . S
O137 C133 1.241 . S
O138 Co126 2.137 1_554 S
O138 C129 1.247 1_554 S
O139 Co126 2.244 . S
O139 C129 1.272 . S
O139 Co131 2.135 . S
Co140 O141 2.216 . S
Co140 O142 2.091 . S
Co140 O144 2.004 . S
Co140 O150 2.021 . S
Co140 O152 2.137 . S
Co140 O153 2.244 . S
O141 Co140 2.216 . S
O141 C148 1.247 . S
O142 Co140 2.091 . S
O142 C148 1.261 . S
C143 O152 1.247 . S
C143 O153 1.272 . S
O144 Co140 2.004 . S
O144 C149 1.259 . S
Co145 O146 2.061 . S
Co145 O151 2.052 . S
Co145 O153 2.135 . S
O146 Co145 2.061 . S
O146 C149 1.235 . S
C147 O150 1.238 . S
C147 O151 1.241 . S
C148 O141 1.247 . S
C148 O142 1.261 . S
C149 O144 1.259 . S
C149 O146 1.235 . S
O150 Co140 2.021 . S
O150 C147 1.238 . S
O151 Co145 2.052 . S
O151 C147 1.241 . S
O152 Co140 2.137 . S
O152 C143 1.247 . S
O153 Co140 2.244 . S
O153 C143 1.272 . S
O153 Co145 2.135 . S
Co154 O155 2.216 . S
Co154 O156 2.096 . S
Co154 O158 2.004 . S
Co154 O164 2.021 . S
Co154 O166 2.137 1_556 S
Co154 O167 2.244 . S
O155 Co154 2.216 . S
O155 C162 1.247 . S
O156 Co154 2.096 . S
O156 C162 1.264 . S
C157 O166 1.247 1_556 S
C157 O167 1.272 . S
O158 Co154 2.004 . S
O158 C163 1.259 . S
Co159 O160 2.061 . S
Co159 O165 2.052 . S
Co159 O167 2.135 . S
O160 Co159 2.061 . S
O160 C163 1.235 . S
C161 O164 1.238 . S
C161 O165 1.241 . S
C162 O155 1.247 . S
C162 O156 1.264 . S
C163 O158 1.259 . S
C163 O160 1.235 . S
O164 Co154 2.021 . S
O164 C161 1.238 . S
O165 Co159 2.052 . S
O165 C161 1.241 . S
O166 Co154 2.137 1_554 S
O166 C157 1.247 1_554 S
O167 Co154 2.244 . S
O167 C157 1.272 . S
O167 Co159 2.135 . S
C168 C169 1.387 . S
C168 H172 0.950 . S
C168 C177 1.390 . S
C169 C168 1.387 . S
C169 C171 1.387 . S
H170 C177 0.950 . S
C171 C169 1.387 . S
C171 C173 1.390 . S
C171 H175 0.950 . S
H172 C168 0.950 . S
C173 C171 1.390 . S
C173 C174 1.387 . S
C173 H176 0.950 . S
C174 C173 1.387 . S
C174 C177 1.387 . S
H175 C171 0.950 . S
H176 C173 0.950 . S
C177 C168 1.390 . S
C177 H170 0.950 . S
C177 C174 1.387 . S
C178 C179 1.387 . S
C178 H182 0.950 . S
C178 C187 1.390 . S
C179 C178 1.387 . S
C179 C181 1.387 . S
H180 C187 0.950 . S
C181 C179 1.387 . S
C181 C183 1.390 . S
C181 H185 0.950 . S
H182 C178 0.950 . S
C183 C181 1.390 . S
C183 C184 1.387 . S
C183 H186 0.950 . S
C184 C183 1.387 . S
C184 C187 1.387 . S
H185 C181 0.950 . S
H186 C183 0.950 . S
C187 C178 1.390 . S
C187 H180 0.950 . S
C187 C184 1.387 . S
C188 C189 1.387 . S
C188 H192 0.950 . S
C188 C197 1.390 . S
C189 C188 1.387 . S
C189 C191 1.387 . S
H190 C197 0.950 . S
C191 C189 1.387 . S
C191 C193 1.390 . S
C191 H195 0.950 . S
H192 C188 0.950 . S
C193 C191 1.390 . S
C193 C194 1.387 . S
C193 H196 0.950 . S
C194 C193 1.387 . S
C194 C197 1.387 . S
H195 C191 0.950 . S
H196 C193 0.950 . S
C197 C188 1.390 . S
C197 H190 0.950 . S
C197 C194 1.387 . S
C198 C199 1.387 . S
C198 H202 0.950 . S
C198 C207 1.390 . S
C199 C198 1.387 . S
C199 C201 1.387 . S
H200 C207 0.950 . S
C201 C199 1.387 . S
C201 C203 1.390 . S
C201 H205 0.950 . S
H202 C198 0.950 . S
C203 C201 1.390 . S
C203 C204 1.387 . S
C203 H206 0.950 . S
C204 C203 1.387 . S
C204 C207 1.387 . S
H205 C201 0.950 . S
H206 C203 0.950 . S
C207 C198 1.390 . S
C207 H200 0.950 . S
C207 C204 1.387 . S
C208 C209 1.387 . S
C208 H212 0.950 . S
C208 C217 1.390 . S
C209 C208 1.387 . S
C209 C211 1.387 . S
H210 C217 0.950 . S
C211 C209 1.387 . S
C211 C213 1.390 . S
C211 H215 0.950 . S
H212 C208 0.950 . S
C213 C211 1.390 . S
C213 C214 1.387 . S
C213 H216 0.950 . S
C214 C213 1.387 . S
C214 C217 1.387 . S
H215 C211 0.950 . S
H216 C213 0.950 . S
C217 C208 1.390 . S
C217 H210 0.950 . S
C217 C214 1.387 . S
C218 C219 1.387 . S
C218 H222 0.950 . S
C218 C227 1.390 . S
C219 C218 1.387 . S
C219 C221 1.387 . S
H220 C227 0.950 . S
C221 C219 1.387 . S
C221 C223 1.390 . S
C221 H225 0.950 . S
H222 C218 0.950 . S
C223 C221 1.390 . S
C223 C224 1.387 . S
C223 H226 0.950 . S
C224 C223 1.387 . S
C224 C227 1.387 . S
H225 C221 0.950 . S
H226 C223 0.950 . S
C227 C218 1.390 . S
C227 H220 0.950 . S
C227 C224 1.387 . S
C228 C229 1.378 1_554 S
C228 H232 0.950 . S
C228 C237 1.390 1_545 S
C229 C228 1.378 1_556 S
C229 C231 1.397 . S
H230 C237 0.950 . S
C231 C229 1.397 . S
C231 C233 1.390 1_545 S
C231 H235 0.950 . S
H232 C228 0.950 . S
C233 C231 1.390 1_565 S
C233 C234 1.387 . S
C233 H236 0.950 . S
C234 C233 1.387 . S
C234 C237 1.387 1_556 S
H235 C231 0.950 . S
H236 C233 0.950 . S
C237 C228 1.390 1_565 S
C237 H230 0.950 . S
C237 C234 1.387 1_554 S
C238 C239 1.387 . S
C238 H242 0.950 . S
C238 C247 1.390 . S
C239 C238 1.387 . S
C239 C241 1.387 . S
H240 C247 0.950 . S
C241 C239 1.387 . S
C241 C243 1.390 . S
C241 H245 0.950 . S
H242 C238 0.950 . S
C243 C241 1.390 . S
C243 C244 1.387 . S
C243 H246 0.950 . S
C244 C243 1.387 . S
C244 C247 1.387 . S
H245 C241 0.950 . S
H246 C243 0.950 . S
C247 C238 1.390 . S
C247 H240 0.950 . S
C247 C244 1.387 . S
C248 C249 1.379 1_556 S
C248 H252 0.950 . S
C248 C257 1.390 1_455 S
C249 C248 1.379 1_554 S
C249 C251 1.396 . S
H250 C257 0.950 . S
C251 C249 1.396 . S
C251 C253 1.390 1_455 S
C251 H255 0.950 . S
H252 C248 0.950 . S
C253 C251 1.390 1_655 S
C253 C254 1.387 . S
C253 H256 0.950 . S
C254 C253 1.387 . S
C254 C257 1.387 1_554 S
H255 C251 0.950 . S
H256 C253 0.950 . S
C257 C248 1.390 1_655 S
C257 H250 0.950 . S
C257 C254 1.387 1_556 S
C258 C259 1.387 . S
C258 H262 0.950 . S
C258 C267 1.390 1_545 S
C259 C258 1.387 . S
C259 C261 1.387 . S
H260 C267 0.950 . S
C261 C259 1.387 . S
C261 C263 1.390 1_545 S
C261 H265 0.950 . S
H262 C258 0.950 . S
C263 C261 1.390 1_565 S
C263 C264 1.387 . S
C263 H266 0.950 . S
C264 C263 1.387 . S
C264 C267 1.387 . S
H265 C261 0.950 . S
H266 C263 0.950 . S
C267 C258 1.390 1_565 S
C267 H260 0.950 . S
C267 C264 1.387 . S
C268 C269 1.387 . S
C268 H272 0.950 . S
C268 C277 1.390 . S
C269 C268 1.387 . S
C269 C271 1.387 1_556 S
H270 C277 0.950 . S
C271 C269 1.387 1_554 S
C271 C273 1.390 . S
C271 H275 0.950 . S
H272 C268 0.950 . S
C273 C271 1.390 . S
C273 C274 1.387 . S
C273 H276 0.950 . S
C274 C273 1.387 . S
C274 C277 1.387 1_554 S
H275 C271 0.950 . S
H276 C273 0.950 . S
C277 C268 1.390 . S
C277 H270 0.950 . S
C277 C274 1.387 1_556 S
C278 C279 1.387 . S
C278 H282 0.950 . S
C278 C287 1.390 1_655 S
C279 C278 1.387 . S
C279 C281 1.387 . S
H280 C287 0.950 . S
C281 C279 1.387 . S
C281 C283 1.390 1_655 S
C281 H285 0.950 . S
H282 C278 0.950 . S
C283 C281 1.390 1_455 S
C283 C284 1.387 . S
C283 H286 0.950 . S
C284 C283 1.387 . S
C284 C287 1.387 . S
H285 C281 0.950 . S
H286 C283 0.950 . S
C287 C278 1.390 1_455 S
C287 H280 0.950 . S
C287 C284 1.387 . S
C288 C289 1.387 . S
C288 H292 0.950 . S
C288 C297 1.390 . S
C289 C288 1.387 . S
C289 C291 1.387 . S
H290 C297 0.950 . S
C291 C289 1.387 . S
C291 C293 1.384 1_554 S
C291 H295 0.950 . S
H292 C288 0.950 . S
C293 C291 1.384 1_556 S
C293 C294 1.381 1_556 S
C293 H296 0.964 . S
C294 C293 1.381 1_554 S
C294 C297 1.387 . S
H295 C291 0.950 . S
H296 C293 0.964 . S
C297 C288 1.390 . S
C297 H290 0.950 . S
C297 C294 1.387 . S
C298 C299 1.387 . S
C298 H302 0.950 . S
C298 C307 1.390 . S
C299 C298 1.387 . S
C299 C301 1.387 . S
H300 C307 0.950 . S
C301 C299 1.387 . S
C301 C303 1.390 . S
C301 H305 0.950 . S
H302 C298 0.950 . S
C303 C301 1.390 . S
C303 C304 1.387 . S
C303 H306 0.950 . S
C304 C303 1.387 . S
C304 C307 1.387 . S
H305 C301 0.950 . S
H306 C303 0.950 . S
C307 C298 1.390 . S
C307 H300 0.950 . S
C307 C304 1.387 . S
C308 C309 1.387 1_556 S
C308 H312 0.950 . S
C308 C317 1.390 . S
C309 C308 1.387 1_554 S
C309 C311 1.387 . S
H310 C317 0.950 . S
C311 C309 1.387 . S
C311 C313 1.390 . S
C311 H315 0.950 . S
H312 C308 0.950 . S
C313 C311 1.390 . S
C313 C314 1.387 . S
C313 H316 0.950 . S
C314 C313 1.387 . S
C314 C317 1.387 1_554 S
H315 C311 0.950 . S
H316 C313 0.950 . S
C317 C308 1.390 . S
C317 H310 0.950 . S
C317 C314 1.387 1_556 S
C318 C319 1.387 . S
C318 H322 0.950 . S
C318 C327 1.390 . S
C319 C318 1.387 . S
C319 C321 1.387 . S
H320 C327 0.950 . S
C321 C319 1.387 . S
C321 C323 1.390 . S
C321 H325 0.950 . S
H322 C318 0.950 . S
C323 C321 1.390 . S
C323 C324 1.387 . S
C323 H326 0.950 . S
C324 C323 1.387 . S
C324 C327 1.387 . S
H325 C321 0.950 . S
H326 C323 0.950 . S
C327 C318 1.390 . S
C327 H320 0.950 . S
C327 C324 1.387 . S
C328 C329 1.387 . S
C328 H332 0.950 . S
C328 C337 1.390 . S
C329 C328 1.387 . S
C329 C331 1.387 . S
H330 C337 0.950 . S
C331 C329 1.387 . S
C331 C333 1.390 . S
C331 H335 0.950 . S
H332 C328 0.950 . S
C333 C331 1.390 . S
C333 C334 1.387 . S
C333 H336 0.950 . S
C334 C333 1.387 . S
C334 C337 1.387 . S
H335 C331 0.950 . S
H336 C333 0.950 . S
C337 C328 1.390 . S
C337 H330 0.950 . S
C337 C334 1.387 . S
C338 C339 1.387 . S
C338 H342 0.950 . S
C338 C347 1.390 . S
C339 C338 1.387 . S
C339 C341 1.387 . S
H340 C347 0.950 . S
C341 C339 1.387 . S
C341 C343 1.390 . S
C341 H345 0.950 . S
H342 C338 0.950 . S
C343 C341 1.390 . S
C343 C344 1.387 . S
C343 H346 0.950 . S
C344 C343 1.387 . S
C344 C347 1.387 . S
H345 C341 0.950 . S
H346 C343 0.950 . S
C347 C338 1.390 . S
C347 H340 0.950 . S
C347 C344 1.387 . S
C348 C349 1.387 . S
C348 H352 0.950 . S
C348 C357 1.390 . S
C349 C348 1.387 . S
C349 C351 1.387 . S
H350 C357 0.950 . S
C351 C349 1.387 . S
C351 C353 1.390 . S
C351 H355 0.950 . S
H352 C348 0.950 . S
C353 C351 1.390 . S
C353 C354 1.387 . S
C353 H356 0.950 . S
C354 C353 1.387 . S
C354 C357 1.387 . S
H355 C351 0.950 . S
H356 C353 0.950 . S
C357 C348 1.390 . S
C357 H350 0.950 . S
C357 C354 1.387 . S
C358 C359 1.387 . S
C358 H362 0.950 . S
C358 C367 1.390 . S
C359 C358 1.387 . S
C359 C361 1.387 1_556 S
H360 C367 0.950 . S
C361 C359 1.387 1_554 S
C361 C363 1.390 . S
C361 H365 0.950 . S
H362 C358 0.950 . S
C363 C361 1.390 . S
C363 C364 1.387 1_554 S
C363 H366 0.950 . S
C364 C363 1.387 1_556 S
C364 C367 1.387 . S
H365 C361 0.950 . S
H366 C363 0.950 . S
C367 C358 1.390 . S
C367 H360 0.950 . S
C367 C364 1.387 . S
C368 C369 1.387 . S
C368 H372 0.950 . S
C368 C377 1.390 . S
C369 C368 1.387 . S
C369 C371 1.387 . S
H370 C377 0.950 . S
C371 C369 1.387 . S
C371 C373 1.390 . S
C371 H375 0.950 . S
H372 C368 0.950 . S
C373 C371 1.390 . S
C373 C374 1.387 . S
C373 H376 0.950 . S
C374 C373 1.387 . S
C374 C377 1.387 . S
H375 C371 0.950 . S
H376 C373 0.950 . S
C377 C368 1.390 . S
C377 H370 0.950 . S
C377 C374 1.387 . S
C378 C379 1.387 . S
C378 H382 0.950 . S
C378 C387 1.390 . S
C379 C378 1.387 . S
C379 C381 1.387 . S
H380 C387 0.950 . S
C381 C379 1.387 . S
C381 C383 1.390 . S
C381 H385 0.950 . S
H382 C378 0.950 . S
C383 C381 1.390 . S
C383 C384 1.387 . S
C383 H386 0.950 1_556 S
C384 C383 1.387 . S
C384 C387 1.387 . S
H385 C381 0.950 . S
H386 C383 0.950 1_554 S
C387 C378 1.390 . S
C387 H380 0.950 . S
C387 C384 1.387 . S
C388 C389 1.387 . S
C388 H392 0.950 . S
C388 C397 1.390 . S
C389 C388 1.387 . S
C389 C391 1.387 . S
H390 C397 0.950 . S
C391 C389 1.387 . S
C391 C393 1.390 . S
C391 H395 0.950 . S
H392 C388 0.950 . S
C393 C391 1.390 . S
C393 C394 1.387 . S
C393 H396 0.950 . S
C394 C393 1.387 . S
C394 C397 1.387 . S
H395 C391 0.950 . S
H396 C393 0.950 . S
C397 C388 1.390 . S
C397 H390 0.950 . S
C397 C394 1.387 . S
C398 C399 1.387 . S
C398 H402 0.950 . S
C398 C407 1.390 . S
C399 C398 1.387 . S
C399 C401 1.387 1_556 S
H400 C407 0.950 . S
C401 C399 1.387 1_554 S
C401 C403 1.390 . S
C401 H405 0.950 . S
H402 C398 0.950 . S
C403 C401 1.390 . S
C403 C404 1.387 1_554 S
C403 H406 0.950 . S
C404 C403 1.387 1_556 S
C404 C407 1.387 . S
H405 C401 0.950 . S
H406 C403 0.950 . S
C407 C398 1.390 . S
C407 H400 0.950 . S
C407 C404 1.387 . S
C169 C147 1.549 . S
C174 C7 1.563 . S
C179 C21 1.498 . S
C184 C161 1.496 . S
C189 C35 1.550 . S
C194 C91 1.561 . S
C199 C105 1.548 . S
C204 C49 1.562 . S
C209 C119 1.499 . S
C214 C63 1.495 . S
C219 C77 1.549 . S
C224 C133 1.564 . S
C229 C8 1.195 1_556 S
C234 C106 1.235 . S
C239 C22 1.058 . S
C244 C120 1.060 . S
C249 C134 1.195 1_554 S
C254 C36 1.235 . S
C259 C148 1.235 . S
C264 C50 1.197 . S
C269 C162 1.060 . S
C274 C64 1.058 . S
C279 C92 1.194 . S
C284 C78 1.234 . S
C289 C9 1.309 . S
C294 C59 1.213 . S
C299 C23 1.159 . S
C304 C73 1.150 . S
C309 C37 1.242 . S
C314 C3 1.189 . S
C319 C51 1.307 . S
C324 C17 1.215 . S
C329 C65 1.159 . S
C334 C31 1.150 . S
C339 C79 1.246 . S
C344 C45 1.185 . S
C349 C93 1.309 . S
C354 C115 1.210 . S
C359 C107 1.246 . S
C364 C129 1.184 . S
C369 C143 1.150 . S
C374 C121 1.161 . S
C379 C135 1.308 . S
C384 C157 1.210 . S
C389 C149 1.246 . S
C394 C87 1.184 . S
C399 C163 1.161 . S
C404 C101 1.151 . S
