# Generated by pormake.
# Topology fcq, (5)-cn, num edge types: 1
# Building blocks:
#     Node 0, Type 0, BuildingBlock: XOMCOT_clean_sbu_0, # of connection points: 5
#     Node 1, Type 0, BuildingBlock: XOMCOT_clean_sbu_0, # of connection points: 5
#     Node 2, Type 0, BuildingBlock: XOMCOT_clean_sbu_0, # of connection points: 5
#     Node 3, Type 0, BuildingBlock: XOMCOT_clean_sbu_0, # of connection points: 5
#     Node 4, Type 0, BuildingBlock: XOMCOT_clean_sbu_0, # of connection points: 5
#     Node 5, Type 0, BuildingBlock: XOMCOT_clean_sbu_0, # of connection points: 5
#     Node 6, Type 0, BuildingBlock: XOMCOT_clean_sbu_0, # of connection points: 5
#     Node 7, Type 0, BuildingBlock: XOMCOT_clean_sbu_0, # of connection points: 5
#     Node 8, Type 0, BuildingBlock: XOMCOT_clean_sbu_0, # of connection points: 5
#     Node 9, Type 0, BuildingBlock: XOMCOT_clean_sbu_0, # of connection points: 5
#     Node 10, Type 0, BuildingBlock: XOMCOT_clean_sbu_0, # of connection points: 5
#     Node 11, Type 0, BuildingBlock: XOMCOT_clean_sbu_0, # of connection points: 5
#     Node 12, Type 0, BuildingBlock: XOMCOT_clean_sbu_0, # of connection points: 5
#     Node 13, Type 0, BuildingBlock: XOMCOT_clean_sbu_0, # of connection points: 5
#     Node 14, Type 0, BuildingBlock: XOMCOT_clean_sbu_0, # of connection points: 5
#     Node 15, Type 0, BuildingBlock: XOMCOT_clean_sbu_0, # of connection points: 5
#     Node 16, Type 0, BuildingBlock: XOMCOT_clean_sbu_0, # of connection points: 5
#     Node 17, Type 0, BuildingBlock: XOMCOT_clean_sbu_0, # of connection points: 5
#     Node 18, Type 0, BuildingBlock: XOMCOT_clean_sbu_0, # of connection points: 5
#     Node 19, Type 0, BuildingBlock: XOMCOT_clean_sbu_0, # of connection points: 5
#     Node 20, Type 0, BuildingBlock: XOMCOT_clean_sbu_0, # of connection points: 5
#     Node 21, Type 0, BuildingBlock: XOMCOT_clean_sbu_0, # of connection points: 5
#     Node 22, Type 0, BuildingBlock: XOMCOT_clean_sbu_0, # of connection points: 5
#     Node 23, Type 0, BuildingBlock: XOMCOT_clean_sbu_0, # of connection points: 5
#     Node 24, Type 0, BuildingBlock: XOMCOT_clean_sbu_0, # of connection points: 5
#     Node 25, Type 0, BuildingBlock: XOMCOT_clean_sbu_0, # of connection points: 5
#     Node 26, Type 0, BuildingBlock: XOMCOT_clean_sbu_0, # of connection points: 5
#     Node 27, Type 0, BuildingBlock: XOMCOT_clean_sbu_0, # of connection points: 5
#     Node 28, Type 0, BuildingBlock: XOMCOT_clean_sbu_0, # of connection points: 5
#     Node 29, Type 0, BuildingBlock: XOMCOT_clean_sbu_0, # of connection points: 5
#     Node 30, Type 0, BuildingBlock: XOMCOT_clean_sbu_0, # of connection points: 5
#     Node 31, Type 0, BuildingBlock: XOMCOT_clean_sbu_0, # of connection points: 5
#     Node 32, Type 0, BuildingBlock: XOMCOT_clean_sbu_0, # of connection points: 5
#     Node 33, Type 0, BuildingBlock: XOMCOT_clean_sbu_0, # of connection points: 5
#     Node 34, Type 0, BuildingBlock: XOMCOT_clean_sbu_0, # of connection points: 5
#     Node 35, Type 0, BuildingBlock: XOMCOT_clean_sbu_0, # of connection points: 5
#     Node 36, Type 0, BuildingBlock: XOMCOT_clean_sbu_0, # of connection points: 5
#     Node 37, Type 0, BuildingBlock: XOMCOT_clean_sbu_0, # of connection points: 5
#     Node 38, Type 0, BuildingBlock: XOMCOT_clean_sbu_0, # of connection points: 5
#     Node 39, Type 0, BuildingBlock: XOMCOT_clean_sbu_0, # of connection points: 5
#     Node 40, Type 0, BuildingBlock: XOMCOT_clean_sbu_0, # of connection points: 5
#     Node 41, Type 0, BuildingBlock: XOMCOT_clean_sbu_0, # of connection points: 5
#     Node 42, Type 0, BuildingBlock: XOMCOT_clean_sbu_0, # of connection points: 5
#     Node 43, Type 0, BuildingBlock: XOMCOT_clean_sbu_0, # of connection points: 5
#     Node 44, Type 0, BuildingBlock: XOMCOT_clean_sbu_0, # of connection points: 5
#     Node 45, Type 0, BuildingBlock: XOMCOT_clean_sbu_0, # of connection points: 5
#     Node 46, Type 0, BuildingBlock: XOMCOT_clean_sbu_0, # of connection points: 5
#     Node 47, Type 0, BuildingBlock: XOMCOT_clean_sbu_0, # of connection points: 5
#     Edge 48, Type (0, 0), None
#     Edge 49, Type (0, 0), None
#     Edge 50, Type (0, 0), None
#     Edge 51, Type (0, 0), None
#     Edge 52, Type (0, 0), None
#     Edge 53, Type (0, 0), None
#     Edge 54, Type (0, 0), None
#     Edge 55, Type (0, 0), None
#     Edge 56, Type (0, 0), None
#     Edge 57, Type (0, 0), None
#     Edge 58, Type (0, 0), None
#     Edge 59, Type (0, 0), None
#     Edge 60, Type (0, 0), None
#     Edge 61, Type (0, 0), None
#     Edge 62, Type (0, 0), None
#     Edge 63, Type (0, 0), None
#     Edge 64, Type (0, 0), None
#     Edge 65, Type (0, 0), None
#     Edge 66, Type (0, 0), None
#     Edge 67, Type (0, 0), None
#     Edge 68, Type (0, 0), None
#     Edge 69, Type (0, 0), None
#     Edge 70, Type (0, 0), None
#     Edge 71, Type (0, 0), None
#     Edge 72, Type (0, 0), None
#     Edge 73, Type (0, 0), None
#     Edge 74, Type (0, 0), None
#     Edge 75, Type (0, 0), None
#     Edge 76, Type (0, 0), None
#     Edge 77, Type (0, 0), None
#     Edge 78, Type (0, 0), None
#     Edge 79, Type (0, 0), None
#     Edge 80, Type (0, 0), None
#     Edge 81, Type (0, 0), None
#     Edge 82, Type (0, 0), None
#     Edge 83, Type (0, 0), None
#     Edge 84, Type (0, 0), None
#     Edge 85, Type (0, 0), None
#     Edge 86, Type (0, 0), None
#     Edge 87, Type (0, 0), None
#     Edge 88, Type (0, 0), None
#     Edge 89, Type (0, 0), None
#     Edge 90, Type (0, 0), None
#     Edge 91, Type (0, 0), None
#     Edge 92, Type (0, 0), None
#     Edge 93, Type (0, 0), None
#     Edge 94, Type (0, 0), None
#     Edge 95, Type (0, 0), None
#     Edge 96, Type (0, 0), None
#     Edge 97, Type (0, 0), None
#     Edge 98, Type (0, 0), None
#     Edge 99, Type (0, 0), None
#     Edge 100, Type (0, 0), None
#     Edge 101, Type (0, 0), None
#     Edge 102, Type (0, 0), None
#     Edge 103, Type (0, 0), None
#     Edge 104, Type (0, 0), None
#     Edge 105, Type (0, 0), None
#     Edge 106, Type (0, 0), None
#     Edge 107, Type (0, 0), None
#     Edge 108, Type (0, 0), None
#     Edge 109, Type (0, 0), None
#     Edge 110, Type (0, 0), None
#     Edge 111, Type (0, 0), None
#     Edge 112, Type (0, 0), None
#     Edge 113, Type (0, 0), None
#     Edge 114, Type (0, 0), None
#     Edge 115, Type (0, 0), None
#     Edge 116, Type (0, 0), None
#     Edge 117, Type (0, 0), None
#     Edge 118, Type (0, 0), None
#     Edge 119, Type (0, 0), None
#     Edge 120, Type (0, 0), None
#     Edge 121, Type (0, 0), None
#     Edge 122, Type (0, 0), None
#     Edge 123, Type (0, 0), None
#     Edge 124, Type (0, 0), None
#     Edge 125, Type (0, 0), None
#     Edge 126, Type (0, 0), None
#     Edge 127, Type (0, 0), None
#     Edge 128, Type (0, 0), None
#     Edge 129, Type (0, 0), None
#     Edge 130, Type (0, 0), None
#     Edge 131, Type (0, 0), None
#     Edge 132, Type (0, 0), None
#     Edge 133, Type (0, 0), None
#     Edge 134, Type (0, 0), None
#     Edge 135, Type (0, 0), None
#     Edge 136, Type (0, 0), None
#     Edge 137, Type (0, 0), None
#     Edge 138, Type (0, 0), None
#     Edge 139, Type (0, 0), None
#     Edge 140, Type (0, 0), None
#     Edge 141, Type (0, 0), None
#     Edge 142, Type (0, 0), None
#     Edge 143, Type (0, 0), None
#     Edge 144, Type (0, 0), None
#     Edge 145, Type (0, 0), None
#     Edge 146, Type (0, 0), None
#     Edge 147, Type (0, 0), None
#     Edge 148, Type (0, 0), None
#     Edge 149, Type (0, 0), None
#     Edge 150, Type (0, 0), None
#     Edge 151, Type (0, 0), None
#     Edge 152, Type (0, 0), None
#     Edge 153, Type (0, 0), None
#     Edge 154, Type (0, 0), None
#     Edge 155, Type (0, 0), None
#     Edge 156, Type (0, 0), None
#     Edge 157, Type (0, 0), None
#     Edge 158, Type (0, 0), None
#     Edge 159, Type (0, 0), None
#     Edge 160, Type (0, 0), None
#     Edge 161, Type (0, 0), None
#     Edge 162, Type (0, 0), None
#     Edge 163, Type (0, 0), None
#     Edge 164, Type (0, 0), None
#     Edge 165, Type (0, 0), None
#     Edge 166, Type (0, 0), None
#     Edge 167, Type (0, 0), None
# Relax obj value: 0.480
# Max RMSD: 0.276
# Mean RMSD: 0.272
data_MOF--net-fcq--node1-XOMCOT_clean_sbu_0--edge1-none
_symmetry_space_group_name_H-M    P1
_symmetry_Int_Tables_number       1
_symmetry_cell_setting            triclinic
loop_
_symmetry_equiv_pos_as_xyz
'x, y, z'
_cell_length_a     34.46519
_cell_length_b     34.424752
_cell_length_c     34.346248
_cell_angle_alpha  89.844626
_cell_angle_beta   89.916081
_cell_angle_gamma 89.922286
loop_
_atom_site_label
_atom_site_type_symbol
_atom_site_fract_x
_atom_site_fract_y
_atom_site_fract_z
_atom_type_partial_charge
Co0 Co 0.12232 0.16635 0.42918 0.0
C1 C 0.19895 0.16381 0.47176 0.0
C2 C 0.15958 0.20606 0.49533 0.0
C3 C 0.19369 0.20727 0.5163 0.0
N4 N 0.16282 0.17907 0.46714 0.0
N5 N 0.21812 0.18038 0.50183 0.0
H6 H 0.21158 0.14221 0.45273 0.0
H7 H 0.13451 0.22451 0.49956 0.0
C8 C 0.11493 0.24044 0.38365 0.0
O9 O 0.12091 0.22155 0.35111 0.0
N10 N 0.08131 0.15317 0.39188 0.0
C11 C 0.08478 0.14899 0.35284 0.0
C12 C 0.04989 0.13854 0.33743 0.0
C13 C 0.0435 0.14483 0.39939 0.0
N14 N 0.02394 0.13582 0.36656 0.0
C15 C 0.16464 0.12093 0.37611 0.0
C16 C 0.22581 0.17206 0.36749 0.0
C17 C 0.23005 0.13323 0.35615 0.0
C18 C 0.19784 0.10865 0.35715 0.0
C19 C 0.19098 0.18394 0.38443 0.0
N20 N 0.16189 0.1577 0.39045 0.0
H21 H 0.14189 0.10004 0.3816 0.0
H22 H 0.18937 0.21257 0.39715 0.0
H23 H 0.11068 0.15327 0.33575 0.0
H24 H 0.03035 0.14565 0.42798 0.0
O25 O 0.12035 0.11481 0.45005 0.0
O26 O 0.08561 0.16496 0.47124 0.0
O27 O 0.11663 0.223 0.41642 0.0
C28 C 0.09611 0.12883 0.47548 0.0
H29 H 0.20095 0.22788 0.53887 0.0
H30 H 0.04401 0.13357 0.30687 0.0
H31 H 0.2504 0.19163 0.36753 0.0
H32 H 0.19997 0.07836 0.34891 0.0
Co33 Co 0.42162 0.61766 0.80103 0.0
C34 C 0.42542 0.53921 0.76295 0.0
C35 C 0.47895 0.57094 0.75781 0.0
C36 C 0.4835 0.53531 0.74016 0.0
N37 N 0.44275 0.57338 0.77246 0.0
N38 N 0.44978 0.51569 0.74289 0.0
H39 H 0.39646 0.53112 0.77202 0.0
H40 H 0.50084 0.59323 0.76049 0.0
C41 C 0.48572 0.6275 0.86184 0.0
O42 O 0.46209 0.62559 0.89186 0.0
N43 N 0.39951 0.66227 0.82875 0.0
C44 C 0.36172 0.67285 0.82766 0.0
C45 C 0.35585 0.70413 0.85144 0.0
C46 C 0.41651 0.68939 0.85174 0.0
N47 N 0.39022 0.71455 0.86666 0.0
C48 C 0.36327 0.58012 0.84705 0.0
C49 C 0.41066 0.52085 0.87316 0.0
C50 C 0.37039 0.51738 0.8772 0.0
C51 C 0.34686 0.54863 0.86643 0.0
C52 C 0.42614 0.55374 0.85504 0.0
N53 N 0.4023 0.58204 0.84054 0.0
H54 H 0.34381 0.60038 0.8336 0.0
H55 H 0.45682 0.55412 0.84862 0.0
H56 H 0.3395 0.65946 0.81012 0.0
H57 H 0.44733 0.69188 0.85651 0.0
O58 O 0.37837 0.61768 0.76581 0.0
O59 O 0.4331 0.65046 0.75692 0.0
O60 O 0.473 0.62415 0.82717 0.0
C61 C 0.39941 0.64019 0.74367 0.0
H62 H 0.51001 0.52394 0.72765 0.0
H63 H 0.32849 0.71893 0.85604 0.0
H64 H 0.42963 0.49672 0.88021 0.0
H65 H 0.31551 0.54636 0.86767 0.0
Co66 Co 0.86468 0.32102 0.42019 0.0
C67 C 0.78659 0.32225 0.46076 0.0
C68 C 0.82399 0.27639 0.48072 0.0
C69 C 0.78978 0.27473 0.5015 0.0
N70 N 0.82212 0.30595 0.45497 0.0
N71 N 0.7666 0.30385 0.48941 0.0
H72 H 0.77512 0.3461 0.4437 0.0
H73 H 0.84841 0.25683 0.48364 0.0
C74 C 0.89627 0.24607 0.38969 0.0
O75 O 0.9316 0.25669 0.39922 0.0
N76 N 0.9073 0.33596 0.38621 0.0
C77 C 0.90956 0.33045 0.34735 0.0
C78 C 0.94489 0.34389 0.33426 0.0
C79 C 0.94141 0.35245 0.39619 0.0
N80 N 0.96475 0.3575 0.36511 0.0
C81 C 0.82841 0.37112 0.36631 0.0
C82 C 0.76527 0.32323 0.3539 0.0
C83 C 0.76249 0.36301 0.34594 0.0
C84 C 0.79575 0.38614 0.34813 0.0
C85 C 0.79898 0.30906 0.37097 0.0
N86 N 0.82833 0.33398 0.37999 0.0
H87 H 0.85214 0.39042 0.37316 0.0
H88 H 0.79907 0.27962 0.38191 0.0
H89 H 0.88738 0.31682 0.32984 0.0
H90 H 0.94976 0.3597 0.42559 0.0
O91 O 0.86651 0.37049 0.44513 0.0
O92 O 0.89914 0.31814 0.4645 0.0
O93 O 0.86718 0.26682 0.39945 0.0
C94 C 0.88909 0.35428 0.47061 0.0
H95 H 0.78164 0.25267 0.52248 0.0
H96 H 0.95556 0.34269 0.3046 0.0
H97 H 0.74002 0.30458 0.35222 0.0
H98 H 0.7947 0.41701 0.34194 0.0
Co99 Co 0.57793 0.87927 0.82284 0.0
C100 C 0.57908 0.95667 0.78076 0.0
C101 C 0.53779 0.91643 0.75721 0.0
C102 C 0.53565 0.95054 0.73622 0.0
N103 N 0.56471 0.92019 0.7854 0.0
N104 N 0.56184 0.97553 0.75074 0.0
H105 H 0.60051 0.96969 0.79964 0.0
H106 H 0.52006 0.8909 0.75294 0.0
C107 C 0.50192 0.8705 0.86543 0.0
O108 O 0.51818 0.88028 0.89848 0.0
N109 N 0.59076 0.8376 0.85944 0.0
C110 C 0.59101 0.83848 0.89889 0.0
C111 C 0.60051 0.80237 0.91303 0.0
C112 C 0.60031 0.80062 0.85042 0.0
N113 N 0.60637 0.7788 0.88246 0.0
C114 C 0.6219 0.91942 0.87821 0.0
C115 C 0.573 0.98274 0.88308 0.0
C116 C 0.61222 0.98646 0.89332 0.0
C117 C 0.63555 0.95336 0.89481 0.0
C118 C 0.56001 0.94763 0.86778 0.0
N119 N 0.58545 0.91767 0.86285 0.0
H120 H 0.64208 0.89576 0.8739 0.0
H121 H 0.53146 0.94646 0.85484 0.0
H122 H 0.58483 0.86342 0.91682 0.0
H123 H 0.60213 0.78937 0.82112 0.0
O124 O 0.63009 0.87894 0.80284 0.0
O125 O 0.58114 0.84382 0.78005 0.0
O126 O 0.5212 0.87142 0.83376 0.0
C127 C 0.6171 0.85499 0.7767 0.0
H128 H 0.51493 0.95738 0.71356 0.0
H129 H 0.60275 0.79405 0.94339 0.0
H130 H 0.55416 0.00793 0.88173 0.0
H131 H 0.66595 0.95508 0.90261 0.0
Co132 Co 0.12937 0.82313 0.06684 0.0
C133 C 0.20718 0.82302 0.02513 0.0
C134 C 0.16722 0.78057 0.00323 0.0
C135 C 0.20115 0.77808 0.98212 0.0
N136 N 0.17085 0.80846 0.03047 0.0
N137 N 0.22598 0.80505 0.99547 0.0
H138 H 0.22009 0.84517 0.04326 0.0
H139 H 0.14181 0.76254 -0.00041 0.0
C140 C 0.11729 0.74991 0.11269 0.0
O141 O 0.12291 0.76875 0.1453 0.0
N142 N 0.08692 0.83765 0.10212 0.0
C143 C 0.08749 0.84178 0.14136 0.0
C144 C 0.05115 0.85159 0.15435 0.0
C145 C 0.04971 0.84541 0.09208 0.0
N146 N 0.02758 0.85399 0.12332 0.0
C147 C 0.1695 0.86813 0.12138 0.0
C148 C 0.23163 0.81799 0.1291 0.0
C149 C 0.23562 0.8572 0.13931 0.0
C150 C 0.20293 0.88118 0.13923 0.0
C151 C 0.19657 0.80534 0.11334 0.0
N152 N 0.16725 0.83129 0.10714 0.0
H153 H 0.14654 0.88881 0.11578 0.0
H154 H 0.19501 0.77646 0.10116 0.0
H155 H 0.11226 0.83775 0.1601 0.0
H156 H 0.03864 0.84439 0.06266 0.0
O157 O 0.12986 0.87459 0.04545 0.0
O158 O 0.09479 0.82527 0.02321 0.0
O159 O 0.12146 0.76687 0.07991 0.0
C160 C 0.10638 0.86107 0.01919 0.0
H161 H 0.20796 0.75671 0.96007 0.0
H162 H 0.04274 0.85662 0.18432 0.0
H163 H 0.25651 0.79872 0.12875 0.0
H164 H 0.20479 0.91165 0.14688 0.0
Co165 Co 0.07298 0.61259 0.17266 0.0
C166 C 0.07727 0.53599 0.21538 0.0
C167 C 0.03244 0.57347 0.23726 0.0
C168 C 0.03207 0.53943 0.25851 0.0
N169 N 0.06048 0.57133 0.20994 0.0
N170 N 0.06053 0.51622 0.24508 0.0
H171 H 0.10017 0.52436 0.19724 0.0
H172 H 0.01284 0.59778 0.24078 0.0
C173 C -0.0017 0.62089 0.12789 0.0
O174 O 0.01631 0.61612 0.09462 0.0
N175 N 0.08595 0.65451 0.13616 0.0
C176 C 0.08907 0.65317 0.09684 0.0
C177 C 0.10104 0.68864 0.08304 0.0
C178 C 0.09661 0.69115 0.14545 0.0
N179 N 0.10603 0.71224 0.11371 0.0
C180 C 0.11967 0.57278 0.11904 0.0
C181 C 0.07229 0.50831 0.11406 0.0
C182 C 0.11168 0.5054 0.10423 0.0
C183 C 0.13429 0.53901 0.10292 0.0
C184 C 0.05804 0.5436 0.12805 0.0
N185 N 0.08275 0.57409 0.13325 0.0
H186 H 0.13929 0.59677 0.12373 0.0
H187 H 0.02905 0.54454 0.14005 0.0
H188 H 0.08398 0.62809 0.07879 0.0
H189 H 0.09751 0.70251 0.17474 0.0
O190 O 0.12424 0.61503 0.19416 0.0
O191 O 0.07311 0.64841 0.2153 0.0
O192 O 0.01645 0.61768 0.16004 0.0
C193 C 0.10934 0.63861 0.21975 0.0
H194 H 0.01112 0.53131 0.28057 0.0
H195 H 0.10622 0.69631 0.05286 0.0
H196 H 0.05408 0.48272 0.11542 0.0
H197 H 0.16485 0.53794 0.09551 0.0
Co198 Co 0.85801 0.66398 0.07452 0.0
C199 C 0.77912 0.66293 0.03563 0.0
C200 C 0.81738 0.70634 0.0122 0.0
C201 C 0.78255 0.70842 0.99259 0.0
N202 N 0.81536 0.67808 0.03941 0.0
N203 N 0.75883 0.68089 0.00699 0.0
H204 H 0.76741 0.64027 0.05408 0.0
H205 H 0.84228 0.72488 0.00756 0.0
C206 C 0.86945 0.73818 0.11961 0.0
O207 O 0.86639 0.71997 0.15303 0.0
N208 N 0.90125 0.64975 0.10872 0.0
C209 C 0.90149 0.64612 0.14802 0.0
C210 C 0.93768 0.63467 0.16011 0.0
C211 C 0.93767 0.63987 0.09769 0.0
N212 N 0.96019 0.63058 0.12839 0.0
C213 C 0.81987 0.61695 0.12919 0.0
C214 C 0.75737 0.66619 0.13932 0.0
C215 C 0.75372 0.62649 0.14781 0.0
C216 C 0.78665 0.60287 0.14691 0.0
C217 C 0.79204 0.67971 0.12336 0.0
N218 N 0.82133 0.65418 0.11563 0.0
H219 H 0.84306 0.5968 0.12273 0.0
H220 H 0.79308 0.70897 0.11194 0.0
H221 H 0.8772 0.65104 0.16724 0.0
H222 H 0.94796 0.63987 0.06795 0.0
O223 O 0.85877 0.61293 0.05202 0.0
O224 O 0.89195 0.66405 0.03046 0.0
O225 O 0.8645 0.72026 0.08761 0.0
C226 C 0.88163 0.62799 0.02582 0.0
H227 H 0.77449 0.72972 0.97081 0.0
H228 H 0.94669 0.62962 0.1899 0.0
H229 H 0.73232 0.68523 0.13984 0.0
H230 H 0.78502 0.57209 0.15342 0.0
Co231 Co 0.91678 0.87766 0.171 0.0
C232 C 0.9235 0.95676 0.21043 0.0
C233 C 0.96468 0.91421 0.23041 0.0
C234 C 0.97189 0.94856 0.24934 0.0
N235 N 0.93475 0.9191 0.20564 0.0
N236 N 0.94593 0.97513 0.23712 0.0
H237 H 0.901 0.97086 0.19356 0.0
H238 H 0.98111 0.88759 0.23352 0.0
C239 C 0.9892 0.86267 0.12393 0.0
O240 O 0.97004 0.86643 0.09119 0.0
N241 N 0.89945 0.83513 0.13744 0.0
C242 C 0.89461 0.83486 0.0983 0.0
C243 C 0.8823 0.7988 0.08679 0.0
C244 C 0.88969 0.79878 0.14894 0.0
N245 N 0.87915 0.77631 0.1187 0.0
C246 C 0.87111 0.91797 0.11788 0.0
C247 C 0.9229 0.97772 0.10442 0.0
C248 C 0.88333 0.98273 0.09663 0.0
C249 C 0.85793 0.95165 0.10064 0.0
C250 C 0.93517 0.9429 0.12138 0.0
N251 N 0.90864 0.91473 0.12996 0.0
H252 H 0.85013 0.89575 0.12495 0.0
H253 H 0.96457 0.94066 0.13207 0.0
H254 H 0.89975 0.8589 0.07875 0.0
H255 H 0.89093 0.78841 0.17865 0.0
O256 O 0.86602 0.8811 0.19324 0.0
O257 O 0.91398 0.84419 0.21585 0.0
O258 O 0.97226 0.86732 0.15663 0.0
C259 C 0.87853 0.85706 0.2195 0.0
H260 H -0.00449 0.95422 0.26925 0.0
H261 H 0.87639 0.78973 0.05721 0.0
H262 H 0.94299 0.00178 0.10198 0.0
H263 H 0.82721 0.95488 0.09467 0.0
Co264 Co 0.41779 0.12936 0.16571 0.0
C265 C 0.46133 0.20649 0.16543 0.0
C266 C 0.47941 0.16709 0.2105 0.0
C267 C 0.50117 0.20047 0.21336 0.0
N268 N 0.45408 0.17069 0.18079 0.0
N269 N 0.4902 0.22495 0.18485 0.0
H270 H 0.44519 0.21923 0.14159 0.0
H271 H 0.48137 0.142 0.22943 0.0
C272 C 0.37187 0.11795 0.23939 0.0
O273 O 0.33916 0.12164 0.22027 0.0
N274 N 0.38324 0.08641 0.15096 0.0
C275 C 0.34429 0.08606 0.14584 0.0
C276 C 0.3327 0.04935 0.13503 0.0
C277 C 0.39447 0.04948 0.14299 0.0
N278 N 0.36439 0.02657 0.13311 0.0
C279 C 0.36434 0.16985 0.11949 0.0
C280 C 0.36263 0.23452 0.16688 0.0
C281 C 0.35459 0.23831 0.12704 0.0
C282 C 0.35145 0.20488 0.10433 0.0
C283 C 0.37342 0.19817 0.18155 0.0
N284 N 0.3777 0.16752 0.15677 0.0
H285 H 0.36831 0.14583 0.09969 0.0
H286 H 0.38445 0.19635 0.21095 0.0
H287 H 0.32503 0.11052 0.14963 0.0
H288 H 0.42398 0.03901 0.14477 0.0
O289 O 0.43933 0.12971 0.11431 0.0
O290 O 0.46117 0.09477 0.16432 0.0
O291 O 0.40433 0.12199 0.22204 0.0
C292 C 0.4651 0.10584 0.12819 0.0
H293 H 0.52218 0.20712 0.23576 0.0
H294 H 0.30325 0.04016 0.12912 0.0
H295 H 0.36507 0.25989 0.18531 0.0
H296 H 0.34513 0.20656 0.07347 0.0
Co297 Co 0.38407 0.32376 0.06973 0.0
C298 C 0.4608 0.28122 0.07358 0.0
C299 C 0.42628 0.26367 0.02466 0.0
C300 C 0.46053 0.24272 0.02438 0.0
N301 N 0.42642 0.28815 0.05523 0.0
N302 N 0.48187 0.2533 0.05541 0.0
H303 H 0.47074 0.29708 0.09882 0.0
H304 H 0.40315 0.26175 0.0035 0.0
C305 C 0.37303 0.37143 -0.00384 0.0
O306 O 0.38175 0.40372 0.01426 0.0
N307 N 0.34136 0.35834 0.08512 0.0
C308 C 0.34094 0.39764 0.08719 0.0
C309 C 0.30538 0.40999 0.1004 0.0
C310 C 0.30569 0.3476 0.0978 0.0
N311 N 0.28348 0.37844 0.10732 0.0
C312 C 0.42364 0.37827 0.115 0.0
C313 C 0.48788 0.37996 0.06666 0.0
C314 C 0.49158 0.38874 0.1062 0.0
C315 C 0.45834 0.39235 0.12925 0.0
C316 C 0.45178 0.36837 0.05278 0.0
N317 N 0.42152 0.36406 0.07812 0.0
H318 H 0.39988 0.37411 0.13515 0.0
H319 H 0.44999 0.35661 0.02368 0.0
H320 H 0.36497 0.41667 0.08083 0.0
H321 H 0.29569 0.31791 0.09976 0.0
O322 O 0.38442 0.30114 0.12109 0.0
O323 O 0.3498 0.27995 0.07086 0.0
O324 O 0.37576 0.33849 0.01343 0.0
C325 C 0.36079 0.27535 0.10686 0.0
H326 H 0.46989 0.22253 0.00215 0.0
H327 H 0.29654 0.43981 0.10515 0.0
H328 H 0.5132 0.37717 0.04813 0.0
H329 H 0.46013 0.39929 0.15995 0.0
Co330 Co 0.57417 0.35756 0.1649 0.0
C331 C 0.52888 0.28261 0.16647 0.0
C332 C 0.51019 0.32284 0.21039 0.0
C333 C 0.48723 0.29007 0.21253 0.0
N334 N 0.53666 0.31814 0.18186 0.0
N335 N 0.49857 0.26514 0.18457 0.0
H336 H 0.54582 0.26929 0.14356 0.0
H337 H 0.50813 0.34818 0.22883 0.0
C338 C 0.6205 0.37214 0.23688 0.0
O339 O 0.65282 0.36839 0.21686 0.0
N340 N 0.60926 0.39828 0.14634 0.0
C341 C 0.61606 0.40596 0.10822 0.0
C342 C 0.63299 0.44148 0.1043 0.0
C343 C 0.62087 0.431 0.16494 0.0
N344 N 0.63584 0.45736 0.13984 0.0
C345 C 0.63542 0.31466 0.12721 0.0
C346 C 0.63025 0.25217 0.17735 0.0
C347 C 0.64584 0.24709 0.14002 0.0
C348 C 0.65301 0.2799 0.11718 0.0
C349 C 0.61545 0.28856 0.18757 0.0
N350 N 0.61416 0.3178 0.16057 0.0
H351 H 0.63559 0.33686 0.10558 0.0
H352 H 0.59994 0.29135 0.21481 0.0
H353 H 0.60651 0.38855 0.08394 0.0
H354 H 0.61515 0.43711 0.19526 0.0
O355 O 0.55173 0.35453 0.11386 0.0
O356 O 0.53292 0.39424 0.16147 0.0
O357 O 0.58772 0.36773 0.22043 0.0
C358 C 0.52802 0.38139 0.12629 0.0
H359 H 0.46517 0.2841 0.23418 0.0
H360 H 0.64042 0.45559 0.07706 0.0
H361 H 0.62497 0.22751 0.19629 0.0
H362 H 0.66585 0.27751 0.08846 0.0
Co363 Co 0.6137 0.16764 0.07834 0.0
C364 C 0.53873 0.21495 0.07759 0.0
C365 C 0.58257 0.23755 0.03936 0.0
C366 C 0.54951 0.25989 0.03535 0.0
N367 N 0.57599 0.20897 0.06549 0.0
N368 N 0.52211 0.24595 0.05957 0.0
H369 H 0.52343 0.19613 0.09766 0.0
H370 H 0.60918 0.2409 0.02296 0.0
C371 C 0.61879 0.12832 -5e-05 0.0
O372 O 0.60468 0.096 0.01438 0.0
N373 N 0.6517 0.12668 0.09101 0.0
C374 C 0.64686 0.08777 0.08751 0.0
C375 C 0.67977 0.06883 0.09936 0.0
C376 C 0.68816 0.13048 0.10538 0.0
N377 N 0.70567 0.09561 0.11059 0.0
C378 C 0.56932 0.1133 0.11921 0.0
C379 C 0.50627 0.11454 0.06977 0.0
C380 C 0.50213 0.10122 0.10818 0.0
C381 C 0.53499 0.0966 0.13137 0.0
C382 C 0.54204 0.12923 0.05787 0.0
N383 N 0.57201 0.13092 0.08372 0.0
H384 H 0.5929 0.11523 0.13983 0.0
H385 H 0.54406 0.14394 0.03009 0.0
H386 H 0.62097 0.07322 0.07785 0.0
H387 H 0.70212 0.15801 0.11103 0.0
O388 O 0.61437 0.18573 0.13131 0.0
O389 O 0.65278 0.20666 0.08373 0.0
O390 O 0.62195 0.1585 0.02108 0.0
C391 C 0.64072 0.21014 0.11952 0.0
H392 H 0.54503 0.28302 0.01442 0.0
H393 H 0.68445 0.03771 0.09928 0.0
H394 H 0.48125 0.11835 0.05108 0.0
H395 H 0.53301 0.08621 0.16112 0.0
Co396 Co 0.41712 0.86283 0.33064 0.0
C397 C 0.45761 0.78429 0.33374 0.0
C398 C 0.48143 0.82306 0.29088 0.0
C399 C 0.50174 0.78855 0.28952 0.0
N400 N 0.45348 0.82055 0.31831 0.0
N401 N 0.48706 0.76444 0.31666 0.0
H402 H 0.43891 0.77221 0.35598 0.0
H403 H 0.48605 0.84805 0.2723 0.0
C404 C 0.37389 0.87239 0.25497 0.0
O405 O 0.34049 0.86845 0.27283 0.0
N406 N 0.38182 0.90574 0.34284 0.0
C407 C 0.3426 0.90539 0.34581 0.0
C408 C 0.32964 0.94174 0.35573 0.0
C409 C 0.39191 0.94271 0.35133 0.0
N410 N 0.36073 0.96495 0.35936 0.0
C411 C 0.36266 0.82451 0.37707 0.0
C412 C 0.35817 0.75988 0.33001 0.0
C413 C 0.35039 0.75685 0.37 0.0
C414 C 0.34824 0.79033 0.39253 0.0
C415 C 0.37098 0.79531 0.31517 0.0
N416 N 0.37652 0.82572 0.33984 0.0
H417 H 0.36721 0.84868 0.39654 0.0
H418 H 0.3825 0.79626 0.28589 0.0
H419 H 0.324 0.8806 0.34143 0.0
H420 H 0.42134 0.95353 0.35147 0.0
O421 O 0.43734 0.86421 0.38268 0.0
O422 O 0.46058 0.89737 0.3322 0.0
O423 O 0.40569 0.86862 0.27355 0.0
C424 C 0.46378 0.88724 0.36866 0.0
H425 H 0.5241 0.78087 0.26875 0.0
H426 H 0.29972 0.95036 0.36015 0.0
H427 H 0.35974 0.73423 0.31186 0.0
H428 H 0.34208 0.78895 0.42346 0.0
Co429 Co 0.10814 0.3192 0.92168 0.0
C430 C 0.03117 0.27498 0.92734 0.0
C431 C 0.07396 0.25762 0.9694 0.0
C432 C 0.04074 0.23648 0.97602 0.0
N433 N 0.06821 0.28221 0.9393 0.0
N434 N 0.01404 0.24703 0.9495 0.0
H435 H 0.01659 0.29087 0.90439 0.0
H436 H 0.10039 0.25598 0.98627 0.0
C437 C 0.12025 0.3642 0.99572 0.0
O438 O 0.10981 0.3968 0.97895 0.0
N439 N 0.14938 0.35506 0.90488 0.0
C440 C 0.14932 0.39442 0.90545 0.0
C441 C 0.18459 0.40804 0.89294 0.0
C442 C 0.18511 0.34562 0.89123 0.0
N443 N 0.20691 0.37735 0.88383 0.0
C444 C 0.06763 0.37506 0.87857 0.0
C445 C 0.0044 0.37915 0.92778 0.0
C446 C 0.00091 0.3909 0.88878 0.0
C447 C 0.03411 0.39287 0.86557 0.0
C448 C 0.0396 0.36361 0.94057 0.0
N449 N 0.06946 0.35904 0.91487 0.0
H450 H 0.09088 0.3706 0.85792 0.0
H451 H 0.04107 0.35048 0.96917 0.0
H452 H 0.12525 0.41276 0.91344 0.0
H453 H 0.19558 0.31625 0.88751 0.0
O454 O 0.10531 0.29803 0.87029 0.0
O455 O 0.14343 0.27637 0.91795 0.0
O456 O 0.11878 0.33213 0.97742 0.0
C457 C 0.13039 0.27255 0.88255 0.0
H458 H 0.03591 0.21603 -0.00048 0.0
H459 H 0.19299 0.43825 0.89034 0.0
H460 H 0.97917 0.3774 0.94655 0.0
H461 H 0.03272 0.40187 0.83534 0.0
Co462 Co 0.56634 0.62798 0.32757 0.0
C463 C 0.52306 0.70439 0.33241 0.0
C464 C 0.49928 0.66579 0.28967 0.0
C465 C 0.47791 0.69975 0.28956 0.0
N466 N 0.52793 0.66868 0.31618 0.0
N467 N 0.4926 0.72375 0.31667 0.0
H468 H 0.54219 0.71664 0.35408 0.0
H469 H 0.49495 0.64106 0.27081 0.0
C470 C 0.60786 0.62118 0.25109 0.0
O471 O 0.63998 0.63355 0.26723 0.0
N472 N 0.60386 0.58671 0.3392 0.0
C473 C 0.64316 0.58817 0.3385 0.0
C474 C 0.65802 0.55269 0.34922 0.0
C475 C 0.59569 0.54991 0.35039 0.0
N476 N 0.62807 0.52887 0.35676 0.0
C477 C 0.62252 0.66831 0.37017 0.0
C478 C 0.62283 0.73329 0.32284 0.0
C479 C 0.63507 0.73603 0.36163 0.0
C480 C 0.63888 0.70227 0.38388 0.0
C481 C 0.60833 0.698 0.30948 0.0
N482 N 0.60562 0.66712 0.33433 0.0
H483 H 0.61964 0.6441 0.39006 0.0
H484 H 0.59417 0.69717 0.28142 0.0
H485 H 0.66056 0.61324 0.3315 0.0
H486 H 0.56673 0.5383 0.35356 0.0
O487 O 0.54785 0.6266 0.38038 0.0
O488 O 0.52464 0.59165 0.33132 0.0
O489 O 0.57618 0.62071 0.2703 0.0
C490 C 0.52207 0.60216 0.36765 0.0
H491 H 0.45494 0.70729 0.26944 0.0
H492 H 0.68844 0.54505 0.35135 0.0
H493 H 0.61963 0.75902 0.30489 0.0
H494 H 0.64828 0.70325 0.41396 0.0
Co495 Co 0.87873 0.16945 0.9242 0.0
C496 C 0.95368 0.21366 0.92912 0.0
C497 C 0.91899 0.2202 0.98082 0.0
C498 C 0.95265 0.24153 0.98505 0.0
N499 N 0.91976 0.20223 0.94604 0.0
N500 N 0.97406 0.23795 0.95235 0.0
H501 H 0.96396 0.20308 0.9013 0.0
H502 H 0.89591 0.21735 0.002 0.0
C503 C 0.86037 0.11061 0.98275 0.0
O504 O 0.86759 0.08655 0.95396 0.0
N505 N 0.83629 0.13957 0.90042 0.0
C506 C 0.82912 0.13744 0.86167 0.0
C507 C 0.79417 0.11994 0.85543 0.0
C508 C 0.80328 0.12577 0.91705 0.0
N509 N 0.77802 0.11244 0.89024 0.0
C510 C 0.91834 0.11053 0.87942 0.0
C511 C 0.98232 0.10911 0.92751 0.0
C512 C 0.98565 0.09691 0.88882 0.0
C513 C 0.95209 0.0929 0.86661 0.0
C514 C 0.94684 0.12394 0.94032 0.0
N515 N 0.91698 0.12882 0.91458 0.0
H516 H 0.89546 0.11259 0.85881 0.0
H517 H 0.94516 0.13632 0.96917 0.0
H518 H 0.8472 0.14937 0.83886 0.0
H519 H 0.79641 0.12785 0.94766 0.0
O520 O 0.8845 0.19709 0.87642 0.0
O521 O 0.84442 0.21335 0.92481 0.0
O522 O 0.86607 0.14696 0.97756 0.0
C523 C 0.85808 0.2204 0.89007 0.0
H524 H 0.96154 0.25721 0.0108 0.0
H525 H 0.78092 0.11464 0.82736 0.0
H526 H 0.00764 0.11161 0.94599 0.0
H527 H 0.95318 0.08258 0.83684 0.0
Co528 Co 0.17096 0.42166 0.13148 0.0
C529 C 0.16901 0.46473 0.2078 0.0
C530 C 0.21327 0.48549 0.16889 0.0
C531 C 0.21434 0.50735 0.20242 0.0
N532 N 0.18518 0.45848 0.17227 0.0
N533 N 0.1862 0.49468 0.22649 0.0
H534 H 0.14622 0.44702 0.22027 0.0
H535 H 0.23225 0.48855 0.14396 0.0
C536 C 0.24616 0.37798 0.11998 0.0
O537 O 0.22936 0.34481 0.12812 0.0
N538 N 0.15639 0.38592 0.08975 0.0
C539 C 0.15609 0.34655 0.08985 0.0
C540 C 0.14269 0.33339 0.05467 0.0
C541 C 0.14246 0.39585 0.05428 0.0
N542 N 0.13388 0.36449 0.03265 0.0
C543 C 0.12784 0.36557 0.17196 0.0
C544 C 0.17622 0.36273 0.23593 0.0
C545 C 0.13736 0.35118 0.23946 0.0
C546 C 0.11452 0.34867 0.20601 0.0
C547 C 0.18932 0.37735 0.20028 0.0
N548 N 0.16397 0.38151 0.17007 0.0
H549 H 0.10753 0.36963 0.14834 0.0
H550 H 0.21775 0.39052 0.1988 0.0
H551 H 0.16366 0.328 0.11402 0.0
H552 H 0.13889 0.42532 0.04398 0.0
O553 O 0.11911 0.44222 0.13245 0.0
O554 O 0.16777 0.46478 0.09627 0.0
O555 O 0.22749 0.40989 0.12273 0.0
C556 C 0.13206 0.46837 0.10829 0.0
H557 H 0.23545 0.52946 0.20956 0.0
H558 H 0.13899 0.30332 0.04624 0.0
H559 H 0.19469 0.36497 0.26132 0.0
H560 H 0.08438 0.33984 0.20744 0.0
Co561 Co 0.16657 0.57247 0.3631 0.0
C562 C 0.16691 0.53058 0.28569 0.0
C563 C 0.21038 0.50999 0.32553 0.0
C564 C 0.21321 0.48887 0.29166 0.0
N565 N 0.1816 0.53633 0.3219 0.0
N566 N 0.18568 0.5015 0.26696 0.0
H567 H 0.14413 0.54802 0.27281 0.0
H568 H 0.22874 0.50703 0.35088 0.0
C569 C 0.24226 0.59707 0.39588 0.0
O570 O 0.22907 0.59037 0.43117 0.0
N571 N 0.15202 0.60768 0.40476 0.0
C572 C 0.16094 0.64573 0.40781 0.0
C573 C 0.14846 0.65904 0.44358 0.0
C574 C 0.13407 0.59852 0.43851 0.0
N575 N 0.13182 0.6291 0.46267 0.0
C576 C 0.11944 0.62723 0.32452 0.0
C577 C 0.16801 0.63476 0.26075 0.0
C578 C 0.12854 0.64374 0.25728 0.0
C579 C 0.10523 0.64408 0.29068 0.0
C580 C 0.18146 0.61929 0.2957 0.0
N581 N 0.15601 0.6123 0.32535 0.0
H582 H 0.09974 0.62211 0.34852 0.0
H583 H 0.2106 0.60773 0.29674 0.0
H584 H 0.17669 0.66228 0.38615 0.0
H585 H 0.12428 0.56975 0.44636 0.0
O586 O 0.11632 0.54924 0.36456 0.0
O587 O 0.16745 0.5293 0.39882 0.0
O588 O 0.2213 0.59019 0.36624 0.0
C589 C 0.13151 0.52385 0.38808 0.0
H590 H 0.23509 0.46735 0.28479 0.0
H591 H 0.15249 0.688 0.45513 0.0
H592 H 0.18687 0.63461 0.23548 0.0
H593 H 0.07464 0.65126 0.28921 0.0
Co594 Co 0.8156 0.57696 0.87994 0.0
C595 C 0.77456 0.57784 0.95798 0.0
C596 C 0.75164 0.53528 0.91868 0.0
C597 C 0.73077 0.53365 0.95294 0.0
N598 N 0.77935 0.56273 0.92174 0.0
N599 N 0.74483 0.5607 0.97732 0.0
H600 H 0.79302 0.59996 0.97042 0.0
H601 H 0.74745 0.51704 0.89344 0.0
C602 C 0.8604 0.50319 0.86839 0.0
O603 O 0.89322 0.52184 0.87281 0.0
N604 N 0.85071 0.5914 0.83726 0.0
C605 C 0.8898 0.59554 0.83771 0.0
C606 C 0.90254 0.60611 0.80132 0.0
C607 C 0.84048 0.6 0.80013 0.0
N608 N 0.87147 0.60905 0.77788 0.0
C609 C 0.87017 0.62123 0.92089 0.0
C610 C 0.87589 0.57038 0.98303 0.0
C611 C 0.88568 0.60956 0.98777 0.0
C612 C 0.88676 0.63394 0.9552 0.0
C613 C 0.86139 0.55814 0.94722 0.0
N614 N 0.85586 0.58449 0.91796 0.0
H615 H 0.86517 0.64217 0.89792 0.0
H616 H 0.84919 0.52932 0.94514 0.0
H617 H 0.90853 0.59112 0.86247 0.0
H618 H 0.81111 0.59924 0.78917 0.0
O619 O 0.79455 0.62854 0.88038 0.0
O620 O 0.77228 0.57913 0.84534 0.0
O621 O 0.82802 0.52067 0.87229 0.0
C622 C 0.76816 0.61485 0.8571 0.0
H623 H 0.70843 0.51281 0.96027 0.0
H624 H 0.93237 0.61124 0.79278 0.0
H625 H 0.87475 0.55081 0.00776 0.0
H626 H 0.89427 0.66439 0.95764 0.0
Co627 Co 0.81689 0.92781 0.35947 0.0
C628 C 0.81646 0.97997 0.28764 0.0
C629 C 0.76021 0.97346 0.31378 0.0
C630 C 0.75699 -0.00134 0.28281 0.0
N631 N 0.79736 0.96129 0.31703 0.0
N632 N 0.79205 0.00237 0.26604 0.0
H633 H 0.84753 0.97869 0.28332 0.0
H634 H 0.737 0.96618 0.33363 0.0
C635 C 0.74421 0.87856 0.37106 0.0
O636 O 0.76144 0.84661 0.35956 0.0
N637 N 0.83536 0.89445 0.40226 0.0
C638 C 0.83496 0.85509 0.403 0.0
C639 C 0.8496 0.84191 0.43757 0.0
C640 C 0.85054 0.90449 0.43723 0.0
N641 N 0.8594 0.87284 0.45911 0.0
C642 C 0.86438 0.87318 0.32257 0.0
C643 C 0.81815 0.86412 0.25781 0.0
C644 C 0.8576 0.85406 0.25627 0.0
C645 C 0.87963 0.85495 0.29019 0.0
C646 C 0.80328 0.88048 0.29181 0.0
N647 N 0.82724 0.88705 0.32263 0.0
H648 H 0.88387 0.87976 0.34626 0.0
H649 H 0.77409 0.89202 0.29171 0.0
H650 H 0.82608 0.83636 0.37962 0.0
H651 H 0.85447 0.93412 0.44686 0.0
O652 O 0.86666 0.95218 0.35568 0.0
O653 O 0.8178 0.9733 0.39226 0.0
O654 O 0.76211 0.91101 0.37099 0.0
C655 C 0.85269 0.97879 0.37845 0.0
H656 H 0.73135 0.01488 0.27455 0.0
H657 H 0.8528 0.81178 0.44621 0.0
H658 H 0.80041 0.8638 0.2318 0.0
H659 H 0.91028 0.84785 0.28997 0.0
Co660 Co 0.67725 0.41803 0.37552 0.0
C661 C 0.71854 0.41463 0.45303 0.0
C662 C 0.74071 0.45927 0.41534 0.0
C663 C 0.76178 0.45946 0.44947 0.0
N664 N 0.71333 0.43141 0.41751 0.0
N665 N 0.74826 0.43106 0.47283 0.0
H666 H 0.70032 0.39181 0.4647 0.0
H667 H 0.74456 0.47871 0.39085 0.0
C668 C 0.63009 0.49092 0.36711 0.0
O669 O 0.59811 0.47148 0.37381 0.0
N670 N 0.64221 0.404 0.33284 0.0
C671 C 0.60314 0.39981 0.33375 0.0
C672 C 0.59035 0.38743 0.29815 0.0
C673 C 0.65237 0.39366 0.29614 0.0
N674 N 0.62133 0.38335 0.27469 0.0
C675 C 0.62354 0.37081 0.41514 0.0
C676 C 0.61432 0.41971 0.47814 0.0
C677 C 0.60418 0.38043 0.4814 0.0
C678 C 0.60534 0.35693 0.44833 0.0
C679 C 0.63078 0.43306 0.44352 0.0
N680 N 0.63741 0.40785 0.41363 0.0
H681 H 0.62956 0.35071 0.39177 0.0
H682 H 0.64286 0.46201 0.4427 0.0
H683 H 0.58454 0.40439 0.35859 0.0
H684 H 0.68173 0.39363 0.28501 0.0
O685 O 0.69946 0.36716 0.37404 0.0
O686 O 0.72047 0.41835 0.34032 0.0
O687 O 0.66313 0.47431 0.36935 0.0
C688 C 0.72506 0.38217 0.35052 0.0
H689 H 0.78385 0.48027 0.45752 0.0
H690 H 0.56053 0.38144 0.29026 0.0
H691 H 0.61404 0.43853 0.50337 0.0
H692 H 0.59801 0.32636 0.44974 0.0
Co693 Co 0.30757 0.57709 0.62701 0.0
C694 C 0.33463 0.61088 0.54986 0.0
C695 C 0.29952 0.55936 0.54619 0.0
C696 C 0.31601 0.56559 0.51072 0.0
N697 N 0.31198 0.58665 0.57137 0.0
N698 N 0.33819 0.59765 0.5128 0.0
H699 H 0.35139 0.63458 0.56182 0.0
H700 H 0.28289 0.53391 0.55399 0.0
C701 C 0.36644 0.52127 0.59465 0.0
O702 O 0.38296 0.54834 0.5734 0.0
N703 N 0.30283 0.56493 0.68265 0.0
C704 C 0.29574 0.59033 0.71163 0.0
C705 C 0.295 0.57063 0.74665 0.0
C706 C 0.3059 0.52979 0.7007 0.0
N707 N 0.30209 0.53274 0.73993 0.0
C708 C 0.34314 0.64633 0.65248 0.0
C709 C 0.4076 0.6091 0.68138 0.0
C710 C 0.39212 0.64028 0.70188 0.0
C711 C 0.36143 0.66119 0.68564 0.0
C712 C 0.38632 0.59325 0.65121 0.0
N713 N 0.35207 0.60975 0.63965 0.0
H714 H 0.31743 0.66097 0.64223 0.0
H715 H 0.39519 0.56484 0.64271 0.0
H716 H 0.28992 0.62092 0.70762 0.0
H717 H 0.30902 0.50249 0.68546 0.0
O718 O 0.26676 0.61605 0.62996 0.0
O719 O 0.25757 0.55357 0.61794 0.0
O720 O 0.33978 0.52922 0.61946 0.0
C721 C 0.24301 0.58832 0.6208 0.0
H722 H 0.31271 0.5472 0.48538 0.0
H723 H 0.28747 0.58276 0.77471 0.0
H724 H 0.43194 0.59279 0.69279 0.0
H725 H 0.34909 0.68597 0.70059 0.0
Co726 Co 0.82172 0.41281 0.61292 0.0
C727 C 0.78304 0.4124 0.53322 0.0
C728 C 0.75867 0.45389 0.57294 0.0
C729 C 0.73876 0.45635 0.53828 0.0
N730 N 0.78664 0.42658 0.57 0.0
N731 N 0.75377 0.43008 0.51357 0.0
H732 H 0.80191 0.3906 0.52069 0.0
H733 H 0.75366 0.47157 0.59845 0.0
C734 C 0.86565 0.48804 0.62449 0.0
O735 O 0.8991 0.46997 0.62267 0.0
N736 N 0.85562 0.39923 0.65672 0.0
C737 C 0.89475 0.39548 0.65727 0.0
C738 C 0.90654 0.38483 0.69399 0.0
C739 C 0.84439 0.39033 0.69348 0.0
N740 N 0.87479 0.38144 0.71653 0.0
C741 C 0.87589 0.36496 0.5752 0.0
C742 C 0.88658 0.41315 0.51186 0.0
C743 C 0.89405 0.37315 0.50845 0.0
C744 C 0.89248 0.34986 0.54167 0.0
C745 C 0.87107 0.42745 0.54658 0.0
N746 N 0.86302 0.40249 0.57635 0.0
H747 H 0.86946 0.34524 0.59888 0.0
H748 H 0.86033 0.45696 0.54733 0.0
H749 H 0.91401 0.4 0.63287 0.0
H750 H 0.81469 0.3907 0.70363 0.0
O751 O 0.79991 0.36151 0.61384 0.0
O752 O 0.77745 0.41232 0.64671 0.0
O753 O 0.83407 0.46963 0.61904 0.0
C754 C 0.77338 0.37616 0.63641 0.0
H755 H 0.71639 0.47721 0.53096 0.0
H756 H 0.93615 0.37989 0.70333 0.0
H757 H 0.88762 0.432 0.48657 0.0
H758 H 0.89801 0.3189 0.54019 0.0
Co759 Co 0.16884 0.07221 0.61639 0.0
C760 C 0.20867 0.0756 0.53773 0.0
C761 C 0.23483 0.03466 0.57702 0.0
C762 C 0.25537 0.03429 0.54254 0.0
N763 N 0.20542 0.06041 0.57419 0.0
N764 N 0.23926 0.06033 0.51817 0.0
H765 H 0.18865 0.09645 0.52536 0.0
H766 H 0.24045 0.01667 0.60226 0.0
C767 C 0.14743 0.99427 0.64691 0.0
O768 O 0.15084 0.00713 0.68272 0.0
N769 N 0.13296 0.08407 0.65842 0.0
C770 C 0.09478 0.07544 0.66019 0.0
C771 C 0.07985 0.08937 0.69475 0.0
C772 C 0.14068 0.10293 0.69193 0.0
N773 N 0.10894 0.10648 0.71449 0.0
C774 C 0.11283 0.11909 0.57917 0.0
C775 C 0.10259 0.0702 0.51625 0.0
C776 C 0.09239 0.10949 0.5132 0.0
C777 C 0.09355 0.13284 0.54648 0.0
C778 C 0.12066 0.05721 0.55008 0.0
N779 N 0.12859 0.08281 0.57924 0.0
H780 H 0.1186 0.13882 0.6029 0.0
H781 H 0.13293 0.02832 0.55045 0.0
H782 H 0.07897 0.05974 0.63808 0.0
H783 H 0.169 0.11329 0.70038 0.0
O784 O 0.19063 0.12317 0.61984 0.0
O785 O 0.21158 0.071 0.65209 0.0
O786 O 0.15381 0.01657 0.61797 0.0
C787 C 0.21632 0.10745 0.64273 0.0
H788 H 0.27901 0.01494 0.53509 0.0
H789 H 0.05026 0.08629 0.70496 0.0
H790 H 0.10173 0.05132 0.49108 0.0
H791 H 0.08557 0.16328 0.54536 0.0
Co792 Co 0.62231 0.66634 0.92917 0.0
C793 C 0.69897 0.6638 0.97166 0.0
C794 C 0.65963 0.70603 0.99532 0.0
C795 C 0.69378 0.70728 0.01621 0.0
N796 N 0.66283 0.67904 0.96711 0.0
N797 N 0.7182 0.68044 0.00165 0.0
H798 H 0.71158 0.6422 0.95262 0.0
H799 H 0.63455 0.72446 -0.0004 0.0
C800 C 0.61493 0.74043 0.88364 0.0
O801 O 0.62088 0.72153 0.85111 0.0
N802 N 0.58128 0.65317 0.89189 0.0
C803 C 0.58475 0.64898 0.85285 0.0
C804 C 0.54986 0.63854 0.83743 0.0
C805 C 0.54348 0.64484 0.8994 0.0
N806 N 0.52391 0.63584 0.86657 0.0
C807 C 0.66461 0.62089 0.87611 0.0
C808 C 0.72576 0.67204 0.86741 0.0
C809 C 0.72999 0.6332 0.85607 0.0
C810 C 0.69779 0.60861 0.85711 0.0
C811 C 0.69095 0.68391 0.88438 0.0
N812 N 0.66186 0.65767 0.89043 0.0
H813 H 0.64186 0.6 0.88162 0.0
H814 H 0.68934 0.71255 0.89709 0.0
H815 H 0.61066 0.65325 0.83575 0.0
H816 H 0.53033 0.64565 0.92799 0.0
O817 O 0.62031 0.6148 0.95005 0.0
O818 O 0.5856 0.66498 0.97124 0.0
O819 O 0.61664 0.723 0.91641 0.0
C820 C 0.59608 0.62884 0.97548 0.0
H821 H 0.70108 0.72789 0.03879 0.0
H822 H 0.54398 0.63356 0.80688 0.0
H823 H 0.75034 0.69161 0.86742 0.0
H824 H 0.69993 0.57831 0.84889 0.0
Co825 Co 0.92164 0.11766 0.30103 0.0
C826 C 0.92542 0.03916 0.26305 0.0
C827 C 0.97895 0.07088 0.25783 0.0
C828 C 0.98351 0.03521 0.24026 0.0
N829 N 0.94275 0.07335 0.27248 0.0
N830 N 0.9498 0.01559 0.24309 0.0
H831 H 0.89646 0.03109 0.27213 0.0
H832 H 0.00084 0.09318 0.26046 0.0
C833 C 0.98574 0.1275 0.36183 0.0
O834 O 0.96212 0.12561 0.39185 0.0
N835 N 0.89954 0.16229 0.32872 0.0
C836 C 0.86175 0.17287 0.32763 0.0
C837 C 0.85588 0.20415 0.3514 0.0
C838 C 0.91654 0.18941 0.35171 0.0
N839 N 0.89025 0.21458 0.36661 0.0
C840 C 0.86328 0.08014 0.34705 0.0
C841 C 0.91067 0.02089 0.3732 0.0
C842 C 0.8704 0.01743 0.37723 0.0
C843 C 0.84685 0.04865 0.36643 0.0
C844 C 0.92614 0.05377 0.35508 0.0
N845 N 0.90231 0.08207 0.34056 0.0
H846 H 0.84382 0.10039 0.33358 0.0
H847 H 0.95683 0.05414 0.34867 0.0
H848 H 0.83953 0.15947 0.31009 0.0
H849 H 0.94736 0.19188 0.35649 0.0
O850 O 0.87839 0.11767 0.2658 0.0
O851 O 0.93313 0.15043 0.25689 0.0
O852 O 0.97303 0.12415 0.32716 0.0
C853 C 0.89944 0.14017 0.24365 0.0
H854 H 0.01001 0.02382 0.22775 0.0
H855 H 0.82852 0.21895 0.356 0.0
H856 H 0.92962 -0.00325 0.38027 0.0
H857 H 0.8155 0.04638 0.36765 0.0
Co858 Co 0.36468 0.82104 0.92016 0.0
C859 C 0.28654 0.82229 0.96062 0.0
C860 C 0.32394 0.77647 0.98072 0.0
C861 C 0.28967 0.77479 0.00141 0.0
N862 N 0.32209 0.80601 0.95493 0.0
N863 N 0.26649 0.80385 0.98919 0.0
H864 H 0.2751 0.84612 0.94352 0.0
H865 H 0.34837 0.75695 0.98371 0.0
C866 C 0.39625 0.74606 0.88971 0.0
O867 O 0.43158 0.75668 0.89922 0.0
N868 N 0.40732 0.83594 0.88619 0.0
C869 C 0.40958 0.83042 0.84733 0.0
C870 C 0.44492 0.84384 0.83424 0.0
C871 C 0.44144 0.85242 0.89617 0.0
N872 N 0.46479 0.85744 0.86509 0.0
C873 C 0.32843 0.87115 0.86626 0.0
C874 C 0.2653 0.82325 0.85382 0.0
C875 C 0.26252 0.86304 0.84589 0.0
C876 C 0.29578 0.88617 0.84809 0.0
C877 C 0.29901 0.80909 0.8709 0.0
N878 N 0.32835 0.834 0.87994 0.0
H879 H 0.35217 0.89045 0.87313 0.0
H880 H 0.2991 0.77964 0.88182 0.0
H881 H 0.3874 0.81681 0.82982 0.0
H882 H 0.44978 0.85968 0.92557 0.0
O883 O 0.36653 0.87052 0.94508 0.0
O884 O 0.39912 0.81815 0.96448 0.0
O885 O 0.36716 0.76683 0.89944 0.0
C886 C 0.38909 0.8543 0.97058 0.0
H887 H 0.28151 0.75276 0.02241 0.0
H888 H 0.45559 0.84264 0.80458 0.0
H889 H 0.24005 0.80461 0.85213 0.0
H890 H 0.29473 0.91704 0.84191 0.0
Co891 Co 0.07791 0.37929 0.32288 0.0
C892 C 0.07908 0.45674 0.28088 0.0
C893 C 0.03778 0.41653 0.25727 0.0
C894 C 0.0356 0.45069 0.23636 0.0
N895 N 0.06472 0.42025 0.28546 0.0
N896 N 0.06176 0.47566 0.25096 0.0
H897 H 0.10052 0.46972 0.29977 0.0
H898 H 0.02006 0.391 0.25296 0.0
C899 C 0.0019 0.37053 0.36546 0.0
O900 O 0.01816 0.38029 0.39851 0.0
N901 N 0.09073 0.33761 0.35947 0.0
C902 C 0.09097 0.33848 0.39891 0.0
C903 C 0.10048 0.30236 0.41305 0.0
C904 C 0.10029 0.30063 0.35043 0.0
N905 N 0.10634 0.2788 0.38247 0.0
C906 C 0.1219 0.41941 0.37826 0.0
C907 C 0.073 0.48274 0.38317 0.0
C908 C 0.11223 0.48644 0.39339 0.0
C909 C 0.13556 0.45335 0.39486 0.0
C910 C 0.06001 0.44763 0.36786 0.0
N911 N 0.08545 0.41768 0.36291 0.0
H912 H 0.14208 0.39575 0.37393 0.0
H913 H 0.03146 0.44647 0.35492 0.0
H914 H 0.0848 0.36341 0.41684 0.0
H915 H 0.10212 0.28939 0.32113 0.0
O916 O 0.13008 0.37896 0.30288 0.0
O917 O 0.08111 0.34387 0.28007 0.0
O918 O 0.02118 0.37146 0.33379 0.0
C919 C 0.11707 0.35503 0.27673 0.0
H920 H 0.01488 0.45756 0.2137 0.0
H921 H 0.10273 0.29405 0.4434 0.0
H922 H 0.05417 0.50793 0.38183 0.0
H923 H 0.16597 0.45508 0.40264 0.0
Co924 Co 0.62937 0.32315 0.56688 0.0
C925 C 0.70723 0.32302 0.52526 0.0
C926 C 0.66728 0.28059 0.50329 0.0
C927 C 0.70126 0.27806 0.48224 0.0
N928 N 0.67087 0.30849 0.53053 0.0
N929 N 0.72609 0.30497 0.49569 0.0
H930 H 0.72011 0.34518 0.54339 0.0
H931 H 0.64186 0.26259 0.49959 0.0
C932 C 0.61726 0.24994 0.61273 0.0
O933 O 0.62283 0.26879 0.64534 0.0
N934 N 0.5869 0.33767 0.60214 0.0
C935 C 0.58746 0.34183 0.64137 0.0
C936 C 0.55112 0.35164 0.65435 0.0
C937 C 0.54969 0.3454 0.59208 0.0
N938 N 0.52755 0.35399 0.62332 0.0
C939 C 0.66948 0.36818 0.62142 0.0
C940 C 0.73159 0.31801 0.6292 0.0
C941 C 0.73558 0.35722 0.63939 0.0
C942 C 0.70291 0.38123 0.63928 0.0
C943 C 0.69653 0.30536 0.61343 0.0
N944 N 0.66723 0.33132 0.60719 0.0
H945 H 0.64653 0.38886 0.61579 0.0
H946 H 0.69497 0.27648 0.60126 0.0
H947 H 0.61224 0.33782 0.66012 0.0
H948 H 0.53862 0.34435 0.56267 0.0
O949 O 0.62985 0.37461 0.54548 0.0
O950 O 0.5948 0.32526 0.52323 0.0
O951 O 0.62147 0.2669 0.57995 0.0
C952 C 0.60639 0.36107 0.51922 0.0
H953 H 0.70809 0.25669 0.4602 0.0
H954 H 0.5427 0.35668 0.68432 0.0
H955 H 0.75646 0.29873 0.62888 0.0
H956 H 0.70477 0.41169 0.6469 0.0
Co957 Co 0.57301 0.11258 0.67264 0.0
C958 C 0.57731 0.03593 0.71526 0.0
C959 C 0.53248 0.07338 0.73722 0.0
C960 C 0.53208 0.03928 0.75839 0.0
N961 N 0.56053 0.07129 0.7099 0.0
N962 N 0.5605 0.01609 0.74487 0.0
H963 H 0.60022 0.02434 0.69711 0.0
H964 H 0.5129 0.09769 0.74079 0.0
C965 C 0.49833 0.1209 0.62788 0.0
O966 O 0.51634 0.11619 0.5946 0.0
N967 N 0.58596 0.15452 0.63616 0.0
C968 C 0.58911 0.15319 0.59684 0.0
C969 C 0.60107 0.18867 0.58305 0.0
C970 C 0.59659 0.19116 0.64546 0.0
N971 N 0.60602 0.21226 0.61373 0.0
C972 C 0.61971 0.07279 0.61901 0.0
C973 C 0.57232 0.00834 0.61397 0.0
C974 C 0.61171 0.00543 0.60417 0.0
C975 C 0.63433 0.03902 0.60289 0.0
C976 C 0.55807 0.04363 0.62797 0.0
N977 N 0.58279 0.0741 0.63321 0.0
H978 H 0.63933 0.09677 0.62373 0.0
H979 H 0.52907 0.04457 0.63996 0.0
H980 H 0.58404 0.12811 0.57878 0.0
H981 H 0.59746 0.20252 0.67476 0.0
O982 O 0.62426 0.11503 0.69414 0.0
O983 O 0.57312 0.14838 0.7153 0.0
O984 O 0.51647 0.11766 0.66003 0.0
C985 C 0.60936 0.13859 0.71973 0.0
H986 H 0.51114 0.03112 0.78045 0.0
H987 H 0.60626 0.19634 0.55289 0.0
H988 H 0.55409 0.98275 0.61531 0.0
H989 H 0.66489 0.03796 0.59549 0.0
Co990 Co 0.35801 0.16397 0.57454 0.0
C991 C 0.27909 0.16291 0.53574 0.0
C992 C 0.31733 0.20628 0.51221 0.0
C993 C 0.28246 0.20838 0.49267 0.0
N994 N 0.31534 0.17804 0.53945 0.0
N995 N 0.25874 0.18092 0.50717 0.0
H996 H 0.2674 0.14026 0.55421 0.0
H997 H 0.34224 0.22479 0.50751 0.0
C998 C 0.36946 0.23817 0.61964 0.0
O999 O 0.36647 0.21994 0.65305 0.0
N1000 N 0.40127 0.14975 0.60873 0.0
C1001 C 0.40151 0.14609 0.64802 0.0
C1002 C 0.4377 0.13464 0.6601 0.0
C1003 C 0.43769 0.1399 0.59769 0.0
N1004 N 0.46021 0.13059 0.62839 0.0
C1005 C 0.31989 0.1169 0.62919 0.0
C1006 C 0.25742 0.16615 0.63942 0.0
C1007 C 0.25378 0.12645 0.64789 0.0
C1008 C 0.28669 0.10281 0.64693 0.0
C1009 C 0.29208 0.17967 0.62343 0.0
N1010 N 0.32135 0.15414 0.61566 0.0
H1011 H 0.34308 0.09675 0.6227 0.0
H1012 H 0.29311 0.20894 0.61203 0.0
H1013 H 0.37722 0.15099 0.66725 0.0
H1014 H 0.44799 0.13993 0.56795 0.0
O1015 O 0.35881 0.11292 0.55203 0.0
O1016 O 0.39194 0.16407 0.53048 0.0
O1017 O 0.36447 0.22026 0.58763 0.0
C1018 C 0.38165 0.12801 0.52583 0.0
H1019 H 0.27437 0.22966 0.47087 0.0
H1020 H 0.44671 0.12957 0.68989 0.0
H1021 H 0.23237 0.1852 0.63998 0.0
H1022 H 0.28506 0.07203 0.65342 0.0
Co1023 Co 0.41675 0.37767 0.67099 0.0
C1024 C 0.42348 0.45681 0.71032 0.0
C1025 C 0.46464 0.41427 0.73039 0.0
C1026 C 0.47188 0.44866 0.74925 0.0
N1027 N 0.4347 0.41913 0.7056 0.0
N1028 N 0.44597 0.47523 0.73693 0.0
H1029 H 0.40098 0.47089 0.69344 0.0
H1030 H 0.48105 0.38765 0.73356 0.0
C1031 C 0.48917 0.36265 0.62392 0.0
O1032 O 0.47 0.36636 0.59118 0.0
N1033 N 0.39943 0.33513 0.63744 0.0
C1034 C 0.39455 0.33486 0.5983 0.0
C1035 C 0.38224 0.29879 0.5868 0.0
C1036 C 0.3897 0.29877 0.64895 0.0
N1037 N 0.37914 0.27631 0.61871 0.0
C1038 C 0.37107 0.418 0.61787 0.0
C1039 C 0.42289 0.47772 0.60438 0.0
C1040 C 0.38331 0.48275 0.59663 0.0
C1041 C 0.3579 0.45168 0.60065 0.0
C1042 C 0.43515 0.44289 0.62133 0.0
N1043 N 0.40861 0.41474 0.62993 0.0
H1044 H 0.35008 0.39578 0.62495 0.0
H1045 H 0.46456 0.44063 0.63199 0.0
H1046 H 0.39967 0.35891 0.57875 0.0
H1047 H 0.39098 0.2884 0.67866 0.0
O1048 O 0.36599 0.3811 0.69323 0.0
O1049 O 0.41397 0.34422 0.71584 0.0
O1050 O 0.47223 0.36735 0.65661 0.0
C1051 C 0.37851 0.35707 0.71949 0.0
H1052 H 0.4955 0.45434 0.76916 0.0
H1053 H 0.37631 0.28973 0.55723 0.0
H1054 H 0.44299 0.50177 0.60193 0.0
H1055 H 0.32717 0.45494 0.59471 0.0
Co1056 Co 0.91779 0.62935 0.66571 0.0
C1057 C 0.96133 0.70649 0.66543 0.0
C1058 C 0.97942 0.66707 0.71049 0.0
C1059 C 0.00118 0.70045 0.71335 0.0
N1060 N 0.95408 0.67068 0.68079 0.0
N1061 N 0.9902 0.72494 0.68485 0.0
H1062 H 0.94519 0.71922 0.64159 0.0
H1063 H 0.98138 0.64198 0.72942 0.0
C1064 C 0.87186 0.61794 0.73938 0.0
O1065 O 0.83916 0.62163 0.72025 0.0
N1066 N 0.88324 0.5864 0.65096 0.0
C1067 C 0.84428 0.58606 0.64582 0.0
C1068 C 0.83269 0.54935 0.63502 0.0
C1069 C 0.89446 0.54947 0.64301 0.0
N1070 N 0.86438 0.52656 0.63313 0.0
C1071 C 0.86434 0.66985 0.61948 0.0
C1072 C 0.86263 0.73452 0.66688 0.0
C1073 C 0.85459 0.73831 0.62704 0.0
C1074 C 0.85145 0.70488 0.60432 0.0
C1075 C 0.87342 0.69816 0.68155 0.0
N1076 N 0.87771 0.66752 0.65677 0.0
H1077 H 0.86833 0.64583 0.59968 0.0
H1078 H 0.88444 0.69634 0.71095 0.0
H1079 H 0.82503 0.61052 0.6496 0.0
H1080 H 0.92397 0.53899 0.6448 0.0
O1081 O 0.93932 0.62969 0.61431 0.0
O1082 O 0.96116 0.59475 0.66432 0.0
O1083 O 0.90433 0.62199 0.72204 0.0
C1084 C 0.9651 0.60582 0.62819 0.0
H1085 H 0.02219 0.7071 0.73575 0.0
H1086 H 0.80324 0.54017 0.62909 0.0
H1087 H 0.86506 0.75988 0.68531 0.0
H1088 H 0.84514 0.70656 0.57346 0.0
Co1089 Co 0.88408 0.82376 0.56974 0.0
C1090 C 0.9608 0.78122 0.57359 0.0
C1091 C 0.92627 0.76367 0.52467 0.0
C1092 C 0.96053 0.74272 0.52439 0.0
N1093 N 0.92642 0.78815 0.55524 0.0
N1094 N 0.98187 0.7533 0.55543 0.0
H1095 H 0.97074 0.79708 0.59883 0.0
H1096 H 0.90315 0.76175 0.50352 0.0
C1097 C 0.87305 0.87145 0.49617 0.0
O1098 O 0.88175 0.90373 0.51428 0.0
N1099 N 0.84137 0.85835 0.58513 0.0
C1100 C 0.84096 0.89765 0.58721 0.0
C1101 C 0.80539 0.91 0.60042 0.0
C1102 C 0.80569 0.84761 0.59779 0.0
N1103 N 0.78348 0.87845 0.60732 0.0
C1104 C 0.92365 0.87826 0.61502 0.0
C1105 C 0.98788 0.87996 0.56668 0.0
C1106 C 0.99159 0.88874 0.60622 0.0
C1107 C 0.95834 0.89234 0.62927 0.0
C1108 C 0.95178 0.86837 0.5528 0.0
N1109 N 0.92153 0.86406 0.57814 0.0
H1110 H 0.89988 0.8741 0.63517 0.0
H1111 H 0.94999 0.85661 0.5237 0.0
H1112 H 0.86498 0.91667 0.58086 0.0
H1113 H 0.79569 0.81792 0.59974 0.0
O1114 O 0.88441 0.80114 0.6211 0.0
O1115 O 0.8498 0.77996 0.57086 0.0
O1116 O 0.87577 0.8385 0.51344 0.0
C1117 C 0.86079 0.77535 0.60687 0.0
H1118 H 0.96989 0.72252 0.50217 0.0
H1119 H 0.79655 0.93982 0.60517 0.0
H1120 H 0.0132 0.87717 0.54815 0.0
H1121 H 0.96014 0.89928 0.65997 0.0
Co1122 Co 0.07418 0.85755 0.66492 0.0
C1123 C 0.02888 0.7826 0.66647 0.0
C1124 C 0.0102 0.82282 0.7104 0.0
C1125 C 0.98724 0.79005 0.71254 0.0
N1126 N 0.03667 0.81812 0.68187 0.0
N1127 N -0.00143 0.76513 0.68458 0.0
H1128 H 0.04583 0.76928 0.64357 0.0
H1129 H 0.00814 0.84816 0.72884 0.0
C1130 C 0.12051 0.87213 0.73689 0.0
O1131 O 0.15283 0.86838 0.71687 0.0
N1132 N 0.10926 0.89828 0.64636 0.0
C1133 C 0.11606 0.90595 0.60823 0.0
C1134 C 0.13298 0.94149 0.60432 0.0
C1135 C 0.12085 0.93099 0.66495 0.0
N1136 N 0.13579 0.95737 0.63985 0.0
C1137 C 0.13543 0.81465 0.62722 0.0
C1138 C 0.13025 0.75215 0.67736 0.0
C1139 C 0.14584 0.74708 0.64002 0.0
C1140 C 0.15301 0.77989 0.61719 0.0
C1141 C 0.11546 0.78855 0.68758 0.0
N1142 N 0.11417 0.81779 0.66058 0.0
H1143 H 0.1356 0.83685 0.6056 0.0
H1144 H 0.09995 0.79134 0.71482 0.0
H1145 H 0.10652 0.88853 0.58395 0.0
H1146 H 0.11514 0.9371 0.69528 0.0
O1147 O 0.05173 0.85452 0.61388 0.0
O1148 O 0.03293 0.89423 0.66149 0.0
O1149 O 0.08773 0.86771 0.72044 0.0
C1150 C 0.02802 0.88138 0.62631 0.0
H1151 H 0.96518 0.78408 0.73419 0.0
H1152 H 0.14041 0.9556 0.57707 0.0
H1153 H 0.12497 0.7275 0.6963 0.0
H1154 H 0.16586 0.77751 0.58847 0.0
Co1155 Co 0.1137 0.66764 0.57835 0.0
C1156 C 0.03872 0.71494 0.5776 0.0
C1157 C 0.08257 0.73756 0.53938 0.0
C1158 C 0.04951 0.75989 0.53538 0.0
N1159 N 0.07598 0.70897 0.5655 0.0
N1160 N 0.02211 0.74594 0.55959 0.0
H1161 H 0.02342 0.69611 0.59766 0.0
H1162 H 0.10918 0.7409 0.52299 0.0
C1163 C 0.11877 0.62832 0.49996 0.0
O1164 O 0.10468 0.59599 0.51439 0.0
N1165 N 0.15169 0.62668 0.591 0.0
C1166 C 0.14686 0.58776 0.58751 0.0
C1167 C 0.17977 0.56883 0.59935 0.0
C1168 C 0.18816 0.63048 0.60536 0.0
N1169 N 0.20567 0.59561 0.61056 0.0
C1170 C 0.06932 0.6133 0.61922 0.0
C1171 C 0.00627 0.61452 0.56978 0.0
C1172 C 0.00213 0.6012 0.60818 0.0
C1173 C 0.03499 0.59659 0.63138 0.0
C1174 C 0.04204 0.62922 0.55788 0.0
N1175 N 0.072 0.63091 0.58373 0.0
H1176 H 0.09289 0.61523 0.63983 0.0
H1177 H 0.04405 0.64393 0.53009 0.0
H1178 H 0.12096 0.5732 0.57787 0.0
H1179 H 0.20212 0.65801 0.61101 0.0
O1180 O 0.11437 0.68572 0.63132 0.0
O1181 O 0.15278 0.70665 0.58373 0.0
O1182 O 0.12193 0.6585 0.52108 0.0
C1183 C 0.14072 0.71013 0.61952 0.0
H1184 H 0.04503 0.78303 0.51446 0.0
H1185 H 0.18445 0.5377 0.59929 0.0
H1186 H 0.98125 0.61833 0.55108 0.0
H1187 H 0.03301 0.5862 0.66112 0.0
Co1188 Co 0.91709 0.36282 0.83066 0.0
C1189 C 0.95759 0.28428 0.83375 0.0
C1190 C 0.98142 0.32306 0.79091 0.0
C1191 C 0.00173 0.28856 0.78954 0.0
N1192 N 0.95346 0.32054 0.81832 0.0
N1193 N 0.98705 0.26444 0.81668 0.0
H1194 H 0.93889 0.2722 0.85599 0.0
H1195 H 0.98603 0.34805 0.77233 0.0
C1196 C 0.87386 0.37238 0.755 0.0
O1197 O 0.84047 0.36845 0.77286 0.0
N1198 N 0.88179 0.40572 0.84286 0.0
C1199 C 0.84257 0.40537 0.84583 0.0
C1200 C 0.82961 0.44171 0.85574 0.0
C1201 C 0.89187 0.4427 0.85134 0.0
N1202 N 0.86069 0.46494 0.85935 0.0
C1203 C 0.86264 0.32449 0.87709 0.0
C1204 C 0.85815 0.25986 0.83002 0.0
C1205 C 0.85036 0.25684 0.87 0.0
C1206 C 0.84821 0.29031 0.89254 0.0
C1207 C 0.87097 0.29529 0.81518 0.0
N1208 N 0.87651 0.3257 0.83986 0.0
H1209 H 0.86719 0.34866 0.89656 0.0
H1210 H 0.88248 0.29625 0.78591 0.0
H1211 H 0.82398 0.38057 0.84146 0.0
H1212 H 0.9213 0.45352 0.85148 0.0
O1213 O 0.93731 0.36419 0.8827 0.0
O1214 O 0.96055 0.39736 0.83222 0.0
O1215 O 0.90567 0.3686 0.77357 0.0
C1216 C 0.96375 0.38722 0.86868 0.0
H1217 H 0.02409 0.28088 0.76878 0.0
H1218 H 0.79969 0.45033 0.86016 0.0
H1219 H 0.85971 0.23421 0.81187 0.0
H1220 H 0.84206 0.28892 0.92347 0.0
Co1221 Co 0.60816 0.8192 0.42166 0.0
C1222 C 0.53118 0.77498 0.42733 0.0
C1223 C 0.57397 0.75762 0.46939 0.0
C1224 C 0.54075 0.73648 0.476 0.0
N1225 N 0.56822 0.78221 0.43928 0.0
N1226 N 0.51405 0.74703 0.44949 0.0
H1227 H 0.5166 0.79088 0.40438 0.0
H1228 H 0.6004 0.75597 0.48625 0.0
C1229 C 0.62027 0.8642 0.4957 0.0
O1230 O 0.60983 0.8968 0.47893 0.0
N1231 N 0.64939 0.85505 0.40487 0.0
C1232 C 0.64934 0.89441 0.40543 0.0
C1233 C 0.68462 0.90803 0.39295 0.0
C1234 C 0.68513 0.84561 0.39124 0.0
N1235 N 0.70694 0.87733 0.38386 0.0
C1236 C 0.56765 0.87506 0.37855 0.0
C1237 C 0.50441 0.87916 0.42776 0.0
C1238 C 0.50095 0.89092 0.38876 0.0
C1239 C 0.53414 0.89287 0.36555 0.0
C1240 C 0.53962 0.86361 0.44055 0.0
N1241 N 0.56947 0.85904 0.41485 0.0
H1242 H 0.5909 0.87059 0.3579 0.0
H1243 H 0.54109 0.85048 0.46915 0.0
H1244 H 0.62527 0.91276 0.4134 0.0
H1245 H 0.69561 0.81623 0.38753 0.0
O1246 O 0.60533 0.79803 0.37028 0.0
O1247 O 0.64344 0.77636 0.41795 0.0
O1248 O 0.61879 0.83213 0.47741 0.0
C1249 C 0.6304 0.77255 0.38255 0.0
H1250 H 0.53592 0.71603 0.49951 0.0
H1251 H 0.69302 0.93824 0.39034 0.0
H1252 H 0.47919 0.87741 0.44653 0.0
H1253 H 0.53275 0.90187 0.33532 0.0
Co1254 Co 0.06635 0.12799 0.82756 0.0
C1255 C 0.02305 0.20439 0.83241 0.0
C1256 C -0.00072 0.16579 0.78967 0.0
C1257 C 0.97791 0.19975 0.78956 0.0
N1258 N 0.02794 0.16868 0.81618 0.0
N1259 N 0.99259 0.22375 0.81667 0.0
H1260 H 0.04218 0.21664 0.85409 0.0
H1261 H 0.99495 0.14107 0.7708 0.0
C1262 C 0.10786 0.1212 0.75108 0.0
O1263 O 0.13998 0.13358 0.76722 0.0
N1264 N 0.10387 0.08672 0.83918 0.0
C1265 C 0.14317 0.08818 0.83849 0.0
C1266 C 0.15803 0.05271 0.84921 0.0
C1267 C 0.0957 0.04992 0.85038 0.0
N1268 N 0.12809 0.02888 0.85676 0.0
C1269 C 0.12252 0.16832 0.87016 0.0
C1270 C 0.12282 0.23331 0.82284 0.0
C1271 C 0.13507 0.23603 0.86163 0.0
C1272 C 0.13888 0.20228 0.88388 0.0
C1273 C 0.10832 0.19801 0.80947 0.0
N1274 N 0.10562 0.16713 0.83432 0.0
H1275 H 0.11965 0.14411 0.89005 0.0
H1276 H 0.09415 0.19719 0.78142 0.0
H1277 H 0.16057 0.11325 0.83148 0.0
H1278 H 0.06674 0.03831 0.85356 0.0
O1279 O 0.04787 0.12661 0.88038 0.0
O1280 O 0.02465 0.09166 0.83131 0.0
O1281 O 0.07619 0.12073 0.77029 0.0
C1282 C 0.02208 0.10217 0.86763 0.0
H1283 H 0.95494 0.20729 0.76944 0.0
H1284 H 0.18845 0.04506 0.85134 0.0
H1285 H 0.11961 0.25904 0.80489 0.0
H1286 H 0.14828 0.20326 0.91396 0.0
Co1287 Co 0.37873 0.66946 0.4242 0.0
C1288 C 0.45369 0.71366 0.42912 0.0
C1289 C 0.419 0.72021 0.48081 0.0
C1290 C 0.45266 0.74154 0.48504 0.0
N1291 N 0.41976 0.70224 0.44604 0.0
N1292 N 0.47406 0.73795 0.45234 0.0
H1293 H 0.46396 0.70308 0.4013 0.0
H1294 H 0.39592 0.71737 0.502 0.0
C1295 C 0.36035 0.61063 0.48275 0.0
O1296 O 0.36758 0.58656 0.45397 0.0
N1297 N 0.33628 0.63959 0.40042 0.0
C1298 C 0.32912 0.63746 0.36168 0.0
C1299 C 0.29416 0.61997 0.35543 0.0
C1300 C 0.30327 0.6258 0.41705 0.0
N1301 N 0.278 0.61249 0.39024 0.0
C1302 C 0.41834 0.61054 0.37942 0.0
C1303 C 0.48231 0.60911 0.42752 0.0
C1304 C 0.48563 0.5969 0.38883 0.0
C1305 C 0.45207 0.5929 0.36661 0.0
C1306 C 0.44683 0.62395 0.44033 0.0
N1307 N 0.41697 0.62882 0.41458 0.0
H1308 H 0.39545 0.6126 0.35881 0.0
H1309 H 0.44515 0.63632 0.46918 0.0
H1310 H 0.34719 0.64938 0.33886 0.0
H1311 H 0.2964 0.62787 0.44767 0.0
O1312 O 0.38451 0.69709 0.37641 0.0
O1313 O 0.34443 0.71337 0.42481 0.0
O1314 O 0.36607 0.64697 0.47756 0.0
C1315 C 0.3581 0.72041 0.39007 0.0
H1316 H 0.46155 0.75723 0.51078 0.0
H1317 H 0.28091 0.61467 0.32736 0.0
H1318 H 0.50764 0.61161 0.44599 0.0
H1319 H 0.45317 0.58259 0.33683 0.0
Co1320 Co 0.67097 0.92168 0.63145 0.0
C1321 C 0.66901 0.96474 0.70778 0.0
C1322 C 0.71326 0.98553 0.66885 0.0
C1323 C 0.71431 0.0074 0.70239 0.0
N1324 N 0.68518 0.95851 0.67224 0.0
N1325 N 0.68618 0.99471 0.72647 0.0
H1326 H 0.64623 0.94702 0.72025 0.0
H1327 H 0.73223 0.9886 0.64393 0.0
C1328 C 0.74616 0.87799 0.61996 0.0
O1329 O 0.72935 0.84482 0.62809 0.0
N1330 N 0.6564 0.88593 0.58972 0.0
C1331 C 0.65608 0.84656 0.58984 0.0
C1332 C 0.64268 0.8334 0.55466 0.0
C1333 C 0.64248 0.89586 0.55426 0.0
N1334 N 0.63389 0.86449 0.53263 0.0
C1335 C 0.62783 0.8656 0.67194 0.0
C1336 C 0.67624 0.86272 0.73589 0.0
C1337 C 0.63737 0.85116 0.73942 0.0
C1338 C 0.61451 0.84868 0.70598 0.0
C1339 C 0.68932 0.87736 0.70026 0.0
N1340 N 0.66397 0.88153 0.67004 0.0
H1341 H 0.60751 0.86968 0.64833 0.0
H1342 H 0.71775 0.89054 0.69877 0.0
H1343 H 0.66364 0.82802 0.61402 0.0
H1344 H 0.63892 0.92533 0.54394 0.0
O1345 O 0.61912 0.94225 0.6324 0.0
O1346 O 0.66779 0.9648 0.59624 0.0
O1347 O 0.7275 0.9099 0.62273 0.0
C1348 C 0.63208 0.96839 0.60824 0.0
H1349 H 0.73541 0.02951 0.70952 0.0
H1350 H 0.63897 0.80333 0.54623 0.0
H1351 H 0.69471 0.86494 0.76128 0.0
H1352 H 0.58437 0.83986 0.70741 0.0
Co1353 Co 0.66657 0.07248 0.86309 0.0
C1354 C 0.6669 0.0306 0.78566 0.0
C1355 C 0.71037 0.01 0.8255 0.0
C1356 C 0.7132 0.98888 0.79163 0.0
N1357 N 0.6816 0.03635 0.82187 0.0
N1358 N 0.68567 0.00152 0.76693 0.0
H1359 H 0.64412 0.04805 0.77279 0.0
H1360 H 0.72873 0.00703 0.85085 0.0
C1361 C 0.74227 0.09705 0.89587 0.0
O1362 O 0.72907 0.09035 0.93116 0.0
N1363 N 0.65203 0.10769 0.90475 0.0
C1364 C 0.66096 0.14574 0.9078 0.0
C1365 C 0.6485 0.15904 0.94358 0.0
C1366 C 0.6341 0.09852 0.9385 0.0
N1367 N 0.63187 0.12909 0.96268 0.0
C1368 C 0.61946 0.12726 0.82451 0.0
C1369 C 0.66803 0.13475 0.76073 0.0
C1370 C 0.62856 0.14374 0.75726 0.0
C1371 C 0.60525 0.1441 0.79067 0.0
C1372 C 0.68148 0.1193 0.79569 0.0
N1373 N 0.65603 0.11232 0.82534 0.0
H1374 H 0.59977 0.12215 0.84852 0.0
H1375 H 0.71062 0.10774 0.79673 0.0
H1376 H 0.6767 0.16229 0.88614 0.0
H1377 H 0.6243 0.06976 0.94634 0.0
O1378 O 0.61631 0.04927 0.86453 0.0
O1379 O 0.66744 0.0293 0.89879 0.0
O1380 O 0.72131 0.09018 0.86623 0.0
C1381 C 0.6315 0.02387 0.88804 0.0
H1382 H 0.73507 0.96737 0.78475 0.0
H1383 H 0.65252 0.188 0.95513 0.0
H1384 H 0.68689 0.1346 0.73546 0.0
H1385 H 0.57467 0.15129 0.7892 0.0
Co1386 Co 0.31566 0.07698 0.37998 0.0
C1387 C 0.27471 0.07785 0.45806 0.0
C1388 C 0.25173 0.03529 0.41878 0.0
C1389 C 0.23093 0.03362 0.45309 0.0
N1390 N 0.27943 0.06275 0.4218 0.0
N1391 N 0.24507 0.06063 0.47746 0.0
H1392 H 0.29316 0.09999 0.47047 0.0
H1393 H 0.2475 0.01707 0.39354 0.0
C1394 C 0.36045 0.0032 0.3684 0.0
O1395 O 0.39327 0.02185 0.37281 0.0
N1396 N 0.35075 0.09141 0.33727 0.0
C1397 C 0.38984 0.09555 0.33771 0.0
C1398 C 0.40257 0.10611 0.30132 0.0
C1399 C 0.34051 0.10001 0.30016 0.0
N1400 N 0.37149 0.10904 0.27789 0.0
C1401 C 0.37025 0.12124 0.42091 0.0
C1402 C 0.37597 0.07039 0.48304 0.0
C1403 C 0.38575 0.10957 0.48779 0.0
C1404 C 0.38683 0.13395 0.45522 0.0
C1405 C 0.36149 0.05815 0.44723 0.0
N1406 N 0.35595 0.0845 0.41798 0.0
H1407 H 0.36525 0.14218 0.39794 0.0
H1408 H 0.34929 0.02932 0.44515 0.0
H1409 H 0.40858 0.09112 0.36247 0.0
H1410 H 0.31113 0.09925 0.2892 0.0
O1411 O 0.29462 0.12856 0.38044 0.0
O1412 O 0.27232 0.07915 0.3454 0.0
O1413 O 0.32807 0.02068 0.37231 0.0
C1414 C 0.26822 0.11487 0.35717 0.0
H1415 H 0.2086 0.01277 0.46046 0.0
H1416 H 0.4324 0.11123 0.29277 0.0
H1417 H 0.37484 0.05082 0.50777 0.0
H1418 H 0.39433 0.1644 0.45766 0.0
Co1419 Co 0.31687 0.42779 0.85946 0.0
C1420 C 0.31654 0.48004 0.7877 0.0
C1421 C 0.26022 0.47341 0.81365 0.0
C1422 C 0.25706 0.49868 0.78273 0.0
N1423 N 0.29738 0.46128 0.81699 0.0
N1424 N 0.29218 0.50251 0.76612 0.0
H1425 H 0.34762 0.47879 0.78345 0.0
H1426 H 0.23696 0.46604 0.83341 0.0
C1427 C 0.24418 0.37857 0.87103 0.0
O1428 O 0.2614 0.34662 0.85953 0.0
N1429 N 0.33531 0.39443 0.90226 0.0
C1430 C 0.3349 0.35507 0.903 0.0
C1431 C 0.34954 0.34189 0.93758 0.0
C1432 C 0.3505 0.40447 0.93723 0.0
N1433 N 0.35934 0.37282 0.95911 0.0
C1434 C 0.36434 0.37314 0.82257 0.0
C1435 C 0.31813 0.36412 0.75779 0.0
C1436 C 0.35758 0.35406 0.75625 0.0
C1437 C 0.3796 0.35492 0.79018 0.0
C1438 C 0.30325 0.38047 0.7918 0.0
N1439 N 0.32721 0.38703 0.82262 0.0
H1440 H 0.38383 0.37971 0.84627 0.0
H1441 H 0.27407 0.39202 0.7917 0.0
H1442 H 0.32603 0.33634 0.87962 0.0
H1443 H 0.35444 0.4341 0.94684 0.0
O1444 O 0.36666 0.45213 0.85568 0.0
O1445 O 0.31779 0.47328 0.89224 0.0
O1446 O 0.26208 0.41102 0.87095 0.0
C1447 C 0.35268 0.47875 0.87843 0.0
H1448 H 0.23142 0.51487 0.77441 0.0
H1449 H 0.35274 0.31176 0.94621 0.0
H1450 H 0.30039 0.36381 0.73178 0.0
H1451 H 0.41025 0.34782 0.78996 0.0
Co1452 Co 0.17727 0.91804 0.8755 0.0
C1453 C 0.21857 0.91464 0.95301 0.0
C1454 C 0.24074 0.95929 0.91532 0.0
C1455 C 0.26181 0.95948 0.94945 0.0
N1456 N 0.21336 0.93143 0.91749 0.0
N1457 N 0.24829 0.93108 0.97281 0.0
H1458 H 0.20035 0.89183 0.96468 0.0
H1459 H 0.24458 0.97873 0.89082 0.0
C1460 C 0.13011 0.99094 0.86711 0.0
O1461 O 0.09812 0.97149 0.87381 0.0
N1462 N 0.14223 0.90401 0.83284 0.0
C1463 C 0.10316 0.89982 0.83375 0.0
C1464 C 0.09037 0.88742 0.79816 0.0
C1465 C 0.15239 0.89367 0.79613 0.0
N1466 N 0.12135 0.88334 0.7747 0.0
C1467 C 0.12358 0.8708 0.91513 0.0
C1468 C 0.11433 0.9197 0.97813 0.0
C1469 C 0.10418 0.88043 0.98137 0.0
C1470 C 0.10537 0.85692 0.9483 0.0
C1471 C 0.13081 0.93306 0.94351 0.0
N1472 N 0.13745 0.90784 0.91362 0.0
H1473 H 0.12962 0.85071 0.89176 0.0
H1474 H 0.14289 0.96201 0.9427 0.0
H1475 H 0.08457 0.9044 0.85859 0.0
H1476 H 0.18175 0.89364 0.785 0.0
O1477 O 0.1995 0.86718 0.87401 0.0
O1478 O 0.22049 0.91838 0.8403 0.0
O1479 O 0.16314 0.97433 0.86935 0.0
C1480 C 0.22509 0.88219 0.85049 0.0
H1481 H 0.28388 0.98029 0.95749 0.0
H1482 H 0.06054 0.88143 0.79027 0.0
H1483 H 0.11403 0.93852 0.00336 0.0
H1484 H 0.09804 0.82635 0.94972 0.0
Co1485 Co 0.80757 0.07706 0.12699 0.0
C1486 C 0.83464 0.11086 0.04986 0.0
C1487 C 0.79952 0.05935 0.04617 0.0
C1488 C 0.81603 0.06557 0.01071 0.0
N1489 N 0.81197 0.08663 0.07136 0.0
N1490 N 0.83822 0.09762 0.01281 0.0
H1491 H 0.8514 0.13455 0.06182 0.0
H1492 H 0.78287 0.0339 0.05397 0.0
C1493 C 0.86642 0.02124 0.09462 0.0
O1494 O 0.88298 0.04832 0.07341 0.0
N1495 N 0.80283 0.06487 0.18262 0.0
C1496 C 0.7958 0.09026 0.21164 0.0
C1497 C 0.79499 0.07053 0.24664 0.0
C1498 C 0.80579 0.0297 0.20064 0.0
N1499 N 0.80192 0.03263 0.23985 0.0
C1500 C 0.84318 0.14628 0.15245 0.0
C1501 C 0.9076 0.10902 0.1814 0.0
C1502 C 0.89215 0.14022 0.20186 0.0
C1503 C 0.86148 0.16115 0.1856 0.0
C1504 C 0.88631 0.09315 0.15124 0.0
N1505 N 0.85208 0.10969 0.13965 0.0
H1506 H 0.81748 0.16094 0.14218 0.0
H1507 H 0.89514 0.06472 0.14278 0.0
H1508 H 0.79008 0.12088 0.20766 0.0
H1509 H 0.80886 0.00241 0.18537 0.0
O1510 O 0.76677 0.11603 0.12996 0.0
O1511 O 0.75756 0.05356 0.11792 0.0
O1512 O 0.83976 0.02918 0.11942 0.0
C1513 C 0.74301 0.08831 0.1208 0.0
H1514 H 0.81272 0.04718 0.98537 0.0
H1515 H 0.78751 0.08265 0.27472 0.0
H1516 H 0.93192 0.09268 0.19282 0.0
H1517 H 0.84916 0.18595 0.20053 0.0
Co1518 Co 0.32174 0.91281 0.1129 0.0
C1519 C 0.28306 0.9124 0.03319 0.0
C1520 C 0.25872 0.95392 0.07291 0.0
C1521 C 0.23881 0.95638 0.03825 0.0
N1522 N 0.28667 0.9266 0.06997 0.0
N1523 N 0.2538 0.9301 0.01355 0.0
H1524 H 0.30192 0.8906 0.02067 0.0
H1525 H 0.25371 0.9716 0.09842 0.0
C1526 C 0.36566 0.98805 0.12448 0.0
O1527 O 0.39912 0.96998 0.12263 0.0
N1528 N 0.35564 0.89923 0.1567 0.0
C1529 C 0.39477 0.8955 0.15726 0.0
C1530 C 0.40656 0.88486 0.19397 0.0
C1531 C 0.34441 0.89033 0.19346 0.0
N1532 N 0.37482 0.88146 0.21651 0.0
C1533 C 0.37594 0.86499 0.07518 0.0
C1534 C 0.38658 0.91317 0.01182 0.0
C1535 C 0.39406 0.87318 0.00841 0.0
C1536 C 0.39251 0.8499 0.04163 0.0
C1537 C 0.37108 0.92748 0.04655 0.0
N1538 N 0.36305 0.90251 0.07633 0.0
H1539 H 0.36952 0.84527 0.09886 0.0
H1540 H 0.36033 0.95698 0.0473 0.0
H1541 H 0.41403 0.90003 0.13286 0.0
H1542 H 0.31471 0.89069 0.2036 0.0
O1543 O 0.29996 0.8615 0.11379 0.0
O1544 O 0.27747 0.91231 0.14668 0.0
O1545 O 0.33408 0.96963 0.11904 0.0
C1546 C 0.27342 0.87615 0.13635 0.0
H1547 H 0.21644 0.97725 0.03093 0.0
H1548 H 0.43617 0.87992 0.20332 0.0
H1549 H 0.3876 0.93203 0.98653 0.0
H1550 H 0.39806 0.81894 0.04016 0.0
Co1551 Co 0.66879 0.57222 0.11637 0.0
C1552 C 0.70851 0.57562 0.03766 0.0
C1553 C 0.73477 0.53471 0.07692 0.0
C1554 C 0.75525 0.53431 0.04239 0.0
N1555 N 0.70534 0.56045 0.07413 0.0
N1556 N 0.73902 0.56029 0.01803 0.0
H1557 H 0.68848 0.59648 0.02531 0.0
H1558 H 0.74046 0.51675 0.10216 0.0
C1559 C 0.64743 0.49427 0.14689 0.0
O1560 O 0.65084 0.50714 0.1827 0.0
N1561 N 0.63294 0.58405 0.15842 0.0
C1562 C 0.59475 0.57543 0.16019 0.0
C1563 C 0.57983 0.58935 0.19477 0.0
C1564 C 0.64067 0.6029 0.19194 0.0
N1565 N 0.60893 0.60643 0.21451 0.0
C1566 C 0.61276 0.61909 0.07918 0.0
C1567 C 0.6025 0.57021 0.01626 0.0
C1568 C 0.59233 0.6095 0.0132 0.0
C1569 C 0.59348 0.63285 0.04648 0.0
C1570 C 0.62056 0.5572 0.05009 0.0
N1571 N 0.62851 0.58281 0.07924 0.0
H1572 H 0.61853 0.63882 0.1029 0.0
H1573 H 0.63282 0.52831 0.05045 0.0
H1574 H 0.57893 0.55976 0.13808 0.0
H1575 H 0.66899 0.61326 0.20038 0.0
O1576 O 0.69056 0.6232 0.1198 0.0
O1577 O 0.71156 0.57102 0.15203 0.0
O1578 O 0.6538 0.51657 0.11795 0.0
C1579 C 0.71627 0.60747 0.14266 0.0
H1580 H 0.77889 0.51498 0.0349 0.0
H1581 H 0.55025 0.58628 0.20498 0.0
H1582 H 0.60165 0.55133 0.99108 0.0
H1583 H 0.58551 0.66329 0.04536 0.0
loop_
_geom_bond_atom_site_label_1
_geom_bond_atom_site_label_2
_geom_bond_distance
_geom_bond_site_symmetry_2
_ccdc_geom_bond_type
Co0 N4 2.148 . S
Co0 N10 2.128 . S
Co0 N20 2.194 . S
Co0 O25 2.351 . S
Co0 O26 2.155 . S
Co0 O27 2.096 . S
C1 N4 1.301 . S
C1 N5 1.328 . S
C1 H6 0.930 . S
C2 C3 1.333 . S
C2 N4 1.317 . S
C2 H7 0.930 . S
C3 C2 1.333 . S
C3 N5 1.350 . S
C3 H29 0.931 . S
N4 Co0 2.148 . S
N4 C1 1.301 . S
N4 C2 1.317 . S
N5 C1 1.328 . S
N5 C3 1.350 . S
H6 C1 0.930 . S
H7 C2 0.930 . S
C8 O9 1.224 . S
C8 O27 1.247 . S
O9 C8 1.224 . S
N10 Co0 2.128 . S
N10 C11 1.355 . S
N10 C13 1.311 . S
C11 N10 1.355 . S
C11 C12 1.363 . S
C11 H23 0.929 . S
C12 C11 1.363 . S
C12 N14 1.375 . S
C12 H30 0.931 . S
C13 N10 1.311 . S
C13 N14 1.347 . S
C13 H24 0.929 . S
N14 C12 1.375 . S
N14 C13 1.347 . S
C15 C18 1.365 . S
C15 N20 1.328 . S
C15 H21 0.929 . S
C16 C17 1.362 . S
C16 C19 1.378 . S
C16 H31 0.929 . S
C17 C16 1.362 . S
C17 C18 1.366 . S
C18 C15 1.365 . S
C18 C17 1.366 . S
C18 H32 0.930 . S
C19 C16 1.378 . S
C19 N20 1.315 . S
C19 H22 0.930 . S
N20 Co0 2.194 . S
N20 C15 1.328 . S
N20 C19 1.315 . S
H21 C15 0.929 . S
H22 C19 0.930 . S
H23 C11 0.929 . S
H24 C13 0.929 . S
O25 Co0 2.351 . S
O25 C28 1.244 . S
O26 Co0 2.155 . S
O26 C28 1.240 . S
O27 Co0 2.096 . S
O27 C8 1.247 . S
C28 O25 1.244 . S
C28 O26 1.240 . S
H29 C3 0.931 . S
H30 C12 0.931 . S
H31 C16 0.929 . S
H32 C18 0.930 . S
Co33 N37 2.148 . S
Co33 N43 2.128 . S
Co33 N53 2.194 . S
Co33 O58 2.351 . S
Co33 O59 2.155 . S
Co33 O60 2.096 . S
C34 N37 1.301 . S
C34 N38 1.328 . S
C34 H39 0.930 . S
C35 C36 1.333 . S
C35 N37 1.317 . S
C35 H40 0.930 . S
C36 C35 1.333 . S
C36 N38 1.350 . S
C36 H62 0.931 . S
N37 Co33 2.148 . S
N37 C34 1.301 . S
N37 C35 1.317 . S
N38 C34 1.328 . S
N38 C36 1.350 . S
H39 C34 0.930 . S
H40 C35 0.930 . S
C41 O42 1.224 . S
C41 O60 1.247 . S
O42 C41 1.224 . S
N43 Co33 2.128 . S
N43 C44 1.355 . S
N43 C46 1.311 . S
C44 N43 1.355 . S
C44 C45 1.363 . S
C44 H56 0.929 . S
C45 C44 1.363 . S
C45 N47 1.375 . S
C45 H63 0.931 . S
C46 N43 1.311 . S
C46 N47 1.347 . S
C46 H57 0.929 . S
N47 C45 1.375 . S
N47 C46 1.347 . S
C48 C51 1.365 . S
C48 N53 1.328 . S
C48 H54 0.929 . S
C49 C50 1.362 . S
C49 C52 1.378 . S
C49 H64 0.929 . S
C50 C49 1.362 . S
C50 C51 1.366 . S
C51 C48 1.365 . S
C51 C50 1.366 . S
C51 H65 0.930 . S
C52 C49 1.378 . S
C52 N53 1.315 . S
C52 H55 0.930 . S
N53 Co33 2.194 . S
N53 C48 1.328 . S
N53 C52 1.315 . S
H54 C48 0.929 . S
H55 C52 0.930 . S
H56 C44 0.929 . S
H57 C46 0.929 . S
O58 Co33 2.351 . S
O58 C61 1.244 . S
O59 Co33 2.155 . S
O59 C61 1.240 . S
O60 Co33 2.096 . S
O60 C41 1.247 . S
C61 O58 1.244 . S
C61 O59 1.240 . S
H62 C36 0.931 . S
H63 C45 0.931 . S
H64 C49 0.929 . S
H65 C51 0.930 . S
Co66 N70 2.148 . S
Co66 N76 2.128 . S
Co66 N86 2.194 . S
Co66 O91 2.351 . S
Co66 O92 2.155 . S
Co66 O93 2.096 . S
C67 N70 1.301 . S
C67 N71 1.328 . S
C67 H72 0.930 . S
C68 C69 1.333 . S
C68 N70 1.317 . S
C68 H73 0.930 . S
C69 C68 1.333 . S
C69 N71 1.350 . S
C69 H95 0.931 . S
N70 Co66 2.148 . S
N70 C67 1.301 . S
N70 C68 1.317 . S
N71 C67 1.328 . S
N71 C69 1.350 . S
H72 C67 0.930 . S
H73 C68 0.930 . S
C74 O75 1.224 . S
C74 O93 1.247 . S
O75 C74 1.224 . S
N76 Co66 2.128 . S
N76 C77 1.355 . S
N76 C79 1.311 . S
C77 N76 1.355 . S
C77 C78 1.363 . S
C77 H89 0.929 . S
C78 C77 1.363 . S
C78 N80 1.375 . S
C78 H96 0.931 . S
C79 N76 1.311 . S
C79 N80 1.347 . S
C79 H90 0.929 . S
N80 C78 1.375 . S
N80 C79 1.347 . S
C81 C84 1.365 . S
C81 N86 1.328 . S
C81 H87 0.929 . S
C82 C83 1.362 . S
C82 C85 1.378 . S
C82 H97 0.929 . S
C83 C82 1.362 . S
C83 C84 1.366 . S
C84 C81 1.365 . S
C84 C83 1.366 . S
C84 H98 0.930 . S
C85 C82 1.378 . S
C85 N86 1.315 . S
C85 H88 0.930 . S
N86 Co66 2.194 . S
N86 C81 1.328 . S
N86 C85 1.315 . S
H87 C81 0.929 . S
H88 C85 0.930 . S
H89 C77 0.929 . S
H90 C79 0.929 . S
O91 Co66 2.351 . S
O91 C94 1.244 . S
O92 Co66 2.155 . S
O92 C94 1.240 . S
O93 Co66 2.096 . S
O93 C74 1.247 . S
C94 O91 1.244 . S
C94 O92 1.240 . S
H95 C69 0.931 . S
H96 C78 0.931 . S
H97 C82 0.929 . S
H98 C84 0.930 . S
Co99 N103 2.148 . S
Co99 N109 2.128 . S
Co99 N119 2.194 . S
Co99 O124 2.351 . S
Co99 O125 2.155 . S
Co99 O126 2.096 . S
C100 N103 1.301 . S
C100 N104 1.328 . S
C100 H105 0.930 . S
C101 C102 1.333 . S
C101 N103 1.317 . S
C101 H106 0.930 . S
C102 C101 1.333 . S
C102 N104 1.350 . S
C102 H128 0.931 . S
N103 Co99 2.148 . S
N103 C100 1.301 . S
N103 C101 1.317 . S
N104 C100 1.328 . S
N104 C102 1.350 . S
H105 C100 0.930 . S
H106 C101 0.930 . S
C107 O108 1.224 . S
C107 O126 1.247 . S
O108 C107 1.224 . S
N109 Co99 2.128 . S
N109 C110 1.355 . S
N109 C112 1.311 . S
C110 N109 1.355 . S
C110 C111 1.363 . S
C110 H122 0.929 . S
C111 C110 1.363 . S
C111 N113 1.375 . S
C111 H129 0.931 . S
C112 N109 1.311 . S
C112 N113 1.347 . S
C112 H123 0.929 . S
N113 C111 1.375 . S
N113 C112 1.347 . S
C114 C117 1.365 . S
C114 N119 1.328 . S
C114 H120 0.929 . S
C115 C116 1.362 . S
C115 C118 1.378 . S
C115 H130 0.929 . S
C116 C115 1.362 . S
C116 C117 1.366 . S
C117 C114 1.365 . S
C117 C116 1.366 . S
C117 H131 0.930 . S
C118 C115 1.378 . S
C118 N119 1.315 . S
C118 H121 0.930 . S
N119 Co99 2.194 . S
N119 C114 1.328 . S
N119 C118 1.315 . S
H120 C114 0.929 . S
H121 C118 0.930 . S
H122 C110 0.929 . S
H123 C112 0.929 . S
O124 Co99 2.351 . S
O124 C127 1.244 . S
O125 Co99 2.155 . S
O125 C127 1.240 . S
O126 Co99 2.096 . S
O126 C107 1.247 . S
C127 O124 1.244 . S
C127 O125 1.240 . S
H128 C102 0.931 . S
H129 C111 0.931 . S
H130 C115 0.929 . S
H131 C117 0.930 . S
Co132 N136 2.148 . S
Co132 N142 2.128 . S
Co132 N152 2.194 . S
Co132 O157 2.351 . S
Co132 O158 2.155 . S
Co132 O159 2.096 . S
C133 N136 1.301 . S
C133 N137 1.328 . S
C133 H138 0.930 . S
C134 C135 1.333 . S
C134 N136 1.317 . S
C134 H139 0.930 . S
C135 C134 1.333 . S
C135 N137 1.350 . S
C135 H161 0.931 . S
N136 Co132 2.148 . S
N136 C133 1.301 . S
N136 C134 1.317 . S
N137 C133 1.328 . S
N137 C135 1.350 . S
H138 C133 0.930 . S
H139 C134 0.930 . S
C140 O141 1.224 . S
C140 O159 1.247 . S
O141 C140 1.224 . S
N142 Co132 2.128 . S
N142 C143 1.355 . S
N142 C145 1.311 . S
C143 N142 1.355 . S
C143 C144 1.363 . S
C143 H155 0.929 . S
C144 C143 1.363 . S
C144 N146 1.375 . S
C144 H162 0.931 . S
C145 N142 1.311 . S
C145 N146 1.347 . S
C145 H156 0.929 . S
N146 C144 1.375 . S
N146 C145 1.347 . S
C147 C150 1.365 . S
C147 N152 1.328 . S
C147 H153 0.929 . S
C148 C149 1.362 . S
C148 C151 1.378 . S
C148 H163 0.929 . S
C149 C148 1.362 . S
C149 C150 1.366 . S
C150 C147 1.365 . S
C150 C149 1.366 . S
C150 H164 0.930 . S
C151 C148 1.378 . S
C151 N152 1.315 . S
C151 H154 0.930 . S
N152 Co132 2.194 . S
N152 C147 1.328 . S
N152 C151 1.315 . S
H153 C147 0.929 . S
H154 C151 0.930 . S
H155 C143 0.929 . S
H156 C145 0.929 . S
O157 Co132 2.351 . S
O157 C160 1.242 1_554 S
O158 Co132 2.155 . S
O158 C160 1.239 1_554 S
O159 Co132 2.096 . S
O159 C140 1.247 . S
C160 O157 1.242 1_556 S
C160 O158 1.239 1_556 S
H161 C135 0.931 . S
H162 C144 0.931 . S
H163 C148 0.929 . S
H164 C150 0.930 . S
Co165 N169 2.148 . S
Co165 N175 2.128 . S
Co165 N185 2.194 . S
Co165 O190 2.351 . S
Co165 O191 2.155 . S
Co165 O192 2.096 . S
C166 N169 1.301 . S
C166 N170 1.328 . S
C166 H171 0.930 . S
C167 C168 1.334 1_455 S
C167 N169 1.315 . S
C167 H172 0.931 1_455 S
C168 C167 1.334 1_655 S
C168 N170 1.350 1_655 S
C168 H194 0.931 . S
N169 Co165 2.148 . S
N169 C166 1.301 . S
N169 C167 1.315 . S
N170 C166 1.328 . S
N170 C168 1.350 1_455 S
H171 C166 0.930 . S
H172 C167 0.931 1_655 S
C173 O174 1.232 . S
C173 O192 1.253 . S
O174 C173 1.232 . S
N175 Co165 2.128 . S
N175 C176 1.355 . S
N175 C178 1.311 . S
C176 N175 1.355 . S
C176 C177 1.363 . S
C176 H188 0.929 . S
C177 C176 1.363 . S
C177 N179 1.375 . S
C177 H195 0.931 . S
C178 N175 1.311 . S
C178 N179 1.347 . S
C178 H189 0.929 . S
N179 C177 1.375 . S
N179 C178 1.347 . S
C180 C183 1.365 . S
C180 N185 1.328 . S
C180 H186 0.929 . S
C181 C182 1.362 . S
C181 C184 1.378 . S
C181 H196 0.929 . S
C182 C181 1.362 . S
C182 C183 1.366 . S
C183 C180 1.365 . S
C183 C182 1.366 . S
C183 H197 0.930 . S
C184 C181 1.378 . S
C184 N185 1.315 . S
C184 H187 0.930 . S
N185 Co165 2.194 . S
N185 C180 1.328 . S
N185 C184 1.315 . S
H186 C180 0.929 . S
H187 C184 0.930 . S
H188 C176 0.929 . S
H189 C178 0.929 . S
O190 Co165 2.351 . S
O190 C193 1.244 . S
O191 Co165 2.155 . S
O191 C193 1.240 . S
O192 Co165 2.096 . S
O192 C173 1.253 . S
C193 O190 1.244 . S
C193 O191 1.240 . S
H194 C168 0.931 . S
H195 C177 0.931 . S
H196 C181 0.929 . S
H197 C183 0.930 . S
Co198 N202 2.148 . S
Co198 N208 2.128 . S
Co198 N218 2.194 . S
Co198 O223 2.351 . S
Co198 O224 2.155 . S
Co198 O225 2.096 . S
C199 N202 1.301 . S
C199 N203 1.328 . S
C199 H204 0.930 . S
C200 C201 1.333 . S
C200 N202 1.317 . S
C200 H205 0.930 . S
C201 C200 1.333 . S
C201 N203 1.350 . S
C201 H227 0.931 . S
N202 Co198 2.148 . S
N202 C199 1.301 . S
N202 C200 1.317 . S
N203 C199 1.328 . S
N203 C201 1.350 . S
H204 C199 0.930 . S
H205 C200 0.930 . S
C206 O207 1.224 . S
C206 O225 1.247 . S
O207 C206 1.224 . S
N208 Co198 2.128 . S
N208 C209 1.355 . S
N208 C211 1.311 . S
C209 N208 1.355 . S
C209 C210 1.363 . S
C209 H221 0.929 . S
C210 C209 1.363 . S
C210 N212 1.375 . S
C210 H228 0.931 . S
C211 N208 1.311 . S
C211 N212 1.347 . S
C211 H222 0.929 . S
N212 C210 1.375 . S
N212 C211 1.347 . S
C213 C216 1.365 . S
C213 N218 1.328 . S
C213 H219 0.929 . S
C214 C215 1.362 . S
C214 C217 1.378 . S
C214 H229 0.929 . S
C215 C214 1.362 . S
C215 C216 1.366 . S
C216 C213 1.365 . S
C216 C215 1.366 . S
C216 H230 0.930 . S
C217 C214 1.378 . S
C217 N218 1.315 . S
C217 H220 0.930 . S
N218 Co198 2.194 . S
N218 C213 1.328 . S
N218 C217 1.315 . S
H219 C213 0.929 . S
H220 C217 0.930 . S
H221 C209 0.929 . S
H222 C211 0.929 . S
O223 Co198 2.351 . S
O223 C226 1.256 . S
O224 Co198 2.155 . S
O224 C226 1.245 . S
O225 Co198 2.096 . S
O225 C206 1.247 . S
C226 O223 1.256 . S
C226 O224 1.245 . S
H227 C201 0.931 . S
H228 C210 0.931 . S
H229 C214 0.929 . S
H230 C216 0.930 . S
Co231 N235 2.148 . S
Co231 N241 2.128 . S
Co231 N251 2.194 . S
Co231 O256 2.351 . S
Co231 O257 2.155 . S
Co231 O258 2.096 . S
C232 N235 1.301 . S
C232 N236 1.328 . S
C232 H237 0.930 . S
C233 C234 1.340 . S
C233 N235 1.291 1_455 S
C233 H238 0.948 . S
C234 C233 1.340 . S
C234 N236 1.350 1_455 S
C234 H260 0.931 . S
N235 Co231 2.148 . S
N235 C232 1.301 . S
N235 C233 1.291 1_655 S
N236 C232 1.328 . S
N236 C234 1.350 1_655 S
H237 C232 0.930 . S
H238 C233 0.948 . S
C239 O240 1.223 . S
C239 O258 1.246 . S
O240 C239 1.223 . S
N241 Co231 2.128 . S
N241 C242 1.355 . S
N241 C244 1.311 . S
C242 N241 1.355 . S
C242 C243 1.363 . S
C242 H254 0.929 . S
C243 C242 1.363 . S
C243 N245 1.375 . S
C243 H261 0.931 . S
C244 N241 1.311 . S
C244 N245 1.347 . S
C244 H255 0.929 . S
N245 C243 1.375 . S
N245 C244 1.347 . S
C246 C249 1.365 . S
C246 N251 1.328 . S
C246 H252 0.929 . S
C247 C248 1.362 . S
C247 C250 1.378 . S
C247 H262 0.929 . S
C248 C247 1.362 . S
C248 C249 1.366 . S
C249 C246 1.365 . S
C249 C248 1.366 . S
C249 H263 0.930 . S
C250 C247 1.378 . S
C250 N251 1.315 . S
C250 H253 0.930 . S
N251 Co231 2.194 . S
N251 C246 1.328 . S
N251 C250 1.315 . S
H252 C246 0.929 . S
H253 C250 0.930 . S
H254 C242 0.929 . S
H255 C244 0.929 . S
O256 Co231 2.351 . S
O256 C259 1.244 . S
O257 Co231 2.155 . S
O257 C259 1.240 . S
O258 Co231 2.096 . S
O258 C239 1.246 . S
C259 O256 1.244 . S
C259 O257 1.240 . S
H260 C234 0.931 . S
H261 C243 0.931 . S
H262 C247 0.929 . S
H263 C249 0.930 . S
Co264 N268 2.148 . S
Co264 N274 2.128 . S
Co264 N284 2.194 . S
Co264 O289 2.351 . S
Co264 O290 2.155 . S
Co264 O291 2.096 . S
C265 N268 1.301 . S
C265 N269 1.328 . S
C265 H270 0.930 . S
C266 C267 1.333 . S
C266 N268 1.317 . S
C266 H271 0.930 . S
C267 C266 1.333 . S
C267 N269 1.350 . S
C267 H293 0.931 . S
N268 Co264 2.148 . S
N268 C265 1.301 . S
N268 C266 1.317 . S
N269 C265 1.328 . S
N269 C267 1.350 . S
H270 C265 0.930 . S
H271 C266 0.930 . S
C272 O273 1.224 . S
C272 O291 1.247 . S
O273 C272 1.224 . S
N274 Co264 2.128 . S
N274 C275 1.355 . S
N274 C277 1.311 . S
C275 N274 1.355 . S
C275 C276 1.363 . S
C275 H287 0.929 . S
C276 C275 1.363 . S
C276 N278 1.375 . S
C276 H294 0.931 . S
C277 N274 1.311 . S
C277 N278 1.347 . S
C277 H288 0.929 . S
N278 C276 1.375 . S
N278 C277 1.347 . S
C279 C282 1.365 . S
C279 N284 1.328 . S
C279 H285 0.929 . S
C280 C281 1.362 . S
C280 C283 1.378 . S
C280 H295 0.929 . S
C281 C280 1.362 . S
C281 C282 1.366 . S
C282 C279 1.365 . S
C282 C281 1.366 . S
C282 H296 0.930 . S
C283 C280 1.378 . S
C283 N284 1.315 . S
C283 H286 0.930 . S
N284 Co264 2.194 . S
N284 C279 1.328 . S
N284 C283 1.315 . S
H285 C279 0.929 . S
H286 C283 0.930 . S
H287 C275 0.929 . S
H288 C277 0.929 . S
O289 Co264 2.351 . S
O289 C292 1.244 . S
O290 Co264 2.155 . S
O290 C292 1.240 . S
O291 Co264 2.096 . S
O291 C272 1.247 . S
C292 O289 1.244 . S
C292 O290 1.240 . S
H293 C267 0.931 . S
H294 C276 0.931 . S
H295 C280 0.929 . S
H296 C282 0.930 . S
Co297 N301 2.148 . S
Co297 N307 2.128 . S
Co297 N317 2.194 . S
Co297 O322 2.351 . S
Co297 O323 2.155 . S
Co297 O324 2.096 . S
C298 N301 1.301 . S
C298 N302 1.328 . S
C298 H303 0.930 . S
C299 C300 1.335 . S
C299 N301 1.310 1_556 S
C299 H304 0.934 . S
C300 C299 1.335 . S
C300 N302 1.350 1_556 S
C300 H326 0.931 . S
N301 Co297 2.148 . S
N301 C298 1.301 . S
N301 C299 1.310 1_554 S
N302 C298 1.328 . S
N302 C300 1.350 1_554 S
H303 C298 0.930 . S
H304 C299 0.934 . S
C305 O306 1.228 . S
C305 O324 1.250 . S
O306 C305 1.228 . S
N307 Co297 2.128 . S
N307 C308 1.355 . S
N307 C310 1.311 . S
C308 N307 1.355 . S
C308 C309 1.363 . S
C308 H320 0.929 . S
C309 C308 1.363 . S
C309 N311 1.375 . S
C309 H327 0.931 . S
C310 N307 1.311 . S
C310 N311 1.347 . S
C310 H321 0.929 . S
N311 C309 1.375 . S
N311 C310 1.347 . S
C312 C315 1.365 . S
C312 N317 1.328 . S
C312 H318 0.929 . S
C313 C314 1.362 . S
C313 C316 1.378 . S
C313 H328 0.929 . S
C314 C313 1.362 . S
C314 C315 1.366 . S
C315 C312 1.365 . S
C315 C314 1.366 . S
C315 H329 0.930 . S
C316 C313 1.378 . S
C316 N317 1.315 . S
C316 H319 0.930 . S
N317 Co297 2.194 . S
N317 C312 1.328 . S
N317 C316 1.315 . S
H318 C312 0.929 . S
H319 C316 0.930 . S
H320 C308 0.929 . S
H321 C310 0.929 . S
O322 Co297 2.351 . S
O322 C325 1.244 . S
O323 Co297 2.155 . S
O323 C325 1.240 . S
O324 Co297 2.096 . S
O324 C305 1.250 . S
C325 O322 1.244 . S
C325 O323 1.240 . S
H326 C300 0.931 . S
H327 C309 0.931 . S
H328 C313 0.929 . S
H329 C315 0.930 . S
Co330 N334 2.148 . S
Co330 N340 2.128 . S
Co330 N350 2.194 . S
Co330 O355 2.351 . S
Co330 O356 2.155 . S
Co330 O357 2.096 . S
C331 N334 1.301 . S
C331 N335 1.328 . S
C331 H336 0.930 . S
C332 C333 1.333 . S
C332 N334 1.317 . S
C332 H337 0.930 . S
C333 C332 1.333 . S
C333 N335 1.350 . S
C333 H359 0.931 . S
N334 Co330 2.148 . S
N334 C331 1.301 . S
N334 C332 1.317 . S
N335 C331 1.328 . S
N335 C333 1.350 . S
H336 C331 0.930 . S
H337 C332 0.930 . S
C338 O339 1.224 . S
C338 O357 1.247 . S
O339 C338 1.224 . S
N340 Co330 2.128 . S
N340 C341 1.355 . S
N340 C343 1.311 . S
C341 N340 1.355 . S
C341 C342 1.363 . S
C341 H353 0.929 . S
C342 C341 1.363 . S
C342 N344 1.375 . S
C342 H360 0.931 . S
C343 N340 1.311 . S
C343 N344 1.347 . S
C343 H354 0.929 . S
N344 C342 1.375 . S
N344 C343 1.347 . S
C345 C348 1.365 . S
C345 N350 1.328 . S
C345 H351 0.929 . S
C346 C347 1.362 . S
C346 C349 1.378 . S
C346 H361 0.929 . S
C347 C346 1.362 . S
C347 C348 1.366 . S
C348 C345 1.365 . S
C348 C347 1.366 . S
C348 H362 0.930 . S
C349 C346 1.378 . S
C349 N350 1.315 . S
C349 H352 0.930 . S
N350 Co330 2.194 . S
N350 C345 1.328 . S
N350 C349 1.315 . S
H351 C345 0.929 . S
H352 C349 0.930 . S
H353 C341 0.929 . S
H354 C343 0.929 . S
O355 Co330 2.351 . S
O355 C358 1.244 . S
O356 Co330 2.155 . S
O356 C358 1.240 . S
O357 Co330 2.096 . S
O357 C338 1.247 . S
C358 O355 1.244 . S
C358 O356 1.240 . S
H359 C333 0.931 . S
H360 C342 0.931 . S
H361 C346 0.929 . S
H362 C348 0.930 . S
Co363 N367 2.148 . S
Co363 N373 2.128 . S
Co363 N383 2.194 . S
Co363 O388 2.351 . S
Co363 O389 2.155 . S
Co363 O390 2.096 . S
C364 N367 1.301 . S
C364 N368 1.328 . S
C364 H369 0.930 . S
C365 C366 1.327 1_554 S
C365 N367 1.346 . S
C365 H370 0.910 1_554 S
C366 C365 1.327 1_556 S
C366 N368 1.350 1_556 S
C366 H392 0.931 . S
N367 Co363 2.148 . S
N367 C364 1.301 . S
N367 C365 1.346 . S
N368 C364 1.328 . S
N368 C366 1.350 1_554 S
H369 C364 0.930 . S
H370 C365 0.910 1_556 S
C371 O372 1.224 . S
C371 O390 1.247 . S
O372 C371 1.224 . S
N373 Co363 2.128 . S
N373 C374 1.355 . S
N373 C376 1.311 . S
C374 N373 1.355 . S
C374 C375 1.363 . S
C374 H386 0.929 . S
C375 C374 1.363 . S
C375 N377 1.375 . S
C375 H393 0.931 . S
C376 N373 1.311 . S
C376 N377 1.347 . S
C376 H387 0.929 . S
N377 C375 1.375 . S
N377 C376 1.347 . S
C378 C381 1.365 . S
C378 N383 1.328 . S
C378 H384 0.929 . S
C379 C380 1.362 . S
C379 C382 1.378 . S
C379 H394 0.929 . S
C380 C379 1.362 . S
C380 C381 1.366 . S
C381 C378 1.365 . S
C381 C380 1.366 . S
C381 H395 0.930 . S
C382 C379 1.378 . S
C382 N383 1.315 . S
C382 H385 0.930 . S
N383 Co363 2.194 . S
N383 C378 1.328 . S
N383 C382 1.315 . S
H384 C378 0.929 . S
H385 C382 0.930 . S
H386 C374 0.929 . S
H387 C376 0.929 . S
O388 Co363 2.351 . S
O388 C391 1.244 . S
O389 Co363 2.155 . S
O389 C391 1.240 . S
O390 Co363 2.096 . S
O390 C371 1.247 . S
C391 O388 1.244 . S
C391 O389 1.240 . S
H392 C366 0.931 . S
H393 C375 0.931 . S
H394 C379 0.929 . S
H395 C381 0.930 . S
Co396 N400 2.148 . S
Co396 N406 2.128 . S
Co396 N416 2.194 . S
Co396 O421 2.351 . S
Co396 O422 2.155 . S
Co396 O423 2.096 . S
C397 N400 1.301 . S
C397 N401 1.328 . S
C397 H402 0.930 . S
C398 C399 1.333 . S
C398 N400 1.317 . S
C398 H403 0.930 . S
C399 C398 1.333 . S
C399 N401 1.350 . S
C399 H425 0.931 . S
N400 Co396 2.148 . S
N400 C397 1.301 . S
N400 C398 1.317 . S
N401 C397 1.328 . S
N401 C399 1.350 . S
H402 C397 0.930 . S
H403 C398 0.930 . S
C404 O405 1.224 . S
C404 O423 1.247 . S
O405 C404 1.224 . S
N406 Co396 2.128 . S
N406 C407 1.355 . S
N406 C409 1.311 . S
C407 N406 1.355 . S
C407 C408 1.363 . S
C407 H419 0.929 . S
C408 C407 1.363 . S
C408 N410 1.375 . S
C408 H426 0.931 . S
C409 N406 1.311 . S
C409 N410 1.347 . S
C409 H420 0.929 . S
N410 C408 1.375 . S
N410 C409 1.347 . S
C411 C414 1.365 . S
C411 N416 1.328 . S
C411 H417 0.929 . S
C412 C413 1.362 . S
C412 C415 1.378 . S
C412 H427 0.929 . S
C413 C412 1.362 . S
C413 C414 1.366 . S
C414 C411 1.365 . S
C414 C413 1.366 . S
C414 H428 0.930 . S
C415 C412 1.378 . S
C415 N416 1.315 . S
C415 H418 0.930 . S
N416 Co396 2.194 . S
N416 C411 1.328 . S
N416 C415 1.315 . S
H417 C411 0.929 . S
H418 C415 0.930 . S
H419 C407 0.929 . S
H420 C409 0.929 . S
O421 Co396 2.351 . S
O421 C424 1.244 . S
O422 Co396 2.155 . S
O422 C424 1.240 . S
O423 Co396 2.096 . S
O423 C404 1.247 . S
C424 O421 1.244 . S
C424 O422 1.240 . S
H425 C399 0.931 . S
H426 C408 0.931 . S
H427 C412 0.929 . S
H428 C414 0.930 . S
Co429 N433 2.148 . S
Co429 N439 2.128 . S
Co429 N449 2.194 . S
Co429 O454 2.351 . S
Co429 O455 2.155 . S
Co429 O456 2.096 . S
C430 N433 1.301 . S
C430 N434 1.328 . S
C430 H435 0.930 . S
C431 C432 1.333 . S
C431 N433 1.318 1_554 S
C431 H436 0.929 . S
C432 C431 1.333 . S
C432 N434 1.350 1_554 S
C432 H458 0.931 . S
N433 Co429 2.148 . S
N433 C430 1.301 . S
N433 C431 1.318 1_556 S
N434 C430 1.328 . S
N434 C432 1.350 1_556 S
H435 C430 0.930 . S
H436 C431 0.929 . S
C437 O438 1.234 . S
C437 O456 1.255 . S
O438 C437 1.234 . S
N439 Co429 2.128 . S
N439 C440 1.355 . S
N439 C442 1.311 . S
C440 N439 1.355 . S
C440 C441 1.363 . S
C440 H452 0.929 . S
C441 C440 1.363 . S
C441 N443 1.375 . S
C441 H459 0.931 . S
C442 N439 1.311 . S
C442 N443 1.347 . S
C442 H453 0.929 . S
N443 C441 1.375 . S
N443 C442 1.347 . S
C444 C447 1.365 . S
C444 N449 1.328 . S
C444 H450 0.929 . S
C445 C446 1.362 . S
C445 C448 1.378 . S
C445 H460 0.929 . S
C446 C445 1.362 . S
C446 C447 1.366 . S
C447 C444 1.365 . S
C447 C446 1.366 . S
C447 H461 0.930 . S
C448 C445 1.378 . S
C448 N449 1.315 . S
C448 H451 0.930 . S
N449 Co429 2.194 . S
N449 C444 1.328 . S
N449 C448 1.315 . S
H450 C444 0.929 . S
H451 C448 0.930 . S
H452 C440 0.929 . S
H453 C442 0.929 . S
O454 Co429 2.351 . S
O454 C457 1.244 . S
O455 Co429 2.155 . S
O455 C457 1.240 . S
O456 Co429 2.096 . S
O456 C437 1.255 . S
C457 O454 1.244 . S
C457 O455 1.240 . S
H458 C432 0.931 . S
H459 C441 0.931 . S
H460 C445 0.929 . S
H461 C447 0.930 . S
Co462 N466 2.148 . S
Co462 N472 2.128 . S
Co462 N482 2.194 . S
Co462 O487 2.351 . S
Co462 O488 2.155 . S
Co462 O489 2.096 . S
C463 N466 1.301 . S
C463 N467 1.328 . S
C463 H468 0.930 . S
C464 C465 1.333 . S
C464 N466 1.317 . S
C464 H469 0.930 . S
C465 C464 1.333 . S
C465 N467 1.350 . S
C465 H491 0.931 . S
N466 Co462 2.148 . S
N466 C463 1.301 . S
N466 C464 1.317 . S
N467 C463 1.328 . S
N467 C465 1.350 . S
H468 C463 0.930 . S
H469 C464 0.930 . S
C470 O471 1.224 . S
C470 O489 1.247 . S
O471 C470 1.224 . S
N472 Co462 2.128 . S
N472 C473 1.355 . S
N472 C475 1.311 . S
C473 N472 1.355 . S
C473 C474 1.363 . S
C473 H485 0.929 . S
C474 C473 1.363 . S
C474 N476 1.375 . S
C474 H492 0.931 . S
C475 N472 1.311 . S
C475 N476 1.347 . S
C475 H486 0.929 . S
N476 C474 1.375 . S
N476 C475 1.347 . S
C477 C480 1.365 . S
C477 N482 1.328 . S
C477 H483 0.929 . S
C478 C479 1.362 . S
C478 C481 1.378 . S
C478 H493 0.929 . S
C479 C478 1.362 . S
C479 C480 1.366 . S
C480 C477 1.365 . S
C480 C479 1.366 . S
C480 H494 0.930 . S
C481 C478 1.378 . S
C481 N482 1.315 . S
C481 H484 0.930 . S
N482 Co462 2.194 . S
N482 C477 1.328 . S
N482 C481 1.315 . S
H483 C477 0.929 . S
H484 C481 0.930 . S
H485 C473 0.929 . S
H486 C475 0.929 . S
O487 Co462 2.351 . S
O487 C490 1.244 . S
O488 Co462 2.155 . S
O488 C490 1.240 . S
O489 Co462 2.096 . S
O489 C470 1.247 . S
C490 O487 1.244 . S
C490 O488 1.240 . S
H491 C465 0.931 . S
H492 C474 0.931 . S
H493 C478 0.929 . S
H494 C480 0.930 . S
Co495 N499 2.148 . S
Co495 N505 2.128 . S
Co495 N515 2.194 . S
Co495 O520 2.351 . S
Co495 O521 2.155 . S
Co495 O522 2.096 . S
C496 N499 1.301 . S
C496 N500 1.328 . S
C496 H501 0.930 . S
C497 C498 1.338 . S
C497 N499 1.297 1_554 S
C497 H502 0.944 . S
C498 C497 1.338 . S
C498 N500 1.350 1_554 S
C498 H524 0.931 . S
N499 Co495 2.148 . S
N499 C496 1.301 . S
N499 C497 1.297 1_556 S
N500 C496 1.328 . S
N500 C498 1.350 1_556 S
H501 C496 0.930 . S
H502 C497 0.944 . S
C503 O504 1.225 . S
C503 O522 1.247 . S
O504 C503 1.225 . S
N505 Co495 2.128 . S
N505 C506 1.355 . S
N505 C508 1.311 . S
C506 N505 1.355 . S
C506 C507 1.363 . S
C506 H518 0.929 . S
C507 C506 1.363 . S
C507 N509 1.375 . S
C507 H525 0.931 . S
C508 N505 1.311 . S
C508 N509 1.347 . S
C508 H519 0.929 . S
N509 C507 1.375 . S
N509 C508 1.347 . S
C510 C513 1.365 . S
C510 N515 1.328 . S
C510 H516 0.929 . S
C511 C512 1.362 . S
C511 C514 1.378 . S
C511 H526 0.929 . S
C512 C511 1.362 . S
C512 C513 1.366 . S
C513 C510 1.365 . S
C513 C512 1.366 . S
C513 H527 0.930 . S
C514 C511 1.378 . S
C514 N515 1.315 . S
C514 H517 0.930 . S
N515 Co495 2.194 . S
N515 C510 1.328 . S
N515 C514 1.315 . S
H516 C510 0.929 . S
H517 C514 0.930 . S
H518 C506 0.929 . S
H519 C508 0.929 . S
O520 Co495 2.351 . S
O520 C523 1.244 . S
O521 Co495 2.155 . S
O521 C523 1.240 . S
O522 Co495 2.096 . S
O522 C503 1.247 . S
C523 O520 1.244 . S
C523 O521 1.240 . S
H524 C498 0.931 . S
H525 C507 0.931 . S
H526 C511 0.929 . S
H527 C513 0.930 . S
Co528 N532 2.148 . S
Co528 N538 2.128 . S
Co528 N548 2.194 . S
Co528 O553 2.351 . S
Co528 O554 2.155 . S
Co528 O555 2.096 . S
C529 N532 1.301 . S
C529 N533 1.328 . S
C529 H534 0.930 . S
C530 C531 1.333 . S
C530 N532 1.317 . S
C530 H535 0.930 . S
C531 C530 1.333 . S
C531 N533 1.350 . S
C531 H557 0.931 . S
N532 Co528 2.148 . S
N532 C529 1.301 . S
N532 C530 1.317 . S
N533 C529 1.328 . S
N533 C531 1.350 . S
H534 C529 0.930 . S
H535 C530 0.930 . S
C536 O537 1.224 . S
C536 O555 1.247 . S
O537 C536 1.224 . S
N538 Co528 2.128 . S
N538 C539 1.355 . S
N538 C541 1.311 . S
C539 N538 1.355 . S
C539 C540 1.363 . S
C539 H551 0.929 . S
C540 C539 1.363 . S
C540 N542 1.375 . S
C540 H558 0.931 . S
C541 N538 1.311 . S
C541 N542 1.347 . S
C541 H552 0.929 . S
N542 C540 1.375 . S
N542 C541 1.347 . S
C543 C546 1.365 . S
C543 N548 1.328 . S
C543 H549 0.929 . S
C544 C545 1.362 . S
C544 C547 1.378 . S
C544 H559 0.929 . S
C545 C544 1.362 . S
C545 C546 1.366 . S
C546 C543 1.365 . S
C546 C545 1.366 . S
C546 H560 0.930 . S
C547 C544 1.378 . S
C547 N548 1.315 . S
C547 H550 0.930 . S
N548 Co528 2.194 . S
N548 C543 1.328 . S
N548 C547 1.315 . S
H549 C543 0.929 . S
H550 C547 0.930 . S
H551 C539 0.929 . S
H552 C541 0.929 . S
O553 Co528 2.351 . S
O553 C556 1.244 . S
O554 Co528 2.155 . S
O554 C556 1.240 . S
O555 Co528 2.096 . S
O555 C536 1.247 . S
C556 O553 1.244 . S
C556 O554 1.240 . S
H557 C531 0.931 . S
H558 C540 0.931 . S
H559 C544 0.929 . S
H560 C546 0.930 . S
Co561 N565 2.148 . S
Co561 N571 2.128 . S
Co561 N581 2.194 . S
Co561 O586 2.351 . S
Co561 O587 2.155 . S
Co561 O588 2.096 . S
C562 N565 1.301 . S
C562 N566 1.328 . S
C562 H567 0.930 . S
C563 C564 1.333 . S
C563 N565 1.317 . S
C563 H568 0.930 . S
C564 C563 1.333 . S
C564 N566 1.350 . S
C564 H590 0.931 . S
N565 Co561 2.148 . S
N565 C562 1.301 . S
N565 C563 1.317 . S
N566 C562 1.328 . S
N566 C564 1.350 . S
H567 C562 0.930 . S
H568 C563 0.930 . S
C569 O570 1.224 . S
C569 O588 1.247 . S
O570 C569 1.224 . S
N571 Co561 2.128 . S
N571 C572 1.355 . S
N571 C574 1.311 . S
C572 N571 1.355 . S
C572 C573 1.363 . S
C572 H584 0.929 . S
C573 C572 1.363 . S
C573 N575 1.375 . S
C573 H591 0.931 . S
C574 N571 1.311 . S
C574 N575 1.347 . S
C574 H585 0.929 . S
N575 C573 1.375 . S
N575 C574 1.347 . S
C576 C579 1.365 . S
C576 N581 1.328 . S
C576 H582 0.929 . S
C577 C578 1.362 . S
C577 C580 1.378 . S
C577 H592 0.929 . S
C578 C577 1.362 . S
C578 C579 1.366 . S
C579 C576 1.365 . S
C579 C578 1.366 . S
C579 H593 0.930 . S
C580 C577 1.378 . S
C580 N581 1.315 . S
C580 H583 0.930 . S
N581 Co561 2.194 . S
N581 C576 1.328 . S
N581 C580 1.315 . S
H582 C576 0.929 . S
H583 C580 0.930 . S
H584 C572 0.929 . S
H585 C574 0.929 . S
O586 Co561 2.351 . S
O586 C589 1.244 . S
O587 Co561 2.155 . S
O587 C589 1.240 . S
O588 Co561 2.096 . S
O588 C569 1.247 . S
C589 O586 1.244 . S
C589 O587 1.240 . S
H590 C564 0.931 . S
H591 C573 0.931 . S
H592 C577 0.929 . S
H593 C579 0.930 . S
Co594 N598 2.148 . S
Co594 N604 2.128 . S
Co594 N614 2.194 . S
Co594 O619 2.351 . S
Co594 O620 2.155 . S
Co594 O621 2.096 . S
C595 N598 1.301 . S
C595 N599 1.328 . S
C595 H600 0.930 . S
C596 C597 1.333 . S
C596 N598 1.317 . S
C596 H601 0.930 . S
C597 C596 1.333 . S
C597 N599 1.350 . S
C597 H623 0.931 . S
N598 Co594 2.148 . S
N598 C595 1.301 . S
N598 C596 1.317 . S
N599 C595 1.328 . S
N599 C597 1.350 . S
H600 C595 0.930 . S
H601 C596 0.930 . S
C602 O603 1.224 . S
C602 O621 1.247 . S
O603 C602 1.224 . S
N604 Co594 2.128 . S
N604 C605 1.355 . S
N604 C607 1.311 . S
C605 N604 1.355 . S
C605 C606 1.363 . S
C605 H617 0.929 . S
C606 C605 1.363 . S
C606 N608 1.375 . S
C606 H624 0.931 . S
C607 N604 1.311 . S
C607 N608 1.347 . S
C607 H618 0.929 . S
N608 C606 1.375 . S
N608 C607 1.347 . S
C609 C612 1.365 . S
C609 N614 1.328 . S
C609 H615 0.929 . S
C610 C611 1.362 . S
C610 C613 1.378 . S
C610 H625 0.929 . S
C611 C610 1.362 . S
C611 C612 1.366 . S
C612 C609 1.365 . S
C612 C611 1.366 . S
C612 H626 0.930 . S
C613 C610 1.378 . S
C613 N614 1.315 . S
C613 H616 0.930 . S
N614 Co594 2.194 . S
N614 C609 1.328 . S
N614 C613 1.315 . S
H615 C609 0.929 . S
H616 C613 0.930 . S
H617 C605 0.929 . S
H618 C607 0.929 . S
O619 Co594 2.351 . S
O619 C622 1.244 . S
O620 Co594 2.155 . S
O620 C622 1.240 . S
O621 Co594 2.096 . S
O621 C602 1.247 . S
C622 O619 1.244 . S
C622 O620 1.240 . S
H623 C597 0.931 . S
H624 C606 0.931 . S
H625 C610 0.929 . S
H626 C612 0.930 . S
Co627 N631 2.148 . S
Co627 N637 2.128 . S
Co627 N647 2.194 . S
Co627 O652 2.351 . S
Co627 O653 2.155 . S
Co627 O654 2.096 . S
C628 N631 1.301 . S
C628 N632 1.328 . S
C628 H633 0.930 . S
C629 C630 1.333 . S
C629 N631 1.317 . S
C629 H634 0.930 . S
C630 C629 1.333 . S
C630 N632 1.350 . S
C630 H656 0.931 . S
N631 Co627 2.148 . S
N631 C628 1.301 . S
N631 C629 1.317 . S
N632 C628 1.328 . S
N632 C630 1.350 . S
H633 C628 0.930 . S
H634 C629 0.930 . S
C635 O636 1.224 . S
C635 O654 1.247 . S
O636 C635 1.224 . S
N637 Co627 2.128 . S
N637 C638 1.355 . S
N637 C640 1.311 . S
C638 N637 1.355 . S
C638 C639 1.363 . S
C638 H650 0.929 . S
C639 C638 1.363 . S
C639 N641 1.375 . S
C639 H657 0.931 . S
C640 N637 1.311 . S
C640 N641 1.347 . S
C640 H651 0.929 . S
N641 C639 1.375 . S
N641 C640 1.347 . S
C642 C645 1.365 . S
C642 N647 1.328 . S
C642 H648 0.929 . S
C643 C644 1.362 . S
C643 C646 1.378 . S
C643 H658 0.929 . S
C644 C643 1.362 . S
C644 C645 1.366 . S
C645 C642 1.365 . S
C645 C644 1.366 . S
C645 H659 0.930 . S
C646 C643 1.378 . S
C646 N647 1.315 . S
C646 H649 0.930 . S
N647 Co627 2.194 . S
N647 C642 1.328 . S
N647 C646 1.315 . S
H648 C642 0.929 . S
H649 C646 0.930 . S
H650 C638 0.929 . S
H651 C640 0.929 . S
O652 Co627 2.351 . S
O652 C655 1.226 1_565 S
O653 Co627 2.155 . S
O653 C655 1.232 1_565 S
O654 Co627 2.096 . S
O654 C635 1.247 . S
C655 O652 1.226 1_545 S
C655 O653 1.232 1_545 S
H656 C630 0.931 . S
H657 C639 0.931 . S
H658 C643 0.929 . S
H659 C645 0.930 . S
Co660 N664 2.148 . S
Co660 N670 2.128 . S
Co660 N680 2.194 . S
Co660 O685 2.351 . S
Co660 O686 2.155 . S
Co660 O687 2.096 . S
C661 N664 1.301 . S
C661 N665 1.328 . S
C661 H666 0.930 . S
C662 C663 1.333 . S
C662 N664 1.317 . S
C662 H667 0.930 . S
C663 C662 1.333 . S
C663 N665 1.350 . S
C663 H689 0.931 . S
N664 Co660 2.148 . S
N664 C661 1.301 . S
N664 C662 1.317 . S
N665 C661 1.328 . S
N665 C663 1.350 . S
H666 C661 0.930 . S
H667 C662 0.930 . S
C668 O669 1.224 . S
C668 O687 1.247 . S
O669 C668 1.224 . S
N670 Co660 2.128 . S
N670 C671 1.355 . S
N670 C673 1.311 . S
C671 N670 1.355 . S
C671 C672 1.363 . S
C671 H683 0.929 . S
C672 C671 1.363 . S
C672 N674 1.375 . S
C672 H690 0.931 . S
C673 N670 1.311 . S
C673 N674 1.347 . S
C673 H684 0.929 . S
N674 C672 1.375 . S
N674 C673 1.347 . S
C675 C678 1.365 . S
C675 N680 1.328 . S
C675 H681 0.929 . S
C676 C677 1.362 . S
C676 C679 1.378 . S
C676 H691 0.929 . S
C677 C676 1.362 . S
C677 C678 1.366 . S
C678 C675 1.365 . S
C678 C677 1.366 . S
C678 H692 0.930 . S
C679 C676 1.378 . S
C679 N680 1.315 . S
C679 H682 0.930 . S
N680 Co660 2.194 . S
N680 C675 1.328 . S
N680 C679 1.315 . S
H681 C675 0.929 . S
H682 C679 0.930 . S
H683 C671 0.929 . S
H684 C673 0.929 . S
O685 Co660 2.351 . S
O685 C688 1.244 . S
O686 Co660 2.155 . S
O686 C688 1.240 . S
O687 Co660 2.096 . S
O687 C668 1.247 . S
C688 O685 1.244 . S
C688 O686 1.240 . S
H689 C663 0.931 . S
H690 C672 0.931 . S
H691 C676 0.929 . S
H692 C678 0.930 . S
Co693 N697 2.148 . S
Co693 N703 2.128 . S
Co693 N713 2.194 . S
Co693 O718 2.351 . S
Co693 O719 2.155 . S
Co693 O720 2.096 . S
C694 N697 1.301 . S
C694 N698 1.328 . S
C694 H699 0.930 . S
C695 C696 1.333 . S
C695 N697 1.317 . S
C695 H700 0.930 . S
C696 C695 1.333 . S
C696 N698 1.350 . S
C696 H722 0.931 . S
N697 Co693 2.148 . S
N697 C694 1.301 . S
N697 C695 1.317 . S
N698 C694 1.328 . S
N698 C696 1.350 . S
H699 C694 0.930 . S
H700 C695 0.930 . S
C701 O702 1.224 . S
C701 O720 1.247 . S
O702 C701 1.224 . S
N703 Co693 2.128 . S
N703 C704 1.355 . S
N703 C706 1.311 . S
C704 N703 1.355 . S
C704 C705 1.363 . S
C704 H716 0.929 . S
C705 C704 1.363 . S
C705 N707 1.375 . S
C705 H723 0.931 . S
C706 N703 1.311 . S
C706 N707 1.347 . S
C706 H717 0.929 . S
N707 C705 1.375 . S
N707 C706 1.347 . S
C708 C711 1.365 . S
C708 N713 1.328 . S
C708 H714 0.929 . S
C709 C710 1.362 . S
C709 C712 1.378 . S
C709 H724 0.929 . S
C710 C709 1.362 . S
C710 C711 1.366 . S
C711 C708 1.365 . S
C711 C710 1.366 . S
C711 H725 0.930 . S
C712 C709 1.378 . S
C712 N713 1.315 . S
C712 H715 0.930 . S
N713 Co693 2.194 . S
N713 C708 1.328 . S
N713 C712 1.315 . S
H714 C708 0.929 . S
H715 C712 0.930 . S
H716 C704 0.929 . S
H717 C706 0.929 . S
O718 Co693 2.351 . S
O718 C721 1.244 . S
O719 Co693 2.155 . S
O719 C721 1.240 . S
O720 Co693 2.096 . S
O720 C701 1.247 . S
C721 O718 1.244 . S
C721 O719 1.240 . S
H722 C696 0.931 . S
H723 C705 0.931 . S
H724 C709 0.929 . S
H725 C711 0.930 . S
Co726 N730 2.148 . S
Co726 N736 2.128 . S
Co726 N746 2.194 . S
Co726 O751 2.351 . S
Co726 O752 2.155 . S
Co726 O753 2.096 . S
C727 N730 1.301 . S
C727 N731 1.328 . S
C727 H732 0.930 . S
C728 C729 1.333 . S
C728 N730 1.317 . S
C728 H733 0.930 . S
C729 C728 1.333 . S
C729 N731 1.350 . S
C729 H755 0.931 . S
N730 Co726 2.148 . S
N730 C727 1.301 . S
N730 C728 1.317 . S
N731 C727 1.328 . S
N731 C729 1.350 . S
H732 C727 0.930 . S
H733 C728 0.930 . S
C734 O735 1.224 . S
C734 O753 1.247 . S
O735 C734 1.224 . S
N736 Co726 2.128 . S
N736 C737 1.355 . S
N736 C739 1.311 . S
C737 N736 1.355 . S
C737 C738 1.363 . S
C737 H749 0.929 . S
C738 C737 1.363 . S
C738 N740 1.375 . S
C738 H756 0.931 . S
C739 N736 1.311 . S
C739 N740 1.347 . S
C739 H750 0.929 . S
N740 C738 1.375 . S
N740 C739 1.347 . S
C741 C744 1.365 . S
C741 N746 1.328 . S
C741 H747 0.929 . S
C742 C743 1.362 . S
C742 C745 1.378 . S
C742 H757 0.929 . S
C743 C742 1.362 . S
C743 C744 1.366 . S
C744 C741 1.365 . S
C744 C743 1.366 . S
C744 H758 0.930 . S
C745 C742 1.378 . S
C745 N746 1.315 . S
C745 H748 0.930 . S
N746 Co726 2.194 . S
N746 C741 1.328 . S
N746 C745 1.315 . S
H747 C741 0.929 . S
H748 C745 0.930 . S
H749 C737 0.929 . S
H750 C739 0.929 . S
O751 Co726 2.351 . S
O751 C754 1.244 . S
O752 Co726 2.155 . S
O752 C754 1.240 . S
O753 Co726 2.096 . S
O753 C734 1.247 . S
C754 O751 1.244 . S
C754 O752 1.240 . S
H755 C729 0.931 . S
H756 C738 0.931 . S
H757 C742 0.929 . S
H758 C744 0.930 . S
Co759 N763 2.148 . S
Co759 N769 2.128 . S
Co759 N779 2.194 . S
Co759 O784 2.351 . S
Co759 O785 2.155 . S
Co759 O786 2.096 . S
C760 N763 1.301 . S
C760 N764 1.328 . S
C760 H765 0.930 . S
C761 C762 1.339 . S
C761 N763 1.291 1_565 S
C761 H766 0.948 . S
C762 C761 1.339 . S
C762 N764 1.350 1_565 S
C762 H788 0.931 . S
N763 Co759 2.148 . S
N763 C760 1.301 . S
N763 C761 1.291 1_545 S
N764 C760 1.328 . S
N764 C762 1.350 1_545 S
H765 C760 0.930 . S
H766 C761 0.948 . S
C767 O768 1.224 1_565 S
C767 O786 1.246 1_565 S
O768 C767 1.224 1_545 S
N769 Co759 2.128 . S
N769 C770 1.355 . S
N769 C772 1.311 . S
C770 N769 1.355 . S
C770 C771 1.363 . S
C770 H782 0.929 . S
C771 C770 1.363 . S
C771 N773 1.375 . S
C771 H789 0.931 . S
C772 N769 1.311 . S
C772 N773 1.347 . S
C772 H783 0.929 . S
N773 C771 1.375 . S
N773 C772 1.347 . S
C774 C777 1.365 . S
C774 N779 1.328 . S
C774 H780 0.929 . S
C775 C776 1.362 . S
C775 C778 1.378 . S
C775 H790 0.929 . S
C776 C775 1.362 . S
C776 C777 1.366 . S
C777 C774 1.365 . S
C777 C776 1.366 . S
C777 H791 0.930 . S
C778 C775 1.378 . S
C778 N779 1.315 . S
C778 H781 0.930 . S
N779 Co759 2.194 . S
N779 C774 1.328 . S
N779 C778 1.315 . S
H780 C774 0.929 . S
H781 C778 0.930 . S
H782 C770 0.929 . S
H783 C772 0.929 . S
O784 Co759 2.351 . S
O784 C787 1.244 . S
O785 Co759 2.155 . S
O785 C787 1.240 . S
O786 Co759 2.096 . S
O786 C767 1.246 1_545 S
C787 O784 1.244 . S
C787 O785 1.240 . S
H788 C762 0.931 . S
H789 C771 0.931 . S
H790 C775 0.929 . S
H791 C777 0.930 . S
Co792 N796 2.148 . S
Co792 N802 2.128 . S
Co792 N812 2.194 . S
Co792 O817 2.351 . S
Co792 O818 2.155 . S
Co792 O819 2.096 . S
C793 N796 1.301 . S
C793 N797 1.328 . S
C793 H798 0.930 . S
C794 C795 1.333 . S
C794 N796 1.317 . S
C794 H799 0.930 . S
C795 C794 1.333 . S
C795 N797 1.350 . S
C795 H821 0.931 . S
N796 Co792 2.148 . S
N796 C793 1.301 . S
N796 C794 1.317 . S
N797 C793 1.328 . S
N797 C795 1.350 . S
H798 C793 0.930 . S
H799 C794 0.930 . S
C800 O801 1.224 . S
C800 O819 1.247 . S
O801 C800 1.224 . S
N802 Co792 2.128 . S
N802 C803 1.355 . S
N802 C805 1.311 . S
C803 N802 1.355 . S
C803 C804 1.363 . S
C803 H815 0.929 . S
C804 C803 1.363 . S
C804 N806 1.375 . S
C804 H822 0.931 . S
C805 N802 1.311 . S
C805 N806 1.347 . S
C805 H816 0.929 . S
N806 C804 1.375 . S
N806 C805 1.347 . S
C807 C810 1.365 . S
C807 N812 1.328 . S
C807 H813 0.929 . S
C808 C809 1.362 . S
C808 C811 1.378 . S
C808 H823 0.929 . S
C809 C808 1.362 . S
C809 C810 1.366 . S
C810 C807 1.365 . S
C810 C809 1.366 . S
C810 H824 0.930 . S
C811 C808 1.378 . S
C811 N812 1.315 . S
C811 H814 0.930 . S
N812 Co792 2.194 . S
N812 C807 1.328 . S
N812 C811 1.315 . S
H813 C807 0.929 . S
H814 C811 0.930 . S
H815 C803 0.929 . S
H816 C805 0.929 . S
O817 Co792 2.351 . S
O817 C820 1.242 . S
O818 Co792 2.155 . S
O818 C820 1.239 . S
O819 Co792 2.096 . S
O819 C800 1.247 . S
C820 O817 1.242 . S
C820 O818 1.239 . S
H821 C795 0.931 . S
H822 C804 0.931 . S
H823 C808 0.929 . S
H824 C810 0.930 . S
Co825 N829 2.148 . S
Co825 N835 2.128 . S
Co825 N845 2.194 . S
Co825 O850 2.351 . S
Co825 O851 2.155 . S
Co825 O852 2.096 . S
C826 N829 1.301 . S
C826 N830 1.328 . S
C826 H831 0.930 . S
C827 C828 1.333 . S
C827 N829 1.317 1_455 S
C827 H832 0.930 . S
C828 C827 1.333 . S
C828 N830 1.350 1_455 S
C828 H854 0.931 . S
N829 Co825 2.148 . S
N829 C826 1.301 . S
N829 C827 1.317 1_655 S
N830 C826 1.328 . S
N830 C828 1.350 1_655 S
H831 C826 0.930 . S
H832 C827 0.930 . S
C833 O834 1.211 1_455 S
C833 O852 1.235 1_455 S
O834 C833 1.211 1_655 S
N835 Co825 2.128 . S
N835 C836 1.355 . S
N835 C838 1.311 . S
C836 N835 1.355 . S
C836 C837 1.363 . S
C836 H848 0.929 . S
C837 C836 1.363 . S
C837 N839 1.375 . S
C837 H855 0.931 . S
C838 N835 1.311 . S
C838 N839 1.347 . S
C838 H849 0.929 . S
N839 C837 1.375 . S
N839 C838 1.347 . S
C840 C843 1.365 . S
C840 N845 1.328 . S
C840 H846 0.929 . S
C841 C842 1.362 . S
C841 C844 1.378 . S
C841 H856 0.929 . S
C842 C841 1.362 . S
C842 C843 1.366 . S
C843 C840 1.365 . S
C843 C842 1.366 . S
C843 H857 0.930 . S
C844 C841 1.378 . S
C844 N845 1.315 . S
C844 H847 0.930 . S
N845 Co825 2.194 . S
N845 C840 1.328 . S
N845 C844 1.315 . S
H846 C840 0.929 . S
H847 C844 0.930 . S
H848 C836 0.929 . S
H849 C838 0.929 . S
O850 Co825 2.351 . S
O850 C853 1.244 . S
O851 Co825 2.155 . S
O851 C853 1.240 . S
O852 Co825 2.096 . S
O852 C833 1.235 1_655 S
C853 O850 1.244 . S
C853 O851 1.240 . S
H854 C828 0.931 . S
H855 C837 0.931 . S
H856 C841 0.929 . S
H857 C843 0.930 . S
Co858 N862 2.148 . S
Co858 N868 2.128 . S
Co858 N878 2.194 . S
Co858 O883 2.351 . S
Co858 O884 2.155 . S
Co858 O885 2.096 . S
C859 N862 1.301 . S
C859 N863 1.328 . S
C859 H864 0.930 . S
C860 C861 1.333 . S
C860 N862 1.317 . S
C860 H865 0.930 . S
C861 C860 1.333 . S
C861 N863 1.350 . S
C861 H887 0.931 . S
N862 Co858 2.148 . S
N862 C859 1.301 . S
N862 C860 1.317 . S
N863 C859 1.328 . S
N863 C861 1.350 . S
H864 C859 0.930 . S
H865 C860 0.930 . S
C866 O867 1.224 . S
C866 O885 1.247 . S
O867 C866 1.224 . S
N868 Co858 2.128 . S
N868 C869 1.355 . S
N868 C871 1.311 . S
C869 N868 1.355 . S
C869 C870 1.363 . S
C869 H881 0.929 . S
C870 C869 1.363 . S
C870 N872 1.375 . S
C870 H888 0.931 . S
C871 N868 1.311 . S
C871 N872 1.347 . S
C871 H882 0.929 . S
N872 C870 1.375 . S
N872 C871 1.347 . S
C873 C876 1.365 . S
C873 N878 1.328 . S
C873 H879 0.929 . S
C874 C875 1.362 . S
C874 C877 1.378 . S
C874 H889 0.929 . S
C875 C874 1.362 . S
C875 C876 1.366 . S
C876 C873 1.365 . S
C876 C875 1.366 . S
C876 H890 0.930 . S
C877 C874 1.378 . S
C877 N878 1.315 . S
C877 H880 0.930 . S
N878 Co858 2.194 . S
N878 C873 1.328 . S
N878 C877 1.315 . S
H879 C873 0.929 . S
H880 C877 0.930 . S
H881 C869 0.929 . S
H882 C871 0.929 . S
O883 Co858 2.351 . S
O883 C886 1.253 . S
O884 Co858 2.155 . S
O884 C886 1.243 . S
O885 Co858 2.096 . S
O885 C866 1.247 . S
C886 O883 1.253 . S
C886 O884 1.243 . S
H887 C861 0.931 . S
H888 C870 0.931 . S
H889 C874 0.929 . S
H890 C876 0.930 . S
Co891 N895 2.148 . S
Co891 N901 2.128 . S
Co891 N911 2.194 . S
Co891 O916 2.351 . S
Co891 O917 2.155 . S
Co891 O918 2.096 . S
C892 N895 1.301 . S
C892 N896 1.328 . S
C892 H897 0.930 . S
C893 C894 1.333 1_455 S
C893 N895 1.318 . S
C893 H898 0.929 1_455 S
C894 C893 1.333 1_655 S
C894 N896 1.350 1_655 S
C894 H920 0.931 . S
N895 Co891 2.148 . S
N895 C892 1.301 . S
N895 C893 1.318 . S
N896 C892 1.328 . S
N896 C894 1.350 1_455 S
H897 C892 0.930 . S
H898 C893 0.929 1_655 S
C899 O900 1.235 . S
C899 O918 1.256 . S
O900 C899 1.235 . S
N901 Co891 2.128 . S
N901 C902 1.355 . S
N901 C904 1.311 . S
C902 N901 1.355 . S
C902 C903 1.363 . S
C902 H914 0.929 . S
C903 C902 1.363 . S
C903 N905 1.375 . S
C903 H921 0.931 . S
C904 N901 1.311 . S
C904 N905 1.347 . S
C904 H915 0.929 . S
N905 C903 1.375 . S
N905 C904 1.347 . S
C906 C909 1.365 . S
C906 N911 1.328 . S
C906 H912 0.929 . S
C907 C908 1.362 . S
C907 C910 1.378 . S
C907 H922 0.929 . S
C908 C907 1.362 . S
C908 C909 1.366 . S
C909 C906 1.365 . S
C909 C908 1.366 . S
C909 H923 0.930 . S
C910 C907 1.378 . S
C910 N911 1.315 . S
C910 H913 0.930 . S
N911 Co891 2.194 . S
N911 C906 1.328 . S
N911 C910 1.315 . S
H912 C906 0.929 . S
H913 C910 0.930 . S
H914 C902 0.929 . S
H915 C904 0.929 . S
O916 Co891 2.351 . S
O916 C919 1.244 . S
O917 Co891 2.155 . S
O917 C919 1.240 . S
O918 Co891 2.096 . S
O918 C899 1.256 . S
C919 O916 1.244 . S
C919 O917 1.240 . S
H920 C894 0.931 . S
H921 C903 0.931 . S
H922 C907 0.929 . S
H923 C909 0.930 . S
Co924 N928 2.148 . S
Co924 N934 2.128 . S
Co924 N944 2.194 . S
Co924 O949 2.351 . S
Co924 O950 2.155 . S
Co924 O951 2.096 . S
C925 N928 1.301 . S
C925 N929 1.328 . S
C925 H930 0.930 . S
C926 C927 1.333 . S
C926 N928 1.317 . S
C926 H931 0.930 . S
C927 C926 1.333 . S
C927 N929 1.350 . S
C927 H953 0.931 . S
N928 Co924 2.148 . S
N928 C925 1.301 . S
N928 C926 1.317 . S
N929 C925 1.328 . S
N929 C927 1.350 . S
H930 C925 0.930 . S
H931 C926 0.930 . S
C932 O933 1.224 . S
C932 O951 1.247 . S
O933 C932 1.224 . S
N934 Co924 2.128 . S
N934 C935 1.355 . S
N934 C937 1.311 . S
C935 N934 1.355 . S
C935 C936 1.363 . S
C935 H947 0.929 . S
C936 C935 1.363 . S
C936 N938 1.375 . S
C936 H954 0.931 . S
C937 N934 1.311 . S
C937 N938 1.347 . S
C937 H948 0.929 . S
N938 C936 1.375 . S
N938 C937 1.347 . S
C939 C942 1.365 . S
C939 N944 1.328 . S
C939 H945 0.929 . S
C940 C941 1.362 . S
C940 C943 1.378 . S
C940 H955 0.929 . S
C941 C940 1.362 . S
C941 C942 1.366 . S
C942 C939 1.365 . S
C942 C941 1.366 . S
C942 H956 0.930 . S
C943 C940 1.378 . S
C943 N944 1.315 . S
C943 H946 0.930 . S
N944 Co924 2.194 . S
N944 C939 1.328 . S
N944 C943 1.315 . S
H945 C939 0.929 . S
H946 C943 0.930 . S
H947 C935 0.929 . S
H948 C937 0.929 . S
O949 Co924 2.351 . S
O949 C952 1.244 . S
O950 Co924 2.155 . S
O950 C952 1.240 . S
O951 Co924 2.096 . S
O951 C932 1.247 . S
C952 O949 1.244 . S
C952 O950 1.240 . S
H953 C927 0.931 . S
H954 C936 0.931 . S
H955 C940 0.929 . S
H956 C942 0.930 . S
Co957 N961 2.148 . S
Co957 N967 2.128 . S
Co957 N977 2.194 . S
Co957 O982 2.351 . S
Co957 O983 2.155 . S
Co957 O984 2.096 . S
C958 N961 1.301 . S
C958 N962 1.328 . S
C958 H963 0.930 . S
C959 C960 1.333 . S
C959 N961 1.317 . S
C959 H964 0.930 . S
C960 C959 1.333 . S
C960 N962 1.350 . S
C960 H986 0.931 . S
N961 Co957 2.148 . S
N961 C958 1.301 . S
N961 C959 1.317 . S
N962 C958 1.328 . S
N962 C960 1.350 . S
H963 C958 0.930 . S
H964 C959 0.930 . S
C965 O966 1.224 . S
C965 O984 1.247 . S
O966 C965 1.224 . S
N967 Co957 2.128 . S
N967 C968 1.355 . S
N967 C970 1.311 . S
C968 N967 1.355 . S
C968 C969 1.363 . S
C968 H980 0.929 . S
C969 C968 1.363 . S
C969 N971 1.375 . S
C969 H987 0.931 . S
C970 N967 1.311 . S
C970 N971 1.347 . S
C970 H981 0.929 . S
N971 C969 1.375 . S
N971 C970 1.347 . S
C972 C975 1.365 . S
C972 N977 1.328 . S
C972 H978 0.929 . S
C973 C974 1.362 . S
C973 C976 1.378 . S
C973 H988 0.929 . S
C974 C973 1.362 . S
C974 C975 1.366 . S
C975 C972 1.365 . S
C975 C974 1.366 . S
C975 H989 0.930 . S
C976 C973 1.378 . S
C976 N977 1.315 . S
C976 H979 0.930 . S
N977 Co957 2.194 . S
N977 C972 1.328 . S
N977 C976 1.315 . S
H978 C972 0.929 . S
H979 C976 0.930 . S
H980 C968 0.929 . S
H981 C970 0.929 . S
O982 Co957 2.351 . S
O982 C985 1.244 . S
O983 Co957 2.155 . S
O983 C985 1.240 . S
O984 Co957 2.096 . S
O984 C965 1.247 . S
C985 O982 1.244 . S
C985 O983 1.240 . S
H986 C960 0.931 . S
H987 C969 0.931 . S
H988 C973 0.929 . S
H989 C975 0.930 . S
Co990 N994 2.148 . S
Co990 N1000 2.128 . S
Co990 N1010 2.194 . S
Co990 O1015 2.351 . S
Co990 O1016 2.155 . S
Co990 O1017 2.096 . S
C991 N994 1.301 . S
C991 N995 1.328 . S
C991 H996 0.930 . S
C992 C993 1.333 . S
C992 N994 1.317 . S
C992 H997 0.930 . S
C993 C992 1.333 . S
C993 N995 1.350 . S
C993 H1019 0.931 . S
N994 Co990 2.148 . S
N994 C991 1.301 . S
N994 C992 1.317 . S
N995 C991 1.328 . S
N995 C993 1.350 . S
H996 C991 0.930 . S
H997 C992 0.930 . S
C998 O999 1.224 . S
C998 O1017 1.247 . S
O999 C998 1.224 . S
N1000 Co990 2.128 . S
N1000 C1001 1.355 . S
N1000 C1003 1.311 . S
C1001 N1000 1.355 . S
C1001 C1002 1.363 . S
C1001 H1013 0.929 . S
C1002 C1001 1.363 . S
C1002 N1004 1.375 . S
C1002 H1020 0.931 . S
C1003 N1000 1.311 . S
C1003 N1004 1.347 . S
C1003 H1014 0.929 . S
N1004 C1002 1.375 . S
N1004 C1003 1.347 . S
C1005 C1008 1.365 . S
C1005 N1010 1.328 . S
C1005 H1011 0.929 . S
C1006 C1007 1.362 . S
C1006 C1009 1.378 . S
C1006 H1021 0.929 . S
C1007 C1006 1.362 . S
C1007 C1008 1.366 . S
C1008 C1005 1.365 . S
C1008 C1007 1.366 . S
C1008 H1022 0.930 . S
C1009 C1006 1.378 . S
C1009 N1010 1.315 . S
C1009 H1012 0.930 . S
N1010 Co990 2.194 . S
N1010 C1005 1.328 . S
N1010 C1009 1.315 . S
H1011 C1005 0.929 . S
H1012 C1009 0.930 . S
H1013 C1001 0.929 . S
H1014 C1003 0.929 . S
O1015 Co990 2.351 . S
O1015 C1018 1.244 . S
O1016 Co990 2.155 . S
O1016 C1018 1.240 . S
O1017 Co990 2.096 . S
O1017 C998 1.247 . S
C1018 O1015 1.244 . S
C1018 O1016 1.240 . S
H1019 C993 0.931 . S
H1020 C1002 0.931 . S
H1021 C1006 0.929 . S
H1022 C1008 0.930 . S
Co1023 N1027 2.148 . S
Co1023 N1033 2.128 . S
Co1023 N1043 2.194 . S
Co1023 O1048 2.351 . S
Co1023 O1049 2.155 . S
Co1023 O1050 2.096 . S
C1024 N1027 1.301 . S
C1024 N1028 1.328 . S
C1024 H1029 0.930 . S
C1025 C1026 1.333 . S
C1025 N1027 1.317 . S
C1025 H1030 0.930 . S
C1026 C1025 1.333 . S
C1026 N1028 1.350 . S
C1026 H1052 0.931 . S
N1027 Co1023 2.148 . S
N1027 C1024 1.301 . S
N1027 C1025 1.317 . S
N1028 C1024 1.328 . S
N1028 C1026 1.350 . S
H1029 C1024 0.930 . S
H1030 C1025 0.930 . S
C1031 O1032 1.224 . S
C1031 O1050 1.247 . S
O1032 C1031 1.224 . S
N1033 Co1023 2.128 . S
N1033 C1034 1.355 . S
N1033 C1036 1.311 . S
C1034 N1033 1.355 . S
C1034 C1035 1.363 . S
C1034 H1046 0.929 . S
C1035 C1034 1.363 . S
C1035 N1037 1.375 . S
C1035 H1053 0.931 . S
C1036 N1033 1.311 . S
C1036 N1037 1.347 . S
C1036 H1047 0.929 . S
N1037 C1035 1.375 . S
N1037 C1036 1.347 . S
C1038 C1041 1.365 . S
C1038 N1043 1.328 . S
C1038 H1044 0.929 . S
C1039 C1040 1.362 . S
C1039 C1042 1.378 . S
C1039 H1054 0.929 . S
C1040 C1039 1.362 . S
C1040 C1041 1.366 . S
C1041 C1038 1.365 . S
C1041 C1040 1.366 . S
C1041 H1055 0.930 . S
C1042 C1039 1.378 . S
C1042 N1043 1.315 . S
C1042 H1045 0.930 . S
N1043 Co1023 2.194 . S
N1043 C1038 1.328 . S
N1043 C1042 1.315 . S
H1044 C1038 0.929 . S
H1045 C1042 0.930 . S
H1046 C1034 0.929 . S
H1047 C1036 0.929 . S
O1048 Co1023 2.351 . S
O1048 C1051 1.244 . S
O1049 Co1023 2.155 . S
O1049 C1051 1.240 . S
O1050 Co1023 2.096 . S
O1050 C1031 1.247 . S
C1051 O1048 1.244 . S
C1051 O1049 1.240 . S
H1052 C1026 0.931 . S
H1053 C1035 0.931 . S
H1054 C1039 0.929 . S
H1055 C1041 0.930 . S
Co1056 N1060 2.148 . S
Co1056 N1066 2.128 . S
Co1056 N1076 2.194 . S
Co1056 O1081 2.351 . S
Co1056 O1082 2.155 . S
Co1056 O1083 2.096 . S
C1057 N1060 1.301 . S
C1057 N1061 1.328 . S
C1057 H1062 0.930 . S
C1058 C1059 1.333 . S
C1058 N1060 1.317 . S
C1058 H1063 0.930 . S
C1059 C1058 1.333 . S
C1059 N1061 1.350 . S
C1059 H1085 0.931 . S
N1060 Co1056 2.148 . S
N1060 C1057 1.301 . S
N1060 C1058 1.317 . S
N1061 C1057 1.328 . S
N1061 C1059 1.350 . S
H1062 C1057 0.930 . S
H1063 C1058 0.930 . S
C1064 O1065 1.224 . S
C1064 O1083 1.247 . S
O1065 C1064 1.224 . S
N1066 Co1056 2.128 . S
N1066 C1067 1.355 . S
N1066 C1069 1.311 . S
C1067 N1066 1.355 . S
C1067 C1068 1.363 . S
C1067 H1079 0.929 . S
C1068 C1067 1.363 . S
C1068 N1070 1.375 . S
C1068 H1086 0.931 . S
C1069 N1066 1.311 . S
C1069 N1070 1.347 . S
C1069 H1080 0.929 . S
N1070 C1068 1.375 . S
N1070 C1069 1.347 . S
C1071 C1074 1.365 . S
C1071 N1076 1.328 . S
C1071 H1077 0.929 . S
C1072 C1073 1.362 . S
C1072 C1075 1.378 . S
C1072 H1087 0.929 . S
C1073 C1072 1.362 . S
C1073 C1074 1.366 . S
C1074 C1071 1.365 . S
C1074 C1073 1.366 . S
C1074 H1088 0.930 . S
C1075 C1072 1.378 . S
C1075 N1076 1.315 . S
C1075 H1078 0.930 . S
N1076 Co1056 2.194 . S
N1076 C1071 1.328 . S
N1076 C1075 1.315 . S
H1077 C1071 0.929 . S
H1078 C1075 0.930 . S
H1079 C1067 0.929 . S
H1080 C1069 0.929 . S
O1081 Co1056 2.351 . S
O1081 C1084 1.244 . S
O1082 Co1056 2.155 . S
O1082 C1084 1.240 . S
O1083 Co1056 2.096 . S
O1083 C1064 1.247 . S
C1084 O1081 1.244 . S
C1084 O1082 1.240 . S
H1085 C1059 0.931 . S
H1086 C1068 0.931 . S
H1087 C1072 0.929 . S
H1088 C1074 0.930 . S
Co1089 N1093 2.148 . S
Co1089 N1099 2.128 . S
Co1089 N1109 2.194 . S
Co1089 O1114 2.351 . S
Co1089 O1115 2.155 . S
Co1089 O1116 2.096 . S
C1090 N1093 1.301 . S
C1090 N1094 1.328 . S
C1090 H1095 0.930 . S
C1091 C1092 1.333 . S
C1091 N1093 1.317 . S
C1091 H1096 0.930 . S
C1092 C1091 1.333 . S
C1092 N1094 1.350 . S
C1092 H1118 0.931 . S
N1093 Co1089 2.148 . S
N1093 C1090 1.301 . S
N1093 C1091 1.317 . S
N1094 C1090 1.328 . S
N1094 C1092 1.350 . S
H1095 C1090 0.930 . S
H1096 C1091 0.930 . S
C1097 O1098 1.224 . S
C1097 O1116 1.247 . S
O1098 C1097 1.224 . S
N1099 Co1089 2.128 . S
N1099 C1100 1.355 . S
N1099 C1102 1.311 . S
C1100 N1099 1.355 . S
C1100 C1101 1.363 . S
C1100 H1112 0.929 . S
C1101 C1100 1.363 . S
C1101 N1103 1.375 . S
C1101 H1119 0.931 . S
C1102 N1099 1.311 . S
C1102 N1103 1.347 . S
C1102 H1113 0.929 . S
N1103 C1101 1.375 . S
N1103 C1102 1.347 . S
C1104 C1107 1.365 . S
C1104 N1109 1.328 . S
C1104 H1110 0.929 . S
C1105 C1106 1.362 . S
C1105 C1108 1.378 . S
C1105 H1120 0.929 . S
C1106 C1105 1.362 . S
C1106 C1107 1.366 . S
C1107 C1104 1.365 . S
C1107 C1106 1.366 . S
C1107 H1121 0.930 . S
C1108 C1105 1.378 . S
C1108 N1109 1.315 . S
C1108 H1111 0.930 . S
N1109 Co1089 2.194 . S
N1109 C1104 1.328 . S
N1109 C1108 1.315 . S
H1110 C1104 0.929 . S
H1111 C1108 0.930 . S
H1112 C1100 0.929 . S
H1113 C1102 0.929 . S
O1114 Co1089 2.351 . S
O1114 C1117 1.244 . S
O1115 Co1089 2.155 . S
O1115 C1117 1.240 . S
O1116 Co1089 2.096 . S
O1116 C1097 1.247 . S
C1117 O1114 1.244 . S
C1117 O1115 1.240 . S
H1118 C1092 0.931 . S
H1119 C1101 0.931 . S
H1120 C1105 0.929 . S
H1121 C1107 0.930 . S
Co1122 N1126 2.148 . S
Co1122 N1132 2.128 . S
Co1122 N1142 2.194 . S
Co1122 O1147 2.351 . S
Co1122 O1148 2.155 . S
Co1122 O1149 2.096 . S
C1123 N1126 1.301 . S
C1123 N1127 1.328 . S
C1123 H1128 0.930 . S
C1124 C1125 1.333 . S
C1124 N1126 1.317 . S
C1124 H1129 0.930 . S
C1125 C1124 1.333 . S
C1125 N1127 1.350 . S
C1125 H1151 0.931 . S
N1126 Co1122 2.148 . S
N1126 C1123 1.301 . S
N1126 C1124 1.317 . S
N1127 C1123 1.328 . S
N1127 C1125 1.350 . S
H1128 C1123 0.930 . S
H1129 C1124 0.930 . S
C1130 O1131 1.224 . S
C1130 O1149 1.247 . S
O1131 C1130 1.224 . S
N1132 Co1122 2.128 . S
N1132 C1133 1.355 . S
N1132 C1135 1.311 . S
C1133 N1132 1.355 . S
C1133 C1134 1.363 . S
C1133 H1145 0.929 . S
C1134 C1133 1.363 . S
C1134 N1136 1.375 . S
C1134 H1152 0.931 . S
C1135 N1132 1.311 . S
C1135 N1136 1.347 . S
C1135 H1146 0.929 . S
N1136 C1134 1.375 . S
N1136 C1135 1.347 . S
C1137 C1140 1.365 . S
C1137 N1142 1.328 . S
C1137 H1143 0.929 . S
C1138 C1139 1.362 . S
C1138 C1141 1.378 . S
C1138 H1153 0.929 . S
C1139 C1138 1.362 . S
C1139 C1140 1.366 . S
C1140 C1137 1.365 . S
C1140 C1139 1.366 . S
C1140 H1154 0.930 . S
C1141 C1138 1.378 . S
C1141 N1142 1.315 . S
C1141 H1144 0.930 . S
N1142 Co1122 2.194 . S
N1142 C1137 1.328 . S
N1142 C1141 1.315 . S
H1143 C1137 0.929 . S
H1144 C1141 0.930 . S
H1145 C1133 0.929 . S
H1146 C1135 0.929 . S
O1147 Co1122 2.351 . S
O1147 C1150 1.248 . S
O1148 Co1122 2.155 . S
O1148 C1150 1.241 . S
O1149 Co1122 2.096 . S
O1149 C1130 1.247 . S
C1150 O1147 1.248 . S
C1150 O1148 1.241 . S
H1151 C1125 0.931 . S
H1152 C1134 0.931 . S
H1153 C1138 0.929 . S
H1154 C1140 0.930 . S
Co1155 N1159 2.148 . S
Co1155 N1165 2.128 . S
Co1155 N1175 2.194 . S
Co1155 O1180 2.351 . S
Co1155 O1181 2.155 . S
Co1155 O1182 2.096 . S
C1156 N1159 1.301 . S
C1156 N1160 1.328 . S
C1156 H1161 0.930 . S
C1157 C1158 1.333 . S
C1157 N1159 1.317 . S
C1157 H1162 0.930 . S
C1158 C1157 1.333 . S
C1158 N1160 1.350 . S
C1158 H1184 0.931 . S
N1159 Co1155 2.148 . S
N1159 C1156 1.301 . S
N1159 C1157 1.317 . S
N1160 C1156 1.328 . S
N1160 C1158 1.350 . S
H1161 C1156 0.930 . S
H1162 C1157 0.930 . S
C1163 O1164 1.224 . S
C1163 O1182 1.247 . S
O1164 C1163 1.224 . S
N1165 Co1155 2.128 . S
N1165 C1166 1.355 . S
N1165 C1168 1.311 . S
C1166 N1165 1.355 . S
C1166 C1167 1.363 . S
C1166 H1178 0.929 . S
C1167 C1166 1.363 . S
C1167 N1169 1.375 . S
C1167 H1185 0.931 . S
C1168 N1165 1.311 . S
C1168 N1169 1.347 . S
C1168 H1179 0.929 . S
N1169 C1167 1.375 . S
N1169 C1168 1.347 . S
C1170 C1173 1.365 . S
C1170 N1175 1.328 . S
C1170 H1176 0.929 . S
C1171 C1172 1.362 . S
C1171 C1174 1.378 . S
C1171 H1186 0.929 . S
C1172 C1171 1.362 . S
C1172 C1173 1.366 . S
C1173 C1170 1.365 . S
C1173 C1172 1.366 . S
C1173 H1187 0.930 . S
C1174 C1171 1.378 . S
C1174 N1175 1.315 . S
C1174 H1177 0.930 . S
N1175 Co1155 2.194 . S
N1175 C1170 1.328 . S
N1175 C1174 1.315 . S
H1176 C1170 0.929 . S
H1177 C1174 0.930 . S
H1178 C1166 0.929 . S
H1179 C1168 0.929 . S
O1180 Co1155 2.351 . S
O1180 C1183 1.244 . S
O1181 Co1155 2.155 . S
O1181 C1183 1.240 . S
O1182 Co1155 2.096 . S
O1182 C1163 1.247 . S
C1183 O1180 1.244 . S
C1183 O1181 1.240 . S
H1184 C1158 0.931 . S
H1185 C1167 0.931 . S
H1186 C1171 0.929 . S
H1187 C1173 0.930 . S
Co1188 N1192 2.148 . S
Co1188 N1198 2.128 . S
Co1188 N1208 2.194 . S
Co1188 O1213 2.351 . S
Co1188 O1214 2.155 . S
Co1188 O1215 2.096 . S
C1189 N1192 1.301 . S
C1189 N1193 1.328 . S
C1189 H1194 0.930 . S
C1190 C1191 1.333 . S
C1190 N1192 1.317 . S
C1190 H1195 0.930 . S
C1191 C1190 1.333 . S
C1191 N1193 1.350 . S
C1191 H1217 0.931 . S
N1192 Co1188 2.148 . S
N1192 C1189 1.301 . S
N1192 C1190 1.317 . S
N1193 C1189 1.328 . S
N1193 C1191 1.350 . S
H1194 C1189 0.930 . S
H1195 C1190 0.930 . S
C1196 O1197 1.224 . S
C1196 O1215 1.247 . S
O1197 C1196 1.224 . S
N1198 Co1188 2.128 . S
N1198 C1199 1.355 . S
N1198 C1201 1.311 . S
C1199 N1198 1.355 . S
C1199 C1200 1.363 . S
C1199 H1211 0.929 . S
C1200 C1199 1.363 . S
C1200 N1202 1.375 . S
C1200 H1218 0.931 . S
C1201 N1198 1.311 . S
C1201 N1202 1.347 . S
C1201 H1212 0.929 . S
N1202 C1200 1.375 . S
N1202 C1201 1.347 . S
C1203 C1206 1.365 . S
C1203 N1208 1.328 . S
C1203 H1209 0.929 . S
C1204 C1205 1.362 . S
C1204 C1207 1.378 . S
C1204 H1219 0.929 . S
C1205 C1204 1.362 . S
C1205 C1206 1.366 . S
C1206 C1203 1.365 . S
C1206 C1205 1.366 . S
C1206 H1220 0.930 . S
C1207 C1204 1.378 . S
C1207 N1208 1.315 . S
C1207 H1210 0.930 . S
N1208 Co1188 2.194 . S
N1208 C1203 1.328 . S
N1208 C1207 1.315 . S
H1209 C1203 0.929 . S
H1210 C1207 0.930 . S
H1211 C1199 0.929 . S
H1212 C1201 0.929 . S
O1213 Co1188 2.351 . S
O1213 C1216 1.245 1_655 S
O1214 Co1188 2.155 . S
O1214 C1216 1.240 1_655 S
O1215 Co1188 2.096 . S
O1215 C1196 1.247 . S
C1216 O1213 1.245 1_455 S
C1216 O1214 1.240 1_455 S
H1217 C1191 0.931 . S
H1218 C1200 0.931 . S
H1219 C1204 0.929 . S
H1220 C1206 0.930 . S
Co1221 N1225 2.148 . S
Co1221 N1231 2.128 . S
Co1221 N1241 2.194 . S
Co1221 O1246 2.351 . S
Co1221 O1247 2.155 . S
Co1221 O1248 2.096 . S
C1222 N1225 1.301 . S
C1222 N1226 1.328 . S
C1222 H1227 0.930 . S
C1223 C1224 1.333 . S
C1223 N1225 1.317 . S
C1223 H1228 0.930 . S
C1224 C1223 1.333 . S
C1224 N1226 1.350 . S
C1224 H1250 0.931 . S
N1225 Co1221 2.148 . S
N1225 C1222 1.301 . S
N1225 C1223 1.317 . S
N1226 C1222 1.328 . S
N1226 C1224 1.350 . S
H1227 C1222 0.930 . S
H1228 C1223 0.930 . S
C1229 O1230 1.224 . S
C1229 O1248 1.247 . S
O1230 C1229 1.224 . S
N1231 Co1221 2.128 . S
N1231 C1232 1.355 . S
N1231 C1234 1.311 . S
C1232 N1231 1.355 . S
C1232 C1233 1.363 . S
C1232 H1244 0.929 . S
C1233 C1232 1.363 . S
C1233 N1235 1.375 . S
C1233 H1251 0.931 . S
C1234 N1231 1.311 . S
C1234 N1235 1.347 . S
C1234 H1245 0.929 . S
N1235 C1233 1.375 . S
N1235 C1234 1.347 . S
C1236 C1239 1.365 . S
C1236 N1241 1.328 . S
C1236 H1242 0.929 . S
C1237 C1238 1.362 . S
C1237 C1240 1.378 . S
C1237 H1252 0.929 . S
C1238 C1237 1.362 . S
C1238 C1239 1.366 . S
C1239 C1236 1.365 . S
C1239 C1238 1.366 . S
C1239 H1253 0.930 . S
C1240 C1237 1.378 . S
C1240 N1241 1.315 . S
C1240 H1243 0.930 . S
N1241 Co1221 2.194 . S
N1241 C1236 1.328 . S
N1241 C1240 1.315 . S
H1242 C1236 0.929 . S
H1243 C1240 0.930 . S
H1244 C1232 0.929 . S
H1245 C1234 0.929 . S
O1246 Co1221 2.351 . S
O1246 C1249 1.244 . S
O1247 Co1221 2.155 . S
O1247 C1249 1.240 . S
O1248 Co1221 2.096 . S
O1248 C1229 1.247 . S
C1249 O1246 1.244 . S
C1249 O1247 1.240 . S
H1250 C1224 0.931 . S
H1251 C1233 0.931 . S
H1252 C1237 0.929 . S
H1253 C1239 0.930 . S
Co1254 N1258 2.148 . S
Co1254 N1264 2.128 . S
Co1254 N1274 2.194 . S
Co1254 O1279 2.351 . S
Co1254 O1280 2.155 . S
Co1254 O1281 2.096 . S
C1255 N1258 1.301 . S
C1255 N1259 1.328 . S
C1255 H1260 0.930 . S
C1256 C1257 1.333 . S
C1256 N1258 1.317 . S
C1256 H1261 0.930 . S
C1257 C1256 1.333 . S
C1257 N1259 1.350 . S
C1257 H1283 0.931 . S
N1258 Co1254 2.148 . S
N1258 C1255 1.301 . S
N1258 C1256 1.317 . S
N1259 C1255 1.328 . S
N1259 C1257 1.350 . S
H1260 C1255 0.930 . S
H1261 C1256 0.930 . S
C1262 O1263 1.224 . S
C1262 O1281 1.247 . S
O1263 C1262 1.224 . S
N1264 Co1254 2.128 . S
N1264 C1265 1.355 . S
N1264 C1267 1.311 . S
C1265 N1264 1.355 . S
C1265 C1266 1.363 . S
C1265 H1277 0.929 . S
C1266 C1265 1.363 . S
C1266 N1268 1.375 . S
C1266 H1284 0.931 . S
C1267 N1264 1.311 . S
C1267 N1268 1.347 . S
C1267 H1278 0.929 . S
N1268 C1266 1.375 . S
N1268 C1267 1.347 . S
C1269 C1272 1.365 . S
C1269 N1274 1.328 . S
C1269 H1275 0.929 . S
C1270 C1271 1.362 . S
C1270 C1273 1.378 . S
C1270 H1285 0.929 . S
C1271 C1270 1.362 . S
C1271 C1272 1.366 . S
C1272 C1269 1.365 . S
C1272 C1271 1.366 . S
C1272 H1286 0.930 . S
C1273 C1270 1.378 . S
C1273 N1274 1.315 . S
C1273 H1276 0.930 . S
N1274 Co1254 2.194 . S
N1274 C1269 1.328 . S
N1274 C1273 1.315 . S
H1275 C1269 0.929 . S
H1276 C1273 0.930 . S
H1277 C1265 0.929 . S
H1278 C1267 0.929 . S
O1279 Co1254 2.351 . S
O1279 C1282 1.251 . S
O1280 Co1254 2.155 . S
O1280 C1282 1.242 . S
O1281 Co1254 2.096 . S
O1281 C1262 1.247 . S
C1282 O1279 1.251 . S
C1282 O1280 1.242 . S
H1283 C1257 0.931 . S
H1284 C1266 0.931 . S
H1285 C1270 0.929 . S
H1286 C1272 0.930 . S
Co1287 N1291 2.148 . S
Co1287 N1297 2.128 . S
Co1287 N1307 2.194 . S
Co1287 O1312 2.351 . S
Co1287 O1313 2.155 . S
Co1287 O1314 2.096 . S
C1288 N1291 1.301 . S
C1288 N1292 1.328 . S
C1288 H1293 0.930 . S
C1289 C1290 1.333 . S
C1289 N1291 1.317 . S
C1289 H1294 0.930 . S
C1290 C1289 1.333 . S
C1290 N1292 1.350 . S
C1290 H1316 0.931 . S
N1291 Co1287 2.148 . S
N1291 C1288 1.301 . S
N1291 C1289 1.317 . S
N1292 C1288 1.328 . S
N1292 C1290 1.350 . S
H1293 C1288 0.930 . S
H1294 C1289 0.930 . S
C1295 O1296 1.224 . S
C1295 O1314 1.247 . S
O1296 C1295 1.224 . S
N1297 Co1287 2.128 . S
N1297 C1298 1.355 . S
N1297 C1300 1.311 . S
C1298 N1297 1.355 . S
C1298 C1299 1.363 . S
C1298 H1310 0.929 . S
C1299 C1298 1.363 . S
C1299 N1301 1.375 . S
C1299 H1317 0.931 . S
C1300 N1297 1.311 . S
C1300 N1301 1.347 . S
C1300 H1311 0.929 . S
N1301 C1299 1.375 . S
N1301 C1300 1.347 . S
C1302 C1305 1.365 . S
C1302 N1307 1.328 . S
C1302 H1308 0.929 . S
C1303 C1304 1.362 . S
C1303 C1306 1.378 . S
C1303 H1318 0.929 . S
C1304 C1303 1.362 . S
C1304 C1305 1.366 . S
C1305 C1302 1.365 . S
C1305 C1304 1.366 . S
C1305 H1319 0.930 . S
C1306 C1303 1.378 . S
C1306 N1307 1.315 . S
C1306 H1309 0.930 . S
N1307 Co1287 2.194 . S
N1307 C1302 1.328 . S
N1307 C1306 1.315 . S
H1308 C1302 0.929 . S
H1309 C1306 0.930 . S
H1310 C1298 0.929 . S
H1311 C1300 0.929 . S
O1312 Co1287 2.351 . S
O1312 C1315 1.244 . S
O1313 Co1287 2.155 . S
O1313 C1315 1.240 . S
O1314 Co1287 2.096 . S
O1314 C1295 1.247 . S
C1315 O1312 1.244 . S
C1315 O1313 1.240 . S
H1316 C1290 0.931 . S
H1317 C1299 0.931 . S
H1318 C1303 0.929 . S
H1319 C1305 0.930 . S
Co1320 N1324 2.148 . S
Co1320 N1330 2.128 . S
Co1320 N1340 2.194 . S
Co1320 O1345 2.351 . S
Co1320 O1346 2.155 . S
Co1320 O1347 2.096 . S
C1321 N1324 1.301 . S
C1321 N1325 1.328 . S
C1321 H1326 0.930 . S
C1322 C1323 1.333 . S
C1322 N1324 1.317 . S
C1322 H1327 0.930 . S
C1323 C1322 1.333 . S
C1323 N1325 1.350 . S
C1323 H1349 0.931 . S
N1324 Co1320 2.148 . S
N1324 C1321 1.301 . S
N1324 C1322 1.317 . S
N1325 C1321 1.328 . S
N1325 C1323 1.350 . S
H1326 C1321 0.930 . S
H1327 C1322 0.930 . S
C1328 O1329 1.224 . S
C1328 O1347 1.247 . S
O1329 C1328 1.224 . S
N1330 Co1320 2.128 . S
N1330 C1331 1.355 . S
N1330 C1333 1.311 . S
C1331 N1330 1.355 . S
C1331 C1332 1.363 . S
C1331 H1343 0.929 . S
C1332 C1331 1.363 . S
C1332 N1334 1.375 . S
C1332 H1350 0.931 . S
C1333 N1330 1.311 . S
C1333 N1334 1.347 . S
C1333 H1344 0.929 . S
N1334 C1332 1.375 . S
N1334 C1333 1.347 . S
C1335 C1338 1.365 . S
C1335 N1340 1.328 . S
C1335 H1341 0.929 . S
C1336 C1337 1.362 . S
C1336 C1339 1.378 . S
C1336 H1351 0.929 . S
C1337 C1336 1.362 . S
C1337 C1338 1.366 . S
C1338 C1335 1.365 . S
C1338 C1337 1.366 . S
C1338 H1352 0.930 . S
C1339 C1336 1.378 . S
C1339 N1340 1.315 . S
C1339 H1342 0.930 . S
N1340 Co1320 2.194 . S
N1340 C1335 1.328 . S
N1340 C1339 1.315 . S
H1341 C1335 0.929 . S
H1342 C1339 0.930 . S
H1343 C1331 0.929 . S
H1344 C1333 0.929 . S
O1345 Co1320 2.351 . S
O1345 C1348 1.243 . S
O1346 Co1320 2.155 . S
O1346 C1348 1.239 . S
O1347 Co1320 2.096 . S
O1347 C1328 1.247 . S
C1348 O1345 1.243 . S
C1348 O1346 1.239 . S
H1349 C1323 0.931 . S
H1350 C1332 0.931 . S
H1351 C1336 0.929 . S
H1352 C1338 0.930 . S
Co1353 N1357 2.148 . S
Co1353 N1363 2.128 . S
Co1353 N1373 2.194 . S
Co1353 O1378 2.351 . S
Co1353 O1379 2.155 . S
Co1353 O1380 2.096 . S
C1354 N1357 1.301 . S
C1354 N1358 1.328 . S
C1354 H1359 0.930 . S
C1355 C1356 1.333 . S
C1355 N1357 1.317 . S
C1355 H1360 0.930 . S
C1356 C1355 1.333 . S
C1356 N1358 1.350 . S
C1356 H1382 0.931 . S
N1357 Co1353 2.148 . S
N1357 C1354 1.301 . S
N1357 C1355 1.317 . S
N1358 C1354 1.328 . S
N1358 C1356 1.350 . S
H1359 C1354 0.930 . S
H1360 C1355 0.930 . S
C1361 O1362 1.224 . S
C1361 O1380 1.247 . S
O1362 C1361 1.224 . S
N1363 Co1353 2.128 . S
N1363 C1364 1.355 . S
N1363 C1366 1.311 . S
C1364 N1363 1.355 . S
C1364 C1365 1.363 . S
C1364 H1376 0.929 . S
C1365 C1364 1.363 . S
C1365 N1367 1.375 . S
C1365 H1383 0.931 . S
C1366 N1363 1.311 . S
C1366 N1367 1.347 . S
C1366 H1377 0.929 . S
N1367 C1365 1.375 . S
N1367 C1366 1.347 . S
C1368 C1371 1.365 . S
C1368 N1373 1.328 . S
C1368 H1374 0.929 . S
C1369 C1370 1.362 . S
C1369 C1372 1.378 . S
C1369 H1384 0.929 . S
C1370 C1369 1.362 . S
C1370 C1371 1.366 . S
C1371 C1368 1.365 . S
C1371 C1370 1.366 . S
C1371 H1385 0.930 . S
C1372 C1369 1.378 . S
C1372 N1373 1.315 . S
C1372 H1375 0.930 . S
N1373 Co1353 2.194 . S
N1373 C1368 1.328 . S
N1373 C1372 1.315 . S
H1374 C1368 0.929 . S
H1375 C1372 0.930 . S
H1376 C1364 0.929 . S
H1377 C1366 0.929 . S
O1378 Co1353 2.351 . S
O1378 C1381 1.256 . S
O1379 Co1353 2.155 . S
O1379 C1381 1.244 . S
O1380 Co1353 2.096 . S
O1380 C1361 1.247 . S
C1381 O1378 1.256 . S
C1381 O1379 1.244 . S
H1382 C1356 0.931 . S
H1383 C1365 0.931 . S
H1384 C1369 0.929 . S
H1385 C1371 0.930 . S
Co1386 N1390 2.148 . S
Co1386 N1396 2.128 . S
Co1386 N1406 2.194 . S
Co1386 O1411 2.351 . S
Co1386 O1412 2.155 . S
Co1386 O1413 2.096 . S
C1387 N1390 1.301 . S
C1387 N1391 1.328 . S
C1387 H1392 0.930 . S
C1388 C1389 1.335 . S
C1388 N1390 1.311 1_565 S
C1388 H1393 0.934 . S
C1389 C1388 1.335 . S
C1389 N1391 1.350 1_565 S
C1389 H1415 0.931 . S
N1390 Co1386 2.148 . S
N1390 C1387 1.301 . S
N1390 C1388 1.311 1_545 S
N1391 C1387 1.328 . S
N1391 C1389 1.350 1_545 S
H1392 C1387 0.930 . S
H1393 C1388 0.934 . S
C1394 O1395 1.233 . S
C1394 O1413 1.254 . S
O1395 C1394 1.233 . S
N1396 Co1386 2.128 . S
N1396 C1397 1.355 . S
N1396 C1399 1.311 . S
C1397 N1396 1.355 . S
C1397 C1398 1.363 . S
C1397 H1409 0.929 . S
C1398 C1397 1.363 . S
C1398 N1400 1.375 . S
C1398 H1416 0.931 . S
C1399 N1396 1.311 . S
C1399 N1400 1.347 . S
C1399 H1410 0.929 . S
N1400 C1398 1.375 . S
N1400 C1399 1.347 . S
C1401 C1404 1.365 . S
C1401 N1406 1.328 . S
C1401 H1407 0.929 . S
C1402 C1403 1.362 . S
C1402 C1405 1.378 . S
C1402 H1417 0.929 . S
C1403 C1402 1.362 . S
C1403 C1404 1.366 . S
C1404 C1401 1.365 . S
C1404 C1403 1.366 . S
C1404 H1418 0.930 . S
C1405 C1402 1.378 . S
C1405 N1406 1.315 . S
C1405 H1408 0.930 . S
N1406 Co1386 2.194 . S
N1406 C1401 1.328 . S
N1406 C1405 1.315 . S
H1407 C1401 0.929 . S
H1408 C1405 0.930 . S
H1409 C1397 0.929 . S
H1410 C1399 0.929 . S
O1411 Co1386 2.351 . S
O1411 C1414 1.244 . S
O1412 Co1386 2.155 . S
O1412 C1414 1.240 . S
O1413 Co1386 2.096 . S
O1413 C1394 1.254 . S
C1414 O1411 1.244 . S
C1414 O1412 1.240 . S
H1415 C1389 0.931 . S
H1416 C1398 0.931 . S
H1417 C1402 0.929 . S
H1418 C1404 0.930 . S
Co1419 N1423 2.148 . S
Co1419 N1429 2.128 . S
Co1419 N1439 2.194 . S
Co1419 O1444 2.351 . S
Co1419 O1445 2.155 . S
Co1419 O1446 2.096 . S
C1420 N1423 1.301 . S
C1420 N1424 1.328 . S
C1420 H1425 0.930 . S
C1421 C1422 1.333 . S
C1421 N1423 1.317 . S
C1421 H1426 0.930 . S
C1422 C1421 1.333 . S
C1422 N1424 1.350 . S
C1422 H1448 0.931 . S
N1423 Co1419 2.148 . S
N1423 C1420 1.301 . S
N1423 C1421 1.317 . S
N1424 C1420 1.328 . S
N1424 C1422 1.350 . S
H1425 C1420 0.930 . S
H1426 C1421 0.930 . S
C1427 O1428 1.224 . S
C1427 O1446 1.247 . S
O1428 C1427 1.224 . S
N1429 Co1419 2.128 . S
N1429 C1430 1.355 . S
N1429 C1432 1.311 . S
C1430 N1429 1.355 . S
C1430 C1431 1.363 . S
C1430 H1442 0.929 . S
C1431 C1430 1.363 . S
C1431 N1433 1.375 . S
C1431 H1449 0.931 . S
C1432 N1429 1.311 . S
C1432 N1433 1.347 . S
C1432 H1443 0.929 . S
N1433 C1431 1.375 . S
N1433 C1432 1.347 . S
C1434 C1437 1.365 . S
C1434 N1439 1.328 . S
C1434 H1440 0.929 . S
C1435 C1436 1.362 . S
C1435 C1438 1.378 . S
C1435 H1450 0.929 . S
C1436 C1435 1.362 . S
C1436 C1437 1.366 . S
C1437 C1434 1.365 . S
C1437 C1436 1.366 . S
C1437 H1451 0.930 . S
C1438 C1435 1.378 . S
C1438 N1439 1.315 . S
C1438 H1441 0.930 . S
N1439 Co1419 2.194 . S
N1439 C1434 1.328 . S
N1439 C1438 1.315 . S
H1440 C1434 0.929 . S
H1441 C1438 0.930 . S
H1442 C1430 0.929 . S
H1443 C1432 0.929 . S
O1444 Co1419 2.351 . S
O1444 C1447 1.244 . S
O1445 Co1419 2.155 . S
O1445 C1447 1.240 . S
O1446 Co1419 2.096 . S
O1446 C1427 1.247 . S
C1447 O1444 1.244 . S
C1447 O1445 1.240 . S
H1448 C1422 0.931 . S
H1449 C1431 0.931 . S
H1450 C1435 0.929 . S
H1451 C1437 0.930 . S
Co1452 N1456 2.148 . S
Co1452 N1462 2.128 . S
Co1452 N1472 2.194 . S
Co1452 O1477 2.351 . S
Co1452 O1478 2.155 . S
Co1452 O1479 2.096 . S
C1453 N1456 1.301 . S
C1453 N1457 1.328 . S
C1453 H1458 0.930 . S
C1454 C1455 1.335 . S
C1454 N1456 1.311 1_545 S
C1454 H1459 0.934 . S
C1455 C1454 1.335 . S
C1455 N1457 1.350 1_545 S
C1455 H1481 0.931 . S
N1456 Co1452 2.148 . S
N1456 C1453 1.301 . S
N1456 C1454 1.311 1_565 S
N1457 C1453 1.328 . S
N1457 C1455 1.350 1_565 S
H1458 C1453 0.930 . S
H1459 C1454 0.934 . S
C1460 O1461 1.230 . S
C1460 O1479 1.251 . S
O1461 C1460 1.230 . S
N1462 Co1452 2.128 . S
N1462 C1463 1.355 . S
N1462 C1465 1.311 . S
C1463 N1462 1.355 . S
C1463 C1464 1.363 . S
C1463 H1475 0.929 . S
C1464 C1463 1.363 . S
C1464 N1466 1.375 . S
C1464 H1482 0.931 . S
C1465 N1462 1.311 . S
C1465 N1466 1.347 . S
C1465 H1476 0.929 . S
N1466 C1464 1.375 . S
N1466 C1465 1.347 . S
C1467 C1470 1.365 . S
C1467 N1472 1.328 . S
C1467 H1473 0.929 . S
C1468 C1469 1.362 . S
C1468 C1471 1.378 . S
C1468 H1483 0.929 . S
C1469 C1468 1.362 . S
C1469 C1470 1.366 . S
C1470 C1467 1.365 . S
C1470 C1469 1.366 . S
C1470 H1484 0.930 . S
C1471 C1468 1.378 . S
C1471 N1472 1.315 . S
C1471 H1474 0.930 . S
N1472 Co1452 2.194 . S
N1472 C1467 1.328 . S
N1472 C1471 1.315 . S
H1473 C1467 0.929 . S
H1474 C1471 0.930 . S
H1475 C1463 0.929 . S
H1476 C1465 0.929 . S
O1477 Co1452 2.351 . S
O1477 C1480 1.244 . S
O1478 Co1452 2.155 . S
O1478 C1480 1.240 . S
O1479 Co1452 2.096 . S
O1479 C1460 1.251 . S
C1480 O1477 1.244 . S
C1480 O1478 1.240 . S
H1481 C1455 0.931 . S
H1482 C1464 0.931 . S
H1483 C1468 0.929 . S
H1484 C1470 0.930 . S
Co1485 N1489 2.148 . S
Co1485 N1495 2.128 . S
Co1485 N1505 2.194 . S
Co1485 O1510 2.351 . S
Co1485 O1511 2.155 . S
Co1485 O1512 2.096 . S
C1486 N1489 1.301 . S
C1486 N1490 1.328 . S
C1486 H1491 0.930 . S
C1487 C1488 1.333 . S
C1487 N1489 1.317 . S
C1487 H1492 0.930 . S
C1488 C1487 1.333 . S
C1488 N1490 1.350 . S
C1488 H1514 0.944 . S
N1489 Co1485 2.148 . S
N1489 C1486 1.301 . S
N1489 C1487 1.317 . S
N1490 C1486 1.328 . S
N1490 C1488 1.350 . S
H1491 C1486 0.930 . S
H1492 C1487 0.930 . S
C1493 O1494 1.210 1_565 S
C1493 O1512 1.239 1_565 S
O1494 C1493 1.210 1_545 S
N1495 Co1485 2.128 . S
N1495 C1496 1.355 . S
N1495 C1498 1.311 . S
C1496 N1495 1.355 . S
C1496 C1497 1.363 . S
C1496 H1508 0.929 . S
C1497 C1496 1.363 . S
C1497 N1499 1.375 . S
C1497 H1515 0.931 . S
C1498 N1495 1.311 . S
C1498 N1499 1.347 . S
C1498 H1509 0.929 1_545 S
N1499 C1497 1.375 . S
N1499 C1498 1.347 . S
C1500 C1503 1.365 . S
C1500 N1505 1.328 . S
C1500 H1506 0.929 . S
C1501 C1502 1.362 . S
C1501 C1504 1.378 . S
C1501 H1516 0.929 . S
C1502 C1501 1.362 . S
C1502 C1503 1.366 . S
C1503 C1500 1.365 . S
C1503 C1502 1.366 . S
C1503 H1517 0.930 . S
C1504 C1501 1.378 . S
C1504 N1505 1.315 . S
C1504 H1507 0.930 . S
N1505 Co1485 2.194 . S
N1505 C1500 1.328 . S
N1505 C1504 1.315 . S
H1506 C1500 0.929 . S
H1507 C1504 0.930 . S
H1508 C1496 0.929 . S
H1509 C1498 0.929 1_565 S
O1510 Co1485 2.351 . S
O1510 C1513 1.244 . S
O1511 Co1485 2.155 . S
O1511 C1513 1.240 . S
O1512 Co1485 2.096 . S
O1512 C1493 1.239 1_545 S
C1513 O1510 1.244 . S
C1513 O1511 1.240 . S
H1514 C1488 0.944 . S
H1515 C1497 0.931 . S
H1516 C1501 0.929 . S
H1517 C1503 0.930 . S
Co1518 N1522 2.148 . S
Co1518 N1528 2.128 . S
Co1518 N1538 2.194 . S
Co1518 O1543 2.351 . S
Co1518 O1544 2.155 . S
Co1518 O1545 2.096 . S
C1519 N1522 1.301 . S
C1519 N1523 1.328 . S
C1519 H1524 0.930 . S
C1520 C1521 1.333 . S
C1520 N1522 1.317 1_545 S
C1520 H1525 0.930 . S
C1521 C1520 1.333 . S
C1521 N1523 1.350 1_545 S
C1521 H1547 0.931 . S
N1522 Co1518 2.148 . S
N1522 C1519 1.301 . S
N1522 C1520 1.317 1_565 S
N1523 C1519 1.328 . S
N1523 C1521 1.350 1_565 S
H1524 C1519 0.930 . S
H1525 C1520 0.930 . S
C1526 O1527 1.231 . S
C1526 O1545 1.252 . S
O1527 C1526 1.231 . S
N1528 Co1518 2.128 . S
N1528 C1529 1.355 . S
N1528 C1531 1.311 . S
C1529 N1528 1.355 . S
C1529 C1530 1.363 . S
C1529 H1541 0.929 . S
C1530 C1529 1.363 . S
C1530 N1532 1.375 . S
C1530 H1548 0.931 . S
C1531 N1528 1.311 . S
C1531 N1532 1.347 . S
C1531 H1542 0.929 . S
N1532 C1530 1.375 . S
N1532 C1531 1.347 . S
C1533 C1536 1.365 . S
C1533 N1538 1.328 . S
C1533 H1539 0.929 . S
C1534 C1535 1.362 . S
C1534 C1537 1.378 . S
C1534 H1549 0.929 . S
C1535 C1534 1.362 . S
C1535 C1536 1.366 . S
C1536 C1533 1.365 . S
C1536 C1535 1.366 . S
C1536 H1550 0.930 . S
C1537 C1534 1.378 . S
C1537 N1538 1.315 . S
C1537 H1540 0.930 . S
N1538 Co1518 2.194 . S
N1538 C1533 1.328 . S
N1538 C1537 1.315 . S
H1539 C1533 0.929 . S
H1540 C1537 0.930 . S
H1541 C1529 0.929 . S
H1542 C1531 0.929 . S
O1543 Co1518 2.351 . S
O1543 C1546 1.244 . S
O1544 Co1518 2.155 . S
O1544 C1546 1.240 . S
O1545 Co1518 2.096 . S
O1545 C1526 1.252 . S
C1546 O1543 1.244 . S
C1546 O1544 1.240 . S
H1547 C1521 0.931 . S
H1548 C1530 0.931 . S
H1549 C1534 0.929 . S
H1550 C1536 0.930 . S
Co1551 N1555 2.148 . S
Co1551 N1561 2.128 . S
Co1551 N1571 2.194 . S
Co1551 O1576 2.351 . S
Co1551 O1577 2.155 . S
Co1551 O1578 2.096 . S
C1552 N1555 1.301 . S
C1552 N1556 1.328 . S
C1552 H1557 0.930 . S
C1553 C1554 1.333 . S
C1553 N1555 1.317 . S
C1553 H1558 0.930 . S
C1554 C1553 1.333 . S
C1554 N1556 1.350 . S
C1554 H1580 0.931 . S
N1555 Co1551 2.148 . S
N1555 C1552 1.301 . S
N1555 C1553 1.317 . S
N1556 C1552 1.328 . S
N1556 C1554 1.350 . S
H1557 C1552 0.930 . S
H1558 C1553 0.930 . S
C1559 O1560 1.224 . S
C1559 O1578 1.247 . S
O1560 C1559 1.224 . S
N1561 Co1551 2.128 . S
N1561 C1562 1.355 . S
N1561 C1564 1.311 . S
C1562 N1561 1.355 . S
C1562 C1563 1.363 . S
C1562 H1574 0.929 . S
C1563 C1562 1.363 . S
C1563 N1565 1.375 . S
C1563 H1581 0.931 . S
C1564 N1561 1.311 . S
C1564 N1565 1.347 . S
C1564 H1575 0.929 . S
N1565 C1563 1.375 . S
N1565 C1564 1.347 . S
C1566 C1569 1.365 . S
C1566 N1571 1.328 . S
C1566 H1572 0.929 . S
C1567 C1568 1.362 . S
C1567 C1570 1.378 . S
C1567 H1582 0.929 . S
C1568 C1567 1.362 . S
C1568 C1569 1.366 . S
C1569 C1566 1.365 . S
C1569 C1568 1.366 . S
C1569 H1583 0.930 . S
C1570 C1567 1.378 . S
C1570 N1571 1.315 . S
C1570 H1573 0.930 . S
N1571 Co1551 2.194 . S
N1571 C1566 1.328 . S
N1571 C1570 1.315 . S
H1572 C1566 0.929 . S
H1573 C1570 0.930 . S
H1574 C1562 0.929 . S
H1575 C1564 0.929 . S
O1576 Co1551 2.351 . S
O1576 C1579 1.244 . S
O1577 Co1551 2.155 . S
O1577 C1579 1.240 . S
O1578 Co1551 2.096 . S
O1578 C1559 1.247 . S
C1579 O1576 1.244 . S
C1579 O1577 1.240 . S
H1580 C1554 0.931 . S
H1581 C1563 0.931 . S
H1582 C1567 0.929 . S
H1583 C1569 0.930 . S
N905 C8 1.299 . S
C41 N806 1.284 . S
C74 N839 1.284 . S
N872 C107 1.317 . S
C140 N179 1.284 . S
N212 C173 1.291 1_655 S
N245 C206 1.275 . S
C239 N146 1.320 1_655 S
C272 N1400 1.292 . S
C305 N1433 1.295 1_554 S
C338 N674 1.291 . S
N1367 C371 1.307 1_556 S
N1532 C404 1.290 . S
N542 C437 1.285 1_554 S
C470 N1565 1.290 . S
C503 N1490 1.171 1_556 S
N311 C536 1.291 . S
N1301 C569 1.330 . S
N1202 C602 1.292 . S
N1235 C635 1.279 . S
C668 N476 1.300 . S
C721 N1169 1.289 . S
N1070 C734 1.308 . S
C767 N1136 1.310 . S
C800 N113 1.299 . S
C833 N14 1.312 . S
N47 C866 1.284 . S
N80 C899 1.294 1_655 S
N971 C932 1.284 . S
N1004 C965 1.306 . S
C998 N1037 1.275 . S
C1031 N938 1.318 . S
C1064 N608 1.292 . S
N641 C1097 1.303 . S
N1466 C1130 1.291 . S
C1163 N575 1.307 . S
N740 C1196 1.290 . S
C1229 N1334 1.306 . S
C1262 N773 1.290 . S
N698 C1295 1.173 . S
N1103 C1328 1.291 . S
N509 C1361 1.330 . S
C1394 N410 1.274 1_545 S
N443 C1427 1.279 . S
C1460 N1268 1.289 1_565 S
C1513 N377 1.289 . S
N278 C1526 1.295 1_545 S
N344 C1559 1.310 . S
C1414 C17 1.124 . S
C1447 C50 1.140 . S
C688 C83 1.150 . S
C1381 C116 1.135 1_545 S
C149 C1546 1.126 . S
C556 C182 1.129 . S
C1579 C215 1.145 . S
C248 C1493 1.266 . S
C281 C325 1.150 . S
C358 C314 1.141 . S
C391 C347 1.172 . S
C292 C380 1.160 . S
C1315 C413 1.123 . S
C1216 C446 1.137 . S
C1249 C479 1.143 . S
C512 C1282 1.106 1_655 S
C919 C545 1.147 . S
C578 C193 1.153 . S
C226 C611 1.123 1_554 S
C259 C644 1.063 . S
C677 C952 1.129 . S
C61 C710 1.302 . S
C743 C94 1.139 . S
C776 C28 1.129 . S
C622 C809 1.124 . S
C655 C842 1.165 . S
C875 C1480 1.150 . S
C908 C589 1.150 . S
C754 C941 1.126 . S
C1348 C974 1.131 1_565 S
C787 C1007 1.145 . S
C1040 C701 1.246 . S
C1073 C1117 1.150 . S
C1150 C1106 1.136 1_455 S
C1139 C1183 1.172 . S
C1172 C1084 1.160 1_455 S
C1205 C523 1.123 . S
C424 C1238 1.139 . S
C457 C1271 1.143 . S
C490 C1304 1.115 . S
C127 C1337 1.147 . S
C985 C1370 1.153 . S
C1403 C1018 1.138 . S
C1436 C1051 1.063 . S
C1469 C160 1.131 . S
C1502 C853 1.302 . S
C1535 C886 1.127 1_554 S
C820 C1568 1.132 1_556 S
N5 N995 1.292 . S
N38 N1028 1.333 . S
N929 N71 1.305 . S
N962 N104 1.276 1_545 S
N137 N863 1.305 1_554 S
N896 N170 1.276 . S
N797 N203 1.292 1_556 S
N830 N236 1.333 1_545 S
N269 N335 1.291 . S
N302 N368 1.267 . S
N467 N401 1.288 . S
N434 N500 1.285 1_455 S
N533 N566 1.283 . S
N1556 N599 1.284 1_554 S
N1499 N632 1.221 1_545 S
N665 N731 1.282 . S
N707 N1424 1.221 . S
N764 N1391 1.284 . S
N1127 N1061 1.291 1_455 S
N1160 N1094 1.267 1_455 S
N1259 N1193 1.288 1_455 S
N1292 N1226 1.285 . S
N1325 N1358 1.283 1_565 S
N1523 N1457 1.282 1_554 S
