# Generated by pormake.
# Topology why, (6)-cn, num edge types: 1
# Building blocks:
#     Node 0, Type 0, BuildingBlock: PAMTOO_clean_sbu_0, # of connection points: 6
#     Node 1, Type 0, BuildingBlock: PAMTOO_clean_sbu_0, # of connection points: 6
#     Node 2, Type 0, BuildingBlock: PAMTOO_clean_sbu_0, # of connection points: 6
#     Node 3, Type 0, BuildingBlock: PAMTOO_clean_sbu_0, # of connection points: 6
#     Node 4, Type 0, BuildingBlock: PAMTOO_clean_sbu_0, # of connection points: 6
#     Node 5, Type 0, BuildingBlock: PAMTOO_clean_sbu_0, # of connection points: 6
#     Node 6, Type 0, BuildingBlock: PAMTOO_clean_sbu_0, # of connection points: 6
#     Node 7, Type 0, BuildingBlock: PAMTOO_clean_sbu_0, # of connection points: 6
#     Node 8, Type 0, BuildingBlock: PAMTOO_clean_sbu_0, # of connection points: 6
#     Node 9, Type 0, BuildingBlock: PAMTOO_clean_sbu_0, # of connection points: 6
#     Node 10, Type 0, BuildingBlock: PAMTOO_clean_sbu_0, # of connection points: 6
#     Node 11, Type 0, BuildingBlock: PAMTOO_clean_sbu_0, # of connection points: 6
#     Node 12, Type 0, BuildingBlock: PAMTOO_clean_sbu_0, # of connection points: 6
#     Node 13, Type 0, BuildingBlock: PAMTOO_clean_sbu_0, # of connection points: 6
#     Node 14, Type 0, BuildingBlock: PAMTOO_clean_sbu_0, # of connection points: 6
#     Node 15, Type 0, BuildingBlock: PAMTOO_clean_sbu_0, # of connection points: 6
#     Edge 16, Type (0, 0), BuildingBlock: UVAHIK_clean_linker_0, # of connection points: 2
#     Edge 17, Type (0, 0), BuildingBlock: UVAHIK_clean_linker_0, # of connection points: 2
#     Edge 18, Type (0, 0), BuildingBlock: UVAHIK_clean_linker_0, # of connection points: 2
#     Edge 19, Type (0, 0), BuildingBlock: UVAHIK_clean_linker_0, # of connection points: 2
#     Edge 20, Type (0, 0), BuildingBlock: UVAHIK_clean_linker_0, # of connection points: 2
#     Edge 21, Type (0, 0), BuildingBlock: UVAHIK_clean_linker_0, # of connection points: 2
#     Edge 22, Type (0, 0), BuildingBlock: UVAHIK_clean_linker_0, # of connection points: 2
#     Edge 23, Type (0, 0), BuildingBlock: UVAHIK_clean_linker_0, # of connection points: 2
#     Edge 24, Type (0, 0), BuildingBlock: UVAHIK_clean_linker_0, # of connection points: 2
#     Edge 25, Type (0, 0), BuildingBlock: UVAHIK_clean_linker_0, # of connection points: 2
#     Edge 26, Type (0, 0), BuildingBlock: UVAHIK_clean_linker_0, # of connection points: 2
#     Edge 27, Type (0, 0), BuildingBlock: UVAHIK_clean_linker_0, # of connection points: 2
#     Edge 28, Type (0, 0), BuildingBlock: UVAHIK_clean_linker_0, # of connection points: 2
#     Edge 29, Type (0, 0), BuildingBlock: UVAHIK_clean_linker_0, # of connection points: 2
#     Edge 30, Type (0, 0), BuildingBlock: UVAHIK_clean_linker_0, # of connection points: 2
#     Edge 31, Type (0, 0), BuildingBlock: UVAHIK_clean_linker_0, # of connection points: 2
#     Edge 32, Type (0, 0), BuildingBlock: UVAHIK_clean_linker_0, # of connection points: 2
#     Edge 33, Type (0, 0), BuildingBlock: UVAHIK_clean_linker_0, # of connection points: 2
#     Edge 34, Type (0, 0), BuildingBlock: UVAHIK_clean_linker_0, # of connection points: 2
#     Edge 35, Type (0, 0), BuildingBlock: UVAHIK_clean_linker_0, # of connection points: 2
#     Edge 36, Type (0, 0), BuildingBlock: UVAHIK_clean_linker_0, # of connection points: 2
#     Edge 37, Type (0, 0), BuildingBlock: UVAHIK_clean_linker_0, # of connection points: 2
#     Edge 38, Type (0, 0), BuildingBlock: UVAHIK_clean_linker_0, # of connection points: 2
#     Edge 39, Type (0, 0), BuildingBlock: UVAHIK_clean_linker_0, # of connection points: 2
#     Edge 40, Type (0, 0), BuildingBlock: UVAHIK_clean_linker_0, # of connection points: 2
#     Edge 41, Type (0, 0), BuildingBlock: UVAHIK_clean_linker_0, # of connection points: 2
#     Edge 42, Type (0, 0), BuildingBlock: UVAHIK_clean_linker_0, # of connection points: 2
#     Edge 43, Type (0, 0), BuildingBlock: UVAHIK_clean_linker_0, # of connection points: 2
#     Edge 44, Type (0, 0), BuildingBlock: UVAHIK_clean_linker_0, # of connection points: 2
#     Edge 45, Type (0, 0), BuildingBlock: UVAHIK_clean_linker_0, # of connection points: 2
#     Edge 46, Type (0, 0), BuildingBlock: UVAHIK_clean_linker_0, # of connection points: 2
#     Edge 47, Type (0, 0), BuildingBlock: UVAHIK_clean_linker_0, # of connection points: 2
#     Edge 48, Type (0, 0), BuildingBlock: UVAHIK_clean_linker_0, # of connection points: 2
#     Edge 49, Type (0, 0), BuildingBlock: UVAHIK_clean_linker_0, # of connection points: 2
#     Edge 50, Type (0, 0), BuildingBlock: UVAHIK_clean_linker_0, # of connection points: 2
#     Edge 51, Type (0, 0), BuildingBlock: UVAHIK_clean_linker_0, # of connection points: 2
#     Edge 52, Type (0, 0), BuildingBlock: UVAHIK_clean_linker_0, # of connection points: 2
#     Edge 53, Type (0, 0), BuildingBlock: UVAHIK_clean_linker_0, # of connection points: 2
#     Edge 54, Type (0, 0), BuildingBlock: UVAHIK_clean_linker_0, # of connection points: 2
#     Edge 55, Type (0, 0), BuildingBlock: UVAHIK_clean_linker_0, # of connection points: 2
#     Edge 56, Type (0, 0), BuildingBlock: UVAHIK_clean_linker_0, # of connection points: 2
#     Edge 57, Type (0, 0), BuildingBlock: UVAHIK_clean_linker_0, # of connection points: 2
#     Edge 58, Type (0, 0), BuildingBlock: UVAHIK_clean_linker_0, # of connection points: 2
#     Edge 59, Type (0, 0), BuildingBlock: UVAHIK_clean_linker_0, # of connection points: 2
#     Edge 60, Type (0, 0), BuildingBlock: UVAHIK_clean_linker_0, # of connection points: 2
#     Edge 61, Type (0, 0), BuildingBlock: UVAHIK_clean_linker_0, # of connection points: 2
#     Edge 62, Type (0, 0), BuildingBlock: UVAHIK_clean_linker_0, # of connection points: 2
#     Edge 63, Type (0, 0), BuildingBlock: UVAHIK_clean_linker_0, # of connection points: 2
# Relax obj value: 0.293
# Max RMSD: 0.195
# Mean RMSD: 0.195
data_MOF--net-why--node1-PAMTOO_clean_sbu_0--edge1-UVAHIK_clean_linker_0
_symmetry_space_group_name_H-M    P1
_symmetry_Int_Tables_number       1
_symmetry_cell_setting            triclinic
loop_
_symmetry_equiv_pos_as_xyz
'x, y, z'
_cell_length_a     61.147265
_cell_length_b     60.96743
_cell_length_c     48.349605
_cell_angle_alpha  90.083575
_cell_angle_beta   89.942892
_cell_angle_gamma 90.33732
loop_
_atom_site_label
_atom_site_type_symbol
_atom_site_fract_x
_atom_site_fract_y
_atom_site_fract_z
_atom_type_partial_charge
Dy0 Dy 0.44844 0.23793 0.09362 0.0
Dy1 Dy 0.47355 0.20808 0.04898 0.0
C2 C 0.45904 0.18774 0.10653 0.0
O3 O 0.48393 0.24826 0.09747 0.0
O4 O 0.49732 0.2362 0.05602 0.0
O5 O 0.4261 0.26226 0.10936 0.0
O6 O 0.44541 0.24261 0.13762 0.0
O7 O 0.46515 0.23772 0.02453 0.0
O8 O 0.45358 0.26156 0.05868 0.0
O9 O 0.43762 0.20355 0.03804 0.0
O10 O 0.42109 0.23028 0.06429 0.0
O11 O 0.47247 0.18335 0.01701 0.0
O12 O 0.50358 0.19424 0.03336 0.0
C13 C 0.49889 0.24911 0.07783 0.0
O14 O 0.44359 0.20256 0.10644 0.0
O15 O 0.47552 0.19004 0.08947 0.0
C16 C 0.43789 0.27877 0.15149 0.0
C17 C 0.44597 0.31571 0.18508 0.0
C18 C 0.44381 0.29474 0.19685 0.0
C19 C 0.43973 0.2765 0.18022 0.0
C20 C 0.441 0.29953 0.13944 0.0
C21 C 0.44491 0.31789 0.15615 0.0
C22 C 0.43231 0.25927 0.1349 0.0
C23 C 0.45882 0.25726 0.03278 0.0
C24 C 0.42039 0.21567 0.04423 0.0
C25 C 0.50216 0.18494 0.98632 0.0
C26 C 0.52013 0.18993 0.93309 0.0
C27 C 0.50728 0.20663 0.94478 0.0
C28 C 0.49839 0.20415 0.97121 0.0
C29 C 0.51457 0.16808 0.97463 0.0
C30 C 0.52348 0.17053 0.9482 0.0
C31 C 0.49365 0.18262 0.01449 0.0
H32 H 0.44411 0.29256 0.21908 0.0
H33 H 0.43743 0.26063 0.18991 0.0
H34 H 0.43993 0.30168 0.11725 0.0
H35 H 0.44656 0.33386 0.14656 0.0
H36 H 0.5042 0.22166 0.93355 0.0
H37 H 0.48877 0.21729 0.97999 0.0
H38 H 0.51764 0.15317 0.98613 0.0
H39 H 0.53355 0.1575 0.93995 0.0
Dy40 Dy 0.68059 0.70641 0.34192 0.0
Dy41 Dy 0.71114 0.73444 0.30026 0.0
C42 C 0.73009 0.71828 0.35797 0.0
O43 O 0.6691 0.74142 0.34744 0.0
O44 O 0.68206 0.75657 0.30735 0.0
O45 O 0.67251 0.70169 0.38505 0.0
O46 O 0.65615 0.68248 0.35331 0.0
O47 O 0.68402 0.72352 0.27305 0.0
O48 O 0.65872 0.71166 0.30534 0.0
O49 O 0.71611 0.69933 0.28574 0.0
O50 O 0.69149 0.68007 0.31265 0.0
O51 O 0.73855 0.73638 0.27211 0.0
O52 O 0.72216 0.76595 0.28531 0.0
C53 C 0.66857 0.75706 0.32862 0.0
O54 O 0.71531 0.70263 0.35706 0.0
O55 O 0.72811 0.73518 0.34152 0.0
C56 C 0.66516 0.66464 0.39499 0.0
C57 C 0.67496 0.62634 0.4248 0.0
C58 C 0.67953 0.62758 0.39638 0.0
C59 C 0.67483 0.64664 0.38162 0.0
C60 C 0.66094 0.66358 0.42344 0.0
C61 C 0.66587 0.6446 0.43827 0.0
C62 C 0.66002 0.68478 0.37969 0.0
C63 C 0.66439 0.71638 0.27972 0.0
C64 C 0.70557 0.68097 0.29205 0.0
C65 C 0.73648 0.76554 0.24038 0.0
C66 C 0.73453 0.78396 0.18715 0.0
C67 C 0.719 0.76817 0.19546 0.0
C68 C 0.71992 0.75907 0.22197 0.0
C69 C 0.75235 0.78072 0.23191 0.0
C70 C 0.75141 0.78986 0.20551 0.0
C71 C 0.73677 0.7575 0.2689 0.0
H72 H 0.68663 0.61376 0.38557 0.0
H73 H 0.67862 0.64723 0.35974 0.0
H74 H 0.65368 0.67737 0.43413 0.0
H75 H 0.66193 0.64396 0.4601 0.0
H76 H 0.70571 0.76346 0.18185 0.0
H77 H 0.70748 0.74739 0.22831 0.0
H78 H 0.76524 0.78583 0.24592 0.0
H79 H 0.76376 0.80176 0.19954 0.0
Dy80 Dy 0.21136 0.93912 0.58957 0.0
Dy81 Dy 0.18467 0.96828 0.5458 0.0
C82 C 0.19997 0.98894 0.60317 0.0
O83 O 0.17603 0.92834 0.5946 0.0
O84 O 0.16229 0.93916 0.55295 0.0
O85 O 0.23412 0.9148 0.6042 0.0
O86 O 0.21559 0.93444 0.63339 0.0
O87 O 0.19519 0.93985 0.52037 0.0
O88 O 0.20665 0.91578 0.5542 0.0
O89 O 0.22009 0.9734 0.53292 0.0
O90 O 0.23834 0.9485 0.56023 0.0
O91 O 0.18375 0.99361 0.51463 0.0
O92 O 0.15361 0.98025 0.53117 0.0
C93 C 0.16104 0.92669 0.57511 0.0
O94 O 0.21572 0.97447 0.60261 0.0
O95 O 0.18328 0.9863 0.58651 0.0
C96 C 0.22333 0.89823 0.6467 0.0
C97 C 0.2155 0.86133 0.68036 0.0
C98 C 0.21753 0.88233 0.6921 0.0
C99 C 0.22149 0.90056 0.67544 0.0
C100 C 0.22044 0.87739 0.6347 0.0
C101 C 0.21666 0.85905 0.65145 0.0
C102 C 0.22857 0.91775 0.63001 0.0
C103 C 0.20217 0.92047 0.52823 0.0
C104 C 0.23802 0.96248 0.53946 0.0
C105 C 0.15332 0.99163 0.48484 0.0
C106 C 0.13327 0.98812 0.43263 0.0
C107 C 0.14915 0.97284 0.44079 0.0
C108 C 0.15905 0.97453 0.46681 0.0
C109 C 0.13792 1.00715 0.47652 0.0
C110 C 0.12798 1.00544 0.45065 0.0
C111 C 0.16251 0.99309 0.51277 0.0
H112 H 0.21715 0.88458 0.71433 0.0
H113 H 0.22363 0.91648 0.68511 0.0
H114 H 0.22154 0.87516 0.61252 0.0
H115 H 0.21513 0.84304 0.64187 0.0
H116 H 0.15343 0.95924 0.42743 0.0
H117 H 0.17088 0.96233 0.47304 0.0
H118 H 0.13336 1.02046 0.49021 0.0
H119 H 0.11603 1.01762 0.44478 0.0
Dy120 Dy 0.98186 0.46975 0.84521 0.0
Dy121 Dy 0.95094 0.44324 0.80221 0.0
C122 C 0.93196 0.45804 0.86128 0.0
O123 O 0.9927 0.43447 0.8492 0.0
O124 O 0.97974 0.42037 0.8085 0.0
O125 O 1.00002 0.49823 0.8585 0.0
O126 O 0.99677 0.47027 0.88575 0.0
O127 O 0.97919 0.45339 0.77622 0.0
O128 O 1.00431 0.46418 0.80925 0.0
O129 O 0.94387 0.47906 0.79293 0.0
O130 O 0.97355 0.49535 0.81369 0.0
O131 O 0.92856 0.44254 0.76761 0.0
O132 O 0.93492 0.41292 0.79081 0.0
C133 C 0.99313 0.41923 0.82984 0.0
O134 O 0.94762 0.47285 0.86243 0.0
O135 O 0.933 0.44222 0.84291 0.0
C136 C 1.03068 0.48969 0.88604 0.0
C137 C 1.07606 0.49252 0.89612 0.0
C138 C 1.06528 0.50913 0.88146 0.0
C139 C 1.04286 0.50779 0.8766 0.0
C140 C 1.04148 0.47284 0.90034 0.0
C141 C 1.06397 0.47427 0.90538 0.0
C142 C 1.00684 0.48883 0.88105 0.0
C143 C 0.99891 0.45988 0.78344 0.0
C144 C 0.95712 0.49611 0.79619 0.0
C145 C 0.92847 0.40934 0.74263 0.0
C146 C 0.93281 0.38689 0.69196 0.0
C147 C 0.94715 0.38257 0.71396 0.0
C148 C 0.94509 0.39378 0.73904 0.0
C149 C 0.91417 0.4137 0.72067 0.0
C150 C 0.91637 0.40265 0.69549 0.0
C151 C 0.92589 0.42136 0.76887 0.0
H152 H 1.07402 0.52366 0.87465 0.0
H153 H 1.03499 0.52113 0.86577 0.0
H154 H 1.03256 0.45867 0.90792 0.0
H155 H 1.07186 0.46127 0.91681 0.0
H156 H 0.96013 0.37068 0.71166 0.0
H157 H 0.95652 0.39028 0.75554 0.0
H158 H 0.90127 0.42567 0.72302 0.0
H159 H 0.905 0.40618 0.67894 0.0
Dy160 Dy 0.68223 0.96433 0.9294 0.0
Dy161 Dy 0.71 0.93491 0.88677 0.0
C162 C 0.70038 0.91728 0.94843 0.0
O163 O 0.71723 0.9695 0.9439 0.0
O164 O 0.73641 0.94552 0.91622 0.0
O165 O 0.68039 0.99219 0.95703 0.0
O166 O 0.65105 0.97425 0.94592 0.0
O167 O 0.71361 0.97006 0.87274 0.0
O168 O 0.68075 0.98137 0.88814 0.0
O169 O 0.67501 0.92305 0.88131 0.0
O170 O 0.66009 0.93511 0.92192 0.0
O171 O 0.71397 0.92739 0.84336 0.0
O172 O 0.73417 0.91136 0.87411 0.0
C173 C 0.73554 0.95927 0.93724 0.0
O174 O 0.69338 0.93679 0.95581 0.0
O175 O 0.70485 0.91215 0.92256 0.0
C176 C 0.65219 0.98999 0.99015 0.0
C177 C 0.63454 0.98943 0.04389 0.0
C178 C 0.64842 0.97249 0.03499 0.0
C179 C 0.65715 0.97274 0.00823 0.0
C180 C 0.63906 1.00727 -0.00074 0.0
C181 C 0.63031 1.00702 0.02592 0.0
C182 C 0.6595 0.98966 0.96131 0.0
C183 C 0.69759 0.98421 0.87177 0.0
C184 C 0.65947 0.92202 0.90023 0.0
C185 C 0.75075 0.92126 0.83182 0.0
C186 C 0.78798 0.93248 0.80053 0.0
C187 C 0.78707 0.93748 0.82886 0.0
C188 C 0.76853 0.93208 0.84435 0.0
C189 C 0.75146 0.91661 0.80346 0.0
C190 C 0.7699 0.92223 0.7879 0.0
C191 C 0.73118 0.91535 0.84788 0.0
H192 H 0.65183 0.95866 0.04831 0.0
H193 H 0.66727 0.95925 0.0014 0.0
H194 H 0.63516 1.02073 0.98554 0.0
H195 H 0.61995 1.02045 0.03234 0.0
H196 H 0.80076 0.94546 0.83904 0.0
H197 H 0.76817 0.93621 0.86616 0.0
H198 H 0.73782 0.90846 0.79341 0.0
H199 H 0.7703 0.91793 0.76615 0.0
Dy200 Dy 0.44938 0.44026 0.67979 0.0
Dy201 Dy 0.47974 0.46697 0.63635 0.0
C202 C 0.49702 0.4577 0.69819 0.0
O203 O 0.44352 0.47589 0.69152 0.0
O204 O 0.47057 0.49329 0.66657 0.0
O205 O 0.42397 0.43918 0.71082 0.0
O206 O 0.43757 0.409 0.69495 0.0
O207 O 0.44525 0.46988 0.62002 0.0
O208 O 0.43126 0.43888 0.63921 0.0
O209 O 0.49071 0.43179 0.63185 0.0
O210 O 0.4783 0.41774 0.67279 0.0
O211 O 0.49995 0.4942 0.62363 0.0
O212 O 0.49181 0.46849 0.59436 0.0
C213 C 0.45551 0.4935 0.68604 0.0
O214 O 0.47725 0.45156 0.70568 0.0
O215 O 0.50233 0.46142 0.67219 0.0
C216 C 0.42764 0.40946 0.74198 0.0
C217 C 0.43423 0.39156 0.795 0.0
C218 C 0.43998 0.41348 0.78955 0.0
C219 C 0.43687 0.42233 0.76318 0.0
C220 C 0.42149 0.38774 0.74759 0.0
C221 C 0.42482 0.37883 0.77382 0.0
C222 C 0.42516 0.41797 0.71367 0.0
C223 C 0.42989 0.45475 0.621 0.0
C224 C 0.49138 0.41658 0.65115 0.0
C225 C 0.52721 0.48479 0.59102 0.0
C226 C 0.57118 0.48499 0.57321 0.0
C227 C 0.56365 0.50085 0.59201 0.0
C228 C 0.54192 0.50081 0.60071 0.0
C229 C 0.53482 0.46856 0.57273 0.0
C230 C 0.55661 0.46868 0.56389 0.0
C231 C 0.50398 0.4857 0.59942 0.0
H232 H 0.44745 0.42357 0.80545 0.0
H233 H 0.44197 0.43909 0.75929 0.0
H234 H 0.41438 0.37755 0.73152 0.0
H235 H 0.42006 0.36195 0.77755 0.0
H236 H 0.57431 0.51395 0.59909 0.0
H237 H 0.53653 0.51365 0.61459 0.0
H238 H 0.52388 0.456 0.56482 0.0
H239 H 0.56195 0.45626 0.54938 0.0
Dy240 Dy 0.9724 0.20873 0.42991 0.0
Dy241 Dy 0.94454 0.23731 0.38576 0.0
C242 C 0.95597 0.25648 0.44636 0.0
O243 O 0.93881 0.20976 0.44919 0.0
O244 O 0.91861 0.22045 0.41162 0.0
O245 O 0.97451 0.18975 0.46722 0.0
O246 O 1.00206 0.19088 0.43901 0.0
O247 O 0.95899 0.20919 0.36151 0.0
O248 O 0.96135 0.18512 0.39692 0.0
O249 O 0.97725 0.25433 0.38334 0.0
O250 O 0.9975 0.23322 0.41333 0.0
O251 O 0.92455 0.23587 0.34925 0.0
O252 O 0.93126 0.26724 0.36862 0.0
C253 C 0.9198 0.21365 0.43746 0.0
O254 O 0.97112 0.24156 0.44958 0.0
O255 O 0.94191 0.2559 0.42575 0.0
C256 C 1.00932 0.18775 0.4868 0.0
C257 C 1.03383 0.19285 0.53563 0.0
C258 C 1.02324 0.21095 0.52366 0.0
C259 C 1.01109 0.20841 0.49941 0.0
C260 C 1.02022 0.1698 0.49822 0.0
C261 C 1.03242 0.17232 0.52242 0.0
C262 C 0.99483 0.18439 0.46307 0.0
C263 C 0.96012 0.18889 0.37033 0.0
C264 C 0.99562 0.25033 0.39662 0.0
C265 C 0.89643 0.26173 0.34882 0.0
C266 C 0.85138 0.26931 0.34251 0.0
C267 C 0.85874 0.2528 0.36039 0.0
C268 C 0.88111 0.24907 0.36357 0.0
C269 C 0.8892 0.27859 0.33159 0.0
C270 C 0.86685 0.28239 0.32846 0.0
C271 C 0.91981 0.25666 0.35014 0.0
H272 H 1.02382 0.22693 0.53345 0.0
H273 H 1.00262 0.22242 0.49088 0.0
H274 H 1.01894 0.15374 0.48871 0.0
H275 H 1.04069 0.15816 0.53084 0.0
H276 H 0.84721 0.2426 0.37163 0.0
H277 H 0.88642 0.23594 0.37697 0.0
H278 H 0.90081 0.28845 0.32001 0.0
H279 H 0.86167 0.29503 0.31422 0.0
Dy280 Dy 0.20491 0.73134 0.17798 0.0
Dy281 Dy 0.1749 0.70473 0.13448 0.0
C282 C 0.15592 0.71616 0.19517 0.0
O283 O 0.20999 0.69551 0.18949 0.0
O284 O 0.18302 0.6781 0.16446 0.0
O285 O 0.2288 0.73106 0.21076 0.0
O286 O 0.22002 0.76171 0.19133 0.0
O287 O 0.21007 0.70055 0.12112 0.0
O288 O 0.22231 0.73312 0.13703 0.0
O289 O 0.16324 0.73982 0.13084 0.0
O290 O 0.17697 0.75481 0.17075 0.0
O291 O 0.1672 0.70297 0.09095 0.0
O292 O 0.15227 0.6801 0.1198 0.0
C293 C 0.19791 0.67794 0.18405 0.0
O294 O 0.17504 0.72421 0.20264 0.0
O295 O 0.15174 0.70901 0.16997 0.0
C296 C 0.22929 0.76278 0.23848 0.0
C297 C 0.22673 0.78364 0.29031 0.0
C298 C 0.21052 0.76851 0.28217 0.0
C299 C 0.21174 0.75821 0.25634 0.0
C300 C 0.24556 0.77765 0.24664 0.0
C301 C 0.24431 0.78802 0.27233 0.0
C302 C 0.23082 0.75234 0.21124 0.0
C303 C 0.22465 0.71636 0.12038 0.0
C304 C 0.16331 0.75551 0.14969 0.0
C305 C 0.16288 0.6666 0.07613 0.0
C306 C 0.17656 0.63217 0.04152 0.0
C307 C 0.18265 0.63253 0.06952 0.0
C308 C 0.17601 0.64971 0.08665 0.0
C309 C 0.15711 0.66648 0.04812 0.0
C310 C 0.16394 0.64943 0.0309 0.0
C311 C 0.15599 0.68485 0.0939 0.0
H312 H 0.19669 0.76499 0.29549 0.0
H313 H 0.19896 0.7468 0.25025 0.0
H314 H 0.25923 0.78129 0.23308 0.0
H315 H 0.25715 0.79942 0.27818 0.0
H316 H 0.19244 0.61948 0.07815 0.0
H317 H 0.18104 0.64973 0.10813 0.0
H318 H 0.14721 0.67951 0.03961 0.0
H319 H 0.15878 0.64939 0.00947 0.0
Dy320 Dy 0.94572 0.73583 0.5933 0.0
Dy321 Dy 0.97361 0.70575 0.55022 0.0
C322 C 0.95853 0.68601 0.60908 0.0
O323 O 0.98024 0.74938 0.59642 0.0
O324 O 0.99708 0.73373 0.55887 0.0
O325 O 0.91807 0.75502 0.60624 0.0
O326 O 0.94432 0.74842 0.63507 0.0
O327 O 0.96692 0.73555 0.52534 0.0
O328 O 0.94986 0.75827 0.55699 0.0
O329 O 0.93858 0.702 0.53528 0.0
O330 O 0.91937 0.72519 0.56394 0.0
O331 O 0.97386 0.68058 0.51872 0.0
O332 O 1.0043 0.69271 0.53566 0.0
C333 C 0.99674 0.74847 0.57885 0.0
O334 O 0.94363 0.7014 0.61045 0.0
O335 O 0.97417 0.6873 0.59056 0.0
C336 C 0.9272 0.78336 0.63767 0.0
C337 C 0.92656 0.828 0.65314 0.0
C338 C 0.91028 0.81927 0.63576 0.0
C339 C 0.91054 0.79721 0.62823 0.0
C340 C 0.94377 0.79213 0.65464 0.0
C341 C 0.94342 0.81426 0.66234 0.0
C342 C 0.92676 0.75985 0.63011 0.0
C343 C 0.95799 0.75433 0.53224 0.0
C344 C 0.9203 0.71203 0.54238 0.0
C345 C 1.00361 0.684 0.48844 0.0
C346 C 1.02109 0.69049 0.43521 0.0
C347 C 1.01115 0.7079 0.44948 0.0
C348 C 1.00248 0.70466 0.47587 0.0
C349 C 1.01307 0.66646 0.47415 0.0
C350 C 1.02174 0.66966 0.44768 0.0
C351 C 0.99508 0.68082 0.51648 0.0
H352 H 0.89677 0.82929 0.62886 0.0
H353 H 0.89743 0.7909 0.61537 0.0
H354 H 0.95683 0.78189 0.66232 0.0
H355 H 0.95616 0.82054 0.6758 0.0
H356 H 1.01018 0.72406 0.44029 0.0
H357 H 0.99508 0.71834 0.48661 0.0
H358 H 1.01402 0.65039 0.4836 0.0
H359 H 1.02951 0.656 0.43731 0.0
Dy360 Dy 0.18307 0.20372 0.84111 0.0
Dy361 Dy 0.21164 0.2327 0.79846 0.0
C362 C 0.23062 0.22029 0.85786 0.0
O363 O 0.16541 0.23598 0.8439 0.0
O364 O 0.18704 0.25733 0.81542 0.0
O365 O 0.18533 0.18243 0.87643 0.0
O366 O 0.15363 0.18965 0.85877 0.0
O367 O 0.17934 0.23122 0.77787 0.0
O368 O 0.16409 0.20202 0.80137 0.0
O369 O 0.20968 0.19981 0.77724 0.0
O370 O 0.20031 0.17855 0.81445 0.0
O371 O 0.23202 0.23523 0.76227 0.0
O372 O 0.229 0.26299 0.79009 0.0
C373 C 0.16955 0.25477 0.83137 0.0
O374 O 0.21022 0.21935 0.86616 0.0
O375 O 0.2347 0.22094 0.83133 0.0
C376 C 0.15959 0.15372 0.87661 0.0
C377 C 0.15133 0.10822 0.87865 0.0
C378 C 0.16669 0.11791 0.89651 0.0
C379 C 0.17067 0.14043 0.8956 0.0
C380 C 0.1444 0.14403 0.85842 0.0
C381 C 0.14022 0.12146 0.85956 0.0
C382 C 0.16459 0.17741 0.87593 0.0
C383 C 0.16405 0.21619 0.78081 0.0
C384 C 0.20633 0.18038 0.78834 0.0
C385 C 0.23412 0.27001 0.7422 0.0
C386 C 0.22857 0.29398 0.69297 0.0
C387 C 0.21338 0.29587 0.71475 0.0
C388 C 0.21605 0.28386 0.73911 0.0
C389 C 0.24949 0.26839 0.72082 0.0
C390 C 0.24672 0.28018 0.6964 0.0
C391 C 0.23657 0.25585 0.76648 0.0
H392 H 0.17516 0.10818 0.91183 0.0
H393 H 0.1824 0.1475 0.9099 0.0
H394 H 0.13569 0.15384 0.84342 0.0
H395 H 0.12825 0.11436 0.84562 0.0
H396 H 0.19937 0.30655 0.71296 0.0
H397 H 0.20387 0.28517 0.75532 0.0
H398 H 0.26339 0.25756 0.72276 0.0
H399 H 0.25853 0.27797 0.67993 0.0
Dy400 Dy 0.7121 0.44015 0.093 0.0
Dy401 Dy 0.68698 0.47003 0.04833 0.0
C402 C 0.70169 0.49046 0.10618 0.0
O403 O 0.67656 0.43015 0.0969 0.0
O404 O 0.66404 0.44108 0.05469 0.0
O405 O 0.73492 0.41601 0.10787 0.0
O406 O 0.71483 0.43428 0.13682 0.0
O407 O 0.69776 0.44145 0.02341 0.0
O408 O 0.70728 0.41686 0.05758 0.0
O409 O 0.72292 0.47595 0.03844 0.0
O410 O 0.73942 0.44878 0.06391 0.0
O411 O 0.68698 0.49343 0.01487 0.0
O412 O 0.65652 0.48404 0.03448 0.0
C413 C 0.66208 0.42863 0.07682 0.0
O414 O 0.71681 0.47531 0.10666 0.0
O415 O 0.68546 0.48853 0.08865 0.0
C416 C 0.72296 0.39781 0.14873 0.0
C417 C 0.71534 0.3595 0.17987 0.0
C418 C 0.71731 0.35834 0.15093 0.0
C419 C 0.72098 0.37737 0.13544 0.0
C420 C 0.72021 0.39904 0.17746 0.0
C421 C 0.71635 0.38011 0.19288 0.0
C422 C 0.72832 0.418 0.13343 0.0
C423 C 0.70383 0.42183 0.03145 0.0
C424 C 0.74018 0.46382 0.04438 0.0
C425 C 0.65535 0.49233 0.98706 0.0
C426 C 0.6339 0.48752 0.93588 0.0
C427 C 0.65062 0.47298 0.94348 0.0
C428 C 0.66121 0.4753 0.96897 0.0
C429 C 0.63893 0.507 0.97939 0.0
C430 C 0.62828 0.50463 0.95404 0.0
C431 C 0.66573 0.49474 0.01424 0.0
H432 H 0.71656 0.34266 0.14039 0.0
H433 H 0.72277 0.37598 0.11321 0.0
H434 H 0.72162 0.41464 0.18812 0.0
H435 H 0.71532 0.38152 0.21518 0.0
H436 H 0.65515 0.45953 0.93001 0.0
H437 H 0.67379 0.46371 0.97469 0.0
H438 H 0.63423 0.52023 -0.00688 0.0
H439 H 0.61564 0.51623 0.94861 0.0
Dy440 Dy 0.47804 0.96957 0.34062 0.0
Dy441 Dy 0.44907 0.94272 0.29613 0.0
C442 C 0.42803 0.95775 0.35354 0.0
O443 O 0.48868 0.93424 0.34545 0.0
O444 O 0.47783 0.92035 0.30375 0.0
O445 O 0.50203 0.99293 0.35538 0.0
O446 O 0.48316 0.97335 0.38446 0.0
O447 O 0.47756 0.95409 0.27125 0.0
O448 O 0.50156 0.96471 0.30567 0.0
O449 O 0.44425 0.97822 0.28349 0.0
O450 O 0.46873 0.99668 0.31149 0.0
O451 O 0.42375 0.94175 0.26496 0.0
O452 O 0.43784 0.91161 0.28003 0.0
C453 C 0.49024 0.9192 0.32594 0.0
O454 O 0.44286 0.97335 0.35384 0.0
O455 O 0.43029 0.9413 0.33629 0.0
C456 C 0.51945 0.98162 0.39695 0.0
C457 C 0.55697 0.97355 0.42904 0.0
C458 C 0.55864 0.9756 0.40016 0.0
C459 C 0.54001 0.97949 0.38418 0.0
C460 C 0.51772 0.97893 0.42565 0.0
C461 C 0.53625 0.97485 0.44153 0.0
C462 C 0.4996 0.98681 0.38107 0.0
C463 C 0.49699 0.96071 0.27953 0.0
C464 C 0.45498 0.99631 0.2905 0.0
C465 C 0.42746 0.91269 0.23336 0.0
C466 C 0.43238 0.89573 0.17954 0.0
C467 C 0.44995 0.90643 0.19275 0.0
C468 C 0.4475 0.91488 0.21945 0.0
C469 C 0.4098 0.90243 0.22014 0.0
C470 C 0.41221 0.89403 0.19342 0.0
C471 C 0.425 0.92058 0.26183 0.0
H472 H 0.57442 0.97466 0.39003 0.0
H473 H 0.54177 0.98123 0.362 0.0
H474 H 0.50203 0.98046 0.4359 0.0
H475 H 0.53448 0.97377 0.46378 0.0
H476 H 0.46561 0.90821 0.18247 0.0
H477 H 0.46129 0.92288 0.22938 0.0
H478 H 0.39424 0.90061 0.23066 0.0
H479 H 0.39845 0.88564 0.18396 0.0
Dy480 Dy 0.18535 0.46719 0.4294 0.0
Dy481 Dy 0.21392 0.43932 0.38543 0.0
C482 C 0.20214 0.41951 0.44541 0.0
O483 O 0.21842 0.46514 0.44981 0.0
O484 O 0.23929 0.45666 0.41195 0.0
O485 O 0.18373 0.48785 0.46539 0.0
O486 O 0.15478 0.48283 0.4403 0.0
O487 O 0.19873 0.46683 0.36094 0.0
O488 O 0.19568 0.49098 0.39628 0.0
O489 O 0.18146 0.42167 0.38288 0.0
O490 O 0.1605 0.44283 0.41214 0.0
O491 O 0.23527 0.44121 0.35013 0.0
O492 O 0.22669 0.40951 0.3673 0.0
C493 C 0.23771 0.46228 0.43827 0.0
O494 O 0.18685 0.43428 0.44872 0.0
O495 O 0.21642 0.42038 0.42504 0.0
C496 C 0.15007 0.4874 0.48844 0.0
C497 C 0.12803 0.48261 0.53915 0.0
C498 C 0.14265 0.46641 0.53007 0.0
C499 C 0.15353 0.46874 0.50481 0.0
C500 C 0.13523 0.50337 0.49716 0.0
C501 C 0.12424 0.50098 0.5223 0.0
C502 C 0.16276 0.49101 0.46313 0.0
C503 C 0.19695 0.48713 0.36969 0.0
C504 C 0.16283 0.42558 0.39572 0.0
C505 C 0.26225 0.41414 0.34939 0.0
C506 C 0.30708 0.40475 0.345 0.0
C507 C 0.29169 0.39353 0.3285 0.0
C508 C 0.26944 0.39823 0.33067 0.0
C509 C 0.27744 0.42489 0.36652 0.0
C510 C 0.29972 0.42031 0.36428 0.0
C511 C 0.2391 0.4202 0.34997 0.0
H512 H 0.14567 0.45197 0.54249 0.0
H513 H 0.16493 0.45621 0.49829 0.0
H514 H 0.13248 0.5179 0.48479 0.0
H515 H 0.11321 0.51381 0.52891 0.0
H516 H 0.29691 0.38168 0.31319 0.0
H517 H 0.25792 0.38983 0.31727 0.0
H518 H 0.27209 0.4372 0.38113 0.0
H519 H 0.31118 0.42907 0.37737 0.0
Dy520 Dy 0.94594 0.94421 0.18128 0.0
Dy521 Dy 0.97558 0.96978 0.1361 0.0
C522 C 0.99457 0.9609 0.19711 0.0
O523 O 0.94008 0.98018 0.1911 0.0
O524 O 0.96744 0.99676 0.16583 0.0
O525 O 0.92301 0.94429 0.21531 0.0
O526 O 0.93221 0.91368 0.19608 0.0
O527 O 0.94046 0.97355 0.12243 0.0
O528 O 0.92698 0.94235 0.14141 0.0
O529 O 0.98576 0.93434 0.13184 0.0
O530 O 0.97437 0.92121 0.17376 0.0
O531 O 0.99904 0.99392 0.12178 0.0
O532 O 0.98189 0.97297 0.0925 0.0
C533 C 0.95242 0.99749 0.18533 0.0
O534 O 0.97495 0.95498 0.20551 0.0
O535 O 0.99921 0.9645 0.17088 0.0
C536 C 0.92583 0.91342 0.24396 0.0
C537 C 0.93316 0.89397 0.2959 0.0
C538 C 0.95052 0.90382 0.28125 0.0
C539 C 0.94687 0.91349 0.25549 0.0
C540 C 0.90842 0.90397 0.25861 0.0
C541 C 0.91203 0.89433 0.28441 0.0
C542 C 0.922 0.92298 0.2166 0.0
C543 C 0.92524 0.9583 0.12341 0.0
C544 C 0.98685 0.91952 0.1516 0.0
C545 C 1.01777 0.98431 0.08082 0.0
C546 C 1.05511 0.97975 0.04726 0.0
C547 C 1.04886 1.00048 0.05726 0.0
C548 C 1.03036 1.00271 0.07384 0.0
C549 C 1.02437 0.96341 0.07184 0.0
C550 C 1.04287 0.96117 0.05503 0.0
C551 C 0.99728 0.9876 0.09611 0.0
H552 H 0.96692 0.90402 0.28969 0.0
H553 H 0.96048 0.92086 0.24446 0.0
H554 H 0.89208 0.90381 0.24995 0.0
H555 H 0.89839 0.88666 0.29501 0.0
H556 H 1.05769 1.01517 0.05126 0.0
H557 H 1.0255 1.01894 0.08053 0.0
H558 H 1.01495 0.94893 0.07721 0.0
H559 H 1.04737 0.94501 0.04773 0.0
Dy560 Dy 0.47002 0.70502 0.93153 0.0
Dy561 Dy 0.442 0.73249 0.88678 0.0
C562 C 0.45315 0.75315 0.94676 0.0
O563 O 0.43677 0.70687 0.95134 0.0
O564 O 0.4163 0.71568 0.9133 0.0
O565 O 0.47193 0.68536 0.96831 0.0
O566 O 0.50034 0.68869 0.94176 0.0
O567 O 0.4576 0.70473 0.86312 0.0
O568 O 0.45929 0.68094 0.89882 0.0
O569 O 0.47449 0.75 0.88434 0.0
O570 O 0.49503 0.72914 0.91423 0.0
O571 O 0.4209 0.72998 0.85135 0.0
O572 O 0.42958 0.76199 0.86762 0.0
C573 C 0.41764 0.7099 0.93954 0.0
O574 O 0.46792 0.73796 0.95104 0.0
O575 O 0.43956 0.7524 0.92566 0.0
C576 C 0.50628 0.68545 0.98981 0.0
C577 C 0.53056 0.69102 0.03871 0.0
C578 C 0.51461 0.70642 0.03125 0.0
C579 C 0.50264 0.70372 0.00689 0.0
C580 C 0.52242 0.67028 -0.00307 0.0
C581 C 0.53453 0.67307 0.02115 0.0
C582 C 0.49273 0.6815 0.96529 0.0
C583 C 0.45863 0.6845 0.87214 0.0
C584 C 0.49296 0.74618 0.8975 0.0
C585 C 0.39416 0.75731 0.84935 0.0
C586 C 0.3496 0.76756 0.84391 0.0
C587 C 0.36553 0.77888 0.82837 0.0
C588 C 0.38763 0.77376 0.83106 0.0
C589 C 0.37843 0.7464 0.86553 0.0
C590 C 0.35628 0.75142 0.86275 0.0
C591 C 0.41724 0.751 0.8505 0.0
H592 H 0.51143 0.72054 0.04424 0.0
H593 H 0.4903 0.7157 0.0016 0.0
H594 H 0.52538 0.65608 0.98398 0.0
H595 H 0.54662 0.66087 0.02652 0.0
H596 H 0.36085 0.79118 0.81339 0.0
H597 H 0.39958 0.78229 0.8184 0.0
H598 H 0.38324 0.73369 0.87984 0.0
H599 H 0.34438 0.74256 0.87511 0.0
Dy600 Dy 0.70858 0.22977 0.68155 0.0
Dy601 Dy 0.68061 0.20085 0.63766 0.0
C602 C 0.66075 0.21273 0.69773 0.0
O603 O 0.70651 0.19653 0.70173 0.0
O604 O 0.69805 0.17559 0.66382 0.0
O605 O 0.7291 0.23163 0.71756 0.0
O606 O 0.72443 0.26051 0.69225 0.0
O607 O 0.70806 0.21627 0.61304 0.0
O608 O 0.7322 0.21977 0.64824 0.0
O609 O 0.6632 0.23327 0.63516 0.0
O610 O 0.68437 0.25446 0.66437 0.0
O611 O 0.68237 0.18012 0.60173 0.0
O612 O 0.6509 0.18713 0.62019 0.0
C613 C 0.70368 0.17719 0.69009 0.0
O614 O 0.67588 0.22784 0.70129 0.0
O615 O 0.66133 0.19862 0.6771 0.0
C616 C 0.72919 0.26556 0.74029 0.0
C617 C 0.72482 0.28822 0.79067 0.0
C618 C 0.70833 0.27368 0.78177 0.0
C619 C 0.71046 0.26248 0.75668 0.0
C620 C 0.74547 0.28027 0.74885 0.0
C621 C 0.74331 0.29157 0.77382 0.0
C622 C 0.73252 0.25263 0.71509 0.0
C623 C 0.72829 0.21837 0.62169 0.0
C624 C 0.66717 0.25198 0.64802 0.0
C625 C 0.65613 0.15199 0.60098 0.0
C626 C 0.64778 0.10683 0.59504 0.0
C627 C 0.66404 0.11426 0.61336 0.0
C628 C 0.66812 0.1367 0.61638 0.0
C629 C 0.63954 0.1447 0.58329 0.0
C630 C 0.63536 0.12229 0.58035 0.0
C631 C 0.66156 0.17542 0.60216 0.0
H632 H 0.69381 0.271 0.79419 0.0
H633 H 0.69768 0.25118 0.75029 0.0
H634 H 0.76007 0.28271 0.73647 0.0
H635 H 0.75636 0.30251 0.78028 0.0
H636 H 0.67374 0.10273 0.62506 0.0
H637 H 0.68098 0.1421 0.6302 0.0
H638 H 0.63018 0.1563 0.57122 0.0
H639 H 0.62294 0.11706 0.56576 0.0
C640 C 0.51722 0.28227 0.10054 0.0
C641 C 0.51682 0.2664 0.07926 0.0
C642 C 0.53277 0.29951 0.10072 0.0
C643 C 0.57325 0.32963 0.05453 0.0
H644 H 0.59304 0.35465 0.12384 0.0
C645 C 0.62864 0.40873 0.05704 0.0
C646 C 0.64429 0.41121 0.07826 0.0
C647 C 0.61308 0.39147 0.05745 0.0
C648 C 0.58797 0.34787 0.10415 0.0
H649 H 0.53318 0.25664 0.04146 0.0
H650 H 0.56042 0.28607 0.04208 0.0
H651 H 0.56753 0.3239 0.12409 0.0
H652 H 0.65541 0.3968 0.11668 0.0
H653 H 0.62879 0.36692 0.1173 0.0
H654 H 0.59418 0.3532 0.03461 0.0
C655 C 0.54843 0.28555 0.05855 0.0
C656 C 0.5729 0.3302 0.10429 0.0
C657 C 0.53282 0.26834 0.05833 0.0
C658 C 0.64361 0.39581 0.10004 0.0
C659 C 0.62811 0.37853 0.10042 0.0
C660 C 0.58836 0.34727 0.05439 0.0
C661 C 0.54868 0.30167 0.07963 0.0
C662 C 0.56514 0.32064 0.07948 0.0
C663 C 0.61253 0.37584 0.07906 0.0
C664 C 0.59609 0.35685 0.0792 0.0
H665 H 0.50514 0.2817 0.11693 0.0
H666 H 0.53187 0.3115 0.11719 0.0
H667 H 0.56773 0.32324 0.03483 0.0
H668 H 0.6285 0.42005 0.03981 0.0
H669 H 0.60135 0.39053 0.04074 0.0
C670 C 0.64964 0.79112 0.30975 0.0
C671 C 0.65126 0.77475 0.33024 0.0
C672 C 0.63255 0.80663 0.31002 0.0
C673 C 0.58778 0.83053 0.35529 0.0
H674 H 0.56536 0.85166 0.28541 0.0
C675 C 0.52286 0.90132 0.34983 0.0
C676 C 0.50755 0.90154 0.328 0.0
C677 C 0.54002 0.88587 0.35061 0.0
C678 C 0.57113 0.84589 0.30525 0.0
H679 H 0.63556 0.76239 0.36732 0.0
H680 H 0.60593 0.78906 0.36774 0.0
H681 H 0.59508 0.82533 0.28589 0.0
H682 H 0.49866 0.88496 0.28993 0.0
H683 H 0.52796 0.858 0.29152 0.0
H684 H 0.56344 0.85071 0.37462 0.0
C685 C 0.61808 0.79023 0.35151 0.0
C686 C 0.58863 0.83085 0.30553 0.0
C687 C 0.6352 0.77472 0.35124 0.0
C688 C 0.50994 0.88549 0.30718 0.0
C689 C 0.52707 0.87002 0.30797 0.0
C690 C 0.57027 0.84559 0.35501 0.0
C691 C 0.61623 0.80645 0.33077 0.0
C692 C 0.59739 0.8228 0.33055 0.0
C693 C 0.54263 0.86995 0.32958 0.0
C694 C 0.5615 0.85363 0.32997 0.0
H695 H 0.66152 0.79187 0.29314 0.0
H696 H 0.63226 0.81888 0.29386 0.0
H697 H 0.59392 0.82516 0.37512 0.0
H698 H 0.52191 0.91344 0.36618 0.0
H699 H 0.55158 0.88685 0.3675 0.0
C700 C 0.12759 0.90653 0.55605 0.0
C701 C 0.14326 0.90931 0.5772 0.0
C702 C 0.11198 0.88936 0.55691 0.0
C703 C 0.08603 0.84718 0.60453 0.0
H704 H 1.06732 0.82048 0.5357 0.0
C705 C 1.01423 0.78259 0.60043 0.0
C706 C 1.01469 0.76573 0.5804 0.0
C707 C 1.03 0.79965 0.60059 0.0
C708 C 1.07239 0.82749 0.55526 0.0
H709 H 0.1543 0.8956 0.61605 0.0
H710 H 0.12739 0.86586 0.61754 0.0
H711 H 0.09402 0.85025 0.53504 0.0
H712 H 1.0328 0.75403 0.54481 0.0
H713 H 1.06026 0.78326 0.54533 0.0
H714 H 1.06471 0.82409 0.62477 0.0
C715 C 0.12687 0.87715 0.60031 0.0
C716 C 0.08765 0.84499 0.55486 0.0
C717 C 0.1425 0.89433 0.59943 0.0
C718 C 1.03174 0.76651 0.56071 0.0
C719 C 1.04749 0.78358 0.56084 0.0
C720 C 1.07072 0.8297 0.60493 0.0
C721 C 0.11134 0.87415 0.57895 0.0
C722 C 0.09483 0.85527 0.57947 0.0
C723 C 1.0469 0.80065 0.58066 0.0
C724 C 1.06354 0.81943 0.5803 0.0
H725 H 0.12749 0.91753 0.53849 0.0
H726 H 0.10028 0.88814 0.5402 0.0
H727 H 0.09073 0.85454 0.62403 0.0
H728 H 1.00138 0.7829 0.61585 0.0
H729 H 1.02851 0.8124 0.61605 0.0
C730 C 1.01356 0.38655 0.80911 0.0
C731 C 1.01034 0.40139 0.83117 0.0
C732 C 1.03069 0.37103 0.80954 0.0
C733 C 1.07098 0.34306 0.85726 0.0
H734 H 0.10078 0.32814 0.78909 0.0
C735 C 0.13463 0.27124 0.85141 0.0
C736 C 0.15276 0.27299 0.83341 0.0
C737 C 0.11784 0.28709 0.8516 0.0
C738 C 0.09285 0.33213 0.80847 0.0
H739 H 1.02324 0.41099 0.87117 0.0
H740 H 1.0527 0.38417 0.87201 0.0
H741 H 1.07097 0.3546 0.7885 0.0
H742 H 0.16692 0.29349 0.80141 0.0
H743 H 0.13795 0.32102 0.80185 0.0
H744 H 0.09299 0.32077 0.87727 0.0
C745 C 1.04186 0.38428 0.85432 0.0
C746 C 1.07538 0.34726 0.80807 0.0
C747 C 1.02483 0.39986 0.85381 0.0
C748 C 0.15348 0.29144 0.81579 0.0
C749 C 0.13658 0.30723 0.81584 0.0
C750 C 0.08834 0.32782 0.85762 0.0
C751 C 1.04531 0.36959 0.83212 0.0
C752 C 1.06404 0.3531 0.83247 0.0
C753 C 0.11828 0.30534 0.83363 0.0
C754 C 0.09971 0.322 0.83324 0.0
H755 H 1.00299 0.38709 0.79117 0.0
H756 H 1.03235 0.36001 0.7921 0.0
H757 H 1.06279 0.34671 0.87656 0.0
H758 H 0.13314 0.25733 0.86519 0.0
H759 H 0.10413 0.28461 0.86545 0.0
C760 C 0.62637 0.90159 0.91974 0.0
C761 C 0.64165 0.90468 0.89816 0.0
C762 C 0.61072 0.88447 0.91889 0.0
C763 C 0.58305 0.84388 0.87094 0.0
H764 H 0.56705 0.81467 0.93919 0.0
C765 C 0.51007 0.78081 0.87696 0.0
C766 C 0.51143 0.76281 0.89522 0.0
C767 C 0.52623 0.79748 0.87658 0.0
C768 C 0.57135 0.82242 0.9198 0.0
H769 H 0.65184 0.89166 0.85849 0.0
H770 H 0.62468 0.86208 0.85693 0.0
H771 H 0.59399 0.84432 0.93987 0.0
H772 H 0.53157 0.74868 0.92738 0.0
H773 H 0.55962 0.77741 0.92659 0.0
H774 H 0.56056 0.82182 0.85084 0.0
C775 C 0.62464 0.87304 0.87457 0.0
C776 C 0.58675 0.8398 0.92024 0.0
C777 C 0.6404 0.89011 0.87549 0.0
C778 C 0.5298 0.76205 0.91284 0.0
C779 C 0.5459 0.7788 0.91259 0.0
C780 C 0.56753 0.82659 0.87053 0.0
C781 C 0.60956 0.8697 0.89638 0.0
C782 C 0.59295 0.85095 0.89582 0.0
C783 C 0.54439 0.79699 0.8946 0.0
C784 C 0.56133 0.81546 0.89495 0.0
H785 H 0.62665 0.91226 0.93765 0.0
H786 H 0.59937 0.88293 0.93598 0.0
H787 H 0.58703 0.85194 0.85163 0.0
H788 H 0.49623 0.7823 0.86315 0.0
H789 H 0.52408 0.81113 0.86258 0.0
C790 C 0.51174 0.3838 0.67133 0.0
C791 C 0.50855 0.39876 0.64946 0.0
C792 C 0.5288 0.36824 0.67062 0.0
C793 C 0.56892 0.34041 0.62251 0.0
H794 H 0.59871 0.32532 0.69049 0.0
C795 C 0.63233 0.26845 0.62794 0.0
C796 C 0.65045 0.27021 0.64592 0.0
C797 C 0.61559 0.28433 0.62779 0.0
C798 C 0.59078 0.32936 0.67116 0.0
H799 H 0.52137 0.40855 0.60949 0.0
H800 H 0.55076 0.38165 0.6082 0.0
H801 H 0.56901 0.35186 0.69134 0.0
H802 H 0.66468 0.29077 0.67787 0.0
H803 H 0.63581 0.31835 0.67746 0.0
H804 H 0.59086 0.3181 0.60228 0.0
C805 C 0.53995 0.38171 0.62593 0.0
C806 C 0.57338 0.34453 0.67172 0.0
C807 C 0.52296 0.39733 0.62671 0.0
C808 C 0.65123 0.2887 0.66352 0.0
C809 C 0.6344 0.30453 0.6635 0.0
C810 C 0.58623 0.32514 0.62199 0.0
C811 C 0.54337 0.36691 0.64796 0.0
C812 C 0.56205 0.35042 0.6474 0.0
C813 C 0.6161 0.30261 0.64578 0.0
C814 C 0.59758 0.31927 0.6463 0.0
H815 H 0.5012 0.38427 0.68933 0.0
H816 H 0.53044 0.35712 0.68791 0.0
H817 H 0.56072 0.34413 0.60327 0.0
H818 H 0.63082 0.2545 0.61418 0.0
H819 H 0.60187 0.28186 0.61399 0.0
C820 C 1.0139 0.28359 0.37419 0.0
C821 C 1.01416 0.26691 0.39443 0.0
C822 C 1.03002 0.3003 0.37357 0.0
C823 C 1.07163 0.32922 0.41813 0.0
H824 H 0.09326 0.35207 0.34848 0.0
C825 C 0.12692 0.40847 0.41251 0.0
C826 C 0.14451 0.40874 0.39355 0.0
C827 C 0.11109 0.39144 0.41229 0.0
C828 C 0.08755 0.34593 0.36822 0.0
H829 H 1.03216 0.25529 0.43004 0.0
H830 H 1.06006 0.28427 0.42902 0.0
H831 H 1.06675 0.32192 0.34869 0.0
H832 H 0.15856 0.39085 0.35915 0.0
H833 H 0.13099 0.36168 0.35843 0.0
H834 H 0.09245 0.35323 0.43765 0.0
C835 C 1.04732 0.28445 0.4135 0.0
C836 C 1.07206 0.32861 0.36834 0.0
C837 C 1.03133 0.26756 0.41391 0.0
C838 C 0.14532 0.39152 0.37401 0.0
C839 C 0.12934 0.37467 0.37357 0.0
C840 C 0.08693 0.34673 0.418 0.0
C841 C 1.04694 0.30127 0.3934 0.0
C842 C 1.06378 0.31983 0.3933 0.0
C843 C 0.11201 0.37409 0.39291 0.0
C844 C 0.09528 0.35544 0.39304 0.0
H845 H 1.00099 0.28396 0.35889 0.0
H846 H 1.02879 0.31287 0.35787 0.0
H847 H 1.06569 0.32328 0.43786 0.0
H848 H 0.12565 0.42116 0.42811 0.0
H849 H 0.09801 0.39196 0.42739 0.0
C850 C 0.13024 0.77364 0.12731 0.0
C851 C 0.14628 0.77346 0.14827 0.0
C852 C 0.1133 0.78931 0.12716 0.0
C853 C 0.08428 0.83035 0.17317 0.0
H854 H 1.05932 0.84996 0.10397 0.0
C855 C 1.00613 0.88584 0.17103 0.0
C856 C 1.00392 0.90162 0.14992 0.0
C857 C 1.0231 0.87019 0.17048 0.0
C858 C 1.06609 0.84493 0.12361 0.0
H859 H 0.15671 0.79036 0.1855 0.0
H860 H 0.12775 0.81775 0.18494 0.0
H861 H 0.0896 0.82425 0.10359 0.0
H862 H 1.01844 0.91288 0.11153 0.0
H863 H 1.04785 0.88607 0.11067 0.0
H864 H 1.06116 0.85148 0.19318 0.0
C865 C 0.12793 0.80551 0.16872 0.0
C866 C 0.08348 0.82976 0.1234 0.0
C867 C 0.14485 0.78981 0.16888 0.0
C868 C 1.01925 0.90098 0.12809 0.0
C869 C 1.03625 0.88538 0.12757 0.0
C870 C 1.0669 0.84554 0.17338 0.0
C871 C 0.11164 0.80553 0.14796 0.0
C872 C 0.09299 0.82209 0.14817 0.0
C873 C 1.03868 0.8697 0.14884 0.0
C874 C 1.05737 0.85319 0.14861 0.0
H875 H 0.13045 0.76132 0.11115 0.0
H876 H 0.10115 0.78826 0.11095 0.0
H877 H 0.09067 0.82488 0.19283 0.0
H878 H 0.99483 0.88566 0.18828 0.0
H879 H 1.02387 0.85837 0.18711 0.0
C880 C 0.24624 0.21519 0.90638 0.0
C881 C 0.2494 0.21989 0.87812 0.0
C882 C 0.26412 0.21397 0.92481 0.0
C883 C 0.32601 0.20914 0.92605 0.0
H884 H 0.31899 0.22509 0.00306 0.0
C885 C 0.39783 0.19874 0.00513 0.0
C886 C 0.39987 0.214 0.02693 0.0
C887 C 0.37924 0.19852 0.98779 0.0
C888 C 0.32149 0.22074 0.98158 0.0
H889 H 0.27429 0.22742 0.84757 0.0
H890 H 0.30501 0.22598 0.87937 0.0
H891 H 0.28797 0.22744 0.97183 0.0
H892 H 0.38339 0.24107 0.04712 0.0
H893 H 0.35163 0.24098 0.01702 0.0
H894 H 0.35971 0.20325 0.93554 0.0
C895 C 0.28884 0.22258 0.88745 0.0
C896 C 0.30339 0.22178 0.96356 0.0
C897 C 0.27103 0.22361 0.86906 0.0
C898 C 0.38253 0.22885 0.03088 0.0
C899 C 0.36406 0.22873 0.01348 0.0
C900 C 0.34413 0.20823 0.94403 0.0
C901 C 0.28585 0.21756 0.91571 0.0
C902 C 0.30525 0.21609 0.93534 0.0
C903 C 0.36202 0.21365 -0.00857 0.0
C904 C 0.34232 0.21408 0.9722 0.0
H905 H 0.22993 0.21206 0.91425 0.0
H906 H 0.26084 0.20977 0.94616 0.0
H907 H 0.32838 0.2042 0.90476 0.0
H908 H 0.41072 0.18704 0.00123 0.0
H909 H 0.37841 0.18633 0.97153 0.0
C910 C 0.71869 0.51114 0.1467 0.0
C911 C 0.70296 0.50997 0.12542 0.0
C912 C 0.71979 0.52935 0.16472 0.0
C913 C 0.70309 0.58836 0.17159 0.0
H914 H 0.71533 0.57964 0.24941 0.0
C915 C 0.71755 0.66226 0.2474 0.0
C916 C 0.70811 0.66091 0.27398 0.0
C917 C 0.71778 0.64395 0.22948 0.0
C918 C 0.71181 0.58248 0.22777 0.0
H919 H 0.67609 0.5276 0.10673 0.0
H920 H 0.67807 0.55919 0.13782 0.0
H921 H 0.71361 0.54809 0.21827 0.0
H922 H 0.69184 0.63862 0.30233 0.0
H923 H 0.69253 0.60691 0.2715 0.0
H924 H 0.70111 0.62273 0.18115 0.0
C925 C 0.6897 0.54605 0.14058 0.0
C926 C 0.71103 0.56428 0.20974 0.0
C927 C 0.68846 0.52775 0.12275 0.0
C928 C 0.69939 0.64045 0.28218 0.0
C929 C 0.69984 0.62211 0.2644 0.0
C930 C 0.70409 0.60658 0.18958 0.0
C931 C 0.70535 0.54721 0.16198 0.0
C932 C 0.70655 0.56683 0.1813 0.0
C933 C 0.7088 0.62354 0.23756 0.0
C934 C 0.70836 0.60401 0.21807 0.0
H935 H 0.73019 0.4979 0.14956 0.0
H936 H 0.73226 0.52955 0.18061 0.0
H937 H 0.69981 0.59122 0.1499 0.0
H938 H 0.72428 0.67766 0.24008 0.0
H939 H 0.72507 0.64582 0.2092 0.0
C940 C 0.39082 0.94404 0.37013 0.0
C941 C 0.40856 0.95879 0.37278 0.0
C942 C 0.37257 0.94515 0.388 0.0
C943 C 0.35457 0.96647 0.45722 0.0
H944 H 0.29611 0.95673 0.42864 0.0
C945 C 0.27826 0.95542 0.52961 0.0
C946 C 0.25814 0.96457 0.52144 0.0
C947 C 0.29658 0.95557 0.51185 0.0
C948 C 0.31227 0.95964 0.43707 0.0
H949 H 0.42065 0.98627 0.39691 0.0
H950 H 0.38915 0.98808 0.428 0.0
H951 H 0.32751 0.95526 0.39736 0.0
H952 H 0.24197 0.98112 0.48757 0.0
H953 H 0.27373 0.98134 0.45673 0.0
H954 H 0.33933 0.97083 0.49693 0.0
C955 C 0.3893 0.97555 0.41211 0.0
C956 C 0.33042 0.95856 0.41906 0.0
C957 C 0.40743 0.97459 0.39406 0.0
C958 C 0.25711 0.97407 0.49489 0.0
C959 C 0.27537 0.97398 0.47698 0.0
C960 C 0.33644 0.9673 0.47528 0.0
C961 C 0.37147 0.96089 0.4094 0.0
C962 C 0.35194 0.96199 0.42876 0.0
C963 C 0.29544 0.96462 0.48504 0.0
C964 C 0.31492 0.96394 0.46557 0.0
H965 H 0.39094 0.93162 0.35411 0.0
H966 H 0.35943 0.93338 0.38524 0.0
H967 H 0.37075 0.96903 0.46574 0.0
H968 H 0.27984 0.9478 0.54972 0.0
H969 H 0.31153 0.94799 0.51893 0.0
C970 C 0.9739 0.65032 0.62796 0.0
C971 C 0.95766 0.66665 0.62861 0.0
C972 C 0.9731 0.63213 0.64593 0.0
C973 C 0.93536 0.5998 0.69257 0.0
H974 H 0.98956 0.57667 0.7215 0.0
C975 C 0.93939 0.51764 0.75675 0.0
C976 C 0.95485 0.51632 0.77833 0.0
C977 C 0.9389 0.53595 0.73879 0.0
C978 C 0.97416 0.5829 0.71389 0.0
H979 H 0.92766 0.67611 0.6492 0.0
H980 H 0.92631 0.64463 0.68048 0.0
H981 H 0.99039 0.6082 0.69071 0.0
H982 H 0.98166 0.53399 0.79776 0.0
H983 H 0.98063 0.5655 0.76711 0.0
H984 H 0.91915 0.57459 0.71616 0.0
C985 C 0.93966 0.64575 0.66583 0.0
C986 C 0.97467 0.60099 0.69576 0.0
C987 C 0.94052 0.66402 0.6479 0.0
C988 C 0.96948 0.53414 0.78153 0.0
C989 C 0.96903 0.5523 0.7636 0.0
C990 C 0.93486 0.58159 0.71063 0.0
C991 C 0.95597 0.62944 0.66527 0.0
C992 C 0.95529 0.60988 0.68474 0.0
C993 C 0.95393 0.55352 0.74164 0.0
C994 C 0.95426 0.57283 0.72178 0.0
H995 H 0.98735 0.65152 0.61343 0.0
H996 H 0.98586 0.61996 0.6443 0.0
H997 H 0.92002 0.60581 0.68447 0.0
H998 H 0.92794 0.50431 0.75332 0.0
H999 H 0.92707 0.53599 0.72214 0.0
C1000 C 0.75422 0.97134 0.9819 0.0
C1001 C 0.75554 0.96183 0.95534 0.0
C1002 C 0.77246 0.97174 -0.00019 0.0
C1003 C 0.83374 0.96618 0.00151 0.0
H1004 H 0.82481 0.95487 0.07957 0.0
C1005 C 0.90476 0.9746 0.08248 0.0
C1006 C 0.90581 0.95917 0.10414 0.0
C1007 C 0.88664 0.97531 0.06442 0.0
C1008 C 0.82773 0.95796 0.05783 0.0
H1009 H 0.77772 0.94558 0.92704 0.0
H1010 H 0.8093 0.94653 0.95786 0.0
H1011 H 0.79347 0.95559 0.04829 0.0
H1012 H 0.88804 0.93238 0.12344 0.0
H1013 H 0.85664 0.93367 0.09227 0.0
H1014 H 0.86802 0.96837 0.01101 0.0
C1015 C 0.79417 0.95378 0.96495 0.0
C1016 C 0.8096 0.95863 0.03981 0.0
C1017 C 0.7759 0.95317 0.94717 0.0
C1018 C 0.888 0.94454 0.10714 0.0
C1019 C 0.8698 0.94538 0.08924 0.0
C1020 C 0.85185 0.96573 0.01958 0.0
C1021 C 0.79277 0.96284 -0.00824 0.0
C1022 C 0.81223 0.96265 0.01125 0.0
C1023 C 0.86876 0.96074 0.06747 0.0
C1024 C 0.84924 0.96152 0.04809 0.0
H1025 H 0.7389 0.97804 0.98921 0.0
H1026 H 0.7706 0.97911 0.02006 0.0
H1027 H 0.83664 0.96953 0.97983 0.0
H1028 H 0.91802 0.98618 0.07936 0.0
H1029 H 0.88655 0.98756 0.04825 0.0
C1030 C 0.45354 0.66813 0.82401 0.0
C1031 C 0.45827 0.66534 0.8523 0.0
C1032 C 0.45237 0.65 0.80583 0.0
C1033 C 0.44808 0.58781 0.80503 0.0
H1034 H 0.46357 0.59504 0.72793 0.0
C1035 C 0.43834 0.51543 0.72557 0.0
C1036 C 0.45351 0.51389 0.70367 0.0
C1037 C 0.43793 0.534 0.74313 0.0
C1038 C 0.45936 0.59247 0.74943 0.0
H1039 H 0.46581 0.64083 0.88322 0.0
H1040 H 0.46447 0.60963 0.85179 0.0
H1041 H 0.4658 0.62621 0.75909 0.0
H1042 H 0.48022 0.53123 0.68359 0.0
H1043 H 0.47982 0.56285 0.71401 0.0
H1044 H 0.44248 0.55384 0.79556 0.0
C1045 C 0.46104 0.62572 0.84351 0.0
C1046 C 0.46032 0.61066 0.76743 0.0
C1047 C 0.46202 0.6438 0.86168 0.0
C1048 C 0.46807 0.53167 0.69989 0.0
C1049 C 0.46776 0.55009 0.71747 0.0
C1050 C 0.44726 0.56956 0.78705 0.0
C1051 C 0.45605 0.62836 0.81519 0.0
C1052 C 0.45477 0.60876 0.79568 0.0
C1053 C 0.45277 0.55168 0.73957 0.0
C1054 C 0.45297 0.57145 0.75885 0.0
H1055 H 0.45036 0.68434 0.81589 0.0
H1056 H 0.44813 0.65304 0.78446 0.0
H1057 H 0.44326 0.58539 0.82636 0.0
H1058 H 0.42689 0.50216 0.72939 0.0
H1059 H 0.42584 0.53444 0.75948 0.0
C1060 C 0.74482 0.21098 0.57416 0.0
C1061 C 0.74718 0.21848 0.60158 0.0
C1062 C 0.76292 0.21004 0.55601 0.0
C1063 C 0.82513 0.21267 0.55555 0.0
H1064 H 0.81702 0.21704 0.47638 0.0
C1065 C 0.89898 0.20105 0.4802 0.0
C1066 C 0.89924 0.21216 0.45468 0.0
C1067 C 0.88026 0.20106 0.49728 0.0
C1068 C 0.81985 0.21604 0.49842 0.0
H1069 H 0.77075 0.23146 0.63084 0.0
H1070 H 0.80174 0.23078 0.59936 0.0
H1071 H 0.78565 0.21972 0.50694 0.0
H1072 H 0.87958 0.23228 0.42759 0.0
H1073 H 0.84748 0.23292 0.45733 0.0
H1074 H 0.8594 0.2101 0.54721 0.0
C1075 C 0.78616 0.22478 0.59182 0.0
C1076 C 0.80155 0.21722 0.51617 0.0
C1077 C 0.76817 0.22541 0.61002 0.0
C1078 C 0.88004 0.22319 0.44679 0.0
C1079 C 0.86143 0.2235 0.46404 0.0
C1080 C 0.84344 0.21178 0.53785 0.0
C1081 C 0.78406 0.21684 0.56447 0.0
C1082 C 0.80375 0.21556 0.54518 0.0
C1083 C 0.86113 0.21254 0.4898 0.0
C1084 C 0.84126 0.21339 0.50884 0.0
H1085 H 0.72903 0.20532 0.56684 0.0
H1086 H 0.76029 0.20348 0.53548 0.0
H1087 H 0.82792 0.21086 0.57751 0.0
H1088 H 0.91334 0.19232 0.48712 0.0
H1089 H 0.88092 0.19192 0.51641 0.0
C1090 C 0.20212 0.50331 0.32146 0.0
C1091 C 0.19703 0.50613 0.34968 0.0
C1092 C 0.20302 0.52138 0.30322 0.0
C1093 C 0.20607 0.58359 0.3024 0.0
H1094 H 0.1911 0.57609 0.22518 0.0
C1095 C 0.21517 0.65607 0.2234 0.0
C1096 C 0.20002 0.65752 0.20152 0.0
C1097 C 0.21577 0.63746 0.24078 0.0
C1098 C 0.19517 0.57872 0.24671 0.0
H1099 H 0.18853 0.53061 0.38035 0.0
H1100 H 0.18945 0.56166 0.34883 0.0
H1101 H 0.18931 0.54485 0.25626 0.0
H1102 H 0.17359 0.63992 0.1812 0.0
H1103 H 0.17433 0.60816 0.21135 0.0
H1104 H 0.21114 0.61764 0.29307 0.0
C1105 C 0.19336 0.54562 0.34066 0.0
C1106 C 0.19445 0.56051 0.26466 0.0
C1107 C 0.19263 0.52761 0.35889 0.0
C1108 C 0.18568 0.63957 0.19754 0.0
C1109 C 0.18619 0.62108 0.21494 0.0
C1110 C 0.20667 0.60184 0.28449 0.0
C1111 C 0.19873 0.54296 0.31244 0.0
C1112 C 0.19981 0.56253 0.29295 0.0
C1113 C 0.20115 0.61962 0.23707 0.0
C1114 C 0.20114 0.59984 0.25625 0.0
H1115 H 0.20578 0.48714 0.31348 0.0
H1116 H 0.20753 0.51836 0.28191 0.0
H1117 H 0.21073 0.58611 0.32376 0.0
H1118 H 0.22648 0.66945 0.22733 0.0
H1119 H 0.22783 0.63711 0.25713 0.0
C1120 C 0.75063 0.70027 0.39767 0.0
C1121 C 0.74938 0.71677 0.37733 0.0
C1122 C 0.76879 0.69888 0.41559 0.0
C1123 C 0.82751 0.71631 0.42298 0.0
H1124 H 0.81914 0.70177 0.50028 0.0
C1125 C 0.90146 0.70088 0.49747 0.0
C1126 C 0.90024 0.70977 0.52437 0.0
C1127 C 0.88313 0.70079 0.47973 0.0
C1128 C 0.82187 0.70593 0.47878 0.0
H1129 H 0.76677 0.74472 0.36021 0.0
H1130 H 0.79824 0.74223 0.3911 0.0
H1131 H 0.78755 0.70383 0.46946 0.0
H1132 H 0.87813 0.72522 0.55348 0.0
H1133 H 0.84638 0.72479 0.52295 0.0
H1134 H 0.86181 0.71857 0.43233 0.0
C1135 C 0.78521 0.73023 0.39321 0.0
C1136 C 0.80366 0.70691 0.46094 0.0
C1137 C 0.76698 0.73176 0.37551 0.0
C1138 C 0.87988 0.71811 0.53307 0.0
C1139 C 0.86151 0.7178 0.51547 0.0
C1140 C 0.84575 0.71509 0.44075 0.0
C1141 C 0.78649 0.71378 0.41364 0.0
C1142 C 0.8061 0.71226 0.43271 0.0
C1143 C 0.86282 0.70939 0.48833 0.0
C1144 C 0.84328 0.71001 0.46905 0.0
H1145 H 0.73752 0.68837 0.39983 0.0
H1146 H 0.76909 0.68583 0.43075 0.0
H1147 H 0.83027 0.72026 0.40143 0.0
H1148 H 0.91677 0.69442 0.48978 0.0
H1149 H 0.8849 0.69393 0.45919 0.0
C1150 C 0.20284 0.13908 0.78061 0.0
C1151 C 0.20767 0.16018 0.77025 0.0
C1152 C 0.20255 0.12051 0.76308 0.0
C1153 C 0.19812 0.1044 0.68798 0.0
H1154 H 0.21711 1.04755 0.714 0.0
C1155 C 0.18481 1.02472 0.6222 0.0
C1156 C 0.20101 1.00836 0.62261 0.0
C1157 C 0.18578 1.04292 0.64023 0.0
C1158 C 0.21186 1.06329 0.70617 0.0
H1159 H 0.2162 0.17779 0.73279 0.0
H1160 H 0.21594 0.14573 0.70261 0.0
H1161 H 0.21905 1.07929 0.74478 0.0
H1162 H 0.23103 0.99873 0.64293 0.0
H1163 H 0.23277 1.03028 0.67412 0.0
H1164 H 0.1912 0.08852 0.64929 0.0
C1165 C 0.21207 0.14344 0.72427 0.0
C1166 C 0.21274 1.08159 0.72409 0.0
C1167 C 0.21244 0.16195 0.74178 0.0
C1168 C 0.21818 1.01085 0.64185 0.0
C1169 C 0.2191 1.02901 0.65998 0.0
C1170 C 0.19714 0.0861 0.67014 0.0
C1171 C 0.20695 0.12234 0.73448 0.0
C1172 C 0.20594 0.10256 0.71534 0.0
C1173 C 0.20295 1.04547 0.65951 0.0
C1174 C 0.204 1.06515 0.67882 0.0
H1175 H 0.19887 0.13689 0.80227 0.0
H1176 H 0.19829 0.10476 0.77194 0.0
H1177 H 0.19244 0.12003 0.6803 0.0
H1178 H 0.17126 1.02352 0.60786 0.0
H1179 H 0.17279 1.05488 0.63925 0.0
C1180 C 0.77866 0.45173 0.03215 0.0
C1181 C 0.76077 0.4657 0.02717 0.0
C1182 C 0.79713 0.4517 0.01473 0.0
C1183 C 0.82692 0.48393 0.95993 0.0
H1184 H 0.85407 0.42796 0.94438 0.0
C1185 C 0.90989 0.477 0.89911 0.0
C1186 C 0.91261 0.45925 0.88069 0.0
C1187 C 0.89154 0.47825 0.91679 0.0
C1188 C 0.84672 0.44378 0.94824 0.0
H1189 H 0.74895 0.49093 -0.00048 0.0
H1190 H 0.78115 0.491 0.9693 0.0
H1191 H 0.82225 0.42955 0.97463 0.0
H1192 H 0.8976 0.42886 0.86688 0.0
H1193 H 0.86591 0.43099 0.89743 0.0
H1194 H 0.85131 0.49809 0.9332 0.0
C1195 C 0.78093 0.48007 0.98693 0.0
C1196 C 0.82846 0.44474 0.96602 0.0
C1197 C 0.76233 0.48003 0.00435 0.0
C1198 C 0.89632 0.44277 0.88071 0.0
C1199 C 0.87806 0.44395 0.89848 0.0
C1200 C 0.84531 0.48299 0.94226 0.0
C1201 C 0.79858 0.46567 -0.00844 0.0
C1202 C 0.81817 0.46482 0.97227 0.0
C1203 C 0.87525 0.46172 0.91688 0.0
C1204 C 0.85557 0.46288 0.93602 0.0
H1205 H 0.77831 0.44039 0.04936 0.0
H1206 H 0.81036 0.44062 0.01953 0.0
H1207 H 0.81974 0.49976 0.9642 0.0
H1208 H 0.92195 0.49007 0.89984 0.0
H1209 H 0.8903 0.4921 0.93072 0.0
C1210 C 0.46189 1.03687 0.2812 0.0
C1211 C 0.45287 1.01658 0.27276 0.0
C1212 C 0.46157 1.05537 0.2637 0.0
C1213 C 0.45727 1.07146 0.18914 0.0
H1214 H 0.44747 0.1298 0.21841 0.0
C1215 C 0.47258 0.15062 0.12307 0.0
C1216 C 0.45784 0.16821 0.12569 0.0
C1217 C 0.47146 0.13229 0.1408 0.0
C1218 C 0.45014 0.11365 0.20973 0.0
H1219 H 0.43638 1.00032 0.23869 0.0
H1220 H 0.4359 1.03236 0.20833 0.0
H1221 H 0.44597 0.0981 0.24929 0.0
H1222 H 0.43031 0.17993 0.14967 0.0
H1223 H 0.42847 0.14822 0.18061 0.0
H1224 H 0.46148 0.087 0.1496 0.0
C1225 C 0.44328 1.034 0.22858 0.0
C1226 C 0.44948 0.09537 0.22761 0.0
C1227 C 0.44335 1.01557 0.24622 0.0
C1228 C 0.44199 0.16683 0.14685 0.0
C1229 C 0.44101 0.14859 0.1648 0.0
C1230 C 0.45818 0.08976 0.17133 0.0
C1231 C 0.4525 1.05424 0.2369 0.0
C1232 C 0.453 1.0739 0.21767 0.0
C1233 C 0.45569 0.13091 0.16208 0.0
C1234 C 0.45461 0.11123 0.18125 0.0
H1235 H 0.46951 1.03844 0.30132 0.0
H1236 H 0.46904 1.07045 0.27097 0.0
H1237 H 0.46029 1.05535 0.18054 0.0
H1238 H 0.48505 0.15092 0.10715 0.0
H1239 H 0.48325 0.11928 0.13805 0.0
C1240 C 0.25639 0.4675 0.48482 0.0
C1241 C 0.25799 0.46353 0.45613 0.0
C1242 C 0.27497 0.46702 0.50206 0.0
C1243 C 0.33682 0.46819 0.50124 0.0
H1244 H 0.33022 0.44615 0.57591 0.0
C1245 C 0.40849 0.47265 0.58187 0.0
C1246 C 0.41056 0.45571 0.60153 0.0
C1247 C 0.39025 0.47369 0.56402 0.0
C1248 C 0.33258 0.4522 0.55508 0.0
H1249 H 0.28111 0.4562 0.42347 0.0
H1250 H 0.31328 0.45517 0.4533 0.0
H1251 H 0.29862 0.44757 0.54544 0.0
H1252 H 0.39457 0.42646 0.61724 0.0
H1253 H 0.36319 0.42808 0.58623 0.0
H1254 H 0.3709 0.47236 0.51073 0.0
C1255 C 0.29762 0.45893 0.46258 0.0
C1256 C 0.31419 0.45332 0.53754 0.0
C1257 C 0.279 0.45941 0.44531 0.0
C1258 C 0.39372 0.43982 0.60257 0.0
C1259 C 0.37549 0.44086 0.58475 0.0
C1260 C 0.35522 0.4671 0.51881 0.0
C1261 C 0.29598 0.46253 0.4914 0.0
C1262 C 0.31588 0.46136 0.51023 0.0
C1263 C 0.37331 0.45785 0.56512 0.0
C1264 C 0.35351 0.45907 0.54613 0.0
H1265 H 0.24064 0.47073 0.49419 0.0
H1266 H 0.27278 0.47031 0.52389 0.0
H1267 H 0.33904 0.47469 0.4806 0.0
H1268 H 0.42094 0.48529 0.58032 0.0
H1269 H 0.38931 0.48724 0.54964 0.0
C1270 C 0.95407 0.17267 0.32226 0.0
C1271 C 0.95932 0.16982 0.3504 0.0
C1272 C 0.95245 0.15457 0.30409 0.0
C1273 C 0.94754 0.09246 0.30346 0.0
H1274 H 0.96202 0.09931 0.22599 0.0
C1275 C 0.93582 1.02001 0.22466 0.0
C1276 C 0.95078 1.0181 0.2026 0.0
C1277 C 0.93582 1.03868 0.24203 0.0
C1278 C 0.95807 0.09686 0.24759 0.0
H1279 H 0.96732 0.14521 0.38101 0.0
H1280 H 0.96518 0.11407 0.34959 0.0
H1281 H 0.965 0.13057 0.25698 0.0
H1282 H 0.97755 1.03492 0.18194 0.0
H1283 H 0.97783 1.06678 0.21202 0.0
H1284 H 0.94142 1.05854 0.29425 0.0
C1285 C 0.96168 0.13019 0.34145 0.0
C1286 C 0.95948 0.11509 0.2655 0.0
C1287 C 0.96313 0.14824 0.3596 0.0
C1288 C 0.96555 1.03565 0.1984 0.0
C1289 C 0.96564 1.05419 0.21578 0.0
C1290 C 0.94626 1.07418 0.28558 0.0
C1291 C 0.95616 0.1329 0.31331 0.0
C1292 C 0.95433 0.11331 0.29387 0.0
C1293 C 0.95088 1.05612 0.2381 0.0
C1294 C 0.95159 1.07594 0.25725 0.0
H1295 H 0.95083 0.18892 0.31428 0.0
H1296 H 0.94784 0.15765 0.28285 0.0
H1297 H 0.94301 0.09014 0.3249 0.0
H1298 H 0.92422 1.00692 0.2288 0.0
H1299 H 0.9239 1.0394 0.25855 0.0
C1300 C 0.2604 0.73162 0.10143 0.0
C1301 C 0.24405 0.71522 0.1011 0.0
C1302 C 0.27869 0.73054 0.08372 0.0
C1303 C 0.29971 0.70355 0.01883 0.0
H1304 H 0.3559 0.72415 0.04559 0.0
C1305 C 0.3763 0.71264 0.94605 0.0
C1306 C 0.39721 0.7084 0.95706 0.0
C1307 C 0.35752 0.71283 0.96308 0.0
C1308 C 0.34044 0.71812 0.03768 0.0
H1309 H 0.23447 0.68476 0.08125 0.0
H1310 H 0.26625 0.6828 0.05059 0.0
H1311 H 0.3241 0.7254 0.07586 0.0
H1312 H 0.41422 0.70067 -0.00487 0.0
H1313 H 0.38181 0.70071 0.02444 0.0
H1314 H 0.3162 0.69598 0.98074 0.0
C1315 C 0.26488 0.69671 0.06442 0.0
C1316 C 0.32197 0.71912 0.05508 0.0
C1317 C 0.2466 0.69775 0.08224 0.0
C1318 C 0.39856 0.70402 0.98565 0.0
C1319 C 0.37984 0.70425 0.00265 0.0
C1320 C 0.3182 0.70264 0.00136 0.0
C1321 C 0.28135 0.71305 0.06487 0.0
C1322 C 0.30121 0.71186 0.04605 0.0
C1323 C 0.35895 0.70887 -0.00819 0.0
C1324 C 0.33897 0.70986 0.01044 0.0
H1325 H 0.25914 0.7454 0.11549 0.0
H1326 H 0.29064 0.74369 0.08462 0.0
H1327 H 0.28413 0.69798 0.01077 0.0
H1328 H 0.37442 0.71618 0.92427 0.0
H1329 H 0.34193 0.71667 0.95375 0.0
C1330 C 0.70127 0.13571 0.69682 0.0
C1331 C 0.70516 0.15683 0.70778 0.0
C1332 C 0.70106 0.11696 0.71395 0.0
C1333 C 0.69512 0.10002 0.78855 0.0
H1334 H 0.71608 1.0439 0.7622 0.0
C1335 C 0.68202 1.01962 0.85246 0.0
C1336 C 0.69858 1.00362 0.85241 0.0
C1337 C 0.68302 1.03793 0.83471 0.0
C1338 C 0.71027 1.05943 0.77012 0.0
H1339 H 0.71221 0.17426 0.74591 0.0
H1340 H 0.71213 0.1419 0.77541 0.0
H1341 H 0.71805 1.07598 0.7321 0.0
H1342 H 0.72924 0.99471 0.833 0.0
H1343 H 0.73103 1.0265 0.80228 0.0
H1344 H 0.68764 1.08362 0.82667 0.0
C1345 C 0.70889 0.13973 0.75356 0.0
C1346 C 0.71117 1.07792 0.75259 0.0
C1347 C 0.70916 0.15842 0.73645 0.0
C1348 C 0.71611 1.00655 0.83377 0.0
C1349 C 0.71707 1.02484 0.81592 0.0
C1350 C 0.69414 1.08154 0.80601 0.0
C1351 C 0.70464 0.11861 0.74275 0.0
C1352 C 0.70366 0.09863 0.76146 0.0
C1353 C 0.70058 1.04097 0.81609 0.0
C1354 C 0.70169 1.06084 0.79719 0.0
H1355 H 0.69803 0.13362 0.67498 0.0
H1356 H 0.6975 0.10119 0.70462 0.0
H1357 H 0.68887 0.11543 0.79631 0.0
H1358 H 0.66819 1.01807 0.86635 0.0
H1359 H 0.66976 1.04961 0.8354 0.0
C1360 C 0.5324 0.17594 0.8867 0.0
C1361 C 0.53102 0.19319 0.90596 0.0
C1362 C 0.54422 0.1786 0.86215 0.0
C1363 C 0.58991 0.21082 0.8345 0.0
H1364 H 0.57102 0.18881 0.76305 0.0
C1365 C 0.63977 0.22863 0.73707 0.0
C1366 C 0.64315 0.21118 0.71858 0.0
C1367 C 0.62435 0.22684 0.75818 0.0
C1368 C 0.57658 0.19486 0.78293 0.0
H1369 H 0.54054 0.2269 0.91423 0.0
H1370 H 0.56082 0.23163 0.8713 0.0
H1371 H 0.5469 0.18502 0.80324 0.0
H1372 H 0.63251 0.1784 0.70716 0.0
H1373 H 0.60572 0.1751 0.74453 0.0
H1374 H 0.61964 0.22033 0.81461 0.0
C1375 C 0.55295 0.21599 0.87529 0.0
C1376 C 0.56277 0.19272 0.80588 0.0
C1377 C 0.54112 0.21335 0.89975 0.0
C1378 C 0.63025 0.19213 0.72109 0.0
C1379 C 0.61485 0.19028 0.74242 0.0
C1380 C 0.60368 0.21288 0.81168 0.0
C1381 C 0.55497 0.19853 0.85647 0.0
C1382 C 0.56928 0.2008 0.83187 0.0
C1383 C 0.61204 0.20748 0.7615 0.0
C1384 C 0.59716 0.20505 0.78559 0.0
H1385 H 0.52456 0.1603 0.89076 0.0
H1386 H 0.54556 0.16483 0.84809 0.0
H1387 H 0.5956 0.21676 0.85438 0.0
H1388 H 0.6492 0.24367 0.73547 0.0
H1389 H 0.62222 0.24059 0.77212 0.0
C1390 C 0.72763 0.78345 0.13585 0.0
C1391 C 0.73252 0.7952 0.16013 0.0
C1392 C 0.72564 0.79439 0.11054 0.0
C1393 C 0.73976 0.84724 0.07663 0.0
H1394 H 0.69218 0.83274 0.0267 0.0
C1395 C 0.70652 0.9081 -0.00205 0.0
C1396 C 0.70419 0.90099 0.97044 0.0
C1397 C 0.71118 0.89318 0.01887 0.0
C1398 C 0.70571 0.83672 0.0403 0.0
H1399 H 0.73848 0.82762 0.17711 0.0
H1400 H 0.73475 0.84665 0.13333 0.0
H1401 H 0.69833 0.81016 0.06779 0.0
H1402 H 0.70443 0.87259 0.94338 0.0
H1403 H 0.71217 0.84625 0.98047 0.0
H1404 H 0.74652 0.87433 0.04981 0.0
C1405 C 0.73309 0.82896 0.13351 0.0
C1406 C 0.70928 0.82381 0.06376 0.0
C1407 C 0.73518 0.81806 0.15866 0.0
C1408 C 0.70621 0.87853 0.96439 0.0
C1409 C 0.71055 0.86348 0.98553 0.0
C1410 C 0.73605 0.86022 0.05342 0.0
C1411 C 0.72841 0.81729 0.1091 0.0
C1412 C 0.72603 0.82927 0.08255 0.0
C1413 C 0.71337 0.87079 0.01287 0.0
C1414 C 0.71871 0.85538 0.03541 0.0
H1415 H 0.7256 0.7658 0.13638 0.0
H1416 H 0.72217 0.78491 0.09209 0.0
H1417 H 0.75317 0.85157 0.09025 0.0
H1418 H 0.70517 0.9253 0.00333 0.0
H1419 H 0.71303 0.89917 0.03986 0.0
C1420 C 1.00539 0.96618 0.24629 0.0
C1421 C 1.01162 0.96406 0.21842 0.0
C1422 C 1.021 0.96988 0.26672 0.0
C1423 C 1.07736 0.96187 0.28603 0.0
H1424 H 1.06555 1.00872 0.33822 0.0
C1425 C 0.13273 0.98072 0.38137 0.0
C1426 C 0.12151 0.98567 0.40599 0.0
C1427 C 0.12139 0.97906 0.35628 0.0
C1428 C 1.06904 0.99548 0.32396 0.0
H1429 H 1.03923 0.9637 0.19023 0.0
H1430 H 1.0668 0.96982 0.22647 0.0
H1431 H 1.04209 1.00395 0.29799 0.0
H1432 H 0.08957 0.99175 0.42383 0.0
H1433 H 1.06986 0.98861 0.38043 0.0
H1434 H 0.10382 0.95283 0.3127 0.0
C1435 C 1.04969 0.96877 0.23218 0.0
C1436 C 1.05567 0.99284 0.30086 0.0
C1437 C 1.03394 0.96536 0.21151 0.0
C1438 C 0.09874 0.98843 0.40512 0.0
C1439 C 0.08746 0.98668 0.3802 0.0
C1440 C 0.0907 0.96439 0.30939 0.0
C1441 C 1.04325 0.97135 0.2599 0.0
C1442 C 1.05937 0.97571 0.28206 0.0
C1443 C 0.09864 0.98224 0.35541 0.0
C1444 C 0.08629 0.98088 0.32899 0.0
H1445 H 0.98836 0.96531 0.2524 0.0
H1446 H 1.01564 0.97153 0.28799 0.0
H1447 H 1.08047 0.94848 0.27183 0.0
H1448 H 0.1503 0.9786 0.38144 0.0
H1449 H 0.13049 0.9757 0.33753 0.0
C1450 C 0.93381 0.28306 0.47406 0.0
C1451 C 0.95408 0.27353 0.46786 0.0
C1452 C 0.93175 0.29719 0.49674 0.0
C1453 C 0.95943 0.30988 0.56296 0.0
H1454 H 0.91897 0.35854 0.56531 0.0
C1455 C 0.93754 0.35198 0.66547 0.0
C1456 C 0.9349 0.37483 0.66548 0.0
C1457 C 0.93965 0.34054 0.6406 0.0
C1458 C 0.93052 0.34515 0.56492 0.0
H1459 H 0.98834 0.27235 0.4792 0.0
H1460 H 0.98497 0.29754 0.51797 0.0
H1461 H 0.92388 0.33819 0.52231 0.0
H1462 H 0.93249 0.40368 0.63958 0.0
H1463 H 0.9367 0.38377 0.59605 0.0
H1464 H 0.96663 0.31716 0.60517 0.0
C1465 C 0.97046 0.29355 0.50612 0.0
C1466 C 0.93313 0.33331 0.54034 0.0
C1467 C 0.97244 0.27923 0.48378 0.0
C1468 C 0.93431 0.38602 0.64012 0.0
C1469 C 0.93665 0.3746 0.61521 0.0
C1470 C 0.95697 0.3218 0.58738 0.0
C1471 C 0.94999 0.30224 0.5134 0.0
C1472 C 0.94757 0.31546 0.5391 0.0
C1473 C 0.93943 0.35171 0.61515 0.0
C1474 C 0.94236 0.33947 0.58878 0.0
H1475 H 0.91937 0.27882 0.4622 0.0
H1476 H 0.91569 0.30341 0.50185 0.0
H1477 H 0.97043 0.29602 0.56299 0.0
H1478 H 0.9377 0.3429 0.68471 0.0
H1479 H 0.94127 0.32287 0.64136 0.0
C1480 C 0.6345 0.98178 0.09506 0.0
C1481 C 0.62331 0.98818 0.07103 0.0
C1482 C 0.6235 0.98045 0.12044 0.0
C1483 C 0.57249 0.99882 0.15515 0.0
H1484 H 0.58159 0.94877 0.20314 0.0
C1485 C 0.50769 0.96787 0.2307 0.0
C1486 C 0.51396 0.9644 0.25828 0.0
C1487 C 0.52335 0.97215 0.21046 0.0
C1488 C 0.57916 0.96299 0.19011 0.0
H1489 H 0.59174 0.99751 0.05456 0.0
H1490 H 0.5726 0.99494 0.0984 0.0
H1491 H 0.60499 0.9539 0.16249 0.0
H1492 H 0.54158 0.96224 0.28624 0.0
H1493 H 0.56921 0.96925 0.25031 0.0
H1494 H 0.54598 1.00726 0.18198 0.0
C1495 C 0.58997 0.9916 0.09802 0.0
C1496 C 0.59254 0.96598 0.16689 0.0
C1497 C 0.60094 0.99303 0.07282 0.0
C1498 C 0.5363 0.96494 0.26514 0.0
C1499 C 0.55207 0.96886 0.24467 0.0
C1500 C 0.55901 0.99569 0.17808 0.0
C1501 C 0.6011 0.98541 0.12219 0.0
C1502 C 0.58895 0.98362 0.14874 0.0
C1503 C 0.54565 0.97276 0.21724 0.0
C1504 C 0.56188 0.97748 0.19536 0.0
H1505 H 0.65178 0.97804 0.09429 0.0
H1506 H 0.63257 0.97575 0.1387 0.0
H1507 H 0.56965 1.01291 0.14204 0.0
H1508 H 0.49061 0.96765 0.22474 0.0
H1509 H 0.51803 0.97487 0.18937 0.0
C1510 C 0.43274 0.39239 0.84695 0.0
C1511 C 0.43871 0.38164 0.82236 0.0
C1512 C 0.43655 0.38254 0.87263 0.0
C1513 C 0.47018 0.34042 0.9064 0.0
H1514 H 0.42186 0.33406 0.95786 0.0
C1515 C 0.46672 0.27118 0.98528 0.0
C1516 C 0.45823 0.27499 0.01188 0.0
C1517 C 0.46597 0.2874 0.96509 0.0
C1518 C 0.43566 0.33607 0.94401 0.0
H1519 H 0.45387 0.35257 0.80529 0.0
H1520 H 0.46057 0.33544 0.84997 0.0
H1521 H 0.41765 0.35701 0.91676 0.0
H1522 H 0.44246 0.29906 0.03815 0.0
H1523 H 0.44109 0.3276 0.00253 0.0
H1524 H 0.48805 0.31916 0.93314 0.0
C1525 C 0.45295 0.35143 0.84949 0.0
C1526 C 0.43323 0.34918 0.92047 0.0
C1527 C 0.44892 0.36112 0.82391 0.0
C1528 C 0.44913 0.29559 0.01786 0.0
C1529 C 0.44827 0.3119 -0.00253 0.0
C1530 C 0.47264 0.32745 0.92992 0.0
C1531 C 0.44671 0.36196 0.87412 0.0
C1532 C 0.45025 0.3509 0.90102 0.0
C1533 C 0.4567 0.30793 0.97085 0.0
C1534 C 0.45517 0.32453 0.94851 0.0
H1535 H 0.42477 0.4082 0.84629 0.0
H1536 H 0.43163 0.39102 0.89131 0.0
H1537 H 0.48372 0.34181 0.89203 0.0
H1538 H 0.47389 0.25556 0.97985 0.0
H1539 H 0.47223 0.28364 0.94467 0.0
C1540 C 0.14544 0.23142 0.73932 0.0
C1541 C 0.14732 0.2145 0.75887 0.0
C1542 C 0.13157 0.22913 0.71668 0.0
C1543 C 0.08494 0.19825 0.68821 0.0
H1544 H 0.11112 0.21447 0.61797 0.0
C1545 C 1.04447 0.17904 0.58259 0.0
C1546 C 1.04596 0.19529 0.56204 0.0
C1547 C 1.05596 0.18127 0.60741 0.0
C1548 C 0.10344 0.21014 0.63742 0.0
H1549 H 0.13529 0.18232 0.77073 0.0
H1550 H 0.11093 0.17828 0.73084 0.0
H1551 H 0.13209 0.21871 0.66035 0.0
H1552 H 1.06062 0.22667 0.55152 0.0
H1553 H 1.08025 0.23081 0.59502 0.0
H1554 H 1.05621 0.18975 0.66513 0.0
C1555 C 0.12024 0.19333 0.73321 0.0
C1556 C 0.11547 0.21253 0.6617 0.0
C1557 C 0.1342 0.19563 0.75599 0.0
C1558 C 1.05901 0.21393 0.56699 0.0
C1559 C 1.07044 0.21618 0.5918 0.0
C1560 C 1.07283 0.19591 0.66383 0.0
C1561 C 0.11923 0.20986 0.713 0.0
C1562 C 0.10632 0.20678 0.68737 0.0
C1563 C 1.06916 0.19982 0.61223 0.0
C1564 C 1.08193 0.20197 0.63819 0.0
H1565 H 0.15506 0.24633 0.74111 0.0
H1566 H 0.13075 0.24234 0.70176 0.0
H1567 H 1.07745 0.19381 0.70774 0.0
H1568 H 1.0343 0.16463 0.5796 0.0
H1569 H 1.05476 0.1683 0.62262 0.0
C1570 C 0.2084 0.91041 0.479 0.0
C1571 C 0.20562 0.90374 0.50659 0.0
C1572 C 0.21224 0.89504 0.45828 0.0
C1573 C 0.20285 0.83898 0.43757 0.0
H1574 H 0.25035 0.85039 0.38624 0.0
C1575 C 0.21965 0.78407 0.34155 0.0
C1576 C 0.22515 0.79532 0.31714 0.0
C1577 C 0.21861 0.79524 0.36682 0.0
C1578 C 0.23692 0.84704 0.40026 0.0
H1579 H 0.20439 0.87568 0.53408 0.0
H1580 H 0.21067 0.84853 0.49732 0.0
H1581 H 0.24601 0.87362 0.42689 0.0
H1582 H 0.23314 0.82716 0.29986 0.0
H1583 H 0.231 0.84667 0.34361 0.0
H1584 H 0.19314 0.81299 0.41028 0.0
C1585 C 0.21004 0.86577 0.49204 0.0
C1586 C 0.23454 0.86026 0.42359 0.0
C1587 C 0.20653 0.88127 0.51299 0.0
C1588 C 0.22928 0.81797 0.31841 0.0
C1589 C 0.22813 0.82913 0.34354 0.0
C1590 C 0.20509 0.82583 0.41399 0.0
C1591 C 0.21314 0.87261 0.46457 0.0
C1592 C 0.2172 0.85668 0.4421 0.0
C1593 C 0.22296 0.8179 0.36811 0.0
C1594 C 0.22184 0.83009 0.3947 0.0
H1595 H 0.20791 0.9276 0.47338 0.0
H1596 H 0.21434 0.90069 0.4372 0.0
H1597 H 0.18928 0.836 0.45153 0.0
H1598 H 0.21654 0.76656 0.34118 0.0
H1599 H 0.21473 0.78609 0.38538 0.0
C1600 C 1.02966 0.67909 0.3864 0.0
C1601 C 1.0318 0.69433 0.4081 0.0
C1602 C 1.04091 0.68224 0.3615 0.0
C1603 C 0.09045 0.70851 0.3353 0.0
H1604 H 1.0649 0.70069 0.26253 0.0
C1605 C 0.13955 0.73004 0.23883 0.0
C1606 C 0.13861 0.71543 0.21639 0.0
C1607 C 0.12465 0.72829 0.26051 0.0
C1608 C 1.0723 0.7027 0.28272 0.0
H1609 H 1.04716 0.72494 0.42059 0.0
H1610 H 1.06667 0.73045 0.3772 0.0
H1611 H 1.04214 0.69581 0.30384 0.0
H1612 H 0.12085 0.68806 0.19844 0.0
H1613 H 0.095 0.68455 0.23691 0.0
H1614 H 0.12064 0.71488 0.31466 0.0
C1615 C 1.05635 0.71606 0.37945 0.0
C1616 C 1.05927 0.69996 0.30631 0.0
C1617 C 1.04502 0.713 0.40419 0.0
C1618 C 0.1219 0.69955 0.2155 0.0
C1619 C 0.10708 0.69759 0.23749 0.0
C1620 C 0.10346 0.71107 0.31186 0.0
C1621 C 1.05467 0.70057 0.35802 0.0
C1622 C 1.06822 0.70306 0.3328 0.0
C1623 C 0.10864 0.71165 0.26054 0.0
C1624 C 0.09453 0.70845 0.28526 0.0
H1625 H 1.01941 0.66467 0.38875 0.0
H1626 H 1.03941 0.67001 0.34534 0.0
H1627 H 0.0979 0.71052 0.35548 0.0
H1628 H 0.15202 0.74272 0.23983 0.0
H1629 H 0.12593 0.7398 0.27752 0.0
C1630 C 0.20421 0.30814 0.65526 0.0
C1631 C 0.22529 0.30581 0.66646 0.0
C1632 C 0.2012 0.3188 0.63002 0.0
C1633 C 0.22895 0.33344 0.56562 0.0
H1634 H 0.18593 0.37974 0.5612 0.0
C1635 C 0.22465 0.39405 0.47394 0.0
C1636 C 0.20413 0.40251 0.46679 0.0
C1637 C 0.22673 0.38021 0.49679 0.0
C1638 C 0.19771 0.36656 0.56182 0.0
H1639 H 0.2597 0.31324 0.65997 0.0
H1640 H 0.25441 0.33137 0.61559 0.0
H1641 H 0.19033 0.3596 0.6042 0.0
H1642 H 0.16953 0.40207 0.47651 0.0
H1643 H 0.17296 0.37723 0.51557 0.0
H1644 H 0.2362 0.34016 0.52315 0.0
C1645 C 0.24028 0.32479 0.62637 0.0
C1646 C 0.20028 0.35513 0.58654 0.0
C1647 C 0.24328 0.31438 0.65176 0.0
C1648 C 0.18559 0.39598 0.48185 0.0
C1649 C 0.1876 0.38188 0.50436 0.0
C1650 C 0.22619 0.3447 0.54072 0.0
C1651 C 0.21922 0.32711 0.61531 0.0
C1652 C 0.21603 0.3386 0.58874 0.0
C1653 C 0.20827 0.37434 0.51264 0.0
C1654 C 0.21063 0.36151 0.53858 0.0
H1655 H 0.19003 0.30138 0.66571 0.0
H1656 H 0.18481 0.32024 0.62178 0.0
H1657 H 0.24107 0.32058 0.56676 0.0
H1658 H 0.23922 0.399 0.46274 0.0
H1659 H 0.24293 0.3749 0.5027 0.0
C1660 C 0.5359 0.46294 0.71419 0.0
C1661 C 0.51346 0.46106 0.72023 0.0
C1662 C 0.55107 0.46654 0.73547 0.0
C1663 C 0.55488 0.48965 0.80514 0.0
H1664 H 0.60492 0.45186 0.81601 0.0
C1665 C 0.59898 0.48642 0.90908 0.0
C1666 C 0.62186 0.48464 0.9095 0.0
C1667 C 0.58748 0.48429 0.88434 0.0
C1668 C 0.59124 0.4628 0.81301 0.0
H1669 H 0.48938 0.46151 0.75331 0.0
H1670 H 0.51567 0.468 0.79001 0.0
H1671 H 0.58194 0.44716 0.77492 0.0
H1672 H 0.65064 0.47901 0.88433 0.0
H1673 H 0.63049 0.4755 0.84081 0.0
H1674 H 0.56391 0.50531 0.84299 0.0
C1675 C 0.52156 0.46669 0.76894 0.0
C1676 C 0.57811 0.46008 0.78952 0.0
C1677 C 0.50653 0.46282 0.74787 0.0
C1678 C 0.63299 0.48034 0.88463 0.0
C1679 C 0.62145 0.47832 0.85975 0.0
C1680 C 0.56804 0.49249 0.8284 0.0
C1681 C 0.54394 0.4687 0.76299 0.0
C1682 C 0.5595 0.47314 0.78578 0.0
C1683 C 0.59856 0.48047 0.8593 0.0
C1684 C 0.58603 0.47872 0.83304 0.0
H1685 H 0.54173 0.46159 0.6931 0.0
H1686 H 0.56827 0.46804 0.73041 0.0
H1687 H 0.54083 0.50019 0.80248 0.0
H1688 H 0.58992 0.48927 0.928 0.0
H1689 H 0.56982 0.48545 0.88491 0.0
C1690 C 0.43373 0.78586 0.96637 0.0
C1691 C 0.45143 0.77126 0.96704 0.0
C1692 C 0.4318 0.80236 0.98635 0.0
C1693 C 0.46327 0.83342 0.03885 0.0
H1694 H 0.40722 0.83941 0.07557 0.0
C1695 C 0.45418 0.87323 0.14612 0.0
C1696 C 0.4353 0.88543 0.15195 0.0
C1697 C 0.45631 0.86216 0.12098 0.0
C1698 C 0.42289 0.83828 0.06522 0.0
H1699 H 0.48127 0.7629 0.98885 0.0
H1700 H 0.47783 0.79153 0.02359 0.0
H1701 H 0.41058 0.81491 0.03596 0.0
H1702 H 0.40426 0.89637 0.13547 0.0
H1703 H 0.40802 0.8771 0.09142 0.0
H1704 H 0.47568 0.8565 0.06837 0.0
C1705 C 0.46552 0.79035 0.00755 0.0
C1706 C 0.42481 0.82421 0.04253 0.0
C1707 C 0.46738 0.77381 0.98773 0.0
C1708 C 0.41886 0.88682 0.13174 0.0
C1709 C 0.42101 0.87578 0.10653 0.0
C1710 C 0.46134 0.84754 0.06148 0.0
C1711 C 0.44762 0.80469 0.00723 0.0
C1712 C 0.44511 0.8213 0.02944 0.0
C1713 C 0.43963 0.86307 0.10102 0.0
C1714 C 0.44122 0.84981 0.07527 0.0
H1715 H 0.42117 0.78436 0.95069 0.0
H1716 H 0.41791 0.81328 0.98548 0.0
H1717 H 0.47905 0.83178 0.02888 0.0
H1718 H 0.467 0.87157 0.16141 0.0
H1719 H 0.4707 0.85223 0.11763 0.0
C1720 C 0.09468 0.48542 0.56885 0.0
C1721 C 0.11701 0.48064 0.56633 0.0
C1722 C 0.08438 0.48434 0.59455 0.0
C1723 C 0.08922 0.46073 0.66448 0.0
H1724 H 1.04447 0.50367 0.68091 0.0
C1725 C 1.0377 0.46333 0.76655 0.0
C1726 C 1.0151 0.46318 0.7612 0.0
C1727 C 1.05264 0.46664 0.74494 0.0
C1728 C 1.05702 0.49165 0.67663 0.0
H1729 H 0.14612 0.47096 0.58867 0.0
H1730 H 0.12811 0.46923 0.63379 0.0
H1731 H 1.06609 0.50727 0.6388 0.0
H1732 H 0.99044 0.46671 0.72923 0.0
H1733 H 1.01638 0.47275 0.69195 0.0
H1734 H 1.07981 0.44508 0.70246 0.0
C1735 C 0.11851 0.47354 0.61581 0.0
C1736 C 1.06929 0.49359 0.65246 0.0
C1737 C 0.12881 0.47451 0.59 0.0
C1738 C 1.00774 0.46657 0.73403 0.0
C1739 C 1.02257 0.47021 0.71269 0.0
C1740 C 1.07702 0.4589 0.68887 0.0
C1741 C 0.09621 0.47861 0.61839 0.0
C1742 C 0.08506 0.47779 0.64566 0.0
C1743 C 1.04512 0.47031 0.7179 0.0
C1744 C 1.06041 0.474 0.69469 0.0
H1745 H 0.08511 0.48985 0.55088 0.0
H1746 H 1.06705 0.4878 0.59568 0.0
H1747 H 0.10119 0.44824 0.65979 0.0
H1748 H 1.04379 0.46071 0.78731 0.0
H1749 H 1.07 0.46663 0.74937 0.0
C1750 C 0.92255 0.88446 0.34471 0.0
C1751 C 0.93722 0.88248 0.32243 0.0
C1752 C 0.92574 0.87249 0.36902 0.0
C1753 C 0.9512 0.8218 0.39293 0.0
H1754 H 0.94376 0.84601 0.46655 0.0
C1755 C 0.97172 0.77083 0.48838 0.0
C1756 C 0.95721 0.77161 0.51089 0.0
C1757 C 0.97012 0.78592 0.46688 0.0
C1758 C 0.94567 0.83897 0.44612 0.0
H1759 H 0.96691 0.86667 0.30838 0.0
H1760 H 0.97257 0.84596 0.35082 0.0
H1761 H 0.93934 0.86967 0.42609 0.0
H1762 H 0.9301 0.78931 0.52903 0.0
H1763 H 0.92692 0.81552 0.49098 0.0
H1764 H 0.95707 0.79109 0.41257 0.0
C1765 C 0.95853 0.85667 0.34943 0.0
C1766 C 0.94319 0.85252 0.42299 0.0
C1767 C 0.95541 0.86869 0.32523 0.0
C1768 C 0.94152 0.78833 0.51193 0.0
C1769 C 0.93976 0.80337 0.49018 0.0
C1770 C 0.95354 0.80828 0.41594 0.0
C1771 C 0.94358 0.8582 0.37143 0.0
C1772 C 0.94609 0.84408 0.39617 0.0
C1773 C 0.95379 0.80205 0.46714 0.0
C1774 C 0.95098 0.81669 0.44284 0.0
H1775 H 0.9085 0.89514 0.34327 0.0
H1776 H 0.9139 0.87392 0.38559 0.0
H1777 H 0.95306 0.81471 0.37252 0.0
H1778 H 0.98428 0.75841 0.48722 0.0
H1779 H 0.98159 0.78478 0.44986 0.0
C1780 C 0.5655 0.69031 0.0655 0.0
C1781 C 0.54279 0.69339 0.06495 0.0
C1782 C 0.57699 0.69193 0.09033 0.0
C1783 C 0.5734 0.71389 0.16156 0.0
H1784 H 0.6221 0.67455 0.17344 0.0
C1785 C 0.62597 0.71152 0.26223 0.0
C1786 C 0.64855 0.71301 0.25709 0.0
C1787 C 0.61132 0.70819 0.24034 0.0
C1788 C 0.60851 0.68561 0.17039 0.0
H1789 H 0.51421 0.70048 0.0899 0.0
H1790 H 0.53425 0.70299 0.13348 0.0
H1791 H 0.59964 0.67042 0.13216 0.0
H1792 H 0.67353 0.71195 0.22512 0.0
H1793 H 0.64808 0.70592 0.18729 0.0
H1794 H 0.58245 0.72899 0.20003 0.0
C1795 C 0.54326 0.69972 0.11464 0.0
C1796 C 0.59573 0.68336 0.14668 0.0
C1797 C 0.53178 0.69827 0.08971 0.0
C1798 C 0.65621 0.711 0.22979 0.0
C1799 C 0.64168 0.70737 0.20812 0.0
C1800 C 0.5861 0.71599 0.18547 0.0
C1801 C 0.56599 0.69645 0.11525 0.0
C1802 C 0.57834 0.6978 0.14164 0.0
C1803 C 0.61913 0.70591 0.21315 0.0
C1804 C 0.60405 0.70217 0.18973 0.0
H1805 H 0.57443 0.68685 0.04664 0.0
H1806 H 0.59456 0.68984 0.08992 0.0
H1807 H 0.56022 0.72538 0.15823 0.0
H1808 H 0.61962 0.71307 0.28306 0.0
H1809 H 0.59396 0.7071 0.24467 0.0
C1810 C 0.71161 0.412 0.98259 0.0
C1811 C 0.70734 0.40515 0.0098 0.0
C1812 C 0.71513 0.39671 0.96172 0.0
C1813 C 0.70195 0.34201 0.9391 0.0
H1814 H 0.75094 0.351 0.88925 0.0
C1815 C 0.71639 0.28829 0.84148 0.0
C1816 C 0.72303 0.29967 0.81761 0.0
C1817 C 0.71561 0.29898 0.86708 0.0
C1818 C 0.7371 0.34834 0.90286 0.0
H1819 H 0.70326 0.37689 0.03652 0.0
H1820 H 0.70898 0.34985 -0.00058 0.0
H1821 H 0.74783 0.37339 0.93084 0.0
H1822 H 0.73332 0.33126 0.80159 0.0
H1823 H 0.73166 0.34999 0.846 0.0
H1824 H 0.69067 0.3176 0.91047 0.0
C1825 C 0.70977 0.36718 -0.00542 0.0
C1826 C 0.73543 0.36105 0.92673 0.0
C1827 C 0.70658 0.38259 0.01572 0.0
C1828 C 0.7285 0.32199 0.81972 0.0
C1829 C 0.72763 0.33268 0.8452 0.0
C1830 C 0.70352 0.32936 0.91501 0.0
C1831 C 0.71423 0.37418 0.96746 0.0
C1832 C 0.71757 0.35838 0.94469 0.0
C1833 C 0.7214 0.32126 0.86924 0.0
C1834 C 0.72082 0.33283 0.89627 0.0
H1835 H 0.71244 0.42927 0.97737 0.0
H1836 H 0.71827 0.40251 0.94091 0.0
H1837 H 0.68796 0.33977 0.95259 0.0
H1838 H 0.71229 0.271 0.84049 0.0
H1839 H 0.71089 0.2897 0.88522 0.0
C1840 C 0.4312 0.35218 0.19852 0.0
C1841 C 0.4461 0.33521 0.20338 0.0
C1842 C 0.42649 0.36733 0.21928 0.0
C1843 C 0.41637 0.39743 0.26655 0.0
H1844 H 0.40405 0.3617 0.33102 0.0
C1845 C 0.3452 0.41901 0.33788 0.0
C1846 C 0.33076 0.40112 0.34063 0.0
C1847 C 0.36677 0.41573 0.32922 0.0
C1848 C 0.40756 0.37205 0.31335 0.0
H1849 H 0.47002 0.32256 0.23219 0.0
H1850 H 0.46203 0.34928 0.26847 0.0
H1851 H 0.43051 0.3492 0.29725 0.0
H1852 H 0.32797 0.36572 0.33888 0.0
H1853 H 0.36523 0.35994 0.32326 0.0
H1854 H 0.39163 0.41909 0.28129 0.0
C1855 C 0.4535 0.35051 0.24891 0.0
C1856 C 0.423 0.36504 0.29407 0.0
C1857 C 0.45811 0.33524 0.22815 0.0
C1858 C 0.33868 0.37982 0.33654 0.0
C1859 C 0.36017 0.37653 0.32796 0.0
C1860 C 0.40074 0.40433 0.28571 0.0
C1861 C 0.43667 0.36587 0.24532 0.0
C1862 C 0.42653 0.37694 0.26953 0.0
C1863 C 0.37426 0.39448 0.32328 0.0
C1864 C 0.39519 0.39097 0.30838 0.0
H1865 H 0.42161 0.35255 0.1797 0.0
H1866 H 0.41331 0.37876 0.21569 0.0
H1867 H 0.41914 0.40728 0.24824 0.0
H1868 H 0.33952 0.43564 0.34085 0.0
H1869 H 0.37727 0.42986 0.32603 0.0
C1870 C 0.68741 0.60546 0.46646 0.0
C1871 C 0.67795 0.60554 0.44002 0.0
C1872 C 0.68696 0.58643 0.48254 0.0
C1873 C 0.66935 0.52724 0.48213 0.0
H1874 H 0.64592 0.54278 0.55397 0.0
C1875 C 0.59618 0.48614 0.53233 0.0
C1876 C 0.59337 0.4873 0.56113 0.0
C1877 C 0.61549 0.49373 0.52016 0.0
C1878 C 0.653 0.53788 0.53438 0.0
H1879 H 0.66187 0.58559 0.40892 0.0
H1880 H 0.66034 0.55273 0.43709 0.0
H1881 H 0.66444 0.57033 0.5268 0.0
H1882 H 0.60955 0.49453 0.59999 0.0
H1883 H 0.64331 0.5079 0.57867 0.0
H1884 H 0.65606 0.49509 0.48913 0.0
C1885 C 0.66866 0.56702 0.44537 0.0
C1886 C 0.66371 0.55379 0.51868 0.0
C1887 C 0.66938 0.58594 0.4292 0.0
C1888 C 0.61111 0.49393 0.57768 0.0
C1889 C 0.63044 0.50151 0.5655 0.0
C1890 C 0.65844 0.51131 0.49782 0.0
C1891 C 0.67668 0.56725 0.47265 0.0
C1892 C 0.67101 0.54898 0.49177 0.0
C1893 C 0.63233 0.50262 0.53656 0.0
C1894 C 0.64921 0.51681 0.52353 0.0
H1895 H 0.69446 0.62031 0.47506 0.0
H1896 H 0.69373 0.58707 0.50321 0.0
H1897 H 0.67528 0.52283 0.46178 0.0
H1898 H 0.5828 0.48121 0.519 0.0
H1899 H 0.61631 0.4945 0.4978 0.0
C1900 C 0.2028 0.84186 0.72319 0.0
C1901 C 0.21517 0.84187 0.69867 0.0
C1902 C 0.20689 0.82641 0.74385 0.0
C1903 C 0.23603 0.81068 0.78971 0.0
H1904 H 0.26659 0.75615 0.77663 0.0
C1905 C 0.31868 0.79329 0.83542 0.0
C1906 C 0.3261 0.77175 0.83894 0.0
C1907 C 0.29751 0.79719 0.82612 0.0
C1908 C 0.25768 0.77104 0.78112 0.0
H1909 H 0.2399 0.82446 0.67538 0.0
H1910 H 0.24734 0.79795 0.71125 0.0
H1911 H 0.24031 0.7691 0.74281 0.0
H1912 H 0.31669 0.73741 0.83747 0.0
H1913 H 0.27947 0.74427 0.82142 0.0
H1914 H 0.25393 0.81297 0.82757 0.0
C1915 C 0.23424 0.80951 0.71468 0.0
C1916 C 0.24277 0.7786 0.76151 0.0
C1917 C 0.23004 0.82482 0.694 0.0
C1918 C 0.3114 0.75421 0.83495 0.0
C1919 C 0.29014 0.75812 0.82558 0.0
C1920 C 0.25074 0.803 0.80944 0.0
C1921 C 0.22358 0.81086 0.74044 0.0
C1922 C 0.23294 0.79924 0.76469 0.0
C1923 C 0.28323 0.77963 0.82014 0.0
C1924 C 0.26283 0.78388 0.80443 0.0
H1925 H 0.19092 0.85462 0.72708 0.0
H1926 H 0.19801 0.82759 0.76318 0.0
H1927 H 0.22876 0.82661 0.79305 0.0
H1928 H 0.32958 0.80712 0.83873 0.0
H1929 H 0.2929 0.81398 0.82187 0.0
C1930 C 0.17676 0.59179 0.03333 0.0
C1931 C 0.18165 0.61301 0.0239 0.0
C1932 C 0.17743 0.57401 0.01518 0.0
C1933 C 0.16788 0.56521 0.94168 0.0
H1934 H 0.16885 0.50442 0.96503 0.0
C1935 C 0.11429 0.50492 0.88545 0.0
C1936 C 0.09924 0.49571 0.90417 0.0
C1937 C 0.1343 0.5132 0.89484 0.0
C1938 C 0.16881 0.52128 0.95799 0.0
H1939 H 0.19338 0.63205 0.98908 0.0
H1940 H 0.1951 0.60086 0.95739 0.0
H1941 H 0.18785 0.53225 -0.00746 0.0
H1942 H 0.09428 0.48577 0.94675 0.0
H1943 H 0.12891 0.50036 0.96318 0.0
H1944 H 0.14783 0.55465 0.90819 0.0
C1945 C 0.1901 0.59801 0.97858 0.0
C1946 C 0.1796 0.53724 0.97378 0.0
C1947 C 0.18913 0.61587 -0.00332 0.0
C1948 C 0.10554 0.49274 0.93182 0.0
C1949 C 0.12551 0.50107 0.94122 0.0
C1950 C 0.15727 0.54929 0.92586 0.0
C1951 C 0.1832 0.57705 0.98724 0.0
C1952 C 0.1781 0.55957 0.9667 0.0
C1953 C 0.13953 0.5125 0.92313 0.0
C1954 C 0.15651 0.52736 0.93472 0.0
H1955 H 0.17085 0.58915 0.0542 0.0
H1956 H 0.17173 0.55824 0.02263 0.0
H1957 H 0.16617 0.58218 0.93554 0.0
H1958 H 0.11002 0.50698 0.86388 0.0
H1959 H 0.14496 0.52155 0.88032 0.0
C1960 C 0.80762 0.94496 0.75779 0.0
C1961 C 0.80833 0.93613 0.78457 0.0
C1962 C 0.82625 0.94482 0.74104 0.0
C1963 C 0.8856 0.92897 0.73975 0.0
H1964 H 0.8687 0.90253 0.67001 0.0
C1965 C 0.92621 0.85471 0.69237 0.0
C1966 C 0.9243 0.85066 0.66388 0.0
C1967 C 0.91877 0.87439 0.70362 0.0
C1968 C 0.87397 0.91045 0.68895 0.0
H1969 H 0.8293 0.92161 0.81555 0.0
H1970 H 0.86149 0.92061 0.78625 0.0
H1971 H 0.84166 0.92141 0.69725 0.0
H1972 H 0.91582 0.86506 0.62438 0.0
H1973 H 0.90275 0.8995 0.64406 0.0
H1974 H 0.91764 0.91618 0.73216 0.0
C1975 C 0.84686 0.9282 0.77818 0.0
C1976 C 0.85835 0.92138 0.7047 0.0
C1977 C 0.82833 0.92862 0.79502 0.0
C1978 C 0.91702 0.86758 0.64651 0.0
C1979 C 0.90961 0.8873 0.65775 0.0
C1980 C 0.90124 0.91786 0.72403 0.0
C1981 C 0.84583 0.93547 0.7506 0.0
C1982 C 0.86367 0.92974 0.73098 0.0
C1983 C 0.90927 0.89039 0.68656 0.0
C1984 C 0.89527 0.90752 0.69914 0.0
H1985 H 0.79245 0.9512 0.74946 0.0
H1986 H 0.825 0.95101 0.72012 0.0
H1987 H 0.89039 0.93574 0.75958 0.0
H1988 H 0.93167 0.84197 0.70631 0.0
H1989 H 0.91861 0.87614 0.72591 0.0
C1990 C 0.70259 0.33798 0.22108 0.0
C1991 C 0.71543 0.3394 0.19702 0.0
C1992 C 0.707 0.32206 0.24105 0.0
C1993 C 0.74522 0.27577 0.25756 0.0
H1994 H 0.75319 0.30874 0.32545 0.0
C1995 C 0.81892 0.29315 0.3343 0.0
C1996 C 0.82774 0.27208 0.33689 0.0
C1997 C 0.79768 0.29592 0.32454 0.0
C1998 C 0.75092 0.29915 0.30678 0.0
H1999 H 0.74138 0.32392 0.17366 0.0
H2000 H 0.74939 0.29664 0.20835 0.0
H2001 H 0.72774 0.32181 0.29093 0.0
H2002 H 0.82073 0.23727 0.33324 0.0
H2003 H 0.78341 0.24212 0.31649 0.0
H2004 H 0.77022 0.25446 0.27224 0.0
C2005 C 0.73567 0.30743 0.21194 0.0
C2006 C 0.73604 0.30648 0.28704 0.0
C2007 C 0.73114 0.3232 0.19194 0.0
C2008 C 0.81435 0.25374 0.33147 0.0
C2009 C 0.79303 0.25651 0.32169 0.0
C2010 C 0.76031 0.2686 0.27718 0.0
C2011 C 0.7245 0.30746 0.23743 0.0
C2012 C 0.73408 0.29566 0.26141 0.0
C2013 C 0.78473 0.27766 0.31721 0.0
C2014 C 0.76431 0.28104 0.30119 0.0
H2015 H 0.69006 0.35004 0.22525 0.0
H2016 H 0.69771 0.32218 0.26013 0.0
H2017 H 0.74363 0.2667 0.23838 0.0
H2018 H 0.82876 0.30757 0.33872 0.0
H2019 H 0.792 0.31248 0.32107 0.0
C2020 C 0.1237 1.07843 0.88498 0.0
C2021 C 0.14565 0.08474 0.88199 0.0
C2022 C 0.11834 1.05734 0.89392 0.0
C2023 C 0.14264 1.01536 0.93799 0.0
H2024 H 0.08413 0.99144 0.93053 0.0
C2025 C 1.07008 0.96639 0.00204 0.0
C2026 C 1.07305 0.97826 0.02672 0.0
C2027 C 0.08441 0.96944 0.97979 0.0
C2028 C 0.1008 0.99728 0.93259 0.0
H2029 H 0.17915 1.07341 0.88309 0.0
H2030 H 0.1698 1.03628 0.89811 0.0
H2031 H 0.09852 1.01545 0.89494 0.0
H2032 H 0.09478 1.00034 0.04875 0.0
H2033 H 0.11919 1.00631 0.01005 0.0
H2034 H 0.1448 0.99742 0.97582 0.0
C2035 C 0.15672 1.04778 0.89437 0.0
C2036 C 0.10894 1.01139 0.91228 0.0
C2037 C 0.16208 1.06901 0.88571 0.0
C2038 C 0.09184 0.99134 0.02975 0.0
C2039 C 0.10605 0.99451 0.00755 0.0
C2040 C 0.13465 1.00092 0.95804 0.0
C2041 C 0.13483 1.042 0.89983 0.0
C2042 C 0.1293 1.02184 0.91577 0.0
C2043 C 0.10187 0.98451 0.9818 0.0
C2044 C 0.11304 0.99301 0.95661 0.0
H2045 H 0.11071 0.09027 0.88244 0.0
H2046 H 0.10132 1.05373 0.89821 0.0
H2047 H 0.15849 1.02288 0.94141 0.0
H2048 H 1.05577 0.95609 -0.00088 0.0
H2049 H 1.08098 0.96109 0.96048 0.0
C2050 C 0.66271 1.0695 0.5846 0.0
C2051 C 0.64464 1.08311 0.58961 0.0
C2052 C 0.65964 1.04815 0.57468 0.0
C2053 C 0.64748 1.01577 0.52947 0.0
H2054 H 0.59339 0.98377 0.54133 0.0
C2055 C 0.59341 0.98861 0.44237 0.0
C2056 C 0.57673 0.97311 0.44671 0.0
C2057 C 0.60898 0.9926 0.46284 0.0
C2058 C 0.60895 0.99189 0.53795 0.0
H2059 H 0.60926 0.08444 0.59068 0.0
H2060 H 0.60384 1.04762 0.57284 0.0
H2061 H 0.60665 1.00865 0.5767 0.0
H2062 H 0.56493 0.94753 0.47407 0.0
H2063 H 0.59245 0.95418 0.50974 0.0
H2064 H 0.64944 0.9995 0.49034 0.0
C2065 C 0.62041 1.05315 0.57671 0.0
C2066 C 0.6164 1.00645 0.5582 0.0
C2067 C 0.62349 1.07443 0.58658 0.0
C2068 C 0.5774 0.9599 0.47049 0.0
C2069 C 0.59312 0.96375 0.49091 0.0
C2070 C 0.64019 1.00098 0.50936 0.0
C2071 C 0.63845 1.04002 0.56967 0.0
C2072 C 0.63486 1.01969 0.55329 0.0
C2073 C 0.60827 0.98106 0.48803 0.0
C2074 C 0.62 0.9901 0.51251 0.0
H2075 H 0.67924 1.07578 0.58672 0.0
H2076 H 0.67386 1.03838 0.56973 0.0
H2077 H 0.6619 1.02556 0.52504 0.0
H2078 H 0.59327 0.99912 0.42432 0.0
H2079 H 0.62021 1.00619 0.45982 0.0
loop_
_geom_bond_atom_site_label_1
_geom_bond_atom_site_label_2
_geom_bond_distance
_geom_bond_site_symmetry_2
_ccdc_geom_bond_type
Dy0 O3 2.307 . S
Dy0 O5 2.395 . S
Dy0 O6 2.379 . S
Dy0 O8 2.339 . S
Dy0 O10 2.298 . S
Dy0 O14 2.275 . S
Dy0 C22 2.738 . S
Dy1 O4 2.298 . S
Dy1 O7 2.275 . S
Dy1 O9 2.307 . S
Dy1 O11 2.395 1_554 S
Dy1 O12 2.379 1_554 S
Dy1 O15 2.339 . S
Dy1 C31 2.738 1_554 S
C2 O14 1.254 . S
C2 O15 1.257 . S
O3 Dy0 2.307 . S
O3 C13 1.266 . S
O4 Dy1 2.298 . S
O4 C13 1.236 . S
O5 Dy0 2.395 . S
O5 C22 1.255 . S
O6 Dy0 2.379 . S
O6 C22 1.249 . S
O7 Dy1 2.275 . S
O7 C23 1.254 . S
O8 Dy0 2.339 . S
O8 C23 1.257 . S
O9 Dy1 2.307 . S
O9 C24 1.266 . S
O10 Dy0 2.298 . S
O10 C24 1.236 . S
O11 Dy1 2.395 1_556 S
O11 C31 1.255 . S
O12 Dy1 2.379 1_556 S
O12 C31 1.249 . S
C13 O3 1.266 . S
C13 O4 1.236 . S
O14 Dy0 2.275 . S
O14 C2 1.254 . S
O15 Dy1 2.339 . S
O15 C2 1.257 . S
C16 C19 1.344 . S
C16 C20 1.328 . S
C16 C22 1.516 . S
C17 C18 1.304 . S
C17 C21 1.323 . S
C18 C17 1.304 . S
C18 C19 1.371 . S
C18 H32 0.930 . S
C19 C16 1.344 . S
C19 C18 1.371 . S
C19 H33 0.931 . S
C20 C16 1.328 . S
C20 C21 1.433 . S
C20 H34 0.931 . S
C21 C17 1.323 . S
C21 C20 1.433 . S
C21 H35 0.933 . S
C22 Dy0 2.738 . S
C22 O5 1.255 . S
C22 O6 1.249 . S
C22 C16 1.516 . S
C23 O7 1.254 . S
C23 O8 1.257 . S
C24 O9 1.266 . S
C24 O10 1.236 . S
C25 C28 1.344 . S
C25 C29 1.328 . S
C25 C31 1.516 . S
C26 C27 1.304 . S
C26 C30 1.323 . S
C27 C26 1.304 . S
C27 C28 1.371 . S
C27 H36 0.930 . S
C28 C25 1.344 . S
C28 C27 1.371 . S
C28 H37 0.931 . S
C29 C25 1.328 . S
C29 C30 1.433 . S
C29 H38 0.931 . S
C30 C26 1.323 . S
C30 C29 1.433 . S
C30 H39 0.933 . S
C31 Dy1 2.738 1_556 S
C31 O11 1.255 . S
C31 O12 1.249 . S
C31 C25 1.516 . S
H32 C18 0.930 . S
H33 C19 0.931 . S
H34 C20 0.931 . S
H35 C21 0.933 . S
H36 C27 0.930 . S
H37 C28 0.931 . S
H38 C29 0.931 . S
H39 C30 0.933 . S
Dy40 O43 2.307 . S
Dy40 O45 2.395 . S
Dy40 O46 2.379 . S
Dy40 O48 2.339 . S
Dy40 O50 2.298 . S
Dy40 O54 2.275 . S
Dy40 C62 2.738 . S
Dy41 O44 2.298 . S
Dy41 O47 2.275 . S
Dy41 O49 2.307 . S
Dy41 O51 2.395 . S
Dy41 O52 2.379 . S
Dy41 O55 2.339 . S
Dy41 C71 2.738 . S
C42 O54 1.254 . S
C42 O55 1.257 . S
O43 Dy40 2.307 . S
O43 C53 1.266 . S
O44 Dy41 2.298 . S
O44 C53 1.236 . S
O45 Dy40 2.395 . S
O45 C62 1.255 . S
O46 Dy40 2.379 . S
O46 C62 1.249 . S
O47 Dy41 2.275 . S
O47 C63 1.254 . S
O48 Dy40 2.339 . S
O48 C63 1.257 . S
O49 Dy41 2.307 . S
O49 C64 1.266 . S
O50 Dy40 2.298 . S
O50 C64 1.236 . S
O51 Dy41 2.395 . S
O51 C71 1.255 . S
O52 Dy41 2.379 . S
O52 C71 1.249 . S
C53 O43 1.266 . S
C53 O44 1.236 . S
O54 Dy40 2.275 . S
O54 C42 1.254 . S
O55 Dy41 2.339 . S
O55 C42 1.257 . S
C56 C59 1.344 . S
C56 C60 1.328 . S
C56 C62 1.516 . S
C57 C58 1.304 . S
C57 C61 1.323 . S
C58 C57 1.304 . S
C58 C59 1.371 . S
C58 H72 0.930 . S
C59 C56 1.344 . S
C59 C58 1.371 . S
C59 H73 0.931 . S
C60 C56 1.328 . S
C60 C61 1.433 . S
C60 H74 0.931 . S
C61 C57 1.323 . S
C61 C60 1.433 . S
C61 H75 0.933 . S
C62 Dy40 2.738 . S
C62 O45 1.255 . S
C62 O46 1.249 . S
C62 C56 1.516 . S
C63 O47 1.254 . S
C63 O48 1.257 . S
C64 O49 1.266 . S
C64 O50 1.236 . S
C65 C68 1.344 . S
C65 C69 1.328 . S
C65 C71 1.516 . S
C66 C67 1.304 . S
C66 C70 1.323 . S
C67 C66 1.304 . S
C67 C68 1.371 . S
C67 H76 0.930 . S
C68 C65 1.344 . S
C68 C67 1.371 . S
C68 H77 0.931 . S
C69 C65 1.328 . S
C69 C70 1.433 . S
C69 H78 0.931 . S
C70 C66 1.323 . S
C70 C69 1.433 . S
C70 H79 0.933 . S
C71 Dy41 2.738 . S
C71 O51 1.255 . S
C71 O52 1.249 . S
C71 C65 1.516 . S
H72 C58 0.930 . S
H73 C59 0.931 . S
H74 C60 0.931 . S
H75 C61 0.933 . S
H76 C67 0.930 . S
H77 C68 0.931 . S
H78 C69 0.931 . S
H79 C70 0.933 . S
Dy80 O83 2.307 . S
Dy80 O85 2.395 . S
Dy80 O86 2.379 . S
Dy80 O88 2.339 . S
Dy80 O90 2.298 . S
Dy80 O94 2.275 . S
Dy80 C102 2.738 . S
Dy81 O84 2.298 . S
Dy81 O87 2.275 . S
Dy81 O89 2.307 . S
Dy81 O91 2.395 . S
Dy81 O92 2.379 . S
Dy81 O95 2.339 . S
Dy81 C111 2.738 . S
C82 O94 1.254 . S
C82 O95 1.257 . S
O83 Dy80 2.307 . S
O83 C93 1.266 . S
O84 Dy81 2.298 . S
O84 C93 1.236 . S
O85 Dy80 2.395 . S
O85 C102 1.255 . S
O86 Dy80 2.379 . S
O86 C102 1.249 . S
O87 Dy81 2.275 . S
O87 C103 1.254 . S
O88 Dy80 2.339 . S
O88 C103 1.257 . S
O89 Dy81 2.307 . S
O89 C104 1.266 . S
O90 Dy80 2.298 . S
O90 C104 1.236 . S
O91 Dy81 2.395 . S
O91 C111 1.255 . S
O92 Dy81 2.379 . S
O92 C111 1.249 . S
C93 O83 1.266 . S
C93 O84 1.236 . S
O94 Dy80 2.275 . S
O94 C82 1.254 . S
O95 Dy81 2.339 . S
O95 C82 1.257 . S
C96 C99 1.344 . S
C96 C100 1.328 . S
C96 C102 1.516 . S
C97 C98 1.304 . S
C97 C101 1.323 . S
C98 C97 1.304 . S
C98 C99 1.371 . S
C98 H112 0.930 . S
C99 C96 1.344 . S
C99 C98 1.371 . S
C99 H113 0.931 . S
C100 C96 1.328 . S
C100 C101 1.433 . S
C100 H114 0.931 . S
C101 C97 1.323 . S
C101 C100 1.433 . S
C101 H115 0.933 . S
C102 Dy80 2.738 . S
C102 O85 1.255 . S
C102 O86 1.249 . S
C102 C96 1.516 . S
C103 O87 1.254 . S
C103 O88 1.257 . S
C104 O89 1.266 . S
C104 O90 1.236 . S
C105 C108 1.344 . S
C105 C109 1.328 . S
C105 C111 1.516 . S
C106 C107 1.304 . S
C106 C110 1.323 . S
C107 C106 1.304 . S
C107 C108 1.371 . S
C107 H116 0.930 . S
C108 C105 1.344 . S
C108 C107 1.371 . S
C108 H117 0.931 . S
C109 C105 1.328 . S
C109 C110 1.433 . S
C109 H118 0.931 . S
C110 C106 1.323 . S
C110 C109 1.433 . S
C110 H119 0.933 . S
C111 Dy81 2.738 . S
C111 O91 1.255 . S
C111 O92 1.249 . S
C111 C105 1.516 . S
H112 C98 0.930 . S
H113 C99 0.931 . S
H114 C100 0.931 . S
H115 C101 0.933 . S
H116 C107 0.930 . S
H117 C108 0.931 . S
H118 C109 0.931 . S
H119 C110 0.933 . S
Dy120 O123 2.307 . S
Dy120 O125 2.395 . S
Dy120 O126 2.379 . S
Dy120 O128 2.339 . S
Dy120 O130 2.298 . S
Dy120 O134 2.275 . S
Dy120 C142 2.738 . S
Dy121 O124 2.298 . S
Dy121 O127 2.275 . S
Dy121 O129 2.307 . S
Dy121 O131 2.395 . S
Dy121 O132 2.379 . S
Dy121 O135 2.339 . S
Dy121 C151 2.738 . S
C122 O134 1.254 . S
C122 O135 1.257 . S
O123 Dy120 2.307 . S
O123 C133 1.266 . S
O124 Dy121 2.298 . S
O124 C133 1.236 . S
O125 Dy120 2.395 . S
O125 C142 1.255 . S
O126 Dy120 2.379 . S
O126 C142 1.249 . S
O127 Dy121 2.275 . S
O127 C143 1.254 . S
O128 Dy120 2.339 . S
O128 C143 1.257 . S
O129 Dy121 2.307 . S
O129 C144 1.266 . S
O130 Dy120 2.298 . S
O130 C144 1.236 . S
O131 Dy121 2.395 . S
O131 C151 1.255 . S
O132 Dy121 2.379 . S
O132 C151 1.249 . S
C133 O123 1.266 . S
C133 O124 1.236 . S
O134 Dy120 2.275 . S
O134 C122 1.254 . S
O135 Dy121 2.339 . S
O135 C122 1.257 . S
C136 C139 1.344 . S
C136 C140 1.328 . S
C136 C142 1.516 . S
C137 C138 1.304 . S
C137 C141 1.323 . S
C138 C137 1.304 . S
C138 C139 1.371 . S
C138 H152 0.930 . S
C139 C136 1.344 . S
C139 C138 1.371 . S
C139 H153 0.931 . S
C140 C136 1.328 . S
C140 C141 1.433 . S
C140 H154 0.931 . S
C141 C137 1.323 . S
C141 C140 1.433 . S
C141 H155 0.933 . S
C142 Dy120 2.738 . S
C142 O125 1.255 . S
C142 O126 1.249 . S
C142 C136 1.516 . S
C143 O127 1.254 . S
C143 O128 1.257 . S
C144 O129 1.266 . S
C144 O130 1.236 . S
C145 C148 1.344 . S
C145 C149 1.328 . S
C145 C151 1.516 . S
C146 C147 1.304 . S
C146 C150 1.323 . S
C147 C146 1.304 . S
C147 C148 1.371 . S
C147 H156 0.930 . S
C148 C145 1.344 . S
C148 C147 1.371 . S
C148 H157 0.931 . S
C149 C145 1.328 . S
C149 C150 1.433 . S
C149 H158 0.931 . S
C150 C146 1.323 . S
C150 C149 1.433 . S
C150 H159 0.933 . S
C151 Dy121 2.738 . S
C151 O131 1.255 . S
C151 O132 1.249 . S
C151 C145 1.516 . S
H152 C138 0.930 . S
H153 C139 0.931 . S
H154 C140 0.931 . S
H155 C141 0.933 . S
H156 C147 0.930 . S
H157 C148 0.931 . S
H158 C149 0.931 . S
H159 C150 0.933 . S
Dy160 O163 2.307 . S
Dy160 O165 2.395 1_556 S
Dy160 O166 2.379 1_556 S
Dy160 O168 2.339 . S
Dy160 O170 2.298 . S
Dy160 O174 2.275 . S
Dy160 C182 2.738 1_556 S
Dy161 O164 2.298 . S
Dy161 O167 2.275 . S
Dy161 O169 2.307 . S
Dy161 O171 2.395 . S
Dy161 O172 2.379 . S
Dy161 O175 2.339 . S
Dy161 C191 2.738 . S
C162 O174 1.254 . S
C162 O175 1.257 . S
O163 Dy160 2.307 . S
O163 C173 1.266 . S
O164 Dy161 2.298 . S
O164 C173 1.236 . S
O165 Dy160 2.395 1_554 S
O165 C182 1.255 . S
O166 Dy160 2.379 1_554 S
O166 C182 1.249 . S
O167 Dy161 2.275 . S
O167 C183 1.254 . S
O168 Dy160 2.339 . S
O168 C183 1.257 . S
O169 Dy161 2.307 . S
O169 C184 1.266 . S
O170 Dy160 2.298 . S
O170 C184 1.236 . S
O171 Dy161 2.395 . S
O171 C191 1.255 . S
O172 Dy161 2.379 . S
O172 C191 1.249 . S
C173 O163 1.266 . S
C173 O164 1.236 . S
O174 Dy160 2.275 . S
O174 C162 1.254 . S
O175 Dy161 2.339 . S
O175 C162 1.257 . S
C176 C179 1.344 . S
C176 C180 1.328 . S
C176 C182 1.516 . S
C177 C178 1.304 . S
C177 C181 1.323 . S
C178 C177 1.304 . S
C178 C179 1.371 . S
C178 H192 0.930 . S
C179 C176 1.344 . S
C179 C178 1.371 . S
C179 H193 0.931 . S
C180 C176 1.328 . S
C180 C181 1.433 . S
C180 H194 0.931 . S
C181 C177 1.323 . S
C181 C180 1.433 . S
C181 H195 0.933 . S
C182 Dy160 2.738 1_554 S
C182 O165 1.255 . S
C182 O166 1.249 . S
C182 C176 1.516 . S
C183 O167 1.254 . S
C183 O168 1.257 . S
C184 O169 1.266 . S
C184 O170 1.236 . S
C185 C188 1.344 . S
C185 C189 1.328 . S
C185 C191 1.516 . S
C186 C187 1.304 . S
C186 C190 1.323 . S
C187 C186 1.304 . S
C187 C188 1.371 . S
C187 H196 0.930 . S
C188 C185 1.344 . S
C188 C187 1.371 . S
C188 H197 0.931 . S
C189 C185 1.328 . S
C189 C190 1.433 . S
C189 H198 0.931 . S
C190 C186 1.323 . S
C190 C189 1.433 . S
C190 H199 0.933 . S
C191 Dy161 2.738 . S
C191 O171 1.255 . S
C191 O172 1.249 . S
C191 C185 1.516 . S
H192 C178 0.930 . S
H193 C179 0.931 . S
H194 C180 0.931 . S
H195 C181 0.933 . S
H196 C187 0.930 . S
H197 C188 0.931 . S
H198 C189 0.931 . S
H199 C190 0.933 . S
Dy200 O203 2.307 . S
Dy200 O205 2.395 . S
Dy200 O206 2.379 . S
Dy200 O208 2.339 . S
Dy200 O210 2.298 . S
Dy200 O214 2.275 . S
Dy200 C222 2.738 . S
Dy201 O204 2.298 . S
Dy201 O207 2.275 . S
Dy201 O209 2.307 . S
Dy201 O211 2.395 . S
Dy201 O212 2.379 . S
Dy201 O215 2.339 . S
Dy201 C231 2.738 . S
C202 O214 1.254 . S
C202 O215 1.257 . S
O203 Dy200 2.307 . S
O203 C213 1.266 . S
O204 Dy201 2.298 . S
O204 C213 1.236 . S
O205 Dy200 2.395 . S
O205 C222 1.255 . S
O206 Dy200 2.379 . S
O206 C222 1.249 . S
O207 Dy201 2.275 . S
O207 C223 1.254 . S
O208 Dy200 2.339 . S
O208 C223 1.257 . S
O209 Dy201 2.307 . S
O209 C224 1.266 . S
O210 Dy200 2.298 . S
O210 C224 1.236 . S
O211 Dy201 2.395 . S
O211 C231 1.255 . S
O212 Dy201 2.379 . S
O212 C231 1.249 . S
C213 O203 1.266 . S
C213 O204 1.236 . S
O214 Dy200 2.275 . S
O214 C202 1.254 . S
O215 Dy201 2.339 . S
O215 C202 1.257 . S
C216 C219 1.344 . S
C216 C220 1.328 . S
C216 C222 1.516 . S
C217 C218 1.304 . S
C217 C221 1.323 . S
C218 C217 1.304 . S
C218 C219 1.371 . S
C218 H232 0.930 . S
C219 C216 1.344 . S
C219 C218 1.371 . S
C219 H233 0.931 . S
C220 C216 1.328 . S
C220 C221 1.433 . S
C220 H234 0.931 . S
C221 C217 1.323 . S
C221 C220 1.433 . S
C221 H235 0.933 . S
C222 Dy200 2.738 . S
C222 O205 1.255 . S
C222 O206 1.249 . S
C222 C216 1.516 . S
C223 O207 1.254 . S
C223 O208 1.257 . S
C224 O209 1.266 . S
C224 O210 1.236 . S
C225 C228 1.344 . S
C225 C229 1.328 . S
C225 C231 1.516 . S
C226 C227 1.304 . S
C226 C230 1.323 . S
C227 C226 1.304 . S
C227 C228 1.371 . S
C227 H236 0.930 . S
C228 C225 1.344 . S
C228 C227 1.371 . S
C228 H237 0.931 . S
C229 C225 1.328 . S
C229 C230 1.433 . S
C229 H238 0.931 . S
C230 C226 1.323 . S
C230 C229 1.433 . S
C230 H239 0.933 . S
C231 Dy201 2.738 . S
C231 O211 1.255 . S
C231 O212 1.249 . S
C231 C225 1.516 . S
H232 C218 0.930 . S
H233 C219 0.931 . S
H234 C220 0.931 . S
H235 C221 0.933 . S
H236 C227 0.930 . S
H237 C228 0.931 . S
H238 C229 0.931 . S
H239 C230 0.933 . S
Dy240 O243 2.307 . S
Dy240 O245 2.395 . S
Dy240 O246 2.379 . S
Dy240 O248 2.339 . S
Dy240 O250 2.298 . S
Dy240 O254 2.275 . S
Dy240 C262 2.738 . S
Dy241 O244 2.298 . S
Dy241 O247 2.275 . S
Dy241 O249 2.307 . S
Dy241 O251 2.395 . S
Dy241 O252 2.379 . S
Dy241 O255 2.339 . S
Dy241 C271 2.738 . S
C242 O254 1.254 . S
C242 O255 1.257 . S
O243 Dy240 2.307 . S
O243 C253 1.266 . S
O244 Dy241 2.298 . S
O244 C253 1.236 . S
O245 Dy240 2.395 . S
O245 C262 1.255 . S
O246 Dy240 2.379 . S
O246 C262 1.249 . S
O247 Dy241 2.275 . S
O247 C263 1.254 . S
O248 Dy240 2.339 . S
O248 C263 1.257 . S
O249 Dy241 2.307 . S
O249 C264 1.266 . S
O250 Dy240 2.298 . S
O250 C264 1.236 . S
O251 Dy241 2.395 . S
O251 C271 1.255 . S
O252 Dy241 2.379 . S
O252 C271 1.249 . S
C253 O243 1.266 . S
C253 O244 1.236 . S
O254 Dy240 2.275 . S
O254 C242 1.254 . S
O255 Dy241 2.339 . S
O255 C242 1.257 . S
C256 C259 1.344 . S
C256 C260 1.328 . S
C256 C262 1.516 . S
C257 C258 1.304 . S
C257 C261 1.323 . S
C258 C257 1.304 . S
C258 C259 1.371 . S
C258 H272 0.930 . S
C259 C256 1.344 . S
C259 C258 1.371 . S
C259 H273 0.931 . S
C260 C256 1.328 . S
C260 C261 1.433 . S
C260 H274 0.931 . S
C261 C257 1.323 . S
C261 C260 1.433 . S
C261 H275 0.933 . S
C262 Dy240 2.738 . S
C262 O245 1.255 . S
C262 O246 1.249 . S
C262 C256 1.516 . S
C263 O247 1.254 . S
C263 O248 1.257 . S
C264 O249 1.266 . S
C264 O250 1.236 . S
C265 C268 1.344 . S
C265 C269 1.328 . S
C265 C271 1.516 . S
C266 C267 1.304 . S
C266 C270 1.323 . S
C267 C266 1.304 . S
C267 C268 1.371 . S
C267 H276 0.930 . S
C268 C265 1.344 . S
C268 C267 1.371 . S
C268 H277 0.931 . S
C269 C265 1.328 . S
C269 C270 1.433 . S
C269 H278 0.931 . S
C270 C266 1.323 . S
C270 C269 1.433 . S
C270 H279 0.933 . S
C271 Dy241 2.738 . S
C271 O251 1.255 . S
C271 O252 1.249 . S
C271 C265 1.516 . S
H272 C258 0.930 . S
H273 C259 0.931 . S
H274 C260 0.931 . S
H275 C261 0.933 . S
H276 C267 0.930 . S
H277 C268 0.931 . S
H278 C269 0.931 . S
H279 C270 0.933 . S
Dy280 O283 2.307 . S
Dy280 O285 2.395 . S
Dy280 O286 2.379 . S
Dy280 O288 2.339 . S
Dy280 O290 2.298 . S
Dy280 O294 2.275 . S
Dy280 C302 2.738 . S
Dy281 O284 2.298 . S
Dy281 O287 2.275 . S
Dy281 O289 2.307 . S
Dy281 O291 2.395 . S
Dy281 O292 2.379 . S
Dy281 O295 2.339 . S
Dy281 C311 2.738 . S
C282 O294 1.254 . S
C282 O295 1.257 . S
O283 Dy280 2.307 . S
O283 C293 1.266 . S
O284 Dy281 2.298 . S
O284 C293 1.236 . S
O285 Dy280 2.395 . S
O285 C302 1.255 . S
O286 Dy280 2.379 . S
O286 C302 1.249 . S
O287 Dy281 2.275 . S
O287 C303 1.254 . S
O288 Dy280 2.339 . S
O288 C303 1.257 . S
O289 Dy281 2.307 . S
O289 C304 1.266 . S
O290 Dy280 2.298 . S
O290 C304 1.236 . S
O291 Dy281 2.395 . S
O291 C311 1.255 . S
O292 Dy281 2.379 . S
O292 C311 1.249 . S
C293 O283 1.266 . S
C293 O284 1.236 . S
O294 Dy280 2.275 . S
O294 C282 1.254 . S
O295 Dy281 2.339 . S
O295 C282 1.257 . S
C296 C299 1.344 . S
C296 C300 1.328 . S
C296 C302 1.516 . S
C297 C298 1.304 . S
C297 C301 1.323 . S
C298 C297 1.304 . S
C298 C299 1.371 . S
C298 H312 0.930 . S
C299 C296 1.344 . S
C299 C298 1.371 . S
C299 H313 0.931 . S
C300 C296 1.328 . S
C300 C301 1.433 . S
C300 H314 0.931 . S
C301 C297 1.323 . S
C301 C300 1.433 . S
C301 H315 0.933 . S
C302 Dy280 2.738 . S
C302 O285 1.255 . S
C302 O286 1.249 . S
C302 C296 1.516 . S
C303 O287 1.254 . S
C303 O288 1.257 . S
C304 O289 1.266 . S
C304 O290 1.236 . S
C305 C308 1.344 . S
C305 C309 1.328 . S
C305 C311 1.516 . S
C306 C307 1.304 . S
C306 C310 1.323 . S
C307 C306 1.304 . S
C307 C308 1.371 . S
C307 H316 0.930 . S
C308 C305 1.344 . S
C308 C307 1.371 . S
C308 H317 0.931 . S
C309 C305 1.328 . S
C309 C310 1.433 . S
C309 H318 0.931 . S
C310 C306 1.323 . S
C310 C309 1.433 . S
C310 H319 0.933 . S
C311 Dy281 2.738 . S
C311 O291 1.255 . S
C311 O292 1.249 . S
C311 C305 1.516 . S
H312 C298 0.930 . S
H313 C299 0.931 . S
H314 C300 0.931 . S
H315 C301 0.933 . S
H316 C307 0.930 . S
H317 C308 0.931 . S
H318 C309 0.931 . S
H319 C310 0.933 . S
Dy320 O323 2.307 . S
Dy320 O325 2.395 . S
Dy320 O326 2.379 . S
Dy320 O328 2.339 . S
Dy320 O330 2.298 . S
Dy320 O334 2.275 . S
Dy320 C342 2.738 . S
Dy321 O324 2.298 . S
Dy321 O327 2.275 . S
Dy321 O329 2.307 . S
Dy321 O331 2.395 . S
Dy321 O332 2.379 . S
Dy321 O335 2.339 . S
Dy321 C351 2.738 . S
C322 O334 1.254 . S
C322 O335 1.257 . S
O323 Dy320 2.307 . S
O323 C333 1.266 . S
O324 Dy321 2.298 . S
O324 C333 1.236 . S
O325 Dy320 2.395 . S
O325 C342 1.255 . S
O326 Dy320 2.379 . S
O326 C342 1.249 . S
O327 Dy321 2.275 . S
O327 C343 1.254 . S
O328 Dy320 2.339 . S
O328 C343 1.257 . S
O329 Dy321 2.307 . S
O329 C344 1.266 . S
O330 Dy320 2.298 . S
O330 C344 1.236 . S
O331 Dy321 2.395 . S
O331 C351 1.255 . S
O332 Dy321 2.379 . S
O332 C351 1.249 . S
C333 O323 1.266 . S
C333 O324 1.236 . S
O334 Dy320 2.275 . S
O334 C322 1.254 . S
O335 Dy321 2.339 . S
O335 C322 1.257 . S
C336 C339 1.344 . S
C336 C340 1.328 . S
C336 C342 1.516 . S
C337 C338 1.304 . S
C337 C341 1.323 . S
C338 C337 1.304 . S
C338 C339 1.371 . S
C338 H352 0.930 . S
C339 C336 1.344 . S
C339 C338 1.371 . S
C339 H353 0.931 . S
C340 C336 1.328 . S
C340 C341 1.433 . S
C340 H354 0.931 . S
C341 C337 1.323 . S
C341 C340 1.433 . S
C341 H355 0.933 . S
C342 Dy320 2.738 . S
C342 O325 1.255 . S
C342 O326 1.249 . S
C342 C336 1.516 . S
C343 O327 1.254 . S
C343 O328 1.257 . S
C344 O329 1.266 . S
C344 O330 1.236 . S
C345 C348 1.344 . S
C345 C349 1.328 . S
C345 C351 1.516 . S
C346 C347 1.304 . S
C346 C350 1.323 . S
C347 C346 1.304 . S
C347 C348 1.371 . S
C347 H356 0.930 . S
C348 C345 1.344 . S
C348 C347 1.371 . S
C348 H357 0.931 . S
C349 C345 1.328 . S
C349 C350 1.433 . S
C349 H358 0.931 . S
C350 C346 1.323 . S
C350 C349 1.433 . S
C350 H359 0.933 . S
C351 Dy321 2.738 . S
C351 O331 1.255 . S
C351 O332 1.249 . S
C351 C345 1.516 . S
H352 C338 0.930 . S
H353 C339 0.931 . S
H354 C340 0.931 . S
H355 C341 0.933 . S
H356 C347 0.930 . S
H357 C348 0.931 . S
H358 C349 0.931 . S
H359 C350 0.933 . S
Dy360 O363 2.307 . S
Dy360 O365 2.395 . S
Dy360 O366 2.379 . S
Dy360 O368 2.339 . S
Dy360 O370 2.298 . S
Dy360 O374 2.275 . S
Dy360 C382 2.738 . S
Dy361 O364 2.298 . S
Dy361 O367 2.275 . S
Dy361 O369 2.307 . S
Dy361 O371 2.395 . S
Dy361 O372 2.379 . S
Dy361 O375 2.339 . S
Dy361 C391 2.738 . S
C362 O374 1.254 . S
C362 O375 1.257 . S
O363 Dy360 2.307 . S
O363 C373 1.266 . S
O364 Dy361 2.298 . S
O364 C373 1.236 . S
O365 Dy360 2.395 . S
O365 C382 1.255 . S
O366 Dy360 2.379 . S
O366 C382 1.249 . S
O367 Dy361 2.275 . S
O367 C383 1.254 . S
O368 Dy360 2.339 . S
O368 C383 1.257 . S
O369 Dy361 2.307 . S
O369 C384 1.266 . S
O370 Dy360 2.298 . S
O370 C384 1.236 . S
O371 Dy361 2.395 . S
O371 C391 1.255 . S
O372 Dy361 2.379 . S
O372 C391 1.249 . S
C373 O363 1.266 . S
C373 O364 1.236 . S
O374 Dy360 2.275 . S
O374 C362 1.254 . S
O375 Dy361 2.339 . S
O375 C362 1.257 . S
C376 C379 1.344 . S
C376 C380 1.328 . S
C376 C382 1.516 . S
C377 C378 1.304 . S
C377 C381 1.323 . S
C378 C377 1.304 . S
C378 C379 1.371 . S
C378 H392 0.930 . S
C379 C376 1.344 . S
C379 C378 1.371 . S
C379 H393 0.931 . S
C380 C376 1.328 . S
C380 C381 1.433 . S
C380 H394 0.931 . S
C381 C377 1.323 . S
C381 C380 1.433 . S
C381 H395 0.933 . S
C382 Dy360 2.738 . S
C382 O365 1.255 . S
C382 O366 1.249 . S
C382 C376 1.516 . S
C383 O367 1.254 . S
C383 O368 1.257 . S
C384 O369 1.266 . S
C384 O370 1.236 . S
C385 C388 1.344 . S
C385 C389 1.328 . S
C385 C391 1.516 . S
C386 C387 1.304 . S
C386 C390 1.323 . S
C387 C386 1.304 . S
C387 C388 1.371 . S
C387 H396 0.930 . S
C388 C385 1.344 . S
C388 C387 1.371 . S
C388 H397 0.931 . S
C389 C385 1.328 . S
C389 C390 1.433 . S
C389 H398 0.931 . S
C390 C386 1.323 . S
C390 C389 1.433 . S
C390 H399 0.933 . S
C391 Dy361 2.738 . S
C391 O371 1.255 . S
C391 O372 1.249 . S
C391 C385 1.516 . S
H392 C378 0.930 . S
H393 C379 0.931 . S
H394 C380 0.931 . S
H395 C381 0.933 . S
H396 C387 0.930 . S
H397 C388 0.931 . S
H398 C389 0.931 . S
H399 C390 0.933 . S
Dy400 O403 2.307 . S
Dy400 O405 2.395 . S
Dy400 O406 2.379 . S
Dy400 O408 2.339 . S
Dy400 O410 2.298 . S
Dy400 O414 2.275 . S
Dy400 C422 2.738 . S
Dy401 O404 2.298 . S
Dy401 O407 2.275 . S
Dy401 O409 2.307 . S
Dy401 O411 2.395 1_554 S
Dy401 O412 2.379 1_554 S
Dy401 O415 2.339 . S
Dy401 C431 2.738 1_554 S
C402 O414 1.254 . S
C402 O415 1.257 . S
O403 Dy400 2.307 . S
O403 C413 1.266 . S
O404 Dy401 2.298 . S
O404 C413 1.236 . S
O405 Dy400 2.395 . S
O405 C422 1.255 . S
O406 Dy400 2.379 . S
O406 C422 1.249 . S
O407 Dy401 2.275 . S
O407 C423 1.254 . S
O408 Dy400 2.339 . S
O408 C423 1.257 . S
O409 Dy401 2.307 . S
O409 C424 1.266 . S
O410 Dy400 2.298 . S
O410 C424 1.236 . S
O411 Dy401 2.395 1_556 S
O411 C431 1.255 . S
O412 Dy401 2.379 1_556 S
O412 C431 1.249 . S
C413 O403 1.266 . S
C413 O404 1.236 . S
O414 Dy400 2.275 . S
O414 C402 1.254 . S
O415 Dy401 2.339 . S
O415 C402 1.257 . S
C416 C419 1.344 . S
C416 C420 1.328 . S
C416 C422 1.516 . S
C417 C418 1.304 . S
C417 C421 1.323 . S
C418 C417 1.304 . S
C418 C419 1.371 . S
C418 H432 0.930 . S
C419 C416 1.344 . S
C419 C418 1.371 . S
C419 H433 0.931 . S
C420 C416 1.328 . S
C420 C421 1.433 . S
C420 H434 0.931 . S
C421 C417 1.323 . S
C421 C420 1.433 . S
C421 H435 0.933 . S
C422 Dy400 2.738 . S
C422 O405 1.255 . S
C422 O406 1.249 . S
C422 C416 1.516 . S
C423 O407 1.254 . S
C423 O408 1.257 . S
C424 O409 1.266 . S
C424 O410 1.236 . S
C425 C428 1.344 . S
C425 C429 1.328 . S
C425 C431 1.516 . S
C426 C427 1.304 . S
C426 C430 1.323 . S
C427 C426 1.304 . S
C427 C428 1.371 . S
C427 H436 0.930 . S
C428 C425 1.344 . S
C428 C427 1.371 . S
C428 H437 0.931 . S
C429 C425 1.328 . S
C429 C430 1.433 . S
C429 H438 0.931 . S
C430 C426 1.323 . S
C430 C429 1.433 . S
C430 H439 0.933 . S
C431 Dy401 2.738 1_556 S
C431 O411 1.255 . S
C431 O412 1.249 . S
C431 C425 1.516 . S
H432 C418 0.930 . S
H433 C419 0.931 . S
H434 C420 0.931 . S
H435 C421 0.933 . S
H436 C427 0.930 . S
H437 C428 0.931 . S
H438 C429 0.931 . S
H439 C430 0.933 . S
Dy440 O443 2.307 . S
Dy440 O445 2.395 . S
Dy440 O446 2.379 . S
Dy440 O448 2.339 . S
Dy440 O450 2.298 . S
Dy440 O454 2.275 . S
Dy440 C462 2.738 . S
Dy441 O444 2.298 . S
Dy441 O447 2.275 . S
Dy441 O449 2.307 . S
Dy441 O451 2.395 . S
Dy441 O452 2.379 . S
Dy441 O455 2.339 . S
Dy441 C471 2.738 . S
C442 O454 1.254 . S
C442 O455 1.257 . S
O443 Dy440 2.307 . S
O443 C453 1.266 . S
O444 Dy441 2.298 . S
O444 C453 1.236 . S
O445 Dy440 2.395 . S
O445 C462 1.255 . S
O446 Dy440 2.379 . S
O446 C462 1.249 . S
O447 Dy441 2.275 . S
O447 C463 1.254 . S
O448 Dy440 2.339 . S
O448 C463 1.257 . S
O449 Dy441 2.307 . S
O449 C464 1.266 . S
O450 Dy440 2.298 . S
O450 C464 1.236 . S
O451 Dy441 2.395 . S
O451 C471 1.255 . S
O452 Dy441 2.379 . S
O452 C471 1.249 . S
C453 O443 1.266 . S
C453 O444 1.236 . S
O454 Dy440 2.275 . S
O454 C442 1.254 . S
O455 Dy441 2.339 . S
O455 C442 1.257 . S
C456 C459 1.344 . S
C456 C460 1.328 . S
C456 C462 1.516 . S
C457 C458 1.304 . S
C457 C461 1.323 . S
C458 C457 1.304 . S
C458 C459 1.371 . S
C458 H472 0.930 . S
C459 C456 1.344 . S
C459 C458 1.371 . S
C459 H473 0.931 . S
C460 C456 1.328 . S
C460 C461 1.433 . S
C460 H474 0.931 . S
C461 C457 1.323 . S
C461 C460 1.433 . S
C461 H475 0.933 . S
C462 Dy440 2.738 . S
C462 O445 1.255 . S
C462 O446 1.249 . S
C462 C456 1.516 . S
C463 O447 1.254 . S
C463 O448 1.257 . S
C464 O449 1.266 . S
C464 O450 1.236 . S
C465 C468 1.344 . S
C465 C469 1.328 . S
C465 C471 1.516 . S
C466 C467 1.304 . S
C466 C470 1.323 . S
C467 C466 1.304 . S
C467 C468 1.371 . S
C467 H476 0.930 . S
C468 C465 1.344 . S
C468 C467 1.371 . S
C468 H477 0.931 . S
C469 C465 1.328 . S
C469 C470 1.433 . S
C469 H478 0.931 . S
C470 C466 1.323 . S
C470 C469 1.433 . S
C470 H479 0.933 . S
C471 Dy441 2.738 . S
C471 O451 1.255 . S
C471 O452 1.249 . S
C471 C465 1.516 . S
H472 C458 0.930 . S
H473 C459 0.931 . S
H474 C460 0.931 . S
H475 C461 0.933 . S
H476 C467 0.930 . S
H477 C468 0.931 . S
H478 C469 0.931 . S
H479 C470 0.933 . S
Dy480 O483 2.307 . S
Dy480 O485 2.395 . S
Dy480 O486 2.379 . S
Dy480 O488 2.339 . S
Dy480 O490 2.298 . S
Dy480 O494 2.275 . S
Dy480 C502 2.738 . S
Dy481 O484 2.298 . S
Dy481 O487 2.275 . S
Dy481 O489 2.307 . S
Dy481 O491 2.395 . S
Dy481 O492 2.379 . S
Dy481 O495 2.339 . S
Dy481 C511 2.738 . S
C482 O494 1.254 . S
C482 O495 1.257 . S
O483 Dy480 2.307 . S
O483 C493 1.266 . S
O484 Dy481 2.298 . S
O484 C493 1.236 . S
O485 Dy480 2.395 . S
O485 C502 1.255 . S
O486 Dy480 2.379 . S
O486 C502 1.249 . S
O487 Dy481 2.275 . S
O487 C503 1.254 . S
O488 Dy480 2.339 . S
O488 C503 1.257 . S
O489 Dy481 2.307 . S
O489 C504 1.266 . S
O490 Dy480 2.298 . S
O490 C504 1.236 . S
O491 Dy481 2.395 . S
O491 C511 1.255 . S
O492 Dy481 2.379 . S
O492 C511 1.249 . S
C493 O483 1.266 . S
C493 O484 1.236 . S
O494 Dy480 2.275 . S
O494 C482 1.254 . S
O495 Dy481 2.339 . S
O495 C482 1.257 . S
C496 C499 1.344 . S
C496 C500 1.328 . S
C496 C502 1.516 . S
C497 C498 1.304 . S
C497 C501 1.323 . S
C498 C497 1.304 . S
C498 C499 1.371 . S
C498 H512 0.930 . S
C499 C496 1.344 . S
C499 C498 1.371 . S
C499 H513 0.931 . S
C500 C496 1.328 . S
C500 C501 1.433 . S
C500 H514 0.931 . S
C501 C497 1.323 . S
C501 C500 1.433 . S
C501 H515 0.933 . S
C502 Dy480 2.738 . S
C502 O485 1.255 . S
C502 O486 1.249 . S
C502 C496 1.516 . S
C503 O487 1.254 . S
C503 O488 1.257 . S
C504 O489 1.266 . S
C504 O490 1.236 . S
C505 C508 1.344 . S
C505 C509 1.328 . S
C505 C511 1.516 . S
C506 C507 1.304 . S
C506 C510 1.323 . S
C507 C506 1.304 . S
C507 C508 1.371 . S
C507 H516 0.930 . S
C508 C505 1.344 . S
C508 C507 1.371 . S
C508 H517 0.931 . S
C509 C505 1.328 . S
C509 C510 1.433 . S
C509 H518 0.931 . S
C510 C506 1.323 . S
C510 C509 1.433 . S
C510 H519 0.933 . S
C511 Dy481 2.738 . S
C511 O491 1.255 . S
C511 O492 1.249 . S
C511 C505 1.516 . S
H512 C498 0.930 . S
H513 C499 0.931 . S
H514 C500 0.931 . S
H515 C501 0.933 . S
H516 C507 0.930 . S
H517 C508 0.931 . S
H518 C509 0.931 . S
H519 C510 0.933 . S
Dy520 O523 2.307 . S
Dy520 O525 2.395 . S
Dy520 O526 2.379 . S
Dy520 O528 2.339 . S
Dy520 O530 2.298 . S
Dy520 O534 2.275 . S
Dy520 C542 2.738 . S
Dy521 O524 2.298 . S
Dy521 O527 2.275 . S
Dy521 O529 2.307 . S
Dy521 O531 2.395 . S
Dy521 O532 2.379 . S
Dy521 O535 2.339 . S
Dy521 C551 2.738 . S
C522 O534 1.254 . S
C522 O535 1.257 . S
O523 Dy520 2.307 . S
O523 C533 1.266 . S
O524 Dy521 2.298 . S
O524 C533 1.236 . S
O525 Dy520 2.395 . S
O525 C542 1.255 . S
O526 Dy520 2.379 . S
O526 C542 1.249 . S
O527 Dy521 2.275 . S
O527 C543 1.254 . S
O528 Dy520 2.339 . S
O528 C543 1.257 . S
O529 Dy521 2.307 . S
O529 C544 1.266 . S
O530 Dy520 2.298 . S
O530 C544 1.236 . S
O531 Dy521 2.395 . S
O531 C551 1.255 . S
O532 Dy521 2.379 . S
O532 C551 1.249 . S
C533 O523 1.266 . S
C533 O524 1.236 . S
O534 Dy520 2.275 . S
O534 C522 1.254 . S
O535 Dy521 2.339 . S
O535 C522 1.257 . S
C536 C539 1.344 . S
C536 C540 1.328 . S
C536 C542 1.516 . S
C537 C538 1.304 . S
C537 C541 1.323 . S
C538 C537 1.304 . S
C538 C539 1.371 . S
C538 H552 0.930 . S
C539 C536 1.344 . S
C539 C538 1.371 . S
C539 H553 0.931 . S
C540 C536 1.328 . S
C540 C541 1.433 . S
C540 H554 0.931 . S
C541 C537 1.323 . S
C541 C540 1.433 . S
C541 H555 0.933 . S
C542 Dy520 2.738 . S
C542 O525 1.255 . S
C542 O526 1.249 . S
C542 C536 1.516 . S
C543 O527 1.254 . S
C543 O528 1.257 . S
C544 O529 1.266 . S
C544 O530 1.236 . S
C545 C548 1.344 . S
C545 C549 1.328 . S
C545 C551 1.516 . S
C546 C547 1.304 . S
C546 C550 1.323 . S
C547 C546 1.304 . S
C547 C548 1.371 . S
C547 H556 0.930 . S
C548 C545 1.344 . S
C548 C547 1.371 . S
C548 H557 0.931 . S
C549 C545 1.328 . S
C549 C550 1.433 . S
C549 H558 0.931 . S
C550 C546 1.323 . S
C550 C549 1.433 . S
C550 H559 0.933 . S
C551 Dy521 2.738 . S
C551 O531 1.255 . S
C551 O532 1.249 . S
C551 C545 1.516 . S
H552 C538 0.930 . S
H553 C539 0.931 . S
H554 C540 0.931 . S
H555 C541 0.933 . S
H556 C547 0.930 . S
H557 C548 0.931 . S
H558 C549 0.931 . S
H559 C550 0.933 . S
Dy560 O563 2.307 . S
Dy560 O565 2.395 1_556 S
Dy560 O566 2.379 1_556 S
Dy560 O568 2.339 . S
Dy560 O570 2.298 . S
Dy560 O574 2.275 . S
Dy560 C582 2.738 1_556 S
Dy561 O564 2.298 . S
Dy561 O567 2.275 . S
Dy561 O569 2.307 . S
Dy561 O571 2.395 . S
Dy561 O572 2.379 . S
Dy561 O575 2.339 . S
Dy561 C591 2.738 . S
C562 O574 1.254 . S
C562 O575 1.257 . S
O563 Dy560 2.307 . S
O563 C573 1.266 . S
O564 Dy561 2.298 . S
O564 C573 1.236 . S
O565 Dy560 2.395 1_554 S
O565 C582 1.255 . S
O566 Dy560 2.379 1_554 S
O566 C582 1.249 . S
O567 Dy561 2.275 . S
O567 C583 1.254 . S
O568 Dy560 2.339 . S
O568 C583 1.257 . S
O569 Dy561 2.307 . S
O569 C584 1.266 . S
O570 Dy560 2.298 . S
O570 C584 1.236 . S
O571 Dy561 2.395 . S
O571 C591 1.255 . S
O572 Dy561 2.379 . S
O572 C591 1.249 . S
C573 O563 1.266 . S
C573 O564 1.236 . S
O574 Dy560 2.275 . S
O574 C562 1.254 . S
O575 Dy561 2.339 . S
O575 C562 1.257 . S
C576 C579 1.344 . S
C576 C580 1.328 . S
C576 C582 1.516 . S
C577 C578 1.304 . S
C577 C581 1.323 . S
C578 C577 1.304 . S
C578 C579 1.371 . S
C578 H592 0.930 . S
C579 C576 1.344 . S
C579 C578 1.371 . S
C579 H593 0.931 . S
C580 C576 1.328 . S
C580 C581 1.433 . S
C580 H594 0.931 . S
C581 C577 1.323 . S
C581 C580 1.433 . S
C581 H595 0.933 . S
C582 Dy560 2.738 1_554 S
C582 O565 1.255 . S
C582 O566 1.249 . S
C582 C576 1.516 . S
C583 O567 1.254 . S
C583 O568 1.257 . S
C584 O569 1.266 . S
C584 O570 1.236 . S
C585 C588 1.344 . S
C585 C589 1.328 . S
C585 C591 1.516 . S
C586 C587 1.304 . S
C586 C590 1.323 . S
C587 C586 1.304 . S
C587 C588 1.371 . S
C587 H596 0.930 . S
C588 C585 1.344 . S
C588 C587 1.371 . S
C588 H597 0.931 . S
C589 C585 1.328 . S
C589 C590 1.433 . S
C589 H598 0.931 . S
C590 C586 1.323 . S
C590 C589 1.433 . S
C590 H599 0.933 . S
C591 Dy561 2.738 . S
C591 O571 1.255 . S
C591 O572 1.249 . S
C591 C585 1.516 . S
H592 C578 0.930 . S
H593 C579 0.931 . S
H594 C580 0.931 . S
H595 C581 0.933 . S
H596 C587 0.930 . S
H597 C588 0.931 . S
H598 C589 0.931 . S
H599 C590 0.933 . S
Dy600 O603 2.307 . S
Dy600 O605 2.395 . S
Dy600 O606 2.379 . S
Dy600 O608 2.339 . S
Dy600 O610 2.298 . S
Dy600 O614 2.275 . S
Dy600 C622 2.738 . S
Dy601 O604 2.298 . S
Dy601 O607 2.275 . S
Dy601 O609 2.307 . S
Dy601 O611 2.395 . S
Dy601 O612 2.379 . S
Dy601 O615 2.339 . S
Dy601 C631 2.738 . S
C602 O614 1.254 . S
C602 O615 1.257 . S
O603 Dy600 2.307 . S
O603 C613 1.266 . S
O604 Dy601 2.298 . S
O604 C613 1.236 . S
O605 Dy600 2.395 . S
O605 C622 1.255 . S
O606 Dy600 2.379 . S
O606 C622 1.249 . S
O607 Dy601 2.275 . S
O607 C623 1.254 . S
O608 Dy600 2.339 . S
O608 C623 1.257 . S
O609 Dy601 2.307 . S
O609 C624 1.266 . S
O610 Dy600 2.298 . S
O610 C624 1.236 . S
O611 Dy601 2.395 . S
O611 C631 1.255 . S
O612 Dy601 2.379 . S
O612 C631 1.249 . S
C613 O603 1.266 . S
C613 O604 1.236 . S
O614 Dy600 2.275 . S
O614 C602 1.254 . S
O615 Dy601 2.339 . S
O615 C602 1.257 . S
C616 C619 1.344 . S
C616 C620 1.328 . S
C616 C622 1.516 . S
C617 C618 1.304 . S
C617 C621 1.323 . S
C618 C617 1.304 . S
C618 C619 1.371 . S
C618 H632 0.930 . S
C619 C616 1.344 . S
C619 C618 1.371 . S
C619 H633 0.931 . S
C620 C616 1.328 . S
C620 C621 1.433 . S
C620 H634 0.931 . S
C621 C617 1.323 . S
C621 C620 1.433 . S
C621 H635 0.933 . S
C622 Dy600 2.738 . S
C622 O605 1.255 . S
C622 O606 1.249 . S
C622 C616 1.516 . S
C623 O607 1.254 . S
C623 O608 1.257 . S
C624 O609 1.266 . S
C624 O610 1.236 . S
C625 C628 1.344 . S
C625 C629 1.328 . S
C625 C631 1.516 . S
C626 C627 1.304 . S
C626 C630 1.323 . S
C627 C626 1.304 . S
C627 C628 1.371 . S
C627 H636 0.930 . S
C628 C625 1.344 . S
C628 C627 1.371 . S
C628 H637 0.931 . S
C629 C625 1.328 . S
C629 C630 1.433 . S
C629 H638 0.931 . S
C630 C626 1.323 . S
C630 C629 1.433 . S
C630 H639 0.933 . S
C631 Dy601 2.738 . S
C631 O611 1.255 . S
C631 O612 1.249 . S
C631 C625 1.516 . S
H632 C618 0.930 . S
H633 C619 0.931 . S
H634 C620 0.931 . S
H635 C621 0.933 . S
H636 C627 0.930 . S
H637 C628 0.931 . S
H638 C629 0.931 . S
H639 C630 0.933 . S
C640 C641 1.349 . S
C640 C642 1.327 . S
C640 H665 0.950 . S
C641 C640 1.349 . S
C641 C657 1.349 . S
C642 C640 1.327 . S
C642 C661 1.429 . S
C642 H666 0.950 . S
C643 C660 1.574 . S
C643 C662 1.368 . S
C643 H667 0.949 . S
H644 C648 0.949 . S
C645 C646 1.349 . S
C645 C647 1.327 . S
C645 H668 0.950 . S
C646 C645 1.349 . S
C646 C658 1.349 . S
C647 C645 1.327 . S
C647 C663 1.429 . S
C647 H669 0.950 . S
C648 H644 0.949 . S
C648 C656 1.574 . S
C648 C664 1.368 . S
H649 C657 0.950 . S
H650 C655 0.950 . S
H651 C656 0.949 . S
H652 C658 0.950 . S
H653 C659 0.950 . S
H654 C660 0.949 . S
C655 H650 0.950 . S
C655 C657 1.327 . S
C655 C661 1.429 . S
C656 C648 1.574 . S
C656 H651 0.949 . S
C656 C662 1.368 . S
C657 C641 1.349 . S
C657 H649 0.950 . S
C657 C655 1.327 . S
C658 C646 1.349 . S
C658 H652 0.950 . S
C658 C659 1.327 . S
C659 H653 0.950 . S
C659 C658 1.327 . S
C659 C663 1.429 . S
C660 C643 1.574 . S
C660 H654 0.949 . S
C660 C664 1.368 . S
C661 C642 1.429 . S
C661 C655 1.429 . S
C661 C662 1.523 . S
C662 C643 1.368 . S
C662 C656 1.368 . S
C662 C661 1.523 . S
C663 C647 1.429 . S
C663 C659 1.429 . S
C663 C664 1.523 . S
C664 C648 1.368 . S
C664 C660 1.368 . S
C664 C663 1.523 . S
H665 C640 0.950 . S
H666 C642 0.950 . S
H667 C643 0.949 . S
H668 C645 0.950 . S
H669 C647 0.950 . S
C670 C671 1.349 . S
C670 C672 1.327 . S
C670 H695 0.950 . S
C671 C670 1.349 . S
C671 C687 1.349 . S
C672 C670 1.327 . S
C672 C691 1.429 . S
C672 H696 0.950 . S
C673 C690 1.574 . S
C673 C692 1.368 . S
C673 H697 0.949 . S
H674 C678 0.949 . S
C675 C676 1.349 . S
C675 C677 1.327 . S
C675 H698 0.950 . S
C676 C675 1.349 . S
C676 C688 1.349 . S
C677 C675 1.327 . S
C677 C693 1.429 . S
C677 H699 0.950 . S
C678 H674 0.949 . S
C678 C686 1.574 . S
C678 C694 1.368 . S
H679 C687 0.950 . S
H680 C685 0.950 . S
H681 C686 0.949 . S
H682 C688 0.950 . S
H683 C689 0.950 . S
H684 C690 0.949 . S
C685 H680 0.950 . S
C685 C687 1.327 . S
C685 C691 1.429 . S
C686 C678 1.574 . S
C686 H681 0.949 . S
C686 C692 1.368 . S
C687 C671 1.349 . S
C687 H679 0.950 . S
C687 C685 1.327 . S
C688 C676 1.349 . S
C688 H682 0.950 . S
C688 C689 1.327 . S
C689 H683 0.950 . S
C689 C688 1.327 . S
C689 C693 1.429 . S
C690 C673 1.574 . S
C690 H684 0.949 . S
C690 C694 1.368 . S
C691 C672 1.429 . S
C691 C685 1.429 . S
C691 C692 1.523 . S
C692 C673 1.368 . S
C692 C686 1.368 . S
C692 C691 1.523 . S
C693 C677 1.429 . S
C693 C689 1.429 . S
C693 C694 1.523 . S
C694 C678 1.368 . S
C694 C690 1.368 . S
C694 C693 1.523 . S
H695 C670 0.950 . S
H696 C672 0.950 . S
H697 C673 0.949 . S
H698 C675 0.950 . S
H699 C677 0.950 . S
C700 C701 1.349 . S
C700 C702 1.327 . S
C700 H725 0.950 . S
C701 C700 1.349 . S
C701 C717 1.349 . S
C702 C700 1.327 . S
C702 C721 1.429 . S
C702 H726 0.950 . S
C703 C720 1.574 1_455 S
C703 C722 1.368 . S
C703 H727 0.949 . S
H704 C708 0.949 . S
C705 C706 1.349 . S
C705 C707 1.327 . S
C705 H728 0.950 . S
C706 C705 1.349 . S
C706 C718 1.349 . S
C707 C705 1.327 . S
C707 C723 1.429 . S
C707 H729 0.950 . S
C708 H704 0.949 . S
C708 C716 1.574 1_655 S
C708 C724 1.368 . S
H709 C717 0.950 . S
H710 C715 0.950 . S
H711 C716 0.949 . S
H712 C718 0.950 . S
H713 C719 0.950 . S
H714 C720 0.949 . S
C715 H710 0.950 . S
C715 C717 1.327 . S
C715 C721 1.429 . S
C716 C708 1.574 1_455 S
C716 H711 0.949 . S
C716 C722 1.368 . S
C717 C701 1.349 . S
C717 H709 0.950 . S
C717 C715 1.327 . S
C718 C706 1.349 . S
C718 H712 0.950 . S
C718 C719 1.327 . S
C719 H713 0.950 . S
C719 C718 1.327 . S
C719 C723 1.429 . S
C720 C703 1.574 1_655 S
C720 H714 0.949 . S
C720 C724 1.368 . S
C721 C702 1.429 . S
C721 C715 1.429 . S
C721 C722 1.523 . S
C722 C703 1.368 . S
C722 C716 1.368 . S
C722 C721 1.523 . S
C723 C707 1.429 . S
C723 C719 1.429 . S
C723 C724 1.523 . S
C724 C708 1.368 . S
C724 C720 1.368 . S
C724 C723 1.523 . S
H725 C700 0.950 . S
H726 C702 0.950 . S
H727 C703 0.949 . S
H728 C705 0.950 . S
H729 C707 0.950 . S
C730 C731 1.349 . S
C730 C732 1.327 . S
C730 H755 0.950 . S
C731 C730 1.349 . S
C731 C747 1.349 . S
C732 C730 1.327 . S
C732 C751 1.429 . S
C732 H756 0.950 . S
C733 C750 1.575 1_655 S
C733 C752 1.368 . S
C733 H757 0.949 . S
H734 C738 0.949 . S
C735 C736 1.349 . S
C735 C737 1.327 . S
C735 H758 0.950 . S
C736 C735 1.349 . S
C736 C748 1.349 . S
C737 C735 1.327 . S
C737 C753 1.429 . S
C737 H759 0.950 . S
C738 H734 0.949 . S
C738 C746 1.575 1_455 S
C738 C754 1.368 . S
H739 C747 0.950 . S
H740 C745 0.950 . S
H741 C746 0.949 . S
H742 C748 0.950 . S
H743 C749 0.950 . S
H744 C750 0.949 . S
C745 H740 0.950 . S
C745 C747 1.327 . S
C745 C751 1.429 . S
C746 C738 1.575 1_655 S
C746 H741 0.949 . S
C746 C752 1.367 . S
C747 C731 1.349 . S
C747 H739 0.950 . S
C747 C745 1.327 . S
C748 C736 1.349 . S
C748 H742 0.950 . S
C748 C749 1.327 . S
C749 H743 0.950 . S
C749 C748 1.327 . S
C749 C753 1.429 . S
C750 C733 1.575 1_455 S
C750 H744 0.949 . S
C750 C754 1.367 . S
C751 C732 1.429 . S
C751 C745 1.429 . S
C751 C752 1.523 . S
C752 C733 1.368 . S
C752 C746 1.367 . S
C752 C751 1.523 . S
C753 C737 1.429 . S
C753 C749 1.429 . S
C753 C754 1.523 . S
C754 C738 1.368 . S
C754 C750 1.367 . S
C754 C753 1.523 . S
H755 C730 0.950 . S
H756 C732 0.950 . S
H757 C733 0.949 . S
H758 C735 0.950 . S
H759 C737 0.950 . S
C760 C761 1.349 . S
C760 C762 1.327 . S
C760 H785 0.950 . S
C761 C760 1.349 . S
C761 C777 1.349 . S
C762 C760 1.327 . S
C762 C781 1.429 . S
C762 H786 0.950 . S
C763 C780 1.574 . S
C763 C782 1.368 . S
C763 H787 0.949 . S
H764 C768 0.949 . S
C765 C766 1.349 . S
C765 C767 1.327 . S
C765 H788 0.950 . S
C766 C765 1.349 . S
C766 C778 1.349 . S
C767 C765 1.327 . S
C767 C783 1.429 . S
C767 H789 0.950 . S
C768 H764 0.949 . S
C768 C776 1.574 . S
C768 C784 1.368 . S
H769 C777 0.950 . S
H770 C775 0.950 . S
H771 C776 0.949 . S
H772 C778 0.950 . S
H773 C779 0.950 . S
H774 C780 0.949 . S
C775 H770 0.950 . S
C775 C777 1.327 . S
C775 C781 1.429 . S
C776 C768 1.574 . S
C776 H771 0.949 . S
C776 C782 1.368 . S
C777 C761 1.349 . S
C777 H769 0.950 . S
C777 C775 1.327 . S
C778 C766 1.349 . S
C778 H772 0.950 . S
C778 C779 1.327 . S
C779 H773 0.950 . S
C779 C778 1.327 . S
C779 C783 1.429 . S
C780 C763 1.574 . S
C780 H774 0.949 . S
C780 C784 1.368 . S
C781 C762 1.429 . S
C781 C775 1.429 . S
C781 C782 1.523 . S
C782 C763 1.368 . S
C782 C776 1.368 . S
C782 C781 1.523 . S
C783 C767 1.429 . S
C783 C779 1.429 . S
C783 C784 1.523 . S
C784 C768 1.368 . S
C784 C780 1.368 . S
C784 C783 1.523 . S
H785 C760 0.950 . S
H786 C762 0.950 . S
H787 C763 0.949 . S
H788 C765 0.950 . S
H789 C767 0.950 . S
C790 C791 1.349 . S
C790 C792 1.327 . S
C790 H815 0.950 . S
C791 C790 1.349 . S
C791 C807 1.349 . S
C792 C790 1.327 . S
C792 C811 1.429 . S
C792 H816 0.950 . S
C793 C810 1.574 . S
C793 C812 1.368 . S
C793 H817 0.949 . S
H794 C798 0.949 . S
C795 C796 1.349 . S
C795 C797 1.327 . S
C795 H818 0.950 . S
C796 C795 1.349 . S
C796 C808 1.349 . S
C797 C795 1.327 . S
C797 C813 1.429 . S
C797 H819 0.950 . S
C798 H794 0.949 . S
C798 C806 1.574 . S
C798 C814 1.368 . S
H799 C807 0.950 . S
H800 C805 0.950 . S
H801 C806 0.949 . S
H802 C808 0.950 . S
H803 C809 0.950 . S
H804 C810 0.949 . S
C805 H800 0.950 . S
C805 C807 1.327 . S
C805 C811 1.429 . S
C806 C798 1.574 . S
C806 H801 0.949 . S
C806 C812 1.368 . S
C807 C791 1.349 . S
C807 H799 0.950 . S
C807 C805 1.327 . S
C808 C796 1.349 . S
C808 H802 0.950 . S
C808 C809 1.327 . S
C809 H803 0.950 . S
C809 C808 1.327 . S
C809 C813 1.429 . S
C810 C793 1.574 . S
C810 H804 0.949 . S
C810 C814 1.368 . S
C811 C792 1.429 . S
C811 C805 1.429 . S
C811 C812 1.523 . S
C812 C793 1.368 . S
C812 C806 1.368 . S
C812 C811 1.523 . S
C813 C797 1.429 . S
C813 C809 1.429 . S
C813 C814 1.523 . S
C814 C798 1.368 . S
C814 C810 1.368 . S
C814 C813 1.523 . S
H815 C790 0.950 . S
H816 C792 0.950 . S
H817 C793 0.949 . S
H818 C795 0.950 . S
H819 C797 0.950 . S
C820 C821 1.349 . S
C820 C822 1.327 . S
C820 H845 0.950 . S
C821 C820 1.349 . S
C821 C837 1.349 . S
C822 C820 1.327 . S
C822 C841 1.429 . S
C822 H846 0.950 . S
C823 C840 1.574 1_655 S
C823 C842 1.368 . S
C823 H847 0.949 . S
H824 C828 0.949 . S
C825 C826 1.349 . S
C825 C827 1.327 . S
C825 H848 0.950 . S
C826 C825 1.349 . S
C826 C838 1.349 . S
C827 C825 1.327 . S
C827 C843 1.429 . S
C827 H849 0.950 . S
C828 H824 0.949 . S
C828 C836 1.574 1_455 S
C828 C844 1.368 . S
H829 C837 0.950 . S
H830 C835 0.950 . S
H831 C836 0.949 . S
H832 C838 0.950 . S
H833 C839 0.950 . S
H834 C840 0.949 . S
C835 H830 0.950 . S
C835 C837 1.327 . S
C835 C841 1.429 . S
C836 C828 1.574 1_655 S
C836 H831 0.949 . S
C836 C842 1.368 . S
C837 C821 1.349 . S
C837 H829 0.950 . S
C837 C835 1.327 . S
C838 C826 1.349 . S
C838 H832 0.950 . S
C838 C839 1.327 . S
C839 H833 0.950 . S
C839 C838 1.327 . S
C839 C843 1.429 . S
C840 C823 1.574 1_455 S
C840 H834 0.949 . S
C840 C844 1.368 . S
C841 C822 1.429 . S
C841 C835 1.429 . S
C841 C842 1.523 . S
C842 C823 1.368 . S
C842 C836 1.368 . S
C842 C841 1.523 . S
C843 C827 1.429 . S
C843 C839 1.429 . S
C843 C844 1.523 . S
C844 C828 1.368 . S
C844 C840 1.368 . S
C844 C843 1.523 . S
H845 C820 0.950 . S
H846 C822 0.950 . S
H847 C823 0.949 . S
H848 C825 0.950 . S
H849 C827 0.950 . S
C850 C851 1.349 . S
C850 C852 1.327 . S
C850 H875 0.950 . S
C851 C850 1.349 . S
C851 C867 1.349 . S
C852 C850 1.327 . S
C852 C871 1.429 . S
C852 H876 0.950 . S
C853 C870 1.575 1_455 S
C853 C872 1.368 . S
C853 H877 0.949 . S
H854 C858 0.949 . S
C855 C856 1.349 . S
C855 C857 1.327 . S
C855 H878 0.950 . S
C856 C855 1.349 . S
C856 C868 1.349 . S
C857 C855 1.327 . S
C857 C873 1.429 . S
C857 H879 0.950 . S
C858 H854 0.949 . S
C858 C866 1.575 1_655 S
C858 C874 1.368 . S
H859 C867 0.950 . S
H860 C865 0.950 . S
H861 C866 0.949 . S
H862 C868 0.950 . S
H863 C869 0.950 . S
H864 C870 0.949 . S
C865 H860 0.950 . S
C865 C867 1.327 . S
C865 C871 1.429 . S
C866 C858 1.575 1_455 S
C866 H861 0.949 . S
C866 C872 1.367 . S
C867 C851 1.349 . S
C867 H859 0.950 . S
C867 C865 1.327 . S
C868 C856 1.349 . S
C868 H862 0.950 . S
C868 C869 1.327 . S
C869 H863 0.950 . S
C869 C868 1.327 . S
C869 C873 1.429 . S
C870 C853 1.575 1_655 S
C870 H864 0.949 . S
C870 C874 1.367 . S
C871 C852 1.429 . S
C871 C865 1.429 . S
C871 C872 1.523 . S
C872 C853 1.368 . S
C872 C866 1.367 . S
C872 C871 1.523 . S
C873 C857 1.429 . S
C873 C869 1.429 . S
C873 C874 1.523 . S
C874 C858 1.368 . S
C874 C870 1.367 . S
C874 C873 1.523 . S
H875 C850 0.950 . S
H876 C852 0.950 . S
H877 C853 0.949 . S
H878 C855 0.950 . S
H879 C857 0.950 . S
C880 C881 1.349 . S
C880 C882 1.327 . S
C880 H905 0.950 . S
C881 C880 1.349 . S
C881 C897 1.349 . S
C882 C880 1.327 . S
C882 C901 1.429 . S
C882 H906 0.950 . S
C883 C900 1.574 . S
C883 C902 1.368 . S
C883 H907 0.949 . S
H884 C888 0.949 . S
C885 C886 1.349 . S
C885 C887 1.327 . S
C885 H908 0.950 . S
C886 C885 1.349 . S
C886 C898 1.349 . S
C887 C885 1.327 . S
C887 C903 1.429 . S
C887 H909 0.950 . S
C888 H884 0.949 . S
C888 C896 1.574 . S
C888 C904 1.368 . S
H889 C897 0.950 . S
H890 C895 0.950 . S
H891 C896 0.949 . S
H892 C898 0.957 . S
H893 C899 0.950 . S
H894 C900 0.949 . S
C895 H890 0.950 . S
C895 C897 1.327 . S
C895 C901 1.429 . S
C896 C888 1.574 . S
C896 H891 0.949 . S
C896 C902 1.368 . S
C897 C881 1.349 . S
C897 H889 0.950 . S
C897 C895 1.327 . S
C898 C886 1.349 . S
C898 H892 0.957 . S
C898 C899 1.327 . S
C899 H893 0.950 . S
C899 C898 1.327 . S
C899 C903 1.429 . S
C900 C883 1.574 . S
C900 H894 0.949 . S
C900 C904 1.368 . S
C901 C882 1.429 . S
C901 C895 1.429 . S
C901 C902 1.523 . S
C902 C883 1.368 . S
C902 C896 1.368 . S
C902 C901 1.523 . S
C903 C887 1.429 . S
C903 C899 1.429 . S
C903 C904 1.523 . S
C904 C888 1.368 . S
C904 C900 1.368 . S
C904 C903 1.523 . S
H905 C880 0.950 . S
H906 C882 0.950 . S
H907 C883 0.949 . S
H908 C885 0.950 . S
H909 C887 0.950 . S
C910 C911 1.349 . S
C910 C912 1.327 . S
C910 H935 0.950 . S
C911 C910 1.349 . S
C911 C927 1.349 . S
C912 C910 1.327 . S
C912 C931 1.429 . S
C912 H936 0.950 . S
C913 C930 1.574 . S
C913 C932 1.368 . S
C913 H937 0.949 . S
H914 C918 0.949 . S
C915 C916 1.349 . S
C915 C917 1.327 . S
C915 H938 0.950 . S
C916 C915 1.349 . S
C916 C928 1.349 . S
C917 C915 1.327 . S
C917 C933 1.429 . S
C917 H939 0.950 . S
C918 H914 0.949 . S
C918 C926 1.574 . S
C918 C934 1.368 . S
H919 C927 0.950 . S
H920 C925 0.950 . S
H921 C926 0.949 . S
H922 C928 0.950 . S
H923 C929 0.950 . S
H924 C930 0.949 . S
C925 H920 0.950 . S
C925 C927 1.327 . S
C925 C931 1.429 . S
C926 C918 1.574 . S
C926 H921 0.949 . S
C926 C932 1.368 . S
C927 C911 1.349 . S
C927 H919 0.950 . S
C927 C925 1.327 . S
C928 C916 1.349 . S
C928 H922 0.950 . S
C928 C929 1.327 . S
C929 H923 0.950 . S
C929 C928 1.327 . S
C929 C933 1.429 . S
C930 C913 1.574 . S
C930 H924 0.949 . S
C930 C934 1.368 . S
C931 C912 1.429 . S
C931 C925 1.429 . S
C931 C932 1.523 . S
C932 C913 1.368 . S
C932 C926 1.368 . S
C932 C931 1.523 . S
C933 C917 1.429 . S
C933 C929 1.429 . S
C933 C934 1.523 . S
C934 C918 1.368 . S
C934 C930 1.368 . S
C934 C933 1.523 . S
H935 C910 0.950 . S
H936 C912 0.950 . S
H937 C913 0.949 . S
H938 C915 0.950 . S
H939 C917 0.950 . S
C940 C941 1.349 . S
C940 C942 1.327 . S
C940 H965 0.950 . S
C941 C940 1.349 . S
C941 C957 1.349 . S
C942 C940 1.327 . S
C942 C961 1.429 . S
C942 H966 0.950 . S
C943 C960 1.574 . S
C943 C962 1.368 . S
C943 H967 0.949 . S
H944 C948 0.949 . S
C945 C946 1.349 . S
C945 C947 1.327 . S
C945 H968 0.950 . S
C946 C945 1.349 . S
C946 C958 1.349 . S
C947 C945 1.327 . S
C947 C963 1.429 . S
C947 H969 0.950 . S
C948 H944 0.949 . S
C948 C956 1.574 . S
C948 C964 1.368 . S
H949 C957 0.950 . S
H950 C955 0.950 . S
H951 C956 0.949 . S
H952 C958 0.950 . S
H953 C959 0.950 . S
H954 C960 0.949 . S
C955 H950 0.950 . S
C955 C957 1.327 . S
C955 C961 1.429 . S
C956 C948 1.574 . S
C956 H951 0.949 . S
C956 C962 1.368 . S
C957 C941 1.349 . S
C957 H949 0.950 . S
C957 C955 1.327 . S
C958 C946 1.349 . S
C958 H952 0.950 . S
C958 C959 1.327 . S
C959 H953 0.950 . S
C959 C958 1.327 . S
C959 C963 1.429 . S
C960 C943 1.574 . S
C960 H954 0.949 . S
C960 C964 1.368 . S
C961 C942 1.429 . S
C961 C955 1.429 . S
C961 C962 1.523 . S
C962 C943 1.368 . S
C962 C956 1.368 . S
C962 C961 1.523 . S
C963 C947 1.429 . S
C963 C959 1.429 . S
C963 C964 1.523 . S
C964 C948 1.368 . S
C964 C960 1.368 . S
C964 C963 1.523 . S
H965 C940 0.950 . S
H966 C942 0.950 . S
H967 C943 0.949 . S
H968 C945 0.950 . S
H969 C947 0.950 . S
C970 C971 1.349 . S
C970 C972 1.327 . S
C970 H995 0.950 . S
C971 C970 1.349 . S
C971 C987 1.349 . S
C972 C970 1.327 . S
C972 C991 1.429 . S
C972 H996 0.950 . S
C973 C990 1.574 . S
C973 C992 1.368 . S
C973 H997 0.949 . S
H974 C978 0.949 . S
C975 C976 1.349 . S
C975 C977 1.327 . S
C975 H998 0.950 . S
C976 C975 1.349 . S
C976 C988 1.349 . S
C977 C975 1.327 . S
C977 C993 1.429 . S
C977 H999 0.950 . S
C978 H974 0.949 . S
C978 C986 1.574 . S
C978 C994 1.368 . S
H979 C987 0.950 . S
H980 C985 0.950 . S
H981 C986 0.949 . S
H982 C988 0.950 . S
H983 C989 0.950 . S
H984 C990 0.949 . S
C985 H980 0.950 . S
C985 C987 1.327 . S
C985 C991 1.429 . S
C986 C978 1.574 . S
C986 H981 0.949 . S
C986 C992 1.368 . S
C987 C971 1.349 . S
C987 H979 0.950 . S
C987 C985 1.327 . S
C988 C976 1.349 . S
C988 H982 0.950 . S
C988 C989 1.327 . S
C989 H983 0.950 . S
C989 C988 1.327 . S
C989 C993 1.429 . S
C990 C973 1.574 . S
C990 H984 0.949 . S
C990 C994 1.368 . S
C991 C972 1.429 . S
C991 C985 1.429 . S
C991 C992 1.523 . S
C992 C973 1.368 . S
C992 C986 1.368 . S
C992 C991 1.523 . S
C993 C977 1.429 . S
C993 C989 1.429 . S
C993 C994 1.523 . S
C994 C978 1.368 . S
C994 C990 1.368 . S
C994 C993 1.523 . S
H995 C970 0.950 . S
H996 C972 0.950 . S
H997 C973 0.949 . S
H998 C975 0.950 . S
H999 C977 0.950 . S
C1000 C1001 1.349 . S
C1000 C1002 1.327 . S
C1000 H1025 0.950 . S
C1001 C1000 1.349 . S
C1001 C1017 1.349 . S
C1002 C1000 1.327 . S
C1002 C1021 1.429 . S
C1002 H1026 0.950 . S
C1003 C1020 1.574 . S
C1003 C1022 1.368 . S
C1003 H1027 0.949 . S
H1004 C1008 0.949 . S
C1005 C1006 1.349 . S
C1005 C1007 1.327 . S
C1005 H1028 0.950 . S
C1006 C1005 1.349 . S
C1006 C1018 1.349 . S
C1007 C1005 1.327 . S
C1007 C1023 1.429 . S
C1007 H1029 0.950 . S
C1008 H1004 0.949 . S
C1008 C1016 1.574 . S
C1008 C1024 1.368 . S
H1009 C1017 0.950 1_556 S
H1010 C1015 0.950 . S
H1011 C1016 0.949 . S
H1012 C1018 0.950 . S
H1013 C1019 0.950 . S
H1014 C1020 0.949 . S
C1015 H1010 0.950 . S
C1015 C1017 1.327 . S
C1015 C1021 1.429 . S
C1016 C1008 1.574 . S
C1016 H1011 0.949 . S
C1016 C1022 1.368 . S
C1017 C1001 1.349 . S
C1017 H1009 0.950 1_554 S
C1017 C1015 1.327 . S
C1018 C1006 1.349 . S
C1018 H1012 0.950 . S
C1018 C1019 1.327 . S
C1019 H1013 0.950 . S
C1019 C1018 1.327 . S
C1019 C1023 1.429 . S
C1020 C1003 1.574 . S
C1020 H1014 0.949 . S
C1020 C1024 1.368 . S
C1021 C1002 1.429 . S
C1021 C1015 1.429 . S
C1021 C1022 1.523 . S
C1022 C1003 1.368 . S
C1022 C1016 1.368 . S
C1022 C1021 1.523 . S
C1023 C1007 1.429 . S
C1023 C1019 1.429 . S
C1023 C1024 1.523 . S
C1024 C1008 1.368 . S
C1024 C1020 1.368 . S
C1024 C1023 1.523 . S
H1025 C1000 0.950 . S
H1026 C1002 0.950 . S
H1027 C1003 0.949 . S
H1028 C1005 0.950 . S
H1029 C1007 0.950 . S
C1030 C1031 1.349 . S
C1030 C1032 1.327 . S
C1030 H1055 0.950 . S
C1031 C1030 1.349 . S
C1031 C1047 1.349 . S
C1032 C1030 1.327 . S
C1032 C1051 1.429 . S
C1032 H1056 0.950 . S
C1033 C1050 1.574 . S
C1033 C1052 1.368 . S
C1033 H1057 0.949 . S
H1034 C1038 0.949 . S
C1035 C1036 1.349 . S
C1035 C1037 1.327 . S
C1035 H1058 0.950 . S
C1036 C1035 1.349 . S
C1036 C1048 1.349 . S
C1037 C1035 1.327 . S
C1037 C1053 1.429 . S
C1037 H1059 0.950 . S
C1038 H1034 0.949 . S
C1038 C1046 1.574 . S
C1038 C1054 1.368 . S
H1039 C1047 0.950 . S
H1040 C1045 0.950 . S
H1041 C1046 0.949 . S
H1042 C1048 0.950 . S
H1043 C1049 0.950 . S
H1044 C1050 0.949 . S
C1045 H1040 0.950 . S
C1045 C1047 1.327 . S
C1045 C1051 1.429 . S
C1046 C1038 1.574 . S
C1046 H1041 0.949 . S
C1046 C1052 1.368 . S
C1047 C1031 1.349 . S
C1047 H1039 0.950 . S
C1047 C1045 1.327 . S
C1048 C1036 1.349 . S
C1048 H1042 0.950 . S
C1048 C1049 1.327 . S
C1049 H1043 0.950 . S
C1049 C1048 1.327 . S
C1049 C1053 1.429 . S
C1050 C1033 1.574 . S
C1050 H1044 0.949 . S
C1050 C1054 1.368 . S
C1051 C1032 1.429 . S
C1051 C1045 1.429 . S
C1051 C1052 1.523 . S
C1052 C1033 1.368 . S
C1052 C1046 1.368 . S
C1052 C1051 1.523 . S
C1053 C1037 1.429 . S
C1053 C1049 1.429 . S
C1053 C1054 1.523 . S
C1054 C1038 1.368 . S
C1054 C1050 1.368 . S
C1054 C1053 1.523 . S
H1055 C1030 0.950 . S
H1056 C1032 0.950 . S
H1057 C1033 0.949 . S
H1058 C1035 0.950 . S
H1059 C1037 0.950 . S
C1060 C1061 1.349 . S
C1060 C1062 1.327 . S
C1060 H1085 0.950 . S
C1061 C1060 1.349 . S
C1061 C1077 1.349 . S
C1062 C1060 1.327 . S
C1062 C1081 1.429 . S
C1062 H1086 0.950 . S
C1063 C1080 1.574 . S
C1063 C1082 1.368 . S
C1063 H1087 0.949 . S
H1064 C1068 0.949 . S
C1065 C1066 1.349 . S
C1065 C1067 1.327 . S
C1065 H1088 0.950 . S
C1066 C1065 1.349 . S
C1066 C1078 1.349 . S
C1067 C1065 1.327 . S
C1067 C1083 1.429 . S
C1067 H1089 0.950 . S
C1068 H1064 0.949 . S
C1068 C1076 1.574 . S
C1068 C1084 1.368 . S
H1069 C1077 0.950 . S
H1070 C1075 0.950 . S
H1071 C1076 0.949 . S
H1072 C1078 0.950 . S
H1073 C1079 0.950 . S
H1074 C1080 0.949 . S
C1075 H1070 0.950 . S
C1075 C1077 1.327 . S
C1075 C1081 1.429 . S
C1076 C1068 1.574 . S
C1076 H1071 0.949 . S
C1076 C1082 1.368 . S
C1077 C1061 1.349 . S
C1077 H1069 0.950 . S
C1077 C1075 1.327 . S
C1078 C1066 1.349 . S
C1078 H1072 0.950 . S
C1078 C1079 1.327 . S
C1079 H1073 0.950 . S
C1079 C1078 1.327 . S
C1079 C1083 1.429 . S
C1080 C1063 1.574 . S
C1080 H1074 0.949 . S
C1080 C1084 1.368 . S
C1081 C1062 1.429 . S
C1081 C1075 1.429 . S
C1081 C1082 1.523 . S
C1082 C1063 1.368 . S
C1082 C1076 1.368 . S
C1082 C1081 1.523 . S
C1083 C1067 1.429 . S
C1083 C1079 1.429 . S
C1083 C1084 1.523 . S
C1084 C1068 1.368 . S
C1084 C1080 1.368 . S
C1084 C1083 1.523 . S
H1085 C1060 0.950 . S
H1086 C1062 0.950 . S
H1087 C1063 0.949 . S
H1088 C1065 0.950 . S
H1089 C1067 0.950 . S
C1090 C1091 1.349 . S
C1090 C1092 1.327 . S
C1090 H1115 0.950 . S
C1091 C1090 1.349 . S
C1091 C1107 1.349 . S
C1092 C1090 1.327 . S
C1092 C1111 1.429 . S
C1092 H1116 0.950 . S
C1093 C1110 1.574 . S
C1093 C1112 1.368 . S
C1093 H1117 0.949 . S
H1094 C1098 0.949 . S
C1095 C1096 1.349 . S
C1095 C1097 1.327 . S
C1095 H1118 0.950 . S
C1096 C1095 1.349 . S
C1096 C1108 1.349 . S
C1097 C1095 1.327 . S
C1097 C1113 1.429 . S
C1097 H1119 0.950 . S
C1098 H1094 0.949 . S
C1098 C1106 1.574 . S
C1098 C1114 1.368 . S
H1099 C1107 0.950 . S
H1100 C1105 0.950 . S
H1101 C1106 0.949 . S
H1102 C1108 0.950 . S
H1103 C1109 0.950 . S
H1104 C1110 0.949 . S
C1105 H1100 0.950 . S
C1105 C1107 1.327 . S
C1105 C1111 1.429 . S
C1106 C1098 1.574 . S
C1106 H1101 0.949 . S
C1106 C1112 1.368 . S
C1107 C1091 1.349 . S
C1107 H1099 0.950 . S
C1107 C1105 1.327 . S
C1108 C1096 1.349 . S
C1108 H1102 0.950 . S
C1108 C1109 1.327 . S
C1109 H1103 0.950 . S
C1109 C1108 1.327 . S
C1109 C1113 1.429 . S
C1110 C1093 1.574 . S
C1110 H1104 0.949 . S
C1110 C1114 1.368 . S
C1111 C1092 1.429 . S
C1111 C1105 1.429 . S
C1111 C1112 1.523 . S
C1112 C1093 1.368 . S
C1112 C1106 1.368 . S
C1112 C1111 1.523 . S
C1113 C1097 1.429 . S
C1113 C1109 1.429 . S
C1113 C1114 1.523 . S
C1114 C1098 1.368 . S
C1114 C1110 1.368 . S
C1114 C1113 1.523 . S
H1115 C1090 0.950 . S
H1116 C1092 0.950 . S
H1117 C1093 0.949 . S
H1118 C1095 0.950 . S
H1119 C1097 0.950 . S
C1120 C1121 1.349 . S
C1120 C1122 1.327 . S
C1120 H1145 0.950 . S
C1121 C1120 1.349 . S
C1121 C1137 1.349 . S
C1122 C1120 1.327 . S
C1122 C1141 1.429 . S
C1122 H1146 0.950 . S
C1123 C1140 1.574 . S
C1123 C1142 1.368 . S
C1123 H1147 0.949 . S
H1124 C1128 0.949 . S
C1125 C1126 1.349 . S
C1125 C1127 1.327 . S
C1125 H1148 0.950 . S
C1126 C1125 1.349 . S
C1126 C1138 1.349 . S
C1127 C1125 1.327 . S
C1127 C1143 1.429 . S
C1127 H1149 0.950 . S
C1128 H1124 0.949 . S
C1128 C1136 1.574 . S
C1128 C1144 1.368 . S
H1129 C1137 0.950 . S
H1130 C1135 0.950 . S
H1131 C1136 0.949 . S
H1132 C1138 0.950 . S
H1133 C1139 0.950 . S
H1134 C1140 0.949 . S
C1135 H1130 0.950 . S
C1135 C1137 1.327 . S
C1135 C1141 1.429 . S
C1136 C1128 1.574 . S
C1136 H1131 0.949 . S
C1136 C1142 1.368 . S
C1137 C1121 1.349 . S
C1137 H1129 0.950 . S
C1137 C1135 1.327 . S
C1138 C1126 1.349 . S
C1138 H1132 0.950 . S
C1138 C1139 1.327 . S
C1139 H1133 0.950 . S
C1139 C1138 1.327 . S
C1139 C1143 1.429 . S
C1140 C1123 1.574 . S
C1140 H1134 0.949 . S
C1140 C1144 1.368 . S
C1141 C1122 1.429 . S
C1141 C1135 1.429 . S
C1141 C1142 1.523 . S
C1142 C1123 1.368 . S
C1142 C1136 1.368 . S
C1142 C1141 1.523 . S
C1143 C1127 1.429 . S
C1143 C1139 1.429 . S
C1143 C1144 1.523 . S
C1144 C1128 1.368 . S
C1144 C1140 1.368 . S
C1144 C1143 1.523 . S
H1145 C1120 0.950 . S
H1146 C1122 0.950 . S
H1147 C1123 0.949 . S
H1148 C1125 0.950 . S
H1149 C1127 0.950 . S
C1150 C1151 1.349 . S
C1150 C1152 1.327 . S
C1150 H1175 0.950 . S
C1151 C1150 1.349 . S
C1151 C1167 1.349 . S
C1152 C1150 1.327 . S
C1152 C1171 1.429 . S
C1152 H1176 1.003 . S
C1153 C1170 1.574 . S
C1153 C1172 1.368 . S
C1153 H1177 0.949 1_565 S
H1154 C1158 0.949 . S
C1155 C1156 1.349 . S
C1155 C1157 1.327 . S
C1155 H1178 0.950 . S
C1156 C1155 1.349 . S
C1156 C1168 1.349 . S
C1157 C1155 1.327 . S
C1157 C1173 1.429 . S
C1157 H1179 0.950 . S
C1158 H1154 0.949 . S
C1158 C1166 1.574 . S
C1158 C1174 1.368 . S
H1159 C1167 0.950 . S
H1160 C1165 0.950 . S
H1161 C1166 0.949 . S
H1162 C1168 0.950 . S
H1163 C1169 0.950 . S
H1164 C1170 0.949 . S
C1165 H1160 0.950 . S
C1165 C1167 1.327 . S
C1165 C1171 1.429 . S
C1166 C1158 1.574 . S
C1166 H1161 0.949 . S
C1166 C1172 1.368 . S
C1167 C1151 1.349 . S
C1167 H1159 0.950 . S
C1167 C1165 1.327 . S
C1168 C1156 1.349 . S
C1168 H1162 0.950 . S
C1168 C1169 1.327 . S
C1169 H1163 0.950 . S
C1169 C1168 1.327 . S
C1169 C1173 1.429 . S
C1170 C1153 1.574 . S
C1170 H1164 0.949 . S
C1170 C1174 1.368 . S
C1171 C1152 1.429 . S
C1171 C1165 1.429 . S
C1171 C1172 1.523 1_545 S
C1172 C1153 1.368 . S
C1172 C1166 1.368 . S
C1172 C1171 1.523 1_565 S
C1173 C1157 1.429 . S
C1173 C1169 1.429 . S
C1173 C1174 1.523 . S
C1174 C1158 1.368 . S
C1174 C1170 1.368 . S
C1174 C1173 1.523 . S
H1175 C1150 0.950 . S
H1176 C1152 1.003 . S
H1177 C1153 0.949 1_545 S
H1178 C1155 0.950 . S
H1179 C1157 0.950 . S
C1180 C1181 1.349 . S
C1180 C1182 1.327 . S
C1180 H1205 0.950 . S
C1181 C1180 1.349 . S
C1181 C1197 1.349 . S
C1182 C1180 1.327 . S
C1182 C1201 1.429 . S
C1182 H1206 0.950 . S
C1183 C1200 1.574 . S
C1183 C1202 1.368 . S
C1183 H1207 0.949 . S
H1184 C1188 0.949 . S
C1185 C1186 1.349 . S
C1185 C1187 1.327 . S
C1185 H1208 0.950 . S
C1186 C1185 1.349 . S
C1186 C1198 1.349 . S
C1187 C1185 1.327 . S
C1187 C1203 1.429 . S
C1187 H1209 0.950 . S
C1188 H1184 0.949 . S
C1188 C1196 1.574 . S
C1188 C1204 1.368 . S
H1189 C1197 0.950 . S
H1190 C1195 0.950 . S
H1191 C1196 0.949 . S
H1192 C1198 0.950 . S
H1193 C1199 0.950 . S
H1194 C1200 0.949 . S
C1195 H1190 0.950 . S
C1195 C1197 1.327 . S
C1195 C1201 1.429 . S
C1196 C1188 1.574 . S
C1196 H1191 0.949 . S
C1196 C1202 1.368 . S
C1197 C1181 1.349 . S
C1197 H1189 0.950 . S
C1197 C1195 1.327 . S
C1198 C1186 1.349 . S
C1198 H1192 0.950 . S
C1198 C1199 1.327 . S
C1199 H1193 0.950 . S
C1199 C1198 1.327 . S
C1199 C1203 1.429 . S
C1200 C1183 1.574 . S
C1200 H1194 0.949 . S
C1200 C1204 1.368 . S
C1201 C1182 1.429 . S
C1201 C1195 1.429 . S
C1201 C1202 1.523 . S
C1202 C1183 1.368 . S
C1202 C1196 1.368 . S
C1202 C1201 1.523 . S
C1203 C1187 1.429 . S
C1203 C1199 1.429 . S
C1203 C1204 1.523 . S
C1204 C1188 1.368 . S
C1204 C1200 1.368 . S
C1204 C1203 1.523 . S
H1205 C1180 0.950 . S
H1206 C1182 0.950 . S
H1207 C1183 0.949 . S
H1208 C1185 0.950 . S
H1209 C1187 0.950 . S
C1210 C1211 1.349 . S
C1210 C1212 1.327 . S
C1210 H1235 0.950 . S
C1211 C1210 1.349 . S
C1211 C1227 1.349 . S
C1212 C1210 1.327 . S
C1212 C1231 1.429 . S
C1212 H1236 0.950 . S
C1213 C1230 1.574 . S
C1213 C1232 1.368 . S
C1213 H1237 0.949 1_545 S
H1214 C1218 0.949 . S
C1215 C1216 1.349 . S
C1215 C1217 1.327 . S
C1215 H1238 0.950 . S
C1216 C1215 1.349 . S
C1216 C1228 1.349 . S
C1217 C1215 1.327 . S
C1217 C1233 1.429 . S
C1217 H1239 0.950 . S
C1218 H1214 0.949 . S
C1218 C1226 1.574 . S
C1218 C1234 1.368 . S
H1219 C1227 0.950 . S
H1220 C1225 0.950 . S
H1221 C1226 0.949 . S
H1222 C1228 0.950 . S
H1223 C1229 0.950 . S
H1224 C1230 0.949 . S
C1225 H1220 0.950 . S
C1225 C1227 1.327 . S
C1225 C1231 1.429 . S
C1226 C1218 1.574 . S
C1226 H1221 0.949 . S
C1226 C1232 1.368 . S
C1227 C1211 1.349 . S
C1227 H1219 0.950 . S
C1227 C1225 1.327 . S
C1228 C1216 1.349 . S
C1228 H1222 0.950 . S
C1228 C1229 1.327 . S
C1229 H1223 0.950 . S
C1229 C1228 1.327 . S
C1229 C1233 1.429 . S
C1230 C1213 1.574 . S
C1230 H1224 0.949 . S
C1230 C1234 1.368 . S
C1231 C1212 1.429 . S
C1231 C1225 1.429 . S
C1231 C1232 1.523 1_565 S
C1232 C1213 1.368 . S
C1232 C1226 1.368 . S
C1232 C1231 1.523 1_545 S
C1233 C1217 1.429 . S
C1233 C1229 1.429 . S
C1233 C1234 1.523 . S
C1234 C1218 1.368 . S
C1234 C1230 1.368 . S
C1234 C1233 1.523 . S
H1235 C1210 0.950 . S
H1236 C1212 0.950 . S
H1237 C1213 0.949 1_565 S
H1238 C1215 0.950 . S
H1239 C1217 0.950 . S
C1240 C1241 1.349 . S
C1240 C1242 1.327 . S
C1240 H1265 0.950 . S
C1241 C1240 1.349 . S
C1241 C1257 1.349 . S
C1242 C1240 1.327 . S
C1242 C1261 1.429 . S
C1242 H1266 0.950 . S
C1243 C1260 1.574 . S
C1243 C1262 1.368 . S
C1243 H1267 0.949 . S
H1244 C1248 0.949 . S
C1245 C1246 1.349 . S
C1245 C1247 1.327 . S
C1245 H1268 0.950 . S
C1246 C1245 1.349 . S
C1246 C1258 1.349 . S
C1247 C1245 1.327 . S
C1247 C1263 1.429 . S
C1247 H1269 0.950 . S
C1248 H1244 0.949 . S
C1248 C1256 1.574 . S
C1248 C1264 1.368 . S
H1249 C1257 0.950 . S
H1250 C1255 0.950 . S
H1251 C1256 0.949 . S
H1252 C1258 0.950 . S
H1253 C1259 0.950 . S
H1254 C1260 0.949 . S
C1255 H1250 0.950 . S
C1255 C1257 1.327 . S
C1255 C1261 1.429 . S
C1256 C1248 1.574 . S
C1256 H1251 0.949 . S
C1256 C1262 1.368 . S
C1257 C1241 1.349 . S
C1257 H1249 0.950 . S
C1257 C1255 1.327 . S
C1258 C1246 1.349 . S
C1258 H1252 0.950 . S
C1258 C1259 1.327 . S
C1259 H1253 0.950 . S
C1259 C1258 1.327 . S
C1259 C1263 1.429 . S
C1260 C1243 1.574 . S
C1260 H1254 0.949 . S
C1260 C1264 1.368 . S
C1261 C1242 1.429 . S
C1261 C1255 1.429 . S
C1261 C1262 1.523 . S
C1262 C1243 1.368 . S
C1262 C1256 1.368 . S
C1262 C1261 1.523 . S
C1263 C1247 1.429 . S
C1263 C1259 1.429 . S
C1263 C1264 1.523 . S
C1264 C1248 1.368 . S
C1264 C1260 1.368 . S
C1264 C1263 1.523 . S
H1265 C1240 0.950 . S
H1266 C1242 0.950 . S
H1267 C1243 0.949 . S
H1268 C1245 0.950 . S
H1269 C1247 0.950 . S
C1270 C1271 1.349 . S
C1270 C1272 1.327 . S
C1270 H1295 0.950 . S
C1271 C1270 1.349 . S
C1271 C1287 1.349 . S
C1272 C1270 1.327 . S
C1272 C1291 1.429 . S
C1272 H1296 0.950 . S
C1273 C1290 1.574 . S
C1273 C1292 1.368 . S
C1273 H1297 0.949 . S
H1274 C1278 0.949 . S
C1275 C1276 1.349 . S
C1275 C1277 1.327 . S
C1275 H1298 0.950 . S
C1276 C1275 1.349 . S
C1276 C1288 1.349 . S
C1277 C1275 1.327 . S
C1277 C1293 1.429 . S
C1277 H1299 0.950 . S
C1278 H1274 0.949 . S
C1278 C1286 1.574 . S
C1278 C1294 1.368 . S
H1279 C1287 0.950 . S
H1280 C1285 0.950 . S
H1281 C1286 0.949 . S
H1282 C1288 0.950 . S
H1283 C1289 0.950 . S
H1284 C1290 0.949 1_565 S
C1285 H1280 0.950 . S
C1285 C1287 1.327 . S
C1285 C1291 1.429 . S
C1286 C1278 1.574 . S
C1286 H1281 0.949 . S
C1286 C1292 1.368 . S
C1287 C1271 1.349 . S
C1287 H1279 0.950 . S
C1287 C1285 1.327 . S
C1288 C1276 1.349 . S
C1288 H1282 0.950 . S
C1288 C1289 1.327 . S
C1289 H1283 0.950 . S
C1289 C1288 1.327 . S
C1289 C1293 1.429 . S
C1290 C1273 1.574 . S
C1290 H1284 0.949 1_545 S
C1290 C1294 1.368 . S
C1291 C1272 1.429 . S
C1291 C1285 1.429 . S
C1291 C1292 1.523 . S
C1292 C1273 1.368 . S
C1292 C1286 1.368 . S
C1292 C1291 1.523 . S
C1293 C1277 1.429 . S
C1293 C1289 1.429 . S
C1293 C1294 1.523 1_565 S
C1294 C1278 1.368 . S
C1294 C1290 1.368 . S
C1294 C1293 1.523 1_545 S
H1295 C1270 0.950 . S
H1296 C1272 0.950 . S
H1297 C1273 0.949 . S
H1298 C1275 0.950 . S
H1299 C1277 0.950 . S
C1300 C1301 1.349 . S
C1300 C1302 1.327 . S
C1300 H1325 0.950 . S
C1301 C1300 1.349 . S
C1301 C1317 1.349 . S
C1302 C1300 1.327 . S
C1302 C1321 1.429 . S
C1302 H1326 0.950 . S
C1303 C1320 1.574 . S
C1303 C1322 1.368 . S
C1303 H1327 0.949 . S
H1304 C1308 0.949 . S
C1305 C1306 1.349 . S
C1305 C1307 1.327 . S
C1305 H1328 0.950 1_554 S
C1306 C1305 1.349 . S
C1306 C1318 1.349 . S
C1307 C1305 1.327 . S
C1307 C1323 1.429 . S
C1307 H1329 0.950 . S
C1308 H1304 0.949 . S
C1308 C1316 1.574 . S
C1308 C1324 1.368 . S
H1309 C1317 0.950 . S
H1310 C1315 0.950 . S
H1311 C1316 0.949 . S
H1312 C1318 0.950 . S
H1313 C1319 0.950 . S
H1314 C1320 0.949 . S
C1315 H1310 0.950 . S
C1315 C1317 1.327 . S
C1315 C1321 1.429 . S
C1316 C1308 1.574 . S
C1316 H1311 0.949 . S
C1316 C1322 1.368 . S
C1317 C1301 1.349 . S
C1317 H1309 0.950 . S
C1317 C1315 1.327 . S
C1318 C1306 1.349 . S
C1318 H1312 0.950 . S
C1318 C1319 1.327 . S
C1319 H1313 0.950 . S
C1319 C1318 1.327 . S
C1319 C1323 1.429 . S
C1320 C1303 1.574 . S
C1320 H1314 0.949 . S
C1320 C1324 1.368 . S
C1321 C1302 1.429 . S
C1321 C1315 1.429 . S
C1321 C1322 1.523 . S
C1322 C1303 1.368 . S
C1322 C1316 1.368 . S
C1322 C1321 1.523 . S
C1323 C1307 1.429 . S
C1323 C1319 1.429 . S
C1323 C1324 1.523 . S
C1324 C1308 1.368 . S
C1324 C1320 1.368 . S
C1324 C1323 1.523 . S
H1325 C1300 0.950 . S
H1326 C1302 0.950 . S
H1327 C1303 0.949 . S
H1328 C1305 0.950 1_556 S
H1329 C1307 0.950 . S
C1330 C1331 1.349 . S
C1330 C1332 1.327 . S
C1330 H1355 0.950 . S
C1331 C1330 1.349 . S
C1331 C1347 1.349 . S
C1332 C1330 1.327 . S
C1332 C1351 1.429 . S
C1332 H1356 0.950 . S
C1333 C1350 1.574 . S
C1333 C1352 1.368 . S
C1333 H1357 0.949 1_565 S
H1334 C1338 0.949 . S
C1335 C1336 1.349 . S
C1335 C1337 1.327 . S
C1335 H1358 0.950 . S
C1336 C1335 1.349 . S
C1336 C1348 1.349 . S
C1337 C1335 1.327 . S
C1337 C1353 1.429 . S
C1337 H1359 0.950 . S
C1338 H1334 0.949 . S
C1338 C1346 1.574 . S
C1338 C1354 1.368 . S
H1339 C1347 0.950 . S
H1340 C1345 0.950 . S
H1341 C1346 0.949 . S
H1342 C1348 0.950 . S
H1343 C1349 0.950 . S
H1344 C1350 0.949 . S
C1345 H1340 0.950 . S
C1345 C1347 1.327 . S
C1345 C1351 1.429 . S
C1346 C1338 1.574 . S
C1346 H1341 0.949 . S
C1346 C1352 1.368 . S
C1347 C1331 1.349 . S
C1347 H1339 0.950 . S
C1347 C1345 1.327 . S
C1348 C1336 1.349 . S
C1348 H1342 0.950 . S
C1348 C1349 1.327 . S
C1349 H1343 0.950 . S
C1349 C1348 1.327 . S
C1349 C1353 1.429 . S
C1350 C1333 1.574 . S
C1350 H1344 0.949 . S
C1350 C1354 1.368 . S
C1351 C1332 1.429 . S
C1351 C1345 1.429 . S
C1351 C1352 1.523 1_545 S
C1352 C1333 1.368 . S
C1352 C1346 1.368 . S
C1352 C1351 1.523 1_565 S
C1353 C1337 1.429 . S
C1353 C1349 1.429 . S
C1353 C1354 1.523 . S
C1354 C1338 1.368 . S
C1354 C1350 1.368 . S
C1354 C1353 1.523 . S
H1355 C1330 0.950 . S
H1356 C1332 0.950 . S
H1357 C1333 0.949 1_545 S
H1358 C1335 0.950 . S
H1359 C1337 0.950 . S
C1360 C1361 1.349 . S
C1360 C1362 1.327 . S
C1360 H1385 0.950 . S
C1361 C1360 1.349 . S
C1361 C1377 1.349 . S
C1362 C1360 1.327 . S
C1362 C1381 1.429 . S
C1362 H1386 0.950 . S
C1363 C1380 1.574 . S
C1363 C1382 1.368 . S
C1363 H1387 0.949 . S
H1364 C1368 0.949 . S
C1365 C1366 1.349 . S
C1365 C1367 1.327 . S
C1365 H1388 0.950 . S
C1366 C1365 1.349 . S
C1366 C1378 1.349 . S
C1367 C1365 1.327 . S
C1367 C1383 1.429 . S
C1367 H1389 0.950 . S
C1368 H1364 0.949 . S
C1368 C1376 1.574 . S
C1368 C1384 1.368 . S
H1369 C1377 0.950 . S
H1370 C1375 0.950 . S
H1371 C1376 0.949 . S
H1372 C1378 0.950 . S
H1373 C1379 0.950 . S
H1374 C1380 0.949 . S
C1375 H1370 0.950 . S
C1375 C1377 1.327 . S
C1375 C1381 1.429 . S
C1376 C1368 1.574 . S
C1376 H1371 0.949 . S
C1376 C1382 1.368 . S
C1377 C1361 1.349 . S
C1377 H1369 0.950 . S
C1377 C1375 1.327 . S
C1378 C1366 1.349 . S
C1378 H1372 0.950 . S
C1378 C1379 1.327 . S
C1379 H1373 0.950 . S
C1379 C1378 1.327 . S
C1379 C1383 1.429 . S
C1380 C1363 1.574 . S
C1380 H1374 0.949 . S
C1380 C1384 1.368 . S
C1381 C1362 1.429 . S
C1381 C1375 1.429 . S
C1381 C1382 1.523 . S
C1382 C1363 1.368 . S
C1382 C1376 1.368 . S
C1382 C1381 1.523 . S
C1383 C1367 1.429 . S
C1383 C1379 1.429 . S
C1383 C1384 1.523 . S
C1384 C1368 1.368 . S
C1384 C1380 1.368 . S
C1384 C1383 1.523 . S
H1385 C1360 0.950 . S
H1386 C1362 0.950 . S
H1387 C1363 0.949 . S
H1388 C1365 0.950 . S
H1389 C1367 0.950 . S
C1390 C1391 1.349 . S
C1390 C1392 1.327 . S
C1390 H1415 0.950 . S
C1391 C1390 1.349 . S
C1391 C1407 1.349 . S
C1392 C1390 1.327 . S
C1392 C1411 1.429 . S
C1392 H1416 0.950 . S
C1393 C1410 1.574 . S
C1393 C1412 1.368 . S
C1393 H1417 0.949 . S
H1394 C1398 0.949 . S
C1395 C1396 1.349 1_554 S
C1395 C1397 1.327 . S
C1395 H1418 0.950 . S
C1396 C1395 1.349 1_556 S
C1396 C1408 1.349 . S
C1397 C1395 1.327 . S
C1397 C1413 1.429 . S
C1397 H1419 0.950 . S
C1398 H1394 0.949 . S
C1398 C1406 1.574 . S
C1398 C1414 1.368 . S
H1399 C1407 0.950 . S
H1400 C1405 0.950 . S
H1401 C1406 0.949 . S
H1402 C1408 0.950 . S
H1403 C1409 0.950 . S
H1404 C1410 0.949 . S
C1405 H1400 0.950 . S
C1405 C1407 1.327 . S
C1405 C1411 1.429 . S
C1406 C1398 1.574 . S
C1406 H1401 0.949 . S
C1406 C1412 1.368 . S
C1407 C1391 1.349 . S
C1407 H1399 0.950 . S
C1407 C1405 1.327 . S
C1408 C1396 1.349 . S
C1408 H1402 0.950 . S
C1408 C1409 1.327 1_556 S
C1409 H1403 0.950 . S
C1409 C1408 1.327 1_554 S
C1409 C1413 1.429 . S
C1410 C1393 1.574 . S
C1410 H1404 0.949 . S
C1410 C1414 1.368 . S
C1411 C1392 1.429 . S
C1411 C1405 1.429 . S
C1411 C1412 1.523 . S
C1412 C1393 1.368 . S
C1412 C1406 1.368 . S
C1412 C1411 1.523 . S
C1413 C1397 1.429 . S
C1413 C1409 1.429 . S
C1413 C1414 1.523 . S
C1414 C1398 1.368 . S
C1414 C1410 1.368 . S
C1414 C1413 1.523 . S
H1415 C1390 0.950 . S
H1416 C1392 0.950 . S
H1417 C1393 0.949 . S
H1418 C1395 0.950 . S
H1419 C1397 0.950 . S
C1420 C1421 1.349 . S
C1420 C1422 1.327 . S
C1420 H1445 0.950 . S
C1421 C1420 1.349 . S
C1421 C1437 1.349 . S
C1422 C1420 1.327 . S
C1422 C1441 1.429 . S
C1422 H1446 0.950 . S
C1423 C1440 1.574 1_655 S
C1423 C1442 1.368 . S
C1423 H1447 0.949 . S
H1424 C1428 0.949 . S
C1425 C1426 1.349 . S
C1425 C1427 1.327 . S
C1425 H1448 0.950 . S
C1426 C1425 1.349 . S
C1426 C1438 1.349 . S
C1427 C1425 1.327 . S
C1427 C1443 1.429 . S
C1427 H1449 0.950 . S
C1428 H1424 0.949 . S
C1428 C1436 1.574 . S
C1428 C1444 1.368 . S
H1429 C1437 0.950 . S
H1430 C1435 0.950 . S
H1431 C1436 0.949 . S
H1432 C1438 0.950 . S
H1433 C1439 0.950 . S
H1434 C1440 0.949 . S
C1435 H1430 0.950 . S
C1435 C1437 1.327 . S
C1435 C1441 1.429 . S
C1436 C1428 1.574 . S
C1436 H1431 0.949 . S
C1436 C1442 1.368 . S
C1437 C1421 1.349 . S
C1437 H1429 0.950 . S
C1437 C1435 1.327 . S
C1438 C1426 1.349 . S
C1438 H1432 0.950 . S
C1438 C1439 1.327 . S
C1439 H1433 0.950 . S
C1439 C1438 1.327 . S
C1439 C1443 1.429 . S
C1440 C1423 1.574 1_455 S
C1440 H1434 0.949 . S
C1440 C1444 1.368 1_455 S
C1441 C1422 1.429 . S
C1441 C1435 1.429 . S
C1441 C1442 1.523 . S
C1442 C1423 1.368 . S
C1442 C1436 1.368 . S
C1442 C1441 1.523 . S
C1443 C1427 1.429 . S
C1443 C1439 1.429 . S
C1443 C1444 1.523 1_455 S
C1444 C1428 1.368 . S
C1444 C1440 1.368 1_655 S
C1444 C1443 1.523 1_655 S
H1445 C1420 0.950 . S
H1446 C1422 0.950 . S
H1447 C1423 0.949 . S
H1448 C1425 0.950 . S
H1449 C1427 0.950 . S
C1450 C1451 1.349 . S
C1450 C1452 1.327 . S
C1450 H1475 0.950 . S
C1451 C1450 1.349 . S
C1451 C1467 1.349 . S
C1452 C1450 1.327 . S
C1452 C1471 1.429 . S
C1452 H1476 0.950 . S
C1453 C1470 1.574 . S
C1453 C1472 1.368 . S
C1453 H1477 0.949 . S
H1454 C1458 0.949 . S
C1455 C1456 1.349 . S
C1455 C1457 1.327 . S
C1455 H1478 0.950 . S
C1456 C1455 1.349 . S
C1456 C1468 1.349 . S
C1457 C1455 1.327 . S
C1457 C1473 1.429 . S
C1457 H1479 0.950 . S
C1458 H1454 0.949 . S
C1458 C1466 1.574 . S
C1458 C1474 1.368 . S
H1459 C1467 0.950 . S
H1460 C1465 0.950 . S
H1461 C1466 0.949 . S
H1462 C1468 0.950 . S
H1463 C1469 0.950 . S
H1464 C1470 0.949 . S
C1465 H1460 0.950 . S
C1465 C1467 1.327 . S
C1465 C1471 1.429 . S
C1466 C1458 1.574 . S
C1466 H1461 0.949 . S
C1466 C1472 1.368 . S
C1467 C1451 1.349 . S
C1467 H1459 0.950 . S
C1467 C1465 1.327 . S
C1468 C1456 1.349 . S
C1468 H1462 0.950 . S
C1468 C1469 1.327 . S
C1469 H1463 0.950 . S
C1469 C1468 1.327 . S
C1469 C1473 1.429 . S
C1470 C1453 1.574 . S
C1470 H1464 0.949 . S
C1470 C1474 1.368 . S
C1471 C1452 1.429 . S
C1471 C1465 1.429 . S
C1471 C1472 1.523 . S
C1472 C1453 1.368 . S
C1472 C1466 1.368 . S
C1472 C1471 1.523 . S
C1473 C1457 1.429 . S
C1473 C1469 1.429 . S
C1473 C1474 1.523 . S
C1474 C1458 1.368 . S
C1474 C1470 1.368 . S
C1474 C1473 1.523 . S
H1475 C1450 0.950 . S
H1476 C1452 0.950 . S
H1477 C1453 0.949 . S
H1478 C1455 0.950 . S
H1479 C1457 0.950 . S
C1480 C1481 1.349 . S
C1480 C1482 1.327 . S
C1480 H1505 0.950 . S
C1481 C1480 1.349 . S
C1481 C1497 1.349 . S
C1482 C1480 1.327 . S
C1482 C1501 1.429 . S
C1482 H1506 0.950 . S
C1483 C1500 1.574 . S
C1483 C1502 1.368 . S
C1483 H1507 0.949 . S
H1484 C1488 0.949 . S
C1485 C1486 1.349 . S
C1485 C1487 1.327 . S
C1485 H1508 0.950 . S
C1486 C1485 1.349 . S
C1486 C1498 1.349 . S
C1487 C1485 1.327 . S
C1487 C1503 1.429 . S
C1487 H1509 0.950 . S
C1488 H1484 0.949 . S
C1488 C1496 1.574 . S
C1488 C1504 1.368 . S
H1489 C1497 0.950 . S
H1490 C1495 0.950 . S
H1491 C1496 0.949 . S
H1492 C1498 0.950 . S
H1493 C1499 0.950 . S
H1494 C1500 0.949 . S
C1495 H1490 0.950 . S
C1495 C1497 1.327 . S
C1495 C1501 1.429 . S
C1496 C1488 1.574 . S
C1496 H1491 0.949 . S
C1496 C1502 1.368 . S
C1497 C1481 1.349 . S
C1497 H1489 0.950 . S
C1497 C1495 1.327 . S
C1498 C1486 1.349 . S
C1498 H1492 0.950 . S
C1498 C1499 1.327 . S
C1499 H1493 0.950 . S
C1499 C1498 1.327 . S
C1499 C1503 1.429 . S
C1500 C1483 1.574 . S
C1500 H1494 0.949 . S
C1500 C1504 1.368 . S
C1501 C1482 1.429 . S
C1501 C1495 1.429 . S
C1501 C1502 1.523 . S
C1502 C1483 1.368 . S
C1502 C1496 1.368 . S
C1502 C1501 1.523 . S
C1503 C1487 1.429 . S
C1503 C1499 1.429 . S
C1503 C1504 1.523 . S
C1504 C1488 1.368 . S
C1504 C1500 1.368 . S
C1504 C1503 1.523 . S
H1505 C1480 0.950 . S
H1506 C1482 0.950 . S
H1507 C1483 0.949 . S
H1508 C1485 0.950 . S
H1509 C1487 0.950 . S
C1510 C1511 1.349 . S
C1510 C1512 1.327 . S
C1510 H1535 0.950 . S
C1511 C1510 1.349 . S
C1511 C1527 1.349 . S
C1512 C1510 1.327 . S
C1512 C1531 1.429 . S
C1512 H1536 0.950 . S
C1513 C1530 1.574 . S
C1513 C1532 1.368 . S
C1513 H1537 0.949 . S
H1514 C1518 0.949 . S
C1515 C1516 1.349 1_556 S
C1515 C1517 1.327 . S
C1515 H1538 0.950 . S
C1516 C1515 1.349 1_554 S
C1516 C1528 1.349 . S
C1517 C1515 1.327 . S
C1517 C1533 1.429 . S
C1517 H1539 0.950 . S
C1518 H1514 0.949 . S
C1518 C1526 1.574 . S
C1518 C1534 1.368 . S
H1519 C1527 0.950 . S
H1520 C1525 0.950 . S
H1521 C1526 0.949 . S
H1522 C1528 0.950 . S
H1523 C1529 0.950 . S
H1524 C1530 0.949 . S
C1525 H1520 0.950 . S
C1525 C1527 1.327 . S
C1525 C1531 1.429 . S
C1526 C1518 1.574 . S
C1526 H1521 0.949 . S
C1526 C1532 1.368 . S
C1527 C1511 1.349 . S
C1527 H1519 0.950 . S
C1527 C1525 1.327 . S
C1528 C1516 1.349 . S
C1528 H1522 0.950 . S
C1528 C1529 1.327 1_554 S
C1529 H1523 0.950 . S
C1529 C1528 1.327 1_556 S
C1529 C1533 1.429 . S
C1530 C1513 1.574 . S
C1530 H1524 0.949 . S
C1530 C1534 1.368 . S
C1531 C1512 1.429 . S
C1531 C1525 1.429 . S
C1531 C1532 1.523 . S
C1532 C1513 1.368 . S
C1532 C1526 1.368 . S
C1532 C1531 1.523 . S
C1533 C1517 1.429 . S
C1533 C1529 1.429 . S
C1533 C1534 1.523 . S
C1534 C1518 1.368 . S
C1534 C1530 1.368 . S
C1534 C1533 1.523 . S
H1535 C1510 0.950 . S
H1536 C1512 0.950 . S
H1537 C1513 0.949 . S
H1538 C1515 0.950 . S
H1539 C1517 0.950 . S
C1540 C1541 1.349 . S
C1540 C1542 1.327 . S
C1540 H1565 0.950 . S
C1541 C1540 1.349 . S
C1541 C1557 1.349 . S
C1542 C1540 1.327 . S
C1542 C1561 1.429 . S
C1542 H1566 0.950 . S
C1543 C1560 1.574 1_455 S
C1543 C1562 1.368 . S
C1543 H1567 0.949 . S
H1544 C1548 0.949 . S
C1545 C1546 1.349 . S
C1545 C1547 1.327 . S
C1545 H1568 0.950 . S
C1546 C1545 1.349 . S
C1546 C1558 1.349 . S
C1547 C1545 1.327 . S
C1547 C1563 1.429 . S
C1547 H1569 0.950 . S
C1548 H1544 0.949 . S
C1548 C1556 1.574 . S
C1548 C1564 1.368 . S
H1549 C1557 0.950 . S
H1550 C1555 0.950 . S
H1551 C1556 0.949 . S
H1552 C1558 0.950 . S
H1553 C1559 0.984 . S
H1554 C1560 0.949 . S
C1555 H1550 0.950 . S
C1555 C1557 1.327 . S
C1555 C1561 1.429 . S
C1556 C1548 1.574 . S
C1556 H1551 0.949 . S
C1556 C1562 1.368 . S
C1557 C1541 1.349 . S
C1557 H1549 0.950 . S
C1557 C1555 1.327 . S
C1558 C1546 1.349 . S
C1558 H1552 0.950 . S
C1558 C1559 1.327 . S
C1559 H1553 0.984 . S
C1559 C1558 1.327 . S
C1559 C1563 1.429 . S
C1560 C1543 1.574 1_655 S
C1560 H1554 0.949 . S
C1560 C1564 1.368 1_655 S
C1561 C1542 1.429 . S
C1561 C1555 1.429 . S
C1561 C1562 1.523 . S
C1562 C1543 1.368 . S
C1562 C1556 1.368 . S
C1562 C1561 1.523 . S
C1563 C1547 1.429 . S
C1563 C1559 1.429 . S
C1563 C1564 1.523 1_655 S
C1564 C1548 1.368 . S
C1564 C1560 1.368 1_455 S
C1564 C1563 1.523 1_455 S
H1565 C1540 0.950 . S
H1566 C1542 0.950 . S
H1567 C1543 0.949 . S
H1568 C1545 0.950 . S
H1569 C1547 0.950 . S
C1570 C1571 1.349 . S
C1570 C1572 1.327 . S
C1570 H1595 0.950 . S
C1571 C1570 1.349 . S
C1571 C1587 1.349 . S
C1572 C1570 1.327 . S
C1572 C1591 1.429 . S
C1572 H1596 0.950 . S
C1573 C1590 1.574 . S
C1573 C1592 1.368 . S
C1573 H1597 0.949 . S
H1574 C1578 0.949 . S
C1575 C1576 1.349 . S
C1575 C1577 1.327 . S
C1575 H1598 0.950 . S
C1576 C1575 1.349 . S
C1576 C1588 1.349 . S
C1577 C1575 1.327 . S
C1577 C1593 1.429 . S
C1577 H1599 0.950 . S
C1578 H1574 0.949 . S
C1578 C1586 1.574 . S
C1578 C1594 1.368 . S
H1579 C1587 0.950 . S
H1580 C1585 0.950 . S
H1581 C1586 0.949 . S
H1582 C1588 0.950 . S
H1583 C1589 0.950 . S
H1584 C1590 0.949 . S
C1585 H1580 0.950 . S
C1585 C1587 1.327 . S
C1585 C1591 1.429 . S
C1586 C1578 1.574 . S
C1586 H1581 0.949 . S
C1586 C1592 1.368 . S
C1587 C1571 1.349 . S
C1587 H1579 0.950 . S
C1587 C1585 1.327 . S
C1588 C1576 1.349 . S
C1588 H1582 0.950 . S
C1588 C1589 1.327 . S
C1589 H1583 0.950 . S
C1589 C1588 1.327 . S
C1589 C1593 1.429 . S
C1590 C1573 1.574 . S
C1590 H1584 0.949 . S
C1590 C1594 1.368 . S
C1591 C1572 1.429 . S
C1591 C1585 1.429 . S
C1591 C1592 1.523 . S
C1592 C1573 1.368 . S
C1592 C1586 1.368 . S
C1592 C1591 1.523 . S
C1593 C1577 1.429 . S
C1593 C1589 1.429 . S
C1593 C1594 1.523 . S
C1594 C1578 1.368 . S
C1594 C1590 1.368 . S
C1594 C1593 1.523 . S
H1595 C1570 0.950 . S
H1596 C1572 0.950 . S
H1597 C1573 0.949 . S
H1598 C1575 0.950 . S
H1599 C1577 0.950 . S
C1600 C1601 1.349 . S
C1600 C1602 1.327 . S
C1600 H1625 0.950 . S
C1601 C1600 1.349 . S
C1601 C1617 1.349 . S
C1602 C1600 1.327 . S
C1602 C1621 1.429 . S
C1602 H1626 0.950 . S
C1603 C1620 1.574 . S
C1603 C1622 1.368 . S
C1603 H1627 0.949 . S
H1604 C1608 0.949 . S
C1605 C1606 1.349 . S
C1605 C1607 1.327 . S
C1605 H1628 0.950 . S
C1606 C1605 1.349 . S
C1606 C1618 1.349 . S
C1607 C1605 1.327 . S
C1607 C1623 1.429 . S
C1607 H1629 0.950 . S
C1608 H1604 0.949 . S
C1608 C1616 1.574 1_455 S
C1608 C1624 1.368 . S
H1609 C1617 0.950 . S
H1610 C1615 0.950 . S
H1611 C1616 0.949 . S
H1612 C1618 0.950 . S
H1613 C1619 0.950 . S
H1614 C1620 0.949 . S
C1615 H1610 0.950 . S
C1615 C1617 1.327 . S
C1615 C1621 1.429 . S
C1616 C1608 1.574 1_655 S
C1616 H1611 0.949 . S
C1616 C1622 1.368 1_655 S
C1617 C1601 1.349 . S
C1617 H1609 0.950 . S
C1617 C1615 1.327 . S
C1618 C1606 1.349 . S
C1618 H1612 0.950 . S
C1618 C1619 1.327 . S
C1619 H1613 0.950 . S
C1619 C1618 1.327 . S
C1619 C1623 1.429 . S
C1620 C1603 1.574 . S
C1620 H1614 0.949 . S
C1620 C1624 1.368 . S
C1621 C1602 1.429 . S
C1621 C1615 1.429 . S
C1621 C1622 1.523 1_655 S
C1622 C1603 1.368 . S
C1622 C1616 1.368 1_455 S
C1622 C1621 1.523 1_455 S
C1623 C1607 1.429 . S
C1623 C1619 1.429 . S
C1623 C1624 1.523 . S
C1624 C1608 1.368 . S
C1624 C1620 1.368 . S
C1624 C1623 1.523 . S
H1625 C1600 0.950 . S
H1626 C1602 0.950 . S
H1627 C1603 0.949 . S
H1628 C1605 0.950 . S
H1629 C1607 0.950 . S
C1630 C1631 1.349 . S
C1630 C1632 1.327 . S
C1630 H1655 0.950 . S
C1631 C1630 1.349 . S
C1631 C1647 1.349 . S
C1632 C1630 1.327 . S
C1632 C1651 1.429 . S
C1632 H1656 0.950 . S
C1633 C1650 1.574 . S
C1633 C1652 1.368 . S
C1633 H1657 0.949 . S
H1634 C1638 0.949 . S
C1635 C1636 1.349 . S
C1635 C1637 1.327 . S
C1635 H1658 0.950 . S
C1636 C1635 1.349 . S
C1636 C1648 1.349 . S
C1637 C1635 1.327 . S
C1637 C1653 1.429 . S
C1637 H1659 0.950 . S
C1638 H1634 0.949 . S
C1638 C1646 1.574 . S
C1638 C1654 1.368 . S
H1639 C1647 0.950 . S
H1640 C1645 0.950 . S
H1641 C1646 0.949 . S
H1642 C1648 0.950 . S
H1643 C1649 0.950 . S
H1644 C1650 0.949 . S
C1645 H1640 0.950 . S
C1645 C1647 1.327 . S
C1645 C1651 1.429 . S
C1646 C1638 1.574 . S
C1646 H1641 0.949 . S
C1646 C1652 1.368 . S
C1647 C1631 1.349 . S
C1647 H1639 0.950 . S
C1647 C1645 1.327 . S
C1648 C1636 1.349 . S
C1648 H1642 0.950 . S
C1648 C1649 1.327 . S
C1649 H1643 0.950 . S
C1649 C1648 1.327 . S
C1649 C1653 1.429 . S
C1650 C1633 1.574 . S
C1650 H1644 0.949 . S
C1650 C1654 1.368 . S
C1651 C1632 1.429 . S
C1651 C1645 1.429 . S
C1651 C1652 1.523 . S
C1652 C1633 1.368 . S
C1652 C1646 1.368 . S
C1652 C1651 1.523 . S
C1653 C1637 1.429 . S
C1653 C1649 1.429 . S
C1653 C1654 1.523 . S
C1654 C1638 1.368 . S
C1654 C1650 1.368 . S
C1654 C1653 1.523 . S
H1655 C1630 0.950 . S
H1656 C1632 0.950 . S
H1657 C1633 0.949 . S
H1658 C1635 0.950 . S
H1659 C1637 0.950 . S
C1660 C1661 1.349 . S
C1660 C1662 1.327 . S
C1660 H1685 0.950 . S
C1661 C1660 1.349 . S
C1661 C1677 1.349 . S
C1662 C1660 1.327 . S
C1662 C1681 1.429 . S
C1662 H1686 0.950 . S
C1663 C1680 1.574 . S
C1663 C1682 1.368 . S
C1663 H1687 0.949 . S
H1664 C1668 0.949 . S
C1665 C1666 1.349 . S
C1665 C1667 1.327 . S
C1665 H1688 0.950 . S
C1666 C1665 1.349 . S
C1666 C1678 1.349 . S
C1667 C1665 1.327 . S
C1667 C1683 1.429 . S
C1667 H1689 0.950 . S
C1668 H1664 0.949 . S
C1668 C1676 1.574 . S
C1668 C1684 1.368 . S
H1669 C1677 0.950 . S
H1670 C1675 0.950 . S
H1671 C1676 0.949 . S
H1672 C1678 0.950 . S
H1673 C1679 0.950 . S
H1674 C1680 0.949 . S
C1675 H1670 0.950 . S
C1675 C1677 1.327 . S
C1675 C1681 1.429 . S
C1676 C1668 1.574 . S
C1676 H1671 0.949 . S
C1676 C1682 1.368 . S
C1677 C1661 1.349 . S
C1677 H1669 0.950 . S
C1677 C1675 1.327 . S
C1678 C1666 1.349 . S
C1678 H1672 0.950 . S
C1678 C1679 1.327 . S
C1679 H1673 0.950 . S
C1679 C1678 1.327 . S
C1679 C1683 1.429 . S
C1680 C1663 1.574 . S
C1680 H1674 0.949 . S
C1680 C1684 1.368 . S
C1681 C1662 1.429 . S
C1681 C1675 1.429 . S
C1681 C1682 1.523 . S
C1682 C1663 1.368 . S
C1682 C1676 1.368 . S
C1682 C1681 1.523 . S
C1683 C1667 1.429 . S
C1683 C1679 1.429 . S
C1683 C1684 1.523 . S
C1684 C1668 1.368 . S
C1684 C1680 1.368 . S
C1684 C1683 1.523 . S
H1685 C1660 0.950 . S
H1686 C1662 0.950 . S
H1687 C1663 0.949 . S
H1688 C1665 0.950 . S
H1689 C1667 0.950 . S
C1690 C1691 1.349 . S
C1690 C1692 1.327 1_556 S
C1690 H1715 0.950 . S
C1691 C1690 1.349 . S
C1691 C1707 1.349 1_556 S
C1692 C1690 1.327 1_554 S
C1692 C1711 1.429 . S
C1692 H1716 0.950 . S
C1693 C1710 1.574 . S
C1693 C1712 1.368 . S
C1693 H1717 0.949 . S
H1694 C1698 0.949 . S
C1695 C1696 1.349 . S
C1695 C1697 1.327 . S
C1695 H1718 0.950 . S
C1696 C1695 1.349 . S
C1696 C1708 1.349 . S
C1697 C1695 1.327 . S
C1697 C1713 1.429 . S
C1697 H1719 0.950 . S
C1698 H1694 0.949 . S
C1698 C1706 1.574 . S
C1698 C1714 1.368 . S
H1699 C1707 0.950 . S
H1700 C1705 0.950 . S
H1701 C1706 0.949 . S
H1702 C1708 0.950 . S
H1703 C1709 0.950 . S
H1704 C1710 0.949 . S
C1705 H1700 0.950 . S
C1705 C1707 1.327 . S
C1705 C1711 1.429 . S
C1706 C1698 1.574 . S
C1706 H1701 0.949 . S
C1706 C1712 1.368 . S
C1707 C1691 1.349 1_554 S
C1707 H1699 0.950 . S
C1707 C1705 1.327 . S
C1708 C1696 1.349 . S
C1708 H1702 0.950 . S
C1708 C1709 1.327 . S
C1709 H1703 0.950 . S
C1709 C1708 1.327 . S
C1709 C1713 1.429 . S
C1710 C1693 1.574 . S
C1710 H1704 0.949 . S
C1710 C1714 1.368 . S
C1711 C1692 1.429 . S
C1711 C1705 1.429 . S
C1711 C1712 1.523 . S
C1712 C1693 1.368 . S
C1712 C1706 1.368 . S
C1712 C1711 1.523 . S
C1713 C1697 1.429 . S
C1713 C1709 1.429 . S
C1713 C1714 1.523 . S
C1714 C1698 1.368 . S
C1714 C1710 1.368 . S
C1714 C1713 1.523 . S
H1715 C1690 0.950 . S
H1716 C1692 0.950 . S
H1717 C1693 0.949 . S
H1718 C1695 0.950 . S
H1719 C1697 0.950 . S
C1720 C1721 1.349 . S
C1720 C1722 1.327 . S
C1720 H1745 0.950 . S
C1721 C1720 1.349 . S
C1721 C1737 1.349 . S
C1722 C1720 1.327 . S
C1722 C1741 1.429 . S
C1722 H1746 0.950 . S
C1723 C1740 1.574 1_455 S
C1723 C1742 1.368 1_455 S
C1723 H1747 0.949 . S
H1724 C1728 0.949 . S
C1725 C1726 1.349 . S
C1725 C1727 1.327 . S
C1725 H1748 0.950 . S
C1726 C1725 1.349 . S
C1726 C1738 1.349 . S
C1727 C1725 1.327 . S
C1727 C1743 1.429 . S
C1727 H1749 0.950 . S
C1728 H1724 0.949 . S
C1728 C1736 1.574 . S
C1728 C1744 1.368 . S
H1729 C1737 0.950 . S
H1730 C1735 0.950 . S
H1731 C1736 0.949 . S
H1732 C1738 0.950 . S
H1733 C1739 0.950 . S
H1734 C1740 0.949 . S
C1735 H1730 0.950 . S
C1735 C1737 1.327 . S
C1735 C1741 1.429 . S
C1736 C1728 1.574 . S
C1736 H1731 0.949 . S
C1736 C1742 1.368 . S
C1737 C1721 1.349 . S
C1737 H1729 0.950 . S
C1737 C1735 1.327 . S
C1738 C1726 1.349 . S
C1738 H1732 0.950 . S
C1738 C1739 1.327 . S
C1739 H1733 0.950 . S
C1739 C1738 1.327 . S
C1739 C1743 1.429 . S
C1740 C1723 1.574 1_655 S
C1740 H1734 0.949 . S
C1740 C1744 1.368 . S
C1741 C1722 1.429 . S
C1741 C1735 1.429 . S
C1741 C1742 1.523 1_455 S
C1742 C1723 1.368 1_655 S
C1742 C1736 1.368 . S
C1742 C1741 1.523 1_655 S
C1743 C1727 1.429 . S
C1743 C1739 1.429 . S
C1743 C1744 1.523 . S
C1744 C1728 1.368 . S
C1744 C1740 1.368 . S
C1744 C1743 1.523 . S
H1745 C1720 0.950 . S
H1746 C1722 0.950 . S
H1747 C1723 0.949 . S
H1748 C1725 0.950 . S
H1749 C1727 0.950 . S
C1750 C1751 1.349 . S
C1750 C1752 1.327 . S
C1750 H1775 0.950 . S
C1751 C1750 1.349 . S
C1751 C1767 1.349 . S
C1752 C1750 1.327 . S
C1752 C1771 1.429 . S
C1752 H1776 0.950 . S
C1753 C1770 1.574 . S
C1753 C1772 1.368 . S
C1753 H1777 0.949 . S
H1754 C1758 0.949 . S
C1755 C1756 1.349 . S
C1755 C1757 1.327 . S
C1755 H1778 0.950 . S
C1756 C1755 1.349 . S
C1756 C1768 1.349 . S
C1757 C1755 1.327 . S
C1757 C1773 1.429 . S
C1757 H1779 0.950 . S
C1758 H1754 0.949 . S
C1758 C1766 1.574 . S
C1758 C1774 1.368 . S
H1759 C1767 0.950 . S
H1760 C1765 0.950 . S
H1761 C1766 0.949 . S
H1762 C1768 0.950 . S
H1763 C1769 0.950 . S
H1764 C1770 0.949 . S
C1765 H1760 0.950 . S
C1765 C1767 1.327 . S
C1765 C1771 1.429 . S
C1766 C1758 1.574 . S
C1766 H1761 0.949 . S
C1766 C1772 1.368 . S
C1767 C1751 1.349 . S
C1767 H1759 0.950 . S
C1767 C1765 1.327 . S
C1768 C1756 1.349 . S
C1768 H1762 0.950 . S
C1768 C1769 1.327 . S
C1769 H1763 0.950 . S
C1769 C1768 1.327 . S
C1769 C1773 1.429 . S
C1770 C1753 1.574 . S
C1770 H1764 0.949 . S
C1770 C1774 1.368 . S
C1771 C1752 1.429 . S
C1771 C1765 1.429 . S
C1771 C1772 1.523 . S
C1772 C1753 1.368 . S
C1772 C1766 1.368 . S
C1772 C1771 1.523 . S
C1773 C1757 1.429 . S
C1773 C1769 1.429 . S
C1773 C1774 1.523 . S
C1774 C1758 1.368 . S
C1774 C1770 1.368 . S
C1774 C1773 1.523 . S
H1775 C1750 0.950 . S
H1776 C1752 0.950 . S
H1777 C1753 0.949 . S
H1778 C1755 0.950 . S
H1779 C1757 0.950 . S
C1780 C1781 1.349 . S
C1780 C1782 1.327 . S
C1780 H1805 0.950 . S
C1781 C1780 1.349 . S
C1781 C1797 1.349 . S
C1782 C1780 1.327 . S
C1782 C1801 1.429 . S
C1782 H1806 0.950 . S
C1783 C1800 1.574 . S
C1783 C1802 1.368 . S
C1783 H1807 0.949 . S
H1784 C1788 0.949 . S
C1785 C1786 1.349 . S
C1785 C1787 1.327 . S
C1785 H1808 0.950 . S
C1786 C1785 1.349 . S
C1786 C1798 1.349 . S
C1787 C1785 1.327 . S
C1787 C1803 1.429 . S
C1787 H1809 0.950 . S
C1788 H1784 0.949 . S
C1788 C1796 1.574 . S
C1788 C1804 1.368 . S
H1789 C1797 0.950 . S
H1790 C1795 0.950 . S
H1791 C1796 0.949 . S
H1792 C1798 0.950 . S
H1793 C1799 0.950 . S
H1794 C1800 0.949 . S
C1795 H1790 0.950 . S
C1795 C1797 1.327 . S
C1795 C1801 1.429 . S
C1796 C1788 1.574 . S
C1796 H1791 0.949 . S
C1796 C1802 1.368 . S
C1797 C1781 1.349 . S
C1797 H1789 0.950 . S
C1797 C1795 1.327 . S
C1798 C1786 1.349 . S
C1798 H1792 0.950 . S
C1798 C1799 1.327 . S
C1799 H1793 0.950 . S
C1799 C1798 1.327 . S
C1799 C1803 1.429 . S
C1800 C1783 1.574 . S
C1800 H1794 0.949 . S
C1800 C1804 1.368 . S
C1801 C1782 1.429 . S
C1801 C1795 1.429 . S
C1801 C1802 1.523 . S
C1802 C1783 1.368 . S
C1802 C1796 1.368 . S
C1802 C1801 1.523 . S
C1803 C1787 1.429 . S
C1803 C1799 1.429 . S
C1803 C1804 1.523 . S
C1804 C1788 1.368 . S
C1804 C1800 1.368 . S
C1804 C1803 1.523 . S
H1805 C1780 0.950 . S
H1806 C1782 0.950 . S
H1807 C1783 0.949 . S
H1808 C1785 0.950 . S
H1809 C1787 0.950 . S
C1810 C1811 1.349 1_556 S
C1810 C1812 1.327 . S
C1810 H1835 0.950 . S
C1811 C1810 1.349 1_554 S
C1811 C1827 1.349 . S
C1812 C1810 1.327 . S
C1812 C1831 1.429 . S
C1812 H1836 0.950 . S
C1813 C1830 1.574 . S
C1813 C1832 1.368 . S
C1813 H1837 0.949 . S
H1814 C1818 0.949 . S
C1815 C1816 1.349 . S
C1815 C1817 1.327 . S
C1815 H1838 0.950 . S
C1816 C1815 1.349 . S
C1816 C1828 1.349 . S
C1817 C1815 1.327 . S
C1817 C1833 1.429 . S
C1817 H1839 0.950 . S
C1818 H1814 0.949 . S
C1818 C1826 1.574 . S
C1818 C1834 1.368 . S
H1819 C1827 0.950 . S
H1820 C1825 0.950 . S
H1821 C1826 0.949 . S
H1822 C1828 0.950 . S
H1823 C1829 0.950 . S
H1824 C1830 0.949 . S
C1825 H1820 0.950 . S
C1825 C1827 1.327 1_556 S
C1825 C1831 1.429 . S
C1826 C1818 1.574 . S
C1826 H1821 0.949 . S
C1826 C1832 1.368 . S
C1827 C1811 1.349 . S
C1827 H1819 0.950 . S
C1827 C1825 1.327 1_554 S
C1828 C1816 1.349 . S
C1828 H1822 0.950 . S
C1828 C1829 1.327 . S
C1829 H1823 0.950 . S
C1829 C1828 1.327 . S
C1829 C1833 1.429 . S
C1830 C1813 1.574 . S
C1830 H1824 0.949 . S
C1830 C1834 1.368 . S
C1831 C1812 1.429 . S
C1831 C1825 1.429 . S
C1831 C1832 1.523 . S
C1832 C1813 1.368 . S
C1832 C1826 1.368 . S
C1832 C1831 1.523 . S
C1833 C1817 1.429 . S
C1833 C1829 1.429 . S
C1833 C1834 1.523 . S
C1834 C1818 1.368 . S
C1834 C1830 1.368 . S
C1834 C1833 1.523 . S
H1835 C1810 0.950 . S
H1836 C1812 0.950 . S
H1837 C1813 0.949 . S
H1838 C1815 0.950 . S
H1839 C1817 0.950 . S
C1840 C1841 1.349 . S
C1840 C1842 1.327 . S
C1840 H1865 0.950 . S
C1841 C1840 1.349 . S
C1841 C1857 1.349 . S
C1842 C1840 1.327 . S
C1842 C1861 1.429 . S
C1842 H1866 0.950 . S
C1843 C1860 1.574 . S
C1843 C1862 1.368 . S
C1843 H1867 0.949 . S
H1844 C1848 0.949 . S
C1845 C1846 1.349 . S
C1845 C1847 1.327 . S
C1845 H1868 0.950 . S
C1846 C1845 1.349 . S
C1846 C1858 1.349 . S
C1847 C1845 1.327 . S
C1847 C1863 1.429 . S
C1847 H1869 0.950 . S
C1848 H1844 0.949 . S
C1848 C1856 1.574 . S
C1848 C1864 1.368 . S
H1849 C1857 0.950 . S
H1850 C1855 0.950 . S
H1851 C1856 0.949 . S
H1852 C1858 0.950 . S
H1853 C1859 0.950 . S
H1854 C1860 0.949 . S
C1855 H1850 0.950 . S
C1855 C1857 1.327 . S
C1855 C1861 1.429 . S
C1856 C1848 1.574 . S
C1856 H1851 0.949 . S
C1856 C1862 1.368 . S
C1857 C1841 1.349 . S
C1857 H1849 0.950 . S
C1857 C1855 1.327 . S
C1858 C1846 1.349 . S
C1858 H1852 0.950 . S
C1858 C1859 1.327 . S
C1859 H1853 0.950 . S
C1859 C1858 1.327 . S
C1859 C1863 1.429 . S
C1860 C1843 1.574 . S
C1860 H1854 0.949 . S
C1860 C1864 1.368 . S
C1861 C1842 1.429 . S
C1861 C1855 1.429 . S
C1861 C1862 1.523 . S
C1862 C1843 1.368 . S
C1862 C1856 1.368 . S
C1862 C1861 1.523 . S
C1863 C1847 1.429 . S
C1863 C1859 1.429 . S
C1863 C1864 1.523 . S
C1864 C1848 1.368 . S
C1864 C1860 1.368 . S
C1864 C1863 1.523 . S
H1865 C1840 0.950 . S
H1866 C1842 0.950 . S
H1867 C1843 0.949 . S
H1868 C1845 0.950 . S
H1869 C1847 0.950 . S
C1870 C1871 1.349 . S
C1870 C1872 1.327 . S
C1870 H1895 0.950 . S
C1871 C1870 1.349 . S
C1871 C1887 1.349 . S
C1872 C1870 1.327 . S
C1872 C1891 1.429 . S
C1872 H1896 0.950 . S
C1873 C1890 1.574 . S
C1873 C1892 1.368 . S
C1873 H1897 0.949 . S
H1874 C1878 0.949 . S
C1875 C1876 1.349 . S
C1875 C1877 1.327 . S
C1875 H1898 0.950 . S
C1876 C1875 1.349 . S
C1876 C1888 1.349 . S
C1877 C1875 1.327 . S
C1877 C1893 1.429 . S
C1877 H1899 0.950 . S
C1878 H1874 0.949 . S
C1878 C1886 1.574 . S
C1878 C1894 1.368 . S
H1879 C1887 0.950 . S
H1880 C1885 0.950 . S
H1881 C1886 0.949 . S
H1882 C1888 0.950 . S
H1883 C1889 0.950 . S
H1884 C1890 0.949 . S
C1885 H1880 0.950 . S
C1885 C1887 1.327 . S
C1885 C1891 1.429 . S
C1886 C1878 1.574 . S
C1886 H1881 0.949 . S
C1886 C1892 1.368 . S
C1887 C1871 1.349 . S
C1887 H1879 0.950 . S
C1887 C1885 1.327 . S
C1888 C1876 1.349 . S
C1888 H1882 0.950 . S
C1888 C1889 1.327 . S
C1889 H1883 0.950 . S
C1889 C1888 1.327 . S
C1889 C1893 1.429 . S
C1890 C1873 1.574 . S
C1890 H1884 0.949 . S
C1890 C1894 1.368 . S
C1891 C1872 1.429 . S
C1891 C1885 1.429 . S
C1891 C1892 1.523 . S
C1892 C1873 1.368 . S
C1892 C1886 1.368 . S
C1892 C1891 1.523 . S
C1893 C1877 1.429 . S
C1893 C1889 1.429 . S
C1893 C1894 1.523 . S
C1894 C1878 1.368 . S
C1894 C1890 1.368 . S
C1894 C1893 1.523 . S
H1895 C1870 0.950 . S
H1896 C1872 0.950 . S
H1897 C1873 0.949 . S
H1898 C1875 0.950 . S
H1899 C1877 0.950 . S
C1900 C1901 1.349 . S
C1900 C1902 1.327 . S
C1900 H1925 0.950 . S
C1901 C1900 1.349 . S
C1901 C1917 1.349 . S
C1902 C1900 1.327 . S
C1902 C1921 1.429 . S
C1902 H1926 0.950 . S
C1903 C1920 1.574 . S
C1903 C1922 1.368 . S
C1903 H1927 0.949 . S
H1904 C1908 0.949 . S
C1905 C1906 1.349 . S
C1905 C1907 1.327 . S
C1905 H1928 0.950 . S
C1906 C1905 1.349 . S
C1906 C1918 1.349 . S
C1907 C1905 1.327 . S
C1907 C1923 1.429 . S
C1907 H1929 0.950 . S
C1908 H1904 0.949 . S
C1908 C1916 1.574 . S
C1908 C1924 1.368 . S
H1909 C1917 0.950 . S
H1910 C1915 0.950 . S
H1911 C1916 0.949 . S
H1912 C1918 0.950 . S
H1913 C1919 0.950 . S
H1914 C1920 0.949 . S
C1915 H1910 0.950 . S
C1915 C1917 1.327 . S
C1915 C1921 1.429 . S
C1916 C1908 1.574 . S
C1916 H1911 0.949 . S
C1916 C1922 1.368 . S
C1917 C1901 1.349 . S
C1917 H1909 0.950 . S
C1917 C1915 1.327 . S
C1918 C1906 1.349 . S
C1918 H1912 0.950 . S
C1918 C1919 1.327 . S
C1919 H1913 0.950 . S
C1919 C1918 1.327 . S
C1919 C1923 1.429 . S
C1920 C1903 1.574 . S
C1920 H1914 0.949 . S
C1920 C1924 1.368 . S
C1921 C1902 1.429 . S
C1921 C1915 1.429 . S
C1921 C1922 1.523 . S
C1922 C1903 1.368 . S
C1922 C1916 1.368 . S
C1922 C1921 1.523 . S
C1923 C1907 1.429 . S
C1923 C1919 1.429 . S
C1923 C1924 1.523 . S
C1924 C1908 1.368 . S
C1924 C1920 1.368 . S
C1924 C1923 1.523 . S
H1925 C1900 0.950 . S
H1926 C1902 0.950 . S
H1927 C1903 0.949 . S
H1928 C1905 0.950 . S
H1929 C1907 0.950 . S
C1930 C1931 1.349 . S
C1930 C1932 1.327 . S
C1930 H1955 0.950 . S
C1931 C1930 1.349 . S
C1931 C1947 1.349 . S
C1932 C1930 1.327 . S
C1932 C1951 1.429 . S
C1932 H1956 0.950 . S
C1933 C1950 1.574 1_455 S
C1933 C1952 1.368 1_556 S
C1933 H1957 0.949 . S
H1934 C1938 0.949 . S
C1935 C1936 1.349 . S
C1935 C1937 1.327 . S
C1935 H1958 0.950 . S
C1936 C1935 1.349 . S
C1936 C1948 1.349 . S
C1937 C1935 1.327 . S
C1937 C1953 1.429 . S
C1937 H1959 0.950 . S
C1938 H1934 0.949 . S
C1938 C1946 1.574 1_655 S
C1938 C1954 1.368 1_554 S
H1939 C1947 0.950 . S
H1940 C1945 0.950 . S
H1941 C1946 0.949 . S
H1942 C1948 0.950 . S
H1943 C1949 0.950 . S
H1944 C1950 0.949 . S
C1945 H1940 0.950 . S
C1945 C1947 1.327 . S
C1945 C1951 1.429 . S
C1946 C1938 1.574 1_455 S
C1946 H1941 0.949 . S
C1946 C1952 1.368 . S
C1947 C1931 1.349 . S
C1947 H1939 0.950 . S
C1947 C1945 1.327 . S
C1948 C1936 1.349 . S
C1948 H1942 0.950 . S
C1948 C1949 1.327 . S
C1949 H1943 0.950 . S
C1949 C1948 1.327 . S
C1949 C1953 1.429 . S
C1950 C1933 1.574 1_655 S
C1950 H1944 0.949 . S
C1950 C1954 1.368 . S
C1951 C1932 1.429 . S
C1951 C1945 1.429 . S
C1951 C1952 1.523 . S
C1952 C1933 1.368 1_554 S
C1952 C1946 1.368 . S
C1952 C1951 1.523 . S
C1953 C1937 1.429 . S
C1953 C1949 1.429 . S
C1953 C1954 1.523 . S
C1954 C1938 1.368 1_556 S
C1954 C1950 1.368 . S
C1954 C1953 1.523 . S
H1955 C1930 0.950 . S
H1956 C1932 0.950 . S
H1957 C1933 0.949 . S
H1958 C1935 0.950 . S
H1959 C1937 0.950 . S
C1960 C1961 1.349 . S
C1960 C1962 1.327 . S
C1960 H1985 0.950 . S
C1961 C1960 1.349 . S
C1961 C1977 1.349 . S
C1962 C1960 1.327 . S
C1962 C1981 1.429 . S
C1962 H1986 0.950 . S
C1963 C1980 1.574 . S
C1963 C1982 1.368 . S
C1963 H1987 0.949 . S
H1964 C1968 0.949 . S
C1965 C1966 1.349 . S
C1965 C1967 1.327 . S
C1965 H1988 0.950 . S
C1966 C1965 1.349 . S
C1966 C1978 1.349 . S
C1967 C1965 1.327 . S
C1967 C1983 1.429 . S
C1967 H1989 0.950 . S
C1968 H1964 0.949 . S
C1968 C1976 1.574 . S
C1968 C1984 1.368 . S
H1969 C1977 0.950 . S
H1970 C1975 0.950 . S
H1971 C1976 0.949 . S
H1972 C1978 0.950 . S
H1973 C1979 0.950 . S
H1974 C1980 0.949 . S
C1975 H1970 0.950 . S
C1975 C1977 1.327 . S
C1975 C1981 1.429 . S
C1976 C1968 1.574 . S
C1976 H1971 0.949 . S
C1976 C1982 1.368 . S
C1977 C1961 1.349 . S
C1977 H1969 0.950 . S
C1977 C1975 1.327 . S
C1978 C1966 1.349 . S
C1978 H1972 0.950 . S
C1978 C1979 1.327 . S
C1979 H1973 0.950 . S
C1979 C1978 1.327 . S
C1979 C1983 1.429 . S
C1980 C1963 1.574 . S
C1980 H1974 0.949 . S
C1980 C1984 1.368 . S
C1981 C1962 1.429 . S
C1981 C1975 1.429 . S
C1981 C1982 1.523 . S
C1982 C1963 1.368 . S
C1982 C1976 1.368 . S
C1982 C1981 1.523 . S
C1983 C1967 1.429 . S
C1983 C1979 1.429 . S
C1983 C1984 1.523 . S
C1984 C1968 1.368 . S
C1984 C1980 1.368 . S
C1984 C1983 1.523 . S
H1985 C1960 0.950 . S
H1986 C1962 0.950 . S
H1987 C1963 0.949 . S
H1988 C1965 0.950 . S
H1989 C1967 0.950 . S
C1990 C1991 1.349 . S
C1990 C1992 1.327 . S
C1990 H2015 0.950 . S
C1991 C1990 1.349 . S
C1991 C2007 1.349 . S
C1992 C1990 1.327 . S
C1992 C2011 1.429 . S
C1992 H2016 0.950 . S
C1993 C2010 1.574 . S
C1993 C2012 1.368 . S
C1993 H2017 0.949 . S
H1994 C1998 0.949 . S
C1995 C1996 1.349 . S
C1995 C1997 1.327 . S
C1995 H2018 0.950 . S
C1996 C1995 1.349 . S
C1996 C2008 1.349 . S
C1997 C1995 1.327 . S
C1997 C2013 1.429 . S
C1997 H2019 0.950 . S
C1998 H1994 0.949 . S
C1998 C2006 1.574 . S
C1998 C2014 1.368 . S
H1999 C2007 0.950 . S
H2000 C2005 0.950 . S
H2001 C2006 0.949 . S
H2002 C2008 0.950 . S
H2003 C2009 0.950 . S
H2004 C2010 0.949 . S
C2005 H2000 0.950 . S
C2005 C2007 1.327 . S
C2005 C2011 1.429 . S
C2006 C1998 1.574 . S
C2006 H2001 0.949 . S
C2006 C2012 1.368 . S
C2007 C1991 1.349 . S
C2007 H1999 0.950 . S
C2007 C2005 1.327 . S
C2008 C1996 1.349 . S
C2008 H2002 0.950 . S
C2008 C2009 1.327 . S
C2009 H2003 0.950 . S
C2009 C2008 1.327 . S
C2009 C2013 1.429 . S
C2010 C1993 1.574 . S
C2010 H2004 0.949 . S
C2010 C2014 1.368 . S
C2011 C1992 1.429 . S
C2011 C2005 1.429 . S
C2011 C2012 1.523 . S
C2012 C1993 1.368 . S
C2012 C2006 1.368 . S
C2012 C2011 1.523 . S
C2013 C1997 1.429 . S
C2013 C2009 1.429 . S
C2013 C2014 1.523 . S
C2014 C1998 1.368 . S
C2014 C2010 1.368 . S
C2014 C2013 1.523 . S
H2015 C1990 0.950 . S
H2016 C1992 0.950 . S
H2017 C1993 0.949 . S
H2018 C1995 0.950 . S
H2019 C1997 0.950 . S
C2020 C2021 1.349 . S
C2020 C2022 1.327 . S
C2020 H2045 0.950 . S
C2021 C2020 1.349 . S
C2021 C2037 1.349 . S
C2022 C2020 1.327 . S
C2022 C2041 1.429 . S
C2022 H2046 0.950 . S
C2023 C2040 1.574 1_556 S
C2023 C2042 1.368 1_565 S
C2023 H2047 0.949 . S
H2024 C2028 0.949 . S
C2025 C2026 1.349 . S
C2025 C2027 1.327 . S
C2025 H2048 0.950 . S
C2026 C2025 1.349 . S
C2026 C2038 1.349 . S
C2027 C2025 1.327 . S
C2027 C2043 1.429 . S
C2027 H2049 0.950 . S
C2028 H2024 0.949 . S
C2028 C2036 1.574 1_554 S
C2028 C2044 1.368 1_545 S
H2029 C2037 0.967 . S
H2030 C2035 0.950 1_565 S
H2031 C2036 0.949 . S
H2032 C2038 0.967 . S
H2033 C2039 0.950 1_545 S
H2034 C2040 0.949 . S
C2035 H2030 0.950 1_545 S
C2035 C2037 1.327 . S
C2035 C2041 1.429 . S
C2036 C2028 1.574 1_556 S
C2036 H2031 0.949 . S
C2036 C2042 1.368 1_655 S
C2037 C2021 1.349 . S
C2037 H2029 0.967 . S
C2037 C2035 1.327 . S
C2038 C2026 1.349 . S
C2038 H2032 0.967 . S
C2038 C2039 1.327 . S
C2039 H2033 0.950 1_565 S
C2039 C2038 1.327 . S
C2039 C2043 1.429 . S
C2040 C2023 1.574 1_554 S
C2040 H2034 0.949 . S
C2040 C2044 1.368 1_455 S
C2041 C2022 1.429 . S
C2041 C2035 1.429 . S
C2041 C2042 1.523 . S
C2042 C2023 1.368 1_545 S
C2042 C2036 1.368 1_455 S
C2042 C2041 1.523 . S
C2043 C2027 1.429 . S
C2043 C2039 1.429 . S
C2043 C2044 1.523 . S
C2044 C2028 1.368 1_565 S
C2044 C2040 1.368 1_655 S
C2044 C2043 1.523 . S
H2045 C2020 0.950 . S
H2046 C2022 0.950 . S
H2047 C2023 0.949 . S
H2048 C2025 0.950 . S
H2049 C2027 0.950 . S
C2050 C2051 1.349 . S
C2050 C2052 1.327 . S
C2050 H2075 0.950 . S
C2051 C2050 1.349 . S
C2051 C2067 1.349 . S
C2052 C2050 1.327 . S
C2052 C2071 1.429 . S
C2052 H2076 0.950 . S
C2053 C2070 1.594 . S
C2053 C2072 1.348 1_565 S
C2053 H2077 0.953 . S
H2054 C2058 0.953 . S
C2055 C2056 1.349 . S
C2055 C2057 1.327 . S
C2055 H2078 0.950 . S
C2056 C2055 1.349 . S
C2056 C2068 1.349 . S
C2057 C2055 1.327 . S
C2057 C2073 1.429 . S
C2057 H2079 0.950 . S
C2058 H2054 0.953 . S
C2058 C2066 1.594 . S
C2058 C2074 1.348 1_545 S
H2059 C2067 0.950 . S
H2060 C2065 0.950 . S
H2061 C2066 0.949 . S
H2062 C2068 0.950 . S
H2063 C2069 0.950 . S
H2064 C2070 0.949 . S
C2065 H2060 0.950 . S
C2065 C2067 1.327 . S
C2065 C2071 1.429 . S
C2066 C2058 1.594 . S
C2066 H2061 0.949 . S
C2066 C2072 1.368 . S
C2067 C2051 1.349 . S
C2067 H2059 0.950 . S
C2067 C2065 1.327 . S
C2068 C2056 1.349 . S
C2068 H2062 0.950 . S
C2068 C2069 1.327 . S
C2069 H2063 0.950 . S
C2069 C2068 1.327 . S
C2069 C2073 1.429 . S
C2070 C2053 1.594 . S
C2070 H2064 0.949 . S
C2070 C2074 1.368 . S
C2071 C2052 1.429 . S
C2071 C2065 1.429 . S
C2071 C2072 1.523 . S
C2072 C2053 1.348 1_545 S
C2072 C2066 1.368 . S
C2072 C2071 1.523 . S
C2073 C2057 1.429 . S
C2073 C2069 1.429 . S
C2073 C2074 1.523 . S
C2074 C2058 1.348 1_565 S
C2074 C2070 1.368 . S
C2074 C2073 1.523 . S
H2075 C2050 0.950 . S
H2076 C2052 0.950 . S
H2077 C2053 0.953 . S
H2078 C2055 0.950 . S
H2079 C2057 0.950 . S
C641 C13 2.990 . S
C646 C413 2.990 . S
C671 C53 2.990 . S
C676 C453 2.990 . S
C701 C93 2.990 . S
C706 C333 2.990 . S
C731 C133 2.990 . S
C736 C373 2.990 . S
C761 C184 2.990 . S
C766 C584 2.990 . S
C791 C224 2.990 . S
C796 C624 2.990 . S
C821 C264 2.990 . S
C826 C504 2.990 . S
C851 C304 2.990 . S
C856 C544 2.990 . S
C881 C362 3.670 . S
C886 C24 3.665 1_556 S
C911 C402 3.670 . S
C916 C64 3.665 . S
C941 C442 3.670 . S
C946 C104 3.665 . S
C971 C322 3.670 . S
C976 C144 3.665 . S
C1001 C173 3.665 1_554 S
C1006 C543 3.670 . S
C1031 C583 3.670 . S
C1036 C213 3.665 . S
C1061 C623 3.670 . S
C1066 C253 3.665 . S
C1091 C503 3.670 . S
C1096 C293 3.665 . S
C1121 C42 3.670 . S
C1126 C344 3.665 . S
C1151 C384 3.665 . S
C1156 C82 3.670 . S
C1181 C424 3.665 1_556 S
C1186 C122 3.670 . S
C1211 C464 3.665 . S
C1216 C2 3.670 . S
C1241 C493 3.665 . S
C1246 C223 3.670 . S
C1271 C263 3.670 . S
C1276 C533 3.665 . S
C1301 C303 3.670 . S
C1306 C573 3.665 1_554 S
C1331 C613 3.665 . S
C1336 C183 3.670 . S
C1361 C26 0.352 . S
C1366 C602 0.226 . S
C1391 C66 0.352 . S
C1396 C162 0.226 . S
C1421 C522 0.226 . S
C1426 C106 0.352 . S
C1451 C242 0.226 . S
C1456 C146 0.352 . S
C1481 C177 0.352 . S
C1486 C463 0.226 . S
C1511 C217 0.352 . S
C1516 C23 0.226 . S
C1541 C383 0.226 . S
C1546 C257 0.352 . S
C1571 C103 0.226 . S
C1576 C297 0.352 . S
C1601 C346 0.352 . S
C1606 C282 0.226 . S
C1631 C386 0.352 . S
C1636 C482 0.226 . S
C1661 C202 0.226 . S
C1666 C426 0.352 . S
C1691 C562 0.226 . S
C1696 C466 0.352 . S
C1721 C497 0.352 . S
C1726 C143 0.226 . S
C1751 C537 0.352 . S
C1756 C343 0.226 . S
C1781 C577 0.352 . S
C1786 C63 0.226 . S
C1811 C423 0.226 . S
C1816 C617 0.352 . S
C1841 C17 1.232 . S
C1846 C506 1.232 . S
C1871 C57 1.232 . S
C1876 C226 1.232 . S
C1901 C97 1.232 . S
C1906 C586 1.232 . S
C1931 C306 1.232 . S
C1936 C137 1.232 . S
C1961 C186 1.232 . S
C1966 C337 1.232 . S
C1991 C417 1.232 . S
C1996 C266 1.232 . S
C2021 C377 1.232 . S
C2026 C546 1.232 . S
C2051 C626 1.232 . S
C2056 C457 1.232 . S
