# Generated by pormake.
# Topology dft, (4)-cn, num edge types: 1
# Building blocks:
#     Node 0, Type 0, BuildingBlock: AZAVOO_clean_sbu_0, # of connection points: 4
#     Node 1, Type 0, BuildingBlock: AZAVOO_clean_sbu_0, # of connection points: 4
#     Node 2, Type 0, BuildingBlock: AZAVOO_clean_sbu_0, # of connection points: 4
#     Node 3, Type 0, BuildingBlock: AZAVOO_clean_sbu_0, # of connection points: 4
#     Node 4, Type 0, BuildingBlock: AZAVOO_clean_sbu_0, # of connection points: 4
#     Node 5, Type 0, BuildingBlock: AZAVOO_clean_sbu_0, # of connection points: 4
#     Node 6, Type 0, BuildingBlock: AZAVOO_clean_sbu_0, # of connection points: 4
#     Node 7, Type 0, BuildingBlock: AZAVOO_clean_sbu_0, # of connection points: 4
#     Edge 8, Type (0, 0), BuildingBlock: FUNLAD_clean_linker_1, # of connection points: 2
#     Edge 9, Type (0, 0), BuildingBlock: FUNLAD_clean_linker_1, # of connection points: 2
#     Edge 10, Type (0, 0), BuildingBlock: FUNLAD_clean_linker_1, # of connection points: 2
#     Edge 11, Type (0, 0), BuildingBlock: FUNLAD_clean_linker_1, # of connection points: 2
#     Edge 12, Type (0, 0), BuildingBlock: FUNLAD_clean_linker_1, # of connection points: 2
#     Edge 13, Type (0, 0), BuildingBlock: FUNLAD_clean_linker_1, # of connection points: 2
#     Edge 14, Type (0, 0), BuildingBlock: FUNLAD_clean_linker_1, # of connection points: 2
#     Edge 15, Type (0, 0), BuildingBlock: FUNLAD_clean_linker_1, # of connection points: 2
#     Edge 16, Type (0, 0), BuildingBlock: FUNLAD_clean_linker_1, # of connection points: 2
#     Edge 17, Type (0, 0), BuildingBlock: FUNLAD_clean_linker_1, # of connection points: 2
#     Edge 18, Type (0, 0), BuildingBlock: FUNLAD_clean_linker_1, # of connection points: 2
#     Edge 19, Type (0, 0), BuildingBlock: FUNLAD_clean_linker_1, # of connection points: 2
#     Edge 20, Type (0, 0), BuildingBlock: FUNLAD_clean_linker_1, # of connection points: 2
#     Edge 21, Type (0, 0), BuildingBlock: FUNLAD_clean_linker_1, # of connection points: 2
#     Edge 22, Type (0, 0), BuildingBlock: FUNLAD_clean_linker_1, # of connection points: 2
#     Edge 23, Type (0, 0), BuildingBlock: FUNLAD_clean_linker_1, # of connection points: 2
# Relax obj value: 0.187
# Max RMSD: 0.167
# Mean RMSD: 0.161
data_MOF--net-dft--node1-AZAVOO_clean_sbu_0--edge1-FUNLAD_clean_linker_1
_symmetry_space_group_name_H-M    P1
_symmetry_Int_Tables_number       1
_symmetry_cell_setting            triclinic
loop_
_symmetry_equiv_pos_as_xyz
'x, y, z'
_cell_length_a     35.948573
_cell_length_b     36.319051
_cell_length_c     39.164312
_cell_angle_alpha  90.123102
_cell_angle_beta   89.895269
_cell_angle_gamma 90.147051
loop_
_atom_site_label
_atom_site_type_symbol
_atom_site_fract_x
_atom_site_fract_y
_atom_site_fract_z
_atom_type_partial_charge
Mg0 Mg 0.28406 -0.00472 0.22149 0.0
O1 O 0.27853 0.99237 0.16323 0.0
O2 O 0.21882 0.00182 0.14985 0.0
Mg3 Mg 0.18561 0.0089 0.19922 0.0
C4 C 0.2526 -0.00403 0.1413 0.0
C5 C 0.36794 0.97456 0.22969 0.0
O6 O 0.35245 0.94732 0.24652 0.0
O7 O 0.2779 0.05806 0.21877 0.0
O8 O 0.21696 0.06302 0.20792 0.0
O9 O 0.27016 0.9348 0.22677 0.0
O10 O 0.22883 0.97956 0.22715 0.0
C11 C 0.24877 0.07745 0.2139 0.0
C12 C 0.23569 0.94499 0.228 0.0
O13 O 0.34741 -0.00101 0.2162 0.0
Mg14 Mg 0.01405 0.33348 0.68842 0.0
O15 O 0.05897 0.29344 0.70692 0.0
O16 O 0.11359 0.3118 0.68536 0.0
Mg17 Mg 0.10365 0.36216 0.65213 0.0
C18 C 0.09409 0.28992 0.70355 0.0
C19 C 0.93915 0.31493 0.7243 0.0
O20 O 0.92675 0.33595 0.69956 0.0
O21 O 0.03457 0.37754 0.72509 0.0
O22 O 0.08775 0.39534 0.70011 0.0
O23 O 0.00426 0.29988 0.64156 0.0
O24 O 0.04538 0.34516 0.64519 0.0
C25 C 0.06338 0.39813 0.72375 0.0
C26 C 0.03043 0.3192 0.6275 0.0
O27 O 0.97389 0.30982 0.72739 0.0
Mg28 Mg 0.72544 0.05503 0.21295 0.0
O29 O 0.73118 0.06657 0.15561 0.0
O30 O 0.79103 0.07893 0.14466 0.0
Mg31 Mg 0.82328 0.07795 0.19481 0.0
C32 C 0.7575 0.0741 0.13486 0.0
C33 C 0.64305 0.05362 0.18984 0.0
O34 O 0.6542 0.08548 0.17777 0.0
O35 O 0.75282 -0.00129 0.2038 0.0
O36 O 0.81222 0.01595 0.19594 0.0
O37 O 0.7175 0.11517 0.22492 0.0
O38 O 0.77187 0.08725 0.22336 0.0
C39 C 0.78712 0.99117 0.19844 0.0
C40 C 0.75331 0.11709 0.22749 0.0
O41 O 0.66632 0.03297 0.20495 0.0
Mg42 Mg 0.03168 0.72147 0.67657 0.0
O43 O 0.97782 0.75211 0.69005 0.0
O44 O 0.93083 0.72392 0.66308 0.0
Mg45 Mg 0.95469 0.67672 0.63146 0.0
C46 C 0.94327 0.74881 0.68306 0.0
C47 C 0.09551 0.74226 0.72599 0.0
O48 O 0.11081 0.71432 0.70993 0.0
O49 O 0.01481 0.67487 0.71174 0.0
O50 O 0.97032 0.64683 0.68129 0.0
O51 O 0.0415 0.75669 0.63102 0.0
O52 O 0.009 0.70489 0.63007 0.0
C53 C 0.99112 0.64902 0.70765 0.0
C54 C 0.02139 0.73341 0.6141 0.0
O55 O 0.06228 0.75125 0.71905 0.0
Mg56 Mg 0.30434 0.02971 0.8105 0.0
O57 O 0.28169 0.0322 0.8653 0.0
O58 O 0.21975 0.03783 0.86226 0.0
Mg59 Mg 0.20278 0.03789 0.80611 0.0
C60 C 0.24975 0.03517 0.87941 0.0
C61 C 0.388 0.03291 0.81799 0.0
O62 O 0.37994 0.06023 0.79736 0.0
O63 O 0.28464 0.97006 0.80665 0.0
O64 O 0.22312 0.97811 0.8021 0.0
O65 O 0.30698 0.09124 0.80793 0.0
O66 O 0.25823 0.05807 0.79255 0.0
C67 C 0.25175 0.95731 0.80305 0.0
C68 C 0.27312 0.08995 0.79695 0.0
O69 O 0.36176 0.01297 0.82948 0.0
Mg70 Mg 0.04693 0.33623 0.30298 0.0
O71 O 0.99469 0.30154 0.29127 0.0
O72 O 0.94691 0.32739 0.31909 0.0
Mg73 Mg 0.96832 0.37652 0.34972 0.0
C74 C 0.96021 0.30285 0.29915 0.0
C75 C 0.11446 0.31232 0.26068 0.0
O76 O 0.12925 0.33637 0.28182 0.0
O77 O 0.02625 0.38108 0.26706 0.0
O78 O 0.98122 0.40595 0.29925 0.0
O79 O 0.05939 0.30261 0.34932 0.0
O80 O 0.02385 0.35216 0.3493 0.0
C81 C 1.00102 0.40519 0.27214 0.0
C82 C 0.03777 0.32493 0.36575 0.0
O83 O 0.0795 0.30718 0.2612 0.0
Mg84 Mg 0.75476 0.01408 0.8037 0.0
O85 O 0.7685 0.01671 0.86083 0.0
O86 O 0.83034 0.02148 0.86608 0.0
Mg87 Mg 0.8561 0.02167 0.81269 0.0
C88 C 0.7978 0.01978 0.87904 0.0
C89 C 0.67292 0.03269 0.79054 0.0
O90 O 0.68815 0.03923 0.76067 0.0
O91 O 0.7656 0.07586 0.79987 0.0
O92 O 0.8278 0.07733 0.80297 0.0
O93 O 0.7621 0.95275 0.80194 0.0
O94 O 0.80703 -0.00681 0.79296 0.0
C95 C 0.79641 0.09342 0.79948 0.0
C96 C 0.7968 0.95944 0.79547 0.0
O97 O 0.69336 0.0225 0.81516 0.0
Mg98 Mg 0.95666 0.72267 0.29203 0.0
O99 O 0.01372 0.75203 0.28775 0.0
O100 O 0.05336 0.71835 0.31888 0.0
Mg101 Mg 0.02269 0.6704 0.34384 0.0
C102 C 0.04634 0.74556 0.29938 0.0
C103 C 0.90318 0.74308 0.23367 0.0
O104 O 0.89362 0.70864 0.23886 0.0
O105 O 0.97742 0.67843 0.25539 0.0
O106 O 0.01342 0.64559 0.29043 0.0
O107 O 0.9409 0.75512 0.33821 0.0
O108 O 0.97167 0.70262 0.33983 0.0
C109 C 0.99814 0.65075 0.26136 0.0
C110 C 0.9581 0.73051 0.3559 0.0
O111 O 0.93115 0.7563 0.24938 0.0
H112 H 0.2917 0.9906 0.09799 0.0
C113 C 0.26284 -0.00425 0.10481 0.0
H114 H 0.20978 0.01125 0.08685 0.0
H115 H 0.26887 0.09353 0.95655 0.0
H116 H 0.25229 0.14522 0.99283 0.0
H117 H 0.23467 0.13556 0.05307 0.0
H118 H 0.23365 0.07422 0.07741 0.0
C119 C 0.23829 0.00428 0.08027 0.0
C120 C 0.25019 0.00974 0.04428 0.0
C121 C 0.25026 0.04577 0.03039 0.0
C122 C 0.26002 0.05133 0.9956 0.0
C123 C 0.26078 0.08768 0.9826 0.0
C124 C 0.25157 0.11762 0.00321 0.0
C125 C 0.24169 0.11219 0.03713 0.0
C126 C 0.2411 0.07678 0.05074 0.0
H127 H 0.21918 0.03853 0.92807 0.0
C128 C 0.24653 0.03409 0.9169 0.0
H129 H 0.30241 0.01948 0.92675 0.0
H130 H 0.2523 0.93699 0.06272 0.0
H131 H 0.27014 0.8856 0.0267 0.0
H132 H 0.28799 0.89541 0.96654 0.0
H133 H 0.28796 0.95668 0.94203 0.0
C134 C 0.27522 0.02579 0.93739 0.0
C135 C 0.26915 0.02077 0.97465 0.0
C136 C 0.27037 0.9849 0.98882 0.0
C137 C 0.26054 0.9793 0.02363 0.0
C138 C 0.26035 0.94297 0.0367 0.0
C139 C 0.27033 0.91316 0.01623 0.0
C140 C 0.28034 0.91868 0.98236 0.0
C141 C 0.28025 0.95403 0.96862 0.0
H142 H 0.06824 0.32525 0.58363 0.0
C143 C 0.04199 0.31328 0.59192 0.0
H144 H 0.99218 0.2871 0.57672 0.0
H145 H 0.06592 0.36877 0.43867 0.0
H146 H 0.05949 0.426 0.46996 0.0
H147 H 0.03494 0.42639 0.52882 0.0
H148 H 0.01835 0.36951 0.55708 0.0
C149 C 0.01868 0.29875 0.56872 0.0
C150 C 0.02747 0.29933 0.53153 0.0
C151 C 0.03378 0.33329 0.51448 0.0
C152 C 0.04444 0.33341 0.47953 0.0
C153 C 0.05491 0.36729 0.46433 0.0
C154 C 0.05176 0.40035 0.48213 0.0
C155 C 0.0382 0.40055 0.51532 0.0
C156 C 0.02921 0.36755 0.53141 0.0
H157 H 0.00591 0.33546 0.41269 0.0
C158 C 0.02907 0.31994 0.40212 0.0
H159 H 0.07443 0.28499 0.41275 0.0
H160 H 0.01732 0.22957 0.55632 0.0
H161 H 0.01927 0.17276 0.52371 0.0
H162 H 0.03208 0.17351 0.46182 0.0
H163 H 0.04349 0.23102 0.43221 0.0
C164 C 0.05111 0.30048 0.42301 0.0
C165 C 0.04456 0.3 0.4606 0.0
C166 C 0.03744 0.26617 0.47741 0.0
C167 C 0.02928 0.2658 0.51298 0.0
C168 C 0.02308 0.23153 0.52926 0.0
C169 C 0.02418 0.19869 0.51086 0.0
C170 C 0.03143 0.1991 0.47602 0.0
C171 C 0.03797 0.23234 0.45934 0.0
H172 H 0.81998 0.0235 0.9313 0.0
C173 C 0.79448 0.02363 0.91638 0.0
H174 H 0.73636 0.03252 0.91754 0.0
H175 H 0.78801 0.00135 0.07943 0.0
H176 H 0.79713 0.93816 0.06122 0.0
H177 H 0.78924 0.92035 0.00082 0.0
H178 H 0.77212 0.96576 0.95826 0.0
C179 C 0.76193 0.03025 0.93213 0.0
C180 C 0.76113 0.0394 0.96917 0.0
C181 C 0.77056 0.0124 0.99373 0.0
C182 C 0.77468 0.02257 0.02857 0.0
C183 C 0.78457 -0.00483 0.05258 0.0
C184 C 0.78983 0.95875 0.04249 0.0
C185 C 0.78539 0.94874 0.00849 0.0
C186 C 0.77581 0.97511 0.98429 0.0
H187 H 0.72051 0.06978 0.08999 0.0
C188 C 0.7493 0.07285 0.09798 0.0
H189 H 0.80559 0.07118 0.08245 0.0
H190 H 0.73906 0.09706 0.92906 0.0
H191 H 0.72701 0.15963 0.94782 0.0
H192 H 0.73389 0.17711 0.0084 0.0
H193 H 0.75291 0.13207 0.05062 0.0
C194 C 0.7766 0.0704 0.07464 0.0
C195 C 0.76872 0.05955 0.03882 0.0
C196 C 0.75711 0.08605 0.01466 0.0
C197 C 0.75319 0.07594 0.97974 0.0
C198 C 0.74234 0.10316 0.95593 0.0
C199 C 0.73535 0.1392 0.96636 0.0
C200 C 0.73923 0.14904 0.00047 0.0
C201 C 0.7501 0.12293 0.02444 0.0
H202 H 0.93994 0.75044 0.40624 0.0
C203 C 0.96122 0.73451 0.39316 0.0
H204 H 0.01036 0.70367 0.39793 0.0
H205 H 0.97383 0.78957 0.54767 0.0
H206 H 0.97568 0.84697 0.51621 0.0
H207 H 0.98739 0.84726 0.45411 0.0
H208 H 0.99558 0.79009 0.423 0.0
C209 C 0.98898 0.71929 0.41108 0.0
C210 C 0.98952 0.72017 0.44919 0.0
C211 C 0.98818 0.75408 0.46732 0.0
C212 C 0.985 0.75412 0.50353 0.0
C213 C 0.97917 0.78809 0.52053 0.0
C214 C 0.97976 0.82124 0.50272 0.0
C215 C 0.9861 0.82139 0.46774 0.0
C216 C 0.99032 0.7883 0.45013 0.0
H217 H 0.0342 0.75678 0.56374 0.0
C218 C 0.01523 0.73858 0.57728 0.0
H219 H 0.96999 0.70197 0.57356 0.0
H220 H 0.99083 0.6501 0.42265 0.0
H221 H 0.99474 0.59327 0.45445 0.0
H222 H 0.99677 0.59376 0.51737 0.0
H223 H 0.99414 0.65101 0.54883 0.0
C224 C 0.98877 0.72026 0.55999 0.0
C225 C 0.98748 0.72053 0.52189 0.0
C226 C 0.99025 0.68671 0.50381 0.0
C227 C 0.9905 0.68649 0.46747 0.0
C228 C 0.99161 0.65215 0.45018 0.0
C229 C 0.99373 0.61918 0.46813 0.0
C230 C 0.99479 0.61945 0.50354 0.0
C231 C 0.9931 0.65266 0.52129 0.0
H232 H 0.425 0.95559 0.24036 0.0
C233 C 0.40891 0.97675 0.22754 0.0
H234 H 0.41117 0.02471 0.19715 0.0
H235 H 0.57881 0.0258 0.26804 0.0
H236 H 0.54635 0.03716 0.3213 0.0
H237 H 0.47783 0.03517 0.32401 0.0
H238 H 0.44139 0.02159 0.27357 0.0
C239 C 0.42676 0.00398 0.21102 0.0
C240 C 0.46819 0.00559 0.20962 0.0
C241 C 0.4891 0.01386 0.23939 0.0
C242 C 0.52863 0.01562 0.2377 0.0
C243 C 0.54877 0.02407 0.2678 0.0
C244 C 0.53049 0.03074 0.29857 0.0
C245 C 0.49192 0.02956 0.30011 0.0
C246 C 0.47133 0.02144 0.27094 0.0
H247 H 0.5849 0.06301 0.17468 0.0
C248 C 0.60316 0.04409 0.18806 0.0
H249 H 0.6059 -0.00334 0.21904 0.0
H250 H 0.43662 0.98886 0.14797 0.0
H251 H 0.46917 0.97738 0.09469 0.0
H252 H 0.5377 0.9798 0.09194 0.0
H253 H 0.57411 -0.00611 0.14242 0.0
C254 C 0.58834 0.01489 0.20418 0.0
C255 C 0.54718 0.00997 0.20613 0.0
C256 C 0.52631 0.00125 0.17647 0.0
C257 C 0.48679 -0.00063 0.17817 0.0
C258 C 0.46667 0.99073 0.14813 0.0
C259 C 0.485 0.98398 0.11739 0.0
C260 C 0.52358 0.98539 0.11583 0.0
C261 C 0.54414 -0.00623 0.14496 0.0
H262 H 0.09228 0.44399 0.74904 0.0
C263 C 0.06515 0.43137 0.74517 0.0
H264 H 0.00722 0.44043 0.74369 0.0
H265 H 0.99385 0.59557 0.81114 0.0
H266 H 0.96703 0.5579 0.85642 0.0
H267 H 0.97275 0.49019 0.85495 0.0
H268 H 0.00487 0.45961 0.80813 0.0
C269 C 0.03453 0.45212 0.74882 0.0
C270 C 0.03663 0.49286 0.75263 0.0
C271 C 0.01876 0.51021 0.78067 0.0
C272 C 0.01571 0.54922 0.78176 0.0
C273 C 0.99668 0.56595 0.80929 0.0
C274 C 0.98136 0.5447 0.83539 0.0
C275 C 0.9846 0.50655 0.83456 0.0
C276 C 0.00302 0.48934 0.80756 0.0
H277 H 0.9718 0.5951 0.72518 0.0
C278 C 0.99152 0.6171 0.73073 0.0
H279 H 0.04201 0.63061 0.75533 0.0
H280 H 0.06791 0.46975 0.69134 0.0
H281 H 0.09804 0.50779 0.64934 0.0
H282 H 0.10021 0.57529 0.65607 0.0
H283 H 0.07092 0.60481 0.7047 0.0
C284 C 0.02073 0.60983 0.75096 0.0
C285 C 0.03131 0.57069 0.75532 0.0
C286 C 0.05196 0.55368 0.72886 0.0
C287 C 0.053 0.51471 0.72639 0.0
C288 C 0.06885 0.49885 0.69657 0.0
C289 C 0.0858 0.52055 0.67169 0.0
C290 C 0.08686 0.55851 0.67537 0.0
C291 C 0.06989 0.57506 0.70339 0.0
H292 H 0.61632 0.04383 0.7721 0.0
C293 C 0.63224 0.03518 0.79425 0.0
H294 H 0.62952 0.01778 0.84576 0.0
H295 H 0.46937 0.09215 0.86162 0.0
H296 H 0.50678 0.13156 0.89823 0.0
H297 H 0.57482 0.1236 0.90162 0.0
H298 H 0.60589 0.07613 0.8685 0.0
C299 C 0.61425 0.0258 0.82305 0.0
C300 C 0.57293 0.02731 0.82461 0.0
C301 C 0.55526 0.05482 0.84447 0.0
C302 C 0.51609 0.05959 0.8423 0.0
C303 C 0.49911 0.08759 0.86207 0.0
C304 C 0.52023 0.11032 0.88324 0.0
C305 C 0.55854 0.10582 0.88517 0.0
C306 C 0.57602 0.07849 0.86602 0.0
H307 H 0.43323 0.00013 0.84126 0.0
C308 C 0.42709 0.02446 0.82621 0.0
H309 H 0.44905 0.07056 0.80014 0.0
H310 H 0.59734 0.96729 0.78871 0.0
H311 H 0.56008 0.92758 0.75234 0.0
H312 H 0.49266 0.93795 0.74594 0.0
H313 H 0.46203 0.98759 0.77624 0.0
C314 C 0.45498 0.04558 0.81433 0.0
C315 C 0.49475 0.03676 0.82038 0.0
C316 C 0.51219 0.00792 0.80191 0.0
C317 C 0.55127 0.00279 0.80455 0.0
C318 C 0.56794 0.97316 0.78668 0.0
C319 C 0.54685 0.95003 0.76589 0.0
C320 C 0.50888 0.95581 0.76237 0.0
C321 C 0.49161 0.98439 0.78004 0.0
H322 H 0.97704 0.45738 0.25665 0.0
C323 C 0.99647 0.4362 0.24845 0.0
H324 H 0.03898 0.42213 0.21379 0.0
H325 H 0.94657 0.58485 0.21272 0.0
H326 H 0.89167 0.55097 0.19536 0.0
H327 H 0.89536 0.48482 0.18105 0.0
H328 H 0.9546 0.45204 0.18514 0.0
C329 C 0.01834 0.44243 0.2211 0.0
C330 C 0.02 0.48054 0.20689 0.0
C331 C 0.98654 0.50001 0.20126 0.0
C332 C 0.98489 0.53834 0.20838 0.0
C333 C 0.94995 0.55607 0.20681 0.0
C334 C 0.9181 0.53685 0.19685 0.0
C335 C 0.92015 0.49959 0.18881 0.0
C336 C 0.95397 0.48115 0.1912 0.0
H337 H 0.99348 0.62832 0.20871 0.0
C338 C 0.00275 0.62246 0.23451 0.0
H339 H 0.02556 0.58368 0.26828 0.0
H340 H 0.09086 0.4535 0.20352 0.0
H341 H 0.14794 0.48861 0.21185 0.0
H342 H 0.14578 0.55564 0.22247 0.0
H343 H 0.0863 0.58791 0.225 0.0
C344 C 0.01562 0.58891 0.24255 0.0
C345 C 0.0177 0.55701 0.21884 0.0
C346 C 0.05241 0.53901 0.21568 0.0
C347 C 0.05365 0.5005 0.20955 0.0
C348 C 0.08852 0.48268 0.20852 0.0
C349 C 0.1214 0.50257 0.21301 0.0
C350 C 0.12019 0.54033 0.21898 0.0
C351 C 0.08609 0.55847 0.22048 0.0
H352 H 0.12432 0.26377 0.22835 0.0
C353 C 0.13811 0.28614 0.24187 0.0
H354 H 0.18933 0.30715 0.25976 0.0
H355 H 0.24005 0.14096 0.27884 0.0
H356 H 0.24183 0.16453 0.33653 0.0
H357 H 0.22369 0.22857 0.34914 0.0
H358 H 0.20332 0.26923 0.30401 0.0
C359 C 0.17532 0.28569 0.24529 0.0
C360 C 0.19636 0.25184 0.23614 0.0
C361 C 0.21022 0.2291 0.2626 0.0
C362 C 0.22134 0.19236 0.2552 0.0
C363 C 0.2322 0.16934 0.28258 0.0
C364 C 0.2332 0.18249 0.316 0.0
C365 C 0.22295 0.21851 0.32311 0.0
C366 C 0.21132 0.24158 0.29689 0.0
H367 H 0.27759 0.13055 0.22401 0.0
C368 C 0.2512 0.11795 0.21711 0.0
H369 H 0.19432 0.12647 0.20631 0.0
H370 H 0.17963 0.29143 0.17912 0.0
H371 H 0.1814 0.26928 0.12041 0.0
H372 H 0.20119 0.20575 0.10731 0.0
H373 H 0.21942 0.16401 0.15278 0.0
C374 C 0.22052 0.13884 0.21414 0.0
C375 C 0.21955 0.17903 0.22113 0.0
C376 C 0.2097 0.20321 0.19431 0.0
C377 C 0.19812 0.2397 0.20182 0.0
C378 C 0.18803 0.26322 0.17465 0.0
C379 C 0.18913 0.25092 0.14093 0.0
C380 C 0.20028 0.21514 0.13355 0.0
C381 C 0.21048 0.19144 0.15984 0.0
H382 H 0.92585 0.27247 0.76222 0.0
C383 C 0.91354 0.29216 0.74468 0.0
H384 H 0.86411 0.3098 0.72077 0.0
H385 H 0.81082 0.14276 0.72693 0.0
H386 H 0.81184 0.15489 0.66622 0.0
H387 H 0.83161 0.21543 0.64418 0.0
H388 H 0.85067 0.2641 0.68284 0.0
C389 C 0.87667 0.29127 0.73915 0.0
C390 C 0.85442 0.25992 0.75266 0.0
C391 C 0.84153 0.23248 0.72972 0.0
C392 C 0.82972 0.19772 0.74246 0.0
C393 C 0.81943 0.16989 0.71886 0.0
C394 C 0.81998 0.17644 0.68384 0.0
C395 C 0.83114 0.21051 0.67143 0.0
C396 C 0.84202 0.23823 0.69395 0.0
H397 H 0.76999 0.14634 0.78533 0.0
C398 C 0.79609 0.13329 0.79222 0.0
H399 H 0.85406 0.14012 0.79861 0.0
H400 H 0.86855 0.30988 0.80313 0.0
H401 H 0.86436 0.29905 0.86437 0.0
H402 H 0.84414 0.23865 0.88659 0.0
H403 H 0.8278 0.18876 0.84776 0.0
C404 C 0.82795 0.15267 0.79103 0.0
C405 C 0.83014 0.19098 0.77813 0.0
C406 C 0.83908 0.21981 0.80108 0.0
C407 C 0.85104 0.25445 0.78832 0.0
C408 C 0.85999 0.28283 0.8117 0.0
C409 C 0.85749 0.27702 0.8468 0.0
C410 C 0.84608 0.24301 0.85931 0.0
C411 C 0.83696 0.2146 0.83682 0.0
H412 H 0.8528 0.75559 0.20365 0.0
C413 C 0.87692 0.76771 0.21609 0.0
H414 H 0.90179 0.81669 0.23416 0.0
H415 H 0.7937 0.90903 0.13467 0.0
H416 H 0.83288 0.88666 0.08822 0.0
H417 H 0.87885 0.83754 0.09813 0.0
H418 H 0.88587 0.81018 0.15439 0.0
C419 C 0.87893 0.80437 0.22003 0.0
C420 C 0.84701 0.82861 0.21193 0.0
C421 C 0.84313 0.84387 0.17894 0.0
C422 C 0.81707 0.87259 0.17338 0.0
C423 C 0.81369 0.88764 0.14025 0.0
C424 C 0.83581 0.87495 0.11345 0.0
C425 C 0.86169 0.84722 0.11902 0.0
C426 C 0.86548 0.83179 0.15137 0.0
H427 H 0.82973 0.94877 0.19286 0.0
C428 C 0.7999 0.95284 0.19581 0.0
H429 H 0.74809 0.92614 0.2028 0.0
H430 H 0.84323 0.8006 0.27668 0.0
H431 H 0.80202 0.82088 0.32214 0.0
H432 H 0.75705 0.871 0.31252 0.0
H433 H 0.75298 0.9011 0.25735 0.0
C434 C 0.77781 0.92318 0.19858 0.0
C435 C 0.79554 0.88628 0.201 0.0
C436 C 0.79656 0.86823 0.23297 0.0
C437 C 0.82254 0.83946 0.23852 0.0
C438 C 0.82408 0.82272 0.27112 0.0
C439 C 0.80055 0.83405 0.29741 0.0
C440 C 0.77523 0.86226 0.29199 0.0
C441 C 0.77322 0.87936 0.26024 0.0
H442 H 0.10447 0.79152 0.75756 0.0
C443 C 0.11794 0.76695 0.74758 0.0
H444 H 0.16892 0.73905 0.7408 0.0
H445 H 0.24665 0.89652 0.73439 0.0
H446 H 0.26028 0.87124 0.67861 0.0
H447 H 0.23683 0.80994 0.66188 0.0
H448 H 0.19933 0.77376 0.70088 0.0
C449 C 0.15478 0.76272 0.75172 0.0
C450 C 0.17733 0.79385 0.76532 0.0
C451 C 0.20083 0.81378 0.74282 0.0
C452 C 0.21487 0.84886 0.7527 0.0
C453 C 0.23598 0.86937 0.72876 0.0
C454 C 0.2439 0.85524 0.69647 0.0
C455 C 0.23067 0.82076 0.68704 0.0
C456 C 0.20916 0.80026 0.70972 0.0
H457 H 0.27097 0.89958 0.7976 0.0
C458 C 0.24662 0.91725 0.79839 0.0
H459 H 0.18806 0.9201 0.79493 0.0
H460 H 0.14061 0.75853 0.81681 0.0
H461 H 0.12961 0.78214 0.87414 0.0
H462 H 0.15392 0.84299 0.89148 0.0
H463 H 0.18948 0.88052 0.85168 0.0
C464 C 0.21263 0.90281 0.79321 0.0
C465 C 0.2061 0.8633 0.78544 0.0
C466 C 0.18585 0.8416 0.80908 0.0
C467 C 0.17158 0.80673 0.79906 0.0
C468 C 0.15137 0.78557 0.82308 0.0
C469 C 0.14509 0.79869 0.85605 0.0
C470 C 0.1588 0.83295 0.86581 0.0
C471 C 0.17899 0.85427 0.84272 0.0
H472 H 0.85299 0.93816 0.78602 0.0
C473 C 0.82402 0.93008 0.78911 0.0
H474 H 0.78492 0.88689 0.7833 0.0
H475 H 0.90726 0.83943 0.66834 0.0
H476 H 0.8705 0.88061 0.63355 0.0
H477 H 0.81924 0.91663 0.65881 0.0
H478 H 0.80489 0.91204 0.71919 0.0
C479 C 0.81388 0.89538 0.78194 0.0
C480 C 0.84133 0.86988 0.76634 0.0
C481 C 0.84829 0.87169 0.73074 0.0
C482 C 0.87685 0.84986 0.71595 0.0
C483 C 0.88481 0.85407 0.68071 0.0
C484 C 0.86413 0.87791 0.66045 0.0
C485 C 0.83535 0.89827 0.67469 0.0
C486 C 0.82747 0.89541 0.70941 0.0
H487 H 0.88704 0.77103 0.69154 0.0
C488 C 0.91613 0.77416 0.69861 0.0
H489 H 0.95447 0.8033 0.72943 0.0
H490 H 0.83434 0.85973 0.83509 0.0
H491 H 0.87013 0.81749 0.87005 0.0
H492 H 0.91836 0.77795 0.84425 0.0
H493 H 0.93131 0.7805 0.78346 0.0
C494 C 0.92581 0.80054 0.72101 0.0
C495 C 0.89724 0.82498 0.73658 0.0
C496 C 0.89 0.82298 0.77216 0.0
C497 C 0.86202 0.84555 0.78705 0.0
C498 C 0.85534 0.84316 0.8226 0.0
C499 C 0.87562 0.81901 0.8429 0.0
C500 C 0.90278 0.79676 0.82837 0.0
C501 C 0.90997 0.79854 0.79343 0.0
H502 H 0.17649 0.93014 0.22851 0.0
C503 C 0.20443 0.91885 0.23022 0.0
H504 H 0.23607 0.87118 0.24075 0.0
H505 H 0.08632 0.83137 0.32754 0.0
H506 H 0.11984 0.86427 0.37177 0.0
H507 H 0.17951 0.8951 0.35914 0.0
H508 H 0.20573 0.89359 0.30202 0.0
C509 C 0.20861 0.8831 0.2376 0.0
C510 C 0.17524 0.86046 0.24581 0.0
C511 C 0.16103 0.86037 0.27959 0.0
C512 C 0.12731 0.84149 0.28712 0.0
C513 C 0.11263 0.84383 0.32066 0.0
C514 C 0.13142 0.86294 0.34626 0.0
C515 C 0.16495 0.88039 0.33913 0.0
C516 C 0.17965 0.87933 0.30622 0.0
H517 H 0.10483 0.76319 0.3014 0.0
C518 C 0.07789 0.76971 0.29036 0.0
H519 H 0.04893 0.8052 0.25706 0.0
H520 H 0.19509 0.85537 0.17866 0.0
H521 H 0.16204 0.82189 0.13425 0.0
H522 H 0.10453 0.78751 0.14749 0.0
H523 H 0.07951 0.78655 0.20508 0.0
C524 C 0.07514 0.79882 0.26946 0.0
C525 C 0.10868 0.82136 0.26111 0.0
C526 C 0.1229 0.82157 0.22729 0.0
C527 C 0.15621 0.84119 0.21965 0.0
C528 C 0.16985 0.84095 0.18574 0.0
C529 C 0.15122 0.8218 0.16006 0.0
C530 C 0.11883 0.80244 0.16752 0.0
C531 C 0.10474 0.80215 0.2007 0.0
H532 H 0.0952 0.23901 0.73432 0.0
C533 C 0.11245 0.25891 0.72088 0.0
H534 H 0.16705 0.27337 0.70575 0.0
H535 H 0.19767 0.15353 0.83081 0.0
H536 H 0.17241 0.20021 0.86867 0.0
H537 H 0.1455 0.25738 0.84556 0.0
H538 H 0.14325 0.268 0.78446 0.0
C539 C 0.1495 0.25429 0.71985 0.0
C540 C 0.16728 0.22094 0.73431 0.0
C541 C 0.16922 0.21571 0.77014 0.0
C542 C 0.18582 0.18331 0.78352 0.0
C543 C 0.18626 0.17808 0.81933 0.0
C544 C 0.17172 0.20459 0.84134 0.0
C545 C 0.15648 0.23674 0.82833 0.0
C546 C 0.1552 0.24241 0.79318 0.0
H547 H 0.26619 0.15025 0.79383 0.0
C548 C 0.25255 0.12394 0.78932 0.0
H549 H 0.20591 0.09673 0.76827 0.0
H550 H 0.16814 0.22267 0.66433 0.0
H551 H 0.19494 0.17683 0.62661 0.0
H552 H 0.2252 0.12141 0.64985 0.0
H553 H 0.2287 0.11146 0.71094 0.0
C554 C 0.21893 0.12293 0.77448 0.0
C555 C 0.20125 0.15679 0.76102 0.0
C556 C 0.19964 0.16223 0.72522 0.0
C557 C 0.18263 0.19435 0.71185 0.0
C558 C 0.1811 0.19896 0.67595 0.0
C559 C 0.19632 0.17281 0.65396 0.0
C560 C 0.21331 0.1416 0.66704 0.0
C561 C 0.21505 0.13621 0.7022 0.0
H562 H 0.94699 0.25233 0.26995 0.0
C563 C 0.93497 0.27478 0.28466 0.0
H564 H 0.88554 0.29801 0.30449 0.0
H565 H 0.82472 0.18244 0.18399 0.0
H566 H 0.85384 0.2242 0.14352 0.0
H567 H 0.89102 0.27718 0.16356 0.0
H568 H 0.89968 0.28853 0.22412 0.0
C569 C 0.8979 0.27617 0.28926 0.0
C570 C 0.87301 0.24631 0.27673 0.0
C571 C 0.86753 0.2407 0.24122 0.0
C572 C 0.84541 0.21065 0.22964 0.0
C573 C 0.84107 0.20503 0.1941 0.0
C574 C 0.85756 0.2288 0.17062 0.0
C575 C 0.87854 0.2586 0.18191 0.0
C576 C 0.88349 0.26468 0.21675 0.0
H577 H 0.75606 0.17724 0.23696 0.0
C578 C 0.7724 0.15218 0.23502 0.0
H579 H 0.82539 0.1279 0.24107 0.0
H580 H 0.8758 0.25078 0.34659 0.0
H581 H 0.8447 0.21037 0.38679 0.0
H582 H 0.80566 0.15881 0.36658 0.0
H583 H 0.79749 0.14739 0.30598 0.0
C584 C 0.80904 0.15298 0.24177 0.0
C585 C 0.82828 0.18684 0.25357 0.0
C586 C 0.83237 0.19342 0.28903 0.0
C587 C 0.8547 0.22324 0.30065 0.0
C588 C 0.85888 0.22875 0.33627 0.0
C589 C 0.84125 0.2057 0.35967 0.0
C590 C 0.81929 0.17666 0.34829 0.0
C591 C 0.81486 0.1704 0.31343 0.0
loop_
_geom_bond_atom_site_label_1
_geom_bond_atom_site_label_2
_geom_bond_distance
_geom_bond_site_symmetry_2
_ccdc_geom_bond_type
Mg0 O1 2.028 . S
Mg0 O7 1.986 . S
Mg0 O9 2.114 1_545 S
Mg0 O10 2.251 1_545 S
Mg0 O13 2.010 . S
O1 Mg0 2.028 . S
O1 C4 1.250 . S
O2 Mg3 2.028 . S
O2 C4 1.248 . S
Mg3 O2 2.028 . S
Mg3 O8 2.032 . S
Mg3 O10 2.079 1_545 S
C4 O1 1.250 . S
C4 O2 1.248 . S
C5 O6 1.264 . S
C5 O13 1.249 . S
O6 C5 1.264 . S
O7 Mg0 1.986 . S
O7 C11 1.246 . S
O8 Mg3 2.032 . S
O8 C11 1.259 . S
O9 Mg0 2.114 1_565 S
O9 C12 1.252 . S
O10 Mg0 2.251 1_565 S
O10 Mg3 2.079 1_565 S
O10 C12 1.273 . S
C11 O7 1.246 . S
C11 O8 1.259 . S
C12 O9 1.252 . S
C12 O10 1.273 . S
O13 Mg0 2.010 . S
O13 C5 1.249 . S
Mg14 O15 2.028 1_655 S
Mg14 O21 1.986 . S
Mg14 O23 2.114 . S
Mg14 O24 2.251 1_655 S
Mg14 O27 2.010 . S
O15 Mg14 2.028 1_455 S
O15 C18 1.250 . S
O16 Mg17 2.028 . S
O16 C18 1.248 . S
Mg17 O16 2.028 . S
Mg17 O22 2.032 . S
Mg17 O24 2.079 . S
C18 O15 1.250 . S
C18 O16 1.248 . S
C19 O20 1.264 . S
C19 O27 1.249 . S
O20 C19 1.264 . S
O21 Mg14 1.986 . S
O21 C25 1.246 1_655 S
O22 Mg17 2.032 . S
O22 C25 1.259 . S
O23 Mg14 2.114 . S
O23 C26 1.252 1_655 S
O24 Mg14 2.251 1_455 S
O24 Mg17 2.079 . S
O24 C26 1.273 . S
C25 O21 1.246 1_455 S
C25 O22 1.259 . S
C26 O23 1.252 1_455 S
C26 O24 1.273 . S
O27 Mg14 2.010 . S
O27 C19 1.249 . S
Mg28 O29 2.028 . S
Mg28 O35 1.986 1_545 S
Mg28 O37 2.114 . S
Mg28 O38 2.251 . S
Mg28 O41 2.010 . S
O29 Mg28 2.028 . S
O29 C32 1.250 . S
O30 Mg31 2.028 . S
O30 C32 1.248 . S
Mg31 O30 2.028 . S
Mg31 O36 2.032 1_545 S
Mg31 O38 2.079 . S
C32 O29 1.250 . S
C32 O30 1.248 . S
C33 O34 1.264 . S
C33 O41 1.249 . S
O34 C33 1.264 . S
O35 Mg28 1.986 1_565 S
O35 C39 1.246 . S
O36 Mg31 2.032 1_565 S
O36 C39 1.259 . S
O37 Mg28 2.114 . S
O37 C40 1.252 . S
O38 Mg28 2.251 . S
O38 Mg31 2.079 . S
O38 C40 1.273 . S
C39 O35 1.246 . S
C39 O36 1.259 . S
C40 O37 1.252 . S
C40 O38 1.273 . S
O41 Mg28 2.010 . S
O41 C33 1.249 . S
Mg42 O43 2.028 1_455 S
Mg42 O49 1.986 . S
Mg42 O51 2.114 . S
Mg42 O52 2.251 1_455 S
Mg42 O55 2.010 . S
O43 Mg42 2.028 1_655 S
O43 C46 1.250 . S
O44 Mg45 2.028 . S
O44 C46 1.248 . S
Mg45 O44 2.028 . S
Mg45 O50 2.032 . S
Mg45 O52 2.079 . S
C46 O43 1.250 . S
C46 O44 1.248 . S
C47 O48 1.264 . S
C47 O55 1.249 . S
O48 C47 1.264 . S
O49 Mg42 1.986 . S
O49 C53 1.246 . S
O50 Mg45 2.032 . S
O50 C53 1.259 1_655 S
O51 Mg42 2.114 . S
O51 C54 1.252 . S
O52 Mg42 2.251 1_655 S
O52 Mg45 2.079 . S
O52 C54 1.273 1_655 S
C53 O49 1.246 . S
C53 O50 1.259 1_455 S
C54 O51 1.252 . S
C54 O52 1.273 1_455 S
O55 Mg42 2.010 . S
O55 C47 1.249 . S
Mg56 O57 2.028 . S
Mg56 O63 1.986 1_545 S
Mg56 O65 2.114 . S
Mg56 O66 2.251 . S
Mg56 O69 2.010 . S
O57 Mg56 2.028 . S
O57 C60 1.250 . S
O58 Mg59 2.028 . S
O58 C60 1.248 . S
Mg59 O58 2.028 . S
Mg59 O64 2.032 1_545 S
Mg59 O66 2.079 . S
C60 O57 1.250 . S
C60 O58 1.248 . S
C61 O62 1.264 . S
C61 O69 1.249 . S
O62 C61 1.264 . S
O63 Mg56 1.986 1_565 S
O63 C67 1.246 . S
O64 Mg59 2.032 1_565 S
O64 C67 1.259 . S
O65 Mg56 2.114 . S
O65 C68 1.252 . S
O66 Mg56 2.251 . S
O66 Mg59 2.079 . S
O66 C68 1.273 . S
C67 O63 1.246 . S
C67 O64 1.259 . S
C68 O65 1.252 . S
C68 O66 1.273 . S
O69 Mg56 2.010 . S
O69 C61 1.249 . S
Mg70 O71 2.028 1_455 S
Mg70 O77 1.986 . S
Mg70 O79 2.114 . S
Mg70 O80 2.251 1_455 S
Mg70 O83 2.010 . S
O71 Mg70 2.028 1_655 S
O71 C74 1.250 . S
O72 Mg73 2.028 . S
O72 C74 1.248 . S
Mg73 O72 2.028 . S
Mg73 O78 2.032 . S
Mg73 O80 2.079 . S
C74 O71 1.250 . S
C74 O72 1.248 . S
C75 O76 1.264 . S
C75 O83 1.249 . S
O76 C75 1.264 . S
O77 Mg70 1.986 . S
O77 C81 1.246 . S
O78 Mg73 2.032 . S
O78 C81 1.259 1_655 S
O79 Mg70 2.114 . S
O79 C82 1.252 . S
O80 Mg70 2.251 1_655 S
O80 Mg73 2.079 . S
O80 C82 1.273 1_655 S
C81 O77 1.246 . S
C81 O78 1.259 1_455 S
C82 O79 1.252 . S
C82 O80 1.273 1_455 S
O83 Mg70 2.010 . S
O83 C75 1.249 . S
Mg84 O85 2.028 . S
Mg84 O91 1.986 . S
Mg84 O93 2.114 1_545 S
Mg84 O94 2.251 1_545 S
Mg84 O97 2.010 . S
O85 Mg84 2.028 . S
O85 C88 1.250 . S
O86 Mg87 2.028 . S
O86 C88 1.248 . S
Mg87 O86 2.028 . S
Mg87 O92 2.032 . S
Mg87 O94 2.079 1_545 S
C88 O85 1.250 . S
C88 O86 1.248 . S
C89 O90 1.264 . S
C89 O97 1.249 . S
O90 C89 1.264 . S
O91 Mg84 1.986 . S
O91 C95 1.246 . S
O92 Mg87 2.032 . S
O92 C95 1.259 . S
O93 Mg84 2.114 1_565 S
O93 C96 1.252 . S
O94 Mg84 2.251 1_565 S
O94 Mg87 2.079 1_565 S
O94 C96 1.273 . S
C95 O91 1.246 . S
C95 O92 1.259 . S
C96 O93 1.252 . S
C96 O94 1.273 . S
O97 Mg84 2.010 . S
O97 C89 1.249 . S
Mg98 O99 2.028 1_655 S
Mg98 O105 1.986 . S
Mg98 O107 2.114 . S
Mg98 O108 2.251 1_655 S
Mg98 O111 2.010 . S
O99 Mg98 2.028 1_455 S
O99 C102 1.250 . S
O100 Mg101 2.028 . S
O100 C102 1.248 . S
Mg101 O100 2.028 . S
Mg101 O106 2.032 . S
Mg101 O108 2.079 . S
C102 O99 1.250 . S
C102 O100 1.248 . S
C103 O104 1.264 . S
C103 O111 1.249 . S
O104 C103 1.264 . S
O105 Mg98 1.986 . S
O105 C109 1.246 1_655 S
O106 Mg101 2.032 . S
O106 C109 1.259 . S
O107 Mg98 2.114 . S
O107 C110 1.252 1_655 S
O108 Mg98 2.251 1_455 S
O108 Mg101 2.079 . S
O108 C110 1.273 . S
C109 O105 1.246 1_455 S
C109 O106 1.259 . S
C110 O107 1.252 1_455 S
C110 O108 1.273 . S
O111 Mg98 2.010 . S
O111 C103 1.249 . S
H112 C113 0.951 . S
C113 H112 0.951 . S
C113 C119 1.265 . S
H114 C119 0.950 . S
H115 C123 0.949 . S
H116 C124 0.950 . S
H117 C125 0.951 . S
H118 C126 0.951 . S
C119 C113 1.265 . S
C119 H114 0.950 . S
C119 C120 1.478 . S
C120 C119 1.478 . S
C120 C121 1.397 . S
C120 C137 1.392 1_545 S
C121 C120 1.397 . S
C121 C122 1.438 1_554 S
C121 C126 1.429 . S
C122 C121 1.438 1_556 S
C122 C123 1.428 . S
C122 C135 1.394 . S
C123 H115 0.949 . S
C123 C122 1.428 . S
C123 C124 1.345 . S
C124 H116 0.950 . S
C124 C123 1.345 . S
C124 C125 1.424 1_556 S
C125 H117 0.951 . S
C125 C124 1.424 1_554 S
C125 C126 1.347 . S
C126 H118 0.951 . S
C126 C121 1.429 . S
C126 C125 1.347 . S
H127 C128 0.951 . S
C128 H127 0.951 . S
C128 C134 1.265 . S
H129 C134 0.950 . S
H130 C138 0.949 . S
H131 C139 0.950 . S
H132 C140 0.951 . S
H133 C141 0.951 . S
C134 C128 1.265 . S
C134 H129 0.950 . S
C134 C135 1.478 . S
C135 C122 1.394 . S
C135 C134 1.478 . S
C135 C136 1.397 . S
C136 C135 1.397 . S
C136 C137 1.438 1_546 S
C136 C141 1.429 1_545 S
C137 C120 1.392 1_565 S
C137 C136 1.438 1_564 S
C137 C138 1.430 . S
C138 H130 0.949 . S
C138 C137 1.430 . S
C138 C139 1.345 . S
C139 H131 0.950 . S
C139 C138 1.345 . S
C139 C140 1.424 1_554 S
C140 H132 0.951 . S
C140 C139 1.424 1_556 S
C140 C141 1.347 . S
C141 H133 0.951 . S
C141 C136 1.429 1_565 S
C141 C140 1.347 . S
H142 C143 0.951 . S
C143 H142 0.951 . S
C143 C149 1.265 1_455 S
H144 C149 0.950 . S
H145 C153 0.951 . S
H146 C154 0.950 . S
H147 C155 0.951 . S
H148 C156 0.951 . S
C149 C143 1.265 1_655 S
C149 H144 0.950 . S
C149 C150 1.478 1_655 S
C150 C149 1.478 1_455 S
C150 C151 1.396 1_455 S
C150 C167 1.394 . S
C151 C150 1.396 1_655 S
C151 C152 1.437 1_655 S
C151 C156 1.431 . S
C152 C151 1.437 1_455 S
C152 C153 1.429 . S
C152 C165 1.394 . S
C153 H145 0.951 . S
C153 C152 1.429 . S
C153 C154 1.341 1_455 S
C154 H146 0.950 . S
C154 C153 1.341 1_655 S
C154 C155 1.424 . S
C155 H147 0.951 . S
C155 C154 1.424 . S
C155 C156 1.347 . S
C156 H148 0.951 . S
C156 C151 1.431 . S
C156 C155 1.347 . S
H157 C158 0.951 1_655 S
C158 H157 0.951 1_455 S
C158 C164 1.265 . S
H159 C164 0.950 . S
H160 C168 0.949 . S
H161 C169 0.950 . S
H162 C170 0.951 . S
H163 C171 0.951 . S
C164 C158 1.265 . S
C164 H159 0.950 . S
C164 C165 1.478 . S
C165 C152 1.394 . S
C165 C164 1.478 . S
C165 C166 1.397 . S
C166 C165 1.397 . S
C166 C167 1.438 . S
C166 C171 1.429 . S
C167 C150 1.394 . S
C167 C166 1.438 . S
C167 C168 1.428 . S
C168 H160 0.949 . S
C168 C167 1.428 . S
C168 C169 1.345 . S
C169 H161 0.950 . S
C169 C168 1.345 . S
C169 C170 1.424 . S
C170 H162 0.951 . S
C170 C169 1.424 . S
C170 C171 1.347 . S
C171 H163 0.951 . S
C171 C166 1.429 . S
C171 C170 1.347 . S
H172 C173 0.951 . S
C173 H172 0.951 . S
C173 C179 1.265 . S
H174 C179 0.950 . S
H175 C183 0.949 . S
H176 C184 0.950 . S
H177 C185 0.951 . S
H178 C186 0.951 . S
C179 C173 1.265 . S
C179 H174 0.950 . S
C179 C180 1.478 . S
C180 C179 1.478 . S
C180 C181 1.397 . S
C180 C197 1.394 . S
C181 C180 1.397 . S
C181 C182 1.438 1_556 S
C181 C186 1.429 1_545 S
C182 C181 1.438 1_554 S
C182 C183 1.428 1_545 S
C182 C195 1.394 . S
C183 H175 0.949 . S
C183 C182 1.428 1_565 S
C183 C184 1.345 . S
C184 H176 0.950 . S
C184 C183 1.345 . S
C184 C185 1.424 1_554 S
C185 H177 0.951 . S
C185 C184 1.424 1_556 S
C185 C186 1.347 . S
C186 H178 0.951 . S
C186 C181 1.429 1_565 S
C186 C185 1.347 . S
H187 C188 0.951 . S
C188 H187 0.951 . S
C188 C194 1.265 . S
H189 C194 0.950 . S
H190 C198 0.949 . S
H191 C199 0.950 . S
H192 C200 0.951 . S
H193 C201 0.951 . S
C194 C188 1.265 . S
C194 H189 0.950 . S
C194 C195 1.478 . S
C195 C182 1.394 . S
C195 C194 1.478 . S
C195 C196 1.397 . S
C196 C195 1.397 . S
C196 C197 1.438 1_554 S
C196 C201 1.429 . S
C197 C180 1.394 . S
C197 C196 1.438 1_556 S
C197 C198 1.428 . S
C198 H190 0.949 . S
C198 C197 1.428 . S
C198 C199 1.345 . S
C199 H191 0.950 . S
C199 C198 1.345 . S
C199 C200 1.424 1_556 S
C200 H192 0.951 . S
C200 C199 1.424 1_554 S
C200 C201 1.347 . S
C201 H193 0.951 . S
C201 C196 1.429 . S
C201 C200 1.347 . S
H202 C203 0.951 1_655 S
C203 H202 0.951 1_455 S
C203 C209 1.265 . S
H204 C209 0.950 . S
H205 C213 0.949 . S
H206 C214 0.950 . S
H207 C215 0.951 . S
H208 C216 0.951 . S
C209 C203 1.265 . S
C209 H204 0.950 . S
C209 C210 1.478 . S
C210 C209 1.478 . S
C210 C211 1.397 . S
C210 C227 1.394 . S
C211 C210 1.397 . S
C211 C212 1.438 . S
C211 C216 1.429 . S
C212 C211 1.438 . S
C212 C213 1.428 . S
C212 C225 1.394 . S
C213 H205 0.949 . S
C213 C212 1.428 . S
C213 C214 1.345 . S
C214 H206 0.950 . S
C214 C213 1.345 . S
C214 C215 1.424 . S
C215 H207 0.951 . S
C215 C214 1.424 . S
C215 C216 1.347 . S
C216 H208 0.951 . S
C216 C211 1.429 . S
C216 C215 1.347 . S
H217 C218 0.951 . S
C218 H217 0.951 . S
C218 C224 1.265 1_455 S
H219 C224 0.950 . S
H220 C228 0.949 . S
H221 C229 0.950 . S
H222 C230 0.951 . S
H223 C231 0.951 . S
C224 C218 1.265 1_655 S
C224 H219 0.950 . S
C224 C225 1.478 1_655 S
C225 C212 1.394 . S
C225 C224 1.478 1_455 S
C225 C226 1.397 . S
C226 C225 1.397 . S
C226 C227 1.438 . S
C226 C231 1.429 1_455 S
C227 C210 1.394 . S
C227 C226 1.438 . S
C227 C228 1.428 . S
C228 H220 0.949 . S
C228 C227 1.428 . S
C228 C229 1.345 1_455 S
C229 H221 0.950 . S
C229 C228 1.345 1_655 S
C229 C230 1.424 . S
C230 H222 0.951 . S
C230 C229 1.424 . S
C230 C231 1.347 . S
C231 H223 0.951 . S
C231 C226 1.429 1_655 S
C231 C230 1.347 . S
H232 C233 0.951 1_565 S
C233 H232 0.951 1_545 S
C233 C239 1.265 . S
H234 C239 0.950 . S
H235 C243 0.949 . S
H236 C244 0.950 . S
H237 C245 0.951 . S
H238 C246 0.951 . S
C239 C233 1.265 . S
C239 H234 0.950 . S
C239 C240 1.478 . S
C240 C239 1.478 . S
C240 C241 1.397 . S
C240 C257 1.394 . S
C241 C240 1.397 . S
C241 C242 1.438 . S
C241 C246 1.429 . S
C242 C241 1.438 . S
C242 C243 1.428 . S
C242 C255 1.394 . S
C243 H235 0.949 . S
C243 C242 1.428 . S
C243 C244 1.345 . S
C244 H236 0.950 . S
C244 C243 1.345 . S
C244 C245 1.424 . S
C245 H237 0.951 . S
C245 C244 1.424 . S
C245 C246 1.347 . S
C246 H238 0.951 . S
C246 C241 1.429 . S
C246 C245 1.347 . S
H247 C248 0.951 . S
C248 H247 0.951 . S
C248 C254 1.265 . S
H249 C254 0.950 1_565 S
H250 C258 0.949 1_545 S
H251 C259 0.950 . S
H252 C260 0.951 . S
H253 C261 0.951 . S
C254 C248 1.265 . S
C254 H249 0.950 1_545 S
C254 C255 1.478 . S
C255 C242 1.394 . S
C255 C254 1.478 . S
C255 C256 1.397 . S
C256 C255 1.397 . S
C256 C257 1.438 . S
C256 C261 1.429 1_545 S
C257 C240 1.394 . S
C257 C256 1.438 . S
C257 C258 1.428 1_545 S
C258 H250 0.949 1_565 S
C258 C257 1.428 1_565 S
C258 C259 1.345 . S
C259 H251 0.950 . S
C259 C258 1.345 . S
C259 C260 1.424 . S
C260 H252 0.951 . S
C260 C259 1.424 . S
C260 C261 1.347 . S
C261 H253 0.951 . S
C261 C256 1.429 1_565 S
C261 C260 1.347 . S
H262 C263 0.951 . S
C263 H262 0.951 . S
C263 C269 1.265 1_455 S
H264 C269 0.950 . S
H265 C273 0.949 . S
H266 C274 0.950 . S
H267 C275 0.951 . S
H268 C276 0.951 . S
C269 C263 1.265 1_655 S
C269 H264 0.950 . S
C269 C270 1.478 1_655 S
C270 C269 1.478 1_455 S
C270 C271 1.397 . S
C270 C287 1.394 . S
C271 C270 1.397 . S
C271 C272 1.438 . S
C271 C276 1.429 1_455 S
C272 C271 1.438 . S
C272 C273 1.428 . S
C272 C285 1.394 . S
C273 H265 0.949 . S
C273 C272 1.428 . S
C273 C274 1.345 1_455 S
C274 H266 0.950 . S
C274 C273 1.345 1_655 S
C274 C275 1.424 . S
C275 H267 0.951 . S
C275 C274 1.424 . S
C275 C276 1.347 . S
C276 H268 0.951 . S
C276 C271 1.429 1_655 S
C276 C275 1.347 . S
H277 C278 0.951 1_655 S
C278 H277 0.951 1_455 S
C278 C284 1.265 . S
H279 C284 0.950 . S
H280 C288 0.949 . S
H281 C289 0.950 . S
H282 C290 0.951 . S
H283 C291 0.951 . S
C284 C278 1.265 . S
C284 H279 0.950 . S
C284 C285 1.478 . S
C285 C272 1.394 . S
C285 C284 1.478 . S
C285 C286 1.397 . S
C286 C285 1.397 . S
C286 C287 1.438 . S
C286 C291 1.429 . S
C287 C270 1.394 . S
C287 C286 1.438 . S
C287 C288 1.428 . S
C288 H280 0.949 . S
C288 C287 1.428 . S
C288 C289 1.345 . S
C289 H281 0.950 . S
C289 C288 1.345 . S
C289 C290 1.424 . S
C290 H282 0.951 . S
C290 C289 1.424 . S
C290 C291 1.347 . S
C291 H283 0.951 . S
C291 C286 1.429 . S
C291 C290 1.347 . S
H292 C293 0.951 . S
C293 H292 0.951 . S
C293 C299 1.265 . S
H294 C299 0.950 . S
H295 C303 0.949 . S
H296 C304 0.950 . S
H297 C305 0.951 . S
H298 C306 0.951 . S
C299 C293 1.265 . S
C299 H294 0.950 . S
C299 C300 1.478 . S
C300 C299 1.478 . S
C300 C301 1.397 . S
C300 C317 1.394 . S
C301 C300 1.397 . S
C301 C302 1.438 . S
C301 C306 1.429 . S
C302 C301 1.438 . S
C302 C303 1.428 . S
C302 C315 1.394 . S
C303 H295 0.949 . S
C303 C302 1.428 . S
C303 C304 1.345 . S
C304 H296 0.950 . S
C304 C303 1.345 . S
C304 C305 1.424 . S
C305 H297 0.951 . S
C305 C304 1.424 . S
C305 C306 1.347 . S
C306 H298 0.951 . S
C306 C301 1.429 . S
C306 C305 1.347 . S
H307 C308 0.951 . S
C308 H307 0.951 . S
C308 C314 1.265 . S
H309 C314 0.950 . S
H310 C318 0.949 . S
H311 C319 0.950 . S
H312 C320 0.951 . S
H313 C321 0.951 . S
C314 C308 1.265 . S
C314 H309 0.950 . S
C314 C315 1.478 . S
C315 C302 1.394 . S
C315 C314 1.478 . S
C315 C316 1.397 . S
C316 C315 1.397 . S
C316 C317 1.438 . S
C316 C321 1.429 1_545 S
C317 C300 1.394 . S
C317 C316 1.438 . S
C317 C318 1.428 1_545 S
C318 H310 0.949 . S
C318 C317 1.428 1_565 S
C318 C319 1.345 . S
C319 H311 0.950 . S
C319 C318 1.345 . S
C319 C320 1.424 . S
C320 H312 0.951 . S
C320 C319 1.424 . S
C320 C321 1.347 . S
C321 H313 0.951 . S
C321 C316 1.429 1_565 S
C321 C320 1.347 . S
H322 C323 0.951 . S
C323 H322 0.951 . S
C323 C329 1.265 . S
H324 C329 0.950 . S
H325 C333 0.949 . S
H326 C334 0.950 . S
H327 C335 0.951 . S
H328 C336 0.951 . S
C329 C323 1.265 . S
C329 H324 0.950 . S
C329 C330 1.478 . S
C330 C329 1.478 . S
C330 C331 1.397 1_455 S
C330 C347 1.394 . S
C331 C330 1.397 1_655 S
C331 C332 1.438 . S
C331 C336 1.429 . S
C332 C331 1.438 . S
C332 C333 1.428 . S
C332 C345 1.394 1_655 S
C333 H325 0.949 . S
C333 C332 1.428 . S
C333 C334 1.345 . S
C334 H326 0.950 . S
C334 C333 1.345 . S
C334 C335 1.424 . S
C335 H327 0.951 . S
C335 C334 1.424 . S
C335 C336 1.347 . S
C336 H328 0.951 . S
C336 C331 1.429 . S
C336 C335 1.347 . S
H337 C338 0.951 . S
C338 H337 0.951 . S
C338 C344 1.265 . S
H339 C344 0.950 . S
H340 C348 0.949 . S
H341 C349 0.950 . S
H342 C350 0.951 . S
H343 C351 0.951 . S
C344 C338 1.265 . S
C344 H339 0.950 . S
C344 C345 1.478 . S
C345 C332 1.394 1_455 S
C345 C344 1.478 . S
C345 C346 1.397 . S
C346 C345 1.397 . S
C346 C347 1.438 . S
C346 C351 1.429 . S
C347 C330 1.394 . S
C347 C346 1.438 . S
C347 C348 1.428 . S
C348 H340 0.949 . S
C348 C347 1.428 . S
C348 C349 1.345 . S
C349 H341 0.950 . S
C349 C348 1.345 . S
C349 C350 1.424 . S
C350 H342 0.951 . S
C350 C349 1.424 . S
C350 C351 1.347 . S
C351 H343 0.951 . S
C351 C346 1.429 . S
C351 C350 1.347 . S
H352 C353 0.951 . S
C353 H352 0.951 . S
C353 C359 1.265 . S
H354 C359 0.950 . S
H355 C363 0.949 . S
H356 C364 0.950 . S
H357 C365 0.951 . S
H358 C366 0.951 . S
C359 C353 1.265 . S
C359 H354 0.950 . S
C359 C360 1.478 . S
C360 C359 1.478 . S
C360 C361 1.397 . S
C360 C377 1.394 . S
C361 C360 1.397 . S
C361 C362 1.438 . S
C361 C366 1.429 . S
C362 C361 1.438 . S
C362 C363 1.428 . S
C362 C375 1.394 . S
C363 H355 0.949 . S
C363 C362 1.428 . S
C363 C364 1.345 . S
C364 H356 0.950 . S
C364 C363 1.345 . S
C364 C365 1.424 . S
C365 H357 0.951 . S
C365 C364 1.424 . S
C365 C366 1.347 . S
C366 H358 0.951 . S
C366 C361 1.429 . S
C366 C365 1.347 . S
H367 C368 0.951 . S
C368 H367 0.951 . S
C368 C374 1.265 . S
H369 C374 0.950 . S
H370 C378 0.949 . S
H371 C379 0.950 . S
H372 C380 0.951 . S
H373 C381 0.951 . S
C374 C368 1.265 . S
C374 H369 0.950 . S
C374 C375 1.478 . S
C375 C362 1.394 . S
C375 C374 1.478 . S
C375 C376 1.397 . S
C376 C375 1.397 . S
C376 C377 1.438 . S
C376 C381 1.429 . S
C377 C360 1.394 . S
C377 C376 1.438 . S
C377 C378 1.428 . S
C378 H370 0.949 . S
C378 C377 1.428 . S
C378 C379 1.345 . S
C379 H371 0.950 . S
C379 C378 1.345 . S
C379 C380 1.424 . S
C380 H372 0.951 . S
C380 C379 1.424 . S
C380 C381 1.347 . S
C381 H373 0.951 . S
C381 C376 1.429 . S
C381 C380 1.347 . S
H382 C383 0.951 . S
C383 H382 0.951 . S
C383 C389 1.265 . S
H384 C389 0.950 . S
H385 C393 0.949 . S
H386 C394 0.950 . S
H387 C395 0.951 . S
H388 C396 0.951 . S
C389 C383 1.265 . S
C389 H384 0.950 . S
C389 C390 1.478 . S
C390 C389 1.478 . S
C390 C391 1.397 . S
C390 C407 1.394 . S
C391 C390 1.397 . S
C391 C392 1.438 . S
C391 C396 1.429 . S
C392 C391 1.438 . S
C392 C393 1.428 . S
C392 C405 1.394 . S
C393 H385 0.949 . S
C393 C392 1.428 . S
C393 C394 1.345 . S
C394 H386 0.950 . S
C394 C393 1.345 . S
C394 C395 1.424 . S
C395 H387 0.951 . S
C395 C394 1.424 . S
C395 C396 1.347 . S
C396 H388 0.951 . S
C396 C391 1.429 . S
C396 C395 1.347 . S
H397 C398 0.951 . S
C398 H397 0.951 . S
C398 C404 1.265 . S
H399 C404 0.950 . S
H400 C408 0.949 . S
H401 C409 0.950 . S
H402 C410 0.951 . S
H403 C411 0.951 . S
C404 C398 1.265 . S
C404 H399 0.950 . S
C404 C405 1.478 . S
C405 C392 1.394 . S
C405 C404 1.478 . S
C405 C406 1.397 . S
C406 C405 1.397 . S
C406 C407 1.438 . S
C406 C411 1.429 . S
C407 C390 1.394 . S
C407 C406 1.438 . S
C407 C408 1.428 . S
C408 H400 0.949 . S
C408 C407 1.428 . S
C408 C409 1.345 . S
C409 H401 0.950 . S
C409 C408 1.345 . S
C409 C410 1.424 . S
C410 H402 0.951 . S
C410 C409 1.424 . S
C410 C411 1.347 . S
C411 H403 0.951 . S
C411 C406 1.429 . S
C411 C410 1.347 . S
H412 C413 0.951 . S
C413 H412 0.951 . S
C413 C419 1.265 . S
H414 C419 0.950 . S
H415 C423 0.949 . S
H416 C424 0.950 . S
H417 C425 0.951 . S
H418 C426 0.951 . S
C419 C413 1.265 . S
C419 H414 0.950 . S
C419 C420 1.478 . S
C420 C419 1.478 . S
C420 C421 1.397 . S
C420 C437 1.394 . S
C421 C420 1.397 . S
C421 C422 1.438 . S
C421 C426 1.429 . S
C422 C421 1.438 . S
C422 C423 1.428 . S
C422 C435 1.394 . S
C423 H415 0.949 . S
C423 C422 1.428 . S
C423 C424 1.345 . S
C424 H416 0.950 . S
C424 C423 1.345 . S
C424 C425 1.424 . S
C425 H417 0.951 . S
C425 C424 1.424 . S
C425 C426 1.347 . S
C426 H418 0.951 . S
C426 C421 1.429 . S
C426 C425 1.347 . S
H427 C428 0.951 . S
C428 H427 0.951 . S
C428 C434 1.265 . S
H429 C434 0.950 . S
H430 C438 0.949 . S
H431 C439 0.950 . S
H432 C440 0.951 . S
H433 C441 0.951 . S
C434 C428 1.265 . S
C434 H429 0.950 . S
C434 C435 1.478 . S
C435 C422 1.394 . S
C435 C434 1.478 . S
C435 C436 1.397 . S
C436 C435 1.397 . S
C436 C437 1.438 . S
C436 C441 1.429 . S
C437 C420 1.394 . S
C437 C436 1.438 . S
C437 C438 1.428 . S
C438 H430 0.949 . S
C438 C437 1.428 . S
C438 C439 1.345 . S
C439 H431 0.950 . S
C439 C438 1.345 . S
C439 C440 1.424 . S
C440 H432 0.951 . S
C440 C439 1.424 . S
C440 C441 1.347 . S
C441 H433 0.951 . S
C441 C436 1.429 . S
C441 C440 1.347 . S
H442 C443 0.951 . S
C443 H442 0.951 . S
C443 C449 1.265 . S
H444 C449 0.950 . S
H445 C453 0.949 . S
H446 C454 0.950 . S
H447 C455 0.951 . S
H448 C456 0.951 . S
C449 C443 1.265 . S
C449 H444 0.950 . S
C449 C450 1.478 . S
C450 C449 1.478 . S
C450 C451 1.397 . S
C450 C467 1.394 . S
C451 C450 1.397 . S
C451 C452 1.438 . S
C451 C456 1.429 . S
C452 C451 1.438 . S
C452 C453 1.428 . S
C452 C465 1.394 . S
C453 H445 0.949 . S
C453 C452 1.428 . S
C453 C454 1.345 . S
C454 H446 0.950 . S
C454 C453 1.345 . S
C454 C455 1.424 . S
C455 H447 0.951 . S
C455 C454 1.424 . S
C455 C456 1.347 . S
C456 H448 0.951 . S
C456 C451 1.429 . S
C456 C455 1.347 . S
H457 C458 0.951 . S
C458 H457 0.951 . S
C458 C464 1.265 . S
H459 C464 0.950 . S
H460 C468 0.949 . S
H461 C469 0.950 . S
H462 C470 0.951 . S
H463 C471 0.951 . S
C464 C458 1.265 . S
C464 H459 0.950 . S
C464 C465 1.478 . S
C465 C452 1.394 . S
C465 C464 1.478 . S
C465 C466 1.397 . S
C466 C465 1.397 . S
C466 C467 1.438 . S
C466 C471 1.429 . S
C467 C450 1.394 . S
C467 C466 1.438 . S
C467 C468 1.428 . S
C468 H460 0.949 . S
C468 C467 1.428 . S
C468 C469 1.345 . S
C469 H461 0.950 . S
C469 C468 1.345 . S
C469 C470 1.424 . S
C470 H462 0.951 . S
C470 C469 1.424 . S
C470 C471 1.347 . S
C471 H463 0.951 . S
C471 C466 1.429 . S
C471 C470 1.347 . S
H472 C473 0.951 . S
C473 H472 0.951 . S
C473 C479 1.265 . S
H474 C479 0.950 . S
H475 C483 0.949 . S
H476 C484 0.950 . S
H477 C485 0.951 . S
H478 C486 0.951 . S
C479 C473 1.265 . S
C479 H474 0.950 . S
C479 C480 1.478 . S
C480 C479 1.478 . S
C480 C481 1.397 . S
C480 C497 1.394 . S
C481 C480 1.397 . S
C481 C482 1.438 . S
C481 C486 1.429 . S
C482 C481 1.438 . S
C482 C483 1.428 . S
C482 C495 1.394 . S
C483 H475 0.949 . S
C483 C482 1.428 . S
C483 C484 1.345 . S
C484 H476 0.950 . S
C484 C483 1.345 . S
C484 C485 1.424 . S
C485 H477 0.951 . S
C485 C484 1.424 . S
C485 C486 1.347 . S
C486 H478 0.951 . S
C486 C481 1.429 . S
C486 C485 1.347 . S
H487 C488 0.951 . S
C488 H487 0.951 . S
C488 C494 1.265 . S
H489 C494 0.950 . S
H490 C498 0.949 . S
H491 C499 0.950 . S
H492 C500 0.951 . S
H493 C501 0.951 . S
C494 C488 1.265 . S
C494 H489 0.950 . S
C494 C495 1.478 . S
C495 C482 1.394 . S
C495 C494 1.478 . S
C495 C496 1.397 . S
C496 C495 1.397 . S
C496 C497 1.438 . S
C496 C501 1.429 . S
C497 C480 1.394 . S
C497 C496 1.438 . S
C497 C498 1.428 . S
C498 H490 0.949 . S
C498 C497 1.428 . S
C498 C499 1.345 . S
C499 H491 0.950 . S
C499 C498 1.345 . S
C499 C500 1.424 . S
C500 H492 0.951 . S
C500 C499 1.424 . S
C500 C501 1.347 . S
C501 H493 0.951 . S
C501 C496 1.429 . S
C501 C500 1.347 . S
H502 C503 0.951 . S
C503 H502 0.951 . S
C503 C509 1.265 . S
H504 C509 0.950 . S
H505 C513 0.949 . S
H506 C514 0.950 . S
H507 C515 0.951 . S
H508 C516 0.951 . S
C509 C503 1.265 . S
C509 H504 0.950 . S
C509 C510 1.478 . S
C510 C509 1.478 . S
C510 C511 1.397 . S
C510 C527 1.394 . S
C511 C510 1.397 . S
C511 C512 1.438 . S
C511 C516 1.429 . S
C512 C511 1.438 . S
C512 C513 1.428 . S
C512 C525 1.394 . S
C513 H505 0.949 . S
C513 C512 1.428 . S
C513 C514 1.345 . S
C514 H506 0.950 . S
C514 C513 1.345 . S
C514 C515 1.424 . S
C515 H507 0.951 . S
C515 C514 1.424 . S
C515 C516 1.347 . S
C516 H508 0.951 . S
C516 C511 1.429 . S
C516 C515 1.347 . S
H517 C518 0.951 . S
C518 H517 0.951 . S
C518 C524 1.265 . S
H519 C524 0.950 . S
H520 C528 0.949 . S
H521 C529 0.950 . S
H522 C530 0.951 . S
H523 C531 0.951 . S
C524 C518 1.265 . S
C524 H519 0.950 . S
C524 C525 1.478 . S
C525 C512 1.394 . S
C525 C524 1.478 . S
C525 C526 1.397 . S
C526 C525 1.397 . S
C526 C527 1.438 . S
C526 C531 1.429 . S
C527 C510 1.394 . S
C527 C526 1.438 . S
C527 C528 1.428 . S
C528 H520 0.949 . S
C528 C527 1.428 . S
C528 C529 1.345 . S
C529 H521 0.950 . S
C529 C528 1.345 . S
C529 C530 1.424 . S
C530 H522 0.951 . S
C530 C529 1.424 . S
C530 C531 1.347 . S
C531 H523 0.951 . S
C531 C526 1.429 . S
C531 C530 1.347 . S
H532 C533 0.951 . S
C533 H532 0.951 . S
C533 C539 1.265 . S
H534 C539 0.950 . S
H535 C543 0.949 . S
H536 C544 0.950 . S
H537 C545 0.951 . S
H538 C546 0.951 . S
C539 C533 1.265 . S
C539 H534 0.950 . S
C539 C540 1.478 . S
C540 C539 1.478 . S
C540 C541 1.397 . S
C540 C557 1.394 . S
C541 C540 1.397 . S
C541 C542 1.438 . S
C541 C546 1.429 . S
C542 C541 1.438 . S
C542 C543 1.428 . S
C542 C555 1.394 . S
C543 H535 0.949 . S
C543 C542 1.428 . S
C543 C544 1.345 . S
C544 H536 0.950 . S
C544 C543 1.345 . S
C544 C545 1.424 . S
C545 H537 0.951 . S
C545 C544 1.424 . S
C545 C546 1.347 . S
C546 H538 0.951 . S
C546 C541 1.429 . S
C546 C545 1.347 . S
H547 C548 0.951 . S
C548 H547 0.951 . S
C548 C554 1.265 . S
H549 C554 0.950 . S
H550 C558 0.949 . S
H551 C559 0.950 . S
H552 C560 0.951 . S
H553 C561 0.951 . S
C554 C548 1.265 . S
C554 H549 0.950 . S
C554 C555 1.478 . S
C555 C542 1.394 . S
C555 C554 1.478 . S
C555 C556 1.397 . S
C556 C555 1.397 . S
C556 C557 1.438 . S
C556 C561 1.429 . S
C557 C540 1.394 . S
C557 C556 1.438 . S
C557 C558 1.428 . S
C558 H550 0.949 . S
C558 C557 1.428 . S
C558 C559 1.345 . S
C559 H551 0.950 . S
C559 C558 1.345 . S
C559 C560 1.424 . S
C560 H552 0.951 . S
C560 C559 1.424 . S
C560 C561 1.347 . S
C561 H553 0.951 . S
C561 C556 1.429 . S
C561 C560 1.347 . S
H562 C563 0.951 . S
C563 H562 0.951 . S
C563 C569 1.265 . S
H564 C569 0.950 . S
H565 C573 0.949 . S
H566 C574 0.950 . S
H567 C575 0.951 . S
H568 C576 0.951 . S
C569 C563 1.265 . S
C569 H564 0.950 . S
C569 C570 1.478 . S
C570 C569 1.478 . S
C570 C571 1.397 . S
C570 C587 1.394 . S
C571 C570 1.397 . S
C571 C572 1.438 . S
C571 C576 1.429 . S
C572 C571 1.438 . S
C572 C573 1.428 . S
C572 C585 1.394 . S
C573 H565 0.949 . S
C573 C572 1.428 . S
C573 C574 1.345 . S
C574 H566 0.950 . S
C574 C573 1.345 . S
C574 C575 1.424 . S
C575 H567 0.951 . S
C575 C574 1.424 . S
C575 C576 1.347 . S
C576 H568 0.951 . S
C576 C571 1.429 . S
C576 C575 1.347 . S
H577 C578 0.951 . S
C578 H577 0.951 . S
C578 C584 1.265 . S
H579 C584 0.950 . S
H580 C588 0.949 . S
H581 C589 0.950 . S
H582 C590 0.951 . S
H583 C591 0.951 . S
C584 C578 1.265 . S
C584 H579 0.950 . S
C584 C585 1.478 . S
C585 C572 1.394 . S
C585 C584 1.478 . S
C585 C586 1.397 . S
C586 C585 1.397 . S
C586 C587 1.438 . S
C586 C591 1.429 . S
C587 C570 1.394 . S
C587 C586 1.438 . S
C587 C588 1.428 . S
C588 H580 0.949 . S
C588 C587 1.428 . S
C588 C589 1.345 . S
C589 H581 0.950 . S
C589 C588 1.345 . S
C589 C590 1.424 . S
C590 H582 0.951 . S
C590 C589 1.424 . S
C590 C591 1.347 . S
C591 H583 0.951 . S
C591 C586 1.429 . S
C591 C590 1.347 . S
C113 C4 1.529 . S
C128 C60 1.458 . S
C143 C26 1.588 . S
C158 C82 1.587 . S
C173 C88 1.458 . S
C188 C32 1.529 . S
C203 C110 1.566 . S
C218 C54 1.567 . S
C233 C5 0.981 . S
C248 C33 1.013 . S
C263 C25 0.890 . S
C278 C53 0.917 . S
C293 C89 0.885 . S
C308 C61 1.093 . S
C323 C81 0.870 . S
C338 C109 0.997 . S
C353 C75 1.095 . S
C368 C11 1.140 . S
C383 C19 1.023 . S
C398 C95 1.094 . S
C413 C103 0.881 . S
C428 C39 1.014 . S
C443 C47 1.082 . S
C458 C67 1.134 . S
C473 C96 1.409 . S
C488 C46 1.407 . S
C503 C12 1.408 . S
C518 C102 1.405 . S
C533 C18 1.398 . S
C548 C68 1.437 . S
C563 C74 1.426 . S
C578 C40 1.452 . S
