# Generated by pormake.
# Topology npo, (4)-cn, num edge types: 1
# Building blocks:
#     Node 0, Type 0, BuildingBlock: CEKHIL_clean_sbu_0, # of connection points: 4
#     Node 1, Type 0, BuildingBlock: CEKHIL_clean_sbu_0, # of connection points: 4
#     Node 2, Type 0, BuildingBlock: CEKHIL_clean_sbu_0, # of connection points: 4
#     Node 3, Type 0, BuildingBlock: CEKHIL_clean_sbu_0, # of connection points: 4
#     Node 4, Type 0, BuildingBlock: CEKHIL_clean_sbu_0, # of connection points: 4
#     Node 5, Type 0, BuildingBlock: CEKHIL_clean_sbu_0, # of connection points: 4
#     Edge 6, Type (0, 0), BuildingBlock: CIFDUS_clean_linker_0, # of connection points: 2
#     Edge 7, Type (0, 0), BuildingBlock: CIFDUS_clean_linker_0, # of connection points: 2
#     Edge 8, Type (0, 0), BuildingBlock: CIFDUS_clean_linker_0, # of connection points: 2
#     Edge 9, Type (0, 0), BuildingBlock: CIFDUS_clean_linker_0, # of connection points: 2
#     Edge 10, Type (0, 0), BuildingBlock: CIFDUS_clean_linker_0, # of connection points: 2
#     Edge 11, Type (0, 0), BuildingBlock: CIFDUS_clean_linker_0, # of connection points: 2
#     Edge 12, Type (0, 0), BuildingBlock: CIFDUS_clean_linker_0, # of connection points: 2
#     Edge 13, Type (0, 0), BuildingBlock: CIFDUS_clean_linker_0, # of connection points: 2
#     Edge 14, Type (0, 0), BuildingBlock: CIFDUS_clean_linker_0, # of connection points: 2
#     Edge 15, Type (0, 0), BuildingBlock: CIFDUS_clean_linker_0, # of connection points: 2
#     Edge 16, Type (0, 0), BuildingBlock: CIFDUS_clean_linker_0, # of connection points: 2
#     Edge 17, Type (0, 0), BuildingBlock: CIFDUS_clean_linker_0, # of connection points: 2
# Relax obj value: 0.296
# Max RMSD: 0.247
# Mean RMSD: 0.243
data_MOF--net-npo--node1-CEKHIL_clean_sbu_0--edge1-CIFDUS_clean_linker_0
_symmetry_space_group_name_H-M    P1
_symmetry_Int_Tables_number       1
_symmetry_cell_setting            triclinic
loop_
_symmetry_equiv_pos_as_xyz
'x, y, z'
_cell_length_a     39.007713
_cell_length_b     38.613907
_cell_length_c     20.557341
_cell_angle_alpha  91.288922
_cell_angle_beta   89.826343
_cell_angle_gamma 120.37163
loop_
_atom_site_label
_atom_site_type_symbol
_atom_site_fract_x
_atom_site_fract_y
_atom_site_fract_z
_atom_type_partial_charge
Co0 Co 0.53186 0.10122 0.2716 0.0
O1 O 0.48863 0.05427 0.31024 0.0
O2 O 0.55275 0.07688 0.32734 0.0
C3 C 0.50777 0.14259 0.28967 0.0
O4 O 0.58462 0.14876 0.24577 0.0
Co5 Co 0.52221 0.14353 0.15177 0.0
O6 O 0.57542 0.18828 0.17777 0.0
C7 C 0.53069 0.07205 0.13233 0.0
C8 C 0.51605 0.05116 0.34083 0.0
C9 C 0.5973 0.18139 0.21461 0.0
O10 O 0.5336 0.06919 0.19416 0.0
O11 O 0.52419 0.09816 0.10684 0.0
O12 O 0.52536 0.13508 0.33623 0.0
O13 O 0.50166 0.12177 0.23643 0.0
Co14 Co 0.42915 0.54019 0.74413 0.0
O15 O 0.47129 0.53921 0.69586 0.0
O16 O 0.40677 0.49891 0.67752 0.0
C17 C 0.45562 0.60715 0.74418 0.0
O18 O 0.37676 0.53357 0.77629 0.0
Co19 Co 0.43987 0.58442 0.87763 0.0
O20 O 0.38627 0.57588 0.86028 0.0
C21 C 0.44321 0.50971 0.86889 0.0
C22 C 0.44306 0.51091 0.66032 0.0
C23 C 0.36432 0.55095 0.81603 0.0
O24 O 0.42921 0.50188 0.81022 0.0
O25 O 0.45259 0.5423 0.9003 0.0
O26 O 0.43648 0.58551 0.69312 0.0
O27 O 0.46055 0.58816 0.79056 0.0
Co28 Co 0.87451 0.41604 0.25704 0.0
O29 O 0.91112 0.40344 0.29778 0.0
O30 O 0.9092 0.45945 0.31525 0.0
C31 C 0.81868 0.3578 0.27357 0.0
O32 O 0.83942 0.43798 0.22819 0.0
Co33 Co 0.82684 0.36842 0.13303 0.0
O34 O 0.79624 0.39565 0.15196 0.0
C35 C 0.91177 0.42706 0.12324 0.0
C36 C 0.92439 0.43733 0.32951 0.0
C37 C 0.80833 0.42536 0.19187 0.0
O38 O 0.912 0.44062 0.18121 0.0
O39 O 0.88192 0.39603 0.09768 0.0
O40 O 0.83401 0.3847 0.32014 0.0
O41 O 0.84029 0.36462 0.22231 0.0
Co42 Co 0.43209 0.87369 0.73622 0.0
O43 O 0.42488 0.91667 0.70577 0.0
O44 O 0.46455 0.89729 0.66157 0.0
C45 C 0.36736 0.8286 0.74979 0.0
O46 O 0.44585 0.82995 0.74676 0.0
Co47 Co 0.40626 0.83439 0.87179 0.0
O48 O 0.41751 0.79359 0.83549 0.0
C49 C 0.47811 0.91462 0.85994 0.0
C50 C 0.44942 0.92042 0.65968 0.0
C51 C 0.43677 0.79986 0.78286 0.0
O52 O 0.47618 0.91232 0.79728 0.0
O53 O 0.45198 0.88799 0.89661 0.0
O54 O 0.38289 0.83456 0.69212 0.0
O55 O 0.39031 0.85192 0.79588 0.0
Co56 Co 0.54556 0.41852 0.23674 0.0
O57 O 0.50069 0.41348 0.18812 0.0
O58 O 0.56364 0.46044 0.17494 0.0
C59 C 0.52751 0.35345 0.22804 0.0
O60 O 0.60031 0.4327 0.27001 0.0
Co61 Co 0.53986 0.37482 0.36489 0.0
O62 O 0.5971 0.39435 0.35295 0.0
C63 C 0.52253 0.44079 0.36336 0.0
C64 C 0.52696 0.44384 0.15539 0.0
C65 C 0.61674 0.42052 0.31056 0.0
O66 O 0.53897 0.45223 0.30734 0.0
O67 O 0.5163 0.4085 0.38989 0.0
O68 O 0.5452 0.37715 0.17996 0.0
O69 O 0.51907 0.36894 0.2773 0.0
Co70 Co 0.10813 0.56692 0.75978 0.0
O71 O 0.06574 0.57087 0.80196 0.0
O72 O 0.0848 0.52748 0.82606 0.0
C73 C 0.1533 0.63296 0.76079 0.0
O74 O 0.1514 0.5546 0.73378 0.0
Co75 Co 0.14631 0.60565 0.62785 0.0
O76 O 0.18721 0.59192 0.65003 0.0
C77 C 0.06717 0.5322 0.62971 0.0
C78 C 0.06179 0.54198 0.83847 0.0
C79 C 0.18127 0.56763 0.69534 0.0
O80 O 0.06951 0.52839 0.69145 0.0
O81 O 0.09326 0.56175 0.59747 0.0
O82 O 0.1475 0.61222 0.81289 0.0
O83 O 0.12951 0.61412 0.71265 0.0
H84 H 0.4945 0.17763 0.18759 0.0
H85 H 0.51583 0.19045 0.39501 0.0
H86 H 0.52127 0.25639 0.39449 0.0
H87 H 0.52522 0.31212 0.33364 0.0
H88 H 0.51275 0.30263 0.1246 0.0
H89 H 0.49948 0.23352 0.1267 0.0
C90 C 0.50034 0.19472 0.23276 0.0
C91 C 0.50529 0.17942 0.29114 0.0
C92 C 0.50561 0.23332 0.23147 0.0
C93 C 0.51213 0.20174 0.34939 0.0
C94 C 0.51546 0.23947 0.34904 0.0
C95 C 0.51948 0.29489 0.2886 0.0
C96 C 0.51995 0.3122 0.22901 0.0
C97 C 0.51319 0.25589 0.29013 0.0
C98 C 0.51282 0.28981 0.1709 0.0
C99 C 0.50506 0.25036 0.17218 0.0
H100 H 0.32773 0.5416 0.7006 0.0
H101 H 0.31262 0.54951 0.90721 0.0
H102 H 0.25094 0.54997 0.88763 0.0
H103 H 0.20548 0.55541 0.81136 0.0
H104 H 0.22546 0.55549 0.60491 0.0
H105 H 0.28092 0.54433 0.62453 0.0
C106 C 0.31042 0.54252 0.74133 0.0
C107 C 0.32441 0.54524 0.80524 0.0
C108 C 0.27614 0.54466 0.72956 0.0
C109 C 0.30229 0.54735 0.85761 0.0
C110 C 0.26715 0.54774 0.8464 0.0
C111 C 0.22155 0.55221 0.77072 0.0
C112 C 0.21146 0.55613 0.70681 0.0
C113 C 0.25438 0.54747 0.78254 0.0
C114 C 0.23287 0.55267 0.65452 0.0
C115 C 0.26454 0.54633 0.66573 0.0
H116 H 0.63236 0.25036 0.2851 0.0
H117 H 0.65582 0.1767 0.15329 0.0
H118 H 0.72733 0.22503 0.16016 0.0
H119 H 0.78282 0.28838 0.20353 0.0
H120 H 0.75972 0.36022 0.34055 0.0
H121 H 0.68838 0.31259 0.33226 0.0
C122 C 0.65337 0.24525 0.25796 0.0
C123 C 0.63959 0.21075 0.21834 0.0
C124 C 0.69425 0.2726 0.26344 0.0
C125 C 0.66641 0.20354 0.18369 0.0
C126 C 0.70706 0.23099 0.18774 0.0
C127 C 0.76209 0.2933 0.23188 0.0
C128 C 0.77625 0.32739 0.27274 0.0
C129 C 0.7213 0.26559 0.22751 0.0
C130 C 0.74936 0.33374 0.30939 0.0
C131 C 0.70861 0.30671 0.30437 0.0
H132 H 0.46614 0.764 0.85624 0.0
H133 H 0.42998 0.76893 0.66048 0.0
H134 H 0.43611 0.71082 0.62817 0.0
H135 H 0.44414 0.65401 0.65999 0.0
H136 H 0.48386 0.65232 0.85516 0.0
H137 H 0.48445 0.71405 0.88311 0.0
C138 C 0.46024 0.75263 0.80632 0.0
C139 C 0.4471 0.76995 0.76094 0.0
C140 C 0.46413 0.71968 0.78819 0.0
C141 C 0.4401 0.75573 0.69609 0.0
C142 C 0.44337 0.72246 0.67778 0.0
C143 C 0.45351 0.66755 0.70823 0.0
C144 C 0.46276 0.64802 0.75591 0.0
C145 C 0.45421 0.70346 0.72401 0.0
C146 C 0.47567 0.66625 0.8179 0.0
C147 C 0.47607 0.70161 0.83407 0.0
H148 H 0.65891 0.44342 0.19937 0.0
H149 H 0.66948 0.42618 0.40335 0.0
H150 H 0.73566 0.43562 0.38536 0.0
H151 H 0.78484 0.43718 0.30892 0.0
H152 H 0.76929 0.44456 0.10329 0.0
H153 H 0.71132 0.45169 0.12443 0.0
C154 C 0.67612 0.44277 0.24019 0.0
C155 C 0.65928 0.43385 0.30253 0.0
C156 C 0.71323 0.44628 0.22889 0.0
C157 C 0.68173 0.43265 0.35483 0.0
C158 C 0.71951 0.43799 0.34453 0.0
C159 C 0.76951 0.44179 0.26906 0.0
C160 C 0.78125 0.44069 0.20475 0.0
C161 C 0.73483 0.4432 0.28138 0.0
C162 C 0.76073 0.44561 0.15317 0.0
C163 C 0.72747 0.44931 0.16526 0.0
H164 H 0.30624 0.78753 0.66514 0.0
H165 H 0.33989 0.79302 0.86643 0.0
H166 H 0.276 0.73368 0.8887 0.0
H167 H 0.21146 0.67823 0.84969 0.0
H168 H 0.17637 0.6756 0.64982 0.0
H169 H 0.23948 0.73591 0.62867 0.0
C170 C 0.29947 0.77572 0.71383 0.0
C171 C 0.32789 0.79415 0.76369 0.0
C172 C 0.26233 0.7421 0.72668 0.0
C173 C 0.31861 0.77913 0.82695 0.0
C174 C 0.28203 0.74518 0.83983 0.0
C175 C 0.21752 0.6911 0.80173 0.0
C176 C 0.18958 0.67207 0.75124 0.0
C177 C 0.25381 0.72615 0.78989 0.0
C178 C 0.19761 0.68933 0.68946 0.0
C179 C 0.23373 0.72385 0.67717 0.0
H180 H 0.51009 0.9216 0.97863 0.0
H181 H 0.5108 -0.00859 0.81731 0.0
H182 H 0.5345 0.0505 0.88942 0.0
H183 H 0.53875 0.07634 0.00094 0.0
H184 H 0.5314 0.0038 0.16337 0.0
H185 H 0.52639 0.95161 0.0882 0.0
C186 C 0.51673 0.95017 0.95894 0.0
C187 C 0.50769 0.95204 0.8934 0.0
C188 C 0.52777 0.98303 0.0013 0.0
C189 C 0.51727 -0.01078 0.86777 0.0
C190 C 0.53013 0.02279 0.90925 0.0
C191 C 0.53647 0.0493 0.02008 0.0
C192 C 0.53396 0.04332 0.08772 0.0
C193 C 0.5327 0.01909 0.97665 0.0
C194 C 0.53242 0.00876 0.11157 0.0
C195 C 0.52965 0.97894 0.06861 0.0
H196 H 0.45147 0.41526 0.41555 0.0
H197 H 0.56809 0.51972 0.40177 0.0
H198 H 0.55353 0.55175 0.49401 0.0
H199 H 0.51002 0.5458 0.58665 0.0
H200 H 0.39359 0.44012 0.5986 0.0
H201 H 0.40579 0.41238 0.49942 0.0
C202 C 0.47321 0.44556 0.43167 0.0
C203 C 0.51065 0.46529 0.4023 0.0
C204 C 0.46504 0.46291 0.48549 0.0
C205 C 0.53884 0.50435 0.42329 0.0
C206 C 0.53072 0.52227 0.47664 0.0
C207 C 0.48745 0.51667 0.56749 0.0
C208 C 0.45129 0.49459 0.60058 0.0
C209 C 0.49446 0.50111 0.50968 0.0
C210 C 0.42185 0.4574 0.57447 0.0
C211 C 0.4287 0.44161 0.51761 0.0
H212 H 0.04671 0.48064 0.91733 0.0
H213 H 0.01401 0.57012 0.88331 0.0
H214 H 0.96787 0.54536 0.97452 0.0
H215 H 0.9341 0.49566 0.06039 0.0
H216 H 0.96458 0.40438 0.08976 0.0
H217 H 0.01493 0.43281 0.00473 0.0
C218 C 0.02957 0.49482 0.92987 0.0
C219 C 0.03359 0.527 0.89325 0.0
C220 C 0.00304 0.48032 0.98202 0.0
C221 C 0.01122 0.54508 0.91035 0.0
C222 C 0.98497 0.53105 0.96267 0.0
C223 C 0.9526 0.48281 0.04901 0.0
C224 C 0.94659 0.44869 0.08173 0.0
C225 C 0.98041 0.4985 0.99854 0.0
C226 C 0.96954 0.43122 0.06573 0.0
C227 C -0.00205 0.44721 0.01683 0.0
H228 H 0.45558 0.02661 0.42586 0.0
H229 H 0.55657 0.01447 0.37657 0.0
H230 H 0.54506 0.97317 0.47182 0.0
H231 H 0.50735 0.94211 0.57027 0.0
H232 H 0.40897 0.95782 0.62408 0.0
H233 H 0.4188 -0.00313 0.52651 0.0
C234 C 0.47463 0.01435 0.43561 0.0
C235 C 0.50649 0.02292 0.39405 0.0
C236 C 0.46873 -0.00801 0.49176 0.0
C237 C 0.53167 0.00787 0.40782 0.0
C238 C 0.52523 0.9845 0.46235 0.0
C239 C 0.48816 0.95424 0.56083 0.0
C240 C 0.45747 0.94711 0.60427 0.0
C241 C 0.49412 0.97676 0.505 0.0
C242 C 0.43298 0.96315 0.59158 0.0
C243 C 0.4384 0.98521 0.53558 0.0
H244 H 0.51487 0.52409 0.9008 0.0
H245 H 0.39073 0.43676 0.9194 0.0
H246 H 0.40597 0.40653 0.01076 0.0
H247 H 0.45422 0.41198 0.09493 0.0
H248 H 0.57764 0.50405 0.0782 0.0
H249 H 0.5631 0.52583 0.97734 0.0
C250 C 0.4914 0.49742 0.92339 0.0
C251 C 0.45195 0.48216 0.90324 0.0
C252 C 0.50018 0.48208 0.97776 0.0
C253 C 0.42146 0.44828 0.93335 0.0
C254 C 0.43014 0.43163 0.98637 0.0
C255 C 0.47784 0.43681 0.06916 0.0
C256 C 0.51683 0.45684 0.09487 0.0
C257 C 0.46925 0.4495 0.01082 0.0
C258 C 0.54726 0.48852 0.0603 0.0
C259 C 0.53908 0.50085 0.00222 0.0
H260 H 0.06569 0.48829 0.52596 0.0
H261 H -0.00878 0.51467 0.64741 0.0
H262 H 0.93896 0.48659 0.56342 0.0
H263 H 0.91894 0.46329 0.44954 0.0
H264 H -0.00776 0.43408 0.33015 0.0
H265 H 0.04104 0.45487 0.41901 0.0
C266 C 0.03735 0.4864 0.53477 0.0
C267 C 0.03192 0.50315 0.59241 0.0
C268 C 0.00801 0.47097 0.48596 0.0
C269 C -0.00448 0.5012 0.60364 0.0
C270 C 0.96604 0.48584 0.55521 0.0
C271 C 0.94563 0.4615 0.44335 0.0
C272 C 0.95292 0.44846 0.38332 0.0
C273 C 0.97274 0.47227 0.49518 0.0
C274 C 0.98669 0.44481 0.37588 0.0
C275 C 0.01436 0.45647 0.42662 0.0
loop_
_geom_bond_atom_site_label_1
_geom_bond_atom_site_label_2
_geom_bond_distance
_geom_bond_site_symmetry_2
_ccdc_geom_bond_type
Co0 O1 2.216 . S
Co0 O2 2.091 . S
Co0 O4 2.004 . S
Co0 O10 2.021 . S
Co0 O12 2.137 . S
Co0 O13 2.244 . S
O1 Co0 2.216 . S
O1 C8 1.247 . S
O2 Co0 2.091 . S
O2 C8 1.261 . S
C3 O12 1.247 . S
C3 O13 1.272 . S
O4 Co0 2.004 . S
O4 C9 1.259 . S
Co5 O6 2.061 . S
Co5 O11 2.052 . S
Co5 O13 2.135 . S
O6 Co5 2.061 . S
O6 C9 1.235 . S
C7 O10 1.238 . S
C7 O11 1.241 . S
C8 O1 1.247 . S
C8 O2 1.261 . S
C9 O4 1.259 . S
C9 O6 1.235 . S
O10 Co0 2.021 . S
O10 C7 1.238 . S
O11 Co5 2.052 . S
O11 C7 1.241 . S
O12 Co0 2.137 . S
O12 C3 1.247 . S
O13 Co0 2.244 . S
O13 C3 1.272 . S
O13 Co5 2.135 . S
Co14 O15 2.216 . S
Co14 O16 2.091 . S
Co14 O18 2.004 . S
Co14 O24 2.021 . S
Co14 O26 2.137 . S
Co14 O27 2.244 . S
O15 Co14 2.216 . S
O15 C22 1.247 . S
O16 Co14 2.091 . S
O16 C22 1.261 . S
C17 O26 1.247 . S
C17 O27 1.272 . S
O18 Co14 2.004 . S
O18 C23 1.259 . S
Co19 O20 2.061 . S
Co19 O25 2.052 . S
Co19 O27 2.135 . S
O20 Co19 2.061 . S
O20 C23 1.235 . S
C21 O24 1.238 . S
C21 O25 1.241 . S
C22 O15 1.247 . S
C22 O16 1.261 . S
C23 O18 1.259 . S
C23 O20 1.235 . S
O24 Co14 2.021 . S
O24 C21 1.238 . S
O25 Co19 2.052 . S
O25 C21 1.241 . S
O26 Co14 2.137 . S
O26 C17 1.247 . S
O27 Co14 2.244 . S
O27 C17 1.272 . S
O27 Co19 2.135 . S
Co28 O29 2.216 . S
Co28 O30 2.091 . S
Co28 O32 2.004 . S
Co28 O38 2.021 . S
Co28 O40 2.137 . S
Co28 O41 2.244 . S
O29 Co28 2.216 . S
O29 C36 1.247 . S
O30 Co28 2.091 . S
O30 C36 1.261 . S
C31 O40 1.247 . S
C31 O41 1.272 . S
O32 Co28 2.004 . S
O32 C37 1.259 . S
Co33 O34 2.061 . S
Co33 O39 2.052 . S
Co33 O41 2.135 . S
O34 Co33 2.061 . S
O34 C37 1.235 . S
C35 O38 1.238 . S
C35 O39 1.241 . S
C36 O29 1.247 . S
C36 O30 1.261 . S
C37 O32 1.259 . S
C37 O34 1.235 . S
O38 Co28 2.021 . S
O38 C35 1.238 . S
O39 Co33 2.052 . S
O39 C35 1.241 . S
O40 Co28 2.137 . S
O40 C31 1.247 . S
O41 Co28 2.244 . S
O41 C31 1.272 . S
O41 Co33 2.135 . S
Co42 O43 2.216 . S
Co42 O44 2.091 . S
Co42 O46 2.004 . S
Co42 O52 2.021 . S
Co42 O54 2.137 . S
Co42 O55 2.244 . S
O43 Co42 2.216 . S
O43 C50 1.247 . S
O44 Co42 2.091 . S
O44 C50 1.261 . S
C45 O54 1.247 . S
C45 O55 1.272 . S
O46 Co42 2.004 . S
O46 C51 1.259 . S
Co47 O48 2.061 . S
Co47 O53 2.052 . S
Co47 O55 2.135 . S
O48 Co47 2.061 . S
O48 C51 1.235 . S
C49 O52 1.238 . S
C49 O53 1.241 . S
C50 O43 1.247 . S
C50 O44 1.261 . S
C51 O46 1.259 . S
C51 O48 1.235 . S
O52 Co42 2.021 . S
O52 C49 1.238 . S
O53 Co47 2.052 . S
O53 C49 1.241 . S
O54 Co42 2.137 . S
O54 C45 1.247 . S
O55 Co42 2.244 . S
O55 C45 1.272 . S
O55 Co47 2.135 . S
Co56 O57 2.216 . S
Co56 O58 2.091 . S
Co56 O60 2.004 . S
Co56 O66 2.021 . S
Co56 O68 2.137 . S
Co56 O69 2.244 . S
O57 Co56 2.216 . S
O57 C64 1.247 . S
O58 Co56 2.091 . S
O58 C64 1.261 . S
C59 O68 1.247 . S
C59 O69 1.272 . S
O60 Co56 2.004 . S
O60 C65 1.259 . S
Co61 O62 2.061 . S
Co61 O67 2.052 . S
Co61 O69 2.135 . S
O62 Co61 2.061 . S
O62 C65 1.235 . S
C63 O66 1.238 . S
C63 O67 1.241 . S
C64 O57 1.247 . S
C64 O58 1.261 . S
C65 O60 1.259 . S
C65 O62 1.235 . S
O66 Co56 2.021 . S
O66 C63 1.238 . S
O67 Co61 2.052 . S
O67 C63 1.241 . S
O68 Co56 2.137 . S
O68 C59 1.247 . S
O69 Co56 2.244 . S
O69 C59 1.272 . S
O69 Co61 2.135 . S
Co70 O71 2.216 . S
Co70 O72 2.091 . S
Co70 O74 2.004 . S
Co70 O80 2.021 . S
Co70 O82 2.137 . S
Co70 O83 2.244 . S
O71 Co70 2.216 . S
O71 C78 1.247 . S
O72 Co70 2.091 . S
O72 C78 1.261 . S
C73 O82 1.247 . S
C73 O83 1.272 . S
O74 Co70 2.004 . S
O74 C79 1.259 . S
Co75 O76 2.061 . S
Co75 O81 2.052 . S
Co75 O83 2.135 . S
O76 Co75 2.061 . S
O76 C79 1.235 . S
C77 O80 1.238 . S
C77 O81 1.241 . S
C78 O71 1.247 . S
C78 O72 1.261 . S
C79 O74 1.259 . S
C79 O76 1.235 . S
O80 Co70 2.021 . S
O80 C77 1.238 . S
O81 Co75 2.052 . S
O81 C77 1.241 . S
O82 Co70 2.137 . S
O82 C73 1.247 . S
O83 Co70 2.244 . S
O83 C73 1.272 . S
O83 Co75 2.135 . S
H84 C90 0.930 . S
H85 C93 0.930 . S
H86 C94 0.930 . S
H87 C95 0.930 . S
H88 C98 0.930 . S
H89 C99 0.930 . S
C90 H84 0.930 . S
C90 C91 1.355 . S
C90 C92 1.415 . S
C91 C90 1.355 . S
C91 C93 1.419 . S
C92 C90 1.415 . S
C92 C97 1.425 . S
C92 C99 1.409 . S
C93 H85 0.930 . S
C93 C91 1.419 . S
C93 C94 1.362 . S
C94 H86 0.930 . S
C94 C93 1.362 . S
C94 C97 1.409 . S
C95 H87 0.930 . S
C95 C96 1.355 . S
C95 C97 1.415 . S
C96 C95 1.355 . S
C96 C98 1.419 . S
C97 C92 1.425 . S
C97 C94 1.409 . S
C97 C95 1.415 . S
C98 H88 0.930 . S
C98 C96 1.419 . S
C98 C99 1.362 . S
C99 H89 0.930 . S
C99 C92 1.409 . S
C99 C98 1.362 . S
H100 C106 0.930 . S
H101 C109 0.930 . S
H102 C110 0.930 . S
H103 C111 0.930 . S
H104 C114 0.930 . S
H105 C115 0.930 . S
C106 H100 0.930 . S
C106 C107 1.355 . S
C106 C108 1.415 . S
C107 C106 1.355 . S
C107 C109 1.419 . S
C108 C106 1.415 . S
C108 C113 1.425 . S
C108 C115 1.409 . S
C109 H101 0.930 . S
C109 C107 1.419 . S
C109 C110 1.362 . S
C110 H102 0.930 . S
C110 C109 1.362 . S
C110 C113 1.409 . S
C111 H103 0.930 . S
C111 C112 1.355 . S
C111 C113 1.415 . S
C112 C111 1.355 . S
C112 C114 1.419 . S
C113 C108 1.425 . S
C113 C110 1.409 . S
C113 C111 1.415 . S
C114 H104 0.930 . S
C114 C112 1.419 . S
C114 C115 1.362 . S
C115 H105 0.930 . S
C115 C108 1.409 . S
C115 C114 1.362 . S
H116 C122 0.930 . S
H117 C125 0.930 . S
H118 C126 0.930 . S
H119 C127 0.930 . S
H120 C130 0.930 . S
H121 C131 0.930 . S
C122 H116 0.930 . S
C122 C123 1.355 . S
C122 C124 1.415 . S
C123 C122 1.355 . S
C123 C125 1.419 . S
C124 C122 1.415 . S
C124 C129 1.425 . S
C124 C131 1.409 . S
C125 H117 0.930 . S
C125 C123 1.419 . S
C125 C126 1.362 . S
C126 H118 0.930 . S
C126 C125 1.362 . S
C126 C129 1.409 . S
C127 H119 0.930 . S
C127 C128 1.355 . S
C127 C129 1.415 . S
C128 C127 1.355 . S
C128 C130 1.419 . S
C129 C124 1.425 . S
C129 C126 1.409 . S
C129 C127 1.415 . S
C130 H120 0.930 . S
C130 C128 1.419 . S
C130 C131 1.362 . S
C131 H121 0.930 . S
C131 C124 1.409 . S
C131 C130 1.362 . S
H132 C138 0.930 . S
H133 C141 0.930 . S
H134 C142 0.930 . S
H135 C143 0.930 . S
H136 C146 0.930 . S
H137 C147 0.930 . S
C138 H132 0.930 . S
C138 C139 1.355 . S
C138 C140 1.415 . S
C139 C138 1.355 . S
C139 C141 1.419 . S
C140 C138 1.415 . S
C140 C145 1.425 . S
C140 C147 1.409 . S
C141 H133 0.930 . S
C141 C139 1.419 . S
C141 C142 1.362 . S
C142 H134 0.930 . S
C142 C141 1.362 . S
C142 C145 1.409 . S
C143 H135 0.930 . S
C143 C144 1.355 . S
C143 C145 1.415 . S
C144 C143 1.355 . S
C144 C146 1.419 . S
C145 C140 1.425 . S
C145 C142 1.409 . S
C145 C143 1.415 . S
C146 H136 0.930 . S
C146 C144 1.419 . S
C146 C147 1.362 . S
C147 H137 0.930 . S
C147 C140 1.409 . S
C147 C146 1.362 . S
H148 C154 0.930 . S
H149 C157 0.930 . S
H150 C158 0.930 . S
H151 C159 0.930 . S
H152 C162 0.930 . S
H153 C163 0.930 . S
C154 H148 0.930 . S
C154 C155 1.355 . S
C154 C156 1.415 . S
C155 C154 1.355 . S
C155 C157 1.419 . S
C156 C154 1.415 . S
C156 C161 1.425 . S
C156 C163 1.409 . S
C157 H149 0.930 . S
C157 C155 1.419 . S
C157 C158 1.362 . S
C158 H150 0.930 . S
C158 C157 1.362 . S
C158 C161 1.409 . S
C159 H151 0.930 . S
C159 C160 1.355 . S
C159 C161 1.415 . S
C160 C159 1.355 . S
C160 C162 1.419 . S
C161 C156 1.425 . S
C161 C158 1.409 . S
C161 C159 1.415 . S
C162 H152 0.930 . S
C162 C160 1.419 . S
C162 C163 1.362 . S
C163 H153 0.930 . S
C163 C156 1.409 . S
C163 C162 1.362 . S
H164 C170 0.930 . S
H165 C173 0.930 . S
H166 C174 0.930 . S
H167 C175 0.930 . S
H168 C178 0.930 . S
H169 C179 0.930 . S
C170 H164 0.930 . S
C170 C171 1.355 . S
C170 C172 1.415 . S
C171 C170 1.355 . S
C171 C173 1.419 . S
C172 C170 1.415 . S
C172 C177 1.425 . S
C172 C179 1.409 . S
C173 H165 0.930 . S
C173 C171 1.419 . S
C173 C174 1.362 . S
C174 H166 0.930 . S
C174 C173 1.362 . S
C174 C177 1.409 . S
C175 H167 0.930 . S
C175 C176 1.355 . S
C175 C177 1.415 . S
C176 C175 1.355 . S
C176 C178 1.419 . S
C177 C172 1.425 . S
C177 C174 1.409 . S
C177 C175 1.415 . S
C178 H168 0.930 . S
C178 C176 1.419 . S
C178 C179 1.362 . S
C179 H169 0.930 . S
C179 C172 1.409 . S
C179 C178 1.362 . S
H180 C186 0.930 . S
H181 C189 0.930 . S
H182 C190 0.930 1_554 S
H183 C191 0.930 . S
H184 C194 0.930 . S
H185 C195 0.930 1_556 S
C186 H180 0.930 . S
C186 C187 1.355 . S
C186 C188 1.415 1_565 S
C187 C186 1.355 . S
C187 C189 1.419 . S
C188 C186 1.415 1_545 S
C188 C193 1.425 1_546 S
C188 C195 1.409 1_556 S
C189 H181 0.930 . S
C189 C187 1.419 . S
C189 C190 1.362 . S
C190 H182 0.930 1_556 S
C190 C189 1.362 . S
C190 C193 1.409 1_556 S
C191 H183 0.930 . S
C191 C192 1.355 . S
C191 C193 1.415 1_545 S
C192 C191 1.355 . S
C192 C194 1.419 . S
C193 C188 1.425 1_564 S
C193 C190 1.409 1_554 S
C193 C191 1.415 1_565 S
C194 H184 0.930 . S
C194 C192 1.419 . S
C194 C195 1.362 . S
C195 H185 0.930 1_554 S
C195 C188 1.409 1_554 S
C195 C194 1.362 . S
H196 C202 0.930 . S
H197 C205 0.930 . S
H198 C206 0.930 . S
H199 C207 0.930 . S
H200 C210 0.930 . S
H201 C211 0.930 . S
C202 H196 0.930 . S
C202 C203 1.355 . S
C202 C204 1.415 . S
C203 C202 1.355 . S
C203 C205 1.419 . S
C204 C202 1.415 . S
C204 C209 1.425 . S
C204 C211 1.409 . S
C205 H197 0.930 . S
C205 C203 1.419 . S
C205 C206 1.362 . S
C206 H198 0.930 . S
C206 C205 1.362 . S
C206 C209 1.409 . S
C207 H199 0.930 . S
C207 C208 1.355 . S
C207 C209 1.415 . S
C208 C207 1.355 . S
C208 C210 1.419 . S
C209 C204 1.425 . S
C209 C206 1.409 . S
C209 C207 1.415 . S
C210 H200 0.930 . S
C210 C208 1.419 . S
C210 C211 1.362 . S
C211 H201 0.930 . S
C211 C204 1.409 . S
C211 C210 1.362 . S
H212 C218 0.930 . S
H213 C221 0.930 . S
H214 C222 0.930 . S
H215 C223 0.930 . S
H216 C226 0.930 . S
H217 C227 0.930 1_556 S
C218 H212 0.930 . S
C218 C219 1.355 . S
C218 C220 1.415 1_455 S
C219 C218 1.355 . S
C219 C221 1.419 . S
C220 C218 1.415 1_655 S
C220 C225 1.425 1_656 S
C220 C227 1.409 1_556 S
C221 H213 0.930 . S
C221 C219 1.419 . S
C221 C222 1.362 1_556 S
C222 H214 0.930 . S
C222 C221 1.362 1_554 S
C222 C225 1.409 . S
C223 H215 0.930 . S
C223 C224 1.355 . S
C223 C225 1.415 1_655 S
C224 C223 1.355 . S
C224 C226 1.419 . S
C225 C220 1.425 1_454 S
C225 C222 1.409 . S
C225 C223 1.415 1_455 S
C226 H216 0.930 . S
C226 C224 1.419 . S
C226 C227 1.362 . S
C227 H217 0.930 1_554 S
C227 C220 1.409 1_554 S
C227 C226 1.362 . S
H228 C234 0.930 . S
H229 C237 0.930 . S
H230 C238 0.930 1_565 S
H231 C239 0.930 . S
H232 C242 0.930 . S
H233 C243 0.930 1_545 S
C234 H228 0.930 . S
C234 C235 1.355 . S
C234 C236 1.415 . S
C235 C234 1.355 . S
C235 C237 1.419 . S
C236 C234 1.415 . S
C236 C241 1.425 1_545 S
C236 C243 1.409 1_545 S
C237 H229 0.930 . S
C237 C235 1.419 . S
C237 C238 1.362 . S
C238 H230 0.930 1_545 S
C238 C237 1.362 . S
C238 C241 1.409 1_545 S
C239 H231 0.930 . S
C239 C240 1.355 . S
C239 C241 1.415 . S
C240 C239 1.355 . S
C240 C242 1.419 . S
C241 C236 1.425 1_565 S
C241 C238 1.409 1_565 S
C241 C239 1.415 . S
C242 H232 0.930 . S
C242 C240 1.419 . S
C242 C243 1.362 . S
C243 H233 0.930 1_565 S
C243 C236 1.409 1_565 S
C243 C242 1.362 . S
H244 C250 0.930 . S
H245 C253 0.930 . S
H246 C254 0.930 . S
H247 C255 0.930 . S
H248 C258 0.930 . S
H249 C259 0.930 1_556 S
C250 H244 0.930 . S
C250 C251 1.355 . S
C250 C252 1.415 . S
C251 C250 1.355 . S
C251 C253 1.419 . S
C252 C250 1.415 . S
C252 C257 1.425 . S
C252 C259 1.409 1_556 S
C253 H245 0.930 . S
C253 C251 1.419 . S
C253 C254 1.362 . S
C254 H246 0.930 . S
C254 C253 1.362 . S
C254 C257 1.409 . S
C255 H247 0.930 . S
C255 C256 1.355 . S
C255 C257 1.415 1_554 S
C256 C255 1.355 . S
C256 C258 1.419 . S
C257 C252 1.425 . S
C257 C254 1.409 . S
C257 C255 1.415 1_556 S
C258 H248 0.930 . S
C258 C256 1.419 . S
C258 C259 1.362 . S
C259 H249 0.930 1_554 S
C259 C252 1.409 1_554 S
C259 C258 1.362 . S
H260 C266 0.930 . S
H261 C269 0.926 1_655 S
H262 C270 0.930 . S
H263 C271 0.930 . S
H264 C274 0.930 . S
H265 C275 0.930 . S
C266 H260 0.930 . S
C266 C267 1.355 . S
C266 C268 1.415 . S
C267 C266 1.355 . S
C267 C269 1.419 . S
C268 C266 1.415 . S
C268 C273 1.425 1_455 S
C268 C275 1.409 . S
C269 H261 0.926 1_455 S
C269 C267 1.419 . S
C269 C270 1.362 1_455 S
C270 H262 0.930 . S
C270 C269 1.362 1_655 S
C270 C273 1.409 . S
C271 H263 0.930 . S
C271 C272 1.355 . S
C271 C273 1.415 . S
C272 C271 1.355 . S
C272 C274 1.419 1_655 S
C273 C268 1.425 1_655 S
C273 C270 1.409 . S
C273 C271 1.415 . S
C274 H264 0.930 . S
C274 C272 1.419 1_455 S
C274 C275 1.362 . S
C275 H265 0.930 . S
C275 C268 1.409 . S
C275 C274 1.362 . S
C91 C3 1.147 . S
C96 C59 1.185 . S
C107 C23 1.148 . S
C112 C79 1.149 . S
C123 C9 1.193 . S
C128 C31 1.140 . S
C139 C51 1.160 . S
C144 C17 1.143 . S
C155 C65 1.161 . S
C160 C37 1.134 . S
C171 C45 1.155 . S
C176 C73 1.163 . S
C187 C49 1.340 . S
C192 C7 1.360 . S
C203 C63 1.376 . S
C208 C22 1.395 . S
C219 C78 1.410 . S
C224 C35 1.348 . S
C235 C8 1.418 . S
C240 C50 1.440 . S
C251 C21 1.389 . S
C256 C64 1.393 . S
C267 C77 1.387 . S
C272 C36 1.419 . S
