# Generated by pormake.
# Topology umy, (4)-cn, num edge types: 1
# Building blocks:
#     Node 0, Type 0, BuildingBlock: ICAMEG_clean_sbu_1, # of connection points: 4
#     Node 1, Type 0, BuildingBlock: ICAMEG_clean_sbu_1, # of connection points: 4
#     Node 2, Type 0, BuildingBlock: ICAMEG_clean_sbu_1, # of connection points: 4
#     Node 3, Type 0, BuildingBlock: ICAMEG_clean_sbu_1, # of connection points: 4
#     Node 4, Type 0, BuildingBlock: ICAMEG_clean_sbu_1, # of connection points: 4
#     Node 5, Type 0, BuildingBlock: ICAMEG_clean_sbu_1, # of connection points: 4
#     Node 6, Type 0, BuildingBlock: ICAMEG_clean_sbu_1, # of connection points: 4
#     Node 7, Type 0, BuildingBlock: ICAMEG_clean_sbu_1, # of connection points: 4
#     Node 8, Type 0, BuildingBlock: ICAMEG_clean_sbu_1, # of connection points: 4
#     Node 9, Type 0, BuildingBlock: ICAMEG_clean_sbu_1, # of connection points: 4
#     Node 10, Type 0, BuildingBlock: ICAMEG_clean_sbu_1, # of connection points: 4
#     Node 11, Type 0, BuildingBlock: ICAMEG_clean_sbu_1, # of connection points: 4
#     Edge 12, Type (0, 0), BuildingBlock: TEMPAE_clean_linker_10, # of connection points: 2
#     Edge 13, Type (0, 0), BuildingBlock: TEMPAE_clean_linker_10, # of connection points: 2
#     Edge 14, Type (0, 0), BuildingBlock: TEMPAE_clean_linker_10, # of connection points: 2
#     Edge 15, Type (0, 0), BuildingBlock: TEMPAE_clean_linker_10, # of connection points: 2
#     Edge 16, Type (0, 0), BuildingBlock: TEMPAE_clean_linker_10, # of connection points: 2
#     Edge 17, Type (0, 0), BuildingBlock: TEMPAE_clean_linker_10, # of connection points: 2
#     Edge 18, Type (0, 0), BuildingBlock: TEMPAE_clean_linker_10, # of connection points: 2
#     Edge 19, Type (0, 0), BuildingBlock: TEMPAE_clean_linker_10, # of connection points: 2
#     Edge 20, Type (0, 0), BuildingBlock: TEMPAE_clean_linker_10, # of connection points: 2
#     Edge 21, Type (0, 0), BuildingBlock: TEMPAE_clean_linker_10, # of connection points: 2
#     Edge 22, Type (0, 0), BuildingBlock: TEMPAE_clean_linker_10, # of connection points: 2
#     Edge 23, Type (0, 0), BuildingBlock: TEMPAE_clean_linker_10, # of connection points: 2
#     Edge 24, Type (0, 0), BuildingBlock: TEMPAE_clean_linker_10, # of connection points: 2
#     Edge 25, Type (0, 0), BuildingBlock: TEMPAE_clean_linker_10, # of connection points: 2
#     Edge 26, Type (0, 0), BuildingBlock: TEMPAE_clean_linker_10, # of connection points: 2
#     Edge 27, Type (0, 0), BuildingBlock: TEMPAE_clean_linker_10, # of connection points: 2
#     Edge 28, Type (0, 0), BuildingBlock: TEMPAE_clean_linker_10, # of connection points: 2
#     Edge 29, Type (0, 0), BuildingBlock: TEMPAE_clean_linker_10, # of connection points: 2
#     Edge 30, Type (0, 0), BuildingBlock: TEMPAE_clean_linker_10, # of connection points: 2
#     Edge 31, Type (0, 0), BuildingBlock: TEMPAE_clean_linker_10, # of connection points: 2
#     Edge 32, Type (0, 0), BuildingBlock: TEMPAE_clean_linker_10, # of connection points: 2
#     Edge 33, Type (0, 0), BuildingBlock: TEMPAE_clean_linker_10, # of connection points: 2
#     Edge 34, Type (0, 0), BuildingBlock: TEMPAE_clean_linker_10, # of connection points: 2
#     Edge 35, Type (0, 0), BuildingBlock: TEMPAE_clean_linker_10, # of connection points: 2
# Relax obj value: 0.082
# Max RMSD: 0.107
# Mean RMSD: 0.107
data_MOF--net-umy--node1-ICAMEG_clean_sbu_1--edge1-TEMPAE_clean_linker_10
_symmetry_space_group_name_H-M    P1
_symmetry_Int_Tables_number       1
_symmetry_cell_setting            triclinic
loop_
_symmetry_equiv_pos_as_xyz
'x, y, z'
_cell_length_a     40.911343
_cell_length_b     40.895885
_cell_length_c     57.304273
_cell_angle_alpha  90.054296
_cell_angle_beta   89.944029
_cell_angle_gamma 119.87921
loop_
_atom_site_label
_atom_site_type_symbol
_atom_site_fract_x
_atom_site_fract_y
_atom_site_fract_z
_atom_type_partial_charge
Co0 Co 0.05678 0.29828 0.13731 0.0
Co1 Co 0.06259 0.37885 0.16156 0.0
O2 O 0.06764 0.3509 0.13501 0.0
C3 C 0.13236 0.33893 0.11355 0.0
O4 O 0.14018 0.36992 0.12479 0.0
C5 C 0.03338 0.40151 0.11939 0.0
O6 O 0.03705 0.37754 0.10599 0.0
O7 O 0.01037 0.33719 0.16799 0.0
O8 O 0.0125 0.2851 0.15823 0.0
H9 H 0.02976 0.39244 0.24421 0.0
H10 H 0.06579 0.33135 0.09013 0.0
O11 O 0.10079 0.30892 0.1165 0.0
H12 H 0.9366 0.22259 0.09188 0.0
H13 H 0.04316 0.17665 0.10655 0.0
H14 H 0.03526 0.24345 0.17612 0.0
H15 H 0.97818 0.23819 0.12613 0.0
H16 H 0.05596 0.24214 0.10356 0.0
O17 O 0.04154 0.40421 0.14104 0.0
H18 H 0.03685 0.35888 0.21057 0.0
H19 H 0.07759 0.45753 0.16896 0.0
H20 H 0.02189 0.17785 0.17984 0.0
H21 H 0.02544 0.31642 0.05531 0.0
H22 H 0.02583 0.14401 0.14488 0.0
H23 H 0.96024 0.26179 0.05608 0.0
O24 O 0.09022 0.31075 0.16503 0.0
H25 H 0.17053 0.47314 0.11205 0.0
H26 H 0.12988 0.42334 0.19155 0.0
H27 H 0.19496 0.47457 0.18498 0.0
H28 H 0.21566 0.50004 0.14502 0.0
H29 H 0.10613 0.42145 0.11927 0.0
H30 H 0.07066 0.49206 0.20212 0.0
H31 H 0.04671 0.45954 0.24011 0.0
O32 O 0.0831 0.35531 0.1833 0.0
C33 C 0.99634 0.30146 0.1679 0.0
C34 C 0.04027 0.40695 0.22776 0.0
C35 C 0.06316 0.46283 0.20412 0.0
N36 N 0.05763 0.40617 0.18781 0.0
C37 C 0.04439 0.38809 0.20865 0.0
C38 C 0.06689 0.44306 0.18538 0.0
C39 C 0.04975 0.44458 0.22544 0.0
C40 C 0.03756 0.30739 0.09055 0.0
N41 N 0.02428 0.28585 0.11022 0.0
C42 C 0.01479 0.29914 0.0708 0.0
C43 C 0.9782 0.26852 0.07126 0.0
C44 C 0.96489 0.24657 0.09136 0.0
C45 C 0.98847 0.25569 0.11077 0.0
C46 C 0.04128 0.19107 0.12189 0.0
C47 C 0.03679 0.22884 0.1608 0.0
C48 C 0.04857 0.22819 0.12032 0.0
N49 N 0.04609 0.24653 0.13962 0.0
C50 C 0.02929 0.19173 0.16302 0.0
C51 C 0.03155 0.17277 0.14341 0.0
C52 C 0.09476 0.33165 0.18265 0.0
C53 C 0.16177 0.4625 0.12958 0.0
C54 C 0.1386 0.43407 0.17406 0.0
C55 C 0.17553 0.4632 0.17048 0.0
C56 C 0.18711 0.4775 0.14807 0.0
N57 N 0.11375 0.41961 0.15587 0.0
C58 C 0.12506 0.43338 0.13383 0.0
Co59 Co 0.76061 0.05951 0.30822 0.0
Co60 Co 0.68219 0.05887 0.33072 0.0
O61 O 0.71616 0.0658 0.30438 0.0
C62 C 0.78715 0.12772 0.27673 0.0
O63 O 0.75794 0.13111 0.28238 0.0
C64 C 0.63181 0.02888 0.288 0.0
O65 O 0.66024 0.03399 0.27488 0.0
O66 O 0.67436 0.0074 0.33645 0.0
O67 O 0.73333 0.0183 0.33188 0.0
H68 H 0.63423 0.02148 0.41268 0.0
H69 H 0.73296 0.05723 0.26004 0.0
O70 O 0.79106 0.10096 0.28506 0.0
H71 H 0.72395 0.93364 0.27193 0.0
H72 H 0.87325 0.05099 0.28094 0.0
H73 H 0.7995 0.05033 0.34922 0.0
H74 H 0.74818 0.98148 0.30315 0.0
H75 H 0.81679 0.0573 0.27588 0.0
O76 O 0.63634 0.03645 0.30976 0.0
H77 H 0.67624 0.03148 0.37929 0.0
H78 H 0.61602 0.07004 0.33798 0.0
H79 H 0.85556 0.04362 0.35507 0.0
H80 H 0.70905 0.01043 0.22823 0.0
H81 H 0.89289 0.04394 0.32076 0.0
H82 H 0.7043 0.94803 0.2341 0.0
O83 O 0.77945 0.09749 0.33352 0.0
H84 H 0.69017 0.16546 0.28213 0.0
H85 H 0.70051 0.1247 0.36133 0.0
H86 H 0.71078 0.18872 0.35534 0.0
H87 H 0.70538 0.20947 0.31551 0.0
H88 H 0.68109 0.10216 0.2888 0.0
H89 H 0.57317 0.06013 0.37087 0.0
H90 H 0.58224 0.03584 0.40859 0.0
O91 O 0.72597 0.08109 0.35304 0.0
C92 C 0.69975 0.99846 0.33962 0.0
C93 C 0.63005 0.03217 0.39635 0.0
C94 C 0.59574 0.05381 0.37288 0.0
N95 N 0.64876 0.05152 0.35673 0.0
C96 C 0.6538 0.03796 0.37739 0.0
C97 C 0.62004 0.05925 0.35429 0.0
C98 C 0.60086 0.0402 0.39404 0.0
C99 C 0.73128 0.03031 0.26267 0.0
N100 N 0.74196 0.02217 0.28344 0.0
C101 C 0.71757 1.00383 0.24462 0.0
C102 C 0.71486 0.96881 0.24794 0.0
C103 C 0.72584 0.96071 0.26917 0.0
C104 C 0.73937 0.98787 0.28683 0.0
C105 C 0.85714 0.05067 0.29602 0.0
C106 C 0.81537 0.05015 0.33419 0.0
C107 C 0.82516 0.05427 0.29327 0.0
N108 N 0.80458 0.05373 0.31223 0.0
C109 C 0.84719 0.04649 0.33762 0.0
C110 C 0.86814 0.04672 0.31837 0.0
C111 C 0.76191 0.09849 0.35164 0.0
C112 C 0.69242 0.1567 0.29959 0.0
C113 C 0.69846 0.13351 0.34389 0.0
C114 C 0.70413 0.16981 0.34064 0.0
C115 C 0.70104 0.18141 0.31831 0.0
N116 N 0.68989 0.10929 0.32546 0.0
C117 C 0.68695 0.12061 0.30352 0.0
Co118 Co 0.69964 0.74959 0.47083 0.0
Co119 Co 0.61936 0.67845 0.49697 0.0
O120 O 0.64701 0.70905 0.46991 0.0
C121 C 0.66465 0.79357 0.4523 0.0
O122 O 0.64437 0.7856 0.47142 0.0
C123 C 0.60694 0.62247 0.45956 0.0
O124 O 0.64187 0.64408 0.45265 0.0
O125 O 0.66086 0.66795 0.50473 0.0
O126 O 0.71343 0.71927 0.492 0.0
H127 H 0.6038 0.6376 0.58087 0.0
H128 H 0.66211 0.72148 0.42508 0.0
O129 O 0.68719 0.78086 0.44931 0.0
H130 H 0.77024 0.69959 0.42471 0.0
H131 H 0.81917 0.85388 0.43576 0.0
H132 H 0.75767 0.7845 0.50782 0.0
H133 H 0.75827 0.72933 0.45862 0.0
H134 H 0.75322 0.80194 0.43509 0.0
O135 O 0.59418 0.63187 0.47704 0.0
H136 H 0.63818 0.67593 0.54669 0.0
H137 H 0.54062 0.61569 0.50454 0.0
H138 H 0.82378 0.83602 0.50922 0.0
H139 H 0.6733 0.69213 0.39066 0.0
H140 H 0.85495 0.87112 0.473 0.0
H141 H 0.72761 0.68085 0.39038 0.0
O142 O 0.68997 0.77287 0.49879 0.0
H143 H 0.52826 0.69049 0.44384 0.0
H144 H 0.57459 0.70426 0.52468 0.0
H145 H 0.5247 0.71933 0.5155 0.0
H146 H 0.50114 0.71238 0.47483 0.0
H147 H 0.57837 0.67604 0.45376 0.0
H148 H 0.50525 0.57652 0.53824 0.0
H149 H 0.53682 0.58743 0.57677 0.0
O150 O 0.643 0.7237 0.51752 0.0
C151 C 0.69672 0.68822 0.50329 0.0
C152 C 0.58972 0.63257 0.56418 0.0
C153 C 0.53443 0.59825 0.54024 0.0
N154 N 0.59149 0.64803 0.52362 0.0
C155 C 0.60904 0.6542 0.54476 0.0
C156 C 0.55466 0.62043 0.5212 0.0
C157 C 0.55216 0.60441 0.56186 0.0
C158 C 0.68601 0.717 0.425 0.0
N159 N 0.70948 0.72704 0.44387 0.0
C160 C 0.69211 0.70022 0.4055 0.0
C161 C 0.72255 0.69384 0.40537 0.0
C162 C 0.74644 0.70429 0.42464 0.0
C163 C 0.73942 0.72093 0.44385 0.0
C164 C 0.80592 0.83875 0.45164 0.0
C165 C 0.77112 0.79947 0.49195 0.0
C166 C 0.76855 0.80937 0.45139 0.0
N167 N 0.7517 0.79003 0.47137 0.0
C168 C 0.80852 0.8287 0.49287 0.0
C169 C 0.82598 0.8484 0.47255 0.0
C170 C 0.66824 0.75838 0.51638 0.0
C171 C 0.53821 0.69352 0.46164 0.0
C172 C 0.56457 0.70125 0.50693 0.0
C173 C 0.53625 0.70976 0.50185 0.0
C174 C 0.52304 0.70584 0.47903 0.0
N175 N 0.57922 0.68904 0.48979 0.0
C176 C 0.56648 0.68525 0.46737 0.0
Co177 Co 0.94884 0.70775 0.63993 0.0
Co178 Co 0.95105 0.63085 0.66204 0.0
O179 O 0.94255 0.65709 0.63598 0.0
C180 C 0.8761 0.66517 0.61364 0.0
O181 O 0.86868 0.63451 0.62513 0.0
C182 C 0.97826 0.60888 0.61856 0.0
O183 O 0.97191 0.63146 0.60552 0.0
O184 O 1.00278 0.67449 0.66651 0.0
O185 O 0.99093 0.72215 0.66302 0.0
H186 H 0.99363 0.62266 0.74298 0.0
H187 H 0.94891 0.68172 0.59169 0.0
O188 O 0.90677 0.69589 0.61723 0.0
H189 H 0.07319 0.79577 0.60175 0.0
H190 H 0.95522 0.82783 0.61258 0.0
H191 H 0.95955 0.75669 0.6808 0.0
H192 H 0.02669 0.77301 0.63374 0.0
H193 H 0.94918 0.76515 0.60761 0.0
O194 O 0.97218 0.6067 0.64049 0.0
H195 H 0.98148 0.65368 0.70993 0.0
H196 H 0.94037 0.55376 0.66944 0.0
H197 H 0.96601 0.81938 0.68654 0.0
H198 H 0.99441 0.70374 0.55912 0.0
H199 H 0.96385 0.85541 0.65227 0.0
H200 H 0.05712 0.7611 0.56408 0.0
O201 O 0.9119 0.68908 0.66584 0.0
H202 H 0.84108 0.53227 0.6158 0.0
H203 H 0.88735 0.58434 0.69421 0.0
H204 H 0.82291 0.53082 0.68965 0.0
H205 H 0.79941 0.50419 0.65023 0.0
H206 H 0.90486 0.58623 0.62105 0.0
H207 H 0.95241 0.5218 0.70199 0.0
H208 H 0.97907 0.55623 0.73913 0.0
O209 O 0.93026 0.6532 0.68496 0.0
C210 C 0.0115 0.70869 0.66993 0.0
C211 C 0.98192 0.60732 0.7269 0.0
C212 C 0.95883 0.55073 0.70389 0.0
N213 N 0.96004 0.60553 0.68781 0.0
C214 C 0.9749 0.62472 0.70814 0.0
C215 C 0.95219 0.56904 0.68549 0.0
C216 C 0.97378 0.57007 0.72472 0.0
C217 C 0.97606 0.7068 0.59393 0.0
N218 N 0.98516 0.72593 0.61461 0.0
C219 C 1.00175 0.71909 0.57545 0.0
C220 C 0.03694 0.75125 0.57825 0.0
C221 C 0.04599 0.77069 0.59939 0.0
C222 C 0.0196 0.75754 0.61749 0.0
C223 C 0.95634 0.81246 0.62765 0.0
C224 C 0.95891 0.77231 0.66578 0.0
C225 C 0.9529 0.77693 0.62494 0.0
N226 N 0.95443 0.75743 0.64388 0.0
C227 C 0.96244 0.80775 0.66915 0.0
C228 C 0.96118 0.82793 0.64992 0.0
C229 C 0.91242 0.67143 0.68402 0.0
C230 C 0.85109 0.54342 0.63309 0.0
C231 C 0.87738 0.57312 0.67696 0.0
C232 C 0.84084 0.54269 0.67451 0.0
C233 C 0.82769 0.52774 0.6524 0.0
N234 N 0.90036 0.58825 0.65795 0.0
C235 C 0.88748 0.57385 0.63621 0.0
Co236 Co 0.25691 0.94887 0.80608 0.0
Co237 Co 0.33211 0.94467 0.82871 0.0
O238 O 0.29973 0.9407 0.80259 0.0
C239 C 0.21801 0.87363 0.78268 0.0
O240 O 0.22789 0.85995 0.80031 0.0
C241 C 0.40835 0.99373 0.80793 0.0
O242 O 0.41518 0.01865 0.82442 0.0
O243 O 0.3421 0.9969 0.83565 0.0
O244 O 0.28428 0.98913 0.83016 0.0
H245 H 0.38237 0.97804 0.91047 0.0
H246 H 0.28771 0.95114 0.7589 0.0
O247 O 0.22821 0.90862 0.78198 0.0
H248 H 0.29886 0.07591 0.76998 0.0
H249 H 0.14777 0.96132 0.77649 0.0
H250 H 0.21729 0.95951 0.84625 0.0
H251 H 0.27152 0.02759 0.80085 0.0
H252 H 0.20318 0.95289 0.77267 0.0
O253 O 0.37593 0.96422 0.80643 0.0
H254 H 0.34105 0.972 0.87749 0.0
H255 H 0.39387 0.92646 0.83505 0.0
H256 H 0.16227 0.96836 0.85087 0.0
H257 H 0.31489 0.99852 0.72747 0.0
H258 H 0.12708 0.9693 0.81581 0.0
H259 H 0.32063 0.06143 0.73293 0.0
O260 O 0.23604 0.91099 0.83161 0.0
H261 H 0.31576 0.83872 0.77649 0.0
H262 H 0.30963 0.87579 0.85756 0.0
H263 H 0.29407 0.81049 0.84914 0.0
H264 H 0.29722 0.7916 0.80835 0.0
H265 H 0.33064 0.90361 0.78565 0.0
H266 H 0.43591 0.93221 0.86753 0.0
H267 H 0.43024 0.95809 0.9056 0.0
O268 O 0.28867 0.92388 0.85114 0.0
C269 C 0.31753 0.00716 0.83867 0.0
C270 C 0.38511 0.96672 0.89397 0.0
C271 C 0.41517 0.94101 0.86987 0.0
N272 N 0.36503 0.94891 0.85436 0.0
C273 C 0.36178 0.96322 0.87523 0.0
C274 C 0.39133 0.93789 0.85153 0.0
C275 C 0.41197 0.95553 0.89122 0.0
C276 C 0.28991 0.97839 0.76133 0.0
N277 N 0.27786 0.98653 0.78161 0.0
C278 C 0.30542 0.00513 0.74351 0.0
C279 C 0.30866 0.04044 0.7466 0.0
C280 C 0.29647 0.04859 0.76738 0.0
C281 C 0.28111 0.02115 0.78482 0.0
C282 C 0.16295 0.9611 0.79189 0.0
C283 C 0.20237 0.96026 0.83091 0.0
C284 C 0.19433 0.9563 0.78984 0.0
N285 N 0.21376 0.9562 0.80921 0.0
C286 C 0.17112 0.96511 0.83363 0.0
C287 C 0.15136 0.96558 0.81396 0.0
C288 C 0.25283 0.90829 0.84964 0.0
C289 C 0.31439 0.84663 0.79434 0.0
C290 C 0.31088 0.86778 0.83976 0.0
C291 C 0.30215 0.83077 0.8351 0.0
C292 C 0.30394 0.8202 0.81222 0.0
N293 N 0.32123 0.8936 0.82214 0.0
C294 C 0.32291 0.88338 0.79965 0.0
Co295 Co 0.30765 0.24914 0.97166 0.0
Co296 Co 0.3879 0.32163 0.99729 0.0
O297 O 0.3601 0.29034 0.97039 0.0
C298 C 0.34491 0.20734 0.95301 0.0
O299 O 0.36622 0.21727 0.97173 0.0
C300 C 0.40813 0.37539 0.95648 0.0
O301 O 0.3821 0.34882 0.94352 0.0
O302 O 0.34601 0.33159 0.00492 0.0
O303 O 0.29357 0.27945 0.99281 0.0
H304 H 0.40278 0.36287 0.08114 0.0
H305 H 0.34251 0.27432 0.92484 0.0
O306 O 0.32061 0.21792 0.95032 0.0
H307 H 0.23446 0.29631 0.92586 0.0
H308 H 0.18845 0.14291 0.9376 0.0
H309 H 0.25023 0.21435 0.00904 0.0
H310 H 0.24871 0.26914 0.96009 0.0
H311 H 0.25408 0.19547 0.93643 0.0
O312 O 0.41295 0.36891 0.97759 0.0
H313 H 0.36879 0.32422 0.04698 0.0
H314 H 0.46643 0.38497 0.00491 0.0
H315 H 0.18446 0.1622 0.01094 0.0
H316 H 0.32877 0.30072 0.89001 0.0
H317 H 0.15314 0.12607 0.97504 0.0
H318 H 0.27455 0.31214 0.89042 0.0
O319 O 0.31813 0.22671 0.99962 0.0
H320 H 0.47874 0.30741 0.94467 0.0
H321 H 0.43373 0.2981 0.02555 0.0
H322 H 0.48406 0.2834 0.01703 0.0
H323 H 0.50703 0.28817 0.97635 0.0
H324 H 0.42824 0.3214 0.9539 0.0
H325 H 0.50139 0.42446 0.0386 0.0
H326 H 0.46959 0.41346 0.07707 0.0
O327 O 0.3647 0.27658 0.01801 0.0
C328 C 0.31016 0.31084 1.0038 0.0
C329 C 0.41695 0.36797 0.06447 0.0
C330 C 0.47227 0.40256 0.04058 0.0
N331 N 0.4155 0.35238 0.02393 0.0
C332 C 0.39784 0.34616 0.04505 0.0
C333 C 0.45225 0.38021 0.02154 0.0
C334 C 0.45442 0.39635 0.06217 0.0
C335 C 0.31865 0.27887 0.9251 0.0
N336 N 0.29667 0.27055 0.9446 0.0
C337 C 0.31112 0.294 0.90535 0.0
C338 C 0.28074 0.30045 0.90561 0.0
C339 C 0.25829 0.29166 0.9255 0.0
C340 C 0.26669 0.27659 0.94493 0.0
C341 C 0.20177 0.15849 0.95335 0.0
C342 C 0.23672 0.19892 0.99331 0.0
C343 C 0.23895 0.18822 0.95281 0.0
N344 N 0.25588 0.20813 0.97262 0.0
C345 C 0.19951 0.16935 0.99451 0.0
C346 C 0.18197 0.14906 0.97436 0.0
C347 C 0.33976 0.24178 0.01714 0.0
C348 C 0.46918 0.30551 0.9625 0.0
C349 C 0.44359 0.30034 0.0078 0.0
C350 C 0.47212 0.29197 1.00309 0.0
C351 C 0.48499 0.29464 0.98027 0.0
N352 N 0.42844 0.31136 0.99032 0.0
C353 C 0.44071 0.31369 0.96787 0.0
Co354 Co 0.70975 0.94761 0.70148 0.0
Co355 Co 0.63136 0.94657 0.67902 0.0
O356 O 0.65869 0.94027 0.70533 0.0
C357 C 0.6686 0.87486 0.72789 0.0
O358 O 0.63785 0.86654 0.71622 0.0
C359 C 0.61747 0.98541 0.71936 0.0
O360 O 0.65037 0.99432 0.72832 0.0
O361 O 0.67396 0.99857 0.67339 0.0
O362 O 0.72311 0.98923 0.6782 0.0
H363 H 0.61913 0.98372 0.59732 0.0
H364 H 0.68289 0.94753 0.74949 0.0
O365 O 0.69882 0.90604 0.72439 0.0
H366 H 0.79536 0.07299 0.73934 0.0
H367 H 0.83117 0.95756 0.72924 0.0
H368 H 0.75912 0.95909 0.66074 0.0
H369 H 0.77371 0.02622 0.7075 0.0
H370 H 0.76781 0.94987 0.73402 0.0
O371 O 0.60674 0.96722 0.70024 0.0
H372 H 0.65216 0.97489 0.63057 0.0
H373 H 0.55308 0.93265 0.67195 0.0
H374 H 0.8225 0.96719 0.65519 0.0
H375 H 0.70389 0.99324 0.78194 0.0
H376 H 0.85899 0.96644 0.68961 0.0
H377 H 0.76043 0.05656 0.77692 0.0
O378 O 0.69207 0.91029 0.67569 0.0
H379 H 0.53571 0.84067 0.7286 0.0
H380 H 0.58576 0.87916 0.6489 0.0
H381 H 0.53382 0.81446 0.65587 0.0
H382 H 0.50833 0.79487 0.69595 0.0
H383 H 0.5881 0.9049 0.72091 0.0
H384 H 0.5191 0.94135 0.63921 0.0
H385 H 0.5521 0.9669 0.60153 0.0
O386 O 0.65403 0.92572 0.65648 0.0
C387 C 0.7086 0.00847 0.67052 0.0
C388 C 0.60441 0.97248 0.61364 0.0
C389 C 0.54828 0.94874 0.63715 0.0
N390 N 0.60454 0.95306 0.65314 0.0
C391 C 0.62295 0.96734 0.63251 0.0
C392 C 0.56772 0.94396 0.65565 0.0
C393 C 0.56681 0.96306 0.61601 0.0
C394 C 0.70774 0.97487 0.74728 0.0
N395 N 0.72705 0.98417 0.72665 0.0
C396 C 0.7194 1.00071 0.76567 0.0
C397 C 0.75108 0.03625 0.76283 0.0
C398 C 0.77066 0.04551 0.74173 0.0
C399 C 0.75816 0.01896 0.72373 0.0
C400 C 0.81561 0.95807 0.71412 0.0
C401 C 0.77494 0.95907 0.67582 0.0
C402 C 0.77969 0.9537 0.71671 0.0
N403 N 0.75993 0.95446 0.69769 0.0
C404 C 0.81077 0.96352 0.67256 0.0
C405 C 0.8312 0.96305 0.69187 0.0
C406 C 0.67359 0.9093 0.65757 0.0
C407 C 0.5465 0.84889 0.71104 0.0
C408 C 0.57508 0.8708 0.66642 0.0
C409 C 0.54553 0.83415 0.67024 0.0
C410 C 0.5312 0.82319 0.69273 0.0
N411 N 0.58996 0.89585 0.68448 0.0
C412 C 0.57604 0.88531 0.70656 0.0
Co413 Co 0.75783 0.70263 0.87126 0.0
Co414 Co 0.68545 0.62095 0.84674 0.0
O415 O 0.71685 0.65013 0.87327 0.0
C416 C 0.80056 0.66675 0.89029 0.0
O417 O 0.79054 0.64476 0.87186 0.0
C418 C 0.63187 0.60246 0.88753 0.0
O419 O 0.65847 0.62902 0.90021 0.0
O420 O 0.67551 0.6625 0.83797 0.0
O421 O 0.72698 0.71564 0.85001 0.0
H422 H 0.6441 0.60186 0.76285 0.0
H423 H 0.73336 0.6693 0.91848 0.0
O424 O 0.78958 0.69078 0.89273 0.0
H425 H 0.71116 0.7772 0.91622 0.0
H426 H 0.86425 0.82344 0.90359 0.0
H427 H 0.79168 0.75866 0.83309 0.0
H428 H 0.73792 0.76191 0.88216 0.0
H429 H 0.81195 0.75775 0.90572 0.0
O430 O 0.63826 0.59692 0.86654 0.0
H431 H 0.68283 0.63754 0.79659 0.0
H432 H 0.62196 0.54208 0.84034 0.0
H433 H 0.84355 0.82446 0.83023 0.0
H434 H 0.70738 0.68409 0.95315 0.0
H435 H 0.88025 0.85729 0.86566 0.0
H436 H 0.69584 0.73824 0.95211 0.0
O437 O 0.77996 0.69128 0.84345 0.0
H438 H 0.70001 0.53301 0.90172 0.0
H439 H 0.70835 0.57324 0.81983 0.0
H440 H 0.72291 0.52327 0.82972 0.0
H441 H 0.71861 0.50268 0.87092 0.0
H442 H 0.68618 0.58312 0.89114 0.0
H443 H 0.58239 0.50547 0.8071 0.0
H444 H 0.59342 0.53531 0.76799 0.0
O445 O 0.73043 0.64294 0.82597 0.0
C446 C 0.69576 0.69843 0.83893 0.0
C447 C 0.639 0.58854 0.77981 0.0
C448 C 0.60433 0.53447 0.80465 0.0
N449 N 0.65462 0.59202 0.82045 0.0
C450 C 0.66085 0.60861 0.79899 0.0
C451 C 0.62673 0.55542 0.82344 0.0
C452 C 0.61056 0.55122 0.78271 0.0
C453 C 0.72874 0.6931 0.91794 0.0
N454 N 0.73676 0.71445 0.89819 0.0
C455 C 0.71386 0.70125 0.9376 0.0
C456 C 0.70734 0.73159 0.93699 0.0
C457 C 0.71584 0.7534 0.91684 0.0
C458 C 0.73067 0.7444 0.89752 0.0
C459 C 0.84842 0.80946 0.88804 0.0
C460 C 0.80735 0.77283 0.84862 0.0
C461 C 0.81882 0.77224 0.88913 0.0
N462 N 0.7986 0.75447 0.86958 0.0
C463 C 0.83677 0.81005 0.84687 0.0
C464 C 0.85737 0.82844 0.86675 0.0
C465 C 0.76507 0.66831 0.82649 0.0
C466 C 0.70169 0.54152 0.88368 0.0
C467 C 0.70632 0.56444 0.8378 0.0
C468 C 0.71462 0.5361 0.84329 0.0
C469 C 0.7122 0.52457 0.8664 0.0
N470 N 0.69564 0.58071 0.85481 0.0
C471 C 0.6936 0.56977 0.87754 0.0
Co472 Co 0.06554 0.75972 0.03407 0.0
Co473 Co 0.06456 0.68103 0.0119 0.0
O474 O 0.0716 0.71516 0.03815 0.0
C475 C 0.13502 0.78765 0.06416 0.0
O476 O 0.14106 0.76113 0.05608 0.0
C477 C 0.03473 0.63077 0.05473 0.0
O478 O 0.0404 0.65935 0.06791 0.0
O479 O 0.01317 0.67339 0.0061 0.0
O480 O 0.02475 0.73267 0.01018 0.0
H481 H 0.02714 0.63284 0.92997 0.0
H482 H 0.06277 0.73234 0.08228 0.0
O483 O 0.10644 0.78981 0.05751 0.0
H484 H 0.93928 0.72316 0.06968 0.0
H485 H 0.05717 0.87267 0.06094 0.0
H486 H 0.05725 0.79887 0.99287 0.0
H487 H 0.98744 0.74736 0.03865 0.0
H488 H 0.06306 0.81599 0.06622 0.0
O489 O 0.04196 0.63521 0.03293 0.0
H490 H 0.03733 0.67506 0.96327 0.0
H491 H 0.0753 0.61453 0.0048 0.0
H492 H 0.05098 0.85516 0.98681 0.0
H493 H 0.01559 0.70839 0.1139 0.0
H494 H 0.05093 0.89252 0.02101 0.0
H495 H 0.95326 0.70358 0.10767 0.0
O496 O 0.10388 0.77842 0.00896 0.0
H497 H 0.17116 0.68941 0.06063 0.0
H498 H 0.13015 0.69863 0.98129 0.0
H499 H 0.19403 0.7086 0.9873 0.0
H500 H 0.21489 0.70373 0.02719 0.0
H501 H 0.10802 0.68065 0.05393 0.0
H502 H 0.06517 0.57145 0.97199 0.0
H503 H 0.04108 0.58057 0.93421 0.0
O504 O 0.08696 0.72476 0.9895 0.0
C505 C 1.00465 0.69903 1.00262 0.0
C506 C 0.03773 0.62863 0.94633 0.0
C507 C 0.05903 0.59414 0.96992 0.0
N508 N 0.05708 0.64743 0.98594 0.0
C509 C 0.04364 0.6525 0.96524 0.0
C510 C 0.06459 0.61857 0.98847 0.0
C511 C 0.04553 0.59929 0.94873 0.0
C512 C 0.03582 0.73054 0.07949 0.0
N513 N 0.02788 0.74116 0.05863 0.0
C514 C 0.00917 0.71686 0.09743 0.0
C515 C 0.97419 0.71412 0.09391 0.0
C516 C 0.9663 0.72506 0.07259 0.0
C517 C 0.99364 0.73857 0.05504 0.0
C518 C 0.05702 0.85655 0.0459 0.0
C519 C 0.05691 0.81475 0.00786 0.0
C520 C 0.06037 0.82444 0.04878 0.0
N521 N 0.06005 0.80385 0.02988 0.0
C522 C 0.0535 0.8467 1.00431 0.0
C523 C 0.05352 0.86767 0.0235 0.0
C524 C 0.10465 0.76073 0.99086 0.0
C525 C 0.16232 0.69135 0.04313 0.0
C526 C 0.13899 0.69675 0.99874 0.0
C527 C 0.17522 0.70227 1.00202 0.0
C528 C 0.18688 0.69949 0.02439 0.0
N529 N 0.11488 0.68856 0.01719 0.0
C530 C 0.1263 0.68602 0.03919 0.0
Co531 Co 0.30302 0.05604 0.20445 0.0
Co532 Co 0.38422 0.06258 0.18068 0.0
O533 O 0.35561 0.06708 0.20699 0.0
C534 C 0.34334 0.13273 0.22646 0.0
O535 O 0.37308 0.14085 0.21372 0.0
C536 C 0.40542 0.03211 0.22286 0.0
O537 O 0.38121 0.03561 0.23611 0.0
O538 O 0.34269 0.01054 0.17362 0.0
O539 O 0.2901 0.01145 0.18385 0.0
H540 H 0.40025 0.03185 0.09799 0.0
H541 H 0.33589 0.06602 0.25177 0.0
O542 O 0.31378 0.1004 0.22495 0.0
H543 H 0.22762 0.93649 0.25053 0.0
H544 H 0.18144 0.04287 0.2348 0.0
H545 H 0.24813 0.03355 0.16562 0.0
H546 H 0.24321 0.97748 0.21598 0.0
H547 H 0.24695 0.05584 0.23795 0.0
O548 O 0.40883 0.04092 0.2013 0.0
H549 H 0.36571 0.03812 0.13136 0.0
H550 H 0.46301 0.07762 0.17407 0.0
H551 H 0.18251 0.01999 0.16175 0.0
H552 H 0.32094 0.02626 0.28689 0.0
H553 H 0.14872 0.02465 0.19651 0.0
H554 H 0.26656 0.96089 0.28637 0.0
O555 O 0.31531 0.08897 0.17647 0.0
H556 H 0.47607 0.16946 0.2318 0.0
H557 H 0.42993 0.13059 0.15146 0.0
H558 H 0.48066 0.19562 0.15894 0.0
H559 H 0.50425 0.21543 0.19934 0.0
H560 H 0.42501 0.10508 0.22365 0.0
H561 H 0.49851 0.07149 0.14119 0.0
H562 H 0.46716 0.04859 0.10278 0.0
O563 O 0.3614 0.08366 0.15888 0.0
C564 C 0.30688 0.9959 0.17394 0.0
C565 C 0.41424 0.0419 0.11463 0.0
C566 C 0.46936 0.06409 0.13888 0.0
N567 N 0.41228 0.05823 0.15466 0.0
C568 C 0.39484 0.04556 0.13359 0.0
C569 C 0.44906 0.06737 0.15747 0.0
C570 C 0.45176 0.05127 0.11734 0.0
C571 C 0.31203 0.03771 0.25146 0.0
N572 N 0.29065 0.02399 0.23177 0.0
C573 C 0.30378 0.01527 0.27138 0.0
C574 C 0.2733 0.97859 0.27106 0.0
C575 C 0.25149 0.96486 0.25094 0.0
C576 C 0.26062 0.9881 0.23136 0.0
C577 C 0.19583 0.04067 0.21954 0.0
C578 C 0.23353 0.03538 0.18086 0.0
C579 C 0.23296 0.04806 0.2212 0.0
N580 N 0.25126 0.04518 0.20202 0.0
C581 C 0.19641 0.02778 0.17855 0.0
C582 C 0.17749 0.03044 0.19805 0.0
C583 C 0.33704 0.09441 0.15917 0.0
C584 C 0.46627 0.16108 0.21409 0.0
C585 C 0.43993 0.1389 0.16912 0.0
C586 C 0.46875 0.17581 0.17323 0.0
C587 C 0.48199 0.18689 0.19588 0.0
N588 N 0.42479 0.11358 0.18703 0.0
C589 C 0.43751 0.1244 0.20931 0.0
Co590 Co 0.25445 0.30457 0.36862 0.0
Co591 Co 0.32403 0.38726 0.34407 0.0
O592 O 0.29368 0.35742 0.37047 0.0
C593 C 0.21034 0.33857 0.38814 0.0
O594 O 0.21974 0.3604 0.36967 0.0
C595 C 0.40096 0.4152 0.36417 0.0
O596 O 0.40772 0.39684 0.34781 0.0
O597 O 0.33673 0.34739 0.33541 0.0
O598 O 0.28628 0.29312 0.34719 0.0
H599 H 0.36876 0.41024 0.26081 0.0
H600 H 0.28237 0.34119 0.41463 0.0
O601 O 0.222 0.31504 0.39043 0.0
H602 H 0.30528 0.23368 0.41342 0.0
H603 H 0.15149 0.18214 0.40152 0.0
H604 H 0.22187 0.24802 0.33063 0.0
H605 H 0.27545 0.24623 0.37986 0.0
H606 H 0.20207 0.24866 0.40336 0.0
O607 O 0.36869 0.41274 0.36561 0.0
H608 H 0.32997 0.37246 0.29398 0.0
H609 H 0.38365 0.46795 0.33849 0.0
H610 H 0.17175 0.1814 0.32804 0.0
H611 H 0.31188 0.32945 0.44872 0.0
H612 H 0.13616 0.14802 0.36366 0.0
H613 H 0.32359 0.2754 0.44822 0.0
O614 O 0.23108 0.31461 0.3409 0.0
H615 H 0.30445 0.47209 0.39885 0.0
H616 H 0.2957 0.43053 0.31716 0.0
H617 H 0.27687 0.47745 0.32721 0.0
H618 H 0.28128 0.49861 0.36831 0.0
H619 H 0.32265 0.42495 0.38808 0.0
H620 H 0.42316 0.50677 0.30584 0.0
H621 H 0.41582 0.47794 0.26663 0.0
O622 O 0.27984 0.36294 0.3227 0.0
C623 C 0.31755 0.31136 0.33625 0.0
C624 C 0.37235 0.4231 0.27782 0.0
C625 C 0.40288 0.47727 0.30309 0.0
N626 N 0.35484 0.4178 0.31823 0.0
C627 C 0.35052 0.40181 0.29669 0.0
C628 C 0.38054 0.45509 0.32155 0.0
C629 C 0.39873 0.46108 0.2811 0.0
C630 C 0.28724 0.31753 0.41433 0.0
N631 N 0.27724 0.29443 0.39527 0.0
C632 C 0.30402 0.31106 0.43366 0.0
C633 C 0.31061 0.28075 0.43337 0.0
C634 C 0.30038 0.25735 0.41384 0.0
C635 C 0.28366 0.26469 0.39483 0.0
C636 C 0.16684 0.19636 0.38588 0.0
C637 C 0.20668 0.23361 0.34623 0.0
C638 C 0.19544 0.23405 0.3868 0.0
N639 N 0.21508 0.25211 0.36715 0.0
C640 C 0.17825 0.19592 0.34465 0.0
C641 C 0.15826 0.17722 0.36464 0.0
C642 C 0.24544 0.33683 0.32351 0.0
C643 C 0.30252 0.46319 0.38087 0.0
C644 C 0.29763 0.43951 0.33509 0.0
C645 C 0.28699 0.46615 0.34067 0.0
C646 C 0.28948 0.47802 0.36373 0.0
N647 N 0.31054 0.42519 0.35198 0.0
C648 C 0.31293 0.43661 0.37465 0.0
Co649 Co 0.95055 0.25248 0.53582 0.0
Co650 Co 0.95014 0.32906 0.51152 0.0
O651 O 0.94381 0.29657 0.5383 0.0
C652 C 0.8746 0.21536 0.55846 0.0
O653 O 0.86163 0.22506 0.54038 0.0
C654 C 0.97975 0.38111 0.55356 0.0
O655 O 0.97478 0.3532 0.56712 0.0
O656 O 1.0016 0.33667 0.50557 0.0
O657 O 0.99154 0.27821 0.51188 0.0
H658 H 0.9857 0.37331 0.42877 0.0
H659 H 0.95172 0.2818 0.5834 0.0
O660 O 0.90944 0.22514 0.55966 0.0
H661 H 0.07656 0.29301 0.57296 0.0
H662 H 0.95863 0.14202 0.56769 0.0
H663 H 0.96051 0.21076 0.4966 0.0
H664 H 0.02904 0.26669 0.54165 0.0
H665 H 0.95208 0.19869 0.57032 0.0
O666 O 0.9726 0.37585 0.53177 0.0
H667 H 0.97646 0.33282 0.46284 0.0
H668 H 0.93867 0.39482 0.50319 0.0
H669 H 0.96746 0.15444 0.49318 0.0
H670 H 0.99823 0.30779 0.61531 0.0
H671 H 0.96654 0.11963 0.52891 0.0
H672 H 0.06124 0.31367 0.61015 0.0
O673 O 0.91321 0.23179 0.5101 0.0
H674 H 0.84228 0.31599 0.56103 0.0
H675 H 0.8844 0.31158 0.48109 0.0
H676 H 0.81987 0.29965 0.48754 0.0
H677 H 0.79844 0.30203 0.52775 0.0
H678 H 0.90624 0.32717 0.55386 0.0
H679 H 0.94788 0.43622 0.46961 0.0
H680 H 0.97138 0.42546 0.43203 0.0
O681 O 0.9276 0.28433 0.49002 0.0
C682 C 0.01073 0.31121 0.50315 0.0
C683 C 0.97535 0.37822 0.44503 0.0
C684 C 0.95419 0.41356 0.46796 0.0
N685 N 0.95685 0.36129 0.48496 0.0
C686 C 0.96998 0.35533 0.46438 0.0
C687 C 0.94916 0.39011 0.48695 0.0
C688 C 0.96735 0.4075 0.44688 0.0
C689 C 0.979 0.28408 0.58107 0.0
N690 N 0.9877 0.27297 0.56062 0.0
C691 C 1.00526 0.29891 0.59918 0.0
C692 C 0.04062 0.30225 0.59627 0.0
C693 C 0.04925 0.29072 0.57539 0.0
C694 C 0.02229 0.27604 0.55766 0.0
C695 C 0.95922 0.15703 0.552 0.0
C696 C 0.96045 0.19601 0.51224 0.0
C697 C 0.9555 0.18912 0.55338 0.0
N698 N 0.9564 0.20832 0.53365 0.0
C699 C 0.96423 0.16402 0.51019 0.0
C700 C 0.96366 0.14448 0.53024 0.0
C701 C 0.91115 0.24847 0.49185 0.0
C702 C 0.8514 0.31523 0.5434 0.0
C703 C 0.87544 0.31278 0.49864 0.0
C704 C 0.83879 0.30598 0.50218 0.0
C705 C 0.82678 0.30731 0.52474 0.0
N706 N 0.89967 0.32102 0.517 0.0
C707 C 0.88785 0.32189 0.53919 0.0
C708 C 1.00368 0.56039 0.05535 0.0
C709 C 0.02819 0.59527 0.06565 0.0
C710 C 1.00023 0.52676 0.06429 0.0
C711 C 0.0232 0.5283 0.08324 0.0
C712 C 0.04788 0.56358 0.09374 0.0
C713 C 0.04951 0.59653 0.0851 0.0
C714 C 0.97252 0.48968 0.05316 0.0
C715 C 0.07393 0.56681 0.11337 0.0
C716 C 1.00411 0.44256 0.11966 0.0
C717 C 0.02737 0.43103 0.10877 0.0
C718 C 1.00096 0.47298 0.11084 0.0
C719 C 0.02303 0.49348 0.09136 0.0
C720 C 0.04649 0.48175 0.08029 0.0
C721 C 0.04779 0.45021 0.08886 0.0
C722 C 0.97451 0.48357 0.12261 0.0
C723 C 0.07159 0.50355 0.06006 0.0
H724 H 0.9873 0.55947 0.04025 0.0
H725 H 0.06903 0.6236 0.09278 0.0
H726 H 0.98794 0.47767 0.04389 0.0
H727 H 0.95486 0.46908 0.06675 0.0
H728 H 0.95377 0.49284 0.04047 0.0
H729 H 0.09138 0.59629 0.11965 0.0
H730 H 0.05746 0.54889 0.12828 0.0
H731 H 0.093 0.55648 0.10739 0.0
H732 H 0.9884 0.42775 0.13512 0.0
H733 H 0.06633 0.44172 0.0807 0.0
H734 H 0.95625 0.4865 0.10944 0.0
H735 H 0.99093 0.51123 0.13143 0.0
H736 H 0.95631 0.46236 0.1358 0.0
H737 H 0.05447 0.50494 0.04552 0.0
H738 H 0.08823 0.49078 0.05342 0.0
H739 H 0.0914 0.53297 0.06556 0.0
C740 C 0.59824 0.04424 0.25751 0.0
C741 C 0.59656 0.02281 0.277 0.0
C742 C 0.56562 0.0432 0.24883 0.0
C743 C 0.53022 0.01901 0.25934 0.0
C744 C 0.52821 0.9959 0.27834 0.0
C745 C 0.56155 0.99877 0.28731 0.0
C746 C 0.56935 0.06938 0.22914 0.0
C747 C 0.49096 0.9687 0.28948 0.0
C748 C 0.4536 0.04556 0.25353 0.0
C749 C 0.4343 0.02531 0.23361 0.0
C750 C 0.48469 0.04355 0.26219 0.0
C751 C 0.49579 0.01952 0.25119 0.0
C752 C 0.47511 0.99761 0.23171 0.0
C753 C 0.44518 1.00148 0.2228 0.0
C754 C 0.50673 0.0685 0.28242 0.0
C755 C 0.48502 0.97059 0.22002 0.0
H756 H 0.62543 0.0634 0.24983 0.0
H757 H 0.56032 0.98233 0.30246 0.0
H758 H 0.55128 0.05304 0.21425 0.0
H759 H 0.55952 0.08888 0.23508 0.0
H760 H 0.59886 0.08638 0.22286 0.0
H761 H 0.4937 0.9497 0.30219 0.0
H762 H 0.47941 0.98455 0.29873 0.0
H763 H 0.47022 0.95126 0.27589 0.0
H764 H 0.4456 0.06453 0.26162 0.0
H765 H 0.43026 0.98591 0.20733 0.0
H766 H 0.53625 0.08792 0.27692 0.0
H767 H 0.50776 0.0512 0.29697 0.0
H768 H 0.49441 0.08557 0.28902 0.0
H769 H 0.5127 0.98657 0.21117 0.0
H770 H 0.46364 0.95255 0.20687 0.0
H771 H 0.48757 0.95217 0.23324 0.0
C772 C 0.55049 0.55807 0.45698 0.0
C773 C 0.58061 0.58888 0.44584 0.0
C774 C 0.52294 0.52752 0.44409 0.0
C775 C 0.5248 0.52836 0.41939 0.0
C776 C 0.55567 0.55908 0.40808 0.0
C777 C 0.58353 0.58872 0.42148 0.0
C778 C 0.49119 0.49489 0.4569 0.0
C779 C 0.55821 0.56165 0.3818 0.0
C780 C 0.46375 0.4393 0.38383 0.0
C781 C 0.43218 0.44305 0.379 0.0
C782 C 0.49389 0.46648 0.39728 0.0
C783 C 0.49293 0.49872 0.40545 0.0
C784 C 0.4612 0.50272 0.40041 0.0
C785 C 0.43105 0.47462 0.38757 0.0
C786 C 0.52665 0.46061 0.40287 0.0
C787 C 0.45931 0.53701 0.40826 0.0
H788 H 0.54827 0.55805 0.47584 0.0
H789 H 0.60657 0.6127 0.41281 0.0
H790 H 0.46439 0.49477 0.45371 0.0
H791 H 0.48753 0.46774 0.4503 0.0
H792 H 0.49616 0.49643 0.47603 0.0
H793 H 0.58495 0.58627 0.37572 0.0
H794 H 0.55603 0.53563 0.37432 0.0
H795 H 0.53426 0.56416 0.37482 0.0
H796 H 0.4647 0.4149 0.3773 0.0
H797 H 0.40695 0.47797 0.38368 0.0
H798 H 0.53056 0.46109 0.42205 0.0
H799 H 0.55302 0.48393 0.39543 0.0
H800 H 0.52256 0.43346 0.39591 0.0
H801 H 0.46024 0.5388 0.42758 0.0
H802 H 0.43329 0.53651 0.40217 0.0
H803 H 0.48412 0.56299 0.40156 0.0
C804 C 0.96359 0.5601 0.58799 0.0
C805 C 0.98487 0.58001 0.60748 0.0
C806 C 0.9654 0.52894 0.57917 0.0
C807 C 0.99021 0.51835 0.58955 0.0
C808 C 0.01317 0.53966 0.60853 0.0
C809 C 0.00956 0.56969 0.61763 0.0
C810 C 0.93936 0.50624 0.55952 0.0
C811 C 0.041 0.53028 0.61955 0.0
C812 C 0.96551 0.41575 0.58399 0.0
C813 C 0.98586 0.41676 0.56406 0.0
C814 C 0.96687 0.44863 0.59253 0.0
C815 C 0.99031 0.48366 0.58141 0.0
C816 C 0.01231 0.48503 0.5619 0.0
C817 C 0.00911 0.4514 0.55312 0.0
C818 C 0.94186 0.44554 0.61281 0.0
C819 C 0.03874 0.52191 0.5501 0.0
H820 H 0.94397 0.56764 0.5804 0.0
H821 H 0.02595 0.58505 0.63275 0.0
H822 H 0.95582 0.50467 0.54461 0.0
H823 H 0.92023 0.47692 0.56548 0.0
H824 H 0.92197 0.51838 0.55324 0.0
H825 H 0.05984 0.5522 0.63219 0.0
H826 H 0.02566 0.50295 0.62886 0.0
H827 H 0.05855 0.52723 0.60589 0.0
H828 H 0.94698 0.38885 0.59221 0.0
H829 H 0.02478 0.45215 0.53766 0.0
H830 H 0.92211 0.4553 0.60735 0.0
H831 H 0.95907 0.464 0.62733 0.0
H832 H 0.92516 0.41621 0.61944 0.0
H833 H 0.02231 0.5332 0.5413 0.0
H834 H 0.05686 0.51875 0.53688 0.0
H835 H 0.05707 0.54309 0.56324 0.0
C836 C 0.56326 0.99743 0.72001 0.0
C837 C 0.59066 0.99327 0.73225 0.0
C838 C 0.53529 1.00134 0.73183 0.0
C839 C 0.53391 0.99994 0.75653 0.0
C840 C 0.56205 0.99661 0.769 0.0
C841 C 0.59041 0.99383 0.7567 0.0
C842 C 0.50652 0.00583 0.71784 0.0
C843 C 0.56114 0.99408 0.79529 0.0
C844 C 0.47311 0.0307 0.79026 0.0
C845 C 0.43981 0.9962 0.79361 0.0
C846 C 0.50375 0.03255 0.77785 0.0
C847 C 0.50143 0.99898 0.76916 0.0
C848 C 0.46785 0.96411 0.77254 0.0
C849 C 0.43738 0.96322 0.78442 0.0
C850 C 0.53862 0.07039 0.77407 0.0
C851 C 0.46432 0.92752 0.76402 0.0
H852 H 0.56347 0.99725 0.70108 0.0
H853 H 0.61131 0.99029 0.76624 0.0
H854 H 0.47845 0.98015 0.71965 0.0
H855 H 0.50401 0.02994 0.72456 0.0
H856 H 0.51383 0.01045 0.69899 0.0
H857 H 0.58606 0.99345 0.80244 0.0
H858 H 0.56002 0.01836 0.80303 0.0
H859 H 0.53528 0.96809 0.8009 0.0
H860 H 0.47517 0.05628 0.79729 0.0
H861 H 0.41197 0.93634 0.78716 0.0
H862 H 0.54516 0.07509 0.75515 0.0
H863 H 0.56314 0.07097 0.78272 0.0
H864 H 0.53539 0.094 0.78101 0.0
H865 H 0.46786 0.92836 0.7448 0.0
H866 H 0.43664 0.9027 0.76854 0.0
H867 H 0.48698 0.92359 0.77176 0.0
C868 C 0.44797 0.44561 0.95576 0.0
C869 C 0.4371 0.41059 0.94548 0.0
C870 C 0.47755 0.47902 0.94626 0.0
C871 C 0.49786 0.47702 0.92676 0.0
C872 C 0.48687 0.44152 0.91641 0.0
C873 C 0.4561 0.40883 0.92562 0.0
C874 C 0.48736 0.51636 0.95725 0.0
C875 C 0.5086 0.43783 0.89623 0.0
C876 C 0.56182 0.56155 0.88879 0.0
C877 C 0.59712 0.57336 0.89888 0.0
C878 C 0.52893 0.53147 0.89843 0.0
C879 C 0.53178 0.51162 0.91788 0.0
C880 C 0.56755 0.52365 0.9281 0.0
C881 C 0.59968 0.55487 0.91875 0.0
C882 C 0.49125 0.52054 0.88758 0.0
C883 C 0.57217 0.50245 0.94822 0.0
H884 H 0.43323 0.44683 0.97118 0.0
H885 H 0.44803 0.38158 0.91796 0.0
H886 H 0.51538 0.52877 0.96574 0.0
H887 H 0.48915 0.53651 0.94365 0.0
H888 H 0.46632 0.51347 0.97056 0.0
H889 H 0.49659 0.40816 0.89031 0.0
H890 H 0.5088 0.45509 0.88127 0.0
H891 H 0.53838 0.44867 0.90145 0.0
H892 H 0.55999 0.57585 0.87334 0.0
H893 H 0.62716 0.56366 0.92625 0.0
H894 H 0.47083 0.51782 0.90127 0.0
H895 H 0.4797 0.4927 0.87891 0.0
H896 H 0.49336 0.54145 0.87443 0.0
H897 H 0.5545 0.50142 0.96319 0.0
H898 H 0.6019 0.51546 0.95416 0.0
H899 H 0.56244 0.4729 0.9429 0.0
C900 C 0.16427 0.30629 0.09597 0.0
C901 C 0.1602 0.33831 0.09725 0.0
C902 C 0.19021 0.30478 0.08053 0.0
C903 C 0.21155 0.33543 0.06524 0.0
C904 C 0.20714 0.36767 0.06626 0.0
C905 C 0.18206 0.36904 0.0826 0.0
C906 C 0.19486 0.27039 0.08066 0.0
C907 C 0.22819 0.4003 0.04971 0.0
C908 C 0.30028 0.34236 0.03857 0.0
C909 C 0.28635 0.32167 0.01784 0.0
C910 C 0.2765 0.34766 0.05398 0.0
C911 C 0.23808 0.33326 0.04811 0.0
C912 C 0.22445 0.31445 0.0265 0.0
C913 C 0.24849 0.30825 0.01188 0.0
C914 C 0.29204 0.36682 0.07712 0.0
C915 C 0.1841 0.29981 0.0191 0.0
H916 H 0.14754 0.28257 0.10739 0.0
H917 H 0.17865 0.39366 0.0834 0.0
H918 H 0.186 0.25569 0.06361 0.0
H919 H 0.22497 0.27895 0.08318 0.0
H920 H 0.178 0.25013 0.09463 0.0
H921 H 0.22128 0.42306 0.05252 0.0
H922 H 0.25902 0.41235 0.05184 0.0
H923 H 0.22119 0.39021 0.03143 0.0
H924 H 0.3294 0.35283 0.04341 0.0
H925 H 0.23743 0.29243 0.99587 0.0
H926 H 0.27746 0.3465 0.0915 0.0
H927 H 0.28663 0.3906 0.07956 0.0
H928 H 0.32283 0.3777 0.07868 0.0
H929 H 0.16498 0.27568 0.03032 0.0
H930 H 0.17923 0.29024 1.00064 0.0
H931 H 0.17629 0.32201 0.02132 0.0
C932 C 0.85353 0.16327 0.26222 0.0
C933 C 0.81595 0.15479 0.26029 0.0
C934 C 0.88134 0.18861 0.24679 0.0
C935 C 0.87117 0.205 0.22843 0.0
C936 C 0.83315 0.19629 0.22628 0.0
C937 C 0.8061 0.17178 0.24248 0.0
C938 C 0.92166 0.19783 0.25017 0.0
C939 C 0.82088 0.21215 0.20655 0.0
C940 C 0.95059 0.2931 0.19984 0.0
C941 C 0.96123 0.27763 0.18145 0.0
C942 C 0.92085 0.26996 0.21499 0.0
C943 C 0.90036 0.23045 0.21126 0.0
C944 C 0.90954 0.21496 0.19192 0.0
C945 C 0.94015 0.23858 0.17751 0.0
C946 C 0.91267 0.28761 0.2357 0.0
C947 C 0.88785 0.17318 0.18685 0.0
H948 H 0.86134 0.15042 0.27607 0.0
H949 H 0.77701 0.16505 0.24081 0.0
H950 H 0.93105 0.18798 0.23488 0.0
H951 H 0.94045 0.22882 0.25143 0.0
H952 H 0.9253 0.18454 0.26611 0.0
H953 H 0.79031 0.20273 0.20732 0.0
H954 H 0.83703 0.24341 0.20697 0.0
H955 H 0.82702 0.20321 0.18959 0.0
H956 H 0.96662 0.32315 0.20313 0.0
H957 H 0.94793 0.22624 0.16337 0.0
H958 H 0.91856 0.27699 0.25206 0.0
H959 H 0.88245 0.27946 0.23602 0.0
H960 H 0.92995 0.31888 0.23558 0.0
H961 H 0.89351 0.15769 0.20068 0.0
H962 H 0.89565 0.1662 0.16974 0.0
H963 H 0.85709 0.16281 0.18693 0.0
C964 C 0.67295 0.81803 0.41138 0.0
C965 C 0.6638 0.81985 0.43477 0.0
C966 C 0.67511 0.84451 0.3949 0.0
C967 C 0.66918 0.87432 0.4021 0.0
C968 C 0.65919 0.87583 0.42562 0.0
C969 C 0.65608 0.84827 0.44158 0.0
C970 C 0.6848 0.84118 0.36991 0.0
C971 C 0.65364 0.90764 0.43422 0.0
C972 C 0.72067 0.96575 0.36761 0.0
C973 C 0.69143 0.96576 0.35482 0.0
C974 C 0.71367 0.93643 0.38313 0.0
C975 C 0.67658 0.90559 0.38557 0.0
C976 C 0.64697 0.90498 0.37237 0.0
C977 C 0.65463 0.93537 0.35742 0.0
C978 C 0.74598 0.93886 0.39725 0.0
C979 C 0.60725 0.87217 0.37396 0.0
H980 H 0.67866 0.79595 0.40598 0.0
H981 H 0.64928 0.85 0.45966 0.0
H982 H 0.6647 0.84327 0.35785 0.0
H983 H 0.71336 0.86475 0.36572 0.0
H984 H 0.6843 0.81417 0.36656 0.0
H985 H 0.64409 0.90374 0.45267 0.0
H986 H 0.68058 0.93472 0.43276 0.0
H987 H 0.63264 0.91008 0.42325 0.0
H988 H 0.7491 0.98932 0.36599 0.0
H989 H 0.63191 0.93514 0.34758 0.0
H990 H 0.74991 0.91452 0.39319 0.0
H991 H 0.73949 0.93753 0.41615 0.0
H992 H 0.77294 0.96525 0.39379 0.0
H993 H 0.60699 0.84551 0.36984 0.0
H994 H 0.58772 0.87519 0.36187 0.0
H995 H 0.59649 0.8696 0.39203 0.0
C996 C 0.70686 0.65706 0.53809 0.0
C997 C 0.72055 0.6774 0.51723 0.0
C998 C 0.7309 0.65217 0.55347 0.0
C999 C 0.76933 0.66677 0.54749 0.0
C1000 C 0.78266 0.68513 0.52574 0.0
C1001 C 0.75835 0.69078 0.5111 0.0
C1002 C 0.71564 0.63335 0.57672 0.0
C1003 C 0.82304 0.70006 0.51826 0.0
C1004 C 0.84344 0.69637 0.59528 0.0
C1005 C 0.84832 0.66488 0.59695 0.0
C1006 C 0.81717 0.69686 0.57971 0.0
C1007 C 0.79624 0.66566 0.56472 0.0
C1008 C 0.80149 0.63395 0.5661 0.0
C1009 C 0.82694 0.63364 0.58253 0.0
C1010 C 0.81168 0.73075 0.57942 0.0
C1011 C 0.78087 0.60077 0.54987 0.0
H1012 H 0.67779 0.64666 0.54306 0.0
H1013 H 0.7692 0.70633 0.49498 0.0
H1014 H 0.72185 0.61016 0.57947 0.0
H1015 H 0.72976 0.65413 0.59096 0.0
H1016 H 0.68472 0.62173 0.57823 0.0
H1017 H 0.82767 0.70909 0.4997 0.0
H1018 H 0.842 0.72464 0.52923 0.0
H1019 H 0.8313 0.67824 0.52076 0.0
H1020 H 0.85972 0.72046 0.60654 0.0
H1021 H 0.83093 0.60939 0.58366 0.0
H1022 H 0.78145 0.72168 0.58204 0.0
H1023 H 0.82008 0.74492 0.5622 0.0
H1024 H 0.82843 0.75162 0.59315 0.0
H1025 H 0.74998 0.58821 0.55205 0.0
H1026 H 0.78841 0.57852 0.55294 0.0
H1027 H 0.7876 0.61038 0.53149 0.0
C1028 C 0.04362 0.76014 0.69927 0.0
C1029 C 0.0446 0.73298 0.68477 0.0
C1030 C 0.07337 0.78213 0.71458 0.0
C1031 C 0.10561 0.77777 0.71499 0.0
C1032 C 0.10721 0.75099 0.69998 0.0
C1033 C 0.07638 0.72843 0.68533 0.0
C1034 C 0.06987 0.80947 0.73071 0.0
C1035 C 0.1415 0.74626 0.69936 0.0
C1036 C 0.19189 0.86124 0.74206 0.0
C1037 C 0.19187 0.84793 0.76461 0.0
C1038 C 0.16529 0.83798 0.7253 0.0
C1039 C 0.13713 0.80093 0.73148 0.0
C1040 C 0.13744 0.78716 0.75412 0.0
C1041 C 0.16516 0.81062 0.77028 0.0
C1042 C 0.1667 0.85344 0.70118 0.0
C1043 C 0.10736 0.74831 0.7617 0.0
H1044 H 0.01893 0.76343 0.69921 0.0
H1045 H 0.0773 0.70754 0.67412 0.0
H1046 H 0.07249 0.80269 0.74912 0.0
H1047 H 0.09301 0.8386 0.72733 0.0
H1048 H 0.04255 0.80881 0.72862 0.0
H1049 H 0.1392 0.72572 0.68586 0.0
H1050 H 0.16708 0.77382 0.69581 0.0
H1051 H 0.14551 0.73646 0.7166 0.0
H1052 H 0.21264 0.88999 0.73754 0.0
H1053 H 0.1648 0.8003 0.78775 0.0
H1054 H 0.14202 0.85736 0.69857 0.0
H1055 H 0.16521 0.83317 0.68774 0.0
H1056 H 0.19275 0.88096 0.69831 0.0
H1057 H 0.07946 0.74669 0.7615 0.0
H1058 H 0.11249 0.74117 0.77952 0.0
H1059 H 0.1058 0.72669 0.74936 0.0
C1060 C 0.29665 0.03695 0.86869 0.0
C1061 C 0.32583 0.03883 0.85481 0.0
C1062 C 0.30302 0.0657 0.88453 0.0
C1063 C 0.33936 0.09792 0.88624 0.0
C1064 C 0.36902 0.1002 0.87218 0.0
C1065 C 0.36205 0.0703 0.85689 0.0
C1066 C 0.27073 0.06139 0.89957 0.0
C1067 C 0.40791 0.13446 0.87302 0.0
C1068 C 0.33695 0.18249 0.91217 0.0
C1069 C 0.34734 0.1819 0.93542 0.0
C1070 C 0.33658 0.15684 0.89563 0.0
C1071 C 0.34564 0.12907 0.90264 0.0
C1072 C 0.35699 0.12892 0.926 0.0
C1073 C 0.35823 0.15568 0.94201 0.0
C1074 C 0.32526 0.15872 0.87082 0.0
C1075 C 0.36583 0.09923 0.93443 0.0
H1076 H 0.26873 0.01242 0.86754 0.0
H1077 H 0.38469 0.07189 0.84622 0.0
H1078 H 0.27869 0.06405 0.91827 0.0
H1079 H 0.26437 0.08416 0.89557 0.0
H1080 H 0.24467 0.0338 0.8969 0.0
H1081 H 0.42782 0.1321 0.86088 0.0
H1082 H 0.40632 0.15998 0.86841 0.0
H1083 H 0.41941 0.13866 0.89098 0.0
H1084 H 0.32884 0.20292 0.90691 0.0
H1085 H 0.36608 0.15494 0.95998 0.0
H1086 H 0.29723 0.13389 0.86713 0.0
H1087 H 0.34564 0.15784 0.85841 0.0
H1088 H 0.32369 0.18466 0.86748 0.0
H1089 H 0.3399 0.07114 0.93377 0.0
H1090 H 0.37677 0.10453 0.95259 0.0
H1091 H 0.38692 0.09796 0.92287 0.0
C1092 C 0.69645 0.75915 0.83095 0.0
C1093 C 0.68458 0.72169 0.82468 0.0
C1094 C 0.69022 0.78297 0.81618 0.0
C1095 C 0.67293 0.76954 0.79416 0.0
C1096 C 0.65996 0.73144 0.788 0.0
C1097 C 0.66531 0.70784 0.80351 0.0
C1098 C 0.70334 0.82295 0.82386 0.0
C1099 C 0.64241 0.71615 0.76446 0.0
C1100 C 0.6376 0.82486 0.75862 0.0
C1101 C 0.66904 0.84748 0.74465 0.0
C1102 C 0.63854 0.79973 0.77508 0.0
C1103 C 0.67117 0.7961 0.77692 0.0
C1104 C 0.70261 0.81831 0.76237 0.0
C1105 C 0.70142 0.84419 0.74678 0.0
C1106 C 0.60498 0.77769 0.79082 0.0
C1107 C 0.73751 0.81458 0.76316 0.0
H1108 H 0.71113 0.7701 0.8473 0.0
H1109 H 0.65613 0.67904 0.79843 0.0
H1110 H 0.72796 0.84281 0.81322 0.0
H1111 H 0.68075 0.83005 0.82107 0.0
H1112 H 0.71169 0.82754 0.84254 0.0
H1113 H 0.6321 0.68547 0.76277 0.0
H1114 H 0.6185 0.72114 0.76135 0.0
H1115 H 0.66355 0.73125 0.75055 0.0
H1116 H 0.61264 0.82758 0.75714 0.0
H1117 H 0.72568 0.86143 0.73585 0.0
H1118 H 0.61381 0.78428 0.80933 0.0
H1119 H 0.59367 0.747 0.7884 0.0
H1120 H 0.58202 0.7841 0.78745 0.0
H1121 H 0.75094 0.82309 0.78058 0.0
H1122 H 0.75857 0.83221 0.74974 0.0
H1123 H 0.7298 0.78471 0.7604 0.0
C1124 C 0.82618 0.6763 0.93094 0.0
C1125 C 0.82677 0.66562 0.90774 0.0
C1126 C 0.85253 0.67796 0.94733 0.0
C1127 C 0.88099 0.66995 0.9402 0.0
C1128 C 0.88124 0.65844 0.91688 0.0
C1129 C 0.85378 0.65587 0.90103 0.0
C1130 C 0.85053 0.68932 0.97213 0.0
C1131 C 0.91165 0.65069 0.90834 0.0
C1132 C 0.9734 0.72013 0.97373 0.0
C1133 C 0.97228 0.69097 0.98723 0.0
C1134 C 0.94418 0.71347 0.95822 0.0
C1135 C 0.91233 0.67686 0.95653 0.0
C1136 C 0.91067 0.64733 0.97037 0.0
C1137 C 0.94097 0.6546 0.98529 0.0
C1138 C 0.94773 0.74562 0.9434 0.0
C1139 C 0.87678 0.60818 0.96956 0.0
H1140 H 0.80515 0.68357 0.93626 0.0
H1141 H 0.85452 0.64785 0.88309 0.0
H1142 H 0.85194 0.66927 0.98456 0.0
H1143 H 0.87503 0.71761 0.97574 0.0
H1144 H 0.82431 0.69034 0.97553 0.0
H1145 H 0.90676 0.64008 0.8901 0.0
H1146 H 0.9394 0.677 0.9092 0.0
H1147 H 0.91336 0.62969 0.91973 0.0
H1148 H 0.99772 0.74821 0.97482 0.0
H1149 H 0.93991 0.63196 0.99569 0.0
H1150 H 0.92443 0.75118 0.94744 0.0
H1151 H 0.94541 0.73793 0.92465 0.0
H1152 H 0.97493 0.77206 0.94621 0.0
H1153 H 0.85093 0.60935 0.97387 0.0
H1154 H 0.87928 0.58862 0.98191 0.0
H1155 H 0.87309 0.59646 0.95168 0.0
C1156 C 0.299 0.95118 0.14146 0.0
C1157 C 0.28346 0.96073 0.16034 0.0
C1158 C 0.27608 0.92142 0.12627 0.0
C1159 C 0.23677 0.89977 0.13045 0.0
C1160 C 0.2213 0.90781 0.1503 0.0
C1161 C 0.24466 0.93849 0.16474 0.0
C1162 C 0.29367 0.91455 0.10501 0.0
C1163 C 0.17978 0.88482 0.15586 0.0
C1164 C 0.16881 0.8533 0.07982 0.0
C1165 C 0.16178 0.8161 0.08084 0.0
C1166 C 0.1939 0.88089 0.09544 0.0
C1167 C 0.2114 0.87079 0.11315 0.0
C1168 C 0.20405 0.83309 0.11442 0.0
C1169 C 0.17986 0.80633 0.09797 0.0
C1170 C 0.20172 0.92092 0.09293 0.0
C1171 C 0.22103 0.82084 0.1335 0.0
H1172 H 0.32887 0.96812 0.13783 0.0
H1173 H 0.2323 0.94541 0.17929 0.0
H1174 H 0.28636 0.88457 0.10418 0.0
H1175 H 0.28226 0.92051 0.08902 0.0
H1176 H 0.32486 0.93255 0.10486 0.0
H1177 H 0.17302 0.89164 0.17335 0.0
H1178 H 0.16337 0.89033 0.14261 0.0
H1179 H 0.17031 0.85425 0.1552 0.0
H1180 H 0.15509 0.86101 0.06648 0.0
H1181 H 0.1742 0.77749 0.09892 0.0
H1182 H 0.23253 0.94055 0.09147 0.0
H1183 H 0.19176 0.92919 0.10868 0.0
H1184 H 0.18766 0.92461 0.0774 0.0
H1185 H 0.25223 0.83774 0.13281 0.0
H1186 H 0.21241 0.79049 0.13217 0.0
H1187 H 0.21221 0.826 0.15079 0.0
C1188 C 0.37639 0.18649 0.25467 0.0
C1189 C 0.34355 0.16119 0.24263 0.0
C1190 C 0.37616 0.21241 0.27081 0.0
C1191 C 0.34266 0.21401 0.27432 0.0
C1192 C 0.30973 0.18912 0.26168 0.0
C1193 C 0.3104 0.16259 0.24636 0.0
C1194 C 0.41145 0.23739 0.28453 0.0
C1195 C 0.27372 0.19056 0.26425 0.0
C1196 C 0.32127 0.25278 0.32912 0.0
C1197 C 0.32984 0.28901 0.32199 0.0
C1198 C 0.32761 0.22902 0.31433 0.0
C1199 C 0.34149 0.24112 0.29143 0.0
C1200 C 0.35134 0.27814 0.2844 0.0
C1201 C 0.34612 0.30186 0.29993 0.0
C1202 C 0.31808 0.19039 0.32294 0.0
C1203 C 0.36511 0.29192 0.25997 0.0
H1204 H 0.40197 0.18522 0.25198 0.0
H1205 H 0.28502 0.14325 0.23696 0.0
H1206 H 0.42046 0.26749 0.28147 0.0
H1207 H 0.40559 0.23202 0.30348 0.0
H1208 H 0.4351 0.23261 0.27986 0.0
H1209 H 0.25139 0.17103 0.25205 0.0
H1210 H 0.2629 0.18297 0.28234 0.0
H1211 H 0.27927 0.21964 0.261 0.0
H1212 H 0.30898 0.2427 0.34619 0.0
H1213 H 0.35274 0.3297 0.29422 0.0
H1214 H 0.34139 0.18478 0.31894 0.0
H1215 H 0.29253 0.16858 0.31386 0.0
H1216 H 0.31263 0.18725 0.34203 0.0
H1217 H 0.38935 0.28803 0.25556 0.0
H1218 H 0.37375 0.32213 0.25766 0.0
H1219 H 0.34231 0.27499 0.24731 0.0
C1220 C 0.18542 0.32887 0.42904 0.0
C1221 C 0.1845 0.3397 0.40593 0.0
C1222 C 0.15975 0.3278 0.44581 0.0
C1223 C 0.13164 0.33659 0.43918 0.0
C1224 C 0.13098 0.34811 0.41593 0.0
C1225 C 0.15776 0.35007 0.3997 0.0
C1226 C 0.16218 0.31636 0.4705 0.0
C1227 C 0.1009 0.35667 0.40791 0.0
C1228 C 0.04022 0.28866 0.47391 0.0
C1229 C 0.04252 0.31835 0.48744 0.0
C1230 C 0.06872 0.29442 0.45801 0.0
C1231 C 0.10109 0.33061 0.45597 0.0
C1232 C 0.10394 0.36067 0.46987 0.0
C1233 C 0.07429 0.35434 0.48516 0.0
C1234 C 0.06383 0.26178 0.44311 0.0
C1235 C 0.13842 0.39939 0.46873 0.0
H1236 H 0.20625 0.32116 0.43402 0.0
H1237 H 0.15676 0.35824 0.38184 0.0
H1238 H 0.16185 0.33687 0.48306 0.0
H1239 H 0.13729 0.28845 0.47436 0.0
H1240 H 0.18804 0.31452 0.47347 0.0
H1241 H 0.10529 0.36695 0.3896 0.0
H1242 H 0.07284 0.33081 0.40919 0.0
H1243 H 0.10028 0.37823 0.41935 0.0
H1244 H 0.01547 0.26092 0.47525 0.0
H1245 H 0.07621 0.37736 0.49558 0.0
H1246 H 0.08679 0.25554 0.44674 0.0
H1247 H 0.06569 0.26931 0.42437 0.0
H1248 H 0.03639 0.23576 0.44624 0.0
H1249 H 0.16401 0.39749 0.47259 0.0
H1250 H 0.13694 0.41938 0.48123 0.0
H1251 H 0.14178 0.41103 0.45086 0.0
C1252 C 0.8607 0.18985 0.59921 0.0
C1253 C 0.84824 0.18947 0.57637 0.0
C1254 C 0.83699 0.1632 0.61581 0.0
C1255 C 0.80037 0.13464 0.60919 0.0
C1256 C 0.7874 0.13467 0.58626 0.0
C1257 C 0.81128 0.16243 0.57025 0.0
C1258 C 0.85157 0.16493 0.64022 0.0
C1259 C 0.74907 0.10414 0.57821 0.0
C1260 C 0.76037 0.04128 0.6415 0.0
C1261 C 0.73247 0.04159 0.65559 0.0
C1262 C 0.78228 0.07115 0.62625 0.0
C1263 C 0.77705 0.10287 0.62549 0.0
C1264 C 0.74942 0.10376 0.64003 0.0
C1265 C 0.72697 0.07278 0.65462 0.0
C1266 C 0.81056 0.06838 0.61062 0.0
C1267 C 0.74374 0.13749 0.64026 0.0
H1268 H 0.88919 0.21085 0.60407 0.0
H1269 H 0.80162 0.1618 0.55256 0.0
H1270 H 0.83054 0.16283 0.65327 0.0
H1271 H 0.85615 0.14069 0.64312 0.0
H1272 H 0.8786 0.19138 0.64341 0.0
H1273 H 0.74235 0.10928 0.56028 0.0
H1274 H 0.74806 0.07652 0.57846 0.0
H1275 H 0.72683 0.10196 0.59025 0.0
H1276 H 0.76439 0.01701 0.64188 0.0
H1277 H 0.70549 0.07318 0.66551 0.0
H1278 H 0.83936 0.09185 0.61438 0.0
H1279 H 0.80439 0.07101 0.59208 0.0
H1280 H 0.81037 0.0413 0.61285 0.0
H1281 H 0.7708 0.1634 0.64424 0.0
H1282 H 0.72236 0.13457 0.65331 0.0
H1283 H 0.73459 0.14139 0.62278 0.0
C1284 C 0.2373 0.35654 0.28361 0.0
C1285 C 0.22147 0.33264 0.30297 0.0
C1286 C 0.21553 0.35366 0.26404 0.0
C1287 C 0.17678 0.32623 0.26368 0.0
C1288 C 0.16058 0.3016 0.28294 0.0
C1289 C 0.18312 0.30506 0.30238 0.0
C1290 C 0.23395 0.38053 0.24389 0.0
C1291 C 0.11933 0.27202 0.28317 0.0
C1292 C 0.11748 0.3497 0.22375 0.0
C1293 C 0.11435 0.32857 0.20367 0.0
C1294 C 0.13655 0.34811 0.24364 0.0
C1295 C 0.15314 0.32492 0.24355 0.0
C1296 C 0.14941 0.30282 0.22361 0.0
C1297 C 0.13001 0.30485 0.20391 0.0
C1298 C 0.13982 0.37211 0.26454 0.0
C1299 C 0.1668 0.27781 0.22285 0.0
H1300 H 0.26689 0.37787 0.28369 0.0
H1301 H 0.1706 0.28634 0.31715 0.0
H1302 H 0.22945 0.36451 0.22744 0.0
H1303 H 0.22083 0.39841 0.24165 0.0
H1304 H 0.26474 0.39923 0.24649 0.0
H1305 H 0.11144 0.25384 0.29894 0.0
H1306 H 0.1019 0.28585 0.28262 0.0
H1307 H 0.11225 0.2539 0.26745 0.0
H1308 H 0.10531 0.36793 0.22394 0.0
H1309 H 0.1276 0.28823 0.18858 0.0
H1310 H 0.1698 0.3937 0.26734 0.0
H1311 H 0.12994 0.35448 0.28051 0.0
H1312 H 0.12325 0.38671 0.26239 0.0
H1313 H 0.19796 0.29543 0.22367 0.0
H1314 H 0.15912 0.26039 0.20675 0.0
H1315 H 0.15772 0.25882 0.23823 0.0
C1316 C 0.88333 0.2429 0.45215 0.0
C1317 C 0.88931 0.2255 0.47151 0.0
C1318 C 0.86274 0.22182 0.43275 0.0
C1319 C 0.84815 0.18237 0.43248 0.0
C1320 C 0.85439 0.16458 0.45179 0.0
C1321 C 0.87472 0.18632 0.47113 0.0
C1322 C 0.85642 0.24181 0.41259 0.0
C1323 C 0.83961 0.12259 0.45199 0.0
C1324 C 0.76593 0.12436 0.39186 0.0
C1325 C 0.78406 0.11968 0.37239 0.0
C1326 C 0.78641 0.14442 0.41158 0.0
C1327 C 0.82597 0.15979 0.41203 0.0
C1328 C 0.84443 0.15464 0.39265 0.0
C1329 C 0.82331 0.13485 0.37301 0.0
C1330 C 0.76574 0.1496 0.43182 0.0
C1331 C 0.88655 0.17026 0.3926 0.0
H1332 H 0.8946 0.27314 0.45212 0.0
H1333 H 0.87939 0.17259 0.48589 0.0
H1334 H 0.86837 0.23723 0.39635 0.0
H1335 H 0.82575 0.22995 0.40968 0.0
H1336 H 0.86947 0.27265 0.4156 0.0
H1337 H 0.84769 0.11322 0.46808 0.0
H1338 H 0.80842 0.10721 0.45062 0.0
H1339 H 0.85056 0.11446 0.43665 0.0
H1340 H 0.73563 0.11255 0.39171 0.0
H1341 H 0.83761 0.13113 0.35819 0.0
H1342 H 0.77645 0.1801 0.43478 0.0
H1343 H 0.77101 0.13815 0.44803 0.0
H1344 H 0.73482 0.13545 0.42886 0.0
H1345 H 0.90131 0.20147 0.39384 0.0
H1346 H 0.89638 0.16236 0.37661 0.0
H1347 H 0.89495 0.15983 0.40805 0.0
C1348 C 0.69889 0.87311 0.63589 0.0
C1349 C 0.6756 0.88925 0.63645 0.0
C1350 C 0.70069 0.85394 0.61599 0.0
C1351 C 0.67857 0.85068 0.59619 0.0
C1352 C 0.65558 0.86751 0.59646 0.0
C1353 C 0.65443 0.8866 0.61652 0.0
C1354 C 0.72562 0.83645 0.61634 0.0
C1355 C 0.63142 0.86453 0.57576 0.0
C1356 C 0.69888 0.82104 0.53727 0.0
C1357 C 0.6718 0.78251 0.53675 0.0
C1358 C 0.70184 0.8436 0.55662 0.0
C1359 C 0.67713 0.82726 0.57585 0.0
C1360 C 0.65002 0.78841 0.5755 0.0
C1361 C 0.64773 0.7666 0.55605 0.0
C1362 C 0.73116 0.88495 0.55643 0.0
C1363 C 0.62306 0.76984 0.5956 0.0
H1364 H 0.71565 0.87525 0.65107 0.0
H1365 H 0.63653 0.89915 0.6166 0.0
H1366 H 0.70799 0.80531 0.61527 0.0
H1367 H 0.74459 0.84585 0.60094 0.0
H1368 H 0.74307 0.84379 0.6324 0.0
H1369 H 0.61676 0.88099 0.57825 0.0
H1370 H 0.64892 0.87472 0.55975 0.0
H1371 H 0.60988 0.83456 0.57279 0.0
H1372 H 0.71772 0.83362 0.52255 0.0
H1373 H 0.62675 0.73689 0.55603 0.0
H1374 H 0.7496 0.89197 0.57198 0.0
H1375 H 0.71718 0.90221 0.5574 0.0
H1376 H 0.74902 0.8931 0.54051 0.0
H1377 H 0.63902 0.77384 0.61199 0.0
H1378 H 0.60409 0.73913 0.59278 0.0
H1379 H 0.60549 0.78326 0.5981 0.0
C1380 C 0.89215 0.65343 0.72556 0.0
C1381 C 0.89274 0.67319 0.70538 0.0
C1382 C 0.8735 0.65451 0.74585 0.0
C1383 C 0.855 0.67595 0.74607 0.0
C1384 C 0.8561 0.6966 0.72597 0.0
C1385 C 0.87489 0.69493 0.70586 0.0
C1386 C 0.87287 0.63199 0.76689 0.0
C1387 C 0.83675 0.71984 0.72555 0.0
C1388 C 0.7726 0.64487 0.78764 0.0
C1389 C 0.78868 0.67069 0.80611 0.0
C1390 C 0.79388 0.64644 0.76807 0.0
C1391 C 0.8323 0.6746 0.76676 0.0
C1392 C 0.84884 0.70088 0.78523 0.0
C1393 C 0.82684 0.69861 0.80472 0.0
C1394 C 0.77515 0.61781 0.74879 0.0
C1395 C 0.88975 0.73135 0.78439 0.0
H1396 H 0.90604 0.63674 0.72551 0.0
H1397 H 0.8754 0.71058 0.69048 0.0
H1398 H 0.88331 0.65046 0.7825 0.0
H1399 H 0.84347 0.60968 0.77062 0.0
H1400 H 0.89033 0.61843 0.76433 0.0
H1401 H 0.84224 0.73613 0.7091 0.0
H1402 H 0.80587 0.70109 0.72746 0.0
H1403 H 0.84636 0.73979 0.74047 0.0
H1404 H 0.74317 0.6232 0.78837 0.0
H1405 H 0.83954 0.71879 0.81881 0.0
H1406 H 0.78983 0.6014 0.74637 0.0
H1407 H 0.77725 0.63238 0.73207 0.0
H1408 H 0.74491 0.59781 0.75245 0.0
H1409 H 0.90794 0.71841 0.78316 0.0
H1410 H 0.89825 0.74991 0.80001 0.0
H1411 H 0.89512 0.74897 0.76859 0.0
C1412 C 0.19101 0.87272 0.87086 0.0
C1413 C 0.23007 0.88672 0.87013 0.0
C1414 C 0.16953 0.85264 0.89035 0.0
C1415 C 0.18745 0.84608 0.90946 0.0
C1416 C 0.22679 0.86008 0.90882 0.0
C1417 C 0.24761 0.88039 0.88928 0.0
C1418 C 0.12767 0.83844 0.89052 0.0
C1419 C 0.24692 0.85344 0.92876 0.0
C1420 C 0.14128 0.822 0.96934 0.0
C1421 C 0.1257 0.78269 0.97001 0.0
C1422 C 0.16077 0.84291 0.94956 0.0
C1423 C 0.16515 0.82415 0.93006 0.0
C1424 C 0.14937 0.78451 0.93055 0.0
C1425 C 0.12968 0.76427 0.95043 0.0
C1426 C 0.17691 0.88512 0.94959 0.0
C1427 C 0.15369 0.76351 0.91018 0.0
H1428 H 0.17719 0.87765 0.85626 0.0
H1429 H 0.27775 0.89118 0.88904 0.0
H1430 H 0.11193 0.80724 0.89193 0.0
H1431 H 0.12012 0.84968 0.90598 0.0
H1432 H 0.11817 0.84668 0.87455 0.0
H1433 H 0.27765 0.8661 0.9255 0.0
H1434 H 0.24289 0.86558 0.94509 0.0
H1435 H 0.23475 0.82271 0.93166 0.0
H1436 H 0.13811 0.83653 0.98425 0.0
H1437 H 0.11757 0.73391 0.95062 0.0
H1438 H 0.16632 0.89368 0.93429 0.0
H1439 H 0.20806 0.89951 0.94806 0.0
H1440 H 0.16961 0.89522 0.96571 0.0
H1441 H 0.14209 0.769 0.89412 0.0
H1442 H 0.13918 0.73257 0.91317 0.0
H1443 H 0.18403 0.77377 0.90695 0.0
C1444 C 0.35648 0.11832 0.11842 0.0
C1445 C 0.334 0.11381 0.13805 0.0
C1446 C 0.35465 0.13692 0.09836 0.0
C1447 C 0.32983 0.15161 0.09782 0.0
C1448 C 0.30648 0.14658 0.11733 0.0
C1449 C 0.30879 0.12769 0.13721 0.0
C1450 C 0.38003 0.14166 0.07794 0.0
C1451 C 0.27972 0.16195 0.1174 0.0
C1452 C 0.35898 0.23504 0.05748 0.0
C1453 C 0.33613 0.21826 0.03781 0.0
C1454 C 0.35647 0.21379 0.07724 0.0
C1455 C 0.33056 0.17461 0.07748 0.0
C1456 C 0.30701 0.15742 0.05788 0.0
C1457 C 0.31004 0.17946 0.03827 0.0
C1458 C 0.38211 0.23327 0.09775 0.0
C1459 C 0.2791 0.11566 0.05751 0.0
H1460 H 0.3759 0.10756 0.11869 0.0
H1461 H 0.29113 0.1242 0.15219 0.0
H1462 H 0.36319 0.13101 0.06171 0.0
H1463 H 0.40047 0.17203 0.07526 0.0
H1464 H 0.39603 0.12657 0.08057 0.0
H1465 H 0.2617 0.15352 0.13326 0.0
H1466 H 0.296 0.1932 0.11655 0.0
H1467 H 0.2613 0.15194 0.10178 0.0
H1468 H 0.37915 0.26499 0.0575 0.0
H1469 H 0.29213 0.1662 0.02326 0.0
H1470 H 0.40125 0.2217 0.1005 0.0
H1471 H 0.36523 0.22788 0.11391 0.0
H1472 H 0.39953 0.26425 0.0952 0.0
H1473 H 0.29434 0.09961 0.05856 0.0
H1474 H 0.26155 0.10692 0.04145 0.0
H1475 H 0.26024 0.10771 0.07292 0.0
loop_
_geom_bond_atom_site_label_1
_geom_bond_atom_site_label_2
_geom_bond_distance
_geom_bond_site_symmetry_2
_ccdc_geom_bond_type
Co0 O2 2.143 . S
Co0 O8 2.074 . S
Co0 O11 2.093 . S
Co0 O24 2.097 . S
Co0 N41 2.151 . S
Co0 N49 2.214 . S
Co1 O2 2.160 . S
Co1 O7 2.058 . S
Co1 O17 2.057 . S
Co1 O32 2.037 . S
Co1 N36 2.145 . S
Co1 N57 2.257 . S
O2 Co0 2.143 . S
O2 Co1 2.160 . S
C3 O4 1.278 . S
C3 O11 1.224 . S
O4 C3 1.278 . S
C5 O6 1.245 . S
C5 O17 1.232 . S
O6 C5 1.245 . S
O7 Co1 2.058 . S
O7 C33 1.269 . S
O8 Co0 2.074 . S
O8 C33 1.257 . S
H9 C34 0.930 . S
H10 C40 0.930 . S
O11 Co0 2.093 . S
O11 C3 1.224 . S
H12 C44 0.929 . S
H13 C46 0.930 . S
H14 C47 0.930 . S
H15 C45 0.929 . S
H16 C48 0.928 . S
O17 Co1 2.057 . S
O17 C5 1.232 . S
H18 C37 0.929 . S
H19 C38 0.929 . S
H20 C50 0.931 . S
H21 C42 0.929 . S
H22 C51 0.930 . S
H23 C43 0.931 . S
O24 Co0 2.097 . S
O24 C52 1.214 . S
H25 C53 0.929 . S
H26 C54 0.929 . S
H27 C55 0.930 . S
H28 C56 0.929 . S
H29 C58 0.930 . S
H30 C35 0.930 . S
H31 C39 0.930 . S
O32 Co1 2.037 . S
O32 C52 1.234 . S
C33 O7 1.269 . S
C33 O8 1.257 . S
C34 H9 0.930 . S
C34 C37 1.388 . S
C34 C39 1.418 . S
C35 H30 0.930 . S
C35 C38 1.404 . S
C35 C39 1.353 . S
N36 Co1 2.145 . S
N36 C37 1.397 . S
N36 C38 1.334 . S
C37 H18 0.929 . S
C37 C34 1.388 . S
C37 N36 1.397 . S
C38 H19 0.929 . S
C38 C35 1.404 . S
C38 N36 1.334 . S
C39 H31 0.930 . S
C39 C34 1.418 . S
C39 C35 1.353 . S
C40 H10 0.930 . S
C40 N41 1.330 . S
C40 C42 1.446 . S
N41 Co0 2.151 . S
N41 C40 1.330 . S
N41 C45 1.418 1_455 S
C42 H21 0.929 . S
C42 C40 1.446 . S
C42 C43 1.332 1_455 S
C43 H23 0.931 . S
C43 C42 1.332 1_655 S
C43 C44 1.267 . S
C44 H12 0.929 . S
C44 C43 1.267 . S
C44 C45 1.251 . S
C45 H15 0.929 . S
C45 N41 1.418 1_655 S
C45 C44 1.251 . S
C46 H13 0.930 . S
C46 C48 1.406 . S
C46 C51 1.261 . S
C47 H14 0.930 . S
C47 N49 1.325 . S
C47 C50 1.357 . S
C48 H16 0.928 . S
C48 C46 1.406 . S
C48 N49 1.261 . S
N49 Co0 2.214 . S
N49 C47 1.325 . S
N49 C48 1.261 . S
C50 H20 0.931 . S
C50 C47 1.357 . S
C50 C51 1.312 . S
C51 H22 0.930 . S
C51 C46 1.261 . S
C51 C50 1.312 . S
C52 O24 1.214 . S
C52 O32 1.234 . S
C53 H25 0.929 . S
C53 C56 1.391 . S
C53 C58 1.391 . S
C54 H26 0.929 . S
C54 C55 1.390 . S
C54 N57 1.391 . S
C55 H27 0.930 . S
C55 C54 1.390 . S
C55 C56 1.392 . S
C56 H28 0.929 . S
C56 C53 1.391 . S
C56 C55 1.392 . S
N57 Co1 2.257 . S
N57 C54 1.391 . S
N57 C58 1.388 . S
C58 H29 0.930 . S
C58 C53 1.391 . S
C58 N57 1.388 . S
Co59 O61 2.143 . S
Co59 O67 2.074 . S
Co59 O70 2.093 . S
Co59 O83 2.097 . S
Co59 N100 2.151 . S
Co59 N108 2.214 . S
Co60 O61 2.160 . S
Co60 O66 2.058 . S
Co60 O76 2.057 . S
Co60 O91 2.037 . S
Co60 N95 2.145 . S
Co60 N116 2.257 . S
O61 Co59 2.143 . S
O61 Co60 2.160 . S
C62 O63 1.278 . S
C62 O70 1.224 . S
O63 C62 1.278 . S
C64 O65 1.245 . S
C64 O76 1.232 . S
O65 C64 1.245 . S
O66 Co60 2.058 . S
O66 C92 1.269 . S
O67 Co59 2.074 . S
O67 C92 1.257 . S
H68 C93 0.930 . S
H69 C99 0.930 . S
O70 Co59 2.093 . S
O70 C62 1.224 . S
H71 C103 0.929 . S
H72 C105 0.930 . S
H73 C106 0.930 . S
H74 C104 0.929 . S
H75 C107 0.928 . S
O76 Co60 2.057 . S
O76 C64 1.232 . S
H77 C96 0.929 . S
H78 C97 0.929 . S
H79 C109 0.931 . S
H80 C101 0.929 . S
H81 C110 0.930 . S
H82 C102 0.931 . S
O83 Co59 2.097 . S
O83 C111 1.214 . S
H84 C112 0.929 . S
H85 C113 0.929 . S
H86 C114 0.930 . S
H87 C115 0.929 . S
H88 C117 0.930 . S
H89 C94 0.930 . S
H90 C98 0.930 . S
O91 Co60 2.037 . S
O91 C111 1.234 . S
C92 O66 1.269 . S
C92 O67 1.257 . S
C93 H68 0.930 . S
C93 C96 1.388 . S
C93 C98 1.418 . S
C94 H89 0.930 . S
C94 C97 1.404 . S
C94 C98 1.353 . S
N95 Co60 2.145 . S
N95 C96 1.397 . S
N95 C97 1.334 . S
C96 H77 0.929 . S
C96 C93 1.388 . S
C96 N95 1.397 . S
C97 H78 0.929 . S
C97 C94 1.404 . S
C97 N95 1.334 . S
C98 H90 0.930 . S
C98 C93 1.418 . S
C98 C94 1.353 . S
C99 H69 0.930 . S
C99 N100 1.330 . S
C99 C101 1.446 . S
N100 Co59 2.151 . S
N100 C99 1.330 . S
N100 C104 1.418 1_545 S
C101 H80 0.929 . S
C101 C99 1.446 . S
C101 C102 1.332 1_545 S
C102 H82 0.931 . S
C102 C101 1.332 1_565 S
C102 C103 1.267 . S
C103 H71 0.929 . S
C103 C102 1.267 . S
C103 C104 1.251 . S
C104 H74 0.929 . S
C104 N100 1.418 1_565 S
C104 C103 1.251 . S
C105 H72 0.930 . S
C105 C107 1.406 . S
C105 C110 1.261 . S
C106 H73 0.930 . S
C106 N108 1.325 . S
C106 C109 1.357 . S
C107 H75 0.928 . S
C107 C105 1.406 . S
C107 N108 1.261 . S
N108 Co59 2.214 . S
N108 C106 1.325 . S
N108 C107 1.261 . S
C109 H79 0.931 . S
C109 C106 1.357 . S
C109 C110 1.312 . S
C110 H81 0.930 . S
C110 C105 1.261 . S
C110 C109 1.312 . S
C111 O83 1.214 . S
C111 O91 1.234 . S
C112 H84 0.929 . S
C112 C115 1.391 . S
C112 C117 1.391 . S
C113 H85 0.929 . S
C113 C114 1.390 . S
C113 N116 1.391 . S
C114 H86 0.930 . S
C114 C113 1.390 . S
C114 C115 1.392 . S
C115 H87 0.929 . S
C115 C112 1.391 . S
C115 C114 1.392 . S
N116 Co60 2.257 . S
N116 C113 1.391 . S
N116 C117 1.388 . S
C117 H88 0.930 . S
C117 C112 1.391 . S
C117 N116 1.388 . S
Co118 O120 2.143 . S
Co118 O126 2.074 . S
Co118 O129 2.093 . S
Co118 O142 2.097 . S
Co118 N159 2.151 . S
Co118 N167 2.214 . S
Co119 O120 2.160 . S
Co119 O125 2.058 . S
Co119 O135 2.057 . S
Co119 O150 2.037 . S
Co119 N154 2.145 . S
Co119 N175 2.257 . S
O120 Co118 2.143 . S
O120 Co119 2.160 . S
C121 O122 1.278 . S
C121 O129 1.224 . S
O122 C121 1.278 . S
C123 O124 1.245 . S
C123 O135 1.232 . S
O124 C123 1.245 . S
O125 Co119 2.058 . S
O125 C151 1.269 . S
O126 Co118 2.074 . S
O126 C151 1.257 . S
H127 C152 0.930 . S
H128 C158 0.930 . S
O129 Co118 2.093 . S
O129 C121 1.224 . S
H130 C162 0.929 . S
H131 C164 0.930 . S
H132 C165 0.930 . S
H133 C163 0.929 . S
H134 C166 0.928 . S
O135 Co119 2.057 . S
O135 C123 1.232 . S
H136 C155 0.929 . S
H137 C156 0.929 . S
H138 C168 0.931 . S
H139 C160 0.929 . S
H140 C169 0.930 . S
H141 C161 0.931 . S
O142 Co118 2.097 . S
O142 C170 1.214 . S
H143 C171 0.929 . S
H144 C172 0.929 . S
H145 C173 0.930 . S
H146 C174 0.929 . S
H147 C176 0.930 . S
H148 C153 0.930 . S
H149 C157 0.930 . S
O150 Co119 2.037 . S
O150 C170 1.234 . S
C151 O125 1.269 . S
C151 O126 1.257 . S
C152 H127 0.930 . S
C152 C155 1.388 . S
C152 C157 1.418 . S
C153 H148 0.930 . S
C153 C156 1.404 . S
C153 C157 1.353 . S
N154 Co119 2.145 . S
N154 C155 1.397 . S
N154 C156 1.334 . S
C155 H136 0.929 . S
C155 C152 1.388 . S
C155 N154 1.397 . S
C156 H137 0.929 . S
C156 C153 1.404 . S
C156 N154 1.334 . S
C157 H149 0.930 . S
C157 C152 1.418 . S
C157 C153 1.353 . S
C158 H128 0.930 . S
C158 N159 1.330 . S
C158 C160 1.446 . S
N159 Co118 2.151 . S
N159 C158 1.330 . S
N159 C163 1.418 . S
C160 H139 0.929 . S
C160 C158 1.446 . S
C160 C161 1.332 . S
C161 H141 0.931 . S
C161 C160 1.332 . S
C161 C162 1.267 . S
C162 H130 0.929 . S
C162 C161 1.267 . S
C162 C163 1.251 . S
C163 H133 0.929 . S
C163 N159 1.418 . S
C163 C162 1.251 . S
C164 H131 0.930 . S
C164 C166 1.406 . S
C164 C169 1.261 . S
C165 H132 0.930 . S
C165 N167 1.325 . S
C165 C168 1.357 . S
C166 H134 0.928 . S
C166 C164 1.406 . S
C166 N167 1.261 . S
N167 Co118 2.214 . S
N167 C165 1.325 . S
N167 C166 1.261 . S
C168 H138 0.931 . S
C168 C165 1.357 . S
C168 C169 1.312 . S
C169 H140 0.930 . S
C169 C164 1.261 . S
C169 C168 1.312 . S
C170 O142 1.214 . S
C170 O150 1.234 . S
C171 H143 0.929 . S
C171 C174 1.391 . S
C171 C176 1.391 . S
C172 H144 0.929 . S
C172 C173 1.390 . S
C172 N175 1.391 . S
C173 H145 0.930 . S
C173 C172 1.390 . S
C173 C174 1.392 . S
C174 H146 0.929 . S
C174 C171 1.391 . S
C174 C173 1.392 . S
N175 Co119 2.257 . S
N175 C172 1.391 . S
N175 C176 1.388 . S
C176 H147 0.930 . S
C176 C171 1.391 . S
C176 N175 1.388 . S
Co177 O179 2.143 . S
Co177 O185 2.074 . S
Co177 O188 2.093 . S
Co177 O201 2.097 . S
Co177 N218 2.151 . S
Co177 N226 2.214 . S
Co178 O179 2.160 . S
Co178 O184 2.058 . S
Co178 O194 2.057 . S
Co178 O209 2.037 . S
Co178 N213 2.145 . S
Co178 N234 2.257 . S
O179 Co177 2.143 . S
O179 Co178 2.160 . S
C180 O181 1.278 . S
C180 O188 1.224 . S
O181 C180 1.278 . S
C182 O183 1.245 . S
C182 O194 1.232 . S
O183 C182 1.245 . S
O184 Co178 2.058 . S
O184 C210 1.269 . S
O185 Co177 2.074 . S
O185 C210 1.257 . S
H186 C211 0.930 . S
H187 C217 0.930 . S
O188 Co177 2.093 . S
O188 C180 1.224 . S
H189 C221 0.929 . S
H190 C223 0.930 . S
H191 C224 0.930 . S
H192 C222 0.929 . S
H193 C225 0.928 . S
O194 Co178 2.057 . S
O194 C182 1.232 . S
H195 C214 0.929 . S
H196 C215 0.929 . S
H197 C227 0.931 . S
H198 C219 0.929 . S
H199 C228 0.930 . S
H200 C220 0.931 . S
O201 Co177 2.097 . S
O201 C229 1.214 . S
H202 C230 0.929 . S
H203 C231 0.929 . S
H204 C232 0.930 . S
H205 C233 0.929 . S
H206 C235 0.930 . S
H207 C212 0.930 . S
H208 C216 0.930 . S
O209 Co178 2.037 . S
O209 C229 1.234 . S
C210 O184 1.269 . S
C210 O185 1.257 . S
C211 H186 0.930 . S
C211 C214 1.388 . S
C211 C216 1.418 . S
C212 H207 0.930 . S
C212 C215 1.404 . S
C212 C216 1.353 . S
N213 Co178 2.145 . S
N213 C214 1.397 . S
N213 C215 1.334 . S
C214 H195 0.929 . S
C214 C211 1.388 . S
C214 N213 1.397 . S
C215 H196 0.929 . S
C215 C212 1.404 . S
C215 N213 1.334 . S
C216 H208 0.930 . S
C216 C211 1.418 . S
C216 C212 1.353 . S
C217 H187 0.930 . S
C217 N218 1.330 . S
C217 C219 1.446 . S
N218 Co177 2.151 . S
N218 C217 1.330 . S
N218 C222 1.418 1_655 S
C219 H198 0.929 . S
C219 C217 1.446 . S
C219 C220 1.332 1_655 S
C220 H200 0.931 . S
C220 C219 1.332 1_455 S
C220 C221 1.267 . S
C221 H189 0.929 . S
C221 C220 1.267 . S
C221 C222 1.251 . S
C222 H192 0.929 . S
C222 N218 1.418 1_455 S
C222 C221 1.251 . S
C223 H190 0.930 . S
C223 C225 1.406 . S
C223 C228 1.261 . S
C224 H191 0.930 . S
C224 N226 1.325 . S
C224 C227 1.357 . S
C225 H193 0.928 . S
C225 C223 1.406 . S
C225 N226 1.261 . S
N226 Co177 2.214 . S
N226 C224 1.325 . S
N226 C225 1.261 . S
C227 H197 0.931 . S
C227 C224 1.357 . S
C227 C228 1.312 . S
C228 H199 0.930 . S
C228 C223 1.261 . S
C228 C227 1.312 . S
C229 O201 1.214 . S
C229 O209 1.234 . S
C230 H202 0.929 . S
C230 C233 1.391 . S
C230 C235 1.391 . S
C231 H203 0.929 . S
C231 C232 1.390 . S
C231 N234 1.391 . S
C232 H204 0.930 . S
C232 C231 1.390 . S
C232 C233 1.392 . S
C233 H205 0.929 . S
C233 C230 1.391 . S
C233 C232 1.392 . S
N234 Co178 2.257 . S
N234 C231 1.391 . S
N234 C235 1.388 . S
C235 H206 0.930 . S
C235 C230 1.391 . S
C235 N234 1.388 . S
Co236 O238 2.143 . S
Co236 O244 2.074 . S
Co236 O247 2.093 . S
Co236 O260 2.097 . S
Co236 N277 2.151 . S
Co236 N285 2.214 . S
Co237 O238 2.160 . S
Co237 O243 2.058 . S
Co237 O253 2.057 . S
Co237 O268 2.037 . S
Co237 N272 2.145 . S
Co237 N293 2.257 . S
O238 Co236 2.143 . S
O238 Co237 2.160 . S
C239 O240 1.278 . S
C239 O247 1.224 . S
O240 C239 1.278 . S
C241 O242 1.245 . S
C241 O253 1.232 . S
O242 C241 1.245 . S
O243 Co237 2.058 . S
O243 C269 1.269 . S
O244 Co236 2.074 . S
O244 C269 1.257 . S
H245 C270 0.930 . S
H246 C276 0.930 . S
O247 Co236 2.093 . S
O247 C239 1.224 . S
H248 C280 0.929 . S
H249 C282 0.930 . S
H250 C283 0.930 . S
H251 C281 0.929 . S
H252 C284 0.928 . S
O253 Co237 2.057 . S
O253 C241 1.232 . S
H254 C273 0.929 . S
H255 C274 0.929 . S
H256 C286 0.931 . S
H257 C278 0.929 . S
H258 C287 0.930 . S
H259 C279 0.931 . S
O260 Co236 2.097 . S
O260 C288 1.214 . S
H261 C289 0.929 . S
H262 C290 0.929 . S
H263 C291 0.930 . S
H264 C292 0.929 . S
H265 C294 0.930 . S
H266 C271 0.930 . S
H267 C275 0.930 . S
O268 Co237 2.037 . S
O268 C288 1.234 . S
C269 O243 1.269 . S
C269 O244 1.257 . S
C270 H245 0.930 . S
C270 C273 1.388 . S
C270 C275 1.418 . S
C271 H266 0.930 . S
C271 C274 1.404 . S
C271 C275 1.353 . S
N272 Co237 2.145 . S
N272 C273 1.397 . S
N272 C274 1.334 . S
C273 H254 0.929 . S
C273 C270 1.388 . S
C273 N272 1.397 . S
C274 H255 0.929 . S
C274 C271 1.404 . S
C274 N272 1.334 . S
C275 H267 0.930 . S
C275 C270 1.418 . S
C275 C271 1.353 . S
C276 H246 0.930 . S
C276 N277 1.330 . S
C276 C278 1.446 . S
N277 Co236 2.151 . S
N277 C276 1.330 . S
N277 C281 1.418 1_565 S
C278 H257 0.929 . S
C278 C276 1.446 . S
C278 C279 1.332 1_565 S
C279 H259 0.931 . S
C279 C278 1.332 1_545 S
C279 C280 1.267 . S
C280 H248 0.929 . S
C280 C279 1.267 . S
C280 C281 1.251 . S
C281 H251 0.929 . S
C281 N277 1.418 1_545 S
C281 C280 1.251 . S
C282 H249 0.930 . S
C282 C284 1.406 . S
C282 C287 1.261 . S
C283 H250 0.930 . S
C283 N285 1.325 . S
C283 C286 1.357 . S
C284 H252 0.928 . S
C284 C282 1.406 . S
C284 N285 1.261 . S
N285 Co236 2.214 . S
N285 C283 1.325 . S
N285 C284 1.261 . S
C286 H256 0.931 . S
C286 C283 1.357 . S
C286 C287 1.312 . S
C287 H258 0.930 . S
C287 C282 1.261 . S
C287 C286 1.312 . S
C288 O260 1.214 . S
C288 O268 1.234 . S
C289 H261 0.929 . S
C289 C292 1.391 . S
C289 C294 1.391 . S
C290 H262 0.929 . S
C290 C291 1.390 . S
C290 N293 1.391 . S
C291 H263 0.930 . S
C291 C290 1.390 . S
C291 C292 1.392 . S
C292 H264 0.929 . S
C292 C289 1.391 . S
C292 C291 1.392 . S
N293 Co237 2.257 . S
N293 C290 1.391 . S
N293 C294 1.388 . S
C294 H265 0.930 . S
C294 C289 1.391 . S
C294 N293 1.388 . S
Co295 O297 2.143 . S
Co295 O303 2.074 . S
Co295 O306 2.093 . S
Co295 O319 2.097 . S
Co295 N336 2.151 . S
Co295 N344 2.214 . S
Co296 O297 2.160 . S
Co296 O302 2.058 . S
Co296 O312 2.057 . S
Co296 O327 2.037 1_556 S
Co296 N331 2.145 1_556 S
Co296 N352 2.257 . S
O297 Co295 2.143 . S
O297 Co296 2.160 . S
C298 O299 1.278 . S
C298 O306 1.224 . S
O299 C298 1.278 . S
C300 O301 1.245 . S
C300 O312 1.232 . S
O301 C300 1.245 . S
O302 Co296 2.058 . S
O302 C328 1.269 . S
O303 Co295 2.074 . S
O303 C328 1.257 . S
H304 C329 0.930 . S
H305 C335 0.930 . S
O306 Co295 2.093 . S
O306 C298 1.224 . S
H307 C339 0.929 . S
H308 C341 0.930 . S
H309 C342 0.930 1_554 S
H310 C340 0.929 . S
H311 C343 0.928 . S
O312 Co296 2.057 . S
O312 C300 1.232 . S
H313 C332 0.929 . S
H314 C333 0.929 1_556 S
H315 C345 0.931 . S
H316 C337 0.929 . S
H317 C346 0.930 . S
H318 C338 0.931 . S
O319 Co295 2.097 . S
O319 C347 1.214 1_556 S
H320 C348 0.929 . S
H321 C349 0.883 1_554 S
H322 C350 0.930 1_554 S
H323 C351 0.929 . S
H324 C353 0.930 . S
H325 C330 0.930 . S
H326 C334 0.930 . S
O327 Co296 2.037 1_554 S
O327 C347 1.234 . S
C328 O302 1.269 . S
C328 O303 1.257 . S
C329 H304 0.930 . S
C329 C332 1.388 . S
C329 C334 1.418 . S
C330 H325 0.930 . S
C330 C333 1.404 . S
C330 C334 1.353 . S
N331 Co296 2.145 1_554 S
N331 C332 1.397 . S
N331 C333 1.334 . S
C332 H313 0.929 . S
C332 C329 1.388 . S
C332 N331 1.397 . S
C333 H314 0.929 1_554 S
C333 C330 1.404 . S
C333 N331 1.334 . S
C334 H326 0.930 . S
C334 C329 1.418 . S
C334 C330 1.353 . S
C335 H305 0.930 . S
C335 N336 1.330 . S
C335 C337 1.446 . S
N336 Co295 2.151 . S
N336 C335 1.330 . S
N336 C340 1.418 . S
C337 H316 0.929 . S
C337 C335 1.446 . S
C337 C338 1.332 . S
C338 H318 0.931 . S
C338 C337 1.332 . S
C338 C339 1.267 . S
C339 H307 0.929 . S
C339 C338 1.267 . S
C339 C340 1.251 . S
C340 H310 0.929 . S
C340 N336 1.418 . S
C340 C339 1.251 . S
C341 H308 0.930 . S
C341 C343 1.406 . S
C341 C346 1.261 . S
C342 H309 0.930 1_556 S
C342 N344 1.325 . S
C342 C345 1.357 1_556 S
C343 H311 0.928 . S
C343 C341 1.406 . S
C343 N344 1.261 . S
N344 Co295 2.214 . S
N344 C342 1.325 . S
N344 C343 1.261 . S
C345 H315 0.931 . S
C345 C342 1.357 1_554 S
C345 C346 1.312 1_554 S
C346 H317 0.930 . S
C346 C341 1.261 . S
C346 C345 1.312 1_556 S
C347 O319 1.214 1_554 S
C347 O327 1.234 . S
C348 H320 0.929 . S
C348 C351 1.391 . S
C348 C353 1.391 . S
C349 H321 0.883 1_556 S
C349 C350 1.398 . S
C349 N352 1.430 . S
C350 H322 0.930 1_556 S
C350 C349 1.398 . S
C350 C351 1.392 . S
C351 H323 0.929 . S
C351 C348 1.391 . S
C351 C350 1.392 . S
N352 Co296 2.257 . S
N352 C349 1.430 . S
N352 C353 1.388 . S
C353 H324 0.930 . S
C353 C348 1.391 . S
C353 N352 1.388 . S
Co354 O356 2.143 . S
Co354 O362 2.074 . S
Co354 O365 2.093 . S
Co354 O378 2.097 . S
Co354 N395 2.151 . S
Co354 N403 2.214 . S
Co355 O356 2.160 . S
Co355 O361 2.058 . S
Co355 O371 2.057 . S
Co355 O386 2.037 . S
Co355 N390 2.145 . S
Co355 N411 2.257 . S
O356 Co354 2.143 . S
O356 Co355 2.160 . S
C357 O358 1.278 . S
C357 O365 1.224 . S
O358 C357 1.278 . S
C359 O360 1.245 . S
C359 O371 1.232 . S
O360 C359 1.245 . S
O361 Co355 2.058 . S
O361 C387 1.269 . S
O362 Co354 2.074 . S
O362 C387 1.257 . S
H363 C388 0.930 . S
H364 C394 0.930 . S
O365 Co354 2.093 . S
O365 C357 1.224 . S
H366 C398 0.929 . S
H367 C400 0.930 . S
H368 C401 0.930 . S
H369 C399 0.929 . S
H370 C402 0.928 . S
O371 Co355 2.057 . S
O371 C359 1.232 . S
H372 C391 0.929 . S
H373 C392 0.929 . S
H374 C404 0.931 . S
H375 C396 0.929 . S
H376 C405 0.930 . S
H377 C397 0.931 . S
O378 Co354 2.097 . S
O378 C406 1.214 . S
H379 C407 0.929 . S
H380 C408 0.929 . S
H381 C409 0.930 . S
H382 C410 0.929 . S
H383 C412 0.930 . S
H384 C389 0.930 . S
H385 C393 0.930 . S
O386 Co355 2.037 . S
O386 C406 1.234 . S
C387 O361 1.269 . S
C387 O362 1.257 . S
C388 H363 0.930 . S
C388 C391 1.388 . S
C388 C393 1.418 . S
C389 H384 0.930 . S
C389 C392 1.404 . S
C389 C393 1.353 . S
N390 Co355 2.145 . S
N390 C391 1.397 . S
N390 C392 1.334 . S
C391 H372 0.929 . S
C391 C388 1.388 . S
C391 N390 1.397 . S
C392 H373 0.929 . S
C392 C389 1.404 . S
C392 N390 1.334 . S
C393 H385 0.930 . S
C393 C388 1.418 . S
C393 C389 1.353 . S
C394 H364 0.930 . S
C394 N395 1.330 . S
C394 C396 1.446 . S
N395 Co354 2.151 . S
N395 C394 1.330 . S
N395 C399 1.418 1_565 S
C396 H375 0.929 . S
C396 C394 1.446 . S
C396 C397 1.332 1_565 S
C397 H377 0.931 . S
C397 C396 1.332 1_545 S
C397 C398 1.267 . S
C398 H366 0.929 . S
C398 C397 1.267 . S
C398 C399 1.251 . S
C399 H369 0.929 . S
C399 N395 1.418 1_545 S
C399 C398 1.251 . S
C400 H367 0.930 . S
C400 C402 1.406 . S
C400 C405 1.261 . S
C401 H368 0.930 . S
C401 N403 1.325 . S
C401 C404 1.357 . S
C402 H370 0.928 . S
C402 C400 1.406 . S
C402 N403 1.261 . S
N403 Co354 2.214 . S
N403 C401 1.325 . S
N403 C402 1.261 . S
C404 H374 0.931 . S
C404 C401 1.357 . S
C404 C405 1.312 . S
C405 H376 0.930 . S
C405 C400 1.261 . S
C405 C404 1.312 . S
C406 O378 1.214 . S
C406 O386 1.234 . S
C407 H379 0.929 . S
C407 C410 1.391 . S
C407 C412 1.391 . S
C408 H380 0.929 . S
C408 C409 1.390 . S
C408 N411 1.391 . S
C409 H381 0.930 . S
C409 C408 1.390 . S
C409 C410 1.392 . S
C410 H382 0.929 . S
C410 C407 1.391 . S
C410 C409 1.392 . S
N411 Co355 2.257 . S
N411 C408 1.391 . S
N411 C412 1.388 . S
C412 H383 0.930 . S
C412 C407 1.391 . S
C412 N411 1.388 . S
Co413 O415 2.143 . S
Co413 O421 2.074 . S
Co413 O424 2.093 . S
Co413 O437 2.097 . S
Co413 N454 2.151 . S
Co413 N462 2.214 . S
Co414 O415 2.160 . S
Co414 O420 2.058 . S
Co414 O430 2.057 . S
Co414 O445 2.037 . S
Co414 N449 2.145 . S
Co414 N470 2.257 . S
O415 Co413 2.143 . S
O415 Co414 2.160 . S
C416 O417 1.278 . S
C416 O424 1.224 . S
O417 C416 1.278 . S
C418 O419 1.245 . S
C418 O430 1.232 . S
O419 C418 1.245 . S
O420 Co414 2.058 . S
O420 C446 1.269 . S
O421 Co413 2.074 . S
O421 C446 1.257 . S
H422 C447 0.930 . S
H423 C453 0.930 . S
O424 Co413 2.093 . S
O424 C416 1.224 . S
H425 C457 0.929 . S
H426 C459 0.930 . S
H427 C460 0.930 . S
H428 C458 0.929 . S
H429 C461 0.928 . S
O430 Co414 2.057 . S
O430 C418 1.232 . S
H431 C450 0.929 . S
H432 C451 0.929 . S
H433 C463 0.931 . S
H434 C455 0.929 . S
H435 C464 0.930 . S
H436 C456 0.931 . S
O437 Co413 2.097 . S
O437 C465 1.214 . S
H438 C466 0.929 . S
H439 C467 0.929 . S
H440 C468 0.930 . S
H441 C469 0.929 . S
H442 C471 0.930 . S
H443 C448 0.930 . S
H444 C452 0.930 . S
O445 Co414 2.037 . S
O445 C465 1.234 . S
C446 O420 1.269 . S
C446 O421 1.257 . S
C447 H422 0.930 . S
C447 C450 1.388 . S
C447 C452 1.418 . S
C448 H443 0.930 . S
C448 C451 1.404 . S
C448 C452 1.353 . S
N449 Co414 2.145 . S
N449 C450 1.397 . S
N449 C451 1.334 . S
C450 H431 0.929 . S
C450 C447 1.388 . S
C450 N449 1.397 . S
C451 H432 0.929 . S
C451 C448 1.404 . S
C451 N449 1.334 . S
C452 H444 0.930 . S
C452 C447 1.418 . S
C452 C448 1.353 . S
C453 H423 0.930 . S
C453 N454 1.330 . S
C453 C455 1.446 . S
N454 Co413 2.151 . S
N454 C453 1.330 . S
N454 C458 1.418 . S
C455 H434 0.929 . S
C455 C453 1.446 . S
C455 C456 1.332 . S
C456 H436 0.931 . S
C456 C455 1.332 . S
C456 C457 1.267 . S
C457 H425 0.929 . S
C457 C456 1.267 . S
C457 C458 1.251 . S
C458 H428 0.929 . S
C458 N454 1.418 . S
C458 C457 1.251 . S
C459 H426 0.930 . S
C459 C461 1.406 . S
C459 C464 1.261 . S
C460 H427 0.930 . S
C460 N462 1.325 . S
C460 C463 1.357 . S
C461 H429 0.928 . S
C461 C459 1.406 . S
C461 N462 1.261 . S
N462 Co413 2.214 . S
N462 C460 1.325 . S
N462 C461 1.261 . S
C463 H433 0.931 . S
C463 C460 1.357 . S
C463 C464 1.312 . S
C464 H435 0.930 . S
C464 C459 1.261 . S
C464 C463 1.312 . S
C465 O437 1.214 . S
C465 O445 1.234 . S
C466 H438 0.929 . S
C466 C469 1.391 . S
C466 C471 1.391 . S
C467 H439 0.929 . S
C467 C468 1.390 . S
C467 N470 1.391 . S
C468 H440 0.930 . S
C468 C467 1.390 . S
C468 C469 1.392 . S
C469 H441 0.929 . S
C469 C466 1.391 . S
C469 C468 1.392 . S
N470 Co414 2.257 . S
N470 C467 1.391 . S
N470 C471 1.388 . S
C471 H442 0.930 . S
C471 C466 1.391 . S
C471 N470 1.388 . S
Co472 O474 2.143 . S
Co472 O480 2.074 . S
Co472 O483 2.093 . S
Co472 O496 2.097 . S
Co472 N513 2.151 . S
Co472 N521 2.214 . S
Co473 O474 2.160 . S
Co473 O479 2.058 . S
Co473 O489 2.057 . S
Co473 O504 2.037 1_554 S
Co473 N508 2.145 1_554 S
Co473 N529 2.257 . S
O474 Co472 2.143 . S
O474 Co473 2.160 . S
C475 O476 1.278 . S
C475 O483 1.224 . S
O476 C475 1.278 . S
C477 O478 1.245 . S
C477 O489 1.232 . S
O478 C477 1.245 . S
O479 Co473 2.058 . S
O479 C505 1.269 . S
O480 Co472 2.074 . S
O480 C505 1.257 . S
H481 C506 0.930 . S
H482 C512 0.930 . S
O483 Co472 2.093 . S
O483 C475 1.224 . S
H484 C516 0.929 . S
H485 C518 0.930 . S
H486 C519 0.930 1_556 S
H487 C517 0.929 . S
H488 C520 0.928 . S
O489 Co473 2.057 . S
O489 C477 1.232 . S
H490 C509 0.929 . S
H491 C510 0.929 1_554 S
H492 C522 0.931 . S
H493 C514 0.929 . S
H494 C523 0.930 . S
H495 C515 0.931 . S
O496 Co472 2.097 . S
O496 C524 1.214 1_554 S
H497 C525 0.929 . S
H498 C526 0.883 1_556 S
H499 C527 0.930 1_556 S
H500 C528 0.929 . S
H501 C530 0.930 . S
H502 C507 0.930 . S
H503 C511 0.930 . S
O504 Co473 2.037 1_556 S
O504 C524 1.234 . S
C505 O479 1.269 . S
C505 O480 1.257 . S
C506 H481 0.930 . S
C506 C509 1.388 . S
C506 C511 1.418 . S
C507 H502 0.930 . S
C507 C510 1.404 . S
C507 C511 1.353 . S
N508 Co473 2.145 1_556 S
N508 C509 1.397 . S
N508 C510 1.334 . S
C509 H490 0.929 . S
C509 C506 1.388 . S
C509 N508 1.397 . S
C510 H491 0.929 1_556 S
C510 C507 1.404 . S
C510 N508 1.334 . S
C511 H503 0.930 . S
C511 C506 1.418 . S
C511 C507 1.353 . S
C512 H482 0.930 . S
C512 N513 1.330 . S
C512 C514 1.446 . S
N513 Co472 2.151 . S
N513 C512 1.330 . S
N513 C517 1.418 1_455 S
C514 H493 0.929 . S
C514 C512 1.446 . S
C514 C515 1.332 1_455 S
C515 H495 0.931 . S
C515 C514 1.332 1_655 S
C515 C516 1.267 . S
C516 H484 0.929 . S
C516 C515 1.267 . S
C516 C517 1.251 . S
C517 H487 0.929 . S
C517 N513 1.418 1_655 S
C517 C516 1.251 . S
C518 H485 0.930 . S
C518 C520 1.406 . S
C518 C523 1.261 . S
C519 H486 0.930 1_554 S
C519 N521 1.325 . S
C519 C522 1.357 1_554 S
C520 H488 0.928 . S
C520 C518 1.406 . S
C520 N521 1.261 . S
N521 Co472 2.214 . S
N521 C519 1.325 . S
N521 C520 1.261 . S
C522 H492 0.931 . S
C522 C519 1.357 1_556 S
C522 C523 1.312 1_556 S
C523 H494 0.930 . S
C523 C518 1.261 . S
C523 C522 1.312 1_554 S
C524 O496 1.214 1_556 S
C524 O504 1.234 . S
C525 H497 0.929 . S
C525 C528 1.391 . S
C525 C530 1.391 . S
C526 H498 0.883 1_554 S
C526 C527 1.398 . S
C526 N529 1.430 . S
C527 H499 0.930 1_554 S
C527 C526 1.398 . S
C527 C528 1.392 . S
C528 H500 0.929 . S
C528 C525 1.391 . S
C528 C527 1.392 . S
N529 Co473 2.257 . S
N529 C526 1.430 . S
N529 C530 1.388 . S
C530 H501 0.930 . S
C530 C525 1.391 . S
C530 N529 1.388 . S
Co531 O533 2.143 . S
Co531 O539 2.074 . S
Co531 O542 2.093 . S
Co531 O555 2.097 . S
Co531 N572 2.151 . S
Co531 N580 2.214 . S
Co532 O533 2.160 . S
Co532 O538 2.058 . S
Co532 O548 2.057 . S
Co532 O563 2.037 . S
Co532 N567 2.145 . S
Co532 N588 2.257 . S
O533 Co531 2.143 . S
O533 Co532 2.160 . S
C534 O535 1.278 . S
C534 O542 1.224 . S
O535 C534 1.278 . S
C536 O537 1.245 . S
C536 O548 1.232 . S
O537 C536 1.245 . S
O538 Co532 2.058 . S
O538 C564 1.269 . S
O539 Co531 2.074 . S
O539 C564 1.257 . S
H540 C565 0.930 . S
H541 C571 0.930 . S
O542 Co531 2.093 . S
O542 C534 1.224 . S
H543 C575 0.929 . S
H544 C577 0.930 . S
H545 C578 0.930 . S
H546 C576 0.929 . S
H547 C579 0.928 . S
O548 Co532 2.057 . S
O548 C536 1.232 . S
H549 C568 0.929 . S
H550 C569 0.929 . S
H551 C581 0.931 . S
H552 C573 0.929 . S
H553 C582 0.930 . S
H554 C574 0.931 . S
O555 Co531 2.097 . S
O555 C583 1.214 . S
H556 C584 0.929 . S
H557 C585 0.929 . S
H558 C586 0.930 . S
H559 C587 0.929 . S
H560 C589 0.930 . S
H561 C566 0.930 . S
H562 C570 0.930 . S
O563 Co532 2.037 . S
O563 C583 1.234 . S
C564 O538 1.269 . S
C564 O539 1.257 . S
C565 H540 0.930 . S
C565 C568 1.388 . S
C565 C570 1.418 . S
C566 H561 0.930 . S
C566 C569 1.404 . S
C566 C570 1.353 . S
N567 Co532 2.145 . S
N567 C568 1.397 . S
N567 C569 1.334 . S
C568 H549 0.929 . S
C568 C565 1.388 . S
C568 N567 1.397 . S
C569 H550 0.929 . S
C569 C566 1.404 . S
C569 N567 1.334 . S
C570 H562 0.930 . S
C570 C565 1.418 . S
C570 C566 1.353 . S
C571 H541 0.930 . S
C571 N572 1.330 . S
C571 C573 1.446 . S
N572 Co531 2.151 . S
N572 C571 1.330 . S
N572 C576 1.418 1_545 S
C573 H552 0.929 . S
C573 C571 1.446 . S
C573 C574 1.332 1_545 S
C574 H554 0.931 . S
C574 C573 1.332 1_565 S
C574 C575 1.267 . S
C575 H543 0.929 . S
C575 C574 1.267 . S
C575 C576 1.251 . S
C576 H546 0.929 . S
C576 N572 1.418 1_565 S
C576 C575 1.251 . S
C577 H544 0.930 . S
C577 C579 1.406 . S
C577 C582 1.261 . S
C578 H545 0.930 . S
C578 N580 1.325 . S
C578 C581 1.357 . S
C579 H547 0.928 . S
C579 C577 1.406 . S
C579 N580 1.261 . S
N580 Co531 2.214 . S
N580 C578 1.325 . S
N580 C579 1.261 . S
C581 H551 0.931 . S
C581 C578 1.357 . S
C581 C582 1.312 . S
C582 H553 0.930 . S
C582 C577 1.261 . S
C582 C581 1.312 . S
C583 O555 1.214 . S
C583 O563 1.234 . S
C584 H556 0.929 . S
C584 C587 1.391 . S
C584 C589 1.391 . S
C585 H557 0.929 . S
C585 C586 1.390 . S
C585 N588 1.391 . S
C586 H558 0.930 . S
C586 C585 1.390 . S
C586 C587 1.392 . S
C587 H559 0.929 . S
C587 C584 1.391 . S
C587 C586 1.392 . S
N588 Co532 2.257 . S
N588 C585 1.391 . S
N588 C589 1.388 . S
C589 H560 0.930 . S
C589 C584 1.391 . S
C589 N588 1.388 . S
Co590 O592 2.143 . S
Co590 O598 2.074 . S
Co590 O601 2.093 . S
Co590 O614 2.097 . S
Co590 N631 2.151 . S
Co590 N639 2.214 . S
Co591 O592 2.160 . S
Co591 O597 2.058 . S
Co591 O607 2.057 . S
Co591 O622 2.037 . S
Co591 N626 2.145 . S
Co591 N647 2.257 . S
O592 Co590 2.143 . S
O592 Co591 2.160 . S
C593 O594 1.278 . S
C593 O601 1.224 . S
O594 C593 1.278 . S
C595 O596 1.245 . S
C595 O607 1.232 . S
O596 C595 1.245 . S
O597 Co591 2.058 . S
O597 C623 1.269 . S
O598 Co590 2.074 . S
O598 C623 1.257 . S
H599 C624 0.930 . S
H600 C630 0.930 . S
O601 Co590 2.093 . S
O601 C593 1.224 . S
H602 C634 0.929 . S
H603 C636 0.930 . S
H604 C637 0.930 . S
H605 C635 0.929 . S
H606 C638 0.928 . S
O607 Co591 2.057 . S
O607 C595 1.232 . S
H608 C627 0.929 . S
H609 C628 0.929 . S
H610 C640 0.931 . S
H611 C632 0.929 . S
H612 C641 0.930 . S
H613 C633 0.931 . S
O614 Co590 2.097 . S
O614 C642 1.214 . S
H615 C643 0.929 . S
H616 C644 0.929 . S
H617 C645 0.930 . S
H618 C646 0.929 . S
H619 C648 0.930 . S
H620 C625 0.930 . S
H621 C629 0.930 . S
O622 Co591 2.037 . S
O622 C642 1.234 . S
C623 O597 1.269 . S
C623 O598 1.257 . S
C624 H599 0.930 . S
C624 C627 1.388 . S
C624 C629 1.418 . S
C625 H620 0.930 . S
C625 C628 1.404 . S
C625 C629 1.353 . S
N626 Co591 2.145 . S
N626 C627 1.397 . S
N626 C628 1.334 . S
C627 H608 0.929 . S
C627 C624 1.388 . S
C627 N626 1.397 . S
C628 H609 0.929 . S
C628 C625 1.404 . S
C628 N626 1.334 . S
C629 H621 0.930 . S
C629 C624 1.418 . S
C629 C625 1.353 . S
C630 H600 0.930 . S
C630 N631 1.330 . S
C630 C632 1.446 . S
N631 Co590 2.151 . S
N631 C630 1.330 . S
N631 C635 1.418 . S
C632 H611 0.929 . S
C632 C630 1.446 . S
C632 C633 1.332 . S
C633 H613 0.931 . S
C633 C632 1.332 . S
C633 C634 1.267 . S
C634 H602 0.929 . S
C634 C633 1.267 . S
C634 C635 1.251 . S
C635 H605 0.929 . S
C635 N631 1.418 . S
C635 C634 1.251 . S
C636 H603 0.930 . S
C636 C638 1.406 . S
C636 C641 1.261 . S
C637 H604 0.930 . S
C637 N639 1.325 . S
C637 C640 1.357 . S
C638 H606 0.928 . S
C638 C636 1.406 . S
C638 N639 1.261 . S
N639 Co590 2.214 . S
N639 C637 1.325 . S
N639 C638 1.261 . S
C640 H610 0.931 . S
C640 C637 1.357 . S
C640 C641 1.312 . S
C641 H612 0.930 . S
C641 C636 1.261 . S
C641 C640 1.312 . S
C642 O614 1.214 . S
C642 O622 1.234 . S
C643 H615 0.929 . S
C643 C646 1.391 . S
C643 C648 1.391 . S
C644 H616 0.929 . S
C644 C645 1.390 . S
C644 N647 1.391 . S
C645 H617 0.930 . S
C645 C644 1.390 . S
C645 C646 1.392 . S
C646 H618 0.929 . S
C646 C643 1.391 . S
C646 C645 1.392 . S
N647 Co591 2.257 . S
N647 C644 1.391 . S
N647 C648 1.388 . S
C648 H619 0.930 . S
C648 C643 1.391 . S
C648 N647 1.388 . S
Co649 O651 2.143 . S
Co649 O657 2.074 . S
Co649 O660 2.093 . S
Co649 O673 2.097 . S
Co649 N690 2.151 . S
Co649 N698 2.214 . S
Co650 O651 2.160 . S
Co650 O656 2.058 . S
Co650 O666 2.057 . S
Co650 O681 2.037 . S
Co650 N685 2.145 . S
Co650 N706 2.257 . S
O651 Co649 2.143 . S
O651 Co650 2.160 . S
C652 O653 1.278 . S
C652 O660 1.224 . S
O653 C652 1.278 . S
C654 O655 1.245 . S
C654 O666 1.232 . S
O655 C654 1.245 . S
O656 Co650 2.058 . S
O656 C682 1.269 . S
O657 Co649 2.074 . S
O657 C682 1.257 . S
H658 C683 0.930 . S
H659 C689 0.930 . S
O660 Co649 2.093 . S
O660 C652 1.224 . S
H661 C693 0.929 . S
H662 C695 0.930 . S
H663 C696 0.930 . S
H664 C694 0.929 . S
H665 C697 0.928 . S
O666 Co650 2.057 . S
O666 C654 1.232 . S
H667 C686 0.929 . S
H668 C687 0.929 . S
H669 C699 0.931 . S
H670 C691 0.929 . S
H671 C700 0.930 . S
H672 C692 0.931 . S
O673 Co649 2.097 . S
O673 C701 1.214 . S
H674 C702 0.929 . S
H675 C703 0.929 . S
H676 C704 0.930 . S
H677 C705 0.929 . S
H678 C707 0.930 . S
H679 C684 0.930 . S
H680 C688 0.930 . S
O681 Co650 2.037 . S
O681 C701 1.234 . S
C682 O656 1.269 . S
C682 O657 1.257 . S
C683 H658 0.930 . S
C683 C686 1.388 . S
C683 C688 1.418 . S
C684 H679 0.930 . S
C684 C687 1.404 . S
C684 C688 1.353 . S
N685 Co650 2.145 . S
N685 C686 1.397 . S
N685 C687 1.334 . S
C686 H667 0.929 . S
C686 C683 1.388 . S
C686 N685 1.397 . S
C687 H668 0.929 . S
C687 C684 1.404 . S
C687 N685 1.334 . S
C688 H680 0.930 . S
C688 C683 1.418 . S
C688 C684 1.353 . S
C689 H659 0.930 . S
C689 N690 1.330 . S
C689 C691 1.446 . S
N690 Co649 2.151 . S
N690 C689 1.330 . S
N690 C694 1.418 1_655 S
C691 H670 0.929 . S
C691 C689 1.446 . S
C691 C692 1.332 1_655 S
C692 H672 0.931 . S
C692 C691 1.332 1_455 S
C692 C693 1.267 . S
C693 H661 0.929 . S
C693 C692 1.267 . S
C693 C694 1.251 . S
C694 H664 0.929 . S
C694 N690 1.418 1_455 S
C694 C693 1.251 . S
C695 H662 0.930 . S
C695 C697 1.406 . S
C695 C700 1.261 . S
C696 H663 0.930 . S
C696 N698 1.325 . S
C696 C699 1.357 . S
C697 H665 0.928 . S
C697 C695 1.406 . S
C697 N698 1.261 . S
N698 Co649 2.214 . S
N698 C696 1.325 . S
N698 C697 1.261 . S
C699 H669 0.931 . S
C699 C696 1.357 . S
C699 C700 1.312 . S
C700 H671 0.930 . S
C700 C695 1.261 . S
C700 C699 1.312 . S
C701 O673 1.214 . S
C701 O681 1.234 . S
C702 H674 0.929 . S
C702 C705 1.391 . S
C702 C707 1.391 . S
C703 H675 0.929 . S
C703 C704 1.390 . S
C703 N706 1.391 . S
C704 H676 0.930 . S
C704 C703 1.390 . S
C704 C705 1.392 . S
C705 H677 0.929 . S
C705 C702 1.391 . S
C705 C704 1.392 . S
N706 Co650 2.257 . S
N706 C703 1.391 . S
N706 C707 1.388 . S
C707 H678 0.930 . S
C707 C702 1.391 . S
C707 N706 1.388 . S
C708 C709 1.391 . S
C708 C710 1.394 . S
C708 H724 0.931 . S
C709 C708 1.391 . S
C709 C713 1.376 . S
C710 C708 1.394 . S
C710 C711 1.369 . S
C710 C714 1.531 . S
C711 C710 1.369 . S
C711 C712 1.410 . S
C711 C719 1.503 . S
C712 C711 1.410 . S
C712 C713 1.392 . S
C712 C715 1.511 . S
C713 C709 1.376 . S
C713 C712 1.392 . S
C713 H725 0.929 . S
C714 C710 1.531 . S
C714 H726 0.960 . S
C714 H727 0.962 1_455 S
C714 H728 0.960 . S
C715 C712 1.511 . S
C715 H729 0.961 . S
C715 H730 0.961 . S
C715 H731 0.961 . S
C716 C717 1.370 . S
C716 C718 1.363 . S
C716 H732 0.931 . S
C717 C716 1.370 . S
C717 C721 1.408 . S
C718 C716 1.363 . S
C718 C719 1.370 . S
C718 C722 1.524 . S
C719 C711 1.503 . S
C719 C718 1.370 . S
C719 C720 1.403 . S
C720 C719 1.403 . S
C720 C721 1.404 . S
C720 C723 1.539 . S
C721 C717 1.408 . S
C721 C720 1.404 . S
C721 H733 0.930 . S
C722 C718 1.524 . S
C722 H734 0.956 1_455 S
C722 H735 0.961 . S
C722 H736 0.961 1_455 S
C723 C720 1.539 . S
C723 H737 0.958 . S
C723 H738 0.961 . S
C723 H739 0.960 . S
H724 C708 0.931 . S
H725 C713 0.929 . S
H726 C714 0.960 . S
H727 C714 0.962 1_655 S
H728 C714 0.960 . S
H729 C715 0.961 . S
H730 C715 0.961 . S
H731 C715 0.961 . S
H732 C716 0.931 . S
H733 C721 0.930 . S
H734 C722 0.956 1_655 S
H735 C722 0.961 . S
H736 C722 0.961 1_655 S
H737 C723 0.958 . S
H738 C723 0.961 . S
H739 C723 0.960 . S
C740 C741 1.391 . S
C740 C742 1.394 . S
C740 H756 0.931 . S
C741 C740 1.391 . S
C741 C745 1.376 . S
C742 C740 1.394 . S
C742 C743 1.369 . S
C742 C746 1.531 . S
C743 C742 1.369 . S
C743 C744 1.410 . S
C743 C751 1.503 . S
C744 C743 1.410 . S
C744 C745 1.392 . S
C744 C747 1.511 . S
C745 C741 1.376 . S
C745 C744 1.392 . S
C745 H757 0.929 . S
C746 C742 1.531 . S
C746 H758 0.960 . S
C746 H759 0.962 . S
C746 H760 0.960 . S
C747 C744 1.511 . S
C747 H761 0.961 . S
C747 H762 0.961 . S
C747 H763 0.961 1_545 S
C748 C749 1.370 . S
C748 C750 1.363 . S
C748 H764 0.931 . S
C749 C748 1.370 . S
C749 C753 1.408 . S
C750 C748 1.363 . S
C750 C751 1.370 . S
C750 C754 1.524 . S
C751 C743 1.503 . S
C751 C750 1.370 . S
C751 C752 1.403 . S
C752 C751 1.403 . S
C752 C753 1.404 . S
C752 C755 1.539 1_545 S
C753 C749 1.408 . S
C753 C752 1.404 . S
C753 H765 0.930 . S
C754 C750 1.524 . S
C754 H766 0.956 . S
C754 H767 0.961 . S
C754 H768 0.961 . S
C755 C752 1.539 1_565 S
C755 H769 0.958 . S
C755 H770 0.961 . S
C755 H771 0.960 . S
H756 C740 0.931 . S
H757 C745 0.929 . S
H758 C746 0.960 . S
H759 C746 0.962 . S
H760 C746 0.960 . S
H761 C747 0.961 . S
H762 C747 0.961 . S
H763 C747 0.961 1_565 S
H764 C748 0.931 . S
H765 C753 0.930 . S
H766 C754 0.956 . S
H767 C754 0.961 . S
H768 C754 0.961 . S
H769 C755 0.958 . S
H770 C755 0.961 . S
H771 C755 0.960 . S
C772 C773 1.391 . S
C772 C774 1.394 . S
C772 H788 0.931 . S
C773 C772 1.391 . S
C773 C777 1.376 . S
C774 C772 1.394 . S
C774 C775 1.369 . S
C774 C778 1.531 . S
C775 C774 1.369 . S
C775 C776 1.410 . S
C775 C783 1.503 . S
C776 C775 1.410 . S
C776 C777 1.392 . S
C776 C779 1.511 . S
C777 C773 1.376 . S
C777 C776 1.392 . S
C777 H789 0.929 . S
C778 C774 1.531 . S
C778 H790 0.960 . S
C778 H791 0.962 . S
C778 H792 0.960 . S
C779 C776 1.511 . S
C779 H793 0.961 . S
C779 H794 0.961 . S
C779 H795 0.961 . S
C780 C781 1.370 . S
C780 C782 1.363 . S
C780 H796 0.931 . S
C781 C780 1.370 . S
C781 C785 1.408 . S
C782 C780 1.363 . S
C782 C783 1.370 . S
C782 C786 1.524 . S
C783 C775 1.503 . S
C783 C782 1.370 . S
C783 C784 1.403 . S
C784 C783 1.403 . S
C784 C785 1.404 . S
C784 C787 1.539 . S
C785 C781 1.408 . S
C785 C784 1.404 . S
C785 H797 0.930 . S
C786 C782 1.524 . S
C786 H798 0.956 . S
C786 H799 0.961 . S
C786 H800 0.961 . S
C787 C784 1.539 . S
C787 H801 0.958 . S
C787 H802 0.961 . S
C787 H803 0.960 . S
H788 C772 0.931 . S
H789 C777 0.929 . S
H790 C778 0.960 . S
H791 C778 0.962 . S
H792 C778 0.960 . S
H793 C779 0.961 . S
H794 C779 0.961 . S
H795 C779 0.961 . S
H796 C780 0.931 . S
H797 C785 0.930 . S
H798 C786 0.956 . S
H799 C786 0.961 . S
H800 C786 0.961 . S
H801 C787 0.958 . S
H802 C787 0.961 . S
H803 C787 0.960 . S
C804 C805 1.391 . S
C804 C806 1.394 . S
C804 H820 0.931 . S
C805 C804 1.391 . S
C805 C809 1.376 . S
C806 C804 1.394 . S
C806 C807 1.369 . S
C806 C810 1.531 . S
C807 C806 1.369 . S
C807 C808 1.410 . S
C807 C815 1.503 . S
C808 C807 1.410 . S
C808 C809 1.392 . S
C808 C811 1.511 . S
C809 C805 1.376 . S
C809 C808 1.392 . S
C809 H821 0.929 . S
C810 C806 1.531 . S
C810 H822 0.960 . S
C810 H823 0.962 . S
C810 H824 0.960 . S
C811 C808 1.511 . S
C811 H825 0.961 . S
C811 H826 0.961 . S
C811 H827 0.961 1_655 S
C812 C813 1.370 . S
C812 C814 1.363 . S
C812 H828 0.931 . S
C813 C812 1.370 . S
C813 C817 1.408 . S
C814 C812 1.363 . S
C814 C815 1.370 . S
C814 C818 1.524 . S
C815 C807 1.503 . S
C815 C814 1.370 . S
C815 C816 1.403 . S
C816 C815 1.403 . S
C816 C817 1.404 . S
C816 C819 1.539 1_655 S
C817 C813 1.408 . S
C817 C816 1.404 . S
C817 H829 0.949 . S
C818 C814 1.524 . S
C818 H830 0.956 . S
C818 H831 0.961 . S
C818 H832 0.961 . S
C819 C816 1.539 1_455 S
C819 H833 0.958 . S
C819 H834 0.961 . S
C819 H835 0.960 . S
H820 C804 0.931 . S
H821 C809 0.929 . S
H822 C810 0.960 . S
H823 C810 0.962 . S
H824 C810 0.960 . S
H825 C811 0.961 . S
H826 C811 0.961 . S
H827 C811 0.961 1_455 S
H828 C812 0.931 . S
H829 C817 0.949 . S
H830 C818 0.956 . S
H831 C818 0.961 . S
H832 C818 0.961 . S
H833 C819 0.958 . S
H834 C819 0.961 . S
H835 C819 0.960 . S
C836 C837 1.391 . S
C836 C838 1.394 . S
C836 H852 0.931 . S
C837 C836 1.391 . S
C837 C841 1.376 . S
C838 C836 1.394 . S
C838 C839 1.369 . S
C838 C842 1.531 . S
C839 C838 1.369 . S
C839 C840 1.410 . S
C839 C847 1.503 . S
C840 C839 1.410 . S
C840 C841 1.392 . S
C840 C843 1.511 . S
C841 C837 1.376 . S
C841 C840 1.392 . S
C841 H853 0.929 . S
C842 C838 1.531 . S
C842 H854 0.960 . S
C842 H855 0.962 . S
C842 H856 0.960 . S
C843 C840 1.511 . S
C843 H857 0.961 . S
C843 H858 0.961 . S
C843 H859 0.961 . S
C844 C845 1.370 . S
C844 C846 1.363 . S
C844 H860 0.931 . S
C845 C844 1.370 . S
C845 C849 1.408 . S
C846 C844 1.363 . S
C846 C847 1.370 . S
C846 C850 1.524 1_565 S
C847 C839 1.503 . S
C847 C846 1.370 . S
C847 C848 1.403 . S
C848 C847 1.403 . S
C848 C849 1.404 . S
C848 C851 1.539 . S
C849 C845 1.408 . S
C849 C848 1.404 . S
C849 H861 0.930 . S
C850 C846 1.524 1_545 S
C850 H862 0.956 . S
C850 H863 0.961 . S
C850 H864 0.961 . S
C851 C848 1.539 . S
C851 H865 0.958 . S
C851 H866 0.961 . S
C851 H867 0.960 . S
H852 C836 0.931 . S
H853 C841 0.929 . S
H854 C842 0.960 . S
H855 C842 0.962 . S
H856 C842 0.960 . S
H857 C843 0.961 . S
H858 C843 0.961 . S
H859 C843 0.961 . S
H860 C844 0.931 . S
H861 C849 0.930 . S
H862 C850 0.956 . S
H863 C850 0.961 . S
H864 C850 0.961 . S
H865 C851 0.958 . S
H866 C851 0.961 . S
H867 C851 0.960 . S
C868 C869 1.391 . S
C868 C870 1.394 . S
C868 H884 0.931 . S
C869 C868 1.391 . S
C869 C873 1.376 . S
C870 C868 1.394 . S
C870 C871 1.369 . S
C870 C874 1.531 . S
C871 C870 1.369 . S
C871 C872 1.410 . S
C871 C879 1.503 . S
C872 C871 1.410 . S
C872 C873 1.392 . S
C872 C875 1.511 . S
C873 C869 1.376 . S
C873 C872 1.392 . S
C873 H885 0.929 . S
C874 C870 1.531 . S
C874 H886 0.960 . S
C874 H887 0.962 . S
C874 H888 0.960 . S
C875 C872 1.511 . S
C875 H889 0.961 . S
C875 H890 0.961 . S
C875 H891 0.961 . S
C876 C877 1.370 . S
C876 C878 1.363 . S
C876 H892 0.931 . S
C877 C876 1.370 . S
C877 C881 1.408 . S
C878 C876 1.363 . S
C878 C879 1.370 . S
C878 C882 1.524 . S
C879 C871 1.503 . S
C879 C878 1.370 . S
C879 C880 1.403 . S
C880 C879 1.403 . S
C880 C881 1.404 . S
C880 C883 1.539 . S
C881 C877 1.408 . S
C881 C880 1.404 . S
C881 H893 0.930 . S
C882 C878 1.524 . S
C882 H894 0.956 . S
C882 H895 0.961 . S
C882 H896 0.961 . S
C883 C880 1.539 . S
C883 H897 0.958 . S
C883 H898 0.961 . S
C883 H899 0.960 . S
H884 C868 0.931 . S
H885 C873 0.929 . S
H886 C874 0.960 . S
H887 C874 0.962 . S
H888 C874 0.960 . S
H889 C875 0.961 . S
H890 C875 0.961 . S
H891 C875 0.961 . S
H892 C876 0.931 . S
H893 C881 0.930 . S
H894 C882 0.956 . S
H895 C882 0.961 . S
H896 C882 0.961 . S
H897 C883 0.958 . S
H898 C883 0.961 . S
H899 C883 0.960 . S
C900 C901 1.391 . S
C900 C902 1.394 . S
C900 H916 0.931 . S
C901 C900 1.391 . S
C901 C905 1.376 . S
C902 C900 1.394 . S
C902 C903 1.369 . S
C902 C906 1.531 . S
C903 C902 1.369 . S
C903 C904 1.410 . S
C903 C911 1.503 . S
C904 C903 1.410 . S
C904 C905 1.392 . S
C904 C907 1.511 . S
C905 C901 1.376 . S
C905 C904 1.392 . S
C905 H917 0.929 . S
C906 C902 1.531 . S
C906 H918 0.960 . S
C906 H919 0.962 . S
C906 H920 0.960 . S
C907 C904 1.511 . S
C907 H921 0.961 . S
C907 H922 0.961 . S
C907 H923 0.961 . S
C908 C909 1.370 . S
C908 C910 1.363 . S
C908 H924 0.931 . S
C909 C908 1.370 . S
C909 C913 1.408 1_554 S
C910 C908 1.363 . S
C910 C911 1.370 . S
C910 C914 1.524 . S
C911 C903 1.503 . S
C911 C910 1.370 . S
C911 C912 1.403 . S
C912 C911 1.403 . S
C912 C913 1.404 1_554 S
C912 C915 1.539 1_554 S
C913 C909 1.408 1_556 S
C913 C912 1.404 1_556 S
C913 H925 0.930 . S
C914 C910 1.524 . S
C914 H926 0.956 . S
C914 H927 0.961 . S
C914 H928 0.961 . S
C915 C912 1.539 1_556 S
C915 H929 0.958 . S
C915 H930 0.961 . S
C915 H931 0.960 1_556 S
H916 C900 0.931 . S
H917 C905 0.929 . S
H918 C906 0.960 . S
H919 C906 0.962 . S
H920 C906 0.960 . S
H921 C907 0.961 . S
H922 C907 0.961 . S
H923 C907 0.961 . S
H924 C908 0.931 . S
H925 C913 0.930 . S
H926 C914 0.956 . S
H927 C914 0.961 . S
H928 C914 0.961 . S
H929 C915 0.958 . S
H930 C915 0.961 . S
H931 C915 0.960 1_554 S
C932 C933 1.391 . S
C932 C934 1.394 . S
C932 H948 0.931 . S
C933 C932 1.391 . S
C933 C937 1.376 . S
C934 C932 1.394 . S
C934 C935 1.369 . S
C934 C938 1.531 . S
C935 C934 1.369 . S
C935 C936 1.410 . S
C935 C943 1.503 . S
C936 C935 1.410 . S
C936 C937 1.392 . S
C936 C939 1.511 . S
C937 C933 1.376 . S
C937 C936 1.392 . S
C937 H949 0.929 . S
C938 C934 1.531 . S
C938 H950 0.960 . S
C938 H951 0.962 . S
C938 H952 0.960 . S
C939 C936 1.511 . S
C939 H953 0.961 . S
C939 H954 0.961 . S
C939 H955 0.961 . S
C940 C941 1.370 . S
C940 C942 1.363 . S
C940 H956 0.931 . S
C941 C940 1.370 . S
C941 C945 1.408 . S
C942 C940 1.363 . S
C942 C943 1.370 . S
C942 C946 1.524 . S
C943 C935 1.503 . S
C943 C942 1.370 . S
C943 C944 1.403 . S
C944 C943 1.403 . S
C944 C945 1.404 . S
C944 C947 1.539 . S
C945 C941 1.408 . S
C945 C944 1.404 . S
C945 H957 0.930 . S
C946 C942 1.524 . S
C946 H958 0.956 . S
C946 H959 0.961 . S
C946 H960 0.961 . S
C947 C944 1.539 . S
C947 H961 0.958 . S
C947 H962 0.961 . S
C947 H963 0.960 . S
H948 C932 0.931 . S
H949 C937 0.929 . S
H950 C938 0.960 . S
H951 C938 0.962 . S
H952 C938 0.960 . S
H953 C939 0.961 . S
H954 C939 0.961 . S
H955 C939 0.961 . S
H956 C940 0.931 . S
H957 C945 0.930 . S
H958 C946 0.956 . S
H959 C946 0.961 . S
H960 C946 0.961 . S
H961 C947 0.958 . S
H962 C947 0.961 . S
H963 C947 0.960 . S
C964 C965 1.391 . S
C964 C966 1.394 . S
C964 H980 0.931 . S
C965 C964 1.391 . S
C965 C969 1.376 . S
C966 C964 1.394 . S
C966 C967 1.369 . S
C966 C970 1.531 . S
C967 C966 1.369 . S
C967 C968 1.410 . S
C967 C975 1.503 . S
C968 C967 1.410 . S
C968 C969 1.392 . S
C968 C971 1.511 . S
C969 C965 1.376 . S
C969 C968 1.392 . S
C969 H981 0.929 . S
C970 C966 1.531 . S
C970 H982 0.960 . S
C970 H983 0.962 . S
C970 H984 0.960 . S
C971 C968 1.511 . S
C971 H985 0.961 . S
C971 H986 0.961 . S
C971 H987 0.961 . S
C972 C973 1.370 . S
C972 C974 1.363 . S
C972 H988 0.931 1_565 S
C973 C972 1.370 . S
C973 C977 1.408 . S
C974 C972 1.363 . S
C974 C975 1.370 . S
C974 C978 1.524 . S
C975 C967 1.503 . S
C975 C974 1.370 . S
C975 C976 1.403 . S
C976 C975 1.403 . S
C976 C977 1.404 . S
C976 C979 1.539 . S
C977 C973 1.408 . S
C977 C976 1.404 . S
C977 H989 0.930 . S
C978 C974 1.524 . S
C978 H990 0.956 . S
C978 H991 0.961 . S
C978 H992 0.961 . S
C979 C976 1.539 . S
C979 H993 0.958 . S
C979 H994 0.961 . S
C979 H995 0.960 . S
H980 C964 0.931 . S
H981 C969 0.929 . S
H982 C970 0.960 . S
H983 C970 0.962 . S
H984 C970 0.960 . S
H985 C971 0.961 . S
H986 C971 0.961 . S
H987 C971 0.961 . S
H988 C972 0.931 1_545 S
H989 C977 0.930 . S
H990 C978 0.956 . S
H991 C978 0.961 . S
H992 C978 0.961 . S
H993 C979 0.958 . S
H994 C979 0.961 . S
H995 C979 0.960 . S
C996 C997 1.391 . S
C996 C998 1.394 . S
C996 H1012 0.931 . S
C997 C996 1.391 . S
C997 C1001 1.376 . S
C998 C996 1.394 . S
C998 C999 1.369 . S
C998 C1002 1.531 . S
C999 C998 1.369 . S
C999 C1000 1.410 . S
C999 C1007 1.503 . S
C1000 C999 1.410 . S
C1000 C1001 1.392 . S
C1000 C1003 1.511 . S
C1001 C997 1.376 . S
C1001 C1000 1.392 . S
C1001 H1013 0.929 . S
C1002 C998 1.531 . S
C1002 H1014 0.960 . S
C1002 H1015 0.962 . S
C1002 H1016 0.960 . S
C1003 C1000 1.511 . S
C1003 H1017 0.961 . S
C1003 H1018 0.961 . S
C1003 H1019 0.961 . S
C1004 C1005 1.370 . S
C1004 C1006 1.363 . S
C1004 H1020 0.931 . S
C1005 C1004 1.370 . S
C1005 C1009 1.408 . S
C1006 C1004 1.363 . S
C1006 C1007 1.370 . S
C1006 C1010 1.524 . S
C1007 C999 1.503 . S
C1007 C1006 1.370 . S
C1007 C1008 1.403 . S
C1008 C1007 1.403 . S
C1008 C1009 1.404 . S
C1008 C1011 1.539 . S
C1009 C1005 1.408 . S
C1009 C1008 1.404 . S
C1009 H1021 0.930 . S
C1010 C1006 1.524 . S
C1010 H1022 0.956 . S
C1010 H1023 0.961 . S
C1010 H1024 0.961 . S
C1011 C1008 1.539 . S
C1011 H1025 0.958 . S
C1011 H1026 0.961 . S
C1011 H1027 0.960 . S
H1012 C996 0.931 . S
H1013 C1001 0.929 . S
H1014 C1002 0.960 . S
H1015 C1002 0.962 . S
H1016 C1002 0.960 . S
H1017 C1003 0.961 . S
H1018 C1003 0.961 . S
H1019 C1003 0.961 . S
H1020 C1004 0.931 . S
H1021 C1009 0.930 . S
H1022 C1010 0.956 . S
H1023 C1010 0.961 . S
H1024 C1010 0.961 . S
H1025 C1011 0.958 . S
H1026 C1011 0.961 . S
H1027 C1011 0.960 . S
C1028 C1029 1.391 . S
C1028 C1030 1.394 . S
C1028 H1044 0.931 1_455 S
C1029 C1028 1.391 . S
C1029 C1033 1.376 . S
C1030 C1028 1.394 . S
C1030 C1031 1.369 . S
C1030 C1034 1.531 . S
C1031 C1030 1.369 . S
C1031 C1032 1.410 . S
C1031 C1039 1.503 . S
C1032 C1031 1.410 . S
C1032 C1033 1.392 . S
C1032 C1035 1.511 . S
C1033 C1029 1.376 . S
C1033 C1032 1.392 . S
C1033 H1045 0.929 . S
C1034 C1030 1.531 . S
C1034 H1046 0.960 . S
C1034 H1047 0.962 . S
C1034 H1048 0.960 . S
C1035 C1032 1.511 . S
C1035 H1049 0.961 . S
C1035 H1050 0.961 . S
C1035 H1051 0.961 . S
C1036 C1037 1.370 . S
C1036 C1038 1.363 . S
C1036 H1052 0.931 . S
C1037 C1036 1.370 . S
C1037 C1041 1.408 . S
C1038 C1036 1.363 . S
C1038 C1039 1.370 . S
C1038 C1042 1.524 . S
C1039 C1031 1.503 . S
C1039 C1038 1.370 . S
C1039 C1040 1.403 . S
C1040 C1039 1.403 . S
C1040 C1041 1.404 . S
C1040 C1043 1.539 . S
C1041 C1037 1.408 . S
C1041 C1040 1.404 . S
C1041 H1053 0.930 . S
C1042 C1038 1.524 . S
C1042 H1054 0.956 . S
C1042 H1055 0.961 . S
C1042 H1056 0.961 . S
C1043 C1040 1.539 . S
C1043 H1057 0.958 . S
C1043 H1058 0.961 . S
C1043 H1059 0.960 . S
H1044 C1028 0.931 1_655 S
H1045 C1033 0.929 . S
H1046 C1034 0.960 . S
H1047 C1034 0.962 . S
H1048 C1034 0.960 . S
H1049 C1035 0.961 . S
H1050 C1035 0.961 . S
H1051 C1035 0.961 . S
H1052 C1036 0.931 . S
H1053 C1041 0.930 . S
H1054 C1042 0.956 . S
H1055 C1042 0.961 . S
H1056 C1042 0.961 . S
H1057 C1043 0.958 . S
H1058 C1043 0.961 . S
H1059 C1043 0.960 . S
C1060 C1061 1.391 . S
C1060 C1062 1.394 . S
C1060 H1076 0.931 1_545 S
C1061 C1060 1.391 . S
C1061 C1065 1.376 . S
C1062 C1060 1.394 . S
C1062 C1063 1.369 . S
C1062 C1066 1.531 . S
C1063 C1062 1.369 . S
C1063 C1064 1.410 . S
C1063 C1071 1.503 . S
C1064 C1063 1.410 . S
C1064 C1065 1.392 . S
C1064 C1067 1.511 . S
C1065 C1061 1.376 . S
C1065 C1064 1.392 . S
C1065 H1077 0.929 . S
C1066 C1062 1.531 . S
C1066 H1078 0.960 . S
C1066 H1079 0.962 . S
C1066 H1080 0.960 . S
C1067 C1064 1.511 . S
C1067 H1081 0.961 . S
C1067 H1082 0.961 . S
C1067 H1083 0.961 . S
C1068 C1069 1.370 . S
C1068 C1070 1.363 . S
C1068 H1084 0.931 . S
C1069 C1068 1.370 . S
C1069 C1073 1.408 . S
C1070 C1068 1.363 . S
C1070 C1071 1.370 . S
C1070 C1074 1.524 . S
C1071 C1063 1.503 . S
C1071 C1070 1.370 . S
C1071 C1072 1.403 . S
C1072 C1071 1.403 . S
C1072 C1073 1.404 . S
C1072 C1075 1.539 . S
C1073 C1069 1.408 . S
C1073 C1072 1.404 . S
C1073 H1085 0.930 . S
C1074 C1070 1.524 . S
C1074 H1086 0.956 . S
C1074 H1087 0.961 . S
C1074 H1088 0.961 . S
C1075 C1072 1.539 . S
C1075 H1089 0.958 . S
C1075 H1090 0.961 . S
C1075 H1091 0.960 . S
H1076 C1060 0.931 1_565 S
H1077 C1065 0.929 . S
H1078 C1066 0.960 . S
H1079 C1066 0.962 . S
H1080 C1066 0.960 . S
H1081 C1067 0.961 . S
H1082 C1067 0.961 . S
H1083 C1067 0.961 . S
H1084 C1068 0.931 . S
H1085 C1073 0.930 . S
H1086 C1074 0.956 . S
H1087 C1074 0.961 . S
H1088 C1074 0.961 . S
H1089 C1075 0.958 . S
H1090 C1075 0.961 . S
H1091 C1075 0.960 . S
C1092 C1093 1.391 . S
C1092 C1094 1.394 . S
C1092 H1108 0.931 . S
C1093 C1092 1.391 . S
C1093 C1097 1.376 . S
C1094 C1092 1.394 . S
C1094 C1095 1.369 . S
C1094 C1098 1.531 . S
C1095 C1094 1.369 . S
C1095 C1096 1.410 . S
C1095 C1103 1.503 . S
C1096 C1095 1.410 . S
C1096 C1097 1.392 . S
C1096 C1099 1.511 . S
C1097 C1093 1.376 . S
C1097 C1096 1.392 . S
C1097 H1109 0.929 . S
C1098 C1094 1.531 . S
C1098 H1110 0.960 . S
C1098 H1111 0.962 . S
C1098 H1112 0.960 . S
C1099 C1096 1.511 . S
C1099 H1113 0.961 . S
C1099 H1114 0.961 . S
C1099 H1115 0.961 . S
C1100 C1101 1.370 . S
C1100 C1102 1.363 . S
C1100 H1116 0.931 . S
C1101 C1100 1.370 . S
C1101 C1105 1.408 . S
C1102 C1100 1.363 . S
C1102 C1103 1.370 . S
C1102 C1106 1.524 . S
C1103 C1095 1.503 . S
C1103 C1102 1.370 . S
C1103 C1104 1.403 . S
C1104 C1103 1.403 . S
C1104 C1105 1.404 . S
C1104 C1107 1.539 . S
C1105 C1101 1.408 . S
C1105 C1104 1.404 . S
C1105 H1117 0.930 . S
C1106 C1102 1.524 . S
C1106 H1118 0.956 . S
C1106 H1119 0.961 . S
C1106 H1120 0.961 . S
C1107 C1104 1.539 . S
C1107 H1121 0.958 . S
C1107 H1122 0.961 . S
C1107 H1123 0.960 . S
H1108 C1092 0.931 . S
H1109 C1097 0.929 . S
H1110 C1098 0.960 . S
H1111 C1098 0.962 . S
H1112 C1098 0.960 . S
H1113 C1099 0.961 . S
H1114 C1099 0.961 . S
H1115 C1099 0.961 . S
H1116 C1100 0.931 . S
H1117 C1105 0.930 . S
H1118 C1106 0.956 . S
H1119 C1106 0.961 . S
H1120 C1106 0.961 . S
H1121 C1107 0.958 . S
H1122 C1107 0.961 . S
H1123 C1107 0.960 . S
C1124 C1125 1.391 . S
C1124 C1126 1.394 . S
C1124 H1140 0.931 . S
C1125 C1124 1.391 . S
C1125 C1129 1.376 . S
C1126 C1124 1.394 . S
C1126 C1127 1.369 . S
C1126 C1130 1.531 . S
C1127 C1126 1.369 . S
C1127 C1128 1.410 . S
C1127 C1135 1.503 . S
C1128 C1127 1.410 . S
C1128 C1129 1.392 . S
C1128 C1131 1.511 . S
C1129 C1125 1.376 . S
C1129 C1128 1.392 . S
C1129 H1141 0.929 . S
C1130 C1126 1.531 . S
C1130 H1142 0.960 . S
C1130 H1143 0.962 . S
C1130 H1144 0.960 . S
C1131 C1128 1.511 . S
C1131 H1145 0.961 . S
C1131 H1146 0.961 . S
C1131 H1147 0.961 . S
C1132 C1133 1.370 . S
C1132 C1134 1.363 . S
C1132 H1148 0.931 . S
C1133 C1132 1.370 . S
C1133 C1137 1.408 . S
C1134 C1132 1.363 . S
C1134 C1135 1.370 . S
C1134 C1138 1.524 . S
C1135 C1127 1.503 . S
C1135 C1134 1.370 . S
C1135 C1136 1.403 . S
C1136 C1135 1.403 . S
C1136 C1137 1.404 . S
C1136 C1139 1.539 . S
C1137 C1133 1.408 . S
C1137 C1136 1.404 . S
C1137 H1149 0.930 1_556 S
C1138 C1134 1.524 . S
C1138 H1150 0.956 . S
C1138 H1151 0.961 . S
C1138 H1152 0.961 . S
C1139 C1136 1.539 . S
C1139 H1153 0.958 . S
C1139 H1154 0.961 . S
C1139 H1155 0.960 . S
H1140 C1124 0.931 . S
H1141 C1129 0.929 . S
H1142 C1130 0.960 . S
H1143 C1130 0.962 . S
H1144 C1130 0.960 . S
H1145 C1131 0.961 . S
H1146 C1131 0.961 . S
H1147 C1131 0.961 . S
H1148 C1132 0.931 . S
H1149 C1137 0.930 1_554 S
H1150 C1138 0.956 . S
H1151 C1138 0.961 . S
H1152 C1138 0.961 . S
H1153 C1139 0.958 . S
H1154 C1139 0.961 . S
H1155 C1139 0.960 . S
C1156 C1157 1.391 . S
C1156 C1158 1.394 . S
C1156 H1172 0.931 . S
C1157 C1156 1.391 . S
C1157 C1161 1.376 . S
C1158 C1156 1.394 . S
C1158 C1159 1.369 . S
C1158 C1162 1.531 . S
C1159 C1158 1.369 . S
C1159 C1160 1.410 . S
C1159 C1167 1.503 . S
C1160 C1159 1.410 . S
C1160 C1161 1.392 . S
C1160 C1163 1.511 . S
C1161 C1157 1.376 . S
C1161 C1160 1.392 . S
C1161 H1173 0.929 . S
C1162 C1158 1.531 . S
C1162 H1174 0.960 . S
C1162 H1175 0.962 . S
C1162 H1176 0.960 . S
C1163 C1160 1.511 . S
C1163 H1177 0.961 . S
C1163 H1178 0.961 . S
C1163 H1179 0.961 . S
C1164 C1165 1.370 . S
C1164 C1166 1.363 . S
C1164 H1180 0.931 . S
C1165 C1164 1.370 . S
C1165 C1169 1.408 . S
C1166 C1164 1.363 . S
C1166 C1167 1.370 . S
C1166 C1170 1.524 . S
C1167 C1159 1.503 . S
C1167 C1166 1.370 . S
C1167 C1168 1.403 . S
C1168 C1167 1.403 . S
C1168 C1169 1.404 . S
C1168 C1171 1.539 . S
C1169 C1165 1.408 . S
C1169 C1168 1.404 . S
C1169 H1181 0.930 . S
C1170 C1166 1.524 . S
C1170 H1182 0.956 . S
C1170 H1183 0.961 . S
C1170 H1184 0.961 . S
C1171 C1168 1.539 . S
C1171 H1185 0.958 . S
C1171 H1186 0.961 . S
C1171 H1187 0.960 . S
H1172 C1156 0.931 . S
H1173 C1161 0.929 . S
H1174 C1162 0.960 . S
H1175 C1162 0.962 . S
H1176 C1162 0.960 . S
H1177 C1163 0.961 . S
H1178 C1163 0.961 . S
H1179 C1163 0.961 . S
H1180 C1164 0.931 . S
H1181 C1169 0.930 . S
H1182 C1170 0.956 . S
H1183 C1170 0.961 . S
H1184 C1170 0.961 . S
H1185 C1171 0.958 . S
H1186 C1171 0.961 . S
H1187 C1171 0.960 . S
C1188 C1189 1.391 . S
C1188 C1190 1.394 . S
C1188 H1204 0.931 . S
C1189 C1188 1.391 . S
C1189 C1193 1.376 . S
C1190 C1188 1.394 . S
C1190 C1191 1.369 . S
C1190 C1194 1.531 . S
C1191 C1190 1.369 . S
C1191 C1192 1.410 . S
C1191 C1199 1.503 . S
C1192 C1191 1.410 . S
C1192 C1193 1.392 . S
C1192 C1195 1.511 . S
C1193 C1189 1.376 . S
C1193 C1192 1.392 . S
C1193 H1205 0.929 . S
C1194 C1190 1.531 . S
C1194 H1206 0.960 . S
C1194 H1207 0.962 . S
C1194 H1208 0.960 . S
C1195 C1192 1.511 . S
C1195 H1209 0.961 . S
C1195 H1210 0.961 . S
C1195 H1211 0.961 . S
C1196 C1197 1.370 . S
C1196 C1198 1.363 . S
C1196 H1212 0.931 . S
C1197 C1196 1.370 . S
C1197 C1201 1.408 . S
C1198 C1196 1.363 . S
C1198 C1199 1.370 . S
C1198 C1202 1.524 . S
C1199 C1191 1.503 . S
C1199 C1198 1.370 . S
C1199 C1200 1.403 . S
C1200 C1199 1.403 . S
C1200 C1201 1.404 . S
C1200 C1203 1.539 . S
C1201 C1197 1.408 . S
C1201 C1200 1.404 . S
C1201 H1213 0.930 . S
C1202 C1198 1.524 . S
C1202 H1214 0.956 . S
C1202 H1215 0.961 . S
C1202 H1216 0.961 . S
C1203 C1200 1.539 . S
C1203 H1217 0.958 . S
C1203 H1218 0.961 . S
C1203 H1219 0.960 . S
H1204 C1188 0.931 . S
H1205 C1193 0.929 . S
H1206 C1194 0.960 . S
H1207 C1194 0.962 . S
H1208 C1194 0.960 . S
H1209 C1195 0.961 . S
H1210 C1195 0.961 . S
H1211 C1195 0.961 . S
H1212 C1196 0.931 . S
H1213 C1201 0.930 . S
H1214 C1202 0.956 . S
H1215 C1202 0.961 . S
H1216 C1202 0.961 . S
H1217 C1203 0.958 . S
H1218 C1203 0.961 . S
H1219 C1203 0.960 . S
C1220 C1221 1.391 . S
C1220 C1222 1.394 . S
C1220 H1236 0.931 . S
C1221 C1220 1.391 . S
C1221 C1225 1.376 . S
C1222 C1220 1.394 . S
C1222 C1223 1.369 . S
C1222 C1226 1.531 . S
C1223 C1222 1.369 . S
C1223 C1224 1.410 . S
C1223 C1231 1.503 . S
C1224 C1223 1.410 . S
C1224 C1225 1.392 . S
C1224 C1227 1.511 . S
C1225 C1221 1.376 . S
C1225 C1224 1.392 . S
C1225 H1237 0.929 . S
C1226 C1222 1.531 . S
C1226 H1238 0.960 . S
C1226 H1239 0.962 . S
C1226 H1240 0.960 . S
C1227 C1224 1.511 . S
C1227 H1241 0.961 . S
C1227 H1242 0.961 . S
C1227 H1243 0.961 . S
C1228 C1229 1.370 . S
C1228 C1230 1.363 . S
C1228 H1244 0.931 1_455 S
C1229 C1228 1.370 . S
C1229 C1233 1.408 . S
C1230 C1228 1.363 . S
C1230 C1231 1.370 . S
C1230 C1234 1.524 . S
C1231 C1223 1.503 . S
C1231 C1230 1.370 . S
C1231 C1232 1.403 . S
C1232 C1231 1.403 . S
C1232 C1233 1.404 . S
C1232 C1235 1.539 . S
C1233 C1229 1.408 . S
C1233 C1232 1.404 . S
C1233 H1245 0.930 . S
C1234 C1230 1.524 . S
C1234 H1246 0.956 . S
C1234 H1247 0.961 . S
C1234 H1248 0.961 . S
C1235 C1232 1.539 . S
C1235 H1249 0.958 . S
C1235 H1250 0.961 . S
C1235 H1251 0.960 . S
H1236 C1220 0.931 . S
H1237 C1225 0.929 . S
H1238 C1226 0.960 . S
H1239 C1226 0.962 . S
H1240 C1226 0.960 . S
H1241 C1227 0.961 . S
H1242 C1227 0.961 . S
H1243 C1227 0.961 . S
H1244 C1228 0.931 1_655 S
H1245 C1233 0.930 . S
H1246 C1234 0.956 . S
H1247 C1234 0.961 . S
H1248 C1234 0.961 . S
H1249 C1235 0.958 . S
H1250 C1235 0.961 . S
H1251 C1235 0.960 . S
C1252 C1253 1.391 . S
C1252 C1254 1.394 . S
C1252 H1268 0.931 . S
C1253 C1252 1.391 . S
C1253 C1257 1.376 . S
C1254 C1252 1.394 . S
C1254 C1255 1.369 . S
C1254 C1258 1.531 . S
C1255 C1254 1.369 . S
C1255 C1256 1.410 . S
C1255 C1263 1.503 . S
C1256 C1255 1.410 . S
C1256 C1257 1.392 . S
C1256 C1259 1.511 . S
C1257 C1253 1.376 . S
C1257 C1256 1.392 . S
C1257 H1269 0.929 . S
C1258 C1254 1.531 . S
C1258 H1270 0.960 . S
C1258 H1271 0.962 . S
C1258 H1272 0.960 . S
C1259 C1256 1.511 . S
C1259 H1273 0.961 . S
C1259 H1274 0.961 . S
C1259 H1275 0.961 . S
C1260 C1261 1.370 . S
C1260 C1262 1.363 . S
C1260 H1276 0.931 . S
C1261 C1260 1.370 . S
C1261 C1265 1.408 . S
C1262 C1260 1.363 . S
C1262 C1263 1.370 . S
C1262 C1266 1.524 . S
C1263 C1255 1.503 . S
C1263 C1262 1.370 . S
C1263 C1264 1.403 . S
C1264 C1263 1.403 . S
C1264 C1265 1.404 . S
C1264 C1267 1.539 . S
C1265 C1261 1.408 . S
C1265 C1264 1.404 . S
C1265 H1277 0.930 . S
C1266 C1262 1.524 . S
C1266 H1278 0.956 . S
C1266 H1279 0.961 . S
C1266 H1280 0.961 . S
C1267 C1264 1.539 . S
C1267 H1281 0.958 . S
C1267 H1282 0.961 . S
C1267 H1283 0.960 . S
H1268 C1252 0.931 . S
H1269 C1257 0.929 . S
H1270 C1258 0.960 . S
H1271 C1258 0.962 . S
H1272 C1258 0.960 . S
H1273 C1259 0.961 . S
H1274 C1259 0.961 . S
H1275 C1259 0.961 . S
H1276 C1260 0.931 . S
H1277 C1265 0.930 . S
H1278 C1266 0.956 . S
H1279 C1266 0.961 . S
H1280 C1266 0.961 . S
H1281 C1267 0.958 . S
H1282 C1267 0.961 . S
H1283 C1267 0.960 . S
C1284 C1285 1.391 . S
C1284 C1286 1.394 . S
C1284 H1300 0.931 . S
C1285 C1284 1.391 . S
C1285 C1289 1.376 . S
C1286 C1284 1.394 . S
C1286 C1287 1.369 . S
C1286 C1290 1.531 . S
C1287 C1286 1.369 . S
C1287 C1288 1.410 . S
C1287 C1295 1.503 . S
C1288 C1287 1.410 . S
C1288 C1289 1.392 . S
C1288 C1291 1.511 . S
C1289 C1285 1.376 . S
C1289 C1288 1.392 . S
C1289 H1301 0.929 . S
C1290 C1286 1.531 . S
C1290 H1302 0.960 . S
C1290 H1303 0.962 . S
C1290 H1304 0.960 . S
C1291 C1288 1.511 . S
C1291 H1305 0.961 . S
C1291 H1306 0.961 . S
C1291 H1307 0.961 . S
C1292 C1293 1.370 . S
C1292 C1294 1.363 . S
C1292 H1308 0.931 . S
C1293 C1292 1.370 . S
C1293 C1297 1.408 . S
C1294 C1292 1.363 . S
C1294 C1295 1.370 . S
C1294 C1298 1.524 . S
C1295 C1287 1.503 . S
C1295 C1294 1.370 . S
C1295 C1296 1.403 . S
C1296 C1295 1.403 . S
C1296 C1297 1.404 . S
C1296 C1299 1.539 . S
C1297 C1293 1.408 . S
C1297 C1296 1.404 . S
C1297 H1309 0.930 . S
C1298 C1294 1.524 . S
C1298 H1310 0.956 . S
C1298 H1311 0.961 . S
C1298 H1312 0.961 . S
C1299 C1296 1.539 . S
C1299 H1313 0.958 . S
C1299 H1314 0.961 . S
C1299 H1315 0.960 . S
H1300 C1284 0.931 . S
H1301 C1289 0.929 . S
H1302 C1290 0.960 . S
H1303 C1290 0.962 . S
H1304 C1290 0.960 . S
H1305 C1291 0.961 . S
H1306 C1291 0.961 . S
H1307 C1291 0.961 . S
H1308 C1292 0.931 . S
H1309 C1297 0.930 . S
H1310 C1298 0.956 . S
H1311 C1298 0.961 . S
H1312 C1298 0.961 . S
H1313 C1299 0.958 . S
H1314 C1299 0.961 . S
H1315 C1299 0.960 . S
C1316 C1317 1.391 . S
C1316 C1318 1.394 . S
C1316 H1332 0.931 . S
C1317 C1316 1.391 . S
C1317 C1321 1.376 . S
C1318 C1316 1.394 . S
C1318 C1319 1.369 . S
C1318 C1322 1.531 . S
C1319 C1318 1.369 . S
C1319 C1320 1.410 . S
C1319 C1327 1.503 . S
C1320 C1319 1.410 . S
C1320 C1321 1.392 . S
C1320 C1323 1.511 . S
C1321 C1317 1.376 . S
C1321 C1320 1.392 . S
C1321 H1333 0.929 . S
C1322 C1318 1.531 . S
C1322 H1334 0.960 . S
C1322 H1335 0.962 . S
C1322 H1336 0.960 . S
C1323 C1320 1.511 . S
C1323 H1337 0.961 . S
C1323 H1338 0.961 . S
C1323 H1339 0.961 . S
C1324 C1325 1.370 . S
C1324 C1326 1.363 . S
C1324 H1340 0.931 . S
C1325 C1324 1.370 . S
C1325 C1329 1.408 . S
C1326 C1324 1.363 . S
C1326 C1327 1.370 . S
C1326 C1330 1.524 . S
C1327 C1319 1.503 . S
C1327 C1326 1.370 . S
C1327 C1328 1.403 . S
C1328 C1327 1.403 . S
C1328 C1329 1.404 . S
C1328 C1331 1.539 . S
C1329 C1325 1.408 . S
C1329 C1328 1.404 . S
C1329 H1341 0.930 . S
C1330 C1326 1.524 . S
C1330 H1342 0.956 . S
C1330 H1343 0.961 . S
C1330 H1344 0.961 . S
C1331 C1328 1.539 . S
C1331 H1345 0.958 . S
C1331 H1346 0.961 . S
C1331 H1347 0.960 . S
H1332 C1316 0.931 . S
H1333 C1321 0.929 . S
H1334 C1322 0.960 . S
H1335 C1322 0.962 . S
H1336 C1322 0.960 . S
H1337 C1323 0.961 . S
H1338 C1323 0.961 . S
H1339 C1323 0.961 . S
H1340 C1324 0.931 . S
H1341 C1329 0.930 . S
H1342 C1330 0.956 . S
H1343 C1330 0.961 . S
H1344 C1330 0.961 . S
H1345 C1331 0.958 . S
H1346 C1331 0.961 . S
H1347 C1331 0.960 . S
C1348 C1349 1.391 . S
C1348 C1350 1.394 . S
C1348 H1364 0.931 . S
C1349 C1348 1.391 . S
C1349 C1353 1.376 . S
C1350 C1348 1.394 . S
C1350 C1351 1.369 . S
C1350 C1354 1.531 . S
C1351 C1350 1.369 . S
C1351 C1352 1.410 . S
C1351 C1359 1.503 . S
C1352 C1351 1.410 . S
C1352 C1353 1.392 . S
C1352 C1355 1.511 . S
C1353 C1349 1.376 . S
C1353 C1352 1.392 . S
C1353 H1365 0.929 . S
C1354 C1350 1.531 . S
C1354 H1366 0.960 . S
C1354 H1367 0.962 . S
C1354 H1368 0.960 . S
C1355 C1352 1.511 . S
C1355 H1369 0.961 . S
C1355 H1370 0.961 . S
C1355 H1371 0.961 . S
C1356 C1357 1.370 . S
C1356 C1358 1.363 . S
C1356 H1372 0.931 . S
C1357 C1356 1.370 . S
C1357 C1361 1.408 . S
C1358 C1356 1.363 . S
C1358 C1359 1.370 . S
C1358 C1362 1.524 . S
C1359 C1351 1.503 . S
C1359 C1358 1.370 . S
C1359 C1360 1.403 . S
C1360 C1359 1.403 . S
C1360 C1361 1.404 . S
C1360 C1363 1.539 . S
C1361 C1357 1.408 . S
C1361 C1360 1.404 . S
C1361 H1373 0.930 . S
C1362 C1358 1.524 . S
C1362 H1374 0.956 . S
C1362 H1375 0.961 . S
C1362 H1376 0.961 . S
C1363 C1360 1.539 . S
C1363 H1377 0.958 . S
C1363 H1378 0.961 . S
C1363 H1379 0.960 . S
H1364 C1348 0.931 . S
H1365 C1353 0.929 . S
H1366 C1354 0.960 . S
H1367 C1354 0.962 . S
H1368 C1354 0.960 . S
H1369 C1355 0.961 . S
H1370 C1355 0.961 . S
H1371 C1355 0.961 . S
H1372 C1356 0.931 . S
H1373 C1361 0.930 . S
H1374 C1362 0.956 . S
H1375 C1362 0.961 . S
H1376 C1362 0.961 . S
H1377 C1363 0.958 . S
H1378 C1363 0.961 . S
H1379 C1363 0.960 . S
C1380 C1381 1.391 . S
C1380 C1382 1.394 . S
C1380 H1396 0.931 . S
C1381 C1380 1.391 . S
C1381 C1385 1.376 . S
C1382 C1380 1.394 . S
C1382 C1383 1.369 . S
C1382 C1386 1.531 . S
C1383 C1382 1.369 . S
C1383 C1384 1.410 . S
C1383 C1391 1.503 . S
C1384 C1383 1.410 . S
C1384 C1385 1.392 . S
C1384 C1387 1.511 . S
C1385 C1381 1.376 . S
C1385 C1384 1.392 . S
C1385 H1397 0.929 . S
C1386 C1382 1.531 . S
C1386 H1398 0.960 . S
C1386 H1399 0.962 . S
C1386 H1400 0.960 . S
C1387 C1384 1.511 . S
C1387 H1401 0.961 . S
C1387 H1402 0.961 . S
C1387 H1403 0.961 . S
C1388 C1389 1.370 . S
C1388 C1390 1.363 . S
C1388 H1404 0.931 . S
C1389 C1388 1.370 . S
C1389 C1393 1.408 . S
C1390 C1388 1.363 . S
C1390 C1391 1.370 . S
C1390 C1394 1.524 . S
C1391 C1383 1.503 . S
C1391 C1390 1.370 . S
C1391 C1392 1.403 . S
C1392 C1391 1.403 . S
C1392 C1393 1.404 . S
C1392 C1395 1.539 . S
C1393 C1389 1.408 . S
C1393 C1392 1.404 . S
C1393 H1405 0.930 . S
C1394 C1390 1.524 . S
C1394 H1406 0.956 . S
C1394 H1407 0.961 . S
C1394 H1408 0.961 . S
C1395 C1392 1.539 . S
C1395 H1409 0.958 . S
C1395 H1410 0.961 . S
C1395 H1411 0.960 . S
H1396 C1380 0.931 . S
H1397 C1385 0.929 . S
H1398 C1386 0.960 . S
H1399 C1386 0.962 . S
H1400 C1386 0.960 . S
H1401 C1387 0.961 . S
H1402 C1387 0.961 . S
H1403 C1387 0.961 . S
H1404 C1388 0.931 . S
H1405 C1393 0.930 . S
H1406 C1394 0.956 . S
H1407 C1394 0.961 . S
H1408 C1394 0.961 . S
H1409 C1395 0.958 . S
H1410 C1395 0.961 . S
H1411 C1395 0.960 . S
C1412 C1413 1.391 . S
C1412 C1414 1.394 . S
C1412 H1428 0.931 . S
C1413 C1412 1.391 . S
C1413 C1417 1.376 . S
C1414 C1412 1.394 . S
C1414 C1415 1.369 . S
C1414 C1418 1.531 . S
C1415 C1414 1.369 . S
C1415 C1416 1.410 . S
C1415 C1423 1.503 . S
C1416 C1415 1.410 . S
C1416 C1417 1.392 . S
C1416 C1419 1.511 . S
C1417 C1413 1.376 . S
C1417 C1416 1.392 . S
C1417 H1429 0.929 . S
C1418 C1414 1.531 . S
C1418 H1430 0.960 . S
C1418 H1431 0.962 . S
C1418 H1432 0.960 . S
C1419 C1416 1.511 . S
C1419 H1433 0.961 . S
C1419 H1434 0.961 . S
C1419 H1435 0.961 . S
C1420 C1421 1.370 . S
C1420 C1422 1.363 . S
C1420 H1436 0.931 . S
C1421 C1420 1.370 . S
C1421 C1425 1.408 . S
C1422 C1420 1.363 . S
C1422 C1423 1.370 . S
C1422 C1426 1.524 . S
C1423 C1415 1.503 . S
C1423 C1422 1.370 . S
C1423 C1424 1.403 . S
C1424 C1423 1.403 . S
C1424 C1425 1.404 . S
C1424 C1427 1.539 . S
C1425 C1421 1.408 . S
C1425 C1424 1.404 . S
C1425 H1437 0.930 . S
C1426 C1422 1.524 . S
C1426 H1438 0.956 . S
C1426 H1439 0.961 . S
C1426 H1440 0.961 . S
C1427 C1424 1.539 . S
C1427 H1441 0.958 . S
C1427 H1442 0.961 . S
C1427 H1443 0.960 . S
H1428 C1412 0.931 . S
H1429 C1417 0.929 . S
H1430 C1418 0.960 . S
H1431 C1418 0.962 . S
H1432 C1418 0.960 . S
H1433 C1419 0.961 . S
H1434 C1419 0.961 . S
H1435 C1419 0.961 . S
H1436 C1420 0.931 . S
H1437 C1425 0.930 . S
H1438 C1426 0.956 . S
H1439 C1426 0.961 . S
H1440 C1426 0.961 . S
H1441 C1427 0.958 . S
H1442 C1427 0.961 . S
H1443 C1427 0.960 . S
C1444 C1445 1.391 . S
C1444 C1446 1.394 . S
C1444 H1460 0.931 . S
C1445 C1444 1.391 . S
C1445 C1449 1.376 . S
C1446 C1444 1.394 . S
C1446 C1447 1.369 . S
C1446 C1450 1.531 . S
C1447 C1446 1.369 . S
C1447 C1448 1.410 . S
C1447 C1455 1.503 . S
C1448 C1447 1.410 . S
C1448 C1449 1.392 . S
C1448 C1451 1.511 . S
C1449 C1445 1.376 . S
C1449 C1448 1.392 . S
C1449 H1461 0.929 . S
C1450 C1446 1.531 . S
C1450 H1462 0.960 . S
C1450 H1463 0.962 . S
C1450 H1464 0.960 . S
C1451 C1448 1.511 . S
C1451 H1465 0.961 . S
C1451 H1466 0.961 . S
C1451 H1467 0.961 . S
C1452 C1453 1.370 . S
C1452 C1454 1.363 . S
C1452 H1468 0.931 . S
C1453 C1452 1.370 . S
C1453 C1457 1.408 . S
C1454 C1452 1.363 . S
C1454 C1455 1.370 . S
C1454 C1458 1.524 . S
C1455 C1447 1.503 . S
C1455 C1454 1.370 . S
C1455 C1456 1.403 . S
C1456 C1455 1.403 . S
C1456 C1457 1.404 . S
C1456 C1459 1.539 . S
C1457 C1453 1.408 . S
C1457 C1456 1.404 . S
C1457 H1469 0.930 . S
C1458 C1454 1.524 . S
C1458 H1470 0.956 . S
C1458 H1471 0.961 . S
C1458 H1472 0.961 . S
C1459 C1456 1.539 . S
C1459 H1473 0.958 . S
C1459 H1474 0.961 . S
C1459 H1475 0.960 . S
H1460 C1444 0.931 . S
H1461 C1449 0.929 . S
H1462 C1450 0.960 . S
H1463 C1450 0.962 . S
H1464 C1450 0.960 . S
H1465 C1451 0.961 . S
H1466 C1451 0.961 . S
H1467 C1451 0.961 . S
H1468 C1452 0.931 . S
H1469 C1457 0.930 . S
H1470 C1458 0.956 . S
H1471 C1458 0.961 . S
H1472 C1458 0.961 . S
H1473 C1459 0.958 . S
H1474 C1459 0.961 . S
H1475 C1459 0.960 . S
C709 C477 1.488 . S
C717 C5 1.506 . S
C741 C64 1.512 . S
C749 C536 1.506 . S
C773 C123 1.495 . S
C781 C595 1.502 . S
C805 C182 1.511 . S
C813 C654 1.507 . S
C837 C359 1.494 . S
C845 C241 1.502 . S
C869 C300 1.487 . S
C877 C418 1.506 . S
C901 C3 1.610 . S
C909 C328 1.607 1_554 S
C933 C62 1.591 . S
C941 C33 1.599 1_655 S
C965 C121 1.608 . S
C973 C92 1.610 1_565 S
C997 C151 1.612 . S
C1005 C180 1.604 . S
C1029 C210 1.602 1_455 S
C1037 C239 1.593 . S
C1061 C269 1.596 1_545 S
C1069 C298 1.590 . S
C1093 C446 1.590 . S
C1101 C357 1.589 . S
C1125 C416 1.600 . S
C1133 C505 1.609 1_656 S
C1157 C564 1.612 1_565 S
C1165 C475 1.604 . S
C1189 C534 1.574 . S
C1197 C623 1.598 . S
C1221 C593 1.609 . S
C1229 C682 1.610 1_455 S
C1253 C652 1.601 . S
C1261 C387 1.610 1_545 S
C1285 C642 1.463 . S
C1293 C52 1.469 . S
C1317 C701 1.466 . S
C1325 C111 1.470 . S
C1349 C406 1.466 . S
C1357 C170 1.469 . S
C1381 C229 1.471 . S
C1389 C465 1.471 . S
C1413 C288 1.460 . S
C1421 C524 1.467 . S
C1445 C583 1.470 . S
C1453 C347 1.471 . S
