# Generated by pormake.
# Topology smc, (6)-cn, num edge types: 1
# Building blocks:
#     Node 0, Type 0, BuildingBlock: MIFKUJ_clean_sbu_0, # of connection points: 6
#     Node 1, Type 0, BuildingBlock: MIFKUJ_clean_sbu_0, # of connection points: 6
#     Node 2, Type 0, BuildingBlock: MIFKUJ_clean_sbu_0, # of connection points: 6
#     Node 3, Type 0, BuildingBlock: MIFKUJ_clean_sbu_0, # of connection points: 6
#     Node 4, Type 0, BuildingBlock: MIFKUJ_clean_sbu_0, # of connection points: 6
#     Node 5, Type 0, BuildingBlock: MIFKUJ_clean_sbu_0, # of connection points: 6
#     Node 6, Type 0, BuildingBlock: MIFKUJ_clean_sbu_0, # of connection points: 6
#     Node 7, Type 0, BuildingBlock: MIFKUJ_clean_sbu_0, # of connection points: 6
#     Node 8, Type 0, BuildingBlock: MIFKUJ_clean_sbu_0, # of connection points: 6
#     Edge 9, Type (0, 0), BuildingBlock: CIFDUS_clean_linker_0, # of connection points: 2
#     Edge 10, Type (0, 0), BuildingBlock: CIFDUS_clean_linker_0, # of connection points: 2
#     Edge 11, Type (0, 0), BuildingBlock: CIFDUS_clean_linker_0, # of connection points: 2
#     Edge 12, Type (0, 0), BuildingBlock: CIFDUS_clean_linker_0, # of connection points: 2
#     Edge 13, Type (0, 0), BuildingBlock: CIFDUS_clean_linker_0, # of connection points: 2
#     Edge 14, Type (0, 0), BuildingBlock: CIFDUS_clean_linker_0, # of connection points: 2
#     Edge 15, Type (0, 0), BuildingBlock: CIFDUS_clean_linker_0, # of connection points: 2
#     Edge 16, Type (0, 0), BuildingBlock: CIFDUS_clean_linker_0, # of connection points: 2
#     Edge 17, Type (0, 0), BuildingBlock: CIFDUS_clean_linker_0, # of connection points: 2
#     Edge 18, Type (0, 0), BuildingBlock: CIFDUS_clean_linker_0, # of connection points: 2
#     Edge 19, Type (0, 0), BuildingBlock: CIFDUS_clean_linker_0, # of connection points: 2
#     Edge 20, Type (0, 0), BuildingBlock: CIFDUS_clean_linker_0, # of connection points: 2
#     Edge 21, Type (0, 0), BuildingBlock: CIFDUS_clean_linker_0, # of connection points: 2
#     Edge 22, Type (0, 0), BuildingBlock: CIFDUS_clean_linker_0, # of connection points: 2
#     Edge 23, Type (0, 0), BuildingBlock: CIFDUS_clean_linker_0, # of connection points: 2
#     Edge 24, Type (0, 0), BuildingBlock: CIFDUS_clean_linker_0, # of connection points: 2
#     Edge 25, Type (0, 0), BuildingBlock: CIFDUS_clean_linker_0, # of connection points: 2
#     Edge 26, Type (0, 0), BuildingBlock: CIFDUS_clean_linker_0, # of connection points: 2
#     Edge 27, Type (0, 0), BuildingBlock: CIFDUS_clean_linker_0, # of connection points: 2
#     Edge 28, Type (0, 0), BuildingBlock: CIFDUS_clean_linker_0, # of connection points: 2
#     Edge 29, Type (0, 0), BuildingBlock: CIFDUS_clean_linker_0, # of connection points: 2
#     Edge 30, Type (0, 0), BuildingBlock: CIFDUS_clean_linker_0, # of connection points: 2
#     Edge 31, Type (0, 0), BuildingBlock: CIFDUS_clean_linker_0, # of connection points: 2
#     Edge 32, Type (0, 0), BuildingBlock: CIFDUS_clean_linker_0, # of connection points: 2
#     Edge 33, Type (0, 0), BuildingBlock: CIFDUS_clean_linker_0, # of connection points: 2
#     Edge 34, Type (0, 0), BuildingBlock: CIFDUS_clean_linker_0, # of connection points: 2
#     Edge 35, Type (0, 0), BuildingBlock: CIFDUS_clean_linker_0, # of connection points: 2
# Relax obj value: 0.187
# Max RMSD: 0.304
# Mean RMSD: 0.297
data_MOF--net-smc--node1-MIFKUJ_clean_sbu_0--edge1-CIFDUS_clean_linker_0
_symmetry_space_group_name_H-M    P1
_symmetry_Int_Tables_number       1
_symmetry_cell_setting            triclinic
loop_
_symmetry_equiv_pos_as_xyz
'x, y, z'
_cell_length_a     31.354663
_cell_length_b     30.153735
_cell_length_c     34.113798
_cell_angle_alpha  91.227099
_cell_angle_beta   91.308209
_cell_angle_gamma 120.32317
loop_
_atom_site_label
_atom_site_type_symbol
_atom_site_fract_x
_atom_site_fract_y
_atom_site_fract_z
_atom_type_partial_charge
Zn0 Zn 0.07827 0.46561 0.97575 0.0
Zn1 Zn 0.96154 0.42029 0.00406 0.0
C2 C 0.07853 0.55413 0.95712 0.0
O3 O 0.08343 0.5371 0.9227 0.0
C4 C 0.87312 0.32106 0.02705 0.0
O5 O 0.89004 0.33029 0.06367 0.0
O6 O 0.14734 0.49736 0.95943 0.0
O7 O 0.07878 0.43186 0.02309 0.0
O8 O 0.00564 0.41222 0.045 0.0
C9 C 0.16814 0.47071 0.95674 0.0
O10 O 0.14171 0.42074 0.96062 0.0
O11 O 0.06785 0.52477 0.98588 0.0
C12 C 0.94005 0.50219 0.00045 0.0
O13 O 0.95998 0.50811 0.96611 0.0
O14 O 0.94108 0.47013 0.02343 0.0
O15 O 0.97183 0.42582 0.94517 0.0
O16 O 0.03668 0.41796 0.93385 0.0
O17 O 0.8976 0.35282 0.00114 0.0
C18 C 0.04743 0.41511 0.04941 0.0
C19 C 0.9964 0.41419 0.92235 0.0
Zn20 Zn 0.62863 0.54332 0.02041 0.0
Zn21 Zn 0.55301 0.62007 0.98799 0.0
C22 C 0.58955 0.4444 0.04844 0.0
O23 O 0.62365 0.47303 0.07547 0.0
C24 C 0.54327 0.70203 0.96366 0.0
O25 O 0.52945 0.67131 0.93222 0.0
O26 O 0.69708 0.55328 0.02147 0.0
O27 O 0.62013 0.57647 0.97076 0.0
O28 O 0.58834 0.61827 0.94081 0.0
C29 C 0.71258 0.54659 0.98911 0.0
O30 O 0.68383 0.53423 0.9574 0.0
O31 O 0.58164 0.46649 0.02018 0.0
C32 C 0.45251 0.57486 0.00059 0.0
O33 O 0.47061 0.61447 0.02557 0.0
O34 O 0.48176 0.56683 0.98073 0.0
O35 O 0.58321 0.60116 0.03048 0.0
O36 O 0.62248 0.57805 0.07001 0.0
O37 O 0.55859 0.68967 -0.00594 0.0
C38 C 0.61462 0.59707 0.94022 0.0
C39 C 0.59993 0.60252 0.06466 0.0
Zn40 Zn 0.38538 0.9291 0.98365 0.0
Zn41 Zn 0.48853 0.05827 0.01653 0.0
C42 C 0.43953 0.89247 0.94208 0.0
O43 O 0.40915 0.8898 0.91372 0.0
C44 C 0.46448 0.14181 0.00852 0.0
O45 O 0.4248 0.10886 0.98766 0.0
O46 O 0.32171 0.86573 0.9655 0.0
O47 O 0.38016 0.94034 0.0396 0.0
O48 O 0.44433 0.01568 0.0601 0.0
C49 C 0.2832 0.84472 0.98569 0.0
O50 O 0.28376 0.86489 0.02032 0.0
O51 O 0.43925 0.91257 0.97514 0.0
C52 C 0.5898 0.10498 0.00296 0.0
O53 O 0.57263 0.11431 0.9706 0.0
O54 O 0.55921 0.07677 0.028 0.0
O55 O 0.47056 0.03659 0.95872 0.0
O56 O 0.38985 0.98561 0.95255 0.0
O57 O 0.49336 0.12762 0.02275 0.0
C58 C 0.40488 0.97378 0.06654 0.0
C59 C 0.42914 0.02484 0.94249 0.0
Zn60 Zn 0.73858 0.77991 0.32815 0.0
Zn61 Zn 0.61848 0.7533 0.3382 0.0
C62 C 0.7695 0.88304 0.31669 0.0
O63 O 0.77461 0.86752 0.28174 0.0
C64 C 0.52892 0.66249 0.35813 0.0
O65 O 0.53647 0.6887 0.39137 0.0
O66 O 0.80507 0.78842 0.32153 0.0
O67 O 0.71136 0.73155 0.3707 0.0
O68 O 0.65534 0.7514 0.38736 0.0
C69 C 0.83496 0.80398 0.35111 0.0
O70 O 0.82141 0.81506 0.38434 0.0
O71 O 0.75076 0.85021 0.34313 0.0
C72 C 0.57305 0.81746 0.33223 0.0
O73 O 0.58084 0.81817 0.29451 0.0
O74 O 0.58828 0.79503 0.35474 0.0
O75 O 0.64036 0.7667 0.28154 0.0
O76 O 0.705 0.75601 0.27666 0.0
O77 O 0.56027 0.68198 0.33161 0.0
C78 C 0.68512 0.736 0.39626 0.0
C79 C 0.67012 0.75992 0.26106 0.0
Zn80 Zn 0.20126 0.95312 0.31179 0.0
Zn81 Zn 0.26624 0.87639 0.34153 0.0
C82 C 0.10288 0.87347 0.29102 0.0
O83 O 0.11914 0.88315 0.25526 0.0
C84 C 0.35445 0.87186 0.36795 0.0
O85 O 0.33271 0.85364 0.40107 0.0
O86 O 0.19403 0.01292 0.29587 0.0
O87 O 0.23888 0.97459 0.36361 0.0
O88 O 0.2711 0.92724 0.38241 0.0
C89 C 0.18916 0.04068 0.32186 0.0
O90 O 0.18855 0.02951 0.35891 0.0
O91 O 0.13294 0.89635 0.31994 0.0
C92 C 0.19762 0.76512 0.33279 0.0
O93 O 0.19997 0.77291 0.29496 0.0
O94 O 0.21988 0.80349 0.3568 0.0
O95 O 0.26302 0.89153 0.28542 0.0
O96 O 0.23013 0.93779 0.26595 0.0
O97 O 0.33281 0.8834 0.34172 0.0
C98 C 0.26196 0.96322 0.38874 0.0
C99 C 0.25158 0.91265 0.25877 0.0
Zn100 Zn 0.03861 0.28222 0.32291 0.0
Zn101 Zn 0.14077 0.38962 0.33952 0.0
C102 C 0.10261 0.24466 0.30242 0.0
O103 O 0.07942 0.23728 0.26821 0.0
C104 C 0.13424 0.47903 0.3636 0.0
O105 O 0.15647 0.47721 0.39614 0.0
O106 O 0.97706 0.21429 0.31066 0.0
O107 O 0.03027 0.31327 0.37034 0.0
O108 O 0.10905 0.34696 0.38754 0.0
C109 C 0.9526 0.18409 0.33745 0.0
O110 O 0.96655 0.19869 0.37435 0.0
O111 O 0.09351 0.26694 0.33025 0.0
C112 C 0.24865 0.43835 0.3304 0.0
O113 O 0.23805 0.41863 0.29436 0.0
O114 O 0.21378 0.42938 0.35302 0.0
O115 O 0.12877 0.36277 0.2824 0.0
O116 O 0.04769 0.32691 0.28058 0.0
O117 O 0.12194 0.44412 0.33701 0.0
C118 C 0.06453 0.3306 0.39653 0.0
C119 C 0.08872 0.35402 0.26512 0.0
Zn120 Zn 0.41226 0.12284 0.66566 0.0
Zn121 Zn 0.28489 0.09216 0.67592 0.0
C122 C 0.45305 0.21341 0.62181 0.0
O123 O 0.46576 0.18594 0.59982 0.0
C124 C 0.1918 0.01667 0.70412 0.0
O125 O 0.20579 0.0527 0.7319 0.0
O126 O 0.47694 0.12458 0.66513 0.0
O127 O 0.39599 0.11266 0.72067 0.0
O128 O 0.31965 0.0964 0.72817 0.0
C129 C 0.509 0.15551 0.69058 0.0
O130 O 0.49858 0.18508 0.71229 0.0
O131 O 0.42536 0.19237 0.65036 0.0
C132 C 0.22669 0.13183 0.65185 0.0
O133 O 0.21439 0.0936 0.62635 0.0
O134 O 0.26175 0.14344 0.67685 0.0
O135 O 0.31314 0.09325 0.62231 0.0
O136 O 0.36491 0.06466 0.63064 0.0
O137 O 0.2209 0.02366 0.67649 0.0
C138 C 0.36066 0.10377 0.74236 0.0
C139 C 0.32998 0.06468 0.61136 0.0
Zn140 Zn 0.91203 0.1834 0.65976 0.0
Zn141 Zn 0.84254 0.24338 0.6473 0.0
C142 C 0.83723 0.0975 0.69602 0.0
O143 O 0.86025 0.12773 0.72698 0.0
C144 C 0.8439 0.33841 0.63995 0.0
O145 O 0.89091 0.35724 0.64949 0.0
O146 O 0.96257 0.16181 0.66368 0.0
O147 O 0.92642 0.21656 0.60849 0.0
O148 O 0.88143 0.25352 0.60023 0.0
C149 C 0.00867 0.19344 0.66811 0.0
O150 O 0.02452 0.2428 0.67269 0.0
O151 O 0.84805 0.1164 0.66227 0.0
C152 C 0.76445 0.16389 0.68515 0.0
O153 O 0.79329 0.18937 0.71585 0.0
O154 O 0.78293 0.17341 0.65152 0.0
O155 O 0.88403 0.27171 0.69667 0.0
O156 O 0.92786 0.23309 0.70457 0.0
O157 O 0.81513 0.28993 0.63795 0.0
C158 C 0.91327 0.2428 0.58845 0.0
C159 C 0.91558 0.26535 0.71579 0.0
Zn160 Zn 0.71977 0.59805 0.66027 0.0
Zn161 Zn 0.81573 0.73561 0.67381 0.0
C162 C 0.7671 0.55161 0.62334 0.0
O163 O 0.72899 0.53757 0.59897 0.0
C164 C 0.79725 0.81798 0.69176 0.0
O165 O 0.80357 0.80714 0.72774 0.0
O166 O 0.65741 0.52969 0.65063 0.0
O167 O 0.72168 0.61983 0.71557 0.0
O168 O 0.7808 0.70186 0.72388 0.0
C169 C 0.61781 0.51265 0.66919 0.0
O170 O 0.61505 0.5413 0.69745 0.0
O171 O 0.77475 0.58336 0.6515 0.0
C172 C 0.92002 0.77903 0.65737 0.0
O173 O 0.90216 0.75503 0.62315 0.0
O174 O 0.89019 0.77413 0.68391 0.0
O175 O 0.79794 0.69249 0.62318 0.0
O176 O 0.71714 0.64506 0.62182 0.0
O177 O 0.79986 0.79162 0.66329 0.0
C178 C 0.74676 0.66004 0.73728 0.0
C179 C 0.75621 0.67926 0.60687 0.0
H180 H 0.39533 0.61589 0.99019 0.0
H181 H 0.39268 0.47164 0.98609 0.0
H182 H 0.30369 0.42584 0.96879 0.0
H183 H 0.22638 0.42753 0.95816 0.0
H184 H 0.23213 0.57384 0.95879 0.0
H185 H 0.3207 0.6184 0.97312 0.0
C186 C 0.37506 0.57437 0.98567 0.0
C187 C 0.39958 0.54673 0.99019 0.0
C188 C 0.32485 0.54893 0.97468 0.0
C189 C 0.37386 0.49329 0.98315 0.0
C190 C 0.32326 0.4673 0.97318 0.0
C191 C 0.24716 0.46918 0.96087 0.0
C192 C 0.22255 0.4972 0.95805 0.0
C193 C 0.2983 0.49478 0.9692 0.0
C194 C 0.25004 0.55122 0.96117 0.0
C195 C 0.30069 0.57683 0.9696 0.0
H196 H 0.49305 0.87652 -0.00154 0.0
H197 H 0.44469 0.84253 0.87638 0.0
H198 H 0.47641 0.78368 0.87171 0.0
H199 H 0.51056 0.73591 0.9036 0.0
H200 H 0.55681 0.76729 0.02611 0.0
H201 H 0.53365 0.8335 0.02912 0.0
C202 C 0.49016 0.8569 0.97065 0.0
C203 C 0.46608 0.86367 0.93792 0.0
C204 C 0.50773 0.8223 0.9683 0.0
C205 C 0.46279 0.83794 0.90211 0.0
C206 C 0.48077 0.80408 0.89942 0.0
C207 C 0.51613 0.75755 0.93092 0.0
C208 C 0.535 0.74628 0.96468 0.0
C209 C 0.50213 0.79499 0.93256 0.0
C210 C 0.54221 0.77502 -0.00029 0.0
C211 C 0.52884 0.81281 0.00147 0.0
H212 H 0.20584 0.77773 0.02811 0.0
H213 H 0.26369 0.80084 0.91196 0.0
H214 H 0.1981 0.71482 0.89074 0.0
H215 H 0.13188 0.62992 0.90749 0.0
H216 H 0.07772 0.60398 0.02488 0.0
H217 H 0.13337 0.69476 0.04296 0.0
C218 C 0.20362 0.76425 -0.00202 0.0
C219 C 0.23996 0.79535 0.97179 0.0
C220 C 0.1665 0.71424 0.98622 0.0
C221 C 0.23654 0.77738 0.93284 0.0
C222 C 0.199 0.72823 0.92065 0.0
C223 C 0.13129 0.64425 0.93679 0.0
C224 C 0.10125 0.61007 0.96496 0.0
C225 C 0.16478 0.69582 0.94742 0.0
C226 C 0.10083 0.62944 0.00272 0.0
C227 C 0.13292 0.68126 0.01317 0.0
H228 H 0.52844 0.21209 0.06287 0.0
H229 H 0.43022 0.1937 0.96526 0.0
H230 H 0.45811 0.28559 0.97011 0.0
H231 H 0.51474 0.37235 -0.0004 0.0
H232 H 0.61119 0.38867 0.09818 0.0
H233 H 0.57938 0.29651 0.0955 0.0
C234 C 0.51289 0.22809 0.04277 0.0
C235 C 0.47772 0.19623 0.01351 0.0
C236 C 0.52892 0.28072 0.0458 0.0
C237 C 0.45743 0.21743 0.98805 0.0
C238 C 0.47349 0.27001 0.99071 0.0
C239 C 0.52844 0.35565 0.02069 0.0
C240 C 0.56572 0.38762 0.04876 0.0
C241 C 0.50986 0.30223 0.01909 0.0
C242 C 0.5827 0.36521 0.07612 0.0
C243 C 0.56463 0.3124 0.07459 0.0
H244 H 0.66301 0.1613 0.95389 0.0
H245 H 0.6375 0.11569 0.07406 0.0
H246 H 0.72449 0.17611 0.09186 0.0
H247 H 0.80574 0.24834 0.0744 0.0
H248 H 0.82934 0.29356 0.95388 0.0
H249 H 0.74534 0.22688 0.9353 0.0
C250 C 0.67653 0.16401 0.98391 0.0
C251 C 0.64363 0.13445 0.01266 0.0
C252 C 0.72625 0.19929 -0.00597 0.0
C253 C 0.66198 0.13808 0.05132 0.0
C254 C 0.71169 0.17288 0.06159 0.0
C255 C 0.79266 0.24322 0.04402 0.0
C256 C 0.82373 0.27655 0.01579 0.0
C257 C 0.74387 0.20474 0.03338 0.0
C258 C 0.80623 0.26899 0.97643 0.0
C259 C 0.75808 0.23077 0.96567 0.0
H260 H 0.90356 0.54105 0.94746 0.0
H261 H 0.89812 0.50453 0.06953 0.0
H262 H 0.8296 0.52041 0.07791 0.0
H263 H 0.7653 0.53503 0.04846 0.0
H264 H 0.76742 0.56386 0.92494 0.0
H265 H 0.84317 0.56057 0.91921 0.0
C266 C 0.88815 0.53757 0.97614 0.0
C267 C 0.9058 0.52143 0.00776 0.0
C268 C 0.84762 0.54466 0.98031 0.0
C269 C 0.88511 0.51681 0.04466 0.0
C270 C 0.84575 0.52559 0.04942 0.0
C271 C 0.78286 0.54137 0.02047 0.0
C272 C 0.7608 0.54945 0.98712 0.0
C273 C 0.82573 0.538 0.01713 0.0
C274 C 0.78355 0.55715 0.95094 0.0
C275 C 0.82689 0.55538 0.94765 0.0
H276 H 0.87442 0.7876 0.28621 0.0
H277 H 0.90765 0.83701 0.40844 0.0
H278 H 0.99243 0.85598 0.40156 0.0
H279 H 0.05853 0.86618 0.35968 0.0
H280 H 0.02689 0.8212 0.23662 0.0
H281 H 0.93948 0.79152 0.24531 0.0
C282 C 0.90008 0.80213 0.31144 0.0
C283 C 0.88497 0.81156 0.34765 0.0
C284 C 0.94891 0.81356 0.30718 0.0
C285 C 0.9185 0.82993 0.38013 0.0
C286 C 0.96696 0.8407 0.37626 0.0
C287 C 0.03247 0.84909 0.33481 0.0
C288 C 0.04929 0.84646 0.29744 0.0
C289 C 0.98278 0.83372 0.33974 0.0
C290 C 0.01494 0.82399 0.26565 0.0
C291 C 0.96502 0.80729 0.27055 0.0
H292 H 0.12492 0.18991 0.25092 0.0
H293 H 0.1432 0.24004 0.37281 0.0
H294 H 0.17552 0.18392 0.38898 0.0
H295 H 0.18955 0.11369 0.36986 0.0
H296 H 0.17054 0.0626 0.24822 0.0
H297 H 0.1479 0.12634 0.23062 0.0
C298 C 0.13668 0.18918 0.28092 0.0
C299 C 0.13081 0.21847 0.31068 0.0
C300 C 0.15455 0.1562 0.29017 0.0
C301 C 0.14686 0.21756 0.34934 0.0
C302 C 0.16515 0.18527 0.35869 0.0
C303 C 0.18082 0.11673 0.33944 0.0
C304 C 0.18081 0.08281 0.31053 0.0
C305 C 0.16759 0.15321 0.32956 0.0
C306 C 0.17032 0.0879 0.27114 0.0
C307 C 0.15732 0.1243 0.26104 0.0
H308 H 0.8935 0.10945 0.38686 0.0
H309 H 0.92194 0.13931 0.26412 0.0
H310 H 0.86333 0.04938 0.24673 0.0
H311 H 0.81036 0.96108 0.26659 0.0
H312 H 0.78271 0.93004 0.38918 0.0
H313 H 0.83395 0.02177 0.40627 0.0
C314 C 0.88647 0.09643 0.35627 0.0
C315 C 0.9126 0.13102 0.32692 0.0
C316 C 0.85295 0.04441 0.34641 0.0
C317 C 0.90266 0.11353 0.28739 0.0
C318 C 0.86917 0.06203 0.27736 0.0
C319 C 0.81497 0.97437 0.29703 0.0
C320 C 0.79327 0.93869 0.32658 0.0
C321 C 0.84506 0.02695 0.30668 0.0
C322 C 0.79918 0.95666 0.36583 0.0
C323 C 0.82871 0.00911 0.37566 0.0
H324 H 0.14537 0.67418 0.29091 0.0
H325 H 0.20589 0.73755 0.40714 0.0
H326 H 0.18652 0.6529 0.42827 0.0
H327 H 0.16163 0.56319 0.41167 0.0
H328 H 0.10159 0.49986 0.29533 0.0
H329 H 0.11084 0.58177 0.27671 0.0
C330 C 0.15363 0.66935 0.32103 0.0
C331 C 0.17776 0.71241 0.34714 0.0
C332 C 0.14281 0.62053 0.333 0.0
C333 C 0.18761 0.70524 0.38624 0.0
C334 C 0.17673 0.6568 0.39838 0.0
C335 C 0.14984 0.56702 0.38243 0.0
C336 C 0.13176 0.52562 0.3548 0.0
C337 C 0.15576 0.6145 0.37168 0.0
C338 C 0.11611 0.53117 0.31716 0.0
C339 C 0.12154 0.57813 0.30638 0.0
H340 H 0.3321 0.47178 0.28879 0.0
H341 H 0.28142 0.48866 0.40179 0.0
H342 H 0.36473 0.55654 0.42152 0.0
H343 H 0.45033 0.61592 0.40495 0.0
H344 H 0.50109 0.60066 0.2916 0.0
H345 H 0.41965 0.52707 0.27409 0.0
C346 C 0.33936 0.4899 0.31788 0.0
C347 C 0.30036 0.47541 0.34355 0.0
C348 C 0.38739 0.52943 0.32901 0.0
C349 C 0.31058 0.49917 0.38126 0.0
C350 C 0.35827 0.53813 0.39262 0.0
C351 C 0.4438 0.59616 0.37659 0.0
C352 C 0.48162 0.61417 0.34953 0.0
C353 C 0.39671 0.5543 0.36645 0.0
C354 C 0.47254 0.58788 0.31295 0.0
C355 C 0.42591 0.54581 0.30283 0.0
H356 H 0.40814 0.84272 0.41337 0.0
H357 H 0.40574 0.90537 0.30118 0.0
H358 H 0.47646 0.89873 0.28162 0.0
H359 H 0.53384 0.86739 0.29362 0.0
H360 H 0.5363 0.80436 0.40556 0.0
H361 H 0.47139 0.81956 0.42791 0.0
C362 C 0.42347 0.85551 0.38485 0.0
C363 C 0.40113 0.87372 0.35865 0.0
C364 C 0.46411 0.8513 0.37353 0.0
C365 C 0.42179 0.8906 0.32188 0.0
C366 C 0.4623 0.88681 0.31055 0.0
C367 C 0.52066 0.85763 0.32309 0.0
C368 C 0.53949 0.83419 0.34759 0.0
C369 C 0.48294 0.866 0.33573 0.0
C370 C 0.52232 0.82224 0.38589 0.0
C371 C 0.48499 0.83071 0.39873 0.0
H372 H 0.72019 0.19407 0.73729 0.0
H373 H 0.68984 0.09372 0.63553 0.0
H374 H 0.60571 0.07947 0.62944 0.0
H375 H 0.54467 0.10375 0.64884 0.0
H376 H 0.57964 0.21036 0.74748 0.0
H377 H 0.65861 0.21471 0.75848 0.0
C378 C 0.69482 0.16793 0.71437 0.0
C379 C 0.71104 0.14475 0.68697 0.0
C380 C 0.64783 0.16224 0.70986 0.0
C381 C 0.67796 0.11174 0.65706 0.0
C382 C 0.63014 0.10408 0.65335 0.0
C383 C 0.56949 0.1277 0.67286 0.0
C384 C 0.55641 0.15698 0.69711 0.0
C385 C 0.61532 0.13058 0.67879 0.0
C386 C 0.5889 0.18774 0.72815 0.0
C387 C 0.63402 0.19009 0.73463 0.0
H388 H 0.88835 0.44105 0.6573 0.0
H389 H 0.75651 0.3136 0.60257 0.0
H390 H 0.72405 0.37028 0.5886 0.0
H391 H 0.73089 0.45448 0.59508 0.0
H392 H 0.85915 0.58077 0.65443 0.0
H393 H 0.89578 0.5263 0.66284 0.0
C394 C 0.85264 0.42577 0.64212 0.0
C395 C 0.82483 0.37316 0.6311 0.0
C396 C 0.83373 0.4584 0.63485 0.0
C397 C 0.7785 0.35386 0.61163 0.0
C398 C 0.75998 0.38627 0.60349 0.0
C399 C 0.76727 0.47041 0.60924 0.0
C400 C 0.7925 0.52163 0.62389 0.0
C401 C 0.78704 0.43842 0.61531 0.0
C402 C 0.83916 0.54144 0.64282 0.0
C403 C 0.85994 0.51027 0.64778 0.0
H404 H 0.61007 0.44729 0.60979 0.0
H405 H 0.53413 0.45769 0.71047 0.0
H406 H 0.47216 0.36654 0.70137 0.0
H407 H 0.44484 0.28239 0.66913 0.0
H408 H 0.52231 0.27199 0.5695 0.0
H409 H 0.57784 0.36491 0.57355 0.0
C410 C 0.5797 0.42981 0.62956 0.0
C411 C 0.57716 0.45915 0.66111 0.0
C412 C 0.5445 0.37735 0.62439 0.0
C413 C 0.5372 0.43596 0.68611 0.0
C414 C 0.50177 0.3838 0.68096 0.0
C415 C 0.47329 0.30049 0.64784 0.0
C416 C 0.47976 0.27008 0.61939 0.0
C417 C 0.50578 0.35387 0.65081 0.0
C418 C 0.51664 0.29432 0.59188 0.0
C419 C 0.54863 0.34749 0.59428 0.0
H420 H 0.78628 0.87855 0.74586 0.0
H421 H 0.79857 0.86072 0.62145 0.0
H422 H 0.80337 0.94295 0.6109 0.0
H423 H 0.81532 0.02466 0.63808 0.0
H424 H 0.80651 0.04377 0.76286 0.0
H425 H 0.78783 0.95577 0.77198 0.0
C426 C 0.78937 0.89228 0.71635 0.0
C427 C 0.79295 0.8639 0.6846 0.0
C428 C 0.79277 0.93991 0.71054 0.0
C429 C 0.79622 0.88197 0.6465 0.0
C430 C 0.79903 0.92907 0.64042 0.0
C431 C 0.80805 0.00922 0.66716 0.0
C432 C 0.81303 0.0411 0.69982 0.0
C433 C 0.79889 0.95909 0.67238 0.0
C434 C 0.80335 0.02027 0.73725 0.0
C435 C 0.793 0.97003 0.74254 0.0
H436 H 0.96707 0.84805 0.71852 0.0
H437 H 0.99391 0.79409 0.60879 0.0
H438 H 0.08101 0.86093 0.61461 0.0
H439 H 0.1485 0.93826 0.64866 0.0
H440 H 0.12084 0.99309 0.75766 0.0
H441 H 0.03541 0.92243 0.75425 0.0
C442 C 0.99204 0.85047 0.69608 0.0
C443 C 0.97378 0.81616 0.66317 0.0
C444 C 0.04202 0.8895 0.69929 0.0
C445 C 0.00679 0.82007 0.63436 0.0
C446 C 0.05667 0.85839 0.63761 0.0
C447 C 0.12393 0.9345 0.67186 0.0
C448 C 0.14116 0.97117 0.70327 0.0
C449 C 0.07453 0.8939 0.6696 0.0
C450 C 0.1087 0.9656 0.73306 0.0
C451 C 0.05971 0.92516 0.73115 0.0
H452 H 0.12909 0.08229 0.63562 0.0
H453 H 0.25034 0.22806 0.67931 0.0
H454 H 0.19336 0.26065 0.68832 0.0
H455 H 0.10849 0.24673 0.68383 0.0
H456 H 0.98779 0.09795 0.64377 0.0
H457 H 0.04522 0.06731 0.6337 0.0
C458 C 0.14318 0.12142 0.64673 0.0
C459 C 0.19379 0.15311 0.65621 0.0
C460 C 0.11022 0.13909 0.65284 0.0
C461 C 0.21143 0.20319 0.67158 0.0
C462 C 0.17889 0.2217 0.67678 0.0
C463 C 0.09482 0.2076 0.67299 0.0
C464 C 0.04393 0.17481 0.66439 0.0
C465 C 0.12811 0.18986 0.6676 0.0
C466 C 0.02672 0.12406 0.65066 0.0
C467 C 0.05955 0.10647 0.64473 0.0
H468 H 0.12955 0.35355 0.19588 0.0
H469 H 0.04438 0.4089 0.25494 0.0
H470 H 0.02323 0.43256 0.19269 0.0
H471 H 0.02202 0.42945 0.1212 0.0
H472 H 0.108 0.37604 0.06096 0.0
H473 H 0.13528 0.35887 0.12371 0.0
C474 C 0.10765 0.37217 0.19493 0.0
C475 C 0.0883 0.37948 0.2294 0.0
C476 C 0.09456 0.38449 0.15887 0.0
C477 C 0.05945 0.40302 0.22833 0.0
C478 C 0.04697 0.41606 0.19286 0.0
C479 C 0.04639 0.41367 0.12191 0.0
C480 C 0.06203 0.40273 0.08685 0.0
C481 C 0.06281 0.40522 0.15787 0.0
C482 C 0.09491 0.38389 0.08788 0.0
C483 C 0.11076 0.37442 0.12365 0.0
H484 H 0.58229 0.70276 0.22067 0.0
H485 H 0.73965 0.79401 0.20661 0.0
H486 H 0.73001 0.75787 0.14019 0.0
H487 H 0.67948 0.6883 0.09219 0.0
H488 H 0.52278 0.59362 0.10602 0.0
H489 H 0.52902 0.64289 0.16643 0.0
C490 C 0.61407 0.71595 0.20243 0.0
C491 C 0.66166 0.75034 0.21841 0.0
C492 C 0.60843 0.69341 0.16473 0.0
C493 C 0.70276 0.76711 0.19482 0.0
C494 C 0.69733 0.74623 0.15701 0.0
C495 C 0.64665 0.67947 0.10807 0.0
C496 C 0.60098 0.63747 0.09555 0.0
C497 C 0.6508 0.7074 0.14262 0.0
C498 C 0.55832 0.62597 0.11567 0.0
C499 C 0.56198 0.65396 0.15013 0.0
H500 H 0.30959 0.93375 0.0828 0.0
H501 H 0.4546 0.99372 0.13745 0.0
H502 H 0.41839 0.97463 0.20235 0.0
H503 H 0.34545 0.9428 0.24305 0.0
H504 H 0.20203 0.89167 0.18828 0.0
H505 H 0.23737 0.90425 0.12324 0.0
C506 C 0.33315 0.94226 0.10896 0.0
C507 C 0.38444 0.96455 0.10571 0.0
C508 C 0.31227 0.9324 0.14578 0.0
C509 C 0.41497 0.97665 0.13959 0.0
C510 C 0.39428 0.96552 0.17649 0.0
C511 C 0.32202 0.93384 0.21672 0.0
C512 C 0.27132 0.91569 0.2199 0.0
C513 C 0.343 0.94351 0.17986 0.0
C514 C 0.24113 0.90529 0.18606 0.0
C515 C 0.26133 0.91269 0.14911 0.0
H516 H 0.34845 0.02383 0.91191 0.0
H517 H 0.50454 0.08705 0.89566 0.0
H518 H 0.49776 0.12346 0.83411 0.0
H519 H 0.44595 0.12871 0.78209 0.0
H520 H 0.28922 0.06313 0.7971 0.0
H521 H 0.29813 0.03731 0.86283 0.0
C522 C 0.38105 0.0458 0.89497 0.0
C523 C 0.42669 0.05173 0.90772 0.0
C524 C 0.37678 0.06621 0.85963 0.0
C525 C 0.4689 0.08146 0.88617 0.0
C526 C 0.46502 0.10221 0.85101 0.0
C527 C 0.4137 0.10926 0.79984 0.0
C528 C 0.36675 0.09683 0.78441 0.0
C529 C 0.41889 0.09351 0.837 0.0
C530 C 0.32565 0.0727 0.80814 0.0
C531 C 0.33069 0.05766 0.8456 0.0
H532 H 0.03764 0.38154 0.86921 0.0
H533 H 0.91124 0.40004 0.88593 0.0
H534 H 0.8763 0.35819 0.8216 0.0
H535 H 0.87947 0.31123 0.76286 0.0
H536 H 0.00421 0.28912 0.74923 0.0
H537 H 0.04217 0.33783 0.81051 0.0
C538 C 0.00257 0.37682 0.85881 0.0
C539 C 0.97687 0.39345 0.8824 0.0
C540 C 0.98233 0.35183 0.82256 0.0
C541 C 0.93163 0.38729 0.86833 0.0
C542 C 0.91161 0.36329 0.83165 0.0
C543 C 0.91511 0.31745 0.77326 0.0
C544 C 0.93891 0.29639 0.75192 0.0
C545 C 0.93626 0.34459 0.80888 0.0
C546 C 0.98496 0.30447 0.76555 0.0
C547 C 0.00675 0.33241 0.80043 0.0
H548 H 0.70188 0.57631 0.78166 0.0
H549 H 0.75958 0.74011 0.78503 0.0
H550 H 0.72514 0.73503 0.84941 0.0
H551 H 0.67275 0.6828 0.90211 0.0
H552 H 0.61614 0.51948 0.89938 0.0
H553 H 0.65629 0.5254 0.83727 0.0
C554 C 0.70739 0.61099 0.79671 0.0
C555 C 0.73276 0.65846 0.77846 0.0
C556 C 0.68749 0.60773 0.83361 0.0
C557 C 0.74025 0.70317 0.79846 0.0
C558 C 0.72029 0.70023 0.83515 0.0
C559 C 0.66973 0.6487 0.88795 0.0
C560 C 0.64188 0.60081 0.90492 0.0
C561 C 0.69293 0.65257 0.85253 0.0
C562 C 0.63804 0.55675 0.88678 0.0
C563 C 0.66069 0.56014 0.8513 0.0
H564 H 0.76441 0.73695 0.43022 0.0
H565 H 0.61966 0.71224 0.4546 0.0
H566 H 0.62983 0.69415 0.52264 0.0
H567 H 0.67897 0.68301 0.57438 0.0
H568 H 0.8256 0.71273 0.55088 0.0
H569 H 0.81597 0.73228 0.48314 0.0
C570 C 0.7351 0.72767 0.45041 0.0
C571 C 0.69114 0.72538 0.43736 0.0
C572 C 0.74167 0.71854 0.48953 0.0
C573 C 0.65374 0.71398 0.46396 0.0
C574 C 0.65954 0.70369 0.50281 0.0
C575 C 0.70886 0.69397 0.55441 0.0
C576 C 0.75266 0.69587 0.56729 0.0
C577 C 0.70322 0.70555 0.51578 0.0
C578 C 0.79151 0.71098 0.54152 0.0
C579 C 0.78592 0.72187 0.5028 0.0
H580 H 0.2881 0.9334 0.45496 0.0
H581 H 0.26425 0.0524 0.41032 0.0
H582 H 0.28025 0.09277 0.47593 0.0
H583 H 0.30143 0.09437 0.54607 0.0
H584 H 0.32795 0.97682 0.58968 0.0
H585 H 0.30974 0.93527 0.52434 0.0
C586 C 0.28674 0.96838 0.45944 0.0
C587 C 0.27484 0.98973 0.42779 0.0
C588 C 0.29596 0.99134 0.49712 0.0
C589 C 0.27291 0.0349 0.43424 0.0
C590 C 0.28206 0.05804 0.47175 0.0
C591 C 0.30279 0.05944 0.54122 0.0
C592 C 0.31594 0.03854 0.57242 0.0
C593 C 0.29338 0.03644 0.50343 0.0
C594 C 0.31814 0.99362 0.56587 0.0
C595 C 0.30782 0.96994 0.5286 0.0
H596 H 0.00021 0.25407 0.56536 0.0
H597 H 0.88269 0.28206 0.53054 0.0
H598 H 0.92384 0.31864 0.46998 0.0
H599 H 0.98932 0.33654 0.4252 0.0
H600 H 0.10667 0.30811 0.45839 0.0
H601 H 0.07008 0.27902 0.52232 0.0
C602 C 0.98353 0.26797 0.54441 0.0
C603 C 0.93804 0.26447 0.55191 0.0
C604 C 0.00753 0.2893 0.50984 0.0
C605 C 0.9174 0.28379 0.5251 0.0
C606 C 0.94094 0.30487 0.49061 0.0
C607 C 0.00719 0.32459 0.44671 0.0
C608 C 0.04997 0.32363 0.43733 0.0
C609 C 0.9855 0.30704 0.48251 0.0
C610 C 0.0736 0.3091 0.46532 0.0
C611 C 0.05243 0.29199 0.50153 0.0
loop_
_geom_bond_atom_site_label_1
_geom_bond_atom_site_label_2
_geom_bond_distance
_geom_bond_site_symmetry_2
_ccdc_geom_bond_type
Zn0 O6 1.969 . S
Zn0 O7 1.965 1_556 S
Zn0 O11 2.024 1_556 S
Zn0 O16 1.969 . S
Zn1 O8 1.969 . S
Zn1 O14 1.969 . S
Zn1 O15 1.965 1_554 S
Zn1 O17 2.024 1_554 S
C2 O3 1.229 . S
C2 O11 1.058 1_556 S
O3 C2 1.229 . S
C4 O5 1.229 . S
C4 O17 1.058 1_554 S
O5 C4 1.229 . S
O6 Zn0 1.969 . S
O6 C9 1.267 1_556 S
O7 Zn0 1.965 1_554 S
O7 C18 1.260 . S
O8 Zn1 1.969 . S
O8 C18 1.258 1_655 S
C9 O6 1.267 1_554 S
C9 O10 1.228 . S
O10 C9 1.228 . S
O11 Zn0 2.024 1_554 S
O11 C2 1.058 1_554 S
C12 O13 1.228 1_554 S
C12 O14 1.267 . S
O13 C12 1.228 1_556 S
O14 Zn1 1.969 . S
O14 C12 1.267 . S
O15 Zn1 1.965 1_556 S
O15 C19 1.260 . S
O16 Zn0 1.969 . S
O16 C19 1.258 1_455 S
O17 Zn1 2.024 1_556 S
O17 C4 1.058 1_556 S
C18 O7 1.260 . S
C18 O8 1.258 1_455 S
C19 O15 1.260 . S
C19 O16 1.258 1_655 S
Zn20 O26 1.969 . S
Zn20 O27 1.965 1_554 S
Zn20 O31 2.024 1_554 S
Zn20 O36 1.969 . S
Zn21 O28 1.969 . S
Zn21 O34 1.969 . S
Zn21 O35 1.965 1_556 S
Zn21 O37 2.024 1_556 S
C22 O23 1.229 . S
C22 O31 1.058 1_554 S
O23 C22 1.229 . S
C24 O25 1.229 . S
C24 O37 1.058 1_556 S
O25 C24 1.229 . S
O26 Zn20 1.969 . S
O26 C29 1.265 1_554 S
O27 Zn20 1.965 1_556 S
O27 C38 1.260 . S
O28 Zn21 1.969 . S
O28 C38 1.258 . S
C29 O26 1.265 1_556 S
C29 O30 1.231 . S
O30 C29 1.231 . S
O31 Zn20 2.024 1_556 S
O31 C22 1.058 1_556 S
C32 O33 1.228 . S
C32 O34 1.267 1_554 S
O33 C32 1.228 . S
O34 Zn21 1.969 . S
O34 C32 1.267 1_556 S
O35 Zn21 1.965 1_554 S
O35 C39 1.260 . S
O36 Zn20 1.969 . S
O36 C39 1.258 . S
O37 Zn21 2.024 1_554 S
O37 C24 1.058 1_554 S
C38 O27 1.260 . S
C38 O28 1.258 . S
C39 O35 1.260 . S
C39 O36 1.258 . S
Zn40 O46 1.969 . S
Zn40 O47 1.965 1_556 S
Zn40 O51 2.024 1_556 S
Zn40 O56 1.969 . S
Zn41 O48 1.969 . S
Zn41 O54 1.969 . S
Zn41 O55 1.965 1_554 S
Zn41 O57 2.020 1_554 S
C42 O43 1.229 . S
C42 O51 1.058 1_556 S
O43 C42 1.229 . S
C44 O45 1.229 . S
C44 O57 1.047 1_554 S
O45 C44 1.229 . S
O46 Zn40 1.969 . S
O46 C49 1.267 1_556 S
O47 Zn40 1.965 1_554 S
O47 C58 1.260 . S
O48 Zn41 1.969 . S
O48 C58 1.258 1_545 S
C49 O46 1.267 1_554 S
C49 O50 1.228 . S
O50 C49 1.228 . S
O51 Zn40 2.024 1_554 S
O51 C42 1.058 1_554 S
C52 O53 1.228 1_554 S
C52 O54 1.267 . S
O53 C52 1.228 1_556 S
O54 Zn41 1.969 . S
O54 C52 1.267 . S
O55 Zn41 1.965 1_556 S
O55 C59 1.260 . S
O56 Zn40 1.969 . S
O56 C59 1.258 1_565 S
O57 Zn41 2.020 1_556 S
O57 C44 1.047 1_556 S
C58 O47 1.260 . S
C58 O48 1.258 1_565 S
C59 O55 1.260 . S
C59 O56 1.258 1_545 S
Zn60 O66 1.969 . S
Zn60 O67 1.965 . S
Zn60 O71 2.024 . S
Zn60 O76 1.969 . S
Zn61 O68 1.969 . S
Zn61 O74 1.969 . S
Zn61 O75 1.965 . S
Zn61 O77 2.024 . S
C62 O63 1.229 . S
C62 O71 1.058 . S
O63 C62 1.229 . S
C64 O65 1.229 . S
C64 O77 1.058 . S
O65 C64 1.229 . S
O66 Zn60 1.969 . S
O66 C69 1.267 . S
O67 Zn60 1.965 . S
O67 C78 1.260 . S
O68 Zn61 1.969 . S
O68 C78 1.258 . S
C69 O66 1.267 . S
C69 O70 1.228 . S
O70 C69 1.228 . S
O71 Zn60 2.024 . S
O71 C62 1.058 . S
C72 O73 1.228 . S
C72 O74 1.267 . S
O73 C72 1.228 . S
O74 Zn61 1.969 . S
O74 C72 1.267 . S
O75 Zn61 1.965 . S
O75 C79 1.260 . S
O76 Zn60 1.969 . S
O76 C79 1.258 . S
O77 Zn61 2.024 . S
O77 C64 1.058 . S
C78 O67 1.260 . S
C78 O68 1.258 . S
C79 O75 1.260 . S
C79 O76 1.258 . S
Zn80 O86 1.969 1_565 S
Zn80 O87 1.965 . S
Zn80 O91 2.024 . S
Zn80 O96 1.969 . S
Zn81 O88 1.969 . S
Zn81 O94 1.969 . S
Zn81 O95 1.965 . S
Zn81 O97 2.024 . S
C82 O83 1.229 . S
C82 O91 1.058 . S
O83 C82 1.229 . S
C84 O85 1.229 . S
C84 O97 1.058 . S
O85 C84 1.229 . S
O86 Zn80 1.969 1_545 S
O86 C89 1.267 . S
O87 Zn80 1.965 . S
O87 C98 1.260 . S
O88 Zn81 1.969 . S
O88 C98 1.258 . S
C89 O86 1.267 . S
C89 O90 1.228 . S
O90 C89 1.228 . S
O91 Zn80 2.024 . S
O91 C82 1.058 . S
C92 O93 1.228 . S
C92 O94 1.267 . S
O93 C92 1.228 . S
O94 Zn81 1.969 . S
O94 C92 1.267 . S
O95 Zn81 1.965 . S
O95 C99 1.260 . S
O96 Zn80 1.969 . S
O96 C99 1.258 . S
O97 Zn81 2.024 . S
O97 C84 1.058 . S
C98 O87 1.260 . S
C98 O88 1.258 . S
C99 O95 1.260 . S
C99 O96 1.258 . S
Zn100 O106 1.969 . S
Zn100 O107 1.965 . S
Zn100 O111 2.024 . S
Zn100 O116 1.969 . S
Zn101 O108 1.969 . S
Zn101 O114 1.969 . S
Zn101 O115 1.965 . S
Zn101 O117 2.024 . S
C102 O103 1.229 . S
C102 O111 1.058 . S
O103 C102 1.229 . S
C104 O105 1.229 . S
C104 O117 1.058 . S
O105 C104 1.229 . S
O106 Zn100 1.969 . S
O106 C109 1.267 1_455 S
O107 Zn100 1.965 . S
O107 C118 1.260 . S
O108 Zn101 1.969 . S
O108 C118 1.258 . S
C109 O106 1.267 1_655 S
C109 O110 1.228 1_655 S
O110 C109 1.228 1_455 S
O111 Zn100 2.024 . S
O111 C102 1.058 . S
C112 O113 1.228 . S
C112 O114 1.267 . S
O113 C112 1.228 . S
O114 Zn101 1.969 . S
O114 C112 1.267 . S
O115 Zn101 1.965 . S
O115 C119 1.260 . S
O116 Zn100 1.969 . S
O116 C119 1.258 . S
O117 Zn101 2.024 . S
O117 C104 1.058 . S
C118 O107 1.260 . S
C118 O108 1.258 . S
C119 O115 1.260 . S
C119 O116 1.258 . S
Zn120 O126 1.969 . S
Zn120 O127 1.965 . S
Zn120 O131 2.024 . S
Zn120 O136 1.969 . S
Zn121 O128 1.969 . S
Zn121 O134 1.969 . S
Zn121 O135 1.965 . S
Zn121 O137 2.024 . S
C122 O123 1.229 . S
C122 O131 1.058 . S
O123 C122 1.229 . S
C124 O125 1.229 1_565 S
C124 O137 1.058 1_565 S
O125 C124 1.229 1_545 S
O126 Zn120 1.969 . S
O126 C129 1.267 . S
O127 Zn120 1.965 . S
O127 C138 1.260 . S
O128 Zn121 1.969 . S
O128 C138 1.258 . S
C129 O126 1.267 . S
C129 O130 1.228 . S
O130 C129 1.228 . S
O131 Zn120 2.024 . S
O131 C122 1.058 . S
C132 O133 1.228 . S
C132 O134 1.267 . S
O133 C132 1.228 . S
O134 Zn121 1.969 . S
O134 C132 1.267 . S
O135 Zn121 1.965 . S
O135 C139 1.260 . S
O136 Zn120 1.969 . S
O136 C139 1.258 . S
O137 Zn121 2.024 . S
O137 C124 1.058 1_545 S
C138 O127 1.260 . S
C138 O128 1.258 . S
C139 O135 1.260 . S
C139 O136 1.258 . S
Zn140 O146 1.969 1_655 S
Zn140 O147 1.965 . S
Zn140 O151 2.024 . S
Zn140 O156 1.969 . S
Zn141 O148 1.969 . S
Zn141 O154 1.969 . S
Zn141 O155 1.965 . S
Zn141 O157 2.024 . S
C142 O143 1.229 . S
C142 O151 1.058 . S
O143 C142 1.229 . S
C144 O145 1.229 . S
C144 O157 1.058 . S
O145 C144 1.229 . S
O146 Zn140 1.969 1_455 S
O146 C149 1.267 . S
O147 Zn140 1.965 . S
O147 C158 1.260 . S
O148 Zn141 1.969 . S
O148 C158 1.258 . S
C149 O146 1.267 . S
C149 O150 1.228 . S
O150 C149 1.228 . S
O151 Zn140 2.024 . S
O151 C142 1.058 . S
C152 O153 1.228 . S
C152 O154 1.267 . S
O153 C152 1.228 . S
O154 Zn141 1.969 . S
O154 C152 1.267 . S
O155 Zn141 1.965 . S
O155 C159 1.260 . S
O156 Zn140 1.969 . S
O156 C159 1.258 . S
O157 Zn141 2.024 . S
O157 C144 1.058 . S
C158 O147 1.260 . S
C158 O148 1.258 . S
C159 O155 1.260 . S
C159 O156 1.258 . S
Zn160 O166 1.969 . S
Zn160 O167 1.965 . S
Zn160 O171 2.024 . S
Zn160 O176 1.969 . S
Zn161 O168 1.969 . S
Zn161 O174 1.969 . S
Zn161 O175 1.965 . S
Zn161 O177 2.024 . S
C162 O163 1.229 . S
C162 O171 1.058 . S
O163 C162 1.229 . S
C164 O165 1.229 . S
C164 O177 1.058 . S
O165 C164 1.229 . S
O166 Zn160 1.969 . S
O166 C169 1.267 . S
O167 Zn160 1.965 . S
O167 C178 1.260 . S
O168 Zn161 1.969 . S
O168 C178 1.258 . S
C169 O166 1.267 . S
C169 O170 1.228 . S
O170 C169 1.228 . S
O171 Zn160 2.024 . S
O171 C162 1.058 . S
C172 O173 1.228 . S
C172 O174 1.267 . S
O173 C172 1.228 . S
O174 Zn161 1.969 . S
O174 C172 1.267 . S
O175 Zn161 1.965 . S
O175 C179 1.260 . S
O176 Zn160 1.969 . S
O176 C179 1.258 . S
O177 Zn161 2.024 . S
O177 C164 1.058 . S
C178 O167 1.260 . S
C178 O168 1.258 . S
C179 O175 1.260 . S
C179 O176 1.258 . S
H180 C186 0.930 . S
H181 C189 0.932 . S
H182 C190 0.931 1_556 S
H183 C191 0.929 1_556 S
H184 C194 0.930 . S
H185 C195 0.930 . S
C186 H180 0.930 . S
C186 C187 1.355 . S
C186 C188 1.415 . S
C187 C186 1.355 . S
C187 C189 1.419 1_554 S
C188 C186 1.415 . S
C188 C193 1.425 . S
C188 C195 1.409 . S
C189 H181 0.932 . S
C189 C187 1.419 1_556 S
C189 C190 1.361 1_556 S
C190 H182 0.931 1_554 S
C190 C189 1.361 1_554 S
C190 C193 1.409 . S
C191 H183 0.929 1_554 S
C191 C192 1.355 . S
C191 C193 1.415 . S
C192 C191 1.355 . S
C192 C194 1.419 . S
C193 C188 1.425 . S
C193 C190 1.409 . S
C193 C191 1.415 . S
C194 H184 0.930 . S
C194 C192 1.419 . S
C194 C195 1.362 . S
C195 H185 0.930 . S
C195 C188 1.409 . S
C195 C194 1.362 . S
H196 C202 0.930 1_554 S
H197 C205 0.930 . S
H198 C206 0.930 . S
H199 C207 0.930 . S
H200 C210 0.930 . S
H201 C211 0.930 . S
C202 H196 0.930 1_556 S
C202 C203 1.355 . S
C202 C204 1.415 . S
C203 C202 1.355 . S
C203 C205 1.419 . S
C204 C202 1.415 . S
C204 C209 1.425 . S
C204 C211 1.409 1_556 S
C205 H197 0.930 . S
C205 C203 1.419 . S
C205 C206 1.362 . S
C206 H198 0.930 . S
C206 C205 1.362 . S
C206 C209 1.409 . S
C207 H199 0.930 . S
C207 C208 1.355 . S
C207 C209 1.415 . S
C208 C207 1.355 . S
C208 C210 1.419 1_556 S
C209 C204 1.425 . S
C209 C206 1.409 . S
C209 C207 1.415 . S
C210 H200 0.930 . S
C210 C208 1.419 1_554 S
C210 C211 1.362 . S
C211 H201 0.930 . S
C211 C204 1.409 1_554 S
C211 C210 1.362 . S
H212 C218 0.930 . S
H213 C221 0.930 . S
H214 C222 0.930 . S
H215 C223 0.930 . S
H216 C226 0.930 . S
H217 C227 0.930 . S
C218 H212 0.930 . S
C218 C219 1.355 1_554 S
C218 C220 1.415 . S
C219 C218 1.355 1_556 S
C219 C221 1.419 . S
C220 C218 1.415 . S
C220 C225 1.425 1_554 S
C220 C227 1.409 . S
C221 H213 0.930 . S
C221 C219 1.419 . S
C221 C222 1.362 . S
C222 H214 0.930 . S
C222 C221 1.362 . S
C222 C225 1.409 . S
C223 H215 0.930 . S
C223 C224 1.355 . S
C223 C225 1.415 . S
C224 C223 1.355 . S
C224 C226 1.419 1_556 S
C225 C220 1.425 1_556 S
C225 C222 1.409 . S
C225 C223 1.415 . S
C226 H216 0.930 . S
C226 C224 1.419 1_554 S
C226 C227 1.362 . S
C227 H217 0.930 . S
C227 C220 1.409 . S
C227 C226 1.362 . S
H228 C234 0.930 . S
H229 C237 0.930 . S
H230 C238 0.930 . S
H231 C239 0.935 . S
H232 C242 0.930 . S
H233 C243 0.930 . S
C234 H228 0.930 . S
C234 C235 1.355 . S
C234 C236 1.415 . S
C235 C234 1.355 . S
C235 C237 1.419 1_554 S
C236 C234 1.415 . S
C236 C241 1.425 . S
C236 C243 1.409 . S
C237 H229 0.930 . S
C237 C235 1.419 1_556 S
C237 C238 1.362 . S
C238 H230 0.930 . S
C238 C237 1.362 . S
C238 C241 1.409 1_556 S
C239 H231 0.935 . S
C239 C240 1.351 1_556 S
C239 C241 1.413 1_556 S
C240 C239 1.351 1_554 S
C240 C242 1.419 . S
C241 C236 1.425 . S
C241 C238 1.409 1_554 S
C241 C239 1.413 1_554 S
C242 H232 0.930 . S
C242 C240 1.419 . S
C242 C243 1.362 . S
C243 H233 0.930 . S
C243 C236 1.409 . S
C243 C242 1.362 . S
H244 C250 0.930 . S
H245 C253 0.930 . S
H246 C254 0.930 . S
H247 C255 0.930 . S
H248 C258 0.930 . S
H249 C259 0.930 . S
C250 H244 0.930 . S
C250 C251 1.355 . S
C250 C252 1.415 . S
C251 C250 1.355 . S
C251 C253 1.419 . S
C252 C250 1.415 . S
C252 C257 1.425 . S
C252 C259 1.409 . S
C253 H245 0.930 . S
C253 C251 1.419 . S
C253 C254 1.362 . S
C254 H246 0.930 . S
C254 C253 1.362 . S
C254 C257 1.409 . S
C255 H247 0.930 . S
C255 C256 1.355 . S
C255 C257 1.415 . S
C256 C255 1.355 . S
C256 C258 1.419 . S
C257 C252 1.425 . S
C257 C254 1.409 . S
C257 C255 1.415 . S
C258 H248 0.930 . S
C258 C256 1.419 . S
C258 C259 1.362 . S
C259 H249 0.930 . S
C259 C252 1.409 . S
C259 C258 1.362 . S
H260 C266 0.930 . S
H261 C269 0.930 . S
H262 C270 0.930 . S
H263 C271 0.930 . S
H264 C274 0.930 . S
H265 C275 0.930 . S
C266 H260 0.930 . S
C266 C267 1.355 1_556 S
C266 C268 1.415 . S
C267 C266 1.355 1_554 S
C267 C269 1.419 . S
C268 C266 1.415 . S
C268 C273 1.425 1_556 S
C268 C275 1.409 . S
C269 H261 0.930 . S
C269 C267 1.419 . S
C269 C270 1.362 . S
C270 H262 0.930 . S
C270 C269 1.362 . S
C270 C273 1.409 . S
C271 H263 0.930 . S
C271 C272 1.362 . S
C271 C273 1.415 . S
C272 C271 1.362 . S
C272 C274 1.411 1_554 S
C273 C268 1.425 1_554 S
C273 C270 1.409 . S
C273 C271 1.415 . S
C274 H264 0.930 . S
C274 C272 1.411 1_556 S
C274 C275 1.362 . S
C275 H265 0.930 . S
C275 C268 1.409 . S
C275 C274 1.362 . S
H276 C282 0.930 . S
H277 C285 0.930 . S
H278 C286 0.930 . S
H279 C287 0.930 . S
H280 C290 0.930 . S
H281 C291 0.930 . S
C282 H276 0.930 . S
C282 C283 1.355 . S
C282 C284 1.415 . S
C283 C282 1.355 . S
C283 C285 1.419 . S
C284 C282 1.415 . S
C284 C289 1.425 . S
C284 C291 1.409 . S
C285 H277 0.930 . S
C285 C283 1.419 . S
C285 C286 1.362 . S
C286 H278 0.930 . S
C286 C285 1.362 . S
C286 C289 1.409 . S
C287 H279 0.930 . S
C287 C288 1.355 . S
C287 C289 1.415 1_455 S
C288 C287 1.355 . S
C288 C290 1.419 . S
C289 C284 1.425 . S
C289 C286 1.409 . S
C289 C287 1.415 1_655 S
C290 H280 0.930 . S
C290 C288 1.419 . S
C290 C291 1.362 1_455 S
C291 H281 0.930 . S
C291 C284 1.409 . S
C291 C290 1.362 1_655 S
H292 C298 0.930 . S
H293 C301 0.930 . S
H294 C302 0.930 . S
H295 C303 0.930 . S
H296 C306 0.930 . S
H297 C307 0.930 . S
C298 H292 0.930 . S
C298 C299 1.355 . S
C298 C300 1.415 . S
C299 C298 1.355 . S
C299 C301 1.419 . S
C300 C298 1.415 . S
C300 C305 1.425 . S
C300 C307 1.409 . S
C301 H293 0.930 . S
C301 C299 1.419 . S
C301 C302 1.362 . S
C302 H294 0.930 . S
C302 C301 1.362 . S
C302 C305 1.409 . S
C303 H295 0.930 . S
C303 C304 1.355 . S
C303 C305 1.415 . S
C304 C303 1.355 . S
C304 C306 1.419 . S
C305 C300 1.425 . S
C305 C302 1.409 . S
C305 C303 1.415 . S
C306 H296 0.930 . S
C306 C304 1.419 . S
C306 C307 1.362 . S
C307 H297 0.930 . S
C307 C300 1.409 . S
C307 C306 1.362 . S
H308 C314 0.930 . S
H309 C317 0.930 . S
H310 C318 0.930 . S
H311 C319 0.930 . S
H312 C322 0.930 . S
H313 C323 0.930 . S
C314 H308 0.930 . S
C314 C315 1.355 . S
C314 C316 1.415 . S
C315 C314 1.355 . S
C315 C317 1.419 . S
C316 C314 1.415 . S
C316 C321 1.425 . S
C316 C323 1.409 . S
C317 H309 0.930 . S
C317 C315 1.419 . S
C317 C318 1.362 . S
C318 H310 0.930 . S
C318 C317 1.362 . S
C318 C321 1.409 . S
C319 H311 0.930 . S
C319 C320 1.355 . S
C319 C321 1.415 1_565 S
C320 C319 1.355 . S
C320 C322 1.419 . S
C321 C316 1.425 . S
C321 C318 1.409 . S
C321 C319 1.415 1_545 S
C322 H312 0.930 . S
C322 C320 1.419 . S
C322 C323 1.362 1_565 S
C323 H313 0.930 . S
C323 C316 1.409 . S
C323 C322 1.362 1_545 S
H324 C330 0.930 . S
H325 C333 0.930 . S
H326 C334 0.930 . S
H327 C335 0.930 . S
H328 C338 0.930 . S
H329 C339 0.930 . S
C330 H324 0.930 . S
C330 C331 1.355 . S
C330 C332 1.415 . S
C331 C330 1.355 . S
C331 C333 1.419 . S
C332 C330 1.415 . S
C332 C337 1.425 . S
C332 C339 1.409 . S
C333 H325 0.930 . S
C333 C331 1.419 . S
C333 C334 1.362 . S
C334 H326 0.930 . S
C334 C333 1.362 . S
C334 C337 1.409 . S
C335 H327 0.930 . S
C335 C336 1.355 . S
C335 C337 1.415 . S
C336 C335 1.355 . S
C336 C338 1.419 . S
C337 C332 1.425 . S
C337 C334 1.409 . S
C337 C335 1.415 . S
C338 H328 0.930 . S
C338 C336 1.419 . S
C338 C339 1.362 . S
C339 H329 0.930 . S
C339 C332 1.409 . S
C339 C338 1.362 . S
H340 C346 0.930 . S
H341 C349 0.930 . S
H342 C350 0.930 . S
H343 C351 0.930 . S
H344 C354 0.930 . S
H345 C355 0.930 . S
C346 H340 0.930 . S
C346 C347 1.355 . S
C346 C348 1.415 . S
C347 C346 1.355 . S
C347 C349 1.419 . S
C348 C346 1.415 . S
C348 C353 1.425 . S
C348 C355 1.409 . S
C349 H341 0.930 . S
C349 C347 1.419 . S
C349 C350 1.362 . S
C350 H342 0.930 . S
C350 C349 1.362 . S
C350 C353 1.409 . S
C351 H343 0.930 . S
C351 C352 1.355 . S
C351 C353 1.415 . S
C352 C351 1.355 . S
C352 C354 1.419 . S
C353 C348 1.425 . S
C353 C350 1.409 . S
C353 C351 1.415 . S
C354 H344 0.930 . S
C354 C352 1.419 . S
C354 C355 1.362 . S
C355 H345 0.930 . S
C355 C348 1.409 . S
C355 C354 1.362 . S
H356 C362 0.930 . S
H357 C365 0.930 . S
H358 C366 0.930 . S
H359 C367 0.930 . S
H360 C370 0.930 . S
H361 C371 0.930 . S
C362 H356 0.930 . S
C362 C363 1.355 . S
C362 C364 1.415 . S
C363 C362 1.355 . S
C363 C365 1.419 . S
C364 C362 1.415 . S
C364 C369 1.425 . S
C364 C371 1.409 . S
C365 H357 0.930 . S
C365 C363 1.419 . S
C365 C366 1.362 . S
C366 H358 0.930 . S
C366 C365 1.362 . S
C366 C369 1.409 . S
C367 H359 0.930 . S
C367 C368 1.355 . S
C367 C369 1.415 . S
C368 C367 1.355 . S
C368 C370 1.419 . S
C369 C364 1.425 . S
C369 C366 1.409 . S
C369 C367 1.415 . S
C370 H360 0.930 . S
C370 C368 1.419 . S
C370 C371 1.362 . S
C371 H361 0.930 . S
C371 C364 1.409 . S
C371 C370 1.362 . S
H372 C378 0.930 . S
H373 C381 0.930 . S
H374 C382 0.930 . S
H375 C383 0.930 . S
H376 C386 0.930 . S
H377 C387 0.930 . S
C378 H372 0.930 . S
C378 C379 1.355 . S
C378 C380 1.415 . S
C379 C378 1.355 . S
C379 C381 1.419 . S
C380 C378 1.415 . S
C380 C385 1.425 . S
C380 C387 1.409 . S
C381 H373 0.930 . S
C381 C379 1.419 . S
C381 C382 1.362 . S
C382 H374 0.930 . S
C382 C381 1.362 . S
C382 C385 1.409 . S
C383 H375 0.930 . S
C383 C384 1.355 . S
C383 C385 1.415 . S
C384 C383 1.355 . S
C384 C386 1.419 . S
C385 C380 1.425 . S
C385 C382 1.409 . S
C385 C383 1.415 . S
C386 H376 0.930 . S
C386 C384 1.419 . S
C386 C387 1.362 . S
C387 H377 0.930 . S
C387 C380 1.409 . S
C387 C386 1.362 . S
H388 C394 0.930 . S
H389 C397 0.930 . S
H390 C398 0.930 . S
H391 C399 0.930 . S
H392 C402 0.930 . S
H393 C403 0.930 . S
C394 H388 0.930 . S
C394 C395 1.355 . S
C394 C396 1.415 . S
C395 C394 1.355 . S
C395 C397 1.419 . S
C396 C394 1.415 . S
C396 C401 1.425 . S
C396 C403 1.409 . S
C397 H389 0.930 . S
C397 C395 1.419 . S
C397 C398 1.362 . S
C398 H390 0.930 . S
C398 C397 1.362 . S
C398 C401 1.409 . S
C399 H391 0.930 . S
C399 C400 1.355 . S
C399 C401 1.415 . S
C400 C399 1.355 . S
C400 C402 1.419 . S
C401 C396 1.425 . S
C401 C398 1.409 . S
C401 C399 1.415 . S
C402 H392 0.930 . S
C402 C400 1.419 . S
C402 C403 1.362 . S
C403 H393 0.930 . S
C403 C396 1.409 . S
C403 C402 1.362 . S
H404 C410 0.930 . S
H405 C413 0.930 . S
H406 C414 0.930 . S
H407 C415 0.930 . S
H408 C418 0.930 . S
H409 C419 0.930 . S
C410 H404 0.930 . S
C410 C411 1.355 . S
C410 C412 1.415 . S
C411 C410 1.355 . S
C411 C413 1.419 . S
C412 C410 1.415 . S
C412 C417 1.425 . S
C412 C419 1.409 . S
C413 H405 0.930 . S
C413 C411 1.419 . S
C413 C414 1.362 . S
C414 H406 0.930 . S
C414 C413 1.362 . S
C414 C417 1.409 . S
C415 H407 0.930 . S
C415 C416 1.355 . S
C415 C417 1.415 . S
C416 C415 1.355 . S
C416 C418 1.419 . S
C417 C412 1.425 . S
C417 C414 1.409 . S
C417 C415 1.415 . S
C418 H408 0.930 . S
C418 C416 1.419 . S
C418 C419 1.362 . S
C419 H409 0.930 . S
C419 C412 1.409 . S
C419 C418 1.362 . S
H420 C426 0.930 . S
H421 C429 0.930 . S
H422 C430 0.930 . S
H423 C431 0.930 . S
H424 C434 0.930 . S
H425 C435 0.930 . S
C426 H420 0.930 . S
C426 C427 1.355 . S
C426 C428 1.415 . S
C427 C426 1.355 . S
C427 C429 1.419 . S
C428 C426 1.415 . S
C428 C433 1.425 . S
C428 C435 1.409 . S
C429 H421 0.930 . S
C429 C427 1.419 . S
C429 C430 1.362 . S
C430 H422 0.930 . S
C430 C429 1.362 . S
C430 C433 1.409 . S
C431 H423 0.930 . S
C431 C432 1.355 . S
C431 C433 1.415 1_545 S
C432 C431 1.355 . S
C432 C434 1.419 . S
C433 C428 1.425 . S
C433 C430 1.409 . S
C433 C431 1.415 1_565 S
C434 H424 0.930 . S
C434 C432 1.419 . S
C434 C435 1.362 1_545 S
C435 H425 0.930 . S
C435 C428 1.409 . S
C435 C434 1.362 1_565 S
H436 C442 0.930 . S
H437 C445 0.930 1_655 S
H438 C446 0.930 . S
H439 C447 0.930 . S
H440 C450 0.930 1_545 S
H441 C451 0.930 . S
C442 H436 0.930 . S
C442 C443 1.355 1_455 S
C442 C444 1.415 . S
C443 C442 1.355 1_655 S
C443 C445 1.419 1_655 S
C444 C442 1.415 . S
C444 C449 1.425 . S
C444 C451 1.409 . S
C445 H437 0.930 1_455 S
C445 C443 1.419 1_455 S
C445 C446 1.362 . S
C446 H438 0.930 . S
C446 C445 1.362 . S
C446 C449 1.409 . S
C447 H439 0.930 . S
C447 C448 1.355 . S
C447 C449 1.415 . S
C448 C447 1.355 . S
C448 C450 1.419 . S
C449 C444 1.425 . S
C449 C446 1.409 . S
C449 C447 1.415 . S
C450 H440 0.930 1_565 S
C450 C448 1.419 . S
C450 C451 1.362 . S
C451 H441 0.930 . S
C451 C444 1.409 . S
C451 C450 1.362 . S
H452 C458 0.930 . S
H453 C461 0.930 . S
H454 C462 0.930 . S
H455 C463 0.930 . S
H456 C466 0.940 . S
H457 C467 0.930 . S
C458 H452 0.930 . S
C458 C459 1.355 . S
C458 C460 1.415 . S
C459 C458 1.355 . S
C459 C461 1.419 . S
C460 C458 1.415 . S
C460 C465 1.425 . S
C460 C467 1.409 . S
C461 H453 0.930 . S
C461 C459 1.419 . S
C461 C462 1.362 . S
C462 H454 0.930 . S
C462 C461 1.362 . S
C462 C465 1.409 . S
C463 H455 0.930 . S
C463 C464 1.355 . S
C463 C465 1.415 . S
C464 C463 1.355 . S
C464 C466 1.419 . S
C465 C460 1.425 . S
C465 C462 1.409 . S
C465 C463 1.415 . S
C466 H456 0.940 . S
C466 C464 1.419 . S
C466 C467 1.362 . S
C467 H457 0.930 . S
C467 C460 1.409 . S
C467 C466 1.362 . S
H468 C474 0.930 . S
H469 C477 0.930 . S
H470 C478 0.930 . S
H471 C479 0.930 1_655 S
H472 C482 0.930 . S
H473 C483 0.930 . S
C474 H468 0.930 . S
C474 C475 1.355 . S
C474 C476 1.415 . S
C475 C474 1.355 . S
C475 C477 1.419 . S
C476 C474 1.415 . S
C476 C481 1.425 . S
C476 C483 1.409 . S
C477 H469 0.930 . S
C477 C475 1.419 . S
C477 C478 1.362 . S
C478 H470 0.930 . S
C478 C477 1.362 . S
C478 C481 1.409 . S
C479 H471 0.930 1_455 S
C479 C480 1.355 . S
C479 C481 1.415 . S
C480 C479 1.355 . S
C480 C482 1.419 . S
C481 C476 1.425 . S
C481 C478 1.409 . S
C481 C479 1.415 . S
C482 H472 0.930 . S
C482 C480 1.419 . S
C482 C483 1.362 . S
C483 H473 0.930 . S
C483 C476 1.409 . S
C483 C482 1.362 . S
H484 C490 0.930 . S
H485 C493 0.930 . S
H486 C494 0.930 . S
H487 C495 0.930 . S
H488 C498 0.930 . S
H489 C499 0.930 . S
C490 H484 0.930 . S
C490 C491 1.355 . S
C490 C492 1.415 . S
C491 C490 1.355 . S
C491 C493 1.419 . S
C492 C490 1.415 . S
C492 C497 1.425 . S
C492 C499 1.409 . S
C493 H485 0.930 . S
C493 C491 1.419 . S
C493 C494 1.362 . S
C494 H486 0.930 . S
C494 C493 1.362 . S
C494 C497 1.409 . S
C495 H487 0.930 . S
C495 C496 1.355 . S
C495 C497 1.415 . S
C496 C495 1.355 . S
C496 C498 1.419 . S
C497 C492 1.425 . S
C497 C494 1.409 . S
C497 C495 1.415 . S
C498 H488 0.930 . S
C498 C496 1.419 . S
C498 C499 1.362 . S
C499 H489 0.930 . S
C499 C492 1.409 . S
C499 C498 1.362 . S
H500 C506 0.930 . S
H501 C509 0.930 . S
H502 C510 0.930 . S
H503 C511 0.930 . S
H504 C514 0.930 . S
H505 C515 0.930 . S
C506 H500 0.930 . S
C506 C507 1.355 . S
C506 C508 1.415 . S
C507 C506 1.355 . S
C507 C509 1.419 . S
C508 C506 1.415 . S
C508 C513 1.425 . S
C508 C515 1.409 . S
C509 H501 0.930 . S
C509 C507 1.419 . S
C509 C510 1.362 . S
C510 H502 0.930 . S
C510 C509 1.362 . S
C510 C513 1.409 . S
C511 H503 0.930 . S
C511 C512 1.355 . S
C511 C513 1.415 . S
C512 C511 1.355 . S
C512 C514 1.419 . S
C513 C508 1.425 . S
C513 C510 1.409 . S
C513 C511 1.415 . S
C514 H504 0.930 . S
C514 C512 1.419 . S
C514 C515 1.362 . S
C515 H505 0.930 . S
C515 C508 1.409 . S
C515 C514 1.362 . S
H516 C522 0.930 . S
H517 C525 0.930 1_565 S
H518 C526 0.930 . S
H519 C527 0.930 . S
H520 C530 0.930 . S
H521 C531 0.930 . S
C522 H516 0.930 . S
C522 C523 1.355 . S
C522 C524 1.415 . S
C523 C522 1.355 . S
C523 C525 1.419 . S
C524 C522 1.415 . S
C524 C529 1.425 . S
C524 C531 1.409 . S
C525 H517 0.930 1_545 S
C525 C523 1.419 . S
C525 C526 1.362 . S
C526 H518 0.930 . S
C526 C525 1.362 . S
C526 C529 1.409 . S
C527 H519 0.930 . S
C527 C528 1.355 . S
C527 C529 1.415 . S
C528 C527 1.355 . S
C528 C530 1.419 . S
C529 C524 1.425 . S
C529 C526 1.409 . S
C529 C527 1.415 . S
C530 H520 0.930 . S
C530 C528 1.419 . S
C530 C531 1.362 . S
C531 H521 0.930 . S
C531 C524 1.409 . S
C531 C530 1.362 . S
H532 C538 0.930 1_455 S
H533 C541 0.930 . S
H534 C542 0.930 . S
H535 C543 0.930 . S
H536 C546 0.930 . S
H537 C547 0.930 1_455 S
C538 H532 0.930 1_655 S
C538 C539 1.355 . S
C538 C540 1.415 . S
C539 C538 1.355 . S
C539 C541 1.419 . S
C540 C538 1.415 . S
C540 C545 1.425 . S
C540 C547 1.409 . S
C541 H533 0.930 . S
C541 C539 1.419 . S
C541 C542 1.362 . S
C542 H534 0.930 . S
C542 C541 1.362 . S
C542 C545 1.409 . S
C543 H535 0.930 . S
C543 C544 1.355 . S
C543 C545 1.415 . S
C544 C543 1.355 . S
C544 C546 1.419 . S
C545 C540 1.425 . S
C545 C542 1.409 . S
C545 C543 1.415 . S
C546 H536 0.930 . S
C546 C544 1.419 . S
C546 C547 1.362 . S
C547 H537 0.930 1_655 S
C547 C540 1.409 . S
C547 C546 1.362 . S
H548 C554 0.930 . S
H549 C557 0.930 . S
H550 C558 0.930 . S
H551 C559 0.930 . S
H552 C562 0.930 . S
H553 C563 0.930 . S
C554 H548 0.930 . S
C554 C555 1.355 . S
C554 C556 1.415 . S
C555 C554 1.355 . S
C555 C557 1.419 . S
C556 C554 1.415 . S
C556 C561 1.425 . S
C556 C563 1.409 . S
C557 H549 0.930 . S
C557 C555 1.419 . S
C557 C558 1.362 . S
C558 H550 0.930 . S
C558 C557 1.362 . S
C558 C561 1.409 . S
C559 H551 0.930 . S
C559 C560 1.355 . S
C559 C561 1.415 . S
C560 C559 1.355 . S
C560 C562 1.419 . S
C561 C556 1.425 . S
C561 C558 1.409 . S
C561 C559 1.415 . S
C562 H552 0.930 . S
C562 C560 1.419 . S
C562 C563 1.362 . S
C563 H553 0.930 . S
C563 C556 1.409 . S
C563 C562 1.362 . S
H564 C570 0.930 . S
H565 C573 0.930 . S
H566 C574 0.930 . S
H567 C575 0.930 . S
H568 C578 0.930 . S
H569 C579 0.930 . S
C570 H564 0.930 . S
C570 C571 1.355 . S
C570 C572 1.415 . S
C571 C570 1.355 . S
C571 C573 1.419 . S
C572 C570 1.415 . S
C572 C577 1.425 . S
C572 C579 1.409 . S
C573 H565 0.930 . S
C573 C571 1.419 . S
C573 C574 1.362 . S
C574 H566 0.930 . S
C574 C573 1.362 . S
C574 C577 1.409 . S
C575 H567 0.930 . S
C575 C576 1.355 . S
C575 C577 1.415 . S
C576 C575 1.355 . S
C576 C578 1.419 . S
C577 C572 1.425 . S
C577 C574 1.409 . S
C577 C575 1.415 . S
C578 H568 0.930 . S
C578 C576 1.419 . S
C578 C579 1.362 . S
C579 H569 0.930 . S
C579 C572 1.409 . S
C579 C578 1.362 . S
H580 C586 0.930 . S
H581 C589 0.930 1_545 S
H582 C590 0.930 . S
H583 C591 0.930 . S
H584 C594 0.930 . S
H585 C595 0.930 . S
C586 H580 0.930 . S
C586 C587 1.355 . S
C586 C588 1.415 . S
C587 C586 1.355 . S
C587 C589 1.419 . S
C588 C586 1.415 . S
C588 C593 1.425 1_565 S
C588 C595 1.409 . S
C589 H581 0.930 1_565 S
C589 C587 1.419 . S
C589 C590 1.362 1_565 S
C590 H582 0.930 . S
C590 C589 1.362 1_545 S
C590 C593 1.409 . S
C591 H583 0.930 . S
C591 C592 1.355 . S
C591 C593 1.415 . S
C592 C591 1.355 . S
C592 C594 1.419 . S
C593 C588 1.425 1_545 S
C593 C590 1.409 . S
C593 C591 1.415 . S
C594 H584 0.930 . S
C594 C592 1.419 . S
C594 C595 1.362 1_545 S
C595 H585 0.930 . S
C595 C588 1.409 . S
C595 C594 1.362 1_565 S
H596 C602 0.930 . S
H597 C605 0.930 . S
H598 C606 0.930 . S
H599 C607 0.930 . S
H600 C610 0.930 . S
H601 C611 0.930 . S
C602 H596 0.930 . S
C602 C603 1.355 . S
C602 C604 1.415 1_655 S
C603 C602 1.355 . S
C603 C605 1.419 . S
C604 C602 1.415 1_455 S
C604 C609 1.425 . S
C604 C611 1.409 . S
C605 H597 0.930 . S
C605 C603 1.419 . S
C605 C606 1.362 . S
C606 H598 0.930 . S
C606 C605 1.362 . S
C606 C609 1.409 1_655 S
C607 H599 0.930 . S
C607 C608 1.355 . S
C607 C609 1.415 . S
C608 C607 1.355 . S
C608 C610 1.419 . S
C609 C604 1.425 . S
C609 C606 1.409 1_455 S
C609 C607 1.415 . S
C610 H600 0.930 . S
C610 C608 1.419 . S
C610 C611 1.362 . S
C611 H601 0.930 . S
C611 C604 1.409 . S
C611 C610 1.362 . S
C187 C32 1.246 . S
C192 C9 1.037 . S
C203 C42 1.452 . S
C208 C24 1.302 . S
C219 C49 1.126 1_556 S
C224 C2 1.305 . S
C235 C44 1.369 . S
C240 C22 1.491 . S
C251 C52 1.439 . S
C256 C4 1.118 . S
C267 C12 1.254 . S
C272 C29 1.167 1_554 S
C283 C69 1.334 . S
C288 C82 1.492 . S
C299 C102 1.205 . S
C304 C89 1.175 . S
C315 C109 1.154 . S
C320 C62 1.316 . S
C331 C92 1.274 . S
C336 C104 1.121 . S
C347 C112 1.426 . S
C352 C64 1.225 . S
C363 C84 1.325 . S
C368 C72 1.510 . S
C379 C152 1.200 . S
C384 C129 1.004 . S
C395 C144 1.177 . S
C400 C162 1.478 . S
C411 C169 1.236 . S
C416 C122 1.256 . S
C427 C164 1.317 . S
C432 C142 1.451 . S
C443 C172 1.428 . S
C448 C124 1.136 . S
C459 C132 1.246 . S
C464 C149 1.050 . S
C475 C119 2.190 . S
C480 C18 2.129 . S
C491 C79 2.200 . S
C496 C39 2.220 . S
C507 C58 2.269 . S
C512 C99 2.334 . S
C523 C59 2.233 . S
C528 C138 2.169 . S
C539 C19 2.156 . S
C544 C159 2.127 . S
C555 C178 2.173 . S
C560 C38 2.187 . S
C571 C78 2.151 . S
C576 C179 2.247 . S
C587 C98 2.025 . S
C592 C139 2.089 . S
C603 C158 2.128 . S
C608 C118 2.162 . S
