# Generated by pormake.
# Topology qtz-x, (6)-cn, num edge types: 1
# Building blocks:
#     Node 0, Type 0, BuildingBlock: BETGAK_clean_sbu_0, # of connection points: 6
#     Node 1, Type 0, BuildingBlock: BETGAK_clean_sbu_0, # of connection points: 6
#     Node 2, Type 0, BuildingBlock: BETGAK_clean_sbu_0, # of connection points: 6
#     Edge 3, Type (0, 0), BuildingBlock: KIFKEQ_clean_linker_1, # of connection points: 2
#     Edge 4, Type (0, 0), BuildingBlock: KIFKEQ_clean_linker_1, # of connection points: 2
#     Edge 5, Type (0, 0), BuildingBlock: KIFKEQ_clean_linker_1, # of connection points: 2
#     Edge 6, Type (0, 0), BuildingBlock: KIFKEQ_clean_linker_1, # of connection points: 2
#     Edge 7, Type (0, 0), BuildingBlock: KIFKEQ_clean_linker_1, # of connection points: 2
#     Edge 8, Type (0, 0), BuildingBlock: KIFKEQ_clean_linker_1, # of connection points: 2
#     Edge 9, Type (0, 0), BuildingBlock: KIFKEQ_clean_linker_1, # of connection points: 2
#     Edge 10, Type (0, 0), BuildingBlock: KIFKEQ_clean_linker_1, # of connection points: 2
#     Edge 11, Type (0, 0), BuildingBlock: KIFKEQ_clean_linker_1, # of connection points: 2
# Relax obj value: 0.237
# Max RMSD: 0.264
# Mean RMSD: 0.241
data_MOF--net-qtz-x--node1-BETGAK_clean_sbu_0--edge1-KIFKEQ_clean_linker_1
_symmetry_space_group_name_H-M    P1
_symmetry_Int_Tables_number       1
_symmetry_cell_setting            triclinic
loop_
_symmetry_equiv_pos_as_xyz
'x, y, z'
_cell_length_a     15.317895
_cell_length_b     15.23751
_cell_length_c     54.13967
_cell_angle_alpha  69.698921
_cell_angle_beta   113.98937
_cell_angle_gamma 121.38472
loop_
_atom_site_label
_atom_site_type_symbol
_atom_site_fract_x
_atom_site_fract_y
_atom_site_fract_z
_atom_type_partial_charge
La0 La 1.02608 0.62607 0.1959 0.0
La1 La 0.23273 0.74496 0.18928 0.0
C2 C 0.8758 0.48953 0.21732 0.0
C3 C 0.86296 0.45773 0.24558 0.0
C4 C 0.90989 0.53069 0.26297 0.0
C5 C 0.89826 0.49866 0.28967 0.0
C6 C 0.83964 0.39259 0.29986 0.0
C7 C 0.79307 0.31997 0.2823 0.0
C8 C 0.80458 0.3521 0.25563 0.0
C9 C 0.08198 0.83081 0.1858 0.0
C10 C 0.23017 0.6958 0.2483 0.0
C11 C 0.39292 0.87327 0.17156 0.0
C12 C 0.4193 0.888 0.14644 0.0
C13 C 0.48859 0.8513 0.14774 0.0
C14 C 0.50691 0.85671 0.12384 0.0
C15 C 0.45652 0.89921 0.09808 0.0
C16 C 0.39014 0.93925 0.0969 0.0
C17 C 0.37227 0.93434 0.12081 0.0
C18 C 0.17171 0.53826 0.19886 0.0
C19 C 1.03629 0.68749 0.13537 0.0
O20 O 0.8831 0.58163 0.20384 0.0
O21 O 0.94445 0.47045 0.21435 0.0
O22 O 0.98849 0.75893 0.17609 0.0
O23 O 0.14185 0.78647 0.20115 0.0
O24 O 0.13186 0.62611 0.23865 0.0
O25 O 0.28473 0.76648 0.23115 0.0
O26 O 0.38722 0.78767 0.1892 0.0
O27 O 0.31514 0.89331 0.1682 0.0
O28 O 0.26456 0.60787 0.2096 0.0
O29 O 0.11542 0.58563 0.18325 0.0
O30 O 0.13582 0.7504 0.14649 0.0
O31 O 0.97361 0.61944 0.15146 0.0
H32 H 0.95654 0.6126 0.25604 0.0
H33 H 0.93698 0.55714 0.30249 0.0
H34 H 0.74623 0.23794 0.28901 0.0
H35 H 0.76761 0.29395 0.24279 0.0
H36 H 0.52681 0.81608 0.16719 0.0
H37 H 0.55811 0.8247 0.12548 0.0
H38 H 0.35147 0.97401 0.07744 0.0
H39 H 0.3193 0.9645 0.11903 0.0
La40 La 0.85115 0.18299 0.55576 0.0
La41 La 0.73995 0.97356 0.55031 0.0
C42 C 0.93049 0.35811 0.56915 0.0
C43 C 0.94381 0.39235 0.59318 0.0
C44 C 1.03614 0.48072 0.60213 0.0
C45 C 0.05566 0.50884 0.62647 0.0
C46 C 0.98311 0.44867 0.6423 0.0
C47 C 0.88937 0.36126 0.63291 0.0
C48 C 0.86986 0.33334 0.60853 0.0
C49 C 0.97407 0.11848 0.55004 0.0
C50 C 0.81781 0.00963 0.60995 0.0
C51 C 0.66375 0.80432 0.53389 0.0
C52 C 0.62691 0.77939 0.50614 0.0
C53 C 0.52356 0.70167 0.497 0.0
C54 C 0.48232 0.68497 0.46983 0.0
C55 C 0.54347 0.74579 0.45107 0.0
C56 C 0.64847 0.82122 0.46058 0.0
C57 C 0.68966 0.83787 0.48776 0.0
C58 C 0.61509 0.03544 0.55583 0.0
C59 C 0.77035 0.15169 0.4961 0.0
O60 O 0.98519 0.30823 0.57387 0.0
O61 O 0.83302 0.31292 0.55385 0.0
O62 O 0.96961 0.20625 0.53838 0.0
O63 O 0.90963 0.06789 0.56484 0.0
O64 O 0.83112 0.10532 0.59727 0.0
O65 O 0.794 0.94144 0.59555 0.0
O66 O 0.60693 0.83518 0.53816 0.0
O67 O 0.7657 0.86108 0.54384 0.0
O68 O 0.61841 0.94676 0.56688 0.0
O69 O 0.68111 0.08822 0.54137 0.0
O70 O 0.74716 0.053 0.50766 0.0
O71 O 0.80354 0.22029 0.51126 0.0
H72 H 0.09417 0.52689 0.59054 0.0
H73 H 0.12767 0.57757 0.63293 0.0
H74 H 0.83247 0.31279 0.64478 0.0
H75 H 0.79826 0.26438 0.60202 0.0
H76 H 0.47353 0.65544 0.51073 0.0
H77 H 0.40199 0.6248 0.46349 0.0
H78 H 0.69773 0.87051 0.44675 0.0
H79 H 0.76942 0.89902 0.49406 0.0
La80 La 0.80621 0.8599 0.86393 0.0
La81 La 0.94479 0.76549 0.87843 0.0
C82 C 0.66503 0.90371 0.86169 0.0
C83 C 0.61955 0.89136 0.8827 0.0
C84 C 0.60569 0.97378 0.8838 0.0
C85 C 0.57632 0.96917 0.90572 0.0
C86 C 0.56053 0.88195 0.92699 0.0
C87 C 0.57017 0.7976 0.92518 0.0
C88 C 0.59963 0.80233 0.90331 0.0
C89 C 1.00542 -0.00168 0.86394 0.0
C90 C 0.90695 0.78451 0.92785 0.0
C91 C 0.0889 0.7237 0.88188 0.0
C92 C 0.11731 0.70965 0.86104 0.0
C93 C 0.11295 0.61334 0.86289 0.0
C94 C 0.11879 0.59104 0.84081 0.0
C95 C 0.12941 0.66503 0.81657 0.0
C96 C 0.14233 0.76434 0.81566 0.0
C97 C 0.13586 0.78637 0.83762 0.0
C98 C 0.74538 0.62573 0.87844 0.0
C99 C 0.84315 0.83844 0.81407 0.0
O100 O 0.76541 0.97036 0.86497 0.0
O101 O 0.64384 0.81807 0.85525 0.0
O102 O 0.92104 0.00546 0.84606 0.0
O103 O 0.97681 0.91625 0.8816 0.0
O104 O 0.82799 0.80433 0.90896 0.0
O105 O 0.97573 0.77976 0.9202 0.0
O106 O 0.99635 0.65301 0.88565 0.0
O107 O 0.10435 0.81775 0.88077 0.0
O108 O 0.83032 0.61822 0.89578 0.0
O109 O 0.77355 0.70853 0.86093 0.0
O110 O 0.91499 0.80806 0.83309 0.0
O111 O 0.78134 0.85546 0.82142 0.0
H112 H 0.62138 0.04344 0.86822 0.0
H113 H 0.57051 0.03587 0.90657 0.0
H114 H 0.55699 0.72861 0.94098 0.0
H115 H 0.61002 0.73763 0.90302 0.0
H116 H 0.09888 0.55315 0.88079 0.0
H117 H 0.10829 0.51372 0.8421 0.0
H118 H 0.15271 0.82364 0.79745 0.0
H119 H 0.14003 0.86163 0.83559 0.0
H120 H 0.93321 0.90555 0.16633 0.0
H121 H 0.26613 -0.00378 0.20884 0.0
H122 H 0.95147 0.0691 0.1699 0.0
H123 H 0.28705 0.16391 0.2113 0.0
H124 H 0.2873 0.42991 0.23243 0.0
H125 H 0.26735 0.26407 0.2296 0.0
H126 H 0.99994 0.24257 0.15723 0.0
H127 H 1.01776 0.40653 0.1612 0.0
C128 C 1.01123 0.96112 0.17624 0.0
C129 C 0.09802 0.93611 0.18733 0.0
C130 C 1.02218 0.05674 0.17813 0.0
C131 C 0.12107 0.13324 0.1909 0.0
C132 C 0.20854 0.10835 0.20172 0.0
C133 C 0.19707 0.01165 0.20011 0.0
C134 C 0.22353 0.38936 0.216 0.0
C135 C 0.15395 0.43256 0.19716 0.0
C136 C 0.21255 0.29363 0.21413 0.0
C137 C 0.13211 0.23681 0.19304 0.0
C138 C 0.06215 0.28058 0.17419 0.0
C139 C 0.07244 0.37595 0.17632 0.0
H140 H 0.57405 0.2113 0.53308 0.0
H141 H 0.44457 0.89527 0.57588 0.0
H142 H 0.42363 0.23034 0.53252 0.0
H143 H 0.29322 0.91137 0.57431 0.0
H144 H 0.05629 -0.0211 0.5868 0.0
H145 H 0.21067 0.96382 0.58871 0.0
H146 H 0.24988 0.20174 0.51626 0.0
H147 H 0.09955 0.21899 0.51536 0.0
C148 C 0.5133 0.14545 0.54217 0.0
C149 C 0.52298 0.05167 0.55445 0.0
C150 C 0.42547 0.15578 0.54175 0.0
C151 C 0.34291 0.07244 0.55338 0.0
C152 C 0.3537 -0.02103 0.56554 0.0
C153 C 0.44146 0.96924 0.5662 0.0
C154 C 0.09766 0.02761 0.57124 0.0
C155 C 0.06414 0.10027 0.55096 0.0
C156 C 0.18711 0.01894 0.57217 0.0
C157 C 0.2463 0.08172 0.55266 0.0
C158 C 0.21058 0.15298 0.53219 0.0
C159 C 0.12237 0.16226 0.53147 0.0
H160 H 0.07329 0.16702 0.82473 0.0
H161 H 0.18655 0.03185 0.90817 0.0
H162 H 0.24803 0.3157 0.82762 0.0
H163 H 0.36089 0.18341 0.91193 0.0
H164 H 0.69343 0.4262 0.90621 0.0
H165 H 0.52014 0.27618 0.90243 0.0
H166 H 0.37311 0.47007 0.84219 0.0
H167 H 0.54922 0.61899 0.84487 0.0
C168 C 0.13577 0.16939 0.84385 0.0
C169 C 0.11537 0.08694 0.86619 0.0
C170 C 0.23663 0.25594 0.84567 0.0
C171 C 0.3211 0.26436 0.8701 0.0
C172 C 0.30016 0.18089 0.89248 0.0
C173 C 0.19935 0.09338 0.89048 0.0
C174 C 0.62417 0.437 0.89205 0.0
C175 C 0.6361 0.53541 0.87582 0.0
C176 C 0.5235 0.35031 0.89005 0.0
C177 C 0.4298 0.35864 0.87208 0.0
C178 C 0.44201 0.45806 0.85598 0.0
C179 C 0.5435 0.54464 0.85765 0.0
H180 H 0.43117 0.95113 0.9295 0.0
H181 H 0.64616 0.8133 0.98059 0.0
H182 H 0.40676 0.95835 0.97048 0.0
H183 H 0.61843 0.81653 1.02136 0.0
H184 H 0.64097 0.94595 0.08912 0.0
H185 H 0.66371 0.94142 0.04762 0.0
H186 H 0.32728 0.84695 1.00774 0.0
H187 H 0.30489 0.85215 0.04919 0.0
C188 C 0.47288 0.92202 0.94945 0.0
C189 C 0.54054 0.88155 0.95173 0.0
C190 C 0.45811 0.92523 0.97294 0.0
C191 C 0.51091 0.88833 0.99925 0.0
C192 C 0.57764 0.84692 1.00147 0.0
C193 C 0.59235 0.84368 0.97803 0.0
C194 C 0.57179 0.92375 0.07154 0.0
C195 C 0.47109 0.89934 0.07251 0.0
C196 C 0.58474 0.92098 0.04775 0.0
C197 C 0.49724 0.89342 1.02435 0.0
C198 C 0.39667 0.86989 1.02523 0.0
C199 C 0.3838 0.87288 0.04902 0.0
H200 H 0.85841 0.35253 0.46848 0.0
H201 H 0.68469 0.03257 0.45634 0.0
H202 H 0.87423 0.40995 0.42185 0.0
H203 H 0.69859 0.0894 0.40948 0.0
H204 H 0.83772 0.21324 0.33683 0.0
H205 H 0.81649 0.15632 0.38285 0.0
H206 H 0.79053 0.43488 0.37439 0.0
H207 H 0.81283 0.49215 0.32843 0.0
C208 C 0.82216 0.29416 0.45577 0.0
C209 C 0.7707 0.1874 0.46649 0.0
C210 C 0.83107 0.32728 0.4288 0.0
C211 C 0.78847 0.25488 0.41147 0.0
C212 C 0.73475 0.14812 0.42207 0.0
C213 C 0.72614 0.11512 0.44907 0.0
C214 C 0.82657 0.26223 0.3446 0.0
C215 C 0.82704 0.35771 0.32852 0.0
C216 C 0.81409 0.22925 0.37119 0.0
C217 C 0.80125 0.29026 0.38278 0.0
C218 C 0.80182 0.38586 0.36668 0.0
C219 C 0.81466 0.41899 0.3401 0.0
H220 H 0.73082 0.93154 0.76902 0.0
H221 H 0.93699 0.78787 0.79025 0.0
H222 H 0.72322 0.96759 0.72072 0.0
H223 H 0.92997 0.82487 0.74184 0.0
H224 H 0.81475 0.82743 0.64707 0.0
H225 H 0.8183 0.78228 0.69562 0.0
H226 H 0.83272 0.07901 0.6897 0.0
H227 H 0.8295 0.12353 0.6418 0.0
C228 C 0.77436 0.90707 0.76349 0.0
C229 C 0.83474 0.85669 0.78398 0.0
C230 C 0.7706 0.92852 0.7356 0.0
C231 C 0.82625 0.89963 0.72694 0.0
C232 C 0.88505 0.84752 0.74739 0.0
C233 C 0.88967 0.82692 0.77535 0.0
C234 C 0.81888 0.88313 0.65612 0.0
C235 C 0.8219 -0.02045 0.64007 0.0
C236 C 0.82128 0.85736 0.68414 0.0
C237 C 0.82503 0.92636 0.697 0.0
C238 C 0.82808 0.02251 0.68083 0.0
C239 C 0.82708 0.04861 0.65311 0.0
H240 H 0.78376 0.78963 0.95301 0.0
H241 H 0.05315 0.73168 0.97176 0.0
H242 H 0.80425 0.75812 1.00228 0.0
H243 H 0.07225 0.69844 1.02046 0.0
H244 H 0.16944 0.77039 0.10385 0.0
H245 H 0.13184 0.79163 0.05508 0.0
H246 H 0.79438 0.63382 0.04669 0.0
H247 H 0.83326 0.61553 0.09679 0.0
C248 C 0.84706 0.76977 0.96753 0.0
C249 C 0.91731 0.76441 0.95805 0.0
C250 C 0.85836 0.75084 0.99593 0.0
C251 C 0.94059 0.72631 1.01582 0.0
C252 C 1.00913 0.71906 1.00615 0.0
C253 C 0.99791 0.73792 0.97794 0.0
C254 C 0.08669 0.74052 0.09191 0.0
C255 C 1.00478 0.692 0.10476 0.0
C256 C 0.06498 0.75152 0.06358 0.0
C257 C 0.95991 0.71366 0.04642 0.0
C258 C 0.87666 0.66459 0.05903 0.0
C259 C 0.89878 0.65326 0.08786 0.0
H260 H 0.42978 0.8278 0.27494 0.0
H261 H 0.13606 0.56972 0.28967 0.0
H262 H 0.5043 0.83653 0.32375 0.0
H263 H 0.21095 0.57808 0.3386 0.0
H264 H 0.33967 0.70789 0.41833 0.0
H265 H 0.26457 0.69163 0.37001 0.0
H266 H 0.56624 0.741 0.36811 0.0
H267 H 0.64131 0.7562 0.41657 0.0
C268 C 0.38113 0.77248 0.28859 0.0
C269 C 0.27661 0.69826 0.27827 0.0
C270 C 0.4242 0.77717 0.31666 0.0
C271 C 0.36381 0.70806 0.33521 0.0
C272 C 0.25941 0.63337 0.32491 0.0
C273 C 0.21654 0.62828 0.29682 0.0
C274 C 0.38978 0.71371 0.40779 0.0
C275 C 0.49681 0.73318 0.42155 0.0
C276 C 0.34657 0.70454 0.37999 0.0
C277 C 0.40919 0.71502 0.36507 0.0
C278 C 0.51601 0.73397 0.37882 0.0
C279 C 0.55916 0.74278 0.40666 0.0
H280 H 0.20996 0.54976 0.81136 0.0
H281 H 1.01278 0.71005 0.76498 0.0
H282 H 0.17374 0.49218 0.76977 0.0
H283 H 0.98035 0.65674 0.7235 0.0
H284 H 0.84424 0.44826 0.66186 0.0
H285 H 0.88194 0.49633 0.70485 0.0
H286 H 0.21162 0.56326 0.72484 0.0
H287 H 0.17298 0.51135 0.68226 0.0
C288 C 0.15973 0.57339 0.79227 0.0
C289 C 0.11497 0.63528 0.79136 0.0
C290 C 0.13957 0.54108 0.76846 0.0
C291 C 0.07383 0.56962 0.7434 0.0
C292 C 1.03019 0.63231 0.74254 0.0
C293 C 1.05026 0.66441 0.76623 0.0
C294 C 0.92445 0.47204 0.67558 0.0
C295 C 1.00575 0.47659 0.66861 0.0
C296 C 0.94632 0.50058 0.70006 0.0
C297 C 1.04998 0.53435 0.71811 0.0
C298 C 0.13089 0.53703 0.71141 0.0
C299 C 0.10902 0.50855 0.68689 0.0
loop_
_geom_bond_atom_site_label_1
_geom_bond_atom_site_label_2
_geom_bond_distance
_geom_bond_site_symmetry_2
_ccdc_geom_bond_type
La0 C2 2.928 . S
La0 O20 2.521 . S
La0 O21 2.628 . S
La0 O22 2.554 . S
La0 O23 2.757 1_655 S
La0 O24 2.470 1_655 S
La0 O29 2.482 . S
La0 O31 2.503 . S
La1 C11 2.928 . S
La1 O23 2.482 . S
La1 O25 2.503 . S
La1 O26 2.521 . S
La1 O27 2.628 . S
La1 O28 2.554 . S
La1 O29 2.757 1_455 S
La1 O30 2.470 1_455 S
C2 La0 2.928 . S
C2 C3 1.503 . S
C2 O20 1.261 . S
C2 O21 1.243 . S
C3 C2 1.503 . S
C3 C4 1.394 . S
C3 C8 1.373 . S
C4 C3 1.394 . S
C4 C5 1.380 . S
C4 H32 0.930 . S
C5 C4 1.380 . S
C5 C6 1.376 . S
C5 H33 0.930 . S
C6 C5 1.376 . S
C6 C7 1.370 . S
C7 C6 1.370 . S
C7 C8 1.396 . S
C7 H34 0.929 . S
C8 C3 1.373 . S
C8 C7 1.396 . S
C8 H35 0.929 . S
C9 O22 1.240 . S
C9 O23 1.289 1_655 S
C10 O24 1.258 . S
C10 O25 1.256 . S
C11 La1 2.928 . S
C11 C12 1.503 . S
C11 O26 1.261 . S
C11 O27 1.243 . S
C12 C11 1.503 . S
C12 C13 1.394 . S
C12 C17 1.373 . S
C13 C12 1.394 . S
C13 C14 1.380 . S
C13 H36 0.930 . S
C14 C13 1.380 . S
C14 C15 1.376 . S
C14 H37 0.930 . S
C15 C14 1.376 . S
C15 C16 1.370 1_565 S
C16 C15 1.370 1_545 S
C16 C17 1.396 1_545 S
C16 H38 0.929 . S
C17 C12 1.373 . S
C17 C16 1.396 1_565 S
C17 H39 0.929 1_565 S
C18 O28 1.240 . S
C18 O29 1.289 1_455 S
C19 O30 1.258 . S
C19 O31 1.256 . S
O20 La0 2.521 . S
O20 C2 1.261 . S
O21 La0 2.628 . S
O21 C2 1.243 . S
O22 La0 2.554 . S
O22 C9 1.240 . S
O23 La0 2.757 1_455 S
O23 La1 2.482 . S
O23 C9 1.289 1_455 S
O24 La0 2.470 1_455 S
O24 C10 1.258 . S
O25 La1 2.503 . S
O25 C10 1.256 . S
O26 La1 2.521 . S
O26 C11 1.261 . S
O27 La1 2.628 . S
O27 C11 1.243 . S
O28 La1 2.554 . S
O28 C18 1.240 . S
O29 La0 2.482 . S
O29 La1 2.757 1_655 S
O29 C18 1.289 1_655 S
O30 La1 2.470 1_655 S
O30 C19 1.258 . S
O31 La0 2.503 . S
O31 C19 1.256 . S
H32 C4 0.930 . S
H33 C5 0.930 . S
H34 C7 0.929 . S
H35 C8 0.929 . S
H36 C13 0.930 . S
H37 C14 0.930 . S
H38 C16 0.929 . S
H39 C17 0.929 1_545 S
La40 C42 2.928 . S
La40 O60 2.521 . S
La40 O61 2.628 . S
La40 O62 2.554 . S
La40 O63 2.757 1_545 S
La40 O64 2.465 1_545 S
La40 O69 2.482 . S
La40 O71 2.503 . S
La41 C51 2.928 . S
La41 O63 2.482 . S
La41 O65 2.503 . S
La41 O66 2.521 . S
La41 O67 2.628 . S
La41 O68 2.554 . S
La41 O69 2.757 1_565 S
La41 O70 2.470 1_565 S
C42 La40 2.928 . S
C42 C43 1.503 . S
C42 O60 1.261 . S
C42 O61 1.243 . S
C43 C42 1.503 . S
C43 C44 1.394 1_655 S
C43 C48 1.373 . S
C44 C43 1.394 1_455 S
C44 C45 1.380 . S
C44 H72 0.930 . S
C45 C44 1.380 . S
C45 C46 1.376 1_455 S
C45 H73 0.930 . S
C46 C45 1.376 1_655 S
C46 C47 1.370 . S
C47 C46 1.370 . S
C47 C48 1.396 . S
C47 H74 0.929 . S
C48 C43 1.373 . S
C48 C47 1.396 . S
C48 H75 0.929 . S
C49 O62 1.240 . S
C49 O63 1.289 1_545 S
C50 O64 1.263 . S
C50 O65 1.256 . S
C51 La41 2.928 . S
C51 C52 1.503 . S
C51 O66 1.261 . S
C51 O67 1.243 . S
C52 C51 1.503 . S
C52 C53 1.394 . S
C52 C57 1.373 . S
C53 C52 1.394 . S
C53 C54 1.380 . S
C53 H76 0.930 . S
C54 C53 1.380 . S
C54 C55 1.376 . S
C54 H77 0.930 . S
C55 C54 1.376 . S
C55 C56 1.370 . S
C56 C55 1.370 . S
C56 C57 1.396 . S
C56 H78 0.929 . S
C57 C52 1.373 . S
C57 C56 1.396 . S
C57 H79 0.929 . S
C58 O68 1.240 . S
C58 O69 1.289 1_565 S
C59 O70 1.258 . S
C59 O71 1.256 . S
O60 La40 2.521 . S
O60 C42 1.261 . S
O61 La40 2.628 . S
O61 C42 1.243 . S
O62 La40 2.554 . S
O62 C49 1.240 . S
O63 La40 2.757 1_565 S
O63 La41 2.482 . S
O63 C49 1.289 1_565 S
O64 La40 2.465 1_565 S
O64 C50 1.263 . S
O65 La41 2.503 . S
O65 C50 1.256 . S
O66 La41 2.521 . S
O66 C51 1.261 . S
O67 La41 2.628 . S
O67 C51 1.243 . S
O68 La41 2.554 . S
O68 C58 1.240 . S
O69 La40 2.482 . S
O69 La41 2.757 1_545 S
O69 C58 1.289 1_545 S
O70 La41 2.470 1_545 S
O70 C59 1.258 . S
O71 La40 2.503 . S
O71 C59 1.256 . S
H72 C44 0.930 . S
H73 C45 0.930 . S
H74 C47 0.929 . S
H75 C48 0.929 . S
H76 C53 0.930 . S
H77 C54 0.930 . S
H78 C56 0.929 . S
H79 C57 0.929 . S
La80 C82 2.928 . S
La80 O100 2.521 . S
La80 O101 2.628 1_545 S
La80 O102 2.554 1_655 S
La80 O103 2.757 . S
La80 O104 2.470 1_545 S
La80 O109 2.482 1_545 S
La80 O111 2.502 1_545 S
La81 C91 2.928 1_655 S
La81 O103 2.482 1_565 S
La81 O105 2.503 . S
La81 O106 2.521 . S
La81 O107 2.628 1_655 S
La81 O108 2.554 . S
La81 O109 2.757 . S
La81 O110 2.470 . S
C82 La80 2.928 . S
C82 C83 1.503 . S
C82 O100 1.261 . S
C82 O101 1.243 1_545 S
C83 C82 1.503 . S
C83 C84 1.394 . S
C83 C88 1.373 1_545 S
C84 C83 1.394 . S
C84 C85 1.380 . S
C84 H112 0.930 . S
C85 C84 1.380 . S
C85 C86 1.376 . S
C85 H113 0.930 . S
C86 C85 1.376 . S
C86 C87 1.370 1_545 S
C87 C86 1.370 1_565 S
C87 C88 1.396 . S
C87 H114 0.929 . S
C88 C83 1.373 1_565 S
C88 C87 1.396 . S
C88 H115 0.929 . S
C89 O102 1.240 . S
C89 O103 1.289 1_455 S
C90 O104 1.258 . S
C90 O105 1.256 . S
C91 La81 2.928 1_455 S
C91 C92 1.503 . S
C91 O106 1.261 1_455 S
C91 O107 1.243 . S
C92 C91 1.503 . S
C92 C93 1.394 . S
C92 C97 1.373 . S
C93 C92 1.394 . S
C93 C94 1.380 . S
C93 H116 0.930 1_455 S
C94 C93 1.380 . S
C94 C95 1.376 . S
C94 H117 0.930 . S
C95 C94 1.376 . S
C95 C96 1.370 . S
C96 C95 1.370 . S
C96 C97 1.396 . S
C96 H118 0.929 . S
C97 C92 1.373 . S
C97 C96 1.396 . S
C97 H119 0.929 . S
C98 O108 1.240 . S
C98 O109 1.289 . S
C99 O110 1.258 . S
C99 O111 1.258 . S
O100 La80 2.521 . S
O100 C82 1.261 . S
O101 La80 2.628 1_565 S
O101 C82 1.243 1_565 S
O102 La80 2.554 1_455 S
O102 C89 1.240 . S
O103 La80 2.757 . S
O103 La81 2.482 1_545 S
O103 C89 1.289 1_655 S
O104 La80 2.470 1_565 S
O104 C90 1.258 . S
O105 La81 2.503 . S
O105 C90 1.256 . S
O106 La81 2.521 . S
O106 C91 1.261 1_655 S
O107 La81 2.628 1_455 S
O107 C91 1.243 . S
O108 La81 2.554 . S
O108 C98 1.240 . S
O109 La80 2.482 1_565 S
O109 La81 2.757 . S
O109 C98 1.289 . S
O110 La81 2.470 . S
O110 C99 1.258 . S
O111 La80 2.502 1_565 S
O111 C99 1.258 . S
H112 C84 0.930 . S
H113 C85 0.930 . S
H114 C87 0.929 . S
H115 C88 0.929 . S
H116 C93 0.930 1_655 S
H117 C94 0.930 . S
H118 C96 0.929 . S
H119 C97 0.929 . S
H120 C128 0.950 1_565 S
H121 C133 0.950 . S
H122 C130 0.950 . S
H123 C132 0.950 . S
H124 C134 0.950 . S
H125 C136 0.950 . S
H126 C138 0.950 . S
H127 C139 0.950 . S
C128 H120 0.950 1_545 S
C128 C129 1.386 1_645 S
C128 C130 1.391 . S
C129 C128 1.386 1_465 S
C129 C133 1.393 1_565 S
C130 H122 0.950 . S
C130 C128 1.391 . S
C130 C131 1.401 . S
C131 C130 1.401 . S
C131 C132 1.397 1_655 S
C131 C137 1.495 1_655 S
C132 H123 0.950 . S
C132 C131 1.397 1_455 S
C132 C133 1.391 . S
C133 H121 0.950 . S
C133 C129 1.393 1_545 S
C133 C132 1.391 . S
C134 H124 0.950 . S
C134 C135 1.386 1_455 S
C134 C136 1.391 . S
C135 C134 1.386 1_655 S
C135 C139 1.393 . S
C136 H125 0.950 . S
C136 C134 1.391 . S
C136 C137 1.401 . S
C137 C131 1.495 1_455 S
C137 C136 1.401 . S
C137 C138 1.394 1_455 S
C138 H126 0.950 . S
C138 C137 1.394 1_655 S
C138 C139 1.391 . S
C139 H127 0.950 . S
C139 C135 1.393 . S
C139 C138 1.391 . S
H140 C148 0.950 . S
H141 C153 0.950 . S
H142 C150 0.950 . S
H143 C152 0.950 . S
H144 C154 0.950 1_655 S
H145 C156 0.950 . S
H146 C158 0.950 . S
H147 C159 0.950 . S
C148 H140 0.950 . S
C148 C149 1.386 . S
C148 C150 1.391 . S
C149 C148 1.386 . S
C149 C153 1.393 1_545 S
C150 H142 0.950 . S
C150 C148 1.391 . S
C150 C151 1.400 . S
C151 C150 1.400 . S
C151 C152 1.398 1_545 S
C151 C157 1.491 . S
C152 H143 0.950 . S
C152 C151 1.398 1_565 S
C152 C153 1.391 . S
C153 H141 0.950 . S
C153 C149 1.393 1_565 S
C153 C152 1.391 . S
C154 H144 0.950 1_455 S
C154 C155 1.386 1_565 S
C154 C156 1.391 . S
C155 C154 1.386 1_545 S
C155 C159 1.393 . S
C156 H145 0.950 . S
C156 C154 1.391 . S
C156 C157 1.400 1_565 S
C157 C151 1.491 . S
C157 C156 1.400 1_545 S
C157 C158 1.398 . S
C158 H146 0.950 . S
C158 C157 1.398 . S
C158 C159 1.391 . S
C159 H147 0.950 . S
C159 C155 1.393 . S
C159 C158 1.391 . S
H160 C168 0.950 . S
H161 C173 0.950 . S
H162 C170 0.950 . S
H163 C172 0.950 . S
H164 C174 0.950 . S
H165 C176 0.950 . S
H166 C178 0.950 . S
H167 C179 0.950 . S
C168 H160 0.950 . S
C168 C169 1.386 . S
C168 C170 1.391 . S
C169 C168 1.386 . S
C169 C173 1.393 . S
C170 H162 0.950 . S
C170 C168 1.391 . S
C170 C171 1.400 . S
C171 C170 1.400 . S
C171 C172 1.398 . S
C171 C177 1.491 . S
C172 H163 0.950 . S
C172 C171 1.398 . S
C172 C173 1.391 . S
C173 H161 0.950 . S
C173 C169 1.393 . S
C173 C172 1.391 . S
C174 H164 0.950 . S
C174 C175 1.386 . S
C174 C176 1.391 . S
C175 C174 1.386 . S
C175 C179 1.393 . S
C176 H165 0.950 . S
C176 C174 1.391 . S
C176 C177 1.400 . S
C177 C171 1.491 . S
C177 C176 1.400 . S
C177 C178 1.398 . S
C178 H166 0.950 . S
C178 C177 1.398 . S
C178 C179 1.391 . S
C179 H167 0.950 . S
C179 C175 1.393 . S
C179 C178 1.391 . S
H180 C188 0.950 . S
H181 C193 0.950 . S
H182 C190 0.950 . S
H183 C192 0.950 . S
H184 C194 0.950 . S
H185 C196 0.950 1_565 S
H186 C198 0.950 . S
H187 C199 0.950 . S
C188 H180 0.950 . S
C188 C189 1.386 . S
C188 C190 1.391 . S
C189 C188 1.386 . S
C189 C193 1.393 . S
C190 H182 0.950 . S
C190 C188 1.391 . S
C190 C191 1.400 . S
C191 C190 1.400 . S
C191 C192 1.398 . S
C191 C197 1.491 . S
C192 H183 0.950 . S
C192 C191 1.398 . S
C192 C193 1.391 . S
C193 H181 0.950 . S
C193 C189 1.393 . S
C193 C192 1.391 . S
C194 H184 0.950 . S
C194 C195 1.386 1_565 S
C194 C196 1.391 1_565 S
C195 C194 1.386 1_545 S
C195 C199 1.393 1_554 S
C196 H185 0.950 1_545 S
C196 C194 1.391 1_545 S
C196 C197 1.400 1_554 S
C197 C191 1.491 . S
C197 C196 1.400 1_556 S
C197 C198 1.398 . S
C198 H186 0.950 . S
C198 C197 1.398 . S
C198 C199 1.391 . S
C199 H187 0.950 . S
C199 C195 1.393 1_556 S
C199 C198 1.391 . S
H200 C208 0.950 . S
H201 C213 0.950 . S
H202 C210 0.950 . S
H203 C212 0.950 . S
H204 C214 0.950 . S
H205 C216 0.950 . S
H206 C218 0.950 . S
H207 C219 0.950 . S
C208 H200 0.950 . S
C208 C209 1.386 . S
C208 C210 1.391 . S
C209 C208 1.386 . S
C209 C213 1.393 . S
C210 H202 0.950 . S
C210 C208 1.391 . S
C210 C211 1.400 . S
C211 C210 1.400 . S
C211 C212 1.398 . S
C211 C217 1.491 . S
C212 H203 0.950 . S
C212 C211 1.398 . S
C212 C213 1.391 . S
C213 H201 0.950 . S
C213 C209 1.393 . S
C213 C212 1.391 . S
C214 H204 0.950 . S
C214 C215 1.386 . S
C214 C216 1.391 . S
C215 C214 1.386 . S
C215 C219 1.393 . S
C216 H205 0.950 . S
C216 C214 1.391 . S
C216 C217 1.400 . S
C217 C211 1.491 . S
C217 C216 1.400 . S
C217 C218 1.398 . S
C218 H206 0.950 . S
C218 C217 1.398 . S
C218 C219 1.391 . S
C219 H207 0.950 . S
C219 C215 1.393 . S
C219 C218 1.391 . S
H220 C228 0.950 . S
H221 C233 0.950 . S
H222 C230 0.950 . S
H223 C232 0.950 . S
H224 C234 0.950 . S
H225 C236 0.950 . S
H226 C238 0.950 . S
H227 C239 0.950 . S
C228 H220 0.950 . S
C228 C229 1.386 . S
C228 C230 1.391 . S
C229 C228 1.386 . S
C229 C233 1.393 . S
C230 H222 0.950 . S
C230 C228 1.391 . S
C230 C231 1.400 . S
C231 C230 1.400 . S
C231 C232 1.398 . S
C231 C237 1.491 . S
C232 H223 0.950 . S
C232 C231 1.398 . S
C232 C233 1.391 . S
C233 H221 0.950 . S
C233 C229 1.393 . S
C233 C232 1.391 . S
C234 H224 0.950 . S
C234 C235 1.386 . S
C234 C236 1.391 . S
C235 C234 1.386 . S
C235 C239 1.393 . S
C236 H225 0.950 . S
C236 C234 1.391 . S
C236 C237 1.400 . S
C237 C231 1.491 . S
C237 C236 1.400 . S
C237 C238 1.398 . S
C238 H226 0.950 . S
C238 C237 1.398 . S
C238 C239 1.391 . S
C239 H227 0.950 . S
C239 C235 1.393 . S
C239 C238 1.391 . S
H240 C248 0.950 . S
H241 C253 0.950 1_455 S
H242 C250 0.950 . S
H243 C252 0.950 1_455 S
H244 C254 0.950 . S
H245 C256 0.950 1_455 S
H246 C258 0.950 1_556 S
H247 C259 0.950 . S
C248 H240 0.950 . S
C248 C249 1.386 . S
C248 C250 1.391 . S
C249 C248 1.386 . S
C249 C253 1.393 . S
C250 H242 0.950 . S
C250 C248 1.391 . S
C250 C251 1.400 . S
C251 C250 1.400 . S
C251 C252 1.398 . S
C251 C257 1.491 1_556 S
C252 H243 0.950 1_655 S
C252 C251 1.398 . S
C252 C253 1.391 . S
C253 H241 0.950 1_655 S
C253 C249 1.393 . S
C253 C252 1.391 . S
C254 H244 0.950 . S
C254 C255 1.386 . S
C254 C256 1.391 . S
C255 C254 1.386 . S
C255 C259 1.393 . S
C256 H245 0.950 1_655 S
C256 C254 1.391 . S
C256 C257 1.400 . S
C257 C251 1.491 1_554 S
C257 C256 1.400 . S
C257 C258 1.398 . S
C258 H246 0.950 1_554 S
C258 C257 1.398 . S
C258 C259 1.391 . S
C259 H247 0.950 . S
C259 C255 1.393 . S
C259 C258 1.391 . S
H260 C268 0.950 . S
H261 C273 0.950 . S
H262 C270 0.950 . S
H263 C272 0.950 . S
H264 C274 0.950 . S
H265 C276 0.950 . S
H266 C278 0.950 . S
H267 C279 0.950 . S
C268 H260 0.950 . S
C268 C269 1.386 . S
C268 C270 1.391 . S
C269 C268 1.386 . S
C269 C273 1.393 . S
C270 H262 0.950 . S
C270 C268 1.391 . S
C270 C271 1.400 . S
C271 C270 1.400 . S
C271 C272 1.398 . S
C271 C277 1.491 . S
C272 H263 0.950 . S
C272 C271 1.398 . S
C272 C273 1.391 . S
C273 H261 0.950 . S
C273 C269 1.393 . S
C273 C272 1.391 . S
C274 H264 0.950 . S
C274 C275 1.386 . S
C274 C276 1.391 . S
C275 C274 1.386 . S
C275 C279 1.393 . S
C276 H265 0.950 . S
C276 C274 1.391 . S
C276 C277 1.400 . S
C277 C271 1.491 . S
C277 C276 1.400 . S
C277 C278 1.398 . S
C278 H266 0.950 . S
C278 C277 1.398 . S
C278 C279 1.391 . S
C279 H267 0.950 . S
C279 C275 1.393 . S
C279 C278 1.391 . S
H280 C288 0.950 . S
H281 C293 0.950 . S
H282 C290 0.950 . S
H283 C292 0.950 . S
H284 C294 0.950 . S
H285 C296 0.950 1_655 S
H286 C298 0.950 . S
H287 C299 0.950 . S
C288 H280 0.950 . S
C288 C289 1.386 . S
C288 C290 1.391 . S
C289 C288 1.386 . S
C289 C293 1.393 . S
C290 H282 0.950 . S
C290 C288 1.391 . S
C290 C291 1.400 . S
C291 C290 1.400 . S
C291 C292 1.398 . S
C291 C297 1.491 . S
C292 H283 0.950 . S
C292 C291 1.398 . S
C292 C293 1.391 . S
C293 H281 0.950 . S
C293 C289 1.393 . S
C293 C292 1.391 . S
C294 H284 0.950 . S
C294 C295 1.386 1_655 S
C294 C296 1.391 1_655 S
C295 C294 1.386 1_455 S
C295 C299 1.393 . S
C296 H285 0.950 1_455 S
C296 C294 1.391 1_455 S
C296 C297 1.400 . S
C297 C291 1.491 . S
C297 C296 1.400 . S
C297 C298 1.398 . S
C298 H286 0.950 . S
C298 C297 1.398 . S
C298 C299 1.391 . S
C299 H287 0.950 . S
C299 C295 1.393 . S
C299 C298 1.391 . S
C129 C9 1.546 1_455 S
C135 C18 1.546 1_655 S
C149 C58 1.641 1_545 S
C155 C49 1.641 1_455 S
C169 C89 1.337 . S
C175 C98 1.337 . S
C189 C86 0.949 . S
C195 C15 0.977 1_545 S
C209 C59 1.941 . S
C215 C6 1.898 . S
C229 C99 2.434 . S
C235 C50 2.444 . S
C249 C90 2.367 . S
C255 C19 2.305 . S
C269 C10 1.748 . S
C275 C55 1.662 . S
C289 C95 0.931 . S
C295 C46 0.968 1_455 S
