# Generated by pormake.
# Topology uoc, (4)-cn, num edge types: 1
# Building blocks:
#     Node 0, Type 0, BuildingBlock: GALJAG_clean_sbu_0, # of connection points: 4
#     Node 1, Type 0, BuildingBlock: GALJAG_clean_sbu_0, # of connection points: 4
#     Node 2, Type 0, BuildingBlock: GALJAG_clean_sbu_0, # of connection points: 4
#     Node 3, Type 0, BuildingBlock: GALJAG_clean_sbu_0, # of connection points: 4
#     Node 4, Type 0, BuildingBlock: GALJAG_clean_sbu_0, # of connection points: 4
#     Node 5, Type 0, BuildingBlock: GALJAG_clean_sbu_0, # of connection points: 4
#     Node 6, Type 0, BuildingBlock: GALJAG_clean_sbu_0, # of connection points: 4
#     Node 7, Type 0, BuildingBlock: GALJAG_clean_sbu_0, # of connection points: 4
#     Edge 8, Type (0, 0), BuildingBlock: XUDNAN_clean_linker_2, # of connection points: 2
#     Edge 9, Type (0, 0), BuildingBlock: XUDNAN_clean_linker_2, # of connection points: 2
#     Edge 10, Type (0, 0), BuildingBlock: XUDNAN_clean_linker_2, # of connection points: 2
#     Edge 11, Type (0, 0), BuildingBlock: XUDNAN_clean_linker_2, # of connection points: 2
#     Edge 12, Type (0, 0), BuildingBlock: XUDNAN_clean_linker_2, # of connection points: 2
#     Edge 13, Type (0, 0), BuildingBlock: XUDNAN_clean_linker_2, # of connection points: 2
#     Edge 14, Type (0, 0), BuildingBlock: XUDNAN_clean_linker_2, # of connection points: 2
#     Edge 15, Type (0, 0), BuildingBlock: XUDNAN_clean_linker_2, # of connection points: 2
#     Edge 16, Type (0, 0), BuildingBlock: XUDNAN_clean_linker_2, # of connection points: 2
#     Edge 17, Type (0, 0), BuildingBlock: XUDNAN_clean_linker_2, # of connection points: 2
#     Edge 18, Type (0, 0), BuildingBlock: XUDNAN_clean_linker_2, # of connection points: 2
#     Edge 19, Type (0, 0), BuildingBlock: XUDNAN_clean_linker_2, # of connection points: 2
#     Edge 20, Type (0, 0), BuildingBlock: XUDNAN_clean_linker_2, # of connection points: 2
#     Edge 21, Type (0, 0), BuildingBlock: XUDNAN_clean_linker_2, # of connection points: 2
#     Edge 22, Type (0, 0), BuildingBlock: XUDNAN_clean_linker_2, # of connection points: 2
#     Edge 23, Type (0, 0), BuildingBlock: XUDNAN_clean_linker_2, # of connection points: 2
# Relax obj value: 0.017
# Max RMSD: 0.050
# Mean RMSD: 0.050
data_MOF--net-uoc--node1-GALJAG_clean_sbu_0--edge1-XUDNAN_clean_linker_2
_symmetry_space_group_name_H-M    P1
_symmetry_Int_Tables_number       1
_symmetry_cell_setting            triclinic
loop_
_symmetry_equiv_pos_as_xyz
'x, y, z'
_cell_length_a     27.707065
_cell_length_b     27.714314
_cell_length_c     55.36604
_cell_angle_alpha  90.117466
_cell_angle_beta   89.988167
_cell_angle_gamma 90.420716
loop_
_atom_site_label
_atom_site_type_symbol
_atom_site_fract_x
_atom_site_fract_y
_atom_site_fract_z
_atom_type_partial_charge
In0 In 0.11384 0.25983 0.1221 0.0
O1 O 0.05842 0.32081 0.12099 0.0
O2 O 0.13251 0.33867 0.11563 0.0
C3 C 0.05724 0.17989 0.12315 0.0
C4 C 0.15034 0.26261 0.16716 0.0
C5 C 0.1598 0.24667 0.07981 0.0
O6 O 0.04038 0.22144 0.11932 0.0
O7 O 0.10207 0.17906 0.12694 0.0
O8 O 0.18244 0.25081 0.09953 0.0
O9 O 0.11451 0.24941 0.08158 0.0
C10 C 0.08965 0.35348 0.11721 0.0
O11 O 0.17291 0.24351 0.14982 0.0
O12 O 0.10961 0.27945 0.16178 0.0
In13 In 0.76453 0.62508 0.37498 0.0
O14 O 0.76967 0.69177 0.35127 0.0
O15 O 0.76703 0.62355 0.33372 0.0
C16 C 0.74545 0.67026 0.41704 0.0
C17 C 0.85843 0.5999 0.37913 0.0
C18 C 0.68442 0.56904 0.37136 0.0
O19 O 0.73926 0.68963 0.3967 0.0
O20 O 0.76151 0.62776 0.41628 0.0
O21 O 0.72614 0.55138 0.37353 0.0
O22 O 0.68342 0.61449 0.37095 0.0
C23 C 0.77024 0.66878 0.3316 0.0
O24 O 0.82508 0.56866 0.37751 0.0
O25 O 0.84413 0.64293 0.37906 0.0
In26 In 0.37336 0.2531 0.62585 0.0
O27 O 0.43475 0.19694 0.62452 0.0
O28 O 0.36514 0.17747 0.61135 0.0
C29 C 0.41589 0.33842 0.63682 0.0
C30 C 0.33076 0.23366 0.66825 0.0
C31 C 0.33002 0.27564 0.58401 0.0
O32 O 0.43803 0.30634 0.62492 0.0
O33 O 0.37395 0.32659 0.64343 0.0
O34 O 0.30714 0.25633 0.60125 0.0
O35 O 0.37415 0.28374 0.58803 0.0
C36 C 0.40779 0.1644 0.61551 0.0
O37 O 0.30897 0.25568 0.65155 0.0
O38 O 0.37353 0.22147 0.66344 0.0
In39 In 0.7503 0.86259 0.87293 0.0
O40 O 0.74877 0.80029 0.84587 0.0
O41 O 0.74409 0.8724 0.83257 0.0
C42 C 0.74864 0.82469 0.91727 0.0
C43 C 0.65896 0.89406 0.87546 0.0
C44 C 0.84264 0.89414 0.87346 0.0
O45 O 0.75605 0.79881 0.89878 0.0
O46 O 0.74272 0.86913 0.91334 0.0
O47 O 0.80793 0.9238 0.87317 0.0
O48 O 0.83009 0.85036 0.87338 0.0
C49 C 0.7449 0.82782 0.82777 0.0
O50 O 0.69418 0.92361 0.87404 0.0
O51 O 0.67042 0.85002 0.87514 0.0
In52 In 0.59157 0.75392 0.62164 0.0
O53 O 0.52118 0.79492 0.61613 0.0
O54 O 0.5856 0.83578 0.62227 0.0
C55 C 0.54125 0.6704 0.62841 0.0
C56 C 0.64714 0.76161 0.66171 0.0
C57 C 0.63557 0.75694 0.57815 0.0
O58 O 0.53416 0.70776 0.64091 0.0
O59 O 0.57227 0.67568 0.61201 0.0
O60 O 0.65733 0.74286 0.59684 0.0
O61 O 0.59246 0.7692 0.58145 0.0
C62 C 0.5407 0.83622 0.61825 0.0
O63 O 0.654 0.72931 0.64604 0.0
O64 O 0.61338 0.79007 0.65687 0.0
In65 In 0.25236 0.08782 0.8764 0.0
O66 O 0.24443 0.15392 0.85182 0.0
O67 O 0.26464 0.08731 0.8359 0.0
C68 C 0.2487 0.13971 0.91803 0.0
C69 C 0.33449 0.03645 0.88062 0.0
C70 C 0.17067 0.03398 0.874 0.0
O71 O 0.21263 0.11889 0.90891 0.0
O72 O 0.28694 0.13527 0.90602 0.0
O73 O 0.21126 0.01626 0.87921 0.0
O74 O 0.17143 0.07864 0.86965 0.0
C75 C 0.25544 0.13128 0.83284 0.0
O76 O 0.2935 0.01946 0.8862 0.0
O77 O 0.33403 0.0794 0.8731 0.0
In78 In 0.89445 0.75772 0.12128 0.0
O79 O 0.8404 0.73192 0.14984 0.0
O80 O 0.89785 0.77812 0.161 0.0
C81 C 0.84155 0.75034 0.08061 0.0
C82 C 0.95165 0.67917 0.11979 0.0
C83 C 0.92014 0.85164 0.11764 0.0
O84 O 0.82268 0.75673 0.10112 0.0
O85 O 0.88692 0.74687 0.08072 0.0
O86 O 0.95111 0.8188 0.1206 0.0
O87 O 0.87708 0.8368 0.11625 0.0
C88 C 0.86073 0.75443 0.1669 0.0
O89 O 0.96796 0.72124 0.11605 0.0
O90 O 0.90715 0.67719 0.12442 0.0
In91 In 0.26288 0.40504 0.37243 0.0
O92 O 0.26053 0.33697 0.34897 0.0
O93 O 0.24267 0.4041 0.33275 0.0
C94 C 0.26171 0.3681 0.41737 0.0
C95 C 0.18411 0.46141 0.37575 0.0
C96 C 0.35681 0.43015 0.36708 0.0
O97 O 0.24304 0.34603 0.39967 0.0
O98 O 0.28077 0.40825 0.41231 0.0
O99 O 0.32393 0.4614 0.36894 0.0
O100 O 0.34201 0.38703 0.3675 0.0
C101 C 0.24755 0.35917 0.33019 0.0
O102 O 0.226 0.47888 0.37265 0.0
O103 O 0.18238 0.41603 0.37725 0.0
H104 H 0.11638 0.22758 0.03677 0.0
H105 H 0.25706 0.24479 0.07021 0.0
H106 H 0.29611 0.22613 0.03105 0.0
H107 H 0.14526 0.12723 0.00149 0.0
H108 H 0.1089 0.14475 0.97602 0.0
H109 H 0.09274 0.16424 0.00593 0.0
H110 H 0.09459 0.25336 0.99174 0.0
H111 H 0.11085 0.2341 0.96173 0.0
H112 H 0.14826 0.2772 0.97758 0.0
H113 H 0.31921 0.20121 0.9884 0.0
H114 H 0.32423 0.16806 0.94688 0.0
H115 H 0.16792 0.16556 0.9426 0.0
C116 C 0.15543 0.22813 0.03582 0.0
C117 C 0.18377 0.23787 0.05644 0.0
C118 C 0.23473 0.23758 0.05454 0.0
C119 C 0.25717 0.2272 0.03239 0.0
C120 C 0.22803 0.21728 0.01241 0.0
C121 C 0.17824 0.21762 0.01399 0.0
C122 C 0.15489 0.20271 0.99045 0.0
C123 C 0.12363 0.15702 0.99368 0.0
C124 C 0.12542 0.24433 0.97975 0.0
C125 C 0.19926 0.19272 0.97546 0.0
C126 C 0.24118 0.20206 0.98824 0.0
C127 C 0.28662 0.19411 0.97819 0.0
C128 C 0.28913 0.1754 0.95462 0.0
C129 C 0.24646 0.16431 0.94162 0.0
C130 C 0.20113 0.17379 0.95212 0.0
H131 H 0.76251 0.62897 0.28639 0.0
H132 H 0.79642 0.76247 0.32405 0.0
H133 H 0.81764 0.80086 0.28527 0.0
H134 H 0.85661 0.63368 0.24467 0.0
H135 H 0.82249 0.61007 0.21952 0.0
H136 H 0.8057 0.59417 0.24989 0.0
H137 H 0.7192 0.62577 0.24242 0.0
H138 H 0.73564 0.64154 0.21193 0.0
H139 H 0.71094 0.68662 0.23182 0.0
H140 H 0.84507 0.82124 0.24363 0.0
H141 H 0.87028 0.82469 0.20083 0.0
H142 H 0.81356 0.68018 0.18946 0.0
C143 C 0.77359 0.66652 0.28638 0.0
C144 C 0.77789 0.6928 0.30816 0.0
C145 C 0.7927 0.74178 0.30752 0.0
C146 C 0.80485 0.76388 0.2856 0.0
C147 C 0.80119 0.73672 0.26449 0.0
C148 C 0.7852 0.68936 0.26461 0.0
C149 C 0.78616 0.66779 0.23944 0.0
C150 C 0.81975 0.62385 0.23833 0.0
C151 C 0.73493 0.65467 0.2309 0.0
C152 C 0.80663 0.70996 0.22531 0.0
C153 C 0.81509 0.74933 0.24014 0.0
C154 C 0.83767 0.79109 0.23171 0.0
C155 C 0.85204 0.79264 0.20747 0.0
C156 C 0.84318 0.75297 0.19195 0.0
C157 C 0.81968 0.71138 0.20091 0.0
H158 H 0.36162 0.34062 0.55087 0.0
H159 H 0.24952 0.23387 0.56398 0.0
H160 H 0.21783 0.24675 0.52262 0.0
H161 H 0.2865 0.42215 0.51539 0.0
H162 H 0.33564 0.43871 0.49567 0.0
H163 H 0.34766 0.42196 0.5265 0.0
H164 H 0.40674 0.35623 0.51154 0.0
H165 H 0.39461 0.37245 0.48069 0.0
H166 H 0.38573 0.31103 0.49048 0.0
H167 H 0.2037 0.26656 0.47833 0.0
H168 H 0.20299 0.2977 0.43637 0.0
H169 H 0.32149 0.39463 0.45397 0.0
C170 C 0.3301 0.32031 0.5451 0.0
C171 C 0.30801 0.28615 0.56043 0.0
C172 C 0.26671 0.26038 0.55243 0.0
C173 C 0.24865 0.26734 0.52899 0.0
C174 C 0.27188 0.30079 0.51412 0.0
C175 C 0.31119 0.32744 0.52205 0.0
C176 C 0.32978 0.36114 0.5027 0.0
C177 C 0.32456 0.41413 0.51054 0.0
C178 C 0.38232 0.34948 0.49596 0.0
C179 C 0.29551 0.3486 0.48239 0.0
C180 C 0.26249 0.31354 0.4892 0.0
C181 C 0.22891 0.29453 0.47293 0.0
C182 C 0.2289 0.31219 0.44916 0.0
C183 C 0.26189 0.34876 0.44211 0.0
C184 C 0.29541 0.36711 0.45899 0.0
H185 H 0.70742 0.8759 0.78952 0.0
H186 H 0.76931 0.73872 0.81007 0.0
H187 H 0.75805 0.70869 0.7682 0.0
H188 H 0.61534 0.82627 0.7532 0.0
H189 H 0.61673 0.87433 0.73132 0.0
H190 H 0.63447 0.88606 0.76204 0.0
H191 H 0.71705 0.91901 0.7471 0.0
H192 H 0.69959 0.90717 0.7163 0.0
H193 H 0.75439 0.88174 0.72814 0.0
H194 H 0.73725 0.69338 0.72406 0.0
H195 H 0.70197 0.69142 0.68292 0.0
H196 H 0.65038 0.83749 0.69283 0.0
C197 C 0.71932 0.83979 0.78512 0.0
C198 C 0.73972 0.80972 0.80285 0.0
C199 C 0.75377 0.76231 0.79662 0.0
C200 C 0.74773 0.7451 0.77291 0.0
C201 C 0.72721 0.7757 0.75583 0.0
C202 C 0.71282 0.8219 0.76177 0.0
C203 C 0.68804 0.84631 0.74083 0.0
C204 C 0.63554 0.85895 0.74723 0.0
C205 C 0.71649 0.89121 0.73261 0.0
C206 C 0.69027 0.80654 0.72217 0.0
C207 C 0.71365 0.76633 0.73095 0.0
C208 C 0.71903 0.72474 0.71699 0.0
C209 C 0.69908 0.72398 0.69365 0.0
C210 C 0.67352 0.76428 0.68479 0.0
C211 C 0.66982 0.80618 0.69915 0.0
H212 H 0.18711 0.38879 0.29472 0.0
H213 H 0.28654 0.27485 0.31358 0.0
H214 H 0.27262 0.23648 0.27363 0.0
H215 H 0.10162 0.31115 0.26359 0.0
H216 H 0.08712 0.3562 0.24136 0.0
H217 H 0.10569 0.37432 0.27122 0.0
H218 H 0.17432 0.42664 0.25279 0.0
H219 H 0.15606 0.40857 0.22289 0.0
H220 H 0.21731 0.39913 0.23267 0.0
H221 H 0.2514 0.21431 0.23015 0.0
H222 H 0.21834 0.20558 0.18869 0.0
H223 H 0.12815 0.33059 0.20056 0.0
C224 C 0.20593 0.35574 0.29042 0.0
C225 C 0.2382 0.33486 0.30699 0.0
C226 C 0.26168 0.29128 0.301 0.0
C227 C 0.25409 0.2694 0.27838 0.0
C228 C 0.22221 0.29118 0.26231 0.0
C229 C 0.19793 0.33297 0.26827 0.0
C230 C 0.16455 0.34857 0.24822 0.0
C231 C 0.11161 0.34747 0.2566 0.0
C232 C 0.17895 0.39869 0.23858 0.0
C233 C 0.17434 0.30952 0.22983 0.0
C234 C 0.20804 0.27695 0.23811 0.0
C235 C 0.22449 0.23921 0.22363 0.0
C236 C 0.20572 0.2346 0.20015 0.0
C237 C 0.17041 0.26707 0.19168 0.0
C238 C 0.15455 0.30477 0.20678 0.0
H239 H 0.69809 0.69148 0.55874 0.0
H240 H 0.61917 0.82207 0.54284 0.0
H241 H 0.64689 0.81855 0.50048 0.0
H242 H 0.80051 0.71113 0.51586 0.0
H243 H 0.80211 0.64829 0.50746 0.0
H244 H 0.78322 0.66549 0.53741 0.0
H245 H 0.70308 0.6182 0.53141 0.0
H246 H 0.72151 0.60118 0.50145 0.0
H247 H 0.66517 0.63207 0.50592 0.0
H248 H 0.67634 0.79735 0.45957 0.0
H249 H 0.70282 0.75794 0.42193 0.0
H250 H 0.75897 0.63806 0.46344 0.0
C251 C 0.68808 0.72005 0.54644 0.0
C252 C 0.65732 0.75754 0.55395 0.0
C253 C 0.64318 0.7934 0.53732 0.0
C254 C 0.65885 0.79176 0.5133 0.0
C255 C 0.68816 0.75368 0.5062 0.0
C256 C 0.70258 0.71833 0.52221 0.0
C257 C 0.7294 0.67842 0.50925 0.0
C258 C 0.78194 0.67569 0.51802 0.0
C259 C 0.70321 0.6296 0.51218 0.0
C260 C 0.72674 0.69634 0.48345 0.0
C261 C 0.70358 0.74025 0.48221 0.0
C262 C 0.69498 0.7632 0.4603 0.0
C263 C 0.71006 0.74048 0.43902 0.0
C264 C 0.73293 0.695 0.43979 0.0
C265 C 0.74178 0.67295 0.46233 0.0
H266 H 0.35227 0.16042 0.69874 0.0
H267 H 0.26106 0.28593 0.69127 0.0
H268 H 0.23033 0.27339 0.73289 0.0
H269 H 0.26491 0.08868 0.73294 0.0
H270 H 0.31099 0.06091 0.75108 0.0
H271 H 0.32447 0.07974 0.72068 0.0
H272 H 0.39591 0.13164 0.73665 0.0
H273 H 0.38244 0.11332 0.76709 0.0
H274 H 0.38504 0.17654 0.75959 0.0
H275 H 0.21563 0.25053 0.77681 0.0
H276 H 0.21089 0.2138 0.81759 0.0
H277 H 0.3073 0.10024 0.79435 0.0
C278 C 0.32553 0.18501 0.70583 0.0
C279 C 0.30908 0.22423 0.69202 0.0
C280 C 0.27383 0.25553 0.70167 0.0
C281 C 0.25641 0.2488 0.72526 0.0
C282 C 0.27397 0.21006 0.7386 0.0
C283 C 0.30706 0.17818 0.72902 0.0
C284 C 0.31981 0.13903 0.74681 0.0
C285 C 0.30409 0.08914 0.73731 0.0
C286 C 0.37401 0.14025 0.75289 0.0
C287 C 0.28958 0.15437 0.76814 0.0
C288 C 0.26364 0.19561 0.76321 0.0
C289 C 0.23518 0.21781 0.78074 0.0
C290 C 0.23287 0.19692 0.80382 0.0
C291 C 0.25833 0.15405 0.8089 0.0
C292 C 0.28688 0.13264 0.7908 0.0
H293 H 0.87212 0.72623 0.03527 0.0
H294 H 0.7485 0.77983 0.07494 0.0
H295 H 0.70606 0.79464 0.03649 0.0
H296 H 0.87161 0.80977 0.99023 0.0
H297 H 0.88807 0.76974 0.96594 0.0
H298 H 0.90567 0.75598 0.99638 0.0
H299 H 0.86338 0.6725 0.99325 0.0
H300 H 0.84588 0.68585 0.96264 0.0
H301 H 0.80074 0.66905 0.98457 0.0
H302 H 0.68431 0.81829 0.99458 0.0
H303 H 0.68135 0.84196 0.95154 0.0
H304 H 0.81566 0.76735 0.93849 0.0
C305 C 0.83558 0.73979 0.03585 0.0
C306 C 0.81349 0.75189 0.05801 0.0
C307 C 0.76589 0.77003 0.05812 0.0
C308 C 0.74152 0.77853 0.03639 0.0
C309 C 0.7649 0.76769 0.01478 0.0
C310 C 0.81049 0.7478 0.01432 0.0
C311 C 0.82898 0.74275 0.98869 0.0
C312 C 0.87636 0.77127 0.98512 0.0
C313 C 0.83509 0.68936 0.98189 0.0
C314 C 0.78772 0.7652 0.97488 0.0
C315 C 0.751 0.77915 0.99028 0.0
C316 C 0.71196 0.80614 0.98222 0.0
C317 C 0.71065 0.81957 0.95786 0.0
C318 C 0.74768 0.80533 0.94187 0.0
C319 C 0.78614 0.77704 0.95033 0.0
H320 H 0.08771 0.08685 0.12895 0.0
H321 H 0.96007 0.17209 0.11476 0.0
H322 H 0.91142 0.09717 0.11144 0.0
H323 H 0.06014 0.99086 0.08772 0.0
H324 H 0.0835 0.94413 0.10697 0.0
H325 H 0.10809 0.00438 0.10874 0.0
H326 H 0.08948 0.00709 0.15459 0.0
H327 H 0.06507 0.94675 0.15299 0.0
H328 H 0.02889 0.99504 0.16494 0.0
H329 H 0.87707 0.01314 0.10926 0.0
H330 H 0.85864 0.92595 0.10916 0.0
H331 H 0.0089 0.89507 0.1245 0.0
C332 C 0.04946 0.08979 0.12528 0.0
C333 C 0.02758 0.13531 0.12217 0.0
C334 C 0.97751 0.13761 0.11727 0.0
C335 C 0.94964 0.09527 0.11532 0.0
C336 C 0.97244 0.05098 0.11829 0.0
C337 C 0.02117 0.04793 0.12324 0.0
C338 C 0.0369 0.99584 0.12552 0.0
C339 C 0.07437 0.98307 0.10608 0.0
C340 C 0.05621 0.98559 0.15103 0.0
C341 C 0.98937 0.96998 0.12106 0.0
C342 C 0.95268 0.0025 0.11692 0.0
C343 C 0.90549 0.98736 0.11248 0.0
C344 C 0.89542 0.93773 0.11244 0.0
C345 C 0.93235 0.9037 0.11678 0.0
C346 C 0.97998 0.92019 0.12102 0.0
H347 H 0.09039 0.42991 0.37774 0.0
H348 H 0.17838 0.56008 0.37671 0.0
H349 H 0.10445 0.6095 0.37868 0.0
H350 H 0.99586 0.47434 0.3401 0.0
H351 H 0.94836 0.44369 0.35634 0.0
H352 H 0.00817 0.41874 0.3557 0.0
H353 H 0.00998 0.41803 0.40249 0.0
H354 H 0.95016 0.44304 0.40329 0.0
H355 H 0.99894 0.47313 0.41889 0.0
H356 H 0.02108 0.64446 0.38037 0.0
H357 H 0.93419 0.66303 0.38045 0.0
H358 H 0.90016 0.50989 0.3797 0.0
C359 C 0.09415 0.46883 0.37806 0.0
C360 C 0.14014 0.49124 0.37717 0.0
C361 C 0.14352 0.54222 0.37742 0.0
C362 C 0.10175 0.57053 0.37857 0.0
C363 C 0.05697 0.54725 0.37939 0.0
C364 C 0.05289 0.49756 0.37907 0.0
C365 C 1.00045 0.48151 0.3795 0.0
C366 C 0.98746 0.45289 0.35654 0.0
C367 C 0.98924 0.4522 0.40241 0.0
C368 C 0.97556 0.52998 0.38001 0.0
C369 C 0.00887 0.56739 0.38007 0.0
C370 C 0.9947 0.61547 0.38035 0.0
C371 C 0.94522 0.62562 0.38042 0.0
C372 C 0.91038 0.58791 0.3801 0.0
C373 C 0.92591 0.53947 0.38 0.0
H374 H 0.48697 0.38776 0.61191 0.0
H375 H 0.38562 0.40089 0.67127 0.0
H376 H 0.40816 0.48655 0.67614 0.0
H377 H 0.57954 0.47141 0.63627 0.0
H378 H 0.59347 0.49613 0.60698 0.0
H379 H 0.57272 0.43459 0.60959 0.0
H380 H 0.5035 0.45254 0.57954 0.0
H381 H 0.52365 0.51425 0.57707 0.0
H382 H 0.46237 0.50103 0.58593 0.0
H383 H 0.43729 0.57171 0.67308 0.0
H384 H 0.47406 0.65071 0.66322 0.0
H385 H 0.55562 0.58379 0.60535 0.0
C386 C 0.47048 0.40846 0.62628 0.0
C387 C 0.43485 0.38763 0.64136 0.0
C388 C 0.41315 0.41611 0.65959 0.0
C389 C 0.42566 0.46481 0.66249 0.0
C390 C 0.45987 0.4847 0.64696 0.0
C391 C 0.48228 0.45749 0.62931 0.0
C392 C 0.51612 0.48856 0.61429 0.0
C393 C 0.56857 0.47166 0.61695 0.0
C394 C 0.50045 0.48912 0.58763 0.0
C395 C 0.50874 0.5374 0.62612 0.0
C396 C 0.47627 0.53426 0.64498 0.0
C397 C 0.463 0.57462 0.65844 0.0
C398 C 0.48391 0.61937 0.65264 0.0
C399 C 0.51758 0.62345 0.63351 0.0
C400 C 0.5299 0.58184 0.62005 0.0
H401 H 0.61804 0.984 0.86833 0.0
H402 H 0.58427 0.83635 0.88872 0.0
H403 H 0.49873 0.8575 0.89325 0.0
H404 H 0.53236 0.042 0.9086 0.0
H405 H 0.51585 0.08784 0.88714 0.0
H406 H 0.57527 0.06192 0.88618 0.0
H407 H 0.56224 0.03825 0.84136 0.0
H408 H 0.50281 0.0641 0.84218 0.0
H409 H 0.51041 0.00212 0.83311 0.0
H410 H 0.417 0.89337 0.8954 0.0
H411 H 0.34286 0.94205 0.89372 0.0
H412 H 0.42746 0.06643 0.87104 0.0
C413 C 0.5926 0.95631 0.87387 0.0
C414 C 0.6079 0.90853 0.87821 0.0
C415 C 0.57346 0.87316 0.88522 0.0
C416 C 0.52472 0.88481 0.88792 0.0
C417 C 0.51068 0.93199 0.88342 0.0
C418 C 0.54339 0.96724 0.87645 0.0
C419 C 0.51803 0.0148 0.87205 0.0
C420 C 0.53648 0.05395 0.88954 0.0
C421 C 0.52371 0.03074 0.8456 0.0
C422 C 0.46619 1.00057 0.87765 0.0
C423 C 0.46294 0.95267 0.88429 0.0
C424 C 0.419 0.93097 0.89023 0.0
C425 C 0.37709 0.9589 0.88924 0.0
C426 C 0.37934 0.00796 0.88226 0.0
C427 C 0.4246 0.029 0.87647 0.0
H428 H 0.92192 0.58584 0.12612 0.0
H429 H 0.04855 0.67313 0.1101 0.0
H430 H 0.09757 0.599 0.10713 0.0
H431 H 0.98171 0.49764 0.16271 0.0
H432 H 0.9456 0.44794 0.15167 0.0
H433 H 0.92087 0.50783 0.15248 0.0
H434 H 0.90147 0.5021 0.10677 0.0
H435 H 0.92629 0.44225 0.10579 0.0
H436 H 0.94909 0.48823 0.08574 0.0
H437 H 0.13253 0.51517 0.10608 0.0
H438 H 0.15123 0.42823 0.10737 0.0
H439 H 1.00128 0.39592 0.12378 0.0
C440 C 0.96 0.58943 0.12202 0.0
C441 C 0.98152 0.63524 0.11836 0.0
C442 C 0.0314 0.63839 0.11299 0.0
C443 C 0.05946 0.59651 0.11125 0.0
C444 C 0.03702 0.55188 0.11489 0.0
C445 C 0.98842 0.54811 0.12019 0.0
C446 C 0.97299 0.49593 0.12333 0.0
C447 C 0.9542 0.48682 0.14908 0.0
C448 C 0.93523 0.48128 0.10427 0.0
C449 C 0.02055 0.4708 0.11901 0.0
C450 C 0.05703 0.50371 0.11417 0.0
C451 C 0.10423 0.48911 0.10982 0.0
C452 C 0.11448 0.43964 0.11058 0.0
C453 C 0.07769 0.40532 0.11562 0.0
C454 C 0.0301 0.42127 0.11977 0.0
H455 H 0.39969 0.52018 0.36808 0.0
H456 H 0.43172 0.36739 0.3633 0.0
H457 H 0.51886 0.38618 0.36309 0.0
H458 H 0.49777 0.56131 0.3292 0.0
H459 H 0.50962 0.61469 0.34695 0.0
H460 H 0.44961 0.58929 0.34592 0.0
H461 H 0.44877 0.58362 0.39263 0.0
H462 H 0.50882 0.6088 0.3938 0.0
H463 H 0.4962 0.55146 0.40784 0.0
H464 H 0.60278 0.42122 0.36507 0.0
H465 H 0.67736 0.47058 0.36791 0.0
H466 H 0.59096 0.60045 0.37089 0.0
C467 C 0.42505 0.49075 0.36677 0.0
C468 C 0.40888 0.44232 0.36566 0.0
C469 C 0.44323 0.40479 0.36412 0.0
C470 C 0.49285 0.41507 0.364 0.0
C471 C 0.50766 0.46311 0.36536 0.0
C472 C 0.47483 0.50038 0.36659 0.0
C473 C 0.50037 0.54882 0.36828 0.0
C474 C 0.48865 0.58038 0.34627 0.0
C475 C 0.48779 0.57468 0.39205 0.0
C476 C 0.5526 0.53288 0.36799 0.0
C477 C 0.55604 0.4833 0.36631 0.0
C478 C 0.60056 0.46012 0.36625 0.0
C479 C 0.6427 0.4884 0.36791 0.0
C480 C 0.63998 0.53929 0.36954 0.0
C481 C 0.59424 0.56162 0.36953 0.0
H482 H 0.49408 0.12086 0.62781 0.0
H483 H 0.3543 0.09288 0.59498 0.0
H484 H 0.37376 0.0067 0.59163 0.0
H485 H 0.56112 0.03282 0.59129 0.0
H486 H 0.59937 0.01521 0.61603 0.0
H487 H 0.5756 0.07551 0.61486 0.0
H488 H 0.53864 0.06404 0.65747 0.0
H489 H 0.56193 0.0036 0.65868 0.0
H490 H 0.49833 0.01388 0.66294 0.0
H491 H 0.40518 0.92293 0.59426 0.0
H492 H 0.44984 0.84701 0.60011 0.0
H493 H 0.57046 0.92806 0.63004 0.0
C494 C 0.46795 0.09666 0.6196 0.0
C495 C 0.42266 0.1137 0.61166 0.0
C496 C 0.38923 0.08079 0.60121 0.0
C497 C 0.39989 0.03165 0.59923 0.0
C498 C 0.4443 0.01579 0.60764 0.0
C499 C 0.4781 0.04723 0.61738 0.0
C500 C 0.52278 0.02024 0.62539 0.0
C501 C 0.56735 0.03694 0.61103 0.0
C502 C 0.53087 0.02578 0.65274 0.0
C503 C 0.50844 0.96887 0.61885 0.0
C504 C 0.46293 0.96719 0.60872 0.0
C505 C 0.44107 0.92376 0.60196 0.0
C506 C 0.46659 0.88082 0.60544 0.0
C507 C 0.5136 0.88165 0.61542 0.0
C508 C 0.53468 0.92635 0.6222 0.0
H509 H 0.88452 0.98552 0.87061 0.0
H510 H 0.91823 0.83332 0.87745 0.0
H511 H 0.00476 0.85282 0.87802 0.0
H512 H 0.98443 0.01565 0.83123 0.0
H513 H 0.99602 0.07365 0.84493 0.0
H514 H 0.93592 0.0484 0.8453 0.0
H515 H 0.93355 0.05636 0.89191 0.0
H516 H 0.99361 0.08172 0.89167 0.0
H517 H 0.98051 0.02917 0.90972 0.0
H518 H 0.08737 0.88741 0.87822 0.0
H519 H 0.1622 0.93622 0.87769 0.0
H520 H 0.07734 0.06637 0.87002 0.0
C521 C 0.91019 0.95643 0.87226 0.0
C522 C 0.89445 0.90788 0.87397 0.0
C523 C 0.92921 0.8708 0.87607 0.0
C524 C 0.97859 0.88144 0.87643 0.0
C525 C 0.993 0.92941 0.87462 0.0
C526 C 0.96005 0.96643 0.87257 0.0
C527 C 0.98582 0.01486 0.87083 0.0
C528 C 0.97489 0.03959 0.84663 0.0
C529 C 0.97258 0.04744 0.89231 0.0
C530 C 0.03813 0.99901 0.87219 0.0
C531 C 0.04127 0.94954 0.87445 0.0
C532 C 0.08549 0.92622 0.87639 0.0
C533 C 0.12779 0.95422 0.87607 0.0
C534 C 0.12563 0.00498 0.87372 0.0
C535 C 0.08012 0.02756 0.87167 0.0
loop_
_geom_bond_atom_site_label_1
_geom_bond_atom_site_label_2
_geom_bond_distance
_geom_bond_site_symmetry_2
_ccdc_geom_bond_type
In0 O1 2.294 . S
In0 O2 2.326 . S
In0 O6 2.266 . S
In0 O7 2.326 . S
In0 O8 2.266 . S
In0 O9 2.326 . S
In0 O11 2.294 . S
In0 O12 2.326 . S
O1 In0 2.294 . S
O1 C10 1.240 . S
O2 In0 2.326 . S
O2 C10 1.252 . S
C3 O6 1.252 . S
C3 O7 1.260 . S
C4 O11 1.240 . S
C4 O12 1.252 . S
C5 O8 1.252 . S
C5 O9 1.260 . S
O6 In0 2.266 . S
O6 C3 1.252 . S
O7 In0 2.326 . S
O7 C3 1.260 . S
O8 In0 2.266 . S
O8 C5 1.252 . S
O9 In0 2.326 . S
O9 C5 1.260 . S
C10 O1 1.240 . S
C10 O2 1.252 . S
O11 In0 2.294 . S
O11 C4 1.240 . S
O12 In0 2.326 . S
O12 C4 1.252 . S
In13 O14 2.294 . S
In13 O15 2.326 . S
In13 O19 2.266 . S
In13 O20 2.326 . S
In13 O21 2.266 . S
In13 O22 2.326 . S
In13 O24 2.294 . S
In13 O25 2.326 . S
O14 In13 2.294 . S
O14 C23 1.240 . S
O15 In13 2.326 . S
O15 C23 1.252 . S
C16 O19 1.252 . S
C16 O20 1.260 . S
C17 O24 1.240 . S
C17 O25 1.252 . S
C18 O21 1.252 . S
C18 O22 1.260 . S
O19 In13 2.266 . S
O19 C16 1.252 . S
O20 In13 2.326 . S
O20 C16 1.260 . S
O21 In13 2.266 . S
O21 C18 1.252 . S
O22 In13 2.326 . S
O22 C18 1.260 . S
C23 O14 1.240 . S
C23 O15 1.252 . S
O24 In13 2.294 . S
O24 C17 1.240 . S
O25 In13 2.326 . S
O25 C17 1.252 . S
In26 O27 2.294 . S
In26 O28 2.326 . S
In26 O32 2.266 . S
In26 O33 2.326 . S
In26 O34 2.266 . S
In26 O35 2.326 . S
In26 O37 2.294 . S
In26 O38 2.326 . S
O27 In26 2.294 . S
O27 C36 1.240 . S
O28 In26 2.326 . S
O28 C36 1.252 . S
C29 O32 1.252 . S
C29 O33 1.260 . S
C30 O37 1.240 . S
C30 O38 1.252 . S
C31 O34 1.252 . S
C31 O35 1.260 . S
O32 In26 2.266 . S
O32 C29 1.252 . S
O33 In26 2.326 . S
O33 C29 1.260 . S
O34 In26 2.266 . S
O34 C31 1.252 . S
O35 In26 2.326 . S
O35 C31 1.260 . S
C36 O27 1.240 . S
C36 O28 1.252 . S
O37 In26 2.294 . S
O37 C30 1.240 . S
O38 In26 2.326 . S
O38 C30 1.252 . S
In39 O40 2.294 . S
In39 O41 2.326 . S
In39 O45 2.266 . S
In39 O46 2.326 . S
In39 O47 2.266 . S
In39 O48 2.326 . S
In39 O50 2.294 . S
In39 O51 2.326 . S
O40 In39 2.294 . S
O40 C49 1.240 . S
O41 In39 2.326 . S
O41 C49 1.252 . S
C42 O45 1.252 . S
C42 O46 1.260 . S
C43 O50 1.240 . S
C43 O51 1.252 . S
C44 O47 1.252 . S
C44 O48 1.260 . S
O45 In39 2.266 . S
O45 C42 1.252 . S
O46 In39 2.326 . S
O46 C42 1.260 . S
O47 In39 2.266 . S
O47 C44 1.252 . S
O48 In39 2.326 . S
O48 C44 1.260 . S
C49 O40 1.240 . S
C49 O41 1.252 . S
O50 In39 2.294 . S
O50 C43 1.240 . S
O51 In39 2.326 . S
O51 C43 1.252 . S
In52 O53 2.294 . S
In52 O54 2.326 . S
In52 O58 2.266 . S
In52 O59 2.326 . S
In52 O60 2.266 . S
In52 O61 2.326 . S
In52 O63 2.294 . S
In52 O64 2.326 . S
O53 In52 2.294 . S
O53 C62 1.240 . S
O54 In52 2.326 . S
O54 C62 1.252 . S
C55 O58 1.252 . S
C55 O59 1.260 . S
C56 O63 1.240 . S
C56 O64 1.252 . S
C57 O60 1.252 . S
C57 O61 1.260 . S
O58 In52 2.266 . S
O58 C55 1.252 . S
O59 In52 2.326 . S
O59 C55 1.260 . S
O60 In52 2.266 . S
O60 C57 1.252 . S
O61 In52 2.326 . S
O61 C57 1.260 . S
C62 O53 1.240 . S
C62 O54 1.252 . S
O63 In52 2.294 . S
O63 C56 1.240 . S
O64 In52 2.326 . S
O64 C56 1.252 . S
In65 O66 2.294 . S
In65 O67 2.326 . S
In65 O71 2.266 . S
In65 O72 2.326 . S
In65 O73 2.266 . S
In65 O74 2.326 . S
In65 O76 2.294 . S
In65 O77 2.326 . S
O66 In65 2.294 . S
O66 C75 1.240 . S
O67 In65 2.326 . S
O67 C75 1.252 . S
C68 O71 1.252 . S
C68 O72 1.260 . S
C69 O76 1.240 . S
C69 O77 1.252 . S
C70 O73 1.252 . S
C70 O74 1.260 . S
O71 In65 2.266 . S
O71 C68 1.252 . S
O72 In65 2.326 . S
O72 C68 1.260 . S
O73 In65 2.266 . S
O73 C70 1.252 . S
O74 In65 2.326 . S
O74 C70 1.260 . S
C75 O66 1.240 . S
C75 O67 1.252 . S
O76 In65 2.294 . S
O76 C69 1.240 . S
O77 In65 2.326 . S
O77 C69 1.252 . S
In78 O79 2.294 . S
In78 O80 2.326 . S
In78 O84 2.266 . S
In78 O85 2.326 . S
In78 O86 2.266 . S
In78 O87 2.326 . S
In78 O89 2.294 . S
In78 O90 2.326 . S
O79 In78 2.294 . S
O79 C88 1.240 . S
O80 In78 2.326 . S
O80 C88 1.252 . S
C81 O84 1.252 . S
C81 O85 1.260 . S
C82 O89 1.240 . S
C82 O90 1.252 . S
C83 O86 1.252 . S
C83 O87 1.260 . S
O84 In78 2.266 . S
O84 C81 1.252 . S
O85 In78 2.326 . S
O85 C81 1.260 . S
O86 In78 2.266 . S
O86 C83 1.252 . S
O87 In78 2.326 . S
O87 C83 1.260 . S
C88 O79 1.240 . S
C88 O80 1.252 . S
O89 In78 2.294 . S
O89 C82 1.240 . S
O90 In78 2.326 . S
O90 C82 1.252 . S
In91 O92 2.294 . S
In91 O93 2.326 . S
In91 O97 2.266 . S
In91 O98 2.326 . S
In91 O99 2.266 . S
In91 O100 2.326 . S
In91 O102 2.294 . S
In91 O103 2.326 . S
O92 In91 2.294 . S
O92 C101 1.240 . S
O93 In91 2.326 . S
O93 C101 1.252 . S
C94 O97 1.252 . S
C94 O98 1.260 . S
C95 O102 1.240 . S
C95 O103 1.252 . S
C96 O99 1.252 . S
C96 O100 1.260 . S
O97 In91 2.266 . S
O97 C94 1.252 . S
O98 In91 2.326 . S
O98 C94 1.260 . S
O99 In91 2.266 . S
O99 C96 1.252 . S
O100 In91 2.326 . S
O100 C96 1.260 . S
C101 O92 1.240 . S
C101 O93 1.252 . S
O102 In91 2.294 . S
O102 C95 1.240 . S
O103 In91 2.326 . S
O103 C95 1.252 . S
H104 C116 0.930 . S
H105 C118 0.930 . S
H106 C119 0.930 . S
H107 C123 0.972 . S
H108 C123 0.959 . S
H109 C123 0.961 1_554 S
H110 C124 0.960 . S
H111 C124 0.961 . S
H112 C124 0.959 . S
H113 C127 0.929 . S
H114 C128 0.931 . S
H115 C130 0.930 . S
C116 H104 0.930 . S
C116 C117 1.399 . S
C116 C121 1.399 . S
C117 C116 1.399 . S
C117 C118 1.376 . S
C118 H105 0.930 . S
C118 C117 1.376 . S
C118 C119 1.388 . S
C119 H106 0.930 . S
C119 C118 1.388 . S
C119 C120 1.390 . S
C120 C119 1.390 . S
C120 C121 1.394 . S
C120 C126 1.465 1_554 S
C121 C116 1.399 . S
C121 C120 1.394 . S
C121 C122 1.516 1_554 S
C122 C121 1.516 1_556 S
C122 C123 1.502 . S
C122 C124 1.561 . S
C122 C125 1.526 . S
C123 H107 0.972 . S
C123 H108 0.959 . S
C123 H109 0.961 1_556 S
C123 C122 1.502 . S
C124 H110 0.960 . S
C124 H111 0.961 . S
C124 H112 0.959 . S
C124 C122 1.561 . S
C125 C122 1.526 . S
C125 C126 1.396 . S
C125 C130 1.390 . S
C126 C120 1.465 1_556 S
C126 C125 1.396 . S
C126 C127 1.399 . S
C127 H113 0.929 . S
C127 C126 1.399 . S
C127 C128 1.385 . S
C128 H114 0.931 . S
C128 C127 1.385 . S
C128 C129 1.389 . S
C129 C128 1.389 . S
C129 C130 1.387 . S
C130 H115 0.930 . S
C130 C125 1.390 . S
C130 C129 1.387 . S
H131 C143 0.930 . S
H132 C145 0.930 . S
H133 C146 0.930 . S
H134 C150 0.959 . S
H135 C150 0.959 . S
H136 C150 0.961 . S
H137 C151 0.960 . S
H138 C151 0.961 . S
H139 C151 0.959 . S
H140 C154 0.929 . S
H141 C155 0.931 . S
H142 C157 0.930 . S
C143 H131 0.930 . S
C143 C144 1.399 . S
C143 C148 1.399 . S
C144 C143 1.399 . S
C144 C145 1.376 . S
C145 H132 0.930 . S
C145 C144 1.376 . S
C145 C146 1.388 . S
C146 H133 0.930 . S
C146 C145 1.388 . S
C146 C147 1.390 . S
C147 C146 1.390 . S
C147 C148 1.394 . S
C147 C153 1.465 . S
C148 C143 1.399 . S
C148 C147 1.394 . S
C148 C149 1.516 . S
C149 C148 1.516 . S
C149 C150 1.502 . S
C149 C151 1.561 . S
C149 C152 1.526 . S
C150 H134 0.959 . S
C150 H135 0.959 . S
C150 H136 0.961 . S
C150 C149 1.502 . S
C151 H137 0.960 . S
C151 H138 0.961 . S
C151 H139 0.959 . S
C151 C149 1.561 . S
C152 C149 1.526 . S
C152 C153 1.396 . S
C152 C157 1.390 . S
C153 C147 1.465 . S
C153 C152 1.396 . S
C153 C154 1.399 . S
C154 H140 0.929 . S
C154 C153 1.399 . S
C154 C155 1.385 . S
C155 H141 0.931 . S
C155 C154 1.385 . S
C155 C156 1.389 . S
C156 C155 1.389 . S
C156 C157 1.387 . S
C157 H142 0.930 . S
C157 C152 1.390 . S
C157 C156 1.387 . S
H158 C170 0.930 . S
H159 C172 0.930 . S
H160 C173 0.930 . S
H161 C177 0.959 . S
H162 C177 0.959 . S
H163 C177 0.961 . S
H164 C178 0.960 . S
H165 C178 0.961 . S
H166 C178 0.959 . S
H167 C181 0.929 . S
H168 C182 0.931 . S
H169 C184 0.930 . S
C170 H158 0.930 . S
C170 C171 1.399 . S
C170 C175 1.399 . S
C171 C170 1.399 . S
C171 C172 1.376 . S
C172 H159 0.930 . S
C172 C171 1.376 . S
C172 C173 1.388 . S
C173 H160 0.930 . S
C173 C172 1.388 . S
C173 C174 1.390 . S
C174 C173 1.390 . S
C174 C175 1.394 . S
C174 C180 1.465 . S
C175 C170 1.399 . S
C175 C174 1.394 . S
C175 C176 1.516 . S
C176 C175 1.516 . S
C176 C177 1.502 . S
C176 C178 1.561 . S
C176 C179 1.526 . S
C177 H161 0.959 . S
C177 H162 0.959 . S
C177 H163 0.961 . S
C177 C176 1.502 . S
C178 H164 0.960 . S
C178 H165 0.961 . S
C178 H166 0.959 . S
C178 C176 1.561 . S
C179 C176 1.526 . S
C179 C180 1.396 . S
C179 C184 1.390 . S
C180 C174 1.465 . S
C180 C179 1.396 . S
C180 C181 1.399 . S
C181 H167 0.929 . S
C181 C180 1.399 . S
C181 C182 1.385 . S
C182 H168 0.931 . S
C182 C181 1.385 . S
C182 C183 1.389 . S
C183 C182 1.389 . S
C183 C184 1.387 . S
C184 H169 0.930 . S
C184 C179 1.390 . S
C184 C183 1.387 . S
H185 C197 0.930 . S
H186 C199 0.930 . S
H187 C200 0.930 . S
H188 C204 0.959 . S
H189 C204 0.959 . S
H190 C204 0.961 . S
H191 C205 0.960 . S
H192 C205 0.961 . S
H193 C205 0.959 . S
H194 C208 0.929 . S
H195 C209 0.931 . S
H196 C211 0.930 . S
C197 H185 0.930 . S
C197 C198 1.399 . S
C197 C202 1.399 . S
C198 C197 1.399 . S
C198 C199 1.376 . S
C199 H186 0.930 . S
C199 C198 1.376 . S
C199 C200 1.388 . S
C200 H187 0.930 . S
C200 C199 1.388 . S
C200 C201 1.390 . S
C201 C200 1.390 . S
C201 C202 1.394 . S
C201 C207 1.465 . S
C202 C197 1.399 . S
C202 C201 1.394 . S
C202 C203 1.516 . S
C203 C202 1.516 . S
C203 C204 1.502 . S
C203 C205 1.561 . S
C203 C206 1.526 . S
C204 H188 0.959 . S
C204 H189 0.959 . S
C204 H190 0.961 . S
C204 C203 1.502 . S
C205 H191 0.960 . S
C205 H192 0.961 . S
C205 H193 0.959 . S
C205 C203 1.561 . S
C206 C203 1.526 . S
C206 C207 1.396 . S
C206 C211 1.390 . S
C207 C201 1.465 . S
C207 C206 1.396 . S
C207 C208 1.399 . S
C208 H194 0.929 . S
C208 C207 1.399 . S
C208 C209 1.385 . S
C209 H195 0.931 . S
C209 C208 1.385 . S
C209 C210 1.389 . S
C210 C209 1.389 . S
C210 C211 1.387 . S
C211 H196 0.930 . S
C211 C206 1.390 . S
C211 C210 1.387 . S
H212 C224 0.930 . S
H213 C226 0.930 . S
H214 C227 0.930 . S
H215 C231 0.959 . S
H216 C231 0.959 . S
H217 C231 0.961 . S
H218 C232 0.960 . S
H219 C232 0.961 . S
H220 C232 0.959 . S
H221 C235 0.929 . S
H222 C236 0.931 . S
H223 C238 0.930 . S
C224 H212 0.930 . S
C224 C225 1.399 . S
C224 C229 1.399 . S
C225 C224 1.399 . S
C225 C226 1.376 . S
C226 H213 0.930 . S
C226 C225 1.376 . S
C226 C227 1.388 . S
C227 H214 0.930 . S
C227 C226 1.388 . S
C227 C228 1.390 . S
C228 C227 1.390 . S
C228 C229 1.394 . S
C228 C234 1.465 . S
C229 C224 1.399 . S
C229 C228 1.394 . S
C229 C230 1.516 . S
C230 C229 1.516 . S
C230 C231 1.502 . S
C230 C232 1.561 . S
C230 C233 1.526 . S
C231 H215 0.959 . S
C231 H216 0.959 . S
C231 H217 0.961 . S
C231 C230 1.502 . S
C232 H218 0.960 . S
C232 H219 0.961 . S
C232 H220 0.959 . S
C232 C230 1.561 . S
C233 C230 1.526 . S
C233 C234 1.396 . S
C233 C238 1.390 . S
C234 C228 1.465 . S
C234 C233 1.396 . S
C234 C235 1.399 . S
C235 H221 0.929 . S
C235 C234 1.399 . S
C235 C236 1.385 . S
C236 H222 0.931 . S
C236 C235 1.385 . S
C236 C237 1.389 . S
C237 C236 1.389 . S
C237 C238 1.387 . S
C238 H223 0.930 . S
C238 C233 1.390 . S
C238 C237 1.387 . S
H239 C251 0.930 . S
H240 C253 0.930 . S
H241 C254 0.930 . S
H242 C258 0.959 . S
H243 C258 0.959 . S
H244 C258 0.961 . S
H245 C259 0.960 . S
H246 C259 0.961 . S
H247 C259 0.959 . S
H248 C262 0.929 . S
H249 C263 0.931 . S
H250 C265 0.930 . S
C251 H239 0.930 . S
C251 C252 1.399 . S
C251 C256 1.399 . S
C252 C251 1.399 . S
C252 C253 1.376 . S
C253 H240 0.930 . S
C253 C252 1.376 . S
C253 C254 1.388 . S
C254 H241 0.930 . S
C254 C253 1.388 . S
C254 C255 1.390 . S
C255 C254 1.390 . S
C255 C256 1.394 . S
C255 C261 1.465 . S
C256 C251 1.399 . S
C256 C255 1.394 . S
C256 C257 1.516 . S
C257 C256 1.516 . S
C257 C258 1.502 . S
C257 C259 1.561 . S
C257 C260 1.526 . S
C258 H242 0.959 . S
C258 H243 0.959 . S
C258 H244 0.961 . S
C258 C257 1.502 . S
C259 H245 0.960 . S
C259 H246 0.961 . S
C259 H247 0.959 . S
C259 C257 1.561 . S
C260 C257 1.526 . S
C260 C261 1.396 . S
C260 C265 1.390 . S
C261 C255 1.465 . S
C261 C260 1.396 . S
C261 C262 1.399 . S
C262 H248 0.929 . S
C262 C261 1.399 . S
C262 C263 1.385 . S
C263 H249 0.931 . S
C263 C262 1.385 . S
C263 C264 1.389 . S
C264 C263 1.389 . S
C264 C265 1.387 . S
C265 H250 0.930 . S
C265 C260 1.390 . S
C265 C264 1.387 . S
H266 C278 0.930 . S
H267 C280 0.930 . S
H268 C281 0.930 . S
H269 C285 0.959 . S
H270 C285 0.959 . S
H271 C285 0.961 . S
H272 C286 0.960 . S
H273 C286 0.961 . S
H274 C286 0.959 . S
H275 C289 0.929 . S
H276 C290 0.931 . S
H277 C292 0.930 . S
C278 H266 0.930 . S
C278 C279 1.399 . S
C278 C283 1.399 . S
C279 C278 1.399 . S
C279 C280 1.376 . S
C280 H267 0.930 . S
C280 C279 1.376 . S
C280 C281 1.388 . S
C281 H268 0.930 . S
C281 C280 1.388 . S
C281 C282 1.390 . S
C282 C281 1.390 . S
C282 C283 1.394 . S
C282 C288 1.465 . S
C283 C278 1.399 . S
C283 C282 1.394 . S
C283 C284 1.516 . S
C284 C283 1.516 . S
C284 C285 1.502 . S
C284 C286 1.561 . S
C284 C287 1.526 . S
C285 H269 0.959 . S
C285 H270 0.959 . S
C285 H271 0.961 . S
C285 C284 1.502 . S
C286 H272 0.960 . S
C286 H273 0.961 . S
C286 H274 0.959 . S
C286 C284 1.561 . S
C287 C284 1.526 . S
C287 C288 1.396 . S
C287 C292 1.390 . S
C288 C282 1.465 . S
C288 C287 1.396 . S
C288 C289 1.399 . S
C289 H275 0.929 . S
C289 C288 1.399 . S
C289 C290 1.385 . S
C290 H276 0.931 . S
C290 C289 1.385 . S
C290 C291 1.389 . S
C291 C290 1.389 . S
C291 C292 1.387 . S
C292 H277 0.930 . S
C292 C287 1.390 . S
C292 C291 1.387 . S
H293 C305 0.930 . S
H294 C307 0.930 . S
H295 C308 0.930 . S
H296 C312 0.959 . S
H297 C312 0.959 . S
H298 C312 0.961 . S
H299 C313 0.930 1_554 S
H300 C313 0.961 . S
H301 C313 0.959 . S
H302 C316 0.929 . S
H303 C317 0.931 . S
H304 C319 0.930 . S
C305 H293 0.930 . S
C305 C306 1.399 . S
C305 C310 1.399 . S
C306 C305 1.399 . S
C306 C307 1.376 . S
C307 H294 0.930 . S
C307 C306 1.376 . S
C307 C308 1.388 . S
C308 H295 0.930 . S
C308 C307 1.388 . S
C308 C309 1.390 . S
C309 C308 1.390 . S
C309 C310 1.394 . S
C309 C315 1.465 1_554 S
C310 C305 1.399 . S
C310 C309 1.394 . S
C310 C311 1.516 1_554 S
C311 C310 1.516 1_556 S
C311 C312 1.502 . S
C311 C313 1.561 . S
C311 C314 1.526 . S
C312 H296 0.959 . S
C312 H297 0.959 . S
C312 H298 0.961 . S
C312 C311 1.502 . S
C313 H299 0.930 1_556 S
C313 H300 0.961 . S
C313 H301 0.959 . S
C313 C311 1.561 . S
C314 C311 1.526 . S
C314 C315 1.396 . S
C314 C319 1.390 . S
C315 C309 1.465 1_556 S
C315 C314 1.396 . S
C315 C316 1.399 . S
C316 H302 0.929 . S
C316 C315 1.399 . S
C316 C317 1.385 . S
C317 H303 0.931 . S
C317 C316 1.385 . S
C317 C318 1.389 . S
C318 C317 1.389 . S
C318 C319 1.387 . S
C319 H304 0.930 . S
C319 C314 1.390 . S
C319 C318 1.387 . S
H320 C332 0.930 . S
H321 C334 0.930 . S
H322 C335 0.930 . S
H323 C339 0.959 . S
H324 C339 0.959 . S
H325 C339 0.961 . S
H326 C340 0.960 1_455 S
H327 C340 0.961 1_565 S
H328 C340 0.959 . S
H329 C343 0.929 . S
H330 C344 0.931 . S
H331 C346 0.930 . S
C332 H320 0.930 . S
C332 C333 1.399 . S
C332 C337 1.399 . S
C333 C332 1.399 . S
C333 C334 1.376 . S
C334 H321 0.930 . S
C334 C333 1.376 . S
C334 C335 1.388 1_455 S
C335 H322 0.930 . S
C335 C334 1.388 1_655 S
C335 C336 1.390 . S
C336 C335 1.390 . S
C336 C337 1.394 1_655 S
C336 C342 1.465 1_545 S
C337 C332 1.399 . S
C337 C336 1.394 1_455 S
C337 C338 1.516 1_545 S
C338 C337 1.516 1_565 S
C338 C339 1.502 . S
C338 C340 1.561 1_465 S
C338 C341 1.526 1_455 S
C339 H323 0.959 . S
C339 H324 0.959 . S
C339 H325 0.961 . S
C339 C338 1.502 . S
C340 H326 0.960 1_655 S
C340 H327 0.961 1_545 S
C340 H328 0.959 . S
C340 C338 1.561 1_645 S
C341 C338 1.526 1_655 S
C341 C342 1.396 . S
C341 C346 1.390 . S
C342 C336 1.465 1_565 S
C342 C341 1.396 . S
C342 C343 1.399 . S
C343 H329 0.929 . S
C343 C342 1.399 . S
C343 C344 1.385 . S
C344 H330 0.931 . S
C344 C343 1.385 . S
C344 C345 1.389 . S
C345 C344 1.389 . S
C345 C346 1.387 . S
C346 H331 0.930 . S
C346 C341 1.390 . S
C346 C345 1.387 . S
H347 C359 0.930 . S
H348 C361 0.930 . S
H349 C362 0.930 . S
H350 C366 0.959 . S
H351 C366 0.959 . S
H352 C366 0.961 . S
H353 C367 0.960 . S
H354 C367 0.961 1_655 S
H355 C367 0.959 . S
H356 C370 0.929 . S
H357 C371 0.931 . S
H358 C373 0.930 . S
C359 H347 0.930 . S
C359 C360 1.399 . S
C359 C364 1.399 . S
C360 C359 1.399 . S
C360 C361 1.376 . S
C361 H348 0.930 . S
C361 C360 1.376 . S
C361 C362 1.388 . S
C362 H349 0.930 . S
C362 C361 1.388 . S
C362 C363 1.390 . S
C363 C362 1.390 . S
C363 C364 1.394 . S
C363 C369 1.465 1_455 S
C364 C359 1.399 . S
C364 C363 1.394 . S
C364 C365 1.516 1_455 S
C365 C364 1.516 1_655 S
C365 C366 1.502 . S
C365 C367 1.561 1_655 S
C365 C368 1.526 . S
C366 H350 0.959 . S
C366 H351 0.959 . S
C366 H352 0.961 . S
C366 C365 1.502 . S
C367 H353 0.960 . S
C367 H354 0.961 1_455 S
C367 H355 0.959 . S
C367 C365 1.561 1_455 S
C368 C365 1.526 . S
C368 C369 1.396 . S
C368 C373 1.390 . S
C369 C363 1.465 1_655 S
C369 C368 1.396 . S
C369 C370 1.399 . S
C370 H356 0.929 . S
C370 C369 1.399 . S
C370 C371 1.385 . S
C371 H357 0.931 . S
C371 C370 1.385 . S
C371 C372 1.389 . S
C372 C371 1.389 . S
C372 C373 1.387 . S
C373 H358 0.930 . S
C373 C368 1.390 . S
C373 C372 1.387 . S
H374 C386 0.930 . S
H375 C388 0.930 . S
H376 C389 0.930 . S
H377 C393 0.959 . S
H378 C393 0.959 . S
H379 C393 0.961 . S
H380 C394 0.960 . S
H381 C394 0.961 . S
H382 C394 0.959 . S
H383 C397 0.929 . S
H384 C398 0.931 . S
H385 C400 0.930 . S
C386 H374 0.930 . S
C386 C387 1.399 . S
C386 C391 1.399 . S
C387 C386 1.399 . S
C387 C388 1.376 . S
C388 H375 0.930 . S
C388 C387 1.376 . S
C388 C389 1.388 . S
C389 H376 0.930 . S
C389 C388 1.388 . S
C389 C390 1.390 . S
C390 C389 1.390 . S
C390 C391 1.394 . S
C390 C396 1.465 . S
C391 C386 1.399 . S
C391 C390 1.394 . S
C391 C392 1.516 . S
C392 C391 1.516 . S
C392 C393 1.502 . S
C392 C394 1.561 . S
C392 C395 1.526 . S
C393 H377 0.959 . S
C393 H378 0.959 . S
C393 H379 0.961 . S
C393 C392 1.502 . S
C394 H380 0.960 . S
C394 H381 0.961 . S
C394 H382 0.959 . S
C394 C392 1.561 . S
C395 C392 1.526 . S
C395 C396 1.396 . S
C395 C400 1.390 . S
C396 C390 1.465 . S
C396 C395 1.396 . S
C396 C397 1.399 . S
C397 H383 0.929 . S
C397 C396 1.399 . S
C397 C398 1.385 . S
C398 H384 0.931 . S
C398 C397 1.385 . S
C398 C399 1.389 . S
C399 C398 1.389 . S
C399 C400 1.387 . S
C400 H385 0.930 . S
C400 C395 1.390 . S
C400 C399 1.387 . S
H401 C413 0.930 . S
H402 C415 0.930 . S
H403 C416 0.930 . S
H404 C420 0.959 . S
H405 C420 0.959 . S
H406 C420 0.961 . S
H407 C421 0.960 . S
H408 C421 0.961 . S
H409 C421 0.959 . S
H410 C424 0.929 1_565 S
H411 C425 0.931 . S
H412 C427 0.930 . S
C413 H401 0.930 . S
C413 C414 1.399 . S
C413 C418 1.399 . S
C414 C413 1.399 . S
C414 C415 1.376 . S
C415 H402 0.930 . S
C415 C414 1.376 . S
C415 C416 1.388 . S
C416 H403 0.930 . S
C416 C415 1.388 . S
C416 C417 1.390 . S
C417 C416 1.390 . S
C417 C418 1.394 . S
C417 C423 1.466 1_565 S
C418 C413 1.399 . S
C418 C417 1.394 . S
C418 C419 1.516 1_565 S
C419 C418 1.516 1_545 S
C419 C420 1.502 . S
C419 C421 1.561 1_545 S
C419 C422 1.526 . S
C420 H404 0.959 . S
C420 H405 0.959 . S
C420 H406 0.961 . S
C420 C419 1.502 . S
C421 H407 0.960 . S
C421 H408 0.961 . S
C421 H409 0.959 . S
C421 C419 1.561 1_565 S
C422 C419 1.526 . S
C422 C423 1.395 . S
C422 C427 1.390 . S
C423 C417 1.466 1_545 S
C423 C422 1.395 . S
C423 C424 1.399 . S
C424 H410 0.929 1_545 S
C424 C423 1.399 . S
C424 C425 1.385 . S
C425 H411 0.931 . S
C425 C424 1.385 . S
C425 C426 1.389 . S
C426 C425 1.389 . S
C426 C427 1.387 . S
C427 H412 0.930 . S
C427 C422 1.390 . S
C427 C426 1.387 . S
H428 C440 0.930 . S
H429 C442 0.930 1_455 S
H430 C443 0.930 . S
H431 C447 0.959 . S
H432 C447 0.959 . S
H433 C447 0.961 . S
H434 C448 0.960 . S
H435 C448 0.961 . S
H436 C448 0.959 . S
H437 C451 0.929 . S
H438 C452 0.931 . S
H439 C454 0.930 1_655 S
C440 H428 0.930 . S
C440 C441 1.399 . S
C440 C445 1.399 . S
C441 C440 1.399 . S
C441 C442 1.376 . S
C442 H429 0.930 1_655 S
C442 C441 1.376 . S
C442 C443 1.388 1_655 S
C443 H430 0.930 . S
C443 C442 1.388 1_455 S
C443 C444 1.390 . S
C444 C443 1.390 . S
C444 C445 1.394 1_455 S
C444 C450 1.465 . S
C445 C440 1.399 . S
C445 C444 1.394 1_655 S
C445 C446 1.516 . S
C446 C445 1.516 . S
C446 C447 1.502 . S
C446 C448 1.561 . S
C446 C449 1.526 . S
C447 H431 0.959 . S
C447 H432 0.959 . S
C447 H433 0.961 . S
C447 C446 1.502 . S
C448 H434 0.960 . S
C448 H435 0.961 . S
C448 H436 0.959 . S
C448 C446 1.561 . S
C449 C446 1.526 . S
C449 C450 1.396 1_655 S
C449 C454 1.390 1_655 S
C450 C444 1.465 . S
C450 C449 1.396 1_455 S
C450 C451 1.399 . S
C451 H437 0.929 . S
C451 C450 1.399 . S
C451 C452 1.385 . S
C452 H438 0.931 . S
C452 C451 1.385 . S
C452 C453 1.389 . S
C453 C452 1.389 . S
C453 C454 1.387 . S
C454 H439 0.930 1_455 S
C454 C449 1.390 1_455 S
C454 C453 1.387 . S
H455 C467 0.930 . S
H456 C469 0.930 . S
H457 C470 0.930 . S
H458 C474 0.959 . S
H459 C474 0.959 . S
H460 C474 0.961 . S
H461 C475 0.960 . S
H462 C475 0.961 . S
H463 C475 0.959 . S
H464 C478 0.929 . S
H465 C479 0.931 . S
H466 C481 0.930 . S
C467 H455 0.930 . S
C467 C468 1.399 . S
C467 C472 1.399 . S
C468 C467 1.399 . S
C468 C469 1.376 . S
C469 H456 0.930 . S
C469 C468 1.376 . S
C469 C470 1.388 . S
C470 H457 0.930 . S
C470 C469 1.388 . S
C470 C471 1.390 . S
C471 C470 1.390 . S
C471 C472 1.394 . S
C471 C477 1.465 . S
C472 C467 1.399 . S
C472 C471 1.394 . S
C472 C473 1.516 . S
C473 C472 1.516 . S
C473 C474 1.502 . S
C473 C475 1.561 . S
C473 C476 1.526 . S
C474 H458 0.959 . S
C474 H459 0.959 . S
C474 H460 0.961 . S
C474 C473 1.502 . S
C475 H461 0.960 . S
C475 H462 0.961 . S
C475 H463 0.959 . S
C475 C473 1.561 . S
C476 C473 1.526 . S
C476 C477 1.396 . S
C476 C481 1.390 . S
C477 C471 1.465 . S
C477 C476 1.396 . S
C477 C478 1.399 . S
C478 H464 0.929 . S
C478 C477 1.399 . S
C478 C479 1.385 . S
C479 H465 0.931 . S
C479 C478 1.385 . S
C479 C480 1.389 . S
C480 C479 1.389 . S
C480 C481 1.387 . S
C481 H466 0.930 . S
C481 C476 1.390 . S
C481 C480 1.387 . S
H482 C494 0.930 . S
H483 C496 0.930 . S
H484 C497 0.930 . S
H485 C501 0.959 . S
H486 C501 0.959 . S
H487 C501 0.961 . S
H488 C502 0.960 1_545 S
H489 C502 0.961 . S
H490 C502 0.959 . S
H491 C505 0.929 . S
H492 C506 0.931 . S
H493 C508 0.930 . S
C494 H482 0.930 . S
C494 C495 1.399 . S
C494 C499 1.399 . S
C495 C494 1.399 . S
C495 C496 1.376 . S
C496 H483 0.930 . S
C496 C495 1.376 . S
C496 C497 1.388 . S
C497 H484 0.930 . S
C497 C496 1.388 . S
C497 C498 1.390 . S
C498 C497 1.390 . S
C498 C499 1.394 . S
C498 C504 1.465 1_545 S
C499 C494 1.399 . S
C499 C498 1.394 . S
C499 C500 1.516 . S
C500 C499 1.516 . S
C500 C501 1.502 . S
C500 C502 1.561 1_545 S
C500 C503 1.526 1_545 S
C501 H485 0.959 . S
C501 H486 0.959 . S
C501 H487 0.961 . S
C501 C500 1.502 . S
C502 H488 0.960 1_565 S
C502 H489 0.961 . S
C502 H490 0.959 . S
C502 C500 1.561 1_565 S
C503 C500 1.526 1_565 S
C503 C504 1.396 . S
C503 C508 1.390 . S
C504 C498 1.465 1_565 S
C504 C503 1.396 . S
C504 C505 1.399 . S
C505 H491 0.929 . S
C505 C504 1.399 . S
C505 C506 1.385 . S
C506 H492 0.931 . S
C506 C505 1.385 . S
C506 C507 1.389 . S
C507 C506 1.389 . S
C507 C508 1.387 . S
C508 H493 0.930 . S
C508 C503 1.390 . S
C508 C507 1.387 . S
H509 C521 0.930 . S
H510 C523 0.930 . S
H511 C524 0.930 . S
H512 C528 0.959 . S
H513 C528 0.959 . S
H514 C528 0.961 . S
H515 C529 0.960 1_655 S
H516 C529 0.961 1_545 S
H517 C529 0.959 . S
H518 C532 0.938 . S
H519 C533 0.931 . S
H520 C535 0.930 . S
C521 H509 0.930 . S
C521 C522 1.399 . S
C521 C526 1.399 . S
C522 C521 1.399 . S
C522 C523 1.376 . S
C523 H510 0.930 . S
C523 C522 1.376 . S
C523 C524 1.388 . S
C524 H511 0.930 . S
C524 C523 1.388 . S
C524 C525 1.390 . S
C525 C524 1.390 . S
C525 C526 1.394 . S
C525 C531 1.465 1_655 S
C526 C521 1.399 . S
C526 C525 1.394 . S
C526 C527 1.516 1_565 S
C527 C526 1.516 1_545 S
C527 C528 1.502 . S
C527 C529 1.561 1_645 S
C527 C530 1.526 1_655 S
C528 H512 0.959 . S
C528 H513 0.959 . S
C528 H514 0.961 . S
C528 C527 1.502 . S
C529 H515 0.960 1_455 S
C529 H516 0.961 1_565 S
C529 H517 0.959 . S
C529 C527 1.561 1_465 S
C530 C527 1.526 1_455 S
C530 C531 1.396 1_545 S
C530 C535 1.390 . S
C531 C525 1.465 1_455 S
C531 C530 1.396 1_565 S
C531 C532 1.399 . S
C532 H518 0.938 . S
C532 C531 1.399 . S
C532 C533 1.376 1_565 S
C533 H519 0.931 . S
C533 C532 1.376 1_545 S
C533 C534 1.389 . S
C534 C533 1.389 . S
C534 C535 1.387 . S
C535 H520 0.930 . S
C535 C530 1.390 . S
C535 C534 1.387 . S
C117 C5 1.336 . S
C129 C68 1.328 . S
C144 C23 1.340 . S
C156 C88 1.337 . S
C171 C31 1.312 . S
C183 C94 1.336 . S
C198 C49 1.337 . S
C210 C56 1.340 . S
C225 C101 1.336 . S
C237 C4 1.341 . S
C252 C57 1.306 . S
C264 C16 1.323 . S
C279 C30 1.323 . S
C291 C75 1.340 . S
C306 C81 1.334 . S
C318 C42 1.310 . S
C333 C3 1.522 . S
C345 C83 1.524 . S
C360 C95 1.513 . S
C372 C17 1.517 . S
C387 C29 1.529 . S
C399 C55 1.527 . S
C414 C43 1.527 . S
C426 C69 1.525 . S
C441 C82 1.522 . S
C453 C10 1.527 . S
C468 C96 1.526 . S
C480 C18 1.523 . S
C495 C36 1.527 . S
C507 C62 1.525 . S
C522 C44 1.529 . S
C534 C70 1.527 . S
