# Generated by pormake.
# Topology wlj, (5)-cn, num edge types: 1
# Building blocks:
#     Node 0, Type 0, BuildingBlock: BEQFEK_clean_sbu_0, # of connection points: 5
#     Node 1, Type 0, BuildingBlock: BEQFEK_clean_sbu_0, # of connection points: 5
#     Node 2, Type 0, BuildingBlock: BEQFEK_clean_sbu_0, # of connection points: 5
#     Node 3, Type 0, BuildingBlock: BEQFEK_clean_sbu_0, # of connection points: 5
#     Node 4, Type 0, BuildingBlock: BEQFEK_clean_sbu_0, # of connection points: 5
#     Node 5, Type 0, BuildingBlock: BEQFEK_clean_sbu_0, # of connection points: 5
#     Edge 6, Type (0, 0), BuildingBlock: UVAHIK_clean_linker_0, # of connection points: 2
#     Edge 7, Type (0, 0), BuildingBlock: UVAHIK_clean_linker_0, # of connection points: 2
#     Edge 8, Type (0, 0), BuildingBlock: UVAHIK_clean_linker_0, # of connection points: 2
#     Edge 9, Type (0, 0), BuildingBlock: UVAHIK_clean_linker_0, # of connection points: 2
#     Edge 10, Type (0, 0), BuildingBlock: UVAHIK_clean_linker_0, # of connection points: 2
#     Edge 11, Type (0, 0), BuildingBlock: UVAHIK_clean_linker_0, # of connection points: 2
#     Edge 12, Type (0, 0), BuildingBlock: UVAHIK_clean_linker_0, # of connection points: 2
#     Edge 13, Type (0, 0), BuildingBlock: UVAHIK_clean_linker_0, # of connection points: 2
#     Edge 14, Type (0, 0), BuildingBlock: UVAHIK_clean_linker_0, # of connection points: 2
#     Edge 15, Type (0, 0), BuildingBlock: UVAHIK_clean_linker_0, # of connection points: 2
#     Edge 16, Type (0, 0), BuildingBlock: UVAHIK_clean_linker_0, # of connection points: 2
#     Edge 17, Type (0, 0), BuildingBlock: UVAHIK_clean_linker_0, # of connection points: 2
#     Edge 18, Type (0, 0), BuildingBlock: UVAHIK_clean_linker_0, # of connection points: 2
#     Edge 19, Type (0, 0), BuildingBlock: UVAHIK_clean_linker_0, # of connection points: 2
#     Edge 20, Type (0, 0), BuildingBlock: UVAHIK_clean_linker_0, # of connection points: 2
# Relax obj value: 0.038
# Max RMSD: 0.093
# Mean RMSD: 0.093
data_MOF--net-wlj--node1-BEQFEK_clean_sbu_0--edge1-UVAHIK_clean_linker_0
_symmetry_space_group_name_H-M    P1
_symmetry_Int_Tables_number       1
_symmetry_cell_setting            triclinic
loop_
_symmetry_equiv_pos_as_xyz
'x, y, z'
_cell_length_a     30.075909
_cell_length_b     30.065259
_cell_length_c     86.480755
_cell_angle_alpha  90.00853
_cell_angle_beta   89.996107
_cell_angle_gamma 120.01267
loop_
_atom_site_label
_atom_site_type_symbol
_atom_site_fract_x
_atom_site_fract_y
_atom_site_fract_z
_atom_type_partial_charge
Co0 Co 0.47025 0.33359 0.22135 0.0
Co1 Co 0.51579 0.27944 0.2418 0.0
C2 C 0.43704 0.22196 0.21731 0.0
O3 O 0.43435 0.2617 0.21382 0.0
O4 O 0.46686 0.22326 0.22799 0.0
C5 C 0.3918 0.35272 0.20945 0.0
O6 O 0.35961 0.3087 0.21598 0.0
C7 C 0.52168 0.20873 0.26483 0.0
C8 C 0.60151 0.25687 0.27299 0.0
C9 C 0.55743 0.20989 0.27532 0.0
N10 N 0.54357 0.25344 0.25697 0.0
N11 N 0.59139 0.2817 0.26184 0.0
C12 C 0.46813 0.16569 0.26205 0.0
H13 H 0.45638 0.16609 0.24996 0.0
H14 H 0.44128 0.17045 0.26975 0.0
H15 H 0.46508 0.12803 0.26449 0.0
C16 C 0.45386 0.36569 0.2522 0.0
N17 N 0.46695 0.33767 0.2431 0.0
N18 N 0.48466 0.31394 0.25176 0.0
C19 C 0.48233 0.32534 0.26672 0.0
C20 C 0.46303 0.35877 0.26752 0.0
C21 C 0.43934 0.40336 0.24615 0.0
H22 H 0.46226 0.42265 0.23569 0.0
H23 H 0.39814 0.38249 0.24289 0.0
H24 H 0.44576 0.43302 0.25487 0.0
O25 O 0.54245 0.36773 0.21489 0.0
O26 O 0.57519 0.32937 0.22901 0.0
H27 H 0.54093 0.32248 0.27993 0.0
H28 H 0.48618 0.31273 0.29126 0.0
C29 C 0.49854 0.30483 0.28001 0.0
H30 H 0.48124 0.26276 0.27876 0.0
H31 H 0.61697 0.31846 0.25771 0.0
O32 O 0.43978 0.37011 0.2107 0.0
C33 C 0.58013 0.36221 0.21883 0.0
Co34 Co 0.66582 0.13598 0.88872 0.0
Co35 Co 0.71632 0.23882 0.90763 0.0
C36 C 0.77642 0.21414 0.88464 0.0
O37 O 0.73757 0.1708 0.88137 0.0
O38 O 0.77349 0.24375 0.89463 0.0
C39 C 0.64774 0.03844 0.87675 0.0
O40 O 0.69462 0.05329 0.8815 0.0
C41 C 0.78319 0.31024 0.93177 0.0
C42 C 0.75304 0.36366 0.93356 0.0
C43 C 0.78964 0.35343 0.93961 0.0
N44 N 0.74416 0.29538 0.92171 0.0
N45 N 0.72644 0.32758 0.92282 0.0
C46 C 0.81538 0.28526 0.93311 0.0
H47 H 0.81039 0.26124 0.92281 0.0
H48 H 0.80354 0.26012 0.94344 0.0
H49 H 0.85644 0.31487 0.9345 0.0
C50 C 0.63563 0.09208 0.92016 0.0
N51 N 0.66172 0.13223 0.91057 0.0
N52 N 0.6807 0.17525 0.91854 0.0
C53 C 0.66593 0.16364 0.93344 0.0
C54 C 0.63768 0.11066 0.93495 0.0
C55 C 0.60512 0.03738 0.91497 0.0
H56 H 0.57745 0.03394 0.90592 0.0
H57 H 0.63143 0.02562 0.90982 0.0
H58 H 0.58393 0.01122 0.92471 0.0
O59 O 0.63153 0.17306 0.8809 0.0
O60 O 0.66768 0.24647 0.89396 0.0
H61 H 0.66808 0.2328 0.94085 0.0
H62 H 0.64846 0.18416 0.95571 0.0
C63 C 0.67441 0.20227 0.94569 0.0
H64 H 0.71451 0.22018 0.94987 0.0
H65 H 0.6961 0.32492 0.91623 0.0
O66 O 0.62863 0.06714 0.87913 0.0
C67 C 0.63597 0.21658 0.88386 0.0
Co68 Co 0.85875 0.52561 0.55517 0.0
Co69 Co 0.75753 0.4769 0.57472 0.0
C70 C 0.78158 0.56031 0.5516 0.0
O71 O 0.82409 0.56325 0.54811 0.0
O72 O 0.75215 0.52884 0.56183 0.0
C73 C 0.95754 0.60508 0.54414 0.0
O74 O 0.9455 0.63702 0.55074 0.0
C75 C 0.68455 0.474 0.59781 0.0
C76 C 0.6372 0.39082 0.60253 0.0
C77 C 0.64353 0.4382 0.60657 0.0
N78 N 0.70196 0.44887 0.5891 0.0
N79 N 0.67338 0.39916 0.59193 0.0
C80 C 0.705 0.53067 0.59681 0.0
H81 H 0.74582 0.55064 0.59312 0.0
H82 H 0.70116 0.54658 0.60795 0.0
H83 H 0.68264 0.53799 0.58798 0.0
C84 C 0.90456 0.53735 0.58626 0.0
N85 N 0.86416 0.52523 0.57696 0.0
N86 N 0.8219 0.50536 0.5853 0.0
C87 C 0.83429 0.50483 0.60028 0.0
C88 C 0.88711 0.52506 0.60139 0.0
C89 C 0.95763 0.55435 0.58048 0.0
H90 H 0.9556 0.53265 0.56989 0.0
H91 H 0.9768 0.59577 0.57752 0.0
H92 H 0.98106 0.54835 0.58924 0.0
O93 O 0.82072 0.45453 0.54757 0.0
O94 O 0.74835 0.41934 0.56112 0.0
H95 H 0.76788 0.44396 0.61125 0.0
H96 H 0.81468 0.48984 0.62465 0.0
C97 C 0.79614 0.48511 0.61323 0.0
H98 H 0.77521 0.50666 0.61344 0.0
H99 H 0.67865 0.37091 0.58665 0.0
O100 O 0.92662 0.55705 0.54505 0.0
C101 C 0.77712 0.41619 0.55087 0.0
Co102 Co 0.33005 0.46785 0.78183 0.0
Co103 Co 0.2798 0.51952 0.7626 0.0
C104 C 0.21868 0.43425 0.78518 0.0
O105 O 0.25769 0.43041 0.78874 0.0
O106 O 0.22176 0.46665 0.77512 0.0
C107 C 0.34651 0.38834 0.79449 0.0
O108 O 0.299 0.3568 0.79015 0.0
C109 C 0.21356 0.52379 0.73842 0.0
C110 C 0.24638 0.60744 0.73551 0.0
C111 C 0.20851 0.56034 0.72988 0.0
N112 N 0.25253 0.54841 0.74846 0.0
N113 N 0.27168 0.59836 0.74676 0.0
C114 C 0.185 0.46667 0.73649 0.0
H115 H 0.20698 0.44976 0.74167 0.0
H116 H 0.17778 0.45622 0.72407 0.0
H117 H 0.14757 0.45033 0.74257 0.0
C118 C 0.36302 0.45572 0.75064 0.0
N119 N 0.33592 0.46911 0.76003 0.0
N120 N 0.31595 0.49173 0.75184 0.0
C121 C 0.3302 0.49377 0.73693 0.0
C122 C 0.36024 0.4708 0.73568 0.0
C123 C 0.39191 0.43008 0.75606 0.0
H124 H 0.4223 0.45575 0.76428 0.0
H125 H 0.36526 0.39429 0.76229 0.0
H126 H 0.40946 0.42032 0.74632 0.0
O127 O 0.36354 0.53882 0.78985 0.0
O128 O 0.3276 0.57574 0.77656 0.0
H129 H 0.32531 0.55896 0.72914 0.0
H130 H 0.34749 0.53151 0.71461 0.0
C131 C 0.3207 0.52258 0.72446 0.0
H132 H 0.2809 0.49887 0.72012 0.0
H133 H 0.30264 0.62627 0.75309 0.0
O134 O 0.36669 0.43601 0.79162 0.0
C135 C 0.3589 0.57772 0.78683 0.0
Co136 Co 0.52754 0.85867 0.44874 0.0
Co137 Co 0.47452 0.75665 0.42957 0.0
C138 C 0.56073 0.78059 0.45181 0.0
O139 O 0.565 0.82362 0.4554 0.0
O140 O 0.52777 0.75119 0.44187 0.0
C141 C 0.60711 0.95602 0.46095 0.0
O142 O 0.63951 0.94195 0.45597 0.0
C143 C 0.46787 0.68432 0.40557 0.0
C144 C 0.38403 0.63748 0.4021 0.0
C145 C 0.4305 0.64403 0.39681 0.0
N146 N 0.44432 0.70059 0.41539 0.0
N147 N 0.39422 0.6721 0.41336 0.0
C148 C 0.52501 0.71021 0.40398 0.0
H149 H 0.54344 0.74917 0.40919 0.0
H150 H 0.5361 0.71302 0.39163 0.0
H151 H 0.5391 0.68739 0.4102 0.0
C152 C 0.53998 0.90385 0.41751 0.0
N153 N 0.52585 0.86332 0.42695 0.0
N154 N 0.50203 0.82061 0.41883 0.0
C155 C 0.49937 0.83277 0.40396 0.0
C156 C 0.52375 0.88586 0.40264 0.0
C157 C 0.56403 0.95829 0.42296 0.0
H158 H 0.54075 0.96087 0.43249 0.0
H159 H 0.60289 0.97048 0.42756 0.0
H160 H 0.56723 0.98471 0.41352 0.0
O161 O 0.45689 0.82141 0.45699 0.0
O162 O 0.41903 0.74852 0.44372 0.0
H163 H 0.4337 0.76471 0.39541 0.0
H164 H 0.46847 0.81258 0.38071 0.0
C165 C 0.47232 0.79434 0.39138 0.0
H166 H 0.49456 0.77518 0.38851 0.0
H167 H 0.36702 0.67701 0.41945 0.0
O168 O 0.55934 0.92698 0.4586 0.0
C169 C 0.4177 0.77798 0.45406 0.0
Co170 Co 0.13538 0.66722 0.11552 0.0
Co171 Co 0.23463 0.71595 0.09503 0.0
C172 C 0.2147 0.77882 0.11802 0.0
O173 O 0.1721 0.7401 0.12198 0.0
O174 O 0.2428 0.77516 0.10763 0.0
C175 C 0.04158 0.65172 0.12974 0.0
O176 O 0.05701 0.69922 0.1255 0.0
C177 C 0.30703 0.78232 0.07107 0.0
C178 C 0.34366 0.73729 0.06428 0.0
C179 C 0.34247 0.78173 0.06089 0.0
N180 N 0.28808 0.74004 0.07997 0.0
N181 N 0.31062 0.71366 0.07597 0.0
C182 C 0.28778 0.81955 0.07145 0.0
H183 H 0.24855 0.80112 0.07645 0.0
H184 H 0.28758 0.83402 0.05966 0.0
H185 H 0.3136 0.85269 0.07886 0.0
C186 C 0.08593 0.6333 0.0849 0.0
N187 N 0.12766 0.66036 0.09383 0.0
N188 N 0.16907 0.68072 0.0851 0.0
C189 C 0.15478 0.66733 0.07025 0.0
C190 C 0.10167 0.63689 0.06965 0.0
C191 C 0.03227 0.6036 0.091 0.0
H192 H 0.02947 0.57399 0.09923 0.0
H193 H 0.02317 0.62998 0.09741 0.0
H194 H 0.00375 0.58496 0.08159 0.0
O195 O 0.17309 0.63354 0.12293 0.0
O196 O 0.24397 0.66803 0.10872 0.0
H197 H 0.21945 0.66654 0.06027 0.0
H198 H 0.17153 0.65891 0.04636 0.0
C199 C 0.19148 0.67882 0.05715 0.0
H200 H 0.21287 0.72079 0.05502 0.0
H201 H 0.30234 0.67871 0.08095 0.0
O202 O 0.06841 0.63137 0.1262 0.0
C203 C 0.21586 0.6374 0.11931 0.0
C204 C 0.4142 0.13188 0.21035 0.0
C205 C 0.40776 0.17459 0.20797 0.0
C206 C 0.39047 0.08923 0.20056 0.0
C207 C 0.36668 0.02299 0.17185 0.0
H208 H 0.22719 0.96855 0.15709 0.0
C209 C 0.28299 0.8696 0.12386 0.0
C210 C 0.23351 0.82781 0.12656 0.0
C211 C 0.30264 0.91361 0.1331 0.0
C212 C 0.26615 0.98322 0.16114 0.0
H213 H 0.36965 0.20496 0.19371 0.0
H214 H 0.32852 0.1307 0.17665 0.0
H215 H 0.26304 0.03962 0.17553 0.0
H216 H 0.1651 0.80061 0.14072 0.0
H217 H 0.19949 0.87709 0.15682 0.0
H218 H 0.36959 0.96612 0.15771 0.0
C219 C 0.35175 0.13011 0.18613 0.0
C220 C 0.28681 0.02419 0.17162 0.0
C221 C 0.37555 0.17281 0.19589 0.0
C222 C 0.20342 0.83197 0.13831 0.0
C223 C 0.22303 0.87599 0.14752 0.0
C224 C 0.34611 0.98219 0.16135 0.0
C225 C 0.35963 0.08819 0.18818 0.0
C226 C 0.33726 0.04439 0.17714 0.0
C227 C 0.27323 0.91692 0.14522 0.0
C228 C 0.29556 0.96171 0.1559 0.0
H229 H 0.43853 0.13177 0.21957 0.0
H230 H 0.3966 0.05716 0.20261 0.0
H231 H 0.4059 0.03809 0.17571 0.0
H232 H 0.30714 0.86787 0.11486 0.0
H233 H 0.34116 0.94486 0.13087 0.0
C234 C 0.1671 0.37018 0.80576 0.0
C235 C 0.17017 0.40367 0.79391 0.0
C236 C 0.12366 0.34586 0.81521 0.0
C237 C 0.01714 0.36212 0.82923 0.0
H238 H 0.96185 0.22271 0.8442 0.0
C239 C 0.8667 0.28163 0.87799 0.0
C240 C 0.82455 0.23205 0.87571 0.0
C241 C 0.90984 0.30046 0.86841 0.0
C242 C 0.97671 0.26162 0.84007 0.0
H243 H 0.12869 0.43578 0.78225 0.0
H244 H 0.05272 0.39288 0.79863 0.0
H245 H 0.03243 0.25761 0.82561 0.0
H246 H 0.79578 0.16265 0.86192 0.0
H247 H 0.87079 0.19564 0.84521 0.0
H248 H 0.96102 0.36597 0.84347 0.0
C249 C 0.0844 0.38623 0.80079 0.0
C250 C 0.0174 0.28175 0.82951 0.0
C251 C 0.12783 0.41053 0.79132 0.0
C252 C 0.82747 0.20106 0.86401 0.0
C253 C 0.87063 0.21988 0.85445 0.0
C254 C 0.97659 0.34206 0.8398 0.0
C255 C 0.08223 0.35442 0.81304 0.0
C256 C 0.03806 0.33224 0.82395 0.0
C257 C 0.91191 0.27014 0.85634 0.0
C258 C 0.95589 0.2916 0.84537 0.0
H259 H 0.19893 0.3639 0.80809 0.0
H260 H 0.12341 0.32189 0.8246 0.0
H261 H 0.03258 0.40138 0.82536 0.0
H262 H 0.86593 0.30647 0.88693 0.0
H263 H 0.94141 0.33903 0.87035 0.0
C264 C 0.58368 0.71292 0.45806 0.0
C265 C 0.59155 0.76264 0.4604 0.0
C266 C 0.60824 0.69394 0.46748 0.0
C267 C 0.71472 0.73219 0.49553 0.0
H268 H 0.62965 0.59324 0.51074 0.0
C269 C 0.79471 0.62332 0.53059 0.0
C270 C 0.76414 0.59078 0.5426 0.0
C271 C 0.776 0.64751 0.52093 0.0
C272 C 0.65381 0.63227 0.50672 0.0
H273 H 0.63344 0.83223 0.47403 0.0
H274 H 0.67588 0.799 0.49044 0.0
H275 H 0.59398 0.62873 0.49248 0.0
H276 H 0.69072 0.56023 0.55428 0.0
H277 H 0.65838 0.6029 0.53751 0.0
H278 H 0.77429 0.73592 0.51001 0.0
C279 C 0.65091 0.77473 0.4813 0.0
C280 C 0.63359 0.65236 0.49606 0.0
C281 C 0.62633 0.79369 0.47191 0.0
C282 C 0.71521 0.58474 0.54509 0.0
C283 C 0.6965 0.6089 0.5354 0.0
C284 C 0.73502 0.71202 0.50617 0.0
C285 C 0.64134 0.72426 0.47942 0.0
C286 C 0.66375 0.70256 0.49034 0.0
C287 C 0.72627 0.63975 0.52302 0.0
C288 C 0.70473 0.66185 0.51193 0.0
H289 H 0.5574 0.68803 0.44925 0.0
H290 H 0.60076 0.6552 0.46554 0.0
H291 H 0.73908 0.77089 0.49128 0.0
H292 H 0.83262 0.62895 0.52833 0.0
H293 H 0.79983 0.67074 0.51145 0.0
C294 C 0.1993 0.56669 0.13777 0.0
C295 C 0.23327 0.6062 0.12785 0.0
C296 C 0.21577 0.53817 0.14628 0.0
C297 C 0.31901 0.50515 0.14853 0.0
H298 H 0.27044 0.46801 0.19071 0.0
C299 C 0.40724 0.42439 0.19156 0.0
C300 C 0.37283 0.38152 0.20036 0.0
C301 C 0.38955 0.45099 0.18261 0.0
C302 C 0.28391 0.47769 0.1789 0.0
H303 H 0.3112 0.64646 0.11901 0.0
H304 H 0.34033 0.59742 0.13413 0.0
H305 H 0.24147 0.51634 0.17518 0.0
H306 H 0.29291 0.33335 0.20682 0.0
H307 H 0.26204 0.38028 0.19124 0.0
H308 H 0.36222 0.46722 0.15244 0.0
C309 C 0.30063 0.58785 0.13512 0.0
C310 C 0.26727 0.50528 0.16997 0.0
C311 C 0.28401 0.61616 0.1265 0.0
C312 C 0.32037 0.36619 0.20016 0.0
C313 C 0.30272 0.39315 0.1913 0.0
C314 C 0.33596 0.47791 0.15752 0.0
C315 C 0.26676 0.5487 0.14519 0.0
C316 C 0.28455 0.51931 0.15467 0.0
C317 C 0.33713 0.43561 0.18236 0.0
C318 C 0.31858 0.46392 0.17279 0.0
H319 H 0.1598 0.55765 0.13899 0.0
H320 H 0.18836 0.50765 0.15366 0.0
H321 H 0.33244 0.51453 0.13672 0.0
H322 H 0.44792 0.43726 0.19146 0.0
H323 H 0.41701 0.48395 0.17599 0.0
C324 C 0.37856 0.66571 0.79511 0.0
C325 C 0.38997 0.62574 0.79566 0.0
C326 C 0.40681 0.71014 0.80395 0.0
C327 C 0.53056 0.78778 0.82343 0.0
H328 H 0.45708 0.83795 0.84806 0.0
C329 C 0.63491 0.9541 0.86709 0.0
C330 C 0.61778 0.98972 0.86817 0.0
C331 C 0.60698 0.9088 0.85857 0.0
C332 C 0.4783 0.82493 0.8411 0.0
H333 H 0.44073 0.60162 0.80568 0.0
H334 H 0.49023 0.6794 0.82095 0.0
H335 H 0.40927 0.76196 0.83197 0.0
H336 H 0.55799 0.00583 0.86113 0.0
H337 H 0.51027 0.92792 0.84601 0.0
H338 H 0.59965 0.8512 0.83226 0.0
C339 C 0.45938 0.67624 0.81371 0.0
C340 C 0.45084 0.78132 0.83191 0.0
C341 C 0.43082 0.6316 0.80502 0.0
C342 C 0.57209 0.97902 0.86063 0.0
C343 C 0.5445 0.93409 0.85202 0.0
C344 C 0.55811 0.83174 0.8325 0.0
C345 C 0.44739 0.71575 0.81336 0.0
C346 C 0.47668 0.76233 0.82298 0.0
C347 C 0.56156 0.89839 0.85085 0.0
C348 C 0.53232 0.85093 0.84145 0.0
H349 H 0.34736 0.66243 0.78802 0.0
H350 H 0.39709 0.74027 0.80336 0.0
H351 H 0.55146 0.77419 0.81654 0.0
H352 H 0.66984 0.96113 0.87283 0.0
H353 H 0.62085 0.88182 0.85814 0.0
C354 C 0.01456 0.59024 0.52646 0.0
C355 C 0.00585 0.62437 0.53532 0.0
C356 C 0.05919 0.60821 0.51768 0.0
C357 C 0.19178 0.71357 0.51429 0.0
H358 H 0.17995 0.66593 0.47199 0.0
C359 C 0.36567 0.79595 0.47302 0.0
C360 C 0.37 0.76142 0.46302 0.0
C361 C 0.32109 0.7803 0.48168 0.0
C362 C 0.18404 0.67911 0.48384 0.0
H363 H 0.03762 0.70403 0.54211 0.0
H364 H 0.1161 0.7354 0.5268 0.0
H365 H 0.10285 0.63671 0.48763 0.0
H366 H 0.3308 0.68325 0.45432 0.0
H367 H 0.25348 0.65563 0.46968 0.0
H368 H 0.27298 0.75522 0.51064 0.0
C369 C 0.08816 0.69473 0.52668 0.0
C370 C 0.13984 0.66249 0.49277 0.0
C371 C 0.04318 0.6768 0.53539 0.0
C372 C 0.32863 0.7109 0.46185 0.0
C373 C 0.28416 0.69515 0.4706 0.0
C374 C 0.23607 0.72992 0.50539 0.0
C375 C 0.09634 0.66062 0.51764 0.0
C376 C 0.14327 0.6794 0.5081 0.0
C377 C 0.27987 0.72964 0.48064 0.0
C378 C 0.23274 0.71278 0.49006 0.0
H379 H 0.98663 0.54958 0.52616 0.0
H380 H 0.0648 0.58096 0.51097 0.0
H381 H 0.19556 0.72675 0.52613 0.0
H382 H 0.39667 0.83527 0.47413 0.0
H383 H 0.31879 0.80812 0.48909 0.0
C384 C 0.56276 0.1975 0.8661 0.0
C385 C 0.60439 0.23303 0.87512 0.0
C386 C 0.53386 0.21324 0.85745 0.0
C387 C 0.54275 0.32587 0.83855 0.0
H388 H 0.39388 0.24956 0.83943 0.0
C389 C 0.42272 0.40403 0.81019 0.0
C390 C 0.3761 0.3692 0.80307 0.0
C391 C 0.45014 0.3864 0.81875 0.0
C392 C 0.43541 0.27087 0.83885 0.0
H393 H 0.64802 0.31288 0.88221 0.0
H394 H 0.59777 0.34039 0.86693 0.0
H395 H 0.44221 0.2206 0.85503 0.0
H396 H 0.32209 0.28851 0.79909 0.0
H397 H 0.37075 0.25762 0.81367 0.0
H398 H 0.53637 0.37556 0.82217 0.0
C399 C 0.58766 0.30039 0.86659 0.0
C400 C 0.46302 0.25438 0.84785 0.0
C401 C 0.61621 0.28456 0.87539 0.0
C402 C 0.35778 0.31629 0.80452 0.0
C403 C 0.38553 0.29861 0.81296 0.0
C404 C 0.5152 0.34205 0.82942 0.0
C405 C 0.54635 0.26491 0.85749 0.0
C406 C 0.51694 0.28196 0.84786 0.0
C407 C 0.43195 0.33348 0.82025 0.0
C408 C 0.46117 0.31501 0.82954 0.0
H409 H 0.55253 0.15748 0.86567 0.0
H410 H 0.50239 0.18519 0.85046 0.0
H411 H 0.58432 0.34736 0.83816 0.0
H412 H 0.43774 0.44507 0.8094 0.0
H413 H 0.48518 0.41439 0.82443 0.0
C414 C 0.70818 0.3278 0.54306 0.0
C415 C 0.75967 0.36746 0.54239 0.0
C416 C 0.69168 0.28282 0.53447 0.0
C417 C 0.73742 0.20403 0.51538 0.0
H418 H 0.6145 0.1542 0.49042 0.0
C419 C 0.67794 0.04003 0.47105 0.0
C420 C 0.62531 0.00417 0.46978 0.0
C421 C 0.6947 0.08479 0.47979 0.0
C422 C 0.64852 0.16712 0.49747 0.0
H423 H 0.83443 0.39044 0.53246 0.0
H424 H 0.80562 0.31188 0.51762 0.0
H425 H 0.64213 0.22991 0.50661 0.0
H426 H 0.54899 0.98705 0.47673 0.0
H427 H 0.57815 0.06403 0.49222 0.0
H428 H 0.74353 0.14093 0.50648 0.0
C429 C 0.77808 0.31562 0.52476 0.0
C430 C 0.66432 0.21054 0.50673 0.0
C431 C 0.79445 0.36073 0.5332 0.0
C432 C 0.58983 0.01406 0.47738 0.0
C433 C 0.60656 0.05845 0.4862 0.0
C434 C 0.72136 0.1603 0.50623 0.0
C435 C 0.72648 0.27641 0.5252 0.0
C436 C 0.70898 0.22948 0.51574 0.0
C437 C 0.65919 0.09439 0.48755 0.0
C438 C 0.67674 0.14133 0.49714 0.0
H439 H 0.68044 0.33179 0.55003 0.0
H440 H 0.65174 0.25294 0.53511 0.0
H441 H 0.77176 0.21758 0.52233 0.0
H442 H 0.7062 0.03361 0.46527 0.0
H443 H 0.73548 0.11201 0.48037 0.0
C444 C 0.96027 0.64084 0.14132 0.0
C445 C 0.99437 0.62234 0.13902 0.0
C446 C 0.91626 0.61323 0.15039 0.0
C447 C 0.83178 0.48343 0.16697 0.0
H448 H 0.78585 0.5565 0.19351 0.0
C449 C 0.66869 0.38062 0.21174 0.0
C450 C 0.6302 0.39409 0.21111 0.0
C451 C 0.71469 0.40935 0.20363 0.0
C452 C 0.79821 0.53566 0.18611 0.0
H453 H 0.00931 0.56057 0.14451 0.0
H454 H 0.93366 0.51334 0.16059 0.0
H455 H 0.86275 0.60477 0.17776 0.0
H456 H 0.61047 0.4492 0.2019 0.0
H457 H 0.69088 0.49946 0.18794 0.0
H458 H 0.76747 0.41432 0.17554 0.0
C459 C 0.93998 0.54844 0.15512 0.0
C460 C 0.84206 0.56325 0.17701 0.0
C461 C 0.9836 0.57572 0.14595 0.0
C462 C 0.63924 0.43763 0.20257 0.0
C463 C 0.6854 0.46665 0.19465 0.0
C464 C 0.78828 0.45588 0.17619 0.0
C465 C 0.9057 0.56676 0.15746 0.0
C466 C 0.85924 0.53749 0.16725 0.0
C467 C 0.72331 0.45247 0.19495 0.0
C468 C 0.7709 0.48173 0.18577 0.0
H469 H 0.9674 0.67653 0.13607 0.0
H470 H 0.89029 0.62809 0.15172 0.0
H471 H 0.84329 0.46228 0.15941 0.0
H472 H 0.66287 0.34729 0.21822 0.0
H473 H 0.74353 0.39786 0.20413 0.0
C474 C 0.57451 0.95175 0.38267 0.0
C475 C 0.52671 0.9164 0.38893 0.0
C476 C 0.57748 0.9816 0.36989 0.0
C477 C 0.49845 0.9905 0.33812 0.0
H478 H 0.61039 0.13132 0.33593 0.0
C479 C 0.50498 0.14169 0.29504 0.0
C480 C 0.55174 0.17196 0.28727 0.0
C481 C 0.50139 0.10849 0.30693 0.0
C482 C 0.57916 0.09192 0.33632 0.0
H483 H 0.44462 0.88474 0.38719 0.0
H484 H 0.44946 0.93773 0.36511 0.0
H485 H 0.60503 0.07782 0.35779 0.0
H486 H 0.63158 0.19168 0.28611 0.0
H487 H 0.62542 0.13432 0.30701 0.0
H488 H 0.47202 0.00549 0.31678 0.0
C489 C 0.48475 0.9416 0.36968 0.0
C490 C 0.57614 0.06111 0.34883 0.0
C491 C 0.48186 0.91142 0.38235 0.0
C492 C 0.5949 0.16866 0.2918 0.0
C493 C 0.59146 0.13595 0.30378 0.0
C494 C 0.50118 0.02156 0.32569 0.0
C495 C 0.53263 0.97716 0.36327 0.0
C496 C 0.53582 0.00991 0.34989 0.0
C497 C 0.54472 0.10567 0.31151 0.0
C498 C 0.54167 0.07252 0.32465 0.0
H499 H 0.60954 0.95608 0.38763 0.0
H500 H 0.61496 0.00787 0.36515 0.0
H501 H 0.46733 0.95107 0.33838 0.0
H502 H 0.47153 0.14483 0.29241 0.0
H503 H 0.4651 0.08628 0.31289 0.0
C504 C 0.83607 0.35802 0.96418 0.0
C505 C 0.82617 0.38301 0.95209 0.0
C506 C 0.86767 0.38618 0.97653 0.0
C507 C 0.91962 0.51235 0.99623 0.0
H508 H 0.00918 0.47147 0.01611 0.0
C509 C 0.06877 0.6352 0.04301 0.0
C510 C 0.07007 0.60861 0.05616 0.0
C511 C 0.03964 0.60824 0.03012 0.0
C512 C 0.98408 0.48311 0.01073 0.0
H513 H 0.84166 0.45687 0.94334 0.0
H514 H 0.89806 0.50631 0.96461 0.0
H515 H 0.95872 0.42386 0.99365 0.0
H516 H 0.04296 0.53357 0.06628 0.0
H517 H 0.99208 0.48617 0.0437 0.0
H518 H 0.94574 0.57209 0.01322 0.0
C519 C 0.88076 0.46491 0.96477 0.0
C520 C 0.95503 0.45576 0.99788 0.0
C521 C 0.84875 0.43667 0.95252 0.0
C522 C 0.04212 0.55475 0.05625 0.0
C523 C 0.01343 0.52776 0.04332 0.0
C524 C 0.94907 0.53998 0.00898 0.0
C525 C 0.8902 0.44 0.97704 0.0
C526 C 0.92221 0.46986 0.9905 0.0
C527 C 0.01188 0.55422 0.03012 0.0
C528 C 0.98138 0.52548 0.01641 0.0
H529 H 0.81783 0.31659 0.96445 0.0
H530 H 0.87311 0.36552 0.98591 0.0
H531 H 0.89408 0.52378 0.99106 0.0
H532 H 0.0903 0.6768 0.04272 0.0
H533 H 0.03946 0.62961 0.02006 0.0
C534 C 0.36147 0.44483 0.70831 0.0
C535 C 0.3882 0.46888 0.72189 0.0
C536 C 0.38802 0.44306 0.69526 0.0
C537 C 0.51473 0.50805 0.67666 0.0
H538 H 0.46761 0.37825 0.65558 0.0
C539 C 0.63861 0.47984 0.631 0.0
C540 C 0.6137 0.44682 0.61853 0.0
C541 C 0.61013 0.48442 0.64304 0.0
C542 C 0.48088 0.41506 0.66112 0.0
H543 H 0.46322 0.51107 0.73253 0.0
H544 H 0.50989 0.50833 0.70967 0.0
H545 H 0.41934 0.38275 0.67756 0.0
H546 H 0.53995 0.39254 0.60876 0.0
H547 H 0.48985 0.40166 0.62948 0.0
H548 H 0.57589 0.54068 0.66017 0.0
C549 C 0.46849 0.49064 0.7091 0.0
C550 C 0.45324 0.41751 0.67377 0.0
C551 C 0.44187 0.49186 0.72219 0.0
C552 C 0.5599 0.41858 0.61823 0.0
C553 C 0.53134 0.42353 0.63017 0.0
C554 C 0.54208 0.50576 0.6639 0.0
C555 C 0.44182 0.46603 0.69552 0.0
C556 C 0.47012 0.46392 0.68175 0.0
C557 C 0.55607 0.45608 0.64284 0.0
C558 C 0.52578 0.45912 0.65603 0.0
H559 H 0.32004 0.42711 0.70786 0.0
H560 H 0.36655 0.42422 0.68491 0.0
H561 H 0.52825 0.5445 0.68248 0.0
H562 H 0.68013 0.5006 0.63176 0.0
H563 H 0.63061 0.50893 0.65274 0.0
C564 C 0.18999 0.59223 0.70545 0.0
C565 C 0.17386 0.55356 0.71674 0.0
C566 C 0.15805 0.58748 0.69309 0.0
C567 C 0.02184 0.51742 0.68047 0.0
H568 H 0.08213 0.56941 0.64017 0.0
C569 C 0.90247 0.48448 0.62456 0.0
C570 C 0.91763 0.52782 0.61516 0.0
C571 C 0.93256 0.48661 0.63717 0.0
C572 C 0.06482 0.55507 0.65139 0.0
H573 H 0.10987 0.48056 0.72418 0.0
H574 H 0.05524 0.47098 0.70225 0.0
H575 H 0.13677 0.57339 0.66153 0.0
H576 H 0.97582 0.60722 0.61149 0.0
H577 H 0.02906 0.61084 0.63341 0.0
H578 H 0.94966 0.49828 0.6701 0.0
C579 C 0.09267 0.50524 0.70299 0.0
C580 C 0.09612 0.55745 0.66366 0.0
C581 C 0.12455 0.51024 0.71546 0.0
C582 C 0.96343 0.57328 0.61856 0.0
C583 C 0.99385 0.57527 0.63105 0.0
C584 C 0.99045 0.51453 0.66812 0.0
C585 C 0.10904 0.54381 0.69163 0.0
C586 C 0.07516 0.53916 0.67842 0.0
C587 C 0.97879 0.53191 0.64046 0.0
C588 C 0.01172 0.53378 0.6535 0.0
H589 H 0.22755 0.62638 0.70612 0.0
H590 H 0.17165 0.61856 0.6848 0.0
H591 H 0.0044 0.50363 0.69169 0.0
H592 H 0.86787 0.44862 0.62196 0.0
H593 H 0.92035 0.45245 0.64412 0.0
C594 C 0.50149 0.41128 0.2914 0.0
C595 C 0.45968 0.38641 0.28124 0.0
C596 C 0.49897 0.43872 0.30409 0.0
C597 C 0.4345 0.50719 0.31783 0.0
H598 H 0.47814 0.49021 0.35852 0.0
C599 C 0.39848 0.59568 0.37204 0.0
C600 C 0.43622 0.61551 0.38366 0.0
C601 C 0.40238 0.56818 0.35962 0.0
C602 C 0.46655 0.49606 0.34721 0.0
H603 H 0.38254 0.37053 0.27631 0.0
H604 H 0.37831 0.4193 0.29839 0.0
H605 H 0.48285 0.44115 0.33673 0.0
H606 H 0.50645 0.61932 0.39163 0.0
H607 H 0.51465 0.57362 0.36961 0.0
H608 H 0.41903 0.56267 0.32812 0.0
C609 C 0.41301 0.41751 0.29655 0.0
C610 C 0.46906 0.46775 0.33474 0.0
C611 C 0.41535 0.38959 0.28396 0.0
C612 C 0.47765 0.60642 0.38266 0.0
C613 C 0.48179 0.57919 0.37014 0.0
C614 C 0.43246 0.53586 0.33025 0.0
C615 C 0.45483 0.44242 0.30674 0.0
C616 C 0.45272 0.47278 0.31995 0.0
C617 C 0.44422 0.55978 0.35844 0.0
C618 C 0.44808 0.5304 0.34513 0.0
H619 H 0.53654 0.41033 0.28938 0.0
H620 H 0.53202 0.45808 0.31163 0.0
H621 H 0.42245 0.51247 0.30651 0.0
H622 H 0.36578 0.60155 0.37249 0.0
H623 H 0.37208 0.55292 0.35104 0.0
C624 C 0.62792 0.0542 0.95725 0.0
C625 C 0.6093 0.0808 0.94862 0.0
C626 C 0.60005 0.02422 0.96989 0.0
C627 C 0.49278 -0.00052 0.99668 0.0
H628 H 0.4917 0.87163 0.00365 0.0
C629 C 0.39453 0.87095 0.05016 0.0
C630 C 0.37091 0.81758 0.04816 0.0
C631 C 0.42363 0.90431 0.03822 0.0
C632 C 0.49097 0.90687 1.0018 0.0
H633 H 0.5476 0.09739 0.94606 0.0
H634 H 0.49774 0.04382 0.96787 0.0
H635 H 0.54147 0.92683 0.98244 0.0
H636 H 0.35811 0.75707 0.03209 0.0
H637 H 0.40701 0.81479 0.0111 0.0
H638 H 0.44033 0.97824 0.01565 0.0
C639 C 0.53439 0.04692 0.96526 0.0
C640 C 0.52036 0.9391 0.98975 0.0
C641 C 0.56262 0.07732 0.95273 0.0
C642 C 0.37625 0.79813 0.03397 0.0
C643 C 0.40462 0.83131 0.02197 0.0
C644 C 0.46287 0.96692 0.00865 0.0
C645 C 0.55261 0.01974 0.97398 0.0
C646 C 0.52172 0.98587 0.98701 0.0
C647 C 0.42931 0.8849 0.02398 0.0
C648 C 0.46146 0.92008 0.01135 0.0
H649 H 0.66398 0.05657 0.95418 0.0
H650 H 0.61581 0.00468 0.97646 0.0
H651 H 0.49334 0.03547 0.99508 0.0
H652 H 0.3919 0.88698 0.06111 0.0
H653 H 0.4427 0.94528 0.04031 0.0
loop_
_geom_bond_atom_site_label_1
_geom_bond_atom_site_label_2
_geom_bond_distance
_geom_bond_site_symmetry_2
_ccdc_geom_bond_type
Co0 O3 1.970 . S
Co0 N17 1.989 . S
Co0 O25 1.967 . S
Co0 O32 1.920 . S
Co1 O4 1.966 . S
Co1 N10 2.022 . S
Co1 N18 1.993 . S
Co1 O26 1.941 . S
C2 O3 1.258 . S
C2 O4 1.263 . S
O3 Co0 1.970 . S
O3 C2 1.258 . S
O4 Co1 1.966 . S
O4 C2 1.263 . S
C5 O6 1.235 . S
C5 O32 1.289 . S
O6 C5 1.235 . S
C7 C9 1.400 . S
C7 N10 1.351 . S
C7 C12 1.501 . S
C8 C9 1.387 . S
C8 N11 1.341 . S
C9 C7 1.400 . S
C9 C8 1.387 . S
N10 Co1 2.022 . S
N10 C7 1.351 . S
N10 N11 1.365 . S
N11 C8 1.341 . S
N11 N10 1.365 . S
N11 H31 0.862 . S
C12 C7 1.501 . S
C12 H13 0.961 . S
C12 H14 0.961 . S
C12 H15 0.960 . S
H13 C12 0.961 . S
H14 C12 0.961 . S
H15 C12 0.960 . S
C16 N17 1.342 . S
C16 C20 1.401 . S
C16 C21 1.499 . S
N17 Co0 1.989 . S
N17 C16 1.342 . S
N17 N18 1.388 . S
N18 Co1 1.993 . S
N18 N17 1.388 . S
N18 C19 1.346 . S
C19 N18 1.346 . S
C19 C20 1.396 . S
C19 C29 1.510 . S
C20 C16 1.401 . S
C20 C19 1.396 . S
C21 C16 1.499 . S
C21 H22 0.959 . S
C21 H23 0.960 . S
C21 H24 0.961 . S
H22 C21 0.959 . S
H23 C21 0.960 . S
H24 C21 0.961 . S
O25 Co0 1.967 . S
O25 C33 1.258 . S
O26 Co1 1.941 . S
O26 C33 1.266 . S
H27 C29 0.959 . S
H28 C29 0.961 . S
C29 C19 1.510 . S
C29 H27 0.959 . S
C29 H28 0.961 . S
C29 H30 0.960 . S
H30 C29 0.960 . S
H31 N11 0.862 . S
O32 Co0 1.920 . S
O32 C5 1.289 . S
C33 O25 1.258 . S
C33 O26 1.266 . S
Co34 O37 1.970 . S
Co34 N51 1.989 . S
Co34 O59 1.967 . S
Co34 O66 1.920 . S
Co35 O38 1.966 . S
Co35 N44 2.022 . S
Co35 N52 1.993 . S
Co35 O60 1.941 . S
C36 O37 1.258 . S
C36 O38 1.263 . S
O37 Co34 1.970 . S
O37 C36 1.258 . S
O38 Co35 1.966 . S
O38 C36 1.263 . S
C39 O40 1.235 . S
C39 O66 1.289 . S
O40 C39 1.235 . S
C41 C43 1.400 . S
C41 N44 1.351 . S
C41 C46 1.501 . S
C42 C43 1.387 . S
C42 N45 1.341 . S
C43 C41 1.400 . S
C43 C42 1.387 . S
N44 Co35 2.022 . S
N44 C41 1.351 . S
N44 N45 1.365 . S
N45 C42 1.341 . S
N45 N44 1.365 . S
N45 H65 0.862 . S
C46 C41 1.501 . S
C46 H47 0.961 . S
C46 H48 0.961 . S
C46 H49 0.960 . S
H47 C46 0.961 . S
H48 C46 0.961 . S
H49 C46 0.960 . S
C50 N51 1.342 . S
C50 C54 1.401 . S
C50 C55 1.499 . S
N51 Co34 1.989 . S
N51 C50 1.342 . S
N51 N52 1.388 . S
N52 Co35 1.993 . S
N52 N51 1.388 . S
N52 C53 1.346 . S
C53 N52 1.346 . S
C53 C54 1.396 . S
C53 C63 1.510 . S
C54 C50 1.401 . S
C54 C53 1.396 . S
C55 C50 1.499 . S
C55 H56 0.959 . S
C55 H57 0.960 1_545 S
C55 H58 0.961 . S
H56 C55 0.959 . S
H57 C55 0.960 1_565 S
H58 C55 0.961 . S
O59 Co34 1.967 . S
O59 C67 1.258 . S
O60 Co35 1.941 . S
O60 C67 1.266 . S
H61 C63 0.959 . S
H62 C63 0.961 . S
C63 C53 1.510 . S
C63 H61 0.959 . S
C63 H62 0.961 . S
C63 H64 0.960 . S
H64 C63 0.960 . S
H65 N45 0.862 . S
O66 Co34 1.920 . S
O66 C39 1.289 . S
C67 O59 1.258 . S
C67 O60 1.266 . S
Co68 O71 1.970 . S
Co68 N85 1.989 . S
Co68 O93 1.967 . S
Co68 O100 1.920 . S
Co69 O72 1.966 . S
Co69 N78 2.022 . S
Co69 N86 1.993 . S
Co69 O94 1.941 . S
C70 O71 1.258 . S
C70 O72 1.263 . S
O71 Co68 1.970 . S
O71 C70 1.258 . S
O72 Co69 1.966 . S
O72 C70 1.263 . S
C73 O74 1.235 . S
C73 O100 1.289 . S
O74 C73 1.235 . S
C75 C77 1.400 . S
C75 N78 1.351 . S
C75 C80 1.501 . S
C76 C77 1.387 . S
C76 N79 1.341 . S
C77 C75 1.400 . S
C77 C76 1.387 . S
N78 Co69 2.022 . S
N78 C75 1.351 . S
N78 N79 1.365 . S
N79 C76 1.341 . S
N79 N78 1.365 . S
N79 H99 0.862 . S
C80 C75 1.501 . S
C80 H81 0.961 . S
C80 H82 0.961 . S
C80 H83 0.960 . S
H81 C80 0.961 . S
H82 C80 0.961 . S
H83 C80 0.960 . S
C84 N85 1.342 . S
C84 C88 1.401 . S
C84 C89 1.499 . S
N85 Co68 1.989 . S
N85 C84 1.342 . S
N85 N86 1.388 . S
N86 Co69 1.993 . S
N86 N85 1.388 . S
N86 C87 1.346 . S
C87 N86 1.346 . S
C87 C88 1.396 . S
C87 C97 1.510 . S
C88 C84 1.401 . S
C88 C87 1.396 . S
C89 C84 1.499 . S
C89 H90 0.959 . S
C89 H91 0.960 1_655 S
C89 H92 0.961 . S
H90 C89 0.959 . S
H91 C89 0.960 1_455 S
H92 C89 0.961 . S
O93 Co68 1.967 . S
O93 C101 1.258 . S
O94 Co69 1.941 . S
O94 C101 1.266 . S
H95 C97 0.959 . S
H96 C97 0.961 . S
C97 C87 1.510 . S
C97 H95 0.959 . S
C97 H96 0.961 . S
C97 H98 0.960 . S
H98 C97 0.960 . S
H99 N79 0.862 . S
O100 Co68 1.920 . S
O100 C73 1.289 . S
C101 O93 1.258 . S
C101 O94 1.266 . S
Co102 O105 1.970 . S
Co102 N119 1.989 . S
Co102 O127 1.967 . S
Co102 O134 1.920 . S
Co103 O106 1.966 . S
Co103 N112 2.022 . S
Co103 N120 1.993 . S
Co103 O128 1.941 . S
C104 O105 1.258 . S
C104 O106 1.263 . S
O105 Co102 1.970 . S
O105 C104 1.258 . S
O106 Co103 1.966 . S
O106 C104 1.263 . S
C107 O108 1.235 . S
C107 O134 1.289 . S
O108 C107 1.235 . S
C109 C111 1.400 . S
C109 N112 1.351 . S
C109 C114 1.501 . S
C110 C111 1.387 . S
C110 N113 1.341 . S
C111 C109 1.400 . S
C111 C110 1.387 . S
N112 Co103 2.022 . S
N112 C109 1.351 . S
N112 N113 1.365 . S
N113 C110 1.341 . S
N113 N112 1.365 . S
N113 H133 0.862 . S
C114 C109 1.501 . S
C114 H115 0.961 . S
C114 H116 0.961 . S
C114 H117 0.960 . S
H115 C114 0.961 . S
H116 C114 0.961 . S
H117 C114 0.960 . S
C118 N119 1.342 . S
C118 C122 1.401 . S
C118 C123 1.499 . S
N119 Co102 1.989 . S
N119 C118 1.342 . S
N119 N120 1.388 . S
N120 Co103 1.993 . S
N120 N119 1.388 . S
N120 C121 1.346 . S
C121 N120 1.346 . S
C121 C122 1.396 . S
C121 C131 1.510 . S
C122 C118 1.401 . S
C122 C121 1.396 . S
C123 C118 1.499 . S
C123 H124 0.959 . S
C123 H125 0.960 . S
C123 H126 0.961 . S
H124 C123 0.959 . S
H125 C123 0.960 . S
H126 C123 0.961 . S
O127 Co102 1.967 . S
O127 C135 1.258 . S
O128 Co103 1.941 . S
O128 C135 1.266 . S
H129 C131 0.959 . S
H130 C131 0.961 . S
C131 C121 1.510 . S
C131 H129 0.959 . S
C131 H130 0.961 . S
C131 H132 0.960 . S
H132 C131 0.960 . S
H133 N113 0.862 . S
O134 Co102 1.920 . S
O134 C107 1.289 . S
C135 O127 1.258 . S
C135 O128 1.266 . S
Co136 O139 1.970 . S
Co136 N153 1.989 . S
Co136 O161 1.967 . S
Co136 O168 1.920 . S
Co137 O140 1.966 . S
Co137 N146 2.022 . S
Co137 N154 1.993 . S
Co137 O162 1.941 . S
C138 O139 1.258 . S
C138 O140 1.263 . S
O139 Co136 1.970 . S
O139 C138 1.258 . S
O140 Co137 1.966 . S
O140 C138 1.263 . S
C141 O142 1.235 . S
C141 O168 1.289 . S
O142 C141 1.235 . S
C143 C145 1.400 . S
C143 N146 1.351 . S
C143 C148 1.501 . S
C144 C145 1.387 . S
C144 N147 1.341 . S
C145 C143 1.400 . S
C145 C144 1.387 . S
N146 Co137 2.022 . S
N146 C143 1.351 . S
N146 N147 1.365 . S
N147 C144 1.341 . S
N147 N146 1.365 . S
N147 H167 0.862 . S
C148 C143 1.501 . S
C148 H149 0.961 . S
C148 H150 0.961 . S
C148 H151 0.960 . S
H149 C148 0.961 . S
H150 C148 0.961 . S
H151 C148 0.960 . S
C152 N153 1.342 . S
C152 C156 1.401 . S
C152 C157 1.499 . S
N153 Co136 1.989 . S
N153 C152 1.342 . S
N153 N154 1.388 . S
N154 Co137 1.993 . S
N154 N153 1.388 . S
N154 C155 1.346 . S
C155 N154 1.346 . S
C155 C156 1.396 . S
C155 C165 1.510 . S
C156 C152 1.401 . S
C156 C155 1.396 . S
C157 C152 1.499 . S
C157 H158 0.959 . S
C157 H159 0.960 1_565 S
C157 H160 0.961 . S
H158 C157 0.959 . S
H159 C157 0.960 1_545 S
H160 C157 0.961 . S
O161 Co136 1.967 . S
O161 C169 1.258 . S
O162 Co137 1.941 . S
O162 C169 1.266 . S
H163 C165 0.959 . S
H164 C165 0.961 . S
C165 C155 1.510 . S
C165 H163 0.959 . S
C165 H164 0.961 . S
C165 H166 0.960 . S
H166 C165 0.960 . S
H167 N147 0.862 . S
O168 Co136 1.920 . S
O168 C141 1.289 . S
C169 O161 1.258 . S
C169 O162 1.266 . S
Co170 O173 1.970 . S
Co170 N187 1.989 . S
Co170 O195 1.967 . S
Co170 O202 1.920 . S
Co171 O174 1.966 . S
Co171 N180 2.022 . S
Co171 N188 1.993 . S
Co171 O196 1.941 . S
C172 O173 1.258 . S
C172 O174 1.263 . S
O173 Co170 1.970 . S
O173 C172 1.258 . S
O174 Co171 1.966 . S
O174 C172 1.263 . S
C175 O176 1.235 . S
C175 O202 1.289 . S
O176 C175 1.235 . S
C177 C179 1.400 . S
C177 N180 1.351 . S
C177 C182 1.501 . S
C178 C179 1.387 . S
C178 N181 1.341 . S
C179 C177 1.400 . S
C179 C178 1.387 . S
N180 Co171 2.022 . S
N180 C177 1.351 . S
N180 N181 1.365 . S
N181 C178 1.341 . S
N181 N180 1.365 . S
N181 H201 0.862 . S
C182 C177 1.501 . S
C182 H183 0.961 . S
C182 H184 0.961 . S
C182 H185 0.960 . S
H183 C182 0.961 . S
H184 C182 0.961 . S
H185 C182 0.960 . S
C186 N187 1.342 . S
C186 C190 1.401 . S
C186 C191 1.499 . S
N187 Co170 1.989 . S
N187 C186 1.342 . S
N187 N188 1.388 . S
N188 Co171 1.993 . S
N188 N187 1.388 . S
N188 C189 1.346 . S
C189 N188 1.346 . S
C189 C190 1.396 . S
C189 C199 1.510 . S
C190 C186 1.401 . S
C190 C189 1.396 . S
C191 C186 1.499 . S
C191 H192 0.959 . S
C191 H193 0.960 1_455 S
C191 H194 0.961 . S
H192 C191 0.959 . S
H193 C191 0.960 1_655 S
H194 C191 0.961 . S
O195 Co170 1.967 . S
O195 C203 1.258 . S
O196 Co171 1.941 . S
O196 C203 1.266 . S
H197 C199 0.959 . S
H198 C199 0.961 . S
C199 C189 1.510 . S
C199 H197 0.959 . S
C199 H198 0.961 . S
C199 H200 0.960 . S
H200 C199 0.960 . S
H201 N181 0.862 . S
O202 Co170 1.920 . S
O202 C175 1.289 . S
C203 O195 1.258 . S
C203 O196 1.266 . S
C204 C205 1.349 . S
C204 C206 1.327 . S
C204 H229 0.950 . S
C205 C204 1.349 . S
C205 C221 1.349 . S
C206 C204 1.327 . S
C206 C225 1.429 . S
C206 H230 0.950 . S
C207 C224 1.556 1_545 S
C207 C226 1.368 . S
C207 H231 0.949 . S
H208 C212 0.949 . S
C209 C210 1.349 . S
C209 C211 1.327 . S
C209 H232 0.950 . S
C210 C209 1.349 . S
C210 C222 1.349 . S
C211 C209 1.327 . S
C211 C227 1.429 . S
C211 H233 0.950 . S
C212 H208 0.949 . S
C212 C220 1.574 1_565 S
C212 C228 1.368 . S
H213 C221 0.950 . S
H214 C219 0.950 . S
H215 C220 0.949 . S
H216 C222 0.950 . S
H217 C223 0.950 . S
H218 C224 0.957 . S
C219 H214 0.950 . S
C219 C221 1.327 . S
C219 C225 1.429 . S
C220 C212 1.574 1_545 S
C220 H215 0.949 . S
C220 C226 1.368 . S
C221 C205 1.349 . S
C221 H213 0.950 . S
C221 C219 1.327 . S
C222 C210 1.349 . S
C222 H216 0.950 . S
C222 C223 1.327 . S
C223 H217 0.950 . S
C223 C222 1.327 . S
C223 C227 1.429 . S
C224 C207 1.556 1_565 S
C224 H218 0.957 . S
C224 C228 1.378 . S
C225 C206 1.429 . S
C225 C219 1.429 . S
C225 C226 1.523 . S
C226 C207 1.368 . S
C226 C220 1.368 . S
C226 C225 1.523 . S
C227 C211 1.429 . S
C227 C223 1.429 . S
C227 C228 1.523 . S
C228 C212 1.368 . S
C228 C224 1.378 . S
C228 C227 1.523 . S
H229 C204 0.950 . S
H230 C206 0.950 . S
H231 C207 0.949 . S
H232 C209 0.950 . S
H233 C211 0.950 . S
C234 C235 1.349 . S
C234 C236 1.327 . S
C234 H259 0.950 . S
C235 C234 1.349 . S
C235 C251 1.349 . S
C236 C234 1.327 . S
C236 C255 1.429 . S
C236 H260 0.950 . S
C237 C254 1.574 1_455 S
C237 C256 1.368 . S
C237 H261 0.949 . S
H238 C242 0.949 . S
C239 C240 1.349 . S
C239 C241 1.327 . S
C239 H262 0.950 . S
C240 C239 1.349 . S
C240 C252 1.349 . S
C241 C239 1.327 . S
C241 C257 1.429 . S
C241 H263 0.950 . S
C242 H238 0.949 . S
C242 C250 1.574 1_655 S
C242 C258 1.368 . S
H243 C251 0.950 . S
H244 C249 0.950 . S
H245 C250 0.949 . S
H246 C252 0.950 . S
H247 C253 0.950 . S
H248 C254 0.949 . S
C249 H244 0.950 . S
C249 C251 1.327 . S
C249 C255 1.429 . S
C250 C242 1.574 1_455 S
C250 H245 0.949 . S
C250 C256 1.368 . S
C251 C235 1.349 . S
C251 H243 0.950 . S
C251 C249 1.327 . S
C252 C240 1.349 . S
C252 H246 0.950 . S
C252 C253 1.327 . S
C253 H247 0.950 . S
C253 C252 1.327 . S
C253 C257 1.429 . S
C254 C237 1.574 1_655 S
C254 H248 0.949 . S
C254 C258 1.368 . S
C255 C236 1.429 . S
C255 C249 1.429 . S
C255 C256 1.523 . S
C256 C237 1.368 . S
C256 C250 1.368 . S
C256 C255 1.523 . S
C257 C241 1.429 . S
C257 C253 1.429 . S
C257 C258 1.523 . S
C258 C242 1.368 . S
C258 C254 1.368 . S
C258 C257 1.523 . S
H259 C234 0.950 . S
H260 C236 0.950 . S
H261 C237 0.949 . S
H262 C239 0.950 . S
H263 C241 0.950 . S
C264 C265 1.349 . S
C264 C266 1.327 . S
C264 H289 0.950 . S
C265 C264 1.349 . S
C265 C281 1.349 . S
C266 C264 1.327 . S
C266 C285 1.429 . S
C266 H290 0.950 . S
C267 C284 1.574 . S
C267 C286 1.368 . S
C267 H291 0.949 . S
H268 C272 0.949 . S
C269 C270 1.349 . S
C269 C271 1.327 . S
C269 H292 0.950 . S
C270 C269 1.349 . S
C270 C282 1.349 . S
C271 C269 1.327 . S
C271 C287 1.429 . S
C271 H293 0.950 . S
C272 H268 0.949 . S
C272 C280 1.574 . S
C272 C288 1.368 . S
H273 C281 0.950 . S
H274 C279 0.950 . S
H275 C280 0.949 . S
H276 C282 0.950 . S
H277 C283 0.950 . S
H278 C284 0.949 . S
C279 H274 0.950 . S
C279 C281 1.327 . S
C279 C285 1.429 . S
C280 C272 1.574 . S
C280 H275 0.949 . S
C280 C286 1.368 . S
C281 C265 1.349 . S
C281 H273 0.950 . S
C281 C279 1.327 . S
C282 C270 1.349 . S
C282 H276 0.950 . S
C282 C283 1.327 . S
C283 H277 0.950 . S
C283 C282 1.327 . S
C283 C287 1.429 . S
C284 C267 1.574 . S
C284 H278 0.949 . S
C284 C288 1.368 . S
C285 C266 1.429 . S
C285 C279 1.429 . S
C285 C286 1.523 . S
C286 C267 1.368 . S
C286 C280 1.368 . S
C286 C285 1.523 . S
C287 C271 1.429 . S
C287 C283 1.429 . S
C287 C288 1.523 . S
C288 C272 1.368 . S
C288 C284 1.368 . S
C288 C287 1.523 . S
H289 C264 0.950 . S
H290 C266 0.950 . S
H291 C267 0.949 . S
H292 C269 0.950 . S
H293 C271 0.950 . S
C294 C295 1.349 . S
C294 C296 1.327 . S
C294 H319 0.950 . S
C295 C294 1.349 . S
C295 C311 1.349 . S
C296 C294 1.327 . S
C296 C315 1.429 . S
C296 H320 0.950 . S
C297 C314 1.574 . S
C297 C316 1.368 . S
C297 H321 0.949 . S
H298 C302 0.949 . S
C299 C300 1.349 . S
C299 C301 1.327 . S
C299 H322 0.950 . S
C300 C299 1.349 . S
C300 C312 1.349 . S
C301 C299 1.327 . S
C301 C317 1.429 . S
C301 H323 0.950 . S
C302 H298 0.949 . S
C302 C310 1.574 . S
C302 C318 1.368 . S
H303 C311 0.950 . S
H304 C309 0.950 . S
H305 C310 0.949 . S
H306 C312 0.950 . S
H307 C313 0.950 . S
H308 C314 0.949 . S
C309 H304 0.950 . S
C309 C311 1.327 . S
C309 C315 1.429 . S
C310 C302 1.574 . S
C310 H305 0.949 . S
C310 C316 1.368 . S
C311 C295 1.349 . S
C311 H303 0.950 . S
C311 C309 1.327 . S
C312 C300 1.349 . S
C312 H306 0.950 . S
C312 C313 1.327 . S
C313 H307 0.950 . S
C313 C312 1.327 . S
C313 C317 1.429 . S
C314 C297 1.574 . S
C314 H308 0.949 . S
C314 C318 1.368 . S
C315 C296 1.429 . S
C315 C309 1.429 . S
C315 C316 1.523 . S
C316 C297 1.368 . S
C316 C310 1.368 . S
C316 C315 1.523 . S
C317 C301 1.429 . S
C317 C313 1.429 . S
C317 C318 1.523 . S
C318 C302 1.368 . S
C318 C314 1.368 . S
C318 C317 1.523 . S
H319 C294 0.950 . S
H320 C296 0.950 . S
H321 C297 0.949 . S
H322 C299 0.950 . S
H323 C301 0.950 . S
C324 C325 1.349 . S
C324 C326 1.327 . S
C324 H349 0.950 . S
C325 C324 1.349 . S
C325 C341 1.349 . S
C326 C324 1.327 . S
C326 C345 1.429 . S
C326 H350 0.950 . S
C327 C344 1.574 . S
C327 C346 1.368 . S
C327 H351 0.949 . S
H328 C332 0.949 . S
C329 C330 1.349 . S
C329 C331 1.327 . S
C329 H352 0.950 . S
C330 C329 1.349 . S
C330 C342 1.349 . S
C331 C329 1.327 . S
C331 C347 1.429 . S
C331 H353 0.950 . S
C332 H328 0.949 . S
C332 C340 1.574 . S
C332 C348 1.368 . S
H333 C341 0.950 . S
H334 C339 0.950 . S
H335 C340 0.949 . S
H336 C342 0.950 1_545 S
H337 C343 0.950 . S
H338 C344 0.949 . S
C339 H334 0.950 . S
C339 C341 1.327 . S
C339 C345 1.429 . S
C340 C332 1.574 . S
C340 H335 0.949 . S
C340 C346 1.368 . S
C341 C325 1.349 . S
C341 H333 0.950 . S
C341 C339 1.327 . S
C342 C330 1.349 . S
C342 H336 0.950 1_565 S
C342 C343 1.327 . S
C343 H337 0.950 . S
C343 C342 1.327 . S
C343 C347 1.429 . S
C344 C327 1.574 . S
C344 H338 0.949 . S
C344 C348 1.368 . S
C345 C326 1.429 . S
C345 C339 1.429 . S
C345 C346 1.523 . S
C346 C327 1.368 . S
C346 C340 1.368 . S
C346 C345 1.523 . S
C347 C331 1.429 . S
C347 C343 1.429 . S
C347 C348 1.523 . S
C348 C332 1.368 . S
C348 C344 1.368 . S
C348 C347 1.523 . S
H349 C324 0.950 . S
H350 C326 0.950 . S
H351 C327 0.949 . S
H352 C329 0.950 . S
H353 C331 0.950 . S
C354 C355 1.349 . S
C354 C356 1.327 . S
C354 H379 0.950 1_455 S
C355 C354 1.349 . S
C355 C371 1.349 . S
C356 C354 1.327 . S
C356 C375 1.429 . S
C356 H380 0.950 . S
C357 C374 1.574 . S
C357 C376 1.368 . S
C357 H381 0.949 . S
H358 C362 0.949 . S
C359 C360 1.349 . S
C359 C361 1.327 . S
C359 H382 0.950 . S
C360 C359 1.349 . S
C360 C372 1.349 . S
C361 C359 1.327 . S
C361 C377 1.429 . S
C361 H383 0.950 . S
C362 H358 0.949 . S
C362 C370 1.574 . S
C362 C378 1.368 . S
H363 C371 0.950 . S
H364 C369 0.950 . S
H365 C370 0.949 . S
H366 C372 0.950 . S
H367 C373 0.950 . S
H368 C374 0.949 . S
C369 H364 0.950 . S
C369 C371 1.327 . S
C369 C375 1.429 . S
C370 C362 1.574 . S
C370 H365 0.949 . S
C370 C376 1.368 . S
C371 C355 1.349 . S
C371 H363 0.950 . S
C371 C369 1.327 . S
C372 C360 1.349 . S
C372 H366 0.950 . S
C372 C373 1.327 . S
C373 H367 0.950 . S
C373 C372 1.327 . S
C373 C377 1.429 . S
C374 C357 1.574 . S
C374 H368 0.949 . S
C374 C378 1.368 . S
C375 C356 1.429 . S
C375 C369 1.429 . S
C375 C376 1.523 . S
C376 C357 1.368 . S
C376 C370 1.368 . S
C376 C375 1.523 . S
C377 C361 1.429 . S
C377 C373 1.429 . S
C377 C378 1.523 . S
C378 C362 1.368 . S
C378 C374 1.368 . S
C378 C377 1.523 . S
H379 C354 0.950 1_655 S
H380 C356 0.950 . S
H381 C357 0.949 . S
H382 C359 0.950 . S
H383 C361 0.950 . S
C384 C385 1.349 . S
C384 C386 1.327 . S
C384 H409 0.950 . S
C385 C384 1.349 . S
C385 C401 1.349 . S
C386 C384 1.327 . S
C386 C405 1.429 . S
C386 H410 0.950 . S
C387 C404 1.574 . S
C387 C406 1.368 . S
C387 H411 0.949 . S
H388 C392 0.949 . S
C389 C390 1.349 . S
C389 C391 1.327 . S
C389 H412 0.950 . S
C390 C389 1.349 . S
C390 C402 1.349 . S
C391 C389 1.327 . S
C391 C407 1.429 . S
C391 H413 0.950 . S
C392 H388 0.949 . S
C392 C400 1.574 . S
C392 C408 1.368 . S
H393 C401 0.950 . S
H394 C399 0.950 . S
H395 C400 0.949 . S
H396 C402 0.950 . S
H397 C403 0.950 . S
H398 C404 0.949 . S
C399 H394 0.950 . S
C399 C401 1.327 . S
C399 C405 1.429 . S
C400 C392 1.574 . S
C400 H395 0.949 . S
C400 C406 1.368 . S
C401 C385 1.349 . S
C401 H393 0.950 . S
C401 C399 1.327 . S
C402 C390 1.349 . S
C402 H396 0.950 . S
C402 C403 1.327 . S
C403 H397 0.950 . S
C403 C402 1.327 . S
C403 C407 1.429 . S
C404 C387 1.574 . S
C404 H398 0.949 . S
C404 C408 1.368 . S
C405 C386 1.429 . S
C405 C399 1.429 . S
C405 C406 1.523 . S
C406 C387 1.368 . S
C406 C400 1.368 . S
C406 C405 1.523 . S
C407 C391 1.429 . S
C407 C403 1.429 . S
C407 C408 1.523 . S
C408 C392 1.368 . S
C408 C404 1.368 . S
C408 C407 1.523 . S
H409 C384 0.950 . S
H410 C386 0.950 . S
H411 C387 0.949 . S
H412 C389 0.950 . S
H413 C391 0.950 . S
C414 C415 1.349 . S
C414 C416 1.327 . S
C414 H439 0.950 . S
C415 C414 1.349 . S
C415 C431 1.349 . S
C416 C414 1.327 . S
C416 C435 1.429 . S
C416 H440 0.950 . S
C417 C434 1.574 . S
C417 C436 1.368 . S
C417 H441 0.949 . S
H418 C422 0.949 . S
C419 C420 1.349 . S
C419 C421 1.327 . S
C419 H442 0.950 . S
C420 C419 1.349 . S
C420 C432 1.349 . S
C421 C419 1.327 . S
C421 C437 1.429 . S
C421 H443 0.950 . S
C422 H418 0.949 . S
C422 C430 1.574 . S
C422 C438 1.368 . S
H423 C431 0.950 . S
H424 C429 0.950 . S
H425 C430 0.949 . S
H426 C432 0.950 1_565 S
H427 C433 0.950 . S
H428 C434 0.949 . S
C429 H424 0.950 . S
C429 C431 1.327 . S
C429 C435 1.429 . S
C430 C422 1.574 . S
C430 H425 0.949 . S
C430 C436 1.368 . S
C431 C415 1.349 . S
C431 H423 0.950 . S
C431 C429 1.327 . S
C432 C420 1.349 . S
C432 H426 0.950 1_545 S
C432 C433 1.327 . S
C433 H427 0.950 . S
C433 C432 1.327 . S
C433 C437 1.429 . S
C434 C417 1.574 . S
C434 H428 0.949 . S
C434 C438 1.368 . S
C435 C416 1.429 . S
C435 C429 1.429 . S
C435 C436 1.523 . S
C436 C417 1.368 . S
C436 C430 1.368 . S
C436 C435 1.523 . S
C437 C421 1.429 . S
C437 C433 1.429 . S
C437 C438 1.523 . S
C438 C422 1.368 . S
C438 C434 1.368 . S
C438 C437 1.523 . S
H439 C414 0.950 . S
H440 C416 0.950 . S
H441 C417 0.949 . S
H442 C419 0.950 . S
H443 C421 0.950 . S
C444 C445 1.349 . S
C444 C446 1.327 . S
C444 H469 0.950 . S
C445 C444 1.349 . S
C445 C461 1.349 . S
C446 C444 1.327 . S
C446 C465 1.429 . S
C446 H470 0.950 . S
C447 C464 1.574 . S
C447 C466 1.368 . S
C447 H471 0.949 . S
H448 C452 0.949 . S
C449 C450 1.349 . S
C449 C451 1.327 . S
C449 H472 0.950 . S
C450 C449 1.349 . S
C450 C462 1.349 . S
C451 C449 1.327 . S
C451 C467 1.429 . S
C451 H473 0.950 . S
C452 H448 0.949 . S
C452 C460 1.574 . S
C452 C468 1.368 . S
H453 C461 0.950 . S
H454 C459 0.950 . S
H455 C460 0.949 . S
H456 C462 0.950 . S
H457 C463 0.950 . S
H458 C464 0.949 . S
C459 H454 0.950 . S
C459 C461 1.327 . S
C459 C465 1.429 . S
C460 C452 1.574 . S
C460 H455 0.949 . S
C460 C466 1.368 . S
C461 C445 1.349 . S
C461 H453 0.950 . S
C461 C459 1.327 . S
C462 C450 1.349 . S
C462 H456 0.950 . S
C462 C463 1.327 . S
C463 H457 0.950 . S
C463 C462 1.327 . S
C463 C467 1.429 . S
C464 C447 1.574 . S
C464 H458 0.949 . S
C464 C468 1.368 . S
C465 C446 1.429 . S
C465 C459 1.429 . S
C465 C466 1.523 . S
C466 C447 1.368 . S
C466 C460 1.368 . S
C466 C465 1.523 . S
C467 C451 1.429 . S
C467 C463 1.429 . S
C467 C468 1.523 . S
C468 C452 1.368 . S
C468 C464 1.368 . S
C468 C467 1.523 . S
H469 C444 0.950 . S
H470 C446 0.950 . S
H471 C447 0.949 . S
H472 C449 0.950 . S
H473 C451 0.950 . S
C474 C475 1.349 . S
C474 C476 1.327 1_565 S
C474 H499 0.950 . S
C475 C474 1.349 . S
C475 C491 1.349 . S
C476 C474 1.327 1_545 S
C476 C495 1.432 1_545 S
C476 H500 0.950 . S
C477 C494 1.574 . S
C477 C496 1.368 . S
C477 H501 0.949 1_545 S
H478 C482 0.949 . S
C479 C480 1.349 . S
C479 C481 1.327 . S
C479 H502 0.950 . S
C480 C479 1.349 . S
C480 C492 1.349 . S
C481 C479 1.327 . S
C481 C497 1.429 . S
C481 H503 0.950 . S
C482 H478 0.949 . S
C482 C490 1.574 . S
C482 C498 1.368 . S
H483 C491 0.950 . S
H484 C489 0.950 . S
H485 C490 0.949 . S
H486 C492 0.950 . S
H487 C493 0.950 . S
H488 C494 0.949 . S
C489 H484 0.950 . S
C489 C491 1.327 . S
C489 C495 1.441 . S
C490 C482 1.574 . S
C490 H485 0.949 . S
C490 C496 1.368 . S
C491 C475 1.349 . S
C491 H483 0.950 . S
C491 C489 1.327 . S
C492 C480 1.349 . S
C492 H486 0.950 . S
C492 C493 1.327 . S
C493 H487 0.950 . S
C493 C492 1.327 . S
C493 C497 1.429 . S
C494 C477 1.574 . S
C494 H488 0.949 . S
C494 C498 1.368 . S
C495 C476 1.432 1_565 S
C495 C489 1.441 . S
C495 C496 1.509 1_565 S
C496 C477 1.368 . S
C496 C490 1.368 . S
C496 C495 1.509 1_545 S
C497 C481 1.429 . S
C497 C493 1.429 . S
C497 C498 1.523 . S
C498 C482 1.368 . S
C498 C494 1.368 . S
C498 C497 1.523 . S
H499 C474 0.950 . S
H500 C476 0.950 . S
H501 C477 0.949 1_565 S
H502 C479 0.950 . S
H503 C481 0.950 . S
C504 C505 1.349 . S
C504 C506 1.327 . S
C504 H529 0.950 . S
C505 C504 1.349 . S
C505 C521 1.349 . S
C506 C504 1.327 . S
C506 C525 1.429 . S
C506 H530 0.950 . S
C507 C524 1.574 1_556 S
C507 C526 1.368 . S
C507 H531 0.949 . S
H508 C512 0.949 . S
C509 C510 1.349 . S
C509 C511 1.327 . S
C509 H532 0.950 . S
C510 C509 1.349 . S
C510 C522 1.349 . S
C511 C509 1.327 . S
C511 C527 1.419 . S
C511 H533 0.950 1_455 S
C512 H508 0.949 . S
C512 C520 1.574 . S
C512 C528 1.368 . S
H513 C521 0.950 . S
H514 C519 0.950 . S
H515 C520 0.943 1_556 S
H516 C522 0.950 . S
H517 C523 0.950 . S
H518 C524 0.949 . S
C519 H514 0.950 . S
C519 C521 1.327 . S
C519 C525 1.429 . S
C520 C512 1.574 . S
C520 H515 0.943 1_554 S
C520 C526 1.368 1_554 S
C521 C505 1.349 . S
C521 H513 0.950 . S
C521 C519 1.327 . S
C522 C510 1.349 . S
C522 H516 0.950 . S
C522 C523 1.327 . S
C523 H517 0.950 . S
C523 C522 1.327 . S
C523 C527 1.446 . S
C524 C507 1.574 1_554 S
C524 H518 0.949 . S
C524 C528 1.368 . S
C525 C506 1.429 . S
C525 C519 1.429 . S
C525 C526 1.523 . S
C526 C507 1.368 . S
C526 C520 1.368 1_556 S
C526 C525 1.523 . S
C527 C511 1.419 . S
C527 C523 1.446 . S
C527 C528 1.517 1_455 S
C528 C512 1.368 . S
C528 C524 1.368 . S
C528 C527 1.517 1_655 S
H529 C504 0.950 . S
H530 C506 0.950 . S
H531 C507 0.949 . S
H532 C509 0.950 . S
H533 C511 0.950 1_655 S
C534 C535 1.349 . S
C534 C536 1.327 . S
C534 H559 0.950 . S
C535 C534 1.349 . S
C535 C551 1.349 . S
C536 C534 1.327 . S
C536 C555 1.429 . S
C536 H560 0.950 . S
C537 C554 1.574 . S
C537 C556 1.368 . S
C537 H561 0.949 . S
H538 C542 0.949 . S
C539 C540 1.349 . S
C539 C541 1.327 . S
C539 H562 0.950 . S
C540 C539 1.349 . S
C540 C552 1.349 . S
C541 C539 1.327 . S
C541 C557 1.429 . S
C541 H563 0.950 . S
C542 H538 0.949 . S
C542 C550 1.574 . S
C542 C558 1.368 . S
H543 C551 0.950 . S
H544 C549 0.950 . S
H545 C550 0.949 . S
H546 C552 0.950 . S
H547 C553 0.950 . S
H548 C554 0.949 . S
C549 H544 0.950 . S
C549 C551 1.327 . S
C549 C555 1.429 . S
C550 C542 1.574 . S
C550 H545 0.949 . S
C550 C556 1.368 . S
C551 C535 1.349 . S
C551 H543 0.950 . S
C551 C549 1.327 . S
C552 C540 1.349 . S
C552 H546 0.950 . S
C552 C553 1.327 . S
C553 H547 0.950 . S
C553 C552 1.327 . S
C553 C557 1.429 . S
C554 C537 1.574 . S
C554 H548 0.949 . S
C554 C558 1.368 . S
C555 C536 1.429 . S
C555 C549 1.429 . S
C555 C556 1.523 . S
C556 C537 1.368 . S
C556 C550 1.368 . S
C556 C555 1.523 . S
C557 C541 1.429 . S
C557 C553 1.429 . S
C557 C558 1.523 . S
C558 C542 1.368 . S
C558 C554 1.368 . S
C558 C557 1.523 . S
H559 C534 0.950 . S
H560 C536 0.950 . S
H561 C537 0.949 . S
H562 C539 0.950 . S
H563 C541 0.950 . S
C564 C565 1.349 . S
C564 C566 1.327 . S
C564 H589 0.950 . S
C565 C564 1.349 . S
C565 C581 1.349 . S
C566 C564 1.327 . S
C566 C585 1.429 . S
C566 H590 0.950 . S
C567 C584 1.574 . S
C567 C586 1.368 . S
C567 H591 0.949 . S
H568 C572 0.949 . S
C569 C570 1.349 . S
C569 C571 1.327 . S
C569 H592 0.950 . S
C570 C569 1.349 . S
C570 C582 1.349 . S
C571 C569 1.327 . S
C571 C587 1.451 . S
C571 H593 0.950 . S
C572 H568 0.949 . S
C572 C580 1.574 . S
C572 C588 1.368 . S
H573 C581 0.950 . S
H574 C579 0.950 . S
H575 C580 0.949 . S
H576 C582 0.950 1_455 S
H577 C583 0.950 . S
H578 C584 0.949 1_655 S
C579 H574 0.950 . S
C579 C581 1.327 . S
C579 C585 1.429 . S
C580 C572 1.574 . S
C580 H575 0.949 . S
C580 C586 1.368 . S
C581 C565 1.349 . S
C581 H573 0.950 . S
C581 C579 1.327 . S
C582 C570 1.349 . S
C582 H576 0.950 1_655 S
C582 C583 1.327 1_655 S
C583 H577 0.950 . S
C583 C582 1.327 1_455 S
C583 C587 1.422 1_455 S
C584 C567 1.574 . S
C584 H578 0.949 1_455 S
C584 C588 1.368 . S
C585 C566 1.429 . S
C585 C579 1.429 . S
C585 C586 1.523 . S
C586 C567 1.368 . S
C586 C580 1.368 . S
C586 C585 1.523 . S
C587 C571 1.451 . S
C587 C583 1.422 1_655 S
C587 C588 1.509 1_655 S
C588 C572 1.368 . S
C588 C584 1.368 . S
C588 C587 1.509 1_455 S
H589 C564 0.950 . S
H590 C566 0.950 . S
H591 C567 0.949 . S
H592 C569 0.950 . S
H593 C571 0.950 . S
C594 C595 1.349 . S
C594 C596 1.327 . S
C594 H619 0.950 . S
C595 C594 1.349 . S
C595 C611 1.349 . S
C596 C594 1.327 . S
C596 C615 1.429 . S
C596 H620 0.950 . S
C597 C614 1.574 . S
C597 C616 1.368 . S
C597 H621 0.949 . S
H598 C602 0.949 . S
C599 C600 1.349 . S
C599 C601 1.327 . S
C599 H622 0.950 . S
C600 C599 1.349 . S
C600 C612 1.349 . S
C601 C599 1.327 . S
C601 C617 1.429 . S
C601 H623 0.950 . S
C602 H598 0.949 . S
C602 C610 1.574 . S
C602 C618 1.368 . S
H603 C611 0.950 . S
H604 C609 0.950 . S
H605 C610 0.949 . S
H606 C612 0.950 . S
H607 C613 0.950 . S
H608 C614 0.949 . S
C609 H604 0.950 . S
C609 C611 1.327 . S
C609 C615 1.429 . S
C610 C602 1.574 . S
C610 H605 0.949 . S
C610 C616 1.368 . S
C611 C595 1.349 . S
C611 H603 0.950 . S
C611 C609 1.327 . S
C612 C600 1.349 . S
C612 H606 0.950 . S
C612 C613 1.327 . S
C613 H607 0.950 . S
C613 C612 1.327 . S
C613 C617 1.429 . S
C614 C597 1.574 . S
C614 H608 0.949 . S
C614 C618 1.368 . S
C615 C596 1.429 . S
C615 C609 1.429 . S
C615 C616 1.523 . S
C616 C597 1.368 . S
C616 C610 1.368 . S
C616 C615 1.523 . S
C617 C601 1.429 . S
C617 C613 1.429 . S
C617 C618 1.523 . S
C618 C602 1.368 . S
C618 C614 1.368 . S
C618 C617 1.523 . S
H619 C594 0.950 . S
H620 C596 0.950 . S
H621 C597 0.949 . S
H622 C599 0.950 . S
H623 C601 0.950 . S
C624 C625 1.349 . S
C624 C626 1.327 1_545 S
C624 H649 0.950 1_545 S
C625 C624 1.349 . S
C625 C641 1.349 . S
C626 C624 1.327 1_565 S
C626 C645 1.414 1_565 S
C626 H650 0.950 . S
C627 C644 1.574 1_556 S
C627 C646 1.368 . S
C627 H651 0.949 1_565 S
H628 C632 0.949 . S
C629 C630 1.349 . S
C629 C631 1.327 . S
C629 H652 0.950 . S
C630 C629 1.349 . S
C630 C642 1.349 . S
C631 C629 1.327 . S
C631 C647 1.429 . S
C631 H653 0.950 . S
C632 H628 0.949 . S
C632 C640 1.574 . S
C632 C648 1.368 1_556 S
H633 C641 0.950 . S
H634 C639 0.950 . S
H635 C640 0.949 . S
H636 C642 0.950 . S
H637 C643 0.950 . S
H638 C644 0.949 . S
C639 H634 0.950 . S
C639 C641 1.327 . S
C639 C645 1.450 . S
C640 C632 1.574 . S
C640 H635 0.949 . S
C640 C646 1.368 . S
C641 C625 1.349 . S
C641 H633 0.950 . S
C641 C639 1.327 . S
C642 C630 1.349 . S
C642 H636 0.950 . S
C642 C643 1.327 . S
C643 H637 0.950 . S
C643 C642 1.327 . S
C643 C647 1.429 . S
C644 C627 1.574 1_554 S
C644 H638 0.949 . S
C644 C648 1.368 . S
C645 C626 1.414 1_545 S
C645 C639 1.450 . S
C645 C646 1.517 1_545 S
C646 C627 1.368 . S
C646 C640 1.368 . S
C646 C645 1.517 1_565 S
C647 C631 1.429 . S
C647 C643 1.429 . S
C647 C648 1.523 . S
C648 C632 1.368 1_554 S
C648 C644 1.368 . S
C648 C647 1.523 . S
H649 C624 0.950 1_565 S
H650 C626 0.950 . S
H651 C627 0.949 1_545 S
H652 C629 0.950 . S
H653 C631 0.950 . S
C205 C2 1.952 . S
C210 C172 1.952 . S
C235 C104 1.952 . S
C240 C36 1.952 . S
C265 C138 1.952 . S
C270 C70 1.952 . S
C295 C203 1.489 . S
C300 C5 1.475 . S
C325 C135 1.490 . S
C330 C39 1.476 1_565 S
C355 C73 1.476 1_455 S
C360 C169 1.490 . S
C385 C67 1.489 . S
C390 C107 1.476 . S
C415 C101 1.490 . S
C420 C141 1.476 1_545 S
C445 C175 1.476 1_655 S
C450 C33 1.490 . S
C475 C156 1.284 . S
C480 C9 1.248 . S
C505 C43 1.248 . S
C510 C190 1.284 . S
C535 C122 1.284 . S
C540 C77 1.248 . S
C565 C111 1.248 . S
C570 C88 1.284 . S
C595 C20 1.284 . S
C600 C145 1.248 . S
C625 C54 1.284 . S
C630 C179 1.248 . S
