# Generated by pormake.
# Topology unm, (4)-cn, num edge types: 1
# Building blocks:
#     Node 0, Type 0, BuildingBlock: QUQFOY_clean_sbu_1, # of connection points: 4
#     Node 1, Type 0, BuildingBlock: QUQFOY_clean_sbu_1, # of connection points: 4
#     Node 2, Type 0, BuildingBlock: QUQFOY_clean_sbu_1, # of connection points: 4
#     Node 3, Type 0, BuildingBlock: QUQFOY_clean_sbu_1, # of connection points: 4
#     Node 4, Type 0, BuildingBlock: QUQFOY_clean_sbu_1, # of connection points: 4
#     Node 5, Type 0, BuildingBlock: QUQFOY_clean_sbu_1, # of connection points: 4
#     Node 6, Type 0, BuildingBlock: QUQFOY_clean_sbu_1, # of connection points: 4
#     Node 7, Type 0, BuildingBlock: QUQFOY_clean_sbu_1, # of connection points: 4
#     Edge 8, Type (0, 0), BuildingBlock: ZUJKAS_clean_linker_0, # of connection points: 2
#     Edge 9, Type (0, 0), BuildingBlock: ZUJKAS_clean_linker_0, # of connection points: 2
#     Edge 10, Type (0, 0), BuildingBlock: ZUJKAS_clean_linker_0, # of connection points: 2
#     Edge 11, Type (0, 0), BuildingBlock: ZUJKAS_clean_linker_0, # of connection points: 2
#     Edge 12, Type (0, 0), BuildingBlock: ZUJKAS_clean_linker_0, # of connection points: 2
#     Edge 13, Type (0, 0), BuildingBlock: ZUJKAS_clean_linker_0, # of connection points: 2
#     Edge 14, Type (0, 0), BuildingBlock: ZUJKAS_clean_linker_0, # of connection points: 2
#     Edge 15, Type (0, 0), BuildingBlock: ZUJKAS_clean_linker_0, # of connection points: 2
#     Edge 16, Type (0, 0), BuildingBlock: ZUJKAS_clean_linker_0, # of connection points: 2
#     Edge 17, Type (0, 0), BuildingBlock: ZUJKAS_clean_linker_0, # of connection points: 2
#     Edge 18, Type (0, 0), BuildingBlock: ZUJKAS_clean_linker_0, # of connection points: 2
#     Edge 19, Type (0, 0), BuildingBlock: ZUJKAS_clean_linker_0, # of connection points: 2
#     Edge 20, Type (0, 0), BuildingBlock: ZUJKAS_clean_linker_0, # of connection points: 2
#     Edge 21, Type (0, 0), BuildingBlock: ZUJKAS_clean_linker_0, # of connection points: 2
#     Edge 22, Type (0, 0), BuildingBlock: ZUJKAS_clean_linker_0, # of connection points: 2
#     Edge 23, Type (0, 0), BuildingBlock: ZUJKAS_clean_linker_0, # of connection points: 2
# Relax obj value: 0.178
# Max RMSD: 0.175
# Mean RMSD: 0.175
data_MOF--net-unm--node1-QUQFOY_clean_sbu_1--edge1-ZUJKAS_clean_linker_0
_symmetry_space_group_name_H-M    P1
_symmetry_Int_Tables_number       1
_symmetry_cell_setting            triclinic
loop_
_symmetry_equiv_pos_as_xyz
'x, y, z'
_cell_length_a     35.431642
_cell_length_b     35.437654
_cell_length_c     57.415564
_cell_angle_alpha  89.987527
_cell_angle_beta   90.011935
_cell_angle_gamma 89.986943
loop_
_atom_site_label
_atom_site_type_symbol
_atom_site_fract_x
_atom_site_fract_y
_atom_site_fract_z
_atom_type_partial_charge
O0 O 0.20437 0.27446 0.12821 0.0
Cd1 Cd 0.19653 0.29699 0.16103 0.0
Cd2 Cd 0.13335 0.25033 0.15733 0.0
O3 O 0.16231 0.22856 0.1294 0.0
O4 O 0.24457 0.32419 0.16761 0.0
O5 O 0.22536 0.27497 0.18808 0.0
C6 C 0.25054 0.30061 0.18428 0.0
C7 C 0.09535 0.21316 0.18137 0.0
C8 C 0.18907 0.24558 0.11906 0.0
C9 C 0.12156 0.33431 0.15859 0.0
O10 O 0.10889 0.30222 0.15272 0.0
O11 O 0.15568 0.33799 0.16497 0.0
O12 O 0.08758 0.21809 0.15969 0.0
O13 O 0.12672 0.22686 0.18912 0.0
O14 O 0.22113 0.70697 0.62683 0.0
Cd15 Cd 0.19467 0.69974 0.65855 0.0
Cd16 Cd 0.23936 0.63515 0.65702 0.0
O17 O 0.26482 0.6629 0.6298 0.0
O18 O 0.16941 0.74913 0.66416 0.0
O19 O 0.21416 0.7265 0.68707 0.0
C20 C 0.19069 0.75327 0.68217 0.0
C21 C 0.27374 0.5973 0.68265 0.0
C22 C 0.25014 0.69034 0.61881 0.0
C23 C 0.15507 0.62602 0.65474 0.0
O24 O 0.18732 0.61193 0.65063 0.0
O25 O 0.15186 0.66051 0.66042 0.0
O26 O 0.27107 0.58924 0.66087 0.0
O27 O 0.25899 0.62856 0.68979 0.0
O28 O 0.79522 0.72131 0.12519 0.0
Cd29 Cd 0.80149 0.69593 0.15734 0.0
Cd30 Cd 0.86797 0.73957 0.15502 0.0
O31 O 0.84151 0.76295 0.12659 0.0
O32 O 0.75158 0.67155 0.16274 0.0
O33 O 0.77423 0.71654 0.18541 0.0
C34 C 0.74729 0.69329 0.18051 0.0
C35 C 0.90683 0.77536 0.17941 0.0
C36 C 0.81318 0.74877 0.11621 0.0
C37 C 0.87461 0.65457 0.15522 0.0
O38 O 0.88966 0.68631 0.15096 0.0
O39 O 0.83973 0.6523 0.16013 0.0
O40 O 0.91532 0.76936 0.15794 0.0
O41 O 0.87455 0.76331 0.18676 0.0
O42 O 0.77771 0.29387 0.62584 0.0
Cd43 Cd 0.80015 0.30089 0.65876 0.0
Cd44 Cd 0.75421 0.36333 0.65583 0.0
O45 O 0.73083 0.33464 0.62828 0.0
O46 O 0.82651 0.25241 0.6655 0.0
O47 O 0.77707 0.27236 0.68554 0.0
C48 C 0.80236 0.24675 0.6819 0.0
C49 C 0.71903 0.40047 0.68139 0.0
C50 C 0.74817 0.30881 0.61727 0.0
C51 C 0.83776 0.37541 0.65597 0.0
O52 O 0.80568 0.38792 0.64989 0.0
O53 O 0.8413 0.34154 0.66289 0.0
O54 O 0.7213 0.40843 0.65956 0.0
O55 O 0.73422 0.3694 0.68852 0.0
O56 O 0.70445 0.22065 0.36495 0.0
Cd57 Cd 0.69835 0.19764 0.33199 0.0
Cd58 Cd 0.63394 0.24199 0.33583 0.0
O59 O 0.66297 0.26687 0.36259 0.0
O60 O 0.747 0.17037 0.32743 0.0
O61 O 0.72917 0.21811 0.30527 0.0
C62 C 0.7542 0.19293 0.31042 0.0
C63 C 0.59524 0.27642 0.31077 0.0
C64 C 0.68925 0.25008 0.37349 0.0
C65 C 0.62437 0.15866 0.33489 0.0
O66 O 0.61145 0.18972 0.34242 0.0
O67 O 0.65772 0.15665 0.32688 0.0
O68 O 0.58786 0.27365 0.33265 0.0
O69 O 0.62628 0.26175 0.30322 0.0
O70 O 0.27918 0.20442 0.86612 0.0
Cd71 Cd 0.29963 0.1984 0.8325 0.0
Cd72 Cd 0.25698 0.13279 0.83778 0.0
O73 O 0.23391 0.16172 0.86517 0.0
O74 O 0.32554 0.24727 0.82624 0.0
O75 O 0.27538 0.22826 0.80659 0.0
C76 C 0.3009 0.25363 0.81023 0.0
C77 C 0.22115 0.09183 0.81482 0.0
C78 C 0.25076 0.18857 0.87548 0.0
C79 C 0.34062 0.12549 0.83423 0.0
O80 O 0.3104 0.11184 0.84252 0.0
O81 O 0.34128 0.15887 0.82622 0.0
O82 O 0.22733 0.08519 0.83652 0.0
O83 O 0.23305 0.12347 0.80638 0.0
O84 O 0.29608 0.7771 0.36661 0.0
Cd85 Cd 0.30068 0.79968 0.33342 0.0
Cd86 Cd 0.36741 0.7573 0.33748 0.0
O87 O 0.33988 0.73291 0.36499 0.0
O88 O 0.25091 0.82494 0.32896 0.0
O89 O 0.27032 0.77769 0.30694 0.0
C90 C 0.24443 0.80199 0.31204 0.0
C91 C 0.40894 0.72289 0.31403 0.0
C92 C 0.31284 0.7489 0.37564 0.0
C93 C 0.37299 0.84155 0.33552 0.0
O94 O 0.38736 0.81095 0.34276 0.0
O95 O 0.33932 0.84243 0.32796 0.0
O96 O 0.41571 0.72881 0.33573 0.0
O97 O 0.37694 0.73425 0.30583 0.0
O98 O 0.71718 0.79524 0.86437 0.0
Cd99 Cd 0.6972 0.80114 0.83061 0.0
Cd100 Cd 0.74113 0.86423 0.83518 0.0
O101 O 0.76508 0.83473 0.86209 0.0
O102 O 0.67053 0.75273 0.82413 0.0
O103 O 0.72171 0.77071 0.80511 0.0
C104 C 0.69568 0.74577 0.80852 0.0
C105 C 0.77572 0.90229 0.80989 0.0
C106 C 0.74691 0.80954 0.87312 0.0
C107 C 0.65849 0.875 0.83258 0.0
O108 O 0.68894 0.88721 0.8414 0.0
O109 O 0.65703 0.84206 0.82393 0.0
O110 O 0.77328 0.9099 0.83177 0.0
O111 O 0.76086 0.8712 0.80254 0.0
H112 H 0.15652 0.19123 0.09174 0.0
H113 H 0.16737 0.18027 0.05028 0.0
H114 H 0.25546 0.26421 0.05037 0.0
H115 H 0.24459 0.27577 0.09176 0.0
H116 H 0.20031 0.27574 0.0163 0.0
H117 H 0.25296 0.12814 0.01475 0.0
H118 H 0.20979 0.13463 0.03065 0.0
H119 H 0.25249 0.15635 0.04093 0.0
C120 C 0.17874 0.20684 0.08309 0.0
C121 C 0.19957 0.23451 0.09507 0.0
C122 C 0.18496 0.20044 0.05939 0.0
C123 C 0.21234 0.22131 0.04733 0.0
C124 C 0.23421 0.24783 0.05941 0.0
H125 H 0.28299 0.24154 0.90387 0.0
H126 H 0.27107 0.25129 0.94531 0.0
C127 C 0.22799 0.2543 0.08308 0.0
C128 C 0.21613 0.21771 0.02178 0.0
H129 H 0.23699 0.15552 0.97831 0.0
C130 C 0.20851 0.24952 0.00797 0.0
C131 C 0.22655 0.1834 0.01103 0.0
C132 C 0.23625 0.14873 0.02507 0.0
C133 C 0.21069 0.24784 0.9836 0.0
C134 C 0.22128 0.21358 0.97286 0.0
C135 C 0.22872 0.18171 0.98665 0.0
C136 C 0.22591 0.21033 0.94735 0.0
C137 C 0.20102 0.28253 0.96957 0.0
C138 C 0.20434 0.18417 0.93477 0.0
C139 C 0.21114 0.17841 0.91107 0.0
C140 C 0.23989 0.19852 0.8996 0.0
C141 C 0.26056 0.22567 0.91212 0.0
C142 C 0.25371 0.2314 0.93581 0.0
H143 H 0.18394 0.30291 0.97982 0.0
H144 H 0.22749 0.29688 0.96426 0.0
H145 H 0.18518 0.27491 0.95355 0.0
H146 H 0.18279 0.16761 0.94341 0.0
H147 H 0.19471 0.15727 0.90198 0.0
H148 H 0.22371 0.74542 0.58974 0.0
H149 H 0.23864 0.75387 0.54858 0.0
H150 H 0.32201 0.6655 0.55292 0.0
H151 H 0.30696 0.65636 0.59411 0.0
H152 H 0.30622 0.76964 0.52442 0.0
H153 H 0.24859 0.62809 0.50225 0.0
H154 H 0.24056 0.65023 0.53012 0.0
H155 H 0.28524 0.62851 0.52389 0.0
C156 C 0.2456 0.72808 0.58208 0.0
C157 C 0.26378 0.69985 0.59517 0.0
C158 C 0.25406 0.73295 0.55853 0.0
C159 C 0.28077 0.70971 0.54764 0.0
C160 C 0.30069 0.68313 0.56094 0.0
H161 H 0.34672 0.69392 0.40191 0.0
H162 H 0.33897 0.68299 0.4437 0.0
C163 C 0.29224 0.67817 0.58451 0.0
C164 C 0.28638 0.71236 0.52218 0.0
H165 H 0.27395 0.6639 0.47133 0.0
C166 C 0.29928 0.74653 0.51279 0.0
C167 C 0.27718 0.6821 0.50712 0.0
C168 C 0.26182 0.64522 0.51625 0.0
C169 C 0.3033 0.75127 0.48868 0.0
C170 C 0.29352 0.72123 0.47362 0.0
C171 C 0.28125 0.68684 0.48299 0.0
C172 C 0.29555 0.7253 0.44803 0.0
C173 C 0.31827 0.78826 0.47951 0.0
C174 C 0.27255 0.7516 0.43656 0.0
C175 C 0.27677 0.75787 0.41271 0.0
C176 C 0.30406 0.73785 0.3999 0.0
C177 C 0.32555 0.70994 0.41125 0.0
C178 C 0.32125 0.70369 0.43513 0.0
H179 H 0.333 0.80466 0.49327 0.0
H180 H 0.33811 0.78356 0.46482 0.0
H181 H 0.29438 0.80555 0.47299 0.0
H182 H 0.25198 0.76796 0.4462 0.0
H183 H 0.25957 0.77937 0.40451 0.0
H184 H 0.75524 0.72404 0.08873 0.0
H185 H 0.74536 0.73732 0.04745 0.0
H186 H 0.83925 0.81468 0.0481 0.0
H187 H 0.84978 0.80129 0.0894 0.0
H188 H 0.73252 0.80525 0.02264 0.0
H189 H 0.86785 0.73674 -0.00233 0.0
H190 H 0.84709 0.73116 0.02617 0.0
H191 H 0.87164 0.77389 0.01884 0.0
C192 C 0.77357 0.74424 0.08022 0.0
C193 C 0.8036 0.76127 0.09233 0.0
C194 C 0.76786 0.75175 0.05661 0.0
C195 C 0.79209 0.77631 0.04467 0.0
C196 C 0.82077 0.795 0.05694 0.0
H197 H 0.80557 0.83848 0.89853 0.0
H198 H 0.81743 0.82995 0.94016 0.0
C199 C 0.82653 0.78752 0.08058 0.0
C200 C 0.78801 0.78118 0.01922 0.0
H201 H 0.83218 0.76437 0.96738 0.0
C202 C 0.75428 0.79636 0.01054 0.0
C203 C 0.8165 0.76945 0.00353 0.0
C204 C 0.85272 0.7516 0.01192 0.0
C205 C 0.74834 0.8004 0.98652 0.0
C206 C 0.77664 0.78826 0.97083 0.0
C207 C 0.81055 0.7735 0.9795 0.0
C208 C 0.77142 0.79075 0.94533 0.0
C209 C 0.71204 0.81809 0.97813 0.0
C210 C 0.74254 0.77036 0.93435 0.0
C211 C 0.73569 0.77507 0.91057 0.0
C212 C 0.75773 0.8002 0.89735 0.0
C213 C 0.78796 0.81903 0.9082 0.0
C214 C 0.79476 0.81427 0.932 0.0
H215 H 0.69769 0.83418 0.99218 0.0
H216 H 0.71732 0.83736 0.96322 0.0
H217 H 0.69258 0.79554 0.97218 0.0
H218 H 0.72476 0.75142 0.94429 0.0
H219 H 0.71236 0.75994 0.90276 0.0
H220 H 0.74242 0.21951 0.40241 0.0
H221 H 0.75116 0.23237 0.44386 0.0
H222 H 0.66672 0.31983 0.44056 0.0
H223 H 0.6574 0.30701 0.3991 0.0
H224 H 0.76962 0.29971 0.46868 0.0
H225 H 0.62651 0.24564 0.49045 0.0
H226 H 0.64861 0.23721 0.46261 0.0
H227 H 0.6281 0.28242 0.46892 0.0
C228 C 0.72602 0.24183 0.41038 0.0
C229 C 0.69888 0.26193 0.39748 0.0
C230 C 0.73105 0.2491 0.43408 0.0
C231 C 0.70899 0.27644 0.4453 0.0
C232 C 0.68343 0.29805 0.43225 0.0
H233 H 0.69293 0.34201 0.59086 0.0
H234 H 0.68211 0.33367 0.54909 0.0
C235 C 0.67837 0.29085 0.40853 0.0
C236 C 0.71187 0.28126 0.47081 0.0
H237 H 0.66286 0.26981 0.52154 0.0
C238 C 0.74632 0.29322 0.48026 0.0
C239 C 0.68133 0.27273 0.48579 0.0
C240 C 0.64409 0.25849 0.47653 0.0
C241 C 0.75103 0.29712 0.50439 0.0
C242 C 0.72067 0.28806 0.5194 0.0
C243 C 0.68606 0.27656 0.50994 0.0
C244 C 0.72453 0.29028 0.545 0.0
C245 C 0.78828 0.31139 0.51361 0.0
C246 C 0.75079 0.26745 0.55663 0.0
C247 C 0.75705 0.27206 0.58046 0.0
C248 C 0.73696 0.2995 0.59311 0.0
C249 C 0.70897 0.32071 0.58164 0.0
C250 C 0.7028 0.31608 0.55777 0.0
H251 H 0.80489 0.32599 0.49989 0.0
H252 H 0.78395 0.33116 0.52837 0.0
H253 H 0.80521 0.28715 0.51999 0.0
H254 H 0.76719 0.24674 0.54713 0.0
H255 H 0.77857 0.25503 0.58877 0.0
H256 H 0.28169 0.24589 0.21188 0.0
H257 H 0.34211 0.24839 0.23249 0.0
H258 H 0.35893 0.36265 0.20867 0.0
H259 H 0.2994 0.35974 0.18727 0.0
H260 H 0.42147 0.32412 0.20365 0.0
H261 H 0.36725 0.29872 0.29259 0.0
H262 H 0.35432 0.2614 0.27311 0.0
H263 H 0.33638 0.30836 0.26834 0.0
C264 C 0.29813 0.27164 0.21123 0.0
C265 C 0.28575 0.30266 0.19805 0.0
C266 C 0.33258 0.27313 0.22312 0.0
C267 C 0.35482 0.30597 0.2225 0.0
C268 C 0.34228 0.33704 0.20947 0.0
H269 H 0.54055 0.32794 0.32046 0.0
H270 H 0.48441 0.34153 0.29718 0.0
C271 C 0.30818 0.33536 0.19729 0.0
C272 C 0.39174 0.30759 0.23477 0.0
H273 H 0.4338 0.29213 0.28734 0.0
C274 C 0.42413 0.31749 0.22202 0.0
C275 C 0.39521 0.29969 0.25884 0.0
C276 C 0.36136 0.29186 0.27405 0.0
C277 C 0.45994 0.31877 0.23251 0.0
C278 C 0.46368 0.30868 0.25625 0.0
C279 C 0.43114 0.29964 0.2691 0.0
C280 C 0.50088 0.30612 0.26817 0.0
C281 C 0.49318 0.33146 0.21807 0.0
C282 C 0.52967 0.28291 0.25927 0.0
C283 C 0.56229 0.27593 0.27233 0.0
C284 C 0.56617 0.29121 0.29477 0.0
C285 C 0.53828 0.31584 0.30318 0.0
C286 C 0.5061 0.32345 0.28994 0.0
H287 H 0.48411 0.35047 0.20373 0.0
H288 H 0.51448 0.34643 0.22883 0.0
H289 H 0.50674 0.30643 0.21003 0.0
H290 H 0.52604 0.26839 0.24284 0.0
H291 H 0.58305 0.25634 0.26559 0.0
H292 H 0.2318 0.77156 0.72102 0.0
H293 H 0.22977 0.83072 0.74308 0.0
H294 H 0.14395 0.87342 0.69677 0.0
H295 H 0.14534 0.81438 0.6749 0.0
H296 H 0.24518 0.90227 0.72649 0.0
H297 H 0.09893 0.89506 0.76078 0.0
H298 H 0.12284 0.8546 0.74863 0.0
H299 H 0.10229 0.8895 0.72976 0.0
C300 C 0.21223 0.7934 0.71568 0.0
C301 C 0.18867 0.78822 0.69625 0.0
C302 C 0.21113 0.82719 0.72827 0.0
C303 C 0.18635 0.85627 0.72174 0.0
C304 C 0.1627 0.85109 0.70242 0.0
H305 H 0.218 0.08992 0.76709 0.0
H306 H 0.20501 0.03453 0.7428 0.0
C307 C 0.16373 0.81735 0.68986 0.0
C308 C 0.1866 0.89273 0.73441 0.0
H309 H 0.13149 0.95305 0.76602 0.0
C310 C 0.22034 0.9134 0.73513 0.0
C311 C 0.15416 0.90704 0.74577 0.0
C312 C 0.11757 0.88529 0.74643 0.0
C313 C 0.2226 0.948 0.74691 0.0
C314 C 0.18999 0.9627 0.75789 0.0
C315 C 0.15624 0.942 0.75724 0.0
C316 C 0.19147 0.99791 0.77179 0.0
C317 C 0.2602 0.96795 0.7481 0.0
C318 C 0.18591 0.99623 0.79593 0.0
C319 C 0.19298 0.0278 0.80979 0.0
C320 C 0.20567 0.06171 0.79974 0.0
C321 C 0.20839 0.06419 0.77536 0.0
C322 C 0.20129 0.03249 0.76148 0.0
H323 H 0.28392 0.94913 0.74307 0.0
H324 H 0.25997 0.99232 0.73596 0.0
H325 H 0.26557 0.97883 0.76593 0.0
H326 H 0.17807 0.96989 0.80421 0.0
H327 H 0.19035 0.025 0.82851 0.0
H328 H 0.47638 0.69288 0.32727 0.0
H329 H 0.53131 0.68135 0.30267 0.0
H330 H 0.46567 0.70836 0.24166 0.0
H331 H 0.41043 0.7206 0.26626 0.0
H332 H 0.54773 0.63499 0.26445 0.0
H333 H 0.55087 0.78736 0.24134 0.0
H334 H 0.52152 0.76897 0.26437 0.0
H335 H 0.50767 0.76326 0.23447 0.0
C336 C 0.47334 0.69572 0.30857 0.0
C337 C 0.43916 0.70815 0.29873 0.0
C338 C 0.50481 0.68908 0.29454 0.0
C339 C 0.50277 0.69483 0.27042 0.0
C340 C 0.46798 0.70451 0.26032 0.0
H341 H 0.68581 0.64854 0.1731 0.0
H342 H 0.62666 0.64758 0.19488 0.0
C343 C 0.43637 0.71117 0.27437 0.0
C344 C 0.5378 0.69345 0.25633 0.0
H345 H 0.59772 0.74874 0.22462 0.0
C346 C 0.55859 0.65975 0.25561 0.0
C347 C 0.55226 0.72607 0.24525 0.0
C348 C 0.53219 0.7636 0.24649 0.0
C349 C 0.59344 0.65775 0.24399 0.0
C350 C 0.60753 0.6902 0.23255 0.0
C351 C 0.58676 0.72388 0.23332 0.0
C352 C 0.64391 0.69001 0.21978 0.0
C353 C 0.61532 0.62123 0.24461 0.0
C354 C 0.67305 0.71475 0.22627 0.0
C355 C 0.7069 0.71561 0.21373 0.0
C356 C 0.7121 0.69184 0.19439 0.0
C357 C 0.68284 0.66707 0.18799 0.0
C358 C 0.64905 0.66629 0.2005 0.0
H359 H 0.60573 0.60257 0.259 0.0
H360 H 0.61103 0.60593 0.22796 0.0
H361 H 0.64601 0.62658 0.24672 0.0
H362 H 0.66955 0.73345 0.24104 0.0
H363 H 0.72883 0.73505 0.21907 0.0
H364 H 0.861 0.19751 0.68638 0.0
H365 H 0.86171 0.13736 0.70715 0.0
H366 H 0.74589 0.15463 0.7278 0.0
H367 H 0.74561 0.21574 0.70789 0.0
H368 H 0.78451 0.12822 0.76274 0.0
H369 H 0.81747 0.04006 0.68584 0.0
H370 H 0.85282 0.0753 0.69089 0.0
H371 H 0.80547 0.08935 0.6834 0.0
C372 C 0.8357 0.18851 0.6954 0.0
C373 C 0.80316 0.21123 0.69542 0.0
C374 C 0.83603 0.15392 0.70707 0.0
C375 C 0.80354 0.14086 0.71851 0.0
C376 C 0.77124 0.16392 0.71895 0.0
H377 H 0.75505 0.91333 0.76466 0.0
H378 H 0.76522 0.97063 0.7417 0.0
C379 C 0.7711 0.19887 0.7076 0.0
C380 C 0.80342 0.10365 0.7305 0.0
H381 H 0.82129 0.00966 0.72281 0.0
C382 C 0.79243 0.1023 0.75396 0.0
C383 C 0.8132 0.06966 0.71897 0.0
C384 C 0.8225 0.06853 0.69333 0.0
C385 C 0.79106 0.0681 0.76625 0.0
C386 C 0.80252 0.03434 0.75504 0.0
C387 C 0.81323 0.0356 0.73152 0.0
C388 C 0.80155 0.99729 0.76719 0.0
C389 C 0.77607 0.06849 0.79087 0.0
C390 C 0.82035 0.99224 0.78849 0.0
C391 C 0.81407 0.95981 0.80178 0.0
C392 C 0.7898 0.93136 0.79366 0.0
C393 C 0.77403 0.93473 0.7713 0.0
C394 C 0.77969 0.96757 0.75822 0.0
H395 H 0.75855 0.09391 0.79428 0.0
H396 H 0.75871 0.04308 0.79449 0.0
H397 H 0.8001 0.06896 0.80326 0.0
H398 H 0.83847 0.01417 0.79538 0.0
H399 H 0.82686 0.95777 0.81888 0.0
H400 H 0.81292 0.14532 0.31945 0.0
H401 H 0.87412 0.14266 0.29997 0.0
H402 H 0.83908 0.2312 0.25317 0.0
H403 H 0.77786 0.23458 0.27289 0.0
H404 H 0.89303 0.12731 0.25474 0.0
H405 H 0.93808 0.27191 0.27887 0.0
H406 H 0.89792 0.24905 0.29208 0.0
H407 H 0.89365 0.27075 0.26386 0.0
C408 C 0.81816 0.16427 0.305 0.0
C409 C 0.79058 0.19038 0.29781 0.0
C410 C 0.85318 0.16266 0.29389 0.0
C411 C 0.86142 0.18715 0.2754 0.0
C412 C 0.83363 0.21261 0.26777 0.0
H413 H 0.02938 0.17893 0.16929 0.0
H414 H 0.97533 0.16701 0.19442 0.0
C415 C 0.79857 0.21436 0.27895 0.0
C416 C 0.89905 0.18589 0.26408 0.0
H417 H 0.97529 0.24031 0.25033 0.0
C418 C 0.91118 0.15193 0.25392 0.0
C419 C 0.92306 0.21776 0.26347 0.0
C420 C 0.91275 0.25432 0.27535 0.0
C421 C 0.94606 0.14942 0.24239 0.0
C422 C 0.9691 0.18189 0.24067 0.0
C423 C 0.95756 0.21544 0.25157 0.0
C424 C 0.00389 0.18278 0.22629 0.0
C425 C 0.95787 0.11202 0.23218 0.0
C426 C 0.03827 0.19509 0.23584 0.0
C427 C 0.06935 0.20215 0.22143 0.0
C428 C 0.06638 0.19739 0.19719 0.0
C429 C 0.03265 0.18284 0.18789 0.0
C430 C 0.00169 0.17579 0.20228 0.0
H431 H 0.94421 0.0881 0.24143 0.0
H432 H 0.94899 0.1108 0.21366 0.0
H433 H 0.98896 0.10828 0.23297 0.0
H434 H 0.04053 0.20078 0.25433 0.0
H435 H 0.09485 0.21351 0.22912 0.0
H436 H 0.25325 0.58626 0.72789 0.0
H437 H 0.26509 0.52977 0.75118 0.0
H438 H 0.33889 0.487 0.69752 0.0
H439 H 0.32554 0.54259 0.67372 0.0
H440 H 0.28892 0.43676 0.7075 0.0
H441 H 0.34692 0.48847 0.79092 0.0
H442 H 0.30297 0.51101 0.78423 0.0
H443 H 0.34322 0.51831 0.76557 0.0
C444 C 0.27295 0.56537 0.72142 0.0
C445 C 0.28847 0.56875 0.69901 0.0
C446 C 0.2798 0.53305 0.73479 0.0
C447 C 0.3031 0.50408 0.72622 0.0
C448 C 0.32071 0.50884 0.7045 0.0
H449 H 0.35904 0.30364 0.80714 0.0
H450 H 0.36058 0.36341 0.78599 0.0
C451 C 0.31325 0.54071 0.69095 0.0
C452 C 0.30548 0.4671 0.73841 0.0
H453 H 0.32115 0.42569 0.79123 0.0
C454 C 0.29645 0.43437 0.72576 0.0
C455 C 0.31555 0.46375 0.76218 0.0
C456 C 0.3281 0.49725 0.77642 0.0
C457 C 0.29662 0.3986 0.73622 0.0
C458 C 0.30466 0.39549 0.76028 0.0
C459 C 0.31443 0.42809 0.77286 0.0
C460 C 0.30363 0.35867 0.77267 0.0
C461 C 0.28884 0.36451 0.72119 0.0
C462 C 0.27104 0.33603 0.77231 0.0
C463 C 0.27031 0.30145 0.78408 0.0
C464 C 0.30187 0.2893 0.79687 0.0
C465 C 0.33425 0.31221 0.79744 0.0
C466 C 0.33516 0.34646 0.7854 0.0
H467 H 0.29525 0.37025 0.70258 0.0
H468 H 0.30573 0.33978 0.72689 0.0
H469 H 0.25847 0.35714 0.72242 0.0
H470 H 0.24597 0.34529 0.76317 0.0
H471 H 0.2448 0.28464 0.78357 0.0
H472 H 0.18475 0.84876 0.32031 0.0
H473 H 0.12379 0.84993 0.30046 0.0
H474 H 0.16065 0.76025 0.25509 0.0
H475 H 0.22167 0.75843 0.27514 0.0
H476 H 0.10623 0.86359 0.2546 0.0
H477 H 0.06102 0.71985 0.28052 0.0
H478 H 0.10055 0.74355 0.29391 0.0
H479 H 0.10599 0.72067 0.26614 0.0
C480 C 0.17994 0.82921 0.30612 0.0
C481 C 0.20802 0.80331 0.29939 0.0
C482 C 0.14506 0.82997 0.29479 0.0
C483 C 0.13744 0.80479 0.27656 0.0
C484 C 0.16564 0.77939 0.26946 0.0
H485 H 0.974 0.80765 0.16789 0.0
H486 H 0.02704 0.82026 0.19371 0.0
C487 C 0.20058 0.77854 0.28084 0.0
C488 C 0.10013 0.80542 0.26484 0.0
H489 H 0.02466 0.75002 0.25093 0.0
C490 C 0.08823 0.83886 0.25394 0.0
C491 C 0.07629 0.77342 0.26444 0.0
C492 C 0.08637 0.73745 0.27708 0.0
C493 C 0.0538 0.84067 0.24185 0.0
C494 C 0.031 0.808 0.24033 0.0
C495 C 0.04223 0.77503 0.252 0.0
C496 C 0.99691 0.80628 0.22535 0.0
C497 C 0.04223 0.87751 0.23079 0.0
C498 C 0.96205 0.79464 0.23453 0.0
C499 C 0.93153 0.78721 0.21971 0.0
C500 C 0.93558 0.79091 0.19546 0.0
C501 C 0.96989 0.80457 0.18649 0.0
C502 C 0.00027 0.81202 0.20127 0.0
H503 H 0.05547 0.90192 0.23978 0.0
H504 H 0.05177 0.87788 0.21239 0.0
H505 H 0.01111 0.88116 0.23108 0.0
H506 H 0.95891 0.78988 0.25306 0.0
H507 H 0.90555 0.77654 0.22716 0.0
H508 H 0.66825 0.45645 0.67273 0.0
H509 H 0.65749 0.51281 0.6964 0.0
H510 H 0.73018 0.46776 0.74991 0.0
H511 H 0.73961 0.41055 0.72674 0.0
H512 H 0.67428 0.50796 0.76884 0.0
H513 H 0.73953 0.59075 0.69755 0.0
H514 H 0.69762 0.56655 0.68845 0.0
H515 H 0.73842 0.53992 0.69743 0.0
C516 C 0.68106 0.45813 0.68984 0.0
C517 C 0.70504 0.42931 0.69782 0.0
C518 C 0.67526 0.49053 0.70323 0.0
C519 C 0.69419 0.49515 0.72452 0.0
C520 C 0.71563 0.46504 0.73339 0.0
H521 H 0.75295 0.71312 0.78369 0.0
H522 H 0.75238 0.65161 0.76427 0.0
C523 C 0.72085 0.43224 0.72019 0.0
C524 C 0.69394 0.53219 0.73667 0.0
H525 H 0.71398 0.62565 0.72897 0.0
C526 C 0.68298 0.53371 0.76014 0.0
C527 C 0.70626 0.56567 0.7255 0.0
C528 C 0.72151 0.56568 0.70094 0.0
C529 C 0.68347 0.56781 0.77264 0.0
C530 C 0.69409 0.60157 0.76113 0.0
C531 C 0.70543 0.59992 0.73774 0.0
C532 C 0.69429 0.63886 0.77302 0.0
C533 C 0.67368 0.56699 0.79822 0.0
C534 C 0.66168 0.65258 0.78402 0.0
C535 C 0.66215 0.68743 0.7954 0.0
C536 C 0.69497 0.70973 0.79553 0.0
C537 C 0.72724 0.6966 0.78386 0.0
C538 C 0.72693 0.66142 0.77279 0.0
H539 H 0.67808 0.53848 0.80581 0.0
H540 H 0.69087 0.58757 0.80822 0.0
H541 H 0.64344 0.57431 0.80043 0.0
H542 H 0.63577 0.6364 0.78378 0.0
H543 H 0.63668 0.69699 0.80402 0.0
H544 H 0.94782 0.64906 0.14103 0.0
H545 H 0.98793 0.59313 0.14106 0.0
H546 H 0.89607 0.52669 0.16831 0.0
H547 H 0.85541 0.58269 0.1684 0.0
H548 H 0.969 0.51998 0.19235 0.0
H549 H 0.97858 0.5002 0.09647 0.0
H550 H 0.98782 0.54725 0.1067 0.0
H551 H 0.94151 0.52741 0.11006 0.0
C552 C 0.93597 0.62257 0.14695 0.0
C553 C 0.89836 0.62031 0.15469 0.0
C554 C 0.95893 0.59064 0.14685 0.0
C555 C 0.94475 0.5559 0.15447 0.0
C556 C 0.90733 0.55338 0.16227 0.0
H557 H 0.04954 0.33686 0.14194 0.0
H558 H 0.00663 0.3907 0.14152 0.0
C559 C 0.88419 0.58532 0.16226 0.0
C560 C 0.96955 0.5225 0.15489 0.0
H561 H 0.02002 0.46351 0.11979 0.0
C562 C 0.98006 0.50744 0.17652 0.0
C563 C 0.98364 0.50632 0.13415 0.0
C564 C 0.97215 0.52084 0.11048 0.0
C565 C 0.00502 0.47683 0.17798 0.0
C566 C 0.01987 0.46127 0.15726 0.0
C567 C 0.00878 0.47588 0.13561 0.0
C568 C 0.0462 0.42907 0.15765 0.0
C569 C 0.0151 0.46108 0.20159 0.0
C570 C 0.08278 0.43313 0.16665 0.0
C571 C 0.10755 0.40243 0.16685 0.0
C572 C 0.09598 0.36723 0.15808 0.0
C573 C 0.05933 0.36351 0.14892 0.0
C574 C 0.03475 0.39421 0.14862 0.0
H575 H 0.99577 0.47144 0.21542 0.0
H576 H 0.01426 0.42976 0.20135 0.0
H577 H 0.04425 0.46981 0.20616 0.0
H578 H 0.09218 0.46008 0.17341 0.0
H579 H 0.1356 0.40622 0.17398 0.0
H580 H 0.9098 0.3613 0.67113 0.0
H581 H 0.9637 0.40462 0.67034 0.0
H582 H 0.89423 0.49002 0.63831 0.0
H583 H 0.84035 0.44718 0.63892 0.0
H584 H 0.96715 0.47733 0.6168 0.0
H585 H 0.97439 0.50052 0.71256 0.0
H586 H 0.9734 0.45213 0.7031 0.0
H587 H 0.93299 0.48169 0.69834 0.0
C588 C 0.906 0.38928 0.6639 0.0
C589 C 0.87076 0.40085 0.65518 0.0
C590 C 0.93674 0.41399 0.66356 0.0
C591 C 0.93265 0.45052 0.6545 0.0
C592 C 0.89777 0.46193 0.64545 0.0
H593 H 0.08252 0.64309 0.66748 0.0
H594 H 0.02754 0.60119 0.66646 0.0
C595 C 0.86704 0.43739 0.64586 0.0
C596 C 0.96475 0.47698 0.65427 0.0
H597 H 0.02264 0.52811 0.68971 0.0
C598 C 0.97934 0.48848 0.6327 0.0
C599 C 0.98006 0.49172 0.67509 0.0
C600 C 0.96433 0.48122 0.69863 0.0
C601 C 0.00946 0.51403 0.63142 0.0
C602 C 0.02533 0.52811 0.65225 0.0
C603 C 0.01035 0.51707 0.67381 0.0
C604 C 0.05807 0.55376 0.65206 0.0
C605 C 0.02388 0.52608 0.60784 0.0
C606 C 0.09324 0.54072 0.64438 0.0
C607 C 0.12462 0.56441 0.645 0.0
C608 C 0.12136 0.60159 0.65335 0.0
C609 C 0.08593 0.61466 0.66088 0.0
C610 C 0.05455 0.5908 0.66036 0.0
H611 H 0.00345 0.51941 0.59374 0.0
H612 H 0.02982 0.55685 0.60757 0.0
H613 H 0.05064 0.511 0.60406 0.0
H614 H 0.09651 0.512 0.63822 0.0
H615 H 0.1515 0.55343 0.63909 0.0
H616 H 0.62711 0.0985 0.3053 0.0
H617 H 0.58273 0.04565 0.30326 0.0
H618 H 0.52299 0.08983 0.36284 0.0
H619 H 0.56594 0.14365 0.3641 0.0
H620 H 0.56655 0.99117 0.33114 0.0
H621 H 0.43679 0.07561 0.31977 0.0
H622 H 0.48319 0.09632 0.31818 0.0
H623 H 0.46081 0.08873 0.346 0.0
C624 C 0.60445 0.09687 0.31792 0.0
C625 C 0.59966 0.12527 0.33471 0.0
C626 C 0.57908 0.06676 0.31673 0.0
C627 C 0.54886 0.06432 0.3325 0.0
C628 C 0.54514 0.09186 0.34992 0.0
H629 H 0.43022 0.8587 0.36505 0.0
H630 H 0.47193 0.91343 0.36365 0.0
C631 C 0.56993 0.12238 0.35078 0.0
C632 C 0.52187 0.03244 0.33117 0.0
H633 H 0.42796 0.01104 0.33118 0.0
C634 C 0.53625 0.99555 0.33089 0.0
C635 C 0.48231 0.03809 0.3303 0.0
C636 C 0.46492 0.07685 0.3283 0.0
C637 C 0.51222 0.96416 0.33046 0.0
C638 C 0.47267 0.96981 0.33138 0.0
C639 C 0.45827 0.00669 0.33092 0.0
C640 C 0.44582 0.93787 0.33304 0.0
C641 C 0.52962 0.92538 0.32861 0.0
C642 C 0.41573 0.93463 0.31721 0.0
C643 C 0.39103 0.90393 0.31847 0.0
C644 C 0.39644 0.87583 0.33538 0.0
C645 C 0.42583 0.87971 0.35161 0.0
C646 C 0.4499 0.91077 0.35068 0.0
H647 H 0.5577 0.92653 0.32002 0.0
H648 H 0.53385 0.9137 0.34635 0.0
H649 H 0.51132 0.90578 0.31861 0.0
H650 H 0.41181 0.95543 0.30359 0.0
H651 H 0.36857 0.90153 0.30575 0.0
H652 H 0.3998 0.13032 0.80387 0.0
H653 H 0.45365 0.08719 0.80084 0.0
H654 H 0.41275 0.02519 0.86043 0.0
H655 H 0.35809 0.0669 0.86275 0.0
H656 H 0.50965 0.07088 0.82823 0.0
H657 H 0.42641 0.9407 0.81582 0.0
H658 H 0.40519 0.98692 0.8149 0.0
H659 H 0.41338 0.96372 0.8424 0.0
C660 C 0.40238 0.10744 0.81628 0.0
C661 C 0.37463 0.10162 0.83337 0.0
C662 C 0.43306 0.0828 0.81452 0.0
C663 C 0.43667 0.05229 0.83 0.0
C664 C 0.40982 0.0476 0.84773 0.0
H665 H 0.64242 0.93342 0.86161 0.0
H666 H 0.58854 0.97621 0.85976 0.0
C667 C 0.37879 0.07167 0.84919 0.0
C668 C 0.46886 0.02579 0.82799 0.0
H669 H 0.49116 0.93215 0.82701 0.0
C670 C 0.5056 0.04055 0.82769 0.0
C671 C 0.46361 0.98623 0.82671 0.0
C672 C 0.42498 0.96853 0.8247 0.0
C673 C 0.53725 0.01682 0.82697 0.0
C674 C 0.53199 0.97721 0.82753 0.0
C675 C 0.49524 0.96249 0.827 0.0
C676 C 0.56413 0.95053 0.82901 0.0
C677 C 0.57587 0.0346 0.82527 0.0
C678 C 0.56727 0.92053 0.81313 0.0
C679 C 0.59746 0.89527 0.81462 0.0
C680 C 0.62522 0.89992 0.83184 0.0
C681 C 0.62168 0.92951 0.84796 0.0
C682 C 0.5911 0.95422 0.84677 0.0
H683 H 0.57445 0.06281 0.81686 0.0
H684 H 0.58746 0.03861 0.84305 0.0
H685 H 0.59566 0.01665 0.81517 0.0
H686 H 0.5466 0.91692 0.7994 0.0
H687 H 0.59958 0.87272 0.80195 0.0
loop_
_geom_bond_atom_site_label_1
_geom_bond_atom_site_label_2
_geom_bond_distance
_geom_bond_site_symmetry_2
_ccdc_geom_bond_type
O0 Cd1 2.223 . S
O0 C8 1.315 . S
Cd1 O0 2.223 . S
Cd1 O4 2.297 . S
Cd1 O5 2.439 . S
Cd1 O11 2.240 . S
Cd2 O3 2.240 . S
Cd2 O10 2.223 . S
Cd2 O12 2.297 . S
Cd2 O13 2.439 . S
O3 Cd2 2.240 . S
O3 C8 1.279 . S
O4 Cd1 2.297 . S
O4 C6 1.247 . S
O5 Cd1 2.439 . S
O5 C6 1.208 . S
C6 O4 1.247 . S
C6 O5 1.208 . S
C7 O12 1.247 . S
C7 O13 1.208 . S
C8 O0 1.315 . S
C8 O3 1.279 . S
C9 O10 1.315 . S
C9 O11 1.279 . S
O10 Cd2 2.223 . S
O10 C9 1.315 . S
O11 Cd1 2.240 . S
O11 C9 1.279 . S
O12 Cd2 2.297 . S
O12 C7 1.247 . S
O13 Cd2 2.439 . S
O13 C7 1.208 . S
O14 Cd15 2.223 . S
O14 C22 1.315 . S
Cd15 O14 2.223 . S
Cd15 O18 2.297 . S
Cd15 O19 2.439 . S
Cd15 O25 2.240 . S
Cd16 O17 2.240 . S
Cd16 O24 2.223 . S
Cd16 O26 2.297 . S
Cd16 O27 2.439 . S
O17 Cd16 2.240 . S
O17 C22 1.279 . S
O18 Cd15 2.297 . S
O18 C20 1.247 . S
O19 Cd15 2.439 . S
O19 C20 1.208 . S
C20 O18 1.247 . S
C20 O19 1.208 . S
C21 O26 1.247 . S
C21 O27 1.208 . S
C22 O14 1.315 . S
C22 O17 1.279 . S
C23 O24 1.315 . S
C23 O25 1.279 . S
O24 Cd16 2.223 . S
O24 C23 1.315 . S
O25 Cd15 2.240 . S
O25 C23 1.279 . S
O26 Cd16 2.297 . S
O26 C21 1.247 . S
O27 Cd16 2.439 . S
O27 C21 1.208 . S
O28 Cd29 2.223 . S
O28 C36 1.315 . S
Cd29 O28 2.223 . S
Cd29 O32 2.297 . S
Cd29 O33 2.439 . S
Cd29 O39 2.240 . S
Cd30 O31 2.240 . S
Cd30 O38 2.223 . S
Cd30 O40 2.297 . S
Cd30 O41 2.439 . S
O31 Cd30 2.240 . S
O31 C36 1.279 . S
O32 Cd29 2.297 . S
O32 C34 1.247 . S
O33 Cd29 2.439 . S
O33 C34 1.208 . S
C34 O32 1.247 . S
C34 O33 1.208 . S
C35 O40 1.247 . S
C35 O41 1.208 . S
C36 O28 1.315 . S
C36 O31 1.279 . S
C37 O38 1.315 . S
C37 O39 1.279 . S
O38 Cd30 2.223 . S
O38 C37 1.315 . S
O39 Cd29 2.240 . S
O39 C37 1.279 . S
O40 Cd30 2.297 . S
O40 C35 1.247 . S
O41 Cd30 2.439 . S
O41 C35 1.208 . S
O42 Cd43 2.223 . S
O42 C50 1.315 . S
Cd43 O42 2.223 . S
Cd43 O46 2.297 . S
Cd43 O47 2.439 . S
Cd43 O53 2.240 . S
Cd44 O45 2.240 . S
Cd44 O52 2.223 . S
Cd44 O54 2.297 . S
Cd44 O55 2.439 . S
O45 Cd44 2.240 . S
O45 C50 1.279 . S
O46 Cd43 2.297 . S
O46 C48 1.247 . S
O47 Cd43 2.439 . S
O47 C48 1.208 . S
C48 O46 1.247 . S
C48 O47 1.208 . S
C49 O54 1.247 . S
C49 O55 1.208 . S
C50 O42 1.315 . S
C50 O45 1.279 . S
C51 O52 1.315 . S
C51 O53 1.279 . S
O52 Cd44 2.223 . S
O52 C51 1.315 . S
O53 Cd43 2.240 . S
O53 C51 1.279 . S
O54 Cd44 2.297 . S
O54 C49 1.247 . S
O55 Cd44 2.439 . S
O55 C49 1.208 . S
O56 Cd57 2.223 . S
O56 C64 1.315 . S
Cd57 O56 2.223 . S
Cd57 O60 2.297 . S
Cd57 O61 2.439 . S
Cd57 O67 2.240 . S
Cd58 O59 2.240 . S
Cd58 O66 2.223 . S
Cd58 O68 2.297 . S
Cd58 O69 2.439 . S
O59 Cd58 2.240 . S
O59 C64 1.279 . S
O60 Cd57 2.297 . S
O60 C62 1.247 . S
O61 Cd57 2.439 . S
O61 C62 1.208 . S
C62 O60 1.247 . S
C62 O61 1.208 . S
C63 O68 1.247 . S
C63 O69 1.208 . S
C64 O56 1.315 . S
C64 O59 1.279 . S
C65 O66 1.315 . S
C65 O67 1.279 . S
O66 Cd58 2.223 . S
O66 C65 1.315 . S
O67 Cd57 2.240 . S
O67 C65 1.279 . S
O68 Cd58 2.297 . S
O68 C63 1.247 . S
O69 Cd58 2.439 . S
O69 C63 1.208 . S
O70 Cd71 2.223 . S
O70 C78 1.315 . S
Cd71 O70 2.223 . S
Cd71 O74 2.297 . S
Cd71 O75 2.439 . S
Cd71 O81 2.240 . S
Cd72 O73 2.240 . S
Cd72 O80 2.223 . S
Cd72 O82 2.297 . S
Cd72 O83 2.439 . S
O73 Cd72 2.240 . S
O73 C78 1.279 . S
O74 Cd71 2.297 . S
O74 C76 1.247 . S
O75 Cd71 2.439 . S
O75 C76 1.208 . S
C76 O74 1.247 . S
C76 O75 1.208 . S
C77 O82 1.247 . S
C77 O83 1.208 . S
C78 O70 1.315 . S
C78 O73 1.279 . S
C79 O80 1.315 . S
C79 O81 1.279 . S
O80 Cd72 2.223 . S
O80 C79 1.315 . S
O81 Cd71 2.240 . S
O81 C79 1.279 . S
O82 Cd72 2.297 . S
O82 C77 1.247 . S
O83 Cd72 2.439 . S
O83 C77 1.208 . S
O84 Cd85 2.223 . S
O84 C92 1.315 . S
Cd85 O84 2.223 . S
Cd85 O88 2.297 . S
Cd85 O89 2.439 . S
Cd85 O95 2.240 . S
Cd86 O87 2.240 . S
Cd86 O94 2.223 . S
Cd86 O96 2.297 . S
Cd86 O97 2.439 . S
O87 Cd86 2.240 . S
O87 C92 1.279 . S
O88 Cd85 2.297 . S
O88 C90 1.247 . S
O89 Cd85 2.439 . S
O89 C90 1.208 . S
C90 O88 1.247 . S
C90 O89 1.208 . S
C91 O96 1.247 . S
C91 O97 1.208 . S
C92 O84 1.315 . S
C92 O87 1.279 . S
C93 O94 1.315 . S
C93 O95 1.279 . S
O94 Cd86 2.223 . S
O94 C93 1.315 . S
O95 Cd85 2.240 . S
O95 C93 1.279 . S
O96 Cd86 2.297 . S
O96 C91 1.247 . S
O97 Cd86 2.439 . S
O97 C91 1.208 . S
O98 Cd99 2.223 . S
O98 C106 1.315 . S
Cd99 O98 2.223 . S
Cd99 O102 2.297 . S
Cd99 O103 2.439 . S
Cd99 O109 2.240 . S
Cd100 O101 2.240 . S
Cd100 O108 2.223 . S
Cd100 O110 2.297 . S
Cd100 O111 2.439 . S
O101 Cd100 2.240 . S
O101 C106 1.279 . S
O102 Cd99 2.297 . S
O102 C104 1.247 . S
O103 Cd99 2.439 . S
O103 C104 1.208 . S
C104 O102 1.247 . S
C104 O103 1.208 . S
C105 O110 1.247 . S
C105 O111 1.208 . S
C106 O98 1.315 . S
C106 O101 1.279 . S
C107 O108 1.315 . S
C107 O109 1.279 . S
O108 Cd100 2.223 . S
O108 C107 1.315 . S
O109 Cd99 2.240 . S
O109 C107 1.279 . S
O110 Cd100 2.297 . S
O110 C105 1.247 . S
O111 Cd100 2.439 . S
O111 C105 1.208 . S
H112 C120 0.929 . S
H113 C122 0.930 . S
H114 C124 0.930 . S
H115 C127 0.929 . S
H116 C130 0.930 . S
H117 C132 0.960 . S
H118 C132 0.960 . S
H119 C132 0.960 . S
C120 H112 0.929 . S
C120 C121 1.377 . S
C120 C122 1.384 . S
C121 C120 1.377 . S
C121 C127 1.390 . S
C122 H113 0.930 . S
C122 C120 1.384 . S
C122 C123 1.372 . S
C123 C122 1.372 . S
C123 C124 1.400 . S
C123 C128 1.490 . S
C124 H114 0.930 . S
C124 C123 1.400 . S
C124 C127 1.386 . S
H125 C141 0.930 . S
H126 C142 0.931 . S
C127 H115 0.929 . S
C127 C121 1.390 . S
C127 C124 1.386 . S
C128 C123 1.490 . S
C128 C130 1.395 . S
C128 C131 1.403 . S
H129 C135 0.930 . S
C130 H116 0.930 . S
C130 C128 1.395 . S
C130 C133 1.403 1_554 S
C131 C128 1.403 . S
C131 C132 1.524 . S
C131 C135 1.400 1_554 S
C132 H117 0.960 . S
C132 H118 0.960 . S
C132 H119 0.960 . S
C132 C131 1.524 . S
C133 C130 1.403 1_556 S
C133 C134 1.392 . S
C133 C137 1.495 . S
C134 C133 1.392 . S
C134 C135 1.385 . S
C134 C136 1.478 . S
C135 H129 0.930 . S
C135 C131 1.400 1_556 S
C135 C134 1.385 . S
C136 C134 1.478 . S
C136 C138 1.381 . S
C136 C142 1.383 . S
C137 C133 1.495 . S
C137 H143 0.959 . S
C137 H144 0.961 . S
C137 H145 0.960 . S
C138 C136 1.381 . S
C138 C139 1.394 . S
C138 H146 0.930 . S
C139 C138 1.394 . S
C139 C140 1.383 . S
C139 H147 0.929 . S
C140 C139 1.383 . S
C140 C141 1.377 . S
C141 H125 0.930 . S
C141 C140 1.377 . S
C141 C142 1.379 . S
C142 H126 0.931 . S
C142 C136 1.383 . S
C142 C141 1.379 . S
H143 C137 0.959 . S
H144 C137 0.961 . S
H145 C137 0.960 . S
H146 C138 0.930 . S
H147 C139 0.929 . S
H148 C156 0.929 . S
H149 C158 0.930 . S
H150 C160 0.930 . S
H151 C163 0.929 . S
H152 C166 0.930 . S
H153 C168 0.960 . S
H154 C168 0.960 . S
H155 C168 0.960 . S
C156 H148 0.929 . S
C156 C157 1.377 . S
C156 C158 1.384 . S
C157 C156 1.377 . S
C157 C163 1.390 . S
C158 H149 0.930 . S
C158 C156 1.384 . S
C158 C159 1.372 . S
C159 C158 1.372 . S
C159 C160 1.400 . S
C159 C164 1.490 . S
C160 H150 0.930 . S
C160 C159 1.400 . S
C160 C163 1.386 . S
H161 C177 0.930 . S
H162 C178 0.931 . S
C163 H151 0.929 . S
C163 C157 1.390 . S
C163 C160 1.386 . S
C164 C159 1.490 . S
C164 C166 1.395 . S
C164 C167 1.403 . S
H165 C171 0.930 . S
C166 H152 0.930 . S
C166 C164 1.395 . S
C166 C169 1.403 . S
C167 C164 1.403 . S
C167 C168 1.524 . S
C167 C171 1.400 . S
C168 H153 0.960 . S
C168 H154 0.960 . S
C168 H155 0.960 . S
C168 C167 1.524 . S
C169 C166 1.403 . S
C169 C170 1.392 . S
C169 C173 1.495 . S
C170 C169 1.392 . S
C170 C171 1.385 . S
C170 C172 1.478 . S
C171 H165 0.930 . S
C171 C167 1.400 . S
C171 C170 1.385 . S
C172 C170 1.478 . S
C172 C174 1.381 . S
C172 C178 1.383 . S
C173 C169 1.495 . S
C173 H179 0.959 . S
C173 H180 0.961 . S
C173 H181 0.960 . S
C174 C172 1.381 . S
C174 C175 1.394 . S
C174 H182 0.930 . S
C175 C174 1.394 . S
C175 C176 1.383 . S
C175 H183 0.929 . S
C176 C175 1.383 . S
C176 C177 1.377 . S
C177 H161 0.930 . S
C177 C176 1.377 . S
C177 C178 1.379 . S
C178 H162 0.931 . S
C178 C172 1.383 . S
C178 C177 1.379 . S
H179 C173 0.959 . S
H180 C173 0.961 . S
H181 C173 0.960 . S
H182 C174 0.930 . S
H183 C175 0.929 . S
H184 C192 0.929 . S
H185 C194 0.930 . S
H186 C196 0.930 . S
H187 C199 0.929 . S
H188 C202 0.930 . S
H189 C204 0.988 . S
H190 C204 0.950 1_554 S
H191 C204 0.944 1_554 S
C192 H184 0.929 . S
C192 C193 1.377 . S
C192 C194 1.384 . S
C193 C192 1.377 . S
C193 C199 1.390 . S
C194 H185 0.930 . S
C194 C192 1.384 . S
C194 C195 1.372 . S
C195 C194 1.372 . S
C195 C196 1.400 . S
C195 C200 1.490 . S
C196 H186 0.930 . S
C196 C195 1.400 . S
C196 C199 1.386 . S
H197 C213 0.930 . S
H198 C214 0.931 . S
C199 H187 0.929 . S
C199 C193 1.390 . S
C199 C196 1.386 . S
C200 C195 1.490 . S
C200 C202 1.395 . S
C200 C203 1.441 . S
H201 C207 0.930 . S
C202 H188 0.930 . S
C202 C200 1.395 . S
C202 C205 1.443 . S
C203 C200 1.441 . S
C203 C204 1.521 1_554 S
C203 C207 1.363 1_554 S
C204 H189 0.988 . S
C204 H190 0.950 1_556 S
C204 H191 0.944 1_556 S
C204 C203 1.521 1_556 S
C205 C202 1.443 . S
C205 C206 1.353 1_554 S
C205 C209 1.498 . S
C206 C205 1.353 1_556 S
C206 C207 1.385 . S
C206 C208 1.478 . S
C207 H201 0.930 . S
C207 C203 1.363 1_556 S
C207 C206 1.385 . S
C208 C206 1.478 . S
C208 C210 1.381 . S
C208 C214 1.383 . S
C209 C205 1.498 . S
C209 H215 0.959 . S
C209 H216 0.961 1_554 S
C209 H217 0.960 1_554 S
C210 C208 1.381 . S
C210 C211 1.394 . S
C210 H218 0.930 . S
C211 C210 1.394 . S
C211 C212 1.383 . S
C211 H219 0.929 . S
C212 C211 1.383 . S
C212 C213 1.377 . S
C213 H197 0.930 . S
C213 C212 1.377 . S
C213 C214 1.379 . S
C214 H198 0.931 . S
C214 C208 1.383 . S
C214 C213 1.379 . S
H215 C209 0.959 . S
H216 C209 0.961 1_556 S
H217 C209 0.960 1_556 S
H218 C210 0.930 . S
H219 C211 0.929 . S
H220 C228 0.929 . S
H221 C230 0.930 . S
H222 C232 0.930 . S
H223 C235 0.929 . S
H224 C238 0.930 . S
H225 C240 0.960 . S
H226 C240 0.960 . S
H227 C240 0.960 . S
C228 H220 0.929 . S
C228 C229 1.377 . S
C228 C230 1.384 . S
C229 C228 1.377 . S
C229 C235 1.390 . S
C230 H221 0.930 . S
C230 C228 1.384 . S
C230 C231 1.372 . S
C231 C230 1.372 . S
C231 C232 1.400 . S
C231 C236 1.490 . S
C232 H222 0.930 . S
C232 C231 1.400 . S
C232 C235 1.386 . S
H233 C249 0.930 . S
H234 C250 0.931 . S
C235 H223 0.929 . S
C235 C229 1.390 . S
C235 C232 1.386 . S
C236 C231 1.490 . S
C236 C238 1.395 . S
C236 C239 1.403 . S
H237 C243 0.930 . S
C238 H224 0.930 . S
C238 C236 1.395 . S
C238 C241 1.403 . S
C239 C236 1.403 . S
C239 C240 1.524 . S
C239 C243 1.400 . S
C240 H225 0.960 . S
C240 H226 0.960 . S
C240 H227 0.960 . S
C240 C239 1.524 . S
C241 C238 1.403 . S
C241 C242 1.392 . S
C241 C245 1.495 . S
C242 C241 1.392 . S
C242 C243 1.385 . S
C242 C244 1.478 . S
C243 H237 0.930 . S
C243 C239 1.400 . S
C243 C242 1.385 . S
C244 C242 1.478 . S
C244 C246 1.381 . S
C244 C250 1.383 . S
C245 C241 1.495 . S
C245 H251 0.959 . S
C245 H252 0.961 . S
C245 H253 0.960 . S
C246 C244 1.381 . S
C246 C247 1.394 . S
C246 H254 0.930 . S
C247 C246 1.394 . S
C247 C248 1.383 . S
C247 H255 0.929 . S
C248 C247 1.383 . S
C248 C249 1.377 . S
C249 H233 0.930 . S
C249 C248 1.377 . S
C249 C250 1.379 . S
C250 H234 0.931 . S
C250 C244 1.383 . S
C250 C249 1.379 . S
H251 C245 0.959 . S
H252 C245 0.961 . S
H253 C245 0.960 . S
H254 C246 0.930 . S
H255 C247 0.929 . S
H256 C264 0.929 . S
H257 C266 0.930 . S
H258 C268 0.930 . S
H259 C271 0.929 . S
H260 C274 0.930 . S
H261 C276 0.960 . S
H262 C276 0.960 . S
H263 C276 0.960 . S
C264 H256 0.929 . S
C264 C265 1.377 . S
C264 C266 1.384 . S
C265 C264 1.377 . S
C265 C271 1.390 . S
C266 H257 0.930 . S
C266 C264 1.384 . S
C266 C267 1.372 . S
C267 C266 1.372 . S
C267 C268 1.400 . S
C267 C272 1.490 . S
C268 H258 0.930 . S
C268 C267 1.400 . S
C268 C271 1.386 . S
H269 C285 0.930 . S
H270 C286 0.931 . S
C271 H259 0.929 . S
C271 C265 1.390 . S
C271 C268 1.386 . S
C272 C267 1.490 . S
C272 C274 1.395 . S
C272 C275 1.403 . S
H273 C279 0.930 . S
C274 H260 0.930 . S
C274 C272 1.395 . S
C274 C277 1.403 . S
C275 C272 1.403 . S
C275 C276 1.524 . S
C275 C279 1.400 . S
C276 H261 0.960 . S
C276 H262 0.960 . S
C276 H263 0.960 . S
C276 C275 1.524 . S
C277 C274 1.403 . S
C277 C278 1.392 . S
C277 C281 1.495 . S
C278 C277 1.392 . S
C278 C279 1.385 . S
C278 C280 1.478 . S
C279 H273 0.930 . S
C279 C275 1.400 . S
C279 C278 1.385 . S
C280 C278 1.478 . S
C280 C282 1.381 . S
C280 C286 1.383 . S
C281 C277 1.495 . S
C281 H287 0.959 . S
C281 H288 0.961 . S
C281 H289 0.960 . S
C282 C280 1.381 . S
C282 C283 1.394 . S
C282 H290 0.930 . S
C283 C282 1.394 . S
C283 C284 1.383 . S
C283 H291 0.929 . S
C284 C283 1.383 . S
C284 C285 1.377 . S
C285 H269 0.930 . S
C285 C284 1.377 . S
C285 C286 1.379 . S
C286 H270 0.931 . S
C286 C280 1.383 . S
C286 C285 1.379 . S
H287 C281 0.959 . S
H288 C281 0.961 . S
H289 C281 0.960 . S
H290 C282 0.930 . S
H291 C283 0.929 . S
H292 C300 0.929 . S
H293 C302 0.930 . S
H294 C304 0.930 . S
H295 C307 0.929 . S
H296 C310 0.930 . S
H297 C312 0.960 . S
H298 C312 0.960 . S
H299 C312 0.960 . S
C300 H292 0.929 . S
C300 C301 1.377 . S
C300 C302 1.384 . S
C301 C300 1.377 . S
C301 C307 1.390 . S
C302 H293 0.930 . S
C302 C300 1.384 . S
C302 C303 1.372 . S
C303 C302 1.372 . S
C303 C304 1.400 . S
C303 C308 1.490 . S
C304 H294 0.930 . S
C304 C303 1.400 . S
C304 C307 1.386 . S
H305 C321 0.930 . S
H306 C322 0.931 . S
C307 H295 0.929 . S
C307 C301 1.390 . S
C307 C304 1.386 . S
C308 C303 1.490 . S
C308 C310 1.395 . S
C308 C311 1.403 . S
H309 C315 0.930 . S
C310 H296 0.930 . S
C310 C308 1.395 . S
C310 C313 1.403 . S
C311 C308 1.403 . S
C311 C312 1.524 . S
C311 C315 1.400 . S
C312 H297 0.960 . S
C312 H298 0.960 . S
C312 H299 0.960 . S
C312 C311 1.524 . S
C313 C310 1.403 . S
C313 C314 1.392 . S
C313 C317 1.495 . S
C314 C313 1.392 . S
C314 C315 1.385 . S
C314 C316 1.478 . S
C315 H309 0.930 . S
C315 C311 1.400 . S
C315 C314 1.385 . S
C316 C314 1.478 . S
C316 C318 1.381 . S
C316 C322 1.383 1_565 S
C317 C313 1.495 . S
C317 H323 0.959 . S
C317 H324 0.961 . S
C317 H325 0.960 . S
C318 C316 1.381 . S
C318 C319 1.394 1_565 S
C318 H326 0.930 . S
C319 C318 1.394 1_545 S
C319 C320 1.383 . S
C319 H327 0.929 . S
C320 C319 1.383 . S
C320 C321 1.377 . S
C321 H305 0.930 . S
C321 C320 1.377 . S
C321 C322 1.379 . S
C322 H306 0.931 . S
C322 C316 1.383 1_545 S
C322 C321 1.379 . S
H323 C317 0.959 . S
H324 C317 0.961 . S
H325 C317 0.960 . S
H326 C318 0.930 . S
H327 C319 0.929 . S
H328 C336 0.929 . S
H329 C338 0.930 . S
H330 C340 0.930 . S
H331 C343 0.929 . S
H332 C346 0.930 . S
H333 C348 0.960 . S
H334 C348 0.960 . S
H335 C348 0.960 . S
C336 H328 0.929 . S
C336 C337 1.377 . S
C336 C338 1.384 . S
C337 C336 1.377 . S
C337 C343 1.390 . S
C338 H329 0.930 . S
C338 C336 1.384 . S
C338 C339 1.372 . S
C339 C338 1.372 . S
C339 C340 1.400 . S
C339 C344 1.490 . S
C340 H330 0.930 . S
C340 C339 1.400 . S
C340 C343 1.386 . S
H341 C357 0.930 . S
H342 C358 0.931 . S
C343 H331 0.929 . S
C343 C337 1.390 . S
C343 C340 1.386 . S
C344 C339 1.490 . S
C344 C346 1.395 . S
C344 C347 1.403 . S
H345 C351 0.930 . S
C346 H332 0.930 . S
C346 C344 1.395 . S
C346 C349 1.403 . S
C347 C344 1.403 . S
C347 C348 1.524 . S
C347 C351 1.400 . S
C348 H333 0.960 . S
C348 H334 0.960 . S
C348 H335 0.960 . S
C348 C347 1.524 . S
C349 C346 1.403 . S
C349 C350 1.392 . S
C349 C353 1.495 . S
C350 C349 1.392 . S
C350 C351 1.385 . S
C350 C352 1.478 . S
C351 H345 0.930 . S
C351 C347 1.400 . S
C351 C350 1.385 . S
C352 C350 1.478 . S
C352 C354 1.381 . S
C352 C358 1.383 . S
C353 C349 1.495 . S
C353 H359 0.959 . S
C353 H360 0.961 . S
C353 H361 0.960 . S
C354 C352 1.381 . S
C354 C355 1.394 . S
C354 H362 0.930 . S
C355 C354 1.394 . S
C355 C356 1.383 . S
C355 H363 0.929 . S
C356 C355 1.383 . S
C356 C357 1.377 . S
C357 H341 0.930 . S
C357 C356 1.377 . S
C357 C358 1.379 . S
C358 H342 0.931 . S
C358 C352 1.383 . S
C358 C357 1.379 . S
H359 C353 0.959 . S
H360 C353 0.961 . S
H361 C353 0.960 . S
H362 C354 0.930 . S
H363 C355 0.929 . S
H364 C372 0.929 . S
H365 C374 0.930 . S
H366 C376 0.930 . S
H367 C379 0.929 . S
H368 C382 0.930 . S
H369 C384 0.960 . S
H370 C384 0.960 . S
H371 C384 0.960 . S
C372 H364 0.929 . S
C372 C373 1.377 . S
C372 C374 1.384 . S
C373 C372 1.377 . S
C373 C379 1.390 . S
C374 H365 0.930 . S
C374 C372 1.384 . S
C374 C375 1.372 . S
C375 C374 1.372 . S
C375 C376 1.400 . S
C375 C380 1.490 . S
C376 H366 0.930 . S
C376 C375 1.400 . S
C376 C379 1.386 . S
H377 C393 0.930 . S
H378 C394 0.931 . S
C379 H367 0.929 . S
C379 C373 1.390 . S
C379 C376 1.386 . S
C380 C375 1.490 . S
C380 C382 1.395 . S
C380 C383 1.403 . S
H381 C387 0.930 . S
C382 H368 0.930 . S
C382 C380 1.395 . S
C382 C385 1.403 . S
C383 C380 1.403 . S
C383 C384 1.524 . S
C383 C387 1.400 . S
C384 H369 0.960 . S
C384 H370 0.960 . S
C384 H371 0.960 . S
C384 C383 1.524 . S
C385 C382 1.403 . S
C385 C386 1.392 . S
C385 C389 1.495 . S
C386 C385 1.392 . S
C386 C387 1.385 . S
C386 C388 1.478 . S
C387 H381 0.930 . S
C387 C383 1.400 . S
C387 C386 1.385 . S
C388 C386 1.478 . S
C388 C390 1.381 . S
C388 C394 1.383 . S
C389 C385 1.495 . S
C389 H395 0.959 . S
C389 H396 0.961 . S
C389 H397 0.960 . S
C390 C388 1.381 . S
C390 C391 1.394 1_545 S
C390 H398 0.930 . S
C391 C390 1.394 1_565 S
C391 C392 1.383 . S
C391 H399 0.929 . S
C392 C391 1.383 . S
C392 C393 1.377 . S
C393 H377 0.930 . S
C393 C392 1.377 . S
C393 C394 1.379 1_565 S
C394 H378 0.931 . S
C394 C388 1.383 . S
C394 C393 1.379 1_545 S
H395 C389 0.959 . S
H396 C389 0.961 . S
H397 C389 0.960 . S
H398 C390 0.930 . S
H399 C391 0.929 . S
H400 C408 0.929 . S
H401 C410 0.930 . S
H402 C412 0.930 . S
H403 C415 0.929 . S
H404 C418 0.930 . S
H405 C420 0.960 . S
H406 C420 0.960 . S
H407 C420 0.960 . S
C408 H400 0.929 . S
C408 C409 1.377 . S
C408 C410 1.384 . S
C409 C408 1.377 . S
C409 C415 1.390 . S
C410 H401 0.930 . S
C410 C408 1.384 . S
C410 C411 1.372 . S
C411 C410 1.372 . S
C411 C412 1.400 . S
C411 C416 1.490 . S
C412 H402 0.930 . S
C412 C411 1.400 . S
C412 C415 1.386 . S
H413 C429 0.930 . S
H414 C430 0.931 . S
C415 H403 0.929 . S
C415 C409 1.390 . S
C415 C412 1.386 . S
C416 C411 1.490 . S
C416 C418 1.395 . S
C416 C419 1.403 . S
H417 C423 0.930 . S
C418 H404 0.930 . S
C418 C416 1.395 . S
C418 C421 1.403 . S
C419 C416 1.403 . S
C419 C420 1.524 . S
C419 C423 1.400 . S
C420 H405 0.960 . S
C420 H406 0.960 . S
C420 H407 0.960 . S
C420 C419 1.524 . S
C421 C418 1.403 . S
C421 C422 1.392 . S
C421 C425 1.495 . S
C422 C421 1.392 . S
C422 C423 1.385 . S
C422 C424 1.478 . S
C423 H417 0.930 . S
C423 C419 1.400 . S
C423 C422 1.385 . S
C424 C422 1.478 . S
C424 C426 1.381 1_655 S
C424 C430 1.383 . S
C425 C421 1.495 . S
C425 H431 0.959 . S
C425 H432 0.961 . S
C425 H433 0.960 . S
C426 C424 1.381 1_455 S
C426 C427 1.394 . S
C426 H434 0.930 . S
C427 C426 1.394 . S
C427 C428 1.383 . S
C427 H435 0.929 . S
C428 C427 1.383 . S
C428 C429 1.377 . S
C429 H413 0.930 . S
C429 C428 1.377 . S
C429 C430 1.379 1_455 S
C430 H414 0.931 . S
C430 C424 1.383 . S
C430 C429 1.379 1_655 S
H431 C425 0.959 . S
H432 C425 0.961 . S
H433 C425 0.960 . S
H434 C426 0.930 . S
H435 C427 0.929 . S
H436 C444 0.929 . S
H437 C446 0.930 . S
H438 C448 0.930 . S
H439 C451 0.929 . S
H440 C454 0.930 . S
H441 C456 0.960 . S
H442 C456 0.960 . S
H443 C456 0.960 . S
C444 H436 0.929 . S
C444 C445 1.377 . S
C444 C446 1.384 . S
C445 C444 1.377 . S
C445 C451 1.390 . S
C446 H437 0.930 . S
C446 C444 1.384 . S
C446 C447 1.372 . S
C447 C446 1.372 . S
C447 C448 1.400 . S
C447 C452 1.490 . S
C448 H438 0.930 . S
C448 C447 1.400 . S
C448 C451 1.386 . S
H449 C465 0.930 . S
H450 C466 0.931 . S
C451 H439 0.929 . S
C451 C445 1.390 . S
C451 C448 1.386 . S
C452 C447 1.490 . S
C452 C454 1.395 . S
C452 C455 1.403 . S
H453 C459 0.930 . S
C454 H440 0.930 . S
C454 C452 1.395 . S
C454 C457 1.403 . S
C455 C452 1.403 . S
C455 C456 1.524 . S
C455 C459 1.400 . S
C456 H441 0.960 . S
C456 H442 0.960 . S
C456 H443 0.960 . S
C456 C455 1.524 . S
C457 C454 1.403 . S
C457 C458 1.392 . S
C457 C461 1.495 . S
C458 C457 1.392 . S
C458 C459 1.385 . S
C458 C460 1.478 . S
C459 H453 0.930 . S
C459 C455 1.400 . S
C459 C458 1.385 . S
C460 C458 1.478 . S
C460 C462 1.381 . S
C460 C466 1.383 . S
C461 C457 1.495 . S
C461 H467 0.959 . S
C461 H468 0.961 . S
C461 H469 0.960 . S
C462 C460 1.381 . S
C462 C463 1.394 . S
C462 H470 0.930 . S
C463 C462 1.394 . S
C463 C464 1.383 . S
C463 H471 0.929 . S
C464 C463 1.383 . S
C464 C465 1.377 . S
C465 H449 0.930 . S
C465 C464 1.377 . S
C465 C466 1.379 . S
C466 H450 0.931 . S
C466 C460 1.383 . S
C466 C465 1.379 . S
H467 C461 0.959 . S
H468 C461 0.961 . S
H469 C461 0.960 . S
H470 C462 0.930 . S
H471 C463 0.929 . S
H472 C480 0.929 . S
H473 C482 0.930 . S
H474 C484 0.930 . S
H475 C487 0.929 . S
H476 C490 0.930 . S
H477 C492 0.960 . S
H478 C492 0.960 . S
H479 C492 0.960 . S
C480 H472 0.929 . S
C480 C481 1.377 . S
C480 C482 1.384 . S
C481 C480 1.377 . S
C481 C487 1.390 . S
C482 H473 0.930 . S
C482 C480 1.384 . S
C482 C483 1.372 . S
C483 C482 1.372 . S
C483 C484 1.400 . S
C483 C488 1.490 . S
C484 H474 0.930 . S
C484 C483 1.400 . S
C484 C487 1.386 . S
H485 C501 0.930 . S
H486 C502 0.931 . S
C487 H475 0.929 . S
C487 C481 1.390 . S
C487 C484 1.386 . S
C488 C483 1.490 . S
C488 C490 1.395 . S
C488 C491 1.403 . S
H489 C495 0.930 . S
C490 H476 0.930 . S
C490 C488 1.395 . S
C490 C493 1.403 . S
C491 C488 1.403 . S
C491 C492 1.524 . S
C491 C495 1.400 . S
C492 H477 0.960 . S
C492 H478 0.960 . S
C492 H479 0.960 . S
C492 C491 1.524 . S
C493 C490 1.403 . S
C493 C494 1.392 . S
C493 C497 1.495 . S
C494 C493 1.392 . S
C494 C495 1.385 . S
C494 C496 1.478 . S
C495 H489 0.930 . S
C495 C491 1.400 . S
C495 C494 1.385 . S
C496 C494 1.478 . S
C496 C498 1.381 1_455 S
C496 C502 1.383 . S
C497 C493 1.495 . S
C497 H503 0.959 . S
C497 H504 0.961 . S
C497 H505 0.960 . S
C498 C496 1.381 1_655 S
C498 C499 1.394 . S
C498 H506 0.930 . S
C499 C498 1.394 . S
C499 C500 1.383 . S
C499 H507 0.929 . S
C500 C499 1.383 . S
C500 C501 1.377 . S
C501 H485 0.930 . S
C501 C500 1.377 . S
C501 C502 1.379 1_655 S
C502 H486 0.931 . S
C502 C496 1.383 . S
C502 C501 1.379 1_455 S
H503 C497 0.959 . S
H504 C497 0.961 . S
H505 C497 0.960 . S
H506 C498 0.930 . S
H507 C499 0.929 . S
H508 C516 0.929 . S
H509 C518 0.930 . S
H510 C520 0.930 . S
H511 C523 0.929 . S
H512 C526 0.930 . S
H513 C528 0.960 . S
H514 C528 0.960 . S
H515 C528 0.960 . S
C516 H508 0.929 . S
C516 C517 1.377 . S
C516 C518 1.384 . S
C517 C516 1.377 . S
C517 C523 1.390 . S
C518 H509 0.930 . S
C518 C516 1.384 . S
C518 C519 1.372 . S
C519 C518 1.372 . S
C519 C520 1.400 . S
C519 C524 1.490 . S
C520 H510 0.930 . S
C520 C519 1.400 . S
C520 C523 1.386 . S
H521 C537 0.930 . S
H522 C538 0.931 . S
C523 H511 0.929 . S
C523 C517 1.390 . S
C523 C520 1.386 . S
C524 C519 1.490 . S
C524 C526 1.395 . S
C524 C527 1.403 . S
H525 C531 0.930 . S
C526 H512 0.930 . S
C526 C524 1.395 . S
C526 C529 1.403 . S
C527 C524 1.403 . S
C527 C528 1.524 . S
C527 C531 1.400 . S
C528 H513 0.960 . S
C528 H514 0.960 . S
C528 H515 0.960 . S
C528 C527 1.524 . S
C529 C526 1.403 . S
C529 C530 1.392 . S
C529 C533 1.495 . S
C530 C529 1.392 . S
C530 C531 1.385 . S
C530 C532 1.478 . S
C531 H525 0.930 . S
C531 C527 1.400 . S
C531 C530 1.385 . S
C532 C530 1.478 . S
C532 C534 1.381 . S
C532 C538 1.383 . S
C533 C529 1.495 . S
C533 H539 0.959 . S
C533 H540 0.961 . S
C533 H541 0.960 . S
C534 C532 1.381 . S
C534 C535 1.394 . S
C534 H542 0.930 . S
C535 C534 1.394 . S
C535 C536 1.383 . S
C535 H543 0.929 . S
C536 C535 1.383 . S
C536 C537 1.377 . S
C537 H521 0.930 . S
C537 C536 1.377 . S
C537 C538 1.379 . S
C538 H522 0.931 . S
C538 C532 1.383 . S
C538 C537 1.379 . S
H539 C533 0.959 . S
H540 C533 0.961 . S
H541 C533 0.960 . S
H542 C534 0.930 . S
H543 C535 0.929 . S
H544 C552 0.929 . S
H545 C554 0.930 . S
H546 C556 0.930 . S
H547 C559 0.929 . S
H548 C562 0.930 . S
H549 C564 0.960 . S
H550 C564 0.960 . S
H551 C564 0.960 . S
C552 H544 0.929 . S
C552 C553 1.377 . S
C552 C554 1.384 . S
C553 C552 1.377 . S
C553 C559 1.390 . S
C554 H545 0.930 . S
C554 C552 1.384 . S
C554 C555 1.372 . S
C555 C554 1.372 . S
C555 C556 1.400 . S
C555 C560 1.490 . S
C556 H546 0.930 . S
C556 C555 1.400 . S
C556 C559 1.386 . S
H557 C573 0.930 . S
H558 C574 0.931 . S
C559 H547 0.929 . S
C559 C553 1.390 . S
C559 C556 1.386 . S
C560 C555 1.490 . S
C560 C562 1.395 . S
C560 C563 1.403 . S
H561 C567 0.930 . S
C562 H548 0.930 . S
C562 C560 1.395 . S
C562 C565 1.403 1_655 S
C563 C560 1.403 . S
C563 C564 1.524 . S
C563 C567 1.400 1_655 S
C564 H549 0.960 . S
C564 H550 0.960 . S
C564 H551 0.960 . S
C564 C563 1.524 . S
C565 C562 1.403 1_455 S
C565 C566 1.392 . S
C565 C569 1.495 . S
C566 C565 1.392 . S
C566 C567 1.385 . S
C566 C568 1.478 . S
C567 H561 0.930 . S
C567 C563 1.400 1_455 S
C567 C566 1.385 . S
C568 C566 1.478 . S
C568 C570 1.381 . S
C568 C574 1.383 . S
C569 C565 1.495 . S
C569 H575 0.959 . S
C569 H576 0.961 . S
C569 H577 0.960 . S
C570 C568 1.381 . S
C570 C571 1.394 . S
C570 H578 0.930 . S
C571 C570 1.394 . S
C571 C572 1.383 . S
C571 H579 0.929 . S
C572 C571 1.383 . S
C572 C573 1.377 . S
C573 H557 0.930 . S
C573 C572 1.377 . S
C573 C574 1.379 . S
C574 H558 0.931 . S
C574 C568 1.383 . S
C574 C573 1.379 . S
H575 C569 0.959 . S
H576 C569 0.961 . S
H577 C569 0.960 . S
H578 C570 0.930 . S
H579 C571 0.929 . S
H580 C588 0.929 . S
H581 C590 0.930 . S
H582 C592 0.930 . S
H583 C595 0.929 . S
H584 C598 0.930 . S
H585 C600 0.960 1_455 S
H586 C600 0.960 . S
H587 C600 0.960 . S
C588 H580 0.929 . S
C588 C589 1.377 . S
C588 C590 1.384 . S
C589 C588 1.377 . S
C589 C595 1.390 . S
C590 H581 0.930 . S
C590 C588 1.384 . S
C590 C591 1.372 . S
C591 C590 1.372 . S
C591 C592 1.400 . S
C591 C596 1.490 . S
C592 H582 0.930 . S
C592 C591 1.400 . S
C592 C595 1.386 . S
H593 C609 0.930 . S
H594 C610 0.931 . S
C595 H583 0.929 . S
C595 C589 1.390 . S
C595 C592 1.386 . S
C596 C591 1.490 . S
C596 C598 1.395 . S
C596 C599 1.403 . S
H597 C603 0.930 . S
C598 H584 0.930 . S
C598 C596 1.395 . S
C598 C601 1.403 1_655 S
C599 C596 1.403 . S
C599 C600 1.524 . S
C599 C603 1.400 1_655 S
C600 H585 0.960 1_655 S
C600 H586 0.960 . S
C600 H587 0.960 . S
C600 C599 1.524 . S
C601 C598 1.403 1_455 S
C601 C602 1.392 . S
C601 C605 1.495 . S
C602 C601 1.392 . S
C602 C603 1.385 . S
C602 C604 1.478 . S
C603 H597 0.930 . S
C603 C599 1.400 1_455 S
C603 C602 1.385 . S
C604 C602 1.478 . S
C604 C606 1.381 . S
C604 C610 1.383 . S
C605 C601 1.495 . S
C605 H611 0.959 . S
C605 H612 0.961 . S
C605 H613 0.960 . S
C606 C604 1.381 . S
C606 C607 1.394 . S
C606 H614 0.930 . S
C607 C606 1.394 . S
C607 C608 1.383 . S
C607 H615 0.929 . S
C608 C607 1.383 . S
C608 C609 1.377 . S
C609 H593 0.930 . S
C609 C608 1.377 . S
C609 C610 1.379 . S
C610 H594 0.931 . S
C610 C604 1.383 . S
C610 C609 1.379 . S
H611 C605 0.959 . S
H612 C605 0.961 . S
H613 C605 0.960 . S
H614 C606 0.930 . S
H615 C607 0.929 . S
H616 C624 0.929 . S
H617 C626 0.930 . S
H618 C628 0.930 . S
H619 C631 0.929 . S
H620 C634 0.930 . S
H621 C636 0.960 . S
H622 C636 0.960 . S
H623 C636 0.960 . S
C624 H616 0.929 . S
C624 C625 1.377 . S
C624 C626 1.384 . S
C625 C624 1.377 . S
C625 C631 1.390 . S
C626 H617 0.930 . S
C626 C624 1.384 . S
C626 C627 1.372 . S
C627 C626 1.372 . S
C627 C628 1.400 . S
C627 C632 1.490 . S
C628 H618 0.930 . S
C628 C627 1.400 . S
C628 C631 1.386 . S
H629 C645 0.930 . S
H630 C646 0.931 . S
C631 H619 0.929 . S
C631 C625 1.390 . S
C631 C628 1.386 . S
C632 C627 1.490 . S
C632 C634 1.395 1_545 S
C632 C635 1.403 . S
H633 C639 0.930 . S
C634 H620 0.930 . S
C634 C632 1.395 1_565 S
C634 C637 1.403 . S
C635 C632 1.403 . S
C635 C636 1.524 . S
C635 C639 1.400 . S
C636 H621 0.960 . S
C636 H622 0.960 . S
C636 H623 0.960 . S
C636 C635 1.524 . S
C637 C634 1.403 . S
C637 C638 1.392 . S
C637 C641 1.495 . S
C638 C637 1.392 . S
C638 C639 1.385 1_565 S
C638 C640 1.478 . S
C639 H633 0.930 . S
C639 C635 1.400 . S
C639 C638 1.385 1_545 S
C640 C638 1.478 . S
C640 C642 1.381 . S
C640 C646 1.383 . S
C641 C637 1.495 . S
C641 H647 0.959 . S
C641 H648 0.961 . S
C641 H649 0.960 . S
C642 C640 1.381 . S
C642 C643 1.394 . S
C642 H650 0.930 . S
C643 C642 1.394 . S
C643 C644 1.383 . S
C643 H651 0.929 . S
C644 C643 1.383 . S
C644 C645 1.377 . S
C645 H629 0.930 . S
C645 C644 1.377 . S
C645 C646 1.379 . S
C646 H630 0.931 . S
C646 C640 1.383 . S
C646 C645 1.379 . S
H647 C641 0.959 . S
H648 C641 0.961 . S
H649 C641 0.960 . S
H650 C642 0.930 . S
H651 C643 0.929 . S
H652 C660 0.929 . S
H653 C662 0.930 . S
H654 C664 0.930 . S
H655 C667 0.929 . S
H656 C670 0.930 . S
H657 C672 0.960 . S
H658 C672 0.960 . S
H659 C672 0.960 . S
C660 H652 0.929 . S
C660 C661 1.377 . S
C660 C662 1.384 . S
C661 C660 1.377 . S
C661 C667 1.390 . S
C662 H653 0.930 . S
C662 C660 1.384 . S
C662 C663 1.372 . S
C663 C662 1.372 . S
C663 C664 1.400 . S
C663 C668 1.490 . S
C664 H654 0.930 . S
C664 C663 1.400 . S
C664 C667 1.386 . S
H665 C681 0.930 . S
H666 C682 0.931 . S
C667 H655 0.929 . S
C667 C661 1.390 . S
C667 C664 1.386 . S
C668 C663 1.490 . S
C668 C670 1.395 . S
C668 C671 1.403 1_545 S
H669 C675 0.930 . S
C670 H656 0.930 . S
C670 C668 1.395 . S
C670 C673 1.403 . S
C671 C668 1.403 1_565 S
C671 C672 1.524 . S
C671 C675 1.400 . S
C672 H657 0.960 . S
C672 H658 0.960 . S
C672 H659 0.960 . S
C672 C671 1.524 . S
C673 C670 1.403 . S
C673 C674 1.392 1_545 S
C673 C677 1.495 . S
C674 C673 1.392 1_565 S
C674 C675 1.385 . S
C674 C676 1.478 . S
C675 H669 0.930 . S
C675 C671 1.400 . S
C675 C674 1.385 . S
C676 C674 1.478 . S
C676 C678 1.381 . S
C676 C682 1.383 . S
C677 C673 1.495 . S
C677 H683 0.959 . S
C677 H684 0.961 . S
C677 H685 0.960 . S
C678 C676 1.381 . S
C678 C679 1.394 . S
C678 H686 0.930 . S
C679 C678 1.394 . S
C679 C680 1.383 . S
C679 H687 0.929 . S
C680 C679 1.383 . S
C680 C681 1.377 . S
C681 H665 0.930 . S
C681 C680 1.377 . S
C681 C682 1.379 . S
C682 H666 0.931 . S
C682 C676 1.383 . S
C682 C681 1.379 . S
H683 C677 0.959 . S
H684 C677 0.961 . S
H685 C677 0.960 . S
H686 C678 0.930 . S
H687 C679 0.929 . S
C121 C8 1.494 . S
C140 C78 1.471 . S
C157 C22 1.490 . S
C176 C92 1.498 . S
C193 C36 1.490 . S
C212 C106 1.499 . S
C229 C64 1.494 . S
C248 C50 1.475 . S
C265 C6 1.492 . S
C284 C63 1.508 . S
C301 C20 1.488 . S
C320 C77 1.495 . S
C337 C91 1.486 . S
C356 C34 1.462 . S
C373 C48 1.483 . S
C392 C105 1.467 . S
C409 C62 1.492 . S
C428 C7 1.507 . S
C445 C21 1.494 . S
C464 C76 1.497 . S
C481 C90 1.491 . S
C500 C35 1.503 . S
C517 C49 1.487 . S
C536 C104 1.465 . S
C553 C37 0.748 . S
C572 C9 0.735 . S
C589 C51 0.766 . S
C608 C23 0.794 . S
C625 C65 0.747 . S
C644 C93 0.704 . S
C661 C79 0.747 . S
C680 C107 0.706 . S
