# Generated by pormake.
# Topology whz, (6)-cn, num edge types: 1
# Building blocks:
#     Node 0, Type 0, BuildingBlock: FUNLAD_clean_sbu_0, # of connection points: 6
#     Node 1, Type 0, BuildingBlock: FUNLAD_clean_sbu_0, # of connection points: 6
#     Node 2, Type 0, BuildingBlock: FUNLAD_clean_sbu_0, # of connection points: 6
#     Node 3, Type 0, BuildingBlock: FUNLAD_clean_sbu_0, # of connection points: 6
#     Node 4, Type 0, BuildingBlock: FUNLAD_clean_sbu_0, # of connection points: 6
#     Node 5, Type 0, BuildingBlock: FUNLAD_clean_sbu_0, # of connection points: 6
#     Node 6, Type 0, BuildingBlock: FUNLAD_clean_sbu_0, # of connection points: 6
#     Node 7, Type 0, BuildingBlock: FUNLAD_clean_sbu_0, # of connection points: 6
#     Node 8, Type 0, BuildingBlock: FUNLAD_clean_sbu_0, # of connection points: 6
#     Node 9, Type 0, BuildingBlock: FUNLAD_clean_sbu_0, # of connection points: 6
#     Node 10, Type 0, BuildingBlock: FUNLAD_clean_sbu_0, # of connection points: 6
#     Node 11, Type 0, BuildingBlock: FUNLAD_clean_sbu_0, # of connection points: 6
#     Node 12, Type 0, BuildingBlock: FUNLAD_clean_sbu_0, # of connection points: 6
#     Node 13, Type 0, BuildingBlock: FUNLAD_clean_sbu_0, # of connection points: 6
#     Node 14, Type 0, BuildingBlock: FUNLAD_clean_sbu_0, # of connection points: 6
#     Node 15, Type 0, BuildingBlock: FUNLAD_clean_sbu_0, # of connection points: 6
#     Edge 16, Type (0, 0), BuildingBlock: XIVTED_clean_linker_0, # of connection points: 2
#     Edge 17, Type (0, 0), BuildingBlock: XIVTED_clean_linker_0, # of connection points: 2
#     Edge 18, Type (0, 0), BuildingBlock: XIVTED_clean_linker_0, # of connection points: 2
#     Edge 19, Type (0, 0), BuildingBlock: XIVTED_clean_linker_0, # of connection points: 2
#     Edge 20, Type (0, 0), BuildingBlock: XIVTED_clean_linker_0, # of connection points: 2
#     Edge 21, Type (0, 0), BuildingBlock: XIVTED_clean_linker_0, # of connection points: 2
#     Edge 22, Type (0, 0), BuildingBlock: XIVTED_clean_linker_0, # of connection points: 2
#     Edge 23, Type (0, 0), BuildingBlock: XIVTED_clean_linker_0, # of connection points: 2
#     Edge 24, Type (0, 0), BuildingBlock: XIVTED_clean_linker_0, # of connection points: 2
#     Edge 25, Type (0, 0), BuildingBlock: XIVTED_clean_linker_0, # of connection points: 2
#     Edge 26, Type (0, 0), BuildingBlock: XIVTED_clean_linker_0, # of connection points: 2
#     Edge 27, Type (0, 0), BuildingBlock: XIVTED_clean_linker_0, # of connection points: 2
#     Edge 28, Type (0, 0), BuildingBlock: XIVTED_clean_linker_0, # of connection points: 2
#     Edge 29, Type (0, 0), BuildingBlock: XIVTED_clean_linker_0, # of connection points: 2
#     Edge 30, Type (0, 0), BuildingBlock: XIVTED_clean_linker_0, # of connection points: 2
#     Edge 31, Type (0, 0), BuildingBlock: XIVTED_clean_linker_0, # of connection points: 2
#     Edge 32, Type (0, 0), BuildingBlock: XIVTED_clean_linker_0, # of connection points: 2
#     Edge 33, Type (0, 0), BuildingBlock: XIVTED_clean_linker_0, # of connection points: 2
#     Edge 34, Type (0, 0), BuildingBlock: XIVTED_clean_linker_0, # of connection points: 2
#     Edge 35, Type (0, 0), BuildingBlock: XIVTED_clean_linker_0, # of connection points: 2
#     Edge 36, Type (0, 0), BuildingBlock: XIVTED_clean_linker_0, # of connection points: 2
#     Edge 37, Type (0, 0), BuildingBlock: XIVTED_clean_linker_0, # of connection points: 2
#     Edge 38, Type (0, 0), BuildingBlock: XIVTED_clean_linker_0, # of connection points: 2
#     Edge 39, Type (0, 0), BuildingBlock: XIVTED_clean_linker_0, # of connection points: 2
#     Edge 40, Type (0, 0), BuildingBlock: XIVTED_clean_linker_0, # of connection points: 2
#     Edge 41, Type (0, 0), BuildingBlock: XIVTED_clean_linker_0, # of connection points: 2
#     Edge 42, Type (0, 0), BuildingBlock: XIVTED_clean_linker_0, # of connection points: 2
#     Edge 43, Type (0, 0), BuildingBlock: XIVTED_clean_linker_0, # of connection points: 2
#     Edge 44, Type (0, 0), BuildingBlock: XIVTED_clean_linker_0, # of connection points: 2
#     Edge 45, Type (0, 0), BuildingBlock: XIVTED_clean_linker_0, # of connection points: 2
#     Edge 46, Type (0, 0), BuildingBlock: XIVTED_clean_linker_0, # of connection points: 2
#     Edge 47, Type (0, 0), BuildingBlock: XIVTED_clean_linker_0, # of connection points: 2
#     Edge 48, Type (0, 0), BuildingBlock: XIVTED_clean_linker_0, # of connection points: 2
#     Edge 49, Type (0, 0), BuildingBlock: XIVTED_clean_linker_0, # of connection points: 2
#     Edge 50, Type (0, 0), BuildingBlock: XIVTED_clean_linker_0, # of connection points: 2
#     Edge 51, Type (0, 0), BuildingBlock: XIVTED_clean_linker_0, # of connection points: 2
#     Edge 52, Type (0, 0), BuildingBlock: XIVTED_clean_linker_0, # of connection points: 2
#     Edge 53, Type (0, 0), BuildingBlock: XIVTED_clean_linker_0, # of connection points: 2
#     Edge 54, Type (0, 0), BuildingBlock: XIVTED_clean_linker_0, # of connection points: 2
#     Edge 55, Type (0, 0), BuildingBlock: XIVTED_clean_linker_0, # of connection points: 2
#     Edge 56, Type (0, 0), BuildingBlock: XIVTED_clean_linker_0, # of connection points: 2
#     Edge 57, Type (0, 0), BuildingBlock: XIVTED_clean_linker_0, # of connection points: 2
#     Edge 58, Type (0, 0), BuildingBlock: XIVTED_clean_linker_0, # of connection points: 2
#     Edge 59, Type (0, 0), BuildingBlock: XIVTED_clean_linker_0, # of connection points: 2
#     Edge 60, Type (0, 0), BuildingBlock: XIVTED_clean_linker_0, # of connection points: 2
#     Edge 61, Type (0, 0), BuildingBlock: XIVTED_clean_linker_0, # of connection points: 2
#     Edge 62, Type (0, 0), BuildingBlock: XIVTED_clean_linker_0, # of connection points: 2
#     Edge 63, Type (0, 0), BuildingBlock: XIVTED_clean_linker_0, # of connection points: 2
# Relax obj value: 0.652
# Max RMSD: 0.291
# Mean RMSD: 0.291
data_MOF--net-whz--node1-FUNLAD_clean_sbu_0--edge1-XIVTED_clean_linker_0
_symmetry_space_group_name_H-M    P1
_symmetry_Int_Tables_number       1
_symmetry_cell_setting            triclinic
loop_
_symmetry_equiv_pos_as_xyz
'x, y, z'
_cell_length_a     38.132909
_cell_length_b     38.158636
_cell_length_c     56.870957
_cell_angle_alpha  89.984545
_cell_angle_beta   89.970869
_cell_angle_gamma 90.093033
loop_
_atom_site_label
_atom_site_type_symbol
_atom_site_fract_x
_atom_site_fract_y
_atom_site_fract_z
_atom_type_partial_charge
C0 C 0.32998 0.12227 0.10469 0.0
N1 N 0.2842 0.21735 0.12297 0.0
C2 C 0.30013 0.23765 0.1064 0.0
C3 C 0.2836 0.26811 0.09828 0.0
C4 C 0.25038 0.27707 0.10716 0.0
C5 C 0.2344 0.25499 0.12364 0.0
C6 C 0.25186 0.22546 0.13143 0.0
Zn7 Zn 0.30703 0.17547 0.13885 0.0
C8 C 0.25515 0.12108 0.15105 0.0
N9 N 0.34836 0.08691 0.17602 0.0
C10 C 0.37 0.06078 0.16849 0.0
C11 C 0.32939 0.083 0.19619 0.0
C12 C 0.33078 0.05236 0.20915 0.0
C13 C 0.35145 0.02443 0.20148 0.0
C14 C 0.37223 0.0291 0.18122 0.0
Zn15 Zn 0.33225 0.13054 0.157 0.0
O16 O 0.31798 0.15302 0.10693 0.0
C17 C 0.38485 0.18412 0.14588 0.0
O18 O 0.33764 0.10431 0.12299 0.0
H19 H 0.31094 0.10267 0.20174 0.0
H20 H 0.32598 0.23083 0.10006 0.0
H21 H 0.38426 0.06378 0.15216 0.0
O22 O 0.35723 0.1998 0.1389 0.0
O23 O 0.38275 0.15286 0.15376 0.0
H24 H 0.23992 0.20989 0.14512 0.0
O25 O 0.32524 0.15946 0.18981 0.0
O26 O 0.29609 0.19909 0.17034 0.0
O27 O 0.28263 0.10881 0.16016 0.0
O28 O 0.25698 0.14946 0.13954 0.0
C29 C 0.3075 0.18763 0.18964 0.0
H30 H 0.29684 0.2848 0.08567 0.0
H31 H 0.20936 0.26145 0.13153 0.0
H32 H 0.31492 0.05034 0.22491 0.0
H33 H 0.38878 0.00813 0.17482 0.0
C34 C 0.6236 0.58528 0.34916 0.0
N35 N 0.52404 0.54623 0.3634 0.0
C36 C 0.49262 0.55888 0.37086 0.0
C37 C 0.46172 0.54171 0.36496 0.0
C38 C 0.46317 0.51092 0.35155 0.0
C39 C 0.49557 0.49993 0.3425 0.0
C40 C 0.52595 0.51834 0.34854 0.0
Zn41 Zn 0.56731 0.56329 0.38088 0.0
C42 C 0.61612 0.50719 0.39232 0.0
N43 N 0.65563 0.59634 0.42186 0.0
C44 C 0.68195 0.61888 0.4159 0.0
C45 C 0.65855 0.57557 0.44125 0.0
C46 C 0.68836 0.57642 0.45521 0.0
C47 C 0.7164 0.59846 0.4493 0.0
C48 C 0.71272 0.62053 0.42957 0.0
Zn49 Zn 0.612 0.58444 0.40154 0.0
O50 O 0.59188 0.57549 0.34997 0.0
C51 C 0.5632 0.641 0.3912 0.0
O52 O 0.64052 0.5905 0.36829 0.0
H53 H 0.63828 0.55692 0.44562 0.0
H54 H 0.49156 0.5805 0.3831 0.0
H55 H 0.6796 0.63475 0.40021 0.0
O56 O 0.54724 0.61463 0.38264 0.0
O57 O 0.5937 0.63714 0.4 0.0
H58 H 0.55119 0.50877 0.34275 0.0
O59 O 0.5814 0.5762 0.43329 0.0
O60 O 0.54176 0.55047 0.41158 0.0
O61 O 0.62933 0.53287 0.40317 0.0
O62 O 0.58903 0.51186 0.37977 0.0
C63 C 0.55266 0.5594 0.43164 0.0
H64 H 0.43731 0.55076 0.37257 0.0
H65 H 0.49758 0.47638 0.33195 0.0
H66 H 0.68938 0.55957 0.47053 0.0
H67 H 0.7337 0.63805 0.42438 0.0
C68 C 0.15463 0.87014 0.59009 0.0
N69 N 0.20787 0.77663 0.60566 0.0
C70 C 0.18848 0.7547 0.59195 0.0
C71 C 0.20312 0.72329 0.58374 0.0
C72 C 0.238 0.71502 0.58953 0.0
C73 C 0.2575 0.73891 0.60287 0.0
C74 C 0.24188 0.7693 0.61091 0.0
Zn75 Zn 0.18842 0.81928 0.62292 0.0
C76 C 0.24069 0.87667 0.62536 0.0
N77 N 0.15449 0.90913 0.66284 0.0
C78 C 0.12274 0.92461 0.66657 0.0
C79 C 0.18285 0.9188 0.67595 0.0
C80 C 0.18044 0.9443 0.69314 0.0
C81 C 0.14807 0.9595 0.69838 0.0
C82 C 0.11891 0.95009 0.68444 0.0
Zn83 Zn 0.16687 0.86637 0.64135 0.0
O84 O 0.17018 0.84094 0.59228 0.0
C85 C 0.11355 0.81 0.63892 0.0
O86 O 0.14845 0.88898 0.6083 0.0
H87 H 0.20771 0.9057 0.6741 0.0
H88 H 0.16136 0.76081 0.58821 0.0
H89 H 0.10019 0.91633 0.65645 0.0
O90 O 0.13877 0.79467 0.62837 0.0
O91 O 0.11783 0.84105 0.64674 0.0
H92 H 0.25672 0.78598 0.62256 0.0
O93 O 0.18757 0.84167 0.67332 0.0
O94 O 0.20652 0.79706 0.65309 0.0
O95 O 0.21449 0.89098 0.63478 0.0
O96 O 0.23807 0.84537 0.61818 0.0
C97 C 0.20335 0.81235 0.67257 0.0
H98 H 0.18715 0.70528 0.57362 0.0
H99 H 0.28403 0.73317 0.60847 0.0
H100 H 0.20391 0.95108 0.70286 0.0
H101 H 0.09329 0.96112 0.68792 0.0
C102 C 0.87358 0.42046 0.85325 0.0
N103 N 0.97114 0.4599 0.87209 0.0
C104 C 0.98616 0.44766 0.85198 0.0
C105 C 0.01426 0.46585 0.84175 0.0
C106 C 0.02635 0.49692 0.85229 0.0
C107 C 0.01046 0.5085 0.87308 0.0
C108 C 0.98295 0.4896 0.88268 0.0
Zn109 Zn 0.9289 0.43753 0.88801 0.0
C110 C 0.8777 0.49117 0.90276 0.0
N111 N 0.8378 0.39765 0.92378 0.0
C112 C 0.81112 0.37677 0.91604 0.0
C113 C 0.83455 0.41577 0.94432 0.0
C114 C 0.80412 0.41417 0.95755 0.0
C115 C 0.77568 0.39418 0.94977 0.0
C116 C 0.77963 0.37438 0.92901 0.0
Zn117 Zn 0.88205 0.41322 0.90502 0.0
O118 O 0.90446 0.43191 0.85612 0.0
C119 C 0.93295 0.35905 0.89138 0.0
O120 O 0.85542 0.4109 0.87106 0.0
H121 H 0.85476 0.43353 0.95011 0.0
H122 H 0.97625 0.42402 0.84384 0.0
H123 H 0.81361 0.36314 0.89945 0.0
O124 O 0.94971 0.38635 0.88487 0.0
O125 O 0.90229 0.36203 0.90019 0.0
H126 H 0.97097 0.49892 0.89871 0.0
O127 O 0.91112 0.41707 0.93791 0.0
O128 O 0.95433 0.44277 0.9195 0.0
O129 O 0.86276 0.46351 0.90963 0.0
O130 O 0.90671 0.48887 0.89199 0.0
C131 C 0.94109 0.43166 0.9384 0.0
H132 H 0.02613 0.45601 0.82576 0.0
H133 H 0.01962 0.53173 0.88217 0.0
H134 H 0.80276 0.42921 0.97369 0.0
H135 H 0.75828 0.35838 0.92247 0.0
C136 C 0.69514 0.79532 0.8199 0.0
N137 N 0.65392 0.89614 0.82899 0.0
C138 C 0.67793 0.89953 0.81134 0.0
C139 C 0.67477 0.92505 0.79429 0.0
C140 C 0.646 0.94762 0.79434 0.0
C141 C 0.62141 0.94456 0.81279 0.0
C142 C 0.62592 0.91833 0.83013 0.0
Zn143 Zn 0.66901 0.8551 0.8512 0.0
C144 C 0.6162 0.80175 0.86251 0.0
N145 N 0.7166 0.76985 0.88789 0.0
C146 C 0.74826 0.75961 0.87931 0.0
C147 C 0.70203 0.75385 0.90695 0.0
C148 C 0.7195 0.72595 0.91789 0.0
C149 C 0.75228 0.71513 0.9092 0.0
C150 C 0.76657 0.73249 0.88974 0.0
Zn151 Zn 0.69428 0.80995 0.86967 0.0
O152 O 0.67938 0.82463 0.81953 0.0
C153 C 0.7463 0.86428 0.85767 0.0
O154 O 0.70456 0.78274 0.83937 0.0
H155 H 0.67678 0.76241 0.91344 0.0
H156 H 0.70032 0.88241 0.81021 0.0
H157 H 0.75932 0.77205 0.86394 0.0
O158 O 0.7183 0.87757 0.85014 0.0
O159 O 0.74513 0.83461 0.86763 0.0
H160 H 0.60707 0.91566 0.84424 0.0
O161 O 0.68371 0.83645 0.90042 0.0
O162 O 0.66025 0.88325 0.88393 0.0
O163 O 0.64338 0.78666 0.87082 0.0
O164 O 0.61889 0.83202 0.85313 0.0
C165 C 0.66976 0.86647 0.90235 0.0
H166 H 0.69503 0.92689 0.78097 0.0
H167 H 0.59881 0.96166 0.81354 0.0
H168 H 0.70751 0.71287 0.93277 0.0
H169 H 0.79118 0.72433 0.88196 0.0
C170 C 0.43292 0.44639 0.5684 0.0
N171 N 0.33396 0.39929 0.58039 0.0
C172 C 0.32878 0.4207 0.56151 0.0
C173 C 0.29879 0.41829 0.5479 0.0
C174 C 0.27258 0.39411 0.55365 0.0
C175 C 0.27851 0.37131 0.57278 0.0
C176 C 0.30956 0.37455 0.58614 0.0
Zn177 Zn 0.37716 0.41534 0.60015 0.0
C178 C 0.43305 0.36382 0.60873 0.0
N179 N 0.46374 0.46378 0.63536 0.0
C180 C 0.46983 0.49751 0.62868 0.0
C181 C 0.48691 0.44631 0.64928 0.0
C182 C 0.51835 0.46251 0.6561 0.0
C183 C 0.5254 0.49699 0.64871 0.0
C184 C 0.50021 0.51469 0.63538 0.0
Zn185 Zn 0.42187 0.44067 0.61904 0.0
O186 O 0.40503 0.42813 0.56744 0.0
C187 C 0.36484 0.49108 0.60978 0.0
O188 O 0.44472 0.45529 0.58818 0.0
H189 H 0.48187 0.41936 0.65414 0.0
H190 H 0.34702 0.44139 0.55739 0.0
H191 H 0.45232 0.51075 0.61675 0.0
O192 O 0.35292 0.46391 0.60004 0.0
O193 O 0.39403 0.48955 0.62036 0.0
H194 H 0.31347 0.35824 0.60147 0.0
O195 O 0.40005 0.42601 0.65041 0.0
O196 O 0.35222 0.40427 0.63411 0.0
O197 O 0.44776 0.39126 0.61697 0.0
O198 O 0.40193 0.36567 0.60056 0.0
C199 C 0.37027 0.41151 0.65248 0.0
H200 H 0.29609 0.43584 0.53303 0.0
H201 H 0.25898 0.35208 0.57779 0.0
H202 H 0.53737 0.44793 0.66629 0.0
H203 H 0.50498 0.54083 0.62865 0.0
C204 C 0.80461 0.18509 0.31543 0.0
N205 N 0.84553 0.08527 0.33109 0.0
C206 C 0.82371 0.07912 0.31255 0.0
C207 C 0.82612 0.04874 0.29938 0.0
C208 C 0.85094 0.02324 0.30512 0.0
C209 C 0.87408 0.03008 0.32393 0.0
C210 C 0.87071 0.06145 0.33693 0.0
Zn211 Zn 0.83028 0.13024 0.34923 0.0
C212 C 0.88409 0.18432 0.35815 0.0
N213 N 0.78411 0.22097 0.38082 0.0
C214 C 0.75174 0.22778 0.37182 0.0
C215 C 0.80066 0.24459 0.39497 0.0
C216 C 0.78505 0.27722 0.39953 0.0
C217 C 0.75246 0.28504 0.38927 0.0
C218 C 0.7353 0.25932 0.37613 0.0
Zn219 Zn 0.80658 0.17696 0.3669 0.0
O220 O 0.8201 0.15565 0.31547 0.0
C221 C 0.75343 0.1219 0.3576 0.0
O222 O 0.79632 0.19879 0.33477 0.0
H223 H 0.82656 0.23892 0.4017 0.0
H224 H 0.803 0.09718 0.3082 0.0
H225 H 0.7392 0.20983 0.35985 0.0
O226 O 0.78043 0.10758 0.34919 0.0
O227 O 0.75623 0.1518 0.36705 0.0
H228 H 0.88752 0.06626 0.3519 0.0
O229 O 0.81704 0.15648 0.39918 0.0
O230 O 0.83919 0.10771 0.38446 0.0
O231 O 0.85736 0.19997 0.36659 0.0
O232 O 0.88093 0.1537 0.34937 0.0
C233 C 0.83092 0.12666 0.40226 0.0
H234 H 0.80832 0.04535 0.28471 0.0
H235 H 0.89385 0.01113 0.32887 0.0
H236 H 0.79898 0.29662 0.40983 0.0
H237 H 0.70991 0.26417 0.36822 0.0
C238 C 0.05427 0.54032 0.07816 0.0
N239 N 0.15142 0.5897 0.08307 0.0
C240 C 0.15834 0.56202 0.06861 0.0
C241 C 0.18213 0.56463 0.05037 0.0
C242 C 0.19885 0.59646 0.04576 0.0
C243 C 0.19243 0.62486 0.06106 0.0
C244 C 0.1683 0.62089 0.07978 0.0
Zn245 Zn 0.11124 0.57641 0.10658 0.0
C246 C 0.05498 0.62893 0.11317 0.0
N247 N 0.02596 0.53298 0.14668 0.0
C248 C 0.02044 0.4982 0.1427 0.0
C249 C 0.00237 0.55227 0.15917 0.0
C250 C 0.97098 0.53683 0.16693 0.0
C251 C 0.96459 0.50122 0.16217 0.0
C252 C 0.99041 0.48174 0.15069 0.0
Zn253 Zn 0.06673 0.55409 0.12773 0.0
O254 O 0.08322 0.55655 0.07625 0.0
C255 C 0.12439 0.5028 0.12117 0.0
O256 O 0.04096 0.53633 0.09827 0.0
H257 H 0.00677 0.57998 0.16184 0.0
H258 H 0.14458 0.53748 0.07047 0.0
H259 H 0.03771 0.48328 0.13158 0.0
O260 O 0.13723 0.52911 0.11096 0.0
O261 O 0.09427 0.5052 0.13035 0.0
H262 H 0.16242 0.64287 0.09112 0.0
O263 O 0.09184 0.57163 0.15737 0.0
O264 O 0.1375 0.59386 0.13851 0.0
O265 O 0.0415 0.60354 0.12466 0.0
O266 O 0.08455 0.62507 0.10299 0.0
C267 C 0.12133 0.58711 0.15778 0.0
H268 H 0.18667 0.54177 0.03949 0.0
H269 H 0.20487 0.65 0.05809 0.0
H270 H 0.95132 0.5528 0.17551 0.0
H271 H 0.9861 0.45459 0.14587 0.0
C272 C 0.83865 0.62597 0.59194 0.0
N273 N 0.78505 0.7197 0.60804 0.0
C274 C 0.80326 0.74133 0.59338 0.0
C275 C 0.78757 0.7721 0.58489 0.0
C276 C 0.75286 0.78003 0.5914 0.0
C277 C 0.73471 0.75662 0.60593 0.0
C278 C 0.75132 0.72688 0.61417 0.0
Zn279 Zn 0.8055 0.67722 0.62511 0.0
C280 C 0.75344 0.61958 0.62814 0.0
N281 N 0.8407 0.58758 0.66472 0.0
C282 C 0.87279 0.57298 0.66883 0.0
C283 C 0.81249 0.57786 0.67799 0.0
C284 C 0.81542 0.55345 0.69581 0.0
C285 C 0.84811 0.5394 0.70146 0.0
C286 C 0.87711 0.54854 0.6873 0.0
Zn287 Zn 0.82772 0.63 0.6431 0.0
O288 O 0.82298 0.65515 0.59416 0.0
C289 C 0.88075 0.68671 0.63998 0.0
O290 O 0.84543 0.60734 0.61013 0.0
H291 H 0.78741 0.59044 0.67601 0.0
H292 H 0.83018 0.73538 0.58893 0.0
H293 H 0.89523 0.5814 0.65863 0.0
O294 O 0.85523 0.70201 0.62973 0.0
O295 O 0.87673 0.65564 0.64785 0.0
H296 H 0.73743 0.71045 0.6265 0.0
O297 O 0.80799 0.65449 0.67511 0.0
O298 O 0.78835 0.69957 0.65566 0.0
O299 O 0.77997 0.60514 0.63702 0.0
O300 O 0.75582 0.651 0.62115 0.0
C301 C 0.79229 0.68383 0.67493 0.0
H302 H 0.80253 0.78978 0.57386 0.0
H303 H 0.7084 0.76218 0.61208 0.0
H304 H 0.79218 0.54687 0.70588 0.0
H305 H 0.90294 0.53831 0.69114 0.0
C306 C 0.12051 0.07571 0.8494 0.0
N307 N 0.02423 0.02777 0.86425 0.0
C308 C 0.00702 0.04278 0.84586 0.0
C309 C 0.9787 0.02528 0.83535 0.0
C310 C 0.96889 0.99199 0.84371 0.0
C311 C 0.98756 0.97721 0.86239 0.0
C312 C 0.01486 0.99564 0.87252 0.0
Zn313 Zn 0.06473 0.04998 0.8822 0.0
C314 C 0.11927 -0.00249 0.89281 0.0
N315 N 0.1517 0.08922 0.92286 0.0
C316 C 0.17224 0.11855 0.92274 0.0
C317 C 0.15641 0.06419 0.93968 0.0
C318 C 0.18187 0.06745 0.95678 0.0
C319 C 0.20264 0.09758 0.95788 0.0
C320 C 0.19811 0.12333 0.9403 0.0
Zn321 Zn 0.11045 0.07428 0.90072 0.0
O322 O 0.09051 0.06162 0.85136 0.0
C323 C 0.05648 0.12729 0.89056 0.0
O324 O 0.13771 0.08453 0.86782 0.0
H325 H 0.14013 0.0411 0.94031 0.0
H326 H 0.01484 0.06843 0.83965 0.0
H327 H 0.16833 0.13837 0.9094 0.0
O328 O 0.04132 0.1004 0.88189 0.0
O329 O 0.08683 0.12437 0.89982 0.0
H330 H 0.02801 0.9843 0.8875 0.0
O331 O 0.081 0.06239 0.93257 0.0
O332 O 0.03823 0.0387 0.91268 0.0
O333 O 0.13332 0.02498 0.90065 0.0
O334 O 0.0894 -0.00046 0.88324 0.0
C335 C 0.05146 0.04696 0.9322 0.0
H336 H 0.96443 0.03766 0.82115 0.0
H337 H 0.98011 0.9522 0.86993 0.0
H338 H 0.18486 0.04628 0.96931 0.0
H339 H 0.21369 0.14707 0.94043 0.0
C340 C 0.66007 0.37176 0.09408 0.0
N341 N 0.70644 0.27432 0.10828 0.0
C342 C 0.69344 0.24307 0.11586 0.0
C343 C 0.70982 0.21194 0.10965 0.0
C344 C 0.7403 0.21294 0.09589 0.0
C345 C 0.75167 0.24517 0.08675 0.0
C346 C 0.73396 0.27581 0.09303 0.0
Zn347 Zn 0.69104 0.31779 0.12635 0.0
C348 C 0.74547 0.37086 0.13051 0.0
N349 N 0.66009 0.40754 0.16688 0.0
C350 C 0.62957 0.42552 0.17007 0.0
C351 C 0.68866 0.4149 0.18045 0.0
C352 C 0.68762 0.44051 0.19765 0.0
C353 C 0.65641 0.45843 0.20224 0.0
C354 C 0.62713 0.4513 0.18781 0.0
Zn355 Zn 0.66964 0.3646 0.14505 0.0
O356 O 0.67582 0.34259 0.09585 0.0
C357 C 0.61435 0.31254 0.14108 0.0
O358 O 0.65272 0.38946 0.11257 0.0
H359 H 0.71253 0.40001 0.17876 0.0
H360 H 0.67224 0.24225 0.12845 0.0
H361 H 0.60687 0.41914 0.15949 0.0
O362 O 0.63938 0.29764 0.13017 0.0
O363 O 0.61916 0.34266 0.1502 0.0
H364 H 0.74386 0.30088 0.08714 0.0
O365 O 0.68838 0.33755 0.1766 0.0
O366 O 0.70615 0.29251 0.15622 0.0
O367 O 0.7188 0.38598 0.13877 0.0
O368 O 0.74301 0.33932 0.12369 0.0
C369 C 0.70257 0.30741 0.17583 0.0
H370 H 0.70052 0.18765 0.11734 0.0
H371 H 0.77503 0.24682 0.07596 0.0
H372 H 0.71117 0.44547 0.20777 0.0
H373 H 0.60239 0.46445 0.19077 0.0
C374 C 0.37086 0.91287 0.3458 0.0
N375 N 0.4624 0.9685 0.36195 0.0
C376 C 0.48381 0.95111 0.34677 0.0
C377 C 0.51454 0.96715 0.33854 0.0
C378 C 0.52292 0.00132 0.34597 0.0
C379 C 0.49948 0.01891 0.3608 0.0
C380 C 0.4695 0.002 0.36864 0.0
Zn381 Zn 0.42119 0.94563 0.37896 0.0
C382 C 0.3631 0.99473 0.38683 0.0
N383 N 0.33395 0.90314 0.41777 0.0
C384 C 0.31114 0.87646 0.41313 0.0
C385 C 0.3276 0.92567 0.43588 0.0
C386 C 0.29805 0.92233 0.44988 0.0
C387 C 0.27348 0.89594 0.44533 0.0
C388 C 0.28059 0.87222 0.42689 0.0
Zn389 Zn 0.37676 0.91945 0.39771 0.0
O390 O 0.39972 0.92911 0.34789 0.0
C391 C 0.43426 0.86969 0.39088 0.0
O392 O 0.35272 0.90544 0.36409 0.0
H393 H 0.3447 0.94763 0.43917 0.0
H394 H 0.47779 0.92442 0.34179 0.0
H395 H 0.31602 0.85913 0.39844 0.0
O396 O 0.44816 0.89708 0.38198 0.0
O397 O 0.40298 0.87089 0.39881 0.0
H398 H 0.4529 0.01525 0.38118 0.0
O399 O 0.40367 0.9347 0.43016 0.0
O400 O 0.44353 0.96188 0.40954 0.0
O401 O 0.35126 0.9673 0.39632 0.0
O402 O 0.39286 0.99391 0.37691 0.0
C403 C 0.43124 0.95346 0.42929 0.0
H404 H 0.53199 0.95268 0.32709 0.0
H405 H 0.50521 0.04483 0.36756 0.0
H406 H 0.29454 0.9407 0.4642 0.0
H407 H 0.26238 0.85132 0.42276 0.0
C408 C 0.20462 0.30915 0.32909 0.0
N409 N 0.15602 0.40667 0.33649 0.0
C410 C 0.18425 0.41465 0.32275 0.0
C411 C 0.18277 0.44082 0.30596 0.0
C412 C 0.15146 0.45882 0.30195 0.0
C413 C 0.12242 0.45091 0.31644 0.0
C414 C 0.12531 0.42451 0.33379 0.0
Zn415 Zn 0.1679 0.3646 0.35872 0.0
C416 C 0.11526 0.30869 0.36294 0.0
N417 N 0.20928 0.27789 0.3973 0.0
C418 C 0.24336 0.27007 0.39264 0.0
C419 C 0.18929 0.25676 0.41122 0.0
C420 C 0.20327 0.22546 0.42006 0.0
C421 C 0.23815 0.21656 0.41474 0.0
C422 C 0.25841 0.23986 0.40141 0.0
Zn423 Zn 0.19027 0.31939 0.37874 0.0
O424 O 0.18869 0.33831 0.32776 0.0
C425 C 0.24206 0.37624 0.3744 0.0
O426 O 0.2082 0.29485 0.34892 0.0
H427 H 0.16213 0.26328 0.41452 0.0
H428 H 0.20845 0.40024 0.32424 0.0
H429 H 0.25864 0.28603 0.38078 0.0
O430 O 0.21548 0.38954 0.36477 0.0
O431 O 0.23999 0.34544 0.38254 0.0
H432 H 0.10293 0.41786 0.34462 0.0
O433 O 0.17233 0.34303 0.40868 0.0
O434 O 0.1488 0.38895 0.3911 0.0
O435 O 0.14037 0.29501 0.37454 0.0
O436 O 0.11924 0.33868 0.35338 0.0
C437 C 0.15565 0.3717 0.40989 0.0
H438 H 0.20622 0.44639 0.29586 0.0
H439 H 0.0976 0.46414 0.31396 0.0
H440 H 0.18675 0.20786 0.43012 0.0
H441 H 0.28499 0.23357 0.39618 0.0
C442 C 0.93812 0.9503 0.07694 0.0
N443 N 0.84014 0.90465 0.08747 0.0
C444 C 0.83083 0.93254 0.07382 0.0
C445 C 0.80522 0.92972 0.05673 0.0
C446 C 0.78945 0.89737 0.05215 0.0
C447 C 0.79853 0.8687 0.06662 0.0
C448 C 0.82417 0.87296 0.08435 0.0
Zn449 Zn 0.88302 0.9175 0.10881 0.0
C450 C 0.9381 0.86372 0.11367 0.0
N451 N 0.97231 0.95982 0.14429 0.0
C452 C 0.98136 0.99252 0.1369 0.0
C453 C 0.99149 0.94277 0.16092 0.0
C454 C 0.02154 0.95867 0.1704 0.0
C455 C 0.03119 0.99244 0.16282 0.0
C456 C 0.01044 0.00934 0.14602 0.0
Zn457 Zn 0.92997 0.93956 0.12709 0.0
O458 O 0.90779 0.93649 0.0768 0.0
C459 C 0.87407 0.99269 0.12212 0.0
O460 O 0.95406 0.95347 0.09622 0.0
H461 H 0.98397 0.91667 0.16642 0.0
H462 H 0.84427 0.95731 0.07521 0.0
H463 H 0.96666 0.00549 0.12322 0.0
O464 O 0.85895 0.96562 0.11446 0.0
O465 O 0.90558 0.99038 0.12892 0.0
H466 H 0.83213 0.85076 0.0949 0.0
O467 O 0.9066 0.92519 0.15809 0.0
O468 O 0.86006 0.90017 0.14208 0.0
O469 O 0.95281 0.88877 0.12482 0.0
O470 O 0.90823 0.86839 0.10408 0.0
C471 C 0.87797 0.90853 0.16033 0.0
H472 H 0.79872 0.95285 0.04659 0.0
H473 H 0.78706 0.8431 0.06368 0.0
H474 H 0.03723 0.94469 0.18319 0.0
H475 H 0.01751 0.03483 0.13906 0.0
C476 C 0.30571 0.69422 0.8133 0.0
N477 N 0.34187 0.59063 0.82398 0.0
C478 C 0.32378 0.5888 0.80335 0.0
C479 C 0.32503 0.55915 0.78934 0.0
C480 C 0.34456 0.53005 0.79645 0.0
C481 C 0.36435 0.5326 0.81731 0.0
C482 C 0.36237 0.56332 0.83105 0.0
Zn483 Zn 0.32648 0.63326 0.84431 0.0
C484 C 0.38103 0.68385 0.85853 0.0
N485 N 0.28092 0.71895 0.881 0.0
C486 C 0.24973 0.7297 0.87198 0.0
C487 C 0.29523 0.73472 0.90022 0.0
C488 C 0.27794 0.76292 0.9109 0.0
C489 C 0.2456 0.77416 0.90181 0.0
C490 C 0.23156 0.75707 0.88218 0.0
Zn491 Zn 0.30295 0.67824 0.86348 0.0
O492 O 0.32155 0.66495 0.81254 0.0
C493 C 0.24892 0.62727 0.84853 0.0
O494 O 0.29471 0.70537 0.83281 0.0
H495 H 0.3201 0.72571 0.90705 0.0
H496 H 0.30623 0.60946 0.79811 0.0
H497 H 0.23896 0.71745 0.85646 0.0
O498 O 0.27598 0.61376 0.83958 0.0
O499 O 0.25206 0.65483 0.86076 0.0
H500 H 0.37591 0.56466 0.84774 0.0
O501 O 0.31123 0.65238 0.8945 0.0
O502 O 0.32972 0.60406 0.87739 0.0
O503 O 0.35382 0.70012 0.86563 0.0
O504 O 0.37792 0.65355 0.84922 0.0
C505 C 0.32194 0.6211 0.89604 0.0
H506 H 0.30998 0.55883 0.77318 0.0
H507 H 0.37994 0.5107 0.82337 0.0
H508 H 0.28972 0.77591 0.92588 0.0
H509 H 0.20729 0.76564 0.87413 0.0
C510 C 0.5568 0.05301 0.56839 0.0
N511 N 0.65665 0.09754 0.57841 0.0
C512 C 0.65963 0.0771 0.55884 0.0
C513 C 0.68859 0.0793 0.54425 0.0
C514 C 0.716 0.10225 0.54963 0.0
C515 C 0.71235 0.12417 0.56946 0.0
C516 C 0.68229 0.12116 0.58386 0.0
Zn517 Zn 0.61443 0.08149 0.59918 0.0
C518 C 0.56006 0.13331 0.6099 0.0
N519 N 0.52937 0.03256 0.63555 0.0
C520 C 0.52337 -0.00124 0.62899 0.0
C521 C 0.50612 0.05005 0.64942 0.0
C522 C 0.47466 0.03384 0.65622 0.0
C523 C 0.46771 -0.00069 0.64891 0.0
C524 C 0.49304 0.98155 0.63574 0.0
Zn525 Zn 0.57082 0.05588 0.61879 0.0
O526 O 0.58403 0.07219 0.56732 0.0
C527 C 0.62653 0.00518 0.60716 0.0
O528 O 0.54676 0.04182 0.5881 0.0
H529 H 0.51103 0.07706 0.65416 0.0
H530 H 0.64043 0.05724 0.55487 0.0
H531 H 0.5408 0.98552 0.61701 0.0
O532 O 0.63727 0.03233 0.5968 0.0
O533 O 0.59873 0.00681 0.61931 0.0
H534 H 0.68013 0.13669 0.5997 0.0
O535 O 0.59391 0.06975 0.64995 0.0
O536 O 0.64196 0.08901 0.63254 0.0
O537 O 0.54505 0.10558 0.6175 0.0
O538 O 0.5912 0.13159 0.60176 0.0
C539 C 0.62469 0.0822 0.65133 0.0
H540 H 0.68961 0.06247 0.52892 0.0
H541 H 0.7329 0.14246 0.57419 0.0
H542 H 0.4555 0.04847 0.66626 0.0
H543 H 0.48833 0.95538 0.62904 0.0
H544 H 0.31086 0.16492 0.23561 0.0
H545 H 0.20773 0.33356 0.28366 0.0
H546 H 0.28158 0.25356 0.19272 0.0
H547 H 0.23812 0.24621 0.32743 0.0
H548 H 0.23642 0.30515 0.25021 0.0
H549 H 0.28724 0.19548 0.27015 0.0
C550 C 0.29993 0.19092 0.23353 0.0
C551 C 0.29792 0.20659 0.2113 0.0
C552 C 0.2368 0.29223 0.26716 0.0
C553 C 0.27058 0.24142 0.2504 0.0
C554 C 0.22028 0.30839 0.2862 0.0
C555 C 0.2204 0.29221 0.30831 0.0
C556 C 0.25349 0.25968 0.2703 0.0
C557 C 0.23728 0.25965 0.31067 0.0
C558 C 0.28627 0.20828 0.25316 0.0
C559 C 0.28336 0.2403 0.20951 0.0
N560 N 0.2531 0.24447 0.29191 0.0
N561 N 0.27008 0.25644 0.22875 0.0
H562 H 0.49934 0.4713 0.56621 0.0
H563 H 0.48591 0.53433 0.43281 0.0
H564 H 0.40812 0.45281 0.52299 0.0
H565 H 0.5751 0.55498 0.47748 0.0
H566 H 0.45657 0.50539 0.46554 0.0
H567 H 0.52755 0.5009 0.5335 0.0
C568 C 0.4853 0.47319 0.54969 0.0
C569 C 0.4512 0.45966 0.54733 0.0
C570 C 0.48243 0.51643 0.46827 0.0
C571 C 0.48346 0.49408 0.50974 0.0
C572 C 0.4992 0.53313 0.44963 0.0
C573 C 0.53313 0.54697 0.45242 0.0
C574 C 0.4997 0.51338 0.4899 0.0
C575 C 0.54894 0.54479 0.47459 0.0
C576 C 0.50145 0.4903 0.53104 0.0
C577 C 0.43446 0.46273 0.5255 0.0
N578 N 0.53216 0.52802 0.49246 0.0
N579 N 0.45073 0.47986 0.50752 0.0
H580 H 0.23628 0.7494 0.67454 0.0
H581 H 0.28197 0.76129 0.811 0.0
H582 H 0.20824 0.83798 0.71792 0.0
H583 H 0.30847 0.67284 0.76715 0.0
H584 H 0.25889 0.79164 0.77671 0.0
H585 H 0.26538 0.72273 0.70789 0.0
C586 C 0.23611 0.76329 0.69115 0.0
C587 C 0.21958 0.79603 0.69345 0.0
C588 C 0.27001 0.76575 0.7745 0.0
C589 C 0.25332 0.76535 0.73188 0.0
C590 C 0.28332 0.74837 0.79406 0.0
C591 C 0.29694 0.7143 0.79194 0.0
C592 C 0.27014 0.74894 0.75261 0.0
C593 C 0.29822 0.69904 0.76957 0.0
C594 C 0.25292 0.74798 0.7102 0.0
C595 C 0.22045 0.81266 0.71541 0.0
N596 N 0.28465 0.71638 0.75078 0.0
N597 N 0.23704 0.79707 0.73384 0.0
H598 H 0.01004 0.4469 0.94369 0.0
H599 H 0.98972 0.50964 0.07677 0.0
H600 H 0.9139 0.43573 0.98312 0.0
H601 H 0.08003 0.53222 0.03343 0.0
H602 H 0.96325 0.47802 0.04405 0.0
H603 H 0.03829 0.47159 0.97825 0.0
C604 C 0.99499 0.44917 0.95979 0.0
C605 C 0.95946 0.43957 0.96052 0.0
C606 C 0.9888 0.48994 0.04167 0.0
C607 C 0.99159 0.46842 1.00008 0.0
C608 C 0.00393 0.50815 0.0603 0.0
C609 C 0.03713 0.52373 0.05777 0.0
C610 C 0.00704 0.48713 0.02036 0.0
C611 C 0.0543 0.52083 0.03608 0.0
C612 C 0.01112 0.46348 0.97947 0.0
C613 C 0.94135 0.44279 0.98185 0.0
N614 N 0.03906 0.50278 0.01821 0.0
N615 N 0.95755 0.45737 1.00079 0.0
H616 H 0.72252 0.72973 0.81616 0.0
H617 H 0.75862 0.74632 0.67852 0.0
H618 H 0.69081 0.81863 0.77428 0.0
H619 H 0.79102 0.65719 0.71998 0.0
H620 H 0.73185 0.77191 0.71319 0.0
H621 H 0.74483 0.70137 0.78089 0.0
C622 C 0.71997 0.7432 0.79948 0.0
C623 C 0.70494 0.77675 0.79816 0.0
C624 C 0.74478 0.74678 0.71478 0.0
C625 C 0.73077 0.74437 0.75771 0.0
C626 C 0.76023 0.7321 0.69498 0.0
C627 C 0.77727 0.69954 0.69637 0.0
C628 C 0.74631 0.72889 0.73626 0.0
C629 C 0.77832 0.6824 0.71816 0.0
C630 C 0.73281 0.72696 0.77935 0.0
C631 C 0.70219 0.79279 0.77608 0.0
N632 N 0.76304 0.69734 0.7373 0.0
N633 N 0.71524 0.77652 0.75671 0.0
H634 H 0.70959 0.3337 0.22066 0.0
H635 H 0.80153 0.15936 0.27014 0.0
H636 H 0.72846 0.2412 0.17878 0.0
H637 H 0.78299 0.25245 0.31147 0.0
H638 H 0.77692 0.1896 0.23579 0.0
H639 H 0.73716 0.30436 0.25423 0.0
C640 C 0.71928 0.30721 0.21859 0.0
C641 C 0.71673 0.28992 0.19693 0.0
C642 C 0.77847 0.20339 0.25239 0.0
C643 C 0.74855 0.25635 0.23501 0.0
C644 C 0.79272 0.1862 0.2719 0.0
C645 C 0.79409 0.2033 0.29367 0.0
C646 C 0.76563 0.23781 0.25479 0.0
C647 C 0.78216 0.23809 0.29506 0.0
C648 C 0.73519 0.29051 0.23767 0.0
C649 C 0.72993 0.25562 0.19514 0.0
N650 N 0.76829 0.25408 0.27596 0.0
N651 N 0.74528 0.24001 0.2139 0.0
H652 H 0.00272 0.98005 0.0731 0.0
H653 H 0.98547 0.02036 0.93602 0.0
H654 H 0.91117 0.95336 0.03208 0.0
H655 H 0.07579 0.04892 0.97766 0.0
H656 H 0.95713 -0.00251 0.97116 0.0
H657 H 0.02929 0.00604 0.03842 0.0
C658 C 0.98819 0.9795 0.05673 0.0
C659 C 0.95462 0.96438 0.05546 0.0
C660 C 0.98304 0.00892 0.97268 0.0
C661 C 0.98506 0.99445 0.01561 0.0
C662 C -0.00072 0.02207 0.95263 0.0
C663 C 0.03317 0.03645 0.95392 0.0
C664 C 0.00081 0.00998 0.99422 0.0
C665 C 0.04967 0.03809 0.97589 0.0
C666 C 0.00343 0.9945 0.03693 0.0
C667 C 0.93713 0.96459 0.0338 0.0
N668 N 0.03337 0.02477 0.9952 0.0
N669 N 0.9526 0.97943 0.01468 0.0
H670 H 0.40985 0.94971 0.47559 0.0
H671 H 0.57536 0.0603 0.52187 0.0
H672 H 0.49304 0.98861 0.431 0.0
H673 H 0.49382 0.01977 0.56714 0.0
H674 H 0.544 0.03614 0.48792 0.0
H675 H 0.43954 0.9761 0.50956 0.0
C676 C 0.43437 0.96356 0.47298 0.0
C677 C 0.44894 0.96696 0.45048 0.0
C678 C 0.53294 0.0327 0.50531 0.0
C679 C 0.48277 -0.00263 0.48896 0.0
C680 C 0.55076 0.04665 0.52462 0.0
C681 C 0.5373 0.04188 0.54731 0.0
C682 C 0.50153 0.01393 0.50881 0.0
C683 C 0.50533 0.02386 0.54995 0.0
C684 C 0.45123 0.97875 0.49229 0.0
C685 C 0.48072 0.98536 0.44802 0.0
N686 N 0.48864 0.01044 0.53096 0.0
N687 N 0.49648 -0.00013 0.46699 0.0
H688 H 0.27055 0.1243 0.95854 0.0
H689 H 0.29881 0.06125 0.09147 0.0
H690 H 0.19131 0.07888 0.00352 0.0
H691 H 0.35342 0.15136 0.06407 0.0
H692 H 0.27277 0.05175 0.05258 0.0
H693 H 0.31181 0.12296 0.99204 0.0
C694 C 0.26178 0.11418 0.97533 0.0
C695 C 0.22751 0.10113 0.97801 0.0
C696 C 0.29139 0.07293 0.05491 0.0
C697 C 0.27474 0.09814 0.01578 0.0
C698 C 0.30676 0.0779 0.07697 0.0
C699 C 0.32814 0.10715 0.08092 0.0
C700 C 0.2977 0.09727 0.03678 0.0
C701 C 0.33696 0.12849 0.06162 0.0
C702 C 0.28541 0.11299 0.99429 0.0
C703 C 0.21768 0.08823 1.00026 0.0
N704 N 0.3212 0.12356 0.04043 0.0
N705 N 0.24116 0.08676 0.01808 0.0
H706 H 0.59931 0.61051 0.30772 0.0
H707 H 0.68706 0.4491 0.24521 0.0
H708 H 0.68403 0.55119 0.33796 0.0
H709 H 0.62251 0.5224 0.20694 0.0
H710 H 0.68858 0.48912 0.27822 0.0
H711 H 0.61178 0.5843 0.26939 0.0
C712 C 0.62164 0.59316 0.30601 0.0
C713 C 0.64071 0.58297 0.326 0.0
C714 C 0.67437 0.49679 0.26257 0.0
C715 C 0.65401 0.55159 0.2825 0.0
C716 C 0.67346 0.47387 0.24357 0.0
C717 C 0.65504 0.48249 0.22293 0.0
C718 C 0.65609 0.52856 0.26142 0.0
C719 C 0.63693 0.51452 0.22244 0.0
C720 C 0.62841 0.57781 0.28419 0.0
C721 C 0.66893 0.56 0.32296 0.0
N722 N 0.63776 0.53634 0.24146 0.0
N723 N 0.67418 0.5444 0.30173 0.0
H724 H 0.1701 0.93476 0.5716 0.0
H725 H 0.24036 0.83705 0.46277 0.0
H726 H 0.13195 0.83209 0.55305 0.0
H727 H 0.23368 0.94996 0.4628 0.0
H728 H 0.19633 0.83532 0.49409 0.0
H729 H 0.18795 0.94372 0.53056 0.0
C730 C 0.16383 0.91486 0.55868 0.0
C731 C 0.14984 0.88254 0.56573 0.0
C732 C 0.20406 0.86047 0.48692 0.0
C733 C 0.17164 0.89179 0.51919 0.0
C734 C 0.22916 0.86143 0.46895 0.0
C735 C 0.24161 0.89369 0.46054 0.0
C736 C 0.19174 0.89198 0.4968 0.0
C737 C 0.22593 0.92446 0.46934 0.0
C738 C 0.1745 0.91971 0.5353 0.0
C739 C 0.14296 0.85731 0.54831 0.0
N740 N 0.20253 0.92291 0.48735 0.0
N741 N 0.15488 0.86199 0.52603 0.0
H742 H 0.81811 0.55277 0.7439 0.0
H743 H 0.90293 0.39574 0.81333 0.0
H744 H 0.88416 0.47724 0.70895 0.0
H745 H 0.81469 0.45476 0.83897 0.0
H746 H 0.89406 0.42075 0.77418 0.0
H747 H 0.81641 0.51554 0.77842 0.0
C748 C 0.83219 0.52814 0.74343 0.0
C749 C 0.85088 0.51789 0.72325 0.0
C750 C 0.87593 0.42744 0.78813 0.0
C751 C 0.84937 0.475 0.76328 0.0
C752 C 0.88066 0.4128 0.8104 0.0
C753 C 0.85932 0.42309 0.82931 0.0
C754 C 0.85014 0.45314 0.78493 0.0
C755 C 0.83138 0.44581 0.82478 0.0
C756 C 0.83107 0.5068 0.76321 0.0
C757 C 0.86947 0.48619 0.72408 0.0
N758 N 0.82807 0.46071 0.80315 0.0
N759 N 0.86831 0.46585 0.74383 0.0
H760 H 0.72763 0.85946 0.04727 0.0
H761 H 0.69783 0.92912 0.91565 0.0
H762 H 0.79726 0.92854 0.00922 0.0
H763 H 0.64694 0.83669 0.94275 0.0
H764 H 0.7219 0.9405 0.95488 0.0
H765 H 0.68828 0.85894 0.01289 0.0
C766 C 0.73467 0.87447 0.03181 0.0
C767 C 0.76566 0.89442 0.03138 0.0
C768 C 0.7046 0.91827 0.95241 0.0
C769 C 0.72043 0.89475 0.99239 0.0
C770 C 0.69028 0.91224 0.93012 0.0
C771 C 0.67041 0.88199 0.92604 0.0
C772 C 0.69894 0.89382 0.9706 0.0
C773 C 0.66215 0.86039 0.9453 0.0
C774 C 0.71204 0.87449 0.01232 0.0
C775 C 0.77328 0.91351 0.01079 0.0
N776 N 0.67696 0.86632 0.96668 0.0
N777 N 0.75088 0.91328 0.9923 0.0
H778 H 0.28712 0.49953 0.77614 0.0
H779 H 0.40576 0.38654 0.68988 0.0
H780 H 0.39916 0.48749 0.78263 0.0
H781 H 0.30622 0.43094 0.67019 0.0
H782 H 0.39514 0.40371 0.73063 0.0
H783 H 0.28696 0.45635 0.74441 0.0
C784 C 0.31167 0.48735 0.77115 0.0
C785 C 0.34343 0.49794 0.7816 0.0
C786 C 0.37508 0.40871 0.71758 0.0
C787 C 0.34316 0.448 0.74553 0.0
C788 C 0.38089 0.39854 0.69437 0.0
C789 C 0.35691 0.40762 0.67666 0.0
C790 C 0.3451 0.4282 0.72311 0.0
C791 C 0.32527 0.42335 0.68334 0.0
C792 C 0.31145 0.46264 0.75309 0.0
C793 C 0.37417 0.48044 0.77494 0.0
N794 N 0.32059 0.4339 0.70602 0.0
N795 N 0.37336 0.45673 0.75704 0.0
H796 H 0.85403 0.16488 0.43893 0.0
H797 H 0.75026 0.04593 0.53064 0.0
H798 H 0.81169 0.06335 0.42164 0.0
H799 H 0.75309 0.15894 0.53253 0.0
H800 H 0.79129 0.04667 0.4976 0.0
H801 H 0.83712 0.156 0.47993 0.0
C802 C 0.84244 0.14003 0.444 0.0
C803 C 0.83399 0.11487 0.42687 0.0
C804 C 0.78344 0.07123 0.50555 0.0
C805 C 0.8139 0.10495 0.47366 0.0
C806 C 0.75995 0.07095 0.52436 0.0
C807 C 0.74733 0.10255 0.53395 0.0
C808 C 0.79501 0.10331 0.49646 0.0
C809 C 0.76177 0.134 0.52559 0.0
C810 C 0.83247 0.13521 0.46734 0.0
C811 C 0.81883 0.08328 0.43431 0.0
N812 N 0.78447 0.13361 0.50708 0.0
N813 N 0.8086 0.07947 0.45716 0.0
H814 H 0.18187 0.45196 0.25872 0.0
H815 H 0.094 0.61295 0.19826 0.0
H816 H 0.11764 0.52319 0.29896 0.0
H817 H 0.18467 0.5605 0.17015 0.0
H818 H 0.10577 0.58682 0.23672 0.0
H819 H 0.18445 0.49429 0.22711 0.0
C820 C 0.16854 0.47675 0.2611 0.0
C821 C 0.15 0.48412 0.28191 0.0
C822 C 0.1239 0.58203 0.22242 0.0
C823 C 0.15225 0.53294 0.24497 0.0
C824 C 0.11756 0.59746 0.20054 0.0
C825 C 0.13834 0.58871 0.18098 0.0
C826 C 0.15088 0.55731 0.22455 0.0
C827 C 0.16812 0.56807 0.18476 0.0
C828 C 0.17011 0.50104 0.24291 0.0
C829 C 0.13218 0.51627 0.28329 0.0
N830 N 0.1729 0.55219 0.20594 0.0
N831 N 0.13355 0.53945 0.265 0.0
H832 H 0.8615 0.66302 0.55445 0.0
H833 H 0.74902 0.54173 0.46932 0.0
H834 H 0.82195 0.56134 0.57413 0.0
H835 H 0.75713 0.65425 0.46371 0.0
H836 H 0.79317 0.54258 0.50044 0.0
H837 H 0.84295 0.6524 0.51397 0.0
C838 C 0.85036 0.63772 0.54998 0.0
C839 C 0.84293 0.61311 0.56767 0.0
C840 C 0.78573 0.56698 0.49209 0.0
C841 C 0.82069 0.60128 0.52157 0.0
C842 C 0.76036 0.56664 0.47442 0.0
C843 C 0.74845 0.59816 0.46434 0.0
C844 C 0.79975 0.59902 0.49961 0.0
C845 C 0.76515 0.62937 0.47107 0.0
C846 C 0.83935 0.63191 0.52694 0.0
C847 C 0.82825 0.58092 0.561 0.0
N848 N 0.78957 0.62906 0.48853 0.0
N849 N 0.8168 0.57622 0.53852 0.0
H850 H 0.18312 0.04871 0.83515 0.0
H851 H 0.10975 0.02072 0.70429 0.0
H852 H 0.08982 0.0995 0.80961 0.0
H853 H 0.18092 0.95151 0.74068 0.0
H854 H 0.11009 0.05952 0.73895 0.0
H855 H 0.19373 0.02572 0.79555 0.0
C856 C 0.16588 0.05648 0.82094 0.0
C857 C 0.13559 0.07596 0.82557 0.0
C858 C 0.1259 0.03598 0.73909 0.0
C859 C 0.14652 0.04862 0.78059 0.0
C860 C 0.1254 0.01367 0.71945 0.0
C861 C 0.14567 0.98296 0.71934 0.0
C862 C 0.14696 0.02756 0.75862 0.0
C863 C 0.16559 0.97529 0.73954 0.0
C864 C 0.17146 0.04277 0.79844 0.0
C865 C 0.11353 0.08455 0.80663 0.0
N866 N 0.1658 -0.00262 0.75819 0.0
N867 N 0.11902 0.07029 0.78505 0.0
H868 H 0.67698 0.4363 0.07612 0.0
H869 H 0.73403 0.33858 0.96309 0.0
H870 H 0.63472 0.33548 0.05711 0.0
H871 H 0.74299 0.45088 0.9693 0.0
H872 H 0.68991 0.33905 0.9944 0.0
H873 H 0.69265 0.44619 0.03481 0.0
C874 C 0.6694 0.41705 0.06307 0.0
C875 C 0.65486 0.38494 0.06998 0.0
C876 C 0.70095 0.36372 0.98857 0.0
C877 C 0.67405 0.39517 0.02305 0.0
C878 C 0.72605 0.36341 0.97058 0.0
C879 C 0.74292 0.39457 0.96403 0.0
C880 C 0.69311 0.39535 1.00023 0.0
C881 C 0.73144 0.42606 0.97437 0.0
C882 C 0.67879 0.42241 0.03951 0.0
C883 C 0.64621 0.3605 0.05243 0.0
N884 N 0.70795 0.42557 0.99233 0.0
N885 N 0.6568 0.36566 0.0299 0.0
H886 H 0.2937 0.9899 0.21795 0.0
H887 H 0.40902 0.88547 0.31049 0.0
H888 H 0.40662 0.98412 0.21696 0.0
H889 H 0.30732 0.92878 0.32586 0.0
H890 H 0.40062 0.89923 0.26893 0.0
H891 H 0.29243 0.94666 0.24968 0.0
C892 C 0.31824 0.97887 0.22404 0.0
C893 C 0.35044 0.99136 0.21528 0.0
C894 C 0.37961 0.90461 0.28123 0.0
C895 C 0.34898 0.94156 0.25135 0.0
C896 C 0.38416 0.8964 0.3049 0.0
C897 C 0.35891 0.90633 0.32159 0.0
C898 C 0.34959 0.92293 0.27422 0.0
C899 C 0.32734 0.92063 0.31352 0.0
C900 C 0.31741 0.9542 0.24212 0.0
C901 C 0.38129 0.97553 0.22337 0.0
N902 N 0.32386 0.9293 0.29039 0.0
N903 N 0.37984 0.95186 0.24128 0.0
H904 H 0.2356 0.33684 0.53743 0.0
H905 H 0.1725 0.43618 0.42778 0.0
H906 H 0.23552 0.44991 0.53625 0.0
H907 H 0.1288 0.33587 0.4466 0.0
H908 H 0.18923 0.44516 0.46899 0.0
H909 H 0.19117 0.33698 0.50634 0.0
C910 C 0.22568 0.36167 0.53107 0.0
C911 C 0.24012 0.39334 0.53902 0.0
C912 C 0.17476 0.42175 0.46428 0.0
C913 C 0.18987 0.39376 0.50307 0.0
C914 C 0.1647 0.41694 0.44079 0.0
C915 C 0.14951 0.38516 0.43382 0.0
C916 C 0.17008 0.39428 0.48056 0.0
C917 C 0.14071 0.36068 0.45133 0.0
C918 C 0.20037 0.36179 0.51324 0.0
C919 C 0.2261 0.42478 0.53006 0.0
N920 N 0.1521 0.3652 0.47374 0.0
N921 N 0.20249 0.42421 0.51218 0.0
H922 H 0.9165 0.88424 0.19647 0.0
H923 H 0.79576 0.98422 0.28863 0.0
H924 H 0.81375 0.92374 0.17969 0.0
H925 H 0.90884 0.98835 0.28795 0.0
H926 H 0.79732 0.94168 0.25651 0.0
H927 H 0.90737 0.90028 0.23761 0.0
C928 C 0.89128 0.89478 0.2017 0.0
C929 C 0.86589 0.90293 0.18467 0.0
C930 C 0.82176 0.95135 0.26376 0.0
C931 C 0.85568 0.92203 0.23157 0.0
C932 C 0.821 0.97571 0.28203 0.0
C933 C 0.85227 0.9908 0.29053 0.0
C934 C 0.85402 0.94134 0.25417 0.0
C935 C 0.88412 0.97779 0.28184 0.0
C936 C 0.88633 0.90433 0.22511 0.0
C937 C 0.83387 0.91686 0.19229 0.0
N938 N 0.88417 0.95417 0.26387 0.0
N939 N 0.82992 0.92671 0.21519 0.0
H940 H 0.18384 0.57084 0.00228 0.0
H941 H 0.34968 0.64533 0.93668 0.0
H942 H 0.26423 0.62737 0.03992 0.0
H943 H 0.28417 0.5635 0.90852 0.0
H944 H 0.32329 0.63627 0.97544 0.0
H945 H 0.22191 0.56779 0.96817 0.0
C946 C 0.20967 0.58259 0.00341 0.0
C947 C 0.221 0.59897 0.02422 0.0
C948 C 0.31547 0.61946 0.96101 0.0
C949 C 0.26496 0.59583 0.98471 0.0
C950 C 0.33093 0.62422 0.93897 0.0
C951 C 0.31919 0.60493 0.91945 0.0
C952 C 0.28757 0.59575 0.96337 0.0
C953 C 0.29428 0.57856 0.92318 0.0
C954 C 0.2315 0.58066 0.98388 0.0
C955 C 0.25438 0.61456 0.02427 0.0
N956 N 0.27866 0.57531 0.94459 0.0
N957 N 0.27521 0.61269 0.00477 0.0
H958 H 0.59929 0.10881 0.69219 0.0
H959 H 0.65753 0.93478 0.74799 0.0
H960 H 0.68401 0.04771 0.66359 0.0
H961 H 0.62745 0.01809 0.79515 0.0
H962 H 0.66246 0.9769 0.71622 0.0
H963 H 0.60793 0.08037 0.73041 0.0
C964 C 0.62101 0.0908 0.69433 0.0
C965 C 0.641 0.08052 0.67473 0.0
C966 C 0.65506 0.98614 0.73353 0.0
C967 C 0.64965 0.04671 0.71786 0.0
C968 C 0.65196 0.96206 0.75171 0.0
C969 C 0.64278 0.97296 0.7745 0.0
C970 C 0.64795 0.02157 0.73772 0.0
C971 C 0.63467 0.00854 0.7779 0.0
C972 C 0.62555 0.07424 0.71605 0.0
C973 C 0.66824 0.05657 0.67827 0.0
N974 N 0.63728 0.03168 0.75963 0.0
N975 N 0.67104 0.03961 0.69922 0.0
H976 H 0.4506 0.15609 0.15032 0.0
H977 H 0.55002 0.34049 0.15213 0.0
H978 H 0.39663 0.25445 0.14085 0.0
H979 H 0.60104 0.2431 0.1344 0.0
H980 H 0.4937 0.30926 0.15383 0.0
H981 H 0.50654 0.18764 0.15013 0.0
C982 C 0.45051 0.1843 0.14821 0.0
C983 C 0.41893 0.20264 0.14548 0.0
C984 C 0.5173 0.29483 0.14958 0.0
C985 C 0.48273 0.23889 0.14554 0.0
C986 C 0.5494 0.31257 0.14872 0.0
C987 C 0.5802 0.29439 0.14301 0.0
C988 C 0.51619 0.25863 0.1451 0.0
C989 C 0.57791 0.25822 0.1387 0.0
C990 C 0.48242 0.20227 0.14806 0.0
C991 C 0.42038 0.23923 0.14284 0.0
N992 N 0.54651 0.24152 0.13992 0.0
N993 N 0.45176 0.25619 0.14304 0.0
H994 H 0.49356 0.65278 0.3852 0.0
H995 H 0.50492 0.86062 0.38463 0.0
H996 H 0.59113 0.70693 0.39827 0.0
H997 H 0.40953 0.80357 0.39933 0.0
H998 H 0.53749 0.8053 0.38558 0.0
H999 H 0.46288 0.70858 0.386 0.0
C1000 C 0.50862 0.67647 0.38817 0.0
C1001 C 0.54505 0.67519 0.39162 0.0
C1002 C 0.50947 0.80502 0.3887 0.0
C1003 C 0.50985 0.73937 0.3925 0.0
C1004 C 0.49083 0.83649 0.38806 0.0
C1005 C 0.45441 0.83667 0.39185 0.0
C1006 C 0.49146 0.77351 0.39277 0.0
C1007 C 0.43755 0.80468 0.39633 0.0
C1008 C 0.49098 0.70832 0.38875 0.0
C1009 C 0.56304 0.70677 0.39556 0.0
N1010 N 0.45617 0.77437 0.39649 0.0
N1011 N 0.54525 0.73771 0.39573 0.0
H1012 H 0.94488 0.65757 0.64946 0.0
H1013 H 0.04962 0.83922 0.64897 0.0
H1014 H 0.89501 0.75674 0.63507 0.0
H1015 H 0.09915 0.73999 0.63426 0.0
H1016 H 0.99273 0.80932 0.65087 0.0
H1017 H 0.00176 0.68751 0.65088 0.0
C1018 C 0.94584 0.68566 0.64677 0.0
C1019 C 0.91513 0.70466 0.64205 0.0
C1020 C 0.0161 0.79413 0.64731 0.0
C1021 C 0.98008 0.73904 0.64383 0.0
C1022 C 0.04859 0.81112 0.64632 0.0
C1023 C 0.0792 0.7921 0.64136 0.0
C1024 C 0.01425 0.75777 0.64369 0.0
C1025 C 0.07622 0.75574 0.638 0.0
C1026 C 0.97832 0.70268 0.64748 0.0
C1027 C 0.91801 0.74102 0.63864 0.0
N1028 N 0.04437 0.73974 0.6393 0.0
N1029 N 0.94988 0.75704 0.63967 0.0
H1030 H 0.90278 0.29396 0.89569 0.0
H1031 H 0.08508 0.19227 0.89781 0.0
H1032 H 0.00228 0.34523 0.88392 0.0
H1033 H 0.98707 0.14044 0.88229 0.0
H1034 H 0.05464 0.24869 0.8971 0.0
H1035 H 0.93275 0.23716 0.89486 0.0
C1036 C 0.93086 0.29327 0.89285 0.0
C1037 C 0.95005 0.32437 0.88984 0.0
C1038 C 0.03986 0.22494 0.89378 0.0
C1039 C 0.98443 0.25968 0.8892 0.0
C1040 C 0.05717 0.19275 0.89427 0.0
C1041 C 0.03859 0.16162 0.89007 0.0
C1042 C 0.00362 0.22598 0.88942 0.0
C1043 C 0.00245 0.16381 0.88552 0.0
C1044 C 0.94791 0.26089 0.89234 0.0
C1045 C 0.9864 0.32193 0.88622 0.0
N1046 N 0.98608 0.19543 0.88547 0.0
N1047 N 0.00244 0.29018 0.88619 0.0
H1048 H 0.60296 0.73213 0.8703 0.0
H1049 H 0.39496 0.75272 0.86752 0.0
H1050 H 0.55115 0.83043 0.85624 0.0
H1051 H 0.44623 0.65402 0.85377 0.0
H1052 H 0.45225 0.78123 0.86942 0.0
H1053 H 0.54577 0.70273 0.87015 0.0
C1054 C 0.57956 0.74756 0.86731 0.0
C1055 C 0.58181 0.78379 0.86323 0.0
C1056 C 0.45095 0.75333 0.866 0.0
C1057 C 0.51647 0.75036 0.86321 0.0
C1058 C 0.41828 0.73697 0.86502 0.0
C1059 C 0.41579 0.70091 0.86042 0.0
C1060 C 0.48147 0.73346 0.8627 0.0
C1061 C 0.44694 0.6819 0.85725 0.0
C1062 C 0.547 0.73073 0.86712 0.0
C1063 C 0.55065 0.80244 0.85936 0.0
N1064 N 0.47855 0.6984 0.85854 0.0
N1065 N 0.51926 0.78554 0.85954 0.0
H1066 H 0.50324 0.35296 0.61551 0.0
H1067 H 0.48977 0.1443 0.61637 0.0
H1068 H 0.40639 0.2977 0.60222 0.0
H1069 H 0.58697 0.1994 0.60389 0.0
H1070 H 0.45869 0.20037 0.61595 0.0
H1071 H 0.5343 0.29691 0.6159 0.0
C1072 C 0.48848 0.32904 0.6127 0.0
C1073 C 0.45213 0.33004 0.60879 0.0
C1074 C 0.48681 0.20015 0.61328 0.0
C1075 C 0.48755 0.2658 0.60943 0.0
C1076 C 0.50461 0.16819 0.61362 0.0
C1077 C 0.54106 0.16714 0.61014 0.0
C1078 C 0.50562 0.23138 0.60978 0.0
C1079 C 0.55887 0.19895 0.60658 0.0
C1080 C 0.50627 0.29709 0.61285 0.0
C1081 C 0.43443 0.29819 0.6052 0.0
N1082 N 0.541 0.22978 0.60661 0.0
N1083 N 0.45227 0.26735 0.60574 0.0
H1084 H 0.06954 0.30649 0.3258 0.0
H1085 H 0.91064 0.22465 0.39331 0.0
H1086 H 0.08413 0.26874 0.39661 0.0
H1087 H 0.9355 0.18408 0.32453 0.0
H1088 H 0.96785 0.25439 0.39419 0.0
H1089 H 0.01329 0.27458 0.32401 0.0
C1090 C 0.06081 0.29162 0.34095 0.0
C1091 C 0.08139 0.29008 0.36137 0.0
C1092 C 0.96065 0.23895 0.37895 0.0
C1093 C 0.01731 0.25462 0.3596 0.0
C1094 C 0.92815 0.22212 0.37839 0.0
C1095 C 0.91859 0.20182 0.35886 0.0
C1096 C 0.98315 0.2364 0.35952 0.0
C1097 C 0.94215 0.1993 0.33997 0.0
C1098 C 0.02899 0.27338 0.33986 0.0
C1099 C 0.06907 0.27037 0.38051 0.0
N1100 N 0.97328 0.21683 0.34061 0.0
N1101 N 0.03756 0.25378 0.3793 0.0
H1102 H 0.01584 0.65834 0.14791 0.0
H1103 H 0.93744 0.81646 0.07744 0.0
H1104 H 0.05334 0.67723 0.07746 0.0
H1105 H 0.9776 0.83243 0.14751 0.0
H1106 H 0.96652 0.75881 0.07643 0.0
H1107 H 0.98756 0.7161 0.14761 0.0
C1108 C 0.01785 0.67454 0.13232 0.0
C1109 C 0.03697 0.66315 0.11269 0.0
C1110 C 0.96888 0.7751 0.09195 0.0
C1111 C 0.00418 0.72855 0.11211 0.0
C1112 C 0.95226 0.80775 0.09259 0.0
C1113 C 0.9553 0.82913 0.11256 0.0
C1114 C 0.98752 0.76344 0.11171 0.0
C1115 C 0.97486 0.81677 0.13173 0.0
C1116 C 0.0019 0.70743 0.13223 0.0
C1117 C 0.03896 0.68523 0.09297 0.0
N1118 N 0.98986 0.7845 0.13097 0.0
N1119 N 0.02239 0.71683 0.09306 0.0
H1120 H 0.28099 0.34182 0.1064 0.0
H1121 H 0.09794 0.43645 0.12611 0.0
H1122 H 0.18143 0.28958 0.09743 0.0
H1123 H 0.19366 0.49342 0.11223 0.0
H1124 H 0.12911 0.38156 0.1183 0.0
H1125 H 0.25028 0.39791 0.10872 0.0
C1126 C 0.25277 0.34228 0.10422 0.0
C1127 C 0.23363 0.31107 0.10203 0.0
C1128 C 0.14323 0.40613 0.11699 0.0
C1129 C 0.19838 0.37468 0.10554 0.0
C1130 C 0.12559 0.43732 0.12177 0.0
C1131 C 0.14331 0.46936 0.11985 0.0
C1132 C 0.17882 0.40715 0.11054 0.0
C1133 C 0.17904 0.46919 0.11386 0.0
C1134 C 0.23522 0.37421 0.10586 0.0
C1135 C 0.19706 0.31308 0.09957 0.0
N1136 N 0.19566 0.43853 0.10945 0.0
N1137 N 0.18052 0.34431 0.10182 0.0
H1138 H 0.25017 0.44555 0.36601 0.0
H1139 H 0.4591 0.44054 0.35989 0.0
H1140 H 0.30942 0.35135 0.37951 0.0
H1141 H 0.39592 0.53016 0.34154 0.0
H1142 H 0.40551 0.40626 0.36594 0.0
H1143 H 0.30427 0.47661 0.35784 0.0
C1144 C 0.27471 0.43146 0.36752 0.0
C1145 C 0.27533 0.39577 0.3734 0.0
C1146 C 0.40342 0.43329 0.36031 0.0
C1147 C 0.33765 0.43123 0.36366 0.0
C1148 C 0.43395 0.45273 0.35656 0.0
C1149 C 0.43182 0.48825 0.35029 0.0
C1150 C 0.37069 0.44963 0.35782 0.0
C1151 C 0.39865 0.50294 0.34659 0.0
C1152 C 0.30565 0.4492 0.36267 0.0
C1153 C 0.30788 0.37892 0.37516 0.0
N1154 N 0.3694 0.48364 0.35061 0.0
N1155 N 0.33789 0.39682 0.37016 0.0
H1156 H 0.207 0.65087 0.59513 0.0
H1157 H 0.39054 0.55811 0.61141 0.0
H1158 H 0.30447 0.69985 0.5747 0.0
H1159 H 0.29542 0.49871 0.60077 0.0
H1160 H 0.35833 0.61184 0.60174 0.0
H1161 H 0.23766 0.59484 0.59863 0.0
C1162 C 0.23459 0.64964 0.59069 0.0
C1163 C 0.25335 0.68011 0.58497 0.0
C1164 C 0.3446 0.58697 0.60154 0.0
C1165 C 0.28868 0.61669 0.58985 0.0
C1166 C 0.36283 0.55649 0.60736 0.0
C1167 C 0.34554 0.5241 0.60693 0.0
C1168 C 0.30885 0.58492 0.59564 0.0
C1169 C 0.30969 0.52325 0.60127 0.0
C1170 C 0.25216 0.61778 0.59298 0.0
C1171 C 0.2892 0.67706 0.57965 0.0
N1172 N 0.29246 0.55326 0.59594 0.0
N1173 N 0.30589 0.64606 0.5827 0.0
H1174 H 0.08922 0.47115 0.83683 0.0
H1175 H 0.18361 0.65232 0.8597 0.0
H1176 H 0.03266 0.56775 0.84732 0.0
H1177 H 0.23636 0.56389 0.82822 0.0
H1178 H 0.12752 0.6222 0.85405 0.0
H1179 H 0.14302 0.505 0.83086 0.0
C1180 C 0.08797 0.4995 0.83725 0.0
C1181 C 0.0567 0.5167 0.84303 0.0
C1182 C 0.15138 0.60958 0.84817 0.0
C1183 C 0.11801 0.55542 0.8369 0.0
C1184 C 0.18336 0.62666 0.85155 0.0
C1185 C 0.21464 0.61042 0.84467 0.0
C1186 C 0.15085 0.57591 0.83812 0.0
C1187 C 0.21285 0.57728 0.83396 0.0
C1188 C 0.1187 0.51882 0.83404 0.0
C1189 C 0.05651 0.55349 0.84348 0.0
N1190 N 0.18152 0.56096 0.83125 0.0
N1191 N 0.08686 0.57163 0.84093 0.0
H1192 H 0.72398 0.65124 0.91995 0.0
H1193 H 0.90497 0.55737 0.89695 0.0
H1194 H 0.82228 0.70733 0.91798 0.0
H1195 H 0.81264 0.50208 0.92084 0.0
H1196 H 0.87561 0.61293 0.90579 0.0
H1197 H 0.7563 0.59629 0.92344 0.0
C1198 C 0.75233 0.65208 0.92099 0.0
C1199 C 0.77053 0.68372 0.91819 0.0
C1200 C 0.86198 0.58857 0.90929 0.0
C1201 C 0.80764 0.6211 0.92134 0.0
C1202 C 0.87861 0.55694 0.90404 0.0
C1203 C 0.86109 0.52515 0.9079 0.0
C1204 C 0.82753 0.58826 0.91817 0.0
C1205 C 0.82707 0.52601 0.91739 0.0
C1206 C 0.77082 0.62068 0.92272 0.0
C1207 C 0.80731 0.68329 0.91951 0.0
N1208 N 0.8113 0.55704 0.92198 0.0
N1209 N 0.82472 0.65238 0.92046 0.0
H1210 H 0.7437 0.54922 0.63027 0.0
H1211 H 0.5403 0.56472 0.66091 0.0
H1212 H 0.68709 0.64705 0.62911 0.0
H1213 H 0.58966 0.46709 0.64184 0.0
H1214 H 0.59631 0.59481 0.65533 0.0
H1215 H 0.68905 0.5183 0.63854 0.0
C1216 C 0.7196 0.56413 0.63142 0.0
C1217 C 0.7198 0.60073 0.62893 0.0
C1218 C 0.59495 0.56675 0.65261 0.0
C1219 C 0.65741 0.56559 0.63898 0.0
C1220 C 0.56312 0.54953 0.65598 0.0
C1221 C 0.56029 0.51343 0.65157 0.0
C1222 C 0.62419 0.54768 0.64495 0.0
C1223 C 0.59071 0.4949 0.64553 0.0
C1224 C 0.68849 0.54648 0.63628 0.0
C1225 C 0.68795 0.61879 0.63069 0.0
N1226 N 0.62139 0.51232 0.64216 0.0
N1227 N 0.65798 0.60102 0.63583 0.0
H1228 H 0.72741 0.32264 0.35263 0.0
H1229 H 0.65971 0.48457 0.42686 0.0
H1230 H 0.74145 0.32725 0.42785 0.0
H1231 H 0.61368 0.45305 0.36082 0.0
H1232 H 0.69498 0.43115 0.42692 0.0
H1233 H 0.69271 0.37604 0.35429 0.0
C1234 C 0.72328 0.33511 0.36952 0.0
C1235 C 0.73667 0.32027 0.39023 0.0
C1236 C 0.67694 0.43581 0.41255 0.0
C1237 C 0.69712 0.38141 0.39219 0.0
C1238 C 0.65682 0.46619 0.41247 0.0
C1239 C 0.63388 0.47315 0.39372 0.0
C1240 C 0.67451 0.41262 0.39356 0.0
C1241 C 0.63098 0.44854 0.3756 0.0
C1242 C 0.70336 0.36544 0.37044 0.0
C1243 C 0.7314 0.33788 0.41154 0.0
N1244 N 0.65143 0.41945 0.37584 0.0
N1245 N 0.71175 0.36762 0.41202 0.0
H1246 H 0.75546 0.44034 0.12487 0.0
H1247 H 0.94803 0.43643 0.17956 0.0
H1248 H 0.81048 0.34466 0.14099 0.0
H1249 H 0.9019 0.52871 0.14862 0.0
H1250 H 0.89431 0.40379 0.17091 0.0
H1251 H 0.80703 0.47395 0.13641 0.0
C1252 C 0.77881 0.42641 0.13037 0.0
C1253 C 0.77896 0.38973 0.13185 0.0
C1254 C 0.89576 0.43131 0.16633 0.0
C1255 C 0.83761 0.42804 0.14584 0.0
C1256 C 0.92617 0.45004 0.17155 0.0
C1257 C 0.92947 0.48521 0.16458 0.0
C1258 C 0.86845 0.44796 0.15421 0.0
C1259 C 0.9004 0.5017 0.15438 0.0
C1260 C 0.80808 0.44562 0.13718 0.0
C1261 C 0.80961 0.37291 0.13929 0.0
N1262 N 0.87123 0.48278 0.14921 0.0
N1263 N 0.83773 0.39228 0.14628 0.0
H1264 H 0.68532 0.79202 0.57754 0.0
H1265 H 0.69516 -0.00145 0.59553 0.0
H1266 H 0.78208 0.84551 0.5939 0.0
H1267 H 0.6024 0.93757 0.61065 0.0
H1268 H 0.72695 0.94457 0.58683 0.0
H1269 H 0.65424 0.84789 0.57989 0.0
C1270 C 0.70013 0.81566 0.58114 0.0
C1271 C 0.73623 0.81409 0.58597 0.0
C1272 C 0.69968 0.94303 0.59209 0.0
C1273 C 0.70087 0.87781 0.58865 0.0
C1274 C 0.68153 0.97372 0.59712 0.0
C1275 C 0.64616 0.97238 0.60395 0.0
C1276 C 0.68217 0.91083 0.59349 0.0
C1277 C 0.62975 0.93963 0.60568 0.0
C1278 C 0.68235 0.8474 0.58264 0.0
C1279 C 0.75427 0.84554 0.59008 0.0
N1280 N 0.64788 0.91003 0.60032 0.0
N1281 N 0.7363 0.87618 0.5916 0.0
H1282 H 0.75356 0.93225 0.84474 0.0
H1283 H 0.96141 0.92284 0.83249 0.0
H1284 H 0.81388 0.8391 0.85952 0.0
H1285 H 0.90352 0.01952 0.838 0.0
H1286 H 0.90611 0.89031 0.83256 0.0
H1287 H 0.80724 0.96289 0.83426 0.0
C1288 C 0.7782 0.91823 0.8459 0.0
C1289 C 0.77935 0.88309 0.85322 0.0
C1290 C 0.90551 0.91867 0.8333 0.0
C1291 C 0.84087 0.91809 0.84087 0.0
C1292 C 0.93695 0.93724 0.83304 0.0
C1293 C 0.9369 0.97383 0.83568 0.0
C1294 C 0.87393 0.93692 0.83607 0.0
C1295 C 0.90467 0.99133 0.836 0.0
C1296 C 0.80879 0.93577 0.83978 0.0
C1297 C 0.81194 0.86629 0.85425 0.0
N1298 N 0.87438 0.97262 0.83662 0.0
N1299 N 0.84155 0.88401 0.84811 0.0
H1300 H 0.90142 0.05945 0.12543 0.0
H1301 H 0.71985 0.14625 0.08533 0.0
H1302 H 0.805 0.00273 0.11336 0.0
H1303 H 0.81053 0.20767 0.10441 0.0
H1304 H 0.75372 0.09294 0.09167 0.0
H1305 H 0.87067 0.11426 0.11599 0.0
C1306 C 0.87375 0.05859 0.12116 0.0
C1307 C 0.85574 0.02654 0.12016 0.0
C1308 C 0.76642 0.11805 0.09426 0.0
C1309 C 0.82084 0.08858 0.10886 0.0
C1310 C 0.74713 0.14843 0.09046 0.0
C1311 C 0.76241 0.18128 0.09445 0.0
C1312 C 0.8012 0.12051 0.10228 0.0
C1313 C 0.79789 0.18277 0.10098 0.0
C1314 C 0.85633 0.08975 0.11555 0.0
C1315 C 0.82001 0.0268 0.11428 0.0
N1316 N 0.81605 0.15273 0.10497 0.0
N1317 N 0.80385 0.05725 0.10876 0.0
H1318 H 0.58742 0.96982 0.34589 0.0
H1319 H 0.68776 0.1503 0.3621 0.0
H1320 H 0.53727 0.07005 0.33564 0.0
H1321 H 0.74157 0.05358 0.34645 0.0
H1322 H 0.63171 0.12068 0.35487 0.0
H1323 H 0.64428 -0.00067 0.34662 0.0
C1324 C 0.58838 -0.00209 0.3432 0.0
C1325 C 0.55748 0.01755 0.34103 0.0
C1326 C 0.65585 0.10604 0.35297 0.0
C1327 C 0.62228 0.05152 0.34268 0.0
C1328 C 0.68774 0.12282 0.35733 0.0
C1329 C 0.71926 0.10431 0.35496 0.0
C1330 C 0.65558 0.07048 0.34651 0.0
C1331 C 0.71783 0.06882 0.34849 0.0
C1332 C 0.62083 0.01478 0.34389 0.0
C1333 C 0.56039 0.05397 0.33791 0.0
N1334 N 0.6865 0.053 0.34462 0.0
N1335 N 0.59217 0.06987 0.33923 0.0
H1336 H 0.20598 0.15357 0.40738 0.0
H1337 H 0.38902 0.06154 0.38815 0.0
H1338 H 0.30348 0.19937 0.43069 0.0
H1339 H 0.29321 0.00183 0.39426 0.0
H1340 H 0.35692 0.11416 0.40029 0.0
H1341 H 0.23602 0.09763 0.40183 0.0
C1342 C 0.23341 0.15155 0.41212 0.0
C1343 C 0.25245 0.18122 0.41914 0.0
C1344 C 0.34299 0.08949 0.39891 0.0
C1345 C 0.28711 0.11804 0.41186 0.0
C1346 C 0.36114 0.0597 0.39162 0.0
C1347 C 0.34363 0.02751 0.39013 0.0
C1348 C 0.30711 0.08697 0.40438 0.0
C1349 C 0.30761 0.02628 0.3952 0.0
C1350 C 0.25065 0.11978 0.40862 0.0
C1351 C 0.28806 0.17721 0.42479 0.0
N1352 N 0.29046 0.05564 0.40204 0.0
N1353 N 0.30448 0.14639 0.4205 0.0
H1354 H 0.09634 0.96283 0.16535 0.0
H1355 H 0.18814 0.14629 0.14634 0.0
H1356 H 0.04184 0.06076 0.17515 0.0
H1357 H 0.24665 0.05354 0.16495 0.0
H1358 H 0.13362 0.11461 0.15509 0.0
H1359 H 0.15206 0.99471 0.16559 0.0
C1360 C 0.09617 0.99088 0.16828 0.0
C1361 C 0.06449 0.0093 0.16985 0.0
C1362 C 0.15847 0.10135 0.15736 0.0
C1363 C 0.12772 0.04591 0.16925 0.0
C1364 C 0.18946 0.11927 0.15212 0.0
C1365 C 0.22181 0.10245 0.15483 0.0
C1366 C 0.16001 0.06631 0.16499 0.0
C1367 C 0.22219 0.06749 0.16261 0.0
C1368 C 0.12791 0.00912 0.16814 0.0
C1369 C 0.06574 0.04571 0.17339 0.0
N1370 N 0.19173 0.05049 0.16726 0.0
N1371 N 0.09681 0.06296 0.17247 0.0
H1372 H 0.09222 0.93113 0.88836 0.0
H1373 H 0.27446 0.83813 0.91106 0.0
H1374 H 0.18655 0.98756 0.90682 0.0
H1375 H 0.1759 0.78247 0.911 0.0
H1376 H 0.24245 0.89343 0.91292 0.0
H1377 H 0.12223 0.87608 0.89758 0.0
C1378 C 0.11925 0.93189 0.89419 0.0
C1379 C 0.13703 0.96382 0.89662 0.0
C1380 C 0.2278 0.8691 0.91299 0.0
C1381 C 0.17123 0.90138 0.90751 0.0
C1382 C 0.24611 0.83754 0.91223 0.0
C1383 C 0.22771 0.80588 0.91043 0.0
C1384 C 0.19098 0.86875 0.91166 0.0
C1385 C 0.19096 0.80652 0.91186 0.0
C1386 C 0.13623 0.90059 0.89973 0.0
C1387 C 0.1719 0.96346 0.90457 0.0
N1388 N 0.17372 0.83755 0.91186 0.0
N1389 N 0.18791 0.93272 0.9096 0.0
H1390 H 0.25047 0.94701 0.62633 0.0
H1391 H 0.45227 0.93178 0.66131 0.0
H1392 H 0.3069 0.84909 0.62723 0.0
H1393 H 0.40383 0.02926 0.64089 0.0
H1394 H 0.39656 0.90163 0.65465 0.0
H1395 H 0.30482 0.97804 0.63526 0.0
C1396 C 0.27451 0.93211 0.62802 0.0
C1397 C 0.27434 0.89547 0.62597 0.0
C1398 C 0.39805 0.92967 0.65187 0.0
C1399 C 0.33632 0.9307 0.63683 0.0
C1400 C 0.42967 0.94694 0.65589 0.0
C1401 C 0.43271 0.983 0.65141 0.0
C1402 C 0.36921 0.94867 0.64348 0.0
C1403 C 0.4026 0.00148 0.64467 0.0
C1404 C 0.30543 0.94982 0.63327 0.0
C1405 C 0.30607 0.8774 0.62843 0.0
N1406 N 0.37212 0.98401 0.64066 0.0
N1407 N 0.33583 0.89522 0.63399 0.0
loop_
_geom_bond_atom_site_label_1
_geom_bond_atom_site_label_2
_geom_bond_distance
_geom_bond_site_symmetry_2
_ccdc_geom_bond_type
C0 O16 1.251 . S
C0 O18 1.254 . S
N1 C2 1.333 . S
N1 C6 1.307 . S
N1 Zn7 2.020 . S
C2 N1 1.333 . S
C2 C3 1.379 . S
C2 H20 0.952 . S
C3 C2 1.379 . S
C3 C4 1.390 . S
C3 H30 0.949 . S
C4 C3 1.390 . S
C4 C5 1.357 . S
C5 C4 1.357 . S
C5 C6 1.370 . S
C5 H31 0.950 . S
C6 N1 1.307 . S
C6 C5 1.370 . S
C6 H24 0.948 . S
Zn7 N1 2.020 . S
Zn7 O16 2.039 . S
Zn7 O22 2.034 . S
Zn7 O26 2.025 . S
Zn7 O28 2.024 . S
C8 O27 1.246 . S
C8 O28 1.249 . S
N9 C10 1.307 . S
N9 C11 1.333 . S
N9 Zn15 2.020 . S
C10 N9 1.307 . S
C10 C14 1.370 . S
C10 H21 0.948 . S
C11 N9 1.333 . S
C11 C12 1.379 . S
C11 H19 0.952 . S
C12 C11 1.379 . S
C12 C13 1.390 . S
C12 H32 0.949 . S
C13 C12 1.390 . S
C13 C14 1.357 . S
C14 C10 1.370 . S
C14 C13 1.357 . S
C14 H33 0.950 . S
Zn15 N9 2.020 . S
Zn15 O18 2.025 . S
Zn15 O23 2.024 . S
Zn15 O25 2.039 . S
Zn15 O27 2.034 . S
O16 C0 1.251 . S
O16 Zn7 2.039 . S
C17 O22 1.246 . S
C17 O23 1.249 . S
O18 C0 1.254 . S
O18 Zn15 2.025 . S
H19 C11 0.952 . S
H20 C2 0.952 . S
H21 C10 0.948 . S
O22 Zn7 2.034 . S
O22 C17 1.246 . S
O23 Zn15 2.024 . S
O23 C17 1.249 . S
H24 C6 0.948 . S
O25 Zn15 2.039 . S
O25 C29 1.251 . S
O26 Zn7 2.025 . S
O26 C29 1.254 . S
O27 C8 1.246 . S
O27 Zn15 2.034 . S
O28 Zn7 2.024 . S
O28 C8 1.249 . S
C29 O25 1.251 . S
C29 O26 1.254 . S
H30 C3 0.949 . S
H31 C5 0.950 . S
H32 C12 0.949 . S
H33 C14 0.950 . S
C34 O50 1.251 . S
C34 O52 1.254 . S
N35 C36 1.333 . S
N35 C40 1.307 . S
N35 Zn41 2.020 . S
C36 N35 1.333 . S
C36 C37 1.379 . S
C36 H54 0.952 . S
C37 C36 1.379 . S
C37 C38 1.390 . S
C37 H64 0.949 . S
C38 C37 1.390 . S
C38 C39 1.357 . S
C39 C38 1.357 . S
C39 C40 1.370 . S
C39 H65 0.950 . S
C40 N35 1.307 . S
C40 C39 1.370 . S
C40 H58 0.948 . S
Zn41 N35 2.020 . S
Zn41 O50 2.039 . S
Zn41 O56 2.034 . S
Zn41 O60 2.025 . S
Zn41 O62 2.024 . S
C42 O61 1.246 . S
C42 O62 1.249 . S
N43 C44 1.307 . S
N43 C45 1.333 . S
N43 Zn49 2.020 . S
C44 N43 1.307 . S
C44 C48 1.370 . S
C44 H55 0.948 . S
C45 N43 1.333 . S
C45 C46 1.379 . S
C45 H53 0.952 . S
C46 C45 1.379 . S
C46 C47 1.390 . S
C46 H66 0.949 . S
C47 C46 1.390 . S
C47 C48 1.357 . S
C48 C44 1.370 . S
C48 C47 1.357 . S
C48 H67 0.950 . S
Zn49 N43 2.020 . S
Zn49 O52 2.025 . S
Zn49 O57 2.024 . S
Zn49 O59 2.039 . S
Zn49 O61 2.034 . S
O50 C34 1.251 . S
O50 Zn41 2.039 . S
C51 O56 1.246 . S
C51 O57 1.249 . S
O52 C34 1.254 . S
O52 Zn49 2.025 . S
H53 C45 0.952 . S
H54 C36 0.952 . S
H55 C44 0.948 . S
O56 Zn41 2.034 . S
O56 C51 1.246 . S
O57 Zn49 2.024 . S
O57 C51 1.249 . S
H58 C40 0.948 . S
O59 Zn49 2.039 . S
O59 C63 1.251 . S
O60 Zn41 2.025 . S
O60 C63 1.254 . S
O61 C42 1.246 . S
O61 Zn49 2.034 . S
O62 Zn41 2.024 . S
O62 C42 1.249 . S
C63 O59 1.251 . S
C63 O60 1.254 . S
H64 C37 0.949 . S
H65 C39 0.950 . S
H66 C46 0.949 . S
H67 C48 0.950 . S
C68 O84 1.251 . S
C68 O86 1.254 . S
N69 C70 1.333 . S
N69 C74 1.307 . S
N69 Zn75 2.020 . S
C70 N69 1.333 . S
C70 C71 1.379 . S
C70 H88 0.952 . S
C71 C70 1.379 . S
C71 C72 1.390 . S
C71 H98 0.949 . S
C72 C71 1.390 . S
C72 C73 1.357 . S
C73 C72 1.357 . S
C73 C74 1.370 . S
C73 H99 0.950 . S
C74 N69 1.307 . S
C74 C73 1.370 . S
C74 H92 0.948 . S
Zn75 N69 2.020 . S
Zn75 O84 2.039 . S
Zn75 O90 2.034 . S
Zn75 O94 2.025 . S
Zn75 O96 2.024 . S
C76 O95 1.246 . S
C76 O96 1.249 . S
N77 C78 1.307 . S
N77 C79 1.333 . S
N77 Zn83 2.020 . S
C78 N77 1.307 . S
C78 C82 1.370 . S
C78 H89 0.948 . S
C79 N77 1.333 . S
C79 C80 1.379 . S
C79 H87 0.952 . S
C80 C79 1.379 . S
C80 C81 1.390 . S
C80 H100 0.949 . S
C81 C80 1.390 . S
C81 C82 1.357 . S
C82 C78 1.370 . S
C82 C81 1.357 . S
C82 H101 0.950 . S
Zn83 N77 2.020 . S
Zn83 O86 2.025 . S
Zn83 O91 2.024 . S
Zn83 O93 2.039 . S
Zn83 O95 2.034 . S
O84 C68 1.251 . S
O84 Zn75 2.039 . S
C85 O90 1.246 . S
C85 O91 1.249 . S
O86 C68 1.254 . S
O86 Zn83 2.025 . S
H87 C79 0.952 . S
H88 C70 0.952 . S
H89 C78 0.948 . S
O90 Zn75 2.034 . S
O90 C85 1.246 . S
O91 Zn83 2.024 . S
O91 C85 1.249 . S
H92 C74 0.948 . S
O93 Zn83 2.039 . S
O93 C97 1.251 . S
O94 Zn75 2.025 . S
O94 C97 1.254 . S
O95 C76 1.246 . S
O95 Zn83 2.034 . S
O96 Zn75 2.024 . S
O96 C76 1.249 . S
C97 O93 1.251 . S
C97 O94 1.254 . S
H98 C71 0.949 . S
H99 C73 0.950 . S
H100 C80 0.949 . S
H101 C82 0.950 . S
C102 O118 1.251 . S
C102 O120 1.254 . S
N103 C104 1.333 . S
N103 C108 1.307 1_655 S
N103 Zn109 2.020 . S
C104 N103 1.333 . S
C104 C105 1.379 1_655 S
C104 H122 0.952 . S
C105 C104 1.379 1_455 S
C105 C106 1.390 . S
C105 H132 0.949 . S
C106 C105 1.390 . S
C106 C107 1.357 . S
C107 C106 1.357 . S
C107 C108 1.370 . S
C107 H133 0.950 . S
C108 N103 1.307 1_455 S
C108 C107 1.370 . S
C108 H126 0.948 . S
Zn109 N103 2.020 . S
Zn109 O118 2.039 . S
Zn109 O124 2.034 . S
Zn109 O128 2.025 . S
Zn109 O130 2.024 . S
C110 O129 1.246 . S
C110 O130 1.249 . S
N111 C112 1.307 . S
N111 C113 1.333 . S
N111 Zn117 2.020 . S
C112 N111 1.307 . S
C112 C116 1.370 . S
C112 H123 0.948 . S
C113 N111 1.333 . S
C113 C114 1.379 . S
C113 H121 0.952 . S
C114 C113 1.379 . S
C114 C115 1.390 . S
C114 H134 0.949 . S
C115 C114 1.390 . S
C115 C116 1.357 . S
C116 C112 1.370 . S
C116 C115 1.357 . S
C116 H135 0.950 . S
Zn117 N111 2.020 . S
Zn117 O120 2.025 . S
Zn117 O125 2.024 . S
Zn117 O127 2.039 . S
Zn117 O129 2.034 . S
O118 C102 1.251 . S
O118 Zn109 2.039 . S
C119 O124 1.246 . S
C119 O125 1.249 . S
O120 C102 1.254 . S
O120 Zn117 2.025 . S
H121 C113 0.952 . S
H122 C104 0.952 . S
H123 C112 0.948 . S
O124 Zn109 2.034 . S
O124 C119 1.246 . S
O125 Zn117 2.024 . S
O125 C119 1.249 . S
H126 C108 0.948 . S
O127 Zn117 2.039 . S
O127 C131 1.251 . S
O128 Zn109 2.025 . S
O128 C131 1.254 . S
O129 C110 1.246 . S
O129 Zn117 2.034 . S
O130 Zn109 2.024 . S
O130 C110 1.249 . S
C131 O127 1.251 . S
C131 O128 1.254 . S
H132 C105 0.949 . S
H133 C107 0.950 . S
H134 C114 0.949 . S
H135 C116 0.950 . S
C136 O152 1.251 . S
C136 O154 1.254 . S
N137 C138 1.333 . S
N137 C142 1.307 . S
N137 Zn143 2.020 . S
C138 N137 1.333 . S
C138 C139 1.379 . S
C138 H156 0.952 . S
C139 C138 1.379 . S
C139 C140 1.390 . S
C139 H166 0.949 . S
C140 C139 1.390 . S
C140 C141 1.357 . S
C141 C140 1.357 . S
C141 C142 1.370 . S
C141 H167 0.950 . S
C142 N137 1.307 . S
C142 C141 1.370 . S
C142 H160 0.948 . S
Zn143 N137 2.020 . S
Zn143 O152 2.039 . S
Zn143 O158 2.034 . S
Zn143 O162 2.025 . S
Zn143 O164 2.024 . S
C144 O163 1.246 . S
C144 O164 1.249 . S
N145 C146 1.307 . S
N145 C147 1.333 . S
N145 Zn151 2.020 . S
C146 N145 1.307 . S
C146 C150 1.370 . S
C146 H157 0.948 . S
C147 N145 1.333 . S
C147 C148 1.379 . S
C147 H155 0.952 . S
C148 C147 1.379 . S
C148 C149 1.390 . S
C148 H168 0.949 . S
C149 C148 1.390 . S
C149 C150 1.357 . S
C150 C146 1.370 . S
C150 C149 1.357 . S
C150 H169 0.950 . S
Zn151 N145 2.020 . S
Zn151 O154 2.025 . S
Zn151 O159 2.024 . S
Zn151 O161 2.039 . S
Zn151 O163 2.034 . S
O152 C136 1.251 . S
O152 Zn143 2.039 . S
C153 O158 1.246 . S
C153 O159 1.249 . S
O154 C136 1.254 . S
O154 Zn151 2.025 . S
H155 C147 0.952 . S
H156 C138 0.952 . S
H157 C146 0.948 . S
O158 Zn143 2.034 . S
O158 C153 1.246 . S
O159 Zn151 2.024 . S
O159 C153 1.249 . S
H160 C142 0.948 . S
O161 Zn151 2.039 . S
O161 C165 1.251 . S
O162 Zn143 2.025 . S
O162 C165 1.254 . S
O163 C144 1.246 . S
O163 Zn151 2.034 . S
O164 Zn143 2.024 . S
O164 C144 1.249 . S
C165 O161 1.251 . S
C165 O162 1.254 . S
H166 C139 0.949 . S
H167 C141 0.950 . S
H168 C148 0.949 . S
H169 C150 0.950 . S
C170 O186 1.251 . S
C170 O188 1.254 . S
N171 C172 1.333 . S
N171 C176 1.307 . S
N171 Zn177 2.020 . S
C172 N171 1.333 . S
C172 C173 1.379 . S
C172 H190 0.952 . S
C173 C172 1.379 . S
C173 C174 1.390 . S
C173 H200 0.949 . S
C174 C173 1.390 . S
C174 C175 1.357 . S
C175 C174 1.357 . S
C175 C176 1.370 . S
C175 H201 0.950 . S
C176 N171 1.307 . S
C176 C175 1.370 . S
C176 H194 0.948 . S
Zn177 N171 2.020 . S
Zn177 O186 2.039 . S
Zn177 O192 2.034 . S
Zn177 O196 2.025 . S
Zn177 O198 2.024 . S
C178 O197 1.246 . S
C178 O198 1.249 . S
N179 C180 1.307 . S
N179 C181 1.333 . S
N179 Zn185 2.020 . S
C180 N179 1.307 . S
C180 C184 1.370 . S
C180 H191 0.948 . S
C181 N179 1.333 . S
C181 C182 1.379 . S
C181 H189 0.952 . S
C182 C181 1.379 . S
C182 C183 1.390 . S
C182 H202 0.949 . S
C183 C182 1.390 . S
C183 C184 1.357 . S
C184 C180 1.370 . S
C184 C183 1.357 . S
C184 H203 0.950 . S
Zn185 N179 2.020 . S
Zn185 O188 2.025 . S
Zn185 O193 2.024 . S
Zn185 O195 2.039 . S
Zn185 O197 2.034 . S
O186 C170 1.251 . S
O186 Zn177 2.039 . S
C187 O192 1.246 . S
C187 O193 1.249 . S
O188 C170 1.254 . S
O188 Zn185 2.025 . S
H189 C181 0.952 . S
H190 C172 0.952 . S
H191 C180 0.948 . S
O192 Zn177 2.034 . S
O192 C187 1.246 . S
O193 Zn185 2.024 . S
O193 C187 1.249 . S
H194 C176 0.948 . S
O195 Zn185 2.039 . S
O195 C199 1.251 . S
O196 Zn177 2.025 . S
O196 C199 1.254 . S
O197 C178 1.246 . S
O197 Zn185 2.034 . S
O198 Zn177 2.024 . S
O198 C178 1.249 . S
C199 O195 1.251 . S
C199 O196 1.254 . S
H200 C173 0.949 . S
H201 C175 0.950 . S
H202 C182 0.949 . S
H203 C184 0.950 . S
C204 O220 1.251 . S
C204 O222 1.254 . S
N205 C206 1.333 . S
N205 C210 1.307 . S
N205 Zn211 2.020 . S
C206 N205 1.333 . S
C206 C207 1.379 . S
C206 H224 0.952 . S
C207 C206 1.379 . S
C207 C208 1.390 . S
C207 H234 0.949 . S
C208 C207 1.390 . S
C208 C209 1.357 . S
C209 C208 1.357 . S
C209 C210 1.370 . S
C209 H235 0.950 . S
C210 N205 1.307 . S
C210 C209 1.370 . S
C210 H228 0.948 . S
Zn211 N205 2.020 . S
Zn211 O220 2.039 . S
Zn211 O226 2.034 . S
Zn211 O230 2.025 . S
Zn211 O232 2.024 . S
C212 O231 1.246 . S
C212 O232 1.249 . S
N213 C214 1.307 . S
N213 C215 1.333 . S
N213 Zn219 2.020 . S
C214 N213 1.307 . S
C214 C218 1.370 . S
C214 H225 0.948 . S
C215 N213 1.333 . S
C215 C216 1.379 . S
C215 H223 0.952 . S
C216 C215 1.379 . S
C216 C217 1.390 . S
C216 H236 0.949 . S
C217 C216 1.390 . S
C217 C218 1.357 . S
C218 C214 1.370 . S
C218 C217 1.357 . S
C218 H237 0.950 . S
Zn219 N213 2.020 . S
Zn219 O222 2.025 . S
Zn219 O227 2.024 . S
Zn219 O229 2.039 . S
Zn219 O231 2.034 . S
O220 C204 1.251 . S
O220 Zn211 2.039 . S
C221 O226 1.246 . S
C221 O227 1.249 . S
O222 C204 1.254 . S
O222 Zn219 2.025 . S
H223 C215 0.952 . S
H224 C206 0.952 . S
H225 C214 0.948 . S
O226 Zn211 2.034 . S
O226 C221 1.246 . S
O227 Zn219 2.024 . S
O227 C221 1.249 . S
H228 C210 0.948 . S
O229 Zn219 2.039 . S
O229 C233 1.251 . S
O230 Zn211 2.025 . S
O230 C233 1.254 . S
O231 C212 1.246 . S
O231 Zn219 2.034 . S
O232 Zn211 2.024 . S
O232 C212 1.249 . S
C233 O229 1.251 . S
C233 O230 1.254 . S
H234 C207 0.949 . S
H235 C209 0.950 . S
H236 C216 0.949 . S
H237 C218 0.950 . S
C238 O254 1.251 . S
C238 O256 1.254 . S
N239 C240 1.333 . S
N239 C244 1.307 . S
N239 Zn245 2.020 . S
C240 N239 1.333 . S
C240 C241 1.379 . S
C240 H258 0.952 . S
C241 C240 1.379 . S
C241 C242 1.390 . S
C241 H268 0.949 . S
C242 C241 1.390 . S
C242 C243 1.357 . S
C243 C242 1.357 . S
C243 C244 1.370 . S
C243 H269 0.950 . S
C244 N239 1.307 . S
C244 C243 1.370 . S
C244 H262 0.948 . S
Zn245 N239 2.020 . S
Zn245 O254 2.039 . S
Zn245 O260 2.034 . S
Zn245 O264 2.025 . S
Zn245 O266 2.024 . S
C246 O265 1.246 . S
C246 O266 1.249 . S
N247 C248 1.307 1_455 S
N247 C249 1.333 . S
N247 Zn253 2.020 . S
C248 N247 1.307 1_655 S
C248 C252 1.370 . S
C248 H259 0.948 . S
C249 N247 1.333 . S
C249 C250 1.379 1_455 S
C249 H257 0.952 . S
C250 C249 1.379 1_655 S
C250 C251 1.390 . S
C250 H270 0.949 . S
C251 C250 1.390 . S
C251 C252 1.357 . S
C252 C248 1.370 . S
C252 C251 1.357 . S
C252 H271 0.950 . S
Zn253 N247 2.020 . S
Zn253 O256 2.025 . S
Zn253 O261 2.024 . S
Zn253 O263 2.039 . S
Zn253 O265 2.034 . S
O254 C238 1.251 . S
O254 Zn245 2.039 . S
C255 O260 1.246 . S
C255 O261 1.249 . S
O256 C238 1.254 . S
O256 Zn253 2.025 . S
H257 C249 0.952 . S
H258 C240 0.952 . S
H259 C248 0.948 . S
O260 Zn245 2.034 . S
O260 C255 1.246 . S
O261 Zn253 2.024 . S
O261 C255 1.249 . S
H262 C244 0.948 . S
O263 Zn253 2.039 . S
O263 C267 1.251 . S
O264 Zn245 2.025 . S
O264 C267 1.254 . S
O265 C246 1.246 . S
O265 Zn253 2.034 . S
O266 Zn245 2.024 . S
O266 C246 1.249 . S
C267 O263 1.251 . S
C267 O264 1.254 . S
H268 C241 0.949 . S
H269 C243 0.950 . S
H270 C250 0.949 . S
H271 C252 0.950 . S
C272 O288 1.251 . S
C272 O290 1.254 . S
N273 C274 1.333 . S
N273 C278 1.307 . S
N273 Zn279 2.020 . S
C274 N273 1.333 . S
C274 C275 1.379 . S
C274 H292 0.952 . S
C275 C274 1.379 . S
C275 C276 1.390 . S
C275 H302 0.949 . S
C276 C275 1.390 . S
C276 C277 1.357 . S
C277 C276 1.357 . S
C277 C278 1.370 . S
C277 H303 0.950 . S
C278 N273 1.307 . S
C278 C277 1.370 . S
C278 H296 0.948 . S
Zn279 N273 2.020 . S
Zn279 O288 2.039 . S
Zn279 O294 2.034 . S
Zn279 O298 2.025 . S
Zn279 O300 2.024 . S
C280 O299 1.246 . S
C280 O300 1.249 . S
N281 C282 1.307 . S
N281 C283 1.333 . S
N281 Zn287 2.020 . S
C282 N281 1.307 . S
C282 C286 1.370 . S
C282 H293 0.948 . S
C283 N281 1.333 . S
C283 C284 1.379 . S
C283 H291 0.952 . S
C284 C283 1.379 . S
C284 C285 1.390 . S
C284 H304 0.949 . S
C285 C284 1.390 . S
C285 C286 1.357 . S
C286 C282 1.370 . S
C286 C285 1.357 . S
C286 H305 0.950 . S
Zn287 N281 2.020 . S
Zn287 O290 2.025 . S
Zn287 O295 2.024 . S
Zn287 O297 2.039 . S
Zn287 O299 2.034 . S
O288 C272 1.251 . S
O288 Zn279 2.039 . S
C289 O294 1.246 . S
C289 O295 1.249 . S
O290 C272 1.254 . S
O290 Zn287 2.025 . S
H291 C283 0.952 . S
H292 C274 0.952 . S
H293 C282 0.948 . S
O294 Zn279 2.034 . S
O294 C289 1.246 . S
O295 Zn287 2.024 . S
O295 C289 1.249 . S
H296 C278 0.948 . S
O297 Zn287 2.039 . S
O297 C301 1.251 . S
O298 Zn279 2.025 . S
O298 C301 1.254 . S
O299 C280 1.246 . S
O299 Zn287 2.034 . S
O300 Zn279 2.024 . S
O300 C280 1.249 . S
C301 O297 1.251 . S
C301 O298 1.254 . S
H302 C275 0.949 . S
H303 C277 0.950 . S
H304 C284 0.949 . S
H305 C286 0.950 . S
C306 O322 1.251 . S
C306 O324 1.254 . S
N307 C308 1.333 . S
N307 C312 1.307 1_455 S
N307 Zn313 2.020 . S
C308 N307 1.333 . S
C308 C309 1.379 1_455 S
C308 H326 0.952 . S
C309 C308 1.379 1_655 S
C309 C310 1.390 1_545 S
C309 H336 0.949 . S
C310 C309 1.390 1_565 S
C310 C311 1.357 . S
C311 C310 1.357 . S
C311 C312 1.370 1_565 S
C311 H337 0.950 . S
C312 N307 1.307 1_655 S
C312 C311 1.370 1_545 S
C312 H330 0.948 1_545 S
Zn313 N307 2.020 . S
Zn313 O322 2.039 . S
Zn313 O328 2.034 . S
Zn313 O332 2.025 . S
Zn313 O334 2.052 . S
C314 O333 1.246 . S
C314 O334 1.250 . S
N315 C316 1.307 . S
N315 C317 1.333 . S
N315 Zn321 2.020 . S
C316 N315 1.307 . S
C316 C320 1.370 . S
C316 H327 0.948 . S
C317 N315 1.333 . S
C317 C318 1.379 . S
C317 H325 0.952 . S
C318 C317 1.379 . S
C318 C319 1.390 . S
C318 H338 0.949 . S
C319 C318 1.390 . S
C319 C320 1.357 . S
C320 C316 1.370 . S
C320 C319 1.357 . S
C320 H339 0.950 . S
Zn321 N315 2.020 . S
Zn321 O324 2.025 . S
Zn321 O329 2.024 . S
Zn321 O331 2.039 . S
Zn321 O333 2.034 . S
O322 C306 1.251 . S
O322 Zn313 2.039 . S
C323 O328 1.246 . S
C323 O329 1.249 . S
O324 C306 1.254 . S
O324 Zn321 2.025 . S
H325 C317 0.952 . S
H326 C308 0.952 . S
H327 C316 0.948 . S
O328 Zn313 2.034 . S
O328 C323 1.246 . S
O329 Zn321 2.024 . S
O329 C323 1.249 . S
H330 C312 0.948 1_565 S
O331 Zn321 2.039 . S
O331 C335 1.251 . S
O332 Zn313 2.025 . S
O332 C335 1.254 . S
O333 C314 1.246 . S
O333 Zn321 2.034 . S
O334 Zn313 2.052 . S
O334 C314 1.250 . S
C335 O331 1.251 . S
C335 O332 1.254 . S
H336 C309 0.949 . S
H337 C311 0.950 . S
H338 C318 0.949 . S
H339 C320 0.950 . S
C340 O356 1.251 . S
C340 O358 1.254 . S
N341 C342 1.333 . S
N341 C346 1.307 . S
N341 Zn347 2.020 . S
C342 N341 1.333 . S
C342 C343 1.379 . S
C342 H360 0.952 . S
C343 C342 1.379 . S
C343 C344 1.390 . S
C343 H370 0.949 . S
C344 C343 1.390 . S
C344 C345 1.357 . S
C345 C344 1.357 . S
C345 C346 1.370 . S
C345 H371 0.950 . S
C346 N341 1.307 . S
C346 C345 1.370 . S
C346 H364 0.948 . S
Zn347 N341 2.020 . S
Zn347 O356 2.039 . S
Zn347 O362 2.034 . S
Zn347 O366 2.025 . S
Zn347 O368 2.024 . S
C348 O367 1.246 . S
C348 O368 1.249 . S
N349 C350 1.307 . S
N349 C351 1.333 . S
N349 Zn355 2.020 . S
C350 N349 1.307 . S
C350 C354 1.370 . S
C350 H361 0.948 . S
C351 N349 1.333 . S
C351 C352 1.379 . S
C351 H359 0.952 . S
C352 C351 1.379 . S
C352 C353 1.390 . S
C352 H372 0.949 . S
C353 C352 1.390 . S
C353 C354 1.357 . S
C354 C350 1.370 . S
C354 C353 1.357 . S
C354 H373 0.950 . S
Zn355 N349 2.020 . S
Zn355 O358 2.025 . S
Zn355 O363 2.024 . S
Zn355 O365 2.039 . S
Zn355 O367 2.034 . S
O356 C340 1.251 . S
O356 Zn347 2.039 . S
C357 O362 1.246 . S
C357 O363 1.249 . S
O358 C340 1.254 . S
O358 Zn355 2.025 . S
H359 C351 0.952 . S
H360 C342 0.952 . S
H361 C350 0.948 . S
O362 Zn347 2.034 . S
O362 C357 1.246 . S
O363 Zn355 2.024 . S
O363 C357 1.249 . S
H364 C346 0.948 . S
O365 Zn355 2.039 . S
O365 C369 1.251 . S
O366 Zn347 2.025 . S
O366 C369 1.254 . S
O367 C348 1.246 . S
O367 Zn355 2.034 . S
O368 Zn347 2.024 . S
O368 C348 1.249 . S
C369 O365 1.251 . S
C369 O366 1.254 . S
H370 C343 0.949 . S
H371 C345 0.950 . S
H372 C352 0.949 . S
H373 C354 0.950 . S
C374 O390 1.251 . S
C374 O392 1.254 . S
N375 C376 1.333 . S
N375 C380 1.307 . S
N375 Zn381 2.020 . S
C376 N375 1.333 . S
C376 C377 1.379 . S
C376 H394 0.952 . S
C377 C376 1.379 . S
C377 C378 1.390 1_565 S
C377 H404 0.949 . S
C378 C377 1.390 1_545 S
C378 C379 1.357 . S
C379 C378 1.357 . S
C379 C380 1.370 1_545 S
C379 H405 0.950 . S
C380 N375 1.307 . S
C380 C379 1.370 1_565 S
C380 H398 0.948 1_565 S
Zn381 N375 2.020 . S
Zn381 O390 2.039 . S
Zn381 O396 2.034 . S
Zn381 O400 2.025 . S
Zn381 O402 2.052 . S
C382 O401 1.246 . S
C382 O402 1.250 . S
N383 C384 1.307 . S
N383 C385 1.333 . S
N383 Zn389 2.020 . S
C384 N383 1.307 . S
C384 C388 1.370 . S
C384 H395 0.948 . S
C385 N383 1.333 . S
C385 C386 1.379 . S
C385 H393 0.952 . S
C386 C385 1.379 . S
C386 C387 1.390 . S
C386 H406 0.949 . S
C387 C386 1.390 . S
C387 C388 1.357 . S
C388 C384 1.370 . S
C388 C387 1.357 . S
C388 H407 0.950 . S
Zn389 N383 2.020 . S
Zn389 O392 2.025 . S
Zn389 O397 2.024 . S
Zn389 O399 2.039 . S
Zn389 O401 2.034 . S
O390 C374 1.251 . S
O390 Zn381 2.039 . S
C391 O396 1.246 . S
C391 O397 1.249 . S
O392 C374 1.254 . S
O392 Zn389 2.025 . S
H393 C385 0.952 . S
H394 C376 0.952 . S
H395 C384 0.948 . S
O396 Zn381 2.034 . S
O396 C391 1.246 . S
O397 Zn389 2.024 . S
O397 C391 1.249 . S
H398 C380 0.948 1_545 S
O399 Zn389 2.039 . S
O399 C403 1.251 . S
O400 Zn381 2.025 . S
O400 C403 1.254 . S
O401 C382 1.246 . S
O401 Zn389 2.034 . S
O402 Zn381 2.052 . S
O402 C382 1.250 . S
C403 O399 1.251 . S
C403 O400 1.254 . S
H404 C377 0.949 . S
H405 C379 0.950 . S
H406 C386 0.949 . S
H407 C388 0.950 . S
C408 O424 1.251 . S
C408 O426 1.254 . S
N409 C410 1.333 . S
N409 C414 1.307 . S
N409 Zn415 2.020 . S
C410 N409 1.333 . S
C410 C411 1.379 . S
C410 H428 0.952 . S
C411 C410 1.379 . S
C411 C412 1.390 . S
C411 H438 0.949 . S
C412 C411 1.390 . S
C412 C413 1.357 . S
C413 C412 1.357 . S
C413 C414 1.370 . S
C413 H439 0.950 . S
C414 N409 1.307 . S
C414 C413 1.370 . S
C414 H432 0.948 . S
Zn415 N409 2.020 . S
Zn415 O424 2.039 . S
Zn415 O430 2.034 . S
Zn415 O434 2.025 . S
Zn415 O436 2.024 . S
C416 O435 1.246 . S
C416 O436 1.249 . S
N417 C418 1.307 . S
N417 C419 1.333 . S
N417 Zn423 2.020 . S
C418 N417 1.307 . S
C418 C422 1.370 . S
C418 H429 0.948 . S
C419 N417 1.333 . S
C419 C420 1.379 . S
C419 H427 0.952 . S
C420 C419 1.379 . S
C420 C421 1.390 . S
C420 H440 0.949 . S
C421 C420 1.390 . S
C421 C422 1.357 . S
C422 C418 1.370 . S
C422 C421 1.357 . S
C422 H441 0.950 . S
Zn423 N417 2.020 . S
Zn423 O426 2.025 . S
Zn423 O431 2.024 . S
Zn423 O433 2.039 . S
Zn423 O435 2.034 . S
O424 C408 1.251 . S
O424 Zn415 2.039 . S
C425 O430 1.246 . S
C425 O431 1.249 . S
O426 C408 1.254 . S
O426 Zn423 2.025 . S
H427 C419 0.952 . S
H428 C410 0.952 . S
H429 C418 0.948 . S
O430 Zn415 2.034 . S
O430 C425 1.246 . S
O431 Zn423 2.024 . S
O431 C425 1.249 . S
H432 C414 0.948 . S
O433 Zn423 2.039 . S
O433 C437 1.251 . S
O434 Zn415 2.025 . S
O434 C437 1.254 . S
O435 C416 1.246 . S
O435 Zn423 2.034 . S
O436 Zn415 2.024 . S
O436 C416 1.249 . S
C437 O433 1.251 . S
C437 O434 1.254 . S
H438 C411 0.949 . S
H439 C413 0.950 . S
H440 C420 0.949 . S
H441 C422 0.950 . S
C442 O458 1.251 . S
C442 O460 1.254 . S
N443 C444 1.333 . S
N443 C448 1.307 . S
N443 Zn449 2.020 . S
C444 N443 1.333 . S
C444 C445 1.379 . S
C444 H462 0.952 . S
C445 C444 1.379 . S
C445 C446 1.390 . S
C445 H472 0.949 . S
C446 C445 1.390 . S
C446 C447 1.357 . S
C447 C446 1.357 . S
C447 C448 1.370 . S
C447 H473 0.950 . S
C448 N443 1.307 . S
C448 C447 1.370 . S
C448 H466 0.948 . S
Zn449 N443 2.020 . S
Zn449 O458 2.039 . S
Zn449 O464 2.034 . S
Zn449 O468 2.025 . S
Zn449 O470 2.024 . S
C450 O469 1.246 . S
C450 O470 1.249 . S
N451 C452 1.307 1_655 S
N451 C453 1.333 . S
N451 Zn457 2.020 . S
C452 N451 1.307 1_455 S
C452 C456 1.370 1_565 S
C452 H463 0.948 1_565 S
C453 N451 1.333 . S
C453 C454 1.379 1_655 S
C453 H461 0.952 . S
C454 C453 1.379 1_455 S
C454 C455 1.390 1_565 S
C454 H474 0.949 . S
C455 C454 1.390 1_545 S
C455 C456 1.357 . S
C456 C452 1.370 1_545 S
C456 C455 1.357 . S
C456 H475 0.950 . S
Zn457 N451 2.020 . S
Zn457 O460 2.025 . S
Zn457 O465 2.052 . S
Zn457 O467 2.039 . S
Zn457 O469 2.034 . S
O458 C442 1.251 . S
O458 Zn449 2.039 . S
C459 O464 1.246 . S
C459 O465 1.250 . S
O460 C442 1.254 . S
O460 Zn457 2.025 . S
H461 C453 0.952 . S
H462 C444 0.952 . S
H463 C452 0.948 1_545 S
O464 Zn449 2.034 . S
O464 C459 1.246 . S
O465 Zn457 2.052 . S
O465 C459 1.250 . S
H466 C448 0.948 . S
O467 Zn457 2.039 . S
O467 C471 1.251 . S
O468 Zn449 2.025 . S
O468 C471 1.254 . S
O469 C450 1.246 . S
O469 Zn457 2.034 . S
O470 Zn449 2.024 . S
O470 C450 1.249 . S
C471 O467 1.251 . S
C471 O468 1.254 . S
H472 C445 0.949 . S
H473 C447 0.950 . S
H474 C454 0.949 . S
H475 C456 0.950 . S
C476 O492 1.251 . S
C476 O494 1.254 . S
N477 C478 1.333 . S
N477 C482 1.307 . S
N477 Zn483 2.020 . S
C478 N477 1.333 . S
C478 C479 1.379 . S
C478 H496 0.952 . S
C479 C478 1.379 . S
C479 C480 1.390 . S
C479 H506 0.949 . S
C480 C479 1.390 . S
C480 C481 1.357 . S
C481 C480 1.357 . S
C481 C482 1.370 . S
C481 H507 0.950 . S
C482 N477 1.307 . S
C482 C481 1.370 . S
C482 H500 0.948 . S
Zn483 N477 2.020 . S
Zn483 O492 2.039 . S
Zn483 O498 2.034 . S
Zn483 O502 2.025 . S
Zn483 O504 2.024 . S
C484 O503 1.246 . S
C484 O504 1.249 . S
N485 C486 1.307 . S
N485 C487 1.333 . S
N485 Zn491 2.020 . S
C486 N485 1.307 . S
C486 C490 1.370 . S
C486 H497 0.948 . S
C487 N485 1.333 . S
C487 C488 1.379 . S
C487 H495 0.952 . S
C488 C487 1.379 . S
C488 C489 1.390 . S
C488 H508 0.949 . S
C489 C488 1.390 . S
C489 C490 1.357 . S
C490 C486 1.370 . S
C490 C489 1.357 . S
C490 H509 0.950 . S
Zn491 N485 2.020 . S
Zn491 O494 2.025 . S
Zn491 O499 2.024 . S
Zn491 O501 2.039 . S
Zn491 O503 2.034 . S
O492 C476 1.251 . S
O492 Zn483 2.039 . S
C493 O498 1.246 . S
C493 O499 1.249 . S
O494 C476 1.254 . S
O494 Zn491 2.025 . S
H495 C487 0.952 . S
H496 C478 0.952 . S
H497 C486 0.948 . S
O498 Zn483 2.034 . S
O498 C493 1.246 . S
O499 Zn491 2.024 . S
O499 C493 1.249 . S
H500 C482 0.948 . S
O501 Zn491 2.039 . S
O501 C505 1.251 . S
O502 Zn483 2.025 . S
O502 C505 1.254 . S
O503 C484 1.246 . S
O503 Zn491 2.034 . S
O504 Zn483 2.024 . S
O504 C484 1.249 . S
C505 O501 1.251 . S
C505 O502 1.254 . S
H506 C479 0.949 . S
H507 C481 0.950 . S
H508 C488 0.949 . S
H509 C490 0.950 . S
C510 O526 1.251 . S
C510 O528 1.254 . S
N511 C512 1.333 . S
N511 C516 1.307 . S
N511 Zn517 2.020 . S
C512 N511 1.333 . S
C512 C513 1.379 . S
C512 H530 0.952 . S
C513 C512 1.379 . S
C513 C514 1.390 . S
C513 H540 0.949 . S
C514 C513 1.390 . S
C514 C515 1.357 . S
C515 C514 1.357 . S
C515 C516 1.370 . S
C515 H541 0.950 . S
C516 N511 1.307 . S
C516 C515 1.370 . S
C516 H534 0.948 . S
Zn517 N511 2.020 . S
Zn517 O526 2.039 . S
Zn517 O532 2.034 . S
Zn517 O536 2.025 . S
Zn517 O538 2.024 . S
C518 O537 1.246 . S
C518 O538 1.249 . S
N519 C520 1.307 . S
N519 C521 1.333 . S
N519 Zn525 2.020 . S
C520 N519 1.307 . S
C520 C524 1.370 1_545 S
C520 H531 0.948 1_545 S
C521 N519 1.333 . S
C521 C522 1.379 . S
C521 H529 0.952 . S
C522 C521 1.379 . S
C522 C523 1.390 1_545 S
C522 H542 0.949 . S
C523 C522 1.390 1_565 S
C523 C524 1.357 . S
C524 C520 1.370 1_565 S
C524 C523 1.357 . S
C524 H543 0.950 . S
Zn525 N519 2.020 . S
Zn525 O528 2.025 . S
Zn525 O533 2.052 . S
Zn525 O535 2.039 . S
Zn525 O537 2.034 . S
O526 C510 1.251 . S
O526 Zn517 2.039 . S
C527 O532 1.246 . S
C527 O533 1.250 . S
O528 C510 1.254 . S
O528 Zn525 2.025 . S
H529 C521 0.952 . S
H530 C512 0.952 . S
H531 C520 0.948 1_565 S
O532 Zn517 2.034 . S
O532 C527 1.246 . S
O533 Zn525 2.052 . S
O533 C527 1.250 . S
H534 C516 0.948 . S
O535 Zn525 2.039 . S
O535 C539 1.251 . S
O536 Zn517 2.025 . S
O536 C539 1.254 . S
O537 C518 1.246 . S
O537 Zn525 2.034 . S
O538 Zn517 2.024 . S
O538 C518 1.249 . S
C539 O535 1.251 . S
C539 O536 1.254 . S
H540 C513 0.949 . S
H541 C515 0.950 . S
H542 C522 0.949 . S
H543 C524 0.950 . S
H544 C550 0.930 . S
H545 C554 0.930 . S
H546 C559 0.929 . S
H547 C557 0.929 . S
H548 C552 0.929 . S
H549 C558 0.929 . S
C550 H544 0.930 . S
C550 C551 1.367 . S
C550 C558 1.378 . S
C551 C550 1.367 . S
C551 C559 1.433 . S
C552 H548 0.929 . S
C552 C554 1.378 . S
C552 C556 1.350 . S
C553 C556 1.463 . S
C553 C558 1.350 . S
C553 N561 1.427 . S
C554 H545 0.930 . S
C554 C552 1.378 . S
C554 C555 1.367 . S
C555 C554 1.367 . S
C555 C557 1.433 . S
C556 C552 1.350 . S
C556 C553 1.463 . S
C556 N560 1.427 . S
C557 H547 0.929 . S
C557 C555 1.433 . S
C557 N560 1.384 . S
C558 H549 0.929 . S
C558 C550 1.378 . S
C558 C553 1.350 . S
C559 H546 0.929 . S
C559 C551 1.433 . S
C559 N561 1.384 . S
N560 C556 1.427 . S
N560 C557 1.384 . S
N561 C553 1.427 . S
N561 C559 1.384 . S
H562 C568 0.930 . S
H563 C572 0.930 . S
H564 C577 0.929 . S
H565 C575 0.929 . S
H566 C570 0.929 . S
H567 C576 0.929 . S
C568 H562 0.930 . S
C568 C569 1.367 . S
C568 C576 1.378 . S
C569 C568 1.367 . S
C569 C577 1.433 . S
C570 H566 0.929 . S
C570 C572 1.378 . S
C570 C574 1.350 . S
C571 C574 1.463 . S
C571 C576 1.350 . S
C571 N579 1.427 . S
C572 H563 0.930 . S
C572 C570 1.378 . S
C572 C573 1.367 . S
C573 C572 1.367 . S
C573 C575 1.433 . S
C574 C570 1.350 . S
C574 C571 1.463 . S
C574 N578 1.427 . S
C575 H565 0.929 . S
C575 C573 1.433 . S
C575 N578 1.384 . S
C576 H567 0.929 . S
C576 C568 1.378 . S
C576 C571 1.350 . S
C577 H564 0.929 . S
C577 C569 1.433 . S
C577 N579 1.384 . S
N578 C574 1.427 . S
N578 C575 1.384 . S
N579 C571 1.427 . S
N579 C577 1.384 . S
H580 C586 0.930 . S
H581 C590 0.930 . S
H582 C595 0.929 . S
H583 C593 0.929 . S
H584 C588 0.929 . S
H585 C594 0.929 . S
C586 H580 0.930 . S
C586 C587 1.367 . S
C586 C594 1.378 . S
C587 C586 1.367 . S
C587 C595 1.433 . S
C588 H584 0.929 . S
C588 C590 1.378 . S
C588 C592 1.350 . S
C589 C592 1.463 . S
C589 C594 1.350 . S
C589 N597 1.427 . S
C590 H581 0.930 . S
C590 C588 1.378 . S
C590 C591 1.367 . S
C591 C590 1.367 . S
C591 C593 1.433 . S
C592 C588 1.350 . S
C592 C589 1.463 . S
C592 N596 1.427 . S
C593 H583 0.929 . S
C593 C591 1.433 . S
C593 N596 1.384 . S
C594 H585 0.929 . S
C594 C586 1.378 . S
C594 C589 1.350 . S
C595 H582 0.929 . S
C595 C587 1.433 . S
C595 N597 1.384 . S
N596 C592 1.427 . S
N596 C593 1.384 . S
N597 C589 1.427 . S
N597 C595 1.384 . S
H598 C604 0.930 . S
H599 C608 0.930 . S
H600 C613 0.929 . S
H601 C611 0.929 . S
H602 C606 0.929 . S
H603 C612 0.929 . S
C604 H598 0.930 . S
C604 C605 1.367 . S
C604 C612 1.378 . S
C605 C604 1.367 . S
C605 C613 1.433 . S
C606 H602 0.929 . S
C606 C608 1.378 . S
C606 C610 1.350 . S
C607 C610 1.463 1_656 S
C607 C612 1.350 . S
C607 N615 1.427 . S
C608 H599 0.930 . S
C608 C606 1.378 . S
C608 C609 1.367 . S
C609 C608 1.367 . S
C609 C611 1.433 . S
C610 C606 1.350 . S
C610 C607 1.463 1_454 S
C610 N614 1.427 . S
C611 H601 0.929 . S
C611 C609 1.433 . S
C611 N614 1.384 . S
C612 H603 0.929 . S
C612 C604 1.378 . S
C612 C607 1.350 . S
C613 H600 0.929 . S
C613 C605 1.433 . S
C613 N615 1.384 . S
N614 C610 1.427 . S
N614 C611 1.384 . S
N615 C607 1.427 . S
N615 C613 1.384 . S
H616 C622 0.930 . S
H617 C626 0.930 . S
H618 C631 0.929 . S
H619 C629 0.929 . S
H620 C624 0.929 . S
H621 C630 0.929 . S
C622 H616 0.930 . S
C622 C623 1.367 . S
C622 C630 1.378 . S
C623 C622 1.367 . S
C623 C631 1.433 . S
C624 H620 0.929 . S
C624 C626 1.378 . S
C624 C628 1.350 . S
C625 C628 1.463 . S
C625 C630 1.350 . S
C625 N633 1.427 . S
C626 H617 0.930 . S
C626 C624 1.378 . S
C626 C627 1.367 . S
C627 C626 1.367 . S
C627 C629 1.433 . S
C628 C624 1.350 . S
C628 C625 1.463 . S
C628 N632 1.427 . S
C629 H619 0.929 . S
C629 C627 1.433 . S
C629 N632 1.384 . S
C630 H621 0.929 . S
C630 C622 1.378 . S
C630 C625 1.350 . S
C631 H618 0.929 . S
C631 C623 1.433 . S
C631 N633 1.384 . S
N632 C628 1.427 . S
N632 C629 1.384 . S
N633 C625 1.427 . S
N633 C631 1.384 . S
H634 C640 0.930 . S
H635 C644 0.930 . S
H636 C649 0.929 . S
H637 C647 0.929 . S
H638 C642 0.929 . S
H639 C648 0.929 . S
C640 H634 0.930 . S
C640 C641 1.367 . S
C640 C648 1.378 . S
C641 C640 1.367 . S
C641 C649 1.433 . S
C642 H638 0.929 . S
C642 C644 1.378 . S
C642 C646 1.350 . S
C643 C646 1.463 . S
C643 C648 1.350 . S
C643 N651 1.427 . S
C644 H635 0.930 . S
C644 C642 1.378 . S
C644 C645 1.367 . S
C645 C644 1.367 . S
C645 C647 1.433 . S
C646 C642 1.350 . S
C646 C643 1.463 . S
C646 N650 1.427 . S
C647 H637 0.929 . S
C647 C645 1.433 . S
C647 N650 1.384 . S
C648 H639 0.929 . S
C648 C640 1.378 . S
C648 C643 1.350 . S
C649 H636 0.929 . S
C649 C641 1.433 . S
C649 N651 1.384 . S
N650 C646 1.427 . S
N650 C647 1.384 . S
N651 C643 1.427 . S
N651 C649 1.384 . S
H652 C658 0.930 . S
H653 C662 0.930 . S
H654 C667 0.929 . S
H655 C665 0.929 . S
H656 C660 0.929 1_655 S
H657 C666 0.929 1_455 S
C658 H652 0.930 . S
C658 C659 1.367 . S
C658 C666 1.378 1_565 S
C659 C658 1.367 . S
C659 C667 1.433 . S
C660 H656 0.929 1_455 S
C660 C662 1.378 1_565 S
C660 C664 1.350 1_565 S
C661 C664 1.463 1_664 S
C661 C666 1.350 1_565 S
C661 N669 1.427 . S
C662 H653 0.930 . S
C662 C660 1.378 1_545 S
C662 C663 1.367 . S
C663 C662 1.367 . S
C663 C665 1.433 . S
C664 C660 1.350 1_545 S
C664 C661 1.463 1_446 S
C664 N668 1.427 . S
C665 H655 0.929 . S
C665 C663 1.433 . S
C665 N668 1.384 . S
C666 H657 0.929 1_655 S
C666 C658 1.378 1_545 S
C666 C661 1.350 1_545 S
C667 H654 0.929 . S
C667 C659 1.433 . S
C667 N669 1.384 . S
N668 C664 1.427 . S
N668 C665 1.384 . S
N669 C661 1.427 . S
N669 C667 1.384 . S
H670 C676 0.930 . S
H671 C680 0.930 . S
H672 C685 0.929 . S
H673 C683 0.929 . S
H674 C678 0.929 . S
H675 C684 0.929 . S
C676 H670 0.930 . S
C676 C677 1.367 . S
C676 C684 1.378 . S
C677 C676 1.367 . S
C677 C685 1.433 . S
C678 H674 0.929 . S
C678 C680 1.378 . S
C678 C682 1.350 . S
C679 C682 1.463 1_565 S
C679 C684 1.350 . S
C679 N687 1.427 . S
C680 H671 0.930 . S
C680 C678 1.378 . S
C680 C681 1.367 . S
C681 C680 1.367 . S
C681 C683 1.433 . S
C682 C678 1.350 . S
C682 C679 1.463 1_545 S
C682 N686 1.427 . S
C683 H673 0.929 . S
C683 C681 1.433 . S
C683 N686 1.384 . S
C684 H675 0.929 . S
C684 C676 1.378 . S
C684 C679 1.350 . S
C685 H672 0.929 . S
C685 C677 1.433 . S
C685 N687 1.384 . S
N686 C682 1.427 . S
N686 C683 1.384 . S
N687 C679 1.427 . S
N687 C685 1.384 . S
H688 C694 0.930 . S
H689 C698 0.930 . S
H690 C703 0.929 . S
H691 C701 0.929 . S
H692 C696 0.929 . S
H693 C702 0.929 . S
C694 H688 0.930 . S
C694 C695 1.367 . S
C694 C702 1.378 . S
C695 C694 1.367 . S
C695 C703 1.433 . S
C696 H692 0.929 . S
C696 C698 1.378 . S
C696 C700 1.350 . S
C697 C700 1.463 . S
C697 C702 1.350 1_554 S
C697 N705 1.427 . S
C698 H689 0.930 . S
C698 C696 1.378 . S
C698 C699 1.367 . S
C699 C698 1.367 . S
C699 C701 1.433 . S
C700 C696 1.350 . S
C700 C697 1.463 . S
C700 N704 1.427 . S
C701 H691 0.929 . S
C701 C699 1.433 . S
C701 N704 1.384 . S
C702 H693 0.929 . S
C702 C694 1.378 . S
C702 C697 1.350 1_556 S
C703 H690 0.929 . S
C703 C695 1.433 . S
C703 N705 1.384 1_556 S
N704 C700 1.427 . S
N704 C701 1.384 . S
N705 C697 1.427 . S
N705 C703 1.384 1_554 S
H706 C712 0.930 . S
H707 C716 0.930 . S
H708 C721 0.929 . S
H709 C719 0.929 . S
H710 C714 0.929 . S
H711 C720 0.929 . S
C712 H706 0.930 . S
C712 C713 1.367 . S
C712 C720 1.378 . S
C713 C712 1.367 . S
C713 C721 1.433 . S
C714 H710 0.929 . S
C714 C716 1.378 . S
C714 C718 1.350 . S
C715 C718 1.463 . S
C715 C720 1.350 . S
C715 N723 1.427 . S
C716 H707 0.930 . S
C716 C714 1.378 . S
C716 C717 1.367 . S
C717 C716 1.367 . S
C717 C719 1.433 . S
C718 C714 1.350 . S
C718 C715 1.463 . S
C718 N722 1.427 . S
C719 H709 0.929 . S
C719 C717 1.433 . S
C719 N722 1.384 . S
C720 H711 0.929 . S
C720 C712 1.378 . S
C720 C715 1.350 . S
C721 H708 0.929 . S
C721 C713 1.433 . S
C721 N723 1.384 . S
N722 C718 1.427 . S
N722 C719 1.384 . S
N723 C715 1.427 . S
N723 C721 1.384 . S
H724 C730 0.930 . S
H725 C734 0.930 . S
H726 C739 0.929 . S
H727 C737 0.929 . S
H728 C732 0.929 . S
H729 C738 0.929 . S
C730 H724 0.930 . S
C730 C731 1.367 . S
C730 C738 1.378 . S
C731 C730 1.367 . S
C731 C739 1.433 . S
C732 H728 0.929 . S
C732 C734 1.378 . S
C732 C736 1.350 . S
C733 C736 1.463 . S
C733 C738 1.350 . S
C733 N741 1.427 . S
C734 H725 0.930 . S
C734 C732 1.378 . S
C734 C735 1.367 . S
C735 C734 1.367 . S
C735 C737 1.433 . S
C736 C732 1.350 . S
C736 C733 1.463 . S
C736 N740 1.427 . S
C737 H727 0.929 . S
C737 C735 1.433 . S
C737 N740 1.384 . S
C738 H729 0.929 . S
C738 C730 1.378 . S
C738 C733 1.350 . S
C739 H726 0.929 . S
C739 C731 1.433 . S
C739 N741 1.384 . S
N740 C736 1.427 . S
N740 C737 1.384 . S
N741 C733 1.427 . S
N741 C739 1.384 . S
H742 C748 0.930 . S
H743 C752 0.930 . S
H744 C757 0.929 . S
H745 C755 0.929 . S
H746 C750 0.929 . S
H747 C756 0.929 . S
C748 H742 0.930 . S
C748 C749 1.367 . S
C748 C756 1.378 . S
C749 C748 1.367 . S
C749 C757 1.433 . S
C750 H746 0.929 . S
C750 C752 1.378 . S
C750 C754 1.350 . S
C751 C754 1.463 . S
C751 C756 1.350 . S
C751 N759 1.427 . S
C752 H743 0.930 . S
C752 C750 1.378 . S
C752 C753 1.367 . S
C753 C752 1.367 . S
C753 C755 1.433 . S
C754 C750 1.350 . S
C754 C751 1.463 . S
C754 N758 1.427 . S
C755 H745 0.929 . S
C755 C753 1.433 . S
C755 N758 1.384 . S
C756 H747 0.929 . S
C756 C748 1.378 . S
C756 C751 1.350 . S
C757 H744 0.929 . S
C757 C749 1.433 . S
C757 N759 1.384 . S
N758 C754 1.427 . S
N758 C755 1.384 . S
N759 C751 1.427 . S
N759 C757 1.384 . S
H760 C766 0.930 . S
H761 C770 0.930 . S
H762 C775 0.929 . S
H763 C773 0.929 . S
H764 C768 0.929 . S
H765 C774 0.929 . S
C766 H760 0.930 . S
C766 C767 1.367 . S
C766 C774 1.378 . S
C767 C766 1.367 . S
C767 C775 1.433 . S
C768 H764 0.929 . S
C768 C770 1.378 . S
C768 C772 1.350 . S
C769 C772 1.463 . S
C769 C774 1.350 1_556 S
C769 N777 1.427 . S
C770 H761 0.930 . S
C770 C768 1.378 . S
C770 C771 1.367 . S
C771 C770 1.367 . S
C771 C773 1.433 . S
C772 C768 1.350 . S
C772 C769 1.463 . S
C772 N776 1.427 . S
C773 H763 0.929 . S
C773 C771 1.433 . S
C773 N776 1.384 . S
C774 H765 0.929 . S
C774 C766 1.378 . S
C774 C769 1.350 1_554 S
C775 H762 0.929 . S
C775 C767 1.433 . S
C775 N777 1.384 1_554 S
N776 C772 1.427 . S
N776 C773 1.384 . S
N777 C769 1.427 . S
N777 C775 1.384 1_556 S
H778 C784 0.930 . S
H779 C788 0.930 . S
H780 C793 0.929 . S
H781 C791 0.929 . S
H782 C786 0.929 . S
H783 C792 0.929 . S
C784 H778 0.930 . S
C784 C785 1.367 . S
C784 C792 1.378 . S
C785 C784 1.367 . S
C785 C793 1.433 . S
C786 H782 0.929 . S
C786 C788 1.378 . S
C786 C790 1.350 . S
C787 C790 1.463 . S
C787 C792 1.350 . S
C787 N795 1.427 . S
C788 H779 0.930 . S
C788 C786 1.378 . S
C788 C789 1.367 . S
C789 C788 1.367 . S
C789 C791 1.433 . S
C790 C786 1.350 . S
C790 C787 1.463 . S
C790 N794 1.427 . S
C791 H781 0.929 . S
C791 C789 1.433 . S
C791 N794 1.384 . S
C792 H783 0.929 . S
C792 C784 1.378 . S
C792 C787 1.350 . S
C793 H780 0.929 . S
C793 C785 1.433 . S
C793 N795 1.384 . S
N794 C790 1.427 . S
N794 C791 1.384 . S
N795 C787 1.427 . S
N795 C793 1.384 . S
H796 C802 0.930 . S
H797 C806 0.930 . S
H798 C811 0.929 . S
H799 C809 0.929 . S
H800 C804 0.929 . S
H801 C810 0.929 . S
C802 H796 0.930 . S
C802 C803 1.367 . S
C802 C810 1.378 . S
C803 C802 1.367 . S
C803 C811 1.433 . S
C804 H800 0.929 . S
C804 C806 1.378 . S
C804 C808 1.350 . S
C805 C808 1.463 . S
C805 C810 1.350 . S
C805 N813 1.427 . S
C806 H797 0.930 . S
C806 C804 1.378 . S
C806 C807 1.367 . S
C807 C806 1.367 . S
C807 C809 1.433 . S
C808 C804 1.350 . S
C808 C805 1.463 . S
C808 N812 1.427 . S
C809 H799 0.929 . S
C809 C807 1.433 . S
C809 N812 1.384 . S
C810 H801 0.929 . S
C810 C802 1.378 . S
C810 C805 1.350 . S
C811 H798 0.929 . S
C811 C803 1.433 . S
C811 N813 1.384 . S
N812 C808 1.427 . S
N812 C809 1.384 . S
N813 C805 1.427 . S
N813 C811 1.384 . S
H814 C820 0.930 . S
H815 C824 0.930 . S
H816 C829 0.929 . S
H817 C827 0.929 . S
H818 C822 0.929 . S
H819 C828 0.929 . S
C820 H814 0.930 . S
C820 C821 1.367 . S
C820 C828 1.378 . S
C821 C820 1.367 . S
C821 C829 1.433 . S
C822 H818 0.929 . S
C822 C824 1.378 . S
C822 C826 1.350 . S
C823 C826 1.463 . S
C823 C828 1.350 . S
C823 N831 1.427 . S
C824 H815 0.930 . S
C824 C822 1.378 . S
C824 C825 1.367 . S
C825 C824 1.367 . S
C825 C827 1.433 . S
C826 C822 1.350 . S
C826 C823 1.463 . S
C826 N830 1.427 . S
C827 H817 0.929 . S
C827 C825 1.433 . S
C827 N830 1.384 . S
C828 H819 0.929 . S
C828 C820 1.378 . S
C828 C823 1.350 . S
C829 H816 0.929 . S
C829 C821 1.433 . S
C829 N831 1.384 . S
N830 C826 1.427 . S
N830 C827 1.384 . S
N831 C823 1.427 . S
N831 C829 1.384 . S
H832 C838 0.930 . S
H833 C842 0.930 . S
H834 C847 0.929 . S
H835 C845 0.929 . S
H836 C840 0.929 . S
H837 C846 0.929 . S
C838 H832 0.930 . S
C838 C839 1.367 . S
C838 C846 1.378 . S
C839 C838 1.367 . S
C839 C847 1.433 . S
C840 H836 0.929 . S
C840 C842 1.378 . S
C840 C844 1.350 . S
C841 C844 1.463 . S
C841 C846 1.350 . S
C841 N849 1.427 . S
C842 H833 0.930 . S
C842 C840 1.378 . S
C842 C843 1.367 . S
C843 C842 1.367 . S
C843 C845 1.433 . S
C844 C840 1.350 . S
C844 C841 1.463 . S
C844 N848 1.427 . S
C845 H835 0.929 . S
C845 C843 1.433 . S
C845 N848 1.384 . S
C846 H837 0.929 . S
C846 C838 1.378 . S
C846 C841 1.350 . S
C847 H834 0.929 . S
C847 C839 1.433 . S
C847 N849 1.384 . S
N848 C844 1.427 . S
N848 C845 1.384 . S
N849 C841 1.427 . S
N849 C847 1.384 . S
H850 C856 0.930 . S
H851 C860 0.930 . S
H852 C865 0.929 . S
H853 C863 0.929 . S
H854 C858 0.929 . S
H855 C864 0.929 1_565 S
C856 H850 0.930 . S
C856 C857 1.367 . S
C856 C864 1.378 . S
C857 C856 1.367 . S
C857 C865 1.433 . S
C858 H854 0.929 . S
C858 C860 1.378 . S
C858 C862 1.350 . S
C859 C862 1.463 . S
C859 C864 1.350 . S
C859 N867 1.427 . S
C860 H851 0.930 . S
C860 C858 1.378 . S
C860 C861 1.367 1_545 S
C861 C860 1.367 1_565 S
C861 C863 1.433 . S
C862 C858 1.350 . S
C862 C859 1.463 . S
C862 N866 1.427 1_545 S
C863 H853 0.929 . S
C863 C861 1.433 . S
C863 N866 1.384 . S
C864 H855 0.929 1_545 S
C864 C856 1.378 . S
C864 C859 1.350 . S
C865 H852 0.929 . S
C865 C857 1.433 . S
C865 N867 1.384 . S
N866 C862 1.427 1_565 S
N866 C863 1.384 . S
N867 C859 1.427 . S
N867 C865 1.384 . S
H868 C874 0.930 . S
H869 C878 0.930 . S
H870 C883 0.929 . S
H871 C881 0.929 . S
H872 C876 0.929 1_554 S
H873 C882 0.929 . S
C874 H868 0.930 . S
C874 C875 1.367 . S
C874 C882 1.378 . S
C875 C874 1.367 . S
C875 C883 1.433 . S
C876 H872 0.929 1_556 S
C876 C878 1.378 . S
C876 C880 1.350 1_556 S
C877 C880 1.463 . S
C877 C882 1.350 . S
C877 N885 1.427 . S
C878 H869 0.930 . S
C878 C876 1.378 . S
C878 C879 1.367 . S
C879 C878 1.367 . S
C879 C881 1.433 . S
C880 C876 1.350 1_554 S
C880 C877 1.463 . S
C880 N884 1.427 1_554 S
C881 H871 0.929 . S
C881 C879 1.433 . S
C881 N884 1.384 . S
C882 H873 0.929 . S
C882 C874 1.378 . S
C882 C877 1.350 . S
C883 H870 0.929 . S
C883 C875 1.433 . S
C883 N885 1.384 . S
N884 C880 1.427 1_556 S
N884 C881 1.384 . S
N885 C877 1.427 . S
N885 C883 1.384 . S
H886 C892 0.930 . S
H887 C896 0.930 . S
H888 C901 0.929 . S
H889 C899 0.929 . S
H890 C894 0.929 . S
H891 C900 0.929 . S
C892 H886 0.930 . S
C892 C893 1.367 1_565 S
C892 C900 1.378 . S
C893 C892 1.367 1_545 S
C893 C901 1.433 . S
C894 H890 0.929 . S
C894 C896 1.378 . S
C894 C898 1.350 . S
C895 C898 1.463 . S
C895 C900 1.350 . S
C895 N903 1.411 1_565 S
C896 H887 0.930 . S
C896 C894 1.378 . S
C896 C897 1.367 . S
C897 C896 1.367 . S
C897 C899 1.433 . S
C898 C894 1.350 . S
C898 C895 1.463 . S
C898 N902 1.427 . S
C899 H889 0.929 . S
C899 C897 1.433 . S
C899 N902 1.384 . S
C900 H891 0.929 . S
C900 C892 1.378 . S
C900 C895 1.350 . S
C901 H888 0.929 . S
C901 C893 1.433 . S
C901 N903 1.395 . S
N902 C898 1.427 . S
N902 C899 1.384 . S
N903 C895 1.411 1_545 S
N903 C901 1.395 . S
H904 C910 0.930 . S
H905 C914 0.930 . S
H906 C919 0.929 . S
H907 C917 0.929 . S
H908 C912 0.929 . S
H909 C918 0.929 . S
C910 H904 0.930 . S
C910 C911 1.367 . S
C910 C918 1.378 . S
C911 C910 1.367 . S
C911 C919 1.433 . S
C912 H908 0.929 . S
C912 C914 1.378 . S
C912 C916 1.350 . S
C913 C916 1.463 . S
C913 C918 1.350 . S
C913 N921 1.427 . S
C914 H905 0.930 . S
C914 C912 1.378 . S
C914 C915 1.367 . S
C915 C914 1.367 . S
C915 C917 1.433 . S
C916 C912 1.350 . S
C916 C913 1.463 . S
C916 N920 1.427 . S
C917 H907 0.929 . S
C917 C915 1.433 . S
C917 N920 1.384 . S
C918 H909 0.929 . S
C918 C910 1.378 . S
C918 C913 1.350 . S
C919 H906 0.929 . S
C919 C911 1.433 . S
C919 N921 1.384 . S
N920 C916 1.427 . S
N920 C917 1.384 . S
N921 C913 1.427 . S
N921 C919 1.384 . S
H922 C928 0.930 . S
H923 C932 0.930 . S
H924 C937 0.929 . S
H925 C935 0.929 . S
H926 C930 0.929 . S
H927 C936 0.929 . S
C928 H922 0.930 . S
C928 C929 1.367 . S
C928 C936 1.378 . S
C929 C928 1.367 . S
C929 C937 1.433 . S
C930 H926 0.929 . S
C930 C932 1.378 . S
C930 C934 1.350 1_545 S
C931 C934 1.463 . S
C931 C936 1.350 . S
C931 N939 1.427 . S
C932 H923 0.930 . S
C932 C930 1.378 . S
C932 C933 1.367 . S
C933 C932 1.367 . S
C933 C935 1.433 1_545 S
C934 C930 1.350 1_565 S
C934 C931 1.463 . S
C934 N938 1.427 . S
C935 H925 0.929 . S
C935 C933 1.433 1_565 S
C935 N938 1.384 . S
C936 H927 0.929 . S
C936 C928 1.378 . S
C936 C931 1.350 . S
C937 H924 0.929 . S
C937 C929 1.433 . S
C937 N939 1.384 . S
N938 C934 1.427 . S
N938 C935 1.384 . S
N939 C931 1.427 . S
N939 C937 1.384 . S
H940 C946 0.930 . S
H941 C950 0.930 . S
H942 C955 0.929 . S
H943 C953 0.929 . S
H944 C948 0.929 . S
H945 C954 0.929 . S
C946 H940 0.930 . S
C946 C947 1.367 . S
C946 C954 1.378 1_554 S
C947 C946 1.367 . S
C947 C955 1.433 . S
C948 H944 0.929 . S
C948 C950 1.378 . S
C948 C952 1.350 . S
C949 C952 1.463 . S
C949 C954 1.350 . S
C949 N957 1.427 1_556 S
C950 H941 0.930 . S
C950 C948 1.378 . S
C950 C951 1.367 . S
C951 C950 1.367 . S
C951 C953 1.433 . S
C952 C948 1.350 . S
C952 C949 1.463 . S
C952 N956 1.427 . S
C953 H943 0.929 . S
C953 C951 1.433 . S
C953 N956 1.384 . S
C954 H945 0.929 . S
C954 C946 1.378 1_556 S
C954 C949 1.350 . S
C955 H942 0.929 . S
C955 C947 1.433 . S
C955 N957 1.384 . S
N956 C952 1.427 . S
N956 C953 1.384 . S
N957 C949 1.427 1_554 S
N957 C955 1.384 . S
H958 C964 0.930 . S
H959 C968 0.930 . S
H960 C973 0.929 . S
H961 C971 0.929 . S
H962 C966 0.929 . S
H963 C972 0.929 . S
C964 H958 0.930 . S
C964 C965 1.367 . S
C964 C972 1.378 . S
C965 C964 1.367 . S
C965 C973 1.433 . S
C966 H962 0.929 . S
C966 C968 1.378 . S
C966 C970 1.350 1_565 S
C967 C970 1.463 . S
C967 C972 1.350 . S
C967 N975 1.427 . S
C968 H959 0.930 . S
C968 C966 1.378 . S
C968 C969 1.367 . S
C969 C968 1.367 . S
C969 C971 1.433 1_565 S
C970 C966 1.350 1_545 S
C970 C967 1.463 . S
C970 N974 1.427 . S
C971 H961 0.929 . S
C971 C969 1.433 1_545 S
C971 N974 1.384 . S
C972 H963 0.929 . S
C972 C964 1.378 . S
C972 C967 1.350 . S
C973 H960 0.929 . S
C973 C965 1.433 . S
C973 N975 1.384 . S
N974 C970 1.427 . S
N974 C971 1.384 . S
N975 C967 1.427 . S
N975 C973 1.384 . S
H976 C982 0.930 . S
H977 C986 0.930 . S
H978 C991 0.929 . S
H979 C989 0.929 . S
H980 C984 0.929 . S
H981 C990 0.929 . S
C982 H976 0.930 . S
C982 C983 1.367 . S
C982 C990 1.378 . S
C983 C982 1.367 . S
C983 C991 1.433 . S
C984 H980 0.929 . S
C984 C986 1.378 . S
C984 C988 1.350 . S
C985 C988 1.463 . S
C985 C990 1.350 . S
C985 N993 1.427 . S
C986 H977 0.930 . S
C986 C984 1.378 . S
C986 C987 1.367 . S
C987 C986 1.367 . S
C987 C989 1.433 . S
C988 C984 1.350 . S
C988 C985 1.463 . S
C988 N992 1.427 . S
C989 H979 0.929 . S
C989 C987 1.433 . S
C989 N992 1.384 . S
C990 H981 0.929 . S
C990 C982 1.378 . S
C990 C985 1.350 . S
C991 H978 0.929 . S
C991 C983 1.433 . S
C991 N993 1.384 . S
N992 C988 1.427 . S
N992 C989 1.384 . S
N993 C985 1.427 . S
N993 C991 1.384 . S
H994 C1000 0.930 . S
H995 C1004 0.930 . S
H996 C1009 0.929 . S
H997 C1007 0.929 . S
H998 C1002 0.929 . S
H999 C1008 0.929 . S
C1000 H994 0.930 . S
C1000 C1001 1.367 . S
C1000 C1008 1.378 . S
C1001 C1000 1.367 . S
C1001 C1009 1.433 . S
C1002 H998 0.929 . S
C1002 C1004 1.378 . S
C1002 C1006 1.350 . S
C1003 C1006 1.463 . S
C1003 C1008 1.350 . S
C1003 N1011 1.427 . S
C1004 H995 0.930 . S
C1004 C1002 1.378 . S
C1004 C1005 1.367 . S
C1005 C1004 1.367 . S
C1005 C1007 1.433 . S
C1006 C1002 1.350 . S
C1006 C1003 1.463 . S
C1006 N1010 1.427 . S
C1007 H997 0.929 . S
C1007 C1005 1.433 . S
C1007 N1010 1.384 . S
C1008 H999 0.929 . S
C1008 C1000 1.378 . S
C1008 C1003 1.350 . S
C1009 H996 0.929 . S
C1009 C1001 1.433 . S
C1009 N1011 1.384 . S
N1010 C1006 1.427 . S
N1010 C1007 1.384 . S
N1011 C1003 1.427 . S
N1011 C1009 1.384 . S
H1012 C1018 0.930 . S
H1013 C1022 0.930 . S
H1014 C1027 0.929 . S
H1015 C1025 0.929 . S
H1016 C1020 0.929 . S
H1017 C1026 0.929 . S
C1018 H1012 0.930 . S
C1018 C1019 1.367 . S
C1018 C1026 1.378 . S
C1019 C1018 1.367 . S
C1019 C1027 1.433 . S
C1020 H1016 0.929 . S
C1020 C1022 1.378 . S
C1020 C1024 1.350 . S
C1021 C1024 1.463 1_655 S
C1021 C1026 1.350 . S
C1021 N1029 1.427 . S
C1022 H1013 0.930 . S
C1022 C1020 1.378 . S
C1022 C1023 1.367 . S
C1023 C1022 1.367 . S
C1023 C1025 1.433 . S
C1024 C1020 1.350 . S
C1024 C1021 1.463 1_455 S
C1024 N1028 1.427 . S
C1025 H1015 0.929 . S
C1025 C1023 1.433 . S
C1025 N1028 1.384 . S
C1026 H1017 0.929 . S
C1026 C1018 1.378 . S
C1026 C1021 1.350 . S
C1027 H1014 0.929 . S
C1027 C1019 1.433 . S
C1027 N1029 1.384 . S
N1028 C1024 1.427 . S
N1028 C1025 1.384 . S
N1029 C1021 1.427 . S
N1029 C1027 1.384 . S
H1030 C1036 0.930 . S
H1031 C1040 0.930 . S
H1032 C1045 0.929 . S
H1033 C1043 0.929 . S
H1034 C1038 0.929 . S
H1035 C1044 0.929 . S
C1036 H1030 0.930 . S
C1036 C1037 1.367 . S
C1036 C1044 1.378 . S
C1037 C1036 1.367 . S
C1037 C1045 1.433 . S
C1038 H1034 0.929 . S
C1038 C1040 1.378 . S
C1038 C1042 1.350 . S
C1039 C1042 1.463 1_655 S
C1039 C1044 1.350 . S
C1039 N1047 1.427 1_655 S
C1040 H1031 0.930 . S
C1040 C1038 1.378 . S
C1040 C1041 1.367 . S
C1041 C1040 1.367 . S
C1041 C1043 1.433 . S
C1042 C1038 1.350 . S
C1042 C1039 1.463 1_455 S
C1042 N1046 1.427 1_455 S
C1043 H1033 0.929 . S
C1043 C1041 1.433 . S
C1043 N1046 1.384 1_455 S
C1044 H1035 0.929 . S
C1044 C1036 1.378 . S
C1044 C1039 1.350 . S
C1045 H1032 0.929 . S
C1045 C1037 1.433 . S
C1045 N1047 1.384 1_655 S
N1046 C1042 1.427 1_655 S
N1046 C1043 1.384 1_655 S
N1047 C1039 1.427 1_455 S
N1047 C1045 1.384 1_455 S
H1048 C1054 0.930 . S
H1049 C1058 0.930 . S
H1050 C1063 0.929 . S
H1051 C1061 0.929 . S
H1052 C1056 0.929 . S
H1053 C1062 0.929 . S
C1054 H1048 0.930 . S
C1054 C1055 1.367 . S
C1054 C1062 1.378 . S
C1055 C1054 1.367 . S
C1055 C1063 1.433 . S
C1056 H1052 0.929 . S
C1056 C1058 1.378 . S
C1056 C1060 1.350 . S
C1057 C1060 1.463 . S
C1057 C1062 1.350 . S
C1057 N1065 1.427 . S
C1058 H1049 0.930 . S
C1058 C1056 1.378 . S
C1058 C1059 1.367 . S
C1059 C1058 1.367 . S
C1059 C1061 1.433 . S
C1060 C1056 1.350 . S
C1060 C1057 1.463 . S
C1060 N1064 1.427 . S
C1061 H1051 0.929 . S
C1061 C1059 1.433 . S
C1061 N1064 1.384 . S
C1062 H1053 0.929 . S
C1062 C1054 1.378 . S
C1062 C1057 1.350 . S
C1063 H1050 0.929 . S
C1063 C1055 1.433 . S
C1063 N1065 1.384 . S
N1064 C1060 1.427 . S
N1064 C1061 1.384 . S
N1065 C1057 1.427 . S
N1065 C1063 1.384 . S
H1066 C1072 0.930 . S
H1067 C1076 0.930 . S
H1068 C1081 0.929 . S
H1069 C1079 0.929 . S
H1070 C1074 0.929 . S
H1071 C1080 0.929 . S
C1072 H1066 0.930 . S
C1072 C1073 1.367 . S
C1072 C1080 1.378 . S
C1073 C1072 1.367 . S
C1073 C1081 1.433 . S
C1074 H1070 0.929 . S
C1074 C1076 1.378 . S
C1074 C1078 1.350 . S
C1075 C1078 1.463 . S
C1075 C1080 1.350 . S
C1075 N1083 1.427 . S
C1076 H1067 0.930 . S
C1076 C1074 1.378 . S
C1076 C1077 1.367 . S
C1077 C1076 1.367 . S
C1077 C1079 1.433 . S
C1078 C1074 1.350 . S
C1078 C1075 1.463 . S
C1078 N1082 1.427 . S
C1079 H1069 0.929 . S
C1079 C1077 1.433 . S
C1079 N1082 1.384 . S
C1080 H1071 0.929 . S
C1080 C1072 1.378 . S
C1080 C1075 1.350 . S
C1081 H1068 0.929 . S
C1081 C1073 1.433 . S
C1081 N1083 1.384 . S
N1082 C1078 1.427 . S
N1082 C1079 1.384 . S
N1083 C1075 1.427 . S
N1083 C1081 1.384 . S
H1084 C1090 0.930 . S
H1085 C1094 0.930 . S
H1086 C1099 0.929 . S
H1087 C1097 0.929 . S
H1088 C1092 0.929 . S
H1089 C1098 0.929 . S
C1090 H1084 0.930 . S
C1090 C1091 1.367 . S
C1090 C1098 1.378 . S
C1091 C1090 1.367 . S
C1091 C1099 1.433 . S
C1092 H1088 0.929 . S
C1092 C1094 1.378 . S
C1092 C1096 1.350 . S
C1093 C1096 1.463 1_455 S
C1093 C1098 1.350 . S
C1093 N1101 1.427 . S
C1094 H1085 0.930 . S
C1094 C1092 1.378 . S
C1094 C1095 1.367 . S
C1095 C1094 1.367 . S
C1095 C1097 1.433 . S
C1096 C1092 1.350 . S
C1096 C1093 1.463 1_655 S
C1096 N1100 1.427 . S
C1097 H1087 0.929 . S
C1097 C1095 1.433 . S
C1097 N1100 1.384 . S
C1098 H1089 0.929 . S
C1098 C1090 1.378 . S
C1098 C1093 1.350 . S
C1099 H1086 0.929 . S
C1099 C1091 1.433 . S
C1099 N1101 1.384 . S
N1100 C1096 1.427 . S
N1100 C1097 1.384 . S
N1101 C1093 1.427 . S
N1101 C1099 1.384 . S
H1102 C1108 0.930 . S
H1103 C1112 0.930 . S
H1104 C1117 0.929 . S
H1105 C1115 0.929 . S
H1106 C1110 0.929 . S
H1107 C1116 0.929 . S
C1108 H1102 0.930 . S
C1108 C1109 1.367 . S
C1108 C1116 1.378 . S
C1109 C1108 1.367 . S
C1109 C1117 1.433 . S
C1110 H1106 0.929 . S
C1110 C1112 1.378 . S
C1110 C1114 1.350 . S
C1111 C1114 1.463 1_455 S
C1111 C1116 1.350 . S
C1111 N1119 1.427 . S
C1112 H1103 0.930 . S
C1112 C1110 1.378 . S
C1112 C1113 1.367 . S
C1113 C1112 1.367 . S
C1113 C1115 1.433 . S
C1114 C1110 1.350 . S
C1114 C1111 1.463 1_655 S
C1114 N1118 1.427 . S
C1115 H1105 0.929 . S
C1115 C1113 1.433 . S
C1115 N1118 1.384 . S
C1116 H1107 0.929 . S
C1116 C1108 1.378 . S
C1116 C1111 1.350 . S
C1117 H1104 0.929 . S
C1117 C1109 1.433 . S
C1117 N1119 1.384 . S
N1118 C1114 1.427 . S
N1118 C1115 1.384 . S
N1119 C1111 1.427 . S
N1119 C1117 1.384 . S
H1120 C1126 0.930 . S
H1121 C1130 0.930 . S
H1122 C1135 0.929 . S
H1123 C1133 0.929 . S
H1124 C1128 0.929 . S
H1125 C1134 0.929 . S
C1126 H1120 0.930 . S
C1126 C1127 1.367 . S
C1126 C1134 1.378 . S
C1127 C1126 1.367 . S
C1127 C1135 1.433 . S
C1128 H1124 0.929 . S
C1128 C1130 1.378 . S
C1128 C1132 1.350 . S
C1129 C1132 1.463 . S
C1129 C1134 1.350 . S
C1129 N1137 1.427 . S
C1130 H1121 0.930 . S
C1130 C1128 1.378 . S
C1130 C1131 1.367 . S
C1131 C1130 1.367 . S
C1131 C1133 1.433 . S
C1132 C1128 1.350 . S
C1132 C1129 1.463 . S
C1132 N1136 1.427 . S
C1133 H1123 0.929 . S
C1133 C1131 1.433 . S
C1133 N1136 1.384 . S
C1134 H1125 0.929 . S
C1134 C1126 1.378 . S
C1134 C1129 1.350 . S
C1135 H1122 0.929 . S
C1135 C1127 1.433 . S
C1135 N1137 1.384 . S
N1136 C1132 1.427 . S
N1136 C1133 1.384 . S
N1137 C1129 1.427 . S
N1137 C1135 1.384 . S
H1138 C1144 0.930 . S
H1139 C1148 0.930 . S
H1140 C1153 0.929 . S
H1141 C1151 0.929 . S
H1142 C1146 0.929 . S
H1143 C1152 0.929 . S
C1144 H1138 0.930 . S
C1144 C1145 1.367 . S
C1144 C1152 1.378 . S
C1145 C1144 1.367 . S
C1145 C1153 1.433 . S
C1146 H1142 0.929 . S
C1146 C1148 1.378 . S
C1146 C1150 1.350 . S
C1147 C1150 1.463 . S
C1147 C1152 1.350 . S
C1147 N1155 1.427 . S
C1148 H1139 0.930 . S
C1148 C1146 1.378 . S
C1148 C1149 1.367 . S
C1149 C1148 1.367 . S
C1149 C1151 1.433 . S
C1150 C1146 1.350 . S
C1150 C1147 1.463 . S
C1150 N1154 1.427 . S
C1151 H1141 0.929 . S
C1151 C1149 1.433 . S
C1151 N1154 1.384 . S
C1152 H1143 0.929 . S
C1152 C1144 1.378 . S
C1152 C1147 1.350 . S
C1153 H1140 0.929 . S
C1153 C1145 1.433 . S
C1153 N1155 1.384 . S
N1154 C1150 1.427 . S
N1154 C1151 1.384 . S
N1155 C1147 1.427 . S
N1155 C1153 1.384 . S
H1156 C1162 0.930 . S
H1157 C1166 0.930 . S
H1158 C1171 0.929 . S
H1159 C1169 0.929 . S
H1160 C1164 0.929 . S
H1161 C1170 0.929 . S
C1162 H1156 0.930 . S
C1162 C1163 1.367 . S
C1162 C1170 1.378 . S
C1163 C1162 1.367 . S
C1163 C1171 1.433 . S
C1164 H1160 0.929 . S
C1164 C1166 1.378 . S
C1164 C1168 1.350 . S
C1165 C1168 1.463 . S
C1165 C1170 1.350 . S
C1165 N1173 1.427 . S
C1166 H1157 0.930 . S
C1166 C1164 1.378 . S
C1166 C1167 1.367 . S
C1167 C1166 1.367 . S
C1167 C1169 1.433 . S
C1168 C1164 1.350 . S
C1168 C1165 1.463 . S
C1168 N1172 1.427 . S
C1169 H1159 0.929 . S
C1169 C1167 1.433 . S
C1169 N1172 1.384 . S
C1170 H1161 0.929 . S
C1170 C1162 1.378 . S
C1170 C1165 1.350 . S
C1171 H1158 0.929 . S
C1171 C1163 1.433 . S
C1171 N1173 1.384 . S
N1172 C1168 1.427 . S
N1172 C1169 1.384 . S
N1173 C1165 1.427 . S
N1173 C1171 1.384 . S
H1174 C1180 0.930 . S
H1175 C1184 0.930 . S
H1176 C1189 0.929 . S
H1177 C1187 0.929 . S
H1178 C1182 0.929 . S
H1179 C1188 0.929 . S
C1180 H1174 0.930 . S
C1180 C1181 1.367 . S
C1180 C1188 1.378 . S
C1181 C1180 1.367 . S
C1181 C1189 1.433 . S
C1182 H1178 0.929 . S
C1182 C1184 1.378 . S
C1182 C1186 1.350 . S
C1183 C1186 1.463 . S
C1183 C1188 1.350 . S
C1183 N1191 1.427 . S
C1184 H1175 0.930 . S
C1184 C1182 1.378 . S
C1184 C1185 1.367 . S
C1185 C1184 1.367 . S
C1185 C1187 1.433 . S
C1186 C1182 1.350 . S
C1186 C1183 1.463 . S
C1186 N1190 1.427 . S
C1187 H1177 0.929 . S
C1187 C1185 1.433 . S
C1187 N1190 1.384 . S
C1188 H1179 0.929 . S
C1188 C1180 1.378 . S
C1188 C1183 1.350 . S
C1189 H1176 0.929 . S
C1189 C1181 1.433 . S
C1189 N1191 1.384 . S
N1190 C1186 1.427 . S
N1190 C1187 1.384 . S
N1191 C1183 1.427 . S
N1191 C1189 1.384 . S
H1192 C1198 0.930 . S
H1193 C1202 0.930 . S
H1194 C1207 0.929 . S
H1195 C1205 0.929 . S
H1196 C1200 0.929 . S
H1197 C1206 0.929 . S
C1198 H1192 0.930 . S
C1198 C1199 1.367 . S
C1198 C1206 1.378 . S
C1199 C1198 1.367 . S
C1199 C1207 1.433 . S
C1200 H1196 0.929 . S
C1200 C1202 1.378 . S
C1200 C1204 1.350 . S
C1201 C1204 1.463 . S
C1201 C1206 1.350 . S
C1201 N1209 1.427 . S
C1202 H1193 0.930 . S
C1202 C1200 1.378 . S
C1202 C1203 1.367 . S
C1203 C1202 1.367 . S
C1203 C1205 1.433 . S
C1204 C1200 1.350 . S
C1204 C1201 1.463 . S
C1204 N1208 1.427 . S
C1205 H1195 0.929 . S
C1205 C1203 1.433 . S
C1205 N1208 1.384 . S
C1206 H1197 0.929 . S
C1206 C1198 1.378 . S
C1206 C1201 1.350 . S
C1207 H1194 0.929 . S
C1207 C1199 1.433 . S
C1207 N1209 1.384 . S
N1208 C1204 1.427 . S
N1208 C1205 1.384 . S
N1209 C1201 1.427 . S
N1209 C1207 1.384 . S
H1210 C1216 0.930 . S
H1211 C1220 0.930 . S
H1212 C1225 0.929 . S
H1213 C1223 0.929 . S
H1214 C1218 0.929 . S
H1215 C1224 0.929 . S
C1216 H1210 0.930 . S
C1216 C1217 1.367 . S
C1216 C1224 1.378 . S
C1217 C1216 1.367 . S
C1217 C1225 1.433 . S
C1218 H1214 0.929 . S
C1218 C1220 1.378 . S
C1218 C1222 1.350 . S
C1219 C1222 1.463 . S
C1219 C1224 1.350 . S
C1219 N1227 1.427 . S
C1220 H1211 0.930 . S
C1220 C1218 1.378 . S
C1220 C1221 1.367 . S
C1221 C1220 1.367 . S
C1221 C1223 1.433 . S
C1222 C1218 1.350 . S
C1222 C1219 1.463 . S
C1222 N1226 1.427 . S
C1223 H1213 0.929 . S
C1223 C1221 1.433 . S
C1223 N1226 1.384 . S
C1224 H1215 0.929 . S
C1224 C1216 1.378 . S
C1224 C1219 1.350 . S
C1225 H1212 0.929 . S
C1225 C1217 1.433 . S
C1225 N1227 1.384 . S
N1226 C1222 1.427 . S
N1226 C1223 1.384 . S
N1227 C1219 1.427 . S
N1227 C1225 1.384 . S
H1228 C1234 0.930 . S
H1229 C1238 0.930 . S
H1230 C1243 0.929 . S
H1231 C1241 0.929 . S
H1232 C1236 0.929 . S
H1233 C1242 0.929 . S
C1234 H1228 0.930 . S
C1234 C1235 1.367 . S
C1234 C1242 1.378 . S
C1235 C1234 1.367 . S
C1235 C1243 1.433 . S
C1236 H1232 0.929 . S
C1236 C1238 1.378 . S
C1236 C1240 1.350 . S
C1237 C1240 1.463 . S
C1237 C1242 1.350 . S
C1237 N1245 1.427 . S
C1238 H1229 0.930 . S
C1238 C1236 1.378 . S
C1238 C1239 1.367 . S
C1239 C1238 1.367 . S
C1239 C1241 1.433 . S
C1240 C1236 1.350 . S
C1240 C1237 1.463 . S
C1240 N1244 1.427 . S
C1241 H1231 0.929 . S
C1241 C1239 1.433 . S
C1241 N1244 1.384 . S
C1242 H1233 0.929 . S
C1242 C1234 1.378 . S
C1242 C1237 1.350 . S
C1243 H1230 0.929 . S
C1243 C1235 1.433 . S
C1243 N1245 1.384 . S
N1244 C1240 1.427 . S
N1244 C1241 1.384 . S
N1245 C1237 1.427 . S
N1245 C1243 1.384 . S
H1246 C1252 0.930 . S
H1247 C1256 0.930 . S
H1248 C1261 0.929 . S
H1249 C1259 0.929 . S
H1250 C1254 0.929 . S
H1251 C1260 0.929 . S
C1252 H1246 0.930 . S
C1252 C1253 1.367 . S
C1252 C1260 1.378 . S
C1253 C1252 1.367 . S
C1253 C1261 1.433 . S
C1254 H1250 0.929 . S
C1254 C1256 1.378 . S
C1254 C1258 1.350 . S
C1255 C1258 1.463 . S
C1255 C1260 1.350 . S
C1255 N1263 1.427 . S
C1256 H1247 0.930 . S
C1256 C1254 1.378 . S
C1256 C1257 1.367 . S
C1257 C1256 1.367 . S
C1257 C1259 1.433 . S
C1258 C1254 1.350 . S
C1258 C1255 1.463 . S
C1258 N1262 1.427 . S
C1259 H1249 0.929 . S
C1259 C1257 1.433 . S
C1259 N1262 1.384 . S
C1260 H1251 0.929 . S
C1260 C1252 1.378 . S
C1260 C1255 1.350 . S
C1261 H1248 0.929 . S
C1261 C1253 1.433 . S
C1261 N1263 1.384 . S
N1262 C1258 1.427 . S
N1262 C1259 1.384 . S
N1263 C1255 1.427 . S
N1263 C1261 1.384 . S
H1264 C1270 0.930 . S
H1265 C1274 0.930 . S
H1266 C1279 0.929 . S
H1267 C1277 0.929 . S
H1268 C1272 0.929 . S
H1269 C1278 0.929 . S
C1270 H1264 0.930 . S
C1270 C1271 1.367 . S
C1270 C1278 1.378 . S
C1271 C1270 1.367 . S
C1271 C1279 1.433 . S
C1272 H1268 0.929 . S
C1272 C1274 1.378 . S
C1272 C1276 1.350 . S
C1273 C1276 1.463 . S
C1273 C1278 1.350 . S
C1273 N1281 1.427 . S
C1274 H1265 0.930 . S
C1274 C1272 1.378 . S
C1274 C1275 1.367 . S
C1275 C1274 1.367 . S
C1275 C1277 1.433 . S
C1276 C1272 1.350 . S
C1276 C1273 1.463 . S
C1276 N1280 1.427 . S
C1277 H1267 0.929 . S
C1277 C1275 1.433 . S
C1277 N1280 1.384 . S
C1278 H1269 0.929 . S
C1278 C1270 1.378 . S
C1278 C1273 1.350 . S
C1279 H1266 0.929 . S
C1279 C1271 1.433 . S
C1279 N1281 1.384 . S
N1280 C1276 1.427 . S
N1280 C1277 1.384 . S
N1281 C1273 1.427 . S
N1281 C1279 1.384 . S
H1282 C1288 0.930 . S
H1283 C1292 0.930 . S
H1284 C1297 0.929 . S
H1285 C1295 0.929 . S
H1286 C1290 0.929 . S
H1287 C1296 0.929 . S
C1288 H1282 0.930 . S
C1288 C1289 1.367 . S
C1288 C1296 1.378 . S
C1289 C1288 1.367 . S
C1289 C1297 1.433 . S
C1290 H1286 0.929 . S
C1290 C1292 1.378 . S
C1290 C1294 1.350 . S
C1291 C1294 1.463 . S
C1291 C1296 1.350 . S
C1291 N1299 1.427 . S
C1292 H1283 0.930 . S
C1292 C1290 1.378 . S
C1292 C1293 1.367 . S
C1293 C1292 1.367 . S
C1293 C1295 1.433 . S
C1294 C1290 1.350 . S
C1294 C1291 1.463 . S
C1294 N1298 1.427 . S
C1295 H1285 0.929 . S
C1295 C1293 1.433 . S
C1295 N1298 1.384 . S
C1296 H1287 0.929 . S
C1296 C1288 1.378 . S
C1296 C1291 1.350 . S
C1297 H1284 0.929 . S
C1297 C1289 1.433 . S
C1297 N1299 1.384 . S
N1298 C1294 1.427 . S
N1298 C1295 1.384 . S
N1299 C1291 1.427 . S
N1299 C1297 1.384 . S
H1300 C1306 0.930 . S
H1301 C1310 0.930 . S
H1302 C1315 0.929 . S
H1303 C1313 0.929 . S
H1304 C1308 0.929 . S
H1305 C1314 0.929 . S
C1306 H1300 0.930 . S
C1306 C1307 1.367 . S
C1306 C1314 1.378 . S
C1307 C1306 1.367 . S
C1307 C1315 1.433 . S
C1308 H1304 0.929 . S
C1308 C1310 1.378 . S
C1308 C1312 1.350 . S
C1309 C1312 1.463 . S
C1309 C1314 1.350 . S
C1309 N1317 1.427 . S
C1310 H1301 0.930 . S
C1310 C1308 1.378 . S
C1310 C1311 1.367 . S
C1311 C1310 1.367 . S
C1311 C1313 1.433 . S
C1312 C1308 1.350 . S
C1312 C1309 1.463 . S
C1312 N1316 1.427 . S
C1313 H1303 0.929 . S
C1313 C1311 1.433 . S
C1313 N1316 1.384 . S
C1314 H1305 0.929 . S
C1314 C1306 1.378 . S
C1314 C1309 1.350 . S
C1315 H1302 0.929 . S
C1315 C1307 1.433 . S
C1315 N1317 1.384 . S
N1316 C1312 1.427 . S
N1316 C1313 1.384 . S
N1317 C1309 1.427 . S
N1317 C1315 1.384 . S
H1318 C1324 0.930 1_565 S
H1319 C1328 0.930 . S
H1320 C1333 0.929 . S
H1321 C1331 0.929 . S
H1322 C1326 0.929 . S
H1323 C1332 0.929 . S
C1324 H1318 0.930 1_545 S
C1324 C1325 1.367 . S
C1324 C1332 1.378 . S
C1325 C1324 1.367 . S
C1325 C1333 1.433 . S
C1326 H1322 0.929 . S
C1326 C1328 1.378 . S
C1326 C1330 1.350 . S
C1327 C1330 1.463 . S
C1327 C1332 1.350 . S
C1327 N1335 1.427 . S
C1328 H1319 0.930 . S
C1328 C1326 1.378 . S
C1328 C1329 1.367 . S
C1329 C1328 1.367 . S
C1329 C1331 1.433 . S
C1330 C1326 1.350 . S
C1330 C1327 1.463 . S
C1330 N1334 1.427 . S
C1331 H1321 0.929 . S
C1331 C1329 1.433 . S
C1331 N1334 1.384 . S
C1332 H1323 0.929 . S
C1332 C1324 1.378 . S
C1332 C1327 1.350 . S
C1333 H1320 0.929 . S
C1333 C1325 1.433 . S
C1333 N1335 1.384 . S
N1334 C1330 1.427 . S
N1334 C1331 1.384 . S
N1335 C1327 1.427 . S
N1335 C1333 1.384 . S
H1336 C1342 0.930 . S
H1337 C1346 0.930 . S
H1338 C1351 0.929 . S
H1339 C1349 0.929 . S
H1340 C1344 0.929 . S
H1341 C1350 0.929 . S
C1342 H1336 0.930 . S
C1342 C1343 1.367 . S
C1342 C1350 1.378 . S
C1343 C1342 1.367 . S
C1343 C1351 1.433 . S
C1344 H1340 0.929 . S
C1344 C1346 1.378 . S
C1344 C1348 1.350 . S
C1345 C1348 1.463 . S
C1345 C1350 1.350 . S
C1345 N1353 1.427 . S
C1346 H1337 0.930 . S
C1346 C1344 1.378 . S
C1346 C1347 1.367 . S
C1347 C1346 1.367 . S
C1347 C1349 1.433 . S
C1348 C1344 1.350 . S
C1348 C1345 1.463 . S
C1348 N1352 1.427 . S
C1349 H1339 0.929 . S
C1349 C1347 1.433 . S
C1349 N1352 1.384 . S
C1350 H1341 0.929 . S
C1350 C1342 1.378 . S
C1350 C1345 1.350 . S
C1351 H1338 0.929 . S
C1351 C1343 1.433 . S
C1351 N1353 1.384 . S
N1352 C1348 1.427 . S
N1352 C1349 1.384 . S
N1353 C1345 1.427 . S
N1353 C1351 1.384 . S
H1354 C1360 0.930 . S
H1355 C1364 0.930 . S
H1356 C1369 0.929 . S
H1357 C1367 0.929 . S
H1358 C1362 0.929 . S
H1359 C1368 0.929 . S
C1360 H1354 0.930 . S
C1360 C1361 1.367 . S
C1360 C1368 1.378 . S
C1361 C1360 1.367 . S
C1361 C1369 1.433 . S
C1362 H1358 0.929 . S
C1362 C1364 1.378 . S
C1362 C1366 1.350 . S
C1363 C1366 1.463 . S
C1363 C1368 1.350 . S
C1363 N1371 1.427 . S
C1364 H1355 0.930 . S
C1364 C1362 1.378 . S
C1364 C1365 1.367 . S
C1365 C1364 1.367 . S
C1365 C1367 1.433 . S
C1366 C1362 1.350 . S
C1366 C1363 1.463 . S
C1366 N1370 1.427 . S
C1367 H1357 0.929 . S
C1367 C1365 1.433 . S
C1367 N1370 1.384 . S
C1368 H1359 0.929 . S
C1368 C1360 1.378 . S
C1368 C1363 1.350 . S
C1369 H1356 0.929 . S
C1369 C1361 1.433 . S
C1369 N1371 1.384 . S
N1370 C1366 1.427 . S
N1370 C1367 1.384 . S
N1371 C1363 1.427 . S
N1371 C1369 1.384 . S
H1372 C1378 0.930 . S
H1373 C1382 0.930 . S
H1374 C1387 0.947 . S
H1375 C1385 0.929 . S
H1376 C1380 0.929 . S
H1377 C1386 0.929 . S
C1378 H1372 0.930 . S
C1378 C1379 1.367 . S
C1378 C1386 1.378 . S
C1379 C1378 1.367 . S
C1379 C1387 1.433 . S
C1380 H1376 0.929 . S
C1380 C1382 1.378 . S
C1380 C1384 1.350 . S
C1381 C1384 1.463 . S
C1381 C1386 1.350 . S
C1381 N1389 1.427 . S
C1382 H1373 0.930 . S
C1382 C1380 1.378 . S
C1382 C1383 1.367 . S
C1383 C1382 1.367 . S
C1383 C1385 1.433 . S
C1384 C1380 1.350 . S
C1384 C1381 1.463 . S
C1384 N1388 1.427 . S
C1385 H1375 0.929 . S
C1385 C1383 1.433 . S
C1385 N1388 1.384 . S
C1386 H1377 0.929 . S
C1386 C1378 1.378 . S
C1386 C1381 1.350 . S
C1387 H1374 0.947 . S
C1387 C1379 1.433 . S
C1387 N1389 1.384 . S
N1388 C1384 1.427 . S
N1388 C1385 1.384 . S
N1389 C1381 1.427 . S
N1389 C1387 1.384 . S
H1390 C1396 0.930 . S
H1391 C1400 0.930 . S
H1392 C1405 0.929 . S
H1393 C1403 0.929 1_545 S
H1394 C1398 0.929 . S
H1395 C1404 0.929 . S
C1396 H1390 0.930 . S
C1396 C1397 1.367 . S
C1396 C1404 1.378 . S
C1397 C1396 1.367 . S
C1397 C1405 1.433 . S
C1398 H1394 0.929 . S
C1398 C1400 1.378 . S
C1398 C1402 1.350 . S
C1399 C1402 1.463 . S
C1399 C1404 1.350 . S
C1399 N1407 1.427 . S
C1400 H1391 0.930 . S
C1400 C1398 1.378 . S
C1400 C1401 1.367 . S
C1401 C1400 1.367 . S
C1401 C1403 1.433 . S
C1402 C1398 1.350 . S
C1402 C1399 1.463 . S
C1402 N1406 1.427 . S
C1403 H1393 0.929 1_565 S
C1403 C1401 1.433 . S
C1403 N1406 1.384 . S
C1404 H1395 0.929 . S
C1404 C1396 1.378 . S
C1404 C1399 1.350 . S
C1405 H1392 0.929 . S
C1405 C1397 1.433 . S
C1405 N1407 1.384 . S
N1406 C1402 1.427 . S
N1406 C1403 1.384 . S
N1407 C1399 1.427 . S
N1407 C1405 1.384 . S
C551 C29 1.450 . S
C555 C408 1.450 . S
C569 C170 1.438 . S
C573 C63 1.438 . S
C587 C97 1.438 . S
C591 C476 1.438 . S
C605 C131 1.435 . S
C609 C238 1.435 . S
C623 C136 1.444 . S
C627 C301 1.444 . S
C641 C369 1.447 . S
C645 C204 1.447 . S
C659 C442 1.435 . S
C663 C335 1.435 . S
C677 C403 1.448 . S
C681 C510 1.448 . S
C695 C319 1.552 . S
C699 C0 1.582 . S
C713 C34 1.595 . S
C717 C353 1.545 . S
C731 C68 1.594 . S
C735 C387 1.552 . S
C749 C285 1.538 . S
C753 C102 1.589 . S
C767 C446 1.552 . S
C771 C165 1.582 . S
C785 C480 1.544 . S
C789 C199 1.582 . S
C803 C233 1.584 . S
C807 C514 1.540 . S
C821 C412 1.540 . S
C825 C267 1.592 . S
C839 C272 1.584 . S
C843 C47 1.540 . S
C857 C306 1.581 . S
C861 C81 1.550 . S
C875 C340 1.594 . S
C879 C115 1.552 . S
C893 C13 1.546 . S
C897 C374 1.581 . S
C911 C174 1.554 . S
C915 C437 1.592 . S
C929 C471 1.586 . S
C933 C208 1.539 . S
C947 C242 1.540 . S
C951 C505 1.593 . S
C965 C539 1.592 . S
C969 C140 1.539 . S
C983 C17 1.810 . S
C987 C357 1.809 . S
C1001 C51 1.812 . S
C1005 C391 1.812 . S
C1019 C289 1.809 . S
C1023 C85 1.810 . S
C1037 C119 1.810 . S
C1041 C323 1.810 . S
C1055 C144 1.812 . S
C1059 C484 1.812 . S
C1073 C178 1.812 . S
C1077 C518 1.811 . S
C1091 C416 1.811 . S
C1095 C212 1.810 . S
C1109 C246 1.810 . S
C1113 C450 1.811 . S
C1127 C4 1.165 . S
C1131 C255 1.233 . S
C1145 C425 1.232 . S
C1149 C38 1.164 . S
C1163 C72 1.168 . S
C1167 C187 1.234 . S
C1181 C106 1.166 . S
C1185 C493 1.233 . S
C1199 C149 1.184 . S
C1203 C110 1.237 . S
C1217 C280 1.236 . S
C1221 C183 1.180 . S
C1235 C217 1.164 . S
C1239 C42 1.233 . S
C1253 C348 1.235 . S
C1257 C251 1.176 . S
C1271 C276 1.182 . S
C1275 C527 1.236 1_565 S
C1289 C153 1.237 . S
C1293 C310 1.185 . S
C1307 C459 1.237 1_545 S
C1311 C344 1.186 . S
C1325 C378 1.170 . S
C1329 C221 1.234 . S
C1343 C421 1.172 . S
C1347 C382 1.235 1_545 S
C1361 C455 1.185 . S
C1365 C8 1.238 . S
C1379 C314 1.237 1_565 S
C1383 C489 1.181 . S
C1397 C76 1.237 . S
C1401 C523 1.184 . S
