# Generated by pormake.
# Topology afi, (4)-cn, num edge types: 1
# Building blocks:
#     Node 0, Type 0, BuildingBlock: NAHDIM_clean_sbu_0, # of connection points: 4
#     Node 1, Type 0, BuildingBlock: NAHDIM_clean_sbu_0, # of connection points: 4
#     Node 2, Type 0, BuildingBlock: NAHDIM_clean_sbu_0, # of connection points: 4
#     Node 3, Type 0, BuildingBlock: NAHDIM_clean_sbu_0, # of connection points: 4
#     Node 4, Type 0, BuildingBlock: NAHDIM_clean_sbu_0, # of connection points: 4
#     Node 5, Type 0, BuildingBlock: NAHDIM_clean_sbu_0, # of connection points: 4
#     Node 6, Type 0, BuildingBlock: NAHDIM_clean_sbu_0, # of connection points: 4
#     Node 7, Type 0, BuildingBlock: NAHDIM_clean_sbu_0, # of connection points: 4
#     Node 8, Type 0, BuildingBlock: NAHDIM_clean_sbu_0, # of connection points: 4
#     Node 9, Type 0, BuildingBlock: NAHDIM_clean_sbu_0, # of connection points: 4
#     Node 10, Type 0, BuildingBlock: NAHDIM_clean_sbu_0, # of connection points: 4
#     Node 11, Type 0, BuildingBlock: NAHDIM_clean_sbu_0, # of connection points: 4
#     Node 12, Type 0, BuildingBlock: NAHDIM_clean_sbu_0, # of connection points: 4
#     Node 13, Type 0, BuildingBlock: NAHDIM_clean_sbu_0, # of connection points: 4
#     Node 14, Type 0, BuildingBlock: NAHDIM_clean_sbu_0, # of connection points: 4
#     Node 15, Type 0, BuildingBlock: NAHDIM_clean_sbu_0, # of connection points: 4
#     Node 16, Type 0, BuildingBlock: NAHDIM_clean_sbu_0, # of connection points: 4
#     Node 17, Type 0, BuildingBlock: NAHDIM_clean_sbu_0, # of connection points: 4
#     Node 18, Type 0, BuildingBlock: NAHDIM_clean_sbu_0, # of connection points: 4
#     Node 19, Type 0, BuildingBlock: NAHDIM_clean_sbu_0, # of connection points: 4
#     Node 20, Type 0, BuildingBlock: NAHDIM_clean_sbu_0, # of connection points: 4
#     Node 21, Type 0, BuildingBlock: NAHDIM_clean_sbu_0, # of connection points: 4
#     Node 22, Type 0, BuildingBlock: NAHDIM_clean_sbu_0, # of connection points: 4
#     Node 23, Type 0, BuildingBlock: NAHDIM_clean_sbu_0, # of connection points: 4
#     Edge 24, Type (0, 0), BuildingBlock: KIFKEQ_clean_linker_1, # of connection points: 2
#     Edge 25, Type (0, 0), BuildingBlock: KIFKEQ_clean_linker_1, # of connection points: 2
#     Edge 26, Type (0, 0), BuildingBlock: KIFKEQ_clean_linker_1, # of connection points: 2
#     Edge 27, Type (0, 0), BuildingBlock: KIFKEQ_clean_linker_1, # of connection points: 2
#     Edge 28, Type (0, 0), BuildingBlock: KIFKEQ_clean_linker_1, # of connection points: 2
#     Edge 29, Type (0, 0), BuildingBlock: KIFKEQ_clean_linker_1, # of connection points: 2
#     Edge 30, Type (0, 0), BuildingBlock: KIFKEQ_clean_linker_1, # of connection points: 2
#     Edge 31, Type (0, 0), BuildingBlock: KIFKEQ_clean_linker_1, # of connection points: 2
#     Edge 32, Type (0, 0), BuildingBlock: KIFKEQ_clean_linker_1, # of connection points: 2
#     Edge 33, Type (0, 0), BuildingBlock: KIFKEQ_clean_linker_1, # of connection points: 2
#     Edge 34, Type (0, 0), BuildingBlock: KIFKEQ_clean_linker_1, # of connection points: 2
#     Edge 35, Type (0, 0), BuildingBlock: KIFKEQ_clean_linker_1, # of connection points: 2
#     Edge 36, Type (0, 0), BuildingBlock: KIFKEQ_clean_linker_1, # of connection points: 2
#     Edge 37, Type (0, 0), BuildingBlock: KIFKEQ_clean_linker_1, # of connection points: 2
#     Edge 38, Type (0, 0), BuildingBlock: KIFKEQ_clean_linker_1, # of connection points: 2
#     Edge 39, Type (0, 0), BuildingBlock: KIFKEQ_clean_linker_1, # of connection points: 2
#     Edge 40, Type (0, 0), BuildingBlock: KIFKEQ_clean_linker_1, # of connection points: 2
#     Edge 41, Type (0, 0), BuildingBlock: KIFKEQ_clean_linker_1, # of connection points: 2
#     Edge 42, Type (0, 0), BuildingBlock: KIFKEQ_clean_linker_1, # of connection points: 2
#     Edge 43, Type (0, 0), BuildingBlock: KIFKEQ_clean_linker_1, # of connection points: 2
#     Edge 44, Type (0, 0), BuildingBlock: KIFKEQ_clean_linker_1, # of connection points: 2
#     Edge 45, Type (0, 0), BuildingBlock: KIFKEQ_clean_linker_1, # of connection points: 2
#     Edge 46, Type (0, 0), BuildingBlock: KIFKEQ_clean_linker_1, # of connection points: 2
#     Edge 47, Type (0, 0), BuildingBlock: KIFKEQ_clean_linker_1, # of connection points: 2
#     Edge 48, Type (0, 0), BuildingBlock: KIFKEQ_clean_linker_1, # of connection points: 2
#     Edge 49, Type (0, 0), BuildingBlock: KIFKEQ_clean_linker_1, # of connection points: 2
#     Edge 50, Type (0, 0), BuildingBlock: KIFKEQ_clean_linker_1, # of connection points: 2
#     Edge 51, Type (0, 0), BuildingBlock: KIFKEQ_clean_linker_1, # of connection points: 2
#     Edge 52, Type (0, 0), BuildingBlock: KIFKEQ_clean_linker_1, # of connection points: 2
#     Edge 53, Type (0, 0), BuildingBlock: KIFKEQ_clean_linker_1, # of connection points: 2
#     Edge 54, Type (0, 0), BuildingBlock: KIFKEQ_clean_linker_1, # of connection points: 2
#     Edge 55, Type (0, 0), BuildingBlock: KIFKEQ_clean_linker_1, # of connection points: 2
#     Edge 56, Type (0, 0), BuildingBlock: KIFKEQ_clean_linker_1, # of connection points: 2
#     Edge 57, Type (0, 0), BuildingBlock: KIFKEQ_clean_linker_1, # of connection points: 2
#     Edge 58, Type (0, 0), BuildingBlock: KIFKEQ_clean_linker_1, # of connection points: 2
#     Edge 59, Type (0, 0), BuildingBlock: KIFKEQ_clean_linker_1, # of connection points: 2
#     Edge 60, Type (0, 0), BuildingBlock: KIFKEQ_clean_linker_1, # of connection points: 2
#     Edge 61, Type (0, 0), BuildingBlock: KIFKEQ_clean_linker_1, # of connection points: 2
#     Edge 62, Type (0, 0), BuildingBlock: KIFKEQ_clean_linker_1, # of connection points: 2
#     Edge 63, Type (0, 0), BuildingBlock: KIFKEQ_clean_linker_1, # of connection points: 2
#     Edge 64, Type (0, 0), BuildingBlock: KIFKEQ_clean_linker_1, # of connection points: 2
#     Edge 65, Type (0, 0), BuildingBlock: KIFKEQ_clean_linker_1, # of connection points: 2
#     Edge 66, Type (0, 0), BuildingBlock: KIFKEQ_clean_linker_1, # of connection points: 2
#     Edge 67, Type (0, 0), BuildingBlock: KIFKEQ_clean_linker_1, # of connection points: 2
#     Edge 68, Type (0, 0), BuildingBlock: KIFKEQ_clean_linker_1, # of connection points: 2
#     Edge 69, Type (0, 0), BuildingBlock: KIFKEQ_clean_linker_1, # of connection points: 2
#     Edge 70, Type (0, 0), BuildingBlock: KIFKEQ_clean_linker_1, # of connection points: 2
#     Edge 71, Type (0, 0), BuildingBlock: KIFKEQ_clean_linker_1, # of connection points: 2
# Relax obj value: 0.071
# Max RMSD: 0.083
# Mean RMSD: 0.083
data_MOF--net-afi--node1-NAHDIM_clean_sbu_0--edge1-KIFKEQ_clean_linker_1
_symmetry_space_group_name_H-M    P1
_symmetry_Int_Tables_number       1
_symmetry_cell_setting            triclinic
loop_
_symmetry_equiv_pos_as_xyz
'x, y, z'
_cell_length_a     69.54696
_cell_length_b     69.545088
_cell_length_c     39.929754
_cell_angle_alpha  89.992021
_cell_angle_beta   89.986488
_cell_angle_gamma 120.00004
loop_
_atom_site_label
_atom_site_type_symbol
_atom_site_fract_x
_atom_site_fract_y
_atom_site_fract_z
_atom_type_partial_charge
C0 C 0.46521 0.16607 0.20217 0.0
O1 O 0.48248 0.16914 0.18452 0.0
O2 O 0.485 0.12807 0.20737 0.0
Zn3 Zn 0.45499 0.122 0.19178 0.0
O4 O 0.45388 0.12186 0.14147 0.0
C5 C 0.42629 0.07457 0.19433 0.0
O6 O 0.43447 0.07579 0.16425 0.0
O7 O 0.45014 0.14635 0.20891 0.0
C8 C 0.43579 0.11683 0.12669 0.0
O9 O 0.41805 0.11169 0.14471 0.0
C10 C 0.49454 0.11841 0.1942 0.0
O11 O 0.48483 0.1046 0.16922 0.0
O12 O 0.43219 0.09237 0.21063 0.0
C13 C 0.28882 0.45551 0.19604 0.0
O14 O 0.29541 0.46511 0.16665 0.0
O15 O 0.35394 0.48217 0.20397 0.0
Zn16 Zn 0.32827 0.4526 0.1896 0.0
O17 O 0.32543 0.45146 0.13937 0.0
C18 C 0.35149 0.42895 0.19234 0.0
O19 O 0.36218 0.44293 0.16794 0.0
O20 O 0.30025 0.44846 0.21089 0.0
C21 C 0.31562 0.43316 0.12359 0.0
O22 O 0.30692 0.41445 0.14046 0.0
C23 C 0.37043 0.49363 0.18489 0.0
O24 O 0.37027 0.48671 0.15423 0.0
O25 O 0.33497 0.42911 0.20566 0.0
C26 C 0.83433 0.30044 0.2076 0.0
O27 O 0.83087 0.31511 0.1921 0.0
O28 O 0.8729 0.35764 0.20958 0.0
Zn29 Zn 0.87795 0.33343 0.19204 0.0
O30 O 0.87622 0.33262 0.1416 0.0
C31 C 0.92282 0.34014 0.18822 0.0
O32 O 0.91753 0.33356 0.15706 0.0
O33 O 0.85415 0.30441 0.21104 0.0
C34 C 0.86926 0.31447 0.12577 0.0
O35 O 0.86304 0.29608 0.1427 0.0
C36 C 0.88283 0.377 0.19693 0.0
O37 O 0.89621 0.38103 0.17134 0.0
O38 O 0.90841 0.34054 0.20735 0.0
C39 C 0.53395 0.83118 0.19873 0.0
O40 O 0.51706 0.82888 0.18087 0.0
O41 O 0.51594 0.87048 0.2077 0.0
Zn42 Zn 0.5448 0.87513 0.18872 0.0
O43 O 0.54377 0.87433 0.13843 0.0
C44 C 0.56672 0.92119 0.19163 0.0
O45 O 0.55077 0.91652 0.16994 0.0
O46 O 0.54944 0.85063 0.20584 0.0
C47 C 0.55791 0.87178 0.12182 0.0
O48 O 0.57301 0.86933 0.13795 0.0
C49 C 0.50127 0.87182 0.19052 0.0
O50 O 0.50447 0.87591 0.15826 0.0
O51 O 0.56864 0.90534 0.20379 0.0
C52 C 0.6929 0.53019 0.20353 0.0
O53 O 0.67749 0.51199 0.18907 0.0
O54 O 0.63639 0.51421 0.2056 0.0
Zn55 Zn 0.6615 0.54268 0.18683 0.0
O56 O 0.66218 0.54075 0.13664 0.0
C57 C 0.65221 0.57113 0.22822 0.0
O58 O 0.65124 0.55769 0.25214 0.0
O59 O 0.69005 0.54682 0.20567 0.0
C60 C 0.64783 0.54257 0.11936 0.0
O61 O 0.63269 0.5453 0.13479 0.0
C62 C 0.61661 0.51052 0.20798 0.0
O63 O 0.61198 0.52568 0.19764 0.0
O64 O 0.65704 0.56825 0.19867 0.0
C65 C 0.15886 0.70553 0.20678 0.0
O66 O 0.16053 0.69885 0.1767 0.0
O67 O 0.1152 0.64052 0.21726 0.0
Zn68 Zn 0.11482 0.66792 0.20218 0.0
O69 O 0.11647 0.67054 0.15181 0.0
C70 C 0.06971 0.66107 0.20172 0.0
O71 O 0.07136 0.66074 0.16899 0.0
O72 O 0.14069 0.6948 0.22272 0.0
C73 C 0.10684 0.65381 0.13255 0.0
O74 O 0.09497 0.63393 0.14567 0.0
C75 C 0.12761 0.6335 0.20582 0.0
O76 O 0.14193 0.64468 0.182 0.0
O77 O 0.08624 0.66475 0.2198 0.0
C78 C 0.82835 0.5321 0.29773 0.0
O79 O 0.82608 0.51544 0.31621 0.0
O80 O 0.87133 0.51701 0.28843 0.0
Zn81 Zn 0.87334 0.54479 0.30749 0.0
O82 O 0.87225 0.54372 0.35785 0.0
C83 C 0.91989 0.57286 0.30533 0.0
O84 O 0.91827 0.55877 0.32862 0.0
O85 O 0.84776 0.54753 0.29033 0.0
C86 C 0.87782 0.56137 0.37432 0.0
O87 O 0.88408 0.57998 0.35798 0.0
C88 C 0.87426 0.5034 0.30587 0.0
O89 O 0.87831 0.50709 0.33806 0.0
O90 O 0.90225 0.57063 0.29221 0.0
C91 C 0.29348 0.83597 0.3085 0.0
O92 O 0.30181 0.83318 0.33639 0.0
O93 O 0.35715 0.87155 0.29079 0.0
Zn94 Zn 0.33396 0.87785 0.30932 0.0
O95 O 0.33469 0.87778 0.35979 0.0
C96 C 0.35657 0.92528 0.30474 0.0
O97 O 0.36764 0.92345 0.33001 0.0
O98 O 0.30419 0.85417 0.29265 0.0
C99 C 0.32756 0.88822 0.37717 0.0
O100 O 0.31923 0.89917 0.36192 0.0
C101 C 0.37529 0.87737 0.306 0.0
O102 O 0.37882 0.88721 0.33526 0.0
O103 O 0.34076 0.90779 0.29188 0.0
C104 C 0.46124 0.29884 0.29494 0.0
O105 O 0.47809 0.31334 0.31294 0.0
O106 O 0.47665 0.35658 0.28988 0.0
Zn107 Zn 0.44855 0.33065 0.3077 0.0
O108 O 0.44927 0.32993 0.35793 0.0
C109 C 0.42707 0.35481 0.30188 0.0
O110 O 0.44438 0.3675 0.32065 0.0
O111 O 0.44538 0.30244 0.28884 0.0
C112 C 0.43628 0.31228 0.37377 0.0
O113 O 0.42246 0.29446 0.35684 0.0
C114 C 0.49433 0.36804 0.30664 0.0
O115 O 0.49533 0.36252 0.33779 0.0
O116 O 0.42392 0.33589 0.29306 0.0
C117 C 0.15868 0.45575 0.30651 0.0
O118 O 0.1615 0.4656 0.33564 0.0
O119 O 0.1213 0.48321 0.29374 0.0
Zn120 Zn 0.11623 0.45351 0.30967 0.0
O121 O 0.11649 0.45306 0.36015 0.0
C122 C 0.08178 0.42792 0.26203 0.0
O123 O 0.09661 0.442 0.24087 0.0
O124 O 0.14044 0.44889 0.29102 0.0
C125 C 0.09881 0.44759 0.37654 0.0
O126 O 0.08041 0.44212 0.36014 0.0
C127 C 0.10529 0.48704 0.29155 0.0
O128 O 0.08527 0.47144 0.30026 0.0
O129 O 0.08665 0.42938 0.29293 0.0
C130 C 0.70143 0.16273 0.2979 0.0
O131 O 0.68699 0.16487 0.31642 0.0
O132 O 0.64349 0.12423 0.2839 0.0
Zn133 Zn 0.66704 0.11873 0.30353 0.0
O134 O 0.66516 0.11789 0.35378 0.0
C135 C 0.64102 0.07346 0.29379 0.0
O136 O 0.62821 0.07841 0.31162 0.0
O137 O 0.69686 0.1434 0.28873 0.0
C138 C 0.68081 0.11908 0.37168 0.0
O139 O 0.69863 0.12109 0.35698 0.0
C140 C 0.6294 0.12632 0.30148 0.0
O141 O 0.63039 0.12565 0.33428 0.0
O142 O 0.66059 0.08881 0.28683 0.0
C143 C 0.53016 0.69454 0.29169 0.0
O144 O 0.51224 0.67969 0.30743 0.0
O145 O 0.51356 0.63709 0.28923 0.0
Zn146 Zn 0.54229 0.66247 0.30671 0.0
O147 O 0.54108 0.66352 0.35691 0.0
C148 C 0.5712 0.65436 0.26377 0.0
O149 O 0.55811 0.65409 0.23982 0.0
O150 O 0.54624 0.69096 0.28796 0.0
C151 C 0.5484 0.65343 0.37471 0.0
O152 O 0.55623 0.6419 0.35989 0.0
C153 C 0.51093 0.61786 0.28431 0.0
O154 O 0.52722 0.61413 0.2914 0.0
O155 O 0.56789 0.6583 0.29363 0.0
C156 C 0.53289 0.83179 0.79089 0.0
O157 O 0.51566 0.82867 0.80869 0.0
O158 O 0.51289 0.86984 0.78475 0.0
Zn159 Zn 0.54213 0.87495 0.80291 0.0
O160 O 0.54125 0.87281 0.85312 0.0
C161 C 0.5614 0.9207 0.80035 0.0
O162 O 0.54454 0.91478 0.82079 0.0
O163 O 0.54796 0.85154 0.78432 0.0
C164 C 0.5592 0.87961 0.86936 0.0
O165 O 0.57805 0.88805 0.85287 0.0
C166 C 0.49617 0.86563 0.80277 0.0
O167 O 0.49729 0.86376 0.83535 0.0
O168 O 0.56506 0.90578 0.78889 0.0
C169 C 0.69879 0.53134 0.78855 0.0
O170 O 0.68341 0.51337 0.80356 0.0
O171 O 0.64183 0.51406 0.7815 0.0
Zn172 Zn 0.66607 0.54297 0.79996 0.0
O173 O 0.66489 0.54146 0.85037 0.0
C174 C 0.65788 0.56945 0.75304 0.0
O175 O 0.6602 0.55665 0.73114 0.0
O176 O 0.69538 0.54747 0.78396 0.0
C177 C 0.65664 0.55113 0.86715 0.0
O178 O 0.64897 0.56245 0.85129 0.0
C179 C 0.62169 0.5078 0.78819 0.0
O180 O 0.61714 0.52039 0.80732 0.0
O181 O 0.66066 0.56722 0.78391 0.0
C182 C 0.16661 0.6942 0.80077 0.0
O183 O 0.16968 0.6784 0.81305 0.0
O184 O 0.12616 0.63712 0.79399 0.0
Zn185 Zn 0.12163 0.66142 0.81289 0.0
O186 O 0.12065 0.65914 0.86314 0.0
C187 C 0.07501 0.64878 0.8114 0.0
O188 O 0.07532 0.64285 0.84255 0.0
O189 O 0.14697 0.6909 0.7985 0.0
C190 C 0.12039 0.67393 0.88148 0.0
O191 O 0.12093 0.69124 0.86727 0.0
C192 C 0.11017 0.61721 0.79448 0.0
O193 O 0.09113 0.61297 0.80761 0.0
O194 O 0.09289 0.65752 0.79446 0.0
C195 C 0.45066 0.15658 0.80467 0.0
O196 O 0.46473 0.15771 0.82759 0.0
O197 O 0.46716 0.11348 0.7857 0.0
Zn198 Zn 0.43982 0.11152 0.80652 0.0
O199 O 0.44173 0.11142 0.85676 0.0
C200 C 0.40941 0.07764 0.76136 0.0
O201 O 0.42249 0.09175 0.73854 0.0
O202 O 0.43746 0.13788 0.79152 0.0
C203 C 0.42825 0.11461 0.87409 0.0
O204 O 0.41341 0.11784 0.85867 0.0
C205 C 0.48606 0.12343 0.79982 0.0
O206 O 0.48796 0.1325 0.82938 0.0
O207 O 0.41329 0.08291 0.79208 0.0
C208 C 0.28982 0.45429 0.79986 0.0
O209 O 0.29935 0.46779 0.82524 0.0
O210 O 0.35195 0.48179 0.78872 0.0
Zn211 Zn 0.32902 0.45129 0.8047 0.0
O212 O 0.32844 0.45005 0.855 0.0
C213 C 0.35758 0.43456 0.79106 0.0
O214 O 0.37084 0.45264 0.80791 0.0
O215 O 0.29938 0.44462 0.78677 0.0
C216 C 0.31264 0.43413 0.87079 0.0
O217 O 0.29625 0.41816 0.85384 0.0
C218 C 0.36743 0.49596 0.80724 0.0
O219 O 0.36831 0.49111 0.8388 0.0
O220 O 0.33752 0.42955 0.78661 0.0
C221 C 0.82589 0.29688 0.78991 0.0
O222 O 0.82391 0.31293 0.80381 0.0
O223 O 0.86997 0.35314 0.78665 0.0
Zn224 Zn 0.87081 0.32676 0.80579 0.0
O225 O 0.86883 0.32657 0.85605 0.0
C226 C 0.91731 0.34341 0.80572 0.0
O227 O 0.91603 0.35555 0.82989 0.0
O228 O 0.84503 0.29889 0.78775 0.0
C229 C 0.87245 0.31324 0.87299 0.0
O230 O 0.87737 0.29968 0.85719 0.0
C231 C 0.87558 0.37065 0.80356 0.0
O232 O 0.88174 0.37155 0.83489 0.0
O233 O 0.89956 0.32898 0.79154 0.0
C234 C 0.15353 0.44574 0.69694 0.0
O235 O 0.15416 0.45176 0.66559 0.0
O236 O 0.11241 0.47091 0.71325 0.0
Zn237 Zn 0.11053 0.44279 0.69643 0.0
O238 O 0.11032 0.44235 0.6459 0.0
C239 C 0.06566 0.40398 0.69805 0.0
O240 O 0.06705 0.40472 0.66523 0.0
O241 O 0.13649 0.44095 0.71456 0.0
C242 C 0.09935 0.44929 0.62945 0.0
O243 O 0.0878 0.45652 0.64578 0.0
C244 C 0.12469 0.49014 0.70104 0.0
O245 O 0.13759 0.49261 0.67542 0.0
O246 O 0.08218 0.41778 0.71533 0.0
C247 C 0.68979 0.16271 0.69849 0.0
O248 O 0.67607 0.16548 0.67918 0.0
O249 O 0.63139 0.12356 0.70678 0.0
Zn250 Zn 0.65583 0.11875 0.6892 0.0
O251 O 0.65677 0.11938 0.63888 0.0
C252 C 0.6299 0.07313 0.69906 0.0
O253 O 0.61664 0.07761 0.68147 0.0
O254 O 0.68484 0.14313 0.70678 0.0
C255 C 0.66722 0.11134 0.62373 0.0
O256 O 0.67688 0.10259 0.6414 0.0
C257 C 0.61781 0.12616 0.68874 0.0
O258 O 0.61972 0.12647 0.65598 0.0
O259 O 0.64936 0.08879 0.70567 0.0
C260 C 0.53462 0.69688 0.70295 0.0
O261 O 0.51747 0.6823 0.68549 0.0
O262 O 0.51506 0.63925 0.71393 0.0
Zn263 Zn 0.54388 0.66281 0.69372 0.0
O264 O 0.54134 0.66238 0.64354 0.0
C265 C 0.56649 0.63893 0.69231 0.0
O266 O 0.54988 0.6274 0.67174 0.0
O267 O 0.54977 0.69249 0.71039 0.0
C268 C 0.55876 0.67086 0.62562 0.0
O269 O 0.57827 0.68034 0.64033 0.0
C270 C 0.50049 0.62307 0.69692 0.0
O271 O 0.50414 0.62155 0.66501 0.0
O272 O 0.56801 0.65609 0.7062 0.0
C273 C 0.83633 0.53376 0.70262 0.0
O274 O 0.83429 0.51698 0.68474 0.0
O275 O 0.87731 0.51734 0.71115 0.0
Zn276 Zn 0.88119 0.54617 0.69351 0.0
O277 O 0.88123 0.54619 0.64311 0.0
C278 C 0.92799 0.57543 0.69581 0.0
O279 O 0.92679 0.56476 0.66803 0.0
O280 O 0.85567 0.54935 0.71003 0.0
C281 C 0.87728 0.55967 0.62722 0.0
O282 O 0.87322 0.57346 0.64413 0.0
C283 C 0.88441 0.50614 0.69573 0.0
O284 O 0.89438 0.51328 0.66671 0.0
O285 O 0.91017 0.57079 0.71114 0.0
C286 C 0.29657 0.83257 0.70578 0.0
O287 O 0.30996 0.8305 0.68477 0.0
O288 O 0.35505 0.87526 0.71398 0.0
Zn289 Zn 0.32911 0.87758 0.69654 0.0
O290 O 0.32836 0.87655 0.64614 0.0
C291 C 0.32536 0.91771 0.69823 0.0
O292 O 0.31311 0.90956 0.67125 0.0
O293 O 0.30108 0.85191 0.71477 0.0
C294 C 0.34176 0.8932 0.62869 0.0
O295 O 0.3566 0.91137 0.64388 0.0
C296 C 0.3648 0.86688 0.69772 0.0
O297 O 0.35801 0.85923 0.66735 0.0
O298 O 0.33296 0.90666 0.71283 0.0
C299 C 0.46173 0.29715 0.71501 0.0
O300 O 0.48093 0.3124 0.70284 0.0
O301 O 0.47936 0.35424 0.71 0.0
Zn302 Zn 0.4507 0.32879 0.69255 0.0
O303 O 0.45192 0.32629 0.64262 0.0
C304 C 0.42928 0.35352 0.69093 0.0
O305 O 0.44567 0.36427 0.66964 0.0
O306 O 0.4453 0.30035 0.71375 0.0
C307 C 0.43419 0.31426 0.62632 0.0
O308 O 0.41531 0.30344 0.64263 0.0
C309 C 0.49555 0.36722 0.69143 0.0
O310 O 0.4943 0.36371 0.65897 0.0
O311 O 0.42692 0.33593 0.70445 0.0
H312 H 0.4097 0.03363 0.1658 0.0
H313 H 0.41114 0.066 0.25895 0.0
H314 H 0.38997 -0.00237 0.19345 0.0
H315 H 0.39115 0.02988 0.28649 0.0
H316 H 0.38771 0.96577 0.32873 0.0
H317 H 0.40146 0.00185 0.30227 0.0
H318 H 0.35478 0.97092 0.22125 0.0
H319 H 0.3411 0.93467 0.24756 0.0
C320 C 0.40555 0.03306 0.19206 0.0
C321 C 0.41218 0.05269 0.21024 0.0
C322 C 0.3941 0.0124 0.20785 0.0
C323 C 0.38912 0.01094 0.24219 0.0
C324 C 0.39502 0.03052 0.26009 0.0
C325 C 0.40637 0.05119 0.24426 0.0
C326 C 0.38021 0.96666 0.30544 0.0
C327 C 0.36344 0.94733 0.29012 0.0
C328 C 0.38799 0.98737 0.29039 0.0
C329 C 0.37924 0.98921 0.25962 0.0
C330 C 0.36199 0.96997 0.24479 0.0
C331 C 0.35411 0.94924 0.25994 0.0
H332 H 0.38706 0.33224 0.26912 0.0
H333 H 0.43641 0.39766 0.30298 0.0
H334 H 0.36654 0.3483 0.2421 0.0
H335 H 0.4162 0.41346 0.27559 0.0
H336 H 0.39206 0.43339 0.18124 0.0
H337 H 0.40834 0.41363 0.20878 0.0
H338 H 0.34733 0.37368 0.26297 0.0
H339 H 0.33092 0.39379 0.23581 0.0
C340 C 0.39341 0.34994 0.27102 0.0
C341 C 0.41339 0.3637 0.28803 0.0
C342 C 0.38166 0.35906 0.25567 0.0
C343 C 0.38999 0.38207 0.25664 0.0
C344 C 0.4096 0.39568 0.27433 0.0
C345 C 0.42109 0.38659 0.2901 0.0
C346 C 0.38196 0.42025 0.19873 0.0
C347 C 0.36024 0.41524 0.20654 0.0
C348 C 0.39133 0.40902 0.21453 0.0
C349 C 0.37908 0.39231 0.23804 0.0
C350 C 0.35703 0.38652 0.24484 0.0
C351 C 0.34773 0.39805 0.22941 0.0
H352 H 0.93974 0.35757 0.24972 0.0
H353 H 0.95832 0.34368 0.15326 0.0
H354 H 0.97839 0.37625 0.26715 0.0
H355 H -0.00295 0.36198 0.17107 0.0
H356 H 0.06436 0.42377 0.19933 0.0
H357 H 0.02601 0.39982 0.18193 0.0
H358 H 0.00946 0.37151 0.28131 0.0
H359 H 0.0477 0.39588 0.29896 0.0
C360 C 0.95203 0.35819 0.23239 0.0
C361 C 0.94595 0.34928 0.19999 0.0
C362 C 0.97421 0.3688 0.24248 0.0
C363 C 0.99086 0.37071 0.22045 0.0
C364 C 0.98468 0.36109 0.18846 0.0
C365 C 0.96246 0.35048 0.17833 0.0
C366 C 0.0526 0.41229 0.21739 0.0
C367 C 0.05904 0.41188 0.25061 0.0
C368 C 0.03062 0.39844 0.20735 0.0
C369 C 0.01462 0.38381 0.23028 0.0
C370 C 0.02128 0.38284 0.26318 0.0
C371 C 0.04324 0.39674 0.27324 0.0
H372 H 0.60308 0.93788 0.23317 0.0
H373 H 0.5611 0.95642 0.17859 0.0
H374 H 0.62306 0.97522 0.2577 0.0
H375 H 0.58083 0.9933 0.20332 0.0
H376 H 0.5978 0.04084 0.29239 0.0
H377 H 0.58195 0.00443 0.26639 0.0
H378 H 0.64742 0.01815 0.23757 0.0
H379 H 0.66354 0.05508 0.26339 0.0
C380 C 0.59827 0.94994 0.22617 0.0
C381 C 0.58039 0.94415 0.20416 0.0
C382 C 0.60974 0.97126 0.2401 0.0
C383 C 0.60328 0.98694 0.23257 0.0
C384 C 0.58594 0.98138 0.20976 0.0
C385 C 0.57471 0.96027 0.19554 0.0
C386 C 0.60891 0.03614 0.28072 0.0
C387 C 0.63193 0.05089 0.27979 0.0
C388 C 0.5998 0.01532 0.26571 0.0
C389 C 0.61348 0.00864 0.2498 0.0
C390 C 0.63657 0.023 0.24974 0.0
C391 C 0.64573 0.04408 0.26438 0.0
H392 H 0.5773 0.63721 0.20577 0.0
H393 H 0.60165 0.65454 0.30717 0.0
H394 H 0.60032 0.62034 0.19761 0.0
H395 H 0.62515 0.6382 0.2987 0.0
H396 H 0.63476 0.57731 0.2858 0.0
H397 H 0.61852 0.6009 0.29373 0.0
H398 H 0.63728 0.62589 0.19284 0.0
H399 H 0.65301 0.60182 0.18459 0.0
C400 C 0.5879 0.63783 0.2261 0.0
C401 C 0.58746 0.647 0.25722 0.0
C402 C 0.60121 0.62824 0.22137 0.0
C403 C 0.61446 0.62774 0.24761 0.0
C404 C 0.61484 0.63794 0.27819 0.0
C405 C 0.60146 0.64742 0.28296 0.0
C406 C 0.63569 0.58804 0.26544 0.0
C407 C 0.64498 0.58752 0.23447 0.0
C408 C 0.62648 0.60169 0.27005 0.0
C409 C 0.62647 0.6152 0.24383 0.0
C410 C 0.63668 0.61541 0.21335 0.0
C411 C 0.64581 0.6017 0.2087 0.0
H412 H 0.06091 0.66166 0.26828 0.0
H413 H 0.02917 0.64361 0.17129 0.0
H414 H 0.02463 0.64432 0.29523 0.0
H415 H 0.99293 0.62578 0.19828 0.0
H416 H 0.92932 0.60338 0.25542 0.0
H417 H 0.9657 0.62919 0.23188 0.0
H418 H -0.00351 0.60601 0.3029 0.0
H419 H 0.96037 0.58072 0.32681 0.0
C420 C 0.0462 0.65422 0.25268 0.0
C421 C 0.04792 0.65375 0.21765 0.0
C422 C 0.02541 0.64418 0.26815 0.0
C423 C 0.00589 0.63336 0.24895 0.0
C424 C 0.00762 0.63409 0.21383 0.0
C425 C 0.02843 0.64423 0.19833 0.0
C426 C 0.9439 0.60402 0.26625 0.0
C427 C 0.94195 0.58988 0.29283 0.0
C428 C 0.96473 0.61874 0.25267 0.0
C429 C 0.984 0.61963 0.26542 0.0
C430 C 0.98205 0.60601 0.29276 0.0
C431 C 0.96128 0.59135 0.30632 0.0
H432 H 0.55286 0.95416 0.81276 0.0
H433 H 0.59846 0.93959 0.76021 0.0
H434 H 0.57102 0.99118 0.78839 0.0
H435 H 0.61679 0.977 0.73595 0.0
H436 H 0.65362 0.05601 0.72909 0.0
H437 H 0.63879 0.01925 0.75492 0.0
H438 H 0.57247 0.00315 0.72679 0.0
H439 H 0.58708 0.03948 0.70087 0.0
C440 C 0.56692 0.95891 0.79631 0.0
C441 C 0.57409 0.94385 0.78817 0.0
C442 C 0.57724 0.9801 0.78227 0.0
C443 C 0.59511 0.98679 0.76006 0.0
C444 C 0.60303 0.97219 0.75305 0.0
C445 C 0.5925 0.9508 0.76684 0.0
C446 C 0.6359 0.04454 0.72828 0.0
C447 C 0.6215 0.05066 0.71308 0.0
C448 C 0.62747 0.02354 0.74294 0.0
C449 C 0.60451 0.00854 0.74307 0.0
C450 C 0.59022 0.01455 0.72738 0.0
C451 C 0.59863 0.03532 0.71238 0.0
H452 H 0.64641 0.59404 0.79301 0.0
H453 H 0.6492 0.57757 0.68942 0.0
H454 H 0.62698 0.61352 0.7766 0.0
H455 H 0.63023 0.59756 0.67292 0.0
H456 H 0.56719 0.6032 0.66601 0.0
H457 H 0.59245 0.58974 0.67912 0.0
H458 H 0.62827 0.64474 0.74706 0.0
H459 H 0.60252 0.65806 0.7344 0.0
C460 C 0.64327 0.59494 0.76665 0.0
C461 C 0.6491 0.584 0.74255 0.0
C462 C 0.63222 0.60623 0.75722 0.0
C463 C 0.62682 0.60688 0.72348 0.0
C464 C 0.63376 0.59699 0.6992 0.0
C465 C 0.64475 0.58564 0.70864 0.0
C466 C 0.58051 0.61254 0.68362 0.0
C467 C 0.58274 0.63164 0.69932 0.0
C468 C 0.59515 0.60491 0.69092 0.0
C469 C 0.61245 0.6162 0.71406 0.0
C470 C 0.61499 0.63556 0.72934 0.0
C471 C 0.60028 0.64323 0.72201 0.0
H472 H 0.93651 0.59878 0.75442 0.0
H473 H 0.96892 0.58658 0.67147 0.0
H474 H 0.97236 0.62073 0.782 0.0
H475 H 0.00455 0.60801 0.69932 0.0
H476 H 0.06832 0.6578 0.74713 0.0
H477 H 0.03294 0.64419 0.71834 0.0
H478 H -0.00187 0.61203 0.80944 0.0
H479 H 0.03341 0.62605 0.83839 0.0
C480 C 0.95129 0.60094 0.74192 0.0
C481 C 0.94984 0.59076 0.71089 0.0
C482 C 0.97181 0.61342 0.75781 0.0
C483 C 0.9913 0.61599 0.743 0.0
C484 C 0.98992 0.6066 0.71129 0.0
C485 C 0.96944 0.59416 0.6954 0.0
C486 C 0.0531 0.64809 0.76114 0.0
C487 C 0.05368 0.64281 0.79497 0.0
C488 C 0.03284 0.6402 0.74458 0.0
C489 C 0.01271 0.62684 0.76148 0.0
C490 C 0.0133 0.62246 0.79573 0.0
C491 C 0.03356 0.63039 0.8123 0.0
H492 H 0.39981 0.05918 0.69875 0.0
H493 H 0.38016 0.04447 0.80253 0.0
H494 H 0.37531 0.02027 0.68447 0.0
H495 H 0.35539 0.00566 0.78809 0.0
H496 H 0.3469 0.93761 0.75605 0.0
H497 H 0.3632 0.97646 0.77137 0.0
H498 H 0.33686 0.98882 0.68109 0.0
H499 H 0.32068 0.94976 0.66542 0.0
C500 C 0.38995 0.04775 0.71841 0.0
C501 C 0.3922 0.05487 0.75185 0.0
C502 C 0.37579 0.02546 0.71018 0.0
C503 C 0.36359 0.00985 0.73522 0.0
C504 C 0.36487 0.01723 0.76834 0.0
C505 C 0.37901 0.0395 0.77657 0.0
C506 C 0.34431 0.94851 0.73963 0.0
C507 C 0.33265 0.94063 0.70938 0.0
C508 C 0.35353 0.97078 0.74856 0.0
C509 C 0.35138 0.98575 0.72739 0.0
C510 C 0.33897 0.97771 0.69774 0.0
C511 C 0.3296 0.95533 0.68888 0.0
H512 H 0.40093 0.44648 0.78317 0.0
H513 H 0.33435 0.39264 0.76436 0.0
H514 H 0.41606 0.42545 0.75649 0.0
H515 H 0.34971 0.37142 0.73775 0.0
H516 H 0.39346 0.33568 0.73345 0.0
H517 H 0.37423 0.3542 0.75629 0.0
H518 H 0.41559 0.41209 0.69635 0.0
H519 H 0.43469 0.39375 0.6734 0.0
C520 C 0.38951 0.4301 0.77348 0.0
C521 C 0.36644 0.42123 0.77581 0.0
C522 C 0.39819 0.41814 0.758 0.0
C523 C 0.38403 0.39693 0.74486 0.0
C524 C 0.36095 0.38777 0.74772 0.0
C525 C 0.35221 0.39992 0.76283 0.0
C526 C 0.39822 0.35224 0.72482 0.0
C527 C 0.41575 0.36334 0.70189 0.0
C528 C 0.38717 0.36277 0.7378 0.0
C529 C 0.39364 0.38462 0.72831 0.0
C530 C 0.4105 0.39533 0.70437 0.0
C531 C 0.42136 0.38477 0.69116 0.0
H532 H 0.02472 0.3803 0.66907 0.0
H533 H 0.05793 0.39546 0.76495 0.0
H534 H 0.98891 0.36203 0.69729 0.0
H535 H 0.0221 0.37656 0.79318 0.0
H536 H 0.95811 0.3756 0.82688 0.0
H537 H 0.99392 0.38614 0.80216 0.0
H538 H 0.96215 0.33205 0.73151 0.0
H539 H 0.92607 0.32185 0.75577 0.0
C540 C 0.02438 0.37927 0.69615 0.0
C541 C 0.04415 0.38963 0.71478 0.0
C542 C 0.00382 0.36868 0.71237 0.0
C543 C 0.00261 0.36808 0.74755 0.0
C544 C 0.02244 0.37716 0.76607 0.0
C545 C 0.04298 0.38789 0.74988 0.0
C546 C 0.95874 0.36578 0.80633 0.0
C547 C 0.93921 0.34804 0.79308 0.0
C548 C 0.97934 0.37172 0.79228 0.0
C549 C 0.98094 0.35998 0.76473 0.0
C550 C 0.96147 0.34163 0.75238 0.0
C551 C 0.94081 0.33573 0.7664 0.0
H552 H 0.49664 0.20985 0.19741 0.0
H553 H 0.43068 0.16584 0.23557 0.0
H554 H 0.495 0.24163 0.21952 0.0
H555 H 0.42916 0.19777 0.25793 0.0
H556 H 0.42779 0.26387 0.26098 0.0
H557 H 0.42817 0.23149 0.23795 0.0
H558 H 0.49464 0.2565 0.27586 0.0
H559 H 0.49439 0.28884 0.29861 0.0
C560 C 0.48177 0.20694 0.21047 0.0
C561 C 0.46382 0.18531 0.21484 0.0
C562 C 0.48089 0.22515 0.22328 0.0
C563 C 0.462 0.22216 0.2406 0.0
C564 C 0.44387 0.20057 0.24449 0.0
C565 C 0.4448 0.1823 0.23184 0.0
C566 C 0.44246 0.26243 0.26441 0.0
C567 C 0.46108 0.27895 0.28152 0.0
C568 C 0.44263 0.24385 0.25137 0.0
C569 C 0.46147 0.24154 0.25499 0.0
C570 C 0.48 0.25798 0.27229 0.0
C571 C 0.47979 0.27645 0.28549 0.0
H572 H 0.19917 0.46737 0.33355 0.0
H573 H 0.15947 0.43956 0.24445 0.0
H574 H 0.22993 0.46584 0.30687 0.0
H575 H 0.19017 0.43784 0.21799 0.0
H576 H 0.25943 0.46646 0.16935 0.0
H577 H 0.22736 0.46502 0.19653 0.0
H578 H 0.24076 0.43896 0.28619 0.0
H579 H 0.27303 0.4406 0.25915 0.0
C580 C 0.19694 0.46078 0.30839 0.0
C581 C 0.17691 0.45369 0.29108 0.0
C582 C 0.21452 0.45979 0.29318 0.0
C583 C 0.21248 0.45178 0.2603 0.0
C584 C 0.19232 0.44434 0.24321 0.0
C585 C 0.1747 0.44523 0.25846 0.0
C586 C 0.25551 0.46034 0.19481 0.0
C587 C 0.26883 0.45372 0.21212 0.0
C588 C 0.23705 0.45939 0.21031 0.0
C589 C 0.23156 0.45189 0.2435 0.0
C590 C 0.24473 0.44504 0.26071 0.0
C591 C 0.26313 0.44587 0.24514 0.0
H592 H 0.71384 0.20603 0.30927 0.0
H593 H 0.73546 0.16454 0.26071 0.0
H594 H 0.74657 0.239 0.28826 0.0
H595 H 0.76826 0.19771 0.23942 0.0
H596 H 0.83489 0.26484 0.23613 0.0
H597 H 0.80338 0.23123 0.25916 0.0
H598 H 0.75958 0.25602 0.23232 0.0
H599 H 0.79089 0.28953 0.20961 0.0
C600 C 0.72561 0.20392 0.29421 0.0
C601 C 0.72197 0.18265 0.28649 0.0
C602 C 0.74431 0.22283 0.28203 0.0
C603 C 0.75987 0.22092 0.26198 0.0
C604 C 0.75659 0.19968 0.25497 0.0
C605 C 0.73777 0.1807 0.26703 0.0
C606 C 0.81853 0.26309 0.23516 0.0
C607 C 0.8154 0.27988 0.22114 0.0
C608 C 0.8005 0.24382 0.24819 0.0
C609 C 0.77906 0.24107 0.24769 0.0
C610 C 0.77596 0.25781 0.2335 0.0
C611 C 0.7939 0.27696 0.2203 0.0
H612 H 0.50189 0.78784 0.19133 0.0
H613 H 0.56675 0.82968 0.23468 0.0
H614 H 0.50165 0.75513 0.21349 0.0
H615 H 0.56635 0.79679 0.2572 0.0
H616 H 0.56546 0.72969 0.26097 0.0
H617 H 0.567 0.76298 0.23792 0.0
H618 H 0.49928 0.7388 0.26929 0.0
H619 H 0.49761 0.70551 0.29199 0.0
C620 C 0.51612 0.79007 0.20555 0.0
C621 C 0.53431 0.81137 0.21135 0.0
C622 C 0.51591 0.77132 0.21842 0.0
C623 C 0.53391 0.77341 0.23726 0.0
C624 C 0.5523 0.79467 0.24257 0.0
C625 C 0.55248 0.81349 0.22982 0.0
C626 C 0.55091 0.7315 0.26296 0.0
C627 C 0.53139 0.71493 0.27821 0.0
C628 C 0.55184 0.75061 0.24992 0.0
C629 C 0.53323 0.75344 0.25169 0.0
C630 C 0.51378 0.73693 0.26714 0.0
C631 C 0.51288 0.71791 0.28031 0.0
H632 H 0.70243 0.49666 0.20586 0.0
H633 H 0.72877 0.56553 0.23285 0.0
H634 H 0.73526 0.49769 0.22918 0.0
H635 H 0.76158 0.56643 0.2566 0.0
H636 H 0.82715 0.56445 0.26029 0.0
H637 H 0.79447 0.56438 0.23786 0.0
H638 H 0.75223 0.50075 0.2844 0.0
H639 H 0.78482 0.50064 0.30646 0.0
C640 C 0.71521 0.51202 0.21682 0.0
C641 C 0.71298 0.53101 0.21752 0.0
C642 C 0.73396 0.51255 0.23037 0.0
C643 C 0.75095 0.53211 0.24485 0.0
C644 C 0.74883 0.55117 0.24536 0.0
C645 C 0.73 0.55062 0.2319 0.0
C646 C 0.81089 0.55047 0.2658 0.0
C647 C 0.80858 0.5325 0.28504 0.0
C648 C 0.79218 0.5505 0.2531 0.0
C649 C 0.7708 0.53252 0.25927 0.0
C650 C 0.76851 0.5147 0.27884 0.0
C651 C 0.78719 0.5147 0.29162 0.0
H652 H 0.16225 0.72163 0.27034 0.0
H653 H 0.19867 0.73394 0.17759 0.0
H654 H 0.19399 0.75388 0.29544 0.0
H655 H 0.23039 0.76601 0.20283 0.0
H656 H 0.27429 0.83459 0.24812 0.0
H657 H 0.24103 0.80357 0.22396 0.0
H658 H 0.2324 0.76478 0.313 0.0
H659 H 0.26555 0.79584 0.33737 0.0
C660 C 0.177 0.73121 0.2553 0.0
C661 C 0.17795 0.7252 0.22198 0.0
C662 C 0.1952 0.74961 0.26974 0.0
C663 C 0.21466 0.76247 0.25109 0.0
C664 C 0.21552 0.75657 0.2177 0.0
C665 C 0.19739 0.73811 0.20332 0.0
C666 C 0.26523 0.81951 0.26266 0.0
C667 C 0.27262 0.81765 0.29462 0.0
C668 C 0.24625 0.8017 0.24872 0.0
C669 C 0.23418 0.78172 0.26652 0.0
C670 C 0.24126 0.78004 0.2988 0.0
C671 C 0.26031 0.7978 0.31267 0.0
H672 H 0.56847 0.73184 0.73657 0.0
H673 H 0.5029 0.70858 0.69576 0.0
H674 H 0.56896 0.76514 0.75765 0.0
H675 H 0.50352 0.74174 0.71661 0.0
H676 H 0.50112 0.78818 0.7949 0.0
H677 H 0.50261 0.75627 0.77325 0.0
H678 H 0.569 0.79959 0.73637 0.0
H679 H 0.56761 0.83177 0.75827 0.0
C680 C 0.55423 0.73387 0.73197 0.0
C681 C 0.53559 0.71751 0.71467 0.0
C682 C 0.55458 0.75296 0.74388 0.0
C683 C 0.53621 0.75592 0.73895 0.0
C684 C 0.51777 0.73974 0.72119 0.0
C685 C 0.51749 0.72079 0.70911 0.0
C686 C 0.51608 0.79097 0.78225 0.0
C687 C 0.53422 0.81252 0.77819 0.0
C688 C 0.51687 0.77268 0.76969 0.0
C689 C 0.53586 0.77547 0.75295 0.0
C690 C 0.55419 0.79697 0.74934 0.0
C691 C 0.55334 0.81536 0.76171 0.0
H692 H 0.73473 0.56642 0.75883 0.0
H693 H 0.70942 0.49857 0.79085 0.0
H694 H 0.76823 0.56752 0.7376 0.0
H695 H 0.7429 0.4998 0.76999 0.0
H696 H 0.79303 0.50167 0.69454 0.0
H697 H 0.76011 0.50173 0.71516 0.0
H698 H 0.80147 0.56659 0.7586 0.0
H699 H 0.83452 0.56668 0.73763 0.0
C700 C 0.73634 0.55179 0.76145 0.0
C701 C 0.71939 0.53239 0.77643 0.0
C702 C 0.75556 0.55246 0.74945 0.0
C703 C 0.75813 0.53371 0.75201 0.0
C704 C 0.74125 0.5144 0.76723 0.0
C705 C 0.72212 0.51376 0.77936 0.0
C706 C 0.79514 0.51598 0.70841 0.0
C707 C 0.8164 0.53414 0.71454 0.0
C708 C 0.77627 0.51595 0.72038 0.0
C709 C 0.77822 0.53411 0.73865 0.0
C710 C 0.79945 0.55243 0.74438 0.0
C711 C 0.81837 0.55243 0.73252 0.0
H712 H 0.26465 0.83071 0.74809 0.0
H713 H 0.28444 0.78927 0.69482 0.0
H714 H 0.23319 0.79759 0.7721 0.0
H715 H 0.25295 0.7563 0.71853 0.0
H716 H 0.20995 0.70467 0.79646 0.0
H717 H 0.24115 0.73849 0.77404 0.0
H718 H 0.19763 0.76475 0.75415 0.0
H719 H 0.16637 0.73098 0.7769 0.0
C720 C 0.26224 0.81456 0.7414 0.0
C721 C 0.27707 0.81262 0.71962 0.0
C722 C 0.24418 0.79561 0.75504 0.0
C723 C 0.24068 0.77437 0.74733 0.0
C724 C 0.25541 0.77246 0.72533 0.0
C725 C 0.27337 0.79136 0.71158 0.0
C726 C 0.20702 0.71768 0.78746 0.0
C727 C 0.18566 0.7151 0.78836 0.0
C728 C 0.22488 0.737 0.77443 0.0
C729 C 0.2218 0.75421 0.76216 0.0
C730 C 0.20053 0.75183 0.76364 0.0
C731 C 0.18262 0.73244 0.77652 0.0
H732 H 0.42358 0.26001 0.7352 0.0
H733 H 0.4946 0.28765 0.72754 0.0
H734 H 0.41998 0.22583 0.75846 0.0
H735 H 0.49093 0.25355 0.7505 0.0
H736 H 0.47898 0.19909 0.82456 0.0
H737 H 0.48078 0.23299 0.80435 0.0
H738 H 0.42502 0.19432 0.73903 0.0
H739 H 0.42304 0.16024 0.75943 0.0
C740 C 0.43841 0.25882 0.73853 0.0
C741 C 0.45938 0.27653 0.72954 0.0
C742 C 0.43632 0.23922 0.75167 0.0
C743 C 0.45517 0.23706 0.75635 0.0
C744 C 0.47613 0.25484 0.74756 0.0
C745 C 0.47821 0.27433 0.73422 0.0
C746 C 0.46701 0.19776 0.80601 0.0
C747 C 0.45094 0.17698 0.79346 0.0
C748 C 0.46812 0.2172 0.79434 0.0
C749 C 0.45313 0.2163 0.76998 0.0
C750 C 0.43669 0.19549 0.758 0.0
C751 C 0.43565 0.17601 0.76955 0.0
H752 H 0.15903 0.43787 0.76231 0.0
H753 H 0.19149 0.45271 0.66576 0.0
H754 H 0.19121 0.43842 0.78758 0.0
H755 H 0.22374 0.45344 0.6912 0.0
H756 H 0.26847 0.43168 0.7431 0.0
H757 H 0.23477 0.42822 0.71844 0.0
H758 H 0.23029 0.46686 0.79957 0.0
H759 H 0.26384 0.4702 0.82442 0.0
C760 C 0.17299 0.44119 0.74645 0.0
C761 C 0.17273 0.44531 0.71203 0.0
C762 C 0.19146 0.44161 0.76098 0.0
C763 C 0.21 0.44603 0.74138 0.0
C764 C 0.2096 0.44977 0.70687 0.0
C765 C 0.19117 0.44948 0.69235 0.0
C766 C 0.26022 0.43933 0.75579 0.0
C767 C 0.26886 0.45127 0.78568 0.0
C768 C 0.241 0.43744 0.74155 0.0
C769 C 0.22994 0.44732 0.75703 0.0
C770 C 0.23834 0.45889 0.78724 0.0
C771 C 0.25763 0.4609 0.80137 0.0
H772 H 0.82377 0.25968 0.76292 0.0
H773 H 0.78336 0.28899 0.78682 0.0
H774 H 0.79116 0.22709 0.74025 0.0
H775 H 0.75082 0.25634 0.76453 0.0
H776 H 0.70358 0.20645 0.68791 0.0
H777 H 0.73676 0.23864 0.70967 0.0
H778 H 0.75545 0.19535 0.75969 0.0
H779 H 0.72231 0.16302 0.73757 0.0
C780 C 0.80794 0.25915 0.76342 0.0
C781 C 0.80615 0.27695 0.7766 0.0
C782 C 0.78926 0.24043 0.7506 0.0
C783 C 0.76846 0.23919 0.75053 0.0
C784 C 0.76668 0.25695 0.76383 0.0
C785 C 0.78531 0.2756 0.77678 0.0
C786 C 0.71477 0.20376 0.70346 0.0
C787 C 0.71027 0.18217 0.71109 0.0
C788 C 0.73372 0.22222 0.71608 0.0
C789 C 0.74864 0.21952 0.73652 0.0
C790 C 0.74434 0.19794 0.74378 0.0
C791 C 0.72531 0.17944 0.73125 0.0
H792 H 0.4701 0.13043 0.08232 0.0
H793 H 0.39896 0.10239 0.08739 0.0
H794 H 0.4683 0.13011 0.0214 0.0
H795 H 0.39706 0.10144 0.02646 0.0
H796 H 0.40467 0.12489 0.91808 0.0
H797 H 0.4067 0.12568 0.97898 0.0
H798 H 0.45585 0.10503 0.97472 0.0
H799 H 0.4543 0.10489 0.91377 0.0
C800 C 0.45406 0.12408 0.07042 0.0
C801 C 0.43468 0.11647 0.08969 0.0
C802 C 0.453 0.12376 0.03548 0.0
C803 C 0.43253 0.11572 0.01899 0.0
C804 C 0.41315 0.10805 0.03832 0.0
C805 C 0.41422 0.10848 0.07327 0.0
C806 C 0.41592 0.12052 0.93014 0.0
C807 C 0.42933 0.11484 0.91108 0.0
C808 C 0.41698 0.12085 0.96508 0.0
C809 C 0.43141 0.11538 0.98179 0.0
C810 C 0.44479 0.10964 0.96268 0.0
C811 C 0.4438 0.10943 0.92772 0.0
H812 H 0.34529 0.46308 0.91281 0.0
H813 H 0.28028 0.40426 0.91259 0.0
H814 H 0.34566 0.46243 0.97372 0.0
H815 H 0.28042 0.40395 0.97367 0.0
H816 H 0.29925 0.3973 0.08162 0.0
H817 H 0.29841 0.39734 0.02056 0.0
H818 H 0.32805 0.46875 0.02095 0.0
H819 H 0.32942 0.46878 0.08184 0.0
C820 C 0.33102 0.45007 0.92576 0.0
C821 C 0.31275 0.43372 0.90783 0.0
C822 C 0.33117 0.44978 0.96072 0.0
C823 C 0.31303 0.43319 0.97861 0.0
C824 C 0.29477 0.4168 0.96067 0.0
C825 C 0.29464 0.41705 0.92565 0.0
C826 C 0.30556 0.413 0.06866 0.0
C827 C 0.31447 0.43304 0.08659 0.0
C828 C 0.30497 0.41301 0.03366 0.0
C829 C 0.31322 0.43305 0.01584 0.0
C830 C 0.3219 0.45305 0.03385 0.0
C831 C 0.32256 0.45305 0.06879 0.0
H832 H 0.88122 0.28833 0.91661 0.0
H833 H 0.86137 0.33809 0.91313 0.0
H834 H 0.88012 0.28868 0.97757 0.0
H835 H 0.85977 0.33805 0.9741 0.0
H836 H 0.88377 0.34984 0.08314 0.0
H837 H 0.88427 0.34939 0.02213 0.0
H838 H 0.85409 0.27793 0.02355 0.0
H839 H 0.85405 0.27842 0.08456 0.0
C840 C 0.87649 0.29925 0.92884 0.0
C841 C 0.87141 0.3132 0.91001 0.0
C842 C 0.87574 0.29935 0.9638 0.0
C843 C 0.86983 0.31338 0.98074 0.0
C844 C 0.86466 0.32727 0.96187 0.0
C845 C 0.86546 0.32719 0.9269 0.0
C846 C 0.87719 0.33403 0.07044 0.0
C847 C 0.86892 0.31417 0.08872 0.0
C848 C 0.87737 0.33376 0.03545 0.0
C849 C 0.86925 0.31363 0.01794 0.0
C850 C 0.86078 0.29376 0.03626 0.0
C851 C 0.86064 0.29403 0.07124 0.0
H852 H 0.58441 0.8649 0.0787 0.0
H853 H 0.53094 0.87958 0.08118 0.0
H854 H 0.58438 0.86607 0.01769 0.0
H855 H 0.53129 0.8813 0.02026 0.0
H856 H 0.52294 0.86071 0.91052 0.0
H857 H 0.52238 0.85797 0.97137 0.0
H858 H 0.59411 0.89263 0.97269 0.0
H859 H 0.59467 0.89488 0.91178 0.0
C860 C 0.57269 0.86843 0.06624 0.0
C861 C 0.55769 0.87215 0.08479 0.0
C862 C 0.57276 0.86924 0.03127 0.0
C863 C 0.55787 0.87384 0.01408 0.0
C864 C 0.54278 0.87742 0.03268 0.0
C865 C 0.54267 0.87656 0.06763 0.0
C866 C 0.5386 0.86773 0.92378 0.0
C867 C 0.55886 0.87802 0.90631 0.0
C868 C 0.53827 0.86626 0.95869 0.0
C869 C 0.5582 0.8751 0.97692 0.0
C870 C 0.57846 0.88536 0.9594 0.0
C871 C 0.57878 0.88678 0.92448 0.0
H872 H 0.67968 0.54229 0.07944 0.0
H873 H 0.61785 0.54284 0.07562 0.0
H874 H 0.68182 0.5441 0.01848 0.0
H875 H 0.61967 0.54402 0.01474 0.0
H876 H 0.64305 0.57237 0.91031 0.0
H877 H 0.64092 0.5697 0.97108 0.0
H878 H 0.66467 0.52296 0.96839 0.0
H879 H 0.66739 0.52609 0.90753 0.0
C880 C 0.66644 0.54259 0.06558 0.0
C881 C 0.64866 0.54254 0.08237 0.0
C882 C 0.66761 0.54351 0.03063 0.0
C883 C 0.65097 0.54431 0.01172 0.0
C884 C 0.63298 0.54383 0.02855 0.0
C885 C 0.63186 0.54302 0.06347 0.0
C886 C 0.64784 0.56153 0.92265 0.0
C887 C 0.6554 0.54945 0.90408 0.0
C888 C 0.64647 0.55989 0.95751 0.0
C889 C 0.65253 0.54604 0.97462 0.0
C890 C 0.66013 0.53398 0.95603 0.0
C891 C 0.66158 0.53569 0.92114 0.0
H892 H 0.11973 0.64053 0.91845 0.0
H893 H 0.11731 0.7012 0.9279 0.0
H894 H 0.11672 0.63587 0.97902 0.0
H895 H 0.11378 0.69625 0.98847 0.0
H896 H 0.13151 0.69238 0.0977 0.0
H897 H 0.13509 0.69732 0.03718 0.0
H898 H 0.08997 0.62709 0.02362 0.0
H899 H 0.08676 0.62205 0.08418 0.0
C900 C 0.11849 0.65285 0.93343 0.0
C901 C 0.11878 0.67125 0.91833 0.0
C902 C 0.11662 0.65009 0.96816 0.0
C903 C 0.11494 0.66565 0.9886 0.0
C904 C 0.11531 0.6841 0.97349 0.0
C905 C 0.11722 0.68688 0.93874 0.0
C906 C 0.12234 0.67798 0.08182 0.0
C907 C 0.10885 0.65681 0.09577 0.0
C908 C 0.1243 0.68084 0.04711 0.0
C909 C 0.11281 0.66261 0.02554 0.0
C910 C 0.09929 0.64144 0.03952 0.0
C911 C 0.09736 0.63857 0.07425 0.0
H912 H 0.88784 0.53546 0.58481 0.0
H913 H 0.86662 0.58421 0.5858 0.0
H914 H 0.88809 0.536 0.5238 0.0
H915 H 0.86633 0.58432 0.5248 0.0
H916 H 0.89146 0.59658 0.41686 0.0
H917 H 0.8915 0.59613 0.47785 0.0
H918 H 0.86311 0.52487 0.47661 0.0
H919 H 0.8636 0.52538 0.41559 0.0
C920 C 0.88312 0.54621 0.57202 0.0
C921 C 0.87724 0.55982 0.59017 0.0
C922 C 0.88314 0.54642 0.53702 0.0
C923 C 0.87722 0.56019 0.51938 0.0
C924 C 0.87128 0.57376 0.53758 0.0
C925 C 0.87133 0.5736 0.57257 0.0
C926 C 0.88522 0.58081 0.42959 0.0
C927 C 0.87754 0.56102 0.41136 0.0
C928 C 0.88513 0.58054 0.46458 0.0
C929 C 0.87728 0.56046 0.48215 0.0
C930 C 0.86955 0.54066 0.46388 0.0
C931 C 0.86971 0.54094 0.42888 0.0
H932 H 0.36088 0.92789 0.58473 0.0
H933 H 0.31874 0.85658 0.58921 0.0
H934 H 0.3573 0.92652 0.52378 0.0
H935 H 0.31527 0.85528 0.52827 0.0
H936 H 0.33685 0.86192 0.41689 0.0
H937 H 0.34048 0.86309 0.4778 0.0
H938 H 0.32615 0.91671 0.48178 0.0
H939 H 0.32243 0.91555 0.42086 0.0
C940 C 0.35094 0.91193 0.57272 0.0
C941 C 0.34008 0.89234 0.59176 0.0
C942 C 0.34879 0.91118 0.53787 0.0
C943 C 0.33598 0.89081 0.52137 0.0
C944 C 0.32537 0.87119 0.54036 0.0
C945 C 0.32728 0.87196 0.57523 0.0
C946 C 0.33444 0.87394 0.43075 0.0
C947 C 0.32935 0.88864 0.41408 0.0
C948 C 0.33643 0.87453 0.46561 0.0
C949 C 0.33364 0.89002 0.48444 0.0
C950 C 0.32858 0.90474 0.4678 0.0
C951 C 0.32632 0.90397 0.43298 0.0
H952 H 0.47056 0.33358 0.58544 0.0
H953 H 0.3991 0.29219 0.58366 0.0
H954 H 0.47143 0.33226 0.52452 0.0
H955 H 0.39994 0.29131 0.52269 0.0
H956 H 0.41156 0.27713 0.4153 0.0
H957 H 0.41152 0.27684 0.47636 0.0
H958 H 0.46095 0.34659 0.47696 0.0
H959 H 0.46138 0.34678 0.41601 0.0
C960 C 0.45503 0.32422 0.57205 0.0
C961 C 0.43475 0.31302 0.58939 0.0
C962 C 0.45552 0.32357 0.53712 0.0
C963 C 0.43575 0.31175 0.51873 0.0
C964 C 0.4155 0.30034 0.53611 0.0
C965 C 0.41501 0.30095 0.57106 0.0
C966 C 0.42247 0.29239 0.42846 0.0
C967 C 0.43645 0.31198 0.41079 0.0
C968 C 0.42235 0.29225 0.46346 0.0
C969 C 0.43621 0.3117 0.48154 0.0
C970 C 0.4503 0.33125 0.46382 0.0
C971 C 0.45044 0.33138 0.42885 0.0
H972 H 0.07769 0.46286 0.58693 0.0
H973 H 0.12109 0.43506 0.5881 0.0
H974 H 0.07782 0.46252 0.52592 0.0
H975 H 0.12084 0.43432 0.52705 0.0
H976 H 0.13414 0.45897 0.41825 0.0
H977 H 0.13436 0.4595 0.47933 0.0
H978 H 0.06397 0.43629 0.47971 0.0
H979 H 0.06381 0.43617 0.41872 0.0
C980 C 0.08719 0.4566 0.57419 0.0
C981 C 0.09937 0.44899 0.59239 0.0
C982 C 0.08716 0.45628 0.5392 0.0
C983 C 0.09931 0.44835 0.52161 0.0
C984 C 0.11153 0.44078 0.53983 0.0
C985 C 0.11156 0.44109 0.57483 0.0
C986 C 0.11871 0.45397 0.43137 0.0
C987 C 0.09896 0.44757 0.41361 0.0
C988 C 0.11882 0.45416 0.46638 0.0
C989 C 0.09919 0.44796 0.4844 0.0
C990 C 0.07944 0.44146 0.4666 0.0
C991 C 0.07932 0.44128 0.43161 0.0
H992 H 0.71181 0.12308 0.41751 0.0
H993 H 0.64525 0.11256 0.4094 0.0
H994 H 0.70847 0.12132 0.47834 0.0
H995 H 0.64173 0.11026 0.47014 0.0
H996 H 0.65214 0.13117 0.58017 0.0
H997 H 0.65567 0.13328 0.51939 0.0
H998 H 0.68915 0.0951 0.52284 0.0
H999 H 0.68613 0.09347 0.58368 0.0
C1000 C 0.69644 0.1203 0.42869 0.0
C1001 C 0.67882 0.11799 0.40861 0.0
C1002 C 0.69447 0.11916 0.46356 0.0
C1003 C 0.67482 0.11562 0.47913 0.0
C1004 C 0.6572 0.11331 0.459 0.0
C1005 C 0.65919 0.1145 0.42415 0.0
C1006 C 0.66024 0.12321 0.56796 0.0
C1007 C 0.66889 0.11219 0.58677 0.0
C1008 C 0.66216 0.12432 0.53309 0.0
C1009 C 0.6727 0.11437 0.51622 0.0
C1010 C 0.68123 0.10323 0.53506 0.0
C1011 C 0.67937 0.10218 0.56994 0.0
H1012 H 0.52949 0.67186 0.41373 0.0
H1013 H 0.56895 0.63975 0.41906 0.0
H1014 H 0.53183 0.67636 0.47453 0.0
H1015 H 0.57121 0.64425 0.47975 0.0
H1016 H 0.59207 0.68067 0.58082 0.0
H1017 H 0.58906 0.67629 0.52011 0.0
H1018 H 0.51865 0.65227 0.52631 0.0
H1019 H 0.52159 0.65666 0.5871 0.0
C1020 C 0.53859 0.6657 0.42786 0.0
C1021 C 0.54908 0.65548 0.41159 0.0
C1022 C 0.53984 0.6682 0.46265 0.0
C1023 C 0.55178 0.66074 0.48178 0.0
C1024 C 0.56212 0.65039 0.46555 0.0
C1025 C 0.5607 0.64769 0.43083 0.0
C1026 C 0.57596 0.67455 0.56926 0.0
C1027 C 0.55706 0.669 0.58876 0.0
C1028 C 0.57422 0.67191 0.53453 0.0
C1029 C 0.55361 0.66386 0.51856 0.0
C1030 C 0.53477 0.65865 0.53797 0.0
C1031 C 0.53646 0.66108 0.57276 0.0
H1032 H 0.5189 0.14583 0.24553 0.0
H1033 H 0.51802 0.09846 0.17457 0.0
H1034 H 0.55275 0.14988 0.27036 0.0
H1035 H 0.5516 0.10219 0.19986 0.0
H1036 H 0.62237 0.12774 0.23436 0.0
H1037 H 0.59103 0.12788 0.2073 0.0
H1038 H 0.5634 0.12772 0.30429 0.0
H1039 H 0.59494 0.12805 0.33138 0.0
C1040 C 0.52595 0.13631 0.23517 0.0
C1041 C 0.51571 0.12175 0.20814 0.0
C1042 C 0.54528 0.13856 0.24953 0.0
C1043 C 0.55482 0.1263 0.2372 0.0
C1044 C 0.54483 0.11208 0.20972 0.0
C1045 C 0.5255 0.10985 0.19533 0.0
C1046 C 0.6097 0.12791 0.24993 0.0
C1047 C 0.61111 0.12779 0.28505 0.0
C1048 C 0.59167 0.12786 0.2344 0.0
C1049 C 0.57466 0.1277 0.25362 0.0
C1050 C 0.57635 0.1281 0.28874 0.0
C1051 C 0.59438 0.12817 0.30428 0.0
H1052 H 0.47126 0.61688 0.27845 0.0
H1053 H 0.50335 0.57871 0.25705 0.0
H1054 H 0.43688 0.58762 0.25356 0.0
H1055 H 0.46904 0.54962 0.23202 0.0
H1056 H 0.41171 0.51542 0.15677 0.0
H1057 H 0.44551 0.54601 0.18059 0.0
H1058 H 0.40847 0.54685 0.2668 0.0
H1059 H 0.37458 0.51611 0.24314 0.0
C1060 C 0.47098 0.60227 0.26843 0.0
C1061 C 0.49 0.60008 0.26973 0.0
C1062 C 0.45129 0.58552 0.25432 0.0
C1063 C 0.45036 0.56643 0.24077 0.0
C1064 C 0.46938 0.56428 0.24198 0.0
C1065 C 0.48896 0.58086 0.25651 0.0
C1066 C 0.4107 0.52223 0.18066 0.0
C1067 C 0.39048 0.5133 0.19813 0.0
C1068 C 0.43008 0.53965 0.19437 0.0
C1069 C 0.42959 0.54868 0.2256 0.0
C1070 C 0.40927 0.54024 0.24261 0.0
C1071 C 0.38992 0.52261 0.22911 0.0
H1072 H 0.86915 0.49263 0.23933 0.0
H1073 H 0.87891 0.47058 0.33578 0.0
H1074 H 0.86998 0.46156 0.2125 0.0
H1075 H 0.88 0.43967 0.30882 0.0
H1076 H 0.85903 0.37488 0.25272 0.0
H1077 H 0.85575 0.40487 0.27859 0.0
H1078 H 0.8975 0.44986 0.20129 0.0
H1079 H 0.90061 0.41984 0.17514 0.0
C1080 C 0.87143 0.48114 0.25483 0.0
C1081 C 0.87401 0.48411 0.28971 0.0
C1082 C 0.87203 0.46342 0.23941 0.0
C1083 C 0.87511 0.4482 0.25852 0.0
C1084 C 0.87736 0.45098 0.29344 0.0
C1085 C 0.87686 0.46877 0.30887 0.0
C1086 C 0.86743 0.39114 0.24112 0.0
C1087 C 0.88013 0.39498 0.21189 0.0
C1088 C 0.86564 0.40834 0.25608 0.0
C1089 C 0.87642 0.42974 0.24205 0.0
C1090 C 0.88881 0.4335 0.21251 0.0
C1091 C 0.89069 0.41632 0.19763 0.0
H1092 H 0.48915 0.86216 0.25618 0.0
H1093 H 0.46873 0.87785 0.16273 0.0
H1094 H 0.45772 0.8614 0.2844 0.0
H1095 H 0.43759 0.87758 0.19114 0.0
H1096 H 0.37308 0.85711 0.24627 0.0
H1097 H 0.40247 0.85365 0.21864 0.0
H1098 H 0.44655 0.88776 0.30137 0.0
H1099 H 0.41705 0.89078 0.32934 0.0
C1100 C 0.47794 0.86541 0.24163 0.0
C1101 C 0.4815 0.87016 0.20722 0.0
C1102 C 0.45999 0.86509 0.25787 0.0
C1103 C 0.44521 0.86955 0.24009 0.0
C1104 C 0.44851 0.87382 0.20551 0.0
C1105 C 0.46644 0.8741 0.18925 0.0
C1106 C 0.389 0.86374 0.25868 0.0
C1107 C 0.39275 0.87428 0.28998 0.0
C1108 C 0.40588 0.86187 0.24273 0.0
C1109 C 0.42688 0.8705 0.25772 0.0
C1110 C 0.43048 0.88068 0.28931 0.0
C1111 C 0.41359 0.88252 0.30528 0.0
H1112 H 0.62125 0.47756 0.23753 0.0
H1113 H 0.57216 0.49579 0.2113 0.0
H1114 H 0.59208 0.44271 0.2612 0.0
H1115 H 0.54312 0.46105 0.23514 0.0
H1116 H 0.49519 0.38662 0.24607 0.0
H1117 H 0.52508 0.42077 0.22226 0.0
H1118 H 0.56545 0.42962 0.30942 0.0
H1119 H 0.53553 0.39526 0.33332 0.0
C1120 C 0.60426 0.47415 0.23683 0.0
C1121 C 0.59901 0.48943 0.22246 0.0
C1122 C 0.58759 0.45425 0.25055 0.0
C1123 C 0.56533 0.44914 0.24994 0.0
C1124 C 0.5601 0.46442 0.2356 0.0
C1125 C 0.57676 0.48437 0.2221 0.0
C1126 C 0.51047 0.39575 0.26014 0.0
C1127 C 0.51296 0.38823 0.29165 0.0
C1128 C 0.52753 0.4154 0.24656 0.0
C1129 C 0.54754 0.42792 0.26406 0.0
C1130 C 0.55025 0.42022 0.29527 0.0
C1131 C 0.53309 0.4006 0.309 0.0
H1132 H 0.14868 0.61138 0.18402 0.0
H1133 H 0.10123 0.60804 0.25707 0.0
H1134 H 0.14359 0.57602 0.20449 0.0
H1135 H 0.09656 0.57312 0.27791 0.0
H1136 H 0.07435 0.49961 0.28118 0.0
H1137 H 0.08031 0.53502 0.26012 0.0
H1138 H 0.15072 0.55906 0.2528 0.0
H1139 H 0.1447 0.52338 0.2732 0.0
C1140 C 0.1373 0.6032 0.20457 0.0
C1141 C 0.1253 0.61249 0.21879 0.0
C1142 C 0.13446 0.58299 0.21641 0.0
C1143 C 0.11957 0.57168 0.24273 0.0
C1144 C 0.10785 0.58118 0.25721 0.0
C1145 C 0.11064 0.6013 0.24536 0.0
C1146 C 0.09112 0.51243 0.2751 0.0
C1147 C 0.10905 0.50867 0.27895 0.0
C1148 C 0.09455 0.53279 0.26318 0.0
C1149 C 0.11601 0.54992 0.25491 0.0
C1150 C 0.13395 0.54613 0.2586 0.0
C1151 C 0.13051 0.52573 0.27049 0.0
H1152 H 0.4896 0.87111 0.73679 0.0
H1153 H 0.45742 0.85678 0.83352 0.0
H1154 H 0.45749 0.8706 0.7116 0.0
H1155 H 0.42505 0.85577 0.80811 0.0
H1156 H 0.38399 0.88294 0.75867 0.0
H1157 H 0.41511 0.88149 0.78382 0.0
H1158 H 0.41889 0.84625 0.69724 0.0
H1159 H 0.38803 0.84815 0.67167 0.0
C1160 C 0.47558 0.86763 0.75265 0.0
C1161 C 0.47612 0.86407 0.78722 0.0
C1162 C 0.45711 0.86722 0.73814 0.0
C1163 C 0.43871 0.86319 0.75783 0.0
C1164 C 0.43909 0.85924 0.79231 0.0
C1165 C 0.45759 0.85969 0.80685 0.0
C1166 C 0.39143 0.87485 0.74497 0.0
C1167 C 0.38355 0.86571 0.7131 0.0
C1168 C 0.40919 0.87389 0.75952 0.0
C1169 C 0.41947 0.86371 0.74259 0.0
C1170 C 0.41151 0.85445 0.71078 0.0
C1171 C 0.39376 0.85545 0.69618 0.0
H1172 H 0.57718 0.4889 0.79984 0.0
H1173 H 0.62528 0.47907 0.7453 0.0
H1174 H 0.54731 0.45445 0.77666 0.0
H1175 H 0.59535 0.44443 0.72244 0.0
H1176 H 0.53308 0.39836 0.65933 0.0
H1177 H 0.56393 0.432 0.68307 0.0
H1178 H 0.53274 0.4142 0.78042 0.0
H1179 H 0.5018 0.38075 0.75672 0.0
C1180 C 0.5814 0.47936 0.78301 0.0
C1181 C 0.60361 0.48674 0.77441 0.0
C1182 C 0.56428 0.45954 0.76989 0.0
C1183 C 0.56898 0.4467 0.74778 0.0
C1184 C 0.59119 0.45407 0.73916 0.0
C1185 C 0.60833 0.47386 0.7524 0.0
C1186 C 0.53286 0.40155 0.68583 0.0
C1187 C 0.51493 0.38691 0.70609 0.0
C1188 C 0.55058 0.42078 0.69945 0.0
C1189 C 0.5507 0.4258 0.73358 0.0
C1190 C 0.53297 0.41095 0.75394 0.0
C1191 C 0.51531 0.39171 0.74037 0.0
H1192 H 0.14793 0.61958 0.76915 0.0
H1193 H 0.07843 0.57364 0.78783 0.0
H1194 H 0.15222 0.58925 0.74682 0.0
H1195 H 0.08259 0.54356 0.76482 0.0
H1196 H 0.10221 0.49082 0.75656 0.0
H1197 H 0.09954 0.52185 0.77908 0.0
H1198 H 0.14175 0.56391 0.69952 0.0
H1199 H 0.14489 0.53286 0.67734 0.0
C1200 C 0.13355 0.60304 0.76835 0.0
C1201 C 0.11286 0.599 0.78042 0.0
C1202 C 0.13598 0.58569 0.75537 0.0
C1203 C 0.11777 0.56395 0.75416 0.0
C1204 C 0.09705 0.56002 0.76594 0.0
C1205 C 0.09464 0.57731 0.77898 0.0
C1206 C 0.111 0.50669 0.74386 0.0
C1207 C 0.12371 0.50934 0.71506 0.0
C1208 C 0.10934 0.52446 0.75669 0.0
C1209 C 0.12027 0.54533 0.74096 0.0
C1210 C 0.13328 0.5481 0.71241 0.0
C1211 C 0.135 0.53029 0.69961 0.0
H1212 H 0.6081 0.12368 0.75541 0.0
H1213 H 0.58545 0.13139 0.65819 0.0
H1214 H 0.57659 0.12377 0.78161 0.0
H1215 H 0.55411 0.13201 0.68461 0.0
H1216 H 0.48751 0.10486 0.74016 0.0
H1217 H 0.51978 0.10668 0.71308 0.0
H1218 H 0.56146 0.14755 0.79394 0.0
H1219 H 0.52911 0.1453 0.82143 0.0
C1220 C 0.59651 0.12562 0.73962 0.0
C1221 C 0.59927 0.12746 0.70466 0.0
C1222 C 0.57849 0.1258 0.7547 0.0
C1223 C 0.5628 0.12788 0.73522 0.0
C1224 C 0.56573 0.13007 0.70029 0.0
C1225 C 0.58377 0.12986 0.68517 0.0
C1226 C 0.50356 0.11425 0.75216 0.0
C1227 C 0.50572 0.12485 0.78305 0.0
C1228 C 0.5221 0.11543 0.7365 0.0
C1229 C 0.54322 0.12726 0.75133 0.0
C1230 C 0.54538 0.13804 0.78206 0.0
C1231 C 0.52685 0.13682 0.79776 0.0
H1232 H 0.40704 0.5256 0.83585 0.0
H1233 H 0.36893 0.51274 0.74482 0.0
H1234 H 0.43838 0.55729 0.8093 0.0
H1235 H 0.40002 0.54487 0.71859 0.0
H1236 H 0.46875 0.58383 0.67003 0.0
H1237 H 0.43586 0.55453 0.69737 0.0
H1238 H 0.45247 0.59403 0.78758 0.0
H1239 H 0.48581 0.6231 0.76049 0.0
C1240 C 0.40522 0.52976 0.81035 0.0
C1241 C 0.38556 0.51654 0.79236 0.0
C1242 C 0.42317 0.54801 0.79515 0.0
C1243 C 0.42181 0.55356 0.76169 0.0
C1244 C 0.40181 0.54081 0.74416 0.0
C1245 C 0.38393 0.52247 0.75928 0.0
C1246 C 0.46535 0.58632 0.69565 0.0
C1247 C 0.47996 0.60575 0.71313 0.0
C1248 C 0.44638 0.56957 0.71128 0.0
C1249 C 0.44147 0.5719 0.7447 0.0
C1250 C 0.4559 0.59154 0.76198 0.0
C1251 C 0.47496 0.60825 0.7464 0.0
H1252 H 0.86562 0.37488 0.73867 0.0
H1253 H 0.88627 0.41035 0.83263 0.0
H1254 H 0.86689 0.40715 0.71239 0.0
H1255 H 0.88783 0.44269 0.80617 0.0
H1256 H 0.86615 0.4879 0.75638 0.0
H1257 H 0.86314 0.45474 0.78213 0.0
H1258 H 0.89471 0.44506 0.69569 0.0
H1259 H 0.89746 0.47808 0.66965 0.0
C1260 C 0.87043 0.38955 0.75373 0.0
C1261 C 0.87586 0.39004 0.78776 0.0
C1262 C 0.87127 0.40808 0.7386 0.0
C1263 C 0.87749 0.42748 0.75718 0.0
C1264 C 0.88273 0.4279 0.79127 0.0
C1265 C 0.88194 0.4094 0.80639 0.0
C1266 C 0.87239 0.47868 0.74278 0.0
C1267 C 0.88209 0.48567 0.71096 0.0
C1268 C 0.87078 0.45974 0.75765 0.0
C1269 C 0.87875 0.44732 0.74101 0.0
C1270 C 0.8882 0.45415 0.70901 0.0
C1271 C 0.88988 0.47314 0.69416 0.0
loop_
_geom_bond_atom_site_label_1
_geom_bond_atom_site_label_2
_geom_bond_distance
_geom_bond_site_symmetry_2
_ccdc_geom_bond_type
C0 O1 1.160 . S
C0 O7 1.185 . S
O1 C0 1.160 . S
O2 Zn3 1.899 . S
O2 C10 1.284 . S
Zn3 O2 1.899 . S
Zn3 O4 2.032 . S
Zn3 O7 2.086 . S
Zn3 O12 1.977 . S
O4 Zn3 2.032 . S
O4 C8 1.278 . S
C5 O6 1.203 . S
C5 O12 1.267 . S
O6 C5 1.203 . S
O7 C0 1.185 . S
O7 Zn3 2.086 . S
C8 O4 1.278 . S
C8 O9 1.211 . S
O9 C8 1.211 . S
C10 O2 1.284 . S
C10 O11 1.273 . S
O11 C10 1.273 . S
O12 Zn3 1.977 . S
O12 C5 1.267 . S
C13 O14 1.160 . S
C13 O20 1.185 . S
O14 C13 1.160 . S
O15 Zn16 1.899 . S
O15 C23 1.284 . S
Zn16 O15 1.899 . S
Zn16 O17 2.032 . S
Zn16 O20 2.086 . S
Zn16 O25 1.977 . S
O17 Zn16 2.032 . S
O17 C21 1.278 . S
C18 O19 1.203 . S
C18 O25 1.267 . S
O19 C18 1.203 . S
O20 C13 1.185 . S
O20 Zn16 2.086 . S
C21 O17 1.278 . S
C21 O22 1.211 . S
O22 C21 1.211 . S
C23 O15 1.284 . S
C23 O24 1.273 . S
O24 C23 1.273 . S
O25 Zn16 1.977 . S
O25 C18 1.267 . S
C26 O27 1.160 . S
C26 O33 1.185 . S
O27 C26 1.160 . S
O28 Zn29 1.899 . S
O28 C36 1.284 . S
Zn29 O28 1.899 . S
Zn29 O30 2.032 . S
Zn29 O33 2.086 . S
Zn29 O38 1.977 . S
O30 Zn29 2.032 . S
O30 C34 1.278 . S
C31 O32 1.203 . S
C31 O38 1.267 . S
O32 C31 1.203 . S
O33 C26 1.185 . S
O33 Zn29 2.086 . S
C34 O30 1.278 . S
C34 O35 1.211 . S
O35 C34 1.211 . S
C36 O28 1.284 . S
C36 O37 1.273 . S
O37 C36 1.273 . S
O38 Zn29 1.977 . S
O38 C31 1.267 . S
C39 O40 1.160 . S
C39 O46 1.185 . S
O40 C39 1.160 . S
O41 Zn42 1.899 . S
O41 C49 1.284 . S
Zn42 O41 1.899 . S
Zn42 O43 2.032 . S
Zn42 O46 2.086 . S
Zn42 O51 1.977 . S
O43 Zn42 2.032 . S
O43 C47 1.278 . S
C44 O45 1.203 . S
C44 O51 1.267 . S
O45 C44 1.203 . S
O46 C39 1.185 . S
O46 Zn42 2.086 . S
C47 O43 1.278 . S
C47 O48 1.211 . S
O48 C47 1.211 . S
C49 O41 1.284 . S
C49 O50 1.273 . S
O50 C49 1.273 . S
O51 Zn42 1.977 . S
O51 C44 1.267 . S
C52 O53 1.160 . S
C52 O59 1.185 . S
O53 C52 1.160 . S
O54 Zn55 1.899 . S
O54 C62 1.284 . S
Zn55 O54 1.899 . S
Zn55 O56 2.032 . S
Zn55 O59 2.086 . S
Zn55 O64 1.977 . S
O56 Zn55 2.032 . S
O56 C60 1.278 . S
C57 O58 1.203 . S
C57 O64 1.267 . S
O58 C57 1.203 . S
O59 C52 1.185 . S
O59 Zn55 2.086 . S
C60 O56 1.278 . S
C60 O61 1.211 . S
O61 C60 1.211 . S
C62 O54 1.284 . S
C62 O63 1.273 . S
O63 C62 1.273 . S
O64 Zn55 1.977 . S
O64 C57 1.267 . S
C65 O66 1.160 . S
C65 O72 1.185 . S
O66 C65 1.160 . S
O67 Zn68 1.899 . S
O67 C75 1.284 . S
Zn68 O67 1.899 . S
Zn68 O69 2.032 . S
Zn68 O72 2.086 . S
Zn68 O77 1.977 . S
O69 Zn68 2.032 . S
O69 C73 1.278 . S
C70 O71 1.203 . S
C70 O77 1.267 . S
O71 C70 1.203 . S
O72 C65 1.185 . S
O72 Zn68 2.086 . S
C73 O69 1.278 . S
C73 O74 1.211 . S
O74 C73 1.211 . S
C75 O67 1.284 . S
C75 O76 1.273 . S
O76 C75 1.273 . S
O77 Zn68 1.977 . S
O77 C70 1.267 . S
C78 O79 1.160 . S
C78 O85 1.185 . S
O79 C78 1.160 . S
O80 Zn81 1.899 . S
O80 C88 1.284 . S
Zn81 O80 1.899 . S
Zn81 O82 2.032 . S
Zn81 O85 2.086 . S
Zn81 O90 1.977 . S
O82 Zn81 2.032 . S
O82 C86 1.278 . S
C83 O84 1.203 . S
C83 O90 1.267 . S
O84 C83 1.203 . S
O85 C78 1.185 . S
O85 Zn81 2.086 . S
C86 O82 1.278 . S
C86 O87 1.211 . S
O87 C86 1.211 . S
C88 O80 1.284 . S
C88 O89 1.273 . S
O89 C88 1.273 . S
O90 Zn81 1.977 . S
O90 C83 1.267 . S
C91 O92 1.160 . S
C91 O98 1.185 . S
O92 C91 1.160 . S
O93 Zn94 1.899 . S
O93 C101 1.284 . S
Zn94 O93 1.899 . S
Zn94 O95 2.032 . S
Zn94 O98 2.086 . S
Zn94 O103 1.977 . S
O95 Zn94 2.032 . S
O95 C99 1.278 . S
C96 O97 1.203 . S
C96 O103 1.267 . S
O97 C96 1.203 . S
O98 C91 1.185 . S
O98 Zn94 2.086 . S
C99 O95 1.278 . S
C99 O100 1.211 . S
O100 C99 1.211 . S
C101 O93 1.284 . S
C101 O102 1.273 . S
O102 C101 1.273 . S
O103 Zn94 1.977 . S
O103 C96 1.267 . S
C104 O105 1.160 . S
C104 O111 1.185 . S
O105 C104 1.160 . S
O106 Zn107 1.899 . S
O106 C114 1.284 . S
Zn107 O106 1.899 . S
Zn107 O108 2.032 . S
Zn107 O111 2.086 . S
Zn107 O116 1.977 . S
O108 Zn107 2.032 . S
O108 C112 1.278 . S
C109 O110 1.203 . S
C109 O116 1.267 . S
O110 C109 1.203 . S
O111 C104 1.185 . S
O111 Zn107 2.086 . S
C112 O108 1.278 . S
C112 O113 1.211 . S
O113 C112 1.211 . S
C114 O106 1.284 . S
C114 O115 1.273 . S
O115 C114 1.273 . S
O116 Zn107 1.977 . S
O116 C109 1.267 . S
C117 O118 1.160 . S
C117 O124 1.185 . S
O118 C117 1.160 . S
O119 Zn120 1.899 . S
O119 C127 1.284 . S
Zn120 O119 1.899 . S
Zn120 O121 2.032 . S
Zn120 O124 2.086 . S
Zn120 O129 1.977 . S
O121 Zn120 2.032 . S
O121 C125 1.278 . S
C122 O123 1.203 . S
C122 O129 1.267 . S
O123 C122 1.203 . S
O124 C117 1.185 . S
O124 Zn120 2.086 . S
C125 O121 1.278 . S
C125 O126 1.211 . S
O126 C125 1.211 . S
C127 O119 1.284 . S
C127 O128 1.273 . S
O128 C127 1.273 . S
O129 Zn120 1.977 . S
O129 C122 1.267 . S
C130 O131 1.160 . S
C130 O137 1.185 . S
O131 C130 1.160 . S
O132 Zn133 1.899 . S
O132 C140 1.284 . S
Zn133 O132 1.899 . S
Zn133 O134 2.032 . S
Zn133 O137 2.086 . S
Zn133 O142 1.977 . S
O134 Zn133 2.032 . S
O134 C138 1.278 . S
C135 O136 1.203 . S
C135 O142 1.267 . S
O136 C135 1.203 . S
O137 C130 1.185 . S
O137 Zn133 2.086 . S
C138 O134 1.278 . S
C138 O139 1.211 . S
O139 C138 1.211 . S
C140 O132 1.284 . S
C140 O141 1.273 . S
O141 C140 1.273 . S
O142 Zn133 1.977 . S
O142 C135 1.267 . S
C143 O144 1.160 . S
C143 O150 1.185 . S
O144 C143 1.160 . S
O145 Zn146 1.899 . S
O145 C153 1.284 . S
Zn146 O145 1.899 . S
Zn146 O147 2.032 . S
Zn146 O150 2.086 . S
Zn146 O155 1.977 . S
O147 Zn146 2.032 . S
O147 C151 1.278 . S
C148 O149 1.203 . S
C148 O155 1.267 . S
O149 C148 1.203 . S
O150 C143 1.185 . S
O150 Zn146 2.086 . S
C151 O147 1.278 . S
C151 O152 1.211 . S
O152 C151 1.211 . S
C153 O145 1.284 . S
C153 O154 1.273 . S
O154 C153 1.273 . S
O155 Zn146 1.977 . S
O155 C148 1.267 . S
C156 O157 1.160 . S
C156 O163 1.185 . S
O157 C156 1.160 . S
O158 Zn159 1.899 . S
O158 C166 1.284 . S
Zn159 O158 1.899 . S
Zn159 O160 2.032 . S
Zn159 O163 2.086 . S
Zn159 O168 1.977 . S
O160 Zn159 2.032 . S
O160 C164 1.278 . S
C161 O162 1.203 . S
C161 O168 1.267 . S
O162 C161 1.203 . S
O163 C156 1.185 . S
O163 Zn159 2.086 . S
C164 O160 1.278 . S
C164 O165 1.211 . S
O165 C164 1.211 . S
C166 O158 1.284 . S
C166 O167 1.273 . S
O167 C166 1.273 . S
O168 Zn159 1.977 . S
O168 C161 1.267 . S
C169 O170 1.160 . S
C169 O176 1.185 . S
O170 C169 1.160 . S
O171 Zn172 1.899 . S
O171 C179 1.284 . S
Zn172 O171 1.899 . S
Zn172 O173 2.032 . S
Zn172 O176 2.086 . S
Zn172 O181 1.977 . S
O173 Zn172 2.032 . S
O173 C177 1.278 . S
C174 O175 1.203 . S
C174 O181 1.267 . S
O175 C174 1.203 . S
O176 C169 1.185 . S
O176 Zn172 2.086 . S
C177 O173 1.278 . S
C177 O178 1.211 . S
O178 C177 1.211 . S
C179 O171 1.284 . S
C179 O180 1.273 . S
O180 C179 1.273 . S
O181 Zn172 1.977 . S
O181 C174 1.267 . S
C182 O183 1.160 . S
C182 O189 1.185 . S
O183 C182 1.160 . S
O184 Zn185 1.899 . S
O184 C192 1.284 . S
Zn185 O184 1.899 . S
Zn185 O186 2.032 . S
Zn185 O189 2.086 . S
Zn185 O194 1.977 . S
O186 Zn185 2.032 . S
O186 C190 1.278 . S
C187 O188 1.203 . S
C187 O194 1.267 . S
O188 C187 1.203 . S
O189 C182 1.185 . S
O189 Zn185 2.086 . S
C190 O186 1.278 . S
C190 O191 1.211 . S
O191 C190 1.211 . S
C192 O184 1.284 . S
C192 O193 1.273 . S
O193 C192 1.273 . S
O194 Zn185 1.977 . S
O194 C187 1.267 . S
C195 O196 1.160 . S
C195 O202 1.185 . S
O196 C195 1.160 . S
O197 Zn198 1.899 . S
O197 C205 1.284 . S
Zn198 O197 1.899 . S
Zn198 O199 2.032 . S
Zn198 O202 2.086 . S
Zn198 O207 1.977 . S
O199 Zn198 2.032 . S
O199 C203 1.278 . S
C200 O201 1.203 . S
C200 O207 1.267 . S
O201 C200 1.203 . S
O202 C195 1.185 . S
O202 Zn198 2.086 . S
C203 O199 1.278 . S
C203 O204 1.211 . S
O204 C203 1.211 . S
C205 O197 1.284 . S
C205 O206 1.273 . S
O206 C205 1.273 . S
O207 Zn198 1.977 . S
O207 C200 1.267 . S
C208 O209 1.160 . S
C208 O215 1.185 . S
O209 C208 1.160 . S
O210 Zn211 1.899 . S
O210 C218 1.284 . S
Zn211 O210 1.899 . S
Zn211 O212 2.032 . S
Zn211 O215 2.086 . S
Zn211 O220 1.977 . S
O212 Zn211 2.032 . S
O212 C216 1.278 . S
C213 O214 1.203 . S
C213 O220 1.267 . S
O214 C213 1.203 . S
O215 C208 1.185 . S
O215 Zn211 2.086 . S
C216 O212 1.278 . S
C216 O217 1.211 . S
O217 C216 1.211 . S
C218 O210 1.284 . S
C218 O219 1.273 . S
O219 C218 1.273 . S
O220 Zn211 1.977 . S
O220 C213 1.267 . S
C221 O222 1.160 . S
C221 O228 1.185 . S
O222 C221 1.160 . S
O223 Zn224 1.899 . S
O223 C231 1.284 . S
Zn224 O223 1.899 . S
Zn224 O225 2.032 . S
Zn224 O228 2.086 . S
Zn224 O233 1.977 . S
O225 Zn224 2.032 . S
O225 C229 1.278 . S
C226 O227 1.203 . S
C226 O233 1.267 . S
O227 C226 1.203 . S
O228 C221 1.185 . S
O228 Zn224 2.086 . S
C229 O225 1.278 . S
C229 O230 1.211 . S
O230 C229 1.211 . S
C231 O223 1.284 . S
C231 O232 1.273 . S
O232 C231 1.273 . S
O233 Zn224 1.977 . S
O233 C226 1.267 . S
C234 O235 1.160 . S
C234 O241 1.185 . S
O235 C234 1.160 . S
O236 Zn237 1.899 . S
O236 C244 1.284 . S
Zn237 O236 1.899 . S
Zn237 O238 2.032 . S
Zn237 O241 2.086 . S
Zn237 O246 1.977 . S
O238 Zn237 2.032 . S
O238 C242 1.278 . S
C239 O240 1.203 . S
C239 O246 1.267 . S
O240 C239 1.203 . S
O241 C234 1.185 . S
O241 Zn237 2.086 . S
C242 O238 1.278 . S
C242 O243 1.211 . S
O243 C242 1.211 . S
C244 O236 1.284 . S
C244 O245 1.273 . S
O245 C244 1.273 . S
O246 Zn237 1.977 . S
O246 C239 1.267 . S
C247 O248 1.160 . S
C247 O254 1.185 . S
O248 C247 1.160 . S
O249 Zn250 1.899 . S
O249 C257 1.284 . S
Zn250 O249 1.899 . S
Zn250 O251 2.032 . S
Zn250 O254 2.086 . S
Zn250 O259 1.977 . S
O251 Zn250 2.032 . S
O251 C255 1.278 . S
C252 O253 1.203 . S
C252 O259 1.267 . S
O253 C252 1.203 . S
O254 C247 1.185 . S
O254 Zn250 2.086 . S
C255 O251 1.278 . S
C255 O256 1.211 . S
O256 C255 1.211 . S
C257 O249 1.284 . S
C257 O258 1.273 . S
O258 C257 1.273 . S
O259 Zn250 1.977 . S
O259 C252 1.267 . S
C260 O261 1.160 . S
C260 O267 1.185 . S
O261 C260 1.160 . S
O262 Zn263 1.899 . S
O262 C270 1.284 . S
Zn263 O262 1.899 . S
Zn263 O264 2.032 . S
Zn263 O267 2.086 . S
Zn263 O272 1.977 . S
O264 Zn263 2.032 . S
O264 C268 1.278 . S
C265 O266 1.203 . S
C265 O272 1.267 . S
O266 C265 1.203 . S
O267 C260 1.185 . S
O267 Zn263 2.086 . S
C268 O264 1.278 . S
C268 O269 1.211 . S
O269 C268 1.211 . S
C270 O262 1.284 . S
C270 O271 1.273 . S
O271 C270 1.273 . S
O272 Zn263 1.977 . S
O272 C265 1.267 . S
C273 O274 1.160 . S
C273 O280 1.185 . S
O274 C273 1.160 . S
O275 Zn276 1.899 . S
O275 C283 1.284 . S
Zn276 O275 1.899 . S
Zn276 O277 2.032 . S
Zn276 O280 2.086 . S
Zn276 O285 1.977 . S
O277 Zn276 2.032 . S
O277 C281 1.278 . S
C278 O279 1.203 . S
C278 O285 1.267 . S
O279 C278 1.203 . S
O280 C273 1.185 . S
O280 Zn276 2.086 . S
C281 O277 1.278 . S
C281 O282 1.211 . S
O282 C281 1.211 . S
C283 O275 1.284 . S
C283 O284 1.273 . S
O284 C283 1.273 . S
O285 Zn276 1.977 . S
O285 C278 1.267 . S
C286 O287 1.160 . S
C286 O293 1.185 . S
O287 C286 1.160 . S
O288 Zn289 1.899 . S
O288 C296 1.284 . S
Zn289 O288 1.899 . S
Zn289 O290 2.032 . S
Zn289 O293 2.086 . S
Zn289 O298 1.977 . S
O290 Zn289 2.032 . S
O290 C294 1.278 . S
C291 O292 1.203 . S
C291 O298 1.267 . S
O292 C291 1.203 . S
O293 C286 1.185 . S
O293 Zn289 2.086 . S
C294 O290 1.278 . S
C294 O295 1.211 . S
O295 C294 1.211 . S
C296 O288 1.284 . S
C296 O297 1.273 . S
O297 C296 1.273 . S
O298 Zn289 1.977 . S
O298 C291 1.267 . S
C299 O300 1.160 . S
C299 O306 1.185 . S
O300 C299 1.160 . S
O301 Zn302 1.899 . S
O301 C309 1.284 . S
Zn302 O301 1.899 . S
Zn302 O303 2.032 . S
Zn302 O306 2.086 . S
Zn302 O311 1.977 . S
O303 Zn302 2.032 . S
O303 C307 1.278 . S
C304 O305 1.203 . S
C304 O311 1.267 . S
O305 C304 1.203 . S
O306 C299 1.185 . S
O306 Zn302 2.086 . S
C307 O303 1.278 . S
C307 O308 1.211 . S
O308 C307 1.211 . S
C309 O301 1.284 . S
C309 O310 1.273 . S
O310 C309 1.273 . S
O311 Zn302 1.977 . S
O311 C304 1.267 . S
H312 C320 0.950 . S
H313 C325 0.950 . S
H314 C322 0.950 . S
H315 C324 0.950 . S
H316 C326 0.950 . S
H317 C328 0.950 . S
H318 C330 0.950 . S
H319 C331 0.950 . S
C320 H312 0.950 . S
C320 C321 1.386 . S
C320 C322 1.391 . S
C321 C320 1.386 . S
C321 C325 1.393 . S
C322 H314 0.950 . S
C322 C320 1.391 . S
C322 C323 1.400 . S
C323 C322 1.400 . S
C323 C324 1.398 . S
C323 C329 1.491 1_545 S
C324 H315 0.950 . S
C324 C323 1.398 . S
C324 C325 1.391 . S
C325 H313 0.950 . S
C325 C321 1.393 . S
C325 C324 1.391 . S
C326 H316 0.950 . S
C326 C327 1.386 . S
C326 C328 1.391 . S
C327 C326 1.386 . S
C327 C331 1.393 . S
C328 H317 0.950 . S
C328 C326 1.391 . S
C328 C329 1.400 . S
C329 C323 1.491 1_565 S
C329 C328 1.400 . S
C329 C330 1.398 . S
C330 H318 0.950 . S
C330 C329 1.398 . S
C330 C331 1.391 . S
C331 H319 0.950 . S
C331 C327 1.393 . S
C331 C330 1.391 . S
H332 C340 0.950 . S
H333 C345 0.950 . S
H334 C342 0.950 . S
H335 C344 0.950 . S
H336 C346 0.950 . S
H337 C348 0.950 . S
H338 C350 0.950 . S
H339 C351 0.950 . S
C340 H332 0.950 . S
C340 C341 1.386 . S
C340 C342 1.391 . S
C341 C340 1.386 . S
C341 C345 1.393 . S
C342 H334 0.950 . S
C342 C340 1.391 . S
C342 C343 1.400 . S
C343 C342 1.400 . S
C343 C344 1.398 . S
C343 C349 1.491 . S
C344 H335 0.950 . S
C344 C343 1.398 . S
C344 C345 1.391 . S
C345 H333 0.950 . S
C345 C341 1.393 . S
C345 C344 1.391 . S
C346 H336 0.950 . S
C346 C347 1.386 . S
C346 C348 1.391 . S
C347 C346 1.386 . S
C347 C351 1.393 . S
C348 H337 0.950 . S
C348 C346 1.391 . S
C348 C349 1.400 . S
C349 C343 1.491 . S
C349 C348 1.400 . S
C349 C350 1.398 . S
C350 H338 0.950 . S
C350 C349 1.398 . S
C350 C351 1.391 . S
C351 H339 0.950 . S
C351 C347 1.393 . S
C351 C350 1.391 . S
H352 C360 0.950 . S
H353 C365 0.950 . S
H354 C362 0.950 . S
H355 C364 0.950 . S
H356 C366 0.950 . S
H357 C368 0.950 . S
H358 C370 0.950 . S
H359 C371 0.950 . S
C360 H352 0.950 . S
C360 C361 1.386 . S
C360 C362 1.391 . S
C361 C360 1.386 . S
C361 C365 1.393 . S
C362 H354 0.950 . S
C362 C360 1.391 . S
C362 C363 1.400 . S
C363 C362 1.400 . S
C363 C364 1.398 . S
C363 C369 1.491 1_655 S
C364 H355 0.950 . S
C364 C363 1.398 . S
C364 C365 1.391 . S
C365 H353 0.950 . S
C365 C361 1.393 . S
C365 C364 1.391 . S
C366 H356 0.950 . S
C366 C367 1.386 . S
C366 C368 1.391 . S
C367 C366 1.386 . S
C367 C371 1.393 . S
C368 H357 0.950 . S
C368 C366 1.391 . S
C368 C369 1.400 . S
C369 C363 1.491 1_455 S
C369 C368 1.400 . S
C369 C370 1.398 . S
C370 H358 0.950 . S
C370 C369 1.398 . S
C370 C371 1.391 . S
C371 H359 0.950 . S
C371 C367 1.393 . S
C371 C370 1.391 . S
H372 C380 0.950 . S
H373 C385 0.950 . S
H374 C382 0.950 . S
H375 C384 0.950 . S
H376 C386 0.950 . S
H377 C388 0.950 . S
H378 C390 0.950 . S
H379 C391 0.950 . S
C380 H372 0.950 . S
C380 C381 1.386 . S
C380 C382 1.391 . S
C381 C380 1.386 . S
C381 C385 1.393 . S
C382 H374 0.950 . S
C382 C380 1.391 . S
C382 C383 1.400 . S
C383 C382 1.400 . S
C383 C384 1.398 . S
C383 C389 1.491 1_565 S
C384 H375 0.950 . S
C384 C383 1.398 . S
C384 C385 1.391 . S
C385 H373 0.950 . S
C385 C381 1.393 . S
C385 C384 1.391 . S
C386 H376 0.950 . S
C386 C387 1.386 . S
C386 C388 1.391 . S
C387 C386 1.386 . S
C387 C391 1.393 . S
C388 H377 0.950 . S
C388 C386 1.391 . S
C388 C389 1.400 . S
C389 C383 1.491 1_545 S
C389 C388 1.400 . S
C389 C390 1.398 . S
C390 H378 0.950 . S
C390 C389 1.398 . S
C390 C391 1.391 . S
C391 H379 0.950 . S
C391 C387 1.393 . S
C391 C390 1.391 . S
H392 C400 0.950 . S
H393 C405 0.950 . S
H394 C402 0.950 . S
H395 C404 0.950 . S
H396 C406 0.950 . S
H397 C408 0.950 . S
H398 C410 0.950 . S
H399 C411 0.950 . S
C400 H392 0.950 . S
C400 C401 1.386 . S
C400 C402 1.391 . S
C401 C400 1.386 . S
C401 C405 1.393 . S
C402 H394 0.950 . S
C402 C400 1.391 . S
C402 C403 1.400 . S
C403 C402 1.400 . S
C403 C404 1.398 . S
C403 C409 1.491 . S
C404 H395 0.950 . S
C404 C403 1.398 . S
C404 C405 1.391 . S
C405 H393 0.950 . S
C405 C401 1.393 . S
C405 C404 1.391 . S
C406 H396 0.950 . S
C406 C407 1.386 . S
C406 C408 1.391 . S
C407 C406 1.386 . S
C407 C411 1.393 . S
C408 H397 0.950 . S
C408 C406 1.391 . S
C408 C409 1.400 . S
C409 C403 1.491 . S
C409 C408 1.400 . S
C409 C410 1.398 . S
C410 H398 0.950 . S
C410 C409 1.398 . S
C410 C411 1.391 . S
C411 H399 0.950 . S
C411 C407 1.393 . S
C411 C410 1.391 . S
H412 C420 0.950 . S
H413 C425 0.950 . S
H414 C422 0.950 . S
H415 C424 0.950 . S
H416 C426 0.950 . S
H417 C428 0.950 . S
H418 C430 0.950 . S
H419 C431 0.950 . S
C420 H412 0.950 . S
C420 C421 1.386 . S
C420 C422 1.391 . S
C421 C420 1.386 . S
C421 C425 1.393 . S
C422 H414 0.950 . S
C422 C420 1.391 . S
C422 C423 1.400 . S
C423 C422 1.400 . S
C423 C424 1.398 . S
C423 C429 1.491 1_455 S
C424 H415 0.950 . S
C424 C423 1.398 . S
C424 C425 1.391 . S
C425 H413 0.950 . S
C425 C421 1.393 . S
C425 C424 1.391 . S
C426 H416 0.950 . S
C426 C427 1.386 . S
C426 C428 1.391 . S
C427 C426 1.386 . S
C427 C431 1.393 . S
C428 H417 0.950 . S
C428 C426 1.391 . S
C428 C429 1.400 . S
C429 C423 1.491 1_655 S
C429 C428 1.400 . S
C429 C430 1.398 . S
C430 H418 0.950 . S
C430 C429 1.398 . S
C430 C431 1.391 . S
C431 H419 0.950 . S
C431 C427 1.393 . S
C431 C430 1.391 . S
H432 C440 0.950 . S
H433 C445 0.950 . S
H434 C442 0.950 . S
H435 C444 0.950 . S
H436 C446 0.950 . S
H437 C448 0.950 . S
H438 C450 0.950 . S
H439 C451 0.950 . S
C440 H432 0.950 . S
C440 C441 1.386 . S
C440 C442 1.391 . S
C441 C440 1.386 . S
C441 C445 1.393 . S
C442 H434 0.950 . S
C442 C440 1.391 . S
C442 C443 1.400 . S
C443 C442 1.400 . S
C443 C444 1.398 . S
C443 C449 1.491 1_565 S
C444 H435 0.950 . S
C444 C443 1.398 . S
C444 C445 1.391 . S
C445 H433 0.950 . S
C445 C441 1.393 . S
C445 C444 1.391 . S
C446 H436 0.950 . S
C446 C447 1.386 . S
C446 C448 1.391 . S
C447 C446 1.386 . S
C447 C451 1.393 . S
C448 H437 0.950 . S
C448 C446 1.391 . S
C448 C449 1.400 . S
C449 C443 1.491 1_545 S
C449 C448 1.400 . S
C449 C450 1.398 . S
C450 H438 0.950 . S
C450 C449 1.398 . S
C450 C451 1.391 . S
C451 H439 0.950 . S
C451 C447 1.393 . S
C451 C450 1.391 . S
H452 C460 0.950 . S
H453 C465 0.950 . S
H454 C462 0.950 . S
H455 C464 0.950 . S
H456 C466 0.950 . S
H457 C468 0.950 . S
H458 C470 0.950 . S
H459 C471 0.950 . S
C460 H452 0.950 . S
C460 C461 1.386 . S
C460 C462 1.391 . S
C461 C460 1.386 . S
C461 C465 1.393 . S
C462 H454 0.950 . S
C462 C460 1.391 . S
C462 C463 1.400 . S
C463 C462 1.400 . S
C463 C464 1.398 . S
C463 C469 1.491 . S
C464 H455 0.950 . S
C464 C463 1.398 . S
C464 C465 1.391 . S
C465 H453 0.950 . S
C465 C461 1.393 . S
C465 C464 1.391 . S
C466 H456 0.950 . S
C466 C467 1.386 . S
C466 C468 1.391 . S
C467 C466 1.386 . S
C467 C471 1.393 . S
C468 H457 0.950 . S
C468 C466 1.391 . S
C468 C469 1.400 . S
C469 C463 1.491 . S
C469 C468 1.400 . S
C469 C470 1.398 . S
C470 H458 0.950 . S
C470 C469 1.398 . S
C470 C471 1.391 . S
C471 H459 0.950 . S
C471 C467 1.393 . S
C471 C470 1.391 . S
H472 C480 0.950 . S
H473 C485 0.950 . S
H474 C482 0.950 . S
H475 C484 0.950 . S
H476 C486 0.950 . S
H477 C488 0.950 . S
H478 C490 0.950 . S
H479 C491 0.950 . S
C480 H472 0.950 . S
C480 C481 1.386 . S
C480 C482 1.391 . S
C481 C480 1.386 . S
C481 C485 1.393 . S
C482 H474 0.950 . S
C482 C480 1.391 . S
C482 C483 1.400 . S
C483 C482 1.400 . S
C483 C484 1.398 . S
C483 C489 1.491 1_655 S
C484 H475 0.950 . S
C484 C483 1.398 . S
C484 C485 1.391 . S
C485 H473 0.950 . S
C485 C481 1.393 . S
C485 C484 1.391 . S
C486 H476 0.950 . S
C486 C487 1.386 . S
C486 C488 1.391 . S
C487 C486 1.386 . S
C487 C491 1.393 . S
C488 H477 0.950 . S
C488 C486 1.391 . S
C488 C489 1.400 . S
C489 C483 1.491 1_455 S
C489 C488 1.400 . S
C489 C490 1.398 . S
C490 H478 0.950 . S
C490 C489 1.398 . S
C490 C491 1.391 . S
C491 H479 0.950 . S
C491 C487 1.393 . S
C491 C490 1.391 . S
H492 C500 0.950 . S
H493 C505 0.950 . S
H494 C502 0.950 . S
H495 C504 0.950 . S
H496 C506 0.950 . S
H497 C508 0.950 . S
H498 C510 0.950 . S
H499 C511 0.950 . S
C500 H492 0.950 . S
C500 C501 1.386 . S
C500 C502 1.391 . S
C501 C500 1.386 . S
C501 C505 1.393 . S
C502 H494 0.950 . S
C502 C500 1.391 . S
C502 C503 1.400 . S
C503 C502 1.400 . S
C503 C504 1.398 . S
C503 C509 1.491 1_545 S
C504 H495 0.950 . S
C504 C503 1.398 . S
C504 C505 1.391 . S
C505 H493 0.950 . S
C505 C501 1.393 . S
C505 C504 1.391 . S
C506 H496 0.950 . S
C506 C507 1.386 . S
C506 C508 1.391 . S
C507 C506 1.386 . S
C507 C511 1.393 . S
C508 H497 0.950 . S
C508 C506 1.391 . S
C508 C509 1.400 . S
C509 C503 1.491 1_565 S
C509 C508 1.400 . S
C509 C510 1.398 . S
C510 H498 0.950 . S
C510 C509 1.398 . S
C510 C511 1.391 . S
C511 H499 0.950 . S
C511 C507 1.393 . S
C511 C510 1.391 . S
H512 C520 0.950 . S
H513 C525 0.950 . S
H514 C522 0.950 . S
H515 C524 0.950 . S
H516 C526 0.950 . S
H517 C528 0.950 . S
H518 C530 0.950 . S
H519 C531 0.950 . S
C520 H512 0.950 . S
C520 C521 1.386 . S
C520 C522 1.391 . S
C521 C520 1.386 . S
C521 C525 1.393 . S
C522 H514 0.950 . S
C522 C520 1.391 . S
C522 C523 1.400 . S
C523 C522 1.400 . S
C523 C524 1.398 . S
C523 C529 1.491 . S
C524 H515 0.950 . S
C524 C523 1.398 . S
C524 C525 1.391 . S
C525 H513 0.950 . S
C525 C521 1.393 . S
C525 C524 1.391 . S
C526 H516 0.950 . S
C526 C527 1.386 . S
C526 C528 1.391 . S
C527 C526 1.386 . S
C527 C531 1.393 . S
C528 H517 0.950 . S
C528 C526 1.391 . S
C528 C529 1.400 . S
C529 C523 1.491 . S
C529 C528 1.400 . S
C529 C530 1.398 . S
C530 H518 0.950 . S
C530 C529 1.398 . S
C530 C531 1.391 . S
C531 H519 0.950 . S
C531 C527 1.393 . S
C531 C530 1.391 . S
H532 C540 0.950 . S
H533 C545 0.950 . S
H534 C542 0.950 . S
H535 C544 0.950 . S
H536 C546 0.950 . S
H537 C548 0.950 . S
H538 C550 0.950 . S
H539 C551 0.950 . S
C540 H532 0.950 . S
C540 C541 1.386 . S
C540 C542 1.391 . S
C541 C540 1.386 . S
C541 C545 1.393 . S
C542 H534 0.950 . S
C542 C540 1.391 . S
C542 C543 1.400 . S
C543 C542 1.400 . S
C543 C544 1.398 . S
C543 C549 1.491 1_455 S
C544 H535 0.950 . S
C544 C543 1.398 . S
C544 C545 1.391 . S
C545 H533 0.950 . S
C545 C541 1.393 . S
C545 C544 1.391 . S
C546 H536 0.950 . S
C546 C547 1.386 . S
C546 C548 1.391 . S
C547 C546 1.386 . S
C547 C551 1.393 . S
C548 H537 0.950 . S
C548 C546 1.391 . S
C548 C549 1.400 . S
C549 C543 1.491 1_655 S
C549 C548 1.400 . S
C549 C550 1.398 . S
C550 H538 0.950 . S
C550 C549 1.398 . S
C550 C551 1.391 . S
C551 H539 0.950 . S
C551 C547 1.393 . S
C551 C550 1.391 . S
H552 C560 0.950 . S
H553 C565 0.950 . S
H554 C562 0.950 . S
H555 C564 0.950 . S
H556 C566 0.950 . S
H557 C568 0.950 . S
H558 C570 0.950 . S
H559 C571 0.950 . S
C560 H552 0.950 . S
C560 C561 1.386 . S
C560 C562 1.391 . S
C561 C560 1.386 . S
C561 C565 1.393 . S
C562 H554 0.950 . S
C562 C560 1.391 . S
C562 C563 1.400 . S
C563 C562 1.400 . S
C563 C564 1.398 . S
C563 C569 1.491 . S
C564 H555 0.950 . S
C564 C563 1.398 . S
C564 C565 1.391 . S
C565 H553 0.950 . S
C565 C561 1.393 . S
C565 C564 1.391 . S
C566 H556 0.950 . S
C566 C567 1.386 . S
C566 C568 1.391 . S
C567 C566 1.386 . S
C567 C571 1.393 . S
C568 H557 0.950 . S
C568 C566 1.391 . S
C568 C569 1.400 . S
C569 C563 1.491 . S
C569 C568 1.400 . S
C569 C570 1.398 . S
C570 H558 0.950 . S
C570 C569 1.398 . S
C570 C571 1.391 . S
C571 H559 0.950 . S
C571 C567 1.393 . S
C571 C570 1.391 . S
H572 C580 0.950 . S
H573 C585 0.950 . S
H574 C582 0.950 . S
H575 C584 0.950 . S
H576 C586 0.950 . S
H577 C588 0.950 . S
H578 C590 0.950 . S
H579 C591 0.950 . S
C580 H572 0.950 . S
C580 C581 1.386 . S
C580 C582 1.391 . S
C581 C580 1.386 . S
C581 C585 1.393 . S
C582 H574 0.950 . S
C582 C580 1.391 . S
C582 C583 1.400 . S
C583 C582 1.400 . S
C583 C584 1.398 . S
C583 C589 1.491 . S
C584 H575 0.950 . S
C584 C583 1.398 . S
C584 C585 1.391 . S
C585 H573 0.950 . S
C585 C581 1.393 . S
C585 C584 1.391 . S
C586 H576 0.950 . S
C586 C587 1.386 . S
C586 C588 1.391 . S
C587 C586 1.386 . S
C587 C591 1.393 . S
C588 H577 0.950 . S
C588 C586 1.391 . S
C588 C589 1.400 . S
C589 C583 1.491 . S
C589 C588 1.400 . S
C589 C590 1.398 . S
C590 H578 0.950 . S
C590 C589 1.398 . S
C590 C591 1.391 . S
C591 H579 0.950 . S
C591 C587 1.393 . S
C591 C590 1.391 . S
H592 C600 0.950 . S
H593 C605 0.950 . S
H594 C602 0.950 . S
H595 C604 0.950 . S
H596 C606 0.950 . S
H597 C608 0.950 . S
H598 C610 0.950 . S
H599 C611 0.950 . S
C600 H592 0.950 . S
C600 C601 1.386 . S
C600 C602 1.391 . S
C601 C600 1.386 . S
C601 C605 1.393 . S
C602 H594 0.950 . S
C602 C600 1.391 . S
C602 C603 1.400 . S
C603 C602 1.400 . S
C603 C604 1.398 . S
C603 C609 1.491 . S
C604 H595 0.950 . S
C604 C603 1.398 . S
C604 C605 1.391 . S
C605 H593 0.950 . S
C605 C601 1.393 . S
C605 C604 1.391 . S
C606 H596 0.950 . S
C606 C607 1.386 . S
C606 C608 1.391 . S
C607 C606 1.386 . S
C607 C611 1.393 . S
C608 H597 0.950 . S
C608 C606 1.391 . S
C608 C609 1.400 . S
C609 C603 1.491 . S
C609 C608 1.400 . S
C609 C610 1.398 . S
C610 H598 0.950 . S
C610 C609 1.398 . S
C610 C611 1.391 . S
C611 H599 0.950 . S
C611 C607 1.393 . S
C611 C610 1.391 . S
H612 C620 0.950 . S
H613 C625 0.950 . S
H614 C622 0.950 . S
H615 C624 0.950 . S
H616 C626 0.950 . S
H617 C628 0.950 . S
H618 C630 0.950 . S
H619 C631 0.950 . S
C620 H612 0.950 . S
C620 C621 1.386 . S
C620 C622 1.391 . S
C621 C620 1.386 . S
C621 C625 1.393 . S
C622 H614 0.950 . S
C622 C620 1.391 . S
C622 C623 1.400 . S
C623 C622 1.400 . S
C623 C624 1.398 . S
C623 C629 1.491 . S
C624 H615 0.950 . S
C624 C623 1.398 . S
C624 C625 1.391 . S
C625 H613 0.950 . S
C625 C621 1.393 . S
C625 C624 1.391 . S
C626 H616 0.950 . S
C626 C627 1.386 . S
C626 C628 1.391 . S
C627 C626 1.386 . S
C627 C631 1.393 . S
C628 H617 0.950 . S
C628 C626 1.391 . S
C628 C629 1.400 . S
C629 C623 1.491 . S
C629 C628 1.400 . S
C629 C630 1.398 . S
C630 H618 0.950 . S
C630 C629 1.398 . S
C630 C631 1.391 . S
C631 H619 0.950 . S
C631 C627 1.393 . S
C631 C630 1.391 . S
H632 C640 0.950 . S
H633 C645 0.950 . S
H634 C642 0.950 . S
H635 C644 0.950 . S
H636 C646 0.950 . S
H637 C648 0.950 . S
H638 C650 0.950 . S
H639 C651 0.950 . S
C640 H632 0.950 . S
C640 C641 1.386 . S
C640 C642 1.391 . S
C641 C640 1.386 . S
C641 C645 1.393 . S
C642 H634 0.950 . S
C642 C640 1.391 . S
C642 C643 1.400 . S
C643 C642 1.400 . S
C643 C644 1.398 . S
C643 C649 1.491 . S
C644 H635 0.950 . S
C644 C643 1.398 . S
C644 C645 1.391 . S
C645 H633 0.950 . S
C645 C641 1.393 . S
C645 C644 1.391 . S
C646 H636 0.950 . S
C646 C647 1.386 . S
C646 C648 1.391 . S
C647 C646 1.386 . S
C647 C651 1.393 . S
C648 H637 0.950 . S
C648 C646 1.391 . S
C648 C649 1.400 . S
C649 C643 1.491 . S
C649 C648 1.400 . S
C649 C650 1.398 . S
C650 H638 0.950 . S
C650 C649 1.398 . S
C650 C651 1.391 . S
C651 H639 0.950 . S
C651 C647 1.393 . S
C651 C650 1.391 . S
H652 C660 0.950 . S
H653 C665 0.950 . S
H654 C662 0.950 . S
H655 C664 0.950 . S
H656 C666 0.950 . S
H657 C668 0.950 . S
H658 C670 0.950 . S
H659 C671 0.950 . S
C660 H652 0.950 . S
C660 C661 1.386 . S
C660 C662 1.391 . S
C661 C660 1.386 . S
C661 C665 1.393 . S
C662 H654 0.950 . S
C662 C660 1.391 . S
C662 C663 1.400 . S
C663 C662 1.400 . S
C663 C664 1.398 . S
C663 C669 1.491 . S
C664 H655 0.950 . S
C664 C663 1.398 . S
C664 C665 1.391 . S
C665 H653 0.950 . S
C665 C661 1.393 . S
C665 C664 1.391 . S
C666 H656 0.950 . S
C666 C667 1.386 . S
C666 C668 1.391 . S
C667 C666 1.386 . S
C667 C671 1.393 . S
C668 H657 0.950 . S
C668 C666 1.391 . S
C668 C669 1.400 . S
C669 C663 1.491 . S
C669 C668 1.400 . S
C669 C670 1.398 . S
C670 H658 0.950 . S
C670 C669 1.398 . S
C670 C671 1.391 . S
C671 H659 0.950 . S
C671 C667 1.393 . S
C671 C670 1.391 . S
H672 C680 0.950 . S
H673 C685 0.950 . S
H674 C682 0.950 . S
H675 C684 0.950 . S
H676 C686 0.950 . S
H677 C688 0.950 . S
H678 C690 0.950 . S
H679 C691 0.950 . S
C680 H672 0.950 . S
C680 C681 1.386 . S
C680 C682 1.391 . S
C681 C680 1.386 . S
C681 C685 1.393 . S
C682 H674 0.950 . S
C682 C680 1.391 . S
C682 C683 1.400 . S
C683 C682 1.400 . S
C683 C684 1.398 . S
C683 C689 1.491 . S
C684 H675 0.950 . S
C684 C683 1.398 . S
C684 C685 1.391 . S
C685 H673 0.950 . S
C685 C681 1.393 . S
C685 C684 1.391 . S
C686 H676 0.950 . S
C686 C687 1.386 . S
C686 C688 1.391 . S
C687 C686 1.386 . S
C687 C691 1.393 . S
C688 H677 0.950 . S
C688 C686 1.391 . S
C688 C689 1.400 . S
C689 C683 1.491 . S
C689 C688 1.400 . S
C689 C690 1.398 . S
C690 H678 0.950 . S
C690 C689 1.398 . S
C690 C691 1.391 . S
C691 H679 0.950 . S
C691 C687 1.393 . S
C691 C690 1.391 . S
H692 C700 0.950 . S
H693 C705 0.950 . S
H694 C702 0.950 . S
H695 C704 0.950 . S
H696 C706 0.950 . S
H697 C708 0.950 . S
H698 C710 0.950 . S
H699 C711 0.950 . S
C700 H692 0.950 . S
C700 C701 1.386 . S
C700 C702 1.391 . S
C701 C700 1.386 . S
C701 C705 1.393 . S
C702 H694 0.950 . S
C702 C700 1.391 . S
C702 C703 1.400 . S
C703 C702 1.400 . S
C703 C704 1.398 . S
C703 C709 1.491 . S
C704 H695 0.950 . S
C704 C703 1.398 . S
C704 C705 1.391 . S
C705 H693 0.950 . S
C705 C701 1.393 . S
C705 C704 1.391 . S
C706 H696 0.950 . S
C706 C707 1.386 . S
C706 C708 1.391 . S
C707 C706 1.386 . S
C707 C711 1.393 . S
C708 H697 0.950 . S
C708 C706 1.391 . S
C708 C709 1.400 . S
C709 C703 1.491 . S
C709 C708 1.400 . S
C709 C710 1.398 . S
C710 H698 0.950 . S
C710 C709 1.398 . S
C710 C711 1.391 . S
C711 H699 0.950 . S
C711 C707 1.393 . S
C711 C710 1.391 . S
H712 C720 0.950 . S
H713 C725 0.950 . S
H714 C722 0.950 . S
H715 C724 0.950 . S
H716 C726 0.950 . S
H717 C728 0.950 . S
H718 C730 0.950 . S
H719 C731 0.950 . S
C720 H712 0.950 . S
C720 C721 1.386 . S
C720 C722 1.391 . S
C721 C720 1.386 . S
C721 C725 1.393 . S
C722 H714 0.950 . S
C722 C720 1.391 . S
C722 C723 1.400 . S
C723 C722 1.400 . S
C723 C724 1.398 . S
C723 C729 1.491 . S
C724 H715 0.950 . S
C724 C723 1.398 . S
C724 C725 1.391 . S
C725 H713 0.950 . S
C725 C721 1.393 . S
C725 C724 1.391 . S
C726 H716 0.950 . S
C726 C727 1.386 . S
C726 C728 1.391 . S
C727 C726 1.386 . S
C727 C731 1.393 . S
C728 H717 0.950 . S
C728 C726 1.391 . S
C728 C729 1.400 . S
C729 C723 1.491 . S
C729 C728 1.400 . S
C729 C730 1.398 . S
C730 H718 0.950 . S
C730 C729 1.398 . S
C730 C731 1.391 . S
C731 H719 0.950 . S
C731 C727 1.393 . S
C731 C730 1.391 . S
H732 C740 0.950 . S
H733 C745 0.950 . S
H734 C742 0.950 . S
H735 C744 0.950 . S
H736 C746 0.950 . S
H737 C748 0.950 . S
H738 C750 0.950 . S
H739 C751 0.950 . S
C740 H732 0.950 . S
C740 C741 1.386 . S
C740 C742 1.391 . S
C741 C740 1.386 . S
C741 C745 1.393 . S
C742 H734 0.950 . S
C742 C740 1.391 . S
C742 C743 1.400 . S
C743 C742 1.400 . S
C743 C744 1.398 . S
C743 C749 1.491 . S
C744 H735 0.950 . S
C744 C743 1.398 . S
C744 C745 1.391 . S
C745 H733 0.950 . S
C745 C741 1.393 . S
C745 C744 1.391 . S
C746 H736 0.950 . S
C746 C747 1.386 . S
C746 C748 1.391 . S
C747 C746 1.386 . S
C747 C751 1.393 . S
C748 H737 0.950 . S
C748 C746 1.391 . S
C748 C749 1.400 . S
C749 C743 1.491 . S
C749 C748 1.400 . S
C749 C750 1.398 . S
C750 H738 0.950 . S
C750 C749 1.398 . S
C750 C751 1.391 . S
C751 H739 0.950 . S
C751 C747 1.393 . S
C751 C750 1.391 . S
H752 C760 0.950 . S
H753 C765 0.950 . S
H754 C762 0.950 . S
H755 C764 0.950 . S
H756 C766 0.950 . S
H757 C768 0.950 . S
H758 C770 0.950 . S
H759 C771 0.950 . S
C760 H752 0.950 . S
C760 C761 1.386 . S
C760 C762 1.391 . S
C761 C760 1.386 . S
C761 C765 1.393 . S
C762 H754 0.950 . S
C762 C760 1.391 . S
C762 C763 1.400 . S
C763 C762 1.400 . S
C763 C764 1.398 . S
C763 C769 1.491 . S
C764 H755 0.950 . S
C764 C763 1.398 . S
C764 C765 1.391 . S
C765 H753 0.950 . S
C765 C761 1.393 . S
C765 C764 1.391 . S
C766 H756 0.950 . S
C766 C767 1.386 . S
C766 C768 1.391 . S
C767 C766 1.386 . S
C767 C771 1.393 . S
C768 H757 0.950 . S
C768 C766 1.391 . S
C768 C769 1.400 . S
C769 C763 1.491 . S
C769 C768 1.400 . S
C769 C770 1.398 . S
C770 H758 0.950 . S
C770 C769 1.398 . S
C770 C771 1.391 . S
C771 H759 0.950 . S
C771 C767 1.393 . S
C771 C770 1.391 . S
H772 C780 0.950 . S
H773 C785 0.950 . S
H774 C782 0.950 . S
H775 C784 0.950 . S
H776 C786 0.950 . S
H777 C788 0.950 . S
H778 C790 0.950 . S
H779 C791 0.950 . S
C780 H772 0.950 . S
C780 C781 1.386 . S
C780 C782 1.391 . S
C781 C780 1.386 . S
C781 C785 1.393 . S
C782 H774 0.950 . S
C782 C780 1.391 . S
C782 C783 1.400 . S
C783 C782 1.400 . S
C783 C784 1.398 . S
C783 C789 1.491 . S
C784 H775 0.950 . S
C784 C783 1.398 . S
C784 C785 1.391 . S
C785 H773 0.950 . S
C785 C781 1.393 . S
C785 C784 1.391 . S
C786 H776 0.950 . S
C786 C787 1.386 . S
C786 C788 1.391 . S
C787 C786 1.386 . S
C787 C791 1.393 . S
C788 H777 0.950 . S
C788 C786 1.391 . S
C788 C789 1.400 . S
C789 C783 1.491 . S
C789 C788 1.400 . S
C789 C790 1.398 . S
C790 H778 0.950 . S
C790 C789 1.398 . S
C790 C791 1.391 . S
C791 H779 0.950 . S
C791 C787 1.393 . S
C791 C790 1.391 . S
H792 C800 0.950 . S
H793 C805 0.950 . S
H794 C802 0.950 . S
H795 C804 0.950 . S
H796 C806 0.950 . S
H797 C808 0.950 . S
H798 C810 0.950 . S
H799 C811 0.950 . S
C800 H792 0.950 . S
C800 C801 1.386 . S
C800 C802 1.391 . S
C801 C800 1.386 . S
C801 C805 1.393 . S
C802 H794 0.950 . S
C802 C800 1.391 . S
C802 C803 1.400 . S
C803 C802 1.400 . S
C803 C804 1.398 . S
C803 C809 1.491 1_554 S
C804 H795 0.950 . S
C804 C803 1.398 . S
C804 C805 1.391 . S
C805 H793 0.950 . S
C805 C801 1.393 . S
C805 C804 1.391 . S
C806 H796 0.950 . S
C806 C807 1.386 . S
C806 C808 1.391 . S
C807 C806 1.386 . S
C807 C811 1.393 . S
C808 H797 0.950 . S
C808 C806 1.391 . S
C808 C809 1.400 . S
C809 C803 1.491 1_556 S
C809 C808 1.400 . S
C809 C810 1.398 . S
C810 H798 0.950 . S
C810 C809 1.398 . S
C810 C811 1.391 . S
C811 H799 0.950 . S
C811 C807 1.393 . S
C811 C810 1.391 . S
H812 C820 0.950 . S
H813 C825 0.950 . S
H814 C822 0.950 . S
H815 C824 0.950 . S
H816 C826 0.950 . S
H817 C828 0.950 . S
H818 C830 0.950 . S
H819 C831 0.950 . S
C820 H812 0.950 . S
C820 C821 1.386 . S
C820 C822 1.391 . S
C821 C820 1.386 . S
C821 C825 1.393 . S
C822 H814 0.950 . S
C822 C820 1.391 . S
C822 C823 1.400 . S
C823 C822 1.400 . S
C823 C824 1.398 . S
C823 C829 1.491 1_556 S
C824 H815 0.950 . S
C824 C823 1.398 . S
C824 C825 1.391 . S
C825 H813 0.950 . S
C825 C821 1.393 . S
C825 C824 1.391 . S
C826 H816 0.950 . S
C826 C827 1.386 . S
C826 C828 1.391 . S
C827 C826 1.386 . S
C827 C831 1.393 . S
C828 H817 0.950 . S
C828 C826 1.391 . S
C828 C829 1.400 . S
C829 C823 1.491 1_554 S
C829 C828 1.400 . S
C829 C830 1.398 . S
C830 H818 0.950 . S
C830 C829 1.398 . S
C830 C831 1.391 . S
C831 H819 0.950 . S
C831 C827 1.393 . S
C831 C830 1.391 . S
H832 C840 0.950 . S
H833 C845 0.950 . S
H834 C842 0.950 . S
H835 C844 0.950 . S
H836 C846 0.950 . S
H837 C848 0.950 . S
H838 C850 0.950 . S
H839 C851 0.950 . S
C840 H832 0.950 . S
C840 C841 1.386 . S
C840 C842 1.391 . S
C841 C840 1.386 . S
C841 C845 1.393 . S
C842 H834 0.950 . S
C842 C840 1.391 . S
C842 C843 1.400 . S
C843 C842 1.400 . S
C843 C844 1.398 . S
C843 C849 1.491 1_556 S
C844 H835 0.950 . S
C844 C843 1.398 . S
C844 C845 1.391 . S
C845 H833 0.950 . S
C845 C841 1.393 . S
C845 C844 1.391 . S
C846 H836 0.950 . S
C846 C847 1.386 . S
C846 C848 1.391 . S
C847 C846 1.386 . S
C847 C851 1.393 . S
C848 H837 0.950 . S
C848 C846 1.391 . S
C848 C849 1.400 . S
C849 C843 1.491 1_554 S
C849 C848 1.400 . S
C849 C850 1.398 . S
C850 H838 0.950 . S
C850 C849 1.398 . S
C850 C851 1.391 . S
C851 H839 0.950 . S
C851 C847 1.393 . S
C851 C850 1.391 . S
H852 C860 0.950 . S
H853 C865 0.950 . S
H854 C862 0.950 . S
H855 C864 0.950 . S
H856 C866 0.950 . S
H857 C868 0.950 . S
H858 C870 0.950 . S
H859 C871 0.950 . S
C860 H852 0.950 . S
C860 C861 1.386 . S
C860 C862 1.391 . S
C861 C860 1.386 . S
C861 C865 1.393 . S
C862 H854 0.950 . S
C862 C860 1.391 . S
C862 C863 1.400 . S
C863 C862 1.400 . S
C863 C864 1.398 . S
C863 C869 1.491 1_554 S
C864 H855 0.950 . S
C864 C863 1.398 . S
C864 C865 1.391 . S
C865 H853 0.950 . S
C865 C861 1.393 . S
C865 C864 1.391 . S
C866 H856 0.950 . S
C866 C867 1.386 . S
C866 C868 1.391 . S
C867 C866 1.386 . S
C867 C871 1.393 . S
C868 H857 0.950 . S
C868 C866 1.391 . S
C868 C869 1.400 . S
C869 C863 1.491 1_556 S
C869 C868 1.400 . S
C869 C870 1.398 . S
C870 H858 0.950 . S
C870 C869 1.398 . S
C870 C871 1.391 . S
C871 H859 0.950 . S
C871 C867 1.393 . S
C871 C870 1.391 . S
H872 C880 0.950 . S
H873 C885 0.950 . S
H874 C882 0.950 . S
H875 C884 0.950 . S
H876 C886 0.950 . S
H877 C888 0.950 . S
H878 C890 0.950 . S
H879 C891 0.950 . S
C880 H872 0.950 . S
C880 C881 1.386 . S
C880 C882 1.391 . S
C881 C880 1.386 . S
C881 C885 1.393 . S
C882 H874 0.950 . S
C882 C880 1.391 . S
C882 C883 1.400 . S
C883 C882 1.400 . S
C883 C884 1.398 . S
C883 C889 1.491 1_554 S
C884 H875 0.950 . S
C884 C883 1.398 . S
C884 C885 1.391 . S
C885 H873 0.950 . S
C885 C881 1.393 . S
C885 C884 1.391 . S
C886 H876 0.950 . S
C886 C887 1.386 . S
C886 C888 1.391 . S
C887 C886 1.386 . S
C887 C891 1.393 . S
C888 H877 0.950 . S
C888 C886 1.391 . S
C888 C889 1.400 . S
C889 C883 1.491 1_556 S
C889 C888 1.400 . S
C889 C890 1.398 . S
C890 H878 0.950 . S
C890 C889 1.398 . S
C890 C891 1.391 . S
C891 H879 0.950 . S
C891 C887 1.393 . S
C891 C890 1.391 . S
H892 C900 0.950 . S
H893 C905 0.950 . S
H894 C902 0.950 . S
H895 C904 0.950 . S
H896 C906 0.950 . S
H897 C908 0.950 . S
H898 C910 0.950 . S
H899 C911 0.950 . S
C900 H892 0.950 . S
C900 C901 1.386 . S
C900 C902 1.391 . S
C901 C900 1.386 . S
C901 C905 1.393 . S
C902 H894 0.950 . S
C902 C900 1.391 . S
C902 C903 1.400 . S
C903 C902 1.400 . S
C903 C904 1.398 . S
C903 C909 1.491 1_556 S
C904 H895 0.950 . S
C904 C903 1.398 . S
C904 C905 1.391 . S
C905 H893 0.950 . S
C905 C901 1.393 . S
C905 C904 1.391 . S
C906 H896 0.950 . S
C906 C907 1.386 . S
C906 C908 1.391 . S
C907 C906 1.386 . S
C907 C911 1.393 . S
C908 H897 0.950 . S
C908 C906 1.391 . S
C908 C909 1.400 . S
C909 C903 1.491 1_554 S
C909 C908 1.400 . S
C909 C910 1.398 . S
C910 H898 0.950 . S
C910 C909 1.398 . S
C910 C911 1.391 . S
C911 H899 0.950 . S
C911 C907 1.393 . S
C911 C910 1.391 . S
H912 C920 0.950 . S
H913 C925 0.950 . S
H914 C922 0.950 . S
H915 C924 0.950 . S
H916 C926 0.950 . S
H917 C928 0.950 . S
H918 C930 0.950 . S
H919 C931 0.950 . S
C920 H912 0.950 . S
C920 C921 1.386 . S
C920 C922 1.391 . S
C921 C920 1.386 . S
C921 C925 1.393 . S
C922 H914 0.950 . S
C922 C920 1.391 . S
C922 C923 1.400 . S
C923 C922 1.400 . S
C923 C924 1.398 . S
C923 C929 1.491 . S
C924 H915 0.950 . S
C924 C923 1.398 . S
C924 C925 1.391 . S
C925 H913 0.950 . S
C925 C921 1.393 . S
C925 C924 1.391 . S
C926 H916 0.950 . S
C926 C927 1.386 . S
C926 C928 1.391 . S
C927 C926 1.386 . S
C927 C931 1.393 . S
C928 H917 0.950 . S
C928 C926 1.391 . S
C928 C929 1.400 . S
C929 C923 1.491 . S
C929 C928 1.400 . S
C929 C930 1.398 . S
C930 H918 0.950 . S
C930 C929 1.398 . S
C930 C931 1.391 . S
C931 H919 0.950 . S
C931 C927 1.393 . S
C931 C930 1.391 . S
H932 C940 0.950 . S
H933 C945 0.950 . S
H934 C942 0.950 . S
H935 C944 0.950 . S
H936 C946 0.950 . S
H937 C948 0.950 . S
H938 C950 0.950 . S
H939 C951 0.950 . S
C940 H932 0.950 . S
C940 C941 1.386 . S
C940 C942 1.391 . S
C941 C940 1.386 . S
C941 C945 1.393 . S
C942 H934 0.950 . S
C942 C940 1.391 . S
C942 C943 1.400 . S
C943 C942 1.400 . S
C943 C944 1.398 . S
C943 C949 1.491 . S
C944 H935 0.950 . S
C944 C943 1.398 . S
C944 C945 1.391 . S
C945 H933 0.950 . S
C945 C941 1.393 . S
C945 C944 1.391 . S
C946 H936 0.950 . S
C946 C947 1.386 . S
C946 C948 1.391 . S
C947 C946 1.386 . S
C947 C951 1.393 . S
C948 H937 0.950 . S
C948 C946 1.391 . S
C948 C949 1.400 . S
C949 C943 1.491 . S
C949 C948 1.400 . S
C949 C950 1.398 . S
C950 H938 0.950 . S
C950 C949 1.398 . S
C950 C951 1.391 . S
C951 H939 0.950 . S
C951 C947 1.393 . S
C951 C950 1.391 . S
H952 C960 0.950 . S
H953 C965 0.950 . S
H954 C962 0.950 . S
H955 C964 0.950 . S
H956 C966 0.950 . S
H957 C968 0.950 . S
H958 C970 0.950 . S
H959 C971 0.950 . S
C960 H952 0.950 . S
C960 C961 1.386 . S
C960 C962 1.391 . S
C961 C960 1.386 . S
C961 C965 1.393 . S
C962 H954 0.950 . S
C962 C960 1.391 . S
C962 C963 1.400 . S
C963 C962 1.400 . S
C963 C964 1.398 . S
C963 C969 1.491 . S
C964 H955 0.950 . S
C964 C963 1.398 . S
C964 C965 1.391 . S
C965 H953 0.950 . S
C965 C961 1.393 . S
C965 C964 1.391 . S
C966 H956 0.950 . S
C966 C967 1.386 . S
C966 C968 1.391 . S
C967 C966 1.386 . S
C967 C971 1.393 . S
C968 H957 0.950 . S
C968 C966 1.391 . S
C968 C969 1.400 . S
C969 C963 1.491 . S
C969 C968 1.400 . S
C969 C970 1.398 . S
C970 H958 0.950 . S
C970 C969 1.398 . S
C970 C971 1.391 . S
C971 H959 0.950 . S
C971 C967 1.393 . S
C971 C970 1.391 . S
H972 C980 0.950 . S
H973 C985 0.950 . S
H974 C982 0.950 . S
H975 C984 0.950 . S
H976 C986 0.950 . S
H977 C988 0.950 . S
H978 C990 0.950 . S
H979 C991 0.950 . S
C980 H972 0.950 . S
C980 C981 1.386 . S
C980 C982 1.391 . S
C981 C980 1.386 . S
C981 C985 1.393 . S
C982 H974 0.950 . S
C982 C980 1.391 . S
C982 C983 1.400 . S
C983 C982 1.400 . S
C983 C984 1.398 . S
C983 C989 1.491 . S
C984 H975 0.950 . S
C984 C983 1.398 . S
C984 C985 1.391 . S
C985 H973 0.950 . S
C985 C981 1.393 . S
C985 C984 1.391 . S
C986 H976 0.950 . S
C986 C987 1.386 . S
C986 C988 1.391 . S
C987 C986 1.386 . S
C987 C991 1.393 . S
C988 H977 0.950 . S
C988 C986 1.391 . S
C988 C989 1.400 . S
C989 C983 1.491 . S
C989 C988 1.400 . S
C989 C990 1.398 . S
C990 H978 0.950 . S
C990 C989 1.398 . S
C990 C991 1.391 . S
C991 H979 0.950 . S
C991 C987 1.393 . S
C991 C990 1.391 . S
H992 C1000 0.950 . S
H993 C1005 0.950 . S
H994 C1002 0.950 . S
H995 C1004 0.950 . S
H996 C1006 0.950 . S
H997 C1008 0.950 . S
H998 C1010 0.950 . S
H999 C1011 0.950 . S
C1000 H992 0.950 . S
C1000 C1001 1.386 . S
C1000 C1002 1.391 . S
C1001 C1000 1.386 . S
C1001 C1005 1.393 . S
C1002 H994 0.950 . S
C1002 C1000 1.391 . S
C1002 C1003 1.400 . S
C1003 C1002 1.400 . S
C1003 C1004 1.398 . S
C1003 C1009 1.491 . S
C1004 H995 0.950 . S
C1004 C1003 1.398 . S
C1004 C1005 1.391 . S
C1005 H993 0.950 . S
C1005 C1001 1.393 . S
C1005 C1004 1.391 . S
C1006 H996 0.950 . S
C1006 C1007 1.386 . S
C1006 C1008 1.391 . S
C1007 C1006 1.386 . S
C1007 C1011 1.393 . S
C1008 H997 0.950 . S
C1008 C1006 1.391 . S
C1008 C1009 1.400 . S
C1009 C1003 1.491 . S
C1009 C1008 1.400 . S
C1009 C1010 1.398 . S
C1010 H998 0.950 . S
C1010 C1009 1.398 . S
C1010 C1011 1.391 . S
C1011 H999 0.950 . S
C1011 C1007 1.393 . S
C1011 C1010 1.391 . S
H1012 C1020 0.950 . S
H1013 C1025 0.950 . S
H1014 C1022 0.950 . S
H1015 C1024 0.950 . S
H1016 C1026 0.950 . S
H1017 C1028 0.950 . S
H1018 C1030 0.950 . S
H1019 C1031 0.950 . S
C1020 H1012 0.950 . S
C1020 C1021 1.386 . S
C1020 C1022 1.391 . S
C1021 C1020 1.386 . S
C1021 C1025 1.393 . S
C1022 H1014 0.950 . S
C1022 C1020 1.391 . S
C1022 C1023 1.400 . S
C1023 C1022 1.400 . S
C1023 C1024 1.398 . S
C1023 C1029 1.491 . S
C1024 H1015 0.950 . S
C1024 C1023 1.398 . S
C1024 C1025 1.391 . S
C1025 H1013 0.950 . S
C1025 C1021 1.393 . S
C1025 C1024 1.391 . S
C1026 H1016 0.950 . S
C1026 C1027 1.386 . S
C1026 C1028 1.391 . S
C1027 C1026 1.386 . S
C1027 C1031 1.393 . S
C1028 H1017 0.950 . S
C1028 C1026 1.391 . S
C1028 C1029 1.400 . S
C1029 C1023 1.491 . S
C1029 C1028 1.400 . S
C1029 C1030 1.398 . S
C1030 H1018 0.950 . S
C1030 C1029 1.398 . S
C1030 C1031 1.391 . S
C1031 H1019 0.950 . S
C1031 C1027 1.393 . S
C1031 C1030 1.391 . S
H1032 C1040 0.950 . S
H1033 C1045 0.950 . S
H1034 C1042 0.950 . S
H1035 C1044 0.950 . S
H1036 C1046 0.950 . S
H1037 C1048 0.950 . S
H1038 C1050 0.950 . S
H1039 C1051 0.950 . S
C1040 H1032 0.950 . S
C1040 C1041 1.386 . S
C1040 C1042 1.391 . S
C1041 C1040 1.386 . S
C1041 C1045 1.393 . S
C1042 H1034 0.950 . S
C1042 C1040 1.391 . S
C1042 C1043 1.400 . S
C1043 C1042 1.400 . S
C1043 C1044 1.398 . S
C1043 C1049 1.491 . S
C1044 H1035 0.950 . S
C1044 C1043 1.398 . S
C1044 C1045 1.391 . S
C1045 H1033 0.950 . S
C1045 C1041 1.393 . S
C1045 C1044 1.391 . S
C1046 H1036 0.950 . S
C1046 C1047 1.386 . S
C1046 C1048 1.391 . S
C1047 C1046 1.386 . S
C1047 C1051 1.393 . S
C1048 H1037 0.950 . S
C1048 C1046 1.391 . S
C1048 C1049 1.400 . S
C1049 C1043 1.491 . S
C1049 C1048 1.400 . S
C1049 C1050 1.398 . S
C1050 H1038 0.950 . S
C1050 C1049 1.398 . S
C1050 C1051 1.391 . S
C1051 H1039 0.950 . S
C1051 C1047 1.393 . S
C1051 C1050 1.391 . S
H1052 C1060 0.950 . S
H1053 C1065 0.950 . S
H1054 C1062 0.950 . S
H1055 C1064 0.950 . S
H1056 C1066 0.950 . S
H1057 C1068 0.950 . S
H1058 C1070 0.950 . S
H1059 C1071 0.950 . S
C1060 H1052 0.950 . S
C1060 C1061 1.386 . S
C1060 C1062 1.391 . S
C1061 C1060 1.386 . S
C1061 C1065 1.393 . S
C1062 H1054 0.950 . S
C1062 C1060 1.391 . S
C1062 C1063 1.400 . S
C1063 C1062 1.400 . S
C1063 C1064 1.398 . S
C1063 C1069 1.491 . S
C1064 H1055 0.950 . S
C1064 C1063 1.398 . S
C1064 C1065 1.391 . S
C1065 H1053 0.950 . S
C1065 C1061 1.393 . S
C1065 C1064 1.391 . S
C1066 H1056 0.950 . S
C1066 C1067 1.386 . S
C1066 C1068 1.391 . S
C1067 C1066 1.386 . S
C1067 C1071 1.393 . S
C1068 H1057 0.950 . S
C1068 C1066 1.391 . S
C1068 C1069 1.400 . S
C1069 C1063 1.491 . S
C1069 C1068 1.400 . S
C1069 C1070 1.398 . S
C1070 H1058 0.950 . S
C1070 C1069 1.398 . S
C1070 C1071 1.391 . S
C1071 H1059 0.950 . S
C1071 C1067 1.393 . S
C1071 C1070 1.391 . S
H1072 C1080 0.950 . S
H1073 C1085 0.950 . S
H1074 C1082 0.950 . S
H1075 C1084 0.950 . S
H1076 C1086 0.950 . S
H1077 C1088 0.950 . S
H1078 C1090 0.950 . S
H1079 C1091 0.950 . S
C1080 H1072 0.950 . S
C1080 C1081 1.386 . S
C1080 C1082 1.391 . S
C1081 C1080 1.386 . S
C1081 C1085 1.393 . S
C1082 H1074 0.950 . S
C1082 C1080 1.391 . S
C1082 C1083 1.400 . S
C1083 C1082 1.400 . S
C1083 C1084 1.398 . S
C1083 C1089 1.491 . S
C1084 H1075 0.950 . S
C1084 C1083 1.398 . S
C1084 C1085 1.391 . S
C1085 H1073 0.950 . S
C1085 C1081 1.393 . S
C1085 C1084 1.391 . S
C1086 H1076 0.950 . S
C1086 C1087 1.386 . S
C1086 C1088 1.391 . S
C1087 C1086 1.386 . S
C1087 C1091 1.393 . S
C1088 H1077 0.950 . S
C1088 C1086 1.391 . S
C1088 C1089 1.400 . S
C1089 C1083 1.491 . S
C1089 C1088 1.400 . S
C1089 C1090 1.398 . S
C1090 H1078 0.950 . S
C1090 C1089 1.398 . S
C1090 C1091 1.391 . S
C1091 H1079 0.950 . S
C1091 C1087 1.393 . S
C1091 C1090 1.391 . S
H1092 C1100 0.950 . S
H1093 C1105 0.950 . S
H1094 C1102 0.950 . S
H1095 C1104 0.950 . S
H1096 C1106 0.950 . S
H1097 C1108 0.950 . S
H1098 C1110 0.950 . S
H1099 C1111 0.950 . S
C1100 H1092 0.950 . S
C1100 C1101 1.386 . S
C1100 C1102 1.391 . S
C1101 C1100 1.386 . S
C1101 C1105 1.393 . S
C1102 H1094 0.950 . S
C1102 C1100 1.391 . S
C1102 C1103 1.400 . S
C1103 C1102 1.400 . S
C1103 C1104 1.398 . S
C1103 C1109 1.491 . S
C1104 H1095 0.950 . S
C1104 C1103 1.398 . S
C1104 C1105 1.391 . S
C1105 H1093 0.950 . S
C1105 C1101 1.393 . S
C1105 C1104 1.391 . S
C1106 H1096 0.950 . S
C1106 C1107 1.386 . S
C1106 C1108 1.391 . S
C1107 C1106 1.386 . S
C1107 C1111 1.393 . S
C1108 H1097 0.950 . S
C1108 C1106 1.391 . S
C1108 C1109 1.400 . S
C1109 C1103 1.491 . S
C1109 C1108 1.400 . S
C1109 C1110 1.398 . S
C1110 H1098 0.950 . S
C1110 C1109 1.398 . S
C1110 C1111 1.391 . S
C1111 H1099 0.950 . S
C1111 C1107 1.393 . S
C1111 C1110 1.391 . S
H1112 C1120 0.950 . S
H1113 C1125 0.950 . S
H1114 C1122 0.950 . S
H1115 C1124 0.950 . S
H1116 C1126 0.950 . S
H1117 C1128 0.950 . S
H1118 C1130 0.950 . S
H1119 C1131 0.950 . S
C1120 H1112 0.950 . S
C1120 C1121 1.386 . S
C1120 C1122 1.391 . S
C1121 C1120 1.386 . S
C1121 C1125 1.393 . S
C1122 H1114 0.950 . S
C1122 C1120 1.391 . S
C1122 C1123 1.400 . S
C1123 C1122 1.400 . S
C1123 C1124 1.398 . S
C1123 C1129 1.491 . S
C1124 H1115 0.950 . S
C1124 C1123 1.398 . S
C1124 C1125 1.391 . S
C1125 H1113 0.950 . S
C1125 C1121 1.393 . S
C1125 C1124 1.391 . S
C1126 H1116 0.950 . S
C1126 C1127 1.386 . S
C1126 C1128 1.391 . S
C1127 C1126 1.386 . S
C1127 C1131 1.393 . S
C1128 H1117 0.950 . S
C1128 C1126 1.391 . S
C1128 C1129 1.400 . S
C1129 C1123 1.491 . S
C1129 C1128 1.400 . S
C1129 C1130 1.398 . S
C1130 H1118 0.950 . S
C1130 C1129 1.398 . S
C1130 C1131 1.391 . S
C1131 H1119 0.950 . S
C1131 C1127 1.393 . S
C1131 C1130 1.391 . S
H1132 C1140 0.950 . S
H1133 C1145 0.950 . S
H1134 C1142 0.950 . S
H1135 C1144 0.950 . S
H1136 C1146 0.950 . S
H1137 C1148 0.950 . S
H1138 C1150 0.950 . S
H1139 C1151 0.950 . S
C1140 H1132 0.950 . S
C1140 C1141 1.386 . S
C1140 C1142 1.391 . S
C1141 C1140 1.386 . S
C1141 C1145 1.393 . S
C1142 H1134 0.950 . S
C1142 C1140 1.391 . S
C1142 C1143 1.400 . S
C1143 C1142 1.400 . S
C1143 C1144 1.398 . S
C1143 C1149 1.491 . S
C1144 H1135 0.950 . S
C1144 C1143 1.398 . S
C1144 C1145 1.391 . S
C1145 H1133 0.950 . S
C1145 C1141 1.393 . S
C1145 C1144 1.391 . S
C1146 H1136 0.950 . S
C1146 C1147 1.386 . S
C1146 C1148 1.391 . S
C1147 C1146 1.386 . S
C1147 C1151 1.393 . S
C1148 H1137 0.950 . S
C1148 C1146 1.391 . S
C1148 C1149 1.400 . S
C1149 C1143 1.491 . S
C1149 C1148 1.400 . S
C1149 C1150 1.398 . S
C1150 H1138 0.950 . S
C1150 C1149 1.398 . S
C1150 C1151 1.391 . S
C1151 H1139 0.950 . S
C1151 C1147 1.393 . S
C1151 C1150 1.391 . S
H1152 C1160 0.950 . S
H1153 C1165 0.950 . S
H1154 C1162 0.950 . S
H1155 C1164 0.950 . S
H1156 C1166 0.950 . S
H1157 C1168 0.950 . S
H1158 C1170 0.950 . S
H1159 C1171 0.950 . S
C1160 H1152 0.950 . S
C1160 C1161 1.386 . S
C1160 C1162 1.391 . S
C1161 C1160 1.386 . S
C1161 C1165 1.393 . S
C1162 H1154 0.950 . S
C1162 C1160 1.391 . S
C1162 C1163 1.400 . S
C1163 C1162 1.400 . S
C1163 C1164 1.398 . S
C1163 C1169 1.491 . S
C1164 H1155 0.950 . S
C1164 C1163 1.398 . S
C1164 C1165 1.391 . S
C1165 H1153 0.950 . S
C1165 C1161 1.393 . S
C1165 C1164 1.391 . S
C1166 H1156 0.950 . S
C1166 C1167 1.386 . S
C1166 C1168 1.391 . S
C1167 C1166 1.386 . S
C1167 C1171 1.393 . S
C1168 H1157 0.950 . S
C1168 C1166 1.391 . S
C1168 C1169 1.400 . S
C1169 C1163 1.491 . S
C1169 C1168 1.400 . S
C1169 C1170 1.398 . S
C1170 H1158 0.950 . S
C1170 C1169 1.398 . S
C1170 C1171 1.391 . S
C1171 H1159 0.950 . S
C1171 C1167 1.393 . S
C1171 C1170 1.391 . S
H1172 C1180 0.950 . S
H1173 C1185 0.950 . S
H1174 C1182 0.950 . S
H1175 C1184 0.950 . S
H1176 C1186 0.950 . S
H1177 C1188 0.950 . S
H1178 C1190 0.950 . S
H1179 C1191 0.950 . S
C1180 H1172 0.950 . S
C1180 C1181 1.386 . S
C1180 C1182 1.391 . S
C1181 C1180 1.386 . S
C1181 C1185 1.393 . S
C1182 H1174 0.950 . S
C1182 C1180 1.391 . S
C1182 C1183 1.400 . S
C1183 C1182 1.400 . S
C1183 C1184 1.398 . S
C1183 C1189 1.491 . S
C1184 H1175 0.950 . S
C1184 C1183 1.398 . S
C1184 C1185 1.391 . S
C1185 H1173 0.950 . S
C1185 C1181 1.393 . S
C1185 C1184 1.391 . S
C1186 H1176 0.950 . S
C1186 C1187 1.386 . S
C1186 C1188 1.391 . S
C1187 C1186 1.386 . S
C1187 C1191 1.393 . S
C1188 H1177 0.950 . S
C1188 C1186 1.391 . S
C1188 C1189 1.400 . S
C1189 C1183 1.491 . S
C1189 C1188 1.400 . S
C1189 C1190 1.398 . S
C1190 H1178 0.950 . S
C1190 C1189 1.398 . S
C1190 C1191 1.391 . S
C1191 H1179 0.950 . S
C1191 C1187 1.393 . S
C1191 C1190 1.391 . S
H1192 C1200 0.950 . S
H1193 C1205 0.950 . S
H1194 C1202 0.950 . S
H1195 C1204 0.950 . S
H1196 C1206 0.950 . S
H1197 C1208 0.950 . S
H1198 C1210 0.950 . S
H1199 C1211 0.950 . S
C1200 H1192 0.950 . S
C1200 C1201 1.386 . S
C1200 C1202 1.391 . S
C1201 C1200 1.386 . S
C1201 C1205 1.393 . S
C1202 H1194 0.950 . S
C1202 C1200 1.391 . S
C1202 C1203 1.400 . S
C1203 C1202 1.400 . S
C1203 C1204 1.398 . S
C1203 C1209 1.491 . S
C1204 H1195 0.950 . S
C1204 C1203 1.398 . S
C1204 C1205 1.391 . S
C1205 H1193 0.950 . S
C1205 C1201 1.393 . S
C1205 C1204 1.391 . S
C1206 H1196 0.950 . S
C1206 C1207 1.386 . S
C1206 C1208 1.391 . S
C1207 C1206 1.386 . S
C1207 C1211 1.393 . S
C1208 H1197 0.950 . S
C1208 C1206 1.391 . S
C1208 C1209 1.400 . S
C1209 C1203 1.491 . S
C1209 C1208 1.400 . S
C1209 C1210 1.398 . S
C1210 H1198 0.950 . S
C1210 C1209 1.398 . S
C1210 C1211 1.391 . S
C1211 H1199 0.950 . S
C1211 C1207 1.393 . S
C1211 C1210 1.391 . S
H1212 C1220 0.950 . S
H1213 C1225 0.950 . S
H1214 C1222 0.950 . S
H1215 C1224 0.950 . S
H1216 C1226 0.950 . S
H1217 C1228 0.950 . S
H1218 C1230 0.950 . S
H1219 C1231 0.950 . S
C1220 H1212 0.950 . S
C1220 C1221 1.386 . S
C1220 C1222 1.391 . S
C1221 C1220 1.386 . S
C1221 C1225 1.393 . S
C1222 H1214 0.950 . S
C1222 C1220 1.391 . S
C1222 C1223 1.400 . S
C1223 C1222 1.400 . S
C1223 C1224 1.398 . S
C1223 C1229 1.491 . S
C1224 H1215 0.950 . S
C1224 C1223 1.398 . S
C1224 C1225 1.391 . S
C1225 H1213 0.950 . S
C1225 C1221 1.393 . S
C1225 C1224 1.391 . S
C1226 H1216 0.950 . S
C1226 C1227 1.386 . S
C1226 C1228 1.391 . S
C1227 C1226 1.386 . S
C1227 C1231 1.393 . S
C1228 H1217 0.950 . S
C1228 C1226 1.391 . S
C1228 C1229 1.400 . S
C1229 C1223 1.491 . S
C1229 C1228 1.400 . S
C1229 C1230 1.398 . S
C1230 H1218 0.950 . S
C1230 C1229 1.398 . S
C1230 C1231 1.391 . S
C1231 H1219 0.950 . S
C1231 C1227 1.393 . S
C1231 C1230 1.391 . S
H1232 C1240 0.950 . S
H1233 C1245 0.950 . S
H1234 C1242 0.950 . S
H1235 C1244 0.950 . S
H1236 C1246 0.950 . S
H1237 C1248 0.950 . S
H1238 C1250 0.950 . S
H1239 C1251 0.950 . S
C1240 H1232 0.950 . S
C1240 C1241 1.386 . S
C1240 C1242 1.391 . S
C1241 C1240 1.386 . S
C1241 C1245 1.393 . S
C1242 H1234 0.950 . S
C1242 C1240 1.391 . S
C1242 C1243 1.400 . S
C1243 C1242 1.400 . S
C1243 C1244 1.398 . S
C1243 C1249 1.491 . S
C1244 H1235 0.950 . S
C1244 C1243 1.398 . S
C1244 C1245 1.391 . S
C1245 H1233 0.950 . S
C1245 C1241 1.393 . S
C1245 C1244 1.391 . S
C1246 H1236 0.950 . S
C1246 C1247 1.386 . S
C1246 C1248 1.391 . S
C1247 C1246 1.386 . S
C1247 C1251 1.393 . S
C1248 H1237 0.950 . S
C1248 C1246 1.391 . S
C1248 C1249 1.400 . S
C1249 C1243 1.491 . S
C1249 C1248 1.400 . S
C1249 C1250 1.398 . S
C1250 H1238 0.950 . S
C1250 C1249 1.398 . S
C1250 C1251 1.391 . S
C1251 H1239 0.950 . S
C1251 C1247 1.393 . S
C1251 C1250 1.391 . S
H1252 C1260 0.950 . S
H1253 C1265 0.950 . S
H1254 C1262 0.950 . S
H1255 C1264 0.950 . S
H1256 C1266 0.950 . S
H1257 C1268 0.950 . S
H1258 C1270 0.950 . S
H1259 C1271 0.950 . S
C1260 H1252 0.950 . S
C1260 C1261 1.386 . S
C1260 C1262 1.391 . S
C1261 C1260 1.386 . S
C1261 C1265 1.393 . S
C1262 H1254 0.950 . S
C1262 C1260 1.391 . S
C1262 C1263 1.400 . S
C1263 C1262 1.400 . S
C1263 C1264 1.398 . S
C1263 C1269 1.491 . S
C1264 H1255 0.950 . S
C1264 C1263 1.398 . S
C1264 C1265 1.391 . S
C1265 H1253 0.950 . S
C1265 C1261 1.393 . S
C1265 C1264 1.391 . S
C1266 H1256 0.950 . S
C1266 C1267 1.386 . S
C1266 C1268 1.391 . S
C1267 C1266 1.386 . S
C1267 C1271 1.393 . S
C1268 H1257 0.950 . S
C1268 C1266 1.391 . S
C1268 C1269 1.400 . S
C1269 C1263 1.491 . S
C1269 C1268 1.400 . S
C1269 C1270 1.398 . S
C1270 H1258 0.950 . S
C1270 C1269 1.398 . S
C1270 C1271 1.391 . S
C1271 H1259 0.950 . S
C1271 C1267 1.393 . S
C1271 C1270 1.391 . S
C321 C5 1.224 . S
C327 C96 1.257 . S
C341 C109 1.229 . S
C347 C18 1.249 . S
C361 C31 1.252 . S
C367 C122 1.227 . S
C381 C44 1.248 . S
C387 C135 1.229 . S
C401 C148 1.254 . S
C407 C57 1.225 . S
C421 C70 1.254 . S
C427 C83 1.231 . S
C441 C161 1.255 . S
C447 C252 1.225 . S
C461 C174 1.246 . S
C467 C265 1.240 . S
C481 C278 1.225 . S
C487 C187 1.257 . S
C501 C200 1.225 . S
C507 C291 1.255 . S
C521 C213 1.229 . S
C527 C304 1.250 . S
C541 C239 1.257 . S
C547 C226 1.225 . S
C561 C0 1.225 . S
C567 C104 1.244 . S
C581 C117 1.245 . S
C587 C13 1.219 . S
C601 C130 1.225 . S
C607 C26 1.244 . S
C621 C39 1.238 . S
C627 C143 1.234 . S
C641 C52 1.230 . S
C647 C78 1.241 . S
C661 C65 1.221 . S
C667 C91 1.245 . S
C681 C260 1.232 . S
C687 C156 1.240 . S
C701 C169 1.229 . S
C707 C273 1.242 . S
C721 C286 1.240 . S
C727 C182 1.231 . S
C741 C299 1.230 . S
C747 C195 1.241 . S
C761 C234 1.245 . S
C767 C208 1.222 . S
C781 C221 1.226 . S
C787 C247 1.244 . S
C801 C8 1.478 . S
C807 C203 1.497 . S
C821 C216 1.489 . S
C827 C21 1.486 . S
C841 C229 1.484 . S
C847 C34 1.491 . S
C861 C47 1.493 . S
C867 C164 1.482 . S
C881 C60 1.493 . S
C887 C177 1.482 . S
C901 C190 1.497 . S
C907 C73 1.478 . S
C921 C281 1.494 . S
C927 C86 1.481 . S
C941 C294 1.491 . S
C947 C99 1.484 . S
C961 C307 1.496 . S
C967 C112 1.479 . S
C981 C242 1.488 . S
C987 C125 1.487 . S
C1001 C138 1.497 . S
C1007 C255 1.478 . S
C1021 C151 1.488 . S
C1027 C268 1.487 . S
C1041 C10 1.515 . S
C1047 C140 1.520 . S
C1061 C153 1.525 . S
C1067 C23 1.526 . S
C1081 C88 1.521 . S
C1087 C36 1.526 . S
C1101 C49 1.516 . S
C1107 C101 1.521 . S
C1121 C62 1.524 . S
C1127 C114 1.526 . S
C1141 C75 1.526 . S
C1147 C127 1.523 . S
C1161 C166 1.516 . S
C1167 C296 1.514 . S
C1181 C179 1.525 . S
C1187 C309 1.526 . S
C1201 C192 1.517 . S
C1207 C244 1.514 . S
C1221 C257 1.515 . S
C1227 C205 1.514 . S
C1241 C218 1.518 . S
C1247 C270 1.524 . S
C1261 C231 1.518 . S
C1267 C283 1.514 . S
