# Generated by pormake.
# Topology vbj, (5)-cn, num edge types: 1
# Building blocks:
#     Node 0, Type 0, BuildingBlock: BEQFEK_clean_sbu_0, # of connection points: 5
#     Node 1, Type 0, BuildingBlock: BEQFEK_clean_sbu_0, # of connection points: 5
#     Node 2, Type 0, BuildingBlock: BEQFEK_clean_sbu_0, # of connection points: 5
#     Node 3, Type 0, BuildingBlock: BEQFEK_clean_sbu_0, # of connection points: 5
#     Node 4, Type 0, BuildingBlock: BEQFEK_clean_sbu_0, # of connection points: 5
#     Node 5, Type 0, BuildingBlock: BEQFEK_clean_sbu_0, # of connection points: 5
#     Node 6, Type 0, BuildingBlock: BEQFEK_clean_sbu_0, # of connection points: 5
#     Node 7, Type 0, BuildingBlock: BEQFEK_clean_sbu_0, # of connection points: 5
#     Node 8, Type 0, BuildingBlock: BEQFEK_clean_sbu_0, # of connection points: 5
#     Node 9, Type 0, BuildingBlock: BEQFEK_clean_sbu_0, # of connection points: 5
#     Node 10, Type 0, BuildingBlock: BEQFEK_clean_sbu_0, # of connection points: 5
#     Node 11, Type 0, BuildingBlock: BEQFEK_clean_sbu_0, # of connection points: 5
#     Node 12, Type 0, BuildingBlock: BEQFEK_clean_sbu_0, # of connection points: 5
#     Node 13, Type 0, BuildingBlock: BEQFEK_clean_sbu_0, # of connection points: 5
#     Node 14, Type 0, BuildingBlock: BEQFEK_clean_sbu_0, # of connection points: 5
#     Node 15, Type 0, BuildingBlock: BEQFEK_clean_sbu_0, # of connection points: 5
#     Edge 16, Type (0, 0), BuildingBlock: TEMPAE_clean_linker_10, # of connection points: 2
#     Edge 17, Type (0, 0), BuildingBlock: TEMPAE_clean_linker_10, # of connection points: 2
#     Edge 18, Type (0, 0), BuildingBlock: TEMPAE_clean_linker_10, # of connection points: 2
#     Edge 19, Type (0, 0), BuildingBlock: TEMPAE_clean_linker_10, # of connection points: 2
#     Edge 20, Type (0, 0), BuildingBlock: TEMPAE_clean_linker_10, # of connection points: 2
#     Edge 21, Type (0, 0), BuildingBlock: TEMPAE_clean_linker_10, # of connection points: 2
#     Edge 22, Type (0, 0), BuildingBlock: TEMPAE_clean_linker_10, # of connection points: 2
#     Edge 23, Type (0, 0), BuildingBlock: TEMPAE_clean_linker_10, # of connection points: 2
#     Edge 24, Type (0, 0), BuildingBlock: TEMPAE_clean_linker_10, # of connection points: 2
#     Edge 25, Type (0, 0), BuildingBlock: TEMPAE_clean_linker_10, # of connection points: 2
#     Edge 26, Type (0, 0), BuildingBlock: TEMPAE_clean_linker_10, # of connection points: 2
#     Edge 27, Type (0, 0), BuildingBlock: TEMPAE_clean_linker_10, # of connection points: 2
#     Edge 28, Type (0, 0), BuildingBlock: TEMPAE_clean_linker_10, # of connection points: 2
#     Edge 29, Type (0, 0), BuildingBlock: TEMPAE_clean_linker_10, # of connection points: 2
#     Edge 30, Type (0, 0), BuildingBlock: TEMPAE_clean_linker_10, # of connection points: 2
#     Edge 31, Type (0, 0), BuildingBlock: TEMPAE_clean_linker_10, # of connection points: 2
#     Edge 32, Type (0, 0), BuildingBlock: TEMPAE_clean_linker_10, # of connection points: 2
#     Edge 33, Type (0, 0), BuildingBlock: TEMPAE_clean_linker_10, # of connection points: 2
#     Edge 34, Type (0, 0), BuildingBlock: TEMPAE_clean_linker_10, # of connection points: 2
#     Edge 35, Type (0, 0), BuildingBlock: TEMPAE_clean_linker_10, # of connection points: 2
#     Edge 36, Type (0, 0), BuildingBlock: TEMPAE_clean_linker_10, # of connection points: 2
#     Edge 37, Type (0, 0), BuildingBlock: TEMPAE_clean_linker_10, # of connection points: 2
#     Edge 38, Type (0, 0), BuildingBlock: TEMPAE_clean_linker_10, # of connection points: 2
#     Edge 39, Type (0, 0), BuildingBlock: TEMPAE_clean_linker_10, # of connection points: 2
#     Edge 40, Type (0, 0), BuildingBlock: TEMPAE_clean_linker_10, # of connection points: 2
#     Edge 41, Type (0, 0), BuildingBlock: TEMPAE_clean_linker_10, # of connection points: 2
#     Edge 42, Type (0, 0), BuildingBlock: TEMPAE_clean_linker_10, # of connection points: 2
#     Edge 43, Type (0, 0), BuildingBlock: TEMPAE_clean_linker_10, # of connection points: 2
#     Edge 44, Type (0, 0), BuildingBlock: TEMPAE_clean_linker_10, # of connection points: 2
#     Edge 45, Type (0, 0), BuildingBlock: TEMPAE_clean_linker_10, # of connection points: 2
#     Edge 46, Type (0, 0), BuildingBlock: TEMPAE_clean_linker_10, # of connection points: 2
#     Edge 47, Type (0, 0), BuildingBlock: TEMPAE_clean_linker_10, # of connection points: 2
#     Edge 48, Type (0, 0), BuildingBlock: TEMPAE_clean_linker_10, # of connection points: 2
#     Edge 49, Type (0, 0), BuildingBlock: TEMPAE_clean_linker_10, # of connection points: 2
#     Edge 50, Type (0, 0), BuildingBlock: TEMPAE_clean_linker_10, # of connection points: 2
#     Edge 51, Type (0, 0), BuildingBlock: TEMPAE_clean_linker_10, # of connection points: 2
#     Edge 52, Type (0, 0), BuildingBlock: TEMPAE_clean_linker_10, # of connection points: 2
#     Edge 53, Type (0, 0), BuildingBlock: TEMPAE_clean_linker_10, # of connection points: 2
#     Edge 54, Type (0, 0), BuildingBlock: TEMPAE_clean_linker_10, # of connection points: 2
#     Edge 55, Type (0, 0), BuildingBlock: TEMPAE_clean_linker_10, # of connection points: 2
# Relax obj value: 0.116
# Max RMSD: 0.137
# Mean RMSD: 0.137
data_MOF--net-vbj--node1-BEQFEK_clean_sbu_0--edge1-TEMPAE_clean_linker_10
_symmetry_space_group_name_H-M    P1
_symmetry_Int_Tables_number       1
_symmetry_cell_setting            triclinic
loop_
_symmetry_equiv_pos_as_xyz
'x, y, z'
_cell_length_a     25.994068
_cell_length_b     73.720765
_cell_length_c     45.780586
_cell_angle_alpha  90.015648
_cell_angle_beta   89.996256
_cell_angle_gamma 89.977995
loop_
_atom_site_label
_atom_site_type_symbol
_atom_site_fract_x
_atom_site_fract_y
_atom_site_fract_z
_atom_type_partial_charge
Co0 Co 0.08505 0.15537 0.10763 0.0
Co1 Co 0.09656 0.11375 0.09337 0.0
C2 C 0.08178 0.12748 0.15436 0.0
O3 O 0.08224 0.14404 0.14643 0.0
O4 O 0.08545 0.11454 0.13607 0.0
C5 C 0.09411 0.19412 0.12771 0.0
O6 O 0.13105 0.19002 0.14614 0.0
C7 C 0.14638 0.07783 0.0951 0.0
C8 C 0.11032 0.06439 0.05714 0.0
C9 C 0.14596 0.06167 0.07928 0.0
N10 N 0.11285 0.0894 0.08267 0.0
N11 N 0.09113 0.08122 0.06018 0.0
C12 C 0.1804 0.08296 0.12013 0.0
H13 H 0.18262 0.09795 0.12223 0.0
H14 H 0.21958 0.07728 0.1171 0.0
H15 H 0.16397 0.07744 0.14066 0.0
C16 C 0.18276 0.15686 0.07437 0.0
N17 N 0.14433 0.14769 0.08741 0.0
N18 N 0.14894 0.13026 0.08143 0.0
C19 C 0.19027 0.12785 0.06419 0.0
C20 C 0.21303 0.14455 0.05934 0.0
C21 C 0.18727 0.17708 0.07415 0.0
H22 H 0.15057 0.18309 0.06644 0.0
H23 H 0.19393 0.18192 0.09677 0.0
H24 H 0.21934 0.18168 0.05996 0.0
O25 O 0.02427 0.14878 0.08455 0.0
O26 O 0.03214 0.11978 0.07294 0.0
H27 H 0.17181 0.10402 0.03956 0.0
H28 H 0.23732 0.1117 0.03477 0.0
C29 C 0.20547 0.11013 0.0507 0.0
H30 H 0.21839 0.10074 0.06808 0.0
H31 H 0.06369 0.08721 0.04663 0.0
O32 O 0.0757 0.18199 0.111 0.0
C33 C 0.00776 0.1347 0.07163 0.0
Co34 Co 0.41768 0.85244 0.09584 0.0
Co35 Co 0.40165 0.89419 0.08427 0.0
C36 C 0.44739 0.88062 0.13963 0.0
O37 O 0.44519 0.86419 0.13117 0.0
O38 O 0.43127 0.89362 0.12383 0.0
C39 C 0.42039 0.81654 0.12359 0.0
O40 O 0.403 0.82426 0.14749 0.0
C41 C 0.35431 0.93038 0.09169 0.0
C42 C 0.38189 0.94441 0.05201 0.0
C43 C 0.35274 0.94684 0.077 0.0
N44 N 0.38289 0.91871 0.07592 0.0
N45 N 0.3993 0.92722 0.05228 0.0
C46 C 0.33221 0.92616 0.1211 0.0
H47 H 0.34296 0.91227 0.1281 0.0
H48 H 0.28971 0.92723 0.12044 0.0
H49 H 0.34634 0.93622 0.13727 0.0
C50 C 0.30631 0.85196 0.08255 0.0
N51 N 0.35058 0.86083 0.08776 0.0
N52 N 0.344 0.87826 0.08237 0.0
C53 C 0.2952 0.88097 0.07359 0.0
C54 C 0.26963 0.86448 0.07384 0.0
C55 C 0.30103 0.83177 0.08318 0.0
H56 H 0.31284 0.82666 0.10496 0.0
H57 H 0.26093 0.82747 0.07854 0.0
H58 H 0.32737 0.82573 0.06676 0.0
O59 O 0.46106 0.85758 0.06216 0.0
O60 O 0.45384 0.88718 0.05461 0.0
H61 H 0.24048 0.89627 0.04751 0.0
H62 H 0.26594 0.90785 0.07881 0.0
C63 C 0.2756 0.89838 0.06085 0.0
H64 H 0.30559 0.90467 0.04696 0.0
H65 H 0.4226 0.92131 0.03634 0.0
O66 O 0.42471 0.8258 0.10032 0.0
C67 C 0.47251 0.87177 0.04794 0.0
Co68 Co 0.58102 0.85439 0.39205 0.0
Co69 Co 0.5992 0.8962 0.40284 0.0
C70 C 0.55098 0.88291 0.34833 0.0
O71 O 0.55297 0.86655 0.35716 0.0
O72 O 0.56829 0.896 0.36355 0.0
C73 C 0.58428 0.81774 0.3654 0.0
O74 O 0.61059 0.82435 0.34335 0.0
C75 C 0.64053 0.93395 0.39758 0.0
C76 C 0.62883 0.94343 0.44288 0.0
C77 C 0.64726 0.94887 0.41589 0.0
N78 N 0.61951 0.92036 0.41329 0.0
N79 N 0.61258 0.92622 0.44029 0.0
C80 C 0.65198 0.93279 0.3656 0.0
H81 H 0.62835 0.92216 0.35509 0.0
H82 H 0.69303 0.92915 0.3625 0.0
H83 H 0.64481 0.94604 0.35483 0.0
C84 C 0.69251 0.85339 0.40526 0.0
N85 N 0.64861 0.86241 0.39967 0.0
N86 N 0.6562 0.87991 0.40389 0.0
C87 C 0.70551 0.88254 0.41172 0.0
C88 C 0.73017 0.86588 0.41268 0.0
C89 C 0.6966 0.83316 0.40633 0.0
H90 H 0.66491 0.82759 0.41987 0.0
H91 H 0.69209 0.82768 0.38392 0.0
H92 H 0.73426 0.82871 0.41523 0.0
O93 O 0.53865 0.85952 0.42605 0.0
O94 O 0.54691 0.88917 0.43257 0.0
H95 H 0.70276 0.90539 0.44053 0.0
H96 H 0.76705 0.89912 0.42971 0.0
C97 C 0.72662 0.90029 0.42221 0.0
H98 H 0.72493 0.9103 0.40421 0.0
H99 H 0.59677 0.91841 0.45704 0.0
O100 O 0.57267 0.82787 0.38686 0.0
C101 C 0.52784 0.87394 0.43983 0.0
Co102 Co 0.89627 0.16352 0.39036 0.0
Co103 Co 0.87333 0.12233 0.40412 0.0
C104 C 0.92846 0.13352 0.35029 0.0
O105 O 0.92365 0.15025 0.35659 0.0
O106 O 0.91207 0.12101 0.36701 0.0
C107 C 0.89978 0.1996 0.36175 0.0
O108 O 0.87332 0.19308 0.33968 0.0
C109 C 0.8298 0.08495 0.39903 0.0
C110 C 0.83401 0.07635 0.4452 0.0
C111 C 0.8193 0.07048 0.4177 0.0
N112 N 0.84937 0.09868 0.415 0.0
N113 N 0.85179 0.09337 0.44252 0.0
C114 C 0.82322 0.08555 0.36657 0.0
H115 H 0.84882 0.09586 0.35673 0.0
H116 H 0.78294 0.08933 0.36138 0.0
H117 H 0.83128 0.07206 0.35682 0.0
C118 C 0.78433 0.16631 0.40078 0.0
N119 N 0.82759 0.15662 0.39677 0.0
N120 N 0.8178 0.13931 0.40144 0.0
C121 C 0.76762 0.13747 0.40799 0.0
C122 C 0.74474 0.15447 0.40768 0.0
C123 C 0.7826 0.18659 0.40124 0.0
H124 H 0.81402 0.19185 0.4153 0.0
H125 H 0.78922 0.19175 0.3788 0.0
H126 H 0.74494 0.19169 0.4092 0.0
O127 O 0.9368 0.15837 0.42536 0.0
O128 O 0.92103 0.12958 0.4357 0.0
H129 H 0.76474 0.11566 0.43877 0.0
H130 H 0.70264 0.12192 0.42439 0.0
C131 C 0.74395 0.12024 0.41895 0.0
H132 H 0.74765 0.1096 0.402 0.0
H133 H 0.86568 0.1014 0.45956 0.0
O134 O 0.90871 0.18973 0.3839 0.0
C135 C 0.94313 0.14454 0.44145 0.0
Co136 Co 0.91756 0.85259 0.89207 0.0
Co137 Co 0.89965 0.89428 0.90385 0.0
C138 C 0.946 0.8812 0.84849 0.0
O139 O 0.94486 0.86478 0.85706 0.0
O140 O 0.92875 0.89413 0.86411 0.0
C141 C 0.92299 0.81702 0.86347 0.0
O142 O 0.9088 0.82518 0.83927 0.0
C143 C 0.85106 0.93041 0.89776 0.0
C144 C 0.87116 0.94281 0.94018 0.0
C145 C 0.84451 0.94609 0.91446 0.0
N146 N 0.87964 0.91857 0.91319 0.0
N147 N 0.89196 0.92616 0.93835 0.0
C148 C 0.82798 0.92599 0.86868 0.0
H149 H 0.82851 0.91111 0.86488 0.0
H150 H 0.78789 0.93111 0.86737 0.0
H151 H 0.85103 0.93256 0.85124 0.0
C152 C 0.80624 0.85148 0.90502 0.0
N153 N 0.85016 0.86062 0.90012 0.0
N154 N 0.84273 0.87799 0.90565 0.0
C155 C 0.79367 0.88039 0.91423 0.0
C156 C 0.76887 0.86375 0.91368 0.0
C157 C 0.80187 0.83127 0.9041 0.0
H158 H 0.81445 0.82632 0.88236 0.0
H159 H 0.76185 0.82673 0.90836 0.0
H160 H 0.82804 0.8253 0.92067 0.0
O161 O 0.96064 0.85774 0.92585 0.0
O162 O 0.95267 0.88735 0.93316 0.0
H163 H 0.7374 0.8953 0.93985 0.0
H164 H 0.76366 0.90718 0.90908 0.0
C165 C 0.77295 0.89764 0.92699 0.0
H166 H 0.80214 0.90395 0.94139 0.0
H167 H 0.91372 0.91983 0.95457 0.0
O168 O 0.92489 0.82595 0.8872 0.0
C169 C 0.97182 0.87203 0.93991 0.0
Co170 Co 0.58772 0.15508 0.88465 0.0
Co171 Co 0.589 0.11289 0.89602 0.0
C172 C 0.57519 0.12923 0.83612 0.0
O173 O 0.58086 0.14548 0.8449 0.0
O174 O 0.57602 0.11585 0.85366 0.0
C175 C 0.58564 0.19223 0.86251 0.0
O176 O 0.5975 0.18546 0.83684 0.0
C177 C 0.63632 0.07667 0.89053 0.0
C178 C 0.59143 0.06084 0.9226 0.0
C179 C 0.63122 0.05948 0.90259 0.0
N180 N 0.60151 0.08771 0.90312 0.0
N181 N 0.57465 0.07811 0.92215 0.0
C182 C 0.67174 0.08231 0.8664 0.0
H183 H 0.65856 0.09519 0.85637 0.0
H184 H 0.71099 0.08447 0.87518 0.0
H185 H 0.67401 0.07148 0.8496 0.0
C186 C 0.68555 0.15275 0.917 0.0
N187 N 0.64532 0.14497 0.90344 0.0
N188 N 0.64513 0.12742 0.90901 0.0
C189 C 0.68465 0.12357 0.92696 0.0
C190 C 0.71159 0.13944 0.93241 0.0
C191 C 0.69454 0.17277 0.91807 0.0
H192 H 0.66442 0.17914 0.93185 0.0
H193 H 0.69107 0.17852 0.89576 0.0
H194 H 0.73293 0.17602 0.92729 0.0
O195 O 0.52636 0.1493 0.90776 0.0
O196 O 0.52684 0.11995 0.91803 0.0
H197 H 0.65709 0.09989 0.94921 0.0
H198 H 0.72258 0.10593 0.9584 0.0
C199 C 0.69379 0.10537 0.94058 0.0
H200 H 0.70846 0.09593 0.92376 0.0
H201 H 0.54491 0.08338 0.93491 0.0
O202 O 0.58518 0.18197 0.88481 0.0
C203 C 0.50653 0.13559 0.9202 0.0
Co204 Co 0.3944 0.16017 0.5929 0.0
Co205 Co 0.3887 0.1182 0.57961 0.0
C206 C 0.43163 0.13267 0.63547 0.0
O207 O 0.42259 0.14901 0.62822 0.0
O208 O 0.42133 0.11939 0.61869 0.0
C209 C 0.4008 0.19561 0.62092 0.0
O210 O 0.39439 0.18704 0.64581 0.0
C211 C 0.34812 0.08093 0.58647 0.0
C212 C 0.37292 0.06847 0.54493 0.0
C213 C 0.3458 0.06484 0.57039 0.0
N214 N 0.37469 0.09329 0.57092 0.0
N215 N 0.38989 0.08565 0.5463 0.0
C216 C 0.32294 0.0852 0.61505 0.0
H217 H 0.32116 0.1001 0.61849 0.0
H218 H 0.28356 0.07941 0.6158 0.0
H219 H 0.34594 0.07919 0.63302 0.0
C220 C 0.28381 0.1578 0.57964 0.0
N221 N 0.3298 0.15005 0.58459 0.0
N222 N 0.3274 0.13262 0.57819 0.0
C223 C 0.27974 0.12886 0.5684 0.0
C224 C 0.25055 0.1446 0.56935 0.0
C225 C 0.27439 0.17779 0.58091 0.0
H226 H 0.29603 0.18448 0.56301 0.0
H227 H 0.28912 0.18323 0.6019 0.0
H228 H 0.23285 0.18099 0.57866 0.0
O229 O 0.43971 0.1562 0.55938 0.0
O230 O 0.43777 0.12677 0.5496 0.0
H231 H 0.2948 0.10614 0.54033 0.0
H232 H 0.22756 0.11227 0.54268 0.0
C233 C 0.26407 0.11114 0.55507 0.0
H234 H 0.25818 0.10105 0.57265 0.0
H235 H 0.41098 0.0923 0.53014 0.0
O236 O 0.39647 0.18695 0.59703 0.0
C237 C 0.45368 0.14271 0.5441 0.0
Co238 Co 0.08219 0.85427 0.59568 0.0
Co239 Co 0.0967 0.89626 0.58494 0.0
C240 C 0.05135 0.88197 0.64001 0.0
O241 O 0.05414 0.86563 0.63118 0.0
O242 O 0.06718 0.89518 0.62457 0.0
C243 C 0.07945 0.81828 0.62295 0.0
O244 O 0.09329 0.82624 0.64739 0.0
C245 C 0.14405 0.93247 0.59271 0.0
C246 C 0.11402 0.94696 0.55405 0.0
C247 C 0.14469 0.94911 0.57851 0.0
N248 N 0.11452 0.92098 0.57717 0.0
N249 N 0.09662 0.92977 0.55415 0.0
C250 C 0.16795 0.92792 0.62152 0.0
H251 H 0.16036 0.91356 0.62741 0.0
H252 H 0.21004 0.93025 0.62071 0.0
H253 H 0.15195 0.93699 0.63861 0.0
C254 C 0.19344 0.85442 0.58239 0.0
N255 N 0.1489 0.86309 0.58774 0.0
N256 N 0.1549 0.88057 0.58259 0.0
C257 C 0.20356 0.8835 0.57373 0.0
C258 C 0.22966 0.86711 0.57376 0.0
C259 C 0.19941 0.83425 0.58284 0.0
H260 H 0.18686 0.82897 0.60437 0.0
H261 H 0.23985 0.83014 0.57868 0.0
H262 H 0.17402 0.82819 0.56596 0.0
O263 O 0.03833 0.85953 0.56223 0.0
O264 O 0.04465 0.8892 0.55514 0.0
H265 H 0.19184 0.9075 0.54792 0.0
H266 H 0.2568 0.89895 0.54698 0.0
C267 C 0.22254 0.90101 0.56106 0.0
H268 H 0.23353 0.91027 0.57905 0.0
H269 H 0.07241 0.92404 0.53849 0.0
O270 O 0.07684 0.82751 0.59953 0.0
C271 C 0.02633 0.87377 0.54826 0.0
Co272 Co 0.57798 0.65511 0.10109 0.0
Co273 Co 0.58535 0.61293 0.0902 0.0
C274 C 0.55555 0.62819 0.14803 0.0
O275 O 0.55775 0.64443 0.13871 0.0
O276 O 0.56599 0.61467 0.13179 0.0
C277 C 0.57838 0.69144 0.12694 0.0
O278 O 0.59102 0.68371 0.15178 0.0
C279 C 0.62967 0.57609 0.09503 0.0
C280 C 0.59468 0.56274 0.05668 0.0
C281 C 0.62849 0.55973 0.07964 0.0
N282 N 0.59855 0.58801 0.08145 0.0
N283 N 0.57736 0.57986 0.05877 0.0
C284 C 0.66183 0.58098 0.12097 0.0
H285 H 0.66383 0.59594 0.12356 0.0
H286 H 0.70122 0.57534 0.11868 0.0
H287 H 0.64401 0.57523 0.14095 0.0
C288 C 0.68514 0.65336 0.07975 0.0
N289 N 0.64112 0.64535 0.08819 0.0
N290 N 0.64398 0.62779 0.08289 0.0
C291 C 0.69002 0.62414 0.07075 0.0
C292 C 0.71769 0.64014 0.06883 0.0
C293 C 0.69387 0.6734 0.08007 0.0
H294 H 0.68427 0.67886 0.10199 0.0
H295 H 0.73429 0.67681 0.0745 0.0
H296 H 0.66765 0.6799 0.06405 0.0
O297 O 0.52593 0.6502 0.07163 0.0
O298 O 0.5276 0.6205 0.06443 0.0
H299 H 0.73571 0.60787 0.041 0.0
H300 H 0.71888 0.59712 0.07481 0.0
C301 C 0.70467 0.6063 0.05745 0.0
H302 H 0.67085 0.6 0.04678 0.0
H303 H 0.55179 0.5861 0.04436 0.0
O304 O 0.57587 0.68194 0.10382 0.0
C305 C 0.50928 0.63613 0.05885 0.0
Co306 Co 0.90339 0.35073 0.09506 0.0
Co307 Co 0.88579 0.39238 0.08229 0.0
C308 C 0.9399 0.37953 0.13575 0.0
O309 O 0.93339 0.36296 0.12898 0.0
O310 O 0.92435 0.39241 0.11953 0.0
C311 C 0.91952 0.31655 0.12495 0.0
O312 O 0.91618 0.32619 0.14901 0.0
C313 C 0.83817 0.42842 0.09102 0.0
C314 C 0.86091 0.44243 0.05036 0.0
C315 C 0.83443 0.44483 0.07631 0.0
N316 N 0.86539 0.41682 0.07438 0.0
N317 N 0.87891 0.42532 0.05015 0.0
C318 C 0.81948 0.42422 0.12118 0.0
H319 H 0.83264 0.41058 0.12818 0.0
H320 H 0.77688 0.42465 0.1218 0.0
H321 H 0.83382 0.43467 0.13662 0.0
C322 C 0.79118 0.3499 0.08629 0.0
N323 N 0.83567 0.35897 0.08947 0.0
N324 N 0.82806 0.37632 0.08396 0.0
C325 C 0.77826 0.37876 0.07687 0.0
C326 C 0.7532 0.36218 0.07856 0.0
C327 C 0.78672 0.3297 0.08745 0.0
H328 H 0.80842 0.32374 0.0689 0.0
H329 H 0.80441 0.32464 0.10795 0.0
H330 H 0.74595 0.32528 0.0863 0.0
O331 O 0.94401 0.35579 0.05988 0.0
O332 O 0.9324 0.38498 0.05032 0.0
H333 H 0.78573 0.40196 0.04878 0.0
H334 H 0.72102 0.39332 0.05143 0.0
C335 C 0.75709 0.39583 0.06374 0.0
H336 H 0.74849 0.40562 0.08142 0.0
H337 H 0.90065 0.41946 0.03347 0.0
O338 O 0.91074 0.3241 0.10047 0.0
C339 C 0.95226 0.36968 0.04416 0.0
Co340 Co 0.08892 0.35648 0.37985 0.0
Co341 Co 0.09318 0.39821 0.39459 0.0
C342 C 0.08745 0.38426 0.33311 0.0
O343 O 0.08912 0.3677 0.34093 0.0
O344 O 0.08736 0.39714 0.3516 0.0
C345 C 0.07866 0.32092 0.35354 0.0
O346 O 0.0821 0.32947 0.32845 0.0
C347 C 0.14061 0.43434 0.394 0.0
C348 C 0.09892 0.4481 0.42974 0.0
C349 C 0.1375 0.45068 0.4092 0.0
N350 N 0.10581 0.4228 0.40526 0.0
N351 N 0.08066 0.43117 0.4264 0.0
C352 C 0.17836 0.42899 0.37086 0.0
H353 H 0.18116 0.41399 0.36934 0.0
H354 H 0.21686 0.43479 0.3756 0.0
H355 H 0.165 0.43423 0.34945 0.0
C356 C 0.18247 0.3565 0.4164 0.0
N357 N 0.14442 0.36517 0.4022 0.0
N358 N 0.14578 0.38258 0.4088 0.0
C359 C 0.18428 0.38546 0.42787 0.0
C360 C 0.20867 0.36908 0.43323 0.0
C361 C 0.18986 0.33639 0.41598 0.0
H362 H 0.15674 0.32984 0.42704 0.0
H363 H 0.19044 0.33154 0.39303 0.0
H364 H 0.22597 0.33237 0.42718 0.0
O365 O 0.02452 0.36207 0.40047 0.0
O366 O 0.02735 0.39115 0.41251 0.0
H367 H 0.16031 0.40918 0.45125 0.0
H368 H 0.22568 0.40228 0.45904 0.0
C369 C 0.19596 0.40339 0.44177 0.0
H370 H 0.21046 0.41283 0.42489 0.0
H371 H 0.05165 0.42521 0.43888 0.0
O372 O 0.08572 0.32962 0.37719 0.0
C373 C 0.00476 0.37586 0.41277 0.0
Co374 Co 0.4229 0.65731 0.39843 0.0
Co375 Co 0.40456 0.61579 0.41072 0.0
C376 C 0.45927 0.62837 0.35753 0.0
O377 O 0.45612 0.6449 0.36531 0.0
O378 O 0.44011 0.61563 0.37276 0.0
C379 C 0.43241 0.69184 0.368 0.0
O380 O 0.42365 0.68265 0.34392 0.0
C381 C 0.35708 0.57979 0.40249 0.0
C382 C 0.37775 0.5662 0.44389 0.0
C383 C 0.35215 0.56361 0.41771 0.0
N384 N 0.38405 0.59147 0.41909 0.0
N385 N 0.39643 0.58322 0.44374 0.0
C386 C 0.33962 0.58372 0.37198 0.0
H387 H 0.3516 0.59753 0.36515 0.0
H388 H 0.29718 0.5827 0.3705 0.0
H389 H 0.35612 0.57348 0.35687 0.0
C390 C 0.30988 0.65809 0.40548 0.0
N391 N 0.35471 0.64909 0.40317 0.0
N392 N 0.34702 0.63178 0.409 0.0
C393 C 0.29692 0.62929 0.41524 0.0
C394 C 0.2717 0.64579 0.41274 0.0
C395 C 0.30505 0.67827 0.40371 0.0
H396 H 0.32121 0.68304 0.38264 0.0
H397 H 0.26434 0.68268 0.40557 0.0
H398 H 0.328 0.68453 0.42149 0.0
O399 O 0.46081 0.6528 0.43447 0.0
O400 O 0.45237 0.62326 0.44238 0.0
H401 H 0.30297 0.60603 0.44332 0.0
H402 H 0.23848 0.61473 0.43975 0.0
C403 C 0.27509 0.6122 0.42795 0.0
H404 H 0.26719 0.60247 0.41009 0.0
H405 H 0.41763 0.58922 0.46051 0.0
O406 O 0.42973 0.68384 0.39255 0.0
C407 C 0.47006 0.63873 0.44952 0.0
Co408 Co 0.40356 0.34972 0.89628 0.0
Co409 Co 0.39434 0.39206 0.90521 0.0
C410 C 0.4437 0.37596 0.85244 0.0
O411 O 0.4347 0.35985 0.8609 0.0
O412 O 0.43088 0.38973 0.86752 0.0
C413 C 0.40702 0.31374 0.87004 0.0
O414 O 0.39524 0.32172 0.84528 0.0
C415 C 0.35153 0.42859 0.89395 0.0
C416 C 0.37984 0.44369 0.93243 0.0
C417 C 0.3513 0.44557 0.90709 0.0
N418 N 0.37874 0.41717 0.91092 0.0
N419 N 0.39572 0.42634 0.93379 0.0
C420 C 0.32936 0.42359 0.8649 0.0
H421 H 0.33764 0.40918 0.85965 0.0
H422 H 0.28718 0.42578 0.8649 0.0
H423 H 0.34596 0.4325 0.84779 0.0
C424 C 0.2919 0.35176 0.90654 0.0
N425 N 0.33768 0.35967 0.9017 0.0
N426 N 0.33371 0.3773 0.90611 0.0
C427 C 0.28513 0.38106 0.91435 0.0
C428 C 0.25699 0.36508 0.91443 0.0
C429 C 0.28397 0.33169 0.90761 0.0
H430 H 0.30691 0.32594 0.92584 0.0
H431 H 0.2982 0.32552 0.88704 0.0
H432 H 0.24278 0.32821 0.91075 0.0
O433 O 0.44556 0.35509 0.93076 0.0
O434 O 0.44116 0.38488 0.9372 0.0
H435 H 0.29819 0.40483 0.94046 0.0
H436 H 0.23165 0.39777 0.93895 0.0
C437 C 0.26786 0.39899 0.92628 0.0
H438 H 0.26071 0.40842 0.90791 0.0
H439 H 0.41812 0.42073 0.95041 0.0
O440 O 0.40721 0.3229 0.89356 0.0
C441 C 0.45744 0.36932 0.94485 0.0
Co442 Co 0.0748 0.65418 0.88737 0.0
Co443 Co 0.09243 0.61235 0.8981 0.0
C444 C 0.05478 0.62628 0.84116 0.0
O445 O 0.05412 0.64256 0.85045 0.0
O446 O 0.06964 0.61314 0.85708 0.0
C447 C 0.07566 0.69099 0.86182 0.0
O448 O 0.09863 0.68423 0.83869 0.0
C449 C 0.14255 0.57639 0.89274 0.0
C450 C 0.11608 0.56324 0.93339 0.0
C451 C 0.14649 0.56039 0.90891 0.0
N452 N 0.11178 0.58798 0.9073 0.0
N453 N 0.09573 0.57994 0.9314 0.0
C454 C 0.16985 0.58131 0.86508 0.0
H455 H 0.16988 0.59625 0.86199 0.0
H456 H 0.21 0.57619 0.86546 0.0
H457 H 0.14947 0.57508 0.8463 0.0
C458 C 0.18273 0.65558 0.90741 0.0
N459 N 0.14076 0.64631 0.8989 0.0
N460 N 0.14802 0.62886 0.90379 0.0
C461 C 0.19509 0.62653 0.91544 0.0
C462 C 0.21871 0.6433 0.91776 0.0
C463 C 0.18584 0.67582 0.90843 0.0
H464 H 0.1547 0.68112 0.92266 0.0
H465 H 0.17953 0.68133 0.88618 0.0
H466 H 0.2237 0.68048 0.91676 0.0
O467 O 0.02664 0.64815 0.91838 0.0
O468 O 0.03483 0.61849 0.92499 0.0
H469 H 0.18328 0.60259 0.94122 0.0
H470 H 0.2483 0.61109 0.94234 0.0
C471 C 0.21416 0.60905 0.92818 0.0
H472 H 0.22514 0.59975 0.91023 0.0
H473 H 0.07155 0.58599 0.94678 0.0
O474 O 0.06664 0.68086 0.88369 0.0
C475 C 0.01399 0.63361 0.93129 0.0
Co476 Co 0.924 0.65634 0.59144 0.0
Co477 Co 0.90089 0.61508 0.5787 0.0
C478 C 0.95587 0.6265 0.63226 0.0
O479 O 0.95486 0.64308 0.62448 0.0
O480 O 0.93537 0.61405 0.61695 0.0
C481 C 0.92863 0.69206 0.62079 0.0
O482 O 0.90739 0.68463 0.64391 0.0
C483 C 0.85226 0.57894 0.58509 0.0
C484 C 0.86395 0.56774 0.54083 0.0
C485 C 0.84249 0.56371 0.5678 0.0
N486 N 0.87775 0.59122 0.56883 0.0
N487 N 0.88499 0.58435 0.54252 0.0
C488 C 0.83513 0.58253 0.61576 0.0
H489 H 0.83633 0.59729 0.62054 0.0
H490 H 0.79557 0.5773 0.61927 0.0
H491 H 0.86155 0.57555 0.63112 0.0
C492 C 0.81114 0.65882 0.58373 0.0
N493 N 0.85494 0.6492 0.58613 0.0
N494 N 0.84531 0.63199 0.58047 0.0
C495 C 0.79488 0.63015 0.57451 0.0
C496 C 0.77155 0.647 0.5768 0.0
C497 C 0.80848 0.67905 0.58536 0.0
H498 H 0.81816 0.68343 0.60788 0.0
H499 H 0.7696 0.68417 0.57965 0.0
H500 H 0.83751 0.68502 0.57042 0.0
O501 O 0.96171 0.65149 0.55553 0.0
O502 O 0.95052 0.62207 0.54759 0.0
H503 H 0.73269 0.61583 0.55266 0.0
H504 H 0.76574 0.60332 0.58058 0.0
C505 C 0.77088 0.6132 0.5626 0.0
H506 H 0.79633 0.60712 0.54584 0.0
H507 H 0.90363 0.59112 0.52554 0.0
O508 O 0.93494 0.68272 0.59773 0.0
C509 C 0.96982 0.63731 0.54054 0.0
Co510 Co 0.58876 0.35319 0.60241 0.0
Co511 Co 0.5943 0.39542 0.5916 0.0
C512 C 0.58523 0.37894 0.65163 0.0
O513 O 0.58769 0.36268 0.64244 0.0
O514 O 0.58588 0.39243 0.63429 0.0
C515 C 0.58641 0.31583 0.62401 0.0
O516 O 0.60336 0.32213 0.64906 0.0
C517 C 0.64433 0.43137 0.59555 0.0
C518 C 0.59628 0.44751 0.5654 0.0
C519 C 0.63811 0.44865 0.58404 0.0
N520 N 0.60803 0.42049 0.58402 0.0
N521 N 0.57941 0.43026 0.56608 0.0
C522 C 0.68198 0.42553 0.61843 0.0
H523 H 0.72106 0.42469 0.60885 0.0
H524 H 0.68319 0.4357 0.6363 0.0
H525 H 0.6716 0.41201 0.62727 0.0
C526 C 0.68309 0.35424 0.56661 0.0
N527 N 0.64525 0.36253 0.58156 0.0
N528 N 0.64689 0.38012 0.57641 0.0
C529 C 0.68518 0.3835 0.55741 0.0
C530 C 0.70936 0.36727 0.55074 0.0
C531 C 0.68984 0.33412 0.56513 0.0
H532 H 0.65732 0.32817 0.55269 0.0
H533 H 0.68872 0.32838 0.58753 0.0
H534 H 0.72655 0.33039 0.55431 0.0
O535 O 0.52542 0.36 0.58183 0.0
O536 O 0.52906 0.38938 0.572 0.0
H537 H 0.65971 0.40798 0.53664 0.0
H538 H 0.72378 0.40097 0.52602 0.0
C539 C 0.69607 0.40174 0.54438 0.0
H540 H 0.71282 0.41064 0.56134 0.0
H541 H 0.54815 0.42517 0.55437 0.0
O542 O 0.5831 0.32636 0.60212 0.0
C543 C 0.50624 0.37416 0.5704 0.0
C544 C 0.43833 0.12381 0.95377 0.0
C545 C 0.46099 0.1384 0.939 0.0
C546 C 0.39716 0.12662 0.97302 0.0
C547 C 0.37844 0.14444 0.9776 0.0
C548 C 0.40063 0.15919 0.96251 0.0
C549 C 0.44157 0.156 0.94332 0.0
C550 C 0.37402 0.11054 0.98869 0.0
C551 C 0.38161 0.17837 0.96692 0.0
C552 C 0.2439 0.14662 0.0085 0.0
C553 C 0.25418 0.14824 0.03834 0.0
C554 C 0.28409 0.14627 0.98819 0.0
C555 C 0.33545 0.14752 -0.00178 0.0
C556 C 0.34567 0.15025 0.02831 0.0
C557 C 0.30459 0.15054 0.04814 0.0
C558 C 0.27174 0.14343 0.95628 0.0
C559 C 0.39998 0.15176 0.03971 0.0
H560 H 0.4531 0.1102 0.95057 0.0
H561 H 0.45886 0.1674 0.93205 0.0
H562 H 0.37802 0.11231 0.01265 0.0
H563 H 0.33228 0.10962 0.98383 0.0
H564 H 0.39255 0.09753 0.98236 0.0
H565 H 0.40257 0.18831 0.9531 0.0
H566 H 0.33999 0.17922 0.96176 0.0
H567 H 0.38625 0.18234 0.99015 0.0
H568 H 0.20454 0.1447 0.00126 0.0
H569 H 0.312 0.15162 0.07139 0.0
H570 H 0.28493 0.12976 0.94943 0.0
H571 H 0.29241 0.15349 0.94261 0.0
H572 H 0.22986 0.14454 0.95179 0.0
H573 H 0.41983 0.13852 0.03719 0.0
H574 H 0.40106 0.15568 0.06314 0.0
H575 H 0.42199 0.1619 0.02691 0.0
C576 C 0.04284 0.88466 0.97025 0.0
C577 C 0.00856 0.87054 0.9642 0.0
C578 C 0.08198 0.88239 0.991 0.0
C579 C 0.08572 0.86579 0.00647 0.0
C580 C 0.04915 0.85193 0.00169 0.0
C581 C 0.01137 0.85437 0.98027 0.0
C582 C 0.12088 0.89738 -0.00474 0.0
C583 C 0.05102 0.8343 0.01844 0.0
C584 C 0.2202 0.85392 0.03114 0.0
C585 C 0.22029 0.86098 0.05945 0.0
C586 C 0.17572 0.8547 0.01398 0.0
C587 C 0.13039 0.86246 0.02579 0.0
C588 C 0.12949 0.86838 0.0552 0.0
C589 C 0.17495 0.86782 0.07162 0.0
C590 C 0.17835 0.84846 0.98258 0.0
C591 C 0.08148 0.87626 0.06874 0.0
H592 H 0.04064 0.89713 0.95775 0.0
H593 H 0.98429 0.84353 0.97583 0.0
H594 H 0.12321 0.9012 0.01865 0.0
H595 H 0.15958 0.89253 0.9886 0.0
H596 H 0.11137 0.90968 0.98233 0.0
H597 H 0.01623 0.82587 0.01467 0.0
H598 H 0.08529 0.82638 0.01165 0.0
H599 H 0.05472 0.83697 0.0422 0.0
H600 H 0.25587 0.84895 0.02179 0.0
H601 H 0.17572 0.87346 0.0935 0.0
H602 H 0.17342 0.86029 0.96785 0.0
H603 H 0.14672 0.83882 0.9778 0.0
H604 H 0.21556 0.84179 0.97736 0.0
H605 H 0.07418 0.88993 0.0595 0.0
H606 H 0.08494 0.87755 0.09284 0.0
H607 H 0.04755 0.86771 0.06361 0.0
C608 C 0.82525 0.86786 0.41536 0.0
C609 C 0.77875 0.86243 0.42794 0.0
C610 C 0.87034 0.86849 0.43213 0.0
C611 C 0.86799 0.86399 0.46216 0.0
C612 C 0.82139 0.85762 0.47447 0.0
C613 C 0.77723 0.85682 0.45706 0.0
C614 C 0.91964 0.87494 0.41816 0.0
C615 C 0.81728 0.85283 0.50647 0.0
C616 C 0.98484 0.85544 0.50924 0.0
C617 C 0.98964 0.87207 0.52391 0.0
C618 C 0.94714 0.85291 0.4878 0.0
C619 C 0.91282 0.86723 0.48141 0.0
C620 C 0.9187 0.88428 0.49535 0.0
C621 C 0.95755 0.88656 0.51628 0.0
C622 C 0.94281 0.83472 0.47282 0.0
C623 C 0.88231 0.8998 0.48926 0.0
H624 H 0.82574 0.8724 0.39284 0.0
H625 H 0.74072 0.85292 0.46667 0.0
H626 H 0.92885 0.88878 0.42612 0.0
H627 H 0.95216 0.86598 0.42433 0.0
H628 H 0.91674 0.87537 0.39396 0.0
H629 H 0.77901 0.84712 0.51215 0.0
H630 H 0.84729 0.84282 0.51253 0.0
H631 H 0.82379 0.86516 0.51988 0.0
H632 H 0.01021 0.84429 0.5148 0.0
H633 H 0.96127 0.89941 0.52761 0.0
H634 H 0.94005 0.83652 0.44881 0.0
H635 H 0.90717 0.82778 0.48008 0.0
H636 H 0.9761 0.82577 0.47773 0.0
H637 H 0.88068 0.90262 0.46549 0.0
H638 H 0.89375 0.91243 0.50081 0.0
H639 H 0.84288 0.89604 0.49632 0.0
C640 C 0.69869 0.16417 0.45196 0.0
C641 C 0.69653 0.15884 0.42271 0.0
C642 C 0.65476 0.16341 0.46954 0.0
C643 C 0.60778 0.15739 0.45727 0.0
C644 C 0.60462 0.15352 0.42703 0.0
C645 C 0.6495 0.15407 0.41007 0.0
C646 C 0.65979 0.1675 0.50175 0.0
C647 C 0.55487 0.14751 0.41308 0.0
C648 C 0.52252 0.13204 0.51029 0.0
C649 C 0.48966 0.14587 0.51979 0.0
C650 C 0.56023 0.1355 0.48914 0.0
C651 C 0.56415 0.15309 0.47685 0.0
C652 C 0.52915 0.16681 0.48518 0.0
C653 C 0.49264 0.16309 0.50685 0.0
C654 C 0.59742 0.12057 0.48099 0.0
C655 C 0.5314 0.18555 0.47195 0.0
H656 H 0.73557 0.16757 0.46159 0.0
H657 H 0.64847 0.14977 0.38743 0.0
H658 H 0.6291 0.17695 0.50892 0.0
H659 H 0.6552 0.15477 0.51442 0.0
H660 H 0.69773 0.17354 0.50724 0.0
H661 H 0.55671 0.14822 0.38886 0.0
H662 H 0.54664 0.13328 0.41942 0.0
H663 H 0.52229 0.15597 0.4208 0.0
H664 H 0.52021 0.11873 0.52027 0.0
H665 H 0.46667 0.17375 0.51387 0.0
H666 H 0.63704 0.12454 0.48738 0.0
H667 H 0.59743 0.11847 0.457 0.0
H668 H 0.58793 0.10749 0.49177 0.0
H669 H 0.56673 0.19259 0.47944 0.0
H670 H 0.49759 0.19394 0.47813 0.0
H671 H 0.53335 0.18467 0.44778 0.0
C672 C 0.67408 0.86659 0.91562 0.0
C673 C 0.71956 0.85992 0.92786 0.0
C674 C 0.62863 0.86711 0.93206 0.0
C675 C 0.62971 0.86133 0.96153 0.0
C676 C 0.67511 0.85364 0.97335 0.0
C677 C 0.71958 0.8529 0.95618 0.0
C678 C 0.58054 0.8749 0.9185 0.0
C679 C 0.67791 0.84753 0.0048 0.0
C680 C 0.54328 0.88407 0.01706 0.0
C681 C 0.50889 0.87005 0.02352 0.0
C682 C 0.58205 0.88158 -0.00384 0.0
C683 C 0.5853 0.86487 0.98094 0.0
C684 C 0.5486 0.85111 0.98612 0.0
C685 C 0.51119 0.85377 0.00769 0.0
C686 C 0.62109 0.89647 0.99145 0.0
C687 C 0.54997 0.83337 0.96965 0.0
H688 H 0.67476 0.8722 0.89373 0.0
H689 H 0.75535 0.84806 0.96558 0.0
H690 H 0.54655 0.86647 0.92401 0.0
H691 H 0.57354 0.88869 0.92737 0.0
H692 H 0.58373 0.87591 0.89436 0.0
H693 H 0.71502 0.84078 0.00997 0.0
H694 H 0.67341 0.85944 0.01942 0.0
H695 H 0.64612 0.838 0.0098 0.0
H696 H 0.54145 0.89662 0.02936 0.0
H697 H 0.48401 0.84301 0.01242 0.0
H698 H 0.62307 0.90014 0.96798 0.0
H699 H 0.65983 0.8916 -0.00204 0.0
H700 H 0.61197 0.90888 0.00423 0.0
H701 H 0.55351 0.83587 0.94584 0.0
H702 H 0.51503 0.82505 0.97366 0.0
H703 H 0.58413 0.82541 0.97647 0.0
C704 C 0.80258 0.14609 0.94463 0.0
C705 C 0.75281 0.14191 0.95391 0.0
C706 C 0.8435 0.14614 0.96456 0.0
C707 C 0.83385 0.14189 -0.00576 0.0
C708 C 0.78301 0.13852 0.00383 0.0
C709 C 0.74293 0.13862 0.98345 0.0
C710 C 0.89724 0.14995 0.95367 0.0
C711 C 0.77129 0.13402 0.03532 0.0
C712 C 0.94342 0.12121 0.03735 0.0
C713 C 0.96129 0.1362 0.05322 0.0
C714 C 0.90161 0.12287 0.01823 0.0
C715 C 0.87725 0.13993 0.01492 0.0
C716 C 0.89443 0.15503 0.03122 0.0
C717 C 0.93622 0.15298 0.05023 0.0
C718 C 0.88396 0.10644 0.00124 0.0
C719 C 0.86924 0.17341 0.02822 0.0
H720 H 0.80968 0.14865 0.92166 0.0
H721 H 0.70401 0.1355 0.99036 0.0
H722 H 0.91557 0.16066 0.96713 0.0
H723 H 0.92114 0.13754 0.95579 0.0
H724 H 0.89761 0.15432 0.93045 0.0
H725 H 0.72929 0.133 0.03952 0.0
H726 H 0.78948 0.12089 0.04115 0.0
H727 H 0.78772 0.14449 0.05 0.0
H728 H 0.96256 0.10821 0.03952 0.0
H729 H 0.94974 0.16466 0.06239 0.0
H730 H 0.88776 0.10904 0.97747 0.0
H731 H 0.84271 0.10375 0.0057 0.0
H732 H 0.90642 0.09409 0.00676 0.0
H733 H 0.87287 0.17827 0.00538 0.0
H734 H 0.88655 0.18369 0.04299 0.0
H735 H 0.82754 0.17238 0.03311 0.0
C736 C -0.00183 0.16271 0.4751 0.0
C737 C 0.97938 0.14575 0.46618 0.0
C738 C 0.03775 0.16402 0.49572 0.0
C739 C 0.05923 0.14798 0.50742 0.0
C740 C 0.03807 0.13089 0.50005 0.0
C741 C -0.00187 0.12998 0.47955 0.0
C742 C 0.05887 0.1825 0.50341 0.0
C743 C 0.06009 0.11349 0.51215 0.0
C744 C 0.20152 0.14741 0.52354 0.0
C745 C 0.20182 0.14757 0.55403 0.0
C746 C 0.15518 0.14798 0.50814 0.0
C747 C 0.10824 0.14885 0.52379 0.0
C748 C 0.10857 0.14979 0.55469 0.0
C749 C 0.15575 0.14907 0.56956 0.0
C750 C 0.15643 0.147 0.47518 0.0
C751 C 0.05923 0.15092 0.57196 0.0
H752 H 0.9832 0.17499 0.46523 0.0
H753 H 0.98349 0.11684 0.47293 0.0
H754 H 0.06482 0.18371 0.52732 0.0
H755 H 0.09686 0.18435 0.49276 0.0
H756 H 0.03303 0.19361 0.4961 0.0
H757 H 0.03559 0.10156 0.50699 0.0
H758 H 0.09888 0.11116 0.50273 0.0
H759 H 0.0646 0.11443 0.53619 0.0
H760 H 0.23765 0.14624 0.51182 0.0
H761 H 0.15662 0.14915 0.59324 0.0
H762 H 0.13557 0.15872 0.46566 0.0
H763 H 0.13665 0.13449 0.4677 0.0
H764 H 0.1963 0.14692 0.46643 0.0
H765 H 0.03445 0.16195 0.56338 0.0
H766 H 0.06637 0.15336 0.59556 0.0
H767 H 0.0375 0.13806 0.5696 0.0
C768 C 0.32419 0.87096 0.57144 0.0
C769 C 0.27914 0.86383 0.55936 0.0
C770 C 0.36975 0.87149 0.55509 0.0
C771 C 0.36921 0.86526 0.52585 0.0
C772 C 0.32415 0.85727 0.51413 0.0
C773 C 0.27958 0.85652 0.53123 0.0
C774 C 0.41749 0.87961 0.56854 0.0
C775 C 0.32189 0.8507 0.4829 0.0
C776 C 0.4569 0.88691 0.46985 0.0
C777 C 0.49131 0.87274 0.46426 0.0
C778 C 0.4177 0.88485 0.49062 0.0
C779 C 0.41405 0.86843 0.50658 0.0
C780 C 0.45079 0.85455 0.50229 0.0
C781 C 0.48862 0.85677 0.48083 0.0
C782 C 0.3786 0.89984 0.49434 0.0
C783 C 0.449 0.83711 0.51956 0.0
H784 H 0.32315 0.87678 0.59319 0.0
H785 H 0.24413 0.85132 0.52195 0.0
H786 H 0.45159 0.87104 0.56382 0.0
H787 H 0.42472 0.89317 0.55887 0.0
H788 H 0.41374 0.88121 0.59258 0.0
H789 H 0.28478 0.84396 0.47772 0.0
H790 H 0.32696 0.86238 0.46786 0.0
H791 H 0.35361 0.84102 0.47851 0.0
H792 H 0.45899 0.89922 0.45696 0.0
H793 H 0.51579 0.8459 0.47673 0.0
H794 H 0.37592 0.90389 0.51762 0.0
H795 H 0.34004 0.89488 0.48765 0.0
H796 H 0.38815 0.91202 0.48113 0.0
H797 H 0.44495 0.84005 0.54323 0.0
H798 H 0.48399 0.82871 0.51619 0.0
H799 H 0.41496 0.82905 0.51288 0.0
C800 C 0.76349 0.64984 0.02425 0.0
C801 C 0.7655 0.64257 0.05238 0.0
C802 C 0.80639 0.6489 0.00583 0.0
C803 C 0.85227 0.64078 0.01622 0.0
C804 C 0.85512 0.63433 0.04529 0.0
C805 C 0.81119 0.63506 0.06297 0.0
C806 C 0.80173 0.65568 0.97481 0.0
C807 C 0.90382 0.62602 0.0573 0.0
C808 C 0.9406 0.62038 0.95915 0.0
C809 C 0.97491 0.63469 0.95442 0.0
C810 C 0.9007 0.62208 0.97959 0.0
C811 C 0.89628 0.63827 -0.00389 0.0
C812 C 0.93238 0.6524 0.99233 0.0
C813 C 0.9709 0.65053 0.97121 0.0
C814 C 0.86222 0.60687 0.98274 0.0
C815 C 0.9297 0.66962 0.01018 0.0
H816 H 0.72749 0.65533 0.01616 0.0
H817 H 0.81198 0.62927 0.08474 0.0
H818 H 0.83254 0.66565 0.97004 0.0
H819 H 0.80668 0.64419 0.9594 0.0
H820 H 0.7639 0.66217 0.97053 0.0
H821 H 0.90128 0.62351 0.08118 0.0
H822 H 0.91152 0.61293 0.04618 0.0
H823 H 0.93717 0.63503 0.05298 0.0
H824 H 0.94375 0.60816 0.94608 0.0
H825 H -0.002 0.66151 0.96781 0.0
H826 H 0.82327 0.61183 0.97682 0.0
H827 H 0.86049 0.60226 0.00578 0.0
H828 H 0.87173 0.59505 0.96868 0.0
H829 H 0.89415 0.6772 0.00467 0.0
H830 H 0.96328 0.67862 0.00627 0.0
H831 H 0.92791 0.66632 0.0338 0.0
C832 C 0.70238 0.35053 0.03719 0.0
C833 C 0.70335 0.35816 0.0651 0.0
C834 C 0.65734 0.35091 0.02049 0.0
C835 C 0.61233 0.35883 0.03241 0.0
C836 C 0.61219 0.36513 0.06161 0.0
C837 C 0.65823 0.365 0.07754 0.0
C838 C 0.65924 0.34427 0.98928 0.0
C839 C 0.5645 0.37313 0.07532 0.0
C840 C 0.52743 0.38151 0.97624 0.0
C841 C 0.49265 0.3676 0.96982 0.0
C842 C 0.56563 0.37905 -0.00255 0.0
C843 C 0.56792 0.36246 0.01305 0.0
C844 C 0.53066 0.34886 0.00801 0.0
C845 C 0.49385 0.35149 0.98607 0.0
C846 C 0.60529 0.39377 0.00194 0.0
C847 C 0.53093 0.33129 0.02493 0.0
H848 H 0.73784 0.34552 0.02763 0.0
H849 H 0.65962 0.37103 0.09914 0.0
H850 H 0.62701 0.33482 0.98487 0.0
H851 H 0.65492 0.35597 0.97422 0.0
H852 H 0.69599 0.33726 0.98415 0.0
H853 H 0.5681 0.37419 0.09944 0.0
H854 H 0.55787 0.38693 0.06643 0.0
H855 H 0.53017 0.36482 0.07001 0.0
H856 H 0.5265 0.39395 0.96362 0.0
H857 H 0.46638 0.34081 0.98135 0.0
H858 H 0.64388 0.38861 -0.00433 0.0
H859 H 0.60719 0.39765 0.02532 0.0
H860 H 0.59688 0.4061 0.98884 0.0
H861 H 0.5641 0.32287 0.01796 0.0
H862 H 0.49513 0.32334 0.02145 0.0
H863 H 0.53544 0.33397 0.04865 0.0
C864 C 0.23905 0.369 0.48443 0.0
C865 C 0.24911 0.36576 0.45488 0.0
C866 C 0.27897 0.36892 0.50492 0.0
C867 C 0.32983 0.3655 0.4954 0.0
C868 C 0.33957 0.36116 0.46575 0.0
C869 C 0.29879 0.36134 0.44573 0.0
C870 C 0.26713 0.37347 0.53637 0.0
C871 C 0.39334 0.35734 0.45491 0.0
C872 C 0.43932 0.38715 0.53724 0.0
C873 C 0.45858 0.37237 0.55306 0.0
C874 C 0.39691 0.38512 0.51866 0.0
C875 C 0.37328 0.3679 0.51592 0.0
C876 C 0.39159 0.35303 0.53238 0.0
C877 C 0.43404 0.35545 0.55079 0.0
C878 C 0.3781 0.4013 0.50145 0.0
C879 C 0.3671 0.33451 0.53005 0.0
H880 H 0.20023 0.37237 0.49123 0.0
H881 H 0.30605 0.35888 0.42274 0.0
H882 H 0.28473 0.36331 0.55119 0.0
H883 H 0.28401 0.38686 0.54189 0.0
H884 H 0.22509 0.37401 0.54067 0.0
H885 H 0.39367 0.35262 0.43186 0.0
H886 H 0.41689 0.36985 0.4565 0.0
H887 H 0.41207 0.34689 0.46872 0.0
H888 H 0.45806 0.40025 0.53886 0.0
H889 H 0.44856 0.34393 0.56299 0.0
H890 H 0.33674 0.40373 0.50599 0.0
H891 H 0.38183 0.39855 0.47771 0.0
H892 H 0.39988 0.41385 0.50667 0.0
H893 H 0.32535 0.33541 0.53487 0.0
H894 H 0.38479 0.32453 0.54522 0.0
H895 H 0.37101 0.32933 0.50741 0.0
C896 C 0.21687 0.65701 0.45271 0.0
C897 C 0.22057 0.64964 0.42469 0.0
C898 C 0.17057 0.65613 0.46821 0.0
C899 C 0.12707 0.64798 0.45496 0.0
C900 C 0.12967 0.64196 0.42564 0.0
C901 C 0.17693 0.64258 0.41093 0.0
C902 C 0.16954 0.66249 0.49957 0.0
C903 C 0.08366 0.63374 0.41052 0.0
C904 C 0.03945 0.62481 0.50921 0.0
C905 C 0.00447 0.63871 0.51531 0.0
C906 C 0.07845 0.62735 0.48848 0.0
C907 C 0.08122 0.64399 0.47303 0.0
C908 C 0.04334 0.65747 0.47745 0.0
C909 C 0.00581 0.65478 0.49896 0.0
C910 C 0.11869 0.61276 0.48461 0.0
C911 C 0.04401 0.67507 0.46061 0.0
H912 H 0.25122 0.66215 0.4633 0.0
H913 H 0.18046 0.63672 0.3893 0.0
H914 H 0.13675 0.67184 0.50323 0.0
H915 H 0.1641 0.65066 0.51424 0.0
H916 H 0.20562 0.66954 0.50592 0.0
H917 H 0.08915 0.63306 0.38647 0.0
H918 H 0.07741 0.61976 0.41874 0.0
H919 H 0.04834 0.64167 0.41525 0.0
H920 H 0.03834 0.61242 0.52196 0.0
H921 H 0.97815 0.66544 0.50347 0.0
H922 H 0.15658 0.61791 0.49211 0.0
H923 H 0.12269 0.60916 0.4612 0.0
H924 H 0.10939 0.60027 0.4971 0.0
H925 H 0.07591 0.68373 0.46862 0.0
H926 H 0.00742 0.68271 0.46308 0.0
H927 H 0.05085 0.67249 0.43704 0.0
C928 C 0.20865 0.36102 0.96019 0.0
C929 C 0.20819 0.36236 0.92978 0.0
C930 C 0.16268 0.36121 0.97601 0.0
C931 C 0.11536 0.36259 0.96084 0.0
C932 C 0.11475 0.36308 0.92991 0.0
C933 C 0.16158 0.36313 0.91465 0.0
C934 C 0.16494 0.36076 0.00898 0.0
C935 C 0.06494 0.36425 0.91309 0.0
C936 C 0.00244 0.35086 0.00898 0.0
C937 C 0.9882 0.36806 0.01935 0.0
C938 C 0.04147 0.34891 0.98814 0.0
C939 C 0.06717 0.36453 0.97777 0.0
C940 C 0.05081 0.38198 0.98676 0.0
C941 C 0.01118 0.38355 0.00736 0.0
C942 C 0.05728 0.33011 0.97862 0.0
C943 C 0.07754 0.39895 0.97621 0.0
H944 H 0.2452 0.36059 0.97161 0.0
H945 H 0.16189 0.36428 0.89104 0.0
H946 H 0.14893 0.37356 0.01797 0.0
H947 H 0.14111 0.34946 0.01749 0.0
H948 H 0.20483 0.35909 0.01727 0.0
H949 H 0.07086 0.3624 0.88924 0.0
H950 H 0.03741 0.35383 0.92094 0.0
H951 H 0.04694 0.3777 0.91678 0.0
H952 H 0.98418 0.33883 0.01782 0.0
H953 H 0.00012 0.39688 0.01516 0.0
H954 H 0.09482 0.3266 0.98868 0.0
H955 H 0.06233 0.32955 0.95457 0.0
H956 H 0.02869 0.31968 0.98519 0.0
H957 H 0.11709 0.39943 0.98532 0.0
H958 H 0.05689 0.41148 0.98291 0.0
H959 H 0.08105 0.39884 0.95207 0.0
C960 C 0.31292 0.64229 0.92502 0.0
C961 C 0.26431 0.64706 0.93551 0.0
C962 C 0.35545 0.64199 0.94381 0.0
C963 C 0.34833 0.64608 0.97375 0.0
C964 C 0.29948 0.65168 0.98406 0.0
C965 C 0.25793 0.65222 0.96465 0.0
C966 C 0.40726 0.63637 0.93196 0.0
C967 C 0.29034 0.65594 0.01591 0.0
C968 C 0.43751 0.62377 0.02847 0.0
C969 C 0.46894 0.63834 0.03652 0.0
C970 C 0.39812 0.6261 0.00788 0.0
C971 C 0.39094 0.64331 -0.00528 0.0
C972 C 0.42343 0.65794 0.00221 0.0
C973 C 0.46177 0.65532 0.02323 0.0
C974 C 0.36356 0.61026 0.00063 0.0
C975 C 0.41751 0.67636 0.98815 0.0
H976 H 0.31714 0.63808 0.90245 0.0
H977 H 0.21977 0.65556 0.97259 0.0
H978 H 0.43752 0.64595 0.93929 0.0
H979 H 0.41751 0.62276 0.94052 0.0
H980 H 0.40756 0.63578 0.90771 0.0
H981 H 0.25094 0.66122 0.01996 0.0
H982 H 0.29585 0.64347 0.02912 0.0
H983 H 0.31859 0.6661 0.02377 0.0
H984 H 0.44295 0.61065 0.03873 0.0
H985 H 0.48646 0.66659 0.02912 0.0
H986 H 0.36524 0.60731 0.97689 0.0
H987 H 0.32306 0.61372 0.00593 0.0
H988 H 0.37433 0.59778 0.01278 0.0
H989 H 0.41967 0.67507 0.96403 0.0
H990 H 0.44748 0.68608 -0.00452 0.0
H991 H 0.37918 0.68209 0.99346 0.0
C992 C 0.53882 0.62656 0.48181 0.0
C993 C 0.5045 0.64051 0.47482 0.0
C994 C 0.57761 0.62933 0.50258 0.0
C995 C 0.58096 0.64627 0.51712 0.0
C996 C 0.54372 0.65984 0.51183 0.0
C997 C 0.5063 0.6569 0.49035 0.0
C998 C 0.61711 0.61459 0.50744 0.0
C999 C 0.54501 0.67779 0.52769 0.0
C1000 C 0.67653 0.64525 0.57922 0.0
C1001 C 0.72073 0.65146 0.56499 0.0
C1002 C 0.62911 0.64491 0.56465 0.0
C1003 C 0.62688 0.65038 0.53505 0.0
C1004 C 0.67096 0.65783 0.52136 0.0
C1005 C 0.71747 0.6584 0.53669 0.0
C1006 C 0.58254 0.63744 0.58021 0.0
C1007 C 0.67028 0.66364 0.48972 0.0
H1008 H 0.53737 0.61391 0.46976 0.0
H1009 H 0.47915 0.6676 0.48519 0.0
H1010 H 0.65534 0.61935 0.49983 0.0
H1011 H 0.62061 0.61147 0.53104 0.0
H1012 H 0.60738 0.60189 0.4956 0.0
H1013 H 0.50865 0.68552 0.52482 0.0
H1014 H 0.55187 0.67571 0.55138 0.0
H1015 H 0.57714 0.68615 0.51915 0.0
H1016 H 0.67969 0.63971 0.60109 0.0
H1017 H 0.75221 0.66292 0.52576 0.0
H1018 H 0.57553 0.62331 0.57292 0.0
H1019 H 0.54771 0.6455 0.57489 0.0
H1020 H 0.58791 0.63734 0.60429 0.0
H1021 H 0.66443 0.65157 0.47559 0.0
H1022 H 0.70668 0.67038 0.48311 0.0
H1023 H 0.6379 0.67308 0.48559 0.0
C1024 C 0.9369 0.38795 0.44615 0.0
C1025 C 0.95682 0.37354 0.4297 0.0
C1026 C 0.89454 0.3854 0.46459 0.0
C1027 C 0.87157 0.36803 0.46653 0.0
C1028 C 0.89036 0.35356 0.44932 0.0
C1029 C 0.9328 0.35649 0.43107 0.0
C1030 C 0.87524 0.40117 0.48261 0.0
C1031 C 0.86654 0.3349 0.45076 0.0
C1032 C 0.79922 0.36003 0.53701 0.0
C1033 C 0.7492 0.36447 0.52853 0.0
C1034 C 0.83939 0.36026 0.51661 0.0
C1035 C 0.8287 0.36504 0.48724 0.0
C1036 C 0.77749 0.36845 0.47836 0.0
C1037 C 0.73818 0.36813 0.49923 0.0
C1038 C 0.89356 0.35644 0.52679 0.0
C1039 C 0.76463 0.37346 0.44722 0.0
H1040 H 0.95518 0.40115 0.44521 0.0
H1041 H 0.94784 0.34526 0.41837 0.0
H1042 H 0.83369 0.40343 0.47844 0.0
H1043 H 0.87958 0.39805 0.50619 0.0
H1044 H 0.89631 0.41394 0.47782 0.0
H1045 H 0.88418 0.32534 0.43489 0.0
H1046 H 0.87125 0.32925 0.47306 0.0
H1047 H 0.82464 0.33572 0.44636 0.0
H1048 H 0.80722 0.35722 0.55982 0.0
H1049 H 0.69909 0.3715 0.49295 0.0
H1050 H 0.9167 0.36907 0.52559 0.0
H1051 H 0.91221 0.34631 0.51234 0.0
H1052 H 0.89465 0.35133 0.54961 0.0
H1053 H 0.78066 0.38705 0.4422 0.0
H1054 H 0.72247 0.3738 0.44329 0.0
H1055 H 0.78239 0.36369 0.43179 0.0
C1056 C 0.19538 0.03915 0.11002 0.0
C1057 C 0.1779 0.04508 0.08263 0.0
C1058 C 0.22506 0.02328 0.11271 0.0
C1059 C 0.23652 0.01291 0.0875 0.0
C1060 C 0.21832 0.01868 0.05989 0.0
C1061 C 0.18944 0.03468 0.05781 0.0
C1062 C 0.24394 0.01755 0.14249 0.0
C1063 C 0.22929 0.00794 0.03247 0.0
C1064 C 0.34904 0.9804 0.08186 0.0
C1065 C 0.32444 0.96358 0.08441 0.0
C1066 C 0.32137 0.99664 0.08475 0.0
C1067 C 0.2676 0.996 0.0896 0.0
C1068 C 0.24292 0.97901 0.09322 0.0
C1069 C 0.27174 0.96297 0.09063 0.0
C1070 C 0.34924 0.01446 0.08112 0.0
C1071 C 0.18555 0.97772 0.09791 0.0
H1072 H 0.1851 0.04662 0.12949 0.0
H1073 H 0.17602 0.03909 0.03655 0.0
H1074 H 0.22763 1.00412 0.14823 0.0
H1075 H 0.28642 0.01608 0.14224 0.0
H1076 H 0.23322 0.02742 0.15979 0.0
H1077 H 0.21142 0.0141 0.01278 0.0
H1078 H 0.27141 0.00703 0.02888 0.0
H1079 H 0.21461 0.99389 0.03487 0.0
H1080 H 0.38982 0.98082 0.07692 0.0
H1081 H 0.25236 0.94998 0.09167 0.0
H1082 H 0.3388 0.02393 0.09902 0.0
H1083 H 0.33747 0.0209 0.06026 0.0
H1084 H 0.39169 0.01271 0.08092 0.0
H1085 H 0.17319 0.98701 0.11564 0.0
H1086 H 0.1732 0.96372 0.10349 0.0
H1087 H 0.16528 0.98198 0.07771 0.0
C1088 C 0.71139 0.96921 0.39071 0.0
C1089 C 0.66968 0.96699 0.40984 0.0
C1090 C 0.73577 0.98613 0.38766 0.0
C1091 C 0.71863 1.00105 0.40454 0.0
C1092 C 0.67561 0.99901 0.42319 0.0
C1093 C 0.65171 0.98204 0.42557 0.0
C1094 C 0.78134 0.98781 0.36741 0.0
C1095 C 0.65625 0.01453 0.44175 0.0
C1096 C 0.81188 0.03755 0.42878 0.0
C1097 C 0.79708 0.05234 0.41145 0.0
C1098 C 0.78803 0.0206 0.42588 0.0
C1099 C 0.74833 0.01832 0.40506 0.0
C1100 C 0.7344 0.03298 0.38672 0.0
C1101 C 0.75862 0.0499 0.39032 0.0
C1102 C 0.80386 0.00537 0.44605 0.0
C1103 C 0.69243 0.03103 0.36416 0.0
H1104 H 0.7267 0.95761 0.37915 0.0
H1105 H 0.61946 0.98044 0.44037 0.0
H1106 H 0.77745 1.00004 0.35346 0.0
H1107 H 0.81701 0.98942 0.38045 0.0
H1108 H 0.78573 0.97572 0.35312 0.0
H1109 H 0.62031 0.01105 0.45361 0.0
H1110 H 0.68603 0.01831 0.45801 0.0
H1111 H 0.64892 0.02664 0.428 0.0
H1112 H 0.8416 0.03933 0.44515 0.0
H1113 H 0.74565 0.06131 0.37745 0.0
H1114 H 0.81366 0.99307 0.43324 0.0
H1115 H 0.77126 1.00179 0.4606 0.0
H1116 H 0.83744 0.00904 0.45984 0.0
H1117 H 0.6986 0.01862 0.35089 0.0
H1118 H 0.69048 0.04293 0.34931 0.0
H1119 H 0.65472 0.02957 0.37526 0.0
C1120 C 0.71657 0.04416 0.8972 0.0
C1121 C 0.66278 0.04307 0.89765 0.0
C1122 C 0.74692 0.02839 0.89656 0.0
C1123 C 0.72277 0.01116 0.89621 0.0
C1124 C 0.66841 0.01005 0.89526 0.0
C1125 C 0.63907 0.02603 0.89633 0.0
C1126 C 0.80471 0.03017 0.89812 0.0
C1127 C 0.64119 0.99197 0.89452 0.0
C1128 C 0.80412 0.96921 0.8806 0.0
C1129 C 0.81285 0.96255 0.90889 0.0
C1130 C 0.77439 0.98492 0.876 0.0
C1131 C 0.75394 0.99439 0.90028 0.0
C1132 C 0.76329 0.98789 0.92886 0.0
C1133 C 0.79236 0.97207 0.93277 0.0
C1134 C 0.7651 0.99144 0.8452 0.0
C1135 C 0.74264 0.99766 0.95542 0.0
H1136 H 0.73507 0.05726 0.89909 0.0
H1137 H 0.59743 0.02519 0.89673 0.0
H1138 H 0.81836 0.02537 0.91974 0.0
H1139 H 0.82332 0.02157 0.88128 0.0
H1140 H 0.81762 0.04441 0.89507 0.0
H1141 H 0.59928 0.99346 0.8904 0.0
H1142 H 0.65795 0.98317 0.87731 0.0
H1143 H 0.64649 0.98494 0.91572 0.0
H1144 H 0.82125 0.96246 0.86203 0.0
H1145 H 0.79888 0.9671 0.95475 0.0
H1146 H 0.78201 0.00513 0.84227 0.0
H1147 H 0.72317 0.99265 0.84108 0.0
H1148 H 0.78198 0.98218 0.82862 0.0
H1149 H 0.75671 0.01187 0.95568 0.0
H1150 H 0.75423 0.99101 0.97617 0.0
H1151 H 0.70002 0.99817 0.95452 0.0
C1152 C 0.22739 0.96502 0.58904 0.0
C1153 C 0.1739 0.9657 0.58558 0.0
C1154 C 0.25657 0.98105 0.59051 0.0
C1155 C 0.23146 0.99808 0.58866 0.0
C1156 C 0.17709 0.99876 0.5869 0.0
C1157 C 0.14903 0.98254 0.58499 0.0
C1158 C 0.31446 0.9797 0.59185 0.0
C1159 C 0.14873 0.01661 0.58531 0.0
C1160 C 0.30606 0.04156 0.60437 0.0
C1161 C 0.31709 0.0477 0.57602 0.0
C1162 C 0.2781 0.02545 0.60896 0.0
C1163 C 0.26199 0.015 0.58467 0.0
C1164 C 0.27425 0.02087 0.55608 0.0
C1165 C 0.3013 0.03712 0.55214 0.0
C1166 C 0.26558 0.01964 0.63976 0.0
C1167 C 0.25842 0.01004 0.52952 0.0
H1168 H 0.24679 0.95202 0.58864 0.0
H1169 H 0.10763 0.98302 0.58217 0.0
H1170 H 0.33094 0.98372 0.57045 0.0
H1171 H 0.33013 0.98911 0.60853 0.0
H1172 H 0.32759 0.96571 0.59698 0.0
H1173 H 0.10652 0.01486 0.58787 0.0
H1174 H 0.16275 0.02601 0.60248 0.0
H1175 H 0.15618 0.0231 0.56386 0.0
H1176 H 0.31976 0.04907 0.62306 0.0
H1177 H 0.30967 0.04162 0.53011 0.0
H1178 H 0.28256 0.00612 0.64422 0.0
H1179 H 0.22331 0.01833 0.64239 0.0
H1180 H 0.28016 0.0294 0.65631 0.0
H1181 H 0.27329 0.99597 0.5312 0.0
H1182 H 0.27277 0.0161 0.50886 0.0
H1183 H 0.21586 0.0092 0.52836 0.0
C1184 C 0.75444 0.46072 0.0925 0.0
C1185 C 0.80642 0.46149 0.08456 0.0
C1186 C 0.72532 0.47667 0.09563 0.0
C1187 C 0.749 0.49373 0.09088 0.0
C1188 C 0.80225 0.49454 0.08448 0.0
C1189 C 0.83016 0.47839 0.08103 0.0
C1190 C 0.66849 0.47517 0.10194 0.0
C1191 C 0.82915 0.51244 0.07966 0.0
C1192 C 0.66883 0.53186 0.05902 0.0
C1193 C 0.65912 0.54282 0.0835 0.0
C1194 C 0.69723 0.51577 0.06133 0.0
C1195 C 0.71712 0.51047 0.08879 0.0
C1196 C 0.70723 0.5213 0.11371 0.0
C1197 C 0.67776 0.53723 0.11085 0.0
C1198 C 0.70626 0.50451 0.03421 0.0
C1199 C 0.72798 0.51609 0.14334 0.0
H1200 H 0.73567 0.44766 0.09442 0.0
H1201 H 0.87038 0.47895 0.0748 0.0
H1202 H 0.65704 0.48481 0.11937 0.0
H1203 H 0.64641 0.47878 0.08203 0.0
H1204 H 0.65737 0.46124 0.10871 0.0
H1205 H 0.87162 0.51088 0.07859 0.0
H1206 H 0.81576 0.51853 0.05884 0.0
H1207 H 0.81954 0.5221 0.09743 0.0
H1208 H 0.65455 0.53593 0.03777 0.0
H1209 H 0.66884 0.54504 0.13016 0.0
H1210 H 0.69253 0.49043 0.03776 0.0
H1211 H 0.74805 0.50377 0.02946 0.0
H1212 H 0.68637 0.51015 0.01474 0.0
H1213 H 0.71284 0.50262 0.14981 0.0
H1214 H 0.71762 0.52611 0.16049 0.0
H1215 H 0.77051 0.51494 0.14237 0.0
C1216 C 0.34572 0.53005 0.41398 0.0
C1217 C 0.32323 0.54711 0.4098 0.0
C1218 C 0.3169 0.51412 0.41043 0.0
C1219 C 0.26405 0.51534 0.4032 0.0
C1220 C 0.24161 0.53256 0.39802 0.0
C1221 C 0.27157 0.54827 0.40136 0.0
C1222 C 0.34241 0.49602 0.41581 0.0
C1223 C 0.18522 0.53447 0.39075 0.0
C1224 C 0.19161 0.47276 0.38032 0.0
C1225 C 0.17002 0.46719 0.40695 0.0
C1226 C 0.22262 0.48836 0.3787 0.0
C1227 C 0.23122 0.49882 0.40416 0.0
C1228 C 0.20861 0.49348 0.43093 0.0
C1229 C 0.17847 0.47775 0.43199 0.0
C1230 C 0.24616 0.49364 0.34979 0.0
C1231 C 0.21639 0.50436 0.45856 0.0
H1232 H 0.38567 0.52921 0.42067 0.0
H1233 H 0.25367 0.56147 0.3991 0.0
H1234 H 0.32688 0.48992 0.43613 0.0
H1235 H 0.33385 0.48651 0.39766 0.0
H1236 H 0.38482 0.49727 0.41807 0.0
H1237 H 0.175 0.54856 0.38435 0.0
H1238 H 0.17448 0.52517 0.37272 0.0
H1239 H 0.16182 0.53065 0.41007 0.0
H1240 H 0.1837 0.4652 0.3606 0.0
H1241 H 0.16181 0.47361 0.45264 0.0
H1242 H 0.28861 0.49451 0.35193 0.0
H1243 H 0.23226 0.50727 0.3432 0.0
H1244 H 0.23676 0.48383 0.33216 0.0
H1245 H 0.25789 0.50481 0.46417 0.0
H1246 H 0.19503 0.49861 0.47742 0.0
H1247 H 0.2035 0.51856 0.45515 0.0
C1248 C 0.34855 0.4789 0.89905 0.0
C1249 C 0.32322 0.46215 0.89862 0.0
C1250 C 0.32107 0.49519 0.89604 0.0
C1251 C 0.26681 0.49468 0.89338 0.0
C1252 C 0.24135 0.47772 0.89159 0.0
C1253 C 0.26996 0.46162 0.89414 0.0
C1254 C 0.34981 0.51296 0.89755 0.0
C1255 C 0.18351 0.47655 0.88931 0.0
C1256 C 0.19409 0.53365 0.92828 0.0
C1257 C 0.17832 0.54387 0.90401 0.0
C1258 C 0.22263 0.51766 0.925 0.0
C1259 C 0.2364 0.5117 0.89668 0.0
C1260 C 0.22096 0.52192 0.872 0.0
C1261 C 0.19155 0.53778 0.87593 0.0
C1262 C 0.23783 0.5071 0.95195 0.0
C1263 C 0.23521 0.51602 0.84148 0.0
H1264 H 0.38977 0.47927 0.90266 0.0
H1265 H 0.25015 0.4487 0.89466 0.0
H1266 H 0.33646 0.52229 0.88012 0.0
H1267 H 0.34201 0.51962 0.91883 0.0
H1268 H 0.39203 0.51105 0.89536 0.0
H1269 H 0.17028 0.46254 0.88443 0.0
H1270 H 0.16603 0.48091 0.91028 0.0
H1271 H 0.16899 0.48578 0.87205 0.0
H1272 H 0.18414 0.53817 0.9501 0.0
H1273 H 0.17812 0.54507 0.85694 0.0
H1274 H 0.28035 0.5062 0.95343 0.0
H1275 H 0.22282 0.49304 0.95052 0.0
H1276 H 0.22309 0.51339 0.97235 0.0
H1277 H 0.27751 0.51429 0.83975 0.0
H1278 H 0.22246 0.52592 0.82468 0.0
H1279 H 0.21748 0.50268 0.83662 0.0
C1280 C 0.7888 0.53772 0.55105 0.0
C1281 C 0.81277 0.54691 0.57421 0.0
C1282 C 0.76159 0.52157 0.55564 0.0
C1283 C 0.75762 0.5144 0.58421 0.0
C1284 C 0.78156 0.52354 0.60777 0.0
C1285 C 0.8094 0.53958 0.60244 0.0
C1286 C 0.73712 0.51217 0.5298 0.0
C1287 C 0.77795 0.51632 0.63855 0.0
C1288 C 0.64545 0.48193 0.59226 0.0
C1289 C 0.66962 0.46509 0.58864 0.0
C1290 C 0.67411 0.49805 0.59286 0.0
C1291 C 0.72812 0.49733 0.58901 0.0
C1292 C 0.7529 0.48028 0.5864 0.0
C1293 C 0.7233 0.46433 0.58635 0.0
C1294 C 0.64627 0.51591 0.59614 0.0
C1295 C 0.81026 0.47892 0.58172 0.0
H1296 H 0.79116 0.54319 0.52912 0.0
H1297 H 0.82929 0.54605 0.62035 0.0
H1298 H 0.75176 0.49807 0.52804 0.0
H1299 H 0.69486 0.51136 0.53292 0.0
H1300 H 0.7449 0.51929 0.50888 0.0
H1301 H 0.79703 0.52538 0.65464 0.0
H1302 H 0.73699 0.51469 0.64487 0.0
H1303 H 0.79606 0.50272 0.63978 0.0
H1304 H 0.60387 0.4825 0.59399 0.0
H1305 H 0.74197 0.45139 0.58273 0.0
H1306 H 0.6475 0.52341 0.57515 0.0
H1307 H 0.6655 0.52448 0.61281 0.0
H1308 H 0.60536 0.51405 0.6025 0.0
H1309 H 0.82005 0.4842 0.55971 0.0
H1310 H 0.82429 0.46472 0.58335 0.0
H1311 H 0.83115 0.48734 0.59791 0.0
C1312 C 0.94316 0.28814 0.15193 0.0
C1313 C 0.94188 0.29805 0.1258 0.0
C1314 C 0.96786 0.27118 0.15337 0.0
C1315 C 0.99289 0.2642 0.12827 0.0
C1316 C 0.99172 0.27418 0.10186 0.0
C1317 C 0.96573 0.29085 0.10086 0.0
C1318 C 0.96711 0.26073 0.18173 0.0
C1319 C 0.01861 0.26737 0.07473 0.0
C1320 C 0.09562 0.22768 0.13744 0.0
C1321 C 0.069 0.21215 0.12835 0.0
C1322 C 0.07138 0.24476 0.13757 0.0
C1323 C 0.01897 0.2462 0.12922 0.0
C1324 C 0.99171 0.23045 0.12075 0.0
C1325 C 0.0172 0.2137 0.12005 0.0
C1326 C 0.10204 0.26132 0.14609 0.0
C1327 C 0.93553 0.23128 0.11237 0.0
H1328 H 0.92484 0.29363 0.17127 0.0
H1329 H 0.96552 0.29853 0.08066 0.0
H1330 H 0.94975 0.24715 0.17819 0.0
H1331 H 0.00698 0.25853 0.18959 0.0
H1332 H 0.94505 0.26785 0.19906 0.0
H1333 H 0.0157 0.27708 0.05625 0.0
H1334 H 0.05989 0.26491 0.07948 0.0
H1335 H 0.00171 0.25424 0.0678 0.0
H1336 H 0.13564 0.22653 0.14382 0.0
H1337 H -0.00386 0.2017 0.1134 0.0
H1338 H 0.08355 0.26825 0.16486 0.0
H1339 H 0.10267 0.27111 0.12767 0.0
H1340 H 0.14232 0.25793 0.15209 0.0
H1341 H 0.91293 0.23769 0.13016 0.0
H1342 H 0.9192 0.21764 0.10784 0.0
H1343 H 0.93065 0.23981 0.09261 0.0
C1344 C 0.48472 0.79384 0.10659 0.0
C1345 C 0.44272 0.79809 0.12458 0.0
C1346 C 0.50867 0.77682 0.10803 0.0
C1347 C 0.48916 0.76347 0.12728 0.0
C1348 C 0.44635 0.76761 0.1453 0.0
C1349 C 0.42416 0.78501 0.1441 0.0
C1350 C 0.55505 0.77316 0.08903 0.0
C1351 C 0.42349 0.75356 0.16546 0.0
C1352 C 0.51927 0.71478 0.10642 0.0
C1353 C 0.55772 0.71015 0.12659 0.0
C1354 C 0.49585 0.73191 0.10693 0.0
C1355 C 0.51238 0.74499 0.12752 0.0
C1356 C 0.55194 0.74053 0.14761 0.0
C1357 C 0.57356 0.72302 0.14723 0.0
C1358 C 0.45293 0.73593 0.08564 0.0
C1359 C 0.57173 0.7543 0.16927 0.0
H1360 H 0.49978 0.80402 0.0918 0.0
H1361 H 0.39175 0.78828 0.15804 0.0
H1362 H 0.58773 0.76846 0.10267 0.0
H1363 H 0.54626 0.76219 0.07323 0.0
H1364 H 0.56737 0.78536 0.07663 0.0
H1365 H 0.38996 0.75887 0.17785 0.0
H1366 H 0.41097 0.74157 0.15262 0.0
H1367 H 0.45291 0.74881 0.18124 0.0
H1368 H 0.50624 0.70478 0.09071 0.0
H1369 H 0.60321 0.71946 0.16286 0.0
H1370 H 0.46428 0.74718 0.07093 0.0
H1371 H 0.41805 0.74038 0.09765 0.0
H1372 H 0.44284 0.72396 0.07203 0.0
H1373 H 0.58584 0.76649 0.15753 0.0
H1374 H 0.60347 0.74884 0.18293 0.0
H1375 H 0.5401 0.75877 0.18385 0.0
C1376 C 0.51479 0.7958 0.37746 0.0
C1377 C 0.56233 0.79926 0.36408 0.0
C1378 C 0.49229 0.77854 0.37636 0.0
C1379 C 0.51869 0.7642 0.36229 0.0
C1380 C 0.56678 0.76759 0.34872 0.0
C1381 C 0.58769 0.7852 0.34937 0.0
C1382 C 0.44038 0.77564 0.39044 0.0
C1383 C 0.5967 0.75254 0.33419 0.0
C1384 C 0.48406 0.71709 0.38925 0.0
C1385 C 0.45277 0.71057 0.3666 0.0
C1386 C 0.50681 0.7343 0.38768 0.0
C1387 C 0.49694 0.74552 0.36323 0.0
C1388 C 0.46478 0.73913 0.34044 0.0
C1389 C 0.44364 0.7216 0.34221 0.0
C1390 C 0.5417 0.74044 0.41216 0.0
C1391 C 0.45221 0.75089 0.31442 0.0
H1392 H 0.49464 0.80671 0.38848 0.0
H1393 H 0.62445 0.78787 0.33904 0.0
H1394 H 0.4134 0.7694 0.37456 0.0
H1395 H 0.44413 0.76613 0.40909 0.0
H1396 H 0.42325 0.78849 0.39857 0.0
H1397 H 0.63311 0.75745 0.32426 0.0
H1398 H 0.60603 0.74189 0.35049 0.0
H1399 H 0.57307 0.74606 0.31693 0.0
H1400 H 0.49191 0.70853 0.40798 0.0
H1401 H 0.41951 0.71659 0.32466 0.0
H1402 H 0.525 0.75249 0.42313 0.0
H1403 H 0.57967 0.74451 0.40324 0.0
H1404 H 0.54775 0.72968 0.42881 0.0
H1405 H 0.43334 0.76359 0.32185 0.0
H1406 H 0.42638 0.74395 0.29864 0.0
H1407 H 0.48805 0.75483 0.30292 0.0
C1408 C 0.02557 0.29743 0.3785 0.0
C1409 C 0.05617 0.3025 0.35462 0.0
C1410 C -0.00092 0.28086 0.37873 0.0
C1411 C 0.00456 0.26877 0.3549 0.0
C1412 C 0.03647 0.27361 0.33103 0.0
C1413 C 0.06124 0.29057 0.33096 0.0
C1414 C 0.96448 0.27644 0.40427 0.0
C1415 C 0.04453 0.26085 0.30563 0.0
C1416 C 0.97465 0.21957 0.37214 0.0
C1417 C 0.92592 0.21735 0.35948 0.0
C1418 C 0.0013 0.23603 0.36992 0.0
C1419 C 0.97796 0.25088 0.3555 0.0
C1420 C 0.92857 0.24876 0.34276 0.0
C1421 C 0.90347 0.23188 0.34446 0.0
C1422 C 0.05446 0.23753 0.38303 0.0
C1423 C 0.90182 0.26443 0.32795 0.0
H1424 H 0.02075 0.30674 0.39664 0.0
H1425 H 0.08473 0.29448 0.31244 0.0
H1426 H 0.92502 0.27344 0.39637 0.0
H1427 H 0.97868 0.26414 0.41564 0.0
H1428 H 0.96235 0.28772 0.42034 0.0
H1429 H 0.07184 0.26639 0.28924 0.0
H1430 H 0.05956 0.24766 0.31363 0.0
H1431 H 0.00731 0.2581 0.29466 0.0
H1432 H 0.99251 0.20825 0.38338 0.0
H1433 H 0.86579 0.23016 0.33469 0.0
H1434 H 0.05426 0.24757 0.40107 0.0
H1435 H 0.08211 0.24245 0.36635 0.0
H1436 H 0.06852 0.22437 0.39175 0.0
H1437 H 0.89683 0.27575 0.34369 0.0
H1438 H 0.86345 0.26058 0.31924 0.0
H1439 H 0.92571 0.2696 0.30969 0.0
C1440 C 0.9293 0.78613 0.84064 0.0
C1441 C 0.94378 0.79832 0.86266 0.0
C1442 C 0.95042 0.76857 0.83945 0.0
C1443 C 0.98798 0.7633 0.86025 0.0
C1444 C 0.00325 0.77569 0.88222 0.0
C1445 C 0.98046 0.79292 0.8834 0.0
C1446 C 0.93211 0.75557 0.81619 0.0
C1447 C 0.04397 0.7708 0.90441 0.0
C1448 C 0.01062 0.71367 0.87822 0.0
C1449 C 0.05419 0.7096 0.86134 0.0
C1450 C 0.98792 0.73092 0.87737 0.0
C1451 C 0.01013 0.74465 0.85984 0.0
C1452 C 0.05443 0.74069 0.84292 0.0
C1453 C 0.07551 0.7231 0.84353 0.0
C1454 C 0.94003 0.73443 0.8952 0.0
C1455 C 0.08002 0.7551 0.82457 0.0
H1456 H 0.90099 0.79026 0.82458 0.0
H1457 H 0.9924 0.80237 0.90024 0.0
H1458 H 0.96495 0.75116 0.80245 0.0
H1459 H 0.91586 0.74323 0.82657 0.0
H1460 H 0.90232 0.76168 0.80184 0.0
H1461 H 0.05345 0.78231 0.91911 0.0
H1462 H 0.03065 0.75925 0.91797 0.0
H1463 H 0.07963 0.76639 0.89312 0.0
H1464 H 0.99347 0.70321 0.89171 0.0
H1465 H 0.10918 0.72 0.83047 0.0
H1466 H 0.90896 0.73975 0.88095 0.0
H1467 H 0.94795 0.7449 0.91201 0.0
H1468 H 0.92587 0.72201 0.90633 0.0
H1469 H 0.05238 0.76059 0.80837 0.0
H1470 H 0.11426 0.74986 0.81275 0.0
H1471 H 0.09216 0.76657 0.83868 0.0
C1472 C 0.57677 0.22451 0.84604 0.0
C1473 C 0.56167 0.21038 0.86458 0.0
C1474 C 0.55171 0.24143 0.84696 0.0
C1475 C 0.50933 0.24396 0.86606 0.0
C1476 C 0.4936 0.2296 0.88452 0.0
C1477 C 0.52052 0.21312 0.88392 0.0
C1478 C 0.57073 0.25661 0.82766 0.0
C1479 C 0.44768 0.23152 0.90452 0.0
C1480 C 0.46989 0.29136 0.88971 0.0
C1481 C 0.43037 0.29543 0.86989 0.0
C1482 C 0.49644 0.27481 0.88833 0.0
C1483 C 0.48199 0.26173 0.86725 0.0
C1484 C 0.44111 0.26556 0.84768 0.0
C1485 C 0.41641 0.28253 0.84888 0.0
C1486 C 0.54074 0.27151 0.90902 0.0
C1487 C 0.42342 0.25172 0.82555 0.0
H1488 H 0.60846 0.22238 0.83103 0.0
H1489 H 0.50806 0.2021 0.89792 0.0
H1490 H 0.5401 0.26071 0.81215 0.0
H1491 H 0.58014 0.26867 0.84116 0.0
H1492 H 0.60542 0.25268 0.81497 0.0
H1493 H 0.43907 0.21878 0.91654 0.0
H1494 H 0.45464 0.24245 0.92068 0.0
H1495 H 0.41323 0.23543 0.89166 0.0
H1496 H 0.48144 0.30142 0.9057 0.0
H1497 H 0.38594 0.28567 0.83352 0.0
H1498 H 0.57619 0.26847 0.89642 0.0
H1499 H 0.53261 0.25955 0.92295 0.0
H1500 H 0.5483 0.28335 0.92341 0.0
H1501 H 0.45505 0.24864 0.81007 0.0
H1502 H 0.38953 0.25646 0.81289 0.0
H1503 H 0.41326 0.23885 0.83673 0.0
C1504 C 0.46111 0.21804 0.59907 0.0
C1505 C 0.42463 0.21382 0.62061 0.0
C1506 C 0.48859 0.2344 0.59985 0.0
C1507 C 0.47808 0.24718 0.62214 0.0
C1508 C 0.44016 0.24323 0.64349 0.0
C1509 C 0.41458 0.22641 0.6428 0.0
C1510 C 0.52974 0.2378 0.5772 0.0
C1511 C 0.42659 0.25678 0.66699 0.0
C1512 C 0.57785 0.28343 0.63995 0.0
C1513 C 0.56083 0.29793 0.62273 0.0
C1514 C 0.5517 0.26671 0.63971 0.0
C1515 C 0.50639 0.26476 0.62273 0.0
C1516 C 0.48869 0.27951 0.60568 0.0
C1517 C 0.51661 0.29579 0.60549 0.0
C1518 C 0.57276 0.25111 0.6574 0.0
C1519 C 0.43977 0.27822 0.58799 0.0
H1520 H 0.46971 0.2082 0.58215 0.0
H1521 H 0.38651 0.22315 0.65951 0.0
H1522 H 0.52014 0.25005 0.56425 0.0
H1523 H 0.56712 0.24042 0.58813 0.0
H1524 H 0.53449 0.22618 0.56198 0.0
H1525 H 0.39446 0.25201 0.68103 0.0
H1526 H 0.46057 0.25938 0.68101 0.0
H1527 H 0.41548 0.2699 0.65692 0.0
H1528 H 0.61193 0.2851 0.65333 0.0
H1529 H 0.50274 0.30709 0.59255 0.0
H1530 H 0.57959 0.23924 0.64299 0.0
H1531 H 0.54431 0.24691 0.67413 0.0
H1532 H 0.60936 0.25464 0.66856 0.0
H1533 H 0.4437 0.26757 0.57103 0.0
H1534 H 0.42993 0.29122 0.57707 0.0
H1535 H 0.40726 0.27423 0.60233 0.0
C1536 C 0.99374 0.71488 0.60518 0.0
C1537 C 0.95063 0.71055 0.62225 0.0
C1538 C 0.01648 0.73211 0.60659 0.0
C1539 C 0.9947 0.74556 0.62486 0.0
C1540 C 0.95097 0.74131 0.64207 0.0
C1541 C 0.92991 0.72373 0.6409 0.0
C1542 C 0.06382 0.7359 0.58845 0.0
C1543 C 0.92579 0.75543 0.6612 0.0
C1544 C 0.07498 0.78706 0.64466 0.0
C1545 C 0.05948 0.79947 0.62321 0.0
C1546 C 0.05447 0.7694 0.64543 0.0
C1547 C 0.01646 0.76427 0.62481 0.0
C1548 C 0.00021 0.77687 0.6034 0.0
C1549 C 0.02244 0.7942 0.6026 0.0
C1550 C 0.07386 0.75617 0.66805 0.0
C1551 C 0.95896 0.77213 0.58144 0.0
H1552 H 0.01039 0.70465 0.59104 0.0
H1553 H 0.89657 0.72042 0.65409 0.0
H1554 H 0.05519 0.74649 0.57195 0.0
H1555 H 0.09513 0.74119 0.60256 0.0
H1556 H 0.07798 0.72362 0.57691 0.0
H1557 H 0.89219 0.74995 0.67332 0.0
H1558 H 0.95395 0.76083 0.67718 0.0
H1559 H 0.91274 0.76701 0.64759 0.0
H1560 H 0.10359 0.79109 0.66062 0.0
H1561 H 0.00971 0.80382 0.58621 0.0
H1562 H 0.08994 0.74398 0.65711 0.0
H1563 H 0.0416 0.75154 0.68203 0.0
H1564 H 0.10406 0.76217 0.68224 0.0
H1565 H 0.97213 0.76077 0.56741 0.0
H1566 H 0.94878 0.78378 0.56719 0.0
H1567 H 0.92374 0.7675 0.59293 0.0
C1568 C 0.03703 0.10938 0.19227 0.0
C1569 C 0.07125 0.12335 0.18511 0.0
C1570 C 0.01745 0.10784 0.22068 0.0
C1571 C 0.03384 0.12027 0.24231 0.0
C1572 C 0.07261 0.13313 0.2358 0.0
C1573 C 0.09021 0.13475 0.20704 0.0
C1574 C 0.97549 0.09418 0.22664 0.0
C1575 C 0.09234 0.1462 0.25859 0.0
C1576 C 0.9391 0.13839 0.29738 0.0
C1577 C 0.95272 0.12876 0.32249 0.0
C1578 C 0.96372 0.13504 0.27082 0.0
C1579 C 0.0042 0.12219 0.26972 0.0
C1580 C 0.01757 0.11217 0.29499 0.0
C1581 C 0.99092 0.1154 0.32115 0.0
C1582 C 0.94726 0.14562 0.24413 0.0
C1583 C 0.06148 0.09878 0.29476 0.0
H1584 H 0.02237 0.10059 0.17519 0.0
H1585 H 0.11726 0.14539 0.20145 0.0
H1586 H 0.98136 0.08745 0.24803 0.0
H1587 H 0.93789 0.1013 0.22754 0.0
H1588 H 0.97344 0.08363 0.20934 0.0
H1589 H 0.12858 0.1529 0.25158 0.0
H1590 H 0.06306 0.15688 0.26257 0.0
H1591 H 0.09925 0.13911 0.2796 0.0
H1592 H 0.90912 0.14861 0.29859 0.0
H1593 H 0.00145 0.10809 0.34081 0.0
H1594 H 0.93988 0.13627 0.22559 0.0
H1595 H 0.97851 0.15498 0.23742 0.0
H1596 H 0.91197 0.15376 0.24813 0.0
H1597 H 0.0583 0.08944 0.27584 0.0
H1598 H 0.06305 0.09062 0.31514 0.0
H1599 H 0.09834 0.10623 0.29242 0.0
C1600 C 0.50402 0.87347 0.18169 0.0
C1601 C 0.46604 0.88447 0.16924 0.0
C1602 C 0.51863 0.87578 0.21086 0.0
C1603 C 0.49337 0.88901 0.22809 0.0
C1604 C 0.45606 0.90054 0.21537 0.0
C1605 C 0.44329 0.89828 0.18585 0.0
C1606 C 0.55963 0.86356 0.22351 0.0
C1607 C 0.42752 0.91449 0.23329 0.0
C1608 C 0.49148 0.87577 0.30762 0.0
C1609 C 0.53129 0.88646 0.31885 0.0
C1610 C 0.47643 0.87738 0.27841 0.0
C1611 C 0.50307 0.88956 0.25992 0.0
C1612 C 0.54201 0.9009 0.27144 0.0
C1613 C 0.55524 0.89937 0.30102 0.0
C1614 C 0.43369 0.86543 0.26705 0.0
C1615 C 0.57196 0.91374 0.25219 0.0
H1616 H 0.52186 0.86291 0.16868 0.0
H1617 H 0.41359 0.90669 0.17618 0.0
H1618 H 0.58882 0.8717 0.23537 0.0
H1619 H 0.54201 0.8541 0.23948 0.0
H1620 H 0.57937 0.85542 0.20643 0.0
H1621 H 0.40334 0.92351 0.21952 0.0
H1622 H 0.40227 0.90748 0.24925 0.0
H1623 H 0.45484 0.92295 0.24594 0.0
H1624 H 0.47275 0.8659 0.3216 0.0
H1625 H 0.58637 0.90752 0.30974 0.0
H1626 H 0.44989 0.85503 0.25213 0.0
H1627 H 0.40563 0.87357 0.25433 0.0
H1628 H 0.4129 0.85837 0.28495 0.0
H1629 H 0.5965 0.90579 0.23702 0.0
H1630 H 0.59705 0.92296 0.26507 0.0
H1631 H 0.54557 0.92204 0.23866 0.0
C1632 C 0.00492 0.87455 0.8073 0.0
C1633 C 0.96511 0.88505 0.81899 0.0
C1634 C 0.01995 0.87664 0.77816 0.0
C1635 C 0.9933 0.88912 0.76019 0.0
C1636 C 0.95421 0.90023 0.77218 0.0
C1637 C 0.94101 0.89822 0.8017 0.0
C1638 C 0.06282 0.86491 0.76632 0.0
C1639 C 0.92422 0.91336 0.75348 0.0
C1640 C 0.05421 0.89906 0.68683 0.0
C1641 C 0.03196 0.88546 0.66959 0.0
C1642 C 0.04077 0.90089 0.71633 0.0
C1643 C 0.00329 0.88916 0.72838 0.0
C1644 C 0.97844 0.87618 0.71049 0.0
C1645 C 0.99372 0.87429 0.68135 0.0
C1646 C 0.06886 0.91458 0.73496 0.0
C1647 C 0.93729 0.86376 0.72241 0.0
H1648 H 0.02379 0.86449 0.82086 0.0
H1649 H 0.90993 0.90625 0.81081 0.0
H1650 H 0.04677 0.8548 0.75084 0.0
H1651 H 0.09095 0.8733 0.75409 0.0
H1652 H 0.08349 0.85751 0.78391 0.0
H1653 H 0.89888 0.9223 0.76672 0.0
H1654 H 0.9506 0.92196 0.74042 0.0
H1655 H 0.89994 0.90566 0.73786 0.0
H1656 H 0.08409 0.9076 0.67767 0.0
H1657 H 0.97624 0.8639 0.66784 0.0
H1658 H 0.09408 0.90735 0.75068 0.0
H1659 H 0.04128 0.92278 0.7479 0.0
H1660 H 0.09302 0.92388 0.72168 0.0
H1661 H 0.95472 0.854 0.73798 0.0
H1662 H 0.91773 0.85594 0.70487 0.0
H1663 H 0.90796 0.87169 0.73455 0.0
C1664 C 0.52796 0.11243 0.79754 0.0
C1665 C 0.56301 0.12604 0.80524 0.0
C1666 C 0.50923 0.11116 0.76893 0.0
C1667 C 0.52729 0.12348 0.74757 0.0
C1668 C 0.56588 0.13626 0.75477 0.0
C1669 C 0.58267 0.13761 0.78373 0.0
C1670 C 0.46715 0.09767 0.76223 0.0
C1671 C 0.58715 0.14925 0.73231 0.0
C1672 C 0.49289 0.11626 0.66789 0.0
C1673 C 0.45408 0.12924 0.6643 0.0
C1674 C 0.51724 0.11409 0.69502 0.0
C1675 C 0.50095 0.12476 0.71901 0.0
C1676 C 0.46023 0.13734 0.71562 0.0
C1677 C 0.43788 0.13964 0.68812 0.0
C1678 C 0.56153 0.10095 0.69774 0.0
C1679 C 0.44078 0.1486 0.74091 0.0
H1680 H 0.51263 0.10354 0.81428 0.0
H1681 H 0.61028 0.14799 0.78972 0.0
H1682 H 0.4303 0.10502 0.75909 0.0
H1683 H 0.47546 0.09026 0.74169 0.0
H1684 H 0.46199 0.08765 0.78012 0.0
H1685 H 0.62229 0.15627 0.74023 0.0
H1686 H 0.59649 0.14197 0.71176 0.0
H1687 H 0.55776 0.15966 0.72705 0.0
H1688 H 0.50551 0.10835 0.64925 0.0
H1689 H 0.40747 0.14956 0.68523 0.0
H1690 H 0.55488 0.09144 0.71611 0.0
H1691 H 0.59735 0.10854 0.70268 0.0
H1692 H 0.56757 0.09297 0.67744 0.0
H1693 H 0.43115 0.13972 0.7597 0.0
H1694 H 0.40613 0.15665 0.73507 0.0
H1695 H 0.47127 0.15809 0.74823 0.0
C1696 C 0.45829 0.61097 0.31114 0.0
C1697 C 0.48127 0.62419 0.32881 0.0
C1698 C 0.4725 0.60915 0.28177 0.0
C1699 C 0.51155 0.62047 0.27032 0.0
C1700 C 0.53775 0.63277 0.28882 0.0
C1701 C 0.52162 0.63472 0.31781 0.0
C1702 C 0.44288 0.5962 0.26253 0.0
C1703 C 0.58067 0.64467 0.27756 0.0
C1704 C 0.56632 0.61157 0.19493 0.0
C1705 C 0.54171 0.62513 0.17868 0.0
C1706 C 0.55659 0.60968 0.2249 0.0
C1707 C 0.52034 0.62128 0.23843 0.0
C1708 C 0.4938 0.63446 0.22171 0.0
C1709 C 0.50549 0.63642 0.19208 0.0
C1710 C 0.58658 0.59586 0.24228 0.0
C1711 C 0.45382 0.64676 0.23524 0.0
H1712 H 0.42679 0.60293 0.3197 0.0
H1713 H 0.53962 0.64482 0.33167 0.0
H1714 H 0.41779 0.60407 0.24755 0.0
H1715 H 0.46939 0.58806 0.24881 0.0
H1716 H 0.41832 0.58683 0.27544 0.0
H1717 H 0.6021 0.65136 0.29559 0.0
H1718 H 0.60812 0.63661 0.26428 0.0
H1719 H 0.56444 0.65538 0.26323 0.0
H1720 H 0.5947 0.60296 0.18446 0.0
H1721 H 0.48625 0.6468 0.17933 0.0
H1722 H 0.56013 0.5871 0.25502 0.0
H1723 H 0.61179 0.60294 0.25818 0.0
H1724 H 0.61091 0.58711 0.22814 0.0
H1725 H 0.42483 0.63862 0.24726 0.0
H1726 H 0.43363 0.65515 0.21866 0.0
H1727 H 0.47239 0.65597 0.25123 0.0
C1728 C 0.04593 0.4025 0.2942 0.0
C1729 C 0.0792 0.38838 0.30211 0.0
C1730 C 0.02798 0.40401 0.26547 0.0
C1731 C 0.04506 0.39141 0.24426 0.0
C1732 C 0.08308 0.37843 0.25154 0.0
C1733 C 0.09906 0.37685 0.28062 0.0
C1734 C 0.98673 0.41781 0.25869 0.0
C1735 C 0.10354 0.36518 0.22923 0.0
C1736 C 0.95079 0.3739 0.18843 0.0
C1737 C 0.96493 0.38367 0.16356 0.0
C1738 C 0.97547 0.37688 0.21508 0.0
C1739 C 0.01652 0.38948 0.2165 0.0
C1740 C 0.03079 0.3995 0.19141 0.0
C1741 C 0.00406 0.39667 0.16517 0.0
C1742 C 0.95807 0.3663 0.24159 0.0
C1743 C 0.07543 0.41257 0.19199 0.0
H1744 H 0.03055 0.41141 0.31091 0.0
H1745 H 0.12541 0.36609 0.28676 0.0
H1746 H 0.99394 0.42447 0.23737 0.0
H1747 H 0.949 0.41083 0.25717 0.0
H1748 H 0.98402 0.42841 0.27587 0.0
H1749 H 0.13945 0.35849 0.2368 0.0
H1750 H 0.07434 0.35451 0.22511 0.0
H1751 H 0.11127 0.37211 0.20817 0.0
H1752 H 0.92015 0.36395 0.18701 0.0
H1753 H 0.01503 0.40406 0.14567 0.0
H1754 H 0.95023 0.37565 0.26005 0.0
H1755 H 0.98899 0.35689 0.24861 0.0
H1756 H 0.92281 0.35822 0.23723 0.0
H1757 H 0.07173 0.42214 0.21056 0.0
H1758 H 0.07856 0.42048 0.17141 0.0
H1759 H 0.11174 0.4049 0.19522 0.0
C1760 C 0.45328 0.36785 0.8004 0.0
C1761 C 0.46849 0.37857 0.82404 0.0
C1762 C 0.47653 0.36987 0.77309 0.0
C1763 C 0.51725 0.38245 0.76977 0.0
C1764 C 0.53319 0.3932 0.79373 0.0
C1765 C 0.5078 0.39137 0.82061 0.0
C1766 C 0.4574 0.35854 0.74779 0.0
C1767 C 0.57766 0.40626 0.79114 0.0
C1768 C 0.59653 0.37035 0.70371 0.0
C1769 C 0.57569 0.38207 0.6828 0.0
C1770 C 0.58122 0.37146 0.73298 0.0
C1771 C 0.54279 0.38412 0.74104 0.0
C1772 C 0.52373 0.39663 0.72026 0.0
C1773 C 0.54114 0.39564 0.69137 0.0
C1774 C 0.60371 0.35832 0.75482 0.0
C1775 C 0.48166 0.40997 0.72783 0.0
H1776 H 0.42254 0.35805 0.80321 0.0
H1777 H 0.51966 0.3995 0.83916 0.0
H1778 H 0.44706 0.36744 0.72913 0.0
H1779 H 0.48828 0.34928 0.74024 0.0
H1780 H 0.42325 0.35026 0.7537 0.0
H1781 H 0.58498 0.4137 0.81184 0.0
H1782 H 0.61304 0.39874 0.785 0.0
H1783 H 0.57015 0.41627 0.77357 0.0
H1784 H 0.6237 0.35998 0.69702 0.0
H1785 H 0.52486 0.40464 0.67507 0.0
H1786 H 0.5751 0.3476 0.75982 0.0
H1787 H 0.61297 0.36536 0.7756 0.0
H1788 H 0.63912 0.35169 0.7464 0.0
H1789 H 0.44513 0.40249 0.73137 0.0
H1790 H 0.47545 0.42011 0.71022 0.0
H1791 H 0.49072 0.41725 0.74838 0.0
C1792 C 0.06384 0.60918 0.7945 0.0
C1793 C 0.0394 0.62276 0.81083 0.0
C1794 C 0.05301 0.60702 0.7647 0.0
C1795 C 0.01602 0.61842 0.75138 0.0
C1796 C 0.98939 0.63151 0.76823 0.0
C1797 C 0.00198 0.63369 0.79771 0.0
C1798 C 0.08288 0.59321 0.74721 0.0
C1799 C 0.94876 0.64362 0.75493 0.0
C1800 C 0.01794 0.63238 0.6723 0.0
C1801 C 0.9775 0.62202 0.66098 0.0
C1802 C 0.03379 0.63022 0.70128 0.0
C1803 C 0.00741 0.61779 0.71946 0.0
C1804 C 0.96844 0.60657 0.70767 0.0
C1805 C 0.95432 0.60867 0.67832 0.0
C1806 C 0.07651 0.64208 0.71291 0.0
C1807 C 0.93887 0.59341 0.72654 0.0
H1808 H 0.09305 0.60081 0.80472 0.0
H1809 H 0.98276 0.64407 0.81049 0.0
H1810 H 0.05645 0.58464 0.73413 0.0
H1811 H 0.10861 0.60033 0.73164 0.0
H1812 H 0.10671 0.58429 0.76133 0.0
H1813 H 0.92835 0.65185 0.77165 0.0
H1814 H 0.96684 0.65299 0.73899 0.0
H1815 H 0.92003 0.63538 0.7429 0.0
H1816 H 0.03618 0.64256 0.6587 0.0
H1817 H 0.92283 0.60071 0.66952 0.0
H1818 H 0.1041 0.63392 0.72592 0.0
H1819 H 0.06009 0.65257 0.72759 0.0
H1820 H 0.09783 0.64903 0.69511 0.0
H1821 H 0.96537 0.58531 0.74034 0.0
H1822 H 0.91492 0.584 0.71333 0.0
H1823 H 0.91318 0.6011 0.74143 0.0
loop_
_geom_bond_atom_site_label_1
_geom_bond_atom_site_label_2
_geom_bond_distance
_geom_bond_site_symmetry_2
_ccdc_geom_bond_type
Co0 O3 1.970 . S
Co0 N17 1.989 . S
Co0 O25 1.967 . S
Co0 O32 1.920 . S
Co1 O4 1.966 . S
Co1 N10 2.022 . S
Co1 N18 1.993 . S
Co1 O26 1.941 . S
C2 O3 1.258 . S
C2 O4 1.263 . S
O3 Co0 1.970 . S
O3 C2 1.258 . S
O4 Co1 1.966 . S
O4 C2 1.263 . S
C5 O6 1.235 . S
C5 O32 1.289 . S
O6 C5 1.235 . S
C7 C9 1.400 . S
C7 N10 1.351 . S
C7 C12 1.501 . S
C8 C9 1.387 . S
C8 N11 1.341 . S
C9 C7 1.400 . S
C9 C8 1.387 . S
N10 Co1 2.022 . S
N10 C7 1.351 . S
N10 N11 1.365 . S
N11 C8 1.341 . S
N11 N10 1.365 . S
N11 H31 0.862 . S
C12 C7 1.501 . S
C12 H13 0.961 . S
C12 H14 0.961 . S
C12 H15 0.960 . S
H13 C12 0.961 . S
H14 C12 0.961 . S
H15 C12 0.960 . S
C16 N17 1.342 . S
C16 C20 1.401 . S
C16 C21 1.499 . S
N17 Co0 1.989 . S
N17 C16 1.342 . S
N17 N18 1.388 . S
N18 Co1 1.993 . S
N18 N17 1.388 . S
N18 C19 1.346 . S
C19 N18 1.346 . S
C19 C20 1.396 . S
C19 C29 1.510 . S
C20 C16 1.401 . S
C20 C19 1.396 . S
C21 C16 1.499 . S
C21 H22 0.959 . S
C21 H23 0.960 . S
C21 H24 0.961 . S
H22 C21 0.959 . S
H23 C21 0.960 . S
H24 C21 0.961 . S
O25 Co0 1.967 . S
O25 C33 1.258 . S
O26 Co1 1.941 . S
O26 C33 1.266 . S
H27 C29 0.959 . S
H28 C29 0.961 . S
C29 C19 1.510 . S
C29 H27 0.959 . S
C29 H28 0.961 . S
C29 H30 0.960 . S
H30 C29 0.960 . S
H31 N11 0.862 . S
O32 Co0 1.920 . S
O32 C5 1.289 . S
C33 O25 1.258 . S
C33 O26 1.266 . S
Co34 O37 1.970 . S
Co34 N51 1.989 . S
Co34 O59 1.967 . S
Co34 O66 1.920 . S
Co35 O38 1.966 . S
Co35 N44 2.022 . S
Co35 N52 1.993 . S
Co35 O60 1.941 . S
C36 O37 1.258 . S
C36 O38 1.263 . S
O37 Co34 1.970 . S
O37 C36 1.258 . S
O38 Co35 1.966 . S
O38 C36 1.263 . S
C39 O40 1.235 . S
C39 O66 1.289 . S
O40 C39 1.235 . S
C41 C43 1.400 . S
C41 N44 1.351 . S
C41 C46 1.501 . S
C42 C43 1.387 . S
C42 N45 1.341 . S
C43 C41 1.400 . S
C43 C42 1.387 . S
N44 Co35 2.022 . S
N44 C41 1.351 . S
N44 N45 1.365 . S
N45 C42 1.341 . S
N45 N44 1.365 . S
N45 H65 0.862 . S
C46 C41 1.501 . S
C46 H47 0.961 . S
C46 H48 0.961 . S
C46 H49 0.960 . S
H47 C46 0.961 . S
H48 C46 0.961 . S
H49 C46 0.960 . S
C50 N51 1.342 . S
C50 C54 1.401 . S
C50 C55 1.499 . S
N51 Co34 1.989 . S
N51 C50 1.342 . S
N51 N52 1.388 . S
N52 Co35 1.993 . S
N52 N51 1.388 . S
N52 C53 1.346 . S
C53 N52 1.346 . S
C53 C54 1.396 . S
C53 C63 1.510 . S
C54 C50 1.401 . S
C54 C53 1.396 . S
C55 C50 1.499 . S
C55 H56 0.959 . S
C55 H57 0.960 . S
C55 H58 0.961 . S
H56 C55 0.959 . S
H57 C55 0.960 . S
H58 C55 0.961 . S
O59 Co34 1.967 . S
O59 C67 1.258 . S
O60 Co35 1.941 . S
O60 C67 1.266 . S
H61 C63 0.959 . S
H62 C63 0.961 . S
C63 C53 1.510 . S
C63 H61 0.959 . S
C63 H62 0.961 . S
C63 H64 0.960 . S
H64 C63 0.960 . S
H65 N45 0.862 . S
O66 Co34 1.920 . S
O66 C39 1.289 . S
C67 O59 1.258 . S
C67 O60 1.266 . S
Co68 O71 1.970 . S
Co68 N85 1.989 . S
Co68 O93 1.967 . S
Co68 O100 1.920 . S
Co69 O72 1.966 . S
Co69 N78 2.022 . S
Co69 N86 1.993 . S
Co69 O94 1.941 . S
C70 O71 1.258 . S
C70 O72 1.263 . S
O71 Co68 1.970 . S
O71 C70 1.258 . S
O72 Co69 1.966 . S
O72 C70 1.263 . S
C73 O74 1.235 . S
C73 O100 1.289 . S
O74 C73 1.235 . S
C75 C77 1.400 . S
C75 N78 1.351 . S
C75 C80 1.501 . S
C76 C77 1.387 . S
C76 N79 1.341 . S
C77 C75 1.400 . S
C77 C76 1.387 . S
N78 Co69 2.022 . S
N78 C75 1.351 . S
N78 N79 1.365 . S
N79 C76 1.341 . S
N79 N78 1.365 . S
N79 H99 0.862 . S
C80 C75 1.501 . S
C80 H81 0.961 . S
C80 H82 0.961 . S
C80 H83 0.960 . S
H81 C80 0.961 . S
H82 C80 0.961 . S
H83 C80 0.960 . S
C84 N85 1.342 . S
C84 C88 1.401 . S
C84 C89 1.499 . S
N85 Co68 1.989 . S
N85 C84 1.342 . S
N85 N86 1.388 . S
N86 Co69 1.993 . S
N86 N85 1.388 . S
N86 C87 1.346 . S
C87 N86 1.346 . S
C87 C88 1.396 . S
C87 C97 1.510 . S
C88 C84 1.401 . S
C88 C87 1.396 . S
C89 C84 1.499 . S
C89 H90 0.959 . S
C89 H91 0.960 . S
C89 H92 0.961 . S
H90 C89 0.959 . S
H91 C89 0.960 . S
H92 C89 0.961 . S
O93 Co68 1.967 . S
O93 C101 1.258 . S
O94 Co69 1.941 . S
O94 C101 1.266 . S
H95 C97 0.959 . S
H96 C97 0.961 . S
C97 C87 1.510 . S
C97 H95 0.959 . S
C97 H96 0.961 . S
C97 H98 0.960 . S
H98 C97 0.960 . S
H99 N79 0.862 . S
O100 Co68 1.920 . S
O100 C73 1.289 . S
C101 O93 1.258 . S
C101 O94 1.266 . S
Co102 O105 1.970 . S
Co102 N119 1.989 . S
Co102 O127 1.967 . S
Co102 O134 1.920 . S
Co103 O106 1.966 . S
Co103 N112 2.022 . S
Co103 N120 1.993 . S
Co103 O128 1.941 . S
C104 O105 1.258 . S
C104 O106 1.263 . S
O105 Co102 1.970 . S
O105 C104 1.258 . S
O106 Co103 1.966 . S
O106 C104 1.263 . S
C107 O108 1.235 . S
C107 O134 1.289 . S
O108 C107 1.235 . S
C109 C111 1.400 . S
C109 N112 1.351 . S
C109 C114 1.501 . S
C110 C111 1.387 . S
C110 N113 1.341 . S
C111 C109 1.400 . S
C111 C110 1.387 . S
N112 Co103 2.022 . S
N112 C109 1.351 . S
N112 N113 1.365 . S
N113 C110 1.341 . S
N113 N112 1.365 . S
N113 H133 0.862 . S
C114 C109 1.501 . S
C114 H115 0.961 . S
C114 H116 0.961 . S
C114 H117 0.960 . S
H115 C114 0.961 . S
H116 C114 0.961 . S
H117 C114 0.960 . S
C118 N119 1.342 . S
C118 C122 1.401 . S
C118 C123 1.499 . S
N119 Co102 1.989 . S
N119 C118 1.342 . S
N119 N120 1.388 . S
N120 Co103 1.993 . S
N120 N119 1.388 . S
N120 C121 1.346 . S
C121 N120 1.346 . S
C121 C122 1.396 . S
C121 C131 1.510 . S
C122 C118 1.401 . S
C122 C121 1.396 . S
C123 C118 1.499 . S
C123 H124 0.959 . S
C123 H125 0.960 . S
C123 H126 0.961 . S
H124 C123 0.959 . S
H125 C123 0.960 . S
H126 C123 0.961 . S
O127 Co102 1.967 . S
O127 C135 1.258 . S
O128 Co103 1.941 . S
O128 C135 1.266 . S
H129 C131 0.959 . S
H130 C131 0.961 . S
C131 C121 1.510 . S
C131 H129 0.959 . S
C131 H130 0.961 . S
C131 H132 0.960 . S
H132 C131 0.960 . S
H133 N113 0.862 . S
O134 Co102 1.920 . S
O134 C107 1.289 . S
C135 O127 1.258 . S
C135 O128 1.266 . S
Co136 O139 1.970 . S
Co136 N153 1.989 . S
Co136 O161 1.967 . S
Co136 O168 1.920 . S
Co137 O140 1.966 . S
Co137 N146 2.022 . S
Co137 N154 1.993 . S
Co137 O162 1.941 . S
C138 O139 1.258 . S
C138 O140 1.263 . S
O139 Co136 1.970 . S
O139 C138 1.258 . S
O140 Co137 1.966 . S
O140 C138 1.263 . S
C141 O142 1.235 . S
C141 O168 1.289 . S
O142 C141 1.235 . S
C143 C145 1.400 . S
C143 N146 1.351 . S
C143 C148 1.501 . S
C144 C145 1.387 . S
C144 N147 1.341 . S
C145 C143 1.400 . S
C145 C144 1.387 . S
N146 Co137 2.022 . S
N146 C143 1.351 . S
N146 N147 1.365 . S
N147 C144 1.341 . S
N147 N146 1.365 . S
N147 H167 0.862 . S
C148 C143 1.501 . S
C148 H149 0.961 . S
C148 H150 0.961 . S
C148 H151 0.960 . S
H149 C148 0.961 . S
H150 C148 0.961 . S
H151 C148 0.960 . S
C152 N153 1.342 . S
C152 C156 1.401 . S
C152 C157 1.499 . S
N153 Co136 1.989 . S
N153 C152 1.342 . S
N153 N154 1.388 . S
N154 Co137 1.993 . S
N154 N153 1.388 . S
N154 C155 1.346 . S
C155 N154 1.346 . S
C155 C156 1.396 . S
C155 C165 1.510 . S
C156 C152 1.401 . S
C156 C155 1.396 . S
C157 C152 1.499 . S
C157 H158 0.959 . S
C157 H159 0.960 . S
C157 H160 0.961 . S
H158 C157 0.959 . S
H159 C157 0.960 . S
H160 C157 0.961 . S
O161 Co136 1.967 . S
O161 C169 1.258 . S
O162 Co137 1.941 . S
O162 C169 1.266 . S
H163 C165 0.959 . S
H164 C165 0.961 . S
C165 C155 1.510 . S
C165 H163 0.959 . S
C165 H164 0.961 . S
C165 H166 0.960 . S
H166 C165 0.960 . S
H167 N147 0.862 . S
O168 Co136 1.920 . S
O168 C141 1.289 . S
C169 O161 1.258 . S
C169 O162 1.266 . S
Co170 O173 1.970 . S
Co170 N187 1.989 . S
Co170 O195 1.967 . S
Co170 O202 1.920 . S
Co171 O174 1.966 . S
Co171 N180 2.022 . S
Co171 N188 1.993 . S
Co171 O196 1.941 . S
C172 O173 1.258 . S
C172 O174 1.263 . S
O173 Co170 1.970 . S
O173 C172 1.258 . S
O174 Co171 1.966 . S
O174 C172 1.263 . S
C175 O176 1.235 . S
C175 O202 1.289 . S
O176 C175 1.235 . S
C177 C179 1.400 . S
C177 N180 1.351 . S
C177 C182 1.501 . S
C178 C179 1.387 . S
C178 N181 1.341 . S
C179 C177 1.400 . S
C179 C178 1.387 . S
N180 Co171 2.022 . S
N180 C177 1.351 . S
N180 N181 1.365 . S
N181 C178 1.341 . S
N181 N180 1.365 . S
N181 H201 0.862 . S
C182 C177 1.501 . S
C182 H183 0.961 . S
C182 H184 0.961 . S
C182 H185 0.960 . S
H183 C182 0.961 . S
H184 C182 0.961 . S
H185 C182 0.960 . S
C186 N187 1.342 . S
C186 C190 1.401 . S
C186 C191 1.499 . S
N187 Co170 1.989 . S
N187 C186 1.342 . S
N187 N188 1.388 . S
N188 Co171 1.993 . S
N188 N187 1.388 . S
N188 C189 1.346 . S
C189 N188 1.346 . S
C189 C190 1.396 . S
C189 C199 1.510 . S
C190 C186 1.401 . S
C190 C189 1.396 . S
C191 C186 1.499 . S
C191 H192 0.959 . S
C191 H193 0.960 . S
C191 H194 0.961 . S
H192 C191 0.959 . S
H193 C191 0.960 . S
H194 C191 0.961 . S
O195 Co170 1.967 . S
O195 C203 1.258 . S
O196 Co171 1.941 . S
O196 C203 1.266 . S
H197 C199 0.959 . S
H198 C199 0.961 . S
C199 C189 1.510 . S
C199 H197 0.959 . S
C199 H198 0.961 . S
C199 H200 0.960 . S
H200 C199 0.960 . S
H201 N181 0.862 . S
O202 Co170 1.920 . S
O202 C175 1.289 . S
C203 O195 1.258 . S
C203 O196 1.266 . S
Co204 O207 1.970 . S
Co204 N221 1.989 . S
Co204 O229 1.967 . S
Co204 O236 1.920 . S
Co205 O208 1.966 . S
Co205 N214 2.022 . S
Co205 N222 1.993 . S
Co205 O230 1.941 . S
C206 O207 1.258 . S
C206 O208 1.263 . S
O207 Co204 1.970 . S
O207 C206 1.258 . S
O208 Co205 1.966 . S
O208 C206 1.263 . S
C209 O210 1.235 . S
C209 O236 1.289 . S
O210 C209 1.235 . S
C211 C213 1.400 . S
C211 N214 1.351 . S
C211 C216 1.501 . S
C212 C213 1.387 . S
C212 N215 1.341 . S
C213 C211 1.400 . S
C213 C212 1.387 . S
N214 Co205 2.022 . S
N214 C211 1.351 . S
N214 N215 1.365 . S
N215 C212 1.341 . S
N215 N214 1.365 . S
N215 H235 0.862 . S
C216 C211 1.501 . S
C216 H217 0.961 . S
C216 H218 0.961 . S
C216 H219 0.960 . S
H217 C216 0.961 . S
H218 C216 0.961 . S
H219 C216 0.960 . S
C220 N221 1.342 . S
C220 C224 1.401 . S
C220 C225 1.499 . S
N221 Co204 1.989 . S
N221 C220 1.342 . S
N221 N222 1.388 . S
N222 Co205 1.993 . S
N222 N221 1.388 . S
N222 C223 1.346 . S
C223 N222 1.346 . S
C223 C224 1.396 . S
C223 C233 1.510 . S
C224 C220 1.401 . S
C224 C223 1.396 . S
C225 C220 1.499 . S
C225 H226 0.959 . S
C225 H227 0.960 . S
C225 H228 0.961 . S
H226 C225 0.959 . S
H227 C225 0.960 . S
H228 C225 0.961 . S
O229 Co204 1.967 . S
O229 C237 1.258 . S
O230 Co205 1.941 . S
O230 C237 1.266 . S
H231 C233 0.959 . S
H232 C233 0.961 . S
C233 C223 1.510 . S
C233 H231 0.959 . S
C233 H232 0.961 . S
C233 H234 0.960 . S
H234 C233 0.960 . S
H235 N215 0.862 . S
O236 Co204 1.920 . S
O236 C209 1.289 . S
C237 O229 1.258 . S
C237 O230 1.266 . S
Co238 O241 1.970 . S
Co238 N255 1.989 . S
Co238 O263 1.967 . S
Co238 O270 1.920 . S
Co239 O242 1.966 . S
Co239 N248 2.022 . S
Co239 N256 1.993 . S
Co239 O264 1.941 . S
C240 O241 1.258 . S
C240 O242 1.263 . S
O241 Co238 1.970 . S
O241 C240 1.258 . S
O242 Co239 1.966 . S
O242 C240 1.263 . S
C243 O244 1.235 . S
C243 O270 1.289 . S
O244 C243 1.235 . S
C245 C247 1.400 . S
C245 N248 1.351 . S
C245 C250 1.501 . S
C246 C247 1.387 . S
C246 N249 1.341 . S
C247 C245 1.400 . S
C247 C246 1.387 . S
N248 Co239 2.022 . S
N248 C245 1.351 . S
N248 N249 1.365 . S
N249 C246 1.341 . S
N249 N248 1.365 . S
N249 H269 0.862 . S
C250 C245 1.501 . S
C250 H251 0.961 . S
C250 H252 0.961 . S
C250 H253 0.960 . S
H251 C250 0.961 . S
H252 C250 0.961 . S
H253 C250 0.960 . S
C254 N255 1.342 . S
C254 C258 1.401 . S
C254 C259 1.499 . S
N255 Co238 1.989 . S
N255 C254 1.342 . S
N255 N256 1.388 . S
N256 Co239 1.993 . S
N256 N255 1.388 . S
N256 C257 1.346 . S
C257 N256 1.346 . S
C257 C258 1.396 . S
C257 C267 1.510 . S
C258 C254 1.401 . S
C258 C257 1.396 . S
C259 C254 1.499 . S
C259 H260 0.959 . S
C259 H261 0.960 . S
C259 H262 0.961 . S
H260 C259 0.959 . S
H261 C259 0.960 . S
H262 C259 0.961 . S
O263 Co238 1.967 . S
O263 C271 1.258 . S
O264 Co239 1.941 . S
O264 C271 1.266 . S
H265 C267 0.959 . S
H266 C267 0.961 . S
C267 C257 1.510 . S
C267 H265 0.959 . S
C267 H266 0.961 . S
C267 H268 0.960 . S
H268 C267 0.960 . S
H269 N249 0.862 . S
O270 Co238 1.920 . S
O270 C243 1.289 . S
C271 O263 1.258 . S
C271 O264 1.266 . S
Co272 O275 1.970 . S
Co272 N289 1.989 . S
Co272 O297 1.967 . S
Co272 O304 1.920 . S
Co273 O276 1.966 . S
Co273 N282 2.022 . S
Co273 N290 1.993 . S
Co273 O298 1.941 . S
C274 O275 1.258 . S
C274 O276 1.263 . S
O275 Co272 1.970 . S
O275 C274 1.258 . S
O276 Co273 1.966 . S
O276 C274 1.263 . S
C277 O278 1.235 . S
C277 O304 1.289 . S
O278 C277 1.235 . S
C279 C281 1.400 . S
C279 N282 1.351 . S
C279 C284 1.501 . S
C280 C281 1.387 . S
C280 N283 1.341 . S
C281 C279 1.400 . S
C281 C280 1.387 . S
N282 Co273 2.022 . S
N282 C279 1.351 . S
N282 N283 1.365 . S
N283 C280 1.341 . S
N283 N282 1.365 . S
N283 H303 0.862 . S
C284 C279 1.501 . S
C284 H285 0.961 . S
C284 H286 0.961 . S
C284 H287 0.960 . S
H285 C284 0.961 . S
H286 C284 0.961 . S
H287 C284 0.960 . S
C288 N289 1.342 . S
C288 C292 1.401 . S
C288 C293 1.499 . S
N289 Co272 1.989 . S
N289 C288 1.342 . S
N289 N290 1.388 . S
N290 Co273 1.993 . S
N290 N289 1.388 . S
N290 C291 1.346 . S
C291 N290 1.346 . S
C291 C292 1.396 . S
C291 C301 1.510 . S
C292 C288 1.401 . S
C292 C291 1.396 . S
C293 C288 1.499 . S
C293 H294 0.959 . S
C293 H295 0.960 . S
C293 H296 0.961 . S
H294 C293 0.959 . S
H295 C293 0.960 . S
H296 C293 0.961 . S
O297 Co272 1.967 . S
O297 C305 1.258 . S
O298 Co273 1.941 . S
O298 C305 1.266 . S
H299 C301 0.959 . S
H300 C301 0.961 . S
C301 C291 1.510 . S
C301 H299 0.959 . S
C301 H300 0.961 . S
C301 H302 0.960 . S
H302 C301 0.960 . S
H303 N283 0.862 . S
O304 Co272 1.920 . S
O304 C277 1.289 . S
C305 O297 1.258 . S
C305 O298 1.266 . S
Co306 O309 1.970 . S
Co306 N323 1.989 . S
Co306 O331 1.967 . S
Co306 O338 1.920 . S
Co307 O310 1.966 . S
Co307 N316 2.022 . S
Co307 N324 1.993 . S
Co307 O332 1.941 . S
C308 O309 1.258 . S
C308 O310 1.263 . S
O309 Co306 1.970 . S
O309 C308 1.258 . S
O310 Co307 1.966 . S
O310 C308 1.263 . S
C311 O312 1.235 . S
C311 O338 1.289 . S
O312 C311 1.235 . S
C313 C315 1.400 . S
C313 N316 1.351 . S
C313 C318 1.501 . S
C314 C315 1.387 . S
C314 N317 1.341 . S
C315 C313 1.400 . S
C315 C314 1.387 . S
N316 Co307 2.022 . S
N316 C313 1.351 . S
N316 N317 1.365 . S
N317 C314 1.341 . S
N317 N316 1.365 . S
N317 H337 0.862 . S
C318 C313 1.501 . S
C318 H319 0.961 . S
C318 H320 0.961 . S
C318 H321 0.960 . S
H319 C318 0.961 . S
H320 C318 0.961 . S
H321 C318 0.960 . S
C322 N323 1.342 . S
C322 C326 1.401 . S
C322 C327 1.499 . S
N323 Co306 1.989 . S
N323 C322 1.342 . S
N323 N324 1.388 . S
N324 Co307 1.993 . S
N324 N323 1.388 . S
N324 C325 1.346 . S
C325 N324 1.346 . S
C325 C326 1.396 . S
C325 C335 1.510 . S
C326 C322 1.401 . S
C326 C325 1.396 . S
C327 C322 1.499 . S
C327 H328 0.959 . S
C327 H329 0.960 . S
C327 H330 0.961 . S
H328 C327 0.959 . S
H329 C327 0.960 . S
H330 C327 0.961 . S
O331 Co306 1.967 . S
O331 C339 1.258 . S
O332 Co307 1.941 . S
O332 C339 1.266 . S
H333 C335 0.959 . S
H334 C335 0.961 . S
C335 C325 1.510 . S
C335 H333 0.959 . S
C335 H334 0.961 . S
C335 H336 0.960 . S
H336 C335 0.960 . S
H337 N317 0.862 . S
O338 Co306 1.920 . S
O338 C311 1.289 . S
C339 O331 1.258 . S
C339 O332 1.266 . S
Co340 O343 1.970 . S
Co340 N357 1.989 . S
Co340 O365 1.967 . S
Co340 O372 1.920 . S
Co341 O344 1.966 . S
Co341 N350 2.022 . S
Co341 N358 1.993 . S
Co341 O366 1.941 . S
C342 O343 1.258 . S
C342 O344 1.263 . S
O343 Co340 1.970 . S
O343 C342 1.258 . S
O344 Co341 1.966 . S
O344 C342 1.263 . S
C345 O346 1.235 . S
C345 O372 1.289 . S
O346 C345 1.235 . S
C347 C349 1.400 . S
C347 N350 1.351 . S
C347 C352 1.501 . S
C348 C349 1.387 . S
C348 N351 1.341 . S
C349 C347 1.400 . S
C349 C348 1.387 . S
N350 Co341 2.022 . S
N350 C347 1.351 . S
N350 N351 1.365 . S
N351 C348 1.341 . S
N351 N350 1.365 . S
N351 H371 0.862 . S
C352 C347 1.501 . S
C352 H353 0.961 . S
C352 H354 0.961 . S
C352 H355 0.960 . S
H353 C352 0.961 . S
H354 C352 0.961 . S
H355 C352 0.960 . S
C356 N357 1.342 . S
C356 C360 1.401 . S
C356 C361 1.499 . S
N357 Co340 1.989 . S
N357 C356 1.342 . S
N357 N358 1.388 . S
N358 Co341 1.993 . S
N358 N357 1.388 . S
N358 C359 1.346 . S
C359 N358 1.346 . S
C359 C360 1.396 . S
C359 C369 1.510 . S
C360 C356 1.401 . S
C360 C359 1.396 . S
C361 C356 1.499 . S
C361 H362 0.959 . S
C361 H363 0.960 . S
C361 H364 0.961 . S
H362 C361 0.959 . S
H363 C361 0.960 . S
H364 C361 0.961 . S
O365 Co340 1.967 . S
O365 C373 1.258 . S
O366 Co341 1.941 . S
O366 C373 1.266 . S
H367 C369 0.959 . S
H368 C369 0.961 . S
C369 C359 1.510 . S
C369 H367 0.959 . S
C369 H368 0.961 . S
C369 H370 0.960 . S
H370 C369 0.960 . S
H371 N351 0.862 . S
O372 Co340 1.920 . S
O372 C345 1.289 . S
C373 O365 1.258 . S
C373 O366 1.266 . S
Co374 O377 1.970 . S
Co374 N391 1.989 . S
Co374 O399 1.967 . S
Co374 O406 1.920 . S
Co375 O378 1.966 . S
Co375 N384 2.022 . S
Co375 N392 1.993 . S
Co375 O400 1.941 . S
C376 O377 1.258 . S
C376 O378 1.263 . S
O377 Co374 1.970 . S
O377 C376 1.258 . S
O378 Co375 1.966 . S
O378 C376 1.263 . S
C379 O380 1.235 . S
C379 O406 1.289 . S
O380 C379 1.235 . S
C381 C383 1.400 . S
C381 N384 1.351 . S
C381 C386 1.501 . S
C382 C383 1.387 . S
C382 N385 1.341 . S
C383 C381 1.400 . S
C383 C382 1.387 . S
N384 Co375 2.022 . S
N384 C381 1.351 . S
N384 N385 1.365 . S
N385 C382 1.341 . S
N385 N384 1.365 . S
N385 H405 0.862 . S
C386 C381 1.501 . S
C386 H387 0.961 . S
C386 H388 0.961 . S
C386 H389 0.960 . S
H387 C386 0.961 . S
H388 C386 0.961 . S
H389 C386 0.960 . S
C390 N391 1.342 . S
C390 C394 1.401 . S
C390 C395 1.499 . S
N391 Co374 1.989 . S
N391 C390 1.342 . S
N391 N392 1.388 . S
N392 Co375 1.993 . S
N392 N391 1.388 . S
N392 C393 1.346 . S
C393 N392 1.346 . S
C393 C394 1.396 . S
C393 C403 1.510 . S
C394 C390 1.401 . S
C394 C393 1.396 . S
C395 C390 1.499 . S
C395 H396 0.959 . S
C395 H397 0.960 . S
C395 H398 0.961 . S
H396 C395 0.959 . S
H397 C395 0.960 . S
H398 C395 0.961 . S
O399 Co374 1.967 . S
O399 C407 1.258 . S
O400 Co375 1.941 . S
O400 C407 1.266 . S
H401 C403 0.959 . S
H402 C403 0.961 . S
C403 C393 1.510 . S
C403 H401 0.959 . S
C403 H402 0.961 . S
C403 H404 0.960 . S
H404 C403 0.960 . S
H405 N385 0.862 . S
O406 Co374 1.920 . S
O406 C379 1.289 . S
C407 O399 1.258 . S
C407 O400 1.266 . S
Co408 O411 1.970 . S
Co408 N425 1.989 . S
Co408 O433 1.967 . S
Co408 O440 1.920 . S
Co409 O412 1.966 . S
Co409 N418 2.022 . S
Co409 N426 1.993 . S
Co409 O434 1.941 . S
C410 O411 1.258 . S
C410 O412 1.263 . S
O411 Co408 1.970 . S
O411 C410 1.258 . S
O412 Co409 1.966 . S
O412 C410 1.263 . S
C413 O414 1.235 . S
C413 O440 1.289 . S
O414 C413 1.235 . S
C415 C417 1.400 . S
C415 N418 1.351 . S
C415 C420 1.501 . S
C416 C417 1.387 . S
C416 N419 1.341 . S
C417 C415 1.400 . S
C417 C416 1.387 . S
N418 Co409 2.022 . S
N418 C415 1.351 . S
N418 N419 1.365 . S
N419 C416 1.341 . S
N419 N418 1.365 . S
N419 H439 0.862 . S
C420 C415 1.501 . S
C420 H421 0.961 . S
C420 H422 0.961 . S
C420 H423 0.960 . S
H421 C420 0.961 . S
H422 C420 0.961 . S
H423 C420 0.960 . S
C424 N425 1.342 . S
C424 C428 1.401 . S
C424 C429 1.499 . S
N425 Co408 1.989 . S
N425 C424 1.342 . S
N425 N426 1.388 . S
N426 Co409 1.993 . S
N426 N425 1.388 . S
N426 C427 1.346 . S
C427 N426 1.346 . S
C427 C428 1.396 . S
C427 C437 1.510 . S
C428 C424 1.401 . S
C428 C427 1.396 . S
C429 C424 1.499 . S
C429 H430 0.959 . S
C429 H431 0.960 . S
C429 H432 0.961 . S
H430 C429 0.959 . S
H431 C429 0.960 . S
H432 C429 0.961 . S
O433 Co408 1.967 . S
O433 C441 1.258 . S
O434 Co409 1.941 . S
O434 C441 1.266 . S
H435 C437 0.959 . S
H436 C437 0.961 . S
C437 C427 1.510 . S
C437 H435 0.959 . S
C437 H436 0.961 . S
C437 H438 0.960 . S
H438 C437 0.960 . S
H439 N419 0.862 . S
O440 Co408 1.920 . S
O440 C413 1.289 . S
C441 O433 1.258 . S
C441 O434 1.266 . S
Co442 O445 1.970 . S
Co442 N459 1.989 . S
Co442 O467 1.967 . S
Co442 O474 1.920 . S
Co443 O446 1.966 . S
Co443 N452 2.022 . S
Co443 N460 1.993 . S
Co443 O468 1.941 . S
C444 O445 1.258 . S
C444 O446 1.263 . S
O445 Co442 1.970 . S
O445 C444 1.258 . S
O446 Co443 1.966 . S
O446 C444 1.263 . S
C447 O448 1.235 . S
C447 O474 1.289 . S
O448 C447 1.235 . S
C449 C451 1.400 . S
C449 N452 1.351 . S
C449 C454 1.501 . S
C450 C451 1.387 . S
C450 N453 1.341 . S
C451 C449 1.400 . S
C451 C450 1.387 . S
N452 Co443 2.022 . S
N452 C449 1.351 . S
N452 N453 1.365 . S
N453 C450 1.341 . S
N453 N452 1.365 . S
N453 H473 0.862 . S
C454 C449 1.501 . S
C454 H455 0.961 . S
C454 H456 0.961 . S
C454 H457 0.960 . S
H455 C454 0.961 . S
H456 C454 0.961 . S
H457 C454 0.960 . S
C458 N459 1.342 . S
C458 C462 1.401 . S
C458 C463 1.499 . S
N459 Co442 1.989 . S
N459 C458 1.342 . S
N459 N460 1.388 . S
N460 Co443 1.993 . S
N460 N459 1.388 . S
N460 C461 1.346 . S
C461 N460 1.346 . S
C461 C462 1.396 . S
C461 C471 1.510 . S
C462 C458 1.401 . S
C462 C461 1.396 . S
C463 C458 1.499 . S
C463 H464 0.959 . S
C463 H465 0.960 . S
C463 H466 0.961 . S
H464 C463 0.959 . S
H465 C463 0.960 . S
H466 C463 0.961 . S
O467 Co442 1.967 . S
O467 C475 1.258 . S
O468 Co443 1.941 . S
O468 C475 1.266 . S
H469 C471 0.959 . S
H470 C471 0.961 . S
C471 C461 1.510 . S
C471 H469 0.959 . S
C471 H470 0.961 . S
C471 H472 0.960 . S
H472 C471 0.960 . S
H473 N453 0.862 . S
O474 Co442 1.920 . S
O474 C447 1.289 . S
C475 O467 1.258 . S
C475 O468 1.266 . S
Co476 O479 1.970 . S
Co476 N493 1.989 . S
Co476 O501 1.967 . S
Co476 O508 1.920 . S
Co477 O480 1.966 . S
Co477 N486 2.022 . S
Co477 N494 1.993 . S
Co477 O502 1.941 . S
C478 O479 1.258 . S
C478 O480 1.263 . S
O479 Co476 1.970 . S
O479 C478 1.258 . S
O480 Co477 1.966 . S
O480 C478 1.263 . S
C481 O482 1.235 . S
C481 O508 1.289 . S
O482 C481 1.235 . S
C483 C485 1.400 . S
C483 N486 1.351 . S
C483 C488 1.501 . S
C484 C485 1.387 . S
C484 N487 1.341 . S
C485 C483 1.400 . S
C485 C484 1.387 . S
N486 Co477 2.022 . S
N486 C483 1.351 . S
N486 N487 1.365 . S
N487 C484 1.341 . S
N487 N486 1.365 . S
N487 H507 0.862 . S
C488 C483 1.501 . S
C488 H489 0.961 . S
C488 H490 0.961 . S
C488 H491 0.960 . S
H489 C488 0.961 . S
H490 C488 0.961 . S
H491 C488 0.960 . S
C492 N493 1.342 . S
C492 C496 1.401 . S
C492 C497 1.499 . S
N493 Co476 1.989 . S
N493 C492 1.342 . S
N493 N494 1.388 . S
N494 Co477 1.993 . S
N494 N493 1.388 . S
N494 C495 1.346 . S
C495 N494 1.346 . S
C495 C496 1.396 . S
C495 C505 1.510 . S
C496 C492 1.401 . S
C496 C495 1.396 . S
C497 C492 1.499 . S
C497 H498 0.959 . S
C497 H499 0.960 . S
C497 H500 0.961 . S
H498 C497 0.959 . S
H499 C497 0.960 . S
H500 C497 0.961 . S
O501 Co476 1.967 . S
O501 C509 1.258 . S
O502 Co477 1.941 . S
O502 C509 1.266 . S
H503 C505 0.959 . S
H504 C505 0.961 . S
C505 C495 1.510 . S
C505 H503 0.959 . S
C505 H504 0.961 . S
C505 H506 0.960 . S
H506 C505 0.960 . S
H507 N487 0.862 . S
O508 Co476 1.920 . S
O508 C481 1.289 . S
C509 O501 1.258 . S
C509 O502 1.266 . S
Co510 O513 1.970 . S
Co510 N527 1.989 . S
Co510 O535 1.967 . S
Co510 O542 1.920 . S
Co511 O514 1.966 . S
Co511 N520 2.022 . S
Co511 N528 1.993 . S
Co511 O536 1.941 . S
C512 O513 1.258 . S
C512 O514 1.263 . S
O513 Co510 1.970 . S
O513 C512 1.258 . S
O514 Co511 1.966 . S
O514 C512 1.263 . S
C515 O516 1.235 . S
C515 O542 1.289 . S
O516 C515 1.235 . S
C517 C519 1.400 . S
C517 N520 1.351 . S
C517 C522 1.501 . S
C518 C519 1.387 . S
C518 N521 1.341 . S
C519 C517 1.400 . S
C519 C518 1.387 . S
N520 Co511 2.022 . S
N520 C517 1.351 . S
N520 N521 1.365 . S
N521 C518 1.341 . S
N521 N520 1.365 . S
N521 H541 0.862 . S
C522 C517 1.501 . S
C522 H523 0.961 . S
C522 H524 0.961 . S
C522 H525 0.960 . S
H523 C522 0.961 . S
H524 C522 0.961 . S
H525 C522 0.960 . S
C526 N527 1.342 . S
C526 C530 1.401 . S
C526 C531 1.499 . S
N527 Co510 1.989 . S
N527 C526 1.342 . S
N527 N528 1.388 . S
N528 Co511 1.993 . S
N528 N527 1.388 . S
N528 C529 1.346 . S
C529 N528 1.346 . S
C529 C530 1.396 . S
C529 C539 1.510 . S
C530 C526 1.401 . S
C530 C529 1.396 . S
C531 C526 1.499 . S
C531 H532 0.959 . S
C531 H533 0.960 . S
C531 H534 0.961 . S
H532 C531 0.959 . S
H533 C531 0.960 . S
H534 C531 0.961 . S
O535 Co510 1.967 . S
O535 C543 1.258 . S
O536 Co511 1.941 . S
O536 C543 1.266 . S
H537 C539 0.959 . S
H538 C539 0.961 . S
C539 C529 1.510 . S
C539 H537 0.959 . S
C539 H538 0.961 . S
C539 H540 0.960 . S
H540 C539 0.960 . S
H541 N521 0.862 . S
O542 Co510 1.920 . S
O542 C515 1.289 . S
C543 O535 1.258 . S
C543 O536 1.266 . S
C544 C545 1.391 . S
C544 C546 1.394 . S
C544 H560 0.931 . S
C545 C544 1.391 . S
C545 C549 1.376 . S
C546 C544 1.394 . S
C546 C547 1.369 . S
C546 C550 1.531 . S
C547 C546 1.369 . S
C547 C548 1.410 . S
C547 C555 1.503 1_556 S
C548 C547 1.410 . S
C548 C549 1.392 . S
C548 C551 1.511 . S
C549 C545 1.376 . S
C549 C548 1.392 . S
C549 H561 0.929 . S
C550 C546 1.531 . S
C550 H562 0.960 1_556 S
C550 H563 0.962 . S
C550 H564 0.960 . S
C551 C548 1.511 . S
C551 H565 0.961 . S
C551 H566 0.961 1_556 S
C551 H567 0.961 1_556 S
C552 C553 1.370 . S
C552 C554 1.363 1_554 S
C552 H568 0.931 . S
C553 C552 1.370 . S
C553 C557 1.408 . S
C554 C552 1.363 1_556 S
C554 C555 1.370 1_556 S
C554 C558 1.524 . S
C555 C547 1.503 1_554 S
C555 C554 1.370 1_554 S
C555 C556 1.403 . S
C556 C555 1.403 . S
C556 C557 1.404 . S
C556 C559 1.539 . S
C557 C553 1.408 . S
C557 C556 1.404 . S
C557 H569 0.930 . S
C558 C554 1.524 . S
C558 H570 0.956 . S
C558 H571 0.961 . S
C558 H572 0.961 . S
C559 C556 1.539 . S
C559 H573 0.958 . S
C559 H574 0.961 . S
C559 H575 0.960 . S
H560 C544 0.931 . S
H561 C549 0.929 . S
H562 C550 0.960 1_554 S
H563 C550 0.962 . S
H564 C550 0.960 . S
H565 C551 0.961 . S
H566 C551 0.961 1_554 S
H567 C551 0.961 1_554 S
H568 C552 0.931 . S
H569 C557 0.930 . S
H570 C558 0.956 . S
H571 C558 0.961 . S
H572 C558 0.961 . S
H573 C559 0.958 . S
H574 C559 0.961 . S
H575 C559 0.960 . S
C576 C577 1.391 . S
C576 C578 1.394 . S
C576 H592 0.931 . S
C577 C576 1.391 . S
C577 C581 1.376 . S
C578 C576 1.394 . S
C578 C579 1.369 . S
C578 C582 1.531 . S
C579 C578 1.369 . S
C579 C580 1.410 . S
C579 C587 1.503 1_556 S
C580 C579 1.410 . S
C580 C581 1.392 . S
C580 C583 1.511 1_556 S
C581 C577 1.376 . S
C581 C580 1.392 . S
C581 H593 0.929 1_455 S
C582 C578 1.531 . S
C582 H594 0.960 . S
C582 H595 0.962 . S
C582 H596 0.960 . S
C583 C580 1.511 1_554 S
C583 H597 0.961 . S
C583 H598 0.961 . S
C583 H599 0.961 . S
C584 C585 1.370 . S
C584 C586 1.363 . S
C584 H600 0.931 . S
C585 C584 1.370 . S
C585 C589 1.408 . S
C586 C584 1.363 . S
C586 C587 1.370 . S
C586 C590 1.524 1_554 S
C587 C579 1.503 1_554 S
C587 C586 1.370 . S
C587 C588 1.403 . S
C588 C587 1.403 . S
C588 C589 1.404 . S
C588 C591 1.539 . S
C589 C585 1.408 . S
C589 C588 1.404 . S
C589 H601 0.930 . S
C590 C586 1.524 1_556 S
C590 H602 0.956 . S
C590 H603 0.961 . S
C590 H604 0.961 . S
C591 C588 1.539 . S
C591 H605 0.958 . S
C591 H606 0.961 . S
C591 H607 0.960 . S
H592 C576 0.931 . S
H593 C581 0.929 1_655 S
H594 C582 0.960 . S
H595 C582 0.962 . S
H596 C582 0.960 . S
H597 C583 0.961 . S
H598 C583 0.961 . S
H599 C583 0.961 . S
H600 C584 0.931 . S
H601 C589 0.930 . S
H602 C590 0.956 . S
H603 C590 0.961 . S
H604 C590 0.961 . S
H605 C591 0.958 . S
H606 C591 0.961 . S
H607 C591 0.960 . S
C608 C609 1.391 . S
C608 C610 1.394 . S
C608 H624 0.931 . S
C609 C608 1.391 . S
C609 C613 1.376 . S
C610 C608 1.394 . S
C610 C611 1.369 . S
C610 C614 1.531 . S
C611 C610 1.369 . S
C611 C612 1.410 . S
C611 C619 1.503 . S
C612 C611 1.410 . S
C612 C613 1.392 . S
C612 C615 1.511 . S
C613 C609 1.376 . S
C613 C612 1.392 . S
C613 H625 0.929 . S
C614 C610 1.531 . S
C614 H626 0.960 . S
C614 H627 0.962 . S
C614 H628 0.960 . S
C615 C612 1.511 . S
C615 H629 0.961 . S
C615 H630 0.961 . S
C615 H631 0.961 . S
C616 C617 1.370 . S
C616 C618 1.363 . S
C616 H632 0.931 . S
C617 C616 1.370 . S
C617 C621 1.408 . S
C618 C616 1.363 . S
C618 C619 1.370 . S
C618 C622 1.524 . S
C619 C611 1.503 . S
C619 C618 1.370 . S
C619 C620 1.403 . S
C620 C619 1.403 . S
C620 C621 1.404 . S
C620 C623 1.539 . S
C621 C617 1.408 . S
C621 C620 1.404 . S
C621 H633 0.930 . S
C622 C618 1.524 . S
C622 H634 0.956 . S
C622 H635 0.961 . S
C622 H636 0.961 . S
C623 C620 1.539 . S
C623 H637 0.958 . S
C623 H638 0.961 . S
C623 H639 0.960 . S
H624 C608 0.931 . S
H625 C613 0.929 . S
H626 C614 0.960 . S
H627 C614 0.962 . S
H628 C614 0.960 . S
H629 C615 0.961 . S
H630 C615 0.961 . S
H631 C615 0.961 . S
H632 C616 0.931 . S
H633 C621 0.930 . S
H634 C622 0.956 . S
H635 C622 0.961 . S
H636 C622 0.961 . S
H637 C623 0.958 . S
H638 C623 0.961 . S
H639 C623 0.960 . S
C640 C641 1.391 . S
C640 C642 1.394 . S
C640 H656 0.931 . S
C641 C640 1.391 . S
C641 C645 1.376 . S
C642 C640 1.394 . S
C642 C643 1.369 . S
C642 C646 1.531 . S
C643 C642 1.369 . S
C643 C644 1.410 . S
C643 C651 1.503 . S
C644 C643 1.410 . S
C644 C645 1.392 . S
C644 C647 1.511 . S
C645 C641 1.376 . S
C645 C644 1.392 . S
C645 H657 0.929 . S
C646 C642 1.531 . S
C646 H658 0.960 . S
C646 H659 0.962 . S
C646 H660 0.960 . S
C647 C644 1.511 . S
C647 H661 0.961 . S
C647 H662 0.961 . S
C647 H663 0.961 . S
C648 C649 1.370 . S
C648 C650 1.363 . S
C648 H664 0.931 . S
C649 C648 1.370 . S
C649 C653 1.408 . S
C650 C648 1.363 . S
C650 C651 1.370 . S
C650 C654 1.524 . S
C651 C643 1.503 . S
C651 C650 1.370 . S
C651 C652 1.403 . S
C652 C651 1.403 . S
C652 C653 1.404 . S
C652 C655 1.539 . S
C653 C649 1.408 . S
C653 C652 1.404 . S
C653 H665 0.930 . S
C654 C650 1.524 . S
C654 H666 0.956 . S
C654 H667 0.961 . S
C654 H668 0.961 . S
C655 C652 1.539 . S
C655 H669 0.958 . S
C655 H670 0.961 . S
C655 H671 0.960 . S
H656 C640 0.931 . S
H657 C645 0.929 . S
H658 C646 0.960 . S
H659 C646 0.962 . S
H660 C646 0.960 . S
H661 C647 0.961 . S
H662 C647 0.961 . S
H663 C647 0.961 . S
H664 C648 0.931 . S
H665 C653 0.930 . S
H666 C654 0.956 . S
H667 C654 0.961 . S
H668 C654 0.961 . S
H669 C655 0.958 . S
H670 C655 0.961 . S
H671 C655 0.960 . S
C672 C673 1.391 . S
C672 C674 1.394 . S
C672 H688 0.931 . S
C673 C672 1.391 . S
C673 C677 1.376 . S
C674 C672 1.394 . S
C674 C675 1.369 . S
C674 C678 1.531 . S
C675 C674 1.369 . S
C675 C676 1.410 1_556 S
C675 C683 1.503 1_556 S
C676 C675 1.410 1_554 S
C676 C677 1.392 1_554 S
C676 C679 1.511 . S
C677 C673 1.376 . S
C677 C676 1.392 1_556 S
C677 H689 0.929 . S
C678 C674 1.531 . S
C678 H690 0.960 . S
C678 H691 0.962 . S
C678 H692 0.960 . S
C679 C676 1.511 . S
C679 H693 0.961 . S
C679 H694 0.961 . S
C679 H695 0.961 . S
C680 C681 1.370 . S
C680 C682 1.363 . S
C680 H696 0.931 . S
C681 C680 1.370 . S
C681 C685 1.408 . S
C682 C680 1.363 . S
C682 C683 1.370 . S
C682 C686 1.524 . S
C683 C675 1.503 1_554 S
C683 C682 1.370 . S
C683 C684 1.403 . S
C684 C683 1.403 . S
C684 C685 1.404 . S
C684 C687 1.539 1_554 S
C685 C681 1.408 . S
C685 C684 1.404 . S
C685 H697 0.930 . S
C686 C682 1.524 . S
C686 H698 0.956 . S
C686 H699 0.961 . S
C686 H700 0.961 . S
C687 C684 1.539 1_556 S
C687 H701 0.958 . S
C687 H702 0.961 1_556 S
C687 H703 0.960 . S
H688 C672 0.931 . S
H689 C677 0.929 . S
H690 C678 0.960 . S
H691 C678 0.962 . S
H692 C678 0.960 . S
H693 C679 0.961 . S
H694 C679 0.961 . S
H695 C679 0.961 . S
H696 C680 0.931 . S
H697 C685 0.930 . S
H698 C686 0.956 . S
H699 C686 0.961 . S
H700 C686 0.961 . S
H701 C687 0.958 . S
H702 C687 0.961 1_554 S
H703 C687 0.960 . S
C704 C705 1.391 . S
C704 C706 1.394 . S
C704 H720 0.931 . S
C705 C704 1.391 . S
C705 C709 1.376 . S
C706 C704 1.394 . S
C706 C707 1.401 . S
C706 C710 1.531 . S
C707 C706 1.401 . S
C707 C708 1.399 1_556 S
C707 C715 1.483 1_556 S
C708 C707 1.399 1_554 S
C708 C709 1.392 1_554 S
C708 C711 1.511 . S
C709 C705 1.376 . S
C709 C708 1.392 1_556 S
C709 H721 0.929 . S
C710 C706 1.531 . S
C710 H722 0.960 . S
C710 H723 0.962 . S
C710 H724 0.960 . S
C711 C708 1.511 . S
C711 H725 0.961 . S
C711 H726 0.961 . S
C711 H727 0.961 . S
C712 C713 1.370 . S
C712 C714 1.363 . S
C712 H728 0.931 . S
C713 C712 1.370 . S
C713 C717 1.408 . S
C714 C712 1.363 . S
C714 C715 1.370 . S
C714 C718 1.524 1_554 S
C715 C707 1.483 1_554 S
C715 C714 1.370 . S
C715 C716 1.403 . S
C716 C715 1.403 . S
C716 C717 1.404 . S
C716 C719 1.539 . S
C717 C713 1.408 . S
C717 C716 1.404 . S
C717 H729 0.930 . S
C718 C714 1.524 1_556 S
C718 H730 0.956 . S
C718 H731 0.961 . S
C718 H732 0.961 . S
C719 C716 1.539 . S
C719 H733 0.958 . S
C719 H734 0.961 . S
C719 H735 0.960 . S
H720 C704 0.931 . S
H721 C709 0.929 . S
H722 C710 0.960 . S
H723 C710 0.962 . S
H724 C710 0.960 . S
H725 C711 0.961 . S
H726 C711 0.961 . S
H727 C711 0.961 . S
H728 C712 0.931 . S
H729 C717 0.930 . S
H730 C718 0.956 . S
H731 C718 0.961 . S
H732 C718 0.961 . S
H733 C719 0.958 . S
H734 C719 0.961 . S
H735 C719 0.960 . S
C736 C737 1.391 . S
C736 C738 1.394 . S
C736 H752 0.931 . S
C737 C736 1.391 . S
C737 C741 1.376 . S
C738 C736 1.394 . S
C738 C739 1.369 . S
C738 C742 1.531 . S
C739 C738 1.369 . S
C739 C740 1.410 . S
C739 C747 1.503 . S
C740 C739 1.410 . S
C740 C741 1.392 . S
C740 C743 1.511 . S
C741 C737 1.376 . S
C741 C740 1.392 . S
C741 H753 0.929 . S
C742 C738 1.531 . S
C742 H754 0.960 . S
C742 H755 0.962 . S
C742 H756 0.960 . S
C743 C740 1.511 . S
C743 H757 0.961 . S
C743 H758 0.961 . S
C743 H759 0.961 . S
C744 C745 1.370 . S
C744 C746 1.363 . S
C744 H760 0.931 . S
C745 C744 1.370 . S
C745 C749 1.408 . S
C746 C744 1.363 . S
C746 C747 1.370 . S
C746 C750 1.524 . S
C747 C739 1.503 . S
C747 C746 1.370 . S
C747 C748 1.403 . S
C748 C747 1.403 . S
C748 C749 1.404 . S
C748 C751 1.539 . S
C749 C745 1.408 . S
C749 C748 1.404 . S
C749 H761 0.930 . S
C750 C746 1.524 . S
C750 H762 0.956 . S
C750 H763 0.961 . S
C750 H764 0.961 . S
C751 C748 1.539 . S
C751 H765 0.958 . S
C751 H766 0.961 . S
C751 H767 0.960 . S
H752 C736 0.931 . S
H753 C741 0.929 . S
H754 C742 0.960 . S
H755 C742 0.962 . S
H756 C742 0.960 . S
H757 C743 0.961 . S
H758 C743 0.961 . S
H759 C743 0.961 . S
H760 C744 0.931 . S
H761 C749 0.930 . S
H762 C750 0.956 . S
H763 C750 0.961 . S
H764 C750 0.961 . S
H765 C751 0.958 . S
H766 C751 0.961 . S
H767 C751 0.960 . S
C768 C769 1.391 . S
C768 C770 1.394 . S
C768 H784 0.931 . S
C769 C768 1.391 . S
C769 C773 1.376 . S
C770 C768 1.394 . S
C770 C771 1.369 . S
C770 C774 1.531 . S
C771 C770 1.369 . S
C771 C772 1.410 . S
C771 C779 1.503 . S
C772 C771 1.410 . S
C772 C773 1.392 . S
C772 C775 1.511 . S
C773 C769 1.376 . S
C773 C772 1.392 . S
C773 H785 0.929 . S
C774 C770 1.531 . S
C774 H786 0.960 . S
C774 H787 0.962 . S
C774 H788 0.960 . S
C775 C772 1.511 . S
C775 H789 0.961 . S
C775 H790 0.961 . S
C775 H791 0.961 . S
C776 C777 1.370 . S
C776 C778 1.363 . S
C776 H792 0.931 . S
C777 C776 1.370 . S
C777 C781 1.408 . S
C778 C776 1.363 . S
C778 C779 1.370 . S
C778 C782 1.524 . S
C779 C771 1.503 . S
C779 C778 1.370 . S
C779 C780 1.403 . S
C780 C779 1.403 . S
C780 C781 1.404 . S
C780 C783 1.539 . S
C781 C777 1.408 . S
C781 C780 1.404 . S
C781 H793 0.930 . S
C782 C778 1.524 . S
C782 H794 0.956 . S
C782 H795 0.961 . S
C782 H796 0.961 . S
C783 C780 1.539 . S
C783 H797 0.958 . S
C783 H798 0.961 . S
C783 H799 0.960 . S
H784 C768 0.931 . S
H785 C773 0.929 . S
H786 C774 0.960 . S
H787 C774 0.962 . S
H788 C774 0.960 . S
H789 C775 0.961 . S
H790 C775 0.961 . S
H791 C775 0.961 . S
H792 C776 0.931 . S
H793 C781 0.930 . S
H794 C782 0.956 . S
H795 C782 0.961 . S
H796 C782 0.961 . S
H797 C783 0.958 . S
H798 C783 0.961 . S
H799 C783 0.960 . S
C800 C801 1.391 . S
C800 C802 1.394 . S
C800 H816 0.931 . S
C801 C800 1.391 . S
C801 C805 1.376 . S
C802 C800 1.394 . S
C802 C803 1.369 . S
C802 C806 1.531 1_554 S
C803 C802 1.369 . S
C803 C804 1.410 . S
C803 C811 1.503 1_554 S
C804 C803 1.410 . S
C804 C805 1.392 . S
C804 C807 1.511 . S
C805 C801 1.376 . S
C805 C804 1.392 . S
C805 H817 0.929 . S
C806 C802 1.531 1_556 S
C806 H818 0.960 . S
C806 H819 0.962 . S
C806 H820 0.960 . S
C807 C804 1.511 . S
C807 H821 0.961 . S
C807 H822 0.961 . S
C807 H823 0.961 . S
C808 C809 1.370 . S
C808 C810 1.363 . S
C808 H824 0.931 . S
C809 C808 1.370 . S
C809 C813 1.408 . S
C810 C808 1.363 . S
C810 C811 1.370 . S
C810 C814 1.524 . S
C811 C803 1.503 1_556 S
C811 C810 1.370 . S
C811 C812 1.403 . S
C812 C811 1.403 . S
C812 C813 1.404 . S
C812 C815 1.539 1_556 S
C813 C809 1.408 . S
C813 C812 1.404 . S
C813 H825 0.930 1_655 S
C814 C810 1.524 . S
C814 H826 0.956 . S
C814 H827 0.961 . S
C814 H828 0.961 . S
C815 C812 1.539 1_554 S
C815 H829 0.958 . S
C815 H830 0.961 . S
C815 H831 0.960 . S
H816 C800 0.931 . S
H817 C805 0.929 . S
H818 C806 0.960 . S
H819 C806 0.962 . S
H820 C806 0.960 . S
H821 C807 0.961 . S
H822 C807 0.961 . S
H823 C807 0.961 . S
H824 C808 0.931 . S
H825 C813 0.930 1_455 S
H826 C814 0.956 . S
H827 C814 0.961 . S
H828 C814 0.961 . S
H829 C815 0.958 . S
H830 C815 0.961 . S
H831 C815 0.960 . S
C832 C833 1.391 . S
C832 C834 1.394 1_554 S
C832 H848 0.931 . S
C833 C832 1.391 . S
C833 C837 1.376 . S
C834 C832 1.394 1_556 S
C834 C835 1.369 1_556 S
C834 C838 1.531 . S
C835 C834 1.369 1_554 S
C835 C836 1.410 . S
C835 C843 1.503 1_554 S
C836 C835 1.410 . S
C836 C837 1.392 . S
C836 C839 1.511 . S
C837 C833 1.376 . S
C837 C836 1.392 . S
C837 H849 0.929 . S
C838 C834 1.531 . S
C838 H850 0.960 . S
C838 H851 0.962 . S
C838 H852 0.960 . S
C839 C836 1.511 . S
C839 H853 0.961 . S
C839 H854 0.961 . S
C839 H855 0.961 . S
C840 C841 1.370 . S
C840 C842 1.363 . S
C840 H856 0.931 . S
C841 C840 1.370 . S
C841 C845 1.408 . S
C842 C840 1.363 . S
C842 C843 1.370 . S
C842 C846 1.524 . S
C843 C835 1.503 1_556 S
C843 C842 1.370 . S
C843 C844 1.403 . S
C844 C843 1.403 . S
C844 C845 1.404 . S
C844 C847 1.539 . S
C845 C841 1.408 . S
C845 C844 1.404 . S
C845 H857 0.930 . S
C846 C842 1.524 . S
C846 H858 0.956 . S
C846 H859 0.961 . S
C846 H860 0.961 . S
C847 C844 1.539 . S
C847 H861 0.958 . S
C847 H862 0.961 . S
C847 H863 0.960 1_556 S
H848 C832 0.931 . S
H849 C837 0.929 . S
H850 C838 0.960 . S
H851 C838 0.962 . S
H852 C838 0.960 . S
H853 C839 0.961 . S
H854 C839 0.961 . S
H855 C839 0.961 . S
H856 C840 0.931 . S
H857 C845 0.930 . S
H858 C846 0.956 . S
H859 C846 0.961 . S
H860 C846 0.961 . S
H861 C847 0.958 . S
H862 C847 0.961 . S
H863 C847 0.960 1_554 S
C864 C865 1.391 . S
C864 C866 1.394 . S
C864 H880 0.931 . S
C865 C864 1.391 . S
C865 C869 1.376 . S
C866 C864 1.394 . S
C866 C867 1.369 . S
C866 C870 1.531 . S
C867 C866 1.369 . S
C867 C868 1.410 . S
C867 C875 1.503 . S
C868 C867 1.410 . S
C868 C869 1.392 . S
C868 C871 1.511 . S
C869 C865 1.376 . S
C869 C868 1.392 . S
C869 H881 0.929 . S
C870 C866 1.531 . S
C870 H882 0.960 . S
C870 H883 0.962 . S
C870 H884 0.960 . S
C871 C868 1.511 . S
C871 H885 0.961 . S
C871 H886 0.961 . S
C871 H887 0.961 . S
C872 C873 1.370 . S
C872 C874 1.363 . S
C872 H888 0.931 . S
C873 C872 1.370 . S
C873 C877 1.408 . S
C874 C872 1.363 . S
C874 C875 1.370 . S
C874 C878 1.524 . S
C875 C867 1.503 . S
C875 C874 1.370 . S
C875 C876 1.403 . S
C876 C875 1.403 . S
C876 C877 1.404 . S
C876 C879 1.539 . S
C877 C873 1.408 . S
C877 C876 1.404 . S
C877 H889 0.930 . S
C878 C874 1.524 . S
C878 H890 0.956 . S
C878 H891 0.961 . S
C878 H892 0.961 . S
C879 C876 1.539 . S
C879 H893 0.958 . S
C879 H894 0.961 . S
C879 H895 0.960 . S
H880 C864 0.931 . S
H881 C869 0.929 . S
H882 C870 0.960 . S
H883 C870 0.962 . S
H884 C870 0.960 . S
H885 C871 0.961 . S
H886 C871 0.961 . S
H887 C871 0.961 . S
H888 C872 0.931 . S
H889 C877 0.930 . S
H890 C878 0.956 . S
H891 C878 0.961 . S
H892 C878 0.961 . S
H893 C879 0.958 . S
H894 C879 0.961 . S
H895 C879 0.960 . S
C896 C897 1.391 . S
C896 C898 1.394 . S
C896 H912 0.931 . S
C897 C896 1.391 . S
C897 C901 1.376 . S
C898 C896 1.394 . S
C898 C899 1.369 . S
C898 C902 1.531 . S
C899 C898 1.369 . S
C899 C900 1.410 . S
C899 C907 1.503 . S
C900 C899 1.410 . S
C900 C901 1.392 . S
C900 C903 1.511 . S
C901 C897 1.376 . S
C901 C900 1.392 . S
C901 H913 0.929 . S
C902 C898 1.531 . S
C902 H914 0.960 . S
C902 H915 0.962 . S
C902 H916 0.960 . S
C903 C900 1.511 . S
C903 H917 0.961 . S
C903 H918 0.961 . S
C903 H919 0.961 . S
C904 C905 1.370 . S
C904 C906 1.363 . S
C904 H920 0.931 . S
C905 C904 1.370 . S
C905 C909 1.408 . S
C906 C904 1.363 . S
C906 C907 1.370 . S
C906 C910 1.524 . S
C907 C899 1.503 . S
C907 C906 1.370 . S
C907 C908 1.403 . S
C908 C907 1.403 . S
C908 C909 1.404 . S
C908 C911 1.539 . S
C909 C905 1.408 . S
C909 C908 1.404 . S
C909 H921 0.930 1_455 S
C910 C906 1.524 . S
C910 H922 0.956 . S
C910 H923 0.961 . S
C910 H924 0.961 . S
C911 C908 1.539 . S
C911 H925 0.958 . S
C911 H926 0.961 . S
C911 H927 0.960 . S
H912 C896 0.931 . S
H913 C901 0.929 . S
H914 C902 0.960 . S
H915 C902 0.962 . S
H916 C902 0.960 . S
H917 C903 0.961 . S
H918 C903 0.961 . S
H919 C903 0.961 . S
H920 C904 0.931 . S
H921 C909 0.930 1_655 S
H922 C910 0.956 . S
H923 C910 0.961 . S
H924 C910 0.961 . S
H925 C911 0.958 . S
H926 C911 0.961 . S
H927 C911 0.960 . S
C928 C929 1.391 . S
C928 C930 1.394 . S
C928 H944 0.931 . S
C929 C928 1.391 . S
C929 C933 1.376 . S
C930 C928 1.394 . S
C930 C931 1.369 . S
C930 C934 1.531 1_556 S
C931 C930 1.369 . S
C931 C932 1.410 . S
C931 C939 1.503 1_556 S
C932 C931 1.410 . S
C932 C933 1.392 . S
C932 C935 1.511 . S
C933 C929 1.376 . S
C933 C932 1.392 . S
C933 H945 0.929 . S
C934 C930 1.531 1_554 S
C934 H946 0.960 . S
C934 H947 0.962 . S
C934 H948 0.960 . S
C935 C932 1.511 . S
C935 H949 0.961 . S
C935 H950 0.961 . S
C935 H951 0.961 . S
C936 C937 1.370 . S
C936 C938 1.363 . S
C936 H952 0.931 . S
C937 C936 1.370 . S
C937 C941 1.408 . S
C938 C936 1.363 . S
C938 C939 1.370 . S
C938 C942 1.524 . S
C939 C931 1.503 1_554 S
C939 C938 1.370 . S
C939 C940 1.403 . S
C940 C939 1.403 . S
C940 C941 1.404 . S
C940 C943 1.539 1_554 S
C941 C937 1.408 . S
C941 C940 1.404 . S
C941 H953 0.930 . S
C942 C938 1.524 . S
C942 H954 0.956 . S
C942 H955 0.961 . S
C942 H956 0.961 . S
C943 C940 1.539 1_556 S
C943 H957 0.958 . S
C943 H958 0.961 . S
C943 H959 0.960 . S
H944 C928 0.931 . S
H945 C933 0.929 . S
H946 C934 0.960 . S
H947 C934 0.962 . S
H948 C934 0.960 . S
H949 C935 0.961 . S
H950 C935 0.961 . S
H951 C935 0.961 . S
H952 C936 0.931 . S
H953 C941 0.930 . S
H954 C942 0.956 . S
H955 C942 0.961 . S
H956 C942 0.961 . S
H957 C943 0.958 . S
H958 C943 0.961 . S
H959 C943 0.960 . S
C960 C961 1.391 . S
C960 C962 1.394 . S
C960 H976 0.931 . S
C961 C960 1.391 . S
C961 C965 1.376 . S
C962 C960 1.394 . S
C962 C963 1.369 . S
C962 C966 1.531 . S
C963 C962 1.369 . S
C963 C964 1.410 1_556 S
C963 C971 1.503 1_556 S
C964 C963 1.410 1_554 S
C964 C965 1.392 1_554 S
C964 C967 1.511 . S
C965 C961 1.376 . S
C965 C964 1.392 1_556 S
C965 H977 0.929 . S
C966 C962 1.531 . S
C966 H978 0.960 . S
C966 H979 0.962 . S
C966 H980 0.960 . S
C967 C964 1.511 . S
C967 H981 0.961 . S
C967 H982 0.961 . S
C967 H983 0.961 . S
C968 C969 1.370 . S
C968 C970 1.363 . S
C968 H984 0.931 . S
C969 C968 1.370 . S
C969 C973 1.408 . S
C970 C968 1.363 . S
C970 C971 1.370 . S
C970 C974 1.524 1_554 S
C971 C963 1.503 1_554 S
C971 C970 1.370 . S
C971 C972 1.403 . S
C972 C971 1.403 . S
C972 C973 1.404 . S
C972 C975 1.539 . S
C973 C969 1.408 . S
C973 C972 1.404 . S
C973 H985 0.930 . S
C974 C970 1.524 1_556 S
C974 H986 0.956 . S
C974 H987 0.957 1_556 S
C974 H988 0.956 1_556 S
C975 C972 1.539 . S
C975 H989 0.958 . S
C975 H990 0.961 . S
C975 H991 0.960 . S
H976 C960 0.931 . S
H977 C965 0.929 . S
H978 C966 0.960 . S
H979 C966 0.962 . S
H980 C966 0.960 . S
H981 C967 0.961 . S
H982 C967 0.961 . S
H983 C967 0.961 . S
H984 C968 0.931 . S
H985 C973 0.930 . S
H986 C974 0.956 . S
H987 C974 0.957 1_554 S
H988 C974 0.956 1_554 S
H989 C975 0.958 . S
H990 C975 0.961 . S
H991 C975 0.960 . S
C992 C993 1.391 . S
C992 C994 1.394 . S
C992 H1008 0.931 . S
C993 C992 1.391 . S
C993 C997 1.376 . S
C994 C992 1.394 . S
C994 C995 1.369 . S
C994 C998 1.531 . S
C995 C994 1.369 . S
C995 C996 1.410 . S
C995 C1003 1.503 . S
C996 C995 1.410 . S
C996 C997 1.392 . S
C996 C999 1.511 . S
C997 C993 1.376 . S
C997 C996 1.392 . S
C997 H1009 0.929 . S
C998 C994 1.531 . S
C998 H1010 0.960 . S
C998 H1011 0.962 . S
C998 H1012 0.960 . S
C999 C996 1.511 . S
C999 H1013 0.961 . S
C999 H1014 0.961 . S
C999 H1015 0.961 . S
C1000 C1001 1.370 . S
C1000 C1002 1.363 . S
C1000 H1016 0.931 . S
C1001 C1000 1.370 . S
C1001 C1005 1.408 . S
C1002 C1000 1.363 . S
C1002 C1003 1.370 . S
C1002 C1006 1.524 . S
C1003 C995 1.503 . S
C1003 C1002 1.370 . S
C1003 C1004 1.403 . S
C1004 C1003 1.403 . S
C1004 C1005 1.404 . S
C1004 C1007 1.539 . S
C1005 C1001 1.408 . S
C1005 C1004 1.404 . S
C1005 H1017 0.930 . S
C1006 C1002 1.524 . S
C1006 H1018 0.956 . S
C1006 H1019 0.961 . S
C1006 H1020 0.961 . S
C1007 C1004 1.539 . S
C1007 H1021 0.958 . S
C1007 H1022 0.961 . S
C1007 H1023 0.960 . S
H1008 C992 0.931 . S
H1009 C997 0.929 . S
H1010 C998 0.960 . S
H1011 C998 0.962 . S
H1012 C998 0.960 . S
H1013 C999 0.961 . S
H1014 C999 0.961 . S
H1015 C999 0.961 . S
H1016 C1000 0.931 . S
H1017 C1005 0.930 . S
H1018 C1006 0.956 . S
H1019 C1006 0.961 . S
H1020 C1006 0.961 . S
H1021 C1007 0.958 . S
H1022 C1007 0.961 . S
H1023 C1007 0.960 . S
C1024 C1025 1.391 . S
C1024 C1026 1.394 . S
C1024 H1040 0.931 1_655 S
C1025 C1024 1.391 . S
C1025 C1029 1.376 . S
C1026 C1024 1.394 . S
C1026 C1027 1.369 . S
C1026 C1030 1.531 . S
C1027 C1026 1.369 . S
C1027 C1028 1.410 . S
C1027 C1035 1.503 . S
C1028 C1027 1.410 . S
C1028 C1029 1.392 . S
C1028 C1031 1.511 . S
C1029 C1025 1.376 . S
C1029 C1028 1.392 . S
C1029 H1041 0.929 . S
C1030 C1026 1.531 . S
C1030 H1042 0.960 . S
C1030 H1043 0.962 . S
C1030 H1044 0.960 . S
C1031 C1028 1.511 . S
C1031 H1045 0.961 . S
C1031 H1046 0.961 . S
C1031 H1047 0.961 . S
C1032 C1033 1.370 . S
C1032 C1034 1.363 . S
C1032 H1048 0.931 . S
C1033 C1032 1.370 . S
C1033 C1037 1.408 . S
C1034 C1032 1.363 . S
C1034 C1035 1.370 . S
C1034 C1038 1.524 . S
C1035 C1027 1.503 . S
C1035 C1034 1.370 . S
C1035 C1036 1.403 . S
C1036 C1035 1.403 . S
C1036 C1037 1.404 . S
C1036 C1039 1.539 . S
C1037 C1033 1.408 . S
C1037 C1036 1.404 . S
C1037 H1049 0.930 . S
C1038 C1034 1.524 . S
C1038 H1050 0.956 . S
C1038 H1051 0.961 . S
C1038 H1052 0.961 . S
C1039 C1036 1.539 . S
C1039 H1053 0.958 . S
C1039 H1054 0.961 . S
C1039 H1055 0.960 . S
H1040 C1024 0.931 1_455 S
H1041 C1029 0.929 . S
H1042 C1030 0.960 . S
H1043 C1030 0.962 . S
H1044 C1030 0.960 . S
H1045 C1031 0.961 . S
H1046 C1031 0.961 . S
H1047 C1031 0.961 . S
H1048 C1032 0.931 . S
H1049 C1037 0.930 . S
H1050 C1038 0.956 . S
H1051 C1038 0.961 . S
H1052 C1038 0.961 . S
H1053 C1039 0.958 . S
H1054 C1039 0.961 . S
H1055 C1039 0.960 . S
C1056 C1057 1.391 . S
C1056 C1058 1.394 . S
C1056 H1072 0.931 . S
C1057 C1056 1.391 . S
C1057 C1061 1.376 . S
C1058 C1056 1.394 . S
C1058 C1059 1.369 . S
C1058 C1062 1.531 . S
C1059 C1058 1.369 . S
C1059 C1060 1.410 . S
C1059 C1067 1.503 1_545 S
C1060 C1059 1.410 . S
C1060 C1061 1.392 . S
C1060 C1063 1.511 . S
C1061 C1057 1.376 . S
C1061 C1060 1.392 . S
C1061 H1073 0.929 . S
C1062 C1058 1.531 . S
C1062 H1074 0.960 1_545 S
C1062 H1075 0.962 . S
C1062 H1076 0.960 . S
C1063 C1060 1.511 . S
C1063 H1077 0.961 . S
C1063 H1078 0.961 1_545 S
C1063 H1079 0.961 1_545 S
C1064 C1065 1.370 . S
C1064 C1066 1.363 . S
C1064 H1080 0.931 . S
C1065 C1064 1.370 . S
C1065 C1069 1.408 . S
C1066 C1064 1.363 . S
C1066 C1067 1.370 . S
C1066 C1070 1.524 1_565 S
C1067 C1059 1.503 1_565 S
C1067 C1066 1.370 . S
C1067 C1068 1.403 . S
C1068 C1067 1.403 . S
C1068 C1069 1.404 . S
C1068 C1071 1.539 . S
C1069 C1065 1.408 . S
C1069 C1068 1.404 . S
C1069 H1081 0.930 . S
C1070 C1066 1.524 1_545 S
C1070 H1082 0.956 . S
C1070 H1083 0.961 . S
C1070 H1084 0.961 . S
C1071 C1068 1.539 . S
C1071 H1085 0.958 . S
C1071 H1086 0.961 . S
C1071 H1087 0.960 . S
H1072 C1056 0.931 . S
H1073 C1061 0.929 . S
H1074 C1062 0.960 1_565 S
H1075 C1062 0.962 . S
H1076 C1062 0.960 . S
H1077 C1063 0.961 . S
H1078 C1063 0.961 1_565 S
H1079 C1063 0.961 1_565 S
H1080 C1064 0.931 . S
H1081 C1069 0.930 . S
H1082 C1070 0.956 . S
H1083 C1070 0.961 . S
H1084 C1070 0.961 . S
H1085 C1071 0.958 . S
H1086 C1071 0.961 . S
H1087 C1071 0.960 . S
C1088 C1089 1.391 . S
C1088 C1090 1.394 . S
C1088 H1104 0.931 . S
C1089 C1088 1.391 . S
C1089 C1093 1.376 . S
C1090 C1088 1.394 . S
C1090 C1091 1.369 . S
C1090 C1094 1.531 . S
C1091 C1090 1.369 . S
C1091 C1092 1.410 . S
C1091 C1099 1.503 1_565 S
C1092 C1091 1.410 . S
C1092 C1093 1.392 . S
C1092 C1095 1.511 1_565 S
C1093 C1089 1.376 . S
C1093 C1092 1.392 . S
C1093 H1105 0.929 . S
C1094 C1090 1.531 . S
C1094 H1106 0.960 . S
C1094 H1107 0.962 . S
C1094 H1108 0.960 . S
C1095 C1092 1.511 1_545 S
C1095 H1109 0.961 1_545 S
C1095 H1110 0.961 . S
C1095 H1111 0.961 . S
C1096 C1097 1.370 . S
C1096 C1098 1.363 . S
C1096 H1112 0.931 . S
C1097 C1096 1.370 . S
C1097 C1101 1.408 . S
C1098 C1096 1.363 . S
C1098 C1099 1.370 . S
C1098 C1102 1.524 1_545 S
C1099 C1091 1.503 1_545 S
C1099 C1098 1.370 . S
C1099 C1100 1.403 . S
C1100 C1099 1.403 . S
C1100 C1101 1.404 . S
C1100 C1103 1.539 . S
C1101 C1097 1.408 . S
C1101 C1100 1.404 . S
C1101 H1113 0.930 . S
C1102 C1098 1.524 1_565 S
C1102 H1114 0.956 . S
C1102 H1115 0.961 . S
C1102 H1116 0.945 1_565 S
C1103 C1100 1.539 . S
C1103 H1117 0.958 . S
C1103 H1118 0.961 . S
C1103 H1119 0.960 . S
H1104 C1088 0.931 . S
H1105 C1093 0.929 . S
H1106 C1094 0.960 . S
H1107 C1094 0.962 . S
H1108 C1094 0.960 . S
H1109 C1095 0.961 1_565 S
H1110 C1095 0.961 . S
H1111 C1095 0.961 . S
H1112 C1096 0.931 . S
H1113 C1101 0.930 . S
H1114 C1102 0.956 . S
H1115 C1102 0.961 . S
H1116 C1102 0.945 1_545 S
H1117 C1103 0.958 . S
H1118 C1103 0.961 . S
H1119 C1103 0.960 . S
C1120 C1121 1.391 . S
C1120 C1122 1.394 . S
C1120 H1136 0.931 . S
C1121 C1120 1.391 . S
C1121 C1125 1.376 . S
C1122 C1120 1.394 . S
C1122 C1123 1.369 . S
C1122 C1126 1.531 . S
C1123 C1122 1.369 . S
C1123 C1124 1.410 . S
C1123 C1131 1.503 1_545 S
C1124 C1123 1.410 . S
C1124 C1125 1.392 . S
C1124 C1127 1.511 1_545 S
C1125 C1121 1.376 . S
C1125 C1124 1.392 . S
C1125 H1137 0.929 . S
C1126 C1122 1.531 . S
C1126 H1138 0.960 . S
C1126 H1139 0.962 . S
C1126 H1140 0.960 . S
C1127 C1124 1.511 1_565 S
C1127 H1141 0.961 . S
C1127 H1142 0.961 . S
C1127 H1143 0.961 . S
C1128 C1129 1.370 . S
C1128 C1130 1.363 . S
C1128 H1144 0.931 . S
C1129 C1128 1.370 . S
C1129 C1133 1.408 . S
C1130 C1128 1.363 . S
C1130 C1131 1.370 . S
C1130 C1134 1.524 . S
C1131 C1123 1.503 1_565 S
C1131 C1130 1.370 . S
C1131 C1132 1.403 . S
C1132 C1131 1.403 . S
C1132 C1133 1.404 . S
C1132 C1135 1.539 . S
C1133 C1129 1.408 . S
C1133 C1132 1.404 . S
C1133 H1145 0.930 . S
C1134 C1130 1.524 . S
C1134 H1146 0.956 1_565 S
C1134 H1147 0.961 . S
C1134 H1148 0.961 . S
C1135 C1132 1.539 . S
C1135 H1149 0.958 . S
C1135 H1150 0.961 . S
C1135 H1151 0.960 . S
H1136 C1120 0.931 . S
H1137 C1125 0.929 . S
H1138 C1126 0.960 . S
H1139 C1126 0.962 . S
H1140 C1126 0.960 . S
H1141 C1127 0.961 . S
H1142 C1127 0.961 . S
H1143 C1127 0.961 . S
H1144 C1128 0.931 . S
H1145 C1133 0.930 . S
H1146 C1134 0.956 1_545 S
H1147 C1134 0.961 . S
H1148 C1134 0.961 . S
H1149 C1135 0.958 . S
H1150 C1135 0.961 . S
H1151 C1135 0.960 . S
C1152 C1153 1.391 . S
C1152 C1154 1.394 . S
C1152 H1168 0.931 . S
C1153 C1152 1.391 . S
C1153 C1157 1.376 . S
C1154 C1152 1.394 . S
C1154 C1155 1.369 . S
C1154 C1158 1.531 . S
C1155 C1154 1.369 . S
C1155 C1156 1.410 . S
C1155 C1163 1.503 1_565 S
C1156 C1155 1.410 . S
C1156 C1157 1.392 . S
C1156 C1159 1.511 1_565 S
C1157 C1153 1.376 . S
C1157 C1156 1.392 . S
C1157 H1169 0.929 . S
C1158 C1154 1.531 . S
C1158 H1170 0.960 . S
C1158 H1171 0.962 . S
C1158 H1172 0.960 . S
C1159 C1156 1.511 1_545 S
C1159 H1173 0.981 . S
C1159 H1174 0.961 . S
C1159 H1175 0.961 . S
C1160 C1161 1.370 . S
C1160 C1162 1.363 . S
C1160 H1176 0.931 . S
C1161 C1160 1.370 . S
C1161 C1165 1.408 . S
C1162 C1160 1.363 . S
C1162 C1163 1.370 . S
C1162 C1166 1.527 . S
C1163 C1155 1.503 1_545 S
C1163 C1162 1.370 . S
C1163 C1164 1.403 . S
C1164 C1163 1.403 . S
C1164 C1165 1.404 . S
C1164 C1167 1.539 . S
C1165 C1161 1.408 . S
C1165 C1164 1.404 . S
C1165 H1177 0.930 . S
C1166 C1162 1.527 . S
C1166 H1178 0.952 1_545 S
C1166 H1179 0.959 1_545 S
C1166 H1180 0.963 . S
C1167 C1164 1.539 . S
C1167 H1181 0.958 . S
C1167 H1182 0.961 . S
C1167 H1183 0.960 . S
H1168 C1152 0.931 . S
H1169 C1157 0.929 . S
H1170 C1158 0.960 . S
H1171 C1158 0.962 . S
H1172 C1158 0.960 . S
H1173 C1159 0.981 . S
H1174 C1159 0.961 . S
H1175 C1159 0.961 . S
H1176 C1160 0.931 . S
H1177 C1165 0.930 . S
H1178 C1166 0.952 1_565 S
H1179 C1166 0.959 1_565 S
H1180 C1166 0.963 . S
H1181 C1167 0.958 . S
H1182 C1167 0.961 . S
H1183 C1167 0.960 . S
C1184 C1185 1.391 . S
C1184 C1186 1.394 . S
C1184 H1200 0.931 . S
C1185 C1184 1.391 . S
C1185 C1189 1.376 . S
C1186 C1184 1.394 . S
C1186 C1187 1.369 . S
C1186 C1190 1.531 . S
C1187 C1186 1.369 . S
C1187 C1188 1.410 . S
C1187 C1195 1.503 . S
C1188 C1187 1.410 . S
C1188 C1189 1.392 . S
C1188 C1191 1.511 . S
C1189 C1185 1.376 . S
C1189 C1188 1.392 . S
C1189 H1201 0.929 . S
C1190 C1186 1.531 . S
C1190 H1202 0.960 . S
C1190 H1203 0.962 . S
C1190 H1204 0.960 . S
C1191 C1188 1.511 . S
C1191 H1205 0.961 . S
C1191 H1206 0.961 . S
C1191 H1207 0.961 . S
C1192 C1193 1.370 . S
C1192 C1194 1.363 . S
C1192 H1208 0.931 . S
C1193 C1192 1.370 . S
C1193 C1197 1.408 . S
C1194 C1192 1.363 . S
C1194 C1195 1.370 . S
C1194 C1198 1.524 . S
C1195 C1187 1.503 . S
C1195 C1194 1.370 . S
C1195 C1196 1.403 . S
C1196 C1195 1.403 . S
C1196 C1197 1.404 . S
C1196 C1199 1.539 . S
C1197 C1193 1.408 . S
C1197 C1196 1.404 . S
C1197 H1209 0.930 . S
C1198 C1194 1.524 . S
C1198 H1210 0.956 . S
C1198 H1211 0.961 . S
C1198 H1212 0.961 . S
C1199 C1196 1.539 . S
C1199 H1213 0.958 . S
C1199 H1214 0.961 . S
C1199 H1215 0.960 . S
H1200 C1184 0.931 . S
H1201 C1189 0.929 . S
H1202 C1190 0.960 . S
H1203 C1190 0.962 . S
H1204 C1190 0.960 . S
H1205 C1191 0.961 . S
H1206 C1191 0.961 . S
H1207 C1191 0.961 . S
H1208 C1192 0.931 . S
H1209 C1197 0.930 . S
H1210 C1198 0.956 . S
H1211 C1198 0.961 . S
H1212 C1198 0.961 . S
H1213 C1199 0.958 . S
H1214 C1199 0.961 . S
H1215 C1199 0.960 . S
C1216 C1217 1.391 . S
C1216 C1218 1.394 . S
C1216 H1232 0.931 . S
C1217 C1216 1.391 . S
C1217 C1221 1.376 . S
C1218 C1216 1.394 . S
C1218 C1219 1.369 . S
C1218 C1222 1.531 . S
C1219 C1218 1.369 . S
C1219 C1220 1.410 . S
C1219 C1227 1.503 . S
C1220 C1219 1.410 . S
C1220 C1221 1.392 . S
C1220 C1223 1.511 . S
C1221 C1217 1.376 . S
C1221 C1220 1.392 . S
C1221 H1233 0.929 . S
C1222 C1218 1.531 . S
C1222 H1234 0.960 . S
C1222 H1235 0.962 . S
C1222 H1236 0.960 . S
C1223 C1220 1.511 . S
C1223 H1237 0.961 . S
C1223 H1238 0.961 . S
C1223 H1239 0.961 . S
C1224 C1225 1.370 . S
C1224 C1226 1.363 . S
C1224 H1240 0.931 . S
C1225 C1224 1.370 . S
C1225 C1229 1.408 . S
C1226 C1224 1.363 . S
C1226 C1227 1.370 . S
C1226 C1230 1.524 . S
C1227 C1219 1.503 . S
C1227 C1226 1.370 . S
C1227 C1228 1.403 . S
C1228 C1227 1.403 . S
C1228 C1229 1.404 . S
C1228 C1231 1.539 . S
C1229 C1225 1.408 . S
C1229 C1228 1.404 . S
C1229 H1241 0.930 . S
C1230 C1226 1.524 . S
C1230 H1242 0.956 . S
C1230 H1243 0.961 . S
C1230 H1244 0.961 . S
C1231 C1228 1.539 . S
C1231 H1245 0.958 . S
C1231 H1246 0.961 . S
C1231 H1247 0.960 . S
H1232 C1216 0.931 . S
H1233 C1221 0.929 . S
H1234 C1222 0.960 . S
H1235 C1222 0.962 . S
H1236 C1222 0.960 . S
H1237 C1223 0.961 . S
H1238 C1223 0.961 . S
H1239 C1223 0.961 . S
H1240 C1224 0.931 . S
H1241 C1229 0.930 . S
H1242 C1230 0.956 . S
H1243 C1230 0.961 . S
H1244 C1230 0.961 . S
H1245 C1231 0.958 . S
H1246 C1231 0.961 . S
H1247 C1231 0.960 . S
C1248 C1249 1.391 . S
C1248 C1250 1.394 . S
C1248 H1264 0.931 . S
C1249 C1248 1.391 . S
C1249 C1253 1.376 . S
C1250 C1248 1.394 . S
C1250 C1251 1.369 . S
C1250 C1254 1.531 . S
C1251 C1250 1.369 . S
C1251 C1252 1.410 . S
C1251 C1259 1.503 . S
C1252 C1251 1.410 . S
C1252 C1253 1.392 . S
C1252 C1255 1.511 . S
C1253 C1249 1.376 . S
C1253 C1252 1.392 . S
C1253 H1265 0.929 . S
C1254 C1250 1.531 . S
C1254 H1266 0.960 . S
C1254 H1267 0.962 . S
C1254 H1268 0.960 . S
C1255 C1252 1.511 . S
C1255 H1269 0.961 . S
C1255 H1270 0.961 . S
C1255 H1271 0.961 . S
C1256 C1257 1.370 . S
C1256 C1258 1.363 . S
C1256 H1272 0.931 . S
C1257 C1256 1.370 . S
C1257 C1261 1.408 . S
C1258 C1256 1.363 . S
C1258 C1259 1.370 . S
C1258 C1262 1.524 . S
C1259 C1251 1.503 . S
C1259 C1258 1.370 . S
C1259 C1260 1.403 . S
C1260 C1259 1.403 . S
C1260 C1261 1.404 . S
C1260 C1263 1.539 . S
C1261 C1257 1.408 . S
C1261 C1260 1.404 . S
C1261 H1273 0.930 . S
C1262 C1258 1.524 . S
C1262 H1274 0.956 . S
C1262 H1275 0.961 . S
C1262 H1276 0.961 . S
C1263 C1260 1.539 . S
C1263 H1277 0.958 . S
C1263 H1278 0.961 . S
C1263 H1279 0.960 . S
H1264 C1248 0.931 . S
H1265 C1253 0.929 . S
H1266 C1254 0.960 . S
H1267 C1254 0.962 . S
H1268 C1254 0.960 . S
H1269 C1255 0.961 . S
H1270 C1255 0.961 . S
H1271 C1255 0.961 . S
H1272 C1256 0.931 . S
H1273 C1261 0.930 . S
H1274 C1262 0.956 . S
H1275 C1262 0.961 . S
H1276 C1262 0.961 . S
H1277 C1263 0.958 . S
H1278 C1263 0.961 . S
H1279 C1263 0.960 . S
C1280 C1281 1.391 . S
C1280 C1282 1.394 . S
C1280 H1296 0.931 . S
C1281 C1280 1.391 . S
C1281 C1285 1.376 . S
C1282 C1280 1.394 . S
C1282 C1283 1.369 . S
C1282 C1286 1.531 . S
C1283 C1282 1.369 . S
C1283 C1284 1.410 . S
C1283 C1291 1.503 . S
C1284 C1283 1.410 . S
C1284 C1285 1.392 . S
C1284 C1287 1.511 . S
C1285 C1281 1.376 . S
C1285 C1284 1.392 . S
C1285 H1297 0.929 . S
C1286 C1282 1.531 . S
C1286 H1298 0.960 . S
C1286 H1299 0.962 . S
C1286 H1300 0.960 . S
C1287 C1284 1.511 . S
C1287 H1301 0.961 . S
C1287 H1302 0.961 . S
C1287 H1303 0.961 . S
C1288 C1289 1.370 . S
C1288 C1290 1.363 . S
C1288 H1304 0.931 . S
C1289 C1288 1.370 . S
C1289 C1293 1.408 . S
C1290 C1288 1.363 . S
C1290 C1291 1.370 . S
C1290 C1294 1.524 . S
C1291 C1283 1.503 . S
C1291 C1290 1.370 . S
C1291 C1292 1.403 . S
C1292 C1291 1.403 . S
C1292 C1293 1.404 . S
C1292 C1295 1.539 . S
C1293 C1289 1.408 . S
C1293 C1292 1.404 . S
C1293 H1305 0.930 . S
C1294 C1290 1.524 . S
C1294 H1306 0.956 . S
C1294 H1307 0.961 . S
C1294 H1308 0.961 . S
C1295 C1292 1.539 . S
C1295 H1309 0.958 . S
C1295 H1310 0.961 . S
C1295 H1311 0.960 . S
H1296 C1280 0.931 . S
H1297 C1285 0.929 . S
H1298 C1286 0.960 . S
H1299 C1286 0.962 . S
H1300 C1286 0.960 . S
H1301 C1287 0.961 . S
H1302 C1287 0.961 . S
H1303 C1287 0.961 . S
H1304 C1288 0.931 . S
H1305 C1293 0.930 . S
H1306 C1294 0.956 . S
H1307 C1294 0.961 . S
H1308 C1294 0.961 . S
H1309 C1295 0.958 . S
H1310 C1295 0.961 . S
H1311 C1295 0.960 . S
C1312 C1313 1.391 . S
C1312 C1314 1.394 . S
C1312 H1328 0.931 . S
C1313 C1312 1.391 . S
C1313 C1317 1.376 . S
C1314 C1312 1.394 . S
C1314 C1315 1.369 . S
C1314 C1318 1.531 . S
C1315 C1314 1.369 . S
C1315 C1316 1.410 . S
C1315 C1323 1.503 1_655 S
C1316 C1315 1.410 . S
C1316 C1317 1.392 . S
C1316 C1319 1.511 . S
C1317 C1313 1.376 . S
C1317 C1316 1.392 . S
C1317 H1329 0.929 . S
C1318 C1314 1.531 . S
C1318 H1330 0.960 . S
C1318 H1331 0.962 1_655 S
C1318 H1332 0.960 . S
C1319 C1316 1.511 . S
C1319 H1333 0.961 . S
C1319 H1334 0.961 . S
C1319 H1335 0.961 . S
C1320 C1321 1.370 . S
C1320 C1322 1.363 . S
C1320 H1336 0.931 . S
C1321 C1320 1.370 . S
C1321 C1325 1.408 . S
C1322 C1320 1.363 . S
C1322 C1323 1.370 . S
C1322 C1326 1.524 . S
C1323 C1315 1.503 1_455 S
C1323 C1322 1.370 . S
C1323 C1324 1.403 1_455 S
C1324 C1323 1.403 1_655 S
C1324 C1325 1.404 1_655 S
C1324 C1327 1.539 . S
C1325 C1321 1.408 . S
C1325 C1324 1.404 1_455 S
C1325 H1337 0.930 1_455 S
C1326 C1322 1.524 . S
C1326 H1338 0.956 . S
C1326 H1339 0.961 . S
C1326 H1340 0.961 . S
C1327 C1324 1.539 . S
C1327 H1341 0.958 . S
C1327 H1342 0.961 . S
C1327 H1343 0.960 . S
H1328 C1312 0.931 . S
H1329 C1317 0.929 . S
H1330 C1318 0.960 . S
H1331 C1318 0.962 1_455 S
H1332 C1318 0.960 . S
H1333 C1319 0.961 . S
H1334 C1319 0.961 . S
H1335 C1319 0.961 . S
H1336 C1320 0.931 . S
H1337 C1325 0.930 1_655 S
H1338 C1326 0.956 . S
H1339 C1326 0.961 . S
H1340 C1326 0.961 . S
H1341 C1327 0.958 . S
H1342 C1327 0.961 . S
H1343 C1327 0.960 . S
C1344 C1345 1.391 . S
C1344 C1346 1.394 . S
C1344 H1360 0.931 . S
C1345 C1344 1.391 . S
C1345 C1349 1.376 . S
C1346 C1344 1.394 . S
C1346 C1347 1.369 . S
C1346 C1350 1.531 . S
C1347 C1346 1.369 . S
C1347 C1348 1.410 . S
C1347 C1355 1.503 . S
C1348 C1347 1.410 . S
C1348 C1349 1.392 . S
C1348 C1351 1.511 . S
C1349 C1345 1.376 . S
C1349 C1348 1.392 . S
C1349 H1361 0.929 . S
C1350 C1346 1.531 . S
C1350 H1362 0.960 . S
C1350 H1363 0.962 . S
C1350 H1364 0.960 . S
C1351 C1348 1.511 . S
C1351 H1365 0.961 . S
C1351 H1366 0.961 . S
C1351 H1367 0.961 . S
C1352 C1353 1.370 . S
C1352 C1354 1.363 . S
C1352 H1368 0.931 . S
C1353 C1352 1.370 . S
C1353 C1357 1.408 . S
C1354 C1352 1.363 . S
C1354 C1355 1.370 . S
C1354 C1358 1.524 . S
C1355 C1347 1.503 . S
C1355 C1354 1.370 . S
C1355 C1356 1.403 . S
C1356 C1355 1.403 . S
C1356 C1357 1.404 . S
C1356 C1359 1.539 . S
C1357 C1353 1.408 . S
C1357 C1356 1.404 . S
C1357 H1369 0.930 . S
C1358 C1354 1.524 . S
C1358 H1370 0.956 . S
C1358 H1371 0.961 . S
C1358 H1372 0.961 . S
C1359 C1356 1.539 . S
C1359 H1373 0.958 . S
C1359 H1374 0.961 . S
C1359 H1375 0.960 . S
H1360 C1344 0.931 . S
H1361 C1349 0.929 . S
H1362 C1350 0.960 . S
H1363 C1350 0.962 . S
H1364 C1350 0.960 . S
H1365 C1351 0.961 . S
H1366 C1351 0.961 . S
H1367 C1351 0.961 . S
H1368 C1352 0.931 . S
H1369 C1357 0.930 . S
H1370 C1358 0.956 . S
H1371 C1358 0.961 . S
H1372 C1358 0.961 . S
H1373 C1359 0.958 . S
H1374 C1359 0.961 . S
H1375 C1359 0.960 . S
C1376 C1377 1.391 . S
C1376 C1378 1.394 . S
C1376 H1392 0.931 . S
C1377 C1376 1.391 . S
C1377 C1381 1.376 . S
C1378 C1376 1.394 . S
C1378 C1379 1.369 . S
C1378 C1382 1.531 . S
C1379 C1378 1.369 . S
C1379 C1380 1.410 . S
C1379 C1387 1.503 . S
C1380 C1379 1.410 . S
C1380 C1381 1.392 . S
C1380 C1383 1.511 . S
C1381 C1377 1.376 . S
C1381 C1380 1.392 . S
C1381 H1393 0.929 . S
C1382 C1378 1.531 . S
C1382 H1394 0.960 . S
C1382 H1395 0.962 . S
C1382 H1396 0.960 . S
C1383 C1380 1.511 . S
C1383 H1397 0.961 . S
C1383 H1398 0.961 . S
C1383 H1399 0.961 . S
C1384 C1385 1.370 . S
C1384 C1386 1.363 . S
C1384 H1400 0.931 . S
C1385 C1384 1.370 . S
C1385 C1389 1.408 . S
C1386 C1384 1.363 . S
C1386 C1387 1.370 . S
C1386 C1390 1.524 . S
C1387 C1379 1.503 . S
C1387 C1386 1.370 . S
C1387 C1388 1.403 . S
C1388 C1387 1.403 . S
C1388 C1389 1.404 . S
C1388 C1391 1.539 . S
C1389 C1385 1.408 . S
C1389 C1388 1.404 . S
C1389 H1401 0.930 . S
C1390 C1386 1.524 . S
C1390 H1402 0.956 . S
C1390 H1403 0.961 . S
C1390 H1404 0.961 . S
C1391 C1388 1.539 . S
C1391 H1405 0.958 . S
C1391 H1406 0.961 . S
C1391 H1407 0.960 . S
H1392 C1376 0.931 . S
H1393 C1381 0.929 . S
H1394 C1382 0.960 . S
H1395 C1382 0.962 . S
H1396 C1382 0.960 . S
H1397 C1383 0.961 . S
H1398 C1383 0.961 . S
H1399 C1383 0.961 . S
H1400 C1384 0.931 . S
H1401 C1389 0.930 . S
H1402 C1390 0.956 . S
H1403 C1390 0.961 . S
H1404 C1390 0.961 . S
H1405 C1391 0.958 . S
H1406 C1391 0.961 . S
H1407 C1391 0.960 . S
C1408 C1409 1.391 . S
C1408 C1410 1.394 . S
C1408 H1424 0.931 . S
C1409 C1408 1.391 . S
C1409 C1413 1.376 . S
C1410 C1408 1.394 . S
C1410 C1411 1.369 . S
C1410 C1414 1.531 1_455 S
C1411 C1410 1.369 . S
C1411 C1412 1.410 . S
C1411 C1419 1.503 1_455 S
C1412 C1411 1.410 . S
C1412 C1413 1.392 . S
C1412 C1415 1.511 . S
C1413 C1409 1.376 . S
C1413 C1412 1.392 . S
C1413 H1425 0.929 . S
C1414 C1410 1.531 1_655 S
C1414 H1426 0.960 . S
C1414 H1427 0.969 . S
C1414 H1428 0.960 . S
C1415 C1412 1.511 . S
C1415 H1429 0.961 . S
C1415 H1430 0.961 . S
C1415 H1431 0.961 1_455 S
C1416 C1417 1.370 . S
C1416 C1418 1.363 1_655 S
C1416 H1432 0.931 1_655 S
C1417 C1416 1.370 . S
C1417 C1421 1.408 . S
C1418 C1416 1.363 1_455 S
C1418 C1419 1.370 1_455 S
C1418 C1422 1.524 . S
C1419 C1411 1.503 1_655 S
C1419 C1418 1.370 1_655 S
C1419 C1420 1.403 . S
C1420 C1419 1.403 . S
C1420 C1421 1.404 . S
C1420 C1423 1.539 . S
C1421 C1417 1.408 . S
C1421 C1420 1.404 . S
C1421 H1433 0.930 . S
C1422 C1418 1.524 . S
C1422 H1434 0.956 . S
C1422 H1435 0.961 . S
C1422 H1436 0.961 . S
C1423 C1420 1.539 . S
C1423 H1437 0.958 . S
C1423 H1438 0.961 . S
C1423 H1439 0.960 . S
H1424 C1408 0.931 . S
H1425 C1413 0.929 . S
H1426 C1414 0.960 . S
H1427 C1414 0.969 . S
H1428 C1414 0.960 . S
H1429 C1415 0.961 . S
H1430 C1415 0.961 . S
H1431 C1415 0.961 1_655 S
H1432 C1416 0.931 1_455 S
H1433 C1421 0.930 . S
H1434 C1422 0.956 . S
H1435 C1422 0.961 . S
H1436 C1422 0.961 . S
H1437 C1423 0.958 . S
H1438 C1423 0.961 . S
H1439 C1423 0.960 . S
C1440 C1441 1.391 . S
C1440 C1442 1.394 . S
C1440 H1456 0.931 . S
C1441 C1440 1.391 . S
C1441 C1445 1.376 . S
C1442 C1440 1.394 . S
C1442 C1443 1.369 . S
C1442 C1446 1.531 . S
C1443 C1442 1.369 . S
C1443 C1444 1.410 1_655 S
C1443 C1451 1.503 1_655 S
C1444 C1443 1.410 1_455 S
C1444 C1445 1.392 1_455 S
C1444 C1447 1.511 . S
C1445 C1441 1.376 . S
C1445 C1444 1.392 1_655 S
C1445 H1457 0.929 . S
C1446 C1442 1.531 . S
C1446 H1458 0.960 . S
C1446 H1459 0.962 . S
C1446 H1460 0.960 . S
C1447 C1444 1.511 . S
C1447 H1461 0.961 . S
C1447 H1462 0.961 . S
C1447 H1463 0.961 . S
C1448 C1449 1.370 . S
C1448 C1450 1.363 . S
C1448 H1464 0.931 . S
C1449 C1448 1.370 . S
C1449 C1453 1.408 . S
C1450 C1448 1.363 . S
C1450 C1451 1.370 . S
C1450 C1454 1.524 1_455 S
C1451 C1443 1.503 1_455 S
C1451 C1450 1.370 . S
C1451 C1452 1.403 . S
C1452 C1451 1.403 . S
C1452 C1453 1.404 . S
C1452 C1455 1.539 . S
C1453 C1449 1.408 . S
C1453 C1452 1.404 . S
C1453 H1465 0.930 . S
C1454 C1450 1.524 1_655 S
C1454 H1466 0.956 . S
C1454 H1467 0.961 . S
C1454 H1468 0.961 . S
C1455 C1452 1.539 . S
C1455 H1469 0.958 . S
C1455 H1470 0.961 . S
C1455 H1471 0.960 . S
H1456 C1440 0.931 . S
H1457 C1445 0.929 . S
H1458 C1446 0.960 . S
H1459 C1446 0.962 . S
H1460 C1446 0.960 . S
H1461 C1447 0.961 . S
H1462 C1447 0.961 . S
H1463 C1447 0.961 . S
H1464 C1448 0.931 . S
H1465 C1453 0.930 . S
H1466 C1454 0.956 . S
H1467 C1454 0.961 . S
H1468 C1454 0.961 . S
H1469 C1455 0.958 . S
H1470 C1455 0.961 . S
H1471 C1455 0.960 . S
C1472 C1473 1.391 . S
C1472 C1474 1.394 . S
C1472 H1488 0.931 . S
C1473 C1472 1.391 . S
C1473 C1477 1.376 . S
C1474 C1472 1.394 . S
C1474 C1475 1.369 . S
C1474 C1478 1.531 . S
C1475 C1474 1.369 . S
C1475 C1476 1.410 . S
C1475 C1483 1.503 . S
C1476 C1475 1.410 . S
C1476 C1477 1.392 . S
C1476 C1479 1.511 . S
C1477 C1473 1.376 . S
C1477 C1476 1.392 . S
C1477 H1489 0.929 . S
C1478 C1474 1.531 . S
C1478 H1490 0.960 . S
C1478 H1491 0.962 . S
C1478 H1492 0.960 . S
C1479 C1476 1.511 . S
C1479 H1493 0.961 . S
C1479 H1494 0.961 . S
C1479 H1495 0.961 . S
C1480 C1481 1.370 . S
C1480 C1482 1.363 . S
C1480 H1496 0.931 . S
C1481 C1480 1.370 . S
C1481 C1485 1.408 . S
C1482 C1480 1.363 . S
C1482 C1483 1.370 . S
C1482 C1486 1.524 . S
C1483 C1475 1.503 . S
C1483 C1482 1.370 . S
C1483 C1484 1.403 . S
C1484 C1483 1.403 . S
C1484 C1485 1.404 . S
C1484 C1487 1.539 . S
C1485 C1481 1.408 . S
C1485 C1484 1.404 . S
C1485 H1497 0.930 . S
C1486 C1482 1.524 . S
C1486 H1498 0.956 . S
C1486 H1499 0.961 . S
C1486 H1500 0.961 . S
C1487 C1484 1.539 . S
C1487 H1501 0.958 . S
C1487 H1502 0.961 . S
C1487 H1503 0.960 . S
H1488 C1472 0.931 . S
H1489 C1477 0.929 . S
H1490 C1478 0.960 . S
H1491 C1478 0.962 . S
H1492 C1478 0.960 . S
H1493 C1479 0.961 . S
H1494 C1479 0.961 . S
H1495 C1479 0.961 . S
H1496 C1480 0.931 . S
H1497 C1485 0.930 . S
H1498 C1486 0.956 . S
H1499 C1486 0.961 . S
H1500 C1486 0.961 . S
H1501 C1487 0.958 . S
H1502 C1487 0.961 . S
H1503 C1487 0.960 . S
C1504 C1505 1.391 . S
C1504 C1506 1.394 . S
C1504 H1520 0.931 . S
C1505 C1504 1.391 . S
C1505 C1509 1.376 . S
C1506 C1504 1.394 . S
C1506 C1507 1.369 . S
C1506 C1510 1.531 . S
C1507 C1506 1.369 . S
C1507 C1508 1.410 . S
C1507 C1515 1.503 . S
C1508 C1507 1.410 . S
C1508 C1509 1.392 . S
C1508 C1511 1.511 . S
C1509 C1505 1.376 . S
C1509 C1508 1.392 . S
C1509 H1521 0.929 . S
C1510 C1506 1.531 . S
C1510 H1522 0.960 . S
C1510 H1523 0.962 . S
C1510 H1524 0.960 . S
C1511 C1508 1.511 . S
C1511 H1525 0.961 . S
C1511 H1526 0.961 . S
C1511 H1527 0.961 . S
C1512 C1513 1.370 . S
C1512 C1514 1.363 . S
C1512 H1528 0.931 . S
C1513 C1512 1.370 . S
C1513 C1517 1.408 . S
C1514 C1512 1.363 . S
C1514 C1515 1.370 . S
C1514 C1518 1.524 . S
C1515 C1507 1.503 . S
C1515 C1514 1.370 . S
C1515 C1516 1.403 . S
C1516 C1515 1.403 . S
C1516 C1517 1.404 . S
C1516 C1519 1.539 . S
C1517 C1513 1.408 . S
C1517 C1516 1.404 . S
C1517 H1529 0.930 . S
C1518 C1514 1.524 . S
C1518 H1530 0.956 . S
C1518 H1531 0.961 . S
C1518 H1532 0.961 . S
C1519 C1516 1.539 . S
C1519 H1533 0.958 . S
C1519 H1534 0.961 . S
C1519 H1535 0.960 . S
H1520 C1504 0.931 . S
H1521 C1509 0.929 . S
H1522 C1510 0.960 . S
H1523 C1510 0.962 . S
H1524 C1510 0.960 . S
H1525 C1511 0.961 . S
H1526 C1511 0.961 . S
H1527 C1511 0.961 . S
H1528 C1512 0.931 . S
H1529 C1517 0.930 . S
H1530 C1518 0.956 . S
H1531 C1518 0.961 . S
H1532 C1518 0.961 . S
H1533 C1519 0.958 . S
H1534 C1519 0.961 . S
H1535 C1519 0.960 . S
C1536 C1537 1.391 . S
C1536 C1538 1.386 1_655 S
C1536 H1552 0.931 . S
C1537 C1536 1.391 . S
C1537 C1541 1.376 . S
C1538 C1536 1.386 1_455 S
C1538 C1539 1.362 1_455 S
C1538 C1542 1.546 . S
C1539 C1538 1.362 1_655 S
C1539 C1540 1.410 . S
C1539 C1547 1.503 1_655 S
C1540 C1539 1.410 . S
C1540 C1541 1.392 . S
C1540 C1543 1.511 . S
C1541 C1537 1.376 . S
C1541 C1540 1.392 . S
C1541 H1553 0.929 . S
C1542 C1538 1.546 . S
C1542 H1554 0.960 . S
C1542 H1555 0.962 . S
C1542 H1556 0.960 . S
C1543 C1540 1.511 . S
C1543 H1557 0.961 . S
C1543 H1558 0.961 . S
C1543 H1559 0.961 . S
C1544 C1545 1.370 . S
C1544 C1546 1.363 . S
C1544 H1560 0.931 . S
C1545 C1544 1.370 . S
C1545 C1549 1.408 . S
C1546 C1544 1.363 . S
C1546 C1547 1.370 . S
C1546 C1550 1.524 . S
C1547 C1539 1.503 1_455 S
C1547 C1546 1.370 . S
C1547 C1548 1.405 . S
C1548 C1547 1.405 . S
C1548 C1549 1.412 . S
C1548 C1551 1.528 1_455 S
C1549 C1545 1.408 . S
C1549 C1548 1.412 . S
C1549 H1561 0.930 . S
C1550 C1546 1.524 . S
C1550 H1562 0.956 . S
C1550 H1563 0.961 . S
C1550 H1564 0.961 . S
C1551 C1548 1.528 1_655 S
C1551 H1565 0.958 . S
C1551 H1566 0.961 . S
C1551 H1567 0.960 . S
H1552 C1536 0.931 . S
H1553 C1541 0.929 . S
H1554 C1542 0.960 . S
H1555 C1542 0.962 . S
H1556 C1542 0.960 . S
H1557 C1543 0.961 . S
H1558 C1543 0.961 . S
H1559 C1543 0.961 . S
H1560 C1544 0.931 . S
H1561 C1549 0.930 . S
H1562 C1550 0.956 . S
H1563 C1550 0.961 . S
H1564 C1550 0.961 . S
H1565 C1551 0.958 . S
H1566 C1551 0.961 . S
H1567 C1551 0.960 . S
C1568 C1569 1.391 1_655 S
C1568 C1570 1.394 . S
C1568 H1584 0.931 . S
C1569 C1568 1.391 1_455 S
C1569 C1573 1.376 . S
C1570 C1568 1.394 . S
C1570 C1571 1.369 1_655 S
C1570 C1574 1.531 . S
C1571 C1570 1.369 1_455 S
C1571 C1572 1.410 . S
C1571 C1579 1.503 1_455 S
C1572 C1571 1.410 . S
C1572 C1573 1.392 . S
C1572 C1575 1.511 . S
C1573 C1569 1.376 . S
C1573 C1572 1.392 . S
C1573 H1585 0.929 . S
C1574 C1570 1.531 . S
C1574 H1586 0.960 . S
C1574 H1587 0.962 . S
C1574 H1588 0.960 . S
C1575 C1572 1.511 . S
C1575 H1589 0.961 . S
C1575 H1590 0.961 . S
C1575 H1591 0.961 . S
C1576 C1577 1.370 . S
C1576 C1578 1.363 . S
C1576 H1592 0.931 . S
C1577 C1576 1.370 . S
C1577 C1581 1.408 . S
C1578 C1576 1.363 . S
C1578 C1579 1.370 . S
C1578 C1582 1.524 . S
C1579 C1571 1.503 1_655 S
C1579 C1578 1.370 . S
C1579 C1580 1.403 1_655 S
C1580 C1579 1.403 1_455 S
C1580 C1581 1.404 1_455 S
C1580 C1583 1.539 . S
C1581 C1577 1.408 . S
C1581 C1580 1.404 1_655 S
C1581 H1593 0.930 . S
C1582 C1578 1.524 . S
C1582 H1594 0.956 . S
C1582 H1595 0.961 . S
C1582 H1596 0.961 . S
C1583 C1580 1.539 . S
C1583 H1597 0.958 . S
C1583 H1598 0.961 . S
C1583 H1599 0.960 . S
H1584 C1568 0.931 . S
H1585 C1573 0.929 . S
H1586 C1574 0.960 . S
H1587 C1574 0.962 . S
H1588 C1574 0.960 . S
H1589 C1575 0.961 . S
H1590 C1575 0.961 . S
H1591 C1575 0.961 . S
H1592 C1576 0.931 . S
H1593 C1581 0.930 . S
H1594 C1582 0.956 . S
H1595 C1582 0.961 . S
H1596 C1582 0.961 . S
H1597 C1583 0.958 . S
H1598 C1583 0.961 . S
H1599 C1583 0.960 . S
C1600 C1601 1.391 . S
C1600 C1602 1.394 . S
C1600 H1616 0.931 . S
C1601 C1600 1.391 . S
C1601 C1605 1.376 . S
C1602 C1600 1.394 . S
C1602 C1603 1.369 . S
C1602 C1606 1.531 . S
C1603 C1602 1.369 . S
C1603 C1604 1.410 . S
C1603 C1611 1.503 . S
C1604 C1603 1.410 . S
C1604 C1605 1.392 . S
C1604 C1607 1.511 . S
C1605 C1601 1.376 . S
C1605 C1604 1.392 . S
C1605 H1617 0.929 . S
C1606 C1602 1.531 . S
C1606 H1618 0.960 . S
C1606 H1619 0.962 . S
C1606 H1620 0.960 . S
C1607 C1604 1.511 . S
C1607 H1621 0.961 . S
C1607 H1622 0.961 . S
C1607 H1623 0.961 . S
C1608 C1609 1.370 . S
C1608 C1610 1.363 . S
C1608 H1624 0.931 . S
C1609 C1608 1.370 . S
C1609 C1613 1.408 . S
C1610 C1608 1.363 . S
C1610 C1611 1.370 . S
C1610 C1614 1.524 . S
C1611 C1603 1.503 . S
C1611 C1610 1.370 . S
C1611 C1612 1.403 . S
C1612 C1611 1.403 . S
C1612 C1613 1.404 . S
C1612 C1615 1.539 . S
C1613 C1609 1.408 . S
C1613 C1612 1.404 . S
C1613 H1625 0.930 . S
C1614 C1610 1.524 . S
C1614 H1626 0.956 . S
C1614 H1627 0.961 . S
C1614 H1628 0.961 . S
C1615 C1612 1.539 . S
C1615 H1629 0.958 . S
C1615 H1630 0.961 . S
C1615 H1631 0.960 . S
H1616 C1600 0.931 . S
H1617 C1605 0.929 . S
H1618 C1606 0.960 . S
H1619 C1606 0.962 . S
H1620 C1606 0.960 . S
H1621 C1607 0.961 . S
H1622 C1607 0.961 . S
H1623 C1607 0.961 . S
H1624 C1608 0.931 . S
H1625 C1613 0.930 . S
H1626 C1614 0.956 . S
H1627 C1614 0.961 . S
H1628 C1614 0.961 . S
H1629 C1615 0.958 . S
H1630 C1615 0.961 . S
H1631 C1615 0.960 . S
C1632 C1633 1.391 . S
C1632 C1634 1.394 1_655 S
C1632 H1648 0.931 1_655 S
C1633 C1632 1.391 . S
C1633 C1637 1.376 . S
C1634 C1632 1.394 1_455 S
C1634 C1635 1.369 1_455 S
C1634 C1638 1.531 . S
C1635 C1634 1.369 1_655 S
C1635 C1636 1.410 . S
C1635 C1643 1.503 1_655 S
C1636 C1635 1.410 . S
C1636 C1637 1.392 . S
C1636 C1639 1.511 . S
C1637 C1633 1.376 . S
C1637 C1636 1.392 . S
C1637 H1649 0.929 . S
C1638 C1634 1.531 . S
C1638 H1650 0.960 . S
C1638 H1651 0.962 . S
C1638 H1652 0.960 . S
C1639 C1636 1.511 . S
C1639 H1653 0.961 . S
C1639 H1654 0.961 . S
C1639 H1655 0.961 . S
C1640 C1641 1.370 . S
C1640 C1642 1.363 . S
C1640 H1656 0.931 . S
C1641 C1640 1.370 . S
C1641 C1645 1.408 . S
C1642 C1640 1.363 . S
C1642 C1643 1.370 . S
C1642 C1646 1.524 . S
C1643 C1635 1.503 1_455 S
C1643 C1642 1.370 . S
C1643 C1644 1.403 1_455 S
C1644 C1643 1.403 1_655 S
C1644 C1645 1.404 1_655 S
C1644 C1647 1.539 . S
C1645 C1641 1.408 . S
C1645 C1644 1.404 1_455 S
C1645 H1657 0.930 . S
C1646 C1642 1.524 . S
C1646 H1658 0.956 . S
C1646 H1659 0.961 . S
C1646 H1660 0.961 . S
C1647 C1644 1.539 . S
C1647 H1661 0.958 . S
C1647 H1662 0.961 . S
C1647 H1663 0.960 . S
H1648 C1632 0.931 1_455 S
H1649 C1637 0.929 . S
H1650 C1638 0.960 . S
H1651 C1638 0.962 . S
H1652 C1638 0.960 . S
H1653 C1639 0.961 . S
H1654 C1639 0.961 . S
H1655 C1639 0.961 . S
H1656 C1640 0.931 . S
H1657 C1645 0.930 . S
H1658 C1646 0.956 . S
H1659 C1646 0.961 . S
H1660 C1646 0.961 . S
H1661 C1647 0.958 . S
H1662 C1647 0.961 . S
H1663 C1647 0.960 . S
C1664 C1665 1.391 . S
C1664 C1666 1.394 . S
C1664 H1680 0.931 . S
C1665 C1664 1.391 . S
C1665 C1669 1.376 . S
C1666 C1664 1.394 . S
C1666 C1667 1.369 . S
C1666 C1670 1.531 . S
C1667 C1666 1.369 . S
C1667 C1668 1.410 . S
C1667 C1675 1.503 . S
C1668 C1667 1.410 . S
C1668 C1669 1.392 . S
C1668 C1671 1.511 . S
C1669 C1665 1.376 . S
C1669 C1668 1.392 . S
C1669 H1681 0.929 . S
C1670 C1666 1.531 . S
C1670 H1682 0.960 . S
C1670 H1683 0.962 . S
C1670 H1684 0.960 . S
C1671 C1668 1.511 . S
C1671 H1685 0.961 . S
C1671 H1686 0.961 . S
C1671 H1687 0.961 . S
C1672 C1673 1.370 . S
C1672 C1674 1.363 . S
C1672 H1688 0.931 . S
C1673 C1672 1.370 . S
C1673 C1677 1.408 . S
C1674 C1672 1.363 . S
C1674 C1675 1.370 . S
C1674 C1678 1.524 . S
C1675 C1667 1.503 . S
C1675 C1674 1.370 . S
C1675 C1676 1.403 . S
C1676 C1675 1.403 . S
C1676 C1677 1.404 . S
C1676 C1679 1.539 . S
C1677 C1673 1.408 . S
C1677 C1676 1.404 . S
C1677 H1689 0.930 . S
C1678 C1674 1.524 . S
C1678 H1690 0.956 . S
C1678 H1691 0.961 . S
C1678 H1692 0.961 . S
C1679 C1676 1.539 . S
C1679 H1693 0.958 . S
C1679 H1694 0.961 . S
C1679 H1695 0.960 . S
H1680 C1664 0.931 . S
H1681 C1669 0.929 . S
H1682 C1670 0.960 . S
H1683 C1670 0.962 . S
H1684 C1670 0.960 . S
H1685 C1671 0.961 . S
H1686 C1671 0.961 . S
H1687 C1671 0.961 . S
H1688 C1672 0.931 . S
H1689 C1677 0.930 . S
H1690 C1678 0.956 . S
H1691 C1678 0.961 . S
H1692 C1678 0.961 . S
H1693 C1679 0.958 . S
H1694 C1679 0.961 . S
H1695 C1679 0.960 . S
C1696 C1697 1.391 . S
C1696 C1698 1.394 . S
C1696 H1712 0.931 . S
C1697 C1696 1.391 . S
C1697 C1701 1.376 . S
C1698 C1696 1.394 . S
C1698 C1699 1.369 . S
C1698 C1702 1.531 . S
C1699 C1698 1.369 . S
C1699 C1700 1.410 . S
C1699 C1707 1.503 . S
C1700 C1699 1.410 . S
C1700 C1701 1.392 . S
C1700 C1703 1.511 . S
C1701 C1697 1.376 . S
C1701 C1700 1.392 . S
C1701 H1713 0.929 . S
C1702 C1698 1.531 . S
C1702 H1714 0.960 . S
C1702 H1715 0.962 . S
C1702 H1716 0.960 . S
C1703 C1700 1.511 . S
C1703 H1717 0.961 . S
C1703 H1718 0.961 . S
C1703 H1719 0.961 . S
C1704 C1705 1.370 . S
C1704 C1706 1.363 . S
C1704 H1720 0.931 . S
C1705 C1704 1.370 . S
C1705 C1709 1.408 . S
C1706 C1704 1.363 . S
C1706 C1707 1.370 . S
C1706 C1710 1.524 . S
C1707 C1699 1.503 . S
C1707 C1706 1.370 . S
C1707 C1708 1.403 . S
C1708 C1707 1.403 . S
C1708 C1709 1.404 . S
C1708 C1711 1.539 . S
C1709 C1705 1.408 . S
C1709 C1708 1.404 . S
C1709 H1721 0.930 . S
C1710 C1706 1.524 . S
C1710 H1722 0.956 . S
C1710 H1723 0.961 . S
C1710 H1724 0.961 . S
C1711 C1708 1.539 . S
C1711 H1725 0.958 . S
C1711 H1726 0.961 . S
C1711 H1727 0.960 . S
H1712 C1696 0.931 . S
H1713 C1701 0.929 . S
H1714 C1702 0.960 . S
H1715 C1702 0.962 . S
H1716 C1702 0.960 . S
H1717 C1703 0.961 . S
H1718 C1703 0.961 . S
H1719 C1703 0.961 . S
H1720 C1704 0.931 . S
H1721 C1709 0.930 . S
H1722 C1710 0.956 . S
H1723 C1710 0.961 . S
H1724 C1710 0.961 . S
H1725 C1711 0.958 . S
H1726 C1711 0.961 . S
H1727 C1711 0.960 . S
C1728 C1729 1.391 . S
C1728 C1730 1.394 1_455 S
C1728 H1744 0.931 1_455 S
C1729 C1728 1.391 . S
C1729 C1733 1.376 . S
C1730 C1728 1.394 1_655 S
C1730 C1731 1.369 1_655 S
C1730 C1734 1.531 . S
C1731 C1730 1.369 1_455 S
C1731 C1732 1.410 . S
C1731 C1739 1.503 1_455 S
C1732 C1731 1.410 . S
C1732 C1733 1.392 . S
C1732 C1735 1.511 . S
C1733 C1729 1.376 . S
C1733 C1732 1.392 . S
C1733 H1745 0.929 . S
C1734 C1730 1.531 . S
C1734 H1746 0.960 . S
C1734 H1747 0.962 . S
C1734 H1748 0.960 . S
C1735 C1732 1.511 . S
C1735 H1749 0.961 . S
C1735 H1750 0.961 . S
C1735 H1751 0.961 . S
C1736 C1737 1.370 . S
C1736 C1738 1.363 . S
C1736 H1752 0.931 . S
C1737 C1736 1.370 . S
C1737 C1741 1.408 . S
C1738 C1736 1.363 . S
C1738 C1739 1.370 . S
C1738 C1742 1.524 . S
C1739 C1731 1.503 1_655 S
C1739 C1738 1.370 . S
C1739 C1740 1.403 1_655 S
C1740 C1739 1.403 1_455 S
C1740 C1741 1.404 1_455 S
C1740 C1743 1.539 . S
C1741 C1737 1.408 . S
C1741 C1740 1.404 1_655 S
C1741 H1753 0.930 1_655 S
C1742 C1738 1.524 . S
C1742 H1754 0.956 . S
C1742 H1755 0.961 . S
C1742 H1756 0.961 . S
C1743 C1740 1.539 . S
C1743 H1757 0.958 . S
C1743 H1758 0.961 . S
C1743 H1759 0.960 . S
H1744 C1728 0.931 1_655 S
H1745 C1733 0.929 . S
H1746 C1734 0.960 . S
H1747 C1734 0.962 . S
H1748 C1734 0.960 . S
H1749 C1735 0.961 . S
H1750 C1735 0.961 . S
H1751 C1735 0.961 . S
H1752 C1736 0.931 . S
H1753 C1741 0.930 1_455 S
H1754 C1742 0.956 . S
H1755 C1742 0.961 . S
H1756 C1742 0.961 . S
H1757 C1743 0.958 . S
H1758 C1743 0.961 . S
H1759 C1743 0.960 . S
C1760 C1761 1.391 . S
C1760 C1762 1.394 . S
C1760 H1776 0.931 . S
C1761 C1760 1.391 . S
C1761 C1765 1.376 . S
C1762 C1760 1.394 . S
C1762 C1763 1.369 . S
C1762 C1766 1.531 . S
C1763 C1762 1.369 . S
C1763 C1764 1.410 . S
C1763 C1771 1.503 . S
C1764 C1763 1.410 . S
C1764 C1765 1.392 . S
C1764 C1767 1.511 . S
C1765 C1761 1.376 . S
C1765 C1764 1.392 . S
C1765 H1777 0.929 . S
C1766 C1762 1.531 . S
C1766 H1778 0.960 . S
C1766 H1779 0.962 . S
C1766 H1780 0.960 . S
C1767 C1764 1.511 . S
C1767 H1781 0.961 . S
C1767 H1782 0.961 . S
C1767 H1783 0.961 . S
C1768 C1769 1.370 . S
C1768 C1770 1.363 . S
C1768 H1784 0.931 . S
C1769 C1768 1.370 . S
C1769 C1773 1.408 . S
C1770 C1768 1.363 . S
C1770 C1771 1.370 . S
C1770 C1774 1.524 . S
C1771 C1763 1.503 . S
C1771 C1770 1.370 . S
C1771 C1772 1.403 . S
C1772 C1771 1.403 . S
C1772 C1773 1.404 . S
C1772 C1775 1.539 . S
C1773 C1769 1.408 . S
C1773 C1772 1.404 . S
C1773 H1785 0.930 . S
C1774 C1770 1.524 . S
C1774 H1786 0.956 . S
C1774 H1787 0.961 . S
C1774 H1788 0.961 . S
C1775 C1772 1.539 . S
C1775 H1789 0.958 . S
C1775 H1790 0.961 . S
C1775 H1791 0.960 . S
H1776 C1760 0.931 . S
H1777 C1765 0.929 . S
H1778 C1766 0.960 . S
H1779 C1766 0.962 . S
H1780 C1766 0.960 . S
H1781 C1767 0.961 . S
H1782 C1767 0.961 . S
H1783 C1767 0.961 . S
H1784 C1768 0.931 . S
H1785 C1773 0.930 . S
H1786 C1774 0.956 . S
H1787 C1774 0.961 . S
H1788 C1774 0.961 . S
H1789 C1775 0.958 . S
H1790 C1775 0.961 . S
H1791 C1775 0.960 . S
C1792 C1793 1.391 . S
C1792 C1794 1.394 . S
C1792 H1808 0.931 . S
C1793 C1792 1.391 . S
C1793 C1797 1.376 1_455 S
C1794 C1792 1.394 . S
C1794 C1795 1.369 . S
C1794 C1798 1.531 . S
C1795 C1794 1.369 . S
C1795 C1796 1.410 1_455 S
C1795 C1803 1.503 1_455 S
C1796 C1795 1.410 1_655 S
C1796 C1797 1.392 . S
C1796 C1799 1.511 . S
C1797 C1793 1.376 1_655 S
C1797 C1796 1.392 . S
C1797 H1809 0.929 . S
C1798 C1794 1.531 . S
C1798 H1810 0.960 . S
C1798 H1811 0.962 . S
C1798 H1812 0.960 . S
C1799 C1796 1.511 . S
C1799 H1813 0.961 . S
C1799 H1814 0.961 . S
C1799 H1815 0.961 . S
C1800 C1801 1.370 . S
C1800 C1802 1.363 1_655 S
C1800 H1816 0.931 1_655 S
C1801 C1800 1.370 . S
C1801 C1805 1.408 . S
C1802 C1800 1.363 1_455 S
C1802 C1803 1.370 1_455 S
C1802 C1806 1.524 . S
C1803 C1795 1.503 1_655 S
C1803 C1802 1.370 1_655 S
C1803 C1804 1.403 . S
C1804 C1803 1.403 . S
C1804 C1805 1.404 . S
C1804 C1807 1.539 . S
C1805 C1801 1.408 . S
C1805 C1804 1.404 . S
C1805 H1817 0.930 . S
C1806 C1802 1.524 . S
C1806 H1818 0.956 . S
C1806 H1819 0.961 . S
C1806 H1820 0.961 . S
C1807 C1804 1.539 . S
C1807 H1821 0.958 . S
C1807 H1822 0.961 . S
C1807 H1823 0.960 . S
H1808 C1792 0.931 . S
H1809 C1797 0.929 . S
H1810 C1798 0.960 . S
H1811 C1798 0.962 . S
H1812 C1798 0.960 . S
H1813 C1799 0.961 . S
H1814 C1799 0.961 . S
H1815 C1799 0.961 . S
H1816 C1800 0.931 1_455 S
H1817 C1805 0.930 . S
H1818 C1806 0.956 . S
H1819 C1806 0.961 . S
H1820 C1806 0.961 . S
H1821 C1807 0.958 . S
H1822 C1807 0.961 . S
H1823 C1807 0.960 . S
C545 C203 1.122 . S
C553 C20 1.128 . S
C577 C169 1.137 1_455 S
C585 C54 1.121 . S
C609 C88 1.109 . S
C617 C271 1.135 1_655 S
C641 C122 1.142 . S
C649 C237 1.123 . S
C673 C156 1.140 . S
C681 C67 1.123 . S
C705 C190 1.140 . S
C713 C33 1.127 1_655 S
C737 C135 1.114 1_455 S
C745 C224 1.130 . S
C769 C258 1.141 . S
C777 C101 1.123 . S
C801 C292 1.134 . S
C809 C475 1.124 1_655 S
C833 C326 1.142 . S
C841 C441 1.123 . S
C865 C360 1.142 . S
C873 C543 1.124 . S
C897 C394 1.140 . S
C905 C509 1.123 1_455 S
C929 C428 1.115 . S
C937 C339 1.129 1_455 S
C961 C462 1.141 . S
C969 C305 1.126 . S
C993 C407 1.124 . S
C1001 C496 1.133 . S
C1025 C373 1.139 1_655 S
C1033 C530 1.120 . S
C1057 C9 1.438 . S
C1065 C43 1.452 . S
C1089 C77 1.456 . S
C1097 C111 1.458 . S
C1121 C179 1.409 . S
C1129 C145 1.435 . S
C1153 C247 1.409 . S
C1161 C213 1.439 . S
C1185 C315 1.465 . S
C1193 C281 1.460 . S
C1217 C383 1.413 . S
C1225 C349 1.432 . S
C1249 C417 1.477 . S
C1257 C451 1.458 . S
C1281 C485 1.435 . S
C1289 C519 1.455 . S
C1313 C311 1.608 . S
C1321 C5 1.599 . S
C1345 C39 1.585 . S
C1353 C277 1.603 . S
C1377 C73 1.593 . S
C1385 C379 1.599 . S
C1409 C345 1.586 . S
C1417 C107 1.606 . S
C1441 C141 1.586 . S
C1449 C447 1.605 . S
C1473 C175 1.589 . S
C1481 C413 1.602 . S
C1505 C209 1.614 . S
C1513 C515 1.603 . S
C1537 C481 1.613 . S
C1545 C243 1.603 . S
C1569 C2 1.401 . S
C1577 C104 1.402 . S
C1601 C36 1.403 . S
C1609 C70 1.402 . S
C1633 C138 1.388 . S
C1641 C240 1.398 . S
C1665 C172 1.392 . S
C1673 C206 1.396 . S
C1697 C376 1.388 . S
C1705 C274 1.397 . S
C1729 C342 1.399 . S
C1737 C308 1.402 . S
C1761 C410 1.398 . S
C1769 C512 1.402 . S
C1793 C444 1.403 . S
C1801 C478 1.401 . S
