# Generated by pormake.
# Topology zfh, (5)-cn, num edge types: 1
# Building blocks:
#     Node 0, Type 0, BuildingBlock: XOMCOT_clean_sbu_1, # of connection points: 5
#     Node 1, Type 0, BuildingBlock: XOMCOT_clean_sbu_1, # of connection points: 5
#     Node 2, Type 0, BuildingBlock: XOMCOT_clean_sbu_1, # of connection points: 5
#     Node 3, Type 0, BuildingBlock: XOMCOT_clean_sbu_1, # of connection points: 5
#     Node 4, Type 0, BuildingBlock: XOMCOT_clean_sbu_1, # of connection points: 5
#     Node 5, Type 0, BuildingBlock: XOMCOT_clean_sbu_1, # of connection points: 5
#     Node 6, Type 0, BuildingBlock: XOMCOT_clean_sbu_1, # of connection points: 5
#     Node 7, Type 0, BuildingBlock: XOMCOT_clean_sbu_1, # of connection points: 5
#     Node 8, Type 0, BuildingBlock: XOMCOT_clean_sbu_1, # of connection points: 5
#     Node 9, Type 0, BuildingBlock: XOMCOT_clean_sbu_1, # of connection points: 5
#     Node 10, Type 0, BuildingBlock: XOMCOT_clean_sbu_1, # of connection points: 5
#     Node 11, Type 0, BuildingBlock: XOMCOT_clean_sbu_1, # of connection points: 5
#     Node 12, Type 0, BuildingBlock: XOMCOT_clean_sbu_1, # of connection points: 5
#     Node 13, Type 0, BuildingBlock: XOMCOT_clean_sbu_1, # of connection points: 5
#     Node 14, Type 0, BuildingBlock: XOMCOT_clean_sbu_1, # of connection points: 5
#     Node 15, Type 0, BuildingBlock: XOMCOT_clean_sbu_1, # of connection points: 5
#     Edge 16, Type (0, 0), BuildingBlock: ZUJKAS_clean_linker_0, # of connection points: 2
#     Edge 17, Type (0, 0), BuildingBlock: ZUJKAS_clean_linker_0, # of connection points: 2
#     Edge 18, Type (0, 0), BuildingBlock: ZUJKAS_clean_linker_0, # of connection points: 2
#     Edge 19, Type (0, 0), BuildingBlock: ZUJKAS_clean_linker_0, # of connection points: 2
#     Edge 20, Type (0, 0), BuildingBlock: ZUJKAS_clean_linker_0, # of connection points: 2
#     Edge 21, Type (0, 0), BuildingBlock: ZUJKAS_clean_linker_0, # of connection points: 2
#     Edge 22, Type (0, 0), BuildingBlock: ZUJKAS_clean_linker_0, # of connection points: 2
#     Edge 23, Type (0, 0), BuildingBlock: ZUJKAS_clean_linker_0, # of connection points: 2
#     Edge 24, Type (0, 0), BuildingBlock: ZUJKAS_clean_linker_0, # of connection points: 2
#     Edge 25, Type (0, 0), BuildingBlock: ZUJKAS_clean_linker_0, # of connection points: 2
#     Edge 26, Type (0, 0), BuildingBlock: ZUJKAS_clean_linker_0, # of connection points: 2
#     Edge 27, Type (0, 0), BuildingBlock: ZUJKAS_clean_linker_0, # of connection points: 2
#     Edge 28, Type (0, 0), BuildingBlock: ZUJKAS_clean_linker_0, # of connection points: 2
#     Edge 29, Type (0, 0), BuildingBlock: ZUJKAS_clean_linker_0, # of connection points: 2
#     Edge 30, Type (0, 0), BuildingBlock: ZUJKAS_clean_linker_0, # of connection points: 2
#     Edge 31, Type (0, 0), BuildingBlock: ZUJKAS_clean_linker_0, # of connection points: 2
#     Edge 32, Type (0, 0), BuildingBlock: ZUJKAS_clean_linker_0, # of connection points: 2
#     Edge 33, Type (0, 0), BuildingBlock: ZUJKAS_clean_linker_0, # of connection points: 2
#     Edge 34, Type (0, 0), BuildingBlock: ZUJKAS_clean_linker_0, # of connection points: 2
#     Edge 35, Type (0, 0), BuildingBlock: ZUJKAS_clean_linker_0, # of connection points: 2
#     Edge 36, Type (0, 0), BuildingBlock: ZUJKAS_clean_linker_0, # of connection points: 2
#     Edge 37, Type (0, 0), BuildingBlock: ZUJKAS_clean_linker_0, # of connection points: 2
#     Edge 38, Type (0, 0), BuildingBlock: ZUJKAS_clean_linker_0, # of connection points: 2
#     Edge 39, Type (0, 0), BuildingBlock: ZUJKAS_clean_linker_0, # of connection points: 2
#     Edge 40, Type (0, 0), BuildingBlock: ZUJKAS_clean_linker_0, # of connection points: 2
#     Edge 41, Type (0, 0), BuildingBlock: ZUJKAS_clean_linker_0, # of connection points: 2
#     Edge 42, Type (0, 0), BuildingBlock: ZUJKAS_clean_linker_0, # of connection points: 2
#     Edge 43, Type (0, 0), BuildingBlock: ZUJKAS_clean_linker_0, # of connection points: 2
#     Edge 44, Type (0, 0), BuildingBlock: ZUJKAS_clean_linker_0, # of connection points: 2
#     Edge 45, Type (0, 0), BuildingBlock: ZUJKAS_clean_linker_0, # of connection points: 2
#     Edge 46, Type (0, 0), BuildingBlock: ZUJKAS_clean_linker_0, # of connection points: 2
#     Edge 47, Type (0, 0), BuildingBlock: ZUJKAS_clean_linker_0, # of connection points: 2
#     Edge 48, Type (0, 0), BuildingBlock: ZUJKAS_clean_linker_0, # of connection points: 2
#     Edge 49, Type (0, 0), BuildingBlock: ZUJKAS_clean_linker_0, # of connection points: 2
#     Edge 50, Type (0, 0), BuildingBlock: ZUJKAS_clean_linker_0, # of connection points: 2
#     Edge 51, Type (0, 0), BuildingBlock: ZUJKAS_clean_linker_0, # of connection points: 2
#     Edge 52, Type (0, 0), BuildingBlock: ZUJKAS_clean_linker_0, # of connection points: 2
#     Edge 53, Type (0, 0), BuildingBlock: ZUJKAS_clean_linker_0, # of connection points: 2
#     Edge 54, Type (0, 0), BuildingBlock: ZUJKAS_clean_linker_0, # of connection points: 2
#     Edge 55, Type (0, 0), BuildingBlock: ZUJKAS_clean_linker_0, # of connection points: 2
# Relax obj value: 0.228
# Max RMSD: 0.219
# Mean RMSD: 0.219
data_MOF--net-zfh--node1-XOMCOT_clean_sbu_1--edge1-ZUJKAS_clean_linker_0
_symmetry_space_group_name_H-M    P1
_symmetry_Int_Tables_number       1
_symmetry_cell_setting            triclinic
loop_
_symmetry_equiv_pos_as_xyz
'x, y, z'
_cell_length_a     50.483359
_cell_length_b     50.474093
_cell_length_c     65.434036
_cell_angle_alpha  89.98093
_cell_angle_beta   89.976011
_cell_angle_gamma 89.991208
loop_
_atom_site_label
_atom_site_type_symbol
_atom_site_fract_x
_atom_site_fract_y
_atom_site_fract_z
_atom_type_partial_charge
C0 C 0.52661 0.23101 0.3776 0.0
C1 C 0.51317 0.25457 0.3755 0.0
N2 N 0.4929 0.25476 0.38892 0.0
N3 N 0.51483 0.21636 0.39222 0.0
C4 C 0.4943 0.2313 0.39881 0.0
H5 H 0.54446 0.22538 0.36957 0.0
Co6 Co 0.52805 0.18511 0.40327 0.0
C7 C 0.48059 0.16264 0.42275 0.0
O8 O 0.49336 0.16014 0.44014 0.0
N9 N 0.5419 0.15387 0.41433 0.0
C10 C 0.55043 0.11166 0.42143 0.0
C11 C 0.53313 0.1288 0.41195 0.0
C12 C 0.56464 0.15144 0.42501 0.0
N13 N 0.57031 0.12596 0.42965 0.0
O14 O 0.5283 0.20141 0.42963 0.0
H15 H 0.51555 0.12327 0.40353 0.0
H16 H 0.57732 0.168 0.42869 0.0
O17 O 0.49229 0.17248 0.40726 0.0
C18 C 0.54869 0.2159 0.43203 0.0
O19 O 0.566 0.21722 0.41705 0.0
N20 N 0.52965 0.16999 0.37727 0.0
C21 C 0.53913 0.1475 0.33909 0.0
C22 C 0.51318 0.14981 0.34661 0.0
C23 C 0.50878 0.16143 0.36574 0.0
C24 C 0.55489 0.16813 0.37012 0.0
C25 C 0.5601 0.15698 0.35107 0.0
H26 H 0.48868 0.1635 0.37114 0.0
H27 H 0.57111 0.17526 0.37941 0.0
H28 H 0.4816 0.22574 0.41144 0.0
H29 H 0.5183 0.27058 0.36523 0.0
H30 H 0.54848 0.09033 0.42215 0.0
H31 H 0.49645 0.143 0.33768 0.0
H32 H 0.58043 0.15539 0.34592 0.0
C33 C 0.2727 0.53684 0.38401 0.0
C34 C 0.24939 0.5232 0.38112 0.0
N35 N 0.24938 0.50197 0.39362 0.0
N36 N 0.2873 0.52421 0.39823 0.0
C37 C 0.27263 0.50302 0.40377 0.0
H38 H 0.27824 0.55529 0.37677 0.0
Co39 Co 0.31828 0.53659 0.41004 0.0
C40 C 0.33967 0.48796 0.42854 0.0
O41 O 0.34137 0.49996 0.44631 0.0
N42 N 0.34937 0.54955 0.4219 0.0
C43 C 0.39157 0.55745 0.42942 0.0
C44 C 0.37436 0.54051 0.41965 0.0
C45 C 0.35191 0.57207 0.43284 0.0
N46 N 0.37738 0.57737 0.4377 0.0
O47 O 0.30114 0.53579 0.43616 0.0
H48 H 0.37983 0.5231 0.41098 0.0
H49 H 0.33549 0.585 0.43639 0.0
O50 O 0.33067 0.50043 0.41309 0.0
C51 C 0.28709 0.55649 0.43871 0.0
O52 O 0.28723 0.57464 0.42429 0.0
N53 N 0.33388 0.53939 0.38431 0.0
C54 C 0.35449 0.55061 0.34574 0.0
C55 C 0.35092 0.52426 0.35212 0.0
C56 C 0.34032 0.51902 0.3715 0.0
C57 C 0.33721 0.56501 0.37837 0.0
C58 C 0.3476 0.57108 0.35923 0.0
H59 H 0.33689 0.49871 0.37599 0.0
H60 H 0.33155 0.58086 0.3886 0.0
H61 H 0.27823 0.48949 0.41586 0.0
H62 H 0.23346 0.52877 0.37092 0.0
H63 H 0.41287 0.55532 0.43018 0.0
H64 H 0.35564 0.5079 0.34206 0.0
H65 H 0.35029 0.59168 0.35507 0.0
C66 C 0.97414 0.27844 0.37714 0.0
C67 C 0.98854 0.25561 0.37398 0.0
N68 N 0.00869 0.25493 0.38756 0.0
N69 N 0.9852 0.29215 0.39256 0.0
C70 C 0.00611 0.27744 0.39857 0.0
H71 H 0.9563 0.28426 0.36918 0.0
Co72 Co 0.97249 0.32262 0.40497 0.0
C73 C 0.02024 0.3414 0.42624 0.0
O74 O 0.00731 0.34205 0.44366 0.0
N75 N 0.9596 0.35335 0.41747 0.0
C76 C 0.95327 0.3955 0.42594 0.0
C77 C 0.96991 0.37798 0.41627 0.0
C78 C 0.93659 0.35645 0.42771 0.0
N79 N 0.93222 0.38194 0.4331 0.0
O80 O 0.97088 0.30378 0.43037 0.0
H81 H 0.98803 0.38303 0.40835 0.0
H82 H 0.92277 0.34048 0.4304 0.0
O83 O 0.0085 0.33389 0.41002 0.0
C84 C 0.94966 0.29018 0.43129 0.0
O85 O 0.93269 0.2921 0.41612 0.0
N86 N 0.97203 0.33997 0.37985 0.0
C87 C 0.96457 0.3667 0.34309 0.0
C88 C 0.99014 0.35945 0.34946 0.0
C89 C 0.99348 0.34601 0.36802 0.0
C90 C 0.94707 0.34593 0.37348 0.0
C91 C 0.9429 0.35953 0.35527 0.0
H92 H 0.0132 0.34043 0.37279 0.0
H93 H 0.93028 0.34026 0.38278 0.0
H94 H 0.01875 0.283 0.41118 0.0
H95 H 0.98377 0.2403 0.36303 0.0
H96 H 0.95641 0.41662 0.42741 0.0
H97 H 0.00734 0.36442 0.34033 0.0
H98 H 0.92281 0.36411 0.35066 0.0
C99 C 0.2242 0.97313 0.37546 0.0
C100 C 0.24628 0.98782 0.37052 0.0
N101 N 0.24759 0.0087 0.38332 0.0
N102 N 0.21166 0.98475 0.39128 0.0
C103 C 0.22622 0.00647 0.3956 0.0
H104 H 0.2187 0.95427 0.36888 0.0
Co105 Co 0.18538 0.97002 0.40766 0.0
C106 C 0.14445 0.01107 0.41115 0.0
O107 O 0.12689 0.99212 0.4086 0.0
N108 N 0.15959 0.95501 0.42528 0.0
C109 C 0.13642 0.95062 0.45408 0.0
C110 C 0.15324 0.9666 0.44325 0.0
C111 C 0.14669 0.93143 0.42589 0.0
N112 N 0.13237 0.92838 0.44322 0.0
O113 O 0.2076 0.97516 0.43095 0.0
H114 H 0.16089 0.98545 0.44845 0.0
H115 H 0.14872 0.91603 0.4146 0.0
O116 O 0.16918 0.00534 0.41115 0.0
C117 C 0.22464 0.95662 0.43198 0.0
O118 O 0.22413 0.93797 0.41796 0.0
N119 N 0.16518 0.96308 0.38399 0.0
C120 C 0.14252 0.94853 0.34668 0.0
C121 C 0.14516 0.9753 0.35201 0.0
C122 C 0.15706 0.98218 0.37053 0.0
C123 C 0.16415 0.93708 0.37845 0.0
C124 C 0.1523 0.9293 0.36015 0.0
H125 H 0.16075 0.00288 0.37353 0.0
H126 H 0.17393 0.92236 0.38774 0.0
H127 H 0.22257 0.01905 0.4087 0.0
H128 H 0.26096 0.98277 0.3591 0.0
H129 H 0.1282 0.95492 0.46899 0.0
H130 H 0.13861 0.99084 0.34178 0.0
H131 H 0.15198 0.90848 0.35615 0.0
C132 C 0.03535 0.7777 0.11394 0.0
C133 C 0.02173 0.75464 0.11786 0.0
N134 N 0.99979 0.75433 0.10612 0.0
N135 N 0.02195 0.79189 0.09989 0.0
C136 C 1.00035 0.77723 0.09547 0.0
H137 H 0.05444 0.78313 0.12014 0.0
Co138 Co 0.03424 0.82137 0.08605 0.0
C139 C 0.9906 0.85989 0.08718 0.0
O140 O 0.00849 0.87781 0.0919 0.0
N141 N 0.0472 0.85075 0.07094 0.0
C142 C 0.0503 0.8802 0.0456 0.0
C143 C 0.03455 0.86139 0.05465 0.0
C144 C 0.07123 0.86269 0.07075 0.0
N145 N 0.07342 0.8809 0.05572 0.0
O146 O 0.02962 0.80254 0.06096 0.0
H147 H 0.01537 0.8551 0.04912 0.0
H148 H 0.08747 0.85744 0.08061 0.0
O149 O 0.99778 0.83578 0.0844 0.0
C150 C 0.05128 0.79307 0.05415 0.0
O151 O 0.07342 0.79901 0.06366 0.0
N152 N 0.04049 0.83814 0.11148 0.0
C153 C 0.0539 0.85789 0.15002 0.0
C154 C 0.02737 0.85316 0.14487 0.0
C155 C 0.02113 0.84269 0.12571 0.0
C156 C 0.06642 0.8405 0.11695 0.0
C157 C 0.07358 0.85105 0.13587 0.0
H158 H 1.00076 0.83756 0.12262 0.0
H159 H 0.08169 0.83284 0.10707 0.0
H160 H 0.98639 0.78233 0.08355 0.0
H161 H 0.02799 0.73889 0.128 0.0
H162 H 0.04576 0.89128 0.03187 0.0
H163 H 0.01156 0.85727 0.15561 0.0
H164 H 0.09438 0.85283 0.1397 0.0
C165 C 0.72257 0.02558 0.11678 0.0
C166 C 0.74473 0.01021 0.11995 0.0
N167 N 0.74471 0.99027 0.10621 0.0
N168 N 0.70852 0.01531 0.1012 0.0
C169 C 0.72244 0.99389 0.09507 0.0
H170 H 0.71754 0.0436 0.12483 0.0
Co171 Co 0.67872 0.02976 0.08887 0.0
C172 C 0.65622 0.98253 0.06868 0.0
O173 O 0.65484 0.99507 0.05111 0.0
N174 N 0.64878 0.04461 0.07653 0.0
C175 C 0.60717 0.05445 0.06845 0.0
C176 C 0.62338 0.03654 0.07819 0.0
C177 C 0.64748 0.06753 0.06593 0.0
N178 N 0.62238 0.07399 0.06076 0.0
O179 O 0.69715 0.0295 0.06324 0.0
H180 H 0.61696 0.01908 0.0864 0.0
H181 H 0.66452 0.07983 0.06276 0.0
O182 O 0.66523 0.99437 0.0844 0.0
C183 C 0.7122 0.04969 0.06192 0.0
O184 O 0.71184 0.06701 0.07692 0.0
N185 N 0.66188 0.03199 0.11419 0.0
C186 C 0.63857 0.04275 0.15187 0.0
C187 C 0.63956 0.01671 0.14435 0.0
C188 C 0.65162 0.01165 0.12546 0.0
C189 C 0.66109 0.05732 0.12128 0.0
C190 C 0.64957 0.06316 0.14008 0.0
H191 H 0.65277 0.99147 0.12008 0.0
H192 H 0.66956 0.0731 0.11219 0.0
H193 H 0.71658 0.98163 0.08231 0.0
H194 H 0.76021 0.01423 0.13095 0.0
H195 H 0.58583 0.0532 0.06724 0.0
H196 H 0.63152 1.0004 0.15314 0.0
H197 H 0.64901 0.08354 0.14523 0.0
C198 C 0.47371 0.72129 0.11525 0.0
C199 C 0.48716 0.74462 0.11837 0.0
N200 N 0.50815 0.74524 0.10565 0.0
N201 N 0.48626 0.70709 0.10074 0.0
C202 C 0.50725 0.72213 0.09524 0.0
H203 H 0.45514 0.71574 0.12229 0.0
Co204 Co 0.47274 0.67745 0.08749 0.0
C205 C 0.51488 0.63736 0.08961 0.0
O206 O 0.49633 0.62029 0.09468 0.0
N207 N 0.45841 0.64816 0.073 0.0
C208 C 0.45374 0.61795 0.04835 0.0
C209 C 0.47072 0.6357 0.05733 0.0
C210 C 0.43337 0.6385 0.07237 0.0
N211 N 0.43019 0.61983 0.0578 0.0
O212 O 0.47799 0.69493 0.06196 0.0
H213 H 0.49052 0.64014 0.05203 0.0
H214 H 0.41719 0.64587 0.08147 0.0
O215 O 0.50859 0.66159 0.08622 0.0
C216 C 0.45669 0.70645 0.05655 0.0
O217 O 0.4356 0.70355 0.06813 0.0
N218 N 0.46571 0.66177 0.11328 0.0
C219 C 0.4509 0.64233 0.15166 0.0
C220 C 0.4777 0.64589 0.14669 0.0
C221 C 0.48465 0.65636 0.12765 0.0
C222 C 0.43964 0.66053 0.11857 0.0
C223 C 0.43175 0.65028 0.13741 0.0
H224 H 0.50526 0.66066 0.12472 0.0
H225 H 0.42483 0.66868 0.10852 0.0
H226 H 0.52039 0.71715 0.08273 0.0
H227 H 0.48132 0.76039 0.12864 0.0
H228 H 0.45785 0.60591 0.03503 0.0
H229 H 0.49313 0.64141 0.15766 0.0
H230 H 0.41081 0.64882 0.1408 0.0
C231 C 0.78717 0.47118 0.11543 0.0
C232 C 0.76393 0.48481 0.11875 0.0
N233 N 0.76256 0.50505 0.1053 0.0
N234 N 0.80048 0.48287 0.10005 0.0
C235 C 0.78506 0.50335 0.09418 0.0
H236 H 0.79361 0.45347 0.1233 0.0
Co237 Co 0.83154 0.47135 0.08779 0.0
C238 C 0.85001 0.5202 0.068 0.0
O239 O 0.85201 0.50785 0.05039 0.0
N240 N 0.86281 0.4596 0.07545 0.0
C241 C 0.90539 0.45365 0.06811 0.0
C242 C 0.88738 0.4697 0.07787 0.0
C243 C 0.86638 0.43742 0.06426 0.0
N244 N 0.89213 0.43332 0.05958 0.0
O245 O 0.81353 0.4707 0.06212 0.0
H246 H 0.89201 0.48717 0.08674 0.0
H247 H 0.8506 0.42383 0.06043 0.0
O248 O 0.84207 0.50771 0.08377 0.0
C249 C 0.80001 0.44961 0.05988 0.0
O250 O 0.80126 0.43141 0.07423 0.0
N251 N 0.84825 0.47023 0.11319 0.0
C252 C 0.87371 0.46251 0.15046 0.0
C253 C 0.86606 0.48803 0.14426 0.0
C254 C 0.85324 0.4915 0.12548 0.0
C255 C 0.85479 0.44528 0.11926 0.0
C256 C 0.86772 0.44098 0.13774 0.0
H257 H 0.84721 0.51118 0.12095 0.0
H258 H 0.84999 0.42861 0.10956 0.0
H259 H 0.79012 0.51641 0.08167 0.0
H260 H 0.74877 0.47948 0.1297 0.0
H261 H 0.92662 0.45653 0.06757 0.0
H262 H 0.87014 0.50514 0.15373 0.0
H263 H 0.87262 0.42089 0.14217 0.0
C264 C 0.46876 0.77667 0.62174 0.0
C265 C 0.48301 0.75361 0.62413 0.0
N266 N 0.50337 0.75376 0.61072 0.0
N267 N 0.48014 0.79135 0.60699 0.0
C268 C 0.50109 0.77698 0.60059 0.0
H269 H 0.45079 0.78202 0.62974 0.0
Co270 Co 0.46761 0.82258 0.59576 0.0
C271 C 0.51529 0.8427 0.57531 0.0
O272 O 0.50226 0.8442 0.55797 0.0
N273 N 0.4548 0.85406 0.58443 0.0
C274 C 0.44863 0.89657 0.5771 0.0
C275 C 0.46493 0.87863 0.58666 0.0
C276 C 0.43222 0.8576 0.57374 0.0
N277 N 0.42797 0.88333 0.56899 0.0
O278 O 0.46644 0.80554 0.56965 0.0
H279 H 0.48279 0.88329 0.59504 0.0
H280 H 0.41871 0.84168 0.57012 0.0
O281 O 0.50366 0.83426 0.59133 0.0
C282 C 0.4455 0.79172 0.56758 0.0
O283 O 0.42787 0.7921 0.58237 0.0
N284 N 0.46692 0.83813 0.62157 0.0
C285 C 0.45959 0.86054 0.66002 0.0
C286 C 0.48507 0.8536 0.65326 0.0
C287 C 0.48835 0.84234 0.63387 0.0
C288 C 0.44203 0.84402 0.62814 0.0
C289 C 0.43792 0.85548 0.64721 0.0
H290 H 0.50798 0.83674 0.62889 0.0
H291 H 0.42522 0.83974 0.61843 0.0
H292 H 0.51395 0.78329 0.58831 0.0
H293 H 0.47795 0.73756 0.63436 0.0
H294 H 0.45186 0.91773 0.57624 0.0
H295 H 0.50226 0.85699 0.66281 0.0
H296 H 0.41788 0.85991 0.65204 0.0
C297 C 0.72209 0.47582 0.61794 0.0
C298 C 0.74308 0.49212 0.62271 0.0
N299 N 0.74305 0.5129 0.6097 0.0
N300 N 0.70874 0.48635 0.60209 0.0
C301 C 0.72183 0.50889 0.59748 0.0
H302 H 0.71772 0.45684 0.62482 0.0
Co303 Co 0.68229 0.47071 0.58659 0.0
C304 C 0.64058 0.51102 0.58344 0.0
O305 O 0.62343 0.49186 0.58669 0.0
N306 N 0.65619 0.45475 0.56973 0.0
C307 C 0.63222 0.44908 0.54149 0.0
C308 C 0.6482 0.46613 0.55207 0.0
C309 C 0.64535 0.43017 0.56907 0.0
N310 N 0.63054 0.42633 0.5521 0.0
O311 O 0.70376 0.47534 0.56282 0.0
H312 H 0.65443 0.48544 0.54674 0.0
H313 H 0.64957 0.41462 0.57987 0.0
O314 O 0.66538 0.50566 0.58283 0.0
C315 C 0.71656 0.45394 0.55984 0.0
O316 O 0.71267 0.43412 0.57253 0.0
N317 N 0.66286 0.46419 0.61074 0.0
C318 C 0.63897 0.45004 0.64772 0.0
C319 C 0.64192 0.47677 0.64229 0.0
C320 C 0.65454 0.48344 0.62399 0.0
C321 C 0.66192 0.43829 0.61653 0.0
C322 C 0.64949 0.4307 0.63465 0.0
H323 H 0.65832 0.5041 0.62086 0.0
H324 H 0.67186 0.42347 0.60747 0.0
H325 H 0.71649 0.52139 0.58471 0.0
H326 H 0.75811 0.48798 0.63406 0.0
H327 H 0.6232 0.45295 0.52679 0.0
H328 H 0.6354 0.49243 0.65242 0.0
H329 H 0.64842 0.40984 0.63843 0.0
C330 C 0.02861 0.73519 0.61712 0.0
C331 C 0.01453 0.75817 0.62027 0.0
N332 N 0.99295 0.75776 0.60814 0.0
N333 N 0.0159 0.72023 0.60318 0.0
C334 C 0.99419 0.73443 0.59803 0.0
H335 H 0.04759 0.73033 0.6238 0.0
Co336 Co 0.02951 0.69031 0.59035 0.0
C337 C 0.98757 0.65011 0.59333 0.0
O338 O 0.0063 0.63328 0.59848 0.0
N339 N 0.04382 0.66064 0.57623 0.0
C340 C 0.04801 0.63018 0.55173 0.0
C341 C 0.03129 0.64817 0.56068 0.0
C342 C 0.06876 0.65065 0.57557 0.0
N343 N 0.07164 0.63182 0.56106 0.0
O344 O 0.02422 0.70714 0.56451 0.0
H345 H 0.01152 0.6528 0.55543 0.0
H346 H 0.08506 0.6579 0.5846 0.0
O347 O 0.99368 0.67429 0.58949 0.0
C348 C 0.04586 0.71794 0.55896 0.0
O349 O 0.06664 0.71534 0.5709 0.0
N350 N 0.03671 0.6753 0.61634 0.0
C351 C 0.05183 0.6558 0.65462 0.0
C352 C 0.02501 0.65965 0.64988 0.0
C353 C 0.0179 0.67017 0.63088 0.0
C354 C 0.06283 0.67398 0.62146 0.0
C355 C 0.07087 0.66369 0.64025 0.0
H356 H 0.99729 0.67453 0.62806 0.0
H357 H 0.07758 0.68187 0.61122 0.0
H358 H 0.9806 0.72863 0.58605 0.0
H359 H 0.02022 0.77432 0.63021 0.0
H360 H 0.04366 0.61814 0.53846 0.0
H361 H 0.00967 0.65521 0.66094 0.0
H362 H 0.09185 0.66201 0.64346 0.0
C363 C 0.76831 0.03736 0.61656 0.0
C364 C 0.74507 0.02368 0.61964 0.0
N365 N 0.74495 0.00245 0.60715 0.0
N366 N 0.78275 0.02477 0.60222 0.0
C367 C 0.76806 0.00356 0.59679 0.0
H368 H 0.77394 0.05579 0.62378 0.0
Co369 Co 0.81371 0.03713 0.59037 0.0
C370 C 0.83515 0.9887 0.57149 0.0
O371 O 0.83693 1.00096 0.55382 0.0
N372 N 0.84485 0.05003 0.57847 0.0
C373 C 0.88716 0.0576 0.57109 0.0
C374 C 0.86982 0.04117 0.58123 0.0
C375 C 0.84753 0.07194 0.5668 0.0
N376 N 0.87308 0.077 0.56202 0.0
O377 O 0.79638 0.03679 0.56429 0.0
H378 H 0.87514 0.02415 0.5904 0.0
H379 H 0.83113 0.08453 0.56252 0.0
O380 O 0.82596 1.00094 0.58699 0.0
C381 C 0.78226 0.05752 0.56204 0.0
O382 O 0.78256 0.07542 0.57663 0.0
N383 N 0.82945 0.03941 0.61609 0.0
C384 C 0.84975 0.04942 0.65493 0.0
C385 C 0.84558 0.02329 0.64826 0.0
C386 C 0.83515 0.01868 0.62875 0.0
C387 C 0.83343 0.06484 0.62229 0.0
C388 C 0.84367 0.0703 0.64158 0.0
H389 H 0.83113 0.99855 0.6241 0.0
H390 H 0.82831 0.08101 0.61217 0.0
H391 H 0.77356 0.99001 0.5847 0.0
H392 H 0.72928 0.02918 0.63001 0.0
H393 H 0.90847 0.05542 0.5705 0.0
H394 H 0.84964 0.00664 0.65821 0.0
H395 H 0.84681 0.09074 0.646 0.0
C396 C 0.97304 0.22271 0.88112 0.0
C397 C 0.98663 0.24573 0.87698 0.0
N398 N 0.00847 0.24638 0.88881 0.0
N399 N 0.98632 0.20882 0.89542 0.0
C400 C 0.0079 0.22367 0.89973 0.0
H401 H 0.95393 0.21724 0.87499 0.0
Co402 Co 0.97342 0.17997 0.90996 0.0
C403 C 0.0159 0.14003 0.90861 0.0
O404 O 0.9974 0.12239 0.90474 0.0
N405 N 0.95984 0.15137 0.92576 0.0
C406 C 0.95627 0.12319 0.9519 0.0
C407 C 0.9726 0.14074 0.94199 0.0
C408 C 0.93523 0.14064 0.9268 0.0
N409 N 0.93269 0.12322 0.94238 0.0
O410 O 0.97958 0.1991 0.93467 0.0
H411 H 0.99224 0.14634 0.94696 0.0
H412 H 0.91891 0.14632 0.91717 0.0
O413 O 0.00941 0.1644 0.91103 0.0
C414 C 0.95837 0.20915 0.94179 0.0
O415 O 0.93582 0.20376 0.93267 0.0
N416 N 0.96553 0.16281 0.88497 0.0
C417 C 0.94905 0.14182 0.84752 0.0
C418 C 0.97607 0.14501 0.85186 0.0
C419 C 0.98388 0.15625 0.87043 0.0
C420 C 0.93927 0.16183 0.88026 0.0
C421 C 0.93054 0.15083 0.86191 0.0
H422 H 0.00465 0.1603 0.87279 0.0
H423 H 0.92497 0.17071 0.89042 0.0
H424 H 0.02173 0.21894 0.91183 0.0
H425 H 0.98032 0.26131 0.86671 0.0
H426 H 0.96085 0.11256 0.96584 0.0
H427 H 0.99104 0.13968 0.84073 0.0
H428 H 0.90947 0.14962 0.859 0.0
C429 C 0.28862 0.97499 0.88748 0.0
C430 C 0.26661 0.98989 0.88274 0.0
N431 N 0.26585 0.0111 0.89528 0.0
N432 N 0.30186 0.98686 0.90281 0.0
C433 C 0.28761 0.00878 0.90719 0.0
H434 H 0.29385 0.95605 0.8809 0.0
Co435 Co 0.32984 0.97314 0.91784 0.0
C436 C 0.36989 0.01533 0.91897 0.0
O437 O 0.38788 0.99698 0.91564 0.0
N438 N 0.35761 0.959 0.93411 0.0
C439 C 0.3835 0.95445 0.96149 0.0
C440 C 0.36602 0.97074 0.95152 0.0
C441 C 0.36994 0.93513 0.93422 0.0
N442 N 0.38589 0.93198 0.95062 0.0
O443 O 0.3096 0.97869 0.94212 0.0
H444 H 0.35911 0.9897 0.95707 0.0
H445 H 0.36608 0.91946 0.92346 0.0
O446 O 0.34542 0.00879 0.92013 0.0
C447 C 0.29981 0.95753 0.94952 0.0
O448 O 0.30574 0.93478 0.9409 0.0
N449 N 0.34814 0.96612 0.89323 0.0
C450 C 0.37062 0.95135 0.85589 0.0
C451 C 0.36735 0.97816 0.86091 0.0
C452 C 0.35547 0.98512 0.87943 0.0
C453 C 0.34925 0.94008 0.88782 0.0
C454 C 0.36103 0.93218 0.86952 0.0
H455 H 0.35152 0.0058 0.88229 0.0
H456 H 0.33988 0.92535 0.89737 0.0
H457 H 0.2926 0.0221 0.91955 0.0
H458 H 0.25152 0.98452 0.87177 0.0
H459 H 0.39308 0.95856 0.97593 0.0
H460 H 0.37364 0.99366 0.85054 0.0
H461 H 0.3617 0.91131 0.86573 0.0
C462 C 0.5332 0.28324 0.88095 0.0
C463 C 0.51822 0.26071 0.87831 0.0
N464 N 0.4983 0.26095 0.89208 0.0
N465 N 0.5227 0.29768 0.89622 0.0
C466 C 0.50154 0.28368 0.90268 0.0
H467 H 0.55112 0.28833 0.87276 0.0
Co468 Co 0.5366 0.32804 0.90792 0.0
C469 C 0.48946 0.34962 0.9287 0.0
O470 O 0.50238 0.35083 0.9461 0.0
N471 N 0.55087 0.35857 0.91969 0.0
C472 C 0.55968 0.40049 0.92751 0.0
C473 C 0.54201 0.38371 0.9181 0.0
C474 C 0.57402 0.36058 0.92988 0.0
N475 N 0.57988 0.38588 0.9349 0.0
O476 O 0.53745 0.31008 0.93374 0.0
H477 H 0.52416 0.38958 0.91015 0.0
H478 H 0.5869 0.34392 0.93281 0.0
O479 O 0.50104 0.34092 0.91274 0.0
C480 C 0.55801 0.29549 0.93483 0.0
O481 O 0.57502 0.29624 0.91962 0.0
N482 N 0.53768 0.34423 0.88237 0.0
C483 C 0.54591 0.3636 0.84302 0.0
C484 C 0.5201 0.3602 0.85062 0.0
C485 C 0.51637 0.35023 0.87038 0.0
C486 C 0.56281 0.3477 0.87533 0.0
C487 C 0.56739 0.3575 0.85576 0.0
H488 H 0.49646 0.34661 0.87573 0.0
H489 H 0.57942 0.34231 0.8849 0.0
H490 H 0.48922 0.28986 0.91533 0.0
H491 H 0.5225 0.24488 0.86767 0.0
H492 H 0.55783 0.42179 0.92867 0.0
H493 H 0.503 0.36432 0.84115 0.0
H494 H 0.58762 0.36009 0.85062 0.0
C495 C 0.22863 0.53413 0.88423 0.0
C496 C 0.25281 0.52186 0.88205 0.0
N497 N 0.25332 0.50047 0.89438 0.0
N498 N 0.21392 0.52048 0.8978 0.0
C499 C 0.22943 0.50003 0.90369 0.0
H500 H 0.2226 0.55246 0.87705 0.0
Co501 Co 0.18195 0.53145 0.90896 0.0
C502 C 0.16033 0.48191 0.92517 0.0
O503 O 0.15799 0.49336 0.94312 0.0
N504 N 0.14984 0.54304 0.92019 0.0
C505 C 0.10688 0.55002 0.92542 0.0
C506 C 0.12526 0.53406 0.91595 0.0
C507 C 0.14589 0.56448 0.93215 0.0
N508 N 0.11993 0.56918 0.9356 0.0
O509 O 0.19756 0.52901 0.93552 0.0
H510 H 0.12092 0.51751 0.906 0.0
H511 H 0.16165 0.57726 0.9374 0.0
O512 O 0.16999 0.49487 0.91018 0.0
C513 C 0.21068 0.54975 0.93999 0.0
O514 O 0.21063 0.56964 0.92702 0.0
N515 N 0.16783 0.53586 0.88285 0.0
C516 C 0.14867 0.54971 0.84435 0.0
C517 C 0.15199 0.52295 0.84974 0.0
C518 C 0.16187 0.51639 0.86911 0.0
C519 C 0.16477 0.56185 0.87785 0.0
C520 C 0.15514 0.56922 0.85876 0.0
H521 H 0.165 0.49579 0.87289 0.0
H522 H 0.16997 0.57697 0.88886 0.0
H523 H 0.22392 0.48608 0.91551 0.0
H524 H 0.26899 0.52855 0.87249 0.0
H525 H 0.08557 0.54792 0.92461 0.0
H526 H 0.14754 0.5073 0.83896 0.0
H527 H 0.15261 0.59008 0.85537 0.0
H528 H 0.29954 0.99761 0.37786 0.0
H529 H 0.33709 0.02666 0.38498 0.0
H530 H 0.28329 0.08933 0.40201 0.0
H531 H 0.24558 0.05988 0.39545 0.0
H532 H 0.35293 0.07175 0.36918 0.0
H533 H 0.33044 0.08801 0.45114 0.0
H534 H 0.31325 0.06367 0.43596 0.0
H535 H 0.30398 0.09807 0.43457 0.0
C536 C 0.2957 0.01765 0.38294 0.0
C537 C 0.26962 0.02649 0.38612 0.0
C538 C 0.31719 0.03422 0.38711 0.0
C539 C 0.3131 0.06006 0.39443 0.0
C540 C 0.28702 0.06924 0.39697 0.0
H541 H 0.4439 0.17412 0.39345 0.0
H542 H 0.40196 0.15136 0.38701 0.0
C543 C 0.26549 0.0525 0.39308 0.0
C544 C 0.33626 0.07724 0.39917 0.0
H545 H 0.36538 0.1136 0.43706 0.0
C546 C 0.35564 0.08089 0.38403 0.0
C547 C 0.34004 0.08885 0.41866 0.0
C548 C 0.32098 0.08426 0.43608 0.0
C549 C 0.37869 0.09566 0.38781 0.0
C550 C 0.38207 0.10802 0.40708 0.0
C551 C 0.36266 0.10443 0.42222 0.0
C552 C 0.40616 0.1237 0.41211 0.0
C553 C 0.3996 0.09696 0.37133 0.0
C554 C 0.42174 0.11686 0.42911 0.0
C555 C 0.44541 0.13029 0.43312 0.0
C556 C 0.45406 0.15068 0.4201 0.0
C557 C 0.43792 0.15824 0.40359 0.0
C558 C 0.41404 0.14509 0.3998 0.0
H559 H 0.39757 0.08041 0.36025 0.0
H560 H 0.39741 0.11578 0.36273 0.0
H561 H 0.41984 0.09627 0.37795 0.0
H562 H 0.41601 0.10055 0.43893 0.0
H563 H 0.45743 0.12399 0.44594 0.0
H564 H 0.33013 0.45308 0.39749 0.0
H565 H 0.35144 0.41025 0.39151 0.0
H566 H 0.39745 0.42024 0.44653 0.0
H567 H 0.37542 0.46249 0.453 0.0
H568 H 0.40056 0.40034 0.38369 0.0
H569 H 0.3753 0.34538 0.45401 0.0
H570 H 0.35954 0.37629 0.4474 0.0
H571 H 0.39129 0.37609 0.46 0.0
C572 C 0.34449 0.44592 0.40848 0.0
C573 C 0.35102 0.46113 0.42576 0.0
C574 C 0.35668 0.42143 0.40504 0.0
C575 C 0.37583 0.41168 0.41871 0.0
C576 C 0.3822 0.4268 0.43607 0.0
H577 H 0.50424 0.30701 0.38665 0.0
H578 H 0.47447 0.34402 0.39361 0.0
C579 C 0.3697 0.4511 0.43969 0.0
C580 C 0.39056 0.38683 0.41397 0.0
H581 H 0.41208 0.3284 0.43455 0.0
C582 C 0.40277 0.38449 0.39476 0.0
C583 C 0.39317 0.36581 0.4282 0.0
C584 C 0.37886 0.36588 0.44845 0.0
C585 C 0.41815 0.36228 0.38964 0.0
C586 C 0.42229 0.34216 0.40439 0.0
C587 C 0.40932 0.34399 0.42334 0.0
C588 C 0.44049 0.31945 0.4006 0.0
C589 C 0.42952 0.36056 0.36834 0.0
C590 C 0.43175 0.29319 0.40307 0.0
C591 C 0.44897 0.27192 0.39941 0.0
C592 C 0.47519 0.27653 0.39309 0.0
C593 C 0.48399 0.30281 0.39099 0.0
C594 C 0.46692 0.32401 0.39492 0.0
H595 H 0.41748 0.37211 0.35727 0.0
H596 H 0.4498 0.36905 0.36832 0.0
H597 H 0.43064 0.33973 0.36296 0.0
H598 H 0.41151 0.28914 0.40761 0.0
H599 H 0.44167 0.25188 0.40114 0.0
H600 H 0.05668 0.33303 0.39617 0.0
H601 H 0.09913 0.35554 0.39149 0.0
H602 H 0.08609 0.39951 0.44714 0.0
H603 H 0.04415 0.37629 0.4523 0.0
H604 H 0.10677 0.40553 0.38477 0.0
H605 H 0.16172 0.37971 0.45499 0.0
H606 H 0.1316 0.36296 0.4477 0.0
H607 H 0.13026 0.39424 0.46095 0.0
C608 C 0.06312 0.34715 0.40761 0.0
C609 C 0.04712 0.35286 0.42463 0.0
C610 C 0.08738 0.36002 0.40491 0.0
C611 C 0.09607 0.37904 0.41908 0.0
C612 C 0.08029 0.38441 0.43629 0.0
H613 H 0.19689 0.51207 0.39113 0.0
H614 H 0.16063 0.48097 0.39696 0.0
C615 C 0.05619 0.37122 0.43917 0.0
C616 C 0.12036 0.39484 0.41489 0.0
H617 H 0.17772 0.41755 0.43632 0.0
C618 C 0.12242 0.40787 0.39598 0.0
C619 C 0.14106 0.39765 0.42933 0.0
C620 C 0.1412 0.38264 0.44928 0.0
C621 C 0.1441 0.4242 0.39135 0.0
C622 C 0.16391 0.4284 0.40631 0.0
C623 C 0.16234 0.41469 0.42496 0.0
C624 C 0.18607 0.44733 0.40304 0.0
C625 C 0.14561 0.43652 0.37036 0.0
C626 C 0.2125 0.43911 0.40528 0.0
C627 C 0.2333 0.45703 0.40224 0.0
C628 C 0.22804 0.48346 0.39681 0.0
C629 C 0.20158 0.4917 0.39483 0.0
C630 C 0.18082 0.4739 0.39811 0.0
H631 H 0.13442 0.42467 0.35895 0.0
H632 H 0.13663 0.45657 0.37084 0.0
H633 H 0.16643 0.43839 0.36508 0.0
H634 H 0.21705 0.41875 0.4092 0.0
H635 H 0.2535 0.45014 0.40384 0.0
H636 H 0.17423 0.05686 0.41133 0.0
H637 H 0.15763 0.10266 0.41061 0.0
H638 H 0.07733 0.07352 0.41122 0.0
H639 H 0.0935 0.02824 0.41236 0.0
H640 H 0.12645 0.12651 0.38149 0.0
H641 H 0.07481 0.12869 0.45583 0.0
H642 H 0.09851 0.10326 0.44933 0.0
H643 H 0.06459 0.10065 0.44101 0.0
C644 C 0.15305 0.06029 0.41162 0.0
C645 C 0.1352 0.03889 0.41199 0.0
C646 C 0.14361 0.08643 0.41115 0.0
C647 C 0.11623 0.09151 0.41124 0.0
C648 C 0.09851 0.07015 0.41169 0.0
H649 H 0.02045 0.21436 0.36158 0.0
H650 H 0.04989 0.17714 0.36801 0.0
C651 C 0.10785 0.04419 0.41218 0.0
C652 C 0.1057 0.11889 0.40966 0.0
H653 H 0.05942 0.16003 0.43053 0.0
C654 C 0.11216 0.1341 0.3924 0.0
C655 C 0.08743 0.12904 0.42407 0.0
C656 C 0.08116 0.11465 0.4437 0.0
C657 C 0.09961 0.15846 0.38855 0.0
C658 C 0.07963 0.16746 0.40207 0.0
C659 C 0.07439 0.15299 0.41995 0.0
C660 C 0.063 0.19108 0.39761 0.0
C661 C 0.10781 0.17414 0.36997 0.0
C662 C 0.05992 0.21109 0.4123 0.0
C663 C 0.04247 0.23214 0.40891 0.0
C664 C 0.02765 0.23377 0.39069 0.0
C665 C 0.03118 0.21385 0.37587 0.0
C666 C 0.04844 0.19266 0.37937 0.0
H667 H 0.12867 0.16984 0.36567 0.0
H668 H 0.0951 0.16844 0.35685 0.0
H669 H 0.10572 0.19578 0.37256 0.0
H670 H 0.07074 0.2102 0.42658 0.0
H671 H 0.04026 0.24669 0.4209 0.0
H672 H 0.75451 0.9618 0.07158 0.0
H673 H 0.79088 0.93099 0.06568 0.0
H674 H 0.81935 0.94472 0.12689 0.0
H675 H 0.78231 0.97443 0.13332 0.0
H676 H 0.84152 0.9422 0.06503 0.0
H677 H 0.82609 0.86584 0.12416 0.0
H678 H 0.8008 0.88964 0.11755 0.0
H679 H 0.82658 0.89819 0.13543 0.0
C680 C 0.76802 0.95782 0.08402 0.0
C681 C 0.76531 0.97078 0.10298 0.0
C682 C 0.78897 0.94024 0.08055 0.0
C683 C 0.80768 0.93514 0.09592 0.0
C684 C 0.80484 0.94772 0.11493 0.0
H685 H 0.97113 0.90983 0.09028 0.0
H686 H 0.92523 0.92409 0.08984 0.0
C687 C 0.78381 0.96514 0.11848 0.0
C688 C 0.83157 0.91884 0.09153 0.0
H689 H 0.87114 0.87036 0.11146 0.0
C690 C 0.84768 0.92614 0.07497 0.0
C691 C 0.83949 0.89748 0.10418 0.0
C692 C 0.82214 0.88715 0.12118 0.0
C693 C 0.87225 0.91393 0.07156 0.0
C694 C 0.88126 0.89431 0.08536 0.0
C695 C 0.8644 0.88568 0.10106 0.0
C696 C 0.9091 0.88487 0.08507 0.0
C697 C 0.88863 0.92265 0.05348 0.0
C698 C 0.91536 0.85786 0.08307 0.0
C699 C 0.94189 0.84948 0.08345 0.0
C700 C 0.96243 0.86802 0.08605 0.0
C701 C 0.95591 0.89497 0.08815 0.0
C702 C 0.9296 0.90324 0.08775 0.0
H703 H 0.87588 0.93029 0.04096 0.0
H704 H 0.90201 0.93896 0.05826 0.0
H705 H 0.90091 0.90615 0.04746 0.0
H706 H 0.89977 0.84332 0.0812 0.0
H707 H 0.94627 0.82856 0.08192 0.0
H708 H 0.5596 0.74385 0.09374 0.0
H709 H 0.58872 0.782 0.08746 0.0
H710 H 0.52426 0.835 0.10167 0.0
H711 H 0.4955 0.79718 0.10835 0.0
H712 H 0.5865 0.82181 0.06047 0.0
H713 H 0.5808 0.86395 0.13828 0.0
H714 H 0.56867 0.83124 0.13234 0.0
H715 H 0.54849 0.85998 0.12737 0.0
C716 C 0.55176 0.76367 0.09559 0.0
C717 C 0.5254 0.7675 0.10187 0.0
C718 C 0.56838 0.78544 0.09202 0.0
C719 C 0.55889 0.81142 0.09457 0.0
C720 C 0.53235 0.81521 0.10028 0.0
H721 H 0.62038 0.95758 0.0439 0.0
H722 H 0.59896 0.91477 0.04966 0.0
C723 C 0.51588 0.79353 0.10408 0.0
C724 C 0.57639 0.83467 0.09088 0.0
H725 H 0.5968 0.89298 0.11209 0.0
C726 C 0.589 0.83725 0.07183 0.0
C727 C 0.58014 0.85462 0.10582 0.0
C728 C 0.56904 0.85218 0.12716 0.0
C729 C 0.60445 0.85962 0.06709 0.0
C730 C 0.60674 0.88037 0.08156 0.0
C731 C 0.59484 0.87732 0.10084 0.0
C732 C 0.62104 0.90555 0.07714 0.0
C733 C 0.61839 0.86056 0.0467 0.0
C734 C 0.64026 0.91504 0.09084 0.0
C735 C 0.65208 0.93978 0.08782 0.0
C736 C 0.64512 0.95552 0.07092 0.0
C737 C 0.62639 0.94578 0.05692 0.0
C738 C 0.61425 0.92118 0.06014 0.0
H739 H 0.62214 0.84031 0.0407 0.0
H740 H 0.60563 0.87101 0.03549 0.0
H741 H 0.63758 0.8712 0.04777 0.0
H742 H 0.64584 0.90345 0.1041 0.0
H743 H 0.66652 0.94669 0.09884 0.0
H744 H 0.53281 0.58739 0.09615 0.0
H745 H 0.5782 0.57154 0.09602 0.0
H746 H 0.60599 0.64997 0.08102 0.0
H747 H 0.56007 0.66636 0.08145 0.0
H748 H 0.61457 0.57188 0.06441 0.0
H749 H 0.65059 0.62954 0.13139 0.0
H750 H 0.6158 0.62602 0.12565 0.0
H751 H 0.63598 0.64809 0.1108 0.0
C752 C 0.54846 0.60143 0.09283 0.0
C753 C 0.54276 0.62822 0.08887 0.0
C754 C 0.57447 0.59226 0.09272 0.0
C755 C 0.59551 0.60957 0.08868 0.0
C756 C 0.59004 0.63634 0.08447 0.0
H757 H 0.75084 0.53367 0.07111 0.0
H758 H 0.71287 0.56272 0.06589 0.0
C759 C 0.56382 0.64563 0.0846 0.0
C760 C 0.62293 0.59897 0.08895 0.0
H761 H 0.68022 0.59907 0.11671 0.0
C762 C 0.62911 0.57805 0.07565 0.0
C763 C 0.64169 0.60691 0.10378 0.0
C764 C 0.63578 0.62874 0.11885 0.0
C765 C 0.65309 0.56415 0.07725 0.0
C766 C 0.67173 0.57179 0.09229 0.0
C767 C 0.66595 0.59333 0.10514 0.0
C768 C 0.69628 0.55632 0.09598 0.0
C769 C 0.6576 0.54051 0.06354 0.0
C770 C 0.70023 0.54391 0.11493 0.0
C771 C 0.72221 0.52758 0.11812 0.0
C772 C 0.74076 0.52326 0.1024 0.0
C773 C 0.73717 0.5365 0.08364 0.0
C774 C 0.71525 0.55296 0.08052 0.0
H775 H 0.63898 0.53374 0.05615 0.0
H776 H 0.67176 0.54598 0.05127 0.0
H777 H 0.66615 0.52369 0.07226 0.0
H778 H 0.68592 0.54634 0.12713 0.0
H779 H 0.72452 0.51823 0.13288 0.0
H780 H 0.94777 0.75724 0.09634 0.0
H781 H 0.91744 0.72002 0.09051 0.0
H782 H 0.98105 0.66512 0.10258 0.0
H783 H 0.0111 0.70208 0.10879 0.0
H784 H 0.91847 0.68144 0.06256 0.0
H785 H 0.92449 0.63615 0.13931 0.0
H786 H 0.93726 0.6688 0.13397 0.0
H787 H 0.9567 0.63982 0.12814 0.0
C788 C 0.95516 0.7372 0.09786 0.0
C789 C 0.98171 0.73257 0.10328 0.0
C790 C 0.93785 0.71598 0.09455 0.0
C791 C 0.94681 0.68975 0.09652 0.0
C792 C 0.97343 0.68514 0.10162 0.0
H793 H 0.88487 0.54657 0.04334 0.0
H794 H 0.90555 0.58953 0.0498 0.0
C795 C 0.99062 0.7063 0.10515 0.0
C796 C 0.92873 0.66713 0.09255 0.0
H797 H 0.90761 0.6084 0.11256 0.0
C798 C 0.91581 0.66561 0.07358 0.0
C799 C 0.92482 0.64671 0.10707 0.0
C800 C 0.93632 0.64808 0.12834 0.0
C801 C 0.89994 0.64374 0.06844 0.0
C802 C 0.89754 0.62247 0.08243 0.0
C803 C 0.90967 0.6245 0.10169 0.0
C804 C 0.88323 0.59758 0.0774 0.0
C805 C 0.88578 0.64382 0.04814 0.0
C806 C 0.86403 0.58753 0.09086 0.0
C807 C 0.85261 0.56273 0.08743 0.0
C808 C 0.86002 0.54753 0.07036 0.0
C809 C 0.87854 0.55796 0.0565 0.0
C810 C 0.89027 0.58262 0.06011 0.0
H811 H 0.88209 0.66436 0.04272 0.0
H812 H 0.89837 0.63383 0.03656 0.0
H813 H 0.86654 0.63323 0.04905 0.0
H814 H 0.85828 0.59865 0.10432 0.0
H815 H 0.8383 0.55524 0.09834 0.0
H816 H 0.53932 0.878 0.54964 0.0
H817 H 0.58145 0.90076 0.55487 0.0
H818 H 0.59435 0.85582 0.61009 0.0
H819 H 0.55169 0.83372 0.60534 0.0
H820 H 0.60264 0.90568 0.61716 0.0
H821 H 0.65677 0.88013 0.5465 0.0
H822 H 0.62543 0.89501 0.54073 0.0
H823 H 0.62654 0.86361 0.55383 0.0
C824 C 0.55135 0.87262 0.5627 0.0
C825 C 0.54219 0.85409 0.57709 0.0
C826 C 0.57556 0.88555 0.56562 0.0
C827 C 0.59138 0.87975 0.58271 0.0
C828 C 0.58257 0.86061 0.59676 0.0
H829 H 0.74914 0.95064 0.59689 0.0
H830 H 0.71274 0.9191 0.59191 0.0
C831 C 0.55819 0.84798 0.59402 0.0
C832 C 0.61586 0.89522 0.58688 0.0
H833 H 0.67308 0.9179 0.56516 0.0
C834 C 0.61818 0.90804 0.60585 0.0
C835 C 0.63644 0.89805 0.57233 0.0
C836 C 0.63632 0.88321 0.55231 0.0
C837 C 0.63997 0.92426 0.6104 0.0
C838 C 0.6596 0.92856 0.5953 0.0
C839 C 0.65782 0.91498 0.57662 0.0
C840 C 0.68174 0.94753 0.59844 0.0
C841 C 0.64175 0.93641 0.63143 0.0
C842 C 0.67646 0.97406 0.60345 0.0
C843 C 0.69719 0.99195 0.60651 0.0
C844 C 0.72365 0.98384 0.60421 0.0
C845 C 0.72894 0.95744 0.59872 0.0
C846 C 0.70817 0.93943 0.5959 0.0
H847 H 0.63075 0.92444 0.64288 0.0
H848 H 0.66264 0.93829 0.63653 0.0
H849 H 0.6327 0.95644 0.63112 0.0
H850 H 0.65626 0.98104 0.60482 0.0
H851 H 0.69247 0.01229 0.61026 0.0
H852 H 0.66962 0.55716 0.5807 0.0
H853 H 0.65253 0.60274 0.58203 0.0
H854 H 0.57281 0.57256 0.58672 0.0
H855 H 0.58943 0.52749 0.58488 0.0
H856 H 0.57618 0.61367 0.56015 0.0
H857 H 0.62533 0.63856 0.63381 0.0
H858 H 0.64681 0.6284 0.61336 0.0
H859 H 0.6238 0.60513 0.62414 0.0
C860 C 0.64845 0.56032 0.58183 0.0
C861 C 0.63091 0.53869 0.5828 0.0
C862 C 0.63874 0.58634 0.58275 0.0
C863 C 0.61141 0.59102 0.5848 0.0
C864 C 0.59396 0.56944 0.58519 0.0
H865 H 0.51525 0.71213 0.63556 0.0
H866 H 0.54415 0.67483 0.62781 0.0
C867 C 0.60356 0.54362 0.58418 0.0
C868 C 0.60044 0.61814 0.58696 0.0
H869 H 0.59686 0.6706 0.6198 0.0
C870 C 0.58092 0.62631 0.57305 0.0
C871 C 0.6065 0.63441 0.60393 0.0
C872 C 0.62659 0.62622 0.61979 0.0
C873 C 0.56649 0.64974 0.57606 0.0
C874 C 0.5723 0.66589 0.59317 0.0
C875 C 0.59253 0.65823 0.60667 0.0
C876 C 0.55619 0.6896 0.59819 0.0
C877 C 0.54418 0.65616 0.5615 0.0
C878 C 0.55374 0.71063 0.58431 0.0
C879 C 0.53675 0.73181 0.5885 0.0
C880 C 0.52212 0.73265 0.60685 0.0
C881 C 0.52562 0.71204 0.6211 0.0
C882 C 0.5424 0.69075 0.61679 0.0
H883 H 0.53827 0.63867 0.55225 0.0
H884 H 0.5265 0.66345 0.56989 0.0
H885 H 0.55071 0.67192 0.55081 0.0
H886 H 0.56465 0.71046 0.57006 0.0
H887 H 0.53473 0.7471 0.57704 0.0
H888 H 0.75354 0.5433 0.57609 0.0
H889 H 0.79042 0.57371 0.57139 0.0
H890 H 0.81716 0.55759 0.63269 0.0
H891 H 0.77952 0.52805 0.63799 0.0
H892 H 0.82265 0.61047 0.62218 0.0
H893 H 0.8645 0.5451 0.56187 0.0
H894 H 0.83163 0.557 0.55687 0.0
H895 H 0.83737 0.53495 0.57799 0.0
C896 C 0.76682 0.54648 0.58879 0.0
C897 C 0.76355 0.53273 0.60739 0.0
C898 C 0.78816 0.56376 0.58596 0.0
C899 C 0.8069 0.56747 0.60151 0.0
C900 C 0.80306 0.55486 0.6204 0.0
H901 H 0.97013 0.60019 0.60073 0.0
H902 H 0.92489 0.584 0.60132 0.0
C903 C 0.78162 0.53772 0.62332 0.0
C904 C 0.83134 0.58315 0.59783 0.0
H905 H 0.88839 0.58366 0.56977 0.0
C906 C 0.83694 0.60481 0.6106 0.0
C907 C 0.85002 0.57559 0.58278 0.0
C908 C 0.84579 0.55177 0.56919 0.0
C909 C 0.86105 0.61865 0.60909 0.0
C910 C 0.87983 0.61082 0.59422 0.0
C911 C 0.87383 0.58974 0.58103 0.0
C912 C 0.90713 0.62174 0.59376 0.0
C913 C 0.86681 0.64066 0.62403 0.0
C914 C 0.91229 0.64847 0.58919 0.0
C915 C 0.93844 0.65797 0.58889 0.0
C916 C 0.95973 0.64079 0.59307 0.0
C917 C 0.95432 0.61405 0.59745 0.0
C918 C 0.92839 0.60468 0.59777 0.0
H919 H 0.852 0.64148 0.63658 0.0
H920 H 0.88681 0.63814 0.63081 0.0
H921 H 0.86647 0.65993 0.61587 0.0
H922 H 0.89617 0.6619 0.58576 0.0
H923 H 0.94197 0.67866 0.58544 0.0
H924 H 0.8706 0.96346 0.5466 0.0
H925 H 0.89319 0.92145 0.55287 0.0
H926 H 0.84849 0.91118 0.60853 0.0
H927 H 0.82655 0.95373 0.60271 0.0
H928 H 0.89814 0.90193 0.61563 0.0
H929 H 0.87149 0.84624 0.546 0.0
H930 H 0.88691 0.87714 0.53964 0.0
H931 H 0.85553 0.87698 0.5528 0.0
C932 C 0.86527 0.95206 0.56001 0.0
C933 C 0.84677 0.96194 0.57415 0.0
C934 C 0.8781 0.9279 0.56352 0.0
C935 C 0.87228 0.91278 0.581 0.0
C936 C 0.85331 0.92237 0.59489 0.0
H937 H 0.94106 0.75392 0.59777 0.0
H938 H 0.90993 0.79061 0.59215 0.0
C939 C 0.84076 0.9467 0.59154 0.0
C940 C 0.8874 0.8881 0.5856 0.0
H941 H 0.90896 0.82976 0.5649 0.0
C942 C 0.9002 0.88603 0.6046 0.0
C943 C 0.88982 0.86701 0.57143 0.0
C944 C 0.87495 0.86681 0.55143 0.0
C945 C 0.91602 0.86404 0.60952 0.0
C946 C 0.91994 0.84386 0.59479 0.0
C947 C 0.90635 0.8454 0.57609 0.0
C948 C 0.93864 0.82147 0.59828 0.0
C949 C 0.92815 0.86265 0.63058 0.0
C950 C 0.96522 0.82651 0.60324 0.0
C951 C 0.98287 0.80565 0.60665 0.0
C952 C 0.97451 0.77918 0.6048 0.0
C953 C 0.94806 0.77409 0.59931 0.0
C954 C 0.93028 0.79504 0.59613 0.0
H955 H 0.91632 0.87411 0.64184 0.0
H956 H 0.92974 0.84187 0.63602 0.0
H957 H 0.94829 0.87141 0.63012 0.0
H958 H 0.97245 0.84666 0.6043 0.0
H959 H 0.00324 0.81028 0.61033 0.0
H960 H 0.25342 0.04097 0.92871 0.0
H961 H 0.21504 0.06975 0.93295 0.0
H962 H 0.19009 0.05207 0.87145 0.0
H963 H 0.22913 0.02423 0.86668 0.0
H964 H 0.18235 0.10452 0.88129 0.0
H965 H 0.14187 0.03891 0.94201 0.0
H966 H 0.17413 0.0522 0.94725 0.0
H967 H 0.16972 0.02949 0.92636 0.0
C968 C 0.24016 0.04351 0.9159 0.0
C969 C 0.24437 0.02989 0.89738 0.0
C970 C 0.21798 0.05981 0.91846 0.0
C971 C 0.19936 0.06261 0.90269 0.0
C972 C 0.20408 0.05004 0.88391 0.0
H973 H 0.03455 0.09018 0.90255 0.0
H974 H 0.08021 0.07506 0.90238 0.0
C975 C 0.22633 0.03389 0.88127 0.0
C976 C 0.17427 0.07743 0.90594 0.0
H977 H 0.11672 0.07644 0.93338 0.0
C978 C 0.16807 0.09857 0.8928 0.0
C979 C 0.15558 0.06949 0.92087 0.0
C980 C 0.16046 0.04616 0.93483 0.0
C981 C 0.14342 0.11152 0.89383 0.0
C982 C 0.12467 0.10336 0.90863 0.0
C983 C 0.13122 0.08279 0.92216 0.0
C984 C 0.09706 0.11355 0.90884 0.0
C985 C 0.13716 0.13292 0.87847 0.0
C986 C 0.09121 0.14035 0.91263 0.0
C987 C 0.06484 0.14922 0.91265 0.0
C988 C 0.04397 0.13135 0.909 0.0
C989 C 0.05004 0.10455 0.90542 0.0
C990 C 0.07621 0.0958 0.90534 0.0
H991 H 0.15186 0.13355 0.86584 0.0
H992 H 0.11715 0.12987 0.87183 0.0
H993 H 0.13728 0.15245 0.88624 0.0
H994 H 0.10698 0.15433 0.91569 0.0
H995 H 0.06082 0.16997 0.91552 0.0
H996 H 0.42014 0.03439 0.91723 0.0
H997 H 0.43444 0.08029 0.91621 0.0
H998 H 0.35329 0.10627 0.92108 0.0
H999 H 0.33854 0.05986 0.92172 0.0
H1000 H 0.38078 0.13234 0.89073 0.0
H1001 H 0.43896 0.13377 0.96211 0.0
H1002 H 0.44869 0.10657 0.94618 0.0
H1003 H 0.41553 0.1078 0.95636 0.0
C1004 C 0.40523 0.04976 0.91827 0.0
C1005 C 0.37817 0.04343 0.91962 0.0
C1006 C 0.41351 0.07606 0.91784 0.0
C1007 C 0.395 0.09671 0.91899 0.0
C1008 C 0.36791 0.09059 0.92038 0.0
H1009 H 0.46939 0.25283 0.92678 0.0
H1010 H 0.43914 0.21643 0.93374 0.0
C1011 C 0.35954 0.06411 0.92079 0.0
C1012 C 0.40431 0.12449 0.91752 0.0
H1013 H 0.45123 0.16628 0.9366 0.0
C1014 C 0.3958 0.14003 0.90098 0.0
C1015 C 0.42351 0.13475 0.93112 0.0
C1016 C 0.43197 0.11993 0.95006 0.0
C1017 C 0.40731 0.16482 0.89692 0.0
C1018 C 0.42828 0.17393 0.90944 0.0
C1019 C 0.43548 0.15916 0.92676 0.0
C1020 C 0.44423 0.19773 0.90426 0.0
C1021 C 0.39706 0.18079 0.8791 0.0
C1022 C 0.45712 0.1995 0.8853 0.0
C1023 C 0.4742 0.22059 0.8811 0.0
C1024 C 0.47919 0.24018 0.89591 0.0
C1025 C 0.46593 0.23848 0.91482 0.0
C1026 C 0.44865 0.21751 0.91892 0.0
H1027 H 0.37588 0.17629 0.87606 0.0
H1028 H 0.39915 0.20239 0.88184 0.0
H1029 H 0.40845 0.17552 0.86518 0.0
H1030 H 0.45462 0.18415 0.87391 0.0
H1031 H 0.48374 0.22127 0.86631 0.0
H1032 H 0.46491 0.38455 0.95449 0.0
H1033 H 0.42236 0.40672 0.94935 0.0
H1034 H 0.41041 0.36233 0.89377 0.0
H1035 H 0.45334 0.34081 0.89846 0.0
H1036 H 0.40114 0.41242 0.88721 0.0
H1037 H 0.34739 0.38383 0.95746 0.0
H1038 H 0.37839 0.39944 0.96321 0.0
H1039 H 0.37801 0.36821 0.9499 0.0
C1040 C 0.45302 0.37921 0.94134 0.0
C1041 C 0.46251 0.36096 0.92686 0.0
C1042 C 0.42858 0.39179 0.93848 0.0
C1043 C 0.41289 0.38595 0.92132 0.0
C1044 C 0.42208 0.36717 0.90715 0.0
H1045 H 0.25204 0.44845 0.90466 0.0
H1046 H 0.29019 0.41934 0.91075 0.0
C1047 C 0.44664 0.35487 0.90985 0.0
C1048 C 0.38798 0.40086 0.91726 0.0
H1049 H 0.32938 0.42047 0.93862 0.0
C1050 C 0.38535 0.41392 0.89841 0.0
C1051 C 0.36712 0.40258 0.93168 0.0
C1052 C 0.36772 0.38752 0.9516 0.0
C1053 C 0.36288 0.42916 0.89379 0.0
C1054 C 0.34276 0.43219 0.90869 0.0
C1055 C 0.34497 0.4185 0.92731 0.0
C1056 C 0.31955 0.44981 0.90532 0.0
C1057 C 0.36086 0.44159 0.87286 0.0
C1058 C 0.3233 0.4767 0.90065 0.0
C1059 C 0.30161 0.49322 0.89698 0.0
C1060 C 0.27562 0.48334 0.89827 0.0
C1061 C 0.27183 0.4566 0.90356 0.0
C1062 C 0.2936 0.43998 0.90702 0.0
H1063 H 0.37295 0.43065 0.86146 0.0
H1064 H 0.34003 0.44215 0.86744 0.0
H1065 H 0.36846 0.4622 0.87355 0.0
H1066 H 0.34306 0.485 0.89991 0.0
H1067 H 0.30518 0.51386 0.89345 0.0
H1068 H 0.16916 0.44816 0.8931 0.0
H1069 H 0.14747 0.40563 0.88645 0.0
H1070 H 0.10264 0.41373 0.94225 0.0
H1071 H 0.12501 0.45559 0.94939 0.0
H1072 H 0.11807 0.36432 0.93782 0.0
H1073 H 0.07407 0.39801 0.86466 0.0
H1074 H 0.10956 0.39943 0.86477 0.0
H1075 H 0.09087 0.42032 0.88179 0.0
C1076 C 0.15478 0.44077 0.904 0.0
C1077 C 0.14866 0.45534 0.9217 0.0
C1078 C 0.14224 0.41654 0.9001 0.0
C1079 C 0.12288 0.40673 0.91357 0.0
C1080 C 0.11739 0.4209 0.93155 0.0
H1081 H 0.99605 0.2984 0.88651 0.0
H1082 H 0.02539 0.33601 0.89249 0.0
C1083 C 0.13021 0.44487 0.93562 0.0
C1084 C 0.10792 0.382 0.90891 0.0
H1085 H 0.06772 0.35301 0.87337 0.0
C1086 C 0.10708 0.36183 0.92371 0.0
C1087 C 0.09325 0.37886 0.89062 0.0
C1088 C 0.09171 0.4004 0.87464 0.0
C1089 C 0.0918 0.33883 0.92086 0.0
C1090 C 0.07762 0.33543 0.90237 0.0
C1091 C 0.07875 0.35546 0.88747 0.0
C1092 C 0.06015 0.31215 0.8986 0.0
C1093 C 0.09019 0.31898 0.93808 0.0
C1094 C 0.06986 0.28607 0.89981 0.0
C1095 C 0.05294 0.26446 0.89661 0.0
C1096 C 0.02615 0.26851 0.89166 0.0
C1097 C 0.01665 0.29461 0.89001 0.0
C1098 C 0.03342 0.31614 0.89351 0.0
H1099 H 0.09594 0.3279 0.95295 0.0
H1100 H 0.06986 0.31079 0.93955 0.0
H1101 H 0.10399 0.30237 0.93493 0.0
H1102 H 0.09054 0.28241 0.90315 0.0
H1103 H 0.06082 0.24456 0.89776 0.0
H1104 H 0.51908 0.10112 0.32387 0.0
H1105 H 0.53126 0.07902 0.29174 0.0
H1106 H 0.58389 0.14354 0.2771 0.0
H1107 H 0.57185 0.16572 0.30905 0.0
H1108 H 0.54453 0.12116 0.2439 0.0
H1109 H 0.61201 0.04958 0.28275 0.0
H1110 H 0.57965 0.05587 0.2934 0.0
H1111 H 0.60428 0.08141 0.29389 0.0
C1112 C 0.53295 0.11073 0.31364 0.0
C1113 C 0.54464 0.13506 0.31899 0.0
C1114 C 0.53997 0.09805 0.2954 0.0
C1115 C 0.55855 0.10964 0.2822 0.0
C1116 C 0.56956 0.1343 0.28716 0.0
H1117 H 0.65851 0.07395 0.18214 0.0
H1118 H 0.6368 0.08726 0.21397 0.0
C1119 C 0.56276 0.14686 0.30543 0.0
C1120 C 0.56746 0.0958 0.26353 0.0
H1121 H 0.61112 0.04889 0.2468 0.0
C1122 C 0.55875 0.10507 0.24448 0.0
C1123 C 0.58616 0.075 0.26447 0.0
C1124 C 0.59627 0.06477 0.28467 0.0
C1125 C 0.56875 0.09436 0.22624 0.0
C1126 C 0.58794 0.07401 0.22718 0.0
C1127 C 0.59624 0.06437 0.24622 0.0
C1128 C 0.60134 0.06432 0.20854 0.0
C1129 C 0.55962 0.10548 0.20603 0.0
C1130 C 0.58868 0.04664 0.1952 0.0
C1131 C 0.6011 0.03889 0.17702 0.0
C1132 C 0.62622 0.04894 0.17188 0.0
C1133 C 0.63903 0.06613 0.18559 0.0
C1134 C 0.62673 0.07366 0.20379 0.0
H1135 H 0.54553 0.12221 0.20795 0.0
H1136 H 0.57695 0.11246 0.19707 0.0
H1137 H 0.54977 0.08966 0.19704 0.0
H1138 H 0.56906 0.03923 0.1987 0.0
H1139 H 0.59072 0.02574 0.16667 0.0
H1140 H 0.3958 0.52708 0.3253 0.0
H1141 H 0.41481 0.54032 0.29228 0.0
H1142 H 0.35599 0.60184 0.28675 0.0
H1143 H 0.33683 0.5887 0.31948 0.0
H1144 H 0.3909 0.54485 0.25256 0.0
H1145 H 0.42712 0.64157 0.28145 0.0
H1146 H 0.41721 0.61495 0.29824 0.0
H1147 H 0.39264 0.6357 0.28642 0.0
C1148 C 0.38677 0.54324 0.31692 0.0
C1149 C 0.36504 0.55709 0.32513 0.0
C1150 C 0.39771 0.55084 0.29814 0.0
C1151 C 0.38714 0.57242 0.28733 0.0
C1152 C 0.36485 0.58556 0.29511 0.0
H1153 H 0.41076 0.65933 0.17656 0.0
H1154 H 0.39687 0.64068 0.20931 0.0
C1155 C 0.35394 0.57803 0.31382 0.0
C1156 C 0.39936 0.58153 0.26799 0.0
H1157 H 0.42704 0.63581 0.24531 0.0
C1158 C 0.3991 0.56461 0.25098 0.0
C1159 C 0.4101 0.6073 0.26605 0.0
C1160 C 0.41206 0.62588 0.28405 0.0
C1161 C 0.40828 0.57322 0.23181 0.0
C1162 C 0.41832 0.59926 0.22976 0.0
C1163 C 0.41922 0.6159 0.24692 0.0
C1164 C 0.42692 0.61012 0.20979 0.0
C1165 C 0.40622 0.55477 0.21374 0.0
C1166 C 0.44864 0.59931 0.19932 0.0
C1167 C 0.45656 0.60985 0.1805 0.0
C1168 C 0.44291 0.63143 0.17186 0.0
C1169 C 0.4214 0.64241 0.18258 0.0
C1170 C 0.41354 0.63189 0.20137 0.0
H1171 H 0.39303 0.53764 0.21694 0.0
H1172 H 0.39862 0.56545 0.20011 0.0
H1173 H 0.4262 0.54698 0.20999 0.0
H1174 H 0.45953 0.58279 0.20574 0.0
H1175 H 0.47314 0.60088 0.17259 0.0
H1176 H 0.86173 0.48415 0.1877 0.0
H1177 H 0.88145 0.47313 0.22085 0.0
H1178 H 0.9351 0.41884 0.19124 0.0
H1179 H 0.91592 0.43014 0.15807 0.0
H1180 H 0.88119 0.42147 0.23698 0.0
H1181 H 0.98385 0.45983 0.23036 0.0
H1182 H 0.95734 0.47073 0.21384 0.0
H1183 H 0.97342 0.4395 0.20932 0.0
C1184 C 0.87814 0.47034 0.18821 0.0
C1185 C 0.88722 0.45794 0.1703 0.0
C1186 C 0.8893 0.46399 0.20715 0.0
C1187 C 0.90992 0.44539 0.20846 0.0
C1188 C 0.91954 0.43359 0.19054 0.0
H1189 H 0.98588 0.35656 0.30538 0.0
H1190 H 0.97378 0.37747 0.2728 0.0
C1191 C 0.90834 0.43984 0.17163 0.0
C1192 C 0.91963 0.4364 0.22865 0.0
H1193 H 0.97511 0.43055 0.25819 0.0
C1194 C 0.90165 0.42371 0.24173 0.0
C1195 C 0.94641 0.43909 0.23465 0.0
C1196 C 0.96637 0.45323 0.2214 0.0
C1197 C 0.90982 0.41308 0.26049 0.0
C1198 C 0.9366 0.41577 0.26654 0.0
C1199 C 0.9546 0.42857 0.25351 0.0
C1200 C 0.94612 0.40516 0.28632 0.0
C1201 C 0.88984 0.39836 0.27339 0.0
C1202 C 0.93529 0.41446 0.30471 0.0
C1203 C 0.94206 0.40253 0.32322 0.0
C1204 C 0.96001 0.38125 0.32372 0.0
C1205 C 0.97203 0.37296 0.30543 0.0
C1206 C 0.9651 0.38483 0.28685 0.0
H1207 H 0.8723 0.39219 0.26431 0.0
H1208 H 0.89882 0.38046 0.28041 0.0
H1209 H 0.88283 0.4115 0.28586 0.0
H1210 H 0.92108 0.43055 0.30467 0.0
H1211 H 0.93287 0.40965 0.33714 0.0
H1212 H 0.10776 0.90834 0.33854 0.0
H1213 H 0.09138 0.89398 0.30504 0.0
H1214 H 0.13578 0.9565 0.27602 0.0
H1215 H 0.15249 0.9708 0.30935 0.0
H1216 H 0.06326 0.92655 0.27362 0.0
H1217 H 0.15992 0.88522 0.24802 0.0
H1218 H 0.15229 0.89102 0.27462 0.0
H1219 H 0.16054 0.91831 0.25822 0.0
C1220 C 0.11403 0.919 0.32501 0.0
C1221 C 0.13143 0.94067 0.32657 0.0
C1222 C 0.10458 0.91086 0.30594 0.0
C1223 C 0.11259 0.92406 0.28812 0.0
C1224 C 0.12956 0.94595 0.28963 0.0
H1225 H 0.09056 0.89603 0.15861 0.0
H1226 H 0.10358 0.91287 0.19221 0.0
C1227 C 0.1389 0.95422 0.30868 0.0
C1228 C 0.10352 0.9147 0.26789 0.0
H1229 H 0.12525 0.8858 0.22385 0.0
C1230 C 0.07672 0.91757 0.26271 0.0
C1231 C 0.12124 0.90311 0.25377 0.0
C1232 C 0.15009 0.89898 0.25889 0.0
C1233 C 0.06721 0.90954 0.24351 0.0
C1234 C 0.08491 0.89775 0.2294 0.0
C1235 C 0.11172 0.89487 0.23467 0.0
C1236 C 0.07614 0.88819 0.20906 0.0
C1237 C 0.03848 0.91435 0.23837 0.0
C1238 C 0.05652 0.8686 0.20739 0.0
C1239 C 0.04898 0.85904 0.18821 0.0
C1240 C 0.0612 0.86863 0.17036 0.0
C1241 C 0.08093 0.88815 0.1721 0.0
C1242 C 0.08831 0.89783 0.19126 0.0
H1243 H 0.02974 0.9301 0.24814 0.0
H1244 H 0.03608 0.92014 0.2221 0.0
H1245 H 0.02708 0.89587 0.24102 0.0
H1246 H 0.04737 0.86034 0.22094 0.0
H1247 H 0.03407 0.84365 0.18738 0.0
H1248 H 0.36214 0.97322 0.81817 0.0
H1249 H 0.3806 0.9589 0.78542 0.0
H1250 H 0.42392 0.89676 0.81587 0.0
H1251 H 0.40595 0.91128 0.84883 0.0
H1252 H 0.45362 0.92717 0.78536 0.0
H1253 H 0.35726 0.88891 0.75681 0.0
H1254 H 0.3566 0.92233 0.76627 0.0
H1255 H 0.36335 0.89549 0.78352 0.0
C1256 C 0.37586 0.95673 0.81796 0.0
C1257 C 0.38254 0.94333 0.83609 0.0
C1258 C 0.3862 0.94844 0.79922 0.0
C1259 C 0.40336 0.92661 0.79825 0.0
C1260 C 0.4106 0.91358 0.81633 0.0
H1261 H 0.48045 0.84489 0.69671 0.0
H1262 H 0.46891 0.86165 0.73074 0.0
C1263 C 0.40019 0.92179 0.83509 0.0
C1264 C 0.41323 0.91706 0.77829 0.0
H1265 H 0.39269 0.89021 0.73318 0.0
C1266 C 0.44039 0.91897 0.77394 0.0
C1267 C 0.39586 0.90634 0.76352 0.0
C1268 C 0.36666 0.90288 0.76774 0.0
C1269 C 0.45055 0.91109 0.75489 0.0
C1270 C 0.43311 0.90059 0.74004 0.0
C1271 C 0.40601 0.8984 0.74455 0.0
C1272 C 0.44225 0.89198 0.71956 0.0
C1273 C 0.4797 0.91472 0.75062 0.0
C1274 C 0.43107 0.9034 0.70203 0.0
C1275 C 0.43746 0.89376 0.68267 0.0
C1276 C 0.45514 0.87244 0.68045 0.0
C1277 C 0.46701 0.86154 0.69797 0.0
C1278 C 0.46047 0.87113 0.7174 0.0
H1279 H 0.4889 0.92909 0.76134 0.0
H1280 H 0.48996 0.89543 0.7525 0.0
H1281 H 0.48301 0.92168 0.73473 0.0
H1282 H 0.41698 0.91951 0.70335 0.0
H1283 H 0.42823 0.90272 0.66941 0.0
H1284 H 0.52098 0.40359 0.82205 0.0
H1285 H 0.53072 0.41925 0.78731 0.0
H1286 H 0.59182 0.35999 0.78161 0.0
H1287 H 0.58182 0.34388 0.81588 0.0
H1288 H 0.57925 0.43916 0.77323 0.0
H1289 H 0.54974 0.35056 0.72891 0.0
H1290 H 0.53953 0.35579 0.75506 0.0
H1291 H 0.57192 0.34277 0.74946 0.0
C1292 C 0.53619 0.39367 0.81324 0.0
C1293 C 0.5507 0.37257 0.82172 0.0
C1294 C 0.5418 0.4027 0.79346 0.0
C1295 C 0.56174 0.39054 0.7818 0.0
C1296 C 0.57602 0.36934 0.79019 0.0
H1297 H 0.65427 0.41124 0.67449 0.0
H1298 H 0.63284 0.39832 0.70643 0.0
C1299 C 0.5705 0.36037 0.80989 0.0
C1300 C 0.56889 0.40078 0.76132 0.0
H1301 H 0.57858 0.38136 0.71191 0.0
C1302 C 0.57869 0.42672 0.75972 0.0
C1303 C 0.56811 0.38448 0.74375 0.0
C1304 C 0.5565 0.35694 0.7443 0.0
C1305 C 0.58902 0.43634 0.74122 0.0
C1306 C 0.58921 0.41963 0.72388 0.0
C1307 C 0.57853 0.39404 0.7253 0.0
C1308 C 0.60179 0.42773 0.70443 0.0
C1309 C 0.60075 0.46382 0.74056 0.0
C1310 C 0.59128 0.44846 0.69267 0.0
C1311 C 0.60338 0.45579 0.67428 0.0
C1312 C 0.62614 0.44243 0.66731 0.0
C1313 C 0.63653 0.42166 0.6792 0.0
C1314 C 0.62441 0.41433 0.69752 0.0
H1315 H 0.60322 0.47239 0.75608 0.0
H1316 H 0.62033 0.46354 0.73282 0.0
H1317 H 0.58748 0.47703 0.73168 0.0
H1318 H 0.5736 0.45877 0.69763 0.0
H1319 H 0.59468 0.47164 0.66537 0.0
H1320 H 0.02953 0.61397 0.675 0.0
H1321 H 0.04364 0.5945 0.70756 0.0
H1322 H 0.10702 0.65151 0.71153 0.0
H1323 H 0.09267 0.67151 0.67938 0.0
H1324 H 0.09346 0.57216 0.71717 0.0
H1325 H 0.07039 0.65771 0.76727 0.0
H1326 H 0.05734 0.65465 0.74169 0.0
H1327 H 0.09068 0.66608 0.74567 0.0
C1328 C 0.04625 0.62259 0.68296 0.0
C1329 C 0.05996 0.64432 0.6746 0.0
C1330 C 0.05438 0.61133 0.70147 0.0
C1331 C 0.07618 0.62175 0.71206 0.0
C1332 C 0.08989 0.64341 0.70377 0.0
H1333 H 0.16715 0.58937 0.81983 0.0
H1334 H 0.14869 0.60489 0.78748 0.0
C1335 C 0.08183 0.65464 0.68527 0.0
C1336 C 0.08512 0.60963 0.73151 0.0
H1337 H 0.09714 0.62362 0.78168 0.0
C1338 C 0.09404 0.58327 0.73135 0.0
C1339 C 0.08578 0.6242 0.74996 0.0
C1340 C 0.07531 0.65215 0.75128 0.0
C1341 C 0.10456 0.57141 0.74901 0.0
C1342 C 0.10578 0.58621 0.76734 0.0
C1343 C 0.09631 0.61236 0.76758 0.0
C1344 C 0.11763 0.57541 0.78633 0.0
C1345 C 0.11513 0.5435 0.74775 0.0
C1346 C 0.1064 0.55352 0.79637 0.0
C1347 C 0.11692 0.54459 0.81494 0.0
C1348 C 0.13867 0.55759 0.82387 0.0
C1349 C 0.15014 0.57917 0.81352 0.0
C1350 C 0.13968 0.58801 0.795 0.0
H1351 H 0.11813 0.53706 0.73168 0.0
H1352 H 0.13423 0.54174 0.75605 0.0
H1353 H 0.10076 0.52976 0.75499 0.0
H1354 H 0.08908 0.54379 0.79012 0.0
H1355 H 0.10747 0.52811 0.82265 0.0
H1356 H 0.96971 0.09896 0.82736 0.0
H1357 H 0.95436 0.07937 0.79522 0.0
H1358 H 0.89296 0.13852 0.79112 0.0
H1359 H 0.90825 0.15834 0.82306 0.0
H1360 H 0.87514 0.08609 0.78474 0.0
H1361 H 0.96343 0.1096 0.73716 0.0
H1362 H 0.96994 0.09228 0.76064 0.0
H1363 H 0.95719 0.12548 0.76141 0.0
C1364 C 0.95314 0.10798 0.81948 0.0
C1365 C 0.94018 0.13019 0.8278 0.0
C1366 C 0.9444 0.09675 0.80113 0.0
C1367 C 0.92268 0.10765 0.79071 0.0
C1368 C 0.90974 0.1298 0.79895 0.0
H1369 H 0.83228 0.08733 0.68142 0.0
H1370 H 0.85031 0.09867 0.7149 0.0
C1371 C 0.91843 0.14101 0.81726 0.0
C1372 C 0.91293 0.09576 0.77142 0.0
H1373 H 0.92931 0.08502 0.72146 0.0
C1374 C 0.88701 0.08575 0.77092 0.0
C1375 C 0.92854 0.09521 0.75347 0.0
C1376 C 0.95626 0.10638 0.75303 0.0
C1377 C 0.87613 0.07547 0.75286 0.0
C1378 C 0.89145 0.07561 0.73476 0.0
C1379 C 0.91764 0.08493 0.73538 0.0
C1380 C 0.8801 0.06785 0.71476 0.0
C1381 C 0.84832 0.06454 0.75331 0.0
C1382 C 0.89115 0.04699 0.70341 0.0
C1383 C 0.881 0.04057 0.68412 0.0
C1384 C 0.85985 0.05515 0.67579 0.0
C1385 C 0.84876 0.0759 0.68731 0.0
C1386 C 0.85884 0.08222 0.70655 0.0
H1387 H 0.84238 0.05862 0.76901 0.0
H1388 H 0.83433 0.08005 0.74801 0.0
H1389 H 0.84635 0.04712 0.74305 0.0
H1390 H 0.90771 0.0358 0.70943 0.0
H1391 H 0.89011 0.02465 0.67553 0.0
H1392 H 0.5922 0.07675 0.42732 0.0
H1393 H 0.63081 0.06037 0.44602 0.0
H1394 H 0.63933 0.13636 0.47532 0.0
H1395 H 0.6006 0.15283 0.45696 0.0
H1396 H 0.68733 0.11482 0.45861 0.0
H1397 H 0.63374 0.04243 0.50778 0.0
H1398 H 0.62823 0.04 0.48069 0.0
H1399 H 0.61686 0.06869 0.49431 0.0
C1400 C 0.60205 0.08993 0.4379 0.0
C1401 C 0.59314 0.11615 0.44063 0.0
C1402 C 0.62418 0.08051 0.44856 0.0
C1403 C 0.63778 0.09707 0.4622 0.0
C1404 C 0.62912 0.12326 0.46484 0.0
H1405 H 0.75916 0.10343 0.55015 0.0
H1406 H 0.7266 0.11011 0.52326 0.0
C1407 C 0.60701 0.13268 0.45424 0.0
C1408 C 0.66118 0.08737 0.4737 0.0
H1409 H 0.67977 0.04606 0.5125 0.0
C1410 C 0.68574 0.09961 0.47026 0.0
C1411 C 0.65912 0.06733 0.48874 0.0
C1412 C 0.63308 0.05389 0.49329 0.0
C1413 C 0.70814 0.09289 0.48187 0.0
C1414 C 0.70579 0.07377 0.49759 0.0
C1415 C 0.68153 0.06067 0.50041 0.0
C1416 C 0.72721 0.06947 0.51276 0.0
C1417 C 0.73404 0.10661 0.4774 0.0
C1418 C 0.73828 0.04425 0.516 0.0
C1419 C 0.75707 0.04031 0.53152 0.0
C1420 C 0.76467 0.06147 0.54421 0.0
C1421 C 0.75378 0.08669 0.54066 0.0
C1422 C 0.73526 0.09062 0.52517 0.0
H1423 H 0.73495 0.11353 0.46129 0.0
H1424 H 0.73592 0.12426 0.48741 0.0
H1425 H 0.75116 0.09333 0.48035 0.0
H1426 H 0.73213 0.0276 0.5067 0.0
H1427 H 0.76497 0.02062 0.53401 0.0
H1428 H 0.42662 0.59909 0.43521 0.0
H1429 H 0.44297 0.63803 0.45352 0.0
H1430 H 0.36709 0.64681 0.48297 0.0
H1431 H 0.35066 0.60776 0.465 0.0
H1432 H 0.38831 0.6945 0.46539 0.0
H1433 H 0.46107 0.64248 0.51524 0.0
H1434 H 0.46337 0.63629 0.48823 0.0
H1435 H 0.43482 0.62514 0.50212 0.0
C1436 C 0.41348 0.60906 0.44576 0.0
C1437 C 0.38728 0.60018 0.44862 0.0
C1438 C 0.42287 0.63137 0.45619 0.0
C1439 C 0.40631 0.64515 0.46972 0.0
C1440 C 0.38018 0.63645 0.47256 0.0
H1441 H 0.39947 0.7686 0.55598 0.0
H1442 H 0.39277 0.73549 0.52946 0.0
C1443 C 0.37078 0.61417 0.46219 0.0
C1444 C 0.41589 0.66887 0.48085 0.0
H1445 H 0.45706 0.68858 0.51937 0.0
C1446 C 0.40352 0.69327 0.47706 0.0
C1447 C 0.43593 0.66725 0.49591 0.0
C1448 C 0.44954 0.6414 0.5008 0.0
C1449 C 0.4101 0.71597 0.48835 0.0
C1450 C 0.4292 0.71408 0.5041 0.0
C1451 C 0.44245 0.68997 0.50726 0.0
C1452 C 0.43341 0.73589 0.51894 0.0
C1453 C 0.39625 0.7417 0.48351 0.0
C1454 C 0.45861 0.74702 0.522 0.0
C1455 C 0.46256 0.76611 0.53729 0.0
C1456 C 0.44141 0.77394 0.54991 0.0
C1457 C 0.41618 0.76303 0.54651 0.0
C1458 C 0.41225 0.7442 0.53124 0.0
H1459 H 0.38934 0.74219 0.46739 0.0
H1460 H 0.37859 0.74374 0.49349 0.0
H1461 H 0.40943 0.75896 0.48621 0.0
H1462 H 0.47527 0.74066 0.51278 0.0
H1463 H 0.48226 0.77401 0.53967 0.0
H1464 H 0.9137 0.43252 0.43149 0.0
H1465 H 0.87521 0.45052 0.44939 0.0
H1466 H 0.8598 0.37383 0.47583 0.0
H1467 H 0.89851 0.3557 0.45832 0.0
H1468 H 0.81441 0.40072 0.45732 0.0
H1469 H 0.87009 0.46404 0.51227 0.0
H1470 H 0.87811 0.4673 0.48559 0.0
H1471 H 0.88556 0.43699 0.49871 0.0
C1472 C 0.90238 0.4195 0.4413 0.0
C1473 C 0.90937 0.39262 0.44351 0.0
C1474 C 0.88032 0.42985 0.45146 0.0
C1475 C 0.86485 0.41355 0.46405 0.0
C1476 C 0.87153 0.38672 0.46616 0.0
H1477 H 0.73809 0.40808 0.54633 0.0
H1478 H 0.77203 0.40207 0.52042 0.0
C1479 C 0.89361 0.37636 0.45605 0.0
C1480 C 0.84156 0.42426 0.47503 0.0
H1481 H 0.82372 0.46324 0.5154 0.0
C1482 C 0.81638 0.41461 0.46988 0.0
C1483 C 0.8442 0.44263 0.49121 0.0
C1484 C 0.87091 0.45333 0.49745 0.0
C1485 C 0.79383 0.42216 0.48097 0.0
C1486 C 0.79665 0.43937 0.49789 0.0
C1487 C 0.82163 0.45007 0.5024 0.0
C1488 C 0.77476 0.44363 0.5126 0.0
C1489 C 0.76723 0.41122 0.47472 0.0
C1490 C 0.76523 0.46915 0.51708 0.0
C1491 C 0.74566 0.47272 0.53207 0.0
C1492 C 0.73575 0.45083 0.54295 0.0
C1493 C 0.74527 0.42538 0.53825 0.0
C1494 C 0.76457 0.42185 0.52329 0.0
H1495 H 0.76688 0.40615 0.4582 0.0
H1496 H 0.76325 0.39279 0.48345 0.0
H1497 H 0.75107 0.42555 0.47794 0.0
H1498 H 0.7731 0.48624 0.50912 0.0
H1499 H 0.73881 0.49257 0.53548 0.0
H1500 H 0.10753 0.8918 0.41943 0.0
H1501 H 0.08243 0.85295 0.43125 0.0
H1502 H 0.09957 0.87399 0.49373 0.0
H1503 H 0.12442 0.91235 0.48217 0.0
H1504 H 0.09881 0.81048 0.45357 0.0
H1505 H 0.02049 0.86232 0.4964 0.0
H1506 H 0.04142 0.87912 0.47812 0.0
H1507 H 0.05235 0.87434 0.5041 0.0
C1508 C 0.10587 0.8881 0.43567 0.0
C1509 C 0.1177 0.90539 0.44985 0.0
C1510 C 0.0914 0.86602 0.4424 0.0
C1511 C 0.08846 0.861 0.4634 0.0
C1512 C 0.10069 0.87798 0.47749 0.0
H1513 H 0.09104 0.73489 0.54097 0.0
H1514 H 0.0958 0.76607 0.51302 0.0
C1515 C 0.11501 0.89994 0.47082 0.0
C1516 C 0.07431 0.83717 0.47099 0.0
H1517 H 0.03191 0.81805 0.50883 0.0
C1518 C 0.08366 0.81207 0.46527 0.0
C1519 C 0.05395 0.83907 0.48581 0.0
C1520 C 0.04128 0.86519 0.49126 0.0
C1521 C 0.07515 0.78911 0.47547 0.0
C1522 C 0.05735 0.79146 0.49211 0.0
C1523 C 0.04594 0.81621 0.49635 0.0
C1524 C 0.05374 0.7698 0.50722 0.0
C1525 C 0.08619 0.76271 0.46885 0.0
C1526 C 0.02841 0.76163 0.5136 0.0
C1527 C 0.02557 0.7438 0.52992 0.0
C1528 C 0.04805 0.73422 0.54024 0.0
C1529 C 0.0733 0.74189 0.53339 0.0
C1530 C 0.07609 0.75953 0.51718 0.0
H1531 H 0.08988 0.76247 0.45211 0.0
H1532 H 0.10546 0.75931 0.47657 0.0
H1533 H 0.07258 0.74618 0.47278 0.0
H1534 H 0.01086 0.76958 0.5063 0.0
H1535 H 0.00587 0.73834 0.53494 0.0
H1536 H 0.26521 0.99745 0.95908 0.0
H1537 H 0.22731 0.99454 0.98261 0.0
H1538 H 0.25168 0.91586 0.00016 0.0
H1539 H 0.28915 0.9185 0.97666 0.0
H1540 H 0.18888 0.95211 0.9771 0.0
H1541 H 0.23138 0.95232 0.05517 0.0
H1542 H 0.24833 0.96651 0.03342 0.0
H1543 H 0.24859 0.93129 0.03743 0.0
C1544 C 0.26284 0.97987 0.96842 0.0
C1545 C 0.28002 0.95816 0.96608 0.0
C1546 C 0.24121 0.97822 0.98178 0.0
C1547 C 0.23692 0.9551 0.99327 0.0
C1548 C 0.25491 0.93404 0.99171 0.0
H1549 H 0.12421 0.86396 0.05745 0.0
H1550 H 0.16316 0.88668 0.04378 0.0
C1551 C 0.2762 0.93551 0.97818 0.0
C1552 C 0.21196 0.95111 0.0047 0.0
H1553 H 0.1881 0.93323 0.05151 0.0
C1554 C 0.18847 0.94857 0.99346 0.0
C1555 C 0.2117 0.94625 0.02596 0.0
C1556 C 0.23631 0.94944 0.03877 0.0
C1557 C 0.16502 0.93958 0.00266 0.0
C1558 C 0.16493 0.93379 0.02385 0.0
C1559 C 0.18818 0.93763 0.03528 0.0
C1560 C 0.14164 0.92157 0.034 0.0
C1561 C 0.14114 0.93471 0.98928 0.0
C1562 C 0.11674 0.93394 0.0336 0.0
C1563 C 0.09442 0.92081 0.04118 0.0
C1564 C 0.09672 0.89535 0.04969 0.0
C1565 C 0.12189 0.88363 0.05112 0.0
C1566 C 0.14413 0.8966 0.04327 0.0
H1567 H 0.14645 0.93409 0.97281 0.0
H1568 H 0.1313 0.91576 0.99335 0.0
H1569 H 0.12667 0.95101 0.99147 0.0
H1570 H 0.11445 0.9535 0.02704 0.0
H1571 H 0.07527 0.9304 0.04021 0.0
H1572 H 0.65035 0.10271 0.03317 0.0
H1573 H 0.63542 0.14196 0.01455 0.0
H1574 H 0.55944 0.13716 0.04441 0.0
H1575 H 0.57443 0.09824 0.06348 0.0
H1576 H 0.59097 0.14451 0.98788 0.0
H1577 H 0.58173 0.21541 0.05262 0.0
H1578 H 0.60063 0.18512 0.05451 0.0
H1579 H 0.56512 0.18412 0.05557 0.0
C1580 C 0.6306 0.11018 0.03601 0.0
C1581 C 0.61363 0.0973 0.04987 0.0
C1582 C 0.62204 0.13255 0.02527 0.0
C1583 C 0.59643 0.14265 0.02828 0.0
C1584 C 0.57942 0.12993 0.0421 0.0
H1585 H 0.52162 0.2762 0.96254 0.0
H1586 H 0.52831 0.23926 0.98664 0.0
C1587 C 0.58793 0.10748 0.05281 0.0
C1588 C 0.58733 0.16583 0.01622 0.0
H1589 H 0.56949 0.23103 0.01991 0.0
C1590 C 0.58614 0.16338 0.9949 0.0
C1591 C 0.5808 0.19035 0.02545 0.0
C1592 C 0.58226 0.19414 0.04828 0.0
C1593 C 0.57908 0.18491 0.98249 0.0
C1594 C 0.57349 0.20968 0.99163 0.0
C1595 C 0.57379 0.21198 0.01299 0.0
C1596 C 0.56964 0.23371 0.97897 0.0
C1597 C 0.57797 0.18109 0.95963 0.0
C1598 C 0.59085 0.24329 0.96732 0.0
C1599 C 0.58713 0.26418 0.95369 0.0
C1600 C 0.56211 0.27608 0.95148 0.0
C1601 C 0.54112 0.26744 0.96397 0.0
C1602 C 0.54489 0.24634 0.97766 0.0
H1603 H 0.576 0.15985 0.95547 0.0
H1604 H 0.56113 0.19224 0.9529 0.0
H1605 H 0.59656 0.18869 0.95271 0.0
H1606 H 0.61019 0.23407 0.96835 0.0
H1607 H 0.60378 0.27053 0.94447 0.0
H1608 H 0.22668 0.59392 0.95987 0.0
H1609 H 0.26123 0.59743 0.98586 0.0
H1610 H 0.26956 0.51243 0.98644 0.0
H1611 H 0.23454 0.50869 0.96041 0.0
H1612 H 0.26867 0.56646 0.02796 0.0
H1613 H 0.34275 0.5506 0.96585 0.0
H1614 H 0.30993 0.56281 0.96026 0.0
H1615 H 0.31442 0.52901 0.96787 0.0
C1616 C 0.23546 0.57592 0.96584 0.0
C1617 C 0.22806 0.55104 0.95809 0.0
C1618 C 0.25511 0.57796 0.98072 0.0
C1619 C 0.26793 0.55522 0.98795 0.0
C1620 C 0.25975 0.53019 0.98103 0.0
H1621 H 0.42463 0.56998 0.04363 0.0
H1622 H 0.38429 0.54979 0.02983 0.0
C1623 C 0.23975 0.52808 0.96626 0.0
C1624 C 0.29163 0.55835 0.00098 0.0
H1625 H 0.35868 0.56488 0.99755 0.0
C1626 C 0.28844 0.56567 0.0215 0.0
C1627 C 0.3173 0.55721 0.99244 0.0
C1628 C 0.32157 0.54954 0.97039 0.0
C1629 C 0.31035 0.57263 0.03362 0.0
C1630 C 0.33595 0.5731 0.02471 0.0
C1631 C 0.33912 0.56462 0.0044 0.0
C1632 C 0.35947 0.584 0.03552 0.0
C1633 C 0.30576 0.57948 0.05577 0.0
C1634 C 0.35898 0.60985 0.0435 0.0
C1635 C 0.38194 0.62124 0.05161 0.0
C1636 C 0.40597 0.60721 0.05148 0.0
C1637 C 0.40637 0.58123 0.04381 0.0
C1638 C 0.38334 0.56969 0.03598 0.0
H1639 H 0.28815 0.56894 0.0619 0.0
H1640 H 0.32319 0.57441 0.06535 0.0
H1641 H 0.30191 0.60105 0.05712 0.0
H1642 H 0.34112 0.62168 0.04272 0.0
H1643 H 0.38117 0.64146 0.05707 0.0
H1644 H 0.94032 0.41098 0.0656 0.0
H1645 H 0.95895 0.37271 0.04756 0.0
H1646 H 0.8878 0.36661 0.01147 0.0
H1647 H 0.86909 0.40494 0.02936 0.0
H1648 H 0.93369 0.31947 0.04456 0.0
H1649 H 0.9519 0.36825 0.96972 0.0
H1650 H 0.94852 0.38662 0.99329 0.0
H1651 H 0.91967 0.37385 0.98063 0.0
C1652 C 0.92877 0.40167 0.05367 0.0
C1653 C 0.90326 0.41103 0.04883 0.0
C1654 C 0.93938 0.37975 0.04348 0.0
C1655 C 0.92483 0.36707 0.02809 0.0
C1656 C 0.89942 0.37635 0.02319 0.0
H1657 H 0.91855 0.22036 0.96808 0.0
H1658 H 0.91554 0.25786 0.99152 0.0
C1659 C 0.88869 0.39809 0.0335 0.0
C1660 C 0.93579 0.34362 0.01748 0.0
H1661 H 0.95401 0.32111 0.97036 0.0
C1662 C 0.9385 0.31986 0.0284 0.0
C1663 C 0.94236 0.34434 0.99649 0.0
C1664 C 0.94072 0.36966 0.98431 0.0
C1665 C 0.94628 0.29638 0.01858 0.0
C1666 C 0.9514 0.29679 0.99734 0.0
C1667 C 0.95006 0.32086 0.98666 0.0
C1668 C 0.95518 0.27212 0.98546 0.0
C1669 C 0.94838 0.27118 0.03085 0.0
C1670 C 0.97863 0.26753 0.97446 0.0
C1671 C 0.98051 0.24586 0.96114 0.0
C1672 C 0.95871 0.22892 0.95838 0.0
C1673 C 0.93565 0.2331 0.96996 0.0
C1674 C 0.93394 0.25443 0.98342 0.0
H1675 H 0.95105 0.27534 0.04739 0.0
H1676 H 0.92987 0.25956 0.02899 0.0
H1677 H 0.96517 0.25881 0.02543 0.0
H1678 H 0.99514 0.28115 0.97571 0.0
H1679 H 0.99839 0.24326 0.9522 0.0
H1680 H 0.22435 0.98088 0.46962 0.0
H1681 H 0.25776 0.97597 0.49684 0.0
H1682 H 0.30422 0.92564 0.45748 0.0
H1683 H 0.27117 0.9301 0.43057 0.0
H1684 H 0.27565 0.92161 0.51254 0.0
H1685 H 0.35627 0.98447 0.48119 0.0
H1686 H 0.3218 0.98929 0.47467 0.0
H1687 H 0.34041 0.96304 0.46297 0.0
C1688 C 0.24186 0.96904 0.46677 0.0
C1689 C 0.24513 0.95578 0.44805 0.0
C1690 C 0.26083 0.96622 0.48228 0.0
C1691 C 0.28347 0.95062 0.47902 0.0
C1692 C 0.287 0.93797 0.46018 0.0
H1693 H 0.39506 0.85768 0.54273 0.0
H1694 H 0.35814 0.87662 0.52365 0.0
C1695 C 0.268 0.94044 0.44487 0.0
C1696 C 0.30291 0.94582 0.49548 0.0
H1697 H 0.36865 0.95245 0.5064 0.0
C1698 C 0.29586 0.92876 0.5115 0.0
C1699 C 0.32919 0.95525 0.49403 0.0
C1700 C 0.33743 0.97422 0.47739 0.0
C1701 C 0.31488 0.91967 0.52549 0.0
C1702 C 0.34153 0.92777 0.52325 0.0
C1703 C 0.34823 0.94609 0.50796 0.0
C1704 C 0.36305 0.91619 0.53575 0.0
C1705 C 0.30647 0.90096 0.54226 0.0
C1706 C 0.37823 0.93225 0.54869 0.0
C1707 C 0.3993 0.92144 0.55977 0.0
C1708 C 0.40581 0.89439 0.55792 0.0
C1709 C 0.39046 0.87842 0.54486 0.0
C1710 C 0.36931 0.88923 0.5339 0.0
H1711 H 0.28483 0.90222 0.54524 0.0
H1712 H 0.31112 0.88034 0.53761 0.0
H1713 H 0.31729 0.90522 0.55667 0.0
H1714 H 0.37375 0.95314 0.55023 0.0
H1715 H 0.41036 0.93432 0.56983 0.0
H1716 H 0.51401 0.2252 0.46379 0.0
H1717 H 0.52089 0.25519 0.49297 0.0
H1718 H 0.59957 0.27271 0.47106 0.0
H1719 H 0.5931 0.24285 0.44239 0.0
H1720 H 0.59695 0.26572 0.51364 0.0
H1721 H 0.52048 0.33617 0.48479 0.0
H1722 H 0.51053 0.30256 0.48977 0.0
H1723 H 0.53298 0.3095 0.46919 0.0
C1724 C 0.53285 0.23524 0.46539 0.0
C1725 C 0.5529 0.2319 0.45067 0.0
C1726 C 0.53671 0.25241 0.48199 0.0
C1727 C 0.56065 0.26638 0.48404 0.0
C1728 C 0.58096 0.26213 0.46981 0.0
H1729 H 0.62211 0.41104 0.51301 0.0
H1730 H 0.60096 0.37062 0.50127 0.0
C1731 C 0.57714 0.24513 0.45332 0.0
C1732 C 0.56456 0.28694 0.49991 0.0
H1733 H 0.54909 0.35138 0.51025 0.0
C1734 C 0.58608 0.28425 0.51335 0.0
C1735 C 0.55036 0.3111 0.49937 0.0
C1736 C 0.52736 0.31526 0.48498 0.0
C1737 C 0.59503 0.3057 0.52515 0.0
C1738 C 0.58184 0.33032 0.52361 0.0
C1739 C 0.5591 0.33242 0.51137 0.0
C1740 C 0.5938 0.35505 0.53157 0.0
C1741 C 0.61972 0.30251 0.5379 0.0
C1742 C 0.59681 0.35977 0.55259 0.0
C1743 C 0.60894 0.38314 0.55943 0.0
C1744 C 0.61808 0.40215 0.54533 0.0
C1745 C 0.61489 0.3972 0.52433 0.0
C1746 C 0.60286 0.37399 0.51756 0.0
H1747 H 0.62911 0.28279 0.53579 0.0
H1748 H 0.63439 0.31807 0.53392 0.0
H1749 H 0.61464 0.30485 0.5543 0.0
H1750 H 0.58971 0.34547 0.56366 0.0
H1751 H 0.61089 0.38649 0.5757 0.0
H1752 H 0.26942 0.5187 0.4659 0.0
H1753 H 0.23504 0.52456 0.49227 0.0
H1754 H 0.23023 0.60766 0.47758 0.0
H1755 H 0.26419 0.60211 0.45144 0.0
H1756 H 0.23109 0.57429 0.52733 0.0
H1757 H 0.15445 0.56281 0.46679 0.0
H1758 H 0.18635 0.54666 0.46533 0.0
H1759 H 0.18374 0.58154 0.46054 0.0
C1760 C 0.26138 0.53828 0.46861 0.0
C1761 C 0.26933 0.5599 0.4565 0.0
C1762 C 0.2418 0.54158 0.48364 0.0
C1763 C 0.23016 0.56653 0.48674 0.0
C1764 C 0.23902 0.58828 0.47536 0.0
H1765 H 0.12131 0.65225 0.56088 0.0
H1766 H 0.16073 0.63224 0.54561 0.0
C1767 C 0.25837 0.58501 0.46039 0.0
C1768 C 0.20708 0.56995 0.50038 0.0
H1769 H 0.14042 0.58024 0.49846 0.0
C1770 C 0.21115 0.57514 0.52119 0.0
C1771 C 0.1812 0.57091 0.49227 0.0
C1772 C 0.17594 0.56506 0.47003 0.0
C1773 C 0.18992 0.58228 0.53401 0.0
C1774 C 0.16418 0.5848 0.5256 0.0
C1775 C 0.1601 0.57841 0.50494 0.0
C1776 C 0.14136 0.59546 0.5374 0.0
C1777 C 0.19534 0.58721 0.55634 0.0
C1778 C 0.11725 0.5816 0.53781 0.0
C1779 C 0.09463 0.5932 0.54627 0.0
C1780 C 0.09564 0.61885 0.55457 0.0
C1781 C 0.12001 0.6323 0.55491 0.0
C1782 C 0.14261 0.6208 0.54624 0.0
H1783 H 0.21296 0.57594 0.56162 0.0
H1784 H 0.1995 0.60859 0.55867 0.0
H1785 H 0.17809 0.58164 0.56597 0.0
H1786 H 0.11574 0.56208 0.53102 0.0
H1787 H 0.07615 0.58232 0.54596 0.0
H1788 H 0.90329 0.26526 0.43937 0.0
H1789 H 0.89499 0.23002 0.46394 0.0
H1790 H 0.97564 0.23542 0.4852 0.0
H1791 H 0.98421 0.27117 0.46046 0.0
H1792 H 0.92395 0.1812 0.46397 0.0
H1793 H 0.92964 0.23428 0.53848 0.0
H1794 H 0.92399 0.25147 0.51465 0.0
H1795 H 0.95636 0.23907 0.52062 0.0
C1796 C 0.91927 0.25925 0.4494 0.0
C1797 C 0.94446 0.27096 0.44791 0.0
C1798 C 0.91445 0.23907 0.46344 0.0
C1799 C 0.93464 0.23014 0.4764 0.0
C1800 C 0.95969 0.24226 0.47547 0.0
H1801 H 0.92189 0.0995 0.56455 0.0
H1802 H 0.93912 0.13606 0.54385 0.0
C1803 C 0.96456 0.26263 0.46134 0.0
C1804 C 0.92947 0.20702 0.4898 0.0
H1805 H 0.91958 0.1887 0.53948 0.0
C1806 C 0.92319 0.18277 0.4805 0.0
C1807 C 0.92867 0.20912 0.51133 0.0
C1808 C 0.93486 0.23487 0.52199 0.0
C1809 C 0.91554 0.1607 0.4921 0.0
C1810 C 0.91364 0.16307 0.51359 0.0
C1811 C 0.92089 0.18702 0.52299 0.0
C1812 C 0.90314 0.14119 0.52638 0.0
C1813 C 0.90945 0.13504 0.48124 0.0
C1814 C 0.87708 0.1322 0.5236 0.0
C1815 C 0.86722 0.11125 0.53531 0.0
C1816 C 0.88319 0.09888 0.55012 0.0
C1817 C 0.90919 0.10824 0.55307 0.0
C1818 C 0.91902 0.12928 0.54137 0.0
H1819 H 0.91887 0.13427 0.46591 0.0
H1820 H 0.91629 0.11774 0.4903 0.0
H1821 H 0.88771 0.13331 0.47912 0.0
H1822 H 0.86434 0.1414 0.51233 0.0
H1823 H 0.84721 0.10448 0.53252 0.0
H1824 H 0.72926 0.01302 0.03355 0.0
H1825 H 0.76549 0.01876 0.00865 0.0
H1826 H 0.77452 0.10002 0.02764 0.0
H1827 H 0.73877 0.09459 0.05227 0.0
H1828 H 0.77423 0.06234 0.97554 0.0
H1829 H 0.84753 0.05978 0.03875 0.0
H1830 H 0.81462 0.04605 0.04113 0.0
H1831 H 0.81961 0.0812 0.04301 0.0
C1832 C 0.73871 0.0322 0.03212 0.0
C1833 C 0.73135 0.05327 0.045 0.0
C1834 C 0.75936 0.03543 0.01795 0.0
C1835 C 0.7728 0.05973 0.01654 0.0
C1836 C 0.76455 0.08105 0.02866 0.0
H1837 H 0.88221 0.14141 0.93988 0.0
H1838 H 0.84291 0.12161 0.95545 0.0
C1839 C 0.74411 0.07786 0.04275 0.0
C1840 C 0.79659 0.0629 0.00353 0.0
H1841 H 0.86253 0.07682 0.00689 0.0
C1842 C 0.79366 0.06509 0.98228 0.0
C1843 C 0.82191 0.06616 0.01237 0.0
C1844 C 0.82628 0.06297 0.03506 0.0
C1845 C 0.81531 0.07174 0.96972 0.0
C1846 C 0.84032 0.07673 0.97876 0.0
C1847 C 0.84338 0.0732 -8e-05 0.0
C1848 C 0.86335 0.08696 0.96697 0.0
C1849 C 0.81113 0.07352 0.94694 0.0
C1850 C 0.88804 0.07426 0.96833 0.0
C1851 C 0.91059 0.08574 0.95965 0.0
C1852 C 0.90896 0.11016 0.94939 0.0
C1853 C 0.88407 0.1224 0.94739 0.0
C1854 C 0.86153 0.11101 0.95623 0.0
H1855 H 0.79435 0.06083 0.94197 0.0
H1856 H 0.80626 0.09428 0.94281 0.0
H1857 H 0.82919 0.06753 0.93843 0.0
H1858 H 0.88999 0.05576 0.9766 0.0
H1859 H 0.92945 0.07575 0.96127 0.0
H1860 H 0.39536 0.91527 0.98919 0.0
H1861 H 0.41732 0.87461 -0.00036 0.0
H1862 H 0.42997 0.85374 0.93646 0.0
H1863 H 0.40752 0.89466 0.92583 0.0
H1864 H 0.41094 0.81286 0.95706 0.0
H1865 H 0.49372 0.85381 0.00165 0.0
H1866 H 0.46329 0.86803 0.01047 0.0
H1867 H 0.47416 0.87404 0.9846 0.0
C1868 C 0.40327 0.90237 0.97748 0.0
C1869 C 0.39988 0.90833 0.95667 0.0
C1870 C 0.41597 0.87911 0.98349 0.0
C1871 C 0.42598 0.86141 0.96887 0.0
C1872 C 0.42268 0.86726 0.94803 0.0
H1873 H 0.49797 0.72637 0.03367 0.0
H1874 H 0.49523 0.76072 0.00709 0.0
C1875 C 0.40975 0.89054 0.94198 0.0
C1876 C 0.43767 0.83586 0.97564 0.0
H1877 H 0.4781 0.80999 0.01233 0.0
C1878 C 0.42612 0.81219 0.96878 0.0
C1879 C 0.45806 0.83473 0.99046 0.0
C1880 C 0.47321 0.85905 0.99701 0.0
C1881 C 0.43257 0.78778 0.97777 0.0
C1882 C 0.45047 0.78717 0.99441 0.0
C1883 C 0.46395 0.81044 -0.00014 0.0
C1884 C 0.45247 0.76388 0.0082 0.0
C1885 C 0.41939 0.76304 0.96981 0.0
C1886 C 0.42943 0.75419 0.01756 0.0
C1887 C 0.43094 0.7347 0.03257 0.0
C1888 C 0.45558 0.7246 0.03882 0.0
C1889 C 0.4787 0.73368 0.02908 0.0
C1890 C 0.47715 0.7533 0.01394 0.0
H1891 H 0.41574 0.7646 0.9531 0.0
H1892 H 0.43155 0.74511 0.97278 0.0
H1893 H 0.39987 0.76058 0.97738 0.0
H1894 H 0.41024 0.76253 0.01392 0.0
H1895 H 0.41274 0.72819 0.03977 0.0
H1896 H 0.77664 0.40384 0.04792 0.0
H1897 H 0.74249 0.3979 0.02209 0.0
H1898 H 0.74672 0.48097 0.00697 0.0
H1899 H 0.78109 0.48719 0.03317 0.0
H1900 H 0.69516 0.46255 0.01459 0.0
H1901 H 0.74623 0.3965 0.95987 0.0
H1902 H 0.74894 0.38485 0.98569 0.0
H1903 H 0.76388 0.41593 0.97863 0.0
C1904 C 0.77064 0.42083 0.03893 0.0
C1905 C 0.78157 0.44599 0.04257 0.0
C1906 C 0.75122 0.41735 0.02405 0.0
C1907 C 0.74234 0.43889 0.01239 0.0
C1908 C 0.75351 0.46403 0.01568 0.0
H1909 H 0.60194 0.43495 0.93238 0.0
H1910 H 0.64184 0.45058 0.94979 0.0
C1911 C 0.77317 0.46753 0.03058 0.0
C1912 C 0.71989 0.43515 0.99809 0.0
H1913 H 0.69847 0.39553 0.95919 0.0
C1914 C 0.69597 0.44833 0.00218 0.0
C1915 C 0.72103 0.41656 0.98195 0.0
C1916 C 0.7465 0.40285 0.97613 0.0
C1917 C 0.67275 0.44221 0.99133 0.0
C1918 C 0.67364 0.42265 0.97587 0.0
C1919 C 0.69782 0.41036 0.97117 0.0
C1920 C 0.64943 0.41346 0.96524 0.0
C1921 C 0.64717 0.45568 0.99719 0.0
C1922 C 0.64068 0.38733 0.96796 0.0
C1923 C 0.61784 0.37835 0.95811 0.0
C1924 C 0.60334 0.39529 0.94522 0.0
C1925 C 0.6123 0.42148 0.94245 0.0
C1926 C 0.63516 0.43045 0.95235 0.0
H1927 H 0.64895 0.46683 0.01176 0.0
H1928 H 0.64146 0.46984 0.98499 0.0
H1929 H 0.63097 0.44092 0.99874 0.0
H1930 H 0.65142 0.37392 0.97789 0.0
H1931 H 0.6114 0.35821 0.96083 0.0
H1932 H 0.09261 0.78144 0.02931 0.0
H1933 H 0.09673 0.74398 0.00594 0.0
H1934 H 0.01613 0.72122 0.01891 0.0
H1935 H 0.01178 0.75904 0.04238 0.0
H1936 H 0.05612 0.68061 0.02506 0.0
H1937 H 0.06443 0.72787 0.94881 0.0
H1938 H 0.08493 0.74277 0.96808 0.0
H1939 H 0.0495 0.7443 0.9705 0.0
C1940 C 0.07555 0.76882 0.02685 0.0
C1941 C 0.05186 0.77317 0.03762 0.0
C1942 C 0.0779 0.74749 0.01342 0.0
C1943 C 0.05668 0.72997 0.01057 0.0
C1944 C 0.03266 0.73469 0.02079 0.0
H1945 H 0.07307 0.59362 0.92808 0.0
H1946 H 0.05448 0.63173 0.94633 0.0
C1947 C 0.03016 0.75633 0.03408 0.0
C1948 C 0.06082 0.70545 0.99854 0.0
H1949 H 0.08047 0.6833 0.95161 0.0
C1950 C 0.061 0.68111 0.00892 0.0
C1951 C 0.06711 0.70616 0.97749 0.0
C1952 C 0.06628 0.73164 0.96548 0.0
C1953 C 0.06857 0.65762 -0.00099 0.0
C1954 C 0.07627 0.65859 0.97825 0.0
C1955 C 0.0748 0.68268 0.9676 0.0
C1956 C 0.08706 0.63504 0.96761 0.0
C1957 C 0.06877 0.63201 0.01089 0.0
C1958 C 0.11161 0.62444 0.97347 0.0
C1959 C 0.12231 0.60275 0.96305 0.0
C1960 C 0.10861 0.5912 0.94661 0.0
C1961 C 0.08393 0.60182 0.94085 0.0
C1962 C 0.07335 0.62367 0.95117 0.0
H1963 H 0.05654 0.63337 0.02498 0.0
H1964 H 0.06132 0.61541 0.00137 0.0
H1965 H 0.08941 0.62731 0.01547 0.0
H1966 H 0.12263 0.63315 0.98597 0.0
H1967 H 0.14124 0.59493 0.96792 0.0
loop_
_geom_bond_atom_site_label_1
_geom_bond_atom_site_label_2
_geom_bond_distance
_geom_bond_site_symmetry_2
_ccdc_geom_bond_type
C0 C1 1.351 . S
C0 N3 1.368 . S
C0 H5 0.931 . S
C1 C0 1.351 . S
C1 N2 1.373 . S
C1 H29 0.930 . S
N2 C1 1.373 . S
N2 C4 1.340 . S
N3 C0 1.368 . S
N3 C4 1.321 . S
N3 Co6 2.135 . S
C4 N2 1.340 . S
C4 N3 1.321 . S
C4 H28 0.930 . S
H5 C0 0.931 . S
Co6 N3 2.135 . S
Co6 N9 2.121 . S
Co6 O14 2.055 . S
Co6 O17 2.039 . S
Co6 N20 2.140 . S
C7 O8 1.227 . S
C7 O17 1.265 . S
O8 C7 1.227 . S
N9 Co6 2.121 . S
N9 C11 1.375 . S
N9 C12 1.313 . S
C10 C11 1.338 . S
C10 N13 1.377 . S
C10 H30 0.930 . S
C11 N9 1.375 . S
C11 C10 1.338 . S
C11 H15 0.931 . S
C12 N9 1.313 . S
C12 N13 1.344 . S
C12 H16 0.930 . S
N13 C10 1.377 . S
N13 C12 1.344 . S
O14 Co6 2.055 . S
O14 C18 1.253 . S
H15 C11 0.931 . S
H16 C12 0.930 . S
O17 Co6 2.039 . S
O17 C7 1.265 . S
C18 O14 1.253 . S
C18 O19 1.227 . S
O19 C18 1.227 . S
N20 Co6 2.140 . S
N20 C23 1.346 . S
N20 C24 1.345 . S
C21 C22 1.387 . S
C21 C25 1.391 . S
C22 C21 1.387 . S
C22 C23 1.369 . S
C22 H31 0.929 . S
C23 N20 1.346 . S
C23 C22 1.369 . S
C23 H26 0.928 . S
C24 N20 1.345 . S
C24 C25 1.371 . S
C24 H27 0.931 . S
C25 C21 1.391 . S
C25 C24 1.371 . S
C25 H32 0.930 . S
H26 C23 0.928 . S
H27 C24 0.931 . S
H28 C4 0.930 . S
H29 C1 0.930 . S
H30 C10 0.930 . S
H31 C22 0.929 . S
H32 C25 0.930 . S
C33 C34 1.351 . S
C33 N36 1.368 . S
C33 H38 0.931 . S
C34 C33 1.351 . S
C34 N35 1.373 . S
C34 H62 0.930 . S
N35 C34 1.373 . S
N35 C37 1.340 . S
N36 C33 1.368 . S
N36 C37 1.321 . S
N36 Co39 2.135 . S
C37 N35 1.340 . S
C37 N36 1.321 . S
C37 H61 0.930 . S
H38 C33 0.931 . S
Co39 N36 2.135 . S
Co39 N42 2.121 . S
Co39 O47 2.055 . S
Co39 O50 2.039 . S
Co39 N53 2.140 . S
C40 O41 1.227 . S
C40 O50 1.265 . S
O41 C40 1.227 . S
N42 Co39 2.121 . S
N42 C44 1.375 . S
N42 C45 1.313 . S
C43 C44 1.338 . S
C43 N46 1.377 . S
C43 H63 0.930 . S
C44 N42 1.375 . S
C44 C43 1.338 . S
C44 H48 0.931 . S
C45 N42 1.313 . S
C45 N46 1.344 . S
C45 H49 0.930 . S
N46 C43 1.377 . S
N46 C45 1.344 . S
O47 Co39 2.055 . S
O47 C51 1.253 . S
H48 C44 0.931 . S
H49 C45 0.930 . S
O50 Co39 2.039 . S
O50 C40 1.265 . S
C51 O47 1.253 . S
C51 O52 1.227 . S
O52 C51 1.227 . S
N53 Co39 2.140 . S
N53 C56 1.346 . S
N53 C57 1.345 . S
C54 C55 1.387 . S
C54 C58 1.391 . S
C55 C54 1.387 . S
C55 C56 1.369 . S
C55 H64 0.929 . S
C56 N53 1.346 . S
C56 C55 1.369 . S
C56 H59 0.928 . S
C57 N53 1.345 . S
C57 C58 1.371 . S
C57 H60 0.931 . S
C58 C54 1.391 . S
C58 C57 1.371 . S
C58 H65 0.930 . S
H59 C56 0.928 . S
H60 C57 0.931 . S
H61 C37 0.930 . S
H62 C34 0.930 . S
H63 C43 0.930 . S
H64 C55 0.929 . S
H65 C58 0.930 . S
C66 C67 1.351 . S
C66 N69 1.368 . S
C66 H71 0.931 . S
C67 C66 1.351 . S
C67 N68 1.373 1_655 S
C67 H95 0.930 . S
N68 C67 1.373 1_455 S
N68 C70 1.340 . S
N69 C66 1.368 . S
N69 C70 1.321 1_655 S
N69 Co72 2.135 . S
C70 N68 1.340 . S
C70 N69 1.321 1_455 S
C70 H94 0.930 . S
H71 C66 0.931 . S
Co72 N69 2.135 . S
Co72 N75 2.121 . S
Co72 O80 2.055 . S
Co72 O83 2.039 . S
Co72 N86 2.140 . S
C73 O74 1.227 . S
C73 O83 1.265 1_455 S
O74 C73 1.227 . S
N75 Co72 2.121 . S
N75 C77 1.375 . S
N75 C78 1.313 . S
C76 C77 1.338 . S
C76 N79 1.377 . S
C76 H96 0.930 . S
C77 N75 1.375 . S
C77 C76 1.338 . S
C77 H81 0.931 . S
C78 N75 1.313 . S
C78 N79 1.344 . S
C78 H82 0.930 . S
N79 C76 1.377 . S
N79 C78 1.344 . S
O80 Co72 2.055 . S
O80 C84 1.253 . S
H81 C77 0.931 . S
H82 C78 0.930 . S
O83 Co72 2.039 . S
O83 C73 1.265 1_655 S
C84 O80 1.253 . S
C84 O85 1.227 . S
O85 C84 1.227 . S
N86 Co72 2.140 . S
N86 C89 1.346 . S
N86 C90 1.345 . S
C87 C88 1.387 . S
C87 C91 1.391 . S
C88 C87 1.387 . S
C88 C89 1.369 . S
C88 H97 0.929 . S
C89 N86 1.346 . S
C89 C88 1.369 . S
C89 H92 0.928 . S
C90 N86 1.345 . S
C90 C91 1.371 . S
C90 H93 0.931 . S
C91 C87 1.391 . S
C91 C90 1.371 . S
C91 H98 0.930 . S
H92 C89 0.928 . S
H93 C90 0.931 . S
H94 C70 0.930 . S
H95 C67 0.930 . S
H96 C76 0.930 . S
H97 C88 0.929 . S
H98 C91 0.930 . S
C99 C100 1.351 . S
C99 N102 1.368 . S
C99 H104 0.931 . S
C100 C99 1.351 . S
C100 N101 1.373 1_565 S
C100 H128 0.930 . S
N101 C100 1.373 1_545 S
N101 C103 1.340 . S
N102 C99 1.368 . S
N102 C103 1.321 1_565 S
N102 Co105 2.135 . S
C103 N101 1.340 . S
C103 N102 1.321 1_545 S
C103 H127 0.930 . S
H104 C99 0.931 . S
Co105 N102 2.135 . S
Co105 N108 2.121 . S
Co105 O113 2.055 . S
Co105 O116 2.039 . S
Co105 N119 2.140 . S
C106 O107 1.227 . S
C106 O116 1.265 1_545 S
O107 C106 1.227 . S
N108 Co105 2.121 . S
N108 C110 1.375 . S
N108 C111 1.313 . S
C109 C110 1.338 . S
C109 N112 1.377 . S
C109 H129 0.930 . S
C110 N108 1.375 . S
C110 C109 1.338 . S
C110 H114 0.931 . S
C111 N108 1.313 . S
C111 N112 1.344 . S
C111 H115 0.930 . S
N112 C109 1.377 . S
N112 C111 1.344 . S
O113 Co105 2.055 . S
O113 C117 1.253 . S
H114 C110 0.931 . S
H115 C111 0.930 . S
O116 Co105 2.039 . S
O116 C106 1.265 1_565 S
C117 O113 1.253 . S
C117 O118 1.227 . S
O118 C117 1.227 . S
N119 Co105 2.140 . S
N119 C122 1.346 . S
N119 C123 1.345 . S
C120 C121 1.387 . S
C120 C124 1.391 . S
C121 C120 1.387 . S
C121 C122 1.369 . S
C121 H130 0.929 . S
C122 N119 1.346 . S
C122 C121 1.369 . S
C122 H125 0.928 . S
C123 N119 1.345 . S
C123 C124 1.371 . S
C123 H126 0.931 . S
C124 C120 1.391 . S
C124 C123 1.371 . S
C124 H131 0.930 . S
H125 C122 0.928 . S
H126 C123 0.931 . S
H127 C103 0.930 . S
H128 C100 0.930 . S
H129 C109 0.930 . S
H130 C121 0.929 . S
H131 C124 0.930 . S
C132 C133 1.351 . S
C132 N135 1.368 . S
C132 H137 0.931 . S
C133 C132 1.351 . S
C133 N134 1.373 1_455 S
C133 H161 0.930 . S
N134 C133 1.373 1_655 S
N134 C136 1.340 . S
N135 C132 1.368 . S
N135 C136 1.321 1_455 S
N135 Co138 2.135 . S
C136 N134 1.340 . S
C136 N135 1.321 1_655 S
C136 H160 0.930 . S
H137 C132 0.931 . S
Co138 N135 2.135 . S
Co138 N141 2.121 . S
Co138 O146 2.055 . S
Co138 O149 2.039 . S
Co138 N152 2.140 . S
C139 O140 1.227 . S
C139 O149 1.265 1_655 S
O140 C139 1.227 . S
N141 Co138 2.121 . S
N141 C143 1.375 . S
N141 C144 1.313 . S
C142 C143 1.338 . S
C142 N145 1.377 . S
C142 H162 0.930 . S
C143 N141 1.375 . S
C143 C142 1.338 . S
C143 H147 0.931 . S
C144 N141 1.313 . S
C144 N145 1.344 . S
C144 H148 0.930 . S
N145 C142 1.377 . S
N145 C144 1.344 . S
O146 Co138 2.055 . S
O146 C150 1.253 . S
H147 C143 0.931 . S
H148 C144 0.930 . S
O149 Co138 2.039 . S
O149 C139 1.265 1_455 S
C150 O146 1.253 . S
C150 O151 1.227 . S
O151 C150 1.227 . S
N152 Co138 2.140 . S
N152 C155 1.346 . S
N152 C156 1.345 . S
C153 C154 1.387 . S
C153 C157 1.391 . S
C154 C153 1.387 . S
C154 C155 1.369 . S
C154 H163 0.929 . S
C155 N152 1.346 . S
C155 C154 1.369 . S
C155 H158 0.928 . S
C156 N152 1.345 . S
C156 C157 1.371 . S
C156 H159 0.931 . S
C157 C153 1.391 . S
C157 C156 1.371 . S
C157 H164 0.930 . S
H158 C155 0.928 . S
H159 C156 0.931 . S
H160 C136 0.930 . S
H161 C133 0.930 . S
H162 C142 0.930 . S
H163 C154 0.929 . S
H164 C157 0.930 . S
C165 C166 1.351 . S
C165 N168 1.368 . S
C165 H170 0.931 . S
C166 C165 1.351 . S
C166 N167 1.373 1_545 S
C166 H194 0.930 . S
N167 C166 1.373 1_565 S
N167 C169 1.340 . S
N168 C165 1.368 . S
N168 C169 1.321 1_545 S
N168 Co171 2.135 . S
C169 N167 1.340 . S
C169 N168 1.321 1_565 S
C169 H193 0.930 . S
H170 C165 0.931 . S
Co171 N168 2.135 . S
Co171 N174 2.121 . S
Co171 O179 2.055 . S
Co171 O182 2.039 . S
Co171 N185 2.140 . S
C172 O173 1.227 . S
C172 O182 1.265 1_565 S
O173 C172 1.227 . S
N174 Co171 2.121 . S
N174 C176 1.375 . S
N174 C177 1.313 . S
C175 C176 1.338 . S
C175 N178 1.377 . S
C175 H195 0.930 . S
C176 N174 1.375 . S
C176 C175 1.338 . S
C176 H180 0.931 . S
C177 N174 1.313 . S
C177 N178 1.344 . S
C177 H181 0.930 . S
N178 C175 1.377 . S
N178 C177 1.344 . S
O179 Co171 2.055 . S
O179 C183 1.253 . S
H180 C176 0.931 . S
H181 C177 0.930 . S
O182 Co171 2.039 . S
O182 C172 1.265 1_545 S
C183 O179 1.253 . S
C183 O184 1.227 . S
O184 C183 1.227 . S
N185 Co171 2.140 . S
N185 C188 1.346 . S
N185 C189 1.345 . S
C186 C187 1.387 . S
C186 C190 1.391 . S
C187 C186 1.387 . S
C187 C188 1.369 . S
C187 H196 0.929 . S
C188 N185 1.346 . S
C188 C187 1.369 . S
C188 H191 0.928 . S
C189 N185 1.345 . S
C189 C190 1.371 . S
C189 H192 0.931 . S
C190 C186 1.391 . S
C190 C189 1.371 . S
C190 H197 0.930 . S
H191 C188 0.928 . S
H192 C189 0.931 . S
H193 C169 0.930 . S
H194 C166 0.930 . S
H195 C175 0.930 . S
H196 C187 0.929 . S
H197 C190 0.930 . S
C198 C199 1.351 . S
C198 N201 1.368 . S
C198 H203 0.931 . S
C199 C198 1.351 . S
C199 N200 1.373 . S
C199 H227 0.930 . S
N200 C199 1.373 . S
N200 C202 1.340 . S
N201 C198 1.368 . S
N201 C202 1.321 . S
N201 Co204 2.135 . S
C202 N200 1.340 . S
C202 N201 1.321 . S
C202 H226 0.930 . S
H203 C198 0.931 . S
Co204 N201 2.135 . S
Co204 N207 2.121 . S
Co204 O212 2.055 . S
Co204 O215 2.039 . S
Co204 N218 2.140 . S
C205 O206 1.227 . S
C205 O215 1.265 . S
O206 C205 1.227 . S
N207 Co204 2.121 . S
N207 C209 1.375 . S
N207 C210 1.313 . S
C208 C209 1.338 . S
C208 N211 1.377 . S
C208 H228 0.930 . S
C209 N207 1.375 . S
C209 C208 1.338 . S
C209 H213 0.931 . S
C210 N207 1.313 . S
C210 N211 1.344 . S
C210 H214 0.930 . S
N211 C208 1.377 . S
N211 C210 1.344 . S
O212 Co204 2.055 . S
O212 C216 1.253 . S
H213 C209 0.931 . S
H214 C210 0.930 . S
O215 Co204 2.039 . S
O215 C205 1.265 . S
C216 O212 1.253 . S
C216 O217 1.227 . S
O217 C216 1.227 . S
N218 Co204 2.140 . S
N218 C221 1.346 . S
N218 C222 1.345 . S
C219 C220 1.387 . S
C219 C223 1.391 . S
C220 C219 1.387 . S
C220 C221 1.369 . S
C220 H229 0.929 . S
C221 N218 1.346 . S
C221 C220 1.369 . S
C221 H224 0.928 . S
C222 N218 1.345 . S
C222 C223 1.371 . S
C222 H225 0.931 . S
C223 C219 1.391 . S
C223 C222 1.371 . S
C223 H230 0.930 . S
H224 C221 0.928 . S
H225 C222 0.931 . S
H226 C202 0.930 . S
H227 C199 0.930 . S
H228 C208 0.930 . S
H229 C220 0.929 . S
H230 C223 0.930 . S
C231 C232 1.351 . S
C231 N234 1.368 . S
C231 H236 0.931 . S
C232 C231 1.351 . S
C232 N233 1.373 . S
C232 H260 0.930 . S
N233 C232 1.373 . S
N233 C235 1.340 . S
N234 C231 1.368 . S
N234 C235 1.321 . S
N234 Co237 2.135 . S
C235 N233 1.340 . S
C235 N234 1.321 . S
C235 H259 0.930 . S
H236 C231 0.931 . S
Co237 N234 2.135 . S
Co237 N240 2.121 . S
Co237 O245 2.055 . S
Co237 O248 2.039 . S
Co237 N251 2.140 . S
C238 O239 1.227 . S
C238 O248 1.265 . S
O239 C238 1.227 . S
N240 Co237 2.121 . S
N240 C242 1.375 . S
N240 C243 1.313 . S
C241 C242 1.338 . S
C241 N244 1.377 . S
C241 H261 0.930 . S
C242 N240 1.375 . S
C242 C241 1.338 . S
C242 H246 0.931 . S
C243 N240 1.313 . S
C243 N244 1.344 . S
C243 H247 0.930 . S
N244 C241 1.377 . S
N244 C243 1.344 . S
O245 Co237 2.055 . S
O245 C249 1.253 . S
H246 C242 0.931 . S
H247 C243 0.930 . S
O248 Co237 2.039 . S
O248 C238 1.265 . S
C249 O245 1.253 . S
C249 O250 1.227 . S
O250 C249 1.227 . S
N251 Co237 2.140 . S
N251 C254 1.346 . S
N251 C255 1.345 . S
C252 C253 1.387 . S
C252 C256 1.391 . S
C253 C252 1.387 . S
C253 C254 1.369 . S
C253 H262 0.929 . S
C254 N251 1.346 . S
C254 C253 1.369 . S
C254 H257 0.928 . S
C255 N251 1.345 . S
C255 C256 1.371 . S
C255 H258 0.931 . S
C256 C252 1.391 . S
C256 C255 1.371 . S
C256 H263 0.930 . S
H257 C254 0.928 . S
H258 C255 0.931 . S
H259 C235 0.930 . S
H260 C232 0.930 . S
H261 C241 0.930 . S
H262 C253 0.929 . S
H263 C256 0.930 . S
C264 C265 1.351 . S
C264 N267 1.368 . S
C264 H269 0.931 . S
C265 C264 1.351 . S
C265 N266 1.373 . S
C265 H293 0.930 . S
N266 C265 1.373 . S
N266 C268 1.340 . S
N267 C264 1.368 . S
N267 C268 1.321 . S
N267 Co270 2.135 . S
C268 N266 1.340 . S
C268 N267 1.321 . S
C268 H292 0.930 . S
H269 C264 0.931 . S
Co270 N267 2.135 . S
Co270 N273 2.121 . S
Co270 O278 2.055 . S
Co270 O281 2.039 . S
Co270 N284 2.140 . S
C271 O272 1.227 . S
C271 O281 1.265 . S
O272 C271 1.227 . S
N273 Co270 2.121 . S
N273 C275 1.375 . S
N273 C276 1.313 . S
C274 C275 1.338 . S
C274 N277 1.377 . S
C274 H294 0.930 . S
C275 N273 1.375 . S
C275 C274 1.338 . S
C275 H279 0.931 . S
C276 N273 1.313 . S
C276 N277 1.344 . S
C276 H280 0.930 . S
N277 C274 1.377 . S
N277 C276 1.344 . S
O278 Co270 2.055 . S
O278 C282 1.253 . S
H279 C275 0.931 . S
H280 C276 0.930 . S
O281 Co270 2.039 . S
O281 C271 1.265 . S
C282 O278 1.253 . S
C282 O283 1.227 . S
O283 C282 1.227 . S
N284 Co270 2.140 . S
N284 C287 1.346 . S
N284 C288 1.345 . S
C285 C286 1.387 . S
C285 C289 1.391 . S
C286 C285 1.387 . S
C286 C287 1.369 . S
C286 H295 0.929 . S
C287 N284 1.346 . S
C287 C286 1.369 . S
C287 H290 0.928 . S
C288 N284 1.345 . S
C288 C289 1.371 . S
C288 H291 0.931 . S
C289 C285 1.391 . S
C289 C288 1.371 . S
C289 H296 0.930 . S
H290 C287 0.928 . S
H291 C288 0.931 . S
H292 C268 0.930 . S
H293 C265 0.930 . S
H294 C274 0.930 . S
H295 C286 0.929 . S
H296 C289 0.930 . S
C297 C298 1.351 . S
C297 N300 1.368 . S
C297 H302 0.931 . S
C298 C297 1.351 . S
C298 N299 1.373 . S
C298 H326 0.930 . S
N299 C298 1.373 . S
N299 C301 1.340 . S
N300 C297 1.368 . S
N300 C301 1.321 . S
N300 Co303 2.135 . S
C301 N299 1.340 . S
C301 N300 1.321 . S
C301 H325 0.930 . S
H302 C297 0.931 . S
Co303 N300 2.135 . S
Co303 N306 2.121 . S
Co303 O311 2.055 . S
Co303 O314 2.039 . S
Co303 N317 2.140 . S
C304 O305 1.227 . S
C304 O314 1.265 . S
O305 C304 1.227 . S
N306 Co303 2.121 . S
N306 C308 1.375 . S
N306 C309 1.313 . S
C307 C308 1.338 . S
C307 N310 1.377 . S
C307 H327 0.930 . S
C308 N306 1.375 . S
C308 C307 1.338 . S
C308 H312 0.931 . S
C309 N306 1.313 . S
C309 N310 1.344 . S
C309 H313 0.930 . S
N310 C307 1.377 . S
N310 C309 1.344 . S
O311 Co303 2.055 . S
O311 C315 1.253 . S
H312 C308 0.931 . S
H313 C309 0.930 . S
O314 Co303 2.039 . S
O314 C304 1.265 . S
C315 O311 1.253 . S
C315 O316 1.227 . S
O316 C315 1.227 . S
N317 Co303 2.140 . S
N317 C320 1.346 . S
N317 C321 1.345 . S
C318 C319 1.387 . S
C318 C322 1.391 . S
C319 C318 1.387 . S
C319 C320 1.369 . S
C319 H328 0.929 . S
C320 N317 1.346 . S
C320 C319 1.369 . S
C320 H323 0.928 . S
C321 N317 1.345 . S
C321 C322 1.371 . S
C321 H324 0.931 . S
C322 C318 1.391 . S
C322 C321 1.371 . S
C322 H329 0.930 . S
H323 C320 0.928 . S
H324 C321 0.931 . S
H325 C301 0.930 . S
H326 C298 0.930 . S
H327 C307 0.930 . S
H328 C319 0.929 . S
H329 C322 0.930 . S
C330 C331 1.351 . S
C330 N333 1.368 . S
C330 H335 0.931 . S
C331 C330 1.351 . S
C331 N332 1.373 1_455 S
C331 H359 0.930 . S
N332 C331 1.373 1_655 S
N332 C334 1.340 . S
N333 C330 1.368 . S
N333 C334 1.321 1_455 S
N333 Co336 2.135 . S
C334 N332 1.340 . S
C334 N333 1.321 1_655 S
C334 H358 0.930 . S
H335 C330 0.931 . S
Co336 N333 2.135 . S
Co336 N339 2.121 . S
Co336 O344 2.055 . S
Co336 O347 2.039 . S
Co336 N350 2.140 . S
C337 O338 1.227 . S
C337 O347 1.265 1_655 S
O338 C337 1.227 . S
N339 Co336 2.121 . S
N339 C341 1.375 . S
N339 C342 1.313 . S
C340 C341 1.338 . S
C340 N343 1.377 . S
C340 H360 0.930 . S
C341 N339 1.375 . S
C341 C340 1.338 . S
C341 H345 0.931 . S
C342 N339 1.313 . S
C342 N343 1.344 . S
C342 H346 0.930 . S
N343 C340 1.377 . S
N343 C342 1.344 . S
O344 Co336 2.055 . S
O344 C348 1.253 . S
H345 C341 0.931 . S
H346 C342 0.930 . S
O347 Co336 2.039 . S
O347 C337 1.265 1_455 S
C348 O344 1.253 . S
C348 O349 1.227 . S
O349 C348 1.227 . S
N350 Co336 2.140 . S
N350 C353 1.346 . S
N350 C354 1.345 . S
C351 C352 1.387 . S
C351 C355 1.391 . S
C352 C351 1.387 . S
C352 C353 1.369 . S
C352 H361 0.929 . S
C353 N350 1.346 . S
C353 C352 1.369 . S
C353 H356 0.928 . S
C354 N350 1.345 . S
C354 C355 1.371 . S
C354 H357 0.931 . S
C355 C351 1.391 . S
C355 C354 1.371 . S
C355 H362 0.930 . S
H356 C353 0.928 . S
H357 C354 0.931 . S
H358 C334 0.930 . S
H359 C331 0.930 . S
H360 C340 0.930 . S
H361 C352 0.929 . S
H362 C355 0.930 . S
C363 C364 1.351 . S
C363 N366 1.368 . S
C363 H368 0.931 . S
C364 C363 1.351 . S
C364 N365 1.373 1_545 S
C364 H392 0.930 . S
N365 C364 1.373 1_565 S
N365 C367 1.340 . S
N366 C363 1.368 . S
N366 C367 1.321 1_545 S
N366 Co369 2.135 . S
C367 N365 1.340 . S
C367 N366 1.321 1_565 S
C367 H391 0.930 . S
H368 C363 0.931 . S
Co369 N366 2.135 . S
Co369 N372 2.121 . S
Co369 O377 2.055 . S
Co369 O380 2.039 . S
Co369 N383 2.140 . S
C370 O371 1.227 . S
C370 O380 1.265 1_565 S
O371 C370 1.227 . S
N372 Co369 2.121 . S
N372 C374 1.375 . S
N372 C375 1.313 . S
C373 C374 1.338 . S
C373 N376 1.377 . S
C373 H393 0.930 . S
C374 N372 1.375 . S
C374 C373 1.338 . S
C374 H378 0.931 . S
C375 N372 1.313 . S
C375 N376 1.344 . S
C375 H379 0.930 . S
N376 C373 1.377 . S
N376 C375 1.344 . S
O377 Co369 2.055 . S
O377 C381 1.253 . S
H378 C374 0.931 . S
H379 C375 0.930 . S
O380 Co369 2.039 . S
O380 C370 1.265 1_545 S
C381 O377 1.253 . S
C381 O382 1.227 . S
O382 C381 1.227 . S
N383 Co369 2.140 . S
N383 C386 1.346 . S
N383 C387 1.345 . S
C384 C385 1.387 . S
C384 C388 1.391 . S
C385 C384 1.387 . S
C385 C386 1.369 . S
C385 H394 0.929 . S
C386 N383 1.346 . S
C386 C385 1.369 . S
C386 H389 0.928 . S
C387 N383 1.345 . S
C387 C388 1.371 . S
C387 H390 0.931 . S
C388 C384 1.391 . S
C388 C387 1.371 . S
C388 H395 0.930 . S
H389 C386 0.928 . S
H390 C387 0.931 . S
H391 C367 0.930 . S
H392 C364 0.930 . S
H393 C373 0.930 . S
H394 C385 0.929 . S
H395 C388 0.930 . S
C396 C397 1.351 . S
C396 N399 1.368 . S
C396 H401 0.931 . S
C397 C396 1.351 . S
C397 N398 1.373 1_655 S
C397 H425 0.930 . S
N398 C397 1.373 1_455 S
N398 C400 1.340 . S
N399 C396 1.368 . S
N399 C400 1.321 1_655 S
N399 Co402 2.135 . S
C400 N398 1.340 . S
C400 N399 1.321 1_455 S
C400 H424 0.930 . S
H401 C396 0.931 . S
Co402 N399 2.135 . S
Co402 N405 2.121 . S
Co402 O410 2.055 . S
Co402 O413 2.039 . S
Co402 N416 2.140 . S
C403 O404 1.227 . S
C403 O413 1.265 1_455 S
O404 C403 1.227 . S
N405 Co402 2.121 . S
N405 C407 1.375 . S
N405 C408 1.313 . S
C406 C407 1.338 . S
C406 N409 1.377 . S
C406 H426 0.930 . S
C407 N405 1.375 . S
C407 C406 1.338 . S
C407 H411 0.931 . S
C408 N405 1.313 . S
C408 N409 1.344 . S
C408 H412 0.930 . S
N409 C406 1.377 . S
N409 C408 1.344 . S
O410 Co402 2.055 . S
O410 C414 1.253 . S
H411 C407 0.931 . S
H412 C408 0.930 . S
O413 Co402 2.039 . S
O413 C403 1.265 1_655 S
C414 O410 1.253 . S
C414 O415 1.227 . S
O415 C414 1.227 . S
N416 Co402 2.140 . S
N416 C419 1.346 . S
N416 C420 1.345 . S
C417 C418 1.387 . S
C417 C421 1.391 . S
C418 C417 1.387 . S
C418 C419 1.369 . S
C418 H427 0.929 . S
C419 N416 1.346 . S
C419 C418 1.369 . S
C419 H422 0.928 . S
C420 N416 1.345 . S
C420 C421 1.371 . S
C420 H423 0.931 . S
C421 C417 1.391 . S
C421 C420 1.371 . S
C421 H428 0.930 . S
H422 C419 0.928 . S
H423 C420 0.931 . S
H424 C400 0.930 . S
H425 C397 0.930 . S
H426 C406 0.930 . S
H427 C418 0.929 . S
H428 C421 0.930 . S
C429 C430 1.351 . S
C429 N432 1.368 . S
C429 H434 0.931 . S
C430 C429 1.351 . S
C430 N431 1.373 1_565 S
C430 H458 0.930 . S
N431 C430 1.373 1_545 S
N431 C433 1.340 . S
N432 C429 1.368 . S
N432 C433 1.321 1_565 S
N432 Co435 2.135 . S
C433 N431 1.340 . S
C433 N432 1.321 1_545 S
C433 H457 0.930 . S
H434 C429 0.931 . S
Co435 N432 2.135 . S
Co435 N438 2.121 . S
Co435 O443 2.055 . S
Co435 O446 2.039 . S
Co435 N449 2.140 . S
C436 O437 1.227 . S
C436 O446 1.265 1_545 S
O437 C436 1.227 . S
N438 Co435 2.121 . S
N438 C440 1.375 . S
N438 C441 1.313 . S
C439 C440 1.338 . S
C439 N442 1.377 . S
C439 H459 0.930 . S
C440 N438 1.375 . S
C440 C439 1.338 . S
C440 H444 0.931 . S
C441 N438 1.313 . S
C441 N442 1.344 . S
C441 H445 0.930 . S
N442 C439 1.377 . S
N442 C441 1.344 . S
O443 Co435 2.055 . S
O443 C447 1.253 . S
H444 C440 0.931 . S
H445 C441 0.930 . S
O446 Co435 2.039 . S
O446 C436 1.265 1_565 S
C447 O443 1.253 . S
C447 O448 1.227 . S
O448 C447 1.227 . S
N449 Co435 2.140 . S
N449 C452 1.346 . S
N449 C453 1.345 . S
C450 C451 1.387 . S
C450 C454 1.391 . S
C451 C450 1.387 . S
C451 C452 1.369 . S
C451 H460 0.929 . S
C452 N449 1.346 . S
C452 C451 1.369 . S
C452 H455 0.928 . S
C453 N449 1.345 . S
C453 C454 1.371 . S
C453 H456 0.931 . S
C454 C450 1.391 . S
C454 C453 1.371 . S
C454 H461 0.930 . S
H455 C452 0.928 . S
H456 C453 0.931 . S
H457 C433 0.930 . S
H458 C430 0.930 . S
H459 C439 0.930 . S
H460 C451 0.929 . S
H461 C454 0.930 . S
C462 C463 1.351 . S
C462 N465 1.368 . S
C462 H467 0.931 . S
C463 C462 1.351 . S
C463 N464 1.373 . S
C463 H491 0.930 . S
N464 C463 1.373 . S
N464 C466 1.340 . S
N465 C462 1.368 . S
N465 C466 1.321 . S
N465 Co468 2.135 . S
C466 N464 1.340 . S
C466 N465 1.321 . S
C466 H490 0.930 . S
H467 C462 0.931 . S
Co468 N465 2.135 . S
Co468 N471 2.121 . S
Co468 O476 2.055 . S
Co468 O479 2.039 . S
Co468 N482 2.140 . S
C469 O470 1.227 . S
C469 O479 1.265 . S
O470 C469 1.227 . S
N471 Co468 2.121 . S
N471 C473 1.375 . S
N471 C474 1.313 . S
C472 C473 1.338 . S
C472 N475 1.377 . S
C472 H492 0.930 . S
C473 N471 1.375 . S
C473 C472 1.338 . S
C473 H477 0.931 . S
C474 N471 1.313 . S
C474 N475 1.344 . S
C474 H478 0.930 . S
N475 C472 1.377 . S
N475 C474 1.344 . S
O476 Co468 2.055 . S
O476 C480 1.253 . S
H477 C473 0.931 . S
H478 C474 0.930 . S
O479 Co468 2.039 . S
O479 C469 1.265 . S
C480 O476 1.253 . S
C480 O481 1.227 . S
O481 C480 1.227 . S
N482 Co468 2.140 . S
N482 C485 1.346 . S
N482 C486 1.345 . S
C483 C484 1.387 . S
C483 C487 1.391 . S
C484 C483 1.387 . S
C484 C485 1.369 . S
C484 H493 0.929 . S
C485 N482 1.346 . S
C485 C484 1.369 . S
C485 H488 0.928 . S
C486 N482 1.345 . S
C486 C487 1.371 . S
C486 H489 0.931 . S
C487 C483 1.391 . S
C487 C486 1.371 . S
C487 H494 0.930 . S
H488 C485 0.928 . S
H489 C486 0.931 . S
H490 C466 0.930 . S
H491 C463 0.930 . S
H492 C472 0.930 . S
H493 C484 0.929 . S
H494 C487 0.930 . S
C495 C496 1.351 . S
C495 N498 1.368 . S
C495 H500 0.931 . S
C496 C495 1.351 . S
C496 N497 1.373 . S
C496 H524 0.930 . S
N497 C496 1.373 . S
N497 C499 1.340 . S
N498 C495 1.368 . S
N498 C499 1.321 . S
N498 Co501 2.135 . S
C499 N497 1.340 . S
C499 N498 1.321 . S
C499 H523 0.930 . S
H500 C495 0.931 . S
Co501 N498 2.135 . S
Co501 N504 2.121 . S
Co501 O509 2.055 . S
Co501 O512 2.039 . S
Co501 N515 2.140 . S
C502 O503 1.227 . S
C502 O512 1.265 . S
O503 C502 1.227 . S
N504 Co501 2.121 . S
N504 C506 1.375 . S
N504 C507 1.313 . S
C505 C506 1.338 . S
C505 N508 1.377 . S
C505 H525 0.930 . S
C506 N504 1.375 . S
C506 C505 1.338 . S
C506 H510 0.931 . S
C507 N504 1.313 . S
C507 N508 1.344 . S
C507 H511 0.930 . S
N508 C505 1.377 . S
N508 C507 1.344 . S
O509 Co501 2.055 . S
O509 C513 1.253 . S
H510 C506 0.931 . S
H511 C507 0.930 . S
O512 Co501 2.039 . S
O512 C502 1.265 . S
C513 O509 1.253 . S
C513 O514 1.227 . S
O514 C513 1.227 . S
N515 Co501 2.140 . S
N515 C518 1.346 . S
N515 C519 1.345 . S
C516 C517 1.387 . S
C516 C520 1.391 . S
C517 C516 1.387 . S
C517 C518 1.369 . S
C517 H526 0.929 . S
C518 N515 1.346 . S
C518 C517 1.369 . S
C518 H521 0.928 . S
C519 N515 1.345 . S
C519 C520 1.371 . S
C519 H522 0.931 . S
C520 C516 1.391 . S
C520 C519 1.371 . S
C520 H527 0.930 . S
H521 C518 0.928 . S
H522 C519 0.931 . S
H523 C499 0.930 . S
H524 C496 0.930 . S
H525 C505 0.930 . S
H526 C517 0.929 . S
H527 C520 0.930 . S
H528 C536 0.929 . S
H529 C538 0.930 . S
H530 C540 0.930 . S
H531 C543 0.929 . S
H532 C546 0.930 . S
H533 C548 0.960 . S
H534 C548 0.960 . S
H535 C548 0.960 . S
C536 H528 0.929 . S
C536 C537 1.377 . S
C536 C538 1.384 . S
C537 C536 1.377 . S
C537 C543 1.390 . S
C538 H529 0.930 . S
C538 C536 1.384 . S
C538 C539 1.372 . S
C539 C538 1.372 . S
C539 C540 1.400 . S
C539 C544 1.490 . S
C540 H530 0.930 . S
C540 C539 1.400 . S
C540 C543 1.386 . S
H541 C557 0.930 . S
H542 C558 0.931 . S
C543 H531 0.929 . S
C543 C537 1.390 . S
C543 C540 1.386 . S
C544 C539 1.490 . S
C544 C546 1.395 . S
C544 C547 1.403 . S
H545 C551 0.930 . S
C546 H532 0.930 . S
C546 C544 1.395 . S
C546 C549 1.403 . S
C547 C544 1.403 . S
C547 C548 1.524 . S
C547 C551 1.400 . S
C548 H533 0.960 . S
C548 H534 0.960 . S
C548 H535 0.960 . S
C548 C547 1.524 . S
C549 C546 1.403 . S
C549 C550 1.392 . S
C549 C553 1.495 . S
C550 C549 1.392 . S
C550 C551 1.385 . S
C550 C552 1.478 . S
C551 H545 0.930 . S
C551 C547 1.400 . S
C551 C550 1.385 . S
C552 C550 1.478 . S
C552 C554 1.381 . S
C552 C558 1.383 . S
C553 C549 1.495 . S
C553 H559 0.959 . S
C553 H560 0.961 . S
C553 H561 0.960 . S
C554 C552 1.381 . S
C554 C555 1.394 . S
C554 H562 0.930 . S
C555 C554 1.394 . S
C555 C556 1.383 . S
C555 H563 0.929 . S
C556 C555 1.383 . S
C556 C557 1.377 . S
C557 H541 0.930 . S
C557 C556 1.377 . S
C557 C558 1.379 . S
C558 H542 0.931 . S
C558 C552 1.383 . S
C558 C557 1.379 . S
H559 C553 0.959 . S
H560 C553 0.961 . S
H561 C553 0.960 . S
H562 C554 0.930 . S
H563 C555 0.929 . S
H564 C572 0.929 . S
H565 C574 0.930 . S
H566 C576 0.930 . S
H567 C579 0.929 . S
H568 C582 0.930 . S
H569 C584 0.960 . S
H570 C584 0.960 . S
H571 C584 0.960 . S
C572 H564 0.929 . S
C572 C573 1.377 . S
C572 C574 1.384 . S
C573 C572 1.377 . S
C573 C579 1.390 . S
C574 H565 0.930 . S
C574 C572 1.384 . S
C574 C575 1.372 . S
C575 C574 1.372 . S
C575 C576 1.400 . S
C575 C580 1.490 . S
C576 H566 0.930 . S
C576 C575 1.400 . S
C576 C579 1.386 . S
H577 C593 0.930 . S
H578 C594 0.931 . S
C579 H567 0.929 . S
C579 C573 1.390 . S
C579 C576 1.386 . S
C580 C575 1.490 . S
C580 C582 1.395 . S
C580 C583 1.403 . S
H581 C587 0.930 . S
C582 H568 0.930 . S
C582 C580 1.395 . S
C582 C585 1.403 . S
C583 C580 1.403 . S
C583 C584 1.524 . S
C583 C587 1.400 . S
C584 H569 0.960 . S
C584 H570 0.960 . S
C584 H571 0.960 . S
C584 C583 1.524 . S
C585 C582 1.403 . S
C585 C586 1.392 . S
C585 C589 1.495 . S
C586 C585 1.392 . S
C586 C587 1.385 . S
C586 C588 1.478 . S
C587 H581 0.930 . S
C587 C583 1.400 . S
C587 C586 1.385 . S
C588 C586 1.478 . S
C588 C590 1.381 . S
C588 C594 1.383 . S
C589 C585 1.495 . S
C589 H595 0.959 . S
C589 H596 0.961 . S
C589 H597 0.960 . S
C590 C588 1.381 . S
C590 C591 1.394 . S
C590 H598 0.930 . S
C591 C590 1.394 . S
C591 C592 1.383 . S
C591 H599 0.929 . S
C592 C591 1.383 . S
C592 C593 1.377 . S
C593 H577 0.930 . S
C593 C592 1.377 . S
C593 C594 1.379 . S
C594 H578 0.931 . S
C594 C588 1.383 . S
C594 C593 1.379 . S
H595 C589 0.959 . S
H596 C589 0.961 . S
H597 C589 0.960 . S
H598 C590 0.930 . S
H599 C591 0.929 . S
H600 C608 0.929 . S
H601 C610 0.930 . S
H602 C612 0.930 . S
H603 C615 0.929 . S
H604 C618 0.930 . S
H605 C620 0.960 . S
H606 C620 0.960 . S
H607 C620 0.960 . S
C608 H600 0.929 . S
C608 C609 1.377 . S
C608 C610 1.384 . S
C609 C608 1.377 . S
C609 C615 1.390 . S
C610 H601 0.930 . S
C610 C608 1.384 . S
C610 C611 1.372 . S
C611 C610 1.372 . S
C611 C612 1.400 . S
C611 C616 1.490 . S
C612 H602 0.930 . S
C612 C611 1.400 . S
C612 C615 1.386 . S
H613 C629 0.930 . S
H614 C630 0.931 . S
C615 H603 0.929 . S
C615 C609 1.390 . S
C615 C612 1.386 . S
C616 C611 1.490 . S
C616 C618 1.395 . S
C616 C619 1.403 . S
H617 C623 0.930 . S
C618 H604 0.930 . S
C618 C616 1.395 . S
C618 C621 1.403 . S
C619 C616 1.403 . S
C619 C620 1.524 . S
C619 C623 1.400 . S
C620 H605 0.960 . S
C620 H606 0.960 . S
C620 H607 0.960 . S
C620 C619 1.524 . S
C621 C618 1.403 . S
C621 C622 1.392 . S
C621 C625 1.495 . S
C622 C621 1.392 . S
C622 C623 1.385 . S
C622 C624 1.478 . S
C623 H617 0.930 . S
C623 C619 1.400 . S
C623 C622 1.385 . S
C624 C622 1.478 . S
C624 C626 1.381 . S
C624 C630 1.383 . S
C625 C621 1.495 . S
C625 H631 0.959 . S
C625 H632 0.961 . S
C625 H633 0.960 . S
C626 C624 1.381 . S
C626 C627 1.394 . S
C626 H634 0.930 . S
C627 C626 1.394 . S
C627 C628 1.383 . S
C627 H635 0.929 . S
C628 C627 1.383 . S
C628 C629 1.377 . S
C629 H613 0.930 . S
C629 C628 1.377 . S
C629 C630 1.379 . S
C630 H614 0.931 . S
C630 C624 1.383 . S
C630 C629 1.379 . S
H631 C625 0.959 . S
H632 C625 0.961 . S
H633 C625 0.960 . S
H634 C626 0.930 . S
H635 C627 0.929 . S
H636 C644 0.929 . S
H637 C646 0.930 . S
H638 C648 0.930 . S
H639 C651 0.929 . S
H640 C654 0.930 . S
H641 C656 0.960 . S
H642 C656 0.960 . S
H643 C656 0.960 . S
C644 H636 0.929 . S
C644 C645 1.377 . S
C644 C646 1.384 . S
C645 C644 1.377 . S
C645 C651 1.390 . S
C646 H637 0.930 . S
C646 C644 1.384 . S
C646 C647 1.372 . S
C647 C646 1.372 . S
C647 C648 1.400 . S
C647 C652 1.490 . S
C648 H638 0.930 . S
C648 C647 1.400 . S
C648 C651 1.386 . S
H649 C665 0.930 . S
H650 C666 0.931 . S
C651 H639 0.929 . S
C651 C645 1.390 . S
C651 C648 1.386 . S
C652 C647 1.490 . S
C652 C654 1.395 . S
C652 C655 1.403 . S
H653 C659 0.930 . S
C654 H640 0.930 . S
C654 C652 1.395 . S
C654 C657 1.403 . S
C655 C652 1.403 . S
C655 C656 1.524 . S
C655 C659 1.400 . S
C656 H641 0.960 . S
C656 H642 0.960 . S
C656 H643 0.960 . S
C656 C655 1.524 . S
C657 C654 1.403 . S
C657 C658 1.392 . S
C657 C661 1.495 . S
C658 C657 1.392 . S
C658 C659 1.385 . S
C658 C660 1.478 . S
C659 H653 0.930 . S
C659 C655 1.400 . S
C659 C658 1.385 . S
C660 C658 1.478 . S
C660 C662 1.381 . S
C660 C666 1.383 . S
C661 C657 1.495 . S
C661 H667 0.959 . S
C661 H668 0.961 . S
C661 H669 0.960 . S
C662 C660 1.381 . S
C662 C663 1.394 . S
C662 H670 0.930 . S
C663 C662 1.394 . S
C663 C664 1.383 . S
C663 H671 0.929 . S
C664 C663 1.383 . S
C664 C665 1.377 . S
C665 H649 0.930 . S
C665 C664 1.377 . S
C665 C666 1.379 . S
C666 H650 0.931 . S
C666 C660 1.383 . S
C666 C665 1.379 . S
H667 C661 0.959 . S
H668 C661 0.961 . S
H669 C661 0.960 . S
H670 C662 0.930 . S
H671 C663 0.929 . S
H672 C680 0.929 . S
H673 C682 0.930 . S
H674 C684 0.930 . S
H675 C687 0.929 . S
H676 C690 0.930 . S
H677 C692 0.960 . S
H678 C692 0.960 . S
H679 C692 0.960 . S
C680 H672 0.929 . S
C680 C681 1.377 . S
C680 C682 1.384 . S
C681 C680 1.377 . S
C681 C687 1.390 . S
C682 H673 0.930 . S
C682 C680 1.384 . S
C682 C683 1.372 . S
C683 C682 1.372 . S
C683 C684 1.400 . S
C683 C688 1.490 . S
C684 H674 0.930 . S
C684 C683 1.400 . S
C684 C687 1.386 . S
H685 C701 0.930 . S
H686 C702 0.931 . S
C687 H675 0.929 . S
C687 C681 1.390 . S
C687 C684 1.386 . S
C688 C683 1.490 . S
C688 C690 1.395 . S
C688 C691 1.403 . S
H689 C695 0.930 . S
C690 H676 0.930 . S
C690 C688 1.395 . S
C690 C693 1.403 . S
C691 C688 1.403 . S
C691 C692 1.524 . S
C691 C695 1.400 . S
C692 H677 0.960 . S
C692 H678 0.960 . S
C692 H679 0.960 . S
C692 C691 1.524 . S
C693 C690 1.403 . S
C693 C694 1.392 . S
C693 C697 1.495 . S
C694 C693 1.392 . S
C694 C695 1.385 . S
C694 C696 1.478 . S
C695 H689 0.930 . S
C695 C691 1.400 . S
C695 C694 1.385 . S
C696 C694 1.478 . S
C696 C698 1.381 . S
C696 C702 1.383 . S
C697 C693 1.495 . S
C697 H703 0.959 . S
C697 H704 0.961 . S
C697 H705 0.960 . S
C698 C696 1.381 . S
C698 C699 1.394 . S
C698 H706 0.930 . S
C699 C698 1.394 . S
C699 C700 1.383 . S
C699 H707 0.929 . S
C700 C699 1.383 . S
C700 C701 1.377 . S
C701 H685 0.930 . S
C701 C700 1.377 . S
C701 C702 1.379 . S
C702 H686 0.931 . S
C702 C696 1.383 . S
C702 C701 1.379 . S
H703 C697 0.959 . S
H704 C697 0.961 . S
H705 C697 0.960 . S
H706 C698 0.930 . S
H707 C699 0.929 . S
H708 C716 0.929 . S
H709 C718 0.930 . S
H710 C720 0.930 . S
H711 C723 0.929 . S
H712 C726 0.930 . S
H713 C728 0.960 . S
H714 C728 0.960 . S
H715 C728 0.960 . S
C716 H708 0.929 . S
C716 C717 1.377 . S
C716 C718 1.384 . S
C717 C716 1.377 . S
C717 C723 1.390 . S
C718 H709 0.930 . S
C718 C716 1.384 . S
C718 C719 1.372 . S
C719 C718 1.372 . S
C719 C720 1.400 . S
C719 C724 1.490 . S
C720 H710 0.930 . S
C720 C719 1.400 . S
C720 C723 1.386 . S
H721 C737 0.930 . S
H722 C738 0.931 . S
C723 H711 0.929 . S
C723 C717 1.390 . S
C723 C720 1.386 . S
C724 C719 1.490 . S
C724 C726 1.395 . S
C724 C727 1.403 . S
H725 C731 0.930 . S
C726 H712 0.930 . S
C726 C724 1.395 . S
C726 C729 1.403 . S
C727 C724 1.403 . S
C727 C728 1.524 . S
C727 C731 1.400 . S
C728 H713 0.960 . S
C728 H714 0.960 . S
C728 H715 0.960 . S
C728 C727 1.524 . S
C729 C726 1.403 . S
C729 C730 1.392 . S
C729 C733 1.495 . S
C730 C729 1.392 . S
C730 C731 1.385 . S
C730 C732 1.478 . S
C731 H725 0.930 . S
C731 C727 1.400 . S
C731 C730 1.385 . S
C732 C730 1.478 . S
C732 C734 1.381 . S
C732 C738 1.383 . S
C733 C729 1.495 . S
C733 H739 0.959 . S
C733 H740 0.961 . S
C733 H741 0.960 . S
C734 C732 1.381 . S
C734 C735 1.394 . S
C734 H742 0.930 . S
C735 C734 1.394 . S
C735 C736 1.383 . S
C735 H743 0.929 . S
C736 C735 1.383 . S
C736 C737 1.377 . S
C737 H721 0.930 . S
C737 C736 1.377 . S
C737 C738 1.379 . S
C738 H722 0.931 . S
C738 C732 1.383 . S
C738 C737 1.379 . S
H739 C733 0.959 . S
H740 C733 0.961 . S
H741 C733 0.960 . S
H742 C734 0.930 . S
H743 C735 0.929 . S
H744 C752 0.929 . S
H745 C754 0.930 . S
H746 C756 0.930 . S
H747 C759 0.929 . S
H748 C762 0.930 . S
H749 C764 0.960 . S
H750 C764 0.960 . S
H751 C764 0.960 . S
C752 H744 0.929 . S
C752 C753 1.377 . S
C752 C754 1.384 . S
C753 C752 1.377 . S
C753 C759 1.390 . S
C754 H745 0.930 . S
C754 C752 1.384 . S
C754 C755 1.372 . S
C755 C754 1.372 . S
C755 C756 1.400 . S
C755 C760 1.490 . S
C756 H746 0.930 . S
C756 C755 1.400 . S
C756 C759 1.386 . S
H757 C773 0.930 . S
H758 C774 0.931 . S
C759 H747 0.929 . S
C759 C753 1.390 . S
C759 C756 1.386 . S
C760 C755 1.490 . S
C760 C762 1.395 . S
C760 C763 1.403 . S
H761 C767 0.930 . S
C762 H748 0.930 . S
C762 C760 1.395 . S
C762 C765 1.403 . S
C763 C760 1.403 . S
C763 C764 1.524 . S
C763 C767 1.400 . S
C764 H749 0.960 . S
C764 H750 0.960 . S
C764 H751 0.960 . S
C764 C763 1.524 . S
C765 C762 1.403 . S
C765 C766 1.392 . S
C765 C769 1.495 . S
C766 C765 1.392 . S
C766 C767 1.385 . S
C766 C768 1.478 . S
C767 H761 0.930 . S
C767 C763 1.400 . S
C767 C766 1.385 . S
C768 C766 1.478 . S
C768 C770 1.381 . S
C768 C774 1.383 . S
C769 C765 1.495 . S
C769 H775 0.959 . S
C769 H776 0.961 . S
C769 H777 0.960 . S
C770 C768 1.381 . S
C770 C771 1.394 . S
C770 H778 0.930 . S
C771 C770 1.394 . S
C771 C772 1.383 . S
C771 H779 0.929 . S
C772 C771 1.383 . S
C772 C773 1.377 . S
C773 H757 0.930 . S
C773 C772 1.377 . S
C773 C774 1.379 . S
C774 H758 0.931 . S
C774 C768 1.383 . S
C774 C773 1.379 . S
H775 C769 0.959 . S
H776 C769 0.961 . S
H777 C769 0.960 . S
H778 C770 0.930 . S
H779 C771 0.929 . S
H780 C788 0.929 . S
H781 C790 0.930 . S
H782 C792 0.930 . S
H783 C795 0.929 . S
H784 C798 0.930 . S
H785 C800 0.960 . S
H786 C800 0.960 . S
H787 C800 0.960 . S
C788 H780 0.929 . S
C788 C789 1.377 . S
C788 C790 1.384 . S
C789 C788 1.377 . S
C789 C795 1.390 . S
C790 H781 0.930 . S
C790 C788 1.384 . S
C790 C791 1.372 . S
C791 C790 1.372 . S
C791 C792 1.400 . S
C791 C796 1.490 . S
C792 H782 0.930 . S
C792 C791 1.400 . S
C792 C795 1.386 . S
H793 C809 0.930 . S
H794 C810 0.931 . S
C795 H783 0.929 . S
C795 C789 1.390 . S
C795 C792 1.386 . S
C796 C791 1.490 . S
C796 C798 1.395 . S
C796 C799 1.403 . S
H797 C803 0.930 . S
C798 H784 0.930 . S
C798 C796 1.395 . S
C798 C801 1.403 . S
C799 C796 1.403 . S
C799 C800 1.524 . S
C799 C803 1.400 . S
C800 H785 0.960 . S
C800 H786 0.960 . S
C800 H787 0.960 . S
C800 C799 1.524 . S
C801 C798 1.403 . S
C801 C802 1.392 . S
C801 C805 1.495 . S
C802 C801 1.392 . S
C802 C803 1.385 . S
C802 C804 1.478 . S
C803 H797 0.930 . S
C803 C799 1.400 . S
C803 C802 1.385 . S
C804 C802 1.478 . S
C804 C806 1.381 . S
C804 C810 1.383 . S
C805 C801 1.495 . S
C805 H811 0.959 . S
C805 H812 0.961 . S
C805 H813 0.960 . S
C806 C804 1.381 . S
C806 C807 1.394 . S
C806 H814 0.930 . S
C807 C806 1.394 . S
C807 C808 1.383 . S
C807 H815 0.929 . S
C808 C807 1.383 . S
C808 C809 1.377 . S
C809 H793 0.930 . S
C809 C808 1.377 . S
C809 C810 1.379 . S
C810 H794 0.931 . S
C810 C804 1.383 . S
C810 C809 1.379 . S
H811 C805 0.959 . S
H812 C805 0.961 . S
H813 C805 0.960 . S
H814 C806 0.930 . S
H815 C807 0.929 . S
H816 C824 0.929 . S
H817 C826 0.930 . S
H818 C828 0.930 . S
H819 C831 0.929 . S
H820 C834 0.930 . S
H821 C836 0.960 . S
H822 C836 0.960 . S
H823 C836 0.960 . S
C824 H816 0.929 . S
C824 C825 1.377 . S
C824 C826 1.384 . S
C825 C824 1.377 . S
C825 C831 1.390 . S
C826 H817 0.930 . S
C826 C824 1.384 . S
C826 C827 1.372 . S
C827 C826 1.372 . S
C827 C828 1.400 . S
C827 C832 1.490 . S
C828 H818 0.930 . S
C828 C827 1.400 . S
C828 C831 1.386 . S
H829 C845 0.930 . S
H830 C846 0.931 . S
C831 H819 0.929 . S
C831 C825 1.390 . S
C831 C828 1.386 . S
C832 C827 1.490 . S
C832 C834 1.395 . S
C832 C835 1.403 . S
H833 C839 0.930 . S
C834 H820 0.930 . S
C834 C832 1.395 . S
C834 C837 1.403 . S
C835 C832 1.403 . S
C835 C836 1.524 . S
C835 C839 1.400 . S
C836 H821 0.960 . S
C836 H822 0.960 . S
C836 H823 0.960 . S
C836 C835 1.524 . S
C837 C834 1.403 . S
C837 C838 1.392 . S
C837 C841 1.495 . S
C838 C837 1.392 . S
C838 C839 1.385 . S
C838 C840 1.478 . S
C839 H833 0.930 . S
C839 C835 1.400 . S
C839 C838 1.385 . S
C840 C838 1.478 . S
C840 C842 1.381 . S
C840 C846 1.383 . S
C841 C837 1.495 . S
C841 H847 0.959 . S
C841 H848 0.961 . S
C841 H849 0.960 . S
C842 C840 1.381 . S
C842 C843 1.394 . S
C842 H850 0.930 . S
C843 C842 1.394 . S
C843 C844 1.383 . S
C843 H851 0.929 . S
C844 C843 1.383 . S
C844 C845 1.377 . S
C845 H829 0.930 . S
C845 C844 1.377 . S
C845 C846 1.379 . S
C846 H830 0.931 . S
C846 C840 1.383 . S
C846 C845 1.379 . S
H847 C841 0.959 . S
H848 C841 0.961 . S
H849 C841 0.960 . S
H850 C842 0.930 . S
H851 C843 0.929 . S
H852 C860 0.929 . S
H853 C862 0.930 . S
H854 C864 0.930 . S
H855 C867 0.929 . S
H856 C870 0.930 . S
H857 C872 0.960 . S
H858 C872 0.960 . S
H859 C872 0.960 . S
C860 H852 0.929 . S
C860 C861 1.377 . S
C860 C862 1.384 . S
C861 C860 1.377 . S
C861 C867 1.390 . S
C862 H853 0.930 . S
C862 C860 1.384 . S
C862 C863 1.372 . S
C863 C862 1.372 . S
C863 C864 1.400 . S
C863 C868 1.490 . S
C864 H854 0.930 . S
C864 C863 1.400 . S
C864 C867 1.386 . S
H865 C881 0.930 . S
H866 C882 0.931 . S
C867 H855 0.929 . S
C867 C861 1.390 . S
C867 C864 1.386 . S
C868 C863 1.490 . S
C868 C870 1.395 . S
C868 C871 1.403 . S
H869 C875 0.930 . S
C870 H856 0.930 . S
C870 C868 1.395 . S
C870 C873 1.403 . S
C871 C868 1.403 . S
C871 C872 1.524 . S
C871 C875 1.400 . S
C872 H857 0.960 . S
C872 H858 0.960 . S
C872 H859 0.960 . S
C872 C871 1.524 . S
C873 C870 1.403 . S
C873 C874 1.392 . S
C873 C877 1.495 . S
C874 C873 1.392 . S
C874 C875 1.385 . S
C874 C876 1.478 . S
C875 H869 0.930 . S
C875 C871 1.400 . S
C875 C874 1.385 . S
C876 C874 1.478 . S
C876 C878 1.381 . S
C876 C882 1.383 . S
C877 C873 1.495 . S
C877 H883 0.959 . S
C877 H884 0.961 . S
C877 H885 0.960 . S
C878 C876 1.381 . S
C878 C879 1.394 . S
C878 H886 0.930 . S
C879 C878 1.394 . S
C879 C880 1.383 . S
C879 H887 0.929 . S
C880 C879 1.383 . S
C880 C881 1.377 . S
C881 H865 0.930 . S
C881 C880 1.377 . S
C881 C882 1.379 . S
C882 H866 0.931 . S
C882 C876 1.383 . S
C882 C881 1.379 . S
H883 C877 0.959 . S
H884 C877 0.961 . S
H885 C877 0.960 . S
H886 C878 0.930 . S
H887 C879 0.929 . S
H888 C896 0.929 . S
H889 C898 0.930 . S
H890 C900 0.930 . S
H891 C903 0.929 . S
H892 C906 0.930 . S
H893 C908 0.960 . S
H894 C908 0.960 . S
H895 C908 0.960 . S
C896 H888 0.929 . S
C896 C897 1.377 . S
C896 C898 1.384 . S
C897 C896 1.377 . S
C897 C903 1.390 . S
C898 H889 0.930 . S
C898 C896 1.384 . S
C898 C899 1.372 . S
C899 C898 1.372 . S
C899 C900 1.400 . S
C899 C904 1.490 . S
C900 H890 0.930 . S
C900 C899 1.400 . S
C900 C903 1.386 . S
H901 C917 0.930 . S
H902 C918 0.931 . S
C903 H891 0.929 . S
C903 C897 1.390 . S
C903 C900 1.386 . S
C904 C899 1.490 . S
C904 C906 1.395 . S
C904 C907 1.403 . S
H905 C911 0.930 . S
C906 H892 0.930 . S
C906 C904 1.395 . S
C906 C909 1.403 . S
C907 C904 1.403 . S
C907 C908 1.524 . S
C907 C911 1.400 . S
C908 H893 0.960 . S
C908 H894 0.960 . S
C908 H895 0.960 . S
C908 C907 1.524 . S
C909 C906 1.403 . S
C909 C910 1.392 . S
C909 C913 1.495 . S
C910 C909 1.392 . S
C910 C911 1.385 . S
C910 C912 1.478 . S
C911 H905 0.930 . S
C911 C907 1.400 . S
C911 C910 1.385 . S
C912 C910 1.478 . S
C912 C914 1.381 . S
C912 C918 1.383 . S
C913 C909 1.495 . S
C913 H919 0.959 . S
C913 H920 0.961 . S
C913 H921 0.960 . S
C914 C912 1.381 . S
C914 C915 1.394 . S
C914 H922 0.930 . S
C915 C914 1.394 . S
C915 C916 1.383 . S
C915 H923 0.929 . S
C916 C915 1.383 . S
C916 C917 1.377 . S
C917 H901 0.930 . S
C917 C916 1.377 . S
C917 C918 1.379 . S
C918 H902 0.931 . S
C918 C912 1.383 . S
C918 C917 1.379 . S
H919 C913 0.959 . S
H920 C913 0.961 . S
H921 C913 0.960 . S
H922 C914 0.930 . S
H923 C915 0.929 . S
H924 C932 0.929 . S
H925 C934 0.930 . S
H926 C936 0.930 . S
H927 C939 0.929 . S
H928 C942 0.930 . S
H929 C944 0.960 . S
H930 C944 0.960 . S
H931 C944 0.960 . S
C932 H924 0.929 . S
C932 C933 1.377 . S
C932 C934 1.384 . S
C933 C932 1.377 . S
C933 C939 1.390 . S
C934 H925 0.930 . S
C934 C932 1.384 . S
C934 C935 1.372 . S
C935 C934 1.372 . S
C935 C936 1.400 . S
C935 C940 1.490 . S
C936 H926 0.930 . S
C936 C935 1.400 . S
C936 C939 1.386 . S
H937 C953 0.930 . S
H938 C954 0.931 . S
C939 H927 0.929 . S
C939 C933 1.390 . S
C939 C936 1.386 . S
C940 C935 1.490 . S
C940 C942 1.395 . S
C940 C943 1.403 . S
H941 C947 0.930 . S
C942 H928 0.930 . S
C942 C940 1.395 . S
C942 C945 1.403 . S
C943 C940 1.403 . S
C943 C944 1.524 . S
C943 C947 1.400 . S
C944 H929 0.960 . S
C944 H930 0.960 . S
C944 H931 0.960 . S
C944 C943 1.524 . S
C945 C942 1.403 . S
C945 C946 1.392 . S
C945 C949 1.495 . S
C946 C945 1.392 . S
C946 C947 1.385 . S
C946 C948 1.478 . S
C947 H941 0.930 . S
C947 C943 1.400 . S
C947 C946 1.385 . S
C948 C946 1.478 . S
C948 C950 1.381 . S
C948 C954 1.383 . S
C949 C945 1.495 . S
C949 H955 0.959 . S
C949 H956 0.961 . S
C949 H957 0.960 . S
C950 C948 1.381 . S
C950 C951 1.394 . S
C950 H958 0.930 . S
C951 C950 1.394 . S
C951 C952 1.383 . S
C951 H959 0.929 . S
C952 C951 1.383 . S
C952 C953 1.377 . S
C953 H937 0.930 . S
C953 C952 1.377 . S
C953 C954 1.379 . S
C954 H938 0.931 . S
C954 C948 1.383 . S
C954 C953 1.379 . S
H955 C949 0.959 . S
H956 C949 0.961 . S
H957 C949 0.960 . S
H958 C950 0.930 . S
H959 C951 0.929 . S
H960 C968 0.929 . S
H961 C970 0.930 . S
H962 C972 0.930 . S
H963 C975 0.929 . S
H964 C978 0.930 . S
H965 C980 0.960 . S
H966 C980 0.960 . S
H967 C980 0.960 . S
C968 H960 0.929 . S
C968 C969 1.377 . S
C968 C970 1.384 . S
C969 C968 1.377 . S
C969 C975 1.390 . S
C970 H961 0.930 . S
C970 C968 1.384 . S
C970 C971 1.372 . S
C971 C970 1.372 . S
C971 C972 1.400 . S
C971 C976 1.490 . S
C972 H962 0.930 . S
C972 C971 1.400 . S
C972 C975 1.386 . S
H973 C989 0.930 . S
H974 C990 0.931 . S
C975 H963 0.929 . S
C975 C969 1.390 . S
C975 C972 1.386 . S
C976 C971 1.490 . S
C976 C978 1.395 . S
C976 C979 1.403 . S
H977 C983 0.930 . S
C978 H964 0.930 . S
C978 C976 1.395 . S
C978 C981 1.403 . S
C979 C976 1.403 . S
C979 C980 1.524 . S
C979 C983 1.400 . S
C980 H965 0.960 . S
C980 H966 0.960 . S
C980 H967 0.960 . S
C980 C979 1.524 . S
C981 C978 1.403 . S
C981 C982 1.392 . S
C981 C985 1.495 . S
C982 C981 1.392 . S
C982 C983 1.385 . S
C982 C984 1.478 . S
C983 H977 0.930 . S
C983 C979 1.400 . S
C983 C982 1.385 . S
C984 C982 1.478 . S
C984 C986 1.381 . S
C984 C990 1.383 . S
C985 C981 1.495 . S
C985 H991 0.959 . S
C985 H992 0.961 . S
C985 H993 0.960 . S
C986 C984 1.381 . S
C986 C987 1.394 . S
C986 H994 0.930 . S
C987 C986 1.394 . S
C987 C988 1.383 . S
C987 H995 0.929 . S
C988 C987 1.383 . S
C988 C989 1.377 . S
C989 H973 0.930 . S
C989 C988 1.377 . S
C989 C990 1.379 . S
C990 H974 0.931 . S
C990 C984 1.383 . S
C990 C989 1.379 . S
H991 C985 0.959 . S
H992 C985 0.961 . S
H993 C985 0.960 . S
H994 C986 0.930 . S
H995 C987 0.929 . S
H996 C1004 0.929 . S
H997 C1006 0.930 . S
H998 C1008 0.930 . S
H999 C1011 0.929 . S
H1000 C1014 0.930 . S
H1001 C1016 0.960 . S
H1002 C1016 0.960 . S
H1003 C1016 0.960 . S
C1004 H996 0.929 . S
C1004 C1005 1.377 . S
C1004 C1006 1.384 . S
C1005 C1004 1.377 . S
C1005 C1011 1.390 . S
C1006 H997 0.930 . S
C1006 C1004 1.384 . S
C1006 C1007 1.372 . S
C1007 C1006 1.372 . S
C1007 C1008 1.400 . S
C1007 C1012 1.490 . S
C1008 H998 0.930 . S
C1008 C1007 1.400 . S
C1008 C1011 1.386 . S
H1009 C1025 0.930 . S
H1010 C1026 0.931 . S
C1011 H999 0.929 . S
C1011 C1005 1.390 . S
C1011 C1008 1.386 . S
C1012 C1007 1.490 . S
C1012 C1014 1.395 . S
C1012 C1015 1.403 . S
H1013 C1019 0.930 . S
C1014 H1000 0.930 . S
C1014 C1012 1.395 . S
C1014 C1017 1.403 . S
C1015 C1012 1.403 . S
C1015 C1016 1.524 . S
C1015 C1019 1.400 . S
C1016 H1001 0.960 . S
C1016 H1002 0.960 . S
C1016 H1003 0.960 . S
C1016 C1015 1.524 . S
C1017 C1014 1.403 . S
C1017 C1018 1.392 . S
C1017 C1021 1.495 . S
C1018 C1017 1.392 . S
C1018 C1019 1.385 . S
C1018 C1020 1.478 . S
C1019 H1013 0.930 . S
C1019 C1015 1.400 . S
C1019 C1018 1.385 . S
C1020 C1018 1.478 . S
C1020 C1022 1.381 . S
C1020 C1026 1.383 . S
C1021 C1017 1.495 . S
C1021 H1027 0.959 . S
C1021 H1028 0.961 . S
C1021 H1029 0.960 . S
C1022 C1020 1.381 . S
C1022 C1023 1.394 . S
C1022 H1030 0.930 . S
C1023 C1022 1.394 . S
C1023 C1024 1.383 . S
C1023 H1031 0.929 . S
C1024 C1023 1.383 . S
C1024 C1025 1.377 . S
C1025 H1009 0.930 . S
C1025 C1024 1.377 . S
C1025 C1026 1.379 . S
C1026 H1010 0.931 . S
C1026 C1020 1.383 . S
C1026 C1025 1.379 . S
H1027 C1021 0.959 . S
H1028 C1021 0.961 . S
H1029 C1021 0.960 . S
H1030 C1022 0.930 . S
H1031 C1023 0.929 . S
H1032 C1040 0.929 . S
H1033 C1042 0.930 . S
H1034 C1044 0.930 . S
H1035 C1047 0.929 . S
H1036 C1050 0.930 . S
H1037 C1052 0.960 . S
H1038 C1052 0.960 . S
H1039 C1052 0.960 . S
C1040 H1032 0.929 . S
C1040 C1041 1.377 . S
C1040 C1042 1.384 . S
C1041 C1040 1.377 . S
C1041 C1047 1.390 . S
C1042 H1033 0.930 . S
C1042 C1040 1.384 . S
C1042 C1043 1.372 . S
C1043 C1042 1.372 . S
C1043 C1044 1.400 . S
C1043 C1048 1.490 . S
C1044 H1034 0.930 . S
C1044 C1043 1.400 . S
C1044 C1047 1.386 . S
H1045 C1061 0.930 . S
H1046 C1062 0.931 . S
C1047 H1035 0.929 . S
C1047 C1041 1.390 . S
C1047 C1044 1.386 . S
C1048 C1043 1.490 . S
C1048 C1050 1.395 . S
C1048 C1051 1.403 . S
H1049 C1055 0.930 . S
C1050 H1036 0.930 . S
C1050 C1048 1.395 . S
C1050 C1053 1.403 . S
C1051 C1048 1.403 . S
C1051 C1052 1.524 . S
C1051 C1055 1.400 . S
C1052 H1037 0.960 . S
C1052 H1038 0.960 . S
C1052 H1039 0.960 . S
C1052 C1051 1.524 . S
C1053 C1050 1.403 . S
C1053 C1054 1.392 . S
C1053 C1057 1.495 . S
C1054 C1053 1.392 . S
C1054 C1055 1.385 . S
C1054 C1056 1.478 . S
C1055 H1049 0.930 . S
C1055 C1051 1.400 . S
C1055 C1054 1.385 . S
C1056 C1054 1.478 . S
C1056 C1058 1.381 . S
C1056 C1062 1.383 . S
C1057 C1053 1.495 . S
C1057 H1063 0.959 . S
C1057 H1064 0.961 . S
C1057 H1065 0.960 . S
C1058 C1056 1.381 . S
C1058 C1059 1.394 . S
C1058 H1066 0.930 . S
C1059 C1058 1.394 . S
C1059 C1060 1.383 . S
C1059 H1067 0.929 . S
C1060 C1059 1.383 . S
C1060 C1061 1.377 . S
C1061 H1045 0.930 . S
C1061 C1060 1.377 . S
C1061 C1062 1.379 . S
C1062 H1046 0.931 . S
C1062 C1056 1.383 . S
C1062 C1061 1.379 . S
H1063 C1057 0.959 . S
H1064 C1057 0.961 . S
H1065 C1057 0.960 . S
H1066 C1058 0.930 . S
H1067 C1059 0.929 . S
H1068 C1076 0.929 . S
H1069 C1078 0.930 . S
H1070 C1080 0.930 . S
H1071 C1083 0.929 . S
H1072 C1086 0.930 . S
H1073 C1088 0.960 . S
H1074 C1088 0.960 . S
H1075 C1088 0.960 . S
C1076 H1068 0.929 . S
C1076 C1077 1.377 . S
C1076 C1078 1.384 . S
C1077 C1076 1.377 . S
C1077 C1083 1.390 . S
C1078 H1069 0.930 . S
C1078 C1076 1.384 . S
C1078 C1079 1.372 . S
C1079 C1078 1.372 . S
C1079 C1080 1.400 . S
C1079 C1084 1.490 . S
C1080 H1070 0.930 . S
C1080 C1079 1.400 . S
C1080 C1083 1.386 . S
H1081 C1097 0.930 . S
H1082 C1098 0.931 . S
C1083 H1071 0.929 . S
C1083 C1077 1.390 . S
C1083 C1080 1.386 . S
C1084 C1079 1.490 . S
C1084 C1086 1.395 . S
C1084 C1087 1.403 . S
H1085 C1091 0.930 . S
C1086 H1072 0.930 . S
C1086 C1084 1.395 . S
C1086 C1089 1.403 . S
C1087 C1084 1.403 . S
C1087 C1088 1.524 . S
C1087 C1091 1.400 . S
C1088 H1073 0.960 . S
C1088 H1074 0.960 . S
C1088 H1075 0.960 . S
C1088 C1087 1.524 . S
C1089 C1086 1.403 . S
C1089 C1090 1.392 . S
C1089 C1093 1.495 . S
C1090 C1089 1.392 . S
C1090 C1091 1.385 . S
C1090 C1092 1.478 . S
C1091 H1085 0.930 . S
C1091 C1087 1.400 . S
C1091 C1090 1.385 . S
C1092 C1090 1.478 . S
C1092 C1094 1.381 . S
C1092 C1098 1.383 . S
C1093 C1089 1.495 . S
C1093 H1099 0.959 . S
C1093 H1100 0.961 . S
C1093 H1101 0.960 . S
C1094 C1092 1.381 . S
C1094 C1095 1.394 . S
C1094 H1102 0.930 . S
C1095 C1094 1.394 . S
C1095 C1096 1.383 . S
C1095 H1103 0.929 . S
C1096 C1095 1.383 . S
C1096 C1097 1.377 . S
C1097 H1081 0.930 . S
C1097 C1096 1.377 . S
C1097 C1098 1.379 . S
C1098 H1082 0.931 . S
C1098 C1092 1.383 . S
C1098 C1097 1.379 . S
H1099 C1093 0.959 . S
H1100 C1093 0.961 . S
H1101 C1093 0.960 . S
H1102 C1094 0.930 . S
H1103 C1095 0.929 . S
H1104 C1112 0.929 . S
H1105 C1114 0.930 . S
H1106 C1116 0.930 . S
H1107 C1119 0.929 . S
H1108 C1122 0.930 . S
H1109 C1124 0.960 . S
H1110 C1124 0.960 . S
H1111 C1124 0.960 . S
C1112 H1104 0.929 . S
C1112 C1113 1.377 . S
C1112 C1114 1.384 . S
C1113 C1112 1.377 . S
C1113 C1119 1.390 . S
C1114 H1105 0.930 . S
C1114 C1112 1.384 . S
C1114 C1115 1.372 . S
C1115 C1114 1.372 . S
C1115 C1116 1.400 . S
C1115 C1120 1.490 . S
C1116 H1106 0.930 . S
C1116 C1115 1.400 . S
C1116 C1119 1.386 . S
H1117 C1133 0.930 . S
H1118 C1134 0.931 . S
C1119 H1107 0.929 . S
C1119 C1113 1.390 . S
C1119 C1116 1.386 . S
C1120 C1115 1.490 . S
C1120 C1122 1.395 . S
C1120 C1123 1.403 . S
H1121 C1127 0.930 . S
C1122 H1108 0.930 . S
C1122 C1120 1.395 . S
C1122 C1125 1.403 . S
C1123 C1120 1.403 . S
C1123 C1124 1.524 . S
C1123 C1127 1.400 . S
C1124 H1109 0.960 . S
C1124 H1110 0.960 . S
C1124 H1111 0.960 . S
C1124 C1123 1.524 . S
C1125 C1122 1.403 . S
C1125 C1126 1.392 . S
C1125 C1129 1.495 . S
C1126 C1125 1.392 . S
C1126 C1127 1.385 . S
C1126 C1128 1.478 . S
C1127 H1121 0.930 . S
C1127 C1123 1.400 . S
C1127 C1126 1.385 . S
C1128 C1126 1.478 . S
C1128 C1130 1.381 . S
C1128 C1134 1.383 . S
C1129 C1125 1.495 . S
C1129 H1135 0.959 . S
C1129 H1136 0.961 . S
C1129 H1137 0.960 . S
C1130 C1128 1.381 . S
C1130 C1131 1.394 . S
C1130 H1138 0.930 . S
C1131 C1130 1.394 . S
C1131 C1132 1.383 . S
C1131 H1139 0.929 . S
C1132 C1131 1.383 . S
C1132 C1133 1.377 . S
C1133 H1117 0.930 . S
C1133 C1132 1.377 . S
C1133 C1134 1.379 . S
C1134 H1118 0.931 . S
C1134 C1128 1.383 . S
C1134 C1133 1.379 . S
H1135 C1129 0.959 . S
H1136 C1129 0.961 . S
H1137 C1129 0.960 . S
H1138 C1130 0.930 . S
H1139 C1131 0.929 . S
H1140 C1148 0.929 . S
H1141 C1150 0.930 . S
H1142 C1152 0.930 . S
H1143 C1155 0.929 . S
H1144 C1158 0.930 . S
H1145 C1160 0.960 . S
H1146 C1160 0.960 . S
H1147 C1160 0.960 . S
C1148 H1140 0.929 . S
C1148 C1149 1.377 . S
C1148 C1150 1.384 . S
C1149 C1148 1.377 . S
C1149 C1155 1.390 . S
C1150 H1141 0.930 . S
C1150 C1148 1.384 . S
C1150 C1151 1.372 . S
C1151 C1150 1.372 . S
C1151 C1152 1.400 . S
C1151 C1156 1.490 . S
C1152 H1142 0.930 . S
C1152 C1151 1.400 . S
C1152 C1155 1.386 . S
H1153 C1169 0.930 . S
H1154 C1170 0.931 . S
C1155 H1143 0.929 . S
C1155 C1149 1.390 . S
C1155 C1152 1.386 . S
C1156 C1151 1.490 . S
C1156 C1158 1.395 . S
C1156 C1159 1.403 . S
H1157 C1163 0.930 . S
C1158 H1144 0.930 . S
C1158 C1156 1.395 . S
C1158 C1161 1.403 . S
C1159 C1156 1.403 . S
C1159 C1160 1.524 . S
C1159 C1163 1.400 . S
C1160 H1145 0.960 . S
C1160 H1146 0.960 . S
C1160 H1147 0.960 . S
C1160 C1159 1.524 . S
C1161 C1158 1.403 . S
C1161 C1162 1.392 . S
C1161 C1165 1.495 . S
C1162 C1161 1.392 . S
C1162 C1163 1.385 . S
C1162 C1164 1.478 . S
C1163 H1157 0.930 . S
C1163 C1159 1.400 . S
C1163 C1162 1.385 . S
C1164 C1162 1.478 . S
C1164 C1166 1.381 . S
C1164 C1170 1.383 . S
C1165 C1161 1.495 . S
C1165 H1171 0.959 . S
C1165 H1172 0.961 . S
C1165 H1173 0.960 . S
C1166 C1164 1.381 . S
C1166 C1167 1.394 . S
C1166 H1174 0.930 . S
C1167 C1166 1.394 . S
C1167 C1168 1.383 . S
C1167 H1175 0.929 . S
C1168 C1167 1.383 . S
C1168 C1169 1.377 . S
C1169 H1153 0.930 . S
C1169 C1168 1.377 . S
C1169 C1170 1.379 . S
C1170 H1154 0.931 . S
C1170 C1164 1.383 . S
C1170 C1169 1.379 . S
H1171 C1165 0.959 . S
H1172 C1165 0.961 . S
H1173 C1165 0.960 . S
H1174 C1166 0.930 . S
H1175 C1167 0.929 . S
H1176 C1184 0.929 . S
H1177 C1186 0.930 . S
H1178 C1188 0.930 . S
H1179 C1191 0.929 . S
H1180 C1194 0.930 . S
H1181 C1196 0.960 . S
H1182 C1196 0.960 . S
H1183 C1196 0.960 . S
C1184 H1176 0.929 . S
C1184 C1185 1.377 . S
C1184 C1186 1.384 . S
C1185 C1184 1.377 . S
C1185 C1191 1.390 . S
C1186 H1177 0.930 . S
C1186 C1184 1.384 . S
C1186 C1187 1.372 . S
C1187 C1186 1.372 . S
C1187 C1188 1.400 . S
C1187 C1192 1.490 . S
C1188 H1178 0.930 . S
C1188 C1187 1.400 . S
C1188 C1191 1.386 . S
H1189 C1205 0.930 . S
H1190 C1206 0.931 . S
C1191 H1179 0.929 . S
C1191 C1185 1.390 . S
C1191 C1188 1.386 . S
C1192 C1187 1.490 . S
C1192 C1194 1.395 . S
C1192 C1195 1.403 . S
H1193 C1199 0.930 . S
C1194 H1180 0.930 . S
C1194 C1192 1.395 . S
C1194 C1197 1.403 . S
C1195 C1192 1.403 . S
C1195 C1196 1.524 . S
C1195 C1199 1.400 . S
C1196 H1181 0.960 . S
C1196 H1182 0.960 . S
C1196 H1183 0.960 . S
C1196 C1195 1.524 . S
C1197 C1194 1.403 . S
C1197 C1198 1.392 . S
C1197 C1201 1.495 . S
C1198 C1197 1.392 . S
C1198 C1199 1.385 . S
C1198 C1200 1.478 . S
C1199 H1193 0.930 . S
C1199 C1195 1.400 . S
C1199 C1198 1.385 . S
C1200 C1198 1.478 . S
C1200 C1202 1.381 . S
C1200 C1206 1.383 . S
C1201 C1197 1.495 . S
C1201 H1207 0.959 . S
C1201 H1208 0.961 . S
C1201 H1209 0.960 . S
C1202 C1200 1.381 . S
C1202 C1203 1.394 . S
C1202 H1210 0.930 . S
C1203 C1202 1.394 . S
C1203 C1204 1.383 . S
C1203 H1211 0.929 . S
C1204 C1203 1.383 . S
C1204 C1205 1.377 . S
C1205 H1189 0.930 . S
C1205 C1204 1.377 . S
C1205 C1206 1.379 . S
C1206 H1190 0.931 . S
C1206 C1200 1.383 . S
C1206 C1205 1.379 . S
H1207 C1201 0.959 . S
H1208 C1201 0.961 . S
H1209 C1201 0.960 . S
H1210 C1202 0.930 . S
H1211 C1203 0.929 . S
H1212 C1220 0.929 . S
H1213 C1222 0.930 . S
H1214 C1224 0.930 . S
H1215 C1227 0.929 . S
H1216 C1230 0.930 . S
H1217 C1232 0.960 . S
H1218 C1232 0.960 . S
H1219 C1232 0.960 . S
C1220 H1212 0.929 . S
C1220 C1221 1.377 . S
C1220 C1222 1.384 . S
C1221 C1220 1.377 . S
C1221 C1227 1.390 . S
C1222 H1213 0.930 . S
C1222 C1220 1.384 . S
C1222 C1223 1.372 . S
C1223 C1222 1.372 . S
C1223 C1224 1.400 . S
C1223 C1228 1.490 . S
C1224 H1214 0.930 . S
C1224 C1223 1.400 . S
C1224 C1227 1.386 . S
H1225 C1241 0.930 . S
H1226 C1242 0.931 . S
C1227 H1215 0.929 . S
C1227 C1221 1.390 . S
C1227 C1224 1.386 . S
C1228 C1223 1.490 . S
C1228 C1230 1.395 . S
C1228 C1231 1.403 . S
H1229 C1235 0.930 . S
C1230 H1216 0.930 . S
C1230 C1228 1.395 . S
C1230 C1233 1.403 . S
C1231 C1228 1.403 . S
C1231 C1232 1.524 . S
C1231 C1235 1.400 . S
C1232 H1217 0.960 . S
C1232 H1218 0.960 . S
C1232 H1219 0.960 . S
C1232 C1231 1.524 . S
C1233 C1230 1.403 . S
C1233 C1234 1.392 . S
C1233 C1237 1.495 . S
C1234 C1233 1.392 . S
C1234 C1235 1.385 . S
C1234 C1236 1.478 . S
C1235 H1229 0.930 . S
C1235 C1231 1.400 . S
C1235 C1234 1.385 . S
C1236 C1234 1.478 . S
C1236 C1238 1.381 . S
C1236 C1242 1.383 . S
C1237 C1233 1.495 . S
C1237 H1243 0.959 . S
C1237 H1244 0.961 . S
C1237 H1245 0.960 . S
C1238 C1236 1.381 . S
C1238 C1239 1.394 . S
C1238 H1246 0.930 . S
C1239 C1238 1.394 . S
C1239 C1240 1.383 . S
C1239 H1247 0.929 . S
C1240 C1239 1.383 . S
C1240 C1241 1.377 . S
C1241 H1225 0.930 . S
C1241 C1240 1.377 . S
C1241 C1242 1.379 . S
C1242 H1226 0.931 . S
C1242 C1236 1.383 . S
C1242 C1241 1.379 . S
H1243 C1237 0.959 . S
H1244 C1237 0.961 . S
H1245 C1237 0.960 . S
H1246 C1238 0.930 . S
H1247 C1239 0.929 . S
H1248 C1256 0.929 . S
H1249 C1258 0.930 . S
H1250 C1260 0.930 . S
H1251 C1263 0.929 . S
H1252 C1266 0.930 . S
H1253 C1268 0.960 . S
H1254 C1268 0.960 . S
H1255 C1268 0.960 . S
C1256 H1248 0.929 . S
C1256 C1257 1.377 . S
C1256 C1258 1.384 . S
C1257 C1256 1.377 . S
C1257 C1263 1.390 . S
C1258 H1249 0.930 . S
C1258 C1256 1.384 . S
C1258 C1259 1.372 . S
C1259 C1258 1.372 . S
C1259 C1260 1.400 . S
C1259 C1264 1.490 . S
C1260 H1250 0.930 . S
C1260 C1259 1.400 . S
C1260 C1263 1.386 . S
H1261 C1277 0.930 . S
H1262 C1278 0.931 . S
C1263 H1251 0.929 . S
C1263 C1257 1.390 . S
C1263 C1260 1.386 . S
C1264 C1259 1.490 . S
C1264 C1266 1.395 . S
C1264 C1267 1.403 . S
H1265 C1271 0.930 . S
C1266 H1252 0.930 . S
C1266 C1264 1.395 . S
C1266 C1269 1.403 . S
C1267 C1264 1.403 . S
C1267 C1268 1.524 . S
C1267 C1271 1.400 . S
C1268 H1253 0.960 . S
C1268 H1254 0.960 . S
C1268 H1255 0.960 . S
C1268 C1267 1.524 . S
C1269 C1266 1.403 . S
C1269 C1270 1.392 . S
C1269 C1273 1.495 . S
C1270 C1269 1.392 . S
C1270 C1271 1.385 . S
C1270 C1272 1.478 . S
C1271 H1265 0.930 . S
C1271 C1267 1.400 . S
C1271 C1270 1.385 . S
C1272 C1270 1.478 . S
C1272 C1274 1.381 . S
C1272 C1278 1.383 . S
C1273 C1269 1.495 . S
C1273 H1279 0.959 . S
C1273 H1280 0.961 . S
C1273 H1281 0.960 . S
C1274 C1272 1.381 . S
C1274 C1275 1.394 . S
C1274 H1282 0.930 . S
C1275 C1274 1.394 . S
C1275 C1276 1.383 . S
C1275 H1283 0.929 . S
C1276 C1275 1.383 . S
C1276 C1277 1.377 . S
C1277 H1261 0.930 . S
C1277 C1276 1.377 . S
C1277 C1278 1.379 . S
C1278 H1262 0.931 . S
C1278 C1272 1.383 . S
C1278 C1277 1.379 . S
H1279 C1273 0.959 . S
H1280 C1273 0.961 . S
H1281 C1273 0.960 . S
H1282 C1274 0.930 . S
H1283 C1275 0.929 . S
H1284 C1292 0.929 . S
H1285 C1294 0.930 . S
H1286 C1296 0.930 . S
H1287 C1299 0.929 . S
H1288 C1302 0.930 . S
H1289 C1304 0.960 . S
H1290 C1304 0.960 . S
H1291 C1304 0.960 . S
C1292 H1284 0.929 . S
C1292 C1293 1.377 . S
C1292 C1294 1.384 . S
C1293 C1292 1.377 . S
C1293 C1299 1.390 . S
C1294 H1285 0.930 . S
C1294 C1292 1.384 . S
C1294 C1295 1.372 . S
C1295 C1294 1.372 . S
C1295 C1296 1.400 . S
C1295 C1300 1.490 . S
C1296 H1286 0.930 . S
C1296 C1295 1.400 . S
C1296 C1299 1.386 . S
H1297 C1313 0.930 . S
H1298 C1314 0.931 . S
C1299 H1287 0.929 . S
C1299 C1293 1.390 . S
C1299 C1296 1.386 . S
C1300 C1295 1.490 . S
C1300 C1302 1.395 . S
C1300 C1303 1.403 . S
H1301 C1307 0.930 . S
C1302 H1288 0.930 . S
C1302 C1300 1.395 . S
C1302 C1305 1.403 . S
C1303 C1300 1.403 . S
C1303 C1304 1.524 . S
C1303 C1307 1.400 . S
C1304 H1289 0.960 . S
C1304 H1290 0.960 . S
C1304 H1291 0.960 . S
C1304 C1303 1.524 . S
C1305 C1302 1.403 . S
C1305 C1306 1.392 . S
C1305 C1309 1.495 . S
C1306 C1305 1.392 . S
C1306 C1307 1.385 . S
C1306 C1308 1.478 . S
C1307 H1301 0.930 . S
C1307 C1303 1.400 . S
C1307 C1306 1.385 . S
C1308 C1306 1.478 . S
C1308 C1310 1.381 . S
C1308 C1314 1.383 . S
C1309 C1305 1.495 . S
C1309 H1315 0.959 . S
C1309 H1316 0.961 . S
C1309 H1317 0.960 . S
C1310 C1308 1.381 . S
C1310 C1311 1.394 . S
C1310 H1318 0.930 . S
C1311 C1310 1.394 . S
C1311 C1312 1.383 . S
C1311 H1319 0.929 . S
C1312 C1311 1.383 . S
C1312 C1313 1.377 . S
C1313 H1297 0.930 . S
C1313 C1312 1.377 . S
C1313 C1314 1.379 . S
C1314 H1298 0.931 . S
C1314 C1308 1.383 . S
C1314 C1313 1.379 . S
H1315 C1309 0.959 . S
H1316 C1309 0.961 . S
H1317 C1309 0.960 . S
H1318 C1310 0.930 . S
H1319 C1311 0.929 . S
H1320 C1328 0.929 . S
H1321 C1330 0.930 . S
H1322 C1332 0.930 . S
H1323 C1335 0.929 . S
H1324 C1338 0.930 . S
H1325 C1340 0.960 . S
H1326 C1340 0.960 . S
H1327 C1340 0.960 . S
C1328 H1320 0.929 . S
C1328 C1329 1.377 . S
C1328 C1330 1.384 . S
C1329 C1328 1.377 . S
C1329 C1335 1.390 . S
C1330 H1321 0.930 . S
C1330 C1328 1.384 . S
C1330 C1331 1.372 . S
C1331 C1330 1.372 . S
C1331 C1332 1.400 . S
C1331 C1336 1.490 . S
C1332 H1322 0.930 . S
C1332 C1331 1.400 . S
C1332 C1335 1.386 . S
H1333 C1349 0.930 . S
H1334 C1350 0.931 . S
C1335 H1323 0.929 . S
C1335 C1329 1.390 . S
C1335 C1332 1.386 . S
C1336 C1331 1.490 . S
C1336 C1338 1.395 . S
C1336 C1339 1.403 . S
H1337 C1343 0.930 . S
C1338 H1324 0.930 . S
C1338 C1336 1.395 . S
C1338 C1341 1.403 . S
C1339 C1336 1.403 . S
C1339 C1340 1.524 . S
C1339 C1343 1.400 . S
C1340 H1325 0.960 . S
C1340 H1326 0.960 . S
C1340 H1327 0.960 . S
C1340 C1339 1.524 . S
C1341 C1338 1.403 . S
C1341 C1342 1.392 . S
C1341 C1345 1.495 . S
C1342 C1341 1.392 . S
C1342 C1343 1.385 . S
C1342 C1344 1.478 . S
C1343 H1337 0.930 . S
C1343 C1339 1.400 . S
C1343 C1342 1.385 . S
C1344 C1342 1.478 . S
C1344 C1346 1.381 . S
C1344 C1350 1.383 . S
C1345 C1341 1.495 . S
C1345 H1351 0.959 . S
C1345 H1352 0.961 . S
C1345 H1353 0.960 . S
C1346 C1344 1.381 . S
C1346 C1347 1.394 . S
C1346 H1354 0.930 . S
C1347 C1346 1.394 . S
C1347 C1348 1.383 . S
C1347 H1355 0.929 . S
C1348 C1347 1.383 . S
C1348 C1349 1.377 . S
C1349 H1333 0.930 . S
C1349 C1348 1.377 . S
C1349 C1350 1.379 . S
C1350 H1334 0.931 . S
C1350 C1344 1.383 . S
C1350 C1349 1.379 . S
H1351 C1345 0.959 . S
H1352 C1345 0.961 . S
H1353 C1345 0.960 . S
H1354 C1346 0.930 . S
H1355 C1347 0.929 . S
H1356 C1364 0.929 . S
H1357 C1366 0.930 . S
H1358 C1368 0.930 . S
H1359 C1371 0.929 . S
H1360 C1374 0.930 . S
H1361 C1376 0.960 . S
H1362 C1376 0.960 . S
H1363 C1376 0.960 . S
C1364 H1356 0.929 . S
C1364 C1365 1.377 . S
C1364 C1366 1.384 . S
C1365 C1364 1.377 . S
C1365 C1371 1.390 . S
C1366 H1357 0.930 . S
C1366 C1364 1.384 . S
C1366 C1367 1.372 . S
C1367 C1366 1.372 . S
C1367 C1368 1.400 . S
C1367 C1372 1.490 . S
C1368 H1358 0.930 . S
C1368 C1367 1.400 . S
C1368 C1371 1.386 . S
H1369 C1385 0.930 . S
H1370 C1386 0.931 . S
C1371 H1359 0.929 . S
C1371 C1365 1.390 . S
C1371 C1368 1.386 . S
C1372 C1367 1.490 . S
C1372 C1374 1.395 . S
C1372 C1375 1.403 . S
H1373 C1379 0.930 . S
C1374 H1360 0.930 . S
C1374 C1372 1.395 . S
C1374 C1377 1.403 . S
C1375 C1372 1.403 . S
C1375 C1376 1.524 . S
C1375 C1379 1.400 . S
C1376 H1361 0.960 . S
C1376 H1362 0.960 . S
C1376 H1363 0.960 . S
C1376 C1375 1.524 . S
C1377 C1374 1.403 . S
C1377 C1378 1.392 . S
C1377 C1381 1.495 . S
C1378 C1377 1.392 . S
C1378 C1379 1.385 . S
C1378 C1380 1.478 . S
C1379 H1373 0.930 . S
C1379 C1375 1.400 . S
C1379 C1378 1.385 . S
C1380 C1378 1.478 . S
C1380 C1382 1.381 . S
C1380 C1386 1.383 . S
C1381 C1377 1.495 . S
C1381 H1387 0.959 . S
C1381 H1388 0.961 . S
C1381 H1389 0.960 . S
C1382 C1380 1.381 . S
C1382 C1383 1.394 . S
C1382 H1390 0.930 . S
C1383 C1382 1.394 . S
C1383 C1384 1.383 . S
C1383 H1391 0.929 . S
C1384 C1383 1.383 . S
C1384 C1385 1.377 . S
C1385 H1369 0.930 . S
C1385 C1384 1.377 . S
C1385 C1386 1.379 . S
C1386 H1370 0.931 . S
C1386 C1380 1.383 . S
C1386 C1385 1.379 . S
H1387 C1381 0.959 . S
H1388 C1381 0.961 . S
H1389 C1381 0.960 . S
H1390 C1382 0.930 . S
H1391 C1383 0.929 . S
H1392 C1400 0.929 . S
H1393 C1402 0.930 . S
H1394 C1404 0.930 . S
H1395 C1407 0.929 . S
H1396 C1410 0.930 . S
H1397 C1412 0.960 . S
H1398 C1412 0.960 . S
H1399 C1412 0.960 . S
C1400 H1392 0.929 . S
C1400 C1401 1.377 . S
C1400 C1402 1.384 . S
C1401 C1400 1.377 . S
C1401 C1407 1.390 . S
C1402 H1393 0.930 . S
C1402 C1400 1.384 . S
C1402 C1403 1.372 . S
C1403 C1402 1.372 . S
C1403 C1404 1.400 . S
C1403 C1408 1.490 . S
C1404 H1394 0.930 . S
C1404 C1403 1.400 . S
C1404 C1407 1.386 . S
H1405 C1421 0.930 . S
H1406 C1422 0.931 . S
C1407 H1395 0.929 . S
C1407 C1401 1.390 . S
C1407 C1404 1.386 . S
C1408 C1403 1.490 . S
C1408 C1410 1.395 . S
C1408 C1411 1.403 . S
H1409 C1415 0.930 . S
C1410 H1396 0.930 . S
C1410 C1408 1.395 . S
C1410 C1413 1.403 . S
C1411 C1408 1.403 . S
C1411 C1412 1.524 . S
C1411 C1415 1.400 . S
C1412 H1397 0.960 . S
C1412 H1398 0.960 . S
C1412 H1399 0.960 . S
C1412 C1411 1.524 . S
C1413 C1410 1.403 . S
C1413 C1414 1.392 . S
C1413 C1417 1.495 . S
C1414 C1413 1.392 . S
C1414 C1415 1.385 . S
C1414 C1416 1.478 . S
C1415 H1409 0.930 . S
C1415 C1411 1.400 . S
C1415 C1414 1.385 . S
C1416 C1414 1.478 . S
C1416 C1418 1.381 . S
C1416 C1422 1.383 . S
C1417 C1413 1.495 . S
C1417 H1423 0.959 . S
C1417 H1424 0.961 . S
C1417 H1425 0.960 . S
C1418 C1416 1.381 . S
C1418 C1419 1.394 . S
C1418 H1426 0.930 . S
C1419 C1418 1.394 . S
C1419 C1420 1.383 . S
C1419 H1427 0.929 . S
C1420 C1419 1.383 . S
C1420 C1421 1.377 . S
C1421 H1405 0.930 . S
C1421 C1420 1.377 . S
C1421 C1422 1.379 . S
C1422 H1406 0.931 . S
C1422 C1416 1.383 . S
C1422 C1421 1.379 . S
H1423 C1417 0.959 . S
H1424 C1417 0.961 . S
H1425 C1417 0.960 . S
H1426 C1418 0.930 . S
H1427 C1419 0.929 . S
H1428 C1436 0.929 . S
H1429 C1438 0.930 . S
H1430 C1440 0.930 . S
H1431 C1443 0.929 . S
H1432 C1446 0.930 . S
H1433 C1448 0.960 . S
H1434 C1448 0.960 . S
H1435 C1448 0.960 . S
C1436 H1428 0.929 . S
C1436 C1437 1.377 . S
C1436 C1438 1.384 . S
C1437 C1436 1.377 . S
C1437 C1443 1.390 . S
C1438 H1429 0.930 . S
C1438 C1436 1.384 . S
C1438 C1439 1.372 . S
C1439 C1438 1.372 . S
C1439 C1440 1.400 . S
C1439 C1444 1.490 . S
C1440 H1430 0.930 . S
C1440 C1439 1.400 . S
C1440 C1443 1.386 . S
H1441 C1457 0.930 . S
H1442 C1458 0.931 . S
C1443 H1431 0.929 . S
C1443 C1437 1.390 . S
C1443 C1440 1.386 . S
C1444 C1439 1.490 . S
C1444 C1446 1.395 . S
C1444 C1447 1.403 . S
H1445 C1451 0.930 . S
C1446 H1432 0.930 . S
C1446 C1444 1.395 . S
C1446 C1449 1.403 . S
C1447 C1444 1.403 . S
C1447 C1448 1.524 . S
C1447 C1451 1.400 . S
C1448 H1433 0.960 . S
C1448 H1434 0.960 . S
C1448 H1435 0.960 . S
C1448 C1447 1.524 . S
C1449 C1446 1.403 . S
C1449 C1450 1.392 . S
C1449 C1453 1.495 . S
C1450 C1449 1.392 . S
C1450 C1451 1.385 . S
C1450 C1452 1.478 . S
C1451 H1445 0.930 . S
C1451 C1447 1.400 . S
C1451 C1450 1.385 . S
C1452 C1450 1.478 . S
C1452 C1454 1.381 . S
C1452 C1458 1.383 . S
C1453 C1449 1.495 . S
C1453 H1459 0.959 . S
C1453 H1460 0.961 . S
C1453 H1461 0.960 . S
C1454 C1452 1.381 . S
C1454 C1455 1.394 . S
C1454 H1462 0.930 . S
C1455 C1454 1.394 . S
C1455 C1456 1.383 . S
C1455 H1463 0.929 . S
C1456 C1455 1.383 . S
C1456 C1457 1.377 . S
C1457 H1441 0.930 . S
C1457 C1456 1.377 . S
C1457 C1458 1.379 . S
C1458 H1442 0.931 . S
C1458 C1452 1.383 . S
C1458 C1457 1.379 . S
H1459 C1453 0.959 . S
H1460 C1453 0.961 . S
H1461 C1453 0.960 . S
H1462 C1454 0.930 . S
H1463 C1455 0.929 . S
H1464 C1472 0.929 . S
H1465 C1474 0.930 . S
H1466 C1476 0.930 . S
H1467 C1479 0.929 . S
H1468 C1482 0.930 . S
H1469 C1484 0.960 . S
H1470 C1484 0.960 . S
H1471 C1484 0.960 . S
C1472 H1464 0.929 . S
C1472 C1473 1.377 . S
C1472 C1474 1.384 . S
C1473 C1472 1.377 . S
C1473 C1479 1.390 . S
C1474 H1465 0.930 . S
C1474 C1472 1.384 . S
C1474 C1475 1.372 . S
C1475 C1474 1.372 . S
C1475 C1476 1.400 . S
C1475 C1480 1.490 . S
C1476 H1466 0.930 . S
C1476 C1475 1.400 . S
C1476 C1479 1.386 . S
H1477 C1493 0.930 . S
H1478 C1494 0.931 . S
C1479 H1467 0.929 . S
C1479 C1473 1.390 . S
C1479 C1476 1.386 . S
C1480 C1475 1.490 . S
C1480 C1482 1.395 . S
C1480 C1483 1.403 . S
H1481 C1487 0.930 . S
C1482 H1468 0.930 . S
C1482 C1480 1.395 . S
C1482 C1485 1.403 . S
C1483 C1480 1.403 . S
C1483 C1484 1.524 . S
C1483 C1487 1.400 . S
C1484 H1469 0.960 . S
C1484 H1470 0.960 . S
C1484 H1471 0.960 . S
C1484 C1483 1.524 . S
C1485 C1482 1.403 . S
C1485 C1486 1.392 . S
C1485 C1489 1.495 . S
C1486 C1485 1.392 . S
C1486 C1487 1.385 . S
C1486 C1488 1.478 . S
C1487 H1481 0.930 . S
C1487 C1483 1.400 . S
C1487 C1486 1.385 . S
C1488 C1486 1.478 . S
C1488 C1490 1.381 . S
C1488 C1494 1.383 . S
C1489 C1485 1.495 . S
C1489 H1495 0.959 . S
C1489 H1496 0.961 . S
C1489 H1497 0.960 . S
C1490 C1488 1.381 . S
C1490 C1491 1.394 . S
C1490 H1498 0.930 . S
C1491 C1490 1.394 . S
C1491 C1492 1.383 . S
C1491 H1499 0.929 . S
C1492 C1491 1.383 . S
C1492 C1493 1.377 . S
C1493 H1477 0.930 . S
C1493 C1492 1.377 . S
C1493 C1494 1.379 . S
C1494 H1478 0.931 . S
C1494 C1488 1.383 . S
C1494 C1493 1.379 . S
H1495 C1489 0.959 . S
H1496 C1489 0.961 . S
H1497 C1489 0.960 . S
H1498 C1490 0.930 . S
H1499 C1491 0.929 . S
H1500 C1508 0.929 . S
H1501 C1510 0.930 . S
H1502 C1512 0.930 . S
H1503 C1515 0.929 . S
H1504 C1518 0.930 . S
H1505 C1520 0.960 . S
H1506 C1520 0.960 . S
H1507 C1520 0.960 . S
C1508 H1500 0.929 . S
C1508 C1509 1.377 . S
C1508 C1510 1.384 . S
C1509 C1508 1.377 . S
C1509 C1515 1.390 . S
C1510 H1501 0.930 . S
C1510 C1508 1.384 . S
C1510 C1511 1.372 . S
C1511 C1510 1.372 . S
C1511 C1512 1.400 . S
C1511 C1516 1.490 . S
C1512 H1502 0.930 . S
C1512 C1511 1.400 . S
C1512 C1515 1.386 . S
H1513 C1529 0.930 . S
H1514 C1530 0.931 . S
C1515 H1503 0.929 . S
C1515 C1509 1.390 . S
C1515 C1512 1.386 . S
C1516 C1511 1.490 . S
C1516 C1518 1.395 . S
C1516 C1519 1.403 . S
H1517 C1523 0.930 . S
C1518 H1504 0.930 . S
C1518 C1516 1.395 . S
C1518 C1521 1.403 . S
C1519 C1516 1.403 . S
C1519 C1520 1.524 . S
C1519 C1523 1.400 . S
C1520 H1505 0.960 . S
C1520 H1506 0.960 . S
C1520 H1507 0.960 . S
C1520 C1519 1.524 . S
C1521 C1518 1.403 . S
C1521 C1522 1.392 . S
C1521 C1525 1.495 . S
C1522 C1521 1.392 . S
C1522 C1523 1.385 . S
C1522 C1524 1.478 . S
C1523 H1517 0.930 . S
C1523 C1519 1.400 . S
C1523 C1522 1.385 . S
C1524 C1522 1.478 . S
C1524 C1526 1.381 . S
C1524 C1530 1.383 . S
C1525 C1521 1.495 . S
C1525 H1531 0.959 . S
C1525 H1532 0.961 . S
C1525 H1533 0.960 . S
C1526 C1524 1.381 . S
C1526 C1527 1.394 . S
C1526 H1534 0.930 . S
C1527 C1526 1.394 . S
C1527 C1528 1.383 . S
C1527 H1535 0.929 . S
C1528 C1527 1.383 . S
C1528 C1529 1.377 . S
C1529 H1513 0.930 . S
C1529 C1528 1.377 . S
C1529 C1530 1.379 . S
C1530 H1514 0.931 . S
C1530 C1524 1.383 . S
C1530 C1529 1.379 . S
H1531 C1525 0.959 . S
H1532 C1525 0.961 . S
H1533 C1525 0.960 . S
H1534 C1526 0.930 . S
H1535 C1527 0.929 . S
H1536 C1544 0.929 . S
H1537 C1546 0.930 . S
H1538 C1548 0.930 . S
H1539 C1551 0.929 . S
H1540 C1554 0.930 . S
H1541 C1556 0.981 . S
H1542 C1556 0.960 . S
H1543 C1556 0.960 . S
C1544 H1536 0.929 . S
C1544 C1545 1.377 . S
C1544 C1546 1.384 . S
C1545 C1544 1.377 . S
C1545 C1551 1.390 . S
C1546 H1537 0.930 . S
C1546 C1544 1.384 . S
C1546 C1547 1.372 . S
C1547 C1546 1.372 . S
C1547 C1548 1.400 . S
C1547 C1552 1.490 . S
C1548 H1538 0.930 . S
C1548 C1547 1.400 . S
C1548 C1551 1.386 . S
H1549 C1565 0.930 . S
H1550 C1566 0.931 . S
C1551 H1539 0.929 . S
C1551 C1545 1.390 . S
C1551 C1548 1.386 . S
C1552 C1547 1.490 . S
C1552 C1554 1.395 . S
C1552 C1555 1.403 . S
H1553 C1559 0.930 . S
C1554 H1540 0.930 . S
C1554 C1552 1.395 . S
C1554 C1557 1.403 1_556 S
C1555 C1552 1.403 . S
C1555 C1556 1.524 . S
C1555 C1559 1.400 1_556 S
C1556 H1541 0.981 . S
C1556 H1542 0.960 . S
C1556 H1543 0.960 . S
C1556 C1555 1.524 . S
C1557 C1554 1.403 1_554 S
C1557 C1558 1.392 . S
C1557 C1561 1.495 . S
C1558 C1557 1.392 . S
C1558 C1559 1.385 . S
C1558 C1560 1.478 . S
C1559 H1553 0.930 . S
C1559 C1555 1.400 1_554 S
C1559 C1558 1.385 . S
C1560 C1558 1.478 . S
C1560 C1562 1.381 . S
C1560 C1566 1.383 . S
C1561 C1557 1.495 . S
C1561 H1567 0.959 1_554 S
C1561 H1568 0.961 . S
C1561 H1569 0.960 . S
C1562 C1560 1.381 . S
C1562 C1563 1.394 . S
C1562 H1570 0.930 . S
C1563 C1562 1.394 . S
C1563 C1564 1.383 . S
C1563 H1571 0.929 . S
C1564 C1563 1.383 . S
C1564 C1565 1.377 . S
C1565 H1549 0.930 . S
C1565 C1564 1.377 . S
C1565 C1566 1.379 . S
C1566 H1550 0.931 . S
C1566 C1560 1.383 . S
C1566 C1565 1.379 . S
H1567 C1561 0.959 1_556 S
H1568 C1561 0.961 . S
H1569 C1561 0.960 . S
H1570 C1562 0.930 . S
H1571 C1563 0.929 . S
H1572 C1580 0.929 . S
H1573 C1582 0.930 . S
H1574 C1584 0.930 . S
H1575 C1587 0.929 . S
H1576 C1590 0.930 . S
H1577 C1592 0.960 . S
H1578 C1592 0.960 . S
H1579 C1592 0.960 . S
C1580 H1572 0.929 . S
C1580 C1581 1.377 . S
C1580 C1582 1.384 . S
C1581 C1580 1.377 . S
C1581 C1587 1.390 . S
C1582 H1573 0.930 . S
C1582 C1580 1.384 . S
C1582 C1583 1.372 . S
C1583 C1582 1.372 . S
C1583 C1584 1.400 . S
C1583 C1588 1.490 . S
C1584 H1574 0.930 . S
C1584 C1583 1.400 . S
C1584 C1587 1.386 . S
H1585 C1601 0.930 . S
H1586 C1602 0.931 . S
C1587 H1575 0.929 . S
C1587 C1581 1.390 . S
C1587 C1584 1.386 . S
C1588 C1583 1.490 . S
C1588 C1590 1.395 1_554 S
C1588 C1591 1.403 . S
H1589 C1595 0.927 1_554 S
C1590 H1576 0.930 . S
C1590 C1588 1.395 1_556 S
C1590 C1593 1.403 . S
C1591 C1588 1.403 . S
C1591 C1592 1.524 . S
C1591 C1595 1.381 1_554 S
C1592 H1577 0.960 . S
C1592 H1578 0.960 . S
C1592 H1579 0.960 . S
C1592 C1591 1.524 . S
C1593 C1590 1.403 . S
C1593 C1594 1.392 . S
C1593 C1597 1.495 . S
C1594 C1593 1.392 . S
C1594 C1595 1.408 . S
C1594 C1596 1.478 . S
C1595 H1589 0.927 1_556 S
C1595 C1591 1.381 1_556 S
C1595 C1594 1.408 . S
C1596 C1594 1.478 . S
C1596 C1598 1.381 . S
C1596 C1602 1.383 . S
C1597 C1593 1.495 . S
C1597 H1603 0.959 . S
C1597 H1604 0.961 . S
C1597 H1605 0.960 . S
C1598 C1596 1.381 . S
C1598 C1599 1.394 . S
C1598 H1606 0.930 . S
C1599 C1598 1.394 . S
C1599 C1600 1.383 . S
C1599 H1607 0.929 . S
C1600 C1599 1.383 . S
C1600 C1601 1.377 . S
C1601 H1585 0.930 . S
C1601 C1600 1.377 . S
C1601 C1602 1.379 . S
C1602 H1586 0.931 . S
C1602 C1596 1.383 . S
C1602 C1601 1.379 . S
H1603 C1597 0.959 . S
H1604 C1597 0.961 . S
H1605 C1597 0.960 . S
H1606 C1598 0.930 . S
H1607 C1599 0.929 . S
H1608 C1616 0.929 . S
H1609 C1618 0.930 . S
H1610 C1620 0.930 . S
H1611 C1623 0.929 . S
H1612 C1626 0.930 . S
H1613 C1628 0.960 . S
H1614 C1628 0.960 . S
H1615 C1628 0.960 . S
C1616 H1608 0.929 . S
C1616 C1617 1.377 . S
C1616 C1618 1.384 . S
C1617 C1616 1.377 . S
C1617 C1623 1.390 . S
C1618 H1609 0.930 . S
C1618 C1616 1.384 . S
C1618 C1619 1.372 . S
C1619 C1618 1.372 . S
C1619 C1620 1.400 . S
C1619 C1624 1.490 . S
C1620 H1610 0.930 . S
C1620 C1619 1.400 . S
C1620 C1623 1.386 . S
H1621 C1637 0.930 . S
H1622 C1638 0.931 . S
C1623 H1611 0.929 . S
C1623 C1617 1.390 . S
C1623 C1620 1.386 . S
C1624 C1619 1.490 . S
C1624 C1626 1.395 1_556 S
C1624 C1627 1.403 . S
H1625 C1631 0.930 . S
C1626 H1612 0.930 . S
C1626 C1624 1.395 1_554 S
C1626 C1629 1.403 . S
C1627 C1624 1.403 . S
C1627 C1628 1.524 . S
C1627 C1631 1.400 . S
C1628 H1613 0.960 . S
C1628 H1614 0.960 . S
C1628 H1615 0.960 . S
C1628 C1627 1.524 . S
C1629 C1626 1.403 . S
C1629 C1630 1.392 . S
C1629 C1633 1.495 . S
C1630 C1629 1.392 . S
C1630 C1631 1.385 1_554 S
C1630 C1632 1.478 . S
C1631 H1625 0.930 . S
C1631 C1627 1.400 . S
C1631 C1630 1.385 1_556 S
C1632 C1630 1.478 . S
C1632 C1634 1.381 . S
C1632 C1638 1.383 . S
C1633 C1629 1.495 . S
C1633 H1639 0.959 . S
C1633 H1640 0.961 . S
C1633 H1641 0.960 . S
C1634 C1632 1.381 . S
C1634 C1635 1.394 . S
C1634 H1642 0.930 . S
C1635 C1634 1.394 . S
C1635 C1636 1.383 . S
C1635 H1643 0.929 . S
C1636 C1635 1.383 . S
C1636 C1637 1.377 . S
C1637 H1621 0.930 . S
C1637 C1636 1.377 . S
C1637 C1638 1.379 . S
C1638 H1622 0.931 . S
C1638 C1632 1.383 . S
C1638 C1637 1.379 . S
H1639 C1633 0.959 . S
H1640 C1633 0.961 . S
H1641 C1633 0.960 . S
H1642 C1634 0.930 . S
H1643 C1635 0.929 . S
H1644 C1652 0.929 . S
H1645 C1654 0.930 . S
H1646 C1656 0.930 . S
H1647 C1659 0.929 . S
H1648 C1662 0.930 . S
H1649 C1664 0.960 . S
H1650 C1664 0.960 . S
H1651 C1664 0.960 . S
C1652 H1644 0.929 . S
C1652 C1653 1.377 . S
C1652 C1654 1.384 . S
C1653 C1652 1.377 . S
C1653 C1659 1.390 . S
C1654 H1645 0.930 . S
C1654 C1652 1.384 . S
C1654 C1655 1.372 . S
C1655 C1654 1.372 . S
C1655 C1656 1.400 . S
C1655 C1660 1.490 . S
C1656 H1646 0.930 . S
C1656 C1655 1.400 . S
C1656 C1659 1.386 . S
H1657 C1673 0.930 . S
H1658 C1674 0.931 . S
C1659 H1647 0.929 . S
C1659 C1653 1.390 . S
C1659 C1656 1.386 . S
C1660 C1655 1.490 . S
C1660 C1662 1.395 . S
C1660 C1663 1.403 1_554 S
H1661 C1667 0.930 . S
C1662 H1648 0.930 . S
C1662 C1660 1.395 . S
C1662 C1665 1.403 . S
C1663 C1660 1.403 1_556 S
C1663 C1664 1.524 . S
C1663 C1667 1.400 . S
C1664 H1649 0.960 . S
C1664 H1650 0.960 . S
C1664 H1651 0.960 . S
C1664 C1663 1.524 . S
C1665 C1662 1.403 . S
C1665 C1666 1.392 1_554 S
C1665 C1669 1.495 . S
C1666 C1665 1.392 1_556 S
C1666 C1667 1.385 . S
C1666 C1668 1.478 . S
C1667 H1661 0.930 . S
C1667 C1663 1.400 . S
C1667 C1666 1.385 . S
C1668 C1666 1.478 . S
C1668 C1670 1.381 . S
C1668 C1674 1.383 . S
C1669 C1665 1.495 . S
C1669 H1675 0.959 . S
C1669 H1676 0.961 . S
C1669 H1677 0.960 . S
C1670 C1668 1.381 . S
C1670 C1671 1.394 . S
C1670 H1678 0.930 . S
C1671 C1670 1.394 . S
C1671 C1672 1.383 . S
C1671 H1679 0.929 . S
C1672 C1671 1.383 . S
C1672 C1673 1.377 . S
C1673 H1657 0.930 . S
C1673 C1672 1.377 . S
C1673 C1674 1.379 . S
C1674 H1658 0.931 . S
C1674 C1668 1.383 . S
C1674 C1673 1.379 . S
H1675 C1669 0.959 . S
H1676 C1669 0.961 . S
H1677 C1669 0.960 . S
H1678 C1670 0.930 . S
H1679 C1671 0.929 . S
H1680 C1688 0.929 . S
H1681 C1690 0.930 . S
H1682 C1692 0.930 . S
H1683 C1695 0.929 . S
H1684 C1698 0.930 . S
H1685 C1700 0.960 . S
H1686 C1700 0.960 . S
H1687 C1700 0.960 . S
C1688 H1680 0.929 . S
C1688 C1689 1.377 . S
C1688 C1690 1.384 . S
C1689 C1688 1.377 . S
C1689 C1695 1.390 . S
C1690 H1681 0.930 . S
C1690 C1688 1.384 . S
C1690 C1691 1.372 . S
C1691 C1690 1.372 . S
C1691 C1692 1.400 . S
C1691 C1696 1.490 . S
C1692 H1682 0.930 . S
C1692 C1691 1.400 . S
C1692 C1695 1.386 . S
H1693 C1709 0.930 . S
H1694 C1710 0.931 . S
C1695 H1683 0.929 . S
C1695 C1689 1.390 . S
C1695 C1692 1.386 . S
C1696 C1691 1.490 . S
C1696 C1698 1.395 . S
C1696 C1699 1.403 . S
H1697 C1703 0.930 . S
C1698 H1684 0.930 . S
C1698 C1696 1.395 . S
C1698 C1701 1.403 . S
C1699 C1696 1.403 . S
C1699 C1700 1.524 . S
C1699 C1703 1.400 . S
C1700 H1685 0.960 . S
C1700 H1686 0.960 . S
C1700 H1687 0.960 . S
C1700 C1699 1.524 . S
C1701 C1698 1.403 . S
C1701 C1702 1.392 . S
C1701 C1705 1.495 . S
C1702 C1701 1.392 . S
C1702 C1703 1.385 . S
C1702 C1704 1.478 . S
C1703 H1697 0.930 . S
C1703 C1699 1.400 . S
C1703 C1702 1.385 . S
C1704 C1702 1.478 . S
C1704 C1706 1.381 . S
C1704 C1710 1.383 . S
C1705 C1701 1.495 . S
C1705 H1711 0.959 . S
C1705 H1712 0.961 . S
C1705 H1713 0.960 . S
C1706 C1704 1.381 . S
C1706 C1707 1.394 . S
C1706 H1714 0.930 . S
C1707 C1706 1.394 . S
C1707 C1708 1.383 . S
C1707 H1715 0.929 . S
C1708 C1707 1.383 . S
C1708 C1709 1.377 . S
C1709 H1693 0.930 . S
C1709 C1708 1.377 . S
C1709 C1710 1.379 . S
C1710 H1694 0.931 . S
C1710 C1704 1.383 . S
C1710 C1709 1.379 . S
H1711 C1705 0.959 . S
H1712 C1705 0.961 . S
H1713 C1705 0.960 . S
H1714 C1706 0.930 . S
H1715 C1707 0.929 . S
H1716 C1724 0.929 . S
H1717 C1726 0.930 . S
H1718 C1728 0.930 . S
H1719 C1731 0.929 . S
H1720 C1734 0.930 . S
H1721 C1736 0.960 . S
H1722 C1736 0.960 . S
H1723 C1736 0.960 . S
C1724 H1716 0.929 . S
C1724 C1725 1.377 . S
C1724 C1726 1.384 . S
C1725 C1724 1.377 . S
C1725 C1731 1.390 . S
C1726 H1717 0.930 . S
C1726 C1724 1.384 . S
C1726 C1727 1.372 . S
C1727 C1726 1.372 . S
C1727 C1728 1.400 . S
C1727 C1732 1.490 . S
C1728 H1718 0.930 . S
C1728 C1727 1.400 . S
C1728 C1731 1.386 . S
H1729 C1745 0.930 . S
H1730 C1746 0.931 . S
C1731 H1719 0.929 . S
C1731 C1725 1.390 . S
C1731 C1728 1.386 . S
C1732 C1727 1.490 . S
C1732 C1734 1.395 . S
C1732 C1735 1.403 . S
H1733 C1739 0.930 . S
C1734 H1720 0.930 . S
C1734 C1732 1.395 . S
C1734 C1737 1.403 . S
C1735 C1732 1.403 . S
C1735 C1736 1.524 . S
C1735 C1739 1.400 . S
C1736 H1721 0.960 . S
C1736 H1722 0.960 . S
C1736 H1723 0.960 . S
C1736 C1735 1.524 . S
C1737 C1734 1.403 . S
C1737 C1738 1.392 . S
C1737 C1741 1.495 . S
C1738 C1737 1.392 . S
C1738 C1739 1.385 . S
C1738 C1740 1.478 . S
C1739 H1733 0.930 . S
C1739 C1735 1.400 . S
C1739 C1738 1.385 . S
C1740 C1738 1.478 . S
C1740 C1742 1.381 . S
C1740 C1746 1.383 . S
C1741 C1737 1.495 . S
C1741 H1747 0.959 . S
C1741 H1748 0.961 . S
C1741 H1749 0.960 . S
C1742 C1740 1.381 . S
C1742 C1743 1.394 . S
C1742 H1750 0.930 . S
C1743 C1742 1.394 . S
C1743 C1744 1.383 . S
C1743 H1751 0.929 . S
C1744 C1743 1.383 . S
C1744 C1745 1.377 . S
C1745 H1729 0.930 . S
C1745 C1744 1.377 . S
C1745 C1746 1.379 . S
C1746 H1730 0.931 . S
C1746 C1740 1.383 . S
C1746 C1745 1.379 . S
H1747 C1741 0.959 . S
H1748 C1741 0.961 . S
H1749 C1741 0.960 . S
H1750 C1742 0.930 . S
H1751 C1743 0.929 . S
H1752 C1760 0.929 . S
H1753 C1762 0.930 . S
H1754 C1764 0.930 . S
H1755 C1767 0.929 . S
H1756 C1770 0.930 . S
H1757 C1772 0.960 . S
H1758 C1772 0.960 . S
H1759 C1772 0.960 . S
C1760 H1752 0.929 . S
C1760 C1761 1.377 . S
C1760 C1762 1.384 . S
C1761 C1760 1.377 . S
C1761 C1767 1.390 . S
C1762 H1753 0.930 . S
C1762 C1760 1.384 . S
C1762 C1763 1.372 . S
C1763 C1762 1.372 . S
C1763 C1764 1.400 . S
C1763 C1768 1.490 . S
C1764 H1754 0.930 . S
C1764 C1763 1.400 . S
C1764 C1767 1.386 . S
H1765 C1781 0.930 . S
H1766 C1782 0.931 . S
C1767 H1755 0.929 . S
C1767 C1761 1.390 . S
C1767 C1764 1.386 . S
C1768 C1763 1.490 . S
C1768 C1770 1.395 . S
C1768 C1771 1.403 . S
H1769 C1775 0.930 . S
C1770 H1756 0.930 . S
C1770 C1768 1.395 . S
C1770 C1773 1.403 . S
C1771 C1768 1.403 . S
C1771 C1772 1.524 . S
C1771 C1775 1.400 . S
C1772 H1757 0.960 . S
C1772 H1758 0.960 . S
C1772 H1759 0.960 . S
C1772 C1771 1.524 . S
C1773 C1770 1.403 . S
C1773 C1774 1.392 . S
C1773 C1777 1.495 . S
C1774 C1773 1.392 . S
C1774 C1775 1.385 . S
C1774 C1776 1.478 . S
C1775 H1769 0.930 . S
C1775 C1771 1.400 . S
C1775 C1774 1.385 . S
C1776 C1774 1.478 . S
C1776 C1778 1.381 . S
C1776 C1782 1.383 . S
C1777 C1773 1.495 . S
C1777 H1783 0.959 . S
C1777 H1784 0.961 . S
C1777 H1785 0.960 . S
C1778 C1776 1.381 . S
C1778 C1779 1.394 . S
C1778 H1786 0.930 . S
C1779 C1778 1.394 . S
C1779 C1780 1.383 . S
C1779 H1787 0.929 . S
C1780 C1779 1.383 . S
C1780 C1781 1.377 . S
C1781 H1765 0.930 . S
C1781 C1780 1.377 . S
C1781 C1782 1.379 . S
C1782 H1766 0.931 . S
C1782 C1776 1.383 . S
C1782 C1781 1.379 . S
H1783 C1777 0.959 . S
H1784 C1777 0.961 . S
H1785 C1777 0.960 . S
H1786 C1778 0.930 . S
H1787 C1779 0.929 . S
H1788 C1796 0.929 . S
H1789 C1798 0.930 . S
H1790 C1800 0.930 . S
H1791 C1803 0.929 . S
H1792 C1806 0.930 . S
H1793 C1808 0.960 . S
H1794 C1808 0.960 . S
H1795 C1808 0.960 . S
C1796 H1788 0.929 . S
C1796 C1797 1.377 . S
C1796 C1798 1.384 . S
C1797 C1796 1.377 . S
C1797 C1803 1.390 . S
C1798 H1789 0.930 . S
C1798 C1796 1.384 . S
C1798 C1799 1.372 . S
C1799 C1798 1.372 . S
C1799 C1800 1.400 . S
C1799 C1804 1.490 . S
C1800 H1790 0.930 . S
C1800 C1799 1.400 . S
C1800 C1803 1.386 . S
H1801 C1817 0.930 . S
H1802 C1818 0.931 . S
C1803 H1791 0.929 . S
C1803 C1797 1.390 . S
C1803 C1800 1.386 . S
C1804 C1799 1.490 . S
C1804 C1806 1.395 . S
C1804 C1807 1.403 . S
H1805 C1811 0.930 . S
C1806 H1792 0.930 . S
C1806 C1804 1.395 . S
C1806 C1809 1.403 . S
C1807 C1804 1.403 . S
C1807 C1808 1.524 . S
C1807 C1811 1.400 . S
C1808 H1793 0.960 . S
C1808 H1794 0.960 . S
C1808 H1795 0.960 . S
C1808 C1807 1.524 . S
C1809 C1806 1.403 . S
C1809 C1810 1.392 . S
C1809 C1813 1.495 . S
C1810 C1809 1.392 . S
C1810 C1811 1.385 . S
C1810 C1812 1.478 . S
C1811 H1805 0.930 . S
C1811 C1807 1.400 . S
C1811 C1810 1.385 . S
C1812 C1810 1.478 . S
C1812 C1814 1.381 . S
C1812 C1818 1.383 . S
C1813 C1809 1.495 . S
C1813 H1819 0.959 . S
C1813 H1820 0.961 . S
C1813 H1821 0.960 . S
C1814 C1812 1.381 . S
C1814 C1815 1.394 . S
C1814 H1822 0.930 . S
C1815 C1814 1.394 . S
C1815 C1816 1.383 . S
C1815 H1823 0.929 . S
C1816 C1815 1.383 . S
C1816 C1817 1.377 . S
C1817 H1801 0.930 . S
C1817 C1816 1.377 . S
C1817 C1818 1.379 . S
C1818 H1802 0.931 . S
C1818 C1812 1.383 . S
C1818 C1817 1.379 . S
H1819 C1813 0.959 . S
H1820 C1813 0.961 . S
H1821 C1813 0.960 . S
H1822 C1814 0.930 . S
H1823 C1815 0.929 . S
H1824 C1832 0.929 . S
H1825 C1834 0.930 . S
H1826 C1836 0.930 . S
H1827 C1839 0.929 . S
H1828 C1842 0.930 1_556 S
H1829 C1844 0.960 . S
H1830 C1844 0.960 . S
H1831 C1844 0.960 . S
C1832 H1824 0.929 . S
C1832 C1833 1.377 . S
C1832 C1834 1.384 . S
C1833 C1832 1.377 . S
C1833 C1839 1.390 . S
C1834 H1825 0.930 . S
C1834 C1832 1.384 . S
C1834 C1835 1.372 . S
C1835 C1834 1.372 . S
C1835 C1836 1.400 . S
C1835 C1840 1.490 . S
C1836 H1826 0.930 . S
C1836 C1835 1.400 . S
C1836 C1839 1.386 . S
H1837 C1853 0.930 . S
H1838 C1854 0.931 . S
C1839 H1827 0.929 . S
C1839 C1833 1.390 . S
C1839 C1836 1.386 . S
C1840 C1835 1.490 . S
C1840 C1842 1.398 . S
C1840 C1843 1.403 . S
H1841 C1847 0.930 . S
C1842 H1828 0.930 1_554 S
C1842 C1840 1.398 . S
C1842 C1845 1.400 1_554 S
C1843 C1840 1.403 . S
C1843 C1844 1.524 . S
C1843 C1847 1.400 . S
C1844 H1829 0.960 . S
C1844 H1830 0.960 . S
C1844 H1831 0.960 . S
C1844 C1843 1.524 . S
C1845 C1842 1.400 1_556 S
C1845 C1846 1.392 . S
C1845 C1849 1.495 . S
C1846 C1845 1.392 . S
C1846 C1847 1.385 1_556 S
C1846 C1848 1.478 . S
C1847 H1841 0.930 . S
C1847 C1843 1.400 . S
C1847 C1846 1.385 1_554 S
C1848 C1846 1.478 . S
C1848 C1850 1.381 . S
C1848 C1854 1.383 . S
C1849 C1845 1.495 . S
C1849 H1855 0.959 . S
C1849 H1856 0.961 . S
C1849 H1857 0.960 . S
C1850 C1848 1.381 . S
C1850 C1851 1.394 . S
C1850 H1858 0.930 . S
C1851 C1850 1.394 . S
C1851 C1852 1.383 . S
C1851 H1859 0.929 . S
C1852 C1851 1.383 . S
C1852 C1853 1.377 . S
C1853 H1837 0.930 . S
C1853 C1852 1.377 . S
C1853 C1854 1.379 . S
C1854 H1838 0.931 . S
C1854 C1848 1.383 . S
C1854 C1853 1.379 . S
H1855 C1849 0.959 . S
H1856 C1849 0.961 . S
H1857 C1849 0.960 . S
H1858 C1850 0.930 . S
H1859 C1851 0.929 . S
H1860 C1868 0.929 . S
H1861 C1870 0.930 . S
H1862 C1872 0.930 . S
H1863 C1875 0.929 . S
H1864 C1878 0.930 . S
H1865 C1880 0.960 . S
H1866 C1880 0.960 . S
H1867 C1880 0.960 . S
C1868 H1860 0.929 . S
C1868 C1869 1.377 . S
C1868 C1870 1.384 . S
C1869 C1868 1.377 . S
C1869 C1875 1.390 . S
C1870 H1861 0.930 . S
C1870 C1868 1.384 . S
C1870 C1871 1.372 . S
C1871 C1870 1.372 . S
C1871 C1872 1.400 . S
C1871 C1876 1.490 . S
C1872 H1862 0.930 . S
C1872 C1871 1.400 . S
C1872 C1875 1.386 . S
H1873 C1889 0.930 . S
H1874 C1890 0.931 . S
C1875 H1863 0.929 . S
C1875 C1869 1.390 . S
C1875 C1872 1.386 . S
C1876 C1871 1.490 . S
C1876 C1878 1.395 1_556 S
C1876 C1879 1.403 . S
H1877 C1883 0.930 1_556 S
C1878 H1864 0.930 . S
C1878 C1876 1.395 1_554 S
C1878 C1881 1.403 . S
C1879 C1876 1.403 . S
C1879 C1880 1.524 . S
C1879 C1883 1.400 1_556 S
C1880 H1865 0.960 . S
C1880 H1866 0.960 . S
C1880 H1867 0.960 . S
C1880 C1879 1.524 . S
C1881 C1878 1.403 . S
C1881 C1882 1.392 . S
C1881 C1885 1.495 . S
C1882 C1881 1.392 . S
C1882 C1883 1.385 . S
C1882 C1884 1.478 . S
C1883 H1877 0.930 1_554 S
C1883 C1879 1.400 1_554 S
C1883 C1882 1.385 . S
C1884 C1882 1.478 . S
C1884 C1886 1.381 . S
C1884 C1890 1.383 . S
C1885 C1881 1.495 . S
C1885 H1891 0.959 . S
C1885 H1892 0.961 . S
C1885 H1893 0.960 . S
C1886 C1884 1.381 . S
C1886 C1887 1.394 . S
C1886 H1894 0.930 . S
C1887 C1886 1.394 . S
C1887 C1888 1.383 . S
C1887 H1895 0.929 . S
C1888 C1887 1.383 . S
C1888 C1889 1.377 . S
C1889 H1873 0.930 . S
C1889 C1888 1.377 . S
C1889 C1890 1.379 . S
C1890 H1874 0.931 . S
C1890 C1884 1.383 . S
C1890 C1889 1.379 . S
H1891 C1885 0.959 . S
H1892 C1885 0.961 . S
H1893 C1885 0.960 . S
H1894 C1886 0.930 . S
H1895 C1887 0.929 . S
H1896 C1904 0.929 . S
H1897 C1906 0.930 . S
H1898 C1908 0.930 . S
H1899 C1911 0.929 . S
H1900 C1914 0.930 . S
H1901 C1916 0.960 1_556 S
H1902 C1916 0.960 . S
H1903 C1916 0.960 . S
C1904 H1896 0.929 . S
C1904 C1905 1.377 . S
C1904 C1906 1.384 . S
C1905 C1904 1.377 . S
C1905 C1911 1.390 . S
C1906 H1897 0.930 . S
C1906 C1904 1.384 . S
C1906 C1907 1.372 . S
C1907 C1906 1.372 . S
C1907 C1908 1.400 . S
C1907 C1912 1.490 . S
C1908 H1898 0.930 . S
C1908 C1907 1.400 . S
C1908 C1911 1.386 . S
H1909 C1925 0.930 . S
H1910 C1926 0.931 . S
C1911 H1899 0.929 . S
C1911 C1905 1.390 . S
C1911 C1908 1.386 . S
C1912 C1907 1.490 . S
C1912 C1914 1.395 . S
C1912 C1915 1.403 . S
H1913 C1919 0.930 . S
C1914 H1900 0.930 . S
C1914 C1912 1.395 . S
C1914 C1917 1.403 . S
C1915 C1912 1.403 . S
C1915 C1916 1.524 . S
C1915 C1919 1.400 1_554 S
C1916 H1901 0.960 1_554 S
C1916 H1902 0.960 . S
C1916 H1903 0.960 . S
C1916 C1915 1.524 . S
C1917 C1914 1.403 . S
C1917 C1918 1.392 1_554 S
C1917 C1921 1.495 . S
C1918 C1917 1.392 1_556 S
C1918 C1919 1.385 . S
C1918 C1920 1.478 . S
C1919 H1913 0.930 . S
C1919 C1915 1.400 1_556 S
C1919 C1918 1.385 . S
C1920 C1918 1.478 . S
C1920 C1922 1.381 . S
C1920 C1926 1.383 . S
C1921 C1917 1.495 . S
C1921 H1927 0.959 . S
C1921 H1928 0.961 1_554 S
C1921 H1929 0.960 . S
C1922 C1920 1.381 . S
C1922 C1923 1.394 . S
C1922 H1930 0.930 . S
C1923 C1922 1.394 . S
C1923 C1924 1.383 . S
C1923 H1931 0.929 . S
C1924 C1923 1.383 . S
C1924 C1925 1.377 . S
C1925 H1909 0.930 . S
C1925 C1924 1.377 . S
C1925 C1926 1.379 . S
C1926 H1910 0.931 . S
C1926 C1920 1.383 . S
C1926 C1925 1.379 . S
H1927 C1921 0.959 . S
H1928 C1921 0.961 1_556 S
H1929 C1921 0.960 . S
H1930 C1922 0.930 . S
H1931 C1923 0.929 . S
H1932 C1940 0.929 . S
H1933 C1942 0.930 . S
H1934 C1944 0.930 . S
H1935 C1947 0.929 . S
H1936 C1950 0.930 . S
H1937 C1952 0.960 . S
H1938 C1952 0.960 . S
H1939 C1952 0.960 . S
C1940 H1932 0.929 . S
C1940 C1941 1.377 . S
C1940 C1942 1.384 . S
C1941 C1940 1.377 . S
C1941 C1947 1.390 . S
C1942 H1933 0.930 . S
C1942 C1940 1.384 . S
C1942 C1943 1.372 . S
C1943 C1942 1.372 . S
C1943 C1944 1.400 . S
C1943 C1948 1.490 . S
C1944 H1934 0.930 . S
C1944 C1943 1.400 . S
C1944 C1947 1.386 . S
H1945 C1961 0.930 . S
H1946 C1962 0.931 . S
C1947 H1935 0.929 . S
C1947 C1941 1.390 . S
C1947 C1944 1.386 . S
C1948 C1943 1.490 . S
C1948 C1950 1.395 . S
C1948 C1951 1.403 1_554 S
H1949 C1955 0.930 . S
C1950 H1936 0.930 . S
C1950 C1948 1.395 . S
C1950 C1953 1.403 . S
C1951 C1948 1.403 1_556 S
C1951 C1952 1.524 . S
C1951 C1955 1.400 . S
C1952 H1937 0.960 . S
C1952 H1938 0.960 . S
C1952 H1939 0.960 . S
C1952 C1951 1.524 . S
C1953 C1950 1.403 . S
C1953 C1954 1.392 1_554 S
C1953 C1957 1.495 . S
C1954 C1953 1.392 1_556 S
C1954 C1955 1.385 . S
C1954 C1956 1.478 . S
C1955 H1949 0.930 . S
C1955 C1951 1.400 . S
C1955 C1954 1.385 . S
C1956 C1954 1.478 . S
C1956 C1958 1.381 . S
C1956 C1962 1.383 . S
C1957 C1953 1.495 . S
C1957 H1963 0.959 . S
C1957 H1964 0.961 . S
C1957 H1965 0.960 . S
C1958 C1956 1.381 . S
C1958 C1959 1.394 . S
C1958 H1966 0.930 . S
C1959 C1958 1.394 . S
C1959 C1960 1.383 . S
C1959 H1967 0.929 . S
C1960 C1959 1.383 . S
C1960 C1961 1.377 . S
C1961 H1945 0.930 . S
C1961 C1960 1.377 . S
C1961 C1962 1.379 . S
C1962 H1946 0.931 . S
C1962 C1956 1.383 . S
C1962 C1961 1.379 . S
H1963 C1957 0.959 . S
H1964 C1957 0.961 . S
H1965 C1957 0.960 . S
H1966 C1958 0.930 . S
H1967 C1959 0.929 . S
C537 N101 1.373 . S
C556 C7 1.479 . S
C573 C40 1.511 . S
C592 N2 1.422 . S
C609 C73 1.511 . S
C628 N35 1.407 . S
C645 C106 1.509 . S
C664 N68 1.388 . S
C681 N167 1.383 . S
C700 C139 1.516 . S
C717 N200 1.379 . S
C736 C172 1.507 . S
C753 C205 1.503 . S
C772 N233 1.371 . S
C789 N134 1.389 . S
C808 C238 1.527 . S
C825 C271 1.508 . S
C844 N365 1.418 . S
C861 C304 1.511 . S
C880 N266 1.366 . S
C897 N299 1.373 . S
C916 C337 1.496 . S
C933 C370 1.507 . S
C952 N332 1.420 . S
C969 N431 1.372 . S
C988 C403 1.514 . S
C1005 C436 1.502 . S
C1024 N464 1.406 . S
C1041 C469 1.507 . S
C1060 N497 1.421 . S
C1077 C502 1.506 . S
C1096 N398 1.335 . S
C1113 C21 1.576 . S
C1132 C186 1.561 . S
C1149 C54 1.576 . S
C1168 C219 1.561 . S
C1185 C252 1.579 . S
C1204 C87 1.576 . S
C1221 C120 1.580 . S
C1240 C153 1.578 . S
C1257 C450 1.583 . S
C1276 C285 1.564 . S
C1293 C483 1.579 . S
C1312 C318 1.590 . S
C1329 C351 1.581 . S
C1348 C516 1.581 . S
C1365 C417 1.578 . S
C1384 C384 1.591 . S
C1401 N13 1.014 . S
C1420 C381 1.017 . S
C1437 N46 1.015 . S
C1456 C282 1.018 . S
C1473 N79 1.013 . S
C1492 C315 1.016 . S
C1509 N112 1.015 . S
C1528 C348 1.019 . S
C1545 C447 1.019 . S
C1564 N145 0.992 . S
C1581 N178 1.017 . S
C1600 C480 1.026 . S
C1617 C513 1.022 . S
C1636 N211 1.031 . S
C1653 N244 1.010 . S
C1672 C414 1.012 . S
C1689 C117 1.021 . S
C1708 N277 1.033 . S
C1725 C18 1.020 . S
C1744 N310 1.022 . S
C1761 C51 1.020 . S
C1780 N343 1.032 . S
C1797 C84 1.021 . S
C1816 N376 0.989 . S
C1833 C183 1.022 . S
C1852 N409 1.016 . S
C1869 N442 1.010 . S
C1888 C216 1.024 . S
C1905 C249 1.021 . S
C1924 N475 0.991 . S
C1941 C150 1.020 . S
C1960 N508 0.993 . S
