# Generated by pormake.
# Topology bcg, (8)-cn, num edge types: 1
# Building blocks:
#     Node 0, Type 0, BuildingBlock: TAGTUT_clean_sbu_1, # of connection points: 8
#     Node 1, Type 0, BuildingBlock: TAGTUT_clean_sbu_1, # of connection points: 8
#     Node 2, Type 0, BuildingBlock: TAGTUT_clean_sbu_1, # of connection points: 8
#     Node 3, Type 0, BuildingBlock: TAGTUT_clean_sbu_1, # of connection points: 8
#     Edge 4, Type (0, 0), BuildingBlock: EZIPEK_clean_linker_0, # of connection points: 2
#     Edge 5, Type (0, 0), BuildingBlock: EZIPEK_clean_linker_0, # of connection points: 2
#     Edge 6, Type (0, 0), BuildingBlock: EZIPEK_clean_linker_0, # of connection points: 2
#     Edge 7, Type (0, 0), BuildingBlock: EZIPEK_clean_linker_0, # of connection points: 2
#     Edge 8, Type (0, 0), BuildingBlock: EZIPEK_clean_linker_0, # of connection points: 2
#     Edge 9, Type (0, 0), BuildingBlock: EZIPEK_clean_linker_0, # of connection points: 2
#     Edge 10, Type (0, 0), BuildingBlock: EZIPEK_clean_linker_0, # of connection points: 2
#     Edge 11, Type (0, 0), BuildingBlock: EZIPEK_clean_linker_0, # of connection points: 2
#     Edge 12, Type (0, 0), BuildingBlock: EZIPEK_clean_linker_0, # of connection points: 2
#     Edge 13, Type (0, 0), BuildingBlock: EZIPEK_clean_linker_0, # of connection points: 2
#     Edge 14, Type (0, 0), BuildingBlock: EZIPEK_clean_linker_0, # of connection points: 2
#     Edge 15, Type (0, 0), BuildingBlock: EZIPEK_clean_linker_0, # of connection points: 2
#     Edge 16, Type (0, 0), BuildingBlock: EZIPEK_clean_linker_0, # of connection points: 2
#     Edge 17, Type (0, 0), BuildingBlock: EZIPEK_clean_linker_0, # of connection points: 2
#     Edge 18, Type (0, 0), BuildingBlock: EZIPEK_clean_linker_0, # of connection points: 2
#     Edge 19, Type (0, 0), BuildingBlock: EZIPEK_clean_linker_0, # of connection points: 2
# Relax obj value: 0.097
# Max RMSD: 0.211
# Mean RMSD: 0.211
data_MOF--net-bcg--node1-TAGTUT_clean_sbu_1--edge1-EZIPEK_clean_linker_0
_symmetry_space_group_name_H-M    P1
_symmetry_Int_Tables_number       1
_symmetry_cell_setting            triclinic
loop_
_symmetry_equiv_pos_as_xyz
'x, y, z'
_cell_length_a     11.428163
_cell_length_b     20.063581
_cell_length_c     27.699287
_cell_angle_alpha  84.3099
_cell_angle_beta   90.79021
_cell_angle_gamma 88.850901
loop_
_atom_site_label
_atom_site_type_symbol
_atom_site_fract_x
_atom_site_fract_y
_atom_site_fract_z
_atom_type_partial_charge
C0 C 0.15863 0.23781 0.15446 0.0
C1 C 0.47917 0.27263 0.09621 0.0
C2 C 0.32931 0.41047 0.94252 0.0
Mg3 Mg 0.28687 0.16937 0.07616 0.0
O4 O 0.22457 0.23949 0.03439 0.0
Mg5 Mg 0.22033 0.33313 0.05103 0.0
Mg6 Mg 0.26254 0.25364 0.96417 0.0
O7 O 0.30049 0.26917 0.89388 0.0
Mg8 Mg 0.22058 0.33736 0.85601 0.0
Mg9 Mg 0.30801 0.17644 0.87625 0.0
C10 C 0.1918 0.0975 -0.01437 0.0
C11 C 0.53061 0.20893 0.94573 0.0
O12 O 0.16473 0.29355 0.12769 0.0
O13 O 0.19012 0.18187 0.13998 0.0
O14 O 0.40479 0.31977 0.08307 0.0
O15 O 0.45634 0.21087 0.09203 0.0
O16 O 0.20908 0.09648 0.03167 0.0
O17 O 0.24287 0.14122 0.95603 0.0
C18 C 0.99542 0.3013 -0.01677 0.0
O19 O 0.0676 0.27588 0.95502 0.0
O20 O 0.02971 0.32911 0.02067 0.0
O21 O 0.36136 0.21984 0.7978 0.0
O22 O 0.29262 0.32633 0.78741 0.0
O23 O 0.12228 0.1867 0.84558 0.0
C24 C 0.34234 0.2757 0.77137 0.0
O25 O 0.05274 0.29158 0.84617 0.0
O26 O 0.3064 0.4126 0.89678 0.0
C27 C 0.03933 0.23036 0.83755 0.0
O28 O 0.2831 0.36525 -0.0279 0.0
O29 O 0.45656 0.23186 -0.02575 0.0
O30 O 0.49867 0.18299 0.90711 0.0
C31 C 0.67038 0.72792 0.16123 0.0
C32 C 0.97756 0.77263 0.09534 0.0
C33 C 0.81984 0.91285 0.94834 0.0
Mg34 Mg 0.79368 0.66824 0.07544 0.0
O35 O 0.71714 0.73784 0.03763 0.0
Mg36 Mg 0.70994 0.82982 0.05738 0.0
Mg37 Mg 0.75513 0.7562 -0.03294 0.0
O38 O 0.79258 0.77435 0.89643 0.0
Mg39 Mg 0.71404 0.8432 0.85868 0.0
Mg40 Mg 0.80042 0.6822 0.87689 0.0
C41 C 0.69056 0.59921 -0.01482 0.0
C42 C 0.02316 0.71206 0.94648 0.0
O43 O 0.65494 0.78456 0.13539 0.0
O44 O 0.71864 0.6772 0.14457 0.0
O45 O 0.89579 0.8172 0.08792 0.0
O46 O 0.96255 0.712 0.08571 0.0
O47 O 0.71142 0.59591 0.03115 0.0
O48 O 0.73788 0.64499 0.95621 0.0
C49 C 0.48734 0.80076 -0.01239 0.0
O50 O 0.56044 0.77791 0.95859 0.0
O51 O 0.52006 0.82569 0.0265 0.0
O52 O 0.85421 0.72721 0.7989 0.0
O53 O 0.78874 0.83426 0.78957 0.0
O54 O 0.6143 0.69354 0.84658 0.0
C55 C 0.83761 0.78367 0.77299 0.0
O56 O 0.54579 0.79839 0.84855 0.0
O57 O 0.79754 0.91552 0.9025 0.0
C58 C 0.5318 0.73761 0.83905 0.0
O59 O 0.77303 0.86745 -0.02213 0.0
O60 O 0.94999 0.73468 -0.02443 0.0
O61 O 0.99045 0.6872 0.90756 0.0
C62 C 0.17569 0.78238 0.27771 0.0
C63 C 0.48593 0.73127 0.34579 0.0
C64 C 0.29727 0.59053 0.48795 0.0
Mg65 Mg 0.30349 0.83873 0.36402 0.0
O66 O 0.20953 0.77464 0.39783 0.0
Mg67 Mg 0.21455 0.68115 0.38062 0.0
Mg68 Mg 0.25174 0.75424 0.46745 0.0
O69 O 0.29426 0.73394 0.53708 0.0
Mg70 Mg 0.20043 0.67047 0.57141 0.0
Mg71 Mg 0.29095 0.82731 0.55419 0.0
C72 C 0.20729 0.91835 0.44791 0.0
C73 C 0.51187 0.79367 0.48502 0.0
O74 O 0.15843 0.72663 0.30356 0.0
O75 O 0.22717 0.83185 0.29398 0.0
O76 O 0.40323 0.68912 0.3521 0.0
O77 O 0.47184 0.79183 0.3558 0.0
O78 O 0.25243 0.92316 0.40539 0.0
O79 O 0.21737 0.86337 0.47616 0.0
C80 C 0.99231 0.71428 0.44928 0.0
O81 O 0.06665 0.73077 0.48019 0.0
O82 O 0.02417 0.69103 0.40969 0.0
O83 O 0.34833 0.78214 0.63109 0.0
O84 O 0.27734 0.67751 0.64126 0.0
O85 O 0.10272 0.82014 0.58281 0.0
C86 C 0.33044 0.72667 0.65716 0.0
O87 O 0.0323 0.71791 0.57888 0.0
O88 O 0.25313 0.58623 0.53062 0.0
C89 C 0.01914 0.77855 0.58882 0.0
O90 O 0.2856 0.64492 0.45907 0.0
O91 O 0.43669 0.77773 0.45431 0.0
O92 O 0.48099 0.81689 0.52474 0.0
C93 C 0.67293 0.28723 0.27929 0.0
C94 C 0.98059 0.24703 0.34527 0.0
C95 C 0.7994 0.0899 0.48414 0.0
Mg96 Mg 0.79907 0.34414 0.36752 0.0
O97 O 0.70819 0.27823 0.4003 0.0
Mg98 Mg 0.71649 0.18577 0.38042 0.0
Mg99 Mg 0.75434 0.25446 0.4695 0.0
O100 O 0.79688 0.2304 0.53852 0.0
Mg101 Mg 0.70208 0.16466 0.57021 0.0
Mg102 Mg 0.79018 0.32273 0.5581 0.0
C103 C 0.70576 0.41914 0.4534 0.0
C104 C 0.01499 0.29394 0.49028 0.0
O105 O 0.65375 0.23172 0.30496 0.0
O106 O 0.7254 0.33617 0.29601 0.0
O107 O 0.90186 0.20208 0.34734 0.0
O108 O 0.96933 0.29924 0.36738 0.0
O109 O 0.7502 0.42594 0.41086 0.0
O110 O 0.71748 0.36315 0.48062 0.0
C111 C 0.49442 0.21273 0.45137 0.0
O112 O 0.56948 0.22958 0.48181 0.0
O113 O 0.5259 0.19036 0.41141 0.0
O114 O 0.84456 0.27305 0.634 0.0
O115 O 0.77836 0.1672 0.64095 0.0
O116 O 0.60123 0.31326 0.58411 0.0
C117 C 0.8292 0.21602 0.65842 0.0
O118 O 0.53332 0.21084 0.57837 0.0
O119 O 0.75055 0.083 0.5259 0.0
C120 C 0.51818 0.27122 0.58852 0.0
O121 O 0.79367 0.14649 0.4575 0.0
O122 O 0.94068 0.27876 0.45886 0.0
O123 O 0.98234 0.31538 0.53034 0.0
C124 C 0.72637 0.19285 -0.01218 0.0
C125 C 0.65367 0.22936 0.95239 0.0
C126 C 0.79764 0.31977 0.94315 0.0
C127 C 0.87099 0.28264 -0.02206 0.0
N128 N 0.90258 0.18885 0.03851 0.0
N129 N 0.61719 0.32617 0.89482 0.0
C130 C 0.83401 0.22075 0.00203 0.0
C131 C 0.68886 0.29246 0.92946 0.0
N132 N 0.69363 0.13039 0.00642 0.0
N133 N 0.83216 0.38167 0.92402 0.0
H134 H 0.5377 0.30763 0.88375 0.0
H135 H 0.63602 0.37173 0.87567 0.0
H136 H 0.91015 0.40272 0.93451 0.0
H137 H 0.78324 0.41386 0.89951 0.0
H138 H 0.74542 0.09772 0.02952 0.0
H139 H 0.61586 0.10896 -0.0039 0.0
H140 H 0.87928 0.14581 0.0599 0.0
H141 H 0.98185 0.20762 0.04966 0.0
C142 C 0.1825 0.79499 0.93188 0.0
C143 C 0.14672 0.7311 0.95308 0.0
C144 C 0.32715 0.71869 0.00237 0.0
C145 C 0.36363 0.78219 -0.01915 0.0
N146 N 0.32726 0.88331 0.92873 0.0
N147 N 0.18723 0.62835 0.00279 0.0
C148 C 0.2914 0.82108 0.94654 0.0
C149 C 0.21977 0.69193 -0.01315 0.0
N150 N 0.11083 0.83075 0.89824 0.0
N151 N 0.39613 0.68405 0.03753 0.0
H152 H 0.10975 0.60777 -0.00873 0.0
H153 H 0.23888 0.59414 0.02473 0.0
H154 H 0.47529 0.70188 0.04961 0.0
H155 H 0.37357 0.63924 0.05688 0.0
H156 H 0.12887 0.87769 0.88105 0.0
H157 H 0.0317 0.81276 0.88626 0.0
H158 H 0.28021 0.91618 0.90402 0.0
H159 H 0.40508 0.90366 0.94011 0.0
C160 C 0.72552 0.81985 0.47998 0.0
C161 C 0.63564 0.77344 0.47701 0.0
C162 C 0.77858 0.68821 0.45364 0.0
C163 C 0.86838 0.73458 0.45666 0.0
N164 N 0.92988 0.84365 0.47566 0.0
N165 N 0.57405 0.66494 0.45643 0.0
C166 C 0.84225 0.7999 0.47087 0.0
C167 C 0.66171 0.70832 0.4623 0.0
N168 N 0.69823 0.88502 0.48677 0.0
N169 N 0.80589 0.62295 0.44713 0.0
H170 H 0.49412 0.66897 0.47315 0.0
H171 H 0.58105 0.62579 0.43455 0.0
H172 H 0.891 0.60526 0.44268 0.0
H173 H 0.74597 0.58451 0.45007 0.0
H174 H 0.75812 0.92347 0.48405 0.0
H175 H 0.61315 0.90269 0.49131 0.0
H176 H 0.92392 0.88267 0.49767 0.0
H177 H 0.00874 0.83976 0.45798 0.0
C178 C 0.16361 0.20781 0.46797 0.0
C179 C 0.13919 0.2729 0.48292 0.0
C180 C 0.34595 0.29842 0.47455 0.0
C181 C 0.37032 0.23334 0.4595 0.0
N182 N 0.30521 0.12261 0.44919 0.0
N183 N 0.2052 0.3827 0.49577 0.0
C184 C 0.27949 0.18747 0.45728 0.0
C185 C 0.2304 0.31839 0.48608 0.0
N186 N 0.07486 0.16459 0.46424 0.0
N187 N 0.43437 0.34208 0.47732 0.0
H188 H 0.12101 0.40016 0.50227 0.0
H189 H 0.26582 0.42065 0.49483 0.0
H190 H 0.50994 0.33854 0.45727 0.0
H191 H 0.43243 0.38041 0.49993 0.0
H192 H 0.07851 0.12543 0.44238 0.0
H193 H 0.99741 0.16909 0.48287 0.0
H194 H 0.24495 0.08441 0.45182 0.0
H195 H 0.38953 0.10507 0.44297 0.0
C196 C 0.49489 0.57357 0.94664 0.0
C197 C 0.60449 0.55018 -0.03193 0.0
C198 C 0.52501 0.43662 -0.01866 0.0
C199 C 0.41612 0.45978 0.95887 0.0
N200 N 0.29653 0.55008 0.92054 0.0
N201 N 0.72687 0.45955 0.00367 0.0
C202 C 0.40136 0.52835 0.94165 0.0
C203 C 0.61989 0.4815 -0.01524 0.0
N204 N 0.4788 0.64 0.93251 0.0
N205 N 0.53847 0.371 -0.00142 0.0
H206 H 0.80026 0.48977 0.00186 0.0
H207 H 0.74661 0.41168 0.01984 0.0
H208 H 0.47083 0.33799 -0.00177 0.0
H209 H 0.61297 0.34884 0.01557 0.0
H210 H 0.40104 0.66289 0.91923 0.0
H211 H 0.54644 0.67307 0.93278 0.0
H212 H 0.28129 0.59655 0.90116 0.0
H213 H 0.22227 0.52056 0.92212 0.0
C214 C 0.59151 0.49233 0.50692 0.0
C215 C 0.60271 0.46473 0.46201 0.0
C216 C 0.40618 0.51297 0.43642 0.0
C217 C 0.39901 0.54397 0.48004 0.0
N218 N 0.49942 0.57556 0.55202 0.0
N219 N 0.51555 0.44604 0.38392 0.0
C220 C 0.49456 0.53603 0.51448 0.0
C221 C 0.50953 0.47546 0.42636 0.0
N222 N 0.67473 0.47754 0.54251 0.0
N223 N 0.3102 0.51563 0.40609 0.0
H224 H 0.57085 0.40563 0.37879 0.0
H225 H 0.46376 0.4608 0.35342 0.0
H226 H 0.23271 0.54106 0.41306 0.0
H227 H 0.30239 0.48879 0.37602 0.0
H228 H 0.66316 0.48698 0.57846 0.0
H229 H 0.75308 0.45217 0.53685 0.0
H230 H 0.57211 0.57758 0.57484 0.0
H231 H 0.43813 0.61312 0.5572 0.0
C232 C 0.11482 0.98071 -0.01153 0.0
C233 C 0.10357 0.04882 -0.03049 0.0
C234 C 0.89742 0.02957 0.9456 0.0
C235 C 0.90889 0.96131 0.96423 0.0
N236 N 0.03063 0.87104 0.00197 0.0
N237 N 0.9822 0.13909 0.93191 0.0
C238 C 0.01802 0.93702 -0.01427 0.0
C239 C 0.9944 0.07313 0.94816 0.0
N240 N 0.21912 0.95823 0.00969 0.0
N241 N 0.79261 0.0524 0.92505 0.0
H242 H 0.05249 0.17047 0.93052 0.0
H243 H 0.90546 0.16299 0.91845 0.0
H244 H 0.71665 0.02439 0.92827 0.0
H245 H 0.77886 0.09834 0.90475 0.0
H246 H 0.23248 0.91251 0.03032 0.0
H247 H 0.29485 0.98649 0.00695 0.0
H248 H 0.10748 0.84741 0.01558 0.0
H249 H 0.96118 0.8391 0.00307 0.0
C250 C 0.91344 0.01777 0.43011 0.0
C251 C 0.90039 0.0426 0.47596 0.0
C252 C 0.09389 0.99071 0.50212 0.0
C253 C 0.10605 0.96535 0.45637 0.0
N254 N 0.00878 0.93922 0.38208 0.0
N255 N 0.99299 0.06501 0.55217 0.0
C256 C 0.01202 0.97587 0.42127 0.0
C257 C 0.99325 0.03093 0.51164 0.0
N258 N 0.83063 0.03408 0.39456 0.0
N259 N 0.17985 0.97659 0.5367 0.0
H260 H 0.93001 0.1007 0.55921 0.0
H261 H 0.06251 0.06466 0.5768 0.0
H262 H 0.26094 0.95552 0.52922 0.0
H263 H 0.16975 0.98271 0.57328 0.0
H264 H 0.84373 0.02798 0.35811 0.0
H265 H 0.75069 0.05729 0.401 0.0
H266 H 0.93704 0.93873 0.35857 0.0
H267 H 0.06968 0.90193 0.37595 0.0
C268 C 0.69346 0.23972 0.19935 0.0
C269 C 0.64847 0.29101 0.22654 0.0
C270 C 0.56837 0.34913 0.15169 0.0
C271 C 0.57708 0.28864 0.12942 0.0
N272 N 0.68197 0.18474 0.12512 0.0
N273 N 0.54192 0.39643 0.22758 0.0
C274 C 0.65197 0.23669 0.15097 0.0
C275 C 0.58759 0.34711 0.20233 0.0
N276 N 0.77843 0.19592 0.2191 0.0
N277 N 0.54291 0.40816 0.12449 0.0
H278 H 0.54896 0.39567 0.26519 0.0
H279 H 0.48751 0.43493 0.21149 0.0
H280 H 0.53692 0.41114 0.08678 0.0
H281 H 0.54341 0.45438 0.13868 0.0
H282 H 0.82134 0.16091 0.19997 0.0
H283 H 0.815 0.19889 0.25348 0.0
H284 H 0.72386 0.14071 0.1399 0.0
H285 H 0.66345 0.18669 0.08808 0.0
C286 C 0.69223 0.76929 0.24412 0.0
C287 C 0.64505 0.72216 0.21407 0.0
C288 C 0.57134 0.6585 0.28685 0.0
C289 C 0.5823 0.7157 0.31222 0.0
N290 N 0.69496 0.81245 0.3236 0.0
N291 N 0.54215 0.61847 0.20842 0.0
C292 C 0.65713 0.76708 0.29355 0.0
C293 C 0.58753 0.66484 0.23601 0.0
N294 N 0.7737 0.8137 0.22601 0.0
N295 N 0.5456 0.5986 0.31163 0.0
H296 H 0.54311 0.62342 0.17062 0.0
H297 H 0.49211 0.57865 0.22282 0.0
H298 H 0.53986 0.59345 0.34941 0.0
H299 H 0.54494 0.55371 0.29566 0.0
H300 H 0.81439 0.84786 0.24616 0.0
H301 H 0.80795 0.8133 0.19136 0.0
H302 H 0.73984 0.85566 0.3123 0.0
H303 H 0.682 0.80527 0.361 0.0
C304 C 0.31404 0.77236 0.73767 0.0
C305 C 0.35847 0.72222 0.70946 0.0
C306 C 0.44324 0.66229 0.78268 0.0
C307 C 0.43325 0.72169 0.8062 0.0
N308 N 0.32281 0.82282 0.81386 0.0
N309 N 0.46577 0.61755 0.70566 0.0
C310 C 0.35586 0.77345 0.78617 0.0
C311 C 0.42103 0.66574 0.73224 0.0
N312 N 0.22999 0.81719 0.71851 0.0
N313 N 0.47397 0.60304 0.80855 0.0
H314 H 0.45759 0.61972 0.66801 0.0
H315 H 0.52134 0.57882 0.72054 0.0
H316 H 0.48505 0.59922 0.84606 0.0
H317 H 0.47387 0.55723 0.79378 0.0
H318 H 0.19187 0.85398 0.73738 0.0
H319 H 0.19141 0.81474 0.68442 0.0
H320 H 0.2777 0.86667 0.80102 0.0
H321 H 0.34067 0.8183 0.85095 0.0
C322 C 0.31606 0.23246 0.68955 0.0
C323 C 0.36397 0.28065 0.71852 0.0
C324 C 0.42747 0.34503 0.6445 0.0
C325 C 0.41863 0.28702 0.62005 0.0
N326 N 0.31025 0.18824 0.61046 0.0
N327 N 0.46266 0.38628 0.722 0.0
C328 C 0.34727 0.23473 0.63974 0.0
C329 C 0.4165 0.33894 0.69546 0.0
N330 N 0.23798 0.18697 0.70905 0.0
N331 N 0.44945 0.40486 0.61885 0.0
H332 H 0.46558 0.38164 0.7598 0.0
H333 H 0.50988 0.42664 0.70649 0.0
H334 H 0.454 0.40895 0.58107 0.0
H335 H 0.44953 0.45022 0.63422 0.0
H336 H 0.19696 0.15213 0.6896 0.0
H337 H 0.20675 0.18706 0.74422 0.0
H338 H 0.26743 0.14458 0.62251 0.0
H339 H 0.32223 0.19487 0.57298 0.0
C340 C 0.08733 0.84358 0.20222 0.0
C341 C 0.1488 0.7869 0.22527 0.0
C342 C 0.15215 0.73552 0.14859 0.0
C343 C 0.07643 0.78788 0.12818 0.0
N344 N 0.03861 0.9068 0.12564 0.0
N345 N 0.27754 0.69195 0.21638 0.0
C346 C 0.06725 0.84732 0.15164 0.0
C347 C 0.19346 0.73668 0.19716 0.0
N348 N 0.04145 0.89166 0.22858 0.0
N349 N 0.18368 0.68531 0.12136 0.0
H350 H 0.31574 0.69437 0.25054 0.0
H351 H 0.31656 0.65568 0.19728 0.0
H352 H 0.16675 0.68935 0.08417 0.0
H353 H 0.22608 0.64087 0.1349 0.0
H354 H 0.98665 0.93052 0.21332 0.0
H355 H 0.04757 0.88916 0.2663 0.0
H356 H 0.03904 0.95252 0.14053 0.0
H357 H 0.02885 0.91074 0.08806 0.0
C358 C 0.13227 0.20208 0.29165 0.0
C359 C 0.05051 0.25302 0.3007 0.0
C360 C 0.02874 0.28535 0.21403 0.0
C361 C 0.11923 0.23962 0.20482 0.0
N362 N 0.28325 0.16979 0.23794 0.0
N363 N 0.96275 0.36106 0.26986 0.0
C364 C 0.17901 0.20199 0.24443 0.0
C365 C 0.01248 0.30074 0.2619 0.0
N366 N 0.16587 0.15436 0.32797 0.0
N367 N 0.95504 0.31239 0.17763 0.0
H368 H 0.95786 0.37885 0.30372 0.0
H369 H 0.94123 0.39775 0.2416 0.0
H370 H 0.95683 0.29769 0.14256 0.0
H371 H 0.88273 0.34267 0.184 0.0
H372 H 0.21596 0.11204 0.32198 0.0
H373 H 0.13817 0.15586 0.36352 0.0
H374 H 0.33352 0.14654 0.26673 0.0
H375 H 0.32663 0.17308 0.20498 0.0
C376 C 0.94941 0.1526 0.78319 0.0
C377 C 0.93928 0.21259 0.80611 0.0
C378 C 0.81073 0.25906 0.73941 0.0
C379 C 0.85652 0.20994 0.71079 0.0
N380 N 0.96783 0.10677 0.70631 0.0
N381 N 0.82786 0.3138 0.81323 0.0
C382 C 0.92323 0.15476 0.73305 0.0
C383 C 0.85811 0.26276 0.78666 0.0
N384 N 0.98385 0.09413 0.80926 0.0
N385 N 0.71999 0.30035 0.72194 0.0
H386 H 0.84954 0.31161 0.84989 0.0
H387 H 0.7825 0.35719 0.79943 0.0
H388 H 0.67901 0.29629 0.6885 0.0
H389 H 0.678 0.33423 0.74226 0.0
H390 H 0.98461 0.04804 0.79487 0.0
H391 H 0.99707 0.09104 0.84667 0.0
H392 H 0.02629 0.06922 0.72074 0.0
H393 H 0.9556 0.10781 0.66889 0.0
C394 C 0.84748 0.7439 0.6409 0.0
C395 C 0.92262 0.7949 0.62199 0.0
C396 C 0.91927 0.84626 0.69793 0.0
C397 C 0.86174 0.78916 0.72015 0.0
N398 N 0.73225 0.69771 0.70898 0.0
N399 N 0.96023 0.9119 0.62197 0.0
C400 C 0.81344 0.74198 0.69043 0.0
C401 C 0.93441 0.85227 0.64708 0.0
N402 N 0.80854 0.69861 0.61101 0.0
N403 N 0.96558 0.89267 0.72525 0.0
H404 H 0.96472 0.91649 0.58418 0.0
H405 H 0.96244 0.95697 0.63768 0.0
H406 H 0.96486 0.88802 0.76305 0.0
H407 H 0.01588 0.93221 0.71058 0.0
H408 H 0.76276 0.65577 0.62242 0.0
H409 H 0.82142 0.70555 0.57359 0.0
H410 H 0.69111 0.66339 0.68912 0.0
H411 H 0.69893 0.69829 0.74378 0.0
loop_
_geom_bond_atom_site_label_1
_geom_bond_atom_site_label_2
_geom_bond_distance
_geom_bond_site_symmetry_2
_ccdc_geom_bond_type
C0 O12 1.241 . S
C0 O13 1.280 . S
C1 O14 1.277 . S
C1 O15 1.245 . S
C2 O26 1.247 . S
C2 O28 1.289 1_556 S
Mg3 O4 1.926 . S
Mg3 O13 1.984 . S
Mg3 O15 1.988 . S
Mg3 O16 2.061 . S
O4 Mg3 1.926 . S
O4 Mg5 1.986 . S
O4 Mg6 1.924 . S
Mg5 O4 1.986 . S
Mg5 O12 2.042 . S
Mg5 O14 2.041 . S
Mg5 O20 2.038 . S
Mg5 O28 2.238 . S
Mg6 O4 1.924 . S
Mg6 O7 1.910 1_554 S
Mg6 O17 2.104 1_554 S
Mg6 O19 2.077 1_554 S
Mg6 O28 2.109 . S
Mg6 O29 2.080 . S
O7 Mg6 1.910 1_556 S
O7 Mg8 1.926 . S
O7 Mg9 1.986 . S
Mg8 O7 1.926 . S
Mg8 O22 1.984 . S
Mg8 O25 1.988 . S
Mg8 O26 2.061 . S
Mg9 O7 1.986 . S
Mg9 O17 2.238 . S
Mg9 O21 2.042 . S
Mg9 O23 2.041 . S
Mg9 O30 2.038 . S
C10 O16 1.247 . S
C10 O17 1.289 1_554 S
C11 O29 1.245 1_556 S
C11 O30 1.274 . S
O12 C0 1.241 . S
O12 Mg5 2.042 . S
O13 C0 1.280 . S
O13 Mg3 1.984 . S
O14 C1 1.277 . S
O14 Mg5 2.041 . S
O15 C1 1.245 . S
O15 Mg3 1.988 . S
O16 Mg3 2.061 . S
O16 C10 1.247 . S
O17 Mg6 2.104 1_556 S
O17 Mg9 2.238 . S
O17 C10 1.289 1_556 S
C18 O19 1.245 1_554 S
C18 O20 1.274 . S
O19 Mg6 2.077 1_556 S
O19 C18 1.245 1_556 S
O20 Mg5 2.038 . S
O20 C18 1.274 . S
O21 Mg9 2.042 . S
O21 C24 1.241 . S
O22 Mg8 1.984 . S
O22 C24 1.280 . S
O23 Mg9 2.041 . S
O23 C27 1.277 . S
C24 O21 1.241 . S
C24 O22 1.280 . S
O25 Mg8 1.988 . S
O25 C27 1.245 . S
O26 C2 1.247 . S
O26 Mg8 2.061 . S
C27 O23 1.277 . S
C27 O25 1.245 . S
O28 C2 1.289 1_554 S
O28 Mg5 2.238 . S
O28 Mg6 2.109 . S
O29 Mg6 2.080 . S
O29 C11 1.245 1_554 S
O30 Mg9 2.038 . S
O30 C11 1.274 . S
C31 O43 1.241 . S
C31 O44 1.280 . S
C32 O45 1.277 . S
C32 O46 1.245 . S
C33 O57 1.247 . S
C33 O59 1.289 1_556 S
Mg34 O35 1.926 . S
Mg34 O44 1.984 . S
Mg34 O46 1.988 . S
Mg34 O47 2.061 . S
O35 Mg34 1.926 . S
O35 Mg36 1.986 . S
O35 Mg37 1.924 . S
Mg36 O35 1.986 . S
Mg36 O43 2.042 . S
Mg36 O45 2.041 . S
Mg36 O51 2.038 . S
Mg36 O59 2.238 . S
Mg37 O35 1.924 . S
Mg37 O38 1.910 1_554 S
Mg37 O48 2.104 1_554 S
Mg37 O50 2.077 1_554 S
Mg37 O59 2.109 . S
Mg37 O60 2.080 . S
O38 Mg37 1.910 1_556 S
O38 Mg39 1.926 . S
O38 Mg40 1.986 . S
Mg39 O38 1.926 . S
Mg39 O53 1.984 . S
Mg39 O56 1.988 . S
Mg39 O57 2.061 . S
Mg40 O38 1.986 . S
Mg40 O48 2.238 . S
Mg40 O52 2.042 . S
Mg40 O54 2.041 . S
Mg40 O61 2.038 . S
C41 O47 1.247 . S
C41 O48 1.289 1_554 S
C42 O60 1.245 1_556 S
C42 O61 1.274 . S
O43 C31 1.241 . S
O43 Mg36 2.042 . S
O44 C31 1.280 . S
O44 Mg34 1.984 . S
O45 C32 1.277 . S
O45 Mg36 2.041 . S
O46 C32 1.245 . S
O46 Mg34 1.988 . S
O47 Mg34 2.061 . S
O47 C41 1.247 . S
O48 Mg37 2.104 1_556 S
O48 Mg40 2.238 . S
O48 C41 1.289 1_556 S
C49 O50 1.245 1_554 S
C49 O51 1.274 . S
O50 Mg37 2.077 1_556 S
O50 C49 1.245 1_556 S
O51 Mg36 2.038 . S
O51 C49 1.274 . S
O52 Mg40 2.042 . S
O52 C55 1.241 . S
O53 Mg39 1.984 . S
O53 C55 1.280 . S
O54 Mg40 2.041 . S
O54 C58 1.277 . S
C55 O52 1.241 . S
C55 O53 1.280 . S
O56 Mg39 1.988 . S
O56 C58 1.245 . S
O57 C33 1.247 . S
O57 Mg39 2.061 . S
C58 O54 1.277 . S
C58 O56 1.245 . S
O59 C33 1.289 1_554 S
O59 Mg36 2.238 . S
O59 Mg37 2.109 . S
O60 Mg37 2.080 . S
O60 C42 1.245 1_554 S
O61 Mg40 2.038 . S
O61 C42 1.274 . S
C62 O74 1.241 . S
C62 O75 1.280 . S
C63 O76 1.277 . S
C63 O77 1.245 . S
C64 O88 1.247 . S
C64 O90 1.289 . S
Mg65 O66 1.926 . S
Mg65 O75 1.984 . S
Mg65 O77 1.988 . S
Mg65 O78 2.061 . S
O66 Mg65 1.926 . S
O66 Mg67 1.986 . S
O66 Mg68 1.917 . S
Mg67 O66 1.986 . S
Mg67 O74 2.042 . S
Mg67 O76 2.041 . S
Mg67 O82 2.038 . S
Mg67 O90 2.238 . S
Mg68 O66 1.917 . S
Mg68 O69 1.917 . S
Mg68 O79 2.106 . S
Mg68 O81 2.079 . S
Mg68 O90 2.106 . S
Mg68 O91 2.079 . S
O69 Mg68 1.917 . S
O69 Mg70 1.926 . S
O69 Mg71 1.986 . S
Mg70 O69 1.926 . S
Mg70 O84 1.984 . S
Mg70 O87 1.988 . S
Mg70 O88 2.061 . S
Mg71 O69 1.986 . S
Mg71 O79 2.238 . S
Mg71 O83 2.042 . S
Mg71 O85 2.041 . S
Mg71 O92 2.038 . S
C72 O78 1.247 . S
C72 O79 1.289 . S
C73 O91 1.245 . S
C73 O92 1.274 . S
O74 C62 1.241 . S
O74 Mg67 2.042 . S
O75 C62 1.280 . S
O75 Mg65 1.984 . S
O76 C63 1.277 . S
O76 Mg67 2.041 . S
O77 C63 1.245 . S
O77 Mg65 1.988 . S
O78 Mg65 2.061 . S
O78 C72 1.247 . S
O79 Mg68 2.106 . S
O79 Mg71 2.238 . S
O79 C72 1.289 . S
C80 O81 1.245 . S
C80 O82 1.274 . S
O81 Mg68 2.079 . S
O81 C80 1.245 . S
O82 Mg67 2.038 . S
O82 C80 1.274 . S
O83 Mg71 2.042 . S
O83 C86 1.241 . S
O84 Mg70 1.984 . S
O84 C86 1.280 . S
O85 Mg71 2.041 . S
O85 C89 1.277 . S
C86 O83 1.241 . S
C86 O84 1.280 . S
O87 Mg70 1.988 . S
O87 C89 1.245 . S
O88 C64 1.247 . S
O88 Mg70 2.061 . S
C89 O85 1.277 . S
C89 O87 1.245 . S
O90 C64 1.289 . S
O90 Mg67 2.238 . S
O90 Mg68 2.106 . S
O91 Mg68 2.079 . S
O91 C73 1.245 . S
O92 Mg71 2.038 . S
O92 C73 1.274 . S
C93 O105 1.241 . S
C93 O106 1.280 . S
C94 O107 1.277 . S
C94 O108 1.245 . S
C95 O119 1.247 . S
C95 O121 1.289 . S
Mg96 O97 1.926 . S
Mg96 O106 1.984 . S
Mg96 O108 1.988 . S
Mg96 O109 2.061 . S
O97 Mg96 1.926 . S
O97 Mg98 1.986 . S
O97 Mg99 1.917 . S
Mg98 O97 1.986 . S
Mg98 O105 2.042 . S
Mg98 O107 2.041 . S
Mg98 O113 2.038 . S
Mg98 O121 2.238 . S
Mg99 O97 1.917 . S
Mg99 O100 1.917 . S
Mg99 O110 2.106 . S
Mg99 O112 2.079 . S
Mg99 O121 2.106 . S
Mg99 O122 2.079 . S
O100 Mg99 1.917 . S
O100 Mg101 1.926 . S
O100 Mg102 1.986 . S
Mg101 O100 1.926 . S
Mg101 O115 1.984 . S
Mg101 O118 1.988 . S
Mg101 O119 2.061 . S
Mg102 O100 1.986 . S
Mg102 O110 2.238 . S
Mg102 O114 2.042 . S
Mg102 O116 2.041 . S
Mg102 O123 2.038 . S
C103 O109 1.247 . S
C103 O110 1.289 . S
C104 O122 1.245 . S
C104 O123 1.274 . S
O105 C93 1.241 . S
O105 Mg98 2.042 . S
O106 C93 1.280 . S
O106 Mg96 1.984 . S
O107 C94 1.277 . S
O107 Mg98 2.041 . S
O108 C94 1.245 . S
O108 Mg96 1.988 . S
O109 Mg96 2.061 . S
O109 C103 1.247 . S
O110 Mg99 2.106 . S
O110 Mg102 2.238 . S
O110 C103 1.289 . S
C111 O112 1.245 . S
C111 O113 1.274 . S
O112 Mg99 2.079 . S
O112 C111 1.245 . S
O113 Mg98 2.038 . S
O113 C111 1.274 . S
O114 Mg102 2.042 . S
O114 C117 1.241 . S
O115 Mg101 1.984 . S
O115 C117 1.280 . S
O116 Mg102 2.041 . S
O116 C120 1.277 . S
C117 O114 1.241 . S
C117 O115 1.280 . S
O118 Mg101 1.988 . S
O118 C120 1.245 . S
O119 C95 1.247 . S
O119 Mg101 2.061 . S
C120 O116 1.277 . S
C120 O118 1.245 . S
O121 C95 1.289 . S
O121 Mg98 2.238 . S
O121 Mg99 2.106 . S
O122 Mg99 2.079 . S
O122 C104 1.245 . S
O123 Mg102 2.038 . S
O123 C104 1.274 . S
C124 C125 1.363 1_554 S
C124 C130 1.379 . S
C124 N132 1.356 . S
C125 C124 1.363 1_556 S
C125 C131 1.363 . S
C126 C127 1.363 1_556 S
C126 C131 1.379 . S
C126 N133 1.356 . S
C127 C126 1.363 1_554 S
C127 C130 1.363 . S
N128 C130 1.356 . S
N128 H140 0.984 . S
N128 H141 0.985 . S
N129 C131 1.356 . S
N129 H134 0.984 . S
N129 H135 0.985 . S
C130 C124 1.379 . S
C130 C127 1.363 . S
C130 N128 1.356 . S
C131 C125 1.363 . S
C131 C126 1.379 . S
C131 N129 1.356 . S
N132 C124 1.356 . S
N132 H138 0.984 . S
N132 H139 0.984 . S
N133 C126 1.356 . S
N133 H136 0.984 . S
N133 H137 0.985 . S
H134 N129 0.984 . S
H135 N129 0.985 . S
H136 N133 0.984 . S
H137 N133 0.985 . S
H138 N132 0.984 . S
H139 N132 0.984 . S
H140 N128 0.984 . S
H141 N128 0.985 . S
C142 C143 1.363 . S
C142 C148 1.379 . S
C142 N150 1.356 . S
C143 C142 1.363 . S
C143 C149 1.363 1_556 S
C144 C145 1.363 . S
C144 C149 1.379 . S
C144 N151 1.356 . S
C145 C144 1.363 . S
C145 C148 1.363 1_554 S
N146 C148 1.356 . S
N146 H158 0.984 . S
N146 H159 0.985 . S
N147 C149 1.356 . S
N147 H152 0.984 . S
N147 H153 0.985 . S
C148 C142 1.379 . S
C148 C145 1.363 1_556 S
C148 N146 1.356 . S
C149 C143 1.363 1_554 S
C149 C144 1.379 . S
C149 N147 1.356 . S
N150 C142 1.356 . S
N150 H156 0.984 . S
N150 H157 0.984 . S
N151 C144 1.356 . S
N151 H154 0.984 . S
N151 H155 0.985 . S
H152 N147 0.984 . S
H153 N147 0.985 . S
H154 N151 0.984 . S
H155 N151 0.985 . S
H156 N150 0.984 . S
H157 N150 0.984 . S
H158 N146 0.984 . S
H159 N146 0.985 . S
C160 C161 1.363 . S
C160 C166 1.379 . S
C160 N168 1.356 . S
C161 C160 1.363 . S
C161 C167 1.363 . S
C162 C163 1.363 . S
C162 C167 1.379 . S
C162 N169 1.356 . S
C163 C162 1.363 . S
C163 C166 1.363 . S
N164 C166 1.356 . S
N164 H176 0.984 . S
N164 H177 0.985 . S
N165 C167 1.356 . S
N165 H170 0.984 . S
N165 H171 0.985 . S
C166 C160 1.379 . S
C166 C163 1.363 . S
C166 N164 1.356 . S
C167 C161 1.363 . S
C167 C162 1.379 . S
C167 N165 1.356 . S
N168 C160 1.356 . S
N168 H174 0.984 . S
N168 H175 0.984 . S
N169 C162 1.356 . S
N169 H172 0.984 . S
N169 H173 0.985 . S
H170 N165 0.984 . S
H171 N165 0.985 . S
H172 N169 0.984 . S
H173 N169 0.985 . S
H174 N168 0.984 . S
H175 N168 0.984 . S
H176 N164 0.984 . S
H177 N164 0.985 . S
C178 C179 1.363 . S
C178 C184 1.379 . S
C178 N186 1.356 . S
C179 C178 1.363 . S
C179 C185 1.363 . S
C180 C181 1.363 . S
C180 C185 1.379 . S
C180 N187 1.356 . S
C181 C180 1.363 . S
C181 C184 1.363 . S
N182 C184 1.356 . S
N182 H194 0.984 . S
N182 H195 0.985 . S
N183 C185 1.356 . S
N183 H188 0.984 . S
N183 H189 0.985 . S
C184 C178 1.379 . S
C184 C181 1.363 . S
C184 N182 1.356 . S
C185 C179 1.363 . S
C185 C180 1.379 . S
C185 N183 1.356 . S
N186 C178 1.356 . S
N186 H192 0.984 . S
N186 H193 0.984 1_455 S
N187 C180 1.356 . S
N187 H190 0.984 . S
N187 H191 0.985 . S
H188 N183 0.984 . S
H189 N183 0.985 . S
H190 N187 0.984 . S
H191 N187 0.985 . S
H192 N186 0.984 . S
H193 N186 0.984 1_655 S
H194 N182 0.984 . S
H195 N182 0.985 . S
C196 C197 1.357 1_556 S
C196 C202 1.379 . S
C196 N204 1.356 . S
C197 C196 1.357 1_554 S
C197 C203 1.368 . S
C198 C199 1.368 . S
C198 C203 1.379 . S
C198 N205 1.356 . S
C199 C198 1.368 . S
C199 C202 1.358 1_554 S
N200 C202 1.356 . S
N200 H212 0.984 . S
N200 H213 0.985 . S
N201 C203 1.356 . S
N201 H206 0.984 . S
N201 H207 0.985 . S
C202 C196 1.379 . S
C202 C199 1.358 1_556 S
C202 N200 1.356 . S
C203 C197 1.368 . S
C203 C198 1.379 . S
C203 N201 1.356 . S
N204 C196 1.356 . S
N204 H210 0.984 . S
N204 H211 0.984 . S
N205 C198 1.356 . S
N205 H208 0.984 . S
N205 H209 0.985 . S
H206 N201 0.984 . S
H207 N201 0.985 . S
H208 N205 0.984 . S
H209 N205 0.985 . S
H210 N204 0.984 . S
H211 N204 0.984 . S
H212 N200 0.984 . S
H213 N200 0.985 . S
C214 C215 1.363 . S
C214 C220 1.379 . S
C214 N222 1.356 . S
C215 C214 1.363 . S
C215 C221 1.363 . S
C216 C217 1.363 . S
C216 C221 1.379 . S
C216 N223 1.356 . S
C217 C216 1.363 . S
C217 C220 1.363 . S
N218 C220 1.356 . S
N218 H230 0.984 . S
N218 H231 0.985 . S
N219 C221 1.356 . S
N219 H224 0.984 . S
N219 H225 0.985 . S
C220 C214 1.379 . S
C220 C217 1.363 . S
C220 N218 1.356 . S
C221 C215 1.363 . S
C221 C216 1.379 . S
C221 N219 1.356 . S
N222 C214 1.356 . S
N222 H228 0.984 . S
N222 H229 0.984 . S
N223 C216 1.356 . S
N223 H226 0.984 . S
N223 H227 0.985 . S
H224 N219 0.984 . S
H225 N219 0.985 . S
H226 N223 0.984 . S
H227 N223 0.985 . S
H228 N222 0.984 . S
H229 N222 0.984 . S
H230 N218 0.984 . S
H231 N218 0.985 . S
C232 C233 1.368 1_565 S
C232 C238 1.379 1_455 S
C232 N240 1.356 1_565 S
C233 C232 1.368 1_545 S
C233 C239 1.358 1_554 S
C234 C235 1.359 1_546 S
C234 C239 1.379 1_655 S
C234 N241 1.356 1_545 S
C235 C234 1.359 1_564 S
C235 C238 1.368 . S
N236 C238 1.356 . S
N236 H248 0.984 1_655 S
N236 H249 0.985 . S
N237 C239 1.356 . S
N237 H242 0.984 . S
N237 H243 0.985 1_455 S
C238 C232 1.379 1_655 S
C238 C235 1.368 . S
C238 N236 1.356 . S
C239 C233 1.358 1_556 S
C239 C234 1.379 1_455 S
C239 N237 1.356 . S
N240 C232 1.356 1_545 S
N240 H246 0.984 1_545 S
N240 H247 0.984 . S
N241 C234 1.356 1_565 S
N241 H244 0.984 . S
N241 H245 0.985 1_565 S
H242 N237 0.984 . S
H243 N237 0.985 1_655 S
H244 N241 0.984 . S
H245 N241 0.985 1_545 S
H246 N240 0.984 1_565 S
H247 N240 0.984 . S
H248 N236 0.984 1_455 S
H249 N236 0.985 . S
C250 C251 1.363 . S
C250 C256 1.379 1_645 S
C250 N258 1.356 . S
C251 C250 1.363 . S
C251 C257 1.363 . S
C252 C253 1.363 . S
C252 C257 1.379 1_465 S
C252 N259 1.356 . S
C253 C252 1.363 . S
C253 C256 1.363 . S
N254 C256 1.356 . S
N254 H266 0.984 . S
N254 H267 0.985 . S
N255 C257 1.356 . S
N255 H260 0.984 . S
N255 H261 0.985 . S
C256 C250 1.379 1_465 S
C256 C253 1.363 . S
C256 N254 1.356 . S
C257 C251 1.363 . S
C257 C252 1.379 1_645 S
C257 N255 1.356 . S
N258 C250 1.356 . S
N258 H264 0.990 . S
N258 H265 0.984 . S
N259 C252 1.356 . S
N259 H262 0.984 . S
N259 H263 0.990 . S
H260 N255 0.984 . S
H261 N255 0.985 . S
H262 N259 0.984 . S
H263 N259 0.990 . S
H264 N258 0.990 . S
H265 N258 0.984 . S
H266 N254 0.984 . S
H267 N254 0.985 . S
C268 C269 1.363 . S
C268 C274 1.379 . S
C268 N276 1.356 . S
C269 C268 1.363 . S
C269 C275 1.363 . S
C270 C271 1.363 . S
C270 C275 1.379 . S
C270 N277 1.356 . S
C271 C270 1.363 . S
C271 C274 1.363 . S
N272 C274 1.356 . S
N272 H284 0.984 . S
N272 H285 0.985 . S
N273 C275 1.356 . S
N273 H278 0.984 . S
N273 H279 0.985 . S
C274 C268 1.379 . S
C274 C271 1.363 . S
C274 N272 1.356 . S
C275 C269 1.363 . S
C275 C270 1.379 . S
C275 N273 1.356 . S
N276 C268 1.356 . S
N276 H282 0.984 . S
N276 H283 0.984 . S
N277 C270 1.356 . S
N277 H280 0.984 . S
N277 H281 0.985 . S
H278 N273 0.984 . S
H279 N273 0.985 . S
H280 N277 0.984 . S
H281 N277 0.985 . S
H282 N276 0.984 . S
H283 N276 0.984 . S
H284 N272 0.984 . S
H285 N272 0.985 . S
C286 C287 1.363 . S
C286 C292 1.379 . S
C286 N294 1.356 . S
C287 C286 1.363 . S
C287 C293 1.363 . S
C288 C289 1.363 . S
C288 C293 1.379 . S
C288 N295 1.356 . S
C289 C288 1.363 . S
C289 C292 1.363 . S
N290 C292 1.356 . S
N290 H302 0.984 . S
N290 H303 0.985 . S
N291 C293 1.356 . S
N291 H296 0.984 . S
N291 H297 0.985 . S
C292 C286 1.379 . S
C292 C289 1.363 . S
C292 N290 1.356 . S
C293 C287 1.363 . S
C293 C288 1.379 . S
C293 N291 1.356 . S
N294 C286 1.356 . S
N294 H300 0.984 . S
N294 H301 0.984 . S
N295 C288 1.356 . S
N295 H298 0.984 . S
N295 H299 0.985 . S
H296 N291 0.984 . S
H297 N291 0.985 . S
H298 N295 0.984 . S
H299 N295 0.985 . S
H300 N294 0.984 . S
H301 N294 0.984 . S
H302 N290 0.984 . S
H303 N290 0.985 . S
C304 C305 1.363 . S
C304 C310 1.379 . S
C304 N312 1.356 . S
C305 C304 1.363 . S
C305 C311 1.363 . S
C306 C307 1.363 . S
C306 C311 1.379 . S
C306 N313 1.356 . S
C307 C306 1.363 . S
C307 C310 1.363 . S
N308 C310 1.356 . S
N308 H320 0.984 . S
N308 H321 0.985 . S
N309 C311 1.356 . S
N309 H314 0.984 . S
N309 H315 0.985 . S
C310 C304 1.379 . S
C310 C307 1.363 . S
C310 N308 1.356 . S
C311 C305 1.363 . S
C311 C306 1.379 . S
C311 N309 1.356 . S
N312 C304 1.356 . S
N312 H318 0.984 . S
N312 H319 0.984 . S
N313 C306 1.356 . S
N313 H316 0.984 . S
N313 H317 0.985 . S
H314 N309 0.984 . S
H315 N309 0.985 . S
H316 N313 0.984 . S
H317 N313 0.985 . S
H318 N312 0.984 . S
H319 N312 0.984 . S
H320 N308 0.984 . S
H321 N308 0.985 . S
C322 C323 1.363 . S
C322 C328 1.379 . S
C322 N330 1.356 . S
C323 C322 1.363 . S
C323 C329 1.363 . S
C324 C325 1.363 . S
C324 C329 1.379 . S
C324 N331 1.356 . S
C325 C324 1.363 . S
C325 C328 1.363 . S
N326 C328 1.356 . S
N326 H338 0.984 . S
N326 H339 0.985 . S
N327 C329 1.356 . S
N327 H332 0.984 . S
N327 H333 0.985 . S
C328 C322 1.379 . S
C328 C325 1.363 . S
C328 N326 1.356 . S
C329 C323 1.363 . S
C329 C324 1.379 . S
C329 N327 1.356 . S
N330 C322 1.356 . S
N330 H336 0.984 . S
N330 H337 0.984 . S
N331 C324 1.356 . S
N331 H334 0.984 . S
N331 H335 0.985 . S
H332 N327 0.984 . S
H333 N327 0.985 . S
H334 N331 0.984 . S
H335 N331 0.985 . S
H336 N330 0.984 . S
H337 N330 0.984 . S
H338 N326 0.984 . S
H339 N326 0.985 . S
C340 C341 1.367 . S
C340 C346 1.379 . S
C340 N348 1.356 . S
C341 C340 1.367 . S
C341 C347 1.360 1_655 S
C342 C343 1.363 1_455 S
C342 C347 1.379 . S
C342 N349 1.356 . S
C343 C342 1.363 1_655 S
C343 C346 1.363 . S
N344 C346 1.356 . S
N344 H356 0.984 . S
N344 H357 0.985 . S
N345 C347 1.356 . S
N345 H350 0.984 . S
N345 H351 0.985 . S
C346 C340 1.379 . S
C346 C343 1.363 . S
C346 N344 1.356 . S
C347 C341 1.360 1_455 S
C347 C342 1.379 . S
C347 N345 1.356 . S
N348 C340 1.356 . S
N348 H354 0.984 . S
N348 H355 0.984 . S
N349 C342 1.356 . S
N349 H352 0.984 . S
N349 H353 0.985 . S
H350 N345 0.984 . S
H351 N345 0.985 . S
H352 N349 0.984 . S
H353 N349 0.985 . S
H354 N348 0.984 . S
H355 N348 0.984 . S
H356 N344 0.984 . S
H357 N344 0.985 . S
C358 C359 1.363 1_455 S
C358 C364 1.379 . S
C358 N366 1.356 . S
C359 C358 1.363 1_655 S
C359 C365 1.363 . S
C360 C361 1.367 . S
C360 C365 1.379 . S
C360 N367 1.356 . S
C361 C360 1.367 . S
C361 C364 1.360 1_655 S
N362 C364 1.356 . S
N362 H374 0.984 . S
N362 H375 0.985 . S
N363 C365 1.356 . S
N363 H368 0.984 . S
N363 H369 0.985 . S
C364 C358 1.379 . S
C364 C361 1.360 1_455 S
C364 N362 1.356 . S
C365 C359 1.363 . S
C365 C360 1.379 . S
C365 N363 1.356 . S
N366 C358 1.356 . S
N366 H372 0.984 . S
N366 H373 0.984 . S
N367 C360 1.356 . S
N367 H370 0.984 . S
N367 H371 0.985 . S
H368 N363 0.984 . S
H369 N363 0.985 . S
H370 N367 0.984 . S
H371 N367 0.985 . S
H372 N366 0.984 . S
H373 N366 0.984 . S
H374 N362 0.984 . S
H375 N362 0.985 . S
C376 C377 1.363 . S
C376 C382 1.379 . S
C376 N384 1.356 . S
C377 C376 1.363 . S
C377 C383 1.363 . S
C378 C379 1.362 1_655 S
C378 C383 1.379 1_655 S
C378 N385 1.356 . S
C379 C378 1.362 1_455 S
C379 C382 1.365 . S
N380 C382 1.356 . S
N380 H392 0.984 . S
N380 H393 0.985 . S
N381 C383 1.356 . S
N381 H386 0.984 . S
N381 H387 0.985 1_455 S
C382 C376 1.379 . S
C382 C379 1.365 . S
C382 N380 1.356 . S
C383 C377 1.363 . S
C383 C378 1.379 1_455 S
C383 N381 1.356 . S
N384 C376 1.356 . S
N384 H390 0.984 . S
N384 H391 0.984 . S
N385 C378 1.356 . S
N385 H388 0.984 . S
N385 H389 0.985 . S
H386 N381 0.984 . S
H387 N381 0.985 1_655 S
H388 N385 0.984 . S
H389 N385 0.985 . S
H390 N384 0.984 . S
H391 N384 0.984 . S
H392 N380 0.984 . S
H393 N380 0.985 . S
C394 C395 1.363 1_655 S
C394 C400 1.379 . S
C394 N402 1.356 . S
C395 C394 1.363 1_455 S
C395 C401 1.363 . S
C396 C397 1.367 . S
C396 C401 1.379 . S
C396 N403 1.356 . S
C397 C396 1.367 . S
C397 C400 1.360 1_455 S
N398 C400 1.356 . S
N398 H410 0.984 . S
N398 H411 0.985 . S
N399 C401 1.356 . S
N399 H404 0.984 . S
N399 H405 0.985 . S
C400 C394 1.379 . S
C400 C397 1.360 1_655 S
C400 N398 1.356 . S
C401 C395 1.363 . S
C401 C396 1.379 . S
C401 N399 1.356 . S
N402 C394 1.356 . S
N402 H408 0.984 . S
N402 H409 0.984 . S
N403 C396 1.356 . S
N403 H406 0.984 . S
N403 H407 0.985 . S
H404 N399 0.984 . S
H405 N399 0.985 . S
H406 N403 0.984 . S
H407 N403 0.985 . S
H408 N402 0.984 . S
H409 N402 0.984 . S
H410 N398 0.984 . S
H411 N398 0.985 . S
C125 C11 1.799 . S
C127 C18 1.799 1_655 S
C143 C42 1.799 1_455 S
C145 C49 1.799 . S
C161 C73 1.799 . S
C163 C80 1.799 1_655 S
C179 C104 1.799 1_455 S
C181 C111 1.799 . S
C197 C41 1.655 . S
C199 C2 1.652 1_554 S
C215 C103 1.654 . S
C217 C64 1.654 . S
C233 C10 1.655 . S
C235 C33 1.652 1_554 S
C251 C95 1.654 . S
C253 C72 1.654 . S
C269 C93 1.165 . S
C271 C1 1.182 . S
C287 C31 1.165 . S
C289 C63 1.182 . S
C305 C86 1.165 . S
C307 C58 1.182 . S
C323 C24 1.165 . S
C325 C120 1.182 . S
C341 C62 1.160 1_655 S
C343 C32 1.182 . S
C359 C94 1.182 . S
C361 C0 1.160 1_655 S
C377 C27 1.182 . S
C379 C117 1.160 1_455 S
C395 C89 1.182 . S
C397 C55 1.160 1_455 S
