# Generated by pormake.
# Topology uog, (4)-cn, num edge types: 1
# Building blocks:
#     Node 0, Type 0, BuildingBlock: GALJAG_clean_sbu_0, # of connection points: 4
#     Node 1, Type 0, BuildingBlock: GALJAG_clean_sbu_0, # of connection points: 4
#     Node 2, Type 0, BuildingBlock: GALJAG_clean_sbu_0, # of connection points: 4
#     Node 3, Type 0, BuildingBlock: GALJAG_clean_sbu_0, # of connection points: 4
#     Node 4, Type 0, BuildingBlock: GALJAG_clean_sbu_0, # of connection points: 4
#     Node 5, Type 0, BuildingBlock: GALJAG_clean_sbu_0, # of connection points: 4
#     Edge 6, Type (0, 0), BuildingBlock: FUNLAD_clean_linker_1, # of connection points: 2
#     Edge 7, Type (0, 0), BuildingBlock: FUNLAD_clean_linker_1, # of connection points: 2
#     Edge 8, Type (0, 0), BuildingBlock: FUNLAD_clean_linker_1, # of connection points: 2
#     Edge 9, Type (0, 0), BuildingBlock: FUNLAD_clean_linker_1, # of connection points: 2
#     Edge 10, Type (0, 0), BuildingBlock: FUNLAD_clean_linker_1, # of connection points: 2
#     Edge 11, Type (0, 0), BuildingBlock: FUNLAD_clean_linker_1, # of connection points: 2
#     Edge 12, Type (0, 0), BuildingBlock: FUNLAD_clean_linker_1, # of connection points: 2
#     Edge 13, Type (0, 0), BuildingBlock: FUNLAD_clean_linker_1, # of connection points: 2
#     Edge 14, Type (0, 0), BuildingBlock: FUNLAD_clean_linker_1, # of connection points: 2
#     Edge 15, Type (0, 0), BuildingBlock: FUNLAD_clean_linker_1, # of connection points: 2
#     Edge 16, Type (0, 0), BuildingBlock: FUNLAD_clean_linker_1, # of connection points: 2
#     Edge 17, Type (0, 0), BuildingBlock: FUNLAD_clean_linker_1, # of connection points: 2
# Relax obj value: 0.035
# Max RMSD: 0.144
# Mean RMSD: 0.144
data_MOF--net-uog--node1-GALJAG_clean_sbu_0--edge1-FUNLAD_clean_linker_1
_symmetry_space_group_name_H-M    P1
_symmetry_Int_Tables_number       1
_symmetry_cell_setting            triclinic
loop_
_symmetry_equiv_pos_as_xyz
'x, y, z'
_cell_length_a     29.941342
_cell_length_b     29.727943
_cell_length_c     45.077611
_cell_angle_alpha  89.888005
_cell_angle_beta   90.093388
_cell_angle_gamma 119.35957
loop_
_atom_site_label
_atom_site_type_symbol
_atom_site_fract_x
_atom_site_fract_y
_atom_site_fract_z
_atom_type_partial_charge
In0 In 0.58308 0.30359 0.15828 0.0
O1 O 0.51975 0.32622 0.16402 0.0
O2 O 0.59386 0.38267 0.14877 0.0
C3 C 0.55076 0.20196 0.1642 0.0
C4 C 0.63214 0.33532 0.20991 0.0
C5 C 0.6141 0.31042 0.10227 0.0
O6 O 0.51906 0.21804 0.15968 0.0
O7 O 0.59696 0.23666 0.1661 0.0
O8 O 0.6456 0.32854 0.12354 0.0
O9 O 0.56725 0.28902 0.10933 0.0
C10 C 0.5492 0.37249 0.15586 0.0
O11 O 0.65607 0.34555 0.18554 0.0
O12 O 0.58383 0.3096 0.20805 0.0
In13 In 0.3239 0.59593 0.48783 0.0
O14 O 0.35151 0.65689 0.52444 0.0
O15 O 0.33527 0.5802 0.53521 0.0
C16 C 0.32655 0.64035 0.43582 0.0
C17 C 0.22176 0.54849 0.49434 0.0
C18 C 0.39702 0.57099 0.47665 0.0
O19 O 0.3492 0.6671 0.45846 0.0
O20 O 0.30338 0.59203 0.43964 0.0
O21 O 0.35134 0.53667 0.48235 0.0
O22 O 0.40488 0.6167 0.47594 0.0
C23 C 0.34957 0.62543 0.54409 0.0
O24 O 0.24456 0.52358 0.48748 0.0
O25 O 0.25053 0.59631 0.49832 0.0
In26 In 0.71398 0.29407 0.82515 0.0
O27 O 0.66695 0.31856 0.85368 0.0
O28 O 0.71232 0.29026 0.87494 0.0
C29 C 0.69812 0.31029 0.76875 0.0
C30 C 0.65926 0.19056 0.82609 0.0
C31 C 0.81239 0.36873 0.82908 0.0
O32 O 0.67973 0.32364 0.79004 0.0
O33 O 0.7239 0.28881 0.77605 0.0
O34 O 0.80034 0.32155 0.82729 0.0
O35 O 0.77527 0.37749 0.82919 0.0
C36 C 0.6813 0.30732 0.87765 0.0
O37 O 0.70773 0.21401 0.82799 0.0
O38 O 0.63941 0.21925 0.82344 0.0
In39 In 0.38584 0.70615 0.15499 0.0
O40 O 0.44677 0.68044 0.16036 0.0
O41 O 0.3672 0.62345 0.15833 0.0
C42 C 0.41443 0.80684 0.15161 0.0
C43 C 0.34471 0.6924 0.20882 0.0
C44 C 0.36139 0.68708 0.09789 0.0
O45 O 0.44725 0.79221 0.15655 0.0
O46 O 0.36881 0.77108 0.14829 0.0
O47 O 0.32728 0.67436 0.11775 0.0
O48 O 0.4073 0.70927 0.10701 0.0
C49 C 0.41299 0.63284 0.16067 0.0
O50 O 0.31691 0.67415 0.18592 0.0
O51 O 0.39253 0.71738 0.20426 0.0
In52 In 0.73809 0.42053 0.48865 0.0
O53 O 0.81617 0.49403 0.49294 0.0
O54 O 0.81372 0.42127 0.4889 0.0
C55 C 0.66214 0.44391 0.48747 0.0
C56 C 0.72012 0.37632 0.5421 0.0
C57 C 0.72545 0.38748 0.43266 0.0
O58 O 0.70878 0.47897 0.4881 0.0
O59 O 0.65457 0.39831 0.48783 0.0
O60 O 0.71083 0.35628 0.45428 0.0
O61 O 0.74712 0.43472 0.43948 0.0
C62 C 0.84084 0.46954 0.49178 0.0
O63 O 0.71434 0.35065 0.51867 0.0
O64 O 0.73463 0.42364 0.53835 0.0
In65 In 0.29816 0.70856 0.81746 0.0
O66 O 0.30612 0.78866 0.82433 0.0
O67 O 0.3737 0.78176 0.82032 0.0
C68 C 0.20083 0.63162 0.81671 0.0
C69 C 0.32392 0.68553 0.8697 0.0
C70 C 0.31721 0.70755 0.75982 0.0
O71 O 0.21162 0.67804 0.82118 0.0
O72 O 0.23873 0.62472 0.81263 0.0
O73 O 0.33631 0.69064 0.77905 0.0
O74 O 0.28873 0.72428 0.76976 0.0
C75 C 0.35472 0.81106 0.82394 0.0
O76 O 0.34133 0.67827 0.84565 0.0
O77 O 0.29354 0.7034 0.86701 0.0
H78 H 0.56747 0.13938 0.17381 0.0
C79 C 0.53721 0.14719 0.16667 0.0
H80 H 0.46189 0.1142 0.14982 0.0
H81 H 0.4772 0.92067 0.10113 0.0
H82 H 0.47848 0.96423 0.05533 0.0
H83 H 0.48243 0.04908 0.05616 0.0
H84 H 0.48517 0.09094 0.10279 0.0
C85 C 0.49179 0.10738 0.15873 0.0
C86 C 0.48445 0.05383 0.15849 0.0
C87 C 0.48179 0.02931 0.13106 0.0
C88 C 0.47897 0.98004 0.13058 0.0
C89 C 0.47814 0.95742 0.10282 0.0
C90 C 0.47921 0.98217 0.07634 0.0
C91 C 0.4815 0.02998 0.07681 0.0
C92 C 0.48298 0.05354 0.10375 0.0
H93 H 0.39525 0.86812 0.14323 0.0
C94 C 0.42629 0.8612 0.14991 0.0
H95 H 0.50248 0.8958 0.16555 0.0
H96 H 0.48454 0.08766 0.21491 0.0
H97 H 0.48332 0.04411 0.26071 0.0
H98 H 0.47985 0.95948 0.25987 0.0
H99 H 0.47743 0.91779 0.21322 0.0
C100 C 0.47159 0.90169 0.15733 0.0
C101 C 0.478 0.95486 0.15756 0.0
C102 C 0.48053 0.97932 0.18498 0.0
C103 C 0.48325 0.02853 0.18547 0.0
C104 C 0.48383 0.05103 0.21323 0.0
C105 C 0.48278 0.02626 0.2397 0.0
C106 C 0.48075 0.97858 0.23922 0.0
C107 C 0.47945 0.95511 0.21228 0.0
H108 H 0.47643 0.59226 0.46579 0.0
C109 C 0.43985 0.56047 0.47299 0.0
H110 H 0.40169 0.48403 0.48948 0.0
H111 H 0.59544 0.4735 0.42957 0.0
H112 H 0.53967 0.4454 0.38644 0.0
H113 H 0.45826 0.44733 0.38641 0.0
H114 H 0.43189 0.47717 0.42963 0.0
C115 C 0.43716 0.51582 0.48108 0.0
C116 C 0.48452 0.51141 0.48173 0.0
C117 C 0.49902 0.49327 0.45653 0.0
C118 C 0.54563 0.49146 0.45675 0.0
C119 C 0.55984 0.47445 0.43092 0.0
C120 C 0.52839 0.4586 0.40592 0.0
C121 C 0.48254 0.4597 0.4059 0.0
C122 C 0.46787 0.47692 0.43081 0.0
H123 H 0.58033 0.42021 0.48577 0.0
C124 C 0.61855 0.45367 0.48583 0.0
H125 H 0.66127 0.53513 0.48463 0.0
H126 H 0.46749 0.5477 0.53383 0.0
H127 H 0.52286 0.57545 0.57711 0.0
H128 H 0.60365 0.57223 0.57756 0.0
H129 H 0.62964 0.54134 0.53472 0.0
C130 C 0.62365 0.50094 0.48383 0.0
C131 C 0.5772 0.50704 0.48243 0.0
C132 C 0.56292 0.52576 0.50751 0.0
C133 C 0.51638 0.52766 0.50723 0.0
C134 C 0.50262 0.54577 0.53277 0.0
C135 C 0.53398 0.5617 0.55779 0.0
C136 C 0.57946 0.55987 0.55805 0.0
C137 C 0.59392 0.54206 0.5333 0.0
H138 H 0.87068 0.45015 0.83428 0.0
C139 C 0.8654 0.4117 0.83054 0.0
H140 H 0.90238 0.36849 0.82093 0.0
H141 H 0.09084 0.57105 0.76602 0.0
H142 H 0.05074 0.52262 0.72132 0.0
H143 H 0.96827 0.44148 0.72368 0.0
H144 H 0.92535 0.40831 0.77077 0.0
C145 C 0.90667 0.40607 0.82619 0.0
C146 C 0.95869 0.4524 0.82534 0.0
C147 C 0.98392 0.47059 0.79775 0.0
C148 C 0.03184 0.51704 0.79645 0.0
C149 C 0.05512 0.53532 0.76842 0.0
C150 C 0.03232 0.50808 0.74254 0.0
C151 C 0.98586 0.46243 0.74386 0.0
C152 C 0.96167 0.44381 0.77105 0.0
H153 H 0.14387 0.54968 0.81153 0.0
C154 C 0.14832 0.58751 0.8163 0.0
H155 H 0.11019 0.62874 0.82797 0.0
H156 H 0.9223 0.42639 0.88203 0.0
H157 H 0.96225 0.47485 0.92676 0.0
H158 H 0.04495 0.55575 0.92449 0.0
H159 H 0.08825 0.58867 0.87749 0.0
C160 C 0.10656 0.5917 0.82197 0.0
C161 C 0.05495 0.54472 0.82286 0.0
C162 C 0.02972 0.52648 0.85044 0.0
C163 C 0.98176 0.48009 0.85172 0.0
C164 C 0.95819 0.46198 0.8797 0.0
C165 C 0.98086 0.48925 0.90558 0.0
C166 C 0.02745 0.53477 0.9043 0.0
C167 C 0.05186 0.55326 0.87715 0.0
H168 H 0.14234 0.4831 0.4921 0.0
C169 C 0.16544 0.52433 0.496 0.0
H170 H 0.16561 0.5946 0.50338 0.0
H171 H 0.94981 0.51784 0.44276 0.0
H172 H 1.00626 0.57212 0.40384 0.0
H173 H 0.09988 0.60859 0.40785 0.0
H174 H 0.13752 0.59052 0.45073 0.0
C175 C 0.14263 0.55305 0.50064 0.0
C176 C 0.08614 0.53098 0.49868 0.0
C177 C 0.06479 0.54293 0.4738 0.0
C178 C 0.01085 0.52266 0.47174 0.0
C179 C 0.99052 0.53334 0.44597 0.0
C180 C 0.02251 0.56422 0.42331 0.0
C181 C 0.0752 0.58471 0.42555 0.0
C182 C 0.0963 0.57415 0.45036 0.0
H183 H 0.9189 0.5368 0.49605 0.0
C184 C 0.89725 0.4951 0.49367 0.0
H185 H 0.90006 0.42562 0.49098 0.0
H186 H 0.11508 0.50368 0.55027 0.0
H187 H 0.05885 0.45055 0.58974 0.0
H188 H 0.96535 0.41558 0.58636 0.0
H189 H 0.92751 0.43366 0.54354 0.0
C190 C 0.92181 0.46746 0.49241 0.0
C191 C 0.97849 0.4914 0.49495 0.0
C192 C 0.99998 0.47999 0.52 0.0
C193 C 0.05388 0.49992 0.52191 0.0
C194 C 0.07435 0.48888 0.54748 0.0
C195 C 0.04253 0.4586 0.57036 0.0
C196 C 0.98988 0.43892 0.56845 0.0
C197 C 0.96865 0.44944 0.54368 0.0
H198 H 0.36957 0.89146 0.82895 0.0
C199 C 0.38747 0.86745 0.82689 0.0
H200 H 0.45676 0.86526 0.82345 0.0
H201 H 0.58839 0.09017 0.77309 0.0
H202 H 0.57609 0.03959 0.72869 0.0
H203 H 0.5169 0.94566 0.72853 0.0
H204 H 0.46936 0.90185 0.77276 0.0
C205 C 0.43889 0.88916 0.82638 0.0
C206 C 0.47342 0.94599 0.82669 0.0
C207 C 0.50157 0.97092 0.80077 0.0
C208 C 0.5361 0.02499 0.80094 0.0
C209 C 0.56241 0.04908 0.77444 0.0
C210 C 0.55555 0.02052 0.74871 0.0
C211 C 0.52221 0.96765 0.74861 0.0
C212 C 0.4953 0.94296 0.77422 0.0
H213 H 0.64657 0.11053 0.82681 0.0
C214 C 0.62771 0.1338 0.82673 0.0
H215 H 0.55726 0.13409 0.82798 0.0
H216 H 0.42884 0.90949 0.88091 0.0
H217 H 0.44157 0.96002 0.92545 0.0
H218 H 0.50031 0.05406 0.9255 0.0
H219 H 0.54722 0.09806 0.88107 0.0
C220 C 0.57621 0.11092 0.82699 0.0
C221 C 0.54287 0.05391 0.82717 0.0
C222 C 0.51501 0.02894 0.85315 0.0
C223 C 0.48054 0.97482 0.853 0.0
C224 C 0.45462 0.95063 0.87957 0.0
C225 C 0.46175 0.97916 0.90536 0.0
C226 C 0.49488 0.0321 0.9054 0.0
C227 C 0.52141 0.05689 0.8797 0.0
H228 H 0.39136 0.55089 0.16079 0.0
C229 C 0.424 0.58961 0.16246 0.0
H230 H 0.50434 0.63299 0.16792 0.0
H231 H 0.50836 0.43561 0.22245 0.0
H232 H 0.52136 0.48619 0.26704 0.0
H233 H 0.51401 0.5653 0.26584 0.0
H234 H 0.49413 0.59467 0.21993 0.0
C235 C 0.47101 0.59503 0.16527 0.0
C236 C 0.47761 0.5483 0.16569 0.0
C237 C 0.48909 0.53148 0.19266 0.0
C238 C 0.49277 0.48546 0.19341 0.0
C239 C 0.50476 0.46999 0.22064 0.0
C240 C 0.5123 0.49867 0.24641 0.0
C241 C 0.5082 0.54324 0.24573 0.0
C242 C 0.49675 0.55965 0.21924 0.0
H243 H 0.56127 0.44888 0.14316 0.0
C244 C 0.53472 0.4133 0.15442 0.0
H245 H 0.46764 0.37665 0.18048 0.0
H246 H 0.45883 0.57129 0.10978 0.0
H247 H 0.44315 0.51933 0.06555 0.0
H248 H 0.44491 0.43727 0.06745 0.0
H249 H 0.46296 0.40699 0.11353 0.0
C250 C 0.49321 0.41044 0.16754 0.0
C251 C 0.48509 0.45627 0.16716 0.0
C252 C 0.47285 0.47269 0.14026 0.0
C253 C 0.47 0.51913 0.13941 0.0
C254 C 0.45986 0.53557 0.11193 0.0
C255 C 0.45107 0.50625 0.08632 0.0
C256 C 0.45222 0.46014 0.08736 0.0
C257 C 0.46294 0.44336 0.11394 0.0
H258 H 0.63456 0.3261 0.90772 0.0
C259 C 0.66198 0.31216 0.90671 0.0
H260 H 0.70257 0.28243 0.93059 0.0
H261 H 0.6402 0.39423 0.03763 0.0
H262 H 0.69647 0.47522 0.01301 0.0
H263 H 0.73559 0.47635 0.96468 0.0
H264 H 0.7179 0.39655 0.94047 0.0
C265 C 0.67663 0.2982 0.93161 0.0
C266 C 0.65417 0.29833 0.96082 0.0
C267 C 0.66639 0.34554 0.97498 0.0
C268 C 0.64574 0.34497 0.0034 0.0
C269 C 0.6565 0.39249 0.01655 0.0
C270 C 0.68847 0.43926 0.00257 0.0
C271 C 0.71035 0.43989 0.97532 0.0
C272 C 0.69963 0.39372 0.96159 0.0
H273 H 0.67183 0.33076 0.06706 0.0
C274 C 0.63103 0.31386 0.07143 0.0
H275 H 0.55646 0.27821 0.05309 0.0
H276 H 0.6211 0.20109 0.93886 0.0
H277 H 0.56633 0.12022 0.96399 0.0
H278 H 0.53334 0.11932 0.01423 0.0
H279 H 0.5547 0.19928 0.03957 0.0
C280 C 0.59741 0.29643 0.0489 0.0
C281 C 0.61486 0.29731 0.01805 0.0
C282 C 0.60192 0.25014 0.00366 0.0
C283 C 0.62152 0.25066 0.97493 0.0
C284 C 0.60783 0.20299 0.96089 0.0
C285 C 0.57629 0.15625 0.97503 0.0
C286 C 0.55769 0.15574 0.0033 0.0
C287 C 0.57024 0.20198 0.01757 0.0
H288 H 0.28321 0.65356 0.24208 0.0
C289 C 0.32342 0.6817 0.23901 0.0
H290 H 0.39436 0.73066 0.2598 0.0
H291 H 0.27876 0.71019 0.38325 0.0
H292 H 0.27633 0.78564 0.3646 0.0
H293 H 0.30173 0.81539 0.31309 0.0
H294 H 0.3292 0.76943 0.27979 0.0
C295 C 0.35408 0.70253 0.26263 0.0
C296 C 0.33635 0.6835 0.29308 0.0
C297 C 0.32119 0.71117 0.3123 0.0
C298 C 0.30763 0.69466 0.34216 0.0
C299 C 0.29093 0.72195 0.36063 0.0
C300 C 0.28903 0.76512 0.35014 0.0
C301 C 0.30326 0.78183 0.32112 0.0
C302 C 0.31905 0.75522 0.30227 0.0
H303 H 0.36046 0.70241 0.40224 0.0
C304 C 0.33007 0.6632 0.40637 0.0
H305 H 0.26911 0.59528 0.38855 0.0
H306 H 0.36385 0.62187 0.2617 0.0
H307 H 0.3669 0.54691 0.28022 0.0
H308 H 0.34446 0.5187 0.33217 0.0
H309 H 0.31897 0.56528 0.36585 0.0
C310 C 0.29912 0.63463 0.38423 0.0
C311 C 0.31046 0.65118 0.35277 0.0
C312 C 0.3248 0.62296 0.33331 0.0
C313 C 0.33784 0.63922 0.30343 0.0
C314 C 0.35313 0.61106 0.28459 0.0
C315 C 0.35518 0.56795 0.29494 0.0
C316 C 0.34254 0.55207 0.32417 0.0
C317 C 0.32773 0.57916 0.34326 0.0
H318 H 0.67239 0.34283 0.73281 0.0
C319 C 0.69208 0.32117 0.73767 0.0
H320 H 0.73393 0.28692 0.72046 0.0
H321 H 0.62102 0.31813 0.60074 0.0
H322 H 0.5414 0.25195 0.62212 0.0
H323 H 0.53986 0.21705 0.67205 0.0
H324 H 0.61785 0.24872 0.70105 0.0
C325 C 0.71273 0.30709 0.71563 0.0
C326 C 0.71363 0.32462 0.68476 0.0
C327 C 0.66791 0.30445 0.66783 0.0
C328 C 0.66912 0.32322 0.63867 0.0
C329 C 0.6226 0.30413 0.62266 0.0
C330 C 0.57656 0.2663 0.63473 0.0
C331 C 0.57566 0.24675 0.66287 0.0
C332 C 0.62068 0.26545 0.67934 0.0
H333 H 0.70251 0.31302 0.57383 0.0
C334 C 0.71213 0.35321 0.57179 0.0
H335 H 0.72947 0.42222 0.59423 0.0
H336 H 0.80828 0.3707 0.71133 0.0
H337 H 0.88839 0.43442 0.68928 0.0
H338 H 0.89098 0.46481 0.638 0.0
H339 H 0.81336 0.43194 0.6086 0.0
C340 C 0.71825 0.38157 0.59614 0.0
C341 C 0.71633 0.36086 0.6263 0.0
C342 C 0.7622 0.38016 0.64301 0.0
C343 C 0.76084 0.36207 0.67233 0.0
C344 C 0.80711 0.38258 0.68877 0.0
C345 C 0.85343 0.41927 0.67641 0.0
C346 C 0.85487 0.43644 0.64757 0.0
C347 C 0.80995 0.41729 0.63096 0.0
H348 H 0.36875 0.66471 0.90046 0.0
C349 C 0.34006 0.67696 0.89905 0.0
H350 H 0.29454 0.70132 0.92232 0.0
H351 H 0.34216 0.59374 0.03603 0.0
H352 H 0.29022 0.51209 0.01089 0.0
H353 H 0.26101 0.50985 0.95942 0.0
H354 H 0.28412 0.58922 0.93265 0.0
C355 C 0.32186 0.6873 0.92379 0.0
C356 C 0.34292 0.68764 0.95359 0.0
C357 C 0.32845 0.64083 0.96891 0.0
C358 C 0.34404 0.64209 -0.00116 0.0
C359 C 0.33014 0.59491 0.01353 0.0
C360 C 0.30057 0.54781 -0.00069 0.0
C361 C 0.28422 0.54656 0.97031 0.0
C362 C 0.29782 0.5924 0.95518 0.0
H363 H 0.30874 0.66244 0.05956 0.0
C364 C 0.34859 0.67845 0.06617 0.0
H365 H 0.4253 0.7095 0.05186 0.0
H366 H 0.38095 0.78417 0.92941 0.0
H367 H 0.43315 0.86576 0.95444 0.0
H368 H 0.45835 0.868 0.00681 0.0
H369 H 0.43175 0.78875 0.03436 0.0
C370 C 0.38522 0.69204 0.04547 0.0
C371 C 0.37298 0.69011 0.01344 0.0
C372 C 0.38929 0.7369 -0.00232 0.0
C373 C 0.37424 0.73563 0.96768 0.0
C374 C 0.39077 0.78291 0.9524 0.0
C375 C 0.42087 0.83003 0.96647 0.0
C376 C 0.43511 0.83129 -0.00408 0.0
C377 C 0.4196 0.78544 0.01147 0.0
H378 H 0.68861 0.32921 0.39749 0.0
C379 C 0.71346 0.37009 0.40177 0.0
H380 H 0.7521 0.44529 0.38377 0.0
H381 H 0.68167 0.28545 0.26699 0.0
H382 H 0.7407 0.25822 0.28557 0.0
H383 H 0.78634 0.29187 0.33295 0.0
H384 H 0.7724 0.35224 0.36228 0.0
C385 C 0.72851 0.40426 0.37938 0.0
C386 C 0.7063 0.38852 0.34928 0.0
C387 C 0.71658 0.35495 0.33191 0.0
C388 C 0.69202 0.33736 0.30402 0.0
C389 C 0.70071 0.30157 0.28783 0.0
C390 C 0.73431 0.28536 0.29832 0.0
C391 C 0.75987 0.30417 0.32504 0.0
C392 C 0.75127 0.33857 0.34174 0.0
H393 H 0.70022 0.37597 0.23863 0.0
C394 C 0.65879 0.35177 0.23851 0.0
H395 H 0.59129 0.31388 0.26418 0.0
H396 H 0.6789 0.45369 0.37695 0.0
H397 H 0.62333 0.48427 0.35724 0.0
H398 H 0.58338 0.4564 0.30791 0.0
H399 H 0.59903 0.39782 0.27801 0.0
C400 C 0.63284 0.33702 0.26415 0.0
C401 C 0.659 0.3552 0.29311 0.0
C402 C 0.64984 0.38987 0.31011 0.0
C403 C 0.6734 0.40646 0.33831 0.0
C404 C 0.66274 0.44035 0.35514 0.0
C405 C 0.63067 0.4581 0.34415 0.0
C406 C 0.6082 0.44242 0.31639 0.0
C407 C 0.61748 0.40869 0.29948 0.0
H408 H 0.30415 0.71895 0.71324 0.0
C409 C 0.32513 0.7066 0.72779 0.0
H410 H 0.37761 0.67834 0.72988 0.0
H411 H 0.26584 0.61668 0.59648 0.0
H412 H 0.19044 0.55534 0.62352 0.0
H413 H 0.19132 0.55122 0.67819 0.0
H414 H 0.26727 0.60923 0.70605 0.0
C415 C 0.35502 0.6895 0.71593 0.0
C416 C 0.35762 0.68597 0.68318 0.0
C417 C 0.31371 0.64989 0.66725 0.0
C418 C 0.31413 0.65035 0.63578 0.0
C419 C 0.26854 0.61637 0.6204 0.0
C420 C 0.22478 0.58121 0.63566 0.0
C421 C 0.2252 0.57904 0.66642 0.0
C422 C 0.269 0.61286 0.68215 0.0
H423 H 0.35756 0.60804 0.59035 0.0
C424 C 0.35876 0.6378 0.57574 0.0
H425 H 0.36285 0.71086 0.57363 0.0
H426 H 0.44812 0.75964 0.70711 0.0
H427 H 0.52464 0.81917 0.67996 0.0
H428 H 0.52656 0.81735 0.62526 0.0
H429 H 0.45177 0.7563 0.59732 0.0
C430 C 0.36173 0.68047 0.58757 0.0
C431 C 0.35956 0.68461 0.62031 0.0
C432 C 0.40358 0.72027 0.63621 0.0
C433 C 0.4026 0.72099 0.66774 0.0
C434 C 0.44692 0.75732 0.68314 0.0
C435 C 0.49106 0.79165 0.66784 0.0
C436 C 0.49214 0.79063 0.63703 0.0
C437 C 0.44903 0.7554 0.62127 0.0
loop_
_geom_bond_atom_site_label_1
_geom_bond_atom_site_label_2
_geom_bond_distance
_geom_bond_site_symmetry_2
_ccdc_geom_bond_type
In0 O1 2.294 . S
In0 O2 2.326 . S
In0 O6 2.266 . S
In0 O7 2.326 . S
In0 O8 2.266 . S
In0 O9 2.326 . S
In0 O11 2.294 . S
In0 O12 2.326 . S
O1 In0 2.294 . S
O1 C10 1.240 . S
O2 In0 2.326 . S
O2 C10 1.252 . S
C3 O6 1.252 . S
C3 O7 1.260 . S
C4 O11 1.240 . S
C4 O12 1.252 . S
C5 O8 1.252 . S
C5 O9 1.260 . S
O6 In0 2.266 . S
O6 C3 1.252 . S
O7 In0 2.326 . S
O7 C3 1.260 . S
O8 In0 2.266 . S
O8 C5 1.252 . S
O9 In0 2.326 . S
O9 C5 1.260 . S
C10 O1 1.240 . S
C10 O2 1.252 . S
O11 In0 2.294 . S
O11 C4 1.240 . S
O12 In0 2.326 . S
O12 C4 1.252 . S
In13 O14 2.294 . S
In13 O15 2.326 . S
In13 O19 2.266 . S
In13 O20 2.326 . S
In13 O21 2.266 . S
In13 O22 2.326 . S
In13 O24 2.294 . S
In13 O25 2.326 . S
O14 In13 2.294 . S
O14 C23 1.240 . S
O15 In13 2.326 . S
O15 C23 1.252 . S
C16 O19 1.252 . S
C16 O20 1.260 . S
C17 O24 1.240 . S
C17 O25 1.252 . S
C18 O21 1.252 . S
C18 O22 1.260 . S
O19 In13 2.266 . S
O19 C16 1.252 . S
O20 In13 2.326 . S
O20 C16 1.260 . S
O21 In13 2.266 . S
O21 C18 1.252 . S
O22 In13 2.326 . S
O22 C18 1.260 . S
C23 O14 1.240 . S
C23 O15 1.252 . S
O24 In13 2.294 . S
O24 C17 1.240 . S
O25 In13 2.326 . S
O25 C17 1.252 . S
In26 O27 2.294 . S
In26 O28 2.326 . S
In26 O32 2.266 . S
In26 O33 2.326 . S
In26 O34 2.266 . S
In26 O35 2.326 . S
In26 O37 2.294 . S
In26 O38 2.326 . S
O27 In26 2.294 . S
O27 C36 1.240 . S
O28 In26 2.326 . S
O28 C36 1.252 . S
C29 O32 1.252 . S
C29 O33 1.260 . S
C30 O37 1.240 . S
C30 O38 1.252 . S
C31 O34 1.252 . S
C31 O35 1.260 . S
O32 In26 2.266 . S
O32 C29 1.252 . S
O33 In26 2.326 . S
O33 C29 1.260 . S
O34 In26 2.266 . S
O34 C31 1.252 . S
O35 In26 2.326 . S
O35 C31 1.260 . S
C36 O27 1.240 . S
C36 O28 1.252 . S
O37 In26 2.294 . S
O37 C30 1.240 . S
O38 In26 2.326 . S
O38 C30 1.252 . S
In39 O40 2.294 . S
In39 O41 2.326 . S
In39 O45 2.266 . S
In39 O46 2.326 . S
In39 O47 2.266 . S
In39 O48 2.326 . S
In39 O50 2.294 . S
In39 O51 2.326 . S
O40 In39 2.294 . S
O40 C49 1.240 . S
O41 In39 2.326 . S
O41 C49 1.252 . S
C42 O45 1.252 . S
C42 O46 1.260 . S
C43 O50 1.240 . S
C43 O51 1.252 . S
C44 O47 1.252 . S
C44 O48 1.260 . S
O45 In39 2.266 . S
O45 C42 1.252 . S
O46 In39 2.326 . S
O46 C42 1.260 . S
O47 In39 2.266 . S
O47 C44 1.252 . S
O48 In39 2.326 . S
O48 C44 1.260 . S
C49 O40 1.240 . S
C49 O41 1.252 . S
O50 In39 2.294 . S
O50 C43 1.240 . S
O51 In39 2.326 . S
O51 C43 1.252 . S
In52 O53 2.294 . S
In52 O54 2.326 . S
In52 O58 2.266 . S
In52 O59 2.326 . S
In52 O60 2.266 . S
In52 O61 2.326 . S
In52 O63 2.294 . S
In52 O64 2.326 . S
O53 In52 2.294 . S
O53 C62 1.240 . S
O54 In52 2.326 . S
O54 C62 1.252 . S
C55 O58 1.252 . S
C55 O59 1.260 . S
C56 O63 1.240 . S
C56 O64 1.252 . S
C57 O60 1.252 . S
C57 O61 1.260 . S
O58 In52 2.266 . S
O58 C55 1.252 . S
O59 In52 2.326 . S
O59 C55 1.260 . S
O60 In52 2.266 . S
O60 C57 1.252 . S
O61 In52 2.326 . S
O61 C57 1.260 . S
C62 O53 1.240 . S
C62 O54 1.252 . S
O63 In52 2.294 . S
O63 C56 1.240 . S
O64 In52 2.326 . S
O64 C56 1.252 . S
In65 O66 2.294 . S
In65 O67 2.326 . S
In65 O71 2.266 . S
In65 O72 2.326 . S
In65 O73 2.266 . S
In65 O74 2.326 . S
In65 O76 2.294 . S
In65 O77 2.326 . S
O66 In65 2.294 . S
O66 C75 1.240 . S
O67 In65 2.326 . S
O67 C75 1.252 . S
C68 O71 1.252 . S
C68 O72 1.260 . S
C69 O76 1.240 . S
C69 O77 1.252 . S
C70 O73 1.252 . S
C70 O74 1.260 . S
O71 In65 2.266 . S
O71 C68 1.252 . S
O72 In65 2.326 . S
O72 C68 1.260 . S
O73 In65 2.266 . S
O73 C70 1.252 . S
O74 In65 2.326 . S
O74 C70 1.260 . S
C75 O66 1.240 . S
C75 O67 1.252 . S
O76 In65 2.294 . S
O76 C69 1.240 . S
O77 In65 2.326 . S
O77 C69 1.252 . S
H78 C79 0.951 . S
C79 H78 0.951 . S
C79 C85 1.265 . S
H80 C85 0.950 . S
H81 C89 0.949 . S
H82 C90 0.950 . S
H83 C91 0.951 . S
H84 C92 0.951 . S
C85 C79 1.265 . S
C85 H80 0.950 . S
C85 C86 1.478 . S
C86 C85 1.478 . S
C86 C87 1.397 . S
C86 C103 1.394 . S
C87 C86 1.397 . S
C87 C88 1.438 1_545 S
C87 C92 1.429 . S
C88 C87 1.438 1_565 S
C88 C89 1.428 . S
C88 C101 1.394 . S
C89 H81 0.949 . S
C89 C88 1.428 . S
C89 C90 1.345 . S
C90 H82 0.950 . S
C90 C89 1.345 . S
C90 C91 1.424 . S
C91 H83 0.951 . S
C91 C90 1.424 . S
C91 C92 1.347 1_565 S
C92 H84 0.951 . S
C92 C87 1.429 . S
C92 C91 1.347 1_545 S
H93 C94 0.951 . S
C94 H93 0.951 . S
C94 C100 1.265 . S
H95 C100 0.950 . S
H96 C104 0.949 . S
H97 C105 0.950 . S
H98 C106 0.951 . S
H99 C107 0.951 . S
C100 C94 1.265 . S
C100 H95 0.950 . S
C100 C101 1.478 . S
C101 C88 1.394 . S
C101 C100 1.478 . S
C101 C102 1.397 . S
C102 C101 1.397 . S
C102 C103 1.438 1_565 S
C102 C107 1.429 . S
C103 C86 1.394 . S
C103 C102 1.438 1_545 S
C103 C104 1.428 . S
C104 H96 0.949 . S
C104 C103 1.428 . S
C104 C105 1.345 . S
C105 H97 0.950 . S
C105 C104 1.345 . S
C105 C106 1.424 . S
C106 H98 0.951 . S
C106 C105 1.424 . S
C106 C107 1.347 1_545 S
C107 H99 0.951 . S
C107 C102 1.429 . S
C107 C106 1.347 1_565 S
H108 C109 0.951 . S
C109 H108 0.951 . S
C109 C115 1.265 . S
H110 C115 0.950 . S
H111 C119 0.949 . S
H112 C120 0.950 . S
H113 C121 0.951 . S
H114 C122 0.951 . S
C115 C109 1.265 . S
C115 H110 0.950 . S
C115 C116 1.478 . S
C116 C115 1.478 . S
C116 C117 1.397 . S
C116 C133 1.394 . S
C117 C116 1.397 . S
C117 C118 1.438 . S
C117 C122 1.429 . S
C118 C117 1.438 . S
C118 C119 1.428 . S
C118 C131 1.394 . S
C119 H111 0.949 . S
C119 C118 1.428 . S
C119 C120 1.345 . S
C120 H112 0.950 . S
C120 C119 1.345 . S
C120 C121 1.424 . S
C121 H113 0.951 . S
C121 C120 1.424 . S
C121 C122 1.347 . S
C122 H114 0.951 . S
C122 C117 1.429 . S
C122 C121 1.347 . S
H123 C124 0.951 . S
C124 H123 0.951 . S
C124 C130 1.265 . S
H125 C130 0.950 . S
H126 C134 0.949 . S
H127 C135 0.950 . S
H128 C136 0.951 . S
H129 C137 0.951 . S
C130 C124 1.265 . S
C130 H125 0.950 . S
C130 C131 1.478 . S
C131 C118 1.394 . S
C131 C130 1.478 . S
C131 C132 1.397 . S
C132 C131 1.397 . S
C132 C133 1.438 . S
C132 C137 1.429 . S
C133 C116 1.394 . S
C133 C132 1.438 . S
C133 C134 1.428 . S
C134 H126 0.949 . S
C134 C133 1.428 . S
C134 C135 1.345 . S
C135 H127 0.950 . S
C135 C134 1.345 . S
C135 C136 1.424 . S
C136 H128 0.951 . S
C136 C135 1.424 . S
C136 C137 1.347 . S
C137 H129 0.951 . S
C137 C132 1.429 . S
C137 C136 1.347 . S
H138 C139 0.951 . S
C139 H138 0.951 . S
C139 C145 1.265 . S
H140 C145 0.950 . S
H141 C149 0.949 . S
H142 C150 0.950 . S
H143 C151 0.951 . S
H144 C152 0.951 . S
C145 C139 1.265 . S
C145 H140 0.950 . S
C145 C146 1.478 . S
C146 C145 1.478 . S
C146 C147 1.397 . S
C146 C163 1.394 . S
C147 C146 1.397 . S
C147 C148 1.438 1_655 S
C147 C152 1.429 . S
C148 C147 1.438 1_455 S
C148 C149 1.428 . S
C148 C161 1.394 . S
C149 H141 0.949 . S
C149 C148 1.428 . S
C149 C150 1.345 . S
C150 H142 0.950 . S
C150 C149 1.345 . S
C150 C151 1.424 . S
C151 H143 0.951 . S
C151 C150 1.424 . S
C151 C152 1.347 1_455 S
C152 H144 0.951 . S
C152 C147 1.429 . S
C152 C151 1.347 1_655 S
H153 C154 0.951 . S
C154 H153 0.951 . S
C154 C160 1.265 . S
H155 C160 0.950 . S
H156 C164 0.949 . S
H157 C165 0.950 . S
H158 C166 0.951 . S
H159 C167 0.951 . S
C160 C154 1.265 . S
C160 H155 0.950 . S
C160 C161 1.478 . S
C161 C148 1.394 . S
C161 C160 1.478 . S
C161 C162 1.397 . S
C162 C161 1.397 . S
C162 C163 1.438 1_455 S
C162 C167 1.429 . S
C163 C146 1.394 . S
C163 C162 1.438 1_655 S
C163 C164 1.428 . S
C164 H156 0.949 . S
C164 C163 1.428 . S
C164 C165 1.345 . S
C165 H157 0.950 . S
C165 C164 1.345 . S
C165 C166 1.424 . S
C166 H158 0.951 . S
C166 C165 1.424 . S
C166 C167 1.347 1_655 S
C167 H159 0.951 . S
C167 C162 1.429 . S
C167 C166 1.347 1_455 S
H168 C169 0.951 . S
C169 H168 0.951 . S
C169 C175 1.265 . S
H170 C175 0.950 . S
H171 C179 0.949 . S
H172 C180 0.950 . S
H173 C181 0.951 . S
H174 C182 0.951 . S
C175 C169 1.265 . S
C175 H170 0.950 . S
C175 C176 1.478 . S
C176 C175 1.478 . S
C176 C177 1.397 . S
C176 C193 1.394 . S
C177 C176 1.397 . S
C177 C178 1.438 1_455 S
C177 C182 1.429 . S
C178 C177 1.438 1_655 S
C178 C179 1.428 . S
C178 C191 1.394 . S
C179 H171 0.949 . S
C179 C178 1.428 . S
C179 C180 1.345 . S
C180 H172 0.950 . S
C180 C179 1.345 . S
C180 C181 1.424 1_655 S
C181 H173 0.951 . S
C181 C180 1.424 1_455 S
C181 C182 1.347 . S
C182 H174 0.951 . S
C182 C177 1.429 . S
C182 C181 1.347 . S
H183 C184 0.951 . S
C184 H183 0.951 . S
C184 C190 1.265 . S
H185 C190 0.950 . S
H186 C194 0.949 . S
H187 C195 0.950 . S
H188 C196 0.951 . S
H189 C197 0.951 . S
C190 C184 1.265 . S
C190 H185 0.950 . S
C190 C191 1.478 . S
C191 C178 1.394 . S
C191 C190 1.478 . S
C191 C192 1.397 . S
C192 C191 1.397 . S
C192 C193 1.438 1_655 S
C192 C197 1.429 . S
C193 C176 1.394 . S
C193 C192 1.438 1_455 S
C193 C194 1.428 . S
C194 H186 0.949 . S
C194 C193 1.428 . S
C194 C195 1.345 . S
C195 H187 0.950 . S
C195 C194 1.345 . S
C195 C196 1.424 1_455 S
C196 H188 0.951 . S
C196 C195 1.424 1_655 S
C196 C197 1.347 . S
C197 H189 0.951 . S
C197 C192 1.429 . S
C197 C196 1.347 . S
H198 C199 0.951 . S
C199 H198 0.951 . S
C199 C205 1.265 . S
H200 C205 0.950 . S
H201 C209 0.949 . S
H202 C210 0.950 . S
H203 C211 0.951 . S
H204 C212 0.951 . S
C205 C199 1.265 . S
C205 H200 0.950 . S
C205 C206 1.478 . S
C206 C205 1.478 . S
C206 C207 1.397 . S
C206 C223 1.394 . S
C207 C206 1.397 . S
C207 C208 1.438 1_565 S
C207 C212 1.429 . S
C208 C207 1.438 1_545 S
C208 C209 1.428 . S
C208 C221 1.394 . S
C209 H201 0.949 . S
C209 C208 1.428 . S
C209 C210 1.345 . S
C210 H202 0.950 . S
C210 C209 1.345 . S
C210 C211 1.424 1_545 S
C211 H203 0.951 . S
C211 C210 1.424 1_565 S
C211 C212 1.347 . S
C212 H204 0.951 . S
C212 C207 1.429 . S
C212 C211 1.347 . S
H213 C214 0.951 . S
C214 H213 0.951 . S
C214 C220 1.265 . S
H215 C220 0.950 . S
H216 C224 0.949 . S
H217 C225 0.950 . S
H218 C226 0.951 . S
H219 C227 0.951 . S
C220 C214 1.265 . S
C220 H215 0.950 . S
C220 C221 1.478 . S
C221 C208 1.394 . S
C221 C220 1.478 . S
C221 C222 1.397 . S
C222 C221 1.397 . S
C222 C223 1.438 1_545 S
C222 C227 1.429 . S
C223 C206 1.394 . S
C223 C222 1.438 1_565 S
C223 C224 1.428 . S
C224 H216 0.949 . S
C224 C223 1.428 . S
C224 C225 1.345 . S
C225 H217 0.950 . S
C225 C224 1.345 . S
C225 C226 1.424 1_565 S
C226 H218 0.951 . S
C226 C225 1.424 1_545 S
C226 C227 1.347 . S
C227 H219 0.951 . S
C227 C222 1.429 . S
C227 C226 1.347 . S
H228 C229 0.951 . S
C229 H228 0.951 . S
C229 C235 1.265 . S
H230 C235 0.950 . S
H231 C239 0.949 . S
H232 C240 0.950 . S
H233 C241 0.951 . S
H234 C242 0.951 . S
C235 C229 1.265 . S
C235 H230 0.950 . S
C235 C236 1.478 . S
C236 C235 1.478 . S
C236 C237 1.397 . S
C236 C253 1.394 . S
C237 C236 1.397 . S
C237 C238 1.438 . S
C237 C242 1.429 . S
C238 C237 1.438 . S
C238 C239 1.428 . S
C238 C251 1.394 . S
C239 H231 0.949 . S
C239 C238 1.428 . S
C239 C240 1.345 . S
C240 H232 0.950 . S
C240 C239 1.345 . S
C240 C241 1.424 . S
C241 H233 0.951 . S
C241 C240 1.424 . S
C241 C242 1.347 . S
C242 H234 0.951 . S
C242 C237 1.429 . S
C242 C241 1.347 . S
H243 C244 0.951 . S
C244 H243 0.951 . S
C244 C250 1.265 . S
H245 C250 0.950 . S
H246 C254 0.949 . S
H247 C255 0.950 . S
H248 C256 0.951 . S
H249 C257 0.951 . S
C250 C244 1.265 . S
C250 H245 0.950 . S
C250 C251 1.478 . S
C251 C238 1.394 . S
C251 C250 1.478 . S
C251 C252 1.397 . S
C252 C251 1.397 . S
C252 C253 1.438 . S
C252 C257 1.429 . S
C253 C236 1.394 . S
C253 C252 1.438 . S
C253 C254 1.428 . S
C254 H246 0.949 . S
C254 C253 1.428 . S
C254 C255 1.345 . S
C255 H247 0.950 . S
C255 C254 1.345 . S
C255 C256 1.424 . S
C256 H248 0.951 . S
C256 C255 1.424 . S
C256 C257 1.347 . S
C257 H249 0.951 . S
C257 C252 1.429 . S
C257 C256 1.347 . S
H258 C259 0.951 . S
C259 H258 0.951 . S
C259 C265 1.265 . S
H260 C265 0.950 . S
H261 C269 0.949 . S
H262 C270 0.950 . S
H263 C271 0.951 . S
H264 C272 0.951 . S
C265 C259 1.265 . S
C265 H260 0.950 . S
C265 C266 1.478 . S
C266 C265 1.478 . S
C266 C267 1.397 . S
C266 C283 1.394 . S
C267 C266 1.397 . S
C267 C268 1.438 1_556 S
C267 C272 1.429 . S
C268 C267 1.438 1_554 S
C268 C269 1.428 . S
C268 C281 1.394 . S
C269 H261 0.949 . S
C269 C268 1.428 . S
C269 C270 1.345 . S
C270 H262 0.950 . S
C270 C269 1.345 . S
C270 C271 1.424 . S
C271 H263 0.951 . S
C271 C270 1.424 . S
C271 C272 1.347 1_554 S
C272 H264 0.951 . S
C272 C267 1.429 . S
C272 C271 1.347 1_556 S
H273 C274 0.951 . S
C274 H273 0.951 . S
C274 C280 1.265 . S
H275 C280 0.950 . S
H276 C284 0.949 . S
H277 C285 0.950 . S
H278 C286 0.951 . S
H279 C287 0.951 . S
C280 C274 1.265 . S
C280 H275 0.950 . S
C280 C281 1.478 . S
C281 C268 1.394 . S
C281 C280 1.478 . S
C281 C282 1.397 . S
C282 C281 1.397 . S
C282 C283 1.438 1_554 S
C282 C287 1.429 . S
C283 C266 1.394 . S
C283 C282 1.438 1_556 S
C283 C284 1.428 . S
C284 H276 0.949 . S
C284 C283 1.428 . S
C284 C285 1.345 . S
C285 H277 0.950 . S
C285 C284 1.345 . S
C285 C286 1.424 . S
C286 H278 0.951 . S
C286 C285 1.424 . S
C286 C287 1.347 1_556 S
C287 H279 0.951 . S
C287 C282 1.429 . S
C287 C286 1.347 1_554 S
H288 C289 0.951 . S
C289 H288 0.951 . S
C289 C295 1.265 . S
H290 C295 0.950 . S
H291 C299 0.949 . S
H292 C300 0.950 . S
H293 C301 0.951 . S
H294 C302 0.951 . S
C295 C289 1.265 . S
C295 H290 0.950 . S
C295 C296 1.478 . S
C296 C295 1.478 . S
C296 C297 1.397 . S
C296 C313 1.394 . S
C297 C296 1.397 . S
C297 C298 1.438 . S
C297 C302 1.429 . S
C298 C297 1.438 . S
C298 C299 1.428 . S
C298 C311 1.394 . S
C299 H291 0.949 . S
C299 C298 1.428 . S
C299 C300 1.345 . S
C300 H292 0.950 . S
C300 C299 1.345 . S
C300 C301 1.424 . S
C301 H293 0.951 . S
C301 C300 1.424 . S
C301 C302 1.347 . S
C302 H294 0.951 . S
C302 C297 1.429 . S
C302 C301 1.347 . S
H303 C304 0.951 . S
C304 H303 0.951 . S
C304 C310 1.265 . S
H305 C310 0.950 . S
H306 C314 0.949 . S
H307 C315 0.950 . S
H308 C316 0.951 . S
H309 C317 0.951 . S
C310 C304 1.265 . S
C310 H305 0.950 . S
C310 C311 1.478 . S
C311 C298 1.394 . S
C311 C310 1.478 . S
C311 C312 1.397 . S
C312 C311 1.397 . S
C312 C313 1.438 . S
C312 C317 1.429 . S
C313 C296 1.394 . S
C313 C312 1.438 . S
C313 C314 1.428 . S
C314 H306 0.949 . S
C314 C313 1.428 . S
C314 C315 1.345 . S
C315 H307 0.950 . S
C315 C314 1.345 . S
C315 C316 1.424 . S
C316 H308 0.951 . S
C316 C315 1.424 . S
C316 C317 1.347 . S
C317 H309 0.951 . S
C317 C312 1.429 . S
C317 C316 1.347 . S
H318 C319 0.951 . S
C319 H318 0.951 . S
C319 C325 1.265 . S
H320 C325 0.950 . S
H321 C329 0.949 . S
H322 C330 0.950 . S
H323 C331 0.951 . S
H324 C332 0.951 . S
C325 C319 1.265 . S
C325 H320 0.950 . S
C325 C326 1.478 . S
C326 C325 1.478 . S
C326 C327 1.397 . S
C326 C343 1.394 . S
C327 C326 1.397 . S
C327 C328 1.438 . S
C327 C332 1.429 . S
C328 C327 1.438 . S
C328 C329 1.428 . S
C328 C341 1.394 . S
C329 H321 0.949 . S
C329 C328 1.428 . S
C329 C330 1.345 . S
C330 H322 0.950 . S
C330 C329 1.345 . S
C330 C331 1.424 . S
C331 H323 0.951 . S
C331 C330 1.424 . S
C331 C332 1.347 . S
C332 H324 0.951 . S
C332 C327 1.429 . S
C332 C331 1.347 . S
H333 C334 0.951 . S
C334 H333 0.951 . S
C334 C340 1.265 . S
H335 C340 0.950 . S
H336 C344 0.949 . S
H337 C345 0.950 . S
H338 C346 0.951 . S
H339 C347 0.951 . S
C340 C334 1.265 . S
C340 H335 0.950 . S
C340 C341 1.478 . S
C341 C328 1.394 . S
C341 C340 1.478 . S
C341 C342 1.397 . S
C342 C341 1.397 . S
C342 C343 1.438 . S
C342 C347 1.429 . S
C343 C326 1.394 . S
C343 C342 1.438 . S
C343 C344 1.428 . S
C344 H336 0.949 . S
C344 C343 1.428 . S
C344 C345 1.345 . S
C345 H337 0.950 . S
C345 C344 1.345 . S
C345 C346 1.424 . S
C346 H338 0.951 . S
C346 C345 1.424 . S
C346 C347 1.347 . S
C347 H339 0.951 . S
C347 C342 1.429 . S
C347 C346 1.347 . S
H348 C349 0.951 . S
C349 H348 0.951 . S
C349 C355 1.265 . S
H350 C355 0.950 . S
H351 C359 0.949 . S
H352 C360 0.950 . S
H353 C361 0.951 . S
H354 C362 0.951 . S
C355 C349 1.265 . S
C355 H350 0.950 . S
C355 C356 1.478 . S
C356 C355 1.478 . S
C356 C357 1.397 . S
C356 C373 1.394 . S
C357 C356 1.397 . S
C357 C358 1.438 1_556 S
C357 C362 1.429 . S
C358 C357 1.438 1_554 S
C358 C359 1.428 . S
C358 C371 1.394 . S
C359 H351 0.949 . S
C359 C358 1.428 . S
C359 C360 1.345 . S
C360 H352 0.950 . S
C360 C359 1.345 . S
C360 C361 1.424 1_554 S
C361 H353 0.951 . S
C361 C360 1.424 1_556 S
C361 C362 1.347 . S
C362 H354 0.951 . S
C362 C357 1.429 . S
C362 C361 1.347 . S
H363 C364 0.951 . S
C364 H363 0.951 . S
C364 C370 1.265 . S
H365 C370 0.950 . S
H366 C374 0.949 . S
H367 C375 0.950 . S
H368 C376 0.951 . S
H369 C377 0.951 . S
C370 C364 1.265 . S
C370 H365 0.950 . S
C370 C371 1.478 . S
C371 C358 1.394 . S
C371 C370 1.478 . S
C371 C372 1.397 . S
C372 C371 1.397 . S
C372 C373 1.438 1_554 S
C372 C377 1.429 . S
C373 C356 1.394 . S
C373 C372 1.438 1_556 S
C373 C374 1.428 . S
C374 H366 0.949 . S
C374 C373 1.428 . S
C374 C375 1.345 . S
C375 H367 0.950 . S
C375 C374 1.345 . S
C375 C376 1.424 1_556 S
C376 H368 0.951 . S
C376 C375 1.424 1_554 S
C376 C377 1.347 . S
C377 H369 0.951 . S
C377 C372 1.429 . S
C377 C376 1.347 . S
H378 C379 0.951 . S
C379 H378 0.951 . S
C379 C385 1.265 . S
H380 C385 0.950 . S
H381 C389 0.949 . S
H382 C390 0.950 . S
H383 C391 0.951 . S
H384 C392 0.951 . S
C385 C379 1.265 . S
C385 H380 0.950 . S
C385 C386 1.478 . S
C386 C385 1.478 . S
C386 C387 1.397 . S
C386 C403 1.394 . S
C387 C386 1.397 . S
C387 C388 1.438 . S
C387 C392 1.429 . S
C388 C387 1.438 . S
C388 C389 1.428 . S
C388 C401 1.394 . S
C389 H381 0.949 . S
C389 C388 1.428 . S
C389 C390 1.345 . S
C390 H382 0.950 . S
C390 C389 1.345 . S
C390 C391 1.424 . S
C391 H383 0.951 . S
C391 C390 1.424 . S
C391 C392 1.347 . S
C392 H384 0.951 . S
C392 C387 1.429 . S
C392 C391 1.347 . S
H393 C394 0.951 . S
C394 H393 0.951 . S
C394 C400 1.265 . S
H395 C400 0.950 . S
H396 C404 0.949 . S
H397 C405 0.950 . S
H398 C406 0.951 . S
H399 C407 0.951 . S
C400 C394 1.265 . S
C400 H395 0.950 . S
C400 C401 1.478 . S
C401 C388 1.394 . S
C401 C400 1.478 . S
C401 C402 1.397 . S
C402 C401 1.397 . S
C402 C403 1.438 . S
C402 C407 1.429 . S
C403 C386 1.394 . S
C403 C402 1.438 . S
C403 C404 1.428 . S
C404 H396 0.949 . S
C404 C403 1.428 . S
C404 C405 1.345 . S
C405 H397 0.950 . S
C405 C404 1.345 . S
C405 C406 1.424 . S
C406 H398 0.951 . S
C406 C405 1.424 . S
C406 C407 1.347 . S
C407 H399 0.951 . S
C407 C402 1.429 . S
C407 C406 1.347 . S
H408 C409 0.951 . S
C409 H408 0.951 . S
C409 C415 1.265 . S
H410 C415 0.950 . S
H411 C419 0.949 . S
H412 C420 0.950 . S
H413 C421 0.951 . S
H414 C422 0.951 . S
C415 C409 1.265 . S
C415 H410 0.950 . S
C415 C416 1.478 . S
C416 C415 1.478 . S
C416 C417 1.397 . S
C416 C433 1.394 . S
C417 C416 1.397 . S
C417 C418 1.438 . S
C417 C422 1.429 . S
C418 C417 1.438 . S
C418 C419 1.428 . S
C418 C431 1.394 . S
C419 H411 0.949 . S
C419 C418 1.428 . S
C419 C420 1.345 . S
C420 H412 0.950 . S
C420 C419 1.345 . S
C420 C421 1.424 . S
C421 H413 0.951 . S
C421 C420 1.424 . S
C421 C422 1.347 . S
C422 H414 0.951 . S
C422 C417 1.429 . S
C422 C421 1.347 . S
H423 C424 0.951 . S
C424 H423 0.951 . S
C424 C430 1.265 . S
H425 C430 0.950 . S
H426 C434 0.949 . S
H427 C435 0.950 . S
H428 C436 0.951 . S
H429 C437 0.951 . S
C430 C424 1.265 . S
C430 H425 0.950 . S
C430 C431 1.478 . S
C431 C418 1.394 . S
C431 C430 1.478 . S
C431 C432 1.397 . S
C432 C431 1.397 . S
C432 C433 1.438 . S
C432 C437 1.429 . S
C433 C416 1.394 . S
C433 C432 1.438 . S
C433 C434 1.428 . S
C434 H426 0.949 . S
C434 C433 1.428 . S
C434 C435 1.345 . S
C435 H427 0.950 . S
C435 C434 1.345 . S
C435 C436 1.424 . S
C436 H428 0.951 . S
C436 C435 1.424 . S
C436 C437 1.347 . S
C437 H429 0.951 . S
C437 C432 1.429 . S
C437 C436 1.347 . S
C79 C3 1.368 . S
C94 C42 1.368 . S
C109 C18 1.374 . S
C124 C55 1.373 . S
C139 C31 1.368 . S
C154 C68 1.369 . S
C169 C17 1.410 . S
C184 C62 1.410 . S
C199 C75 1.410 . S
C214 C30 1.410 . S
C229 C49 1.350 . S
C244 C10 1.350 . S
C259 C36 1.348 . S
C274 C5 1.340 . S
C289 C43 1.346 . S
C304 C16 1.333 . S
C319 C29 1.343 . S
C334 C56 1.328 . S
C349 C69 1.343 . S
C364 C44 1.348 . S
C379 C57 1.330 . S
C394 C4 1.345 . S
C409 C70 1.307 . S
C424 C23 1.326 . S
