# Generated by pormake.
# Topology uow, (4)-cn, num edge types: 1
# Building blocks:
#     Node 0, Type 0, BuildingBlock: GALJAG_clean_sbu_0, # of connection points: 4
#     Node 1, Type 0, BuildingBlock: GALJAG_clean_sbu_0, # of connection points: 4
#     Node 2, Type 0, BuildingBlock: GALJAG_clean_sbu_0, # of connection points: 4
#     Node 3, Type 0, BuildingBlock: GALJAG_clean_sbu_0, # of connection points: 4
#     Node 4, Type 0, BuildingBlock: GALJAG_clean_sbu_0, # of connection points: 4
#     Node 5, Type 0, BuildingBlock: GALJAG_clean_sbu_0, # of connection points: 4
#     Node 6, Type 0, BuildingBlock: GALJAG_clean_sbu_0, # of connection points: 4
#     Node 7, Type 0, BuildingBlock: GALJAG_clean_sbu_0, # of connection points: 4
#     Node 8, Type 0, BuildingBlock: GALJAG_clean_sbu_0, # of connection points: 4
#     Node 9, Type 0, BuildingBlock: GALJAG_clean_sbu_0, # of connection points: 4
#     Node 10, Type 0, BuildingBlock: GALJAG_clean_sbu_0, # of connection points: 4
#     Node 11, Type 0, BuildingBlock: GALJAG_clean_sbu_0, # of connection points: 4
#     Node 12, Type 0, BuildingBlock: GALJAG_clean_sbu_0, # of connection points: 4
#     Node 13, Type 0, BuildingBlock: GALJAG_clean_sbu_0, # of connection points: 4
#     Node 14, Type 0, BuildingBlock: GALJAG_clean_sbu_0, # of connection points: 4
#     Node 15, Type 0, BuildingBlock: GALJAG_clean_sbu_0, # of connection points: 4
#     Node 16, Type 0, BuildingBlock: GALJAG_clean_sbu_0, # of connection points: 4
#     Node 17, Type 0, BuildingBlock: GALJAG_clean_sbu_0, # of connection points: 4
#     Node 18, Type 0, BuildingBlock: GALJAG_clean_sbu_0, # of connection points: 4
#     Node 19, Type 0, BuildingBlock: GALJAG_clean_sbu_0, # of connection points: 4
#     Node 20, Type 0, BuildingBlock: GALJAG_clean_sbu_0, # of connection points: 4
#     Node 21, Type 0, BuildingBlock: GALJAG_clean_sbu_0, # of connection points: 4
#     Node 22, Type 0, BuildingBlock: GALJAG_clean_sbu_0, # of connection points: 4
#     Node 23, Type 0, BuildingBlock: GALJAG_clean_sbu_0, # of connection points: 4
#     Node 24, Type 0, BuildingBlock: GALJAG_clean_sbu_0, # of connection points: 4
#     Node 25, Type 0, BuildingBlock: GALJAG_clean_sbu_0, # of connection points: 4
#     Node 26, Type 0, BuildingBlock: GALJAG_clean_sbu_0, # of connection points: 4
#     Node 27, Type 0, BuildingBlock: GALJAG_clean_sbu_0, # of connection points: 4
#     Node 28, Type 0, BuildingBlock: GALJAG_clean_sbu_0, # of connection points: 4
#     Node 29, Type 0, BuildingBlock: GALJAG_clean_sbu_0, # of connection points: 4
#     Node 30, Type 0, BuildingBlock: GALJAG_clean_sbu_0, # of connection points: 4
#     Node 31, Type 0, BuildingBlock: GALJAG_clean_sbu_0, # of connection points: 4
#     Edge 32, Type (0, 0), BuildingBlock: AJUNOK_clean_linker_0, # of connection points: 2
#     Edge 33, Type (0, 0), BuildingBlock: AJUNOK_clean_linker_0, # of connection points: 2
#     Edge 34, Type (0, 0), BuildingBlock: AJUNOK_clean_linker_0, # of connection points: 2
#     Edge 35, Type (0, 0), BuildingBlock: AJUNOK_clean_linker_0, # of connection points: 2
#     Edge 36, Type (0, 0), BuildingBlock: AJUNOK_clean_linker_0, # of connection points: 2
#     Edge 37, Type (0, 0), BuildingBlock: AJUNOK_clean_linker_0, # of connection points: 2
#     Edge 38, Type (0, 0), BuildingBlock: AJUNOK_clean_linker_0, # of connection points: 2
#     Edge 39, Type (0, 0), BuildingBlock: AJUNOK_clean_linker_0, # of connection points: 2
#     Edge 40, Type (0, 0), BuildingBlock: AJUNOK_clean_linker_0, # of connection points: 2
#     Edge 41, Type (0, 0), BuildingBlock: AJUNOK_clean_linker_0, # of connection points: 2
#     Edge 42, Type (0, 0), BuildingBlock: AJUNOK_clean_linker_0, # of connection points: 2
#     Edge 43, Type (0, 0), BuildingBlock: AJUNOK_clean_linker_0, # of connection points: 2
#     Edge 44, Type (0, 0), BuildingBlock: AJUNOK_clean_linker_0, # of connection points: 2
#     Edge 45, Type (0, 0), BuildingBlock: AJUNOK_clean_linker_0, # of connection points: 2
#     Edge 46, Type (0, 0), BuildingBlock: AJUNOK_clean_linker_0, # of connection points: 2
#     Edge 47, Type (0, 0), BuildingBlock: AJUNOK_clean_linker_0, # of connection points: 2
#     Edge 48, Type (0, 0), BuildingBlock: AJUNOK_clean_linker_0, # of connection points: 2
#     Edge 49, Type (0, 0), BuildingBlock: AJUNOK_clean_linker_0, # of connection points: 2
#     Edge 50, Type (0, 0), BuildingBlock: AJUNOK_clean_linker_0, # of connection points: 2
#     Edge 51, Type (0, 0), BuildingBlock: AJUNOK_clean_linker_0, # of connection points: 2
#     Edge 52, Type (0, 0), BuildingBlock: AJUNOK_clean_linker_0, # of connection points: 2
#     Edge 53, Type (0, 0), BuildingBlock: AJUNOK_clean_linker_0, # of connection points: 2
#     Edge 54, Type (0, 0), BuildingBlock: AJUNOK_clean_linker_0, # of connection points: 2
#     Edge 55, Type (0, 0), BuildingBlock: AJUNOK_clean_linker_0, # of connection points: 2
#     Edge 56, Type (0, 0), BuildingBlock: AJUNOK_clean_linker_0, # of connection points: 2
#     Edge 57, Type (0, 0), BuildingBlock: AJUNOK_clean_linker_0, # of connection points: 2
#     Edge 58, Type (0, 0), BuildingBlock: AJUNOK_clean_linker_0, # of connection points: 2
#     Edge 59, Type (0, 0), BuildingBlock: AJUNOK_clean_linker_0, # of connection points: 2
#     Edge 60, Type (0, 0), BuildingBlock: AJUNOK_clean_linker_0, # of connection points: 2
#     Edge 61, Type (0, 0), BuildingBlock: AJUNOK_clean_linker_0, # of connection points: 2
#     Edge 62, Type (0, 0), BuildingBlock: AJUNOK_clean_linker_0, # of connection points: 2
#     Edge 63, Type (0, 0), BuildingBlock: AJUNOK_clean_linker_0, # of connection points: 2
#     Edge 64, Type (0, 0), BuildingBlock: AJUNOK_clean_linker_0, # of connection points: 2
#     Edge 65, Type (0, 0), BuildingBlock: AJUNOK_clean_linker_0, # of connection points: 2
#     Edge 66, Type (0, 0), BuildingBlock: AJUNOK_clean_linker_0, # of connection points: 2
#     Edge 67, Type (0, 0), BuildingBlock: AJUNOK_clean_linker_0, # of connection points: 2
#     Edge 68, Type (0, 0), BuildingBlock: AJUNOK_clean_linker_0, # of connection points: 2
#     Edge 69, Type (0, 0), BuildingBlock: AJUNOK_clean_linker_0, # of connection points: 2
#     Edge 70, Type (0, 0), BuildingBlock: AJUNOK_clean_linker_0, # of connection points: 2
#     Edge 71, Type (0, 0), BuildingBlock: AJUNOK_clean_linker_0, # of connection points: 2
#     Edge 72, Type (0, 0), BuildingBlock: AJUNOK_clean_linker_0, # of connection points: 2
#     Edge 73, Type (0, 0), BuildingBlock: AJUNOK_clean_linker_0, # of connection points: 2
#     Edge 74, Type (0, 0), BuildingBlock: AJUNOK_clean_linker_0, # of connection points: 2
#     Edge 75, Type (0, 0), BuildingBlock: AJUNOK_clean_linker_0, # of connection points: 2
#     Edge 76, Type (0, 0), BuildingBlock: AJUNOK_clean_linker_0, # of connection points: 2
#     Edge 77, Type (0, 0), BuildingBlock: AJUNOK_clean_linker_0, # of connection points: 2
#     Edge 78, Type (0, 0), BuildingBlock: AJUNOK_clean_linker_0, # of connection points: 2
#     Edge 79, Type (0, 0), BuildingBlock: AJUNOK_clean_linker_0, # of connection points: 2
#     Edge 80, Type (0, 0), BuildingBlock: AJUNOK_clean_linker_0, # of connection points: 2
#     Edge 81, Type (0, 0), BuildingBlock: AJUNOK_clean_linker_0, # of connection points: 2
#     Edge 82, Type (0, 0), BuildingBlock: AJUNOK_clean_linker_0, # of connection points: 2
#     Edge 83, Type (0, 0), BuildingBlock: AJUNOK_clean_linker_0, # of connection points: 2
#     Edge 84, Type (0, 0), BuildingBlock: AJUNOK_clean_linker_0, # of connection points: 2
#     Edge 85, Type (0, 0), BuildingBlock: AJUNOK_clean_linker_0, # of connection points: 2
#     Edge 86, Type (0, 0), BuildingBlock: AJUNOK_clean_linker_0, # of connection points: 2
#     Edge 87, Type (0, 0), BuildingBlock: AJUNOK_clean_linker_0, # of connection points: 2
#     Edge 88, Type (0, 0), BuildingBlock: AJUNOK_clean_linker_0, # of connection points: 2
#     Edge 89, Type (0, 0), BuildingBlock: AJUNOK_clean_linker_0, # of connection points: 2
#     Edge 90, Type (0, 0), BuildingBlock: AJUNOK_clean_linker_0, # of connection points: 2
#     Edge 91, Type (0, 0), BuildingBlock: AJUNOK_clean_linker_0, # of connection points: 2
#     Edge 92, Type (0, 0), BuildingBlock: AJUNOK_clean_linker_0, # of connection points: 2
#     Edge 93, Type (0, 0), BuildingBlock: AJUNOK_clean_linker_0, # of connection points: 2
#     Edge 94, Type (0, 0), BuildingBlock: AJUNOK_clean_linker_0, # of connection points: 2
#     Edge 95, Type (0, 0), BuildingBlock: AJUNOK_clean_linker_0, # of connection points: 2
# Relax obj value: 0.042
# Max RMSD: 0.080
# Mean RMSD: 0.080
data_MOF--net-uow--node1-GALJAG_clean_sbu_0--edge1-AJUNOK_clean_linker_0
_symmetry_space_group_name_H-M    P1
_symmetry_Int_Tables_number       1
_symmetry_cell_setting            triclinic
loop_
_symmetry_equiv_pos_as_xyz
'x, y, z'
_cell_length_a     44.3252
_cell_length_b     44.343233
_cell_length_c     33.273423
_cell_angle_alpha  89.99633
_cell_angle_beta   89.974572
_cell_angle_gamma 89.833809
loop_
_atom_site_label
_atom_site_type_symbol
_atom_site_fract_x
_atom_site_fract_y
_atom_site_fract_z
_atom_type_partial_charge
In0 In 0.06099 0.37344 0.28085 0.0
O1 O 0.08337 0.42005 0.28057 0.0
O2 O 0.04011 0.41468 0.25366 0.0
C3 C 0.09421 0.33753 0.32855 0.0
C4 C 0.07607 0.35291 0.20791 0.0
C5 C 0.00914 0.37046 0.32235 0.0
O6 O 0.0933 0.36577 0.33392 0.0
O7 O 0.07938 0.32804 0.29886 0.0
O8 O 0.01142 0.3599 0.28713 0.0
O9 O 0.03286 0.38224 0.33603 0.0
C10 C 0.06155 0.4322 0.26198 0.0
O11 O 0.05115 0.34624 0.22426 0.0
O12 O 0.09321 0.36937 0.2288 0.0
In13 In 0.8662 0.79677 0.51823 0.0
O14 O 0.87575 0.78778 0.45221 0.0
O15 O 0.88503 0.83172 0.47543 0.0
C16 C 0.87057 0.74033 0.54846 0.0
C17 C 0.80843 0.81326 0.50805 0.0
C18 C 0.90651 0.82332 0.56675 0.0
O19 O 0.88573 0.74915 0.51869 0.0
O20 O 0.8518 0.75938 0.56134 0.0
O21 O 0.87847 0.82553 0.57321 0.0
O22 O 0.91365 0.80825 0.5361 0.0
C23 C 0.88511 0.81422 0.44547 0.0
O24 O 0.82377 0.82271 0.53745 0.0
O25 O 0.82196 0.79524 0.48497 0.0
In26 In 0.44348 0.62289 0.77384 0.0
O27 O 0.41722 0.57871 0.78102 0.0
O28 O 0.45468 0.58032 0.74076 0.0
C29 C 0.42315 0.66275 0.82822 0.0
C30 C 0.42516 0.64821 0.7048 0.0
C31 C 0.49771 0.61582 0.8081 0.0
O32 O 0.40968 0.63797 0.8224 0.0
O33 O 0.4457 0.66729 0.80603 0.0
O34 O 0.49437 0.62939 0.7749 0.0
O35 O 0.47374 0.60523 0.82302 0.0
C36 C 0.43384 0.56481 0.75613 0.0
O37 O 0.45252 0.64835 0.71552 0.0
O38 O 0.40734 0.63568 0.72915 0.0
In39 In 0.62744 0.18175 0.02957 0.0
O40 O 0.66893 0.1509 0.03259 0.0
O41 O 0.675 0.1981 0.02274 0.0
C42 C 0.58421 0.15152 0.0691 0.0
C43 C 0.61322 0.17249 0.95226 0.0
C44 C 0.62351 0.23344 0.07129 0.0
O45 O 0.61157 0.14992 0.07959 0.0
O46 O 0.57927 0.16725 0.0383 0.0
O47 O 0.61983 0.23278 0.03357 0.0
O48 O 0.62949 0.20827 0.08713 0.0
C49 C 0.68699 0.17246 0.02666 0.0
O50 O 0.60581 0.19644 0.97045 0.0
O51 O 0.62812 0.15381 0.97289 0.0
In52 In 0.05249 0.61959 0.21639 0.0
O53 O 0.0793 0.57546 0.21298 0.0
O54 O 0.03318 0.57424 0.23139 0.0
C55 C 0.08504 0.66079 0.17656 0.0
C56 C 0.06393 0.63473 0.29276 0.0
C57 C 0.00267 0.6248 0.171 0.0
O58 O 0.08605 0.63314 0.16726 0.0
O59 O 0.06854 0.66709 0.20624 0.0
O60 O 0.00257 0.63168 0.20797 0.0
O61 O 0.02753 0.61497 0.15796 0.0
C62 C 0.05712 0.55972 0.22441 0.0
O63 O 0.039 0.64114 0.27618 0.0
O64 O 0.08249 0.62069 0.27081 0.0
In65 In 0.62326 0.80186 0.4702 0.0
O66 O 0.60894 0.78652 0.53283 0.0
O67 O 0.59242 0.82867 0.5116 0.0
C68 C 0.62864 0.7468 0.43649 0.0
C69 C 0.68048 0.81963 0.48411 0.0
C70 C 0.58821 0.82858 0.41456 0.0
O71 O 0.61062 0.75202 0.46513 0.0
O72 O 0.64485 0.76892 0.42665 0.0
O73 O 0.60626 0.84363 0.43602 0.0
O74 O 0.58766 0.80072 0.42182 0.0
C75 C 0.59328 0.80976 0.53988 0.0
O76 O 0.6668 0.82576 0.4519 0.0
O77 O 0.66501 0.80543 0.50952 0.0
In78 In 0.43676 0.37744 0.71274 0.0
O79 O 0.40972 0.42146 0.70824 0.0
O80 O 0.4537 0.42202 0.7347 0.0
C81 C 0.41463 0.33631 0.66197 0.0
C82 C 0.42052 0.35742 0.78577 0.0
C83 C 0.48825 0.37991 0.67108 0.0
O84 O 0.40254 0.36214 0.66501 0.0
O85 O 0.43602 0.33111 0.68595 0.0
O86 O 0.48741 0.36946 0.70658 0.0
O87 O 0.46348 0.39013 0.65803 0.0
C88 C 0.43047 0.43668 0.72468 0.0
O89 O 0.44739 0.35515 0.77324 0.0
O90 O 0.40221 0.36893 0.76112 0.0
In91 In 0.87027 0.18974 0.97079 0.0
O92 O 0.89127 0.20547 0.02945 0.0
O93 O 0.89595 0.15916 0.01367 0.0
C94 C 0.8591 0.24203 0.93319 0.0
C95 C 0.81431 0.17495 0.99444 0.0
C96 C 0.90776 0.16849 0.91428 0.0
O97 O 0.8747 0.2405 0.96495 0.0
O98 O 0.84858 0.2172 0.92109 0.0
O99 O 0.88569 0.153 0.92679 0.0
O100 O 0.91114 0.19369 0.93122 0.0
C101 C 0.90102 0.17969 0.039 0.0
O102 O 0.8276 0.16038 0.9669 0.0
O103 O 0.82944 0.19613 0.00938 0.0
In104 In 0.93695 0.61951 0.72049 0.0
O105 O 0.9518 0.64043 0.77974 0.0
O106 O 0.90577 0.6451 0.76323 0.0
C107 C 0.9899 0.61416 0.68183 0.0
C108 C 0.92652 0.56228 0.74331 0.0
C109 C 0.91067 0.65195 0.66227 0.0
O110 O 0.98676 0.63039 0.71282 0.0
O111 O 0.96647 0.60018 0.67105 0.0
O112 O 0.89743 0.62961 0.67795 0.0
O113 O 0.93608 0.65828 0.67698 0.0
C114 C 0.92591 0.6499 0.78914 0.0
O115 O 0.90935 0.57577 0.71888 0.0
O116 O 0.94843 0.57769 0.75566 0.0
In117 In 0.13044 0.18542 0.4692 0.0
O118 O 0.10603 0.19448 0.52837 0.0
O119 O 0.12413 0.15053 0.51768 0.0
C120 C 0.12888 0.23958 0.43202 0.0
C121 C 0.18909 0.17654 0.48448 0.0
C122 C 0.09303 0.1545 0.42096 0.0
O123 O 0.11754 0.23572 0.46649 0.0
O124 O 0.14135 0.21652 0.41743 0.0
O125 O 0.12124 0.1541 0.41592 0.0
O126 O 0.08399 0.16982 0.45052 0.0
C127 C 0.1103 0.16798 0.54143 0.0
O128 O 0.17518 0.16149 0.45815 0.0
O129 O 0.17352 0.19616 0.50253 0.0
In130 In 0.5556 0.37198 0.21683 0.0
O131 O 0.58152 0.41647 0.21423 0.0
O132 O 0.53694 0.41634 0.23833 0.0
C133 C 0.58758 0.33279 0.17242 0.0
C134 C 0.5695 0.3528 0.29106 0.0
C135 C 0.50435 0.36908 0.17388 0.0
O136 O 0.58889 0.36088 0.16606 0.0
O137 O 0.57101 0.32504 0.2014 0.0
O138 O 0.50532 0.36108 0.21039 0.0
O139 O 0.52897 0.37861 0.15982 0.0
C140 C 0.56022 0.43139 0.23 0.0
O141 O 0.54404 0.34752 0.27534 0.0
O142 O 0.58741 0.36775 0.26934 0.0
In143 In 0.36602 0.81458 0.96053 0.0
O144 O 0.39235 0.80151 0.01715 0.0
O145 O 0.36466 0.84063 0.01919 0.0
C146 C 0.38391 0.76131 0.92949 0.0
C147 C 0.30599 0.81579 0.96972 0.0
C148 C 0.39144 0.85206 0.90608 0.0
O149 O 0.40137 0.77835 0.94897 0.0
O150 O 0.35712 0.77078 0.92673 0.0
O151 O 0.37007 0.83459 0.89742 0.0
O152 O 0.39868 0.85186 0.94267 0.0
C153 C 0.38234 0.82323 0.03771 0.0
O154 O 0.32048 0.83883 0.9586 0.0
O155 O 0.32179 0.79252 0.97574 0.0
In156 In 0.92456 0.37512 0.78725 0.0
O157 O 0.89797 0.4193 0.78648 0.0
O158 O 0.94583 0.42112 0.78148 0.0
C159 C 0.88622 0.3401 0.82894 0.0
C160 C 0.91676 0.36055 0.70959 0.0
C161 C 0.97582 0.36444 0.82842 0.0
O162 O 0.89108 0.36721 0.83834 0.0
O163 O 0.89958 0.33131 0.79761 0.0
O164 O 0.97482 0.3628 0.79049 0.0
O165 O 0.95121 0.37158 0.84492 0.0
C166 C 0.92119 0.43539 0.78211 0.0
O167 O 0.93702 0.34822 0.73075 0.0
O168 O 0.90067 0.37961 0.72782 0.0
In169 In 0.37544 0.18044 0.53048 0.0
O170 O 0.399 0.19045 0.47079 0.0
O171 O 0.37889 0.14727 0.47943 0.0
C172 C 0.38647 0.23705 0.55686 0.0
C173 C 0.31621 0.17314 0.51841 0.0
C174 C 0.4053 0.14503 0.58357 0.0
O175 O 0.40632 0.22095 0.54007 0.0
O176 O 0.36082 0.22503 0.55871 0.0
O177 O 0.38345 0.16153 0.59392 0.0
O178 O 0.41122 0.14576 0.54663 0.0
C179 C 0.39284 0.16484 0.45611 0.0
O180 O 0.32923 0.16205 0.54882 0.0
O181 O 0.33279 0.18821 0.49521 0.0
In182 In 0.5578 0.61846 0.28206 0.0
O183 O 0.54591 0.64557 0.22573 0.0
O184 O 0.58672 0.62001 0.22626 0.0
C185 C 0.50463 0.62453 0.32076 0.0
C186 C 0.56134 0.55904 0.26728 0.0
C187 C 0.59377 0.65179 0.33002 0.0
O188 O 0.50923 0.63623 0.28665 0.0
O189 O 0.52677 0.61011 0.33479 0.0
O190 O 0.58718 0.62485 0.33827 0.0
O191 O 0.58281 0.66146 0.29759 0.0
C192 C 0.56938 0.63739 0.20694 0.0
O193 O 0.58347 0.57362 0.28115 0.0
O194 O 0.53775 0.57441 0.26157 0.0
In195 In 0.12043 0.81235 0.03173 0.0
O196 O 0.09894 0.79572 0.97378 0.0
O197 O 0.10449 0.84319 0.98178 0.0
C198 C 0.11558 0.76207 0.07638 0.0
C199 C 0.17887 0.81535 0.0102 0.0
C200 C 0.08705 0.84793 0.07945 0.0
O201 O 0.1037 0.76428 0.04199 0.0
O202 O 0.12983 0.78507 0.08782 0.0
O203 O 0.11527 0.84557 0.08424 0.0
O204 O 0.07621 0.83276 0.0509 0.0
C205 C 0.09536 0.82196 0.95968 0.0
O206 O 0.16555 0.83759 0.02612 0.0
O207 O 0.1627 0.79234 0.00579 0.0
In208 In 0.54378 0.87137 0.77008 0.0
O209 O 0.56734 0.9143 0.79214 0.0
O210 O 0.55363 0.91225 0.73115 0.0
C211 C 0.56557 0.83112 0.8237 0.0
C212 C 0.55308 0.84476 0.69846 0.0
C213 C 0.48786 0.88074 0.79961 0.0
O214 O 0.5817 0.85207 0.80956 0.0
O215 O 0.53899 0.83045 0.81036 0.0
O216 O 0.49292 0.86346 0.77019 0.0
O217 O 0.51087 0.89409 0.81285 0.0
C218 C 0.56572 0.9275 0.7586 0.0
O219 O 0.52912 0.85897 0.70669 0.0
O220 O 0.57199 0.84332 0.72679 0.0
In221 In 0.36742 0.3078 0.02168 0.0
O222 O 0.39186 0.2975 0.96271 0.0
O223 O 0.36996 0.34014 0.96963 0.0
C224 C 0.37029 0.25614 0.06368 0.0
C225 C 0.30793 0.31087 0.00825 0.0
C226 C 0.4062 0.33889 0.06762 0.0
O227 O 0.37958 0.25775 0.02773 0.0
O228 O 0.35961 0.28036 0.07763 0.0
O229 O 0.37802 0.3402 0.07351 0.0
O230 O 0.41425 0.32311 0.03797 0.0
C231 C 0.38504 0.32272 0.94724 0.0
O232 O 0.32197 0.33244 0.02467 0.0
O233 O 0.32394 0.28827 -0.00066 0.0
In234 In 0.94467 0.12387 0.27361 0.0
O235 O 0.91388 0.08369 0.28703 0.0
O236 O 0.94607 0.07964 0.23994 0.0
C237 C 0.91736 0.16568 0.31927 0.0
C238 C 0.9361 0.14572 0.19949 0.0
C239 C -0.00233 0.12084 0.31339 0.0
O240 O 0.91171 0.13792 0.32316 0.0
O241 O 0.93624 0.17211 0.29226 0.0
O242 O 0.99502 0.13428 0.28019 0.0
O243 O 0.974 0.10817 0.32549 0.0
C244 C 0.92521 0.06748 0.25973 0.0
O245 O 0.96101 0.13448 0.21045 0.0
O246 O 0.9157 0.14619 0.22602 0.0
In247 In 0.12117 0.67934 0.52835 0.0
O248 O 0.09364 0.69099 0.47248 0.0
O249 O 0.11786 0.64936 0.47387 0.0
C250 C 0.11517 0.73022 0.57162 0.0
C251 C 0.18063 0.67806 0.51303 0.0
C252 C 0.08609 0.64407 0.57437 0.0
O253 O 0.10725 0.72888 0.53513 0.0
O254 O 0.1261 0.70613 0.58559 0.0
O255 O 0.11415 0.64626 0.58045 0.0
O256 O 0.07634 0.65862 0.54454 0.0
C257 C 0.1006 0.66679 0.45451 0.0
O258 O 0.16707 0.65548 0.52754 0.0
O259 O 0.16423 0.70087 0.50696 0.0
In260 In 0.55763 0.11428 0.72188 0.0
O261 O 0.54774 0.13654 0.78194 0.0
O262 O 0.59323 0.1238 0.7688 0.0
C263 C 0.50295 0.111 0.6868 0.0
C264 C 0.57018 0.0558 0.73456 0.0
C265 C 0.58208 0.15784 0.67615 0.0
O266 O 0.5065 0.12218 0.7214 0.0
O267 O 0.52675 0.101 0.6709 0.0
O268 O 0.58928 0.13044 0.67134 0.0
O269 O 0.56308 0.1627 0.70353 0.0
C270 C 0.57497 0.13574 0.79335 0.0
O271 O 0.58282 0.07061 0.70677 0.0
O272 O 0.55158 0.07054 0.75556 0.0
In273 In 0.1197 0.29842 0.97051 0.0
O274 O 0.09976 0.28839 0.03246 0.0
O275 O 0.11817 0.33198 0.0212 0.0
C276 C 0.11827 0.24456 0.93363 0.0
C277 C 0.17934 0.30571 0.97843 0.0
C278 C 0.07739 0.32654 0.92603 0.0
O279 O 0.1082 0.24814 0.96893 0.0
O280 O 0.12891 0.26805 0.91765 0.0
O281 O 0.10518 0.32883 0.918 0.0
O282 O 0.07145 0.31097 0.95668 0.0
C283 C 0.1058 0.31437 0.04596 0.0
O284 O 0.16288 0.3262 0.96343 0.0
O285 O 0.16568 0.28197 0.98853 0.0
In286 In 0.93751 0.88347 0.21932 0.0
O287 O 0.9111 0.9262 0.20339 0.0
O288 O 0.93787 0.92603 0.25655 0.0
C289 C 0.91297 0.84243 0.17029 0.0
C290 C 0.92214 0.85927 0.29003 0.0
C291 C 0.99208 0.88697 0.18341 0.0
O292 O 0.90537 0.86991 0.16867 0.0
O293 O 0.93229 0.83595 0.19672 0.0
O294 O 0.98824 0.8729 0.21599 0.0
O295 O 0.96887 0.90023 0.17061 0.0
C296 C 0.9202 0.94043 0.23392 0.0
O297 O 0.9487 0.86821 0.28283 0.0
O298 O 0.90349 0.86279 0.26171 0.0
In299 In 0.36838 0.69131 0.46903 0.0
O300 O 0.39377 0.70527 0.52574 0.0
O301 O 0.36828 0.66467 0.52697 0.0
C302 C 0.38001 0.7461 0.43832 0.0
C303 C 0.30856 0.68484 0.47801 0.0
C304 C 0.40186 0.65667 0.41873 0.0
O305 O 0.39685 0.73365 0.46406 0.0
O306 O 0.3567 0.73134 0.42928 0.0
O307 O 0.38029 0.67275 0.40647 0.0
O308 O 0.40518 0.65675 0.45625 0.0
C309 C 0.38533 0.68256 0.54564 0.0
O310 O 0.32479 0.66412 0.46325 0.0
O311 O 0.32249 0.70863 0.48717 0.0
In312 In 0.43148 0.11877 0.21381 0.0
O313 O 0.44415 0.14139 0.27313 0.0
O314 O 0.40153 0.11944 0.2685 0.0
C315 C 0.48159 0.12428 0.16946 0.0
C316 C 0.43058 0.05885 0.22183 0.0
C317 C 0.39854 0.15736 0.16978 0.0
O318 O 0.48116 0.13163 0.20626 0.0
O319 O 0.45706 0.11417 0.15597 0.0
O320 O 0.39812 0.12928 0.16324 0.0
O321 O 0.41407 0.16543 0.19961 0.0
C322 C 0.41977 0.13392 0.29026 0.0
O323 O 0.40706 0.07335 0.21207 0.0
O324 O 0.45377 0.07461 0.22771 0.0
In325 In 0.6192 0.68347 0.9683 0.0
O326 O 0.5941 0.69533 0.02634 0.0
O327 O 0.61585 0.65256 0.02202 0.0
C328 C 0.60458 0.7359 0.9317 0.0
C329 C 0.67842 0.68394 0.98492 0.0
C330 C 0.59302 0.64539 0.91565 0.0
O331 O 0.58666 0.72243 0.9551 0.0
O332 O 0.62996 0.72338 0.92791 0.0
O333 O 0.61727 0.65893 0.90768 0.0
O334 O 0.5832 0.64987 0.95063 0.0
C335 C 0.60042 0.67052 0.04316 0.0
O336 O 0.66641 0.66259 0.96551 0.0
O337 O 0.66053 0.70471 0.99524 0.0
In338 In 0.0503 0.86711 0.72165 0.0
O339 O 0.0331 0.85587 0.78458 0.0
O340 O 0.08031 0.85192 0.77262 0.0
C341 C 0.00148 0.85948 0.67542 0.0
C342 C 0.05579 0.92703 0.7299 0.0
C343 C 0.08213 0.82805 0.67722 0.0
O344 O 0.00201 0.85039 0.7115 0.0
O345 O 0.02492 0.87299 0.66392 0.0
O346 O 0.08416 0.85624 0.6718 0.0
O347 O 0.06531 0.82006 0.70589 0.0
C348 C 0.05912 0.84952 0.7977 0.0
O349 O 0.07854 0.91057 0.72294 0.0
O350 O 0.03115 0.91318 0.73285 0.0
In351 In 0.87153 0.31026 0.47155 0.0
O352 O 0.89382 0.3003 0.53197 0.0
O353 O 0.87587 0.34429 0.5211 0.0
C354 C 0.87863 0.26096 0.42607 0.0
C355 C 0.81207 0.31041 0.48585 0.0
C356 C 0.90968 0.34259 0.4268 0.0
O357 O 0.88732 0.2615 0.46235 0.0
O358 O 0.86551 0.28457 0.41409 0.0
O359 O 0.88149 0.34352 0.42067 0.0
O360 O 0.91796 0.32668 0.45624 0.0
C361 C 0.8891 0.32671 0.54525 0.0
O362 O 0.82491 0.33236 0.46855 0.0
O363 O 0.82928 0.28879 0.4951 0.0
In364 In 0.44195 0.87195 0.27019 0.0
O365 O 0.4489 0.84935 0.20913 0.0
O366 O 0.40423 0.86064 0.22696 0.0
C367 C 0.49674 0.86906 0.30417 0.0
C368 C 0.43737 0.93084 0.25369 0.0
C369 C 0.41705 0.83745 0.32703 0.0
O370 O 0.48998 0.8542 0.27299 0.0
O371 O 0.47626 0.88651 0.31684 0.0
O372 O 0.40744 0.86389 0.32056 0.0
O373 O 0.43767 0.82844 0.30392 0.0
C374 C 0.42123 0.84995 0.2001 0.0
O375 O 0.4192 0.91787 0.27733 0.0
O376 O 0.45767 0.91409 0.23917 0.0
In377 In 0.86717 0.69516 0.02254 0.0
O378 O 0.88064 0.71173 0.95985 0.0
O379 O 0.88252 0.66456 0.97233 0.0
C380 C 0.87603 0.7453 0.06592 0.0
C381 C 0.80706 0.68904 0.0152 0.0
C382 C 0.90589 0.66244 0.06652 0.0
O383 O 0.88199 0.74434 0.02875 0.0
O384 O 0.8654 0.72133 0.08044 0.0
O385 O 0.87782 0.66203 0.07352 0.0
O386 O 0.91389 0.67877 0.03738 0.0
C387 C 0.88688 0.68552 0.94742 0.0
O388 O 0.82395 0.66654 0.02138 0.0
O389 O 0.82054 0.71387 0.01253 0.0
In390 In 0.05668 0.11504 0.77583 0.0
O391 O 0.04777 0.13947 0.71659 0.0
O392 O 0.08965 0.11633 0.72419 0.0
C393 C 0.00238 0.12922 0.80705 0.0
C394 C 0.05751 0.05556 0.76113 0.0
C395 C 0.09098 0.14513 0.82942 0.0
O396 O 0.01512 0.1453 0.78075 0.0
O397 O 0.01651 0.10551 0.81625 0.0
O398 O 0.07819 0.12065 0.83821 0.0
O399 O 0.08796 0.15306 0.79335 0.0
C400 C 0.07288 0.13187 0.70151 0.0
O401 O 0.07819 0.06818 0.78118 0.0
O402 O 0.03671 0.07296 0.74954 0.0
In403 In 0.62359 0.30727 0.52795 0.0
O404 O 0.66868 0.3322 0.52965 0.0
O405 O 0.66841 0.28558 0.51408 0.0
C406 C 0.58608 0.34396 0.56846 0.0
C407 C 0.6065 0.3177 0.45181 0.0
C408 C 0.61528 0.25799 0.57362 0.0
O409 O 0.61376 0.34209 0.57726 0.0
O410 O 0.57795 0.32813 0.53898 0.0
O411 O 0.61102 0.25741 0.53601 0.0
O412 O 0.62412 0.28296 0.58725 0.0
C413 C 0.68372 0.30914 0.5196 0.0
O414 O 0.59814 0.29439 0.47069 0.0
O415 O 0.62361 0.3351 0.47126 0.0
C416 C 0.06888 0.31889 0.14869 0.0
C417 C 0.08443 0.34283 0.16706 0.0
C418 C 0.07629 0.30931 0.10971 0.0
C419 C 0.09908 0.32375 0.08757 0.0
H420 H 0.05092 0.3074 0.16454 0.0
H421 H 0.0637 0.29087 0.09656 0.0
S422 S 0.14691 0.38719 0.12225 0.0
N423 N 0.1241 0.38034 0.16037 0.0
N424 N 0.13764 0.36267 0.08709 0.0
C425 C 0.1149 0.34759 0.10568 0.0
C426 C 0.10767 0.35704 0.14545 0.0
C427 C 0.92763 0.8561 0.3644 0.0
C428 C 0.91324 0.84643 0.32907 0.0
C429 C 0.91833 0.84552 0.40208 0.0
C430 C 0.89498 0.82429 0.40548 0.0
H431 H 0.94563 0.87253 0.36301 0.0
H432 H 0.92958 0.85391 0.42873 0.0
S433 S 0.85081 0.79118 0.32197 0.0
N434 N 0.87473 0.81429 0.29972 0.0
N435 N 0.85798 0.79363 0.37057 0.0
C436 C 0.88092 0.8139 0.37036 0.0
C437 C 0.88986 0.82521 0.33209 0.0
C438 C 0.38731 0.64901 0.64983 0.0
C439 C 0.41481 0.6595 0.66545 0.0
C440 C 0.37778 0.65711 0.61129 0.0
C441 C 0.39511 0.67647 0.58719 0.0
H442 H 0.37339 0.63363 0.667 0.0
H443 H 0.35678 0.64786 0.60016 0.0
S444 S 0.46793 0.71175 0.61501 0.0
N445 N 0.45875 0.6912 0.65455 0.0
N446 N 0.44043 0.70703 0.58214 0.0
C447 C 0.42212 0.68807 0.60291 0.0
C448 C 0.4321 0.67939 0.64203 0.0
C449 C 0.61163 0.13573 0.8499 0.0
C450 C 0.58483 0.14696 0.83293 0.0
C451 C 0.62089 0.14465 0.88826 0.0
C452 C 0.60405 0.16564 0.91069 0.0
H453 H 0.62518 0.11927 0.8339 0.0
H454 H 0.64131 0.13484 0.90056 0.0
S455 S 0.53306 0.20308 0.8789 0.0
N456 N 0.54201 0.18089 0.84082 0.0
N457 N 0.55986 0.19822 0.91277 0.0
C458 C 0.57772 0.17783 0.8936 0.0
C459 C 0.56797 0.1683 0.85476 0.0
C460 C 0.09562 0.62809 0.35361 0.0
C461 C 0.07158 0.64303 0.33448 0.0
C462 C 0.1045 0.63586 0.3925 0.0
C463 C 0.08998 0.65917 0.41369 0.0
H464 H 0.10776 0.61017 0.33843 0.0
H465 H 0.12321 0.62368 0.40582 0.0
S466 S 0.02553 0.70521 0.37724 0.0
N467 N 0.03303 0.68198 0.33972 0.0
N468 N 0.05007 0.69695 0.41297 0.0
C469 C 0.06579 0.67429 0.39508 0.0
C470 C 0.05646 0.66608 0.35546 0.0
C471 C 0.59235 0.80279 0.6142 0.0
C472 C 0.57974 0.81592 0.57959 0.0
C473 C 0.58284 0.81152 0.65265 0.0
C474 C 0.55995 0.83322 0.65781 0.0
H475 H 0.61068 0.78669 0.61167 0.0
H476 H 0.594 0.80172 0.67853 0.0
S477 S 0.51768 0.87215 0.57662 0.0
N478 N 0.54194 0.85024 0.55272 0.0
N479 N 0.52352 0.86616 0.62498 0.0
C480 C 0.54601 0.84528 0.62339 0.0
C481 C 0.55607 0.83678 0.58426 0.0
C482 C 0.41862 0.31782 0.88698 0.0
C483 C 0.39364 0.33137 0.90593 0.0
C484 C 0.42746 0.3265 0.84814 0.0
C485 C 0.41117 0.34849 0.82667 0.0
H486 H 0.4317 0.30074 0.9025 0.0
H487 H 0.44697 0.31572 0.83469 0.0
S488 S 0.3438 0.39045 0.8627 0.0
N489 N 0.35274 0.36782 0.90026 0.0
N490 N 0.36892 0.38363 0.82721 0.0
C491 C 0.38597 0.36194 0.84516 0.0
C492 C 0.37732 0.35352 0.88483 0.0
C493 C 0.90268 0.18907 0.11254 0.0
C494 C 0.9136 0.17316 0.07898 0.0
C495 C 0.91064 0.18041 0.15158 0.0
C496 C 0.93047 0.15617 0.15823 0.0
H497 H 0.88671 0.20738 0.10872 0.0
H498 H 0.90085 0.19249 0.17676 0.0
S499 S 0.96708 0.10877 0.08036 0.0
N500 N 0.94614 0.1329 0.05471 0.0
N501 N 0.9621 0.11735 0.12823 0.0
C502 C 0.94276 0.14105 0.12491 0.0
C503 C 0.93402 0.14936 0.08519 0.0
C504 C 0.89441 0.68211 0.83437 0.0
C505 C 0.91879 0.66206 0.82927 0.0
C506 C 0.88505 0.69106 0.87288 0.0
C507 C 0.89919 0.67939 0.90729 0.0
H508 H 0.88217 0.69048 0.80847 0.0
H509 H 0.8658 0.70601 0.87579 0.0
S510 S 0.96462 0.62728 0.91032 0.0
N511 N 0.95777 0.6321 0.86195 0.0
N512 N 0.93931 0.64798 0.93421 0.0
C513 C 0.92396 0.65996 0.90262 0.0
C514 C 0.93402 0.65154 0.86356 0.0
C515 C 0.07856 0.17463 0.60304 0.0
C516 C 0.10058 0.15816 0.58184 0.0
C517 C 0.06926 0.16571 0.64155 0.0
C518 C 0.08213 0.14039 0.66044 0.0
H519 H 0.0683 0.19446 0.58973 0.0
H520 H 0.05227 0.17903 0.65689 0.0
S521 S 0.14047 0.08948 0.61764 0.0
N522 N 0.13471 0.11506 0.58242 0.0
N523 N 0.11764 0.09868 0.6549 0.0
C524 C 0.10413 0.12373 0.63955 0.0
C525 C 0.11325 0.13251 0.6002 0.0
C526 C 0.61289 0.34672 0.38853 0.0
C527 C 0.59678 0.32497 0.41045 0.0
C528 C 0.60388 0.35527 0.34994 0.0
C529 C 0.57815 0.34273 0.33183 0.0
H530 H 0.6327 0.3573 0.40126 0.0
H531 H 0.61709 0.37217 0.3344 0.0
S532 S 0.5281 0.28475 0.37646 0.0
N533 N 0.55398 0.29076 0.41122 0.0
N534 N 0.53674 0.3072 0.33856 0.0
C535 C 0.56179 0.32088 0.3533 0.0
C536 C 0.57122 0.31186 0.39261 0.0
C537 C 0.42832 0.82444 0.1337 0.0
C538 C 0.4099 0.84119 0.16 0.0
C539 C 0.41887 0.81787 0.09444 0.0
C540 C 0.39096 0.82837 0.07996 0.0
H541 H 0.45035 0.81664 0.14332 0.0
H542 H 0.4339 0.80528 0.07496 0.0
S543 S 0.33368 0.87174 0.13731 0.0
N544 N 0.36175 0.86685 0.16926 0.0
N545 N 0.34438 0.85502 0.09533 0.0
C546 C 0.37207 0.84455 0.10616 0.0
C547 C 0.38142 0.8508 0.14626 0.0
C548 C 0.92056 0.32491 0.65147 0.0
C549 C 0.91146 0.35298 0.667 0.0
C550 C 0.91356 0.31662 0.61185 0.0
C551 C 0.89755 0.3363 0.58633 0.0
H552 H 0.93244 0.3089 0.67035 0.0
H553 H 0.92044 0.29453 0.60134 0.0
S554 S 0.87096 0.41353 0.61188 0.0
N555 N 0.88717 0.40112 0.65335 0.0
N556 N 0.8743 0.38586 0.57901 0.0
C557 C 0.88926 0.36487 0.60123 0.0
C558 C 0.89614 0.37313 0.64155 0.0
C559 C 0.42926 0.16391 0.35278 0.0
C560 C 0.41297 0.14129 0.33266 0.0
C561 C 0.42262 0.17156 0.39276 0.0
C562 C 0.39988 0.15642 0.41418 0.0
H563 H 0.44698 0.17609 0.33738 0.0
H564 H 0.4355 0.18929 0.40706 0.0
S565 S 0.3508 0.09531 0.3753 0.0
N566 N 0.37308 0.10383 0.33724 0.0
N567 N 0.36096 0.11786 0.4123 0.0
C568 C 0.38363 0.13357 0.39451 0.0
C569 C 0.39008 0.1261 0.35375 0.0
C570 C 0.59823 0.63057 0.14351 0.0
C571 C 0.57624 0.64664 0.16524 0.0
C572 C 0.60556 0.63842 0.10404 0.0
C573 C 0.5915 0.66293 0.08477 0.0
H574 H 0.60983 0.61155 0.15697 0.0
H575 H 0.62267 0.62527 0.08867 0.0
S576 S 0.53243 0.71251 0.12849 0.0
N577 N 0.54028 0.68818 0.16463 0.0
N578 N 0.55444 0.70329 0.09032 0.0
C579 C 0.5695 0.67934 0.10611 0.0
C580 C 0.56174 0.67108 0.14634 0.0
C581 C 0.08398 0.81622 0.84765 0.0
C582 C 0.06497 0.84087 0.83951 0.0
C583 C 0.09249 0.80927 0.88711 0.0
C584 C 0.08312 0.82747 0.91934 0.0
H585 H 0.09263 0.80248 0.82328 0.0
H586 H 0.10759 0.79039 0.89222 0.0
S587 S 0.03271 0.89415 0.91379 0.0
N588 N 0.03599 0.88272 0.86671 0.0
N589 N 0.05321 0.87055 0.94091 0.0
C590 C 0.06375 0.8519 0.91165 0.0
C591 C 0.05431 0.85838 0.87163 0.0
C592 C 0.12175 0.28986 0.34098 0.0
C593 C 0.10861 0.3162 0.35653 0.0
C594 C 0.13002 0.26603 0.3662 0.0
C595 C 0.12473 0.26733 0.40789 0.0
H596 H 0.12458 0.28715 0.30881 0.0
H597 H 0.13908 0.24579 0.35248 0.0
S598 S 0.09285 0.33244 0.46375 0.0
N599 N 0.0926 0.34337 0.41627 0.0
N600 N 0.10745 0.29811 0.46394 0.0
C601 C 0.11297 0.2942 0.42411 0.0
C602 C 0.10509 0.3188 0.39834 0.0
C603 C 0.92423 0.83842 0.63518 0.0
C604 C 0.92969 0.83578 0.59369 0.0
C605 C 0.94749 0.84648 0.66171 0.0
C606 C 0.97665 0.85277 0.64737 0.0
H607 H 0.90223 0.83307 0.64739 0.0
H608 H 0.9427 0.84749 0.69361 0.0
S609 S 0.0019 0.85057 0.54095 0.0
N610 N 0.96596 0.84108 0.53934 0.0
N611 N 0.00939 0.85671 0.58882 0.0
C612 C 0.982 0.85124 0.60574 0.0
C613 C 0.95857 0.84261 0.57897 0.0
C614 C 0.37347 0.71389 0.89119 0.0
C615 C 0.39449 0.73397 0.9082 0.0
C616 C 0.38289 0.68977 0.86686 0.0
C617 C 0.41358 0.68534 0.85816 0.0
H618 H 0.34951 0.71725 0.89587 0.0
H619 H 0.36599 0.67538 0.85333 0.0
S620 S 0.47782 0.72969 0.89804 0.0
N621 N 0.44759 0.74623 0.91698 0.0
N622 N 0.46513 0.70135 0.87075 0.0
C623 C 0.43487 0.70443 0.87628 0.0
C624 C 0.42537 0.72864 0.90148 0.0
C625 C 0.56219 0.13775 0.13562 0.0
C626 C 0.55917 0.13986 0.09365 0.0
C627 C 0.53704 0.13223 0.16014 0.0
C628 C 0.50822 0.12816 0.14335 0.0
H629 H 0.5838 0.14189 0.14978 0.0
H630 H 0.54009 0.13168 0.19243 0.0
S631 S 0.48902 0.12919 0.03468 0.0
N632 N 0.52562 0.13581 0.03617 0.0
N633 N 0.4785 0.125 0.08193 0.0
C634 C 0.50526 0.1288 0.10124 0.0
C635 C 0.53072 0.13476 0.07644 0.0
C636 C 0.09749 0.68238 0.10956 0.0
C637 C 0.0982 0.68477 0.15165 0.0
C638 C 0.10385 0.70739 0.0852 0.0
C639 C 0.11173 0.73532 0.10222 0.0
H640 H 0.09025 0.66161 0.09539 0.0
H641 H 0.1019 0.70501 0.05291 0.0
S642 S 0.1195 0.75215 0.21099 0.0
N643 N 0.10906 0.71646 0.20935 0.0
N644 N 0.12187 0.76323 0.16373 0.0
C645 C 0.1142 0.73741 0.14426 0.0
C646 C 0.1072 0.71216 0.16897 0.0
C647 C 0.53833 0.83422 0.32313 0.0
C648 C 0.5239 0.86223 0.32824 0.0
C649 C 0.56 0.82412 0.35055 0.0
C650 C 0.56853 0.8419 0.38358 0.0
H651 H 0.53163 0.81916 0.29913 0.0
H652 H 0.56953 0.80179 0.34646 0.0
S653 S 0.54001 0.91831 0.40813 0.0
N654 N 0.52125 0.90858 0.36726 0.0
N655 N 0.56275 0.88974 0.41832 0.0
C656 C 0.55584 0.87076 0.38764 0.0
C657 C 0.53329 0.88089 0.36007 0.0
C658 C 0.37033 0.28156 0.59799 0.0
C659 C 0.39345 0.26564 0.57786 0.0
C660 C 0.37697 0.30577 0.62371 0.0
C661 C 0.40693 0.31441 0.63048 0.0
H662 H 0.34705 0.27455 0.59515 0.0
H663 H 0.35876 0.31667 0.63996 0.0
S664 S 0.47524 0.28341 0.58096 0.0
N665 N 0.44723 0.26288 0.56316 0.0
N666 N 0.45955 0.30787 0.61203 0.0
C667 C 0.43002 0.3 0.6088 0.0
C668 C 0.42331 0.27574 0.58227 0.0
C669 C 0.9595 0.11811 0.85346 0.0
C670 C 0.97515 0.13894 0.82925 0.0
C671 C 0.93645 0.12753 0.87953 0.0
C672 C 0.92876 0.15816 0.8828 0.0
H673 H 0.96573 0.09447 0.85318 0.0
H674 H 0.92566 0.11097 0.89863 0.0
S675 S 0.96063 0.2213 0.82338 0.0
N676 N 0.97943 0.19126 0.80793 0.0
N677 N 0.93659 0.20897 0.8575 0.0
C678 C 0.94319 0.179 0.85748 0.0
C679 C 0.96626 0.16938 0.83049 0.0
C680 C 0.86889 0.68142 0.63073 0.0
C681 C 0.89821 0.66952 0.62873 0.0
C682 C 0.85916 0.70304 0.60272 0.0
C683 C 0.87827 0.71283 0.57147 0.0
H684 H 0.85418 0.67553 0.65552 0.0
H685 H 0.83712 0.7132 0.60673 0.0
S686 S 0.95556 0.68444 0.55026 0.0
N687 N 0.94509 0.66633 0.59128 0.0
N688 N 0.92668 0.70613 0.53786 0.0
C689 C 0.90671 0.699 0.56739 0.0
C690 C 0.91676 0.67757 0.59633 0.0
C691 C 0.0208 0.12155 0.38127 0.0
C692 C 0.0244 0.12406 0.33939 0.0
C693 C 0.04386 0.13007 0.40752 0.0
C694 C 0.07158 0.14061 0.39285 0.0
H695 H -0.0006 0.11471 0.39402 0.0
H696 H 0.03957 0.1294 0.4396 0.0
S697 S 0.09367 0.14807 0.28587 0.0
N698 N 0.05856 0.13569 0.28438 0.0
N699 N 0.1024 0.15082 0.334 0.0
C700 C 0.07632 0.14118 0.35111 0.0
C701 C 0.05255 0.13314 0.32429 0.0
C702 C 0.61694 0.2574 0.13818 0.0
C703 C 0.61866 0.26065 0.09618 0.0
C704 C 0.60843 0.28149 0.16274 0.0
C705 C 0.6018 0.30993 0.14641 0.0
H706 H 0.62088 0.2357 0.15224 0.0
H707 H 0.60606 0.27751 0.19472 0.0
S708 S 0.6059 0.33131 0.03885 0.0
N709 N 0.61517 0.2952 0.03953 0.0
N710 N 0.59958 0.34081 0.08612 0.0
C711 C 0.60523 0.31414 0.10481 0.0
C712 C 0.61353 0.28939 0.07955 0.0
C713 C 0.43468 0.88496 0.88767 0.0
C714 C 0.41075 0.86641 0.8753 0.0
C715 C 0.45835 0.89199 0.86148 0.0
C716 C 0.45906 0.88048 0.82208 0.0
H717 H 0.43627 0.8924 0.91862 0.0
H718 H 0.47728 0.90458 0.87329 0.0
S719 S 0.39869 0.83636 0.77244 0.0
N720 N 0.38669 0.84093 0.81904 0.0
N721 N 0.43144 0.8539 0.76993 0.0
C722 C 0.43375 0.86465 0.80805 0.0
C723 C 0.40947 0.85769 0.83465 0.0
C724 C 0.85515 0.26647 0.86627 0.0
C725 C 0.85822 0.26943 0.90814 0.0
C726 C 0.86185 0.29053 0.84062 0.0
C727 C 0.87127 0.31847 0.85601 0.0
H728 H 0.84986 0.24482 0.85299 0.0
H729 H 0.86143 0.28664 0.80847 0.0
S730 S 0.87726 0.33926 0.9637 0.0
N731 N 0.86733 0.30339 0.96411 0.0
N732 N 0.8793 0.34896 0.91586 0.0
C733 C 0.87137 0.32262 0.89791 0.0
C734 C 0.86504 0.29793 0.92403 0.0
C735 C 0.45137 0.1329 0.67761 0.0
C736 C 0.47445 0.1136 0.66393 0.0
C737 C 0.42735 0.14109 0.65239 0.0
C738 C 0.42574 0.13033 0.61269 0.0
H739 H 0.45285 0.14331 0.70699 0.0
H740 H 0.41121 0.15761 0.66316 0.0
S741 S 0.47698 0.07437 0.56541 0.0
N742 N 0.49151 0.08023 0.6104 0.0
N743 N 0.44656 0.09586 0.56303 0.0
C744 C 0.44707 0.10884 0.60004 0.0
C745 C 0.4714 0.10041 0.62569 0.0
C746 C 0.61054 0.69409 0.42561 0.0
C747 C 0.6264 0.71939 0.41137 0.0
C748 C 0.6023 0.67063 0.39957 0.0
C749 C 0.6091 0.6721 0.35836 0.0
H750 H 0.60309 0.69314 0.45658 0.0
H751 H 0.58858 0.65241 0.41121 0.0
S752 S 0.65358 0.73125 0.30695 0.0
N753 N 0.65164 0.74258 0.35415 0.0
N754 N 0.63517 0.69897 0.30523 0.0
C755 C 0.6267 0.69613 0.34431 0.0
C756 C 0.63566 0.71965 0.37087 0.0
C757 C 0.06868 0.85935 0.1485 0.0
C758 C 0.06717 0.8646 0.10693 0.0
C759 C 0.04508 0.86854 0.17393 0.0
C760 C 0.0196 0.88368 0.15853 0.0
H761 H 0.08699 0.84604 0.16095 0.0
H762 H 0.04606 0.86229 0.20535 0.0
S763 S 0.00785 0.90686 0.05231 0.0
N764 N 0.04026 0.88843 0.052 0.0
N765 N -0.00359 0.90673 0.09954 0.0
C766 C 0.01938 0.8914 0.11745 0.0
C767 C 0.04305 0.88153 0.09164 0.0
C768 C 0.56478 0.76865 0.90145 0.0
C769 C 0.59554 0.76232 0.90729 0.0
C770 C 0.55543 0.79124 0.87476 0.0
C771 C 0.57649 0.8087 0.85333 0.0
H772 H 0.54769 0.75538 0.91654 0.0
H773 H 0.53144 0.7948 0.8706 0.0
S774 S 0.6598 0.80244 0.85994 0.0
N775 N 0.64717 0.77618 0.89079 0.0
N776 N 0.62954 0.81904 0.84113 0.0
C777 C 0.60735 0.80339 0.86001 0.0
C778 C 0.61689 0.78009 0.88684 0.0
C779 C 0.48118 0.36615 0.106 0.0
C780 C 0.47751 0.36531 0.148 0.0
C781 C 0.45736 0.35914 0.08019 0.0
C782 C 0.42877 0.35164 0.09528 0.0
H783 H 0.503 0.37093 0.09283 0.0
H784 H 0.46164 0.35866 0.04811 0.0
S785 S 0.40645 0.34892 0.20261 0.0
N786 N 0.44252 0.35821 0.20351 0.0
N787 N 0.3974 0.3456 0.15466 0.0
C788 C 0.42419 0.35242 0.13707 0.0
C789 C 0.44868 0.35907 0.16353 0.0
C790 C 0.89127 0.20678 0.41278 0.0
C791 C 0.88574 0.23605 0.39822 0.0
C792 C 0.90002 0.18348 0.38663 0.0
C793 C 0.90427 0.18903 0.34541 0.0
H794 H 0.88913 0.20194 0.44455 0.0
H795 H 0.90472 0.16135 0.399 0.0
S796 S 0.89182 0.26135 0.29209 0.0
N797 N 0.88399 0.26888 0.33955 0.0
N798 N 0.90127 0.22533 0.29095 0.0
C799 C 0.89826 0.21797 0.33041 0.0
C800 C 0.88876 0.24144 0.35672 0.0
C801 C 0.03758 0.61838 0.58831 0.0
C802 C 0.06506 0.62975 0.60277 0.0
C803 C 0.0141 0.61105 0.61462 0.0
C804 C 0.01705 0.61559 0.65626 0.0
H805 H 0.03367 0.61652 0.55624 0.0
H806 H 0.99282 0.6038 0.60195 0.0
S807 S 0.08552 0.64197 0.70953 0.0
N808 N 0.09498 0.64257 0.66151 0.0
N809 N 0.05042 0.62958 0.71109 0.0
C810 C 0.04503 0.6252 0.67131 0.0
C811 C 0.06921 0.63205 0.64451 0.0
C812 C 0.60758 0.20259 0.58514 0.0
C813 C 0.60894 0.23216 0.60039 0.0
C814 C 0.60035 0.17815 0.61024 0.0
C815 C 0.59364 0.18269 0.6511 0.0
H816 H 0.61189 0.19834 0.55359 0.0
H817 H 0.59885 0.15579 0.59726 0.0
S818 S 0.59505 0.25547 0.70604 0.0
N819 N 0.60402 0.26431 0.65938 0.0
N820 N 0.58995 0.21862 0.70604 0.0
C821 C 0.59554 0.21202 0.66681 0.0
C822 C 0.60331 0.23671 0.64157 0.0
C823 C -0.00027 0.35206 0.89396 0.0
C824 C 0.00295 0.35713 0.85246 0.0
C825 C 0.02423 0.34311 0.91755 0.0
C826 C 0.05309 0.33929 0.90078 0.0
H827 H 0.97787 0.35418 0.90831 0.0
H828 H 0.02038 0.33868 0.94916 0.0
S829 S 0.07408 0.35146 0.79409 0.0
N830 N 0.03754 0.35885 0.79574 0.0
N831 N 0.08391 0.34241 0.84045 0.0
C832 C 0.05699 0.34535 0.85962 0.0
C833 C 0.03183 0.35411 0.83535 0.0
C834 C 0.8886 0.76622 0.13285 0.0
C835 C 0.88322 0.77127 0.09175 0.0
C836 C 0.89758 0.78967 0.1581 0.0
C837 C 0.90078 0.81916 0.14344 0.0
H838 H 0.88681 0.74377 0.14544 0.0
H839 H 0.90232 0.78459 0.18935 0.0
S840 S 0.88786 0.84466 0.03878 0.0
N841 N 0.88091 0.80808 0.03766 0.0
N842 N 0.897 0.85257 0.08575 0.0
C843 C 0.89445 0.82486 0.10278 0.0
C844 C 0.88592 0.80075 0.07674 0.0
C845 C 0.42799 0.65485 0.35223 0.0
C846 C 0.42484 0.64361 0.39156 0.0
C847 C 0.45332 0.64763 0.32879 0.0
C848 C 0.47631 0.62879 0.34378 0.0
H849 H 0.41164 0.67067 0.34023 0.0
H850 H 0.45544 0.65784 0.29935 0.0
S851 S 0.47649 0.59006 0.44282 0.0
N852 N 0.44517 0.61027 0.44287 0.0
N853 N 0.49257 0.59645 0.3989 0.0
C854 C 0.47236 0.61579 0.38205 0.0
C855 C 0.44667 0.62325 0.40591 0.0
C856 C 0.37654 0.20785 0.15687 0.0
C857 C 0.38603 0.17985 0.1418 0.0
C858 C 0.37011 0.23188 0.13105 0.0
C859 C 0.37361 0.22901 0.08915 0.0
H860 H 0.37505 0.21154 0.18902 0.0
H861 H 0.36367 0.25327 0.14428 0.0
S862 S 0.39652 0.1597 0.03453 0.0
N863 N 0.39716 0.14988 0.08242 0.0
N864 N 0.38565 0.19537 0.03363 0.0
C865 C 0.38196 0.20073 0.07354 0.0
C866 C 0.388 0.17603 0.09994 0.0
C867 C 0.52609 0.60598 0.87119 0.0
C868 C 0.52612 0.61658 0.83134 0.0
C869 C 0.54956 0.61305 0.89756 0.0
C870 C 0.57408 0.6307 0.88494 0.0
H871 H 0.5068 0.59396 0.88308 0.0
H872 H 0.54746 0.60634 0.92874 0.0
S873 S 0.5879 0.65877 0.78156 0.0
N874 N 0.5549 0.6417 0.77887 0.0
N875 N 0.59927 0.65479 0.82852 0.0
C876 C 0.57605 0.63861 0.8441 0.0
C877 C 0.55195 0.63161 0.81723 0.0
C878 C 0.1034 0.77714 0.6651 0.0
C879 C 0.09525 0.80551 0.64981 0.0
C880 C 0.11106 0.75338 0.63942 0.0
C881 C 0.11018 0.75691 0.5974 0.0
H882 H 0.10303 0.77302 0.69721 0.0
H883 H 0.11648 0.73173 0.6527 0.0
S884 S 0.09138 0.82724 0.54236 0.0
N885 N 0.08799 0.83642 0.59027 0.0
N886 N 0.10179 0.79144 0.54167 0.0
C887 C 0.10298 0.78548 0.58169 0.0
C888 C 0.09571 0.8099 0.608 0.0
C889 C 0.96008 0.36455 0.4147 0.0
C890 C 0.93216 0.35534 0.39916 0.0
C891 C 0.98436 0.3708 0.38928 0.0
C892 C 0.98181 0.36738 0.34738 0.0
H893 H 0.96353 0.36585 0.44691 0.0
H894 H 0.00569 0.37693 0.40283 0.0
S895 S 0.91272 0.3459 0.29157 0.0
N896 N 0.90251 0.34503 0.33932 0.0
N897 N 0.94852 0.35618 0.29126 0.0
C898 C 0.95359 0.35949 0.33129 0.0
C899 C 0.92862 0.35366 0.35727 0.0
C900 C 0.37635 0.81136 0.36515 0.0
C901 C 0.40691 0.81861 0.36055 0.0
C902 C 0.36748 0.78882 0.39226 0.0
C903 C 0.3889 0.77343 0.41601 0.0
H904 H 0.35951 0.82179 0.34602 0.0
H905 H 0.3439 0.78258 0.39344 0.0
S906 S 0.47139 0.7876 0.41822 0.0
N907 N 0.45826 0.81104 0.38383 0.0
N908 N 0.4417 0.76936 0.43562 0.0
C909 C 0.41928 0.78228 0.41361 0.0
C910 C 0.42828 0.8047 0.38554 0.0
C911 C 0.94852 0.63901 0.15981 0.0
C912 C 0.97664 0.6301 0.14402 0.0
C913 C 0.92468 0.64748 0.13437 0.0
C914 C 0.92844 0.64774 0.09244 0.0
H915 H 0.94517 0.64036 0.19201 0.0
H916 H 0.90383 0.6555 0.14767 0.0
S917 S 0.99625 0.62349 0.03572 0.0
N918 N 0.00575 0.61954 0.0834 0.0
N919 N 0.96119 0.63611 0.03604 0.0
C920 C 0.95582 0.63749 0.07624 0.0
C921 C 0.97988 0.62848 0.10194 0.0
C922 C 0.12726 0.21481 0.87143 0.0
C923 C 0.11582 0.21602 0.91085 0.0
C924 C 0.12114 0.19038 0.84626 0.0
C925 C 0.10351 0.16607 0.85956 0.0
H926 H 0.13984 0.23357 0.85909 0.0
H927 H 0.12898 0.19132 0.81543 0.0
S928 S 0.07166 0.15623 0.96184 0.0
N929 N 0.08869 0.18929 0.96344 0.0
N930 N 0.07725 0.14312 0.91596 0.0
C931 C 0.09397 0.16575 0.89988 0.0
C932 C 0.10008 0.19083 0.92558 0.0
C933 C 0.56709 0.35979 0.63579 0.0
C934 C 0.56369 0.35952 0.59379 0.0
C935 C 0.54296 0.36796 0.66089 0.0
C936 C 0.51491 0.37661 0.6447 0.0
H937 H 0.58778 0.35168 0.64941 0.0
H938 H 0.54592 0.36626 0.69312 0.0
S939 S 0.49612 0.38319 0.53622 0.0
N940 N 0.53134 0.37105 0.53697 0.0
N941 N 0.48622 0.38707 0.58377 0.0
C942 C 0.5121 0.37855 0.60261 0.0
C943 C 0.53645 0.3698 0.57723 0.0
C944 C 0.0866 0.48251 0.25397 0.0
C945 C 0.06065 0.46444 0.2507 0.0
C946 C 0.08575 0.51326 0.24385 0.0
C947 C 0.05882 0.52691 0.2308 0.0
H948 H 0.10763 0.47292 0.26458 0.0
H949 H 0.10601 0.52659 0.24748 0.0
S950 S 0.98518 0.48935 0.21482 0.0
N951 N 0.00763 0.46238 0.2315 0.0
N952 N 0.00613 0.52002 0.21319 0.0
C953 C 0.03297 0.50901 0.2266 0.0
C954 C 0.03387 0.4778 0.23638 0.0
C955 C 0.7567 0.82218 0.53474 0.0
C956 C 0.77649 0.82091 0.50187 0.0
C957 C 0.72542 0.82355 0.52876 0.0
C958 C 0.71311 0.82444 0.48977 0.0
H959 H 0.76527 0.82013 0.56512 0.0
H960 H 0.71076 0.82266 0.55479 0.0
S961 S 0.75608 0.82615 0.39409 0.0
N962 N 0.78216 0.8236 0.42935 0.0
N963 N 0.72343 0.82713 0.41801 0.0
C964 C 0.73291 0.82566 0.45682 0.0
C965 C 0.76465 0.8236 0.4629 0.0
C966 C 0.45527 0.48633 0.72299 0.0
C967 C 0.42911 0.46949 0.73032 0.0
C968 C 0.45608 0.51722 0.73067 0.0
C969 C 0.43098 0.53238 0.74693 0.0
H970 H 0.4754 0.47547 0.71136 0.0
H971 H 0.47692 0.52914 0.72472 0.0
S972 S 0.3569 0.49827 0.77142 0.0
N973 N 0.37724 0.46987 0.75386 0.0
N974 N 0.37895 0.52825 0.76963 0.0
C975 C 0.40449 0.51584 0.75419 0.0
C976 C 0.40349 0.48429 0.74545 0.0
C977 C 0.76914 0.19137 0.03248 0.0
C978 C 0.78257 0.17027 0.00634 0.0
C979 C 0.73828 0.19081 0.0404 0.0
C980 C 0.71975 0.16874 0.02331 0.0
H981 H 0.78226 0.20943 0.04563 0.0
H982 H 0.72866 0.20839 0.05912 0.0
S983 S 0.74376 0.10661 0.95603 0.0
N984 N 0.77513 0.12541 0.96539 0.0
N985 N 0.71677 0.12403 0.98136 0.0
C986 C 0.73292 0.14631 -0.0008 0.0
C987 C 0.76447 0.14717 0.99042 0.0
C988 C 0.94522 0.4856 0.78592 0.0
C989 C 0.92006 0.46816 0.7755 0.0
C990 C 0.94648 0.51621 0.77636 0.0
C991 C 0.92287 0.53046 0.75535 0.0
H992 H 0.96431 0.47542 0.8011 0.0
H993 H 0.96663 0.52856 0.7846 0.0
S994 S 0.85157 0.4947 0.72205 0.0
N995 N 0.8705 0.46721 0.74423 0.0
N996 N 0.87309 0.52495 0.72548 0.0
C997 C 0.89721 0.51342 0.74548 0.0
C998 C 0.89575 0.4822 0.75581 0.0
C999 C 0.26291 0.17585 0.54112 0.0
C1000 C 0.28389 0.16988 0.51057 0.0
C1001 C 0.23203 0.17741 0.53249 0.0
C1002 C 0.22127 0.17216 0.49333 0.0
H1003 H 0.27051 0.18081 0.57136 0.0
H1004 H 0.21651 0.18318 0.55646 0.0
S1005 S 0.26725 0.15284 0.40386 0.0
N1006 N 0.29208 0.15715 0.4404 0.0
N1007 N 0.23384 0.15883 0.42443 0.0
C1008 C 0.24197 0.16453 0.46307 0.0
C1009 C 0.27342 0.16374 0.47163 0.0
C1010 C 0.53512 0.51069 0.2544 0.0
C1011 C 0.56238 0.52653 0.2581 0.0
C1012 C 0.53486 0.47999 0.24516 0.0
C1013 C 0.56182 0.46397 0.23863 0.0
H1014 H 0.51371 0.52202 0.259 0.0
H1015 H 0.51322 0.46877 0.24292 0.0
S1016 S 0.6393 0.49506 0.24414 0.0
N1017 N 0.61715 0.52407 0.25442 0.0
N1018 N 0.61662 0.46615 0.23631 0.0
C1019 C 0.58932 0.47952 0.24184 0.0
C1020 C 0.5896 0.51085 0.25186 0.0
C1021 C 0.22788 0.84234 -0.0001 0.0
C1022 C 0.21093 0.8156 -0.00205 0.0
C1023 C 0.25853 0.84258 0.98931 0.0
C1024 C 0.27324 0.81601 0.977 0.0
H1025 H 0.21751 0.86315 0.00998 0.0
H1026 H 0.27099 0.86348 0.99195 0.0
S1027 S 0.23871 0.74058 0.96416 0.0
N1028 N 0.21096 0.76219 0.98054 0.0
N1029 N 0.26846 0.76275 0.96132 0.0
C1030 C 0.25644 0.78934 0.97404 0.0
C1031 C 0.22529 0.78912 0.98434 0.0
C1032 C 0.56958 0.97969 0.78549 0.0
C1033 C 0.57298 0.95968 0.75308 0.0
C1034 C 0.57011 0.01094 0.77942 0.0
C1035 C 0.5748 0.0232 0.74093 0.0
H1036 H 0.56457 0.97124 0.81532 0.0
H1037 H 0.5658 0.02561 0.80484 0.0
S1038 S 0.58871 0.98032 0.6471 0.0
N1039 N 0.58368 0.95415 0.68177 0.0
N1040 N 0.58559 0.01299 0.67062 0.0
C1041 C 0.58046 0.00345 0.70882 0.0
C1042 C 0.57928 0.97161 0.71483 0.0
C1043 C 0.26068 0.28349 0.99288 0.0
C1044 C 0.27518 0.31109 0.00029 0.0
C1045 C 0.22976 0.28226 0.98537 0.0
C1046 C 0.21213 0.3086 0.98427 0.0
H1047 H 0.27322 0.26249 0.9934 0.0
H1048 H 0.21958 0.26038 0.98035 0.0
S1049 S 0.23909 0.38666 0.00096 0.0
N1050 N 0.26965 0.36554 0.00582 0.0
N1051 N 0.21121 0.36319 0.99088 0.0
C1052 C 0.22627 0.33647 0.99095 0.0
C1053 C 0.25788 0.33771 -0.00072 0.0
C1054 C 0.91857 0.02375 0.21416 0.0
C1055 C 0.91707 0.03579 0.2532 0.0
C1056 C 0.91676 0.99262 0.20769 0.0
C1057 C 0.91434 0.97265 0.24024 0.0
H1058 H 0.92243 0.0384 0.18861 0.0
H1059 H 0.91954 0.98407 0.17741 0.0
S1060 S 0.90657 0.99298 0.34776 0.0
N1061 N 0.91 0.02566 0.32436 0.0
N1062 N 0.9079 0.9669 0.31234 0.0
C1063 C 0.91109 0.98447 0.27915 0.0
C1064 C 0.91208 0.0162 0.28562 0.0
C1065 C 0.25833 0.70803 0.48963 0.0
C1066 C 0.27589 0.68181 0.48529 0.0
C1067 C 0.22757 0.70638 0.49839 0.0
C1068 C 0.21321 0.67845 0.50382 0.0
H1069 H 0.26842 0.73012 0.48619 0.0
H1070 H 0.21505 0.72727 0.5014 0.0
S1071 S 0.2491 0.60302 0.49572 0.0
N1072 N 0.27678 0.62697 0.48671 0.0
N1073 N 0.21877 0.62386 0.50393 0.0
C1074 C 0.23044 0.65197 0.49958 0.0
C1075 C 0.26183 0.65364 0.49002 0.0
C1076 C 0.4068 0.0105 0.24337 0.0
C1077 C 0.43146 0.02595 0.2268 0.0
C1078 C 0.40883 0.9796 0.25212 0.0
C1079 C 0.43536 0.96321 0.24379 0.0
H1080 H 0.38624 0.02253 0.25085 0.0
H1081 H 0.38956 0.96854 0.26557 0.0
S1082 S 0.50534 0.99329 0.1975 0.0
N1083 N 0.48254 0.02267 0.20066 0.0
N1084 N 0.48626 0.96464 0.21625 0.0
C1085 C 0.45976 0.97837 0.22593 0.0
C1086 C 0.45783 0.00977 0.21765 0.0
C1087 C 0.76074 0.66087 0.99466 0.0
C1088 C 0.77409 0.68701 0.01045 0.0
C1089 C 0.72967 0.65992 0.98658 0.0
C1090 C 0.71096 0.68493 0.99461 0.0
H1091 H 0.77448 0.6414 0.98737 0.0
H1092 H 0.72033 0.63955 0.97368 0.0
S1093 S 0.73489 0.75778 0.0394 0.0
N1094 N 0.76623 0.73778 0.03597 0.0
N1095 N 0.70799 0.73598 0.0214 0.0
C1096 C 0.72402 0.71081 0.01174 0.0
C1097 C 0.75556 0.71184 0.0195 0.0
C1098 C 0.08265 0.00481 0.76049 0.0
C1099 C 0.05743 0.023 0.75153 0.0
C1100 C 0.08261 0.97377 0.75202 0.0
C1101 C 0.05718 0.95998 0.73488 0.0
H1102 H 0.10248 0.01453 0.77436 0.0
H1103 H 0.10217 0.96039 0.76005 0.0
S1104 S 0.98632 -0.00226 0.70315 0.0
N1105 N 0.00702 0.02498 0.72246 0.0
N1106 N 0.00694 0.96686 0.70715 0.0
C1107 C 0.03219 0.978 0.72493 0.0
C1108 C 0.0323 0.00948 0.73311 0.0
C1109 C 0.73114 0.33628 0.50132 0.0
C1110 C 0.71661 0.30957 0.51315 0.0
C1111 C 0.76205 0.3364 0.49219 0.0
C1112 C 0.77948 0.30992 0.49524 0.0
H1113 H 0.71842 0.35703 0.49815 0.0
H1114 H 0.77234 0.35738 0.48277 0.0
S1115 S 0.75219 0.23454 0.5274 0.0
N1116 N 0.72197 0.25632 0.52889 0.0
N1117 N 0.77998 0.25651 0.51238 0.0
C1118 C 0.76524 0.28324 0.50799 0.0
C1119 C 0.73381 0.28309 0.51678 0.0
loop_
_geom_bond_atom_site_label_1
_geom_bond_atom_site_label_2
_geom_bond_distance
_geom_bond_site_symmetry_2
_ccdc_geom_bond_type
In0 O1 2.294 . S
In0 O2 2.326 . S
In0 O6 2.266 . S
In0 O7 2.326 . S
In0 O8 2.266 . S
In0 O9 2.326 . S
In0 O11 2.294 . S
In0 O12 2.326 . S
O1 In0 2.294 . S
O1 C10 1.240 . S
O2 In0 2.326 . S
O2 C10 1.252 . S
C3 O6 1.252 . S
C3 O7 1.260 . S
C4 O11 1.240 . S
C4 O12 1.252 . S
C5 O8 1.252 . S
C5 O9 1.260 . S
O6 In0 2.266 . S
O6 C3 1.252 . S
O7 In0 2.326 . S
O7 C3 1.260 . S
O8 In0 2.266 . S
O8 C5 1.252 . S
O9 In0 2.326 . S
O9 C5 1.260 . S
C10 O1 1.240 . S
C10 O2 1.252 . S
O11 In0 2.294 . S
O11 C4 1.240 . S
O12 In0 2.326 . S
O12 C4 1.252 . S
In13 O14 2.294 . S
In13 O15 2.326 . S
In13 O19 2.266 . S
In13 O20 2.326 . S
In13 O21 2.266 . S
In13 O22 2.326 . S
In13 O24 2.294 . S
In13 O25 2.326 . S
O14 In13 2.294 . S
O14 C23 1.240 . S
O15 In13 2.326 . S
O15 C23 1.252 . S
C16 O19 1.252 . S
C16 O20 1.260 . S
C17 O24 1.240 . S
C17 O25 1.252 . S
C18 O21 1.252 . S
C18 O22 1.260 . S
O19 In13 2.266 . S
O19 C16 1.252 . S
O20 In13 2.326 . S
O20 C16 1.260 . S
O21 In13 2.266 . S
O21 C18 1.252 . S
O22 In13 2.326 . S
O22 C18 1.260 . S
C23 O14 1.240 . S
C23 O15 1.252 . S
O24 In13 2.294 . S
O24 C17 1.240 . S
O25 In13 2.326 . S
O25 C17 1.252 . S
In26 O27 2.294 . S
In26 O28 2.326 . S
In26 O32 2.266 . S
In26 O33 2.326 . S
In26 O34 2.266 . S
In26 O35 2.326 . S
In26 O37 2.294 . S
In26 O38 2.326 . S
O27 In26 2.294 . S
O27 C36 1.240 . S
O28 In26 2.326 . S
O28 C36 1.252 . S
C29 O32 1.252 . S
C29 O33 1.260 . S
C30 O37 1.240 . S
C30 O38 1.252 . S
C31 O34 1.252 . S
C31 O35 1.260 . S
O32 In26 2.266 . S
O32 C29 1.252 . S
O33 In26 2.326 . S
O33 C29 1.260 . S
O34 In26 2.266 . S
O34 C31 1.252 . S
O35 In26 2.326 . S
O35 C31 1.260 . S
C36 O27 1.240 . S
C36 O28 1.252 . S
O37 In26 2.294 . S
O37 C30 1.240 . S
O38 In26 2.326 . S
O38 C30 1.252 . S
In39 O40 2.294 . S
In39 O41 2.326 . S
In39 O45 2.266 . S
In39 O46 2.326 . S
In39 O47 2.266 . S
In39 O48 2.326 . S
In39 O50 2.294 1_554 S
In39 O51 2.326 1_554 S
O40 In39 2.294 . S
O40 C49 1.240 . S
O41 In39 2.326 . S
O41 C49 1.252 . S
C42 O45 1.252 . S
C42 O46 1.260 . S
C43 O50 1.240 . S
C43 O51 1.252 . S
C44 O47 1.252 . S
C44 O48 1.260 . S
O45 In39 2.266 . S
O45 C42 1.252 . S
O46 In39 2.326 . S
O46 C42 1.260 . S
O47 In39 2.266 . S
O47 C44 1.252 . S
O48 In39 2.326 . S
O48 C44 1.260 . S
C49 O40 1.240 . S
C49 O41 1.252 . S
O50 In39 2.294 1_556 S
O50 C43 1.240 . S
O51 In39 2.326 1_556 S
O51 C43 1.252 . S
In52 O53 2.294 . S
In52 O54 2.326 . S
In52 O58 2.266 . S
In52 O59 2.326 . S
In52 O60 2.266 . S
In52 O61 2.326 . S
In52 O63 2.294 . S
In52 O64 2.326 . S
O53 In52 2.294 . S
O53 C62 1.240 . S
O54 In52 2.326 . S
O54 C62 1.252 . S
C55 O58 1.252 . S
C55 O59 1.260 . S
C56 O63 1.240 . S
C56 O64 1.252 . S
C57 O60 1.252 . S
C57 O61 1.260 . S
O58 In52 2.266 . S
O58 C55 1.252 . S
O59 In52 2.326 . S
O59 C55 1.260 . S
O60 In52 2.266 . S
O60 C57 1.252 . S
O61 In52 2.326 . S
O61 C57 1.260 . S
C62 O53 1.240 . S
C62 O54 1.252 . S
O63 In52 2.294 . S
O63 C56 1.240 . S
O64 In52 2.326 . S
O64 C56 1.252 . S
In65 O66 2.294 . S
In65 O67 2.326 . S
In65 O71 2.266 . S
In65 O72 2.326 . S
In65 O73 2.266 . S
In65 O74 2.326 . S
In65 O76 2.294 . S
In65 O77 2.326 . S
O66 In65 2.294 . S
O66 C75 1.240 . S
O67 In65 2.326 . S
O67 C75 1.252 . S
C68 O71 1.252 . S
C68 O72 1.260 . S
C69 O76 1.240 . S
C69 O77 1.252 . S
C70 O73 1.252 . S
C70 O74 1.260 . S
O71 In65 2.266 . S
O71 C68 1.252 . S
O72 In65 2.326 . S
O72 C68 1.260 . S
O73 In65 2.266 . S
O73 C70 1.252 . S
O74 In65 2.326 . S
O74 C70 1.260 . S
C75 O66 1.240 . S
C75 O67 1.252 . S
O76 In65 2.294 . S
O76 C69 1.240 . S
O77 In65 2.326 . S
O77 C69 1.252 . S
In78 O79 2.294 . S
In78 O80 2.326 . S
In78 O84 2.266 . S
In78 O85 2.326 . S
In78 O86 2.266 . S
In78 O87 2.326 . S
In78 O89 2.294 . S
In78 O90 2.326 . S
O79 In78 2.294 . S
O79 C88 1.240 . S
O80 In78 2.326 . S
O80 C88 1.252 . S
C81 O84 1.252 . S
C81 O85 1.260 . S
C82 O89 1.240 . S
C82 O90 1.252 . S
C83 O86 1.252 . S
C83 O87 1.260 . S
O84 In78 2.266 . S
O84 C81 1.252 . S
O85 In78 2.326 . S
O85 C81 1.260 . S
O86 In78 2.266 . S
O86 C83 1.252 . S
O87 In78 2.326 . S
O87 C83 1.260 . S
C88 O79 1.240 . S
C88 O80 1.252 . S
O89 In78 2.294 . S
O89 C82 1.240 . S
O90 In78 2.326 . S
O90 C82 1.252 . S
In91 O92 2.294 1_556 S
In91 O93 2.326 1_556 S
In91 O97 2.266 . S
In91 O98 2.326 . S
In91 O99 2.266 . S
In91 O100 2.326 . S
In91 O102 2.294 . S
In91 O103 2.326 . S
O92 In91 2.294 1_554 S
O92 C101 1.240 . S
O93 In91 2.326 1_554 S
O93 C101 1.252 . S
C94 O97 1.252 . S
C94 O98 1.260 . S
C95 O102 1.240 . S
C95 O103 1.252 . S
C96 O99 1.252 . S
C96 O100 1.260 . S
O97 In91 2.266 . S
O97 C94 1.252 . S
O98 In91 2.326 . S
O98 C94 1.260 . S
O99 In91 2.266 . S
O99 C96 1.252 . S
O100 In91 2.326 . S
O100 C96 1.260 . S
C101 O92 1.240 . S
C101 O93 1.252 . S
O102 In91 2.294 . S
O102 C95 1.240 . S
O103 In91 2.326 . S
O103 C95 1.252 . S
In104 O105 2.294 . S
In104 O106 2.326 . S
In104 O110 2.266 . S
In104 O111 2.326 . S
In104 O112 2.266 . S
In104 O113 2.326 . S
In104 O115 2.294 . S
In104 O116 2.326 . S
O105 In104 2.294 . S
O105 C114 1.240 . S
O106 In104 2.326 . S
O106 C114 1.252 . S
C107 O110 1.252 . S
C107 O111 1.260 . S
C108 O115 1.240 . S
C108 O116 1.252 . S
C109 O112 1.252 . S
C109 O113 1.260 . S
O110 In104 2.266 . S
O110 C107 1.252 . S
O111 In104 2.326 . S
O111 C107 1.260 . S
O112 In104 2.266 . S
O112 C109 1.252 . S
O113 In104 2.326 . S
O113 C109 1.260 . S
C114 O105 1.240 . S
C114 O106 1.252 . S
O115 In104 2.294 . S
O115 C108 1.240 . S
O116 In104 2.326 . S
O116 C108 1.252 . S
In117 O118 2.294 . S
In117 O119 2.326 . S
In117 O123 2.266 . S
In117 O124 2.326 . S
In117 O125 2.266 . S
In117 O126 2.326 . S
In117 O128 2.294 . S
In117 O129 2.326 . S
O118 In117 2.294 . S
O118 C127 1.240 . S
O119 In117 2.326 . S
O119 C127 1.252 . S
C120 O123 1.252 . S
C120 O124 1.260 . S
C121 O128 1.240 . S
C121 O129 1.252 . S
C122 O125 1.252 . S
C122 O126 1.260 . S
O123 In117 2.266 . S
O123 C120 1.252 . S
O124 In117 2.326 . S
O124 C120 1.260 . S
O125 In117 2.266 . S
O125 C122 1.252 . S
O126 In117 2.326 . S
O126 C122 1.260 . S
C127 O118 1.240 . S
C127 O119 1.252 . S
O128 In117 2.294 . S
O128 C121 1.240 . S
O129 In117 2.326 . S
O129 C121 1.252 . S
In130 O131 2.294 . S
In130 O132 2.326 . S
In130 O136 2.266 . S
In130 O137 2.326 . S
In130 O138 2.266 . S
In130 O139 2.326 . S
In130 O141 2.294 . S
In130 O142 2.326 . S
O131 In130 2.294 . S
O131 C140 1.240 . S
O132 In130 2.326 . S
O132 C140 1.252 . S
C133 O136 1.252 . S
C133 O137 1.260 . S
C134 O141 1.240 . S
C134 O142 1.252 . S
C135 O138 1.252 . S
C135 O139 1.260 . S
O136 In130 2.266 . S
O136 C133 1.252 . S
O137 In130 2.326 . S
O137 C133 1.260 . S
O138 In130 2.266 . S
O138 C135 1.252 . S
O139 In130 2.326 . S
O139 C135 1.260 . S
C140 O131 1.240 . S
C140 O132 1.252 . S
O141 In130 2.294 . S
O141 C134 1.240 . S
O142 In130 2.326 . S
O142 C134 1.252 . S
In143 O144 2.294 1_556 S
In143 O145 2.326 1_556 S
In143 O149 2.266 . S
In143 O150 2.326 . S
In143 O151 2.266 . S
In143 O152 2.326 . S
In143 O154 2.294 . S
In143 O155 2.326 . S
O144 In143 2.294 1_554 S
O144 C153 1.240 . S
O145 In143 2.326 1_554 S
O145 C153 1.252 . S
C146 O149 1.252 . S
C146 O150 1.260 . S
C147 O154 1.240 . S
C147 O155 1.252 . S
C148 O151 1.252 . S
C148 O152 1.260 . S
O149 In143 2.266 . S
O149 C146 1.252 . S
O150 In143 2.326 . S
O150 C146 1.260 . S
O151 In143 2.266 . S
O151 C148 1.252 . S
O152 In143 2.326 . S
O152 C148 1.260 . S
C153 O144 1.240 . S
C153 O145 1.252 . S
O154 In143 2.294 . S
O154 C147 1.240 . S
O155 In143 2.326 . S
O155 C147 1.252 . S
In156 O157 2.294 . S
In156 O158 2.326 . S
In156 O162 2.266 . S
In156 O163 2.326 . S
In156 O164 2.266 . S
In156 O165 2.326 . S
In156 O167 2.294 . S
In156 O168 2.326 . S
O157 In156 2.294 . S
O157 C166 1.240 . S
O158 In156 2.326 . S
O158 C166 1.252 . S
C159 O162 1.252 . S
C159 O163 1.260 . S
C160 O167 1.240 . S
C160 O168 1.252 . S
C161 O164 1.252 . S
C161 O165 1.260 . S
O162 In156 2.266 . S
O162 C159 1.252 . S
O163 In156 2.326 . S
O163 C159 1.260 . S
O164 In156 2.266 . S
O164 C161 1.252 . S
O165 In156 2.326 . S
O165 C161 1.260 . S
C166 O157 1.240 . S
C166 O158 1.252 . S
O167 In156 2.294 . S
O167 C160 1.240 . S
O168 In156 2.326 . S
O168 C160 1.252 . S
In169 O170 2.294 . S
In169 O171 2.326 . S
In169 O175 2.266 . S
In169 O176 2.326 . S
In169 O177 2.266 . S
In169 O178 2.326 . S
In169 O180 2.294 . S
In169 O181 2.326 . S
O170 In169 2.294 . S
O170 C179 1.240 . S
O171 In169 2.326 . S
O171 C179 1.252 . S
C172 O175 1.252 . S
C172 O176 1.260 . S
C173 O180 1.240 . S
C173 O181 1.252 . S
C174 O177 1.252 . S
C174 O178 1.260 . S
O175 In169 2.266 . S
O175 C172 1.252 . S
O176 In169 2.326 . S
O176 C172 1.260 . S
O177 In169 2.266 . S
O177 C174 1.252 . S
O178 In169 2.326 . S
O178 C174 1.260 . S
C179 O170 1.240 . S
C179 O171 1.252 . S
O180 In169 2.294 . S
O180 C173 1.240 . S
O181 In169 2.326 . S
O181 C173 1.252 . S
In182 O183 2.294 . S
In182 O184 2.326 . S
In182 O188 2.266 . S
In182 O189 2.326 . S
In182 O190 2.266 . S
In182 O191 2.326 . S
In182 O193 2.294 . S
In182 O194 2.326 . S
O183 In182 2.294 . S
O183 C192 1.240 . S
O184 In182 2.326 . S
O184 C192 1.252 . S
C185 O188 1.252 . S
C185 O189 1.260 . S
C186 O193 1.240 . S
C186 O194 1.252 . S
C187 O190 1.252 . S
C187 O191 1.260 . S
O188 In182 2.266 . S
O188 C185 1.252 . S
O189 In182 2.326 . S
O189 C185 1.260 . S
O190 In182 2.266 . S
O190 C187 1.252 . S
O191 In182 2.326 . S
O191 C187 1.260 . S
C192 O183 1.240 . S
C192 O184 1.252 . S
O193 In182 2.294 . S
O193 C186 1.240 . S
O194 In182 2.326 . S
O194 C186 1.252 . S
In195 O196 2.294 1_554 S
In195 O197 2.326 1_554 S
In195 O201 2.266 . S
In195 O202 2.326 . S
In195 O203 2.266 . S
In195 O204 2.326 . S
In195 O206 2.294 . S
In195 O207 2.326 . S
O196 In195 2.294 1_556 S
O196 C205 1.240 . S
O197 In195 2.326 1_556 S
O197 C205 1.252 . S
C198 O201 1.252 . S
C198 O202 1.260 . S
C199 O206 1.240 . S
C199 O207 1.252 . S
C200 O203 1.252 . S
C200 O204 1.260 . S
O201 In195 2.266 . S
O201 C198 1.252 . S
O202 In195 2.326 . S
O202 C198 1.260 . S
O203 In195 2.266 . S
O203 C200 1.252 . S
O204 In195 2.326 . S
O204 C200 1.260 . S
C205 O196 1.240 . S
C205 O197 1.252 . S
O206 In195 2.294 . S
O206 C199 1.240 . S
O207 In195 2.326 . S
O207 C199 1.252 . S
In208 O209 2.294 . S
In208 O210 2.326 . S
In208 O214 2.266 . S
In208 O215 2.326 . S
In208 O216 2.266 . S
In208 O217 2.326 . S
In208 O219 2.294 . S
In208 O220 2.326 . S
O209 In208 2.294 . S
O209 C218 1.240 . S
O210 In208 2.326 . S
O210 C218 1.252 . S
C211 O214 1.252 . S
C211 O215 1.260 . S
C212 O219 1.240 . S
C212 O220 1.252 . S
C213 O216 1.252 . S
C213 O217 1.260 . S
O214 In208 2.266 . S
O214 C211 1.252 . S
O215 In208 2.326 . S
O215 C211 1.260 . S
O216 In208 2.266 . S
O216 C213 1.252 . S
O217 In208 2.326 . S
O217 C213 1.260 . S
C218 O209 1.240 . S
C218 O210 1.252 . S
O219 In208 2.294 . S
O219 C212 1.240 . S
O220 In208 2.326 . S
O220 C212 1.252 . S
In221 O222 2.294 1_554 S
In221 O223 2.326 1_554 S
In221 O227 2.266 . S
In221 O228 2.326 . S
In221 O229 2.266 . S
In221 O230 2.326 . S
In221 O232 2.294 . S
In221 O233 2.326 . S
O222 In221 2.294 1_556 S
O222 C231 1.240 . S
O223 In221 2.326 1_556 S
O223 C231 1.252 . S
C224 O227 1.252 . S
C224 O228 1.260 . S
C225 O232 1.240 . S
C225 O233 1.252 . S
C226 O229 1.252 . S
C226 O230 1.260 . S
O227 In221 2.266 . S
O227 C224 1.252 . S
O228 In221 2.326 . S
O228 C224 1.260 . S
O229 In221 2.266 . S
O229 C226 1.252 . S
O230 In221 2.326 . S
O230 C226 1.260 . S
C231 O222 1.240 . S
C231 O223 1.252 . S
O232 In221 2.294 . S
O232 C225 1.240 . S
O233 In221 2.326 . S
O233 C225 1.252 . S
In234 O235 2.294 . S
In234 O236 2.326 . S
In234 O240 2.266 . S
In234 O241 2.326 . S
In234 O242 2.266 . S
In234 O243 2.326 . S
In234 O245 2.294 . S
In234 O246 2.326 . S
O235 In234 2.294 . S
O235 C244 1.240 . S
O236 In234 2.326 . S
O236 C244 1.252 . S
C237 O240 1.252 . S
C237 O241 1.260 . S
C238 O245 1.240 . S
C238 O246 1.252 . S
C239 O242 1.252 . S
C239 O243 1.260 . S
O240 In234 2.266 . S
O240 C237 1.252 . S
O241 In234 2.326 . S
O241 C237 1.260 . S
O242 In234 2.266 . S
O242 C239 1.252 . S
O243 In234 2.326 . S
O243 C239 1.260 . S
C244 O235 1.240 . S
C244 O236 1.252 . S
O245 In234 2.294 . S
O245 C238 1.240 . S
O246 In234 2.326 . S
O246 C238 1.252 . S
In247 O248 2.294 . S
In247 O249 2.326 . S
In247 O253 2.266 . S
In247 O254 2.326 . S
In247 O255 2.266 . S
In247 O256 2.326 . S
In247 O258 2.294 . S
In247 O259 2.326 . S
O248 In247 2.294 . S
O248 C257 1.240 . S
O249 In247 2.326 . S
O249 C257 1.252 . S
C250 O253 1.252 . S
C250 O254 1.260 . S
C251 O258 1.240 . S
C251 O259 1.252 . S
C252 O255 1.252 . S
C252 O256 1.260 . S
O253 In247 2.266 . S
O253 C250 1.252 . S
O254 In247 2.326 . S
O254 C250 1.260 . S
O255 In247 2.266 . S
O255 C252 1.252 . S
O256 In247 2.326 . S
O256 C252 1.260 . S
C257 O248 1.240 . S
C257 O249 1.252 . S
O258 In247 2.294 . S
O258 C251 1.240 . S
O259 In247 2.326 . S
O259 C251 1.252 . S
In260 O261 2.294 . S
In260 O262 2.326 . S
In260 O266 2.266 . S
In260 O267 2.326 . S
In260 O268 2.266 . S
In260 O269 2.326 . S
In260 O271 2.294 . S
In260 O272 2.326 . S
O261 In260 2.294 . S
O261 C270 1.240 . S
O262 In260 2.326 . S
O262 C270 1.252 . S
C263 O266 1.252 . S
C263 O267 1.260 . S
C264 O271 1.240 . S
C264 O272 1.252 . S
C265 O268 1.252 . S
C265 O269 1.260 . S
O266 In260 2.266 . S
O266 C263 1.252 . S
O267 In260 2.326 . S
O267 C263 1.260 . S
O268 In260 2.266 . S
O268 C265 1.252 . S
O269 In260 2.326 . S
O269 C265 1.260 . S
C270 O261 1.240 . S
C270 O262 1.252 . S
O271 In260 2.294 . S
O271 C264 1.240 . S
O272 In260 2.326 . S
O272 C264 1.252 . S
In273 O274 2.294 1_556 S
In273 O275 2.326 1_556 S
In273 O279 2.266 . S
In273 O280 2.326 . S
In273 O281 2.266 . S
In273 O282 2.326 . S
In273 O284 2.294 . S
In273 O285 2.326 . S
O274 In273 2.294 1_554 S
O274 C283 1.240 . S
O275 In273 2.326 1_554 S
O275 C283 1.252 . S
C276 O279 1.252 . S
C276 O280 1.260 . S
C277 O284 1.240 . S
C277 O285 1.252 . S
C278 O281 1.252 . S
C278 O282 1.260 . S
O279 In273 2.266 . S
O279 C276 1.252 . S
O280 In273 2.326 . S
O280 C276 1.260 . S
O281 In273 2.266 . S
O281 C278 1.252 . S
O282 In273 2.326 . S
O282 C278 1.260 . S
C283 O274 1.240 . S
C283 O275 1.252 . S
O284 In273 2.294 . S
O284 C277 1.240 . S
O285 In273 2.326 . S
O285 C277 1.252 . S
In286 O287 2.294 . S
In286 O288 2.326 . S
In286 O292 2.266 . S
In286 O293 2.326 . S
In286 O294 2.266 . S
In286 O295 2.326 . S
In286 O297 2.294 . S
In286 O298 2.326 . S
O287 In286 2.294 . S
O287 C296 1.240 . S
O288 In286 2.326 . S
O288 C296 1.252 . S
C289 O292 1.252 . S
C289 O293 1.260 . S
C290 O297 1.240 . S
C290 O298 1.252 . S
C291 O294 1.252 . S
C291 O295 1.260 . S
O292 In286 2.266 . S
O292 C289 1.252 . S
O293 In286 2.326 . S
O293 C289 1.260 . S
O294 In286 2.266 . S
O294 C291 1.252 . S
O295 In286 2.326 . S
O295 C291 1.260 . S
C296 O287 1.240 . S
C296 O288 1.252 . S
O297 In286 2.294 . S
O297 C290 1.240 . S
O298 In286 2.326 . S
O298 C290 1.252 . S
In299 O300 2.294 . S
In299 O301 2.326 . S
In299 O305 2.266 . S
In299 O306 2.326 . S
In299 O307 2.266 . S
In299 O308 2.326 . S
In299 O310 2.294 . S
In299 O311 2.326 . S
O300 In299 2.294 . S
O300 C309 1.240 . S
O301 In299 2.326 . S
O301 C309 1.252 . S
C302 O305 1.252 . S
C302 O306 1.260 . S
C303 O310 1.240 . S
C303 O311 1.252 . S
C304 O307 1.252 . S
C304 O308 1.260 . S
O305 In299 2.266 . S
O305 C302 1.252 . S
O306 In299 2.326 . S
O306 C302 1.260 . S
O307 In299 2.266 . S
O307 C304 1.252 . S
O308 In299 2.326 . S
O308 C304 1.260 . S
C309 O300 1.240 . S
C309 O301 1.252 . S
O310 In299 2.294 . S
O310 C303 1.240 . S
O311 In299 2.326 . S
O311 C303 1.252 . S
In312 O313 2.294 . S
In312 O314 2.326 . S
In312 O318 2.266 . S
In312 O319 2.326 . S
In312 O320 2.266 . S
In312 O321 2.326 . S
In312 O323 2.294 . S
In312 O324 2.326 . S
O313 In312 2.294 . S
O313 C322 1.240 . S
O314 In312 2.326 . S
O314 C322 1.252 . S
C315 O318 1.252 . S
C315 O319 1.260 . S
C316 O323 1.240 . S
C316 O324 1.252 . S
C317 O320 1.252 . S
C317 O321 1.260 . S
O318 In312 2.266 . S
O318 C315 1.252 . S
O319 In312 2.326 . S
O319 C315 1.260 . S
O320 In312 2.266 . S
O320 C317 1.252 . S
O321 In312 2.326 . S
O321 C317 1.260 . S
C322 O313 1.240 . S
C322 O314 1.252 . S
O323 In312 2.294 . S
O323 C316 1.240 . S
O324 In312 2.326 . S
O324 C316 1.252 . S
In325 O326 2.294 1_556 S
In325 O327 2.326 1_556 S
In325 O331 2.266 . S
In325 O332 2.326 . S
In325 O333 2.266 . S
In325 O334 2.326 . S
In325 O336 2.294 . S
In325 O337 2.326 . S
O326 In325 2.294 1_554 S
O326 C335 1.240 . S
O327 In325 2.326 1_554 S
O327 C335 1.252 . S
C328 O331 1.252 . S
C328 O332 1.260 . S
C329 O336 1.240 . S
C329 O337 1.252 . S
C330 O333 1.252 . S
C330 O334 1.260 . S
O331 In325 2.266 . S
O331 C328 1.252 . S
O332 In325 2.326 . S
O332 C328 1.260 . S
O333 In325 2.266 . S
O333 C330 1.252 . S
O334 In325 2.326 . S
O334 C330 1.260 . S
C335 O326 1.240 . S
C335 O327 1.252 . S
O336 In325 2.294 . S
O336 C329 1.240 . S
O337 In325 2.326 . S
O337 C329 1.252 . S
In338 O339 2.294 . S
In338 O340 2.326 . S
In338 O344 2.266 . S
In338 O345 2.326 . S
In338 O346 2.266 . S
In338 O347 2.326 . S
In338 O349 2.294 . S
In338 O350 2.326 . S
O339 In338 2.294 . S
O339 C348 1.240 . S
O340 In338 2.326 . S
O340 C348 1.252 . S
C341 O344 1.252 . S
C341 O345 1.260 . S
C342 O349 1.240 . S
C342 O350 1.252 . S
C343 O346 1.252 . S
C343 O347 1.260 . S
O344 In338 2.266 . S
O344 C341 1.252 . S
O345 In338 2.326 . S
O345 C341 1.260 . S
O346 In338 2.266 . S
O346 C343 1.252 . S
O347 In338 2.326 . S
O347 C343 1.260 . S
C348 O339 1.240 . S
C348 O340 1.252 . S
O349 In338 2.294 . S
O349 C342 1.240 . S
O350 In338 2.326 . S
O350 C342 1.252 . S
In351 O352 2.294 . S
In351 O353 2.326 . S
In351 O357 2.266 . S
In351 O358 2.326 . S
In351 O359 2.266 . S
In351 O360 2.326 . S
In351 O362 2.294 . S
In351 O363 2.326 . S
O352 In351 2.294 . S
O352 C361 1.240 . S
O353 In351 2.326 . S
O353 C361 1.252 . S
C354 O357 1.252 . S
C354 O358 1.260 . S
C355 O362 1.240 . S
C355 O363 1.252 . S
C356 O359 1.252 . S
C356 O360 1.260 . S
O357 In351 2.266 . S
O357 C354 1.252 . S
O358 In351 2.326 . S
O358 C354 1.260 . S
O359 In351 2.266 . S
O359 C356 1.252 . S
O360 In351 2.326 . S
O360 C356 1.260 . S
C361 O352 1.240 . S
C361 O353 1.252 . S
O362 In351 2.294 . S
O362 C355 1.240 . S
O363 In351 2.326 . S
O363 C355 1.252 . S
In364 O365 2.294 . S
In364 O366 2.326 . S
In364 O370 2.266 . S
In364 O371 2.326 . S
In364 O372 2.266 . S
In364 O373 2.326 . S
In364 O375 2.294 . S
In364 O376 2.326 . S
O365 In364 2.294 . S
O365 C374 1.240 . S
O366 In364 2.326 . S
O366 C374 1.252 . S
C367 O370 1.252 . S
C367 O371 1.260 . S
C368 O375 1.240 . S
C368 O376 1.252 . S
C369 O372 1.252 . S
C369 O373 1.260 . S
O370 In364 2.266 . S
O370 C367 1.252 . S
O371 In364 2.326 . S
O371 C367 1.260 . S
O372 In364 2.266 . S
O372 C369 1.252 . S
O373 In364 2.326 . S
O373 C369 1.260 . S
C374 O365 1.240 . S
C374 O366 1.252 . S
O375 In364 2.294 . S
O375 C368 1.240 . S
O376 In364 2.326 . S
O376 C368 1.252 . S
In377 O378 2.294 1_554 S
In377 O379 2.326 1_554 S
In377 O383 2.266 . S
In377 O384 2.326 . S
In377 O385 2.266 . S
In377 O386 2.326 . S
In377 O388 2.294 . S
In377 O389 2.326 . S
O378 In377 2.294 1_556 S
O378 C387 1.240 . S
O379 In377 2.326 1_556 S
O379 C387 1.252 . S
C380 O383 1.252 . S
C380 O384 1.260 . S
C381 O388 1.240 . S
C381 O389 1.252 . S
C382 O385 1.252 . S
C382 O386 1.260 . S
O383 In377 2.266 . S
O383 C380 1.252 . S
O384 In377 2.326 . S
O384 C380 1.260 . S
O385 In377 2.266 . S
O385 C382 1.252 . S
O386 In377 2.326 . S
O386 C382 1.260 . S
C387 O378 1.240 . S
C387 O379 1.252 . S
O388 In377 2.294 . S
O388 C381 1.240 . S
O389 In377 2.326 . S
O389 C381 1.252 . S
In390 O391 2.294 . S
In390 O392 2.326 . S
In390 O396 2.266 . S
In390 O397 2.326 . S
In390 O398 2.266 . S
In390 O399 2.326 . S
In390 O401 2.294 . S
In390 O402 2.326 . S
O391 In390 2.294 . S
O391 C400 1.240 . S
O392 In390 2.326 . S
O392 C400 1.252 . S
C393 O396 1.252 . S
C393 O397 1.260 . S
C394 O401 1.240 . S
C394 O402 1.252 . S
C395 O398 1.252 . S
C395 O399 1.260 . S
O396 In390 2.266 . S
O396 C393 1.252 . S
O397 In390 2.326 . S
O397 C393 1.260 . S
O398 In390 2.266 . S
O398 C395 1.252 . S
O399 In390 2.326 . S
O399 C395 1.260 . S
C400 O391 1.240 . S
C400 O392 1.252 . S
O401 In390 2.294 . S
O401 C394 1.240 . S
O402 In390 2.326 . S
O402 C394 1.252 . S
In403 O404 2.294 . S
In403 O405 2.326 . S
In403 O409 2.266 . S
In403 O410 2.326 . S
In403 O411 2.266 . S
In403 O412 2.326 . S
In403 O414 2.294 . S
In403 O415 2.326 . S
O404 In403 2.294 . S
O404 C413 1.240 . S
O405 In403 2.326 . S
O405 C413 1.252 . S
C406 O409 1.252 . S
C406 O410 1.260 . S
C407 O414 1.240 . S
C407 O415 1.252 . S
C408 O411 1.252 . S
C408 O412 1.260 . S
O409 In403 2.266 . S
O409 C406 1.252 . S
O410 In403 2.326 . S
O410 C406 1.260 . S
O411 In403 2.266 . S
O411 C408 1.252 . S
O412 In403 2.326 . S
O412 C408 1.260 . S
C413 O404 1.240 . S
C413 O405 1.252 . S
O414 In403 2.294 . S
O414 C407 1.240 . S
O415 In403 2.326 . S
O415 C407 1.252 . S
C416 C417 1.369 . S
C416 C418 1.419 . S
C416 H420 0.930 . S
C417 C416 1.369 . S
C417 C426 1.429 . S
C418 C416 1.419 . S
C418 C419 1.363 . S
C418 H421 0.929 . S
C419 C418 1.363 . S
C419 C425 1.428 . S
H420 C416 0.930 . S
H421 C418 0.929 . S
S422 N423 1.613 . S
S422 N424 1.610 . S
N423 S422 1.613 . S
N423 C426 1.350 . S
N424 S422 1.610 . S
N424 C425 1.351 . S
C425 C419 1.428 . S
C425 N424 1.351 . S
C425 C426 1.434 . S
C426 C417 1.429 . S
C426 N423 1.350 . S
C426 C425 1.434 . S
C427 C428 1.369 . S
C427 C429 1.419 . S
C427 H431 0.930 . S
C428 C427 1.369 . S
C428 C437 1.429 . S
C429 C427 1.419 . S
C429 C430 1.363 . S
C429 H432 0.929 . S
C430 C429 1.363 . S
C430 C436 1.428 . S
H431 C427 0.930 . S
H432 C429 0.929 . S
S433 N434 1.613 . S
S433 N435 1.610 . S
N434 S433 1.613 . S
N434 C437 1.350 . S
N435 S433 1.610 . S
N435 C436 1.351 . S
C436 C430 1.428 . S
C436 N435 1.351 . S
C436 C437 1.434 . S
C437 C428 1.429 . S
C437 N434 1.350 . S
C437 C436 1.434 . S
C438 C439 1.369 . S
C438 C440 1.419 . S
C438 H442 0.930 . S
C439 C438 1.369 . S
C439 C448 1.429 . S
C440 C438 1.419 . S
C440 C441 1.363 . S
C440 H443 0.929 . S
C441 C440 1.363 . S
C441 C447 1.428 . S
H442 C438 0.930 . S
H443 C440 0.929 . S
S444 N445 1.613 . S
S444 N446 1.610 . S
N445 S444 1.613 . S
N445 C448 1.350 . S
N446 S444 1.610 . S
N446 C447 1.351 . S
C447 C441 1.428 . S
C447 N446 1.351 . S
C447 C448 1.434 . S
C448 C439 1.429 . S
C448 N445 1.350 . S
C448 C447 1.434 . S
C449 C450 1.369 . S
C449 C451 1.419 . S
C449 H453 0.930 . S
C450 C449 1.369 . S
C450 C459 1.429 . S
C451 C449 1.419 . S
C451 C452 1.363 . S
C451 H454 0.929 . S
C452 C451 1.363 . S
C452 C458 1.428 . S
H453 C449 0.930 . S
H454 C451 0.929 . S
S455 N456 1.613 . S
S455 N457 1.610 . S
N456 S455 1.613 . S
N456 C459 1.350 . S
N457 S455 1.610 . S
N457 C458 1.351 . S
C458 C452 1.428 . S
C458 N457 1.351 . S
C458 C459 1.434 . S
C459 C450 1.429 . S
C459 N456 1.350 . S
C459 C458 1.434 . S
C460 C461 1.369 . S
C460 C462 1.419 . S
C460 H464 0.930 . S
C461 C460 1.369 . S
C461 C470 1.429 . S
C462 C460 1.419 . S
C462 C463 1.363 . S
C462 H465 0.929 . S
C463 C462 1.363 . S
C463 C469 1.428 . S
H464 C460 0.930 . S
H465 C462 0.929 . S
S466 N467 1.613 . S
S466 N468 1.610 . S
N467 S466 1.613 . S
N467 C470 1.350 . S
N468 S466 1.610 . S
N468 C469 1.351 . S
C469 C463 1.428 . S
C469 N468 1.351 . S
C469 C470 1.434 . S
C470 C461 1.429 . S
C470 N467 1.350 . S
C470 C469 1.434 . S
C471 C472 1.369 . S
C471 C473 1.419 . S
C471 H475 0.930 . S
C472 C471 1.369 . S
C472 C481 1.429 . S
C473 C471 1.419 . S
C473 C474 1.363 . S
C473 H476 0.929 . S
C474 C473 1.363 . S
C474 C480 1.428 . S
H475 C471 0.930 . S
H476 C473 0.929 . S
S477 N478 1.613 . S
S477 N479 1.610 . S
N478 S477 1.613 . S
N478 C481 1.350 . S
N479 S477 1.610 . S
N479 C480 1.351 . S
C480 C474 1.428 . S
C480 N479 1.351 . S
C480 C481 1.434 . S
C481 C472 1.429 . S
C481 N478 1.350 . S
C481 C480 1.434 . S
C482 C483 1.369 . S
C482 C484 1.419 . S
C482 H486 0.930 . S
C483 C482 1.369 . S
C483 C492 1.429 . S
C484 C482 1.419 . S
C484 C485 1.363 . S
C484 H487 0.929 . S
C485 C484 1.363 . S
C485 C491 1.428 . S
H486 C482 0.930 . S
H487 C484 0.929 . S
S488 N489 1.613 . S
S488 N490 1.610 . S
N489 S488 1.613 . S
N489 C492 1.350 . S
N490 S488 1.610 . S
N490 C491 1.351 . S
C491 C485 1.428 . S
C491 N490 1.351 . S
C491 C492 1.434 . S
C492 C483 1.429 . S
C492 N489 1.350 . S
C492 C491 1.434 . S
C493 C494 1.369 . S
C493 C495 1.419 . S
C493 H497 0.930 . S
C494 C493 1.369 . S
C494 C503 1.429 . S
C495 C493 1.419 . S
C495 C496 1.363 . S
C495 H498 0.929 . S
C496 C495 1.363 . S
C496 C502 1.428 . S
H497 C493 0.930 . S
H498 C495 0.929 . S
S499 N500 1.613 . S
S499 N501 1.610 . S
N500 S499 1.613 . S
N500 C503 1.350 . S
N501 S499 1.610 . S
N501 C502 1.351 . S
C502 C496 1.428 . S
C502 N501 1.351 . S
C502 C503 1.434 . S
C503 C494 1.429 . S
C503 N500 1.350 . S
C503 C502 1.434 . S
C504 C505 1.369 . S
C504 C506 1.419 . S
C504 H508 0.930 . S
C505 C504 1.369 . S
C505 C514 1.429 . S
C506 C504 1.419 . S
C506 C507 1.363 . S
C506 H509 0.929 . S
C507 C506 1.363 . S
C507 C513 1.428 . S
H508 C504 0.930 . S
H509 C506 0.929 . S
S510 N511 1.613 . S
S510 N512 1.610 . S
N511 S510 1.613 . S
N511 C514 1.350 . S
N512 S510 1.610 . S
N512 C513 1.351 . S
C513 C507 1.428 . S
C513 N512 1.351 . S
C513 C514 1.434 . S
C514 C505 1.429 . S
C514 N511 1.350 . S
C514 C513 1.434 . S
C515 C516 1.369 . S
C515 C517 1.419 . S
C515 H519 0.930 . S
C516 C515 1.369 . S
C516 C525 1.429 . S
C517 C515 1.419 . S
C517 C518 1.363 . S
C517 H520 0.929 . S
C518 C517 1.363 . S
C518 C524 1.428 . S
H519 C515 0.930 . S
H520 C517 0.929 . S
S521 N522 1.613 . S
S521 N523 1.610 . S
N522 S521 1.613 . S
N522 C525 1.350 . S
N523 S521 1.610 . S
N523 C524 1.351 . S
C524 C518 1.428 . S
C524 N523 1.351 . S
C524 C525 1.434 . S
C525 C516 1.429 . S
C525 N522 1.350 . S
C525 C524 1.434 . S
C526 C527 1.369 . S
C526 C528 1.419 . S
C526 H530 0.930 . S
C527 C526 1.369 . S
C527 C536 1.429 . S
C528 C526 1.419 . S
C528 C529 1.363 . S
C528 H531 0.929 . S
C529 C528 1.363 . S
C529 C535 1.428 . S
H530 C526 0.930 . S
H531 C528 0.929 . S
S532 N533 1.613 . S
S532 N534 1.610 . S
N533 S532 1.613 . S
N533 C536 1.350 . S
N534 S532 1.610 . S
N534 C535 1.351 . S
C535 C529 1.428 . S
C535 N534 1.351 . S
C535 C536 1.434 . S
C536 C527 1.429 . S
C536 N533 1.350 . S
C536 C535 1.434 . S
C537 C538 1.369 . S
C537 C539 1.419 . S
C537 H541 0.930 . S
C538 C537 1.369 . S
C538 C547 1.429 . S
C539 C537 1.419 . S
C539 C540 1.363 . S
C539 H542 0.929 . S
C540 C539 1.363 . S
C540 C546 1.428 . S
H541 C537 0.930 . S
H542 C539 0.929 . S
S543 N544 1.613 . S
S543 N545 1.610 . S
N544 S543 1.613 . S
N544 C547 1.350 . S
N545 S543 1.610 . S
N545 C546 1.351 . S
C546 C540 1.428 . S
C546 N545 1.351 . S
C546 C547 1.434 . S
C547 C538 1.429 . S
C547 N544 1.350 . S
C547 C546 1.434 . S
C548 C549 1.369 . S
C548 C550 1.419 . S
C548 H552 0.930 . S
C549 C548 1.369 . S
C549 C558 1.429 . S
C550 C548 1.419 . S
C550 C551 1.363 . S
C550 H553 0.929 . S
C551 C550 1.363 . S
C551 C557 1.428 . S
H552 C548 0.930 . S
H553 C550 0.929 . S
S554 N555 1.613 . S
S554 N556 1.610 . S
N555 S554 1.613 . S
N555 C558 1.350 . S
N556 S554 1.610 . S
N556 C557 1.351 . S
C557 C551 1.428 . S
C557 N556 1.351 . S
C557 C558 1.434 . S
C558 C549 1.429 . S
C558 N555 1.350 . S
C558 C557 1.434 . S
C559 C560 1.369 . S
C559 C561 1.419 . S
C559 H563 0.930 . S
C560 C559 1.369 . S
C560 C569 1.429 . S
C561 C559 1.419 . S
C561 C562 1.363 . S
C561 H564 0.929 . S
C562 C561 1.363 . S
C562 C568 1.428 . S
H563 C559 0.930 . S
H564 C561 0.929 . S
S565 N566 1.613 . S
S565 N567 1.610 . S
N566 S565 1.613 . S
N566 C569 1.350 . S
N567 S565 1.610 . S
N567 C568 1.351 . S
C568 C562 1.428 . S
C568 N567 1.351 . S
C568 C569 1.434 . S
C569 C560 1.429 . S
C569 N566 1.350 . S
C569 C568 1.434 . S
C570 C571 1.369 . S
C570 C572 1.419 . S
C570 H574 0.930 . S
C571 C570 1.369 . S
C571 C580 1.429 . S
C572 C570 1.419 . S
C572 C573 1.363 . S
C572 H575 0.929 . S
C573 C572 1.363 . S
C573 C579 1.428 . S
H574 C570 0.930 . S
H575 C572 0.929 . S
S576 N577 1.613 . S
S576 N578 1.610 . S
N577 S576 1.613 . S
N577 C580 1.350 . S
N578 S576 1.610 . S
N578 C579 1.351 . S
C579 C573 1.428 . S
C579 N578 1.351 . S
C579 C580 1.434 . S
C580 C571 1.429 . S
C580 N577 1.350 . S
C580 C579 1.434 . S
C581 C582 1.369 . S
C581 C583 1.419 . S
C581 H585 0.930 . S
C582 C581 1.369 . S
C582 C591 1.429 . S
C583 C581 1.419 . S
C583 C584 1.363 . S
C583 H586 0.929 . S
C584 C583 1.363 . S
C584 C590 1.428 . S
H585 C581 0.930 . S
H586 C583 0.929 . S
S587 N588 1.613 . S
S587 N589 1.610 . S
N588 S587 1.613 . S
N588 C591 1.350 . S
N589 S587 1.610 . S
N589 C590 1.351 . S
C590 C584 1.428 . S
C590 N589 1.351 . S
C590 C591 1.434 . S
C591 C582 1.429 . S
C591 N588 1.350 . S
C591 C590 1.434 . S
C592 C593 1.369 . S
C592 C594 1.419 . S
C592 H596 0.930 . S
C593 C592 1.369 . S
C593 C602 1.429 . S
C594 C592 1.419 . S
C594 C595 1.363 . S
C594 H597 0.929 . S
C595 C594 1.363 . S
C595 C601 1.428 . S
H596 C592 0.930 . S
H597 C594 0.929 . S
S598 N599 1.613 . S
S598 N600 1.610 . S
N599 S598 1.613 . S
N599 C602 1.350 . S
N600 S598 1.610 . S
N600 C601 1.351 . S
C601 C595 1.428 . S
C601 N600 1.351 . S
C601 C602 1.434 . S
C602 C593 1.429 . S
C602 N599 1.350 . S
C602 C601 1.434 . S
C603 C604 1.369 . S
C603 C605 1.419 . S
C603 H607 0.930 . S
C604 C603 1.369 . S
C604 C613 1.429 . S
C605 C603 1.419 . S
C605 C606 1.363 . S
C605 H608 0.929 . S
C606 C605 1.363 . S
C606 C612 1.428 . S
H607 C603 0.930 . S
H608 C605 0.929 . S
S609 N610 1.613 . S
S609 N611 1.590 1_655 S
N610 S609 1.613 . S
N610 C613 1.350 . S
N611 S609 1.590 1_455 S
N611 C612 1.336 1_455 S
C612 C606 1.428 . S
C612 N611 1.336 1_655 S
C612 C613 1.434 . S
C613 C604 1.429 . S
C613 N610 1.350 . S
C613 C612 1.434 . S
C614 C615 1.369 . S
C614 C616 1.419 . S
C614 H618 0.930 . S
C615 C614 1.369 . S
C615 C624 1.429 . S
C616 C614 1.419 . S
C616 C617 1.363 . S
C616 H619 0.929 . S
C617 C616 1.363 . S
C617 C623 1.428 . S
H618 C614 0.930 . S
H619 C616 0.929 . S
S620 N621 1.613 . S
S620 N622 1.610 . S
N621 S620 1.613 . S
N621 C624 1.350 . S
N622 S620 1.610 . S
N622 C623 1.351 . S
C623 C617 1.428 . S
C623 N622 1.351 . S
C623 C624 1.434 . S
C624 C615 1.429 . S
C624 N621 1.350 . S
C624 C623 1.434 . S
C625 C626 1.369 . S
C625 C627 1.419 . S
C625 H629 0.930 . S
C626 C625 1.369 . S
C626 C635 1.429 . S
C627 C625 1.419 . S
C627 C628 1.363 . S
C627 H630 0.929 . S
C628 C627 1.363 . S
C628 C634 1.428 . S
H629 C625 0.930 . S
H630 C627 0.929 . S
S631 N632 1.613 . S
S631 N633 1.610 . S
N632 S631 1.613 . S
N632 C635 1.350 . S
N633 S631 1.610 . S
N633 C634 1.351 . S
C634 C628 1.428 . S
C634 N633 1.351 . S
C634 C635 1.434 . S
C635 C626 1.429 . S
C635 N632 1.350 . S
C635 C634 1.434 . S
C636 C637 1.369 . S
C636 C638 1.419 . S
C636 H640 0.930 . S
C637 C636 1.369 . S
C637 C646 1.429 . S
C638 C636 1.419 . S
C638 C639 1.363 . S
C638 H641 0.929 . S
C639 C638 1.363 . S
C639 C645 1.428 . S
H640 C636 0.930 . S
H641 C638 0.929 . S
S642 N643 1.613 . S
S642 N644 1.610 . S
N643 S642 1.613 . S
N643 C646 1.350 . S
N644 S642 1.610 . S
N644 C645 1.351 . S
C645 C639 1.428 . S
C645 N644 1.351 . S
C645 C646 1.434 . S
C646 C637 1.429 . S
C646 N643 1.350 . S
C646 C645 1.434 . S
C647 C648 1.369 . S
C647 C649 1.419 . S
C647 H651 0.930 . S
C648 C647 1.369 . S
C648 C657 1.429 . S
C649 C647 1.419 . S
C649 C650 1.363 . S
C649 H652 0.929 . S
C650 C649 1.363 . S
C650 C656 1.428 . S
H651 C647 0.930 . S
H652 C649 0.929 . S
S653 N654 1.613 . S
S653 N655 1.610 . S
N654 S653 1.613 . S
N654 C657 1.350 . S
N655 S653 1.610 . S
N655 C656 1.351 . S
C656 C650 1.428 . S
C656 N655 1.351 . S
C656 C657 1.434 . S
C657 C648 1.429 . S
C657 N654 1.350 . S
C657 C656 1.434 . S
C658 C659 1.369 . S
C658 C660 1.419 . S
C658 H662 0.930 . S
C659 C658 1.369 . S
C659 C668 1.429 . S
C660 C658 1.419 . S
C660 C661 1.363 . S
C660 H663 0.929 . S
C661 C660 1.363 . S
C661 C667 1.428 . S
H662 C658 0.930 . S
H663 C660 0.929 . S
S664 N665 1.613 . S
S664 N666 1.610 . S
N665 S664 1.613 . S
N665 C668 1.350 . S
N666 S664 1.610 . S
N666 C667 1.351 . S
C667 C661 1.428 . S
C667 N666 1.351 . S
C667 C668 1.434 . S
C668 C659 1.429 . S
C668 N665 1.350 . S
C668 C667 1.434 . S
C669 C670 1.369 . S
C669 C671 1.419 . S
C669 H673 0.930 . S
C670 C669 1.369 . S
C670 C679 1.429 . S
C671 C669 1.419 . S
C671 C672 1.363 . S
C671 H674 0.929 . S
C672 C671 1.363 . S
C672 C678 1.428 . S
H673 C669 0.930 . S
H674 C671 0.929 . S
S675 N676 1.613 1_655 S
S675 N677 1.610 . S
N676 S675 1.613 1_455 S
N676 C679 1.350 1_455 S
N677 S675 1.610 . S
N677 C678 1.351 . S
C678 C672 1.428 . S
C678 N677 1.351 . S
C678 C679 1.434 . S
C679 C670 1.429 . S
C679 N676 1.350 1_655 S
C679 C678 1.434 . S
C680 C681 1.369 . S
C680 C682 1.419 . S
C680 H684 0.930 . S
C681 C680 1.369 . S
C681 C690 1.429 . S
C682 C680 1.419 . S
C682 C683 1.363 . S
C682 H685 0.929 . S
C683 C682 1.363 . S
C683 C689 1.428 . S
H684 C680 0.930 . S
H685 C682 0.929 . S
S686 N687 1.613 . S
S686 N688 1.610 . S
N687 S686 1.613 . S
N687 C690 1.350 . S
N688 S686 1.610 . S
N688 C689 1.351 . S
C689 C683 1.428 . S
C689 N688 1.351 . S
C689 C690 1.434 . S
C690 C681 1.429 . S
C690 N687 1.350 . S
C690 C689 1.434 . S
C691 C692 1.369 . S
C691 C693 1.419 . S
C691 H695 0.930 1_455 S
C692 C691 1.369 . S
C692 C701 1.429 . S
C693 C691 1.419 . S
C693 C694 1.363 . S
C693 H696 0.929 . S
C694 C693 1.363 . S
C694 C700 1.428 . S
H695 C691 0.930 1_655 S
H696 C693 0.929 . S
S697 N698 1.613 . S
S697 N699 1.610 . S
N698 S697 1.613 . S
N698 C701 1.350 . S
N699 S697 1.610 . S
N699 C700 1.351 . S
C700 C694 1.428 . S
C700 N699 1.351 . S
C700 C701 1.434 . S
C701 C692 1.429 . S
C701 N698 1.350 . S
C701 C700 1.434 . S
C702 C703 1.369 . S
C702 C704 1.419 . S
C702 H706 0.930 . S
C703 C702 1.369 . S
C703 C712 1.429 . S
C704 C702 1.419 . S
C704 C705 1.363 . S
C704 H707 0.929 . S
C705 C704 1.363 . S
C705 C711 1.428 . S
H706 C702 0.930 . S
H707 C704 0.929 . S
S708 N709 1.613 . S
S708 N710 1.610 . S
N709 S708 1.613 . S
N709 C712 1.350 . S
N710 S708 1.610 . S
N710 C711 1.351 . S
C711 C705 1.428 . S
C711 N710 1.351 . S
C711 C712 1.434 . S
C712 C703 1.429 . S
C712 N709 1.350 . S
C712 C711 1.434 . S
C713 C714 1.369 . S
C713 C715 1.419 . S
C713 H717 0.930 . S
C714 C713 1.369 . S
C714 C723 1.429 . S
C715 C713 1.419 . S
C715 C716 1.363 . S
C715 H718 0.929 . S
C716 C715 1.363 . S
C716 C722 1.428 . S
H717 C713 0.930 . S
H718 C715 0.929 . S
S719 N720 1.613 . S
S719 N721 1.610 . S
N720 S719 1.613 . S
N720 C723 1.350 . S
N721 S719 1.610 . S
N721 C722 1.351 . S
C722 C716 1.428 . S
C722 N721 1.351 . S
C722 C723 1.434 . S
C723 C714 1.429 . S
C723 N720 1.350 . S
C723 C722 1.434 . S
C724 C725 1.369 . S
C724 C726 1.419 . S
C724 H728 0.930 . S
C725 C724 1.369 . S
C725 C734 1.429 . S
C726 C724 1.419 . S
C726 C727 1.363 . S
C726 H729 0.929 . S
C727 C726 1.363 . S
C727 C733 1.428 . S
H728 C724 0.930 . S
H729 C726 0.929 . S
S730 N731 1.613 . S
S730 N732 1.610 . S
N731 S730 1.613 . S
N731 C734 1.350 . S
N732 S730 1.610 . S
N732 C733 1.351 . S
C733 C727 1.428 . S
C733 N732 1.351 . S
C733 C734 1.434 . S
C734 C725 1.429 . S
C734 N731 1.350 . S
C734 C733 1.434 . S
C735 C736 1.369 . S
C735 C737 1.419 . S
C735 H739 0.930 . S
C736 C735 1.369 . S
C736 C745 1.429 . S
C737 C735 1.419 . S
C737 C738 1.363 . S
C737 H740 0.929 . S
C738 C737 1.363 . S
C738 C744 1.428 . S
H739 C735 0.930 . S
H740 C737 0.929 . S
S741 N742 1.613 . S
S741 N743 1.610 . S
N742 S741 1.613 . S
N742 C745 1.350 . S
N743 S741 1.610 . S
N743 C744 1.351 . S
C744 C738 1.428 . S
C744 N743 1.351 . S
C744 C745 1.434 . S
C745 C736 1.429 . S
C745 N742 1.350 . S
C745 C744 1.434 . S
C746 C747 1.369 . S
C746 C748 1.419 . S
C746 H750 0.930 . S
C747 C746 1.369 . S
C747 C756 1.429 . S
C748 C746 1.419 . S
C748 C749 1.363 . S
C748 H751 0.929 . S
C749 C748 1.363 . S
C749 C755 1.428 . S
H750 C746 0.930 . S
H751 C748 0.929 . S
S752 N753 1.613 . S
S752 N754 1.610 . S
N753 S752 1.613 . S
N753 C756 1.350 . S
N754 S752 1.610 . S
N754 C755 1.351 . S
C755 C749 1.428 . S
C755 N754 1.351 . S
C755 C756 1.434 . S
C756 C747 1.429 . S
C756 N753 1.350 . S
C756 C755 1.434 . S
C757 C758 1.369 . S
C757 C759 1.419 . S
C757 H761 0.930 . S
C758 C757 1.369 . S
C758 C767 1.429 . S
C759 C757 1.419 . S
C759 C760 1.363 . S
C759 H762 0.929 . S
C760 C759 1.363 . S
C760 C766 1.428 . S
H761 C757 0.930 . S
H762 C759 0.929 . S
S763 N764 1.613 . S
S763 N765 1.610 1_455 S
N764 S763 1.613 . S
N764 C767 1.350 . S
N765 S763 1.610 1_655 S
N765 C766 1.351 1_655 S
C766 C760 1.428 . S
C766 N765 1.351 1_455 S
C766 C767 1.434 . S
C767 C758 1.429 . S
C767 N764 1.350 . S
C767 C766 1.434 . S
C768 C769 1.369 . S
C768 C770 1.419 . S
C768 H772 0.930 . S
C769 C768 1.369 . S
C769 C778 1.429 . S
C770 C768 1.419 . S
C770 C771 1.363 . S
C770 H773 0.929 . S
C771 C770 1.363 . S
C771 C777 1.428 . S
H772 C768 0.930 . S
H773 C770 0.929 . S
S774 N775 1.613 . S
S774 N776 1.610 . S
N775 S774 1.613 . S
N775 C778 1.350 . S
N776 S774 1.610 . S
N776 C777 1.351 . S
C777 C771 1.428 . S
C777 N776 1.351 . S
C777 C778 1.434 . S
C778 C769 1.429 . S
C778 N775 1.350 . S
C778 C777 1.434 . S
C779 C780 1.369 . S
C779 C781 1.419 . S
C779 H783 0.930 . S
C780 C779 1.369 . S
C780 C789 1.429 . S
C781 C779 1.419 . S
C781 C782 1.363 . S
C781 H784 0.929 . S
C782 C781 1.363 . S
C782 C788 1.428 . S
H783 C779 0.930 . S
H784 C781 0.929 . S
S785 N786 1.613 . S
S785 N787 1.610 . S
N786 S785 1.613 . S
N786 C789 1.350 . S
N787 S785 1.610 . S
N787 C788 1.351 . S
C788 C782 1.428 . S
C788 N787 1.351 . S
C788 C789 1.434 . S
C789 C780 1.429 . S
C789 N786 1.350 . S
C789 C788 1.434 . S
C790 C791 1.369 . S
C790 C792 1.419 . S
C790 H794 0.930 . S
C791 C790 1.369 . S
C791 C800 1.429 . S
C792 C790 1.419 . S
C792 C793 1.363 . S
C792 H795 0.929 . S
C793 C792 1.363 . S
C793 C799 1.428 . S
H794 C790 0.930 . S
H795 C792 0.929 . S
S796 N797 1.613 . S
S796 N798 1.610 . S
N797 S796 1.613 . S
N797 C800 1.350 . S
N798 S796 1.610 . S
N798 C799 1.351 . S
C799 C793 1.428 . S
C799 N798 1.351 . S
C799 C800 1.434 . S
C800 C791 1.429 . S
C800 N797 1.350 . S
C800 C799 1.434 . S
C801 C802 1.369 . S
C801 C803 1.419 . S
C801 H805 0.930 . S
C802 C801 1.369 . S
C802 C811 1.429 . S
C803 C801 1.419 . S
C803 C804 1.363 . S
C803 H806 0.929 1_455 S
C804 C803 1.363 . S
C804 C810 1.428 . S
H805 C801 0.930 . S
H806 C803 0.929 1_655 S
S807 N808 1.613 . S
S807 N809 1.610 . S
N808 S807 1.613 . S
N808 C811 1.350 . S
N809 S807 1.610 . S
N809 C810 1.351 . S
C810 C804 1.428 . S
C810 N809 1.351 . S
C810 C811 1.434 . S
C811 C802 1.429 . S
C811 N808 1.350 . S
C811 C810 1.434 . S
C812 C813 1.369 . S
C812 C814 1.419 . S
C812 H816 0.930 . S
C813 C812 1.369 . S
C813 C822 1.429 . S
C814 C812 1.419 . S
C814 C815 1.363 . S
C814 H817 0.929 . S
C815 C814 1.363 . S
C815 C821 1.428 . S
H816 C812 0.930 . S
H817 C814 0.929 . S
S818 N819 1.613 . S
S818 N820 1.610 . S
N819 S818 1.613 . S
N819 C822 1.350 . S
N820 S818 1.610 . S
N820 C821 1.351 . S
C821 C815 1.428 . S
C821 N820 1.351 . S
C821 C822 1.434 . S
C822 C813 1.429 . S
C822 N819 1.350 . S
C822 C821 1.434 . S
C823 C824 1.369 . S
C823 C825 1.419 . S
C823 H827 0.930 1_455 S
C824 C823 1.369 . S
C824 C833 1.429 . S
C825 C823 1.419 . S
C825 C826 1.363 . S
C825 H828 0.929 . S
C826 C825 1.363 . S
C826 C832 1.428 . S
H827 C823 0.930 1_655 S
H828 C825 0.929 . S
S829 N830 1.613 . S
S829 N831 1.610 . S
N830 S829 1.613 . S
N830 C833 1.350 . S
N831 S829 1.610 . S
N831 C832 1.351 . S
C832 C826 1.428 . S
C832 N831 1.351 . S
C832 C833 1.434 . S
C833 C824 1.429 . S
C833 N830 1.350 . S
C833 C832 1.434 . S
C834 C835 1.369 . S
C834 C836 1.419 . S
C834 H838 0.930 . S
C835 C834 1.369 . S
C835 C844 1.429 . S
C836 C834 1.419 . S
C836 C837 1.363 . S
C836 H839 0.929 . S
C837 C836 1.363 . S
C837 C843 1.428 . S
H838 C834 0.930 . S
H839 C836 0.929 . S
S840 N841 1.613 . S
S840 N842 1.610 . S
N841 S840 1.613 . S
N841 C844 1.350 . S
N842 S840 1.610 . S
N842 C843 1.351 . S
C843 C837 1.428 . S
C843 N842 1.351 . S
C843 C844 1.434 . S
C844 C835 1.429 . S
C844 N841 1.350 . S
C844 C843 1.434 . S
C845 C846 1.369 . S
C845 C847 1.419 . S
C845 H849 0.930 . S
C846 C845 1.369 . S
C846 C855 1.429 . S
C847 C845 1.419 . S
C847 C848 1.363 . S
C847 H850 0.929 . S
C848 C847 1.363 . S
C848 C854 1.428 . S
H849 C845 0.930 . S
H850 C847 0.929 . S
S851 N852 1.613 . S
S851 N853 1.610 . S
N852 S851 1.613 . S
N852 C855 1.350 . S
N853 S851 1.610 . S
N853 C854 1.351 . S
C854 C848 1.428 . S
C854 N853 1.351 . S
C854 C855 1.434 . S
C855 C846 1.429 . S
C855 N852 1.350 . S
C855 C854 1.434 . S
C856 C857 1.369 . S
C856 C858 1.419 . S
C856 H860 0.930 . S
C857 C856 1.369 . S
C857 C866 1.429 . S
C858 C856 1.419 . S
C858 C859 1.363 . S
C858 H861 0.929 . S
C859 C858 1.363 . S
C859 C865 1.428 . S
H860 C856 0.930 . S
H861 C858 0.929 . S
S862 N863 1.613 . S
S862 N864 1.610 . S
N863 S862 1.613 . S
N863 C866 1.350 . S
N864 S862 1.610 . S
N864 C865 1.351 . S
C865 C859 1.428 . S
C865 N864 1.351 . S
C865 C866 1.434 . S
C866 C857 1.429 . S
C866 N863 1.350 . S
C866 C865 1.434 . S
C867 C868 1.369 . S
C867 C869 1.419 . S
C867 H871 0.930 . S
C868 C867 1.369 . S
C868 C877 1.429 . S
C869 C867 1.419 . S
C869 C870 1.363 . S
C869 H872 0.929 . S
C870 C869 1.363 . S
C870 C876 1.428 . S
H871 C867 0.930 . S
H872 C869 0.929 . S
S873 N874 1.613 . S
S873 N875 1.610 . S
N874 S873 1.613 . S
N874 C877 1.350 . S
N875 S873 1.610 . S
N875 C876 1.351 . S
C876 C870 1.428 . S
C876 N875 1.351 . S
C876 C877 1.434 . S
C877 C868 1.429 . S
C877 N874 1.350 . S
C877 C876 1.434 . S
C878 C879 1.369 . S
C878 C880 1.419 . S
C878 H882 0.930 . S
C879 C878 1.369 . S
C879 C888 1.429 . S
C880 C878 1.419 . S
C880 C881 1.363 . S
C880 H883 0.929 . S
C881 C880 1.363 . S
C881 C887 1.428 . S
H882 C878 0.930 . S
H883 C880 0.929 . S
S884 N885 1.613 . S
S884 N886 1.610 . S
N885 S884 1.613 . S
N885 C888 1.350 . S
N886 S884 1.610 . S
N886 C887 1.351 . S
C887 C881 1.428 . S
C887 N886 1.351 . S
C887 C888 1.434 . S
C888 C879 1.429 . S
C888 N885 1.350 . S
C888 C887 1.434 . S
C889 C890 1.369 . S
C889 C891 1.419 . S
C889 H893 0.930 . S
C890 C889 1.369 . S
C890 C899 1.429 . S
C891 C889 1.419 . S
C891 C892 1.363 . S
C891 H894 0.929 1_655 S
C892 C891 1.363 . S
C892 C898 1.428 . S
H893 C889 0.930 . S
H894 C891 0.929 1_455 S
S895 N896 1.613 . S
S895 N897 1.610 . S
N896 S895 1.613 . S
N896 C899 1.350 . S
N897 S895 1.610 . S
N897 C898 1.351 . S
C898 C892 1.428 . S
C898 N897 1.351 . S
C898 C899 1.434 . S
C899 C890 1.429 . S
C899 N896 1.350 . S
C899 C898 1.434 . S
C900 C901 1.369 . S
C900 C902 1.419 . S
C900 H904 0.930 . S
C901 C900 1.369 . S
C901 C910 1.429 . S
C902 C900 1.419 . S
C902 C903 1.363 . S
C902 H905 0.929 . S
C903 C902 1.363 . S
C903 C909 1.428 . S
H904 C900 0.930 . S
H905 C902 0.929 . S
S906 N907 1.613 . S
S906 N908 1.610 . S
N907 S906 1.613 . S
N907 C910 1.350 . S
N908 S906 1.610 . S
N908 C909 1.351 . S
C909 C903 1.428 . S
C909 N908 1.351 . S
C909 C910 1.434 . S
C910 C901 1.429 . S
C910 N907 1.350 . S
C910 C909 1.434 . S
C911 C912 1.369 . S
C911 C913 1.419 . S
C911 H915 0.930 . S
C912 C911 1.369 . S
C912 C921 1.429 . S
C913 C911 1.419 . S
C913 C914 1.363 . S
C913 H916 0.929 . S
C914 C913 1.363 . S
C914 C920 1.428 . S
H915 C911 0.930 . S
H916 C913 0.929 . S
S917 N918 1.613 1_655 S
S917 N919 1.610 . S
N918 S917 1.613 1_455 S
N918 C921 1.350 1_455 S
N919 S917 1.610 . S
N919 C920 1.351 . S
C920 C914 1.428 . S
C920 N919 1.351 . S
C920 C921 1.434 . S
C921 C912 1.429 . S
C921 N918 1.350 1_655 S
C921 C920 1.434 . S
C922 C923 1.369 . S
C922 C924 1.419 . S
C922 H926 0.930 . S
C923 C922 1.369 . S
C923 C932 1.429 . S
C924 C922 1.419 . S
C924 C925 1.363 . S
C924 H927 0.929 . S
C925 C924 1.363 . S
C925 C931 1.428 . S
H926 C922 0.930 . S
H927 C924 0.929 . S
S928 N929 1.613 . S
S928 N930 1.610 . S
N929 S928 1.613 . S
N929 C932 1.350 . S
N930 S928 1.610 . S
N930 C931 1.351 . S
C931 C925 1.428 . S
C931 N930 1.351 . S
C931 C932 1.434 . S
C932 C923 1.429 . S
C932 N929 1.350 . S
C932 C931 1.434 . S
C933 C934 1.369 . S
C933 C935 1.419 . S
C933 H937 0.930 . S
C934 C933 1.369 . S
C934 C943 1.429 . S
C935 C933 1.419 . S
C935 C936 1.363 . S
C935 H938 0.929 . S
C936 C935 1.363 . S
C936 C942 1.428 . S
H937 C933 0.930 . S
H938 C935 0.929 . S
S939 N940 1.613 . S
S939 N941 1.610 . S
N940 S939 1.613 . S
N940 C943 1.350 . S
N941 S939 1.610 . S
N941 C942 1.351 . S
C942 C936 1.428 . S
C942 N941 1.351 . S
C942 C943 1.434 . S
C943 C934 1.429 . S
C943 N940 1.350 . S
C943 C942 1.434 . S
C944 C945 1.369 . S
C944 C946 1.419 . S
C944 H948 0.930 . S
C945 C944 1.369 . S
C945 C954 1.429 . S
C946 C944 1.419 . S
C946 C947 1.363 . S
C946 H949 0.929 . S
C947 C946 1.363 . S
C947 C953 1.428 . S
H948 C944 0.930 . S
H949 C946 0.929 . S
S950 N951 1.613 . S
S950 N952 1.610 . S
N951 S950 1.613 . S
N951 C954 1.350 . S
N952 S950 1.610 . S
N952 C953 1.351 . S
C953 C947 1.428 . S
C953 N952 1.351 . S
C953 C954 1.434 . S
C954 C945 1.429 . S
C954 N951 1.350 . S
C954 C953 1.434 . S
C955 C956 1.369 . S
C955 C957 1.419 . S
C955 H959 0.930 . S
C956 C955 1.369 . S
C956 C965 1.429 . S
C957 C955 1.419 . S
C957 C958 1.363 . S
C957 H960 0.929 . S
C958 C957 1.363 . S
C958 C964 1.428 . S
H959 C955 0.930 . S
H960 C957 0.929 . S
S961 N962 1.613 . S
S961 N963 1.610 . S
N962 S961 1.613 . S
N962 C965 1.350 . S
N963 S961 1.610 . S
N963 C964 1.351 . S
C964 C958 1.428 . S
C964 N963 1.351 . S
C964 C965 1.434 . S
C965 C956 1.429 . S
C965 N962 1.350 . S
C965 C964 1.434 . S
C966 C967 1.369 . S
C966 C968 1.419 . S
C966 H970 0.930 . S
C967 C966 1.369 . S
C967 C976 1.429 . S
C968 C966 1.419 . S
C968 C969 1.363 . S
C968 H971 0.929 . S
C969 C968 1.363 . S
C969 C975 1.428 . S
H970 C966 0.930 . S
H971 C968 0.929 . S
S972 N973 1.613 . S
S972 N974 1.610 . S
N973 S972 1.613 . S
N973 C976 1.350 . S
N974 S972 1.610 . S
N974 C975 1.351 . S
C975 C969 1.428 . S
C975 N974 1.351 . S
C975 C976 1.434 . S
C976 C967 1.429 . S
C976 N973 1.350 . S
C976 C975 1.434 . S
C977 C978 1.369 1_554 S
C977 C979 1.419 . S
C977 H981 0.930 . S
C978 C977 1.369 1_556 S
C978 C987 1.429 . S
C979 C977 1.419 . S
C979 C980 1.363 . S
C979 H982 0.929 . S
C980 C979 1.363 . S
C980 C986 1.428 1_554 S
H981 C977 0.930 . S
H982 C979 0.929 . S
S983 N984 1.613 . S
S983 N985 1.610 . S
N984 S983 1.613 . S
N984 C987 1.350 . S
N985 S983 1.610 . S
N985 C986 1.351 . S
C986 C980 1.428 1_556 S
C986 N985 1.351 . S
C986 C987 1.434 . S
C987 C978 1.429 . S
C987 N984 1.350 . S
C987 C986 1.434 . S
C988 C989 1.369 . S
C988 C990 1.419 . S
C988 H992 0.930 . S
C989 C988 1.369 . S
C989 C998 1.429 . S
C990 C988 1.419 . S
C990 C991 1.363 . S
C990 H993 0.929 . S
C991 C990 1.363 . S
C991 C997 1.428 . S
H992 C988 0.930 . S
H993 C990 0.929 . S
S994 N995 1.613 . S
S994 N996 1.610 . S
N995 S994 1.613 . S
N995 C998 1.350 . S
N996 S994 1.610 . S
N996 C997 1.351 . S
C997 C991 1.428 . S
C997 N996 1.351 . S
C997 C998 1.434 . S
C998 C989 1.429 . S
C998 N995 1.350 . S
C998 C997 1.434 . S
C999 C1000 1.369 . S
C999 C1001 1.419 . S
C999 H1003 0.930 . S
C1000 C999 1.369 . S
C1000 C1009 1.429 . S
C1001 C999 1.419 . S
C1001 C1002 1.363 . S
C1001 H1004 0.929 . S
C1002 C1001 1.363 . S
C1002 C1008 1.428 . S
H1003 C999 0.930 . S
H1004 C1001 0.929 . S
S1005 N1006 1.613 . S
S1005 N1007 1.610 . S
N1006 S1005 1.613 . S
N1006 C1009 1.350 . S
N1007 S1005 1.610 . S
N1007 C1008 1.351 . S
C1008 C1002 1.428 . S
C1008 N1007 1.351 . S
C1008 C1009 1.434 . S
C1009 C1000 1.429 . S
C1009 N1006 1.350 . S
C1009 C1008 1.434 . S
C1010 C1011 1.369 . S
C1010 C1012 1.419 . S
C1010 H1014 0.930 . S
C1011 C1010 1.369 . S
C1011 C1020 1.429 . S
C1012 C1010 1.419 . S
C1012 C1013 1.363 . S
C1012 H1015 0.929 . S
C1013 C1012 1.363 . S
C1013 C1019 1.428 . S
H1014 C1010 0.930 . S
H1015 C1012 0.929 . S
S1016 N1017 1.613 . S
S1016 N1018 1.610 . S
N1017 S1016 1.613 . S
N1017 C1020 1.350 . S
N1018 S1016 1.610 . S
N1018 C1019 1.351 . S
C1019 C1013 1.428 . S
C1019 N1018 1.351 . S
C1019 C1020 1.434 . S
C1020 C1011 1.429 . S
C1020 N1017 1.350 . S
C1020 C1019 1.434 . S
C1021 C1022 1.369 . S
C1021 C1023 1.419 . S
C1021 H1025 0.930 . S
C1022 C1021 1.369 . S
C1022 C1031 1.429 1_554 S
C1023 C1021 1.419 . S
C1023 C1024 1.363 1_554 S
C1023 H1026 0.929 . S
C1024 C1023 1.363 1_556 S
C1024 C1030 1.428 . S
H1025 C1021 0.930 . S
H1026 C1023 0.929 . S
S1027 N1028 1.613 . S
S1027 N1029 1.610 . S
N1028 S1027 1.613 . S
N1028 C1031 1.350 . S
N1029 S1027 1.610 . S
N1029 C1030 1.351 . S
C1030 C1024 1.428 . S
C1030 N1029 1.351 . S
C1030 C1031 1.434 . S
C1031 C1022 1.429 1_556 S
C1031 N1028 1.350 . S
C1031 C1030 1.434 . S
C1032 C1033 1.369 . S
C1032 C1034 1.419 1_565 S
C1032 H1036 0.930 . S
C1033 C1032 1.369 . S
C1033 C1042 1.429 . S
C1034 C1032 1.419 1_545 S
C1034 C1035 1.363 . S
C1034 H1037 0.929 . S
C1035 C1034 1.363 . S
C1035 C1041 1.428 . S
H1036 C1032 0.930 . S
H1037 C1034 0.929 . S
S1038 N1039 1.613 . S
S1038 N1040 1.610 1_565 S
N1039 S1038 1.613 . S
N1039 C1042 1.350 . S
N1040 S1038 1.610 1_545 S
N1040 C1041 1.351 . S
C1041 C1035 1.428 . S
C1041 N1040 1.351 . S
C1041 C1042 1.434 1_545 S
C1042 C1033 1.429 . S
C1042 N1039 1.350 . S
C1042 C1041 1.434 1_565 S
C1043 C1044 1.369 1_556 S
C1043 C1045 1.419 . S
C1043 H1047 0.930 . S
C1044 C1043 1.369 1_554 S
C1044 C1053 1.429 . S
C1045 C1043 1.419 . S
C1045 C1046 1.363 . S
C1045 H1048 0.929 . S
C1046 C1045 1.363 . S
C1046 C1052 1.428 1_556 S
H1047 C1043 0.930 . S
H1048 C1045 0.929 . S
S1049 N1050 1.613 . S
S1049 N1051 1.610 . S
N1050 S1049 1.613 . S
N1050 C1053 1.350 . S
N1051 S1049 1.610 . S
N1051 C1052 1.351 . S
C1052 C1046 1.428 1_554 S
C1052 N1051 1.351 . S
C1052 C1053 1.434 . S
C1053 C1044 1.429 . S
C1053 N1050 1.350 . S
C1053 C1052 1.434 . S
C1054 C1055 1.369 . S
C1054 C1056 1.419 1_545 S
C1054 H1058 0.930 . S
C1055 C1054 1.369 . S
C1055 C1064 1.429 . S
C1056 C1054 1.419 1_565 S
C1056 C1057 1.363 . S
C1056 H1059 0.929 . S
C1057 C1056 1.363 . S
C1057 C1063 1.428 . S
H1058 C1054 0.930 . S
H1059 C1056 0.929 . S
S1060 N1061 1.613 1_565 S
S1060 N1062 1.610 . S
N1061 S1060 1.613 1_545 S
N1061 C1064 1.350 . S
N1062 S1060 1.610 . S
N1062 C1063 1.351 . S
C1063 C1057 1.428 . S
C1063 N1062 1.351 . S
C1063 C1064 1.434 1_565 S
C1064 C1055 1.429 . S
C1064 N1061 1.350 . S
C1064 C1063 1.434 1_545 S
C1065 C1066 1.369 . S
C1065 C1067 1.419 . S
C1065 H1069 0.930 . S
C1066 C1065 1.369 . S
C1066 C1075 1.429 . S
C1067 C1065 1.419 . S
C1067 C1068 1.363 . S
C1067 H1070 0.929 . S
C1068 C1067 1.363 . S
C1068 C1074 1.428 . S
H1069 C1065 0.930 . S
H1070 C1067 0.929 . S
S1071 N1072 1.613 . S
S1071 N1073 1.610 . S
N1072 S1071 1.613 . S
N1072 C1075 1.350 . S
N1073 S1071 1.610 . S
N1073 C1074 1.351 . S
C1074 C1068 1.428 . S
C1074 N1073 1.351 . S
C1074 C1075 1.434 . S
C1075 C1066 1.429 . S
C1075 N1072 1.350 . S
C1075 C1074 1.434 . S
C1076 C1077 1.369 . S
C1076 C1078 1.419 1_545 S
C1076 H1080 0.930 . S
C1077 C1076 1.369 . S
C1077 C1086 1.429 . S
C1078 C1076 1.419 1_565 S
C1078 C1079 1.363 . S
C1078 H1081 0.929 . S
C1079 C1078 1.363 . S
C1079 C1085 1.428 . S
H1080 C1076 0.930 . S
H1081 C1078 0.929 . S
S1082 N1083 1.613 1_565 S
S1082 N1084 1.610 . S
N1083 S1082 1.613 1_545 S
N1083 C1086 1.350 . S
N1084 S1082 1.610 . S
N1084 C1085 1.351 . S
C1085 C1079 1.428 . S
C1085 N1084 1.351 . S
C1085 C1086 1.434 1_565 S
C1086 C1077 1.429 . S
C1086 N1083 1.350 . S
C1086 C1085 1.434 1_545 S
C1087 C1088 1.369 1_556 S
C1087 C1089 1.419 . S
C1087 H1091 0.930 . S
C1088 C1087 1.369 1_554 S
C1088 C1097 1.429 . S
C1089 C1087 1.419 . S
C1089 C1090 1.363 . S
C1089 H1092 0.929 . S
C1090 C1089 1.363 . S
C1090 C1096 1.428 1_556 S
H1091 C1087 0.930 . S
H1092 C1089 0.929 . S
S1093 N1094 1.613 . S
S1093 N1095 1.610 . S
N1094 S1093 1.613 . S
N1094 C1097 1.350 . S
N1095 S1093 1.610 . S
N1095 C1096 1.351 . S
C1096 C1090 1.428 1_554 S
C1096 N1095 1.351 . S
C1096 C1097 1.434 . S
C1097 C1088 1.429 . S
C1097 N1094 1.350 . S
C1097 C1096 1.434 . S
C1098 C1099 1.369 . S
C1098 C1100 1.419 1_545 S
C1098 H1102 0.930 . S
C1099 C1098 1.369 . S
C1099 C1108 1.429 . S
C1100 C1098 1.419 1_565 S
C1100 C1101 1.363 . S
C1100 H1103 0.929 . S
C1101 C1100 1.363 . S
C1101 C1107 1.428 . S
H1102 C1098 0.930 . S
H1103 C1100 0.929 . S
S1104 N1105 1.613 . S
S1104 N1106 1.610 1_545 S
N1105 S1104 1.613 . S
N1105 C1108 1.350 . S
N1106 S1104 1.610 1_565 S
N1106 C1107 1.351 . S
C1107 C1101 1.428 . S
C1107 N1106 1.351 . S
C1107 C1108 1.434 1_565 S
C1108 C1099 1.429 . S
C1108 N1105 1.350 . S
C1108 C1107 1.434 1_545 S
C1109 C1110 1.369 . S
C1109 C1111 1.419 . S
C1109 H1113 0.930 . S
C1110 C1109 1.369 . S
C1110 C1119 1.429 . S
C1111 C1109 1.419 . S
C1111 C1112 1.363 . S
C1111 H1114 0.929 . S
C1112 C1111 1.363 . S
C1112 C1118 1.428 . S
H1113 C1109 0.930 . S
H1114 C1111 0.929 . S
S1115 N1116 1.613 . S
S1115 N1117 1.610 . S
N1116 S1115 1.613 . S
N1116 C1119 1.350 . S
N1117 S1115 1.610 . S
N1117 C1118 1.351 . S
C1118 C1112 1.428 . S
C1118 N1117 1.351 . S
C1118 C1119 1.434 . S
C1119 C1110 1.429 . S
C1119 N1116 1.350 . S
C1119 C1118 1.434 . S
C417 C4 1.587 . S
C419 C283 1.588 . S
C428 C290 1.588 . S
C430 C23 1.587 . S
C439 C30 1.587 . S
C441 C309 1.587 . S
C450 C270 1.587 . S
C452 C43 1.587 . S
C461 C56 1.587 . S
C463 C257 1.587 . S
C472 C75 1.588 . S
C474 C212 1.587 . S
C483 C231 1.587 . S
C485 C82 1.588 . S
C494 C101 1.588 . S
C496 C238 1.587 . S
C505 C114 1.587 . S
C507 C387 1.588 . S
C516 C127 1.588 . S
C518 C400 1.587 . S
C527 C407 1.587 . S
C529 C134 1.587 . S
C538 C374 1.588 . S
C540 C153 1.587 . S
C549 C160 1.587 . S
C551 C361 1.588 . S
C560 C322 1.588 . S
C562 C179 1.588 . S
C571 C192 1.587 . S
C573 C335 1.587 . S
C582 C348 1.587 . S
C584 C205 1.588 . S
C593 C3 1.425 . S
C595 C120 1.454 . S
C604 C18 1.423 . S
C606 C341 1.454 1_655 S
C615 C146 1.454 . S
C617 C29 1.423 . S
C626 C42 1.422 . S
C628 C315 1.454 . S
C637 C55 1.422 . S
C639 C198 1.454 . S
C648 C367 1.454 . S
C650 C70 1.428 . S
C659 C172 1.454 . S
C661 C81 1.423 . S
C670 C393 1.454 1_655 S
C672 C96 1.423 . S
C681 C109 1.422 . S
C683 C16 1.454 . S
C692 C239 1.453 1_455 S
C694 C122 1.427 . S
C703 C44 1.454 . S
C705 C133 1.428 . S
C714 C148 1.425 . S
C716 C213 1.454 . S
C725 C94 1.454 . S
C727 C159 1.428 . S
C736 C263 1.454 . S
C738 C174 1.423 . S
C747 C68 1.455 . S
C749 C187 1.424 . S
C758 C200 1.427 . S
C760 C291 1.454 1_455 S
C769 C328 1.454 . S
C771 C211 1.428 . S
C780 C135 1.453 . S
C782 C226 1.428 . S
C791 C354 1.455 . S
C793 C237 1.424 . S
C802 C252 1.429 . S
C804 C107 1.454 1_455 S
C813 C408 1.454 . S
C815 C265 1.423 . S
C824 C161 1.453 1_455 S
C826 C278 1.428 . S
C835 C380 1.454 . S
C837 C289 1.425 . S
C846 C304 1.424 . S
C848 C185 1.454 . S
C857 C317 1.428 . S
C859 C224 1.454 . S
C868 C31 1.453 . S
C870 C330 1.426 . S
C879 C343 1.428 . S
C881 C250 1.454 . S
C890 C356 1.425 . S
C892 C5 1.454 1_655 S
C901 C369 1.422 . S
C903 C302 1.454 . S
C912 C57 1.455 1_655 S
C914 C382 1.425 . S
C923 C276 1.453 . S
C925 C395 1.426 . S
C934 C406 1.423 . S
C936 C83 1.454 . S
C945 C10 1.362 . S
C947 C62 1.366 . S
C956 C17 1.363 . S
C958 C69 1.367 . S
C967 C88 1.364 . S
C969 C36 1.367 . S
C978 C95 1.368 . S
C980 C49 1.363 . S
C989 C166 1.363 . S
C991 C108 1.367 . S
C1000 C173 1.362 . S
C1002 C121 1.366 . S
C1011 C186 1.364 . S
C1013 C140 1.367 . S
C1022 C199 1.363 . S
C1024 C147 1.365 . S
C1033 C218 1.362 . S
C1035 C264 1.367 . S
C1044 C225 1.368 . S
C1046 C277 1.364 . S
C1055 C244 1.368 . S
C1057 C296 1.363 . S
C1066 C303 1.367 . S
C1068 C251 1.365 . S
C1077 C316 1.367 . S
C1079 C368 1.362 . S
C1088 C381 1.366 . S
C1090 C329 1.363 . S
C1099 C394 1.364 . S
C1101 C342 1.364 . S
C1110 C413 1.368 . S
C1112 C355 1.362 . S
