# Generated by pormake.
# Topology wiu, (6)-cn, num edge types: 1
# Building blocks:
#     Node 0, Type 0, BuildingBlock: NUHQIS_clean_sbu_0, # of connection points: 6
#     Node 1, Type 0, BuildingBlock: NUHQIS_clean_sbu_0, # of connection points: 6
#     Node 2, Type 0, BuildingBlock: NUHQIS_clean_sbu_0, # of connection points: 6
#     Node 3, Type 0, BuildingBlock: NUHQIS_clean_sbu_0, # of connection points: 6
#     Node 4, Type 0, BuildingBlock: NUHQIS_clean_sbu_0, # of connection points: 6
#     Node 5, Type 0, BuildingBlock: NUHQIS_clean_sbu_0, # of connection points: 6
#     Node 6, Type 0, BuildingBlock: NUHQIS_clean_sbu_0, # of connection points: 6
#     Node 7, Type 0, BuildingBlock: NUHQIS_clean_sbu_0, # of connection points: 6
#     Node 8, Type 0, BuildingBlock: NUHQIS_clean_sbu_0, # of connection points: 6
#     Node 9, Type 0, BuildingBlock: NUHQIS_clean_sbu_0, # of connection points: 6
#     Node 10, Type 0, BuildingBlock: NUHQIS_clean_sbu_0, # of connection points: 6
#     Node 11, Type 0, BuildingBlock: NUHQIS_clean_sbu_0, # of connection points: 6
#     Node 12, Type 0, BuildingBlock: NUHQIS_clean_sbu_0, # of connection points: 6
#     Node 13, Type 0, BuildingBlock: NUHQIS_clean_sbu_0, # of connection points: 6
#     Node 14, Type 0, BuildingBlock: NUHQIS_clean_sbu_0, # of connection points: 6
#     Node 15, Type 0, BuildingBlock: NUHQIS_clean_sbu_0, # of connection points: 6
#     Edge 16, Type (0, 0), BuildingBlock: KIFKEQ_clean_linker_1, # of connection points: 2
#     Edge 17, Type (0, 0), BuildingBlock: KIFKEQ_clean_linker_1, # of connection points: 2
#     Edge 18, Type (0, 0), BuildingBlock: KIFKEQ_clean_linker_1, # of connection points: 2
#     Edge 19, Type (0, 0), BuildingBlock: KIFKEQ_clean_linker_1, # of connection points: 2
#     Edge 20, Type (0, 0), BuildingBlock: KIFKEQ_clean_linker_1, # of connection points: 2
#     Edge 21, Type (0, 0), BuildingBlock: KIFKEQ_clean_linker_1, # of connection points: 2
#     Edge 22, Type (0, 0), BuildingBlock: KIFKEQ_clean_linker_1, # of connection points: 2
#     Edge 23, Type (0, 0), BuildingBlock: KIFKEQ_clean_linker_1, # of connection points: 2
#     Edge 24, Type (0, 0), BuildingBlock: KIFKEQ_clean_linker_1, # of connection points: 2
#     Edge 25, Type (0, 0), BuildingBlock: KIFKEQ_clean_linker_1, # of connection points: 2
#     Edge 26, Type (0, 0), BuildingBlock: KIFKEQ_clean_linker_1, # of connection points: 2
#     Edge 27, Type (0, 0), BuildingBlock: KIFKEQ_clean_linker_1, # of connection points: 2
#     Edge 28, Type (0, 0), BuildingBlock: KIFKEQ_clean_linker_1, # of connection points: 2
#     Edge 29, Type (0, 0), BuildingBlock: KIFKEQ_clean_linker_1, # of connection points: 2
#     Edge 30, Type (0, 0), BuildingBlock: KIFKEQ_clean_linker_1, # of connection points: 2
#     Edge 31, Type (0, 0), BuildingBlock: KIFKEQ_clean_linker_1, # of connection points: 2
#     Edge 32, Type (0, 0), BuildingBlock: KIFKEQ_clean_linker_1, # of connection points: 2
#     Edge 33, Type (0, 0), BuildingBlock: KIFKEQ_clean_linker_1, # of connection points: 2
#     Edge 34, Type (0, 0), BuildingBlock: KIFKEQ_clean_linker_1, # of connection points: 2
#     Edge 35, Type (0, 0), BuildingBlock: KIFKEQ_clean_linker_1, # of connection points: 2
#     Edge 36, Type (0, 0), BuildingBlock: KIFKEQ_clean_linker_1, # of connection points: 2
#     Edge 37, Type (0, 0), BuildingBlock: KIFKEQ_clean_linker_1, # of connection points: 2
#     Edge 38, Type (0, 0), BuildingBlock: KIFKEQ_clean_linker_1, # of connection points: 2
#     Edge 39, Type (0, 0), BuildingBlock: KIFKEQ_clean_linker_1, # of connection points: 2
#     Edge 40, Type (0, 0), BuildingBlock: KIFKEQ_clean_linker_1, # of connection points: 2
#     Edge 41, Type (0, 0), BuildingBlock: KIFKEQ_clean_linker_1, # of connection points: 2
#     Edge 42, Type (0, 0), BuildingBlock: KIFKEQ_clean_linker_1, # of connection points: 2
#     Edge 43, Type (0, 0), BuildingBlock: KIFKEQ_clean_linker_1, # of connection points: 2
#     Edge 44, Type (0, 0), BuildingBlock: KIFKEQ_clean_linker_1, # of connection points: 2
#     Edge 45, Type (0, 0), BuildingBlock: KIFKEQ_clean_linker_1, # of connection points: 2
#     Edge 46, Type (0, 0), BuildingBlock: KIFKEQ_clean_linker_1, # of connection points: 2
#     Edge 47, Type (0, 0), BuildingBlock: KIFKEQ_clean_linker_1, # of connection points: 2
#     Edge 48, Type (0, 0), BuildingBlock: KIFKEQ_clean_linker_1, # of connection points: 2
#     Edge 49, Type (0, 0), BuildingBlock: KIFKEQ_clean_linker_1, # of connection points: 2
#     Edge 50, Type (0, 0), BuildingBlock: KIFKEQ_clean_linker_1, # of connection points: 2
#     Edge 51, Type (0, 0), BuildingBlock: KIFKEQ_clean_linker_1, # of connection points: 2
#     Edge 52, Type (0, 0), BuildingBlock: KIFKEQ_clean_linker_1, # of connection points: 2
#     Edge 53, Type (0, 0), BuildingBlock: KIFKEQ_clean_linker_1, # of connection points: 2
#     Edge 54, Type (0, 0), BuildingBlock: KIFKEQ_clean_linker_1, # of connection points: 2
#     Edge 55, Type (0, 0), BuildingBlock: KIFKEQ_clean_linker_1, # of connection points: 2
#     Edge 56, Type (0, 0), BuildingBlock: KIFKEQ_clean_linker_1, # of connection points: 2
#     Edge 57, Type (0, 0), BuildingBlock: KIFKEQ_clean_linker_1, # of connection points: 2
#     Edge 58, Type (0, 0), BuildingBlock: KIFKEQ_clean_linker_1, # of connection points: 2
#     Edge 59, Type (0, 0), BuildingBlock: KIFKEQ_clean_linker_1, # of connection points: 2
#     Edge 60, Type (0, 0), BuildingBlock: KIFKEQ_clean_linker_1, # of connection points: 2
#     Edge 61, Type (0, 0), BuildingBlock: KIFKEQ_clean_linker_1, # of connection points: 2
#     Edge 62, Type (0, 0), BuildingBlock: KIFKEQ_clean_linker_1, # of connection points: 2
#     Edge 63, Type (0, 0), BuildingBlock: KIFKEQ_clean_linker_1, # of connection points: 2
# Relax obj value: 0.518
# Max RMSD: 0.314
# Mean RMSD: 0.314
data_MOF--net-wiu--node1-NUHQIS_clean_sbu_0--edge1-KIFKEQ_clean_linker_1
_symmetry_space_group_name_H-M    P1
_symmetry_Int_Tables_number       1
_symmetry_cell_setting            triclinic
loop_
_symmetry_equiv_pos_as_xyz
'x, y, z'
_cell_length_a     37.97058
_cell_length_b     37.986987
_cell_length_c     56.010189
_cell_angle_alpha  89.93564
_cell_angle_beta   90.115258
_cell_angle_gamma 89.994924
loop_
_atom_site_label
_atom_site_type_symbol
_atom_site_fract_x
_atom_site_fract_y
_atom_site_fract_z
_atom_type_partial_charge
Tb0 Tb 0.3535 0.16575 0.3073 0.0
Eu1 Eu 0.40237 0.10453 0.28513 0.0
C2 C 0.4322 0.18352 0.2924 0.0
C3 C 0.34638 0.14571 0.25091 0.0
C4 C 0.3129 0.25428 0.31438 0.0
C5 C 0.32896 0.30469 0.28973 0.0
C6 C 0.33653 0.27111 0.29882 0.0
C7 C 0.28173 0.27161 0.32078 0.0
C8 C 0.27402 0.30504 0.31159 0.0
C9 C 0.2974 0.32193 0.29581 0.0
C10 C 0.31943 0.21812 0.32312 0.0
O11 O 0.32047 0.11931 0.31108 0.0
O12 O 0.34725 0.08248 0.28402 0.0
O13 O 0.39028 0.08479 0.32238 0.0
O14 O 0.37412 0.13699 0.33961 0.0
C15 C 0.31985 0.09163 0.29696 0.0
O16 O 0.42204 0.07286 0.25554 0.0
O17 O 0.44339 0.06521 0.29092 0.0
O18 O 0.43952 0.14984 0.29373 0.0
O19 O 0.3991 0.19368 0.2919 0.0
O20 O 0.3325 0.16008 0.27029 0.0
O21 O 0.37702 0.12932 0.25213 0.0
C22 C 0.38348 0.10331 0.34164 0.0
O23 O 0.30553 0.19307 0.31041 0.0
O24 O 0.3516 0.21047 0.32942 0.0
C25 C 0.48235 0.06148 0.25855 0.0
C26 C 0.54607 0.07252 0.2342 0.0
C27 C 0.52724 0.04084 0.23134 0.0
C28 C 0.49555 0.03543 0.2434 0.0
C29 C 0.50195 0.09225 0.26248 0.0
C30 C 0.53358 0.09777 0.25041 0.0
C31 C 0.44673 0.0582 0.26829 0.0
H32 H 0.34736 0.31675 0.27745 0.0
H33 H 0.36059 0.25809 0.2934 0.0
H34 H 0.26308 0.25907 0.33269 0.0
H35 H 0.24969 0.31769 0.31687 0.0
H36 H 0.53583 1.02111 0.21868 0.0
H37 H 0.48061 1.01162 0.24008 0.0
H38 H 0.49207 0.11257 0.27419 0.0
H39 H 0.54758 0.12231 0.25306 0.0
Tb40 Tb 0.64264 0.59509 0.55903 0.0
Eu41 Eu 0.70299 0.64649 0.53709 0.0
C42 C 0.62285 0.67442 0.5444 0.0
C43 C 0.66352 0.58908 0.50267 0.0
C44 C 0.55532 0.55203 0.56597 0.0
C45 C 0.50378 0.56907 0.54271 0.0
C46 C 0.5375 0.57657 0.55155 0.0
C47 C 0.53886 0.52002 0.57148 0.0
C48 C 0.50527 0.51241 0.56254 0.0
C49 C 0.48738 0.53673 0.5479 0.0
C50 C 0.59162 0.55857 0.57435 0.0
O51 O 0.69039 0.56406 0.56312 0.0
O52 O 0.72651 0.592 0.53615 0.0
O53 O 0.72083 0.63849 0.57541 0.0
O54 O 0.67111 0.61379 0.59176 0.0
C55 C 0.71801 0.56425 0.54898 0.0
O56 O 0.73339 0.66758 0.50731 0.0
O57 O 0.74271 0.68716 0.54291 0.0
O58 O 0.6564 0.68255 0.54398 0.0
O59 O 0.61305 0.64121 0.54562 0.0
O60 O 0.64866 0.57514 0.52187 0.0
O61 O 0.68001 0.61965 0.50401 0.0
C62 C 0.70304 0.62779 0.59421 0.0
O63 O 0.61644 0.54638 0.5607 0.0
O64 O 0.5988 0.59031 0.58173 0.0
C65 C 0.74522 0.72759 0.51119 0.0
C66 C 0.7331 0.79168 0.48744 0.0
C67 C 0.76481 0.77311 0.48405 0.0
C68 C 0.77074 0.74122 0.49579 0.0
C69 C 0.71456 0.74704 0.5158 0.0
C70 C 0.70849 0.77886 0.50399 0.0
C71 C 0.74873 0.69156 0.52023 0.0
H72 H 0.49093 0.58822 0.5313 0.0
H73 H 0.54985 0.60131 0.54684 0.0
H74 H 0.5522 0.50069 0.5825 0.0
H75 H 0.49326 0.48745 0.56713 0.0
H76 H 0.78405 0.78197 0.47112 0.0
H77 H 0.79445 0.7264 0.49196 0.0
H78 H 0.69467 0.73687 0.52775 0.0
H79 H 0.68394 0.79267 0.50705 0.0
Tb80 Tb 0.21176 0.88717 0.80658 0.0
Eu81 Eu 0.16098 0.9495 0.78566 0.0
C82 C 0.1308 0.86922 0.79262 0.0
C83 C 0.22047 0.91263 0.7519 0.0
C84 C 0.25384 0.79877 0.81063 0.0
C85 C 0.25567 0.73559 0.81803 0.0
C86 C 0.24988 0.77 0.82613 0.0
C87 C 0.26335 0.79242 0.78676 0.0
C88 C 0.26943 0.75811 0.77872 0.0
C89 C 0.26585 0.72916 0.79425 0.0
C90 C 0.24868 0.83509 0.81964 0.0
O91 O 0.24657 0.93239 0.8078 0.0
O92 O 0.21409 0.97586 0.78904 0.0
O93 O 0.1572 0.95628 0.8259 0.0
O94 O 0.20235 0.92059 0.83887 0.0
C95 C 0.24368 0.96394 0.79833 0.0
O96 O 0.13567 0.97516 0.75551 0.0
O97 O 0.12625 0.99473 0.79119 0.0
O98 O 0.12704 0.90023 0.78249 0.0
O99 O 0.16012 0.86088 0.80386 0.0
O100 O 0.22066 0.88586 0.76714 0.0
O101 O 0.20161 0.94084 0.75649 0.0
C102 C 0.17839 0.94536 0.84301 0.0
O103 O 0.26006 0.86048 0.80608 0.0
O104 O 0.21798 0.8425 0.82869 0.0
C105 C 0.07942 0.99624 0.7634 0.0
C106 C 1.01236 0.98815 0.74279 0.0
C107 C 0.03195 1.01917 0.73907 0.0
C108 C 0.06529 1.02308 0.74924 0.0
C109 C 0.05883 0.96666 0.76893 0.0
C110 C 1.02549 0.96261 0.75868 0.0
C111 C 0.11717 0.99638 0.76875 0.0
H112 H 0.25207 0.71403 0.83045 0.0
H113 H 0.24243 0.77415 0.84458 0.0
H114 H 0.26654 0.81399 0.77428 0.0
H115 H 0.27774 0.75445 0.76041 0.0
H116 H 1.02293 0.03916 0.72669 0.0
H117 H 0.08099 0.04594 0.74469 0.0
H118 H 0.06946 0.94572 0.77991 0.0
H119 H 1.01092 0.9386 0.76204 0.0
Tb120 Tb 0.92152 0.45696 1.05843 0.0
Eu121 Eu 0.86203 0.40395 1.03832 0.0
C122 C 0.94251 0.37849 1.04362 0.0
C123 C 0.89609 0.46272 1.00326 0.0
C124 C 1.00936 0.50088 1.06299 0.0
C125 C 0.06081 0.48216 1.04039 0.0
C126 C 1.02691 0.47545 1.04923 0.0
C127 C 1.02626 0.53282 1.06798 0.0
C128 C 0.05997 0.53962 1.05906 0.0
C129 C 0.07756 0.51455 1.04494 0.0
C130 C 0.97276 0.49561 1.07104 0.0
O131 O 0.87521 0.49036 1.05838 0.0
O132 O 0.83134 0.45434 1.04326 0.0
O133 O 0.85481 0.40233 1.07867 0.0
O134 O 0.88763 0.44989 1.0907 0.0
C135 C 0.84282 0.48515 1.05078 0.0
O136 O 0.8249 0.3834 1.01207 0.0
O137 O 0.8334 0.35509 1.04507 0.0
O138 O 0.91439 0.37758 1.03001 0.0
O139 O 0.94652 0.40448 1.05886 0.0
O140 O 0.92264 0.46446 1.01873 0.0
O141 O 0.86874 0.44263 1.00786 0.0
C142 C 0.86413 0.42492 1.09533 0.0
O143 O 0.94857 0.50507 1.0559 0.0
O144 O 0.96522 0.4655 1.08094 0.0
C145 C 0.82754 0.32153 1.01032 0.0
C146 C 0.84221 0.25918 0.98499 0.0
C147 C 0.8162 0.25963 1.00289 0.0
C148 C 0.80886 0.29063 1.01539 0.0
C149 C 0.85451 0.32083 0.99326 0.0
C150 C 0.86158 0.29011 0.9806 0.0
C151 C 0.82021 0.35397 1.02362 0.0
H152 H 0.07346 0.46241 1.02943 0.0
H153 H 1.01417 0.45071 1.04498 0.0
H154 H 1.01313 0.55281 1.07849 0.0
H155 H 0.07226 0.56461 1.0632 0.0
H156 H 0.80114 0.2362 1.00701 0.0
H157 H 0.78848 0.29053 1.02891 0.0
H158 H 0.86981 0.34424 0.98942 0.0
H159 H 0.88134 0.29115 0.96672 0.0
Tb160 Tb 0.66854 0.94067 0.9997 0.0
Eu161 Eu 0.71801 0.87914 0.97761 0.0
C162 C 0.75044 0.95379 0.98919 0.0
C163 C 0.68223 0.94017 0.94252 0.0
C164 C 0.63869 1.01099 1.03975 0.0
C165 C 0.6319 0.06655 1.06055 0.0
C166 C 0.62799 0.04626 1.0399 0.0
C167 C 0.65494 0.99669 1.06007 0.0
C168 C 0.65855 1.01673 1.08074 0.0
C169 C 0.64633 0.05169 1.08145 0.0
C170 C 0.63304 0.98928 1.01841 0.0
O171 O 0.63065 0.89818 0.99108 0.0
O172 O 0.66852 0.85174 0.99094 0.0
O173 O 0.73838 0.8852 1.01601 0.0
O174 O 0.69413 0.91875 1.03221 0.0
C175 C 0.63618 0.86392 0.99132 0.0
O176 O 0.72237 0.83401 0.95367 0.0
O177 O 0.76651 0.84834 0.97615 0.0
O178 O 0.75065 0.92788 0.97376 0.0
O179 O 0.72288 0.95984 1.00283 0.0
O180 O 0.66649 0.95381 0.96136 0.0
O181 O 0.70222 0.91168 0.94445 0.0
C182 C 0.72409 0.90118 1.03457 0.0
O183 O 0.65529 0.99435 1.00108 0.0
O184 O 0.62725 0.95585 1.02221 0.0
C185 C 0.75674 0.78793 0.97007 0.0
C186 C 0.7668 0.71948 0.98871 0.0
C187 C 0.7358 0.73835 0.9937 0.0
C188 C 0.73091 0.77234 0.98457 0.0
C189 C 0.78727 0.76891 0.96459 0.0
C190 C 0.79228 0.73502 0.97381 0.0
C191 C 0.75317 0.82468 0.96194 0.0
H192 H 0.62274 0.09354 1.06034 0.0
H193 H 0.61599 0.05791 1.0242 0.0
H194 H 0.66389 0.96964 1.06024 0.0
H195 H 0.66928 1.00409 1.09649 0.0
H196 H 0.71585 0.72732 1.0053 0.0
H197 H 0.70728 0.78673 0.98925 0.0
H198 H 0.80755 0.78053 0.95351 0.0
H199 H 0.81626 0.72104 0.96938 0.0
Tb200 Tb 0.36652 0.40984 0.74722 0.0
Eu201 Eu 0.42807 0.46158 0.72588 0.0
C202 C 0.3525 0.49232 0.7386 0.0
C203 C 0.36799 0.42595 0.69039 0.0
C204 C 0.29426 0.37878 0.7849 0.0
C205 C 0.2388 0.36862 0.80521 0.0
C206 C 0.25988 0.36543 0.78486 0.0
C207 C 0.30666 0.397 0.80499 0.0
C208 C 0.28585 0.39994 0.82533 0.0
C209 C 0.25197 0.38497 0.82597 0.0
C210 C 0.31742 0.37317 0.76427 0.0
O211 O 0.41271 0.37429 0.74714 0.0
O212 O 0.45588 0.40927 0.73117 0.0
O213 O 0.42738 0.47441 0.7661 0.0
O214 O 0.38023 0.44141 0.779 0.0
C215 C 0.44539 0.37887 0.73978 0.0
O216 O 0.47204 0.46978 0.70137 0.0
O217 O 0.45797 0.51064 0.72647 0.0
O218 O 0.37938 0.49475 0.72405 0.0
O219 O 0.34577 0.46335 0.75066 0.0
O220 O 0.35871 0.40516 0.70823 0.0
O221 O 0.39248 0.4504 0.69336 0.0
C222 C 0.40454 0.46564 0.78291 0.0
O223 O 0.31315 0.39487 0.74645 0.0
O224 O 0.35064 0.36832 0.76931 0.0
C225 C 0.51825 0.50284 0.71882 0.0
C226 C 0.58704 0.51239 0.73712 0.0
C227 C 0.56848 0.48099 0.74152 0.0
C228 C 0.53432 0.47634 0.73255 0.0
C229 C 0.53697 0.53376 0.71386 0.0
C230 C 0.57103 0.53851 0.7229 0.0
C231 C 0.48123 0.4996 0.71113 0.0
H232 H 0.21263 0.35731 0.80493 0.0
H233 H 0.24968 0.35178 0.76935 0.0
H234 H 0.33301 0.40784 0.80537 0.0
H235 H 0.29724 0.41222 0.84098 0.0
H236 H 0.57986 0.46053 0.75259 0.0
H237 H 0.52016 0.45239 0.73681 0.0
H238 H 0.52497 0.55455 0.70337 0.0
H239 H 0.58474 0.5628 0.71891 0.0
Tb240 Tb 0.89837 0.11018 0.50091 0.0
Eu241 Eu 0.84826 0.17022 0.47752 0.0
C242 C 0.81719 0.09528 0.48959 0.0
C243 C 0.88524 0.10874 0.4436 0.0
C244 C 0.92886 0.0441 0.5439 0.0
C245 C 0.93379 0.99038 0.56719 0.0
C246 C 0.93825 1.00852 0.54565 0.0
C247 C 0.91367 0.06093 0.56364 0.0
C248 C 0.9094 0.043 0.58514 0.0
C249 C 0.91999 1.00766 0.58736 0.0
C250 C 0.93444 0.06348 0.52148 0.0
O251 O 0.93551 0.15298 0.4915 0.0
O252 O 0.89695 0.19879 0.49124 0.0
O253 O 0.82699 0.16452 0.51562 0.0
O254 O 0.87202 0.13301 0.53277 0.0
C255 C 0.9295 0.18717 0.49168 0.0
O256 O 0.79879 0.1992 0.47479 0.0
O257 O 0.84343 0.21519 0.45339 0.0
O258 O 0.81717 0.12049 0.4736 0.0
O259 O 0.84433 0.09036 0.50388 0.0
O260 O 0.90035 0.09524 0.46282 0.0
O261 O 0.86563 0.13756 0.44494 0.0
C262 C 0.84145 0.14962 0.53457 0.0
O263 O 0.91205 0.05675 0.50443 0.0
O264 O 0.94034 0.09719 0.52361 0.0
C265 C 0.80685 0.25986 0.46913 0.0
C266 C 0.79375 0.32757 0.48793 0.0
C267 C 0.82459 0.30915 0.49413 0.0
C268 C 0.831 0.27553 0.4849 0.0
C269 C 0.77645 0.27838 0.46252 0.0
C270 C 0.76993 0.31192 0.47182 0.0
C271 C 0.81195 0.2234 0.46092 0.0
H272 H 0.9418 0.96306 0.56818 0.0
H273 H 0.94949 0.99493 0.53047 0.0
H274 H 0.90592 0.08829 0.56266 0.0
H275 H 0.89927 0.05744 0.60031 0.0
H276 H 0.84326 0.32024 0.50668 0.0
H277 H 0.85445 0.26149 0.49047 0.0
H278 H 0.75744 0.26663 0.45047 0.0
H279 H 0.74615 0.32558 0.46645 0.0
Tb280 Tb 0.19663 0.6387 0.24749 0.0
Eu281 Eu 0.13774 0.59003 0.22386 0.0
C282 C 0.21381 0.55812 0.23598 0.0
C283 C 0.20153 0.62365 0.19148 0.0
C284 C 0.22599 0.71495 0.27975 0.0
C285 C 0.23916 0.77106 0.29821 0.0
C286 C 0.2497 0.74232 0.28436 0.0
C287 C 0.19129 0.71719 0.28822 0.0
C288 C 0.18081 0.74572 0.30208 0.0
C289 C 0.20483 0.77257 0.3076 0.0
C290 C 0.23659 0.68414 0.26582 0.0
O291 O 0.15194 0.67432 0.23946 0.0
O292 O 0.10734 0.63505 0.24093 0.0
O293 O 0.14429 0.56792 0.26173 0.0
O294 O 0.17056 0.61556 0.27922 0.0
C295 C 0.11805 0.66781 0.24131 0.0
O296 O 0.11124 0.53998 0.21759 0.0
O297 O 0.09071 0.58736 0.20125 0.0
O298 O 0.18658 0.55687 0.22146 0.0
O299 O 0.22113 0.58648 0.24865 0.0
O300 O 0.2186 0.62897 0.2117 0.0
O301 O 0.16793 0.6142 0.19197 0.0
C302 C 0.15689 0.5836 0.28095 0.0
O303 O 0.22974 0.65389 0.27573 0.0
O304 O 0.2267 0.68478 0.24358 0.0
C305 C 0.04914 0.54658 0.21618 0.0
C306 C 0.98108 0.53539 0.2353 0.0
C307 C 0.98538 0.55073 0.21258 0.0
C308 C 1.01905 0.55617 0.20312 0.0
C309 C 0.04493 0.53109 0.23881 0.0
C310 C 1.01133 0.52541 0.24818 0.0
C311 C 0.0846 0.5545 0.20664 0.0
H312 H 0.25829 0.79125 0.3025 0.0
H313 H 0.27644 0.74111 0.2777 0.0
H314 H 0.17248 0.69645 0.28454 0.0
H315 H 0.1542 0.74636 0.30902 0.0
H316 H 0.96276 0.55915 0.20225 0.0
H317 H 1.02161 0.56841 0.18572 0.0
H318 H 0.06758 0.52355 0.24943 0.0
H319 H 1.00912 0.51296 0.26551 0.0
Tb320 Tb 0.84924 0.66548 0.80914 0.0
Eu321 Eu 0.90251 0.60703 0.78799 0.0
C322 C 0.92703 0.68829 0.79409 0.0
C323 C 0.84334 0.64222 0.75355 0.0
C324 C 0.80479 0.75212 0.81514 0.0
C325 C 0.82347 0.80331 0.7923 0.0
C326 C 0.82995 0.7693 0.80095 0.0
C327 C 0.77337 0.76947 0.82082 0.0
C328 C 0.76679 0.80334 0.81209 0.0
C329 C 0.79157 0.82052 0.7975 0.0
C330 C 0.80983 0.71537 0.82276 0.0
O331 O 0.81634 0.61877 0.80845 0.0
O332 O 0.85245 0.57572 0.7925 0.0
O333 O 0.90343 0.59629 0.82797 0.0
O334 O 0.85833 0.63157 0.84123 0.0
C335 C 0.82163 0.58675 0.80026 0.0
O336 O 0.92165 0.56938 0.76166 0.0
O337 O 0.95386 0.58192 0.79232 0.0
O338 O 0.92845 0.66001 0.78075 0.0
O339 O 0.90068 0.69247 0.80897 0.0
O340 O 0.84118 0.66806 0.76948 0.0
O341 O 0.86393 0.61506 0.7576 0.0
C342 C 0.88223 0.60667 0.84516 0.0
O343 O 0.80066 0.69178 0.80716 0.0
O344 O 0.83991 0.70763 0.83267 0.0
C345 C 0.98183 0.57863 0.75536 0.0
C346 C 0.03615 0.60046 0.72471 0.0
C347 C 0.03911 0.5687 0.73756 0.0
C348 C 1.01207 0.55787 0.75286 0.0
C349 C 0.97941 0.61082 0.74316 0.0
C350 C 1.00635 0.62172 0.72809 0.0
C351 C 0.95301 0.5679 0.77112 0.0
H352 H 0.84294 0.81568 0.78095 0.0
H353 H 0.85425 0.75615 0.79617 0.0
H354 H 0.75361 0.75656 0.83167 0.0
H355 H 0.74219 0.81604 0.81669 0.0
H356 H 0.06161 0.55158 0.73506 0.0
H357 H 1.01446 0.53313 0.76236 0.0
H358 H 0.95633 0.62731 0.74496 0.0
H359 H 1.00349 0.64643 0.7186 0.0
Tb360 Tb 0.14326 0.09787 1.05659 0.0
Eu361 Eu 0.20453 0.14683 1.03464 0.0
C362 C 0.12517 0.17597 1.04165 0.0
C363 C 0.16365 0.09002 1.00031 0.0
C364 C 0.0551 0.05676 1.06477 0.0
C365 C 1.00382 0.07157 1.04053 0.0
C366 C 0.03738 0.07997 1.04931 0.0
C367 C 0.0387 1.02516 1.07135 0.0
C368 C 1.00529 1.01663 1.06246 0.0
C369 C 0.9875 0.03961 1.04682 0.0
C370 C 0.09122 0.06418 1.07325 0.0
O371 O 0.18925 0.06391 1.0592 0.0
O372 O 0.2275 0.09216 1.03366 0.0
O373 O 0.22508 0.13396 1.0715 0.0
O374 O 0.17262 0.1186 1.0887 0.0
C375 C 0.21756 0.06407 1.04566 0.0
O376 O 0.23534 0.16732 1.00492 0.0
O377 O 0.24292 0.18887 1.04021 0.0
O378 O 0.15876 0.18316 1.04384 0.0
O379 O 0.11526 0.1429 1.04044 0.0
O380 O 0.14672 0.0778 1.01928 0.0
O381 O 0.18265 0.11908 1.00167 0.0
C382 C 0.20649 0.12736 1.09075 0.0
O383 O 0.09853 0.09675 1.0787 0.0
O384 O 0.11639 0.04987 1.0609 0.0
C385 C 0.24506 0.2278 1.00758 0.0
C386 C 0.23188 0.28984 0.98162 0.0
C387 C 0.26494 0.2731 0.98034 0.0
C388 C 0.27141 0.24225 0.99319 0.0
C389 C 0.21285 0.24553 1.0101 0.0
C390 C 0.20632 0.27637 0.99726 0.0
C391 C 0.24951 0.19238 1.01752 0.0
H392 H 0.99104 0.08969 1.02834 0.0
H393 H 0.04968 0.10435 1.04376 0.0
H394 H 0.05194 1.00683 1.08318 0.0
H395 H 0.99334 0.99201 1.0679 0.0
H396 H 0.28502 0.28245 0.96818 0.0
H397 H 0.29631 0.22872 0.99094 0.0
H398 H 0.19216 0.23465 1.02111 0.0
H399 H 0.18073 0.28879 0.99875 0.0
Tb400 Tb 0.71262 0.38676 0.30876 0.0
Eu401 Eu 0.66194 0.44651 0.28654 0.0
C402 C 0.6348 0.36651 0.29348 0.0
C403 C 0.71918 0.40659 0.25232 0.0
C404 C 0.75502 0.29928 0.31609 0.0
C405 C 0.75894 0.23608 0.32301 0.0
C406 C 0.75163 0.27011 0.33129 0.0
C407 C 0.76563 0.29376 0.29234 0.0
C408 C 0.77321 0.2598 0.28411 0.0
C409 C 0.77004 0.2304 0.29932 0.0
C410 C 0.74721 0.3351 0.32514 0.0
O411 O 0.74596 0.43338 0.31041 0.0
O412 O 0.71562 0.47137 0.28561 0.0
O413 O 0.67413 0.46769 0.32336 0.0
O414 O 0.69195 0.41604 0.34081 0.0
C415 C 0.74442 0.46191 0.29704 0.0
O416 O 0.64259 0.47955 0.25751 0.0
O417 O 0.61551 0.47969 0.29138 0.0
O418 O 0.62674 0.39989 0.29514 0.0
O419 O 0.66811 0.3572 0.29315 0.0
O420 O 0.73235 0.39063 0.27142 0.0
O421 O 0.68921 0.42415 0.25359 0.0
C422 C 0.68199 0.44958 0.34267 0.0
O423 O 0.71451 0.34155 0.33066 0.0
O424 O 0.76121 0.36131 0.31355 0.0
C425 C 0.58116 0.47796 0.25673 0.0
C426 C 0.52131 0.45824 0.23043 0.0
C427 C 0.52536 0.49315 0.2384 0.0
C428 C 0.55523 0.50297 0.25147 0.0
C429 C 0.57625 0.44276 0.24988 0.0
C430 C 0.54658 0.43297 0.23682 0.0
C431 C 0.61387 0.488 0.26884 0.0
H432 H 0.75554 0.21418 0.33518 0.0
H433 H 0.74323 0.27365 0.34961 0.0
H434 H 0.76829 0.3157 0.28011 0.0
H435 H 0.78213 0.25674 0.26589 0.0
H436 H 0.50645 0.51322 0.23342 0.0
H437 H 0.55858 0.53018 0.25679 0.0
H438 H 0.59599 0.42305 0.25394 0.0
H439 H 0.54402 0.40592 0.23096 0.0
Tb440 Tb 0.42315 0.9573 0.55826 0.0
Eu441 Eu 0.36161 0.9073 0.5365 0.0
C442 C 0.43962 0.87687 0.54553 0.0
C443 C 0.40233 0.96411 0.50192 0.0
C444 C 0.51161 0.99842 0.56517 0.0
C445 C 0.56285 0.98133 0.54179 0.0
C446 C 0.52914 0.97393 0.55064 0.0
C447 C 0.52831 0.03025 0.5708 0.0
C448 C 0.56185 0.03778 0.56184 0.0
C449 C 0.57945 1.01354 0.54707 0.0
C450 C 0.47533 0.99212 0.57358 0.0
O451 O 0.37582 0.98864 0.56275 0.0
O452 O 0.34253 0.9633 0.53334 0.0
O453 O 0.34805 0.90788 0.57586 0.0
O454 O 0.3936 0.94111 0.59114 0.0
C455 C 0.34979 0.99003 0.54733 0.0
O456 O 0.30617 0.89263 0.53378 0.0
O457 O 0.34567 0.86353 0.51397 0.0
O458 O 0.40584 0.8698 0.54664 0.0
O459 O 0.45019 0.90986 0.54463 0.0
O460 O 0.418 0.97752 0.52103 0.0
O461 O 0.38444 0.93434 0.50344 0.0
C462 C 0.36402 0.9228 0.59411 0.0
O463 O 0.4677 0.96025 0.58056 0.0
O464 O 0.45052 1.00529 0.56023 0.0
C465 C 0.29106 0.87451 0.49473 0.0
C466 C 0.25124 0.88448 0.45266 0.0
C467 C 0.23567 0.88929 0.47518 0.0
C468 C 0.25541 0.88426 0.49603 0.0
C469 C 0.30663 0.87001 0.47223 0.0
C470 C 0.28697 0.87483 0.45151 0.0
C471 C 0.3121 0.87002 0.51672 0.0
H472 H 0.57552 0.96226 0.53029 0.0
H473 H 0.51658 0.94933 0.54584 0.0
H474 H 0.5152 0.04953 0.58191 0.0
H475 H 0.57404 0.06262 0.5665 0.0
H476 H 0.20823 0.89673 0.47671 0.0
H477 H 0.24279 0.88797 0.51318 0.0
H478 H 0.33402 0.86247 0.47051 0.0
H479 H 0.29967 0.86981 0.43456 0.0
Tb480 Tb 0.16738 0.44507 0.49805 0.0
Eu481 Eu 0.21609 0.38372 0.47571 0.0
C482 C 0.24898 0.458 0.48846 0.0
C483 C 0.18051 0.44544 0.44109 0.0
C484 C 0.13677 0.51414 0.53865 0.0
C485 C 0.14987 0.57112 0.55639 0.0
C486 C 0.14387 0.55026 0.53622 0.0
C487 C 0.13635 0.49915 0.56157 0.0
C488 C 0.14204 0.51993 0.58163 0.0
C489 C 0.1486 0.55625 0.57938 0.0
C490 C 0.13075 0.49213 0.51734 0.0
O491 O 0.13014 0.40187 0.48908 0.0
O492 O 0.16801 0.35564 0.49033 0.0
O493 O 0.23525 0.38667 0.51474 0.0
O494 O 0.19587 0.42659 0.53026 0.0
C495 C 0.13565 0.36762 0.4903 0.0
O496 O 0.22001 0.33783 0.45245 0.0
O497 O 0.26585 0.35547 0.47211 0.0
O498 O 0.24872 0.43272 0.47255 0.0
O499 O 0.22147 0.46403 0.5021 0.0
O500 O 0.1695 0.46164 0.46049 0.0
O501 O 0.19578 0.41407 0.44253 0.0
C502 C 0.22348 0.40563 0.53287 0.0
O503 O 0.15157 0.49803 0.49929 0.0
O504 O 0.12611 0.45849 0.52103 0.0
C505 C 0.25835 0.2945 0.46794 0.0
C506 C 0.27314 0.22741 0.48721 0.0
C507 C 0.24264 0.24581 0.49406 0.0
C508 C 0.23541 0.27912 0.4846 0.0
C509 C 0.28847 0.27608 0.46078 0.0
C510 C 0.29584 0.24282 0.47032 0.0
C511 C 0.25213 0.33048 0.45916 0.0
H512 H 0.15499 0.59894 0.55398 0.0
H513 H 0.14458 0.56241 0.51872 0.0
H514 H 0.1311 0.47138 0.56414 0.0
H515 H 0.13984 0.50756 0.59899 0.0
H516 H 0.22486 0.23487 0.50722 0.0
H517 H 0.2122 0.29313 0.49059 0.0
H518 H 0.30655 0.28762 0.44804 0.0
H519 H 0.31932 0.22916 0.46447 0.0
Tb520 Tb 0.8624 0.90817 0.2521 0.0
Eu521 Eu 0.92434 0.95653 0.22965 0.0
C522 C 0.8506 0.99026 0.24352 0.0
C523 C 0.86175 0.92228 0.19518 0.0
C524 C 0.79323 0.87756 0.29253 0.0
C525 C 0.73744 0.87142 0.31318 0.0
C526 C 0.75794 0.8668 0.2927 0.0
C527 C 0.80732 0.89447 0.31265 0.0
C528 C 0.78703 0.89884 0.33312 0.0
C529 C 0.75205 0.88669 0.33386 0.0
C530 C 0.8151 0.87155 0.27131 0.0
O531 O 0.90509 0.87054 0.24283 0.0
O532 O 0.9519 0.90776 0.24383 0.0
O533 O 0.9228 0.97471 0.26883 0.0
O534 O 0.88133 0.9367 0.28415 0.0
C535 C 0.93945 0.87557 0.24377 0.0
O536 O 0.97016 0.95995 0.20628 0.0
O537 O 0.95313 1.00596 0.22585 0.0
O538 O 0.87582 0.99036 0.22755 0.0
O539 O 0.8442 0.96232 0.25671 0.0
O540 O 0.84543 0.91139 0.21459 0.0
O541 O 0.8934 0.93694 0.19657 0.0
C542 C 0.90331 0.96348 0.28686 0.0
O543 O 0.80928 0.89272 0.25342 0.0
O544 O 0.84872 0.86705 0.27524 0.0
C545 C 1.01407 0.99805 0.22132 0.0
C546 C 0.08169 1.01261 0.23989 0.0
C547 C 0.06321 0.98235 0.24715 0.0
C548 C 1.02963 0.97523 0.23803 0.0
C549 C 0.03258 1.0279 0.21373 0.0
C550 C 0.06609 0.03514 0.22292 0.0
C551 C 0.97786 0.99201 0.21283 0.0
H552 H 0.71045 0.86222 0.31301 0.0
H553 H 0.74645 0.85428 0.27716 0.0
H554 H 0.83438 0.90342 0.31285 0.0
H555 H 0.79948 0.91017 0.34873 0.0
H556 H 0.07429 0.96469 0.26037 0.0
H557 H 1.01556 0.95221 0.24433 0.0
H558 H 1.02093 0.04587 0.20092 0.0
H559 H 0.0798 0.05843 0.21674 0.0
Tb560 Tb 0.39747 0.60807 0.99781 0.0
Eu561 Eu 0.34757 0.66882 0.97531 0.0
C562 C 0.31601 0.59391 0.98702 0.0
C563 C 0.38436 0.6081 0.94062 0.0
C564 C 0.42831 0.54115 1.04021 0.0
C565 C 0.40901 0.48832 1.06112 0.0
C566 C 0.4152 0.50653 1.03979 0.0
C567 C 0.43527 0.55711 1.06232 0.0
C568 C 0.42918 0.539 1.0835 0.0
C569 C 0.4159 0.50444 1.08322 0.0
C570 C 0.43358 0.561 1.01779 0.0
O571 O 0.43464 0.65103 0.9889 0.0
O572 O 0.39634 0.69703 0.98919 0.0
O573 O 0.32722 0.66302 1.0137 0.0
O574 O 0.37157 0.62969 1.03012 0.0
C575 C 0.42881 0.68522 0.98956 0.0
O576 O 0.34274 0.71419 0.95155 0.0
O577 O 0.29814 0.69794 0.97291 0.0
O578 O 0.31597 0.6194 0.97124 0.0
O579 O 0.34336 0.58848 1.00103 0.0
O580 O 0.39917 0.59388 0.95967 0.0
O581 O 0.365 0.63704 0.9423 0.0
C582 C 0.34154 0.64713 1.03235 0.0
O583 O 0.41124 0.55462 1.00062 0.0
O584 O 0.43982 0.59464 1.01999 0.0
C585 C 0.30606 0.75866 0.96738 0.0
C586 C 0.29296 0.8265 0.98594 0.0
C587 C 0.32363 0.80798 0.9924 0.0
C588 C 0.33004 0.7743 0.98329 0.0
C589 C 0.27583 0.77725 0.96053 0.0
C590 C 0.26931 0.81086 0.96971 0.0
C591 C 0.31125 0.72226 0.95912 0.0
H592 H 0.3989 0.4617 1.0603 0.0
H593 H 0.40964 0.49356 1.02299 0.0
H594 H 0.44558 0.58364 1.06337 0.0
H595 H 0.43588 0.5519 1.10013 0.0
H596 H 0.34217 0.81908 1.00504 0.0
H597 H 0.35337 0.76019 0.98901 0.0
H598 H 0.25697 0.76555 0.94836 0.0
H599 H 0.24567 0.82459 0.96415 0.0
Tb600 Tb 0.70168 0.14071 0.75079 0.0
Eu601 Eu 0.63929 0.09303 0.72837 0.0
C602 C 0.7137 0.05925 0.74017 0.0
C603 C 0.70182 0.12779 0.69394 0.0
C604 C 0.76974 0.17044 0.79228 0.0
C605 C 0.82606 0.17134 0.81288 0.0
C606 C 0.80603 0.17716 0.79226 0.0
C607 C 0.75397 0.15651 0.81287 0.0
C608 C 0.7738 0.15102 0.83347 0.0
C609 C 0.81 0.15892 0.83392 0.0
C610 C 0.74864 0.17698 0.77068 0.0
O611 O 0.65917 0.17801 0.74057 0.0
O612 O 0.61298 0.14085 0.74457 0.0
O613 O 0.64301 0.07259 0.767 0.0
O614 O 0.68262 0.11216 0.78278 0.0
C615 C 0.62501 0.17305 0.74308 0.0
O616 O 0.60906 0.04444 0.72447 0.0
O617 O 0.59303 0.09123 0.7052 0.0
O618 O 0.68764 0.05959 0.72476 0.0
O619 O 0.72037 0.08648 0.75394 0.0
O620 O 0.7184 0.13832 0.71336 0.0
O621 O 0.67006 0.11325 0.69533 0.0
C622 C 0.66193 0.08433 0.7852 0.0
O623 O 0.75483 0.15595 0.75281 0.0
O624 O 0.71494 0.1819 0.77396 0.0
C625 C 0.54817 0.05412 0.7202 0.0
C626 C 0.48012 0.04144 0.7387 0.0
C627 C 0.49899 0.07179 0.74532 0.0
C628 C 0.53277 0.07797 0.73626 0.0
C629 C 0.52925 1.02418 0.71324 0.0
C630 C 0.49556 1.01786 0.7224 0.0
C631 C 0.58451 0.0593 0.71166 0.0
H632 H 0.85395 0.17723 0.81247 0.0
H633 H 0.81878 0.18728 0.77639 0.0
H634 H 0.72609 0.15057 0.81329 0.0
H635 H 0.76023 0.14207 0.84934 0.0
H636 H 0.48806 0.09025 0.75803 0.0
H637 H 0.5471 0.10108 0.74209 0.0
H638 H 0.54072 1.00542 0.70094 0.0
H639 H 0.48159 0.99445 0.71673 0.0
H640 H 0.5032 0.17293 0.28377 0.0
H641 H 0.42914 0.25562 0.29933 0.0
H642 H 0.55086 0.21562 0.28273 0.0
H643 H 0.47691 0.29837 0.29967 0.0
H644 H 0.56436 0.3765 0.28331 0.0
H645 H 0.51693 0.3336 0.28178 0.0
H646 H 0.59059 0.25136 0.30071 0.0
H647 H 0.63828 0.29437 0.30084 0.0
C648 C 0.49695 0.20025 0.28713 0.0
C649 C 0.46181 0.21039 0.29151 0.0
C650 C 0.52469 0.2251 0.28677 0.0
C651 C 0.51873 0.2613 0.29119 0.0
C652 C 0.48339 0.2713 0.29565 0.0
C653 C 0.45558 0.24648 0.29563 0.0
C654 C 0.57059 0.34922 0.28702 0.0
C655 C 0.60561 0.33928 0.29215 0.0
C656 C 0.54298 0.32427 0.28638 0.0
C657 C 0.54892 0.28818 0.29127 0.0
C658 C 0.58417 0.27835 0.29637 0.0
C659 C 0.6119 0.30329 0.29661 0.0
H660 H 0.63162 0.74453 0.53245 0.0
H661 H 0.55145 0.67127 0.55459 0.0
H662 H 0.58849 0.79178 0.5318 0.0
H663 H 0.50829 0.71882 0.55512 0.0
H664 H 0.42834 0.80562 0.53836 0.0
H665 H 0.47108 0.7578 0.53704 0.0
H666 H 0.55474 0.83212 0.55103 0.0
H667 H 0.51199 0.8799 0.55116 0.0
C668 C 0.60479 0.73839 0.53737 0.0
C669 C 0.59548 0.70359 0.54355 0.0
C670 C 0.57971 0.7659 0.53722 0.0
C671 C 0.54412 0.76009 0.54358 0.0
C672 C 0.53488 0.72507 0.54969 0.0
C673 C 0.55993 0.69745 0.54952 0.0
C674 C 0.45588 0.81186 0.54108 0.0
C675 C 0.46631 0.84709 0.54479 0.0
C676 C 0.48072 0.78409 0.54052 0.0
C677 C 0.51717 0.79018 0.54394 0.0
C678 C 0.52743 0.82559 0.54778 0.0
C679 C 0.50262 0.85337 0.54804 0.0
H680 H 0.13249 0.79757 0.80163 0.0
H681 H 0.0602 0.88026 0.782 0.0
H682 H 0.08402 0.75506 0.80123 0.0
H683 H 1.0116 0.83782 0.78201 0.0
H684 H 0.92771 0.757 0.81077 0.0
H685 H 0.97577 0.80012 0.80965 0.0
H686 H 0.04184 0.72442 0.77399 0.0
H687 H 0.99369 0.68156 0.77476 0.0
C688 C 0.1063 0.80686 0.79721 0.0
C689 C 0.10075 0.84278 0.79184 0.0
C690 C 0.07832 0.78225 0.79688 0.0
C691 C 0.04341 0.79259 0.79162 0.0
C692 C 0.03782 0.82856 0.78635 0.0
C693 C 0.06594 0.85305 0.78621 0.0
C694 C 0.9524 0.74948 0.80258 0.0
C695 C 0.95638 0.71542 0.79286 0.0
C696 C 0.9801 0.77442 0.80184 0.0
C697 C 1.01319 0.76613 0.79179 0.0
C698 C 1.01713 0.73203 0.78211 0.0
C699 C 0.98923 0.70733 0.78243 0.0
H700 H 0.13631 0.24773 1.04508 0.0
H701 H 0.05246 0.17223 1.03666 0.0
H702 H 0.09347 0.29554 1.04472 0.0
H703 H 1.00933 0.22007 1.03676 0.0
H704 H 0.94056 0.3165 1.01749 0.0
H705 H 0.98367 0.26871 1.01629 0.0
H706 H 0.04914 0.32501 1.06642 0.0
H707 H 1.00634 0.37293 1.06725 0.0
C708 C 0.10872 0.24114 1.04314 0.0
C709 C 0.0983 0.20561 1.04087 0.0
C710 C 0.08384 0.26883 1.04313 0.0
C711 C 0.04733 0.26233 1.04082 0.0
C712 C 0.03695 0.22675 1.03831 0.0
C713 C 0.06188 0.199 1.03839 0.0
C714 C 0.9642 0.31887 1.02822 0.0
C715 C 0.96958 0.34907 1.04246 0.0
C716 C 0.98904 0.29108 1.02768 0.0
C717 C 1.02047 0.29233 1.04126 0.0
C718 C 1.02584 0.32273 1.05537 0.0
C719 C 1.00095 0.35041 1.05599 0.0
H720 H 0.63716 0.79225 0.98306 0.0
H721 H 0.56506 0.87611 0.99995 0.0
H722 H 0.5887 0.75049 0.98238 0.0
H723 H 0.51642 0.83411 1.00051 0.0
H724 H 0.42753 0.75722 0.98226 0.0
H725 H 0.47593 0.79918 0.98243 0.0
H726 H 0.54828 0.71515 0.99987 0.0
H727 H 0.49982 0.67307 0.99844 0.0
C728 C 0.61094 0.80189 0.98692 0.0
C729 C 0.60555 0.83803 0.99155 0.0
C730 C 0.58273 0.77756 0.98671 0.0
C731 C 0.54764 0.78801 0.99145 0.0
C732 C 0.5424 0.82429 0.99628 0.0
C733 C 0.57064 0.84873 0.99616 0.0
C734 C 0.45377 0.74755 0.98612 0.0
C735 C 0.45926 0.71128 0.99027 0.0
C736 C 0.48193 0.77198 0.98642 0.0
C737 C 0.51703 0.76146 0.99121 0.0
C738 C 0.52232 0.72505 0.99559 0.0
C739 C 0.49417 0.70055 0.99497 0.0
H740 H 0.63827 0.24512 0.74404 0.0
H741 H 0.55238 0.17099 0.74251 0.0
H742 H 0.59611 0.29379 0.74426 0.0
H743 H 0.51032 0.21924 0.74183 0.0
H744 H 0.43756 0.3118 0.75909 0.0
H745 H 0.4803 0.26383 0.76086 0.0
H746 H 0.55616 0.32879 0.72406 0.0
H747 H 0.51388 0.3769 0.72314 0.0
C748 C 0.61041 0.23905 0.74364 0.0
C749 C 0.59919 0.20366 0.74332 0.0
C750 C 0.58591 0.26722 0.74358 0.0
C751 C 0.54905 0.26125 0.74303 0.0
C752 C 0.53804 0.2257 0.74271 0.0
C753 C 0.56248 0.19764 0.74293 0.0
C754 C 0.46337 0.31597 0.75141 0.0
C755 C 0.47177 0.34873 0.74097 0.0
C756 C 0.48814 0.28809 0.75225 0.0
C757 C 0.52241 0.29159 0.74256 0.0
C758 C 0.53068 0.3245 0.73216 0.0
C759 C 0.50601 0.35238 0.73145 0.0
H760 H 0.13716 0.29563 0.48355 0.0
H761 H 0.06429 0.37969 0.49831 0.0
H762 H 0.08906 0.25348 0.48358 0.0
H763 H 1.01597 0.33734 0.49963 0.0
H764 H 0.92768 0.25889 0.48323 0.0
H765 H 0.9757 0.30123 0.48262 0.0
H766 H 0.04881 0.21845 0.50134 0.0
H767 H 1.0007 0.17593 0.50066 0.0
C768 C 0.11083 0.30525 0.48708 0.0
C769 C 0.10514 0.34156 0.4909 0.0
C770 C 0.08281 0.28069 0.4873 0.0
C771 C 0.04759 0.29105 0.4917 0.0
C772 C 0.04205 0.32752 0.4957 0.0
C773 C 0.0701 0.35219 0.49514 0.0
C774 C 0.95401 0.24957 0.4872 0.0
C775 C 0.95979 0.21349 0.49195 0.0
C776 C 0.98197 0.27424 0.48705 0.0
C777 C 1.01718 0.26421 0.49195 0.0
C778 C 1.02277 0.228 0.49693 0.0
C779 C 0.99481 0.20323 0.49675 0.0
H780 H 0.0458 0.66626 0.23416 0.0
H781 H 0.12962 0.73828 0.25142 0.0
H782 H 1.00367 0.71466 0.23457 0.0
H783 H 0.08752 0.78656 0.25316 0.0
H784 H 1.01138 0.87614 0.23659 0.0
H785 H 0.05282 0.82747 0.23593 0.0
H786 H 0.96817 0.75524 0.25193 0.0
H787 H 0.92648 0.8042 0.25131 0.0
C788 C 0.05533 0.69241 0.23835 0.0
C789 C 0.09157 0.69787 0.24265 0.0
C790 C 0.03083 0.72058 0.23876 0.0
C791 C 0.04128 0.75561 0.24384 0.0
C792 C 0.07764 0.76075 0.24856 0.0
C793 C 0.10217 0.73265 0.24779 0.0
C794 C 1.00143 0.84989 0.23998 0.0
C795 C 0.96509 0.84466 0.24399 0.0
C796 C 1.02559 0.82152 0.23981 0.0
C797 C 1.01481 0.78636 0.244 0.0
C798 C 0.9783 0.78126 0.24818 0.0
C799 C 0.95403 0.80969 0.24801 0.0
H800 H 0.55767 0.13414 0.21045 0.0
H801 H 0.60017 0.02963 0.22033 0.0
H802 H 0.59501 0.14231 0.17559 0.0
H803 H 0.63671 0.0374 0.18507 0.0
H804 H 0.69401 0.05094 1.1186 0.0
H805 H 0.68183 0.06727 0.15996 0.0
H806 H 0.58189 0.11113 1.13806 0.0
H807 H 0.59335 0.09415 1.0973 0.0
C808 C 0.57593 0.1134 0.20574 0.0
C809 C 0.57544 0.08089 0.21777 0.0
C810 C 0.59718 0.11805 0.18568 0.0
C811 C 0.61821 0.09028 0.17732 0.0
C812 C 0.62082 0.05936 0.19105 0.0
C813 C 0.59956 0.0547 0.21109 0.0
C814 C 0.66976 0.06472 1.12258 0.0
C815 C 0.64425 0.07037 1.1047 0.0
C816 C 0.66295 0.07425 0.14622 0.0
C817 C 0.63074 0.09001 0.15229 0.0
C818 C 0.60713 0.0993 1.13398 0.0
C819 C 0.61374 0.08948 1.11047 0.0
H820 H 0.67073 0.8024 0.46435 0.0
H821 H 0.7749 0.84633 0.47299 0.0
H822 H 0.66158 0.8388 0.42906 0.0
H823 H 0.76615 0.88195 0.43735 0.0
H824 H 0.75219 0.93608 0.36984 0.0
H825 H 0.73576 0.92567 0.41141 0.0
H826 H 0.69251 0.82462 0.39167 0.0
H827 H 0.70956 0.83437 0.35071 0.0
C828 C 0.69116 0.82084 0.45929 0.0
C829 C 0.7239 0.82094 0.47107 0.0
C830 C 0.68595 0.84154 0.43898 0.0
C831 C 0.71339 0.86262 0.43014 0.0
C832 C 0.74444 0.86599 0.44367 0.0
C833 C 0.74966 0.84528 0.46396 0.0
C834 C 0.73848 0.91197 0.37433 0.0
C835 C 0.73308 0.88564 0.35703 0.0
C836 C 0.72889 0.90617 0.39809 0.0
C837 C 0.71334 0.87415 0.40486 0.0
C838 C 0.70419 0.84973 0.38706 0.0
C839 C 0.71406 0.85535 0.36342 0.0
H840 H 0.99852 0.92621 0.72002 0.0
H841 H 0.95909 0.03215 0.72845 0.0
H842 H 0.9626 0.91904 0.68437 0.0
H843 H 0.92416 1.02541 0.69229 0.0
H844 H 0.87116 1.01326 0.62346 0.0
H845 H 0.88029 0.9981 0.66543 0.0
H846 H 0.9791 0.94868 0.6472 0.0
H847 H 0.97054 0.96433 0.60579 0.0
C848 C 0.98112 0.94751 0.71487 0.0
C849 C 0.98232 0.98013 0.72671 0.0
C850 C 0.96074 0.94345 0.69428 0.0
C851 C 0.94134 0.97195 0.68515 0.0
C852 C 0.93891 1.00293 0.69878 0.0
C853 C 0.95922 1.00697 0.7194 0.0
C854 C 0.89451 0.99858 0.62839 0.0
C855 C 0.92051 0.99073 0.61131 0.0
C856 C 0.89959 0.98973 0.6524 0.0
C857 C 0.93056 0.97255 0.65969 0.0
C858 C 0.95472 0.96157 0.64222 0.0
C859 C 0.94981 0.97063 0.61833 0.0
H860 H 0.79089 0.21499 0.96834 0.0
H861 H 0.90317 0.23354 0.96486 0.0
H862 H 0.795 0.17576 0.93448 0.0
H863 H 0.90678 0.19518 0.92998 0.0
H864 H 0.80359 0.11174 0.87105 0.0
H865 H 0.82097 0.1223 0.91243 0.0
H866 H 0.87823 0.21491 0.89041 0.0
H867 H 0.85983 0.20556 0.84954 0.0
C868 C 0.81672 0.20974 0.96101 0.0
C869 C 0.84653 0.2283 0.96896 0.0
C870 C 0.81906 0.18709 0.94151 0.0
C871 C 0.85114 0.18288 0.92941 0.0
C872 C 0.88167 0.19834 0.93888 0.0
C873 C 0.87945 0.22058 0.95866 0.0
C874 C 0.82048 0.13398 0.87497 0.0
C875 C 0.82932 0.15845 0.85704 0.0
C876 C 0.8307 0.13974 0.89861 0.0
C877 C 0.85051 0.16964 0.90461 0.0
C878 C 0.86314 0.19148 0.88628 0.0
C879 C 0.85249 0.18607 0.86274 0.0
H880 H 0.21349 0.32935 0.84244 0.0
H881 H 0.2484 0.43365 0.86236 0.0
H882 H 0.19647 0.31799 0.88323 0.0
H883 H 0.23216 0.42159 0.90376 0.0
H884 H 0.27216 0.34569 0.96706 0.0
H885 H 0.26405 0.37955 0.93052 0.0
H886 H 0.16256 0.33066 0.91979 0.0
H887 H 0.17111 0.296 0.9559 0.0
C888 C 0.21631 0.35045 0.85528 0.0
C889 C 0.23309 0.38216 0.84913 0.0
C890 C 0.2065 0.34388 0.87882 0.0
C891 C 0.21347 0.36873 0.89679 0.0
C892 C 0.22698 0.40178 0.8903 0.0
C893 C 0.23646 0.40854 0.86663 0.0
C894 C 0.24772 0.34289 0.95723 0.0
C895 C 0.2227 0.31759 0.96404 0.0
C896 C 0.24285 0.3626 0.93643 0.0
C897 C 0.2129 0.35726 0.92208 0.0
C898 C 0.18609 0.33494 0.93036 0.0
C899 C 0.19094 0.31525 0.95116 0.0
H900 H 0.27095 0.91034 0.40908 0.0
H901 H 0.18335 0.86178 0.44556 0.0
H902 H 0.24616 0.89331 0.37113 0.0
H903 H 0.15647 0.8478 0.40738 0.0
H904 H 0.17521 0.76103 0.35072 0.0
H905 H 0.17257 0.8011 0.38394 0.0
H906 H 0.21016 0.88552 0.33862 0.0
H907 H 0.21455 0.84406 0.30542 0.0
C908 C 0.24573 0.89702 0.40895 0.0
C909 C 0.23011 0.88574 0.43035 0.0
C910 C 0.23104 0.88773 0.38703 0.0
C911 C 0.19992 0.86765 0.38608 0.0
C912 C 0.18131 0.8618 0.40745 0.0
C913 C 0.19652 0.87029 0.42943 0.0
C914 C 0.18195 0.78838 0.34766 0.0
C915 C 0.19574 0.79933 0.32568 0.0
C916 C 0.18017 0.81169 0.36676 0.0
C917 C 0.1918 0.84671 0.36427 0.0
C918 C 0.202 0.85854 0.34145 0.0
C919 C 0.20444 0.83491 0.3224 0.0
H920 H 0.12117 0.62252 0.58546 0.0
H921 H 0.17825 0.54084 0.62286 0.0
H922 H 0.10582 0.64932 0.62328 0.0
H923 H 0.1599 0.56545 0.66062 0.0
H924 H 0.10846 0.59731 0.7264 0.0
H925 H 0.14892 0.60277 0.69265 0.0
H926 H 0.0606 0.62728 0.64653 0.0
H927 H 1.02123 0.62296 0.67996 0.0
C928 C 0.13134 0.61073 0.60167 0.0
C929 C 0.1495 0.57851 0.60116 0.0
C930 C 0.12209 0.6259 0.62346 0.0
C931 C 0.12987 0.60852 0.64505 0.0
C932 C 0.15273 0.5794 0.64446 0.0
C933 C 0.1628 0.56481 0.6227 0.0
C934 C 0.09807 0.60461 0.70906 0.0
C935 C 0.0617 0.6093 0.70572 0.0
C936 C 0.12117 0.60779 0.68974 0.0
C937 C 0.10817 0.61508 0.66668 0.0
C938 C 0.07202 0.62229 0.66393 0.0
C939 C 0.04916 0.61952 0.68319 0.0
H940 H 0.5308 0.42425 0.18858 0.0
H941 H 0.45067 0.47345 0.23168 0.0
H942 H 0.49114 0.42267 0.15503 0.0
H943 H 0.40947 0.47023 0.19816 0.0
H944 H 0.39165 0.52896 1.12597 0.0
H945 H 0.40572 0.50494 0.16472 0.0
H946 H 0.44367 0.40957 1.13127 0.0
H947 H 0.43259 0.43536 1.09225 0.0
C948 C 0.50404 0.43339 0.19114 0.0
C949 C 0.49399 0.44962 0.21254 0.0
C950 C 0.48095 0.43226 0.17183 0.0
C951 C 0.44703 0.44704 0.17353 0.0
C952 C 0.43571 0.45963 0.19591 0.0
C953 C 0.45918 0.46139 0.21515 0.0
C954 C 0.40261 0.50266 1.1269 0.0
C955 C 0.41269 0.48485 1.10605 0.0
C956 C 0.41018 0.48847 0.14927 0.0
C957 C 0.42735 0.45575 0.15125 0.0
C958 C 0.43192 0.43552 1.13041 0.0
C959 C 0.42511 0.45013 1.10797 0.0
H960 H 0.2338 0.34354 0.27815 0.0
H961 H 0.3404 0.37949 0.28949 0.0
H962 H 0.21815 0.40079 0.26164 0.0
H963 H 0.32483 0.43686 0.27245 0.0
H964 H 0.26489 0.54583 0.26985 0.0
H965 H 0.28792 0.48885 0.28271 0.0
H966 H 0.22929 0.43773 0.22648 0.0
H967 H 0.20604 0.49443 0.21371 0.0
C968 C 0.25392 0.3637 0.27714 0.0
C969 C 0.28832 0.35691 0.28528 0.0
C970 C 0.24505 0.39643 0.26739 0.0
C971 C 0.27027 0.42344 0.26557 0.0
C972 C 0.30473 0.41671 0.27367 0.0
C973 C 0.31371 0.38376 0.28328 0.0
C974 C 0.25749 0.52257 0.25987 0.0
C975 C 0.23334 0.52486 0.24081 0.0
C976 C 0.27072 0.48984 0.26728 0.0
C977 C 0.26003 0.45862 0.25587 0.0
C978 C 0.23751 0.46116 0.23598 0.0
C979 C 0.2244 0.49381 0.22853 0.0
H980 H 0.46603 0.47432 0.52837 0.0
H981 H 0.42905 0.57922 0.54418 0.0
H982 H 0.40831 0.4592 0.51233 0.0
H983 H 0.37129 0.56428 0.52757 0.0
H984 H 0.26298 0.50493 0.52445 0.0
H985 H 0.32045 0.52632 0.53744 0.0
H986 H 0.36957 0.47236 0.47844 0.0
H987 H 0.31225 0.45063 0.46553 0.0
C988 C 0.44555 0.49417 0.52844 0.0
C989 C 0.45216 0.52794 0.53769 0.0
C990 C 0.41254 0.48563 0.51896 0.0
C991 C 0.38516 0.51057 0.51854 0.0
C992 C 0.39174 0.5444 0.52773 0.0
C993 C 0.42491 0.55304 0.53708 0.0
C994 C 0.28592 0.49815 0.51394 0.0
C995 C 0.28289 0.47587 0.49397 0.0
C996 C 0.31892 0.51047 0.52142 0.0
C997 C 0.34971 0.50073 0.50915 0.0
C998 C 0.34647 0.47984 0.48855 0.0
C999 C 0.3135 0.46761 0.48103 0.0
H1000 H 0.29757 0.67521 0.81901 0.0
H1001 H 0.25225 0.70009 0.75015 0.0
H1002 H 0.31299 0.61676 0.80461 0.0
H1003 H 0.26875 0.64185 0.73563 0.0
H1004 H 0.35068 0.55453 0.71377 0.0
H1005 H 0.32572 0.6105 0.72689 0.0
H1006 H 0.28573 0.56023 0.79045 0.0
H1007 H 0.3105 0.50424 0.77737 0.0
C1008 C 0.29039 0.66817 0.80092 0.0
C1009 C 0.27371 0.69267 0.78578 0.0
C1010 C 0.29935 0.63459 0.79265 0.0
C1011 C 0.29216 0.62469 0.76895 0.0
C1012 C 0.27502 0.64885 0.75389 0.0
C1013 C 0.26572 0.68232 0.76223 0.0
C1014 C 0.33602 0.55525 0.73033 0.0
C1015 C 0.33267 0.52486 0.74451 0.0
C1016 C 0.32164 0.58733 0.73782 0.0
C1017 C 0.30399 0.58986 0.7598 0.0
C1018 C 0.29951 0.55921 0.77355 0.0
C1019 C 0.31347 0.52704 0.76592 0.0
H1020 H 0.09889 0.57605 1.02418 0.0
H1021 H 0.13587 0.47178 1.04202 0.0
H1022 H 0.15668 0.59079 1.00834 0.0
H1023 H 0.19381 0.48633 1.02557 0.0
H1024 H 0.30191 0.5469 1.02302 0.0
H1025 H 0.24443 0.52476 1.03535 0.0
H1026 H 0.19606 0.57712 0.97519 0.0
H1027 H 0.25333 0.59962 0.96299 0.0
C1028 C 0.11938 0.55623 1.02471 0.0
C1029 C 0.11276 0.5228 1.03454 0.0
C1030 C 0.15245 0.56454 1.01534 0.0
C1031 C 0.17993 0.5397 1.01556 0.0
C1032 C 0.1733 0.50613 1.02522 0.0
C1033 C 0.14004 0.49771 1.03448 0.0
C1034 C 0.27915 0.55316 1.01213 0.0
C1035 C 0.28234 0.57532 0.99208 0.0
C1036 C 0.24614 0.5404 1.01921 0.0
C1037 C 0.21552 0.54953 1.00645 0.0
C1038 C 0.219 0.57013 0.9857 0.0
C1039 C 0.25195 0.58282 0.97859 0.0
H1040 H 0.79092 0.49582 1.01753 0.0
H1041 H 0.84684 0.54716 1.07495 0.0
H1042 H 0.768 0.55278 1.00435 0.0
H1043 H 0.8236 0.60384 1.06204 0.0
H1044 H 0.82771 0.69573 1.00896 0.0
H1045 H 0.83934 0.63855 1.02685 0.0
H1046 H 0.73224 0.60666 1.01236 0.0
H1047 H 0.72075 0.66405 0.99384 0.0
C1048 C 0.79721 0.51904 1.0279 0.0
C1049 C 0.82091 0.51701 1.04718 0.0
C1050 C 0.78421 0.55175 1.02026 0.0
C1051 C 0.79463 0.58295 1.03182 0.0
C1052 C 0.81579 0.58041 1.05238 0.0
C1053 C 0.82884 0.54787 1.05992 0.0
C1054 C 0.80665 0.6765 1.00943 0.0
C1055 C 0.77337 0.68443 0.99983 0.0
C1056 C 0.81316 0.64384 1.02001 0.0
C1057 C 0.7866 0.61809 1.02127 0.0
C1058 C 0.75325 0.6259 1.01166 0.0
C1059 C 0.74663 0.65882 1.00118 0.0
H1060 H 0.61062 0.57251 0.75838 0.0
H1061 H 0.64292 0.46655 0.74119 0.0
H1062 H 0.66787 0.58373 0.7763 0.0
H1063 H 0.7004 0.47759 0.75976 0.0
H1064 H 0.81105 0.53624 0.76612 0.0
H1065 H 0.75411 0.5138 0.75249 0.0
H1066 H 0.70288 0.56685 0.81106 0.0
H1067 H 0.75952 0.58966 0.82441 0.0
C1068 C 0.62999 0.55159 0.75839 0.0
C1069 C 0.6222 0.5187 0.7482 0.0
C1070 C 0.66272 0.55785 0.76899 0.0
C1071 C 0.68867 0.53144 0.7697 0.0
C1072 C 0.68101 0.4985 0.75949 0.0
C1073 C 0.64803 0.49212 0.74899 0.0
C1074 C 0.78779 0.54207 0.77657 0.0
C1075 C 0.78978 0.56495 0.79625 0.0
C1076 C 0.75509 0.52935 0.76867 0.0
C1077 C 0.72384 0.5392 0.78037 0.0
C1078 C 0.72634 0.55951 0.80128 0.0
C1079 C 0.75887 0.5723 0.80908 0.0
H1080 H 0.83886 0.383 0.49548 0.0
H1081 H 0.73073 0.35088 0.50525 0.0
H1082 H 0.82543 0.44005 0.51354 0.0
H1083 H 0.71715 0.40799 0.52263 0.0
H1084 H 0.70716 0.50074 0.57099 0.0
H1085 H 0.72876 0.44341 0.55826 0.0
H1086 H 0.79135 0.49336 0.50358 0.0
H1087 H 0.77018 0.55081 0.51646 0.0
C1088 C 0.81227 0.38806 0.50155 0.0
C1089 C 0.78583 0.36242 0.49883 0.0
C1090 C 0.80454 0.42082 0.51175 0.0
C1091 C 0.77026 0.42855 0.51964 0.0
C1092 C 0.74395 0.40276 0.51708 0.0
C1093 C 0.75162 0.37017 0.50679 0.0
C1094 C 0.72611 0.49966 0.55658 0.0
C1095 C 0.73667 0.5305 0.54465 0.0
C1096 C 0.73825 0.46671 0.54914 0.0
C1097 C 0.76131 0.46374 0.52963 0.0
C1098 C 0.7737 0.49469 0.51872 0.0
C1099 C 0.76151 0.52769 0.52613 0.0
H1100 H 0.80844 0.45471 0.31926 0.0
H1101 H 0.75598 0.51133 0.26241 0.0
H1102 H 0.86508 0.47689 0.30531 0.0
H1103 H 0.81258 0.53351 0.24862 0.0
H1104 H 0.92096 0.51464 0.21195 0.0
H1105 H 0.86308 0.50316 0.22892 0.0
H1106 H 0.90214 0.5306 0.29891 0.0
H1107 H 0.95996 0.54293 0.28191 0.0
C1108 C 0.80885 0.47252 0.30415 0.0
C1109 C 0.7776 0.48106 0.29192 0.0
C1110 C 0.84134 0.48527 0.29617 0.0
C1111 C 0.84331 0.50658 0.27568 0.0
C1112 C 0.81193 0.51671 0.26426 0.0
C1113 C 0.77943 0.50425 0.27235 0.0
C1114 C 0.91715 0.51889 0.23088 0.0
C1115 C 0.9453 0.5296 0.24553 0.0
C1116 C 0.88392 0.51228 0.24062 0.0
C1117 C 0.87804 0.51601 0.26527 0.0
C1118 C 0.90597 0.52715 0.2799 0.0
C1119 C 0.93915 0.53404 0.27013 0.0
H1120 H 0.83513 0.87803 0.79386 0.0
H1121 H 0.72974 0.84258 0.77758 0.0
H1122 H 0.82102 0.93602 0.77727 0.0
H1123 H 0.71544 0.90046 0.7616 0.0
H1124 H 0.70681 0.99692 0.71605 0.0
H1125 H 0.72912 0.93939 0.72799 0.0
H1126 H 0.78329 0.98691 0.78766 0.0
H1127 H 0.76139 0.04458 0.77562 0.0
C1128 C 0.80904 0.88256 0.78664 0.0
C1129 C 0.7835 0.85574 0.78716 0.0
C1130 C 0.80089 0.91583 0.7773 0.0
C1131 C 0.76714 0.92285 0.76803 0.0
C1132 C 0.74183 0.89584 0.76828 0.0
C1133 C 0.74988 0.86276 0.77774 0.0
C1134 C 0.72398 0.99527 0.73148 0.0
C1135 C 0.73207 1.02544 0.74494 0.0
C1136 C 0.73656 0.96221 0.73842 0.0
C1137 C 0.75759 0.95847 0.75896 0.0
C1138 C 0.76732 0.98887 0.77166 0.0
C1139 C 0.75469 1.02198 0.76474 0.0
H1140 H 0.81404 0.94566 0.9668 0.0
H1141 H 0.76354 1.00352 1.02364 0.0
H1142 H 0.87094 0.96905 0.97916 0.0
H1143 H 0.82065 1.02665 1.03608 0.0
H1144 H 0.92884 0.08129 1.04123 0.0
H1145 H 0.87133 0.06452 1.02499 0.0
H1146 H 0.90942 0.95873 1.01372 0.0
H1147 H 0.96686 0.97562 1.02943 0.0
C1148 C 0.81492 0.96375 0.98172 0.0
C1149 C 0.78408 0.9725 0.99427 0.0
C1150 C 0.84766 0.97696 0.98892 0.0
C1151 C 0.85047 0.99937 1.00881 0.0
C1152 C 0.81945 1.00959 1.02062 0.0
C1153 C 0.78666 0.99626 1.01347 0.0
C1154 C 0.92499 0.05455 1.03508 0.0
C1155 C 0.95246 0.02977 1.03672 0.0
C1156 C 0.89196 0.04487 1.02594 0.0
C1157 C 0.88575 1.0103 1.01797 0.0
C1158 C 0.91337 0.98569 1.0194 0.0
C1159 C 0.94621 0.99527 1.02869 0.0
H1160 H 0.85128 0.05242 0.21842 0.0
H1161 H 0.8109 1.00502 0.28297 0.0
H1162 H 0.82923 0.10969 0.23146 0.0
H1163 H 0.78896 0.06217 0.29591 0.0
H1164 H 0.80188 0.17633 0.32396 0.0
H1165 H 0.81705 0.11782 0.30957 0.0
H1166 H 0.77429 0.1436 0.24028 0.0
H1167 H 0.75815 0.20195 0.25477 0.0
C1168 C 0.83723 0.05406 0.23519 0.0
C1169 C 0.83291 1.02402 0.2496 0.0
C1170 C 0.82453 0.0869 0.24265 0.0
C1171 C 0.80758 0.09058 0.26483 0.0
C1172 C 0.80228 0.06034 0.27888 0.0
C1173 C 0.8146 1.02747 0.27131 0.0
C1174 C 0.79508 0.16948 0.30577 0.0
C1175 C 0.77872 0.19417 0.29059 0.0
C1176 C 0.80389 0.13584 0.2975 0.0
C1177 C 0.79688 0.12598 0.27376 0.0
C1178 C 0.78042 0.15049 0.25858 0.0
C1179 C 0.7713 0.18405 0.26691 0.0
H1180 H 0.75441 0.10115 0.4657 0.0
H1181 H 0.80344 0.04771 0.52529 0.0
H1182 H 0.69726 0.07828 0.47789 0.0
H1183 H 0.7461 1.02514 0.53755 0.0
H1184 H 0.63784 0.97114 0.54339 0.0
H1185 H 0.69565 0.98643 0.52705 0.0
H1186 H 0.65816 0.09137 0.51163 0.0
H1187 H 0.60048 0.07594 0.52744 0.0
C1188 C 0.75316 0.0841 0.48119 0.0
C1189 C 0.78363 0.0765 0.49457 0.0
C1190 C 0.72029 0.0712 0.48828 0.0
C1191 C 0.717 0.05027 0.50888 0.0
C1192 C 0.74769 0.04105 0.52153 0.0
C1193 C 0.78061 0.05405 0.51448 0.0
C1194 C 0.6419 0.99735 0.53629 0.0
C1195 C 0.61457 1.02236 0.53682 0.0
C1196 C 0.67508 1.00619 0.52709 0.0
C1197 C 0.68153 0.04009 0.51796 0.0
C1198 C 0.65402 0.06488 0.51823 0.0
C1199 C 0.62104 0.05616 0.52757 0.0
H1200 H 0.3371 0.20426 0.50319 0.0
H1201 H 0.22851 0.17212 0.4959 0.0
H1202 H 0.35164 0.14707 0.52032 0.0
H1203 H 0.24291 0.11506 0.51366 0.0
H1204 H 0.2975 1.00442 0.51505 0.0
H1205 H 0.27659 0.06213 0.50244 0.0
H1206 H 0.3417 0.11121 0.55624 0.0
H1207 H 0.36306 0.05352 0.56871 0.0
C1208 C 0.31633 0.18496 0.50525 0.0
C1209 C 0.28169 0.19268 0.49805 0.0
C1210 C 0.32456 0.15235 0.51537 0.0
C1211 C 0.29839 0.12656 0.51848 0.0
C1212 C 0.26369 0.13431 0.5114 0.0
C1213 C 0.2554 0.16706 0.50139 0.0
C1214 C 0.30689 1.02743 0.52453 0.0
C1215 C 0.3322 1.02427 0.5428 0.0
C1216 C 0.29482 0.06055 0.51731 0.0
C1217 C 0.30782 0.09129 0.52813 0.0
C1218 C 0.33166 0.08804 0.54726 0.0
C1219 C 0.34366 0.05492 0.55454 0.0
H1220 H 0.13709 0.96797 0.2487 0.0
H1221 H 0.10528 0.07671 0.25507 0.0
H1222 H 0.19457 0.98261 0.26585 0.0
H1223 H 0.16278 0.09145 0.27158 0.0
H1224 H 0.25675 0.10442 0.31891 0.0
H1225 H 0.19906 0.08219 0.30732 0.0
H1226 H 0.24759 1.01608 0.25404 0.0
H1227 H 0.30542 0.03792 0.26578 0.0
C1228 C 0.14231 0.99494 0.25386 0.0
C1229 C 0.11666 1.02121 0.25042 0.0
C1230 C 0.1753 1.00336 0.26352 0.0
C1231 C 0.18322 0.03816 0.27017 0.0
C1232 C 0.1574 0.06429 0.26697 0.0
C1233 C 0.12457 0.05593 0.2572 0.0
C1234 C 0.25528 0.08463 0.30504 0.0
C1235 C 0.28582 0.07321 0.29316 0.0
C1236 C 0.22212 0.0721 0.29827 0.0
C1237 C 0.21867 0.04779 0.2795 0.0
C1238 C 0.24932 0.0347 0.26863 0.0
C1239 C 0.28253 0.04729 0.27536 0.0
H1240 H 0.20603 1.00074 1.06769 0.0
H1241 H 0.26975 0.05013 1.01325 0.0
H1242 H 0.22755 0.94323 1.05529 0.0
H1243 H 0.29085 0.99248 1.00069 0.0
H1244 H 0.33818 0.88183 0.99347 0.0
H1245 H 0.32471 0.93916 1.01112 0.0
H1246 H 0.21622 0.90752 1.01979 0.0
H1247 H 0.22984 0.85017 1.00281 0.0
C1248 C 0.22509 0.99946 1.05335 0.0
C1249 C 0.23592 0.03015 1.04138 0.0
C1250 C 0.2372 0.96641 1.04611 0.0
C1251 C 0.26046 0.9632 1.02674 0.0
C1252 C 0.27305 0.99401 1.01574 0.0
C1253 C 0.26091 1.02712 1.02297 0.0
C1254 C 0.31155 0.88705 0.99937 0.0
C1255 C 0.28505 0.86147 0.99664 0.0
C1256 C 0.30379 0.91996 1.00932 0.0
C1257 C 0.26943 0.92788 1.01697 0.0
C1258 C 0.24307 0.90215 1.01442 0.0
C1259 C 0.25077 0.8694 1.00437 0.0
H1260 H 0.45599 0.97843 0.75548 0.0
H1261 H 0.42495 0.08696 0.74619 0.0
H1262 H 0.39863 0.96511 0.77257 0.0
H1263 H 0.36749 0.07373 0.76387 0.0
H1264 H 0.25606 1.01746 0.7665 0.0
H1265 H 0.31344 0.03964 0.75386 0.0
H1266 H 0.3639 0.97707 0.80848 0.0
H1267 H 0.30677 0.95463 0.82097 0.0
C1268 C 0.43688 0.99947 0.75706 0.0
C1269 C 0.44503 0.03372 0.74935 0.0
C1270 C 0.40412 0.99194 0.76716 0.0
C1271 C 0.37852 1.01843 0.76979 0.0
C1272 C 0.38658 0.05273 0.76206 0.0
C1273 C 0.41956 0.06034 0.75208 0.0
C1274 C 0.27927 1.00924 0.7763 0.0
C1275 C 0.27677 0.98402 0.79464 0.0
C1276 C 0.31222 1.02188 0.76897 0.0
C1277 C 0.34331 1.00959 0.77986 0.0
C1278 C 0.34053 0.98643 0.79936 0.0
C1279 C 0.3077 0.9738 0.80665 0.0
H1280 H 0.2772 0.16671 0.24175 0.0
H1281 H 0.36728 0.12208 0.20628 0.0
H1282 H 0.24306 0.16219 0.20465 0.0
H1283 H 0.33333 0.11716 0.16945 0.0
H1284 H 0.2766 0.14083 1.09938 0.0
H1285 H 0.30843 0.14628 1.13674 0.0
H1286 H 0.21271 0.12596 0.17568 0.0
H1287 H 0.18032 0.12088 1.13769 0.0
C1288 C 0.29002 0.15619 0.22605 0.0
C1289 C 0.32562 0.14525 0.22742 0.0
C1290 C 0.27011 0.1532 0.2046 0.0
C1291 C 0.28487 0.13934 0.18339 0.0
C1292 C 0.32054 0.12857 0.18486 0.0
C1293 C 0.34031 0.13133 0.20629 0.0
C1294 C 0.26193 0.13741 1.11577 0.0
C1295 C 0.22535 0.13027 1.11493 0.0
C1296 C 0.28059 0.14034 1.13756 0.0
C1297 C 0.26383 0.13641 0.1599 0.0
C1298 C 0.22707 0.12952 0.15919 0.0
C1299 C 0.20828 0.12637 1.1372 0.0
H1300 H 0.66769 0.51956 0.35112 0.0
H1301 H 0.6896 0.42373 0.38963 0.0
H1302 H 0.66239 0.55143 0.38846 0.0
H1303 H 0.68458 0.45609 0.42754 0.0
H1304 H 0.64311 0.51984 0.49353 0.0
H1305 H 0.64777 0.48591 0.45645 0.0
H1306 H 0.69192 0.57661 0.42113 0.0
H1307 H 0.68696 0.61037 0.45799 0.0
C1308 C 0.67154 0.505 0.36754 0.0
C1309 C 0.67918 0.46854 0.36677 0.0
C1310 C 0.6687 0.52367 0.3893 0.0
C1311 C 0.67316 0.507 0.41167 0.0
C1312 C 0.68058 0.47036 0.41102 0.0
C1313 C 0.6837 0.4516 0.38907 0.0
C1314 C 0.65349 0.53281 0.47782 0.0
C1315 C 0.66418 0.56846 0.47918 0.0
C1316 C 0.65656 0.51301 0.45637 0.0
C1317 C 0.6702 0.52796 0.43514 0.0
C1318 C 0.68071 0.56369 0.43657 0.0
C1319 C 0.67793 0.58333 0.45802 0.0
H1320 H 0.2417 0.96908 0.72458 0.0
H1321 H 0.25132 0.85612 0.72742 0.0
H1322 H 0.27777 0.97055 0.68857 0.0
H1323 H 0.2872 0.85754 0.69087 0.0
H1324 H 0.31626 0.87292 0.60956 0.0
H1325 H 0.28404 0.86936 0.64723 0.0
H1326 H 0.33775 0.9622 0.6723 0.0
H1327 H 0.37054 0.96546 0.63454 0.0
C1328 C 0.25127 0.94435 0.71752 0.0
C1329 C 0.24285 0.9124 0.72923 0.0
C1330 C 0.27247 0.94527 0.69675 0.0
C1331 C 0.28588 0.91424 0.68631 0.0
C1332 C 0.27741 0.88217 0.69795 0.0
C1333 C 0.25673 0.8813 0.71912 0.0
C1334 C 0.32167 0.8925 0.62312 0.0
C1335 C 0.34651 0.91947 0.61858 0.0
C1336 C 0.30305 0.89034 0.64498 0.0
C1337 C 0.30774 0.91548 0.66327 0.0
C1338 C 0.33283 0.94235 0.65885 0.0
C1339 C 0.35203 0.9441 0.63709 0.0
H1340 H 0.83465 0.60489 0.8832 0.0
H1341 H 0.93647 0.56528 0.86259 0.0
H1342 H 0.83871 0.57183 0.92081 0.0
H1343 H 0.94064 0.53256 0.90006 0.0
H1344 H 0.95075 0.49905 0.98022 0.0
H1345 H 0.948 0.53462 0.94353 0.0
H1346 H 0.83698 0.51264 0.93746 0.0
H1347 H 0.83979 0.47716 0.97371 0.0
C1348 C 0.85809 0.58946 0.88665 0.0
C1349 C 0.88516 0.58821 0.8694 0.0
C1350 C 0.86037 0.57007 0.90834 0.0
C1351 C 0.89007 0.54897 0.91398 0.0
C1352 C 0.91742 0.54844 0.89691 0.0
C1353 C 0.91489 0.56732 0.87512 0.0
C1354 C 0.92575 0.5016 0.97105 0.0
C1355 C 0.89565 0.48449 0.98025 0.0
C1356 C 0.92412 0.52211 0.94978 0.0
C1357 C 0.89216 0.52706 0.93704 0.0
C1358 C 0.8621 0.51021 0.94649 0.0
C1359 C 0.86385 0.48932 0.96742 0.0
H1360 H 0.8862 0.93328 0.1485 0.0
H1361 H 0.79272 0.90278 0.18682 0.0
H1362 H 0.8539 0.92761 1.11062 0.0
H1363 H 0.76068 0.89718 0.1493 0.0
H1364 H 0.70082 0.92292 1.07931 0.0
H1365 H 0.73385 0.92816 1.11668 0.0
H1366 H 0.82662 0.88811 1.08174 0.0
H1367 H 0.79352 0.88299 1.04434 0.0
C1368 C 0.85885 0.92529 0.14901 0.0
C1369 C 0.84256 0.91849 0.17122 0.0
C1370 C 0.84013 0.92184 1.12707 0.0
C1371 C 0.80413 0.91194 1.12635 0.0
C1372 C 0.78799 0.90529 0.14862 0.0
C1373 C 0.80672 0.9083 0.17041 0.0
C1374 C 0.72819 0.91494 1.07949 0.0
C1375 C 0.74395 0.90216 1.05837 0.0
C1376 C 0.74736 0.91786 1.10119 0.0
C1377 C 0.78343 0.90861 1.10281 0.0
C1378 C 0.79921 0.89592 1.08163 0.0
C1379 C 0.7799 0.89259 1.06 0.0
H1380 H 0.34069 0.60892 0.90062 0.0
H1381 H 0.43793 0.56369 0.92589 0.0
H1382 H 0.34605 0.57513 0.86339 0.0
H1383 H 0.44382 0.53083 0.88843 0.0
H1384 H 0.45736 0.50422 0.80591 0.0
H1385 H 0.45341 0.53887 0.84294 0.0
H1386 H 0.34404 0.5105 0.84965 0.0
H1387 H 0.34823 0.47512 0.81329 0.0
C1388 C 0.36351 0.59221 0.89822 0.0
C1389 C 0.38886 0.58949 0.91664 0.0
C1390 C 0.3665 0.57248 0.87678 0.0
C1391 C 0.39544 0.54986 0.87251 0.0
C1392 C 0.42123 0.5479 0.89068 0.0
C1393 C 0.41776 0.56686 0.91236 0.0
C1394 C 0.43252 0.50501 0.81536 0.0
C1395 C 0.40331 0.48613 0.80636 0.0
C1396 C 0.43021 0.52502 0.83674 0.0
C1397 C 0.39831 0.52796 0.84964 0.0
C1398 C 0.36906 0.50939 0.84044 0.0
C1399 C 0.37161 0.48866 0.8195 0.0
H1400 H 0.77027 0.14907 0.68589 0.0
H1401 H 0.67805 0.11551 0.64712 0.0
H1402 H 0.80258 0.15489 0.64866 0.0
H1403 H 0.71073 0.12129 0.60946 0.0
H1404 H 0.77121 0.16551 0.54318 0.0
H1405 H 0.73748 0.16025 0.58023 0.0
H1406 H 0.83087 0.1245 0.61687 0.0
H1407 H 0.86451 0.13009 0.57991 0.0
C1408 C 0.75659 0.14289 0.66944 0.0
C1409 C 0.72101 0.1318 0.67005 0.0
C1410 C 0.77552 0.14602 0.6478 0.0
C1411 C 0.75988 0.13852 0.62547 0.0
C1412 C 0.72411 0.12773 0.62597 0.0
C1413 C 0.70518 0.12423 0.64777 0.0
C1414 C 0.78481 0.15686 0.55915 0.0
C1415 C 0.82112 0.14859 0.55812 0.0
C1416 C 0.76515 0.15343 0.58057 0.0
C1417 C 0.7809 0.14189 0.60212 0.0
C1418 C 0.81732 0.13391 0.60108 0.0
C1419 C 0.83687 0.13699 0.57961 0.0
H1420 H 0.15755 0.51335 0.43279 0.0
H1421 H 0.19375 0.422 0.39442 0.0
H1422 H 0.15124 0.54546 0.39541 0.0
H1423 H 0.18749 0.45445 0.35666 0.0
H1424 H 0.14259 0.51318 0.28995 0.0
H1425 H 0.14819 0.47996 0.32722 0.0
H1426 H 0.18107 0.57447 0.36353 0.0
H1427 H 0.17539 0.60763 0.32624 0.0
C1428 C 0.16421 0.49983 0.4164 0.0
C1429 C 0.17619 0.46455 0.41716 0.0
C1430 C 0.16079 0.51864 0.39468 0.0
C1431 C 0.16887 0.50316 0.37243 0.0
C1432 C 0.18056 0.46769 0.37309 0.0
C1433 C 0.18435 0.4489 0.39496 0.0
C1434 C 0.1507 0.52714 0.30588 0.0
C1435 C 0.15808 0.56362 0.30467 0.0
C1436 C 0.15432 0.50778 0.32745 0.0
C1437 C 0.16516 0.52398 0.34897 0.0
C1438 C 0.17221 0.56058 0.34776 0.0
C1439 C 0.16899 0.57986 0.32613 0.0
H1440 H 0.6926 0.58929 0.63624 0.0
H1441 H 0.75453 0.67477 0.60813 0.0
H1442 H 0.72468 0.59366 0.67437 0.0
H1443 H 0.78578 0.67973 0.64623 0.0
H1444 H 0.81436 0.6984 0.72737 0.0
H1445 H 0.77952 0.69599 0.6902 0.0
H1446 H 0.7858 0.58276 0.69099 0.0
H1447 H 0.82114 0.58519 0.72744 0.0
C1448 C 0.71268 0.60933 0.63816 0.0
C1449 C 0.7206 0.6316 0.61867 0.0
C1450 C 0.7314 0.61175 0.66013 0.0
C1451 C 0.75822 0.63715 0.66383 0.0
C1452 C 0.76537 0.65998 0.64453 0.0
C1453 C 0.74734 0.65698 0.62243 0.0
C1454 C 0.80845 0.67298 0.71962 0.0
C1455 C 0.82128 0.64207 0.73068 0.0
C1456 C 0.78839 0.67153 0.69812 0.0
C1457 C 0.77938 0.63909 0.68717 0.0
C1458 C 0.79163 0.60829 0.6986 0.0
C1459 C 0.81235 0.60977 0.71963 0.0
H1460 H 0.22988 0.95552 0.87798 0.0
H1461 H 0.12068 0.9778 0.86346 0.0
H1462 H 0.22598 0.98966 0.91522 0.0
H1463 H 0.11653 1.0109 0.90088 0.0
H1464 H 0.11566 0.04025 0.98318 0.0
H1465 H 0.11882 1.00462 0.94657 0.0
H1466 H 0.2175 0.05378 0.92859 0.0
H1467 H 0.2138 0.09004 0.96464 0.0
C1468 C 0.20484 0.96713 0.88281 0.0
C1469 C 0.17561 0.96336 0.86736 0.0
C1470 C 0.20263 0.98712 0.90422 0.0
C1471 C 0.17087 1.00347 0.91147 0.0
C1472 C 0.14145 0.9988 0.89633 0.0
C1473 C 0.14389 0.97967 0.87466 0.0
C1474 C 0.1379 0.04382 0.97135 0.0
C1475 C 0.16418 0.06877 0.97712 0.0
C1476 C 0.13976 1.02322 0.95019 0.0
C1477 C 0.16855 1.02582 0.93424 0.0
C1478 C 0.19498 0.05048 0.94021 0.0
C1479 C 0.19264 0.07171 0.96097 0.0
H1480 H 0.83526 0.36625 1.11685 0.0
H1481 H 0.85002 0.4772 1.12908 0.0
H1482 H 0.80203 0.36144 0.15413 0.0
H1483 H 0.81574 0.47256 0.16624 0.0
H1484 H 0.71609 0.45553 0.2158 0.0
H1485 H 0.75237 0.46045 0.17981 0.0
H1486 H 0.80752 0.36566 0.19953 0.0
H1487 H 0.77185 0.3613 0.23602 0.0
C1488 C 0.83169 0.38974 1.12751 0.0
C1489 C 0.84593 0.42214 1.1196 0.0
C1490 C 0.81249 0.38692 0.14911 0.0
C1491 C 0.80568 0.41654 0.1636 0.0
C1492 C 0.81996 0.44902 0.15575 0.0
C1493 C 0.84003 0.45168 1.13439 0.0
C1494 C 0.73574 0.43546 0.21251 0.0
C1495 C 0.74033 0.40771 0.22911 0.0
C1496 C 0.75698 0.43854 0.1918 0.0
C1497 C 0.78333 0.41356 0.18633 0.0
C1498 C 0.78759 0.38547 0.20274 0.0
C1499 C 0.76694 0.38291 0.22383 0.0
H1500 H 0.42534 0.03246 0.49225 0.0
H1501 H 0.37633 0.94373 0.45772 0.0
H1502 H 0.42059 0.06645 0.4551 0.0
H1503 H 0.37131 0.97753 0.42084 0.0
H1504 H 0.39558 0.03298 0.35029 0.0
H1505 H 0.40102 1.00123 0.38771 0.0
H1506 H 0.38352 0.09756 0.42657 0.0
H1507 H 0.37831 0.12981 0.38854 0.0
C1508 C 0.41382 1.01989 0.47675 0.0
C1509 C 0.40174 0.98471 0.47839 0.0
C1510 C 0.41071 0.03973 0.45528 0.0
C1511 C 0.39561 1.02527 0.43432 0.0
C1512 C 0.38368 0.99002 0.43605 0.0
C1513 C 0.38652 0.97036 0.45751 0.0
C1514 C 0.39279 0.04779 0.36668 0.0
C1515 C 0.38638 0.08448 0.36581 0.0
C1516 C 0.39572 0.0292 0.38849 0.0
C1517 C 0.3926 0.04618 0.41081 0.0
C1518 C 0.38645 0.08305 0.41007 0.0
C1519 C 0.38321 0.10175 0.38807 0.0
H1520 H 0.35865 0.47506 0.65397 0.0
H1521 H 0.33268 0.36795 0.67211 0.0
H1522 H 0.32426 0.46969 0.61693 0.0
H1523 H 0.2992 0.36228 0.63482 0.0
H1524 H 0.27059 0.35673 0.55224 0.0
H1525 H 0.30556 0.36094 0.58916 0.0
H1526 H 0.26037 0.4628 0.60333 0.0
H1527 H 0.22476 0.45815 0.56698 0.0
C1528 C 0.34607 0.45015 0.65003 0.0
C1529 C 0.34897 0.42197 0.66643 0.0
C1530 C 0.32596 0.44711 0.62869 0.0
C1531 C 0.30851 0.41547 0.62245 0.0
C1532 C 0.31216 0.38705 0.63858 0.0
C1533 C 0.33149 0.39038 0.66019 0.0
C1534 C 0.26773 0.3799 0.5633 0.0
C1535 C 0.24412 0.40683 0.55634 0.0
C1536 C 0.28794 0.38236 0.58465 0.0
C1537 C 0.2863 0.41234 0.59962 0.0
C1538 C 0.26292 0.43935 0.5925 0.0
C1539 C 0.24206 0.43649 0.57155 0.0
H1540 H 0.84034 0.10735 0.40431 0.0
H1541 H 0.93935 0.06497 0.42864 0.0
H1542 H 0.84522 0.07267 0.36742 0.0
H1543 H 0.9448 0.03132 0.39142 0.0
H1544 H 0.95541 1.00508 0.30804 0.0
H1545 H 0.95204 0.04012 0.34495 0.0
H1546 H 0.84484 1.00631 0.35507 0.0
H1547 H 0.84859 0.97044 0.31885 0.0
C1548 C 0.86345 0.09109 0.40176 0.0
C1549 C 0.88946 0.08945 0.41983 0.0
C1550 C 0.86616 0.07086 0.38052 0.0
C1551 C 0.89546 0.04882 0.37606 0.0
C1552 C 0.92189 0.0479 0.39385 0.0
C1553 C 0.91869 0.06733 0.41538 0.0
C1554 C 0.93121 1.00471 0.31824 0.0
C1555 C 0.90251 0.98414 0.31025 0.0
C1556 C 0.92924 1.02496 0.33954 0.0
C1557 C 0.89807 1.0265 0.35334 0.0
C1558 C 0.86929 1.00625 0.34515 0.0
C1559 C 0.8716 0.98523 0.32431 0.0
H1560 H 0.2726 0.63558 0.18435 0.0
H1561 H 0.1766 0.62086 1.14444 0.0
H1562 H 0.30541 0.64201 0.14725 0.0
H1563 H 0.20962 0.62711 1.10704 0.0
H1564 H 0.27405 0.67081 1.04292 0.0
H1565 H 0.24068 0.66534 1.08007 0.0
H1566 H 0.32936 0.61361 1.11314 0.0
H1567 H 0.36269 0.61929 1.07605 0.0
C1568 C 0.25825 0.63364 0.16768 0.0
C1569 C 0.22147 0.62764 0.1679 0.0
C1570 C 0.27738 0.63714 0.14611 0.0
C1571 C 0.26075 0.63512 1.12354 0.0
C1572 C 0.22385 0.62931 1.12373 0.0
C1573 C 0.20471 0.62548 0.14539 0.0
C1574 C 0.28674 0.65856 1.05813 0.0
C1575 C 0.32166 0.64595 1.05608 0.0
C1576 C 0.26724 0.65504 1.07961 0.0
C1577 C 0.28177 0.63896 1.10021 0.0
C1578 C 0.31686 0.62663 1.09816 0.0
C1579 C 0.33622 0.62987 1.07662 0.0
H1580 H 0.62679 0.98123 0.9264 0.0
H1581 H 0.72832 0.94319 0.90396 0.0
H1582 H 0.62103 1.01448 0.889 0.0
H1583 H 0.7231 0.97757 0.86686 0.0
H1584 H 0.71622 0.0798 0.81792 0.0
H1585 H 0.72075 0.04402 0.85423 0.0
H1586 H 0.61557 1.00516 0.84257 0.0
H1587 H 0.61146 0.04013 0.80561 0.0
C1588 C 0.64794 0.97974 0.9135 0.0
C1589 C 0.67798 0.95894 0.91853 0.0
C1590 C 0.64457 0.99894 0.89187 0.0
C1591 C 0.67156 0.99917 0.87454 0.0
C1592 C 0.70168 0.97846 0.87958 0.0
C1593 C 0.7046 0.95839 0.90093 0.0
C1594 C 0.69382 0.06387 0.82305 0.0
C1595 C 0.66326 0.06354 0.80855 0.0
C1596 C 0.6966 0.04292 0.84394 0.0
C1597 C 0.6686 1.02131 0.85173 0.0
C1598 C 0.63776 1.02139 0.83747 0.0
C1599 C 0.63537 0.04159 0.81613 0.0
loop_
_geom_bond_atom_site_label_1
_geom_bond_atom_site_label_2
_geom_bond_distance
_geom_bond_site_symmetry_2
_ccdc_geom_bond_type
Tb0 C10 2.825 . S
Tb0 O11 2.347 . S
Tb0 O14 2.366 . S
Tb0 O19 2.418 . S
Tb0 O20 2.384 . S
Tb0 O23 2.479 . S
Tb0 O24 2.471 . S
Eu1 O12 2.418 . S
Eu1 O13 2.384 . S
Eu1 O16 2.479 . S
Eu1 O17 2.471 . S
Eu1 O18 2.347 . S
Eu1 O21 2.366 . S
Eu1 C31 2.825 . S
C2 O18 1.259 . S
C2 O19 1.265 . S
C3 O20 1.255 . S
C3 O21 1.265 . S
C4 C6 1.380 . S
C4 C7 1.374 . S
C4 C10 1.507 . S
C5 C6 1.384 . S
C5 C9 1.387 . S
C5 H32 0.930 . S
C6 C4 1.380 . S
C6 C5 1.384 . S
C6 H33 0.931 . S
C7 C4 1.374 . S
C7 C8 1.390 . S
C7 H34 0.930 . S
C8 C7 1.390 . S
C8 C9 1.391 . S
C8 H35 0.930 . S
C9 C5 1.387 . S
C9 C8 1.391 . S
C10 Tb0 2.825 . S
C10 C4 1.507 . S
C10 O23 1.238 . S
C10 O24 1.247 . S
O11 Tb0 2.347 . S
O11 C15 1.259 . S
O12 Eu1 2.418 . S
O12 C15 1.265 . S
O13 Eu1 2.384 . S
O13 C22 1.255 . S
O14 Tb0 2.366 . S
O14 C22 1.265 . S
C15 O11 1.259 . S
C15 O12 1.265 . S
O16 Eu1 2.479 . S
O16 C31 1.238 . S
O17 Eu1 2.471 . S
O17 C31 1.247 . S
O18 Eu1 2.347 . S
O18 C2 1.259 . S
O19 Tb0 2.418 . S
O19 C2 1.265 . S
O20 Tb0 2.384 . S
O20 C3 1.255 . S
O21 Eu1 2.366 . S
O21 C3 1.265 . S
C22 O13 1.255 . S
C22 O14 1.265 . S
O23 Tb0 2.479 . S
O23 C10 1.238 . S
O24 Tb0 2.471 . S
O24 C10 1.247 . S
C25 C28 1.380 . S
C25 C29 1.374 . S
C25 C31 1.507 . S
C26 C27 1.387 1_545 S
C26 C30 1.391 . S
C27 C26 1.387 1_565 S
C27 C28 1.384 1_565 S
C27 H36 0.930 . S
C28 C25 1.380 . S
C28 C27 1.384 1_545 S
C28 H37 0.931 1_545 S
C29 C25 1.374 . S
C29 C30 1.390 . S
C29 H38 0.930 . S
C30 C26 1.391 . S
C30 C29 1.390 . S
C30 H39 0.930 . S
C31 Eu1 2.825 . S
C31 O16 1.238 . S
C31 O17 1.247 . S
C31 C25 1.507 . S
H32 C5 0.930 . S
H33 C6 0.931 . S
H34 C7 0.930 . S
H35 C8 0.930 . S
H36 C27 0.930 . S
H37 C28 0.931 1_565 S
H38 C29 0.930 . S
H39 C30 0.930 . S
Tb40 C50 2.825 . S
Tb40 O51 2.347 . S
Tb40 O54 2.366 . S
Tb40 O59 2.418 . S
Tb40 O60 2.384 . S
Tb40 O63 2.479 . S
Tb40 O64 2.471 . S
Eu41 O52 2.418 . S
Eu41 O53 2.384 . S
Eu41 O56 2.479 . S
Eu41 O57 2.471 . S
Eu41 O58 2.347 . S
Eu41 O61 2.366 . S
Eu41 C71 2.825 . S
C42 O58 1.259 . S
C42 O59 1.265 . S
C43 O60 1.255 . S
C43 O61 1.265 . S
C44 C46 1.380 . S
C44 C47 1.374 . S
C44 C50 1.507 . S
C45 C46 1.384 . S
C45 C49 1.387 . S
C45 H72 0.930 . S
C46 C44 1.380 . S
C46 C45 1.384 . S
C46 H73 0.931 . S
C47 C44 1.374 . S
C47 C48 1.390 . S
C47 H74 0.930 . S
C48 C47 1.390 . S
C48 C49 1.391 . S
C48 H75 0.930 . S
C49 C45 1.387 . S
C49 C48 1.391 . S
C50 Tb40 2.825 . S
C50 C44 1.507 . S
C50 O63 1.238 . S
C50 O64 1.247 . S
O51 Tb40 2.347 . S
O51 C55 1.259 . S
O52 Eu41 2.418 . S
O52 C55 1.265 . S
O53 Eu41 2.384 . S
O53 C62 1.255 . S
O54 Tb40 2.366 . S
O54 C62 1.265 . S
C55 O51 1.259 . S
C55 O52 1.265 . S
O56 Eu41 2.479 . S
O56 C71 1.238 . S
O57 Eu41 2.471 . S
O57 C71 1.247 . S
O58 Eu41 2.347 . S
O58 C42 1.259 . S
O59 Tb40 2.418 . S
O59 C42 1.265 . S
O60 Tb40 2.384 . S
O60 C43 1.255 . S
O61 Eu41 2.366 . S
O61 C43 1.265 . S
C62 O53 1.255 . S
C62 O54 1.265 . S
O63 Tb40 2.479 . S
O63 C50 1.238 . S
O64 Tb40 2.471 . S
O64 C50 1.247 . S
C65 C68 1.380 . S
C65 C69 1.374 . S
C65 C71 1.507 . S
C66 C67 1.387 . S
C66 C70 1.391 . S
C67 C66 1.387 . S
C67 C68 1.384 . S
C67 H76 0.930 . S
C68 C65 1.380 . S
C68 C67 1.384 . S
C68 H77 0.931 . S
C69 C65 1.374 . S
C69 C70 1.390 . S
C69 H78 0.930 . S
C70 C66 1.391 . S
C70 C69 1.390 . S
C70 H79 0.930 . S
C71 Eu41 2.825 . S
C71 O56 1.238 . S
C71 O57 1.247 . S
C71 C65 1.507 . S
H72 C45 0.930 . S
H73 C46 0.931 . S
H74 C47 0.930 . S
H75 C48 0.930 . S
H76 C67 0.930 . S
H77 C68 0.931 . S
H78 C69 0.930 . S
H79 C70 0.930 . S
Tb80 C90 2.825 . S
Tb80 O91 2.347 . S
Tb80 O94 2.366 . S
Tb80 O99 2.418 . S
Tb80 O100 2.384 . S
Tb80 O103 2.479 . S
Tb80 O104 2.471 . S
Eu81 O92 2.418 . S
Eu81 O93 2.384 . S
Eu81 O96 2.479 . S
Eu81 O97 2.471 . S
Eu81 O98 2.347 . S
Eu81 O101 2.366 . S
Eu81 C111 2.825 . S
C82 O98 1.259 . S
C82 O99 1.265 . S
C83 O100 1.255 . S
C83 O101 1.265 . S
C84 C86 1.380 . S
C84 C87 1.374 . S
C84 C90 1.507 . S
C85 C86 1.384 . S
C85 C89 1.387 . S
C85 H112 0.930 . S
C86 C84 1.380 . S
C86 C85 1.384 . S
C86 H113 0.931 . S
C87 C84 1.374 . S
C87 C88 1.390 . S
C87 H114 0.930 . S
C88 C87 1.390 . S
C88 C89 1.391 . S
C88 H115 0.930 . S
C89 C85 1.387 . S
C89 C88 1.391 . S
C90 Tb80 2.825 . S
C90 C84 1.507 . S
C90 O103 1.238 . S
C90 O104 1.247 . S
O91 Tb80 2.347 . S
O91 C95 1.259 . S
O92 Eu81 2.418 . S
O92 C95 1.265 . S
O93 Eu81 2.384 . S
O93 C102 1.255 . S
O94 Tb80 2.366 . S
O94 C102 1.265 . S
C95 O91 1.259 . S
C95 O92 1.265 . S
O96 Eu81 2.479 . S
O96 C111 1.238 . S
O97 Eu81 2.471 . S
O97 C111 1.247 . S
O98 Eu81 2.347 . S
O98 C82 1.259 . S
O99 Tb80 2.418 . S
O99 C82 1.265 . S
O100 Tb80 2.384 . S
O100 C83 1.255 . S
O101 Eu81 2.366 . S
O101 C83 1.265 . S
C102 O93 1.255 . S
C102 O94 1.265 . S
O103 Tb80 2.479 . S
O103 C90 1.238 . S
O104 Tb80 2.471 . S
O104 C90 1.247 . S
C105 C108 1.380 . S
C105 C109 1.374 . S
C105 C111 1.507 . S
C106 C107 1.387 1_565 S
C106 C110 1.391 . S
C107 C106 1.387 1_545 S
C107 C108 1.384 1_545 S
C107 H116 0.930 . S
C108 C105 1.380 . S
C108 C107 1.384 1_565 S
C108 H117 0.931 1_565 S
C109 C105 1.374 . S
C109 C110 1.390 . S
C109 H118 0.930 . S
C110 C106 1.391 . S
C110 C109 1.390 . S
C110 H119 0.930 . S
C111 Eu81 2.825 . S
C111 O96 1.238 . S
C111 O97 1.247 . S
C111 C105 1.507 . S
H112 C85 0.930 . S
H113 C86 0.931 . S
H114 C87 0.930 . S
H115 C88 0.930 . S
H116 C107 0.930 . S
H117 C108 0.931 1_545 S
H118 C109 0.930 . S
H119 C110 0.930 . S
Tb120 C130 2.825 . S
Tb120 O131 2.347 . S
Tb120 O134 2.366 . S
Tb120 O139 2.418 . S
Tb120 O140 2.384 . S
Tb120 O143 2.479 . S
Tb120 O144 2.471 . S
Eu121 O132 2.418 . S
Eu121 O133 2.384 . S
Eu121 O136 2.479 . S
Eu121 O137 2.471 . S
Eu121 O138 2.347 . S
Eu121 O141 2.366 . S
Eu121 C151 2.825 . S
C122 O138 1.259 . S
C122 O139 1.265 . S
C123 O140 1.255 . S
C123 O141 1.265 . S
C124 C126 1.380 . S
C124 C127 1.374 1_455 S
C124 C130 1.507 1_455 S
C125 C126 1.384 . S
C125 C129 1.387 . S
C125 H152 0.930 . S
C126 C124 1.380 . S
C126 C125 1.384 . S
C126 H153 0.931 . S
C127 C124 1.374 1_655 S
C127 C128 1.390 1_655 S
C127 H154 0.930 . S
C128 C127 1.390 1_455 S
C128 C129 1.391 . S
C128 H155 0.930 1_455 S
C129 C125 1.387 . S
C129 C128 1.391 . S
C130 Tb120 2.825 . S
C130 C124 1.507 1_655 S
C130 O143 1.238 . S
C130 O144 1.247 . S
O131 Tb120 2.347 . S
O131 C135 1.259 . S
O132 Eu121 2.418 . S
O132 C135 1.265 . S
O133 Eu121 2.384 . S
O133 C142 1.255 . S
O134 Tb120 2.366 . S
O134 C142 1.265 . S
C135 O131 1.259 . S
C135 O132 1.265 . S
O136 Eu121 2.479 . S
O136 C151 1.238 . S
O137 Eu121 2.471 . S
O137 C151 1.247 . S
O138 Eu121 2.347 . S
O138 C122 1.259 . S
O139 Tb120 2.418 . S
O139 C122 1.265 . S
O140 Tb120 2.384 . S
O140 C123 1.255 . S
O141 Eu121 2.366 . S
O141 C123 1.265 . S
C142 O133 1.255 . S
C142 O134 1.265 . S
O143 Tb120 2.479 . S
O143 C130 1.238 . S
O144 Tb120 2.471 . S
O144 C130 1.247 . S
C145 C148 1.380 . S
C145 C149 1.374 . S
C145 C151 1.507 . S
C146 C147 1.387 . S
C146 C150 1.391 . S
C147 C146 1.387 . S
C147 C148 1.384 . S
C147 H156 0.930 . S
C148 C145 1.380 . S
C148 C147 1.384 . S
C148 H157 0.931 . S
C149 C145 1.374 . S
C149 C150 1.390 . S
C149 H158 0.930 . S
C150 C146 1.391 . S
C150 C149 1.390 . S
C150 H159 0.930 . S
C151 Eu121 2.825 . S
C151 O136 1.238 . S
C151 O137 1.247 . S
C151 C145 1.507 . S
H152 C125 0.930 . S
H153 C126 0.931 . S
H154 C127 0.930 . S
H155 C128 0.930 1_655 S
H156 C147 0.930 . S
H157 C148 0.931 . S
H158 C149 0.930 . S
H159 C150 0.930 . S
Tb160 C170 2.825 . S
Tb160 O171 2.347 . S
Tb160 O174 2.366 . S
Tb160 O179 2.418 . S
Tb160 O180 2.384 . S
Tb160 O183 2.479 . S
Tb160 O184 2.471 . S
Eu161 O172 2.418 . S
Eu161 O173 2.384 . S
Eu161 O176 2.479 . S
Eu161 O177 2.471 . S
Eu161 O178 2.347 . S
Eu161 O181 2.366 . S
Eu161 C191 2.825 . S
C162 O178 1.259 . S
C162 O179 1.265 . S
C163 O180 1.255 . S
C163 O181 1.265 . S
C164 C166 1.380 . S
C164 C167 1.374 . S
C164 C170 1.507 . S
C165 C166 1.384 1_545 S
C165 C169 1.387 1_545 S
C165 H192 0.930 . S
C166 C164 1.380 . S
C166 C165 1.384 1_565 S
C166 H193 0.931 1_565 S
C167 C164 1.374 . S
C167 C168 1.390 . S
C167 H194 0.930 . S
C168 C167 1.390 . S
C168 C169 1.391 . S
C168 H195 0.930 . S
C169 C165 1.387 1_565 S
C169 C168 1.391 . S
C170 Tb160 2.825 . S
C170 C164 1.507 . S
C170 O183 1.238 . S
C170 O184 1.247 . S
O171 Tb160 2.347 . S
O171 C175 1.259 . S
O172 Eu161 2.418 . S
O172 C175 1.265 . S
O173 Eu161 2.384 . S
O173 C182 1.255 . S
O174 Tb160 2.366 . S
O174 C182 1.265 . S
C175 O171 1.259 . S
C175 O172 1.265 . S
O176 Eu161 2.479 . S
O176 C191 1.238 . S
O177 Eu161 2.471 . S
O177 C191 1.247 . S
O178 Eu161 2.347 . S
O178 C162 1.259 . S
O179 Tb160 2.418 . S
O179 C162 1.265 . S
O180 Tb160 2.384 . S
O180 C163 1.255 . S
O181 Eu161 2.366 . S
O181 C163 1.265 . S
C182 O173 1.255 . S
C182 O174 1.265 . S
O183 Tb160 2.479 . S
O183 C170 1.238 . S
O184 Tb160 2.471 . S
O184 C170 1.247 . S
C185 C188 1.380 . S
C185 C189 1.374 . S
C185 C191 1.507 . S
C186 C187 1.387 . S
C186 C190 1.391 . S
C187 C186 1.387 . S
C187 C188 1.384 . S
C187 H196 0.930 . S
C188 C185 1.380 . S
C188 C187 1.384 . S
C188 H197 0.931 . S
C189 C185 1.374 . S
C189 C190 1.390 . S
C189 H198 0.930 . S
C190 C186 1.391 . S
C190 C189 1.390 . S
C190 H199 0.930 . S
C191 Eu161 2.825 . S
C191 O176 1.238 . S
C191 O177 1.247 . S
C191 C185 1.507 . S
H192 C165 0.930 . S
H193 C166 0.931 1_545 S
H194 C167 0.930 . S
H195 C168 0.930 . S
H196 C187 0.930 . S
H197 C188 0.931 . S
H198 C189 0.930 . S
H199 C190 0.930 . S
Tb200 C210 2.825 . S
Tb200 O211 2.347 . S
Tb200 O214 2.366 . S
Tb200 O219 2.418 . S
Tb200 O220 2.384 . S
Tb200 O223 2.479 . S
Tb200 O224 2.471 . S
Eu201 O212 2.418 . S
Eu201 O213 2.384 . S
Eu201 O216 2.479 . S
Eu201 O217 2.471 . S
Eu201 O218 2.347 . S
Eu201 O221 2.366 . S
Eu201 C231 2.825 . S
C202 O218 1.259 . S
C202 O219 1.265 . S
C203 O220 1.255 . S
C203 O221 1.265 . S
C204 C206 1.380 . S
C204 C207 1.374 . S
C204 C210 1.507 . S
C205 C206 1.384 . S
C205 C209 1.387 . S
C205 H232 0.930 . S
C206 C204 1.380 . S
C206 C205 1.384 . S
C206 H233 0.931 . S
C207 C204 1.374 . S
C207 C208 1.390 . S
C207 H234 0.930 . S
C208 C207 1.390 . S
C208 C209 1.391 . S
C208 H235 0.930 . S
C209 C205 1.387 . S
C209 C208 1.391 . S
C210 Tb200 2.825 . S
C210 C204 1.507 . S
C210 O223 1.238 . S
C210 O224 1.247 . S
O211 Tb200 2.347 . S
O211 C215 1.259 . S
O212 Eu201 2.418 . S
O212 C215 1.265 . S
O213 Eu201 2.384 . S
O213 C222 1.255 . S
O214 Tb200 2.366 . S
O214 C222 1.265 . S
C215 O211 1.259 . S
C215 O212 1.265 . S
O216 Eu201 2.479 . S
O216 C231 1.238 . S
O217 Eu201 2.471 . S
O217 C231 1.247 . S
O218 Eu201 2.347 . S
O218 C202 1.259 . S
O219 Tb200 2.418 . S
O219 C202 1.265 . S
O220 Tb200 2.384 . S
O220 C203 1.255 . S
O221 Eu201 2.366 . S
O221 C203 1.265 . S
C222 O213 1.255 . S
C222 O214 1.265 . S
O223 Tb200 2.479 . S
O223 C210 1.238 . S
O224 Tb200 2.471 . S
O224 C210 1.247 . S
C225 C228 1.380 . S
C225 C229 1.374 . S
C225 C231 1.507 . S
C226 C227 1.387 . S
C226 C230 1.391 . S
C227 C226 1.387 . S
C227 C228 1.384 . S
C227 H236 0.930 . S
C228 C225 1.380 . S
C228 C227 1.384 . S
C228 H237 0.931 . S
C229 C225 1.374 . S
C229 C230 1.390 . S
C229 H238 0.930 . S
C230 C226 1.391 . S
C230 C229 1.390 . S
C230 H239 0.930 . S
C231 Eu201 2.825 . S
C231 O216 1.238 . S
C231 O217 1.247 . S
C231 C225 1.507 . S
H232 C205 0.930 . S
H233 C206 0.931 . S
H234 C207 0.930 . S
H235 C208 0.930 . S
H236 C227 0.930 . S
H237 C228 0.931 . S
H238 C229 0.930 . S
H239 C230 0.930 . S
Tb240 C250 2.825 . S
Tb240 O251 2.347 . S
Tb240 O254 2.366 . S
Tb240 O259 2.418 . S
Tb240 O260 2.384 . S
Tb240 O263 2.479 . S
Tb240 O264 2.471 . S
Eu241 O252 2.418 . S
Eu241 O253 2.384 . S
Eu241 O256 2.479 . S
Eu241 O257 2.471 . S
Eu241 O258 2.347 . S
Eu241 O261 2.366 . S
Eu241 C271 2.825 . S
C242 O258 1.259 . S
C242 O259 1.265 . S
C243 O260 1.255 . S
C243 O261 1.265 . S
C244 C246 1.380 . S
C244 C247 1.374 . S
C244 C250 1.507 . S
C245 C246 1.384 1_565 S
C245 C249 1.387 1_565 S
C245 H272 0.930 . S
C246 C244 1.380 . S
C246 C245 1.384 1_545 S
C246 H273 0.931 1_545 S
C247 C244 1.374 . S
C247 C248 1.390 . S
C247 H274 0.930 . S
C248 C247 1.390 . S
C248 C249 1.391 . S
C248 H275 0.930 . S
C249 C245 1.387 1_545 S
C249 C248 1.391 . S
C250 Tb240 2.825 . S
C250 C244 1.507 . S
C250 O263 1.238 . S
C250 O264 1.247 . S
O251 Tb240 2.347 . S
O251 C255 1.259 . S
O252 Eu241 2.418 . S
O252 C255 1.265 . S
O253 Eu241 2.384 . S
O253 C262 1.255 . S
O254 Tb240 2.366 . S
O254 C262 1.265 . S
C255 O251 1.259 . S
C255 O252 1.265 . S
O256 Eu241 2.479 . S
O256 C271 1.238 . S
O257 Eu241 2.471 . S
O257 C271 1.247 . S
O258 Eu241 2.347 . S
O258 C242 1.259 . S
O259 Tb240 2.418 . S
O259 C242 1.265 . S
O260 Tb240 2.384 . S
O260 C243 1.255 . S
O261 Eu241 2.366 . S
O261 C243 1.265 . S
C262 O253 1.255 . S
C262 O254 1.265 . S
O263 Tb240 2.479 . S
O263 C250 1.238 . S
O264 Tb240 2.471 . S
O264 C250 1.247 . S
C265 C268 1.380 . S
C265 C269 1.374 . S
C265 C271 1.507 . S
C266 C267 1.387 . S
C266 C270 1.391 . S
C267 C266 1.387 . S
C267 C268 1.384 . S
C267 H276 0.930 . S
C268 C265 1.380 . S
C268 C267 1.384 . S
C268 H277 0.931 . S
C269 C265 1.374 . S
C269 C270 1.390 . S
C269 H278 0.930 . S
C270 C266 1.391 . S
C270 C269 1.390 . S
C270 H279 0.930 . S
C271 Eu241 2.825 . S
C271 O256 1.238 . S
C271 O257 1.247 . S
C271 C265 1.507 . S
H272 C245 0.930 . S
H273 C246 0.931 1_565 S
H274 C247 0.930 . S
H275 C248 0.930 . S
H276 C267 0.930 . S
H277 C268 0.931 . S
H278 C269 0.930 . S
H279 C270 0.930 . S
Tb280 C290 2.825 . S
Tb280 O291 2.347 . S
Tb280 O294 2.366 . S
Tb280 O299 2.418 . S
Tb280 O300 2.384 . S
Tb280 O303 2.479 . S
Tb280 O304 2.471 . S
Eu281 O292 2.418 . S
Eu281 O293 2.384 . S
Eu281 O296 2.479 . S
Eu281 O297 2.471 . S
Eu281 O298 2.347 . S
Eu281 O301 2.366 . S
Eu281 C311 2.825 . S
C282 O298 1.259 . S
C282 O299 1.265 . S
C283 O300 1.255 . S
C283 O301 1.265 . S
C284 C286 1.380 . S
C284 C287 1.374 . S
C284 C290 1.507 . S
C285 C286 1.384 . S
C285 C289 1.387 . S
C285 H312 0.930 . S
C286 C284 1.380 . S
C286 C285 1.384 . S
C286 H313 0.931 . S
C287 C284 1.374 . S
C287 C288 1.390 . S
C287 H314 0.930 . S
C288 C287 1.390 . S
C288 C289 1.391 . S
C288 H315 0.930 . S
C289 C285 1.387 . S
C289 C288 1.391 . S
C290 Tb280 2.825 . S
C290 C284 1.507 . S
C290 O303 1.238 . S
C290 O304 1.247 . S
O291 Tb280 2.347 . S
O291 C295 1.259 . S
O292 Eu281 2.418 . S
O292 C295 1.265 . S
O293 Eu281 2.384 . S
O293 C302 1.255 . S
O294 Tb280 2.366 . S
O294 C302 1.265 . S
C295 O291 1.259 . S
C295 O292 1.265 . S
O296 Eu281 2.479 . S
O296 C311 1.238 . S
O297 Eu281 2.471 . S
O297 C311 1.247 . S
O298 Eu281 2.347 . S
O298 C282 1.259 . S
O299 Tb280 2.418 . S
O299 C282 1.265 . S
O300 Tb280 2.384 . S
O300 C283 1.255 . S
O301 Eu281 2.366 . S
O301 C283 1.265 . S
C302 O293 1.255 . S
C302 O294 1.265 . S
O303 Tb280 2.479 . S
O303 C290 1.238 . S
O304 Tb280 2.471 . S
O304 C290 1.247 . S
C305 C308 1.380 . S
C305 C309 1.374 1_655 S
C305 C311 1.507 1_655 S
C306 C307 1.387 . S
C306 C310 1.391 . S
C307 C306 1.387 . S
C307 C308 1.384 . S
C307 H316 0.930 . S
C308 C305 1.380 . S
C308 C307 1.384 . S
C308 H317 0.931 . S
C309 C305 1.374 1_455 S
C309 C310 1.390 1_455 S
C309 H318 0.930 . S
C310 C306 1.391 . S
C310 C309 1.390 1_655 S
C310 H319 0.930 1_655 S
C311 Eu281 2.825 . S
C311 O296 1.238 . S
C311 O297 1.247 . S
C311 C305 1.507 1_455 S
H312 C285 0.930 . S
H313 C286 0.931 . S
H314 C287 0.930 . S
H315 C288 0.930 . S
H316 C307 0.930 . S
H317 C308 0.931 . S
H318 C309 0.930 . S
H319 C310 0.930 1_455 S
Tb320 C330 2.825 . S
Tb320 O331 2.347 . S
Tb320 O334 2.366 . S
Tb320 O339 2.418 . S
Tb320 O340 2.384 . S
Tb320 O343 2.479 . S
Tb320 O344 2.471 . S
Eu321 O332 2.418 . S
Eu321 O333 2.384 . S
Eu321 O336 2.479 . S
Eu321 O337 2.471 . S
Eu321 O338 2.347 . S
Eu321 O341 2.366 . S
Eu321 C351 2.825 . S
C322 O338 1.259 . S
C322 O339 1.265 . S
C323 O340 1.255 . S
C323 O341 1.265 . S
C324 C326 1.380 . S
C324 C327 1.374 . S
C324 C330 1.507 . S
C325 C326 1.384 . S
C325 C329 1.387 . S
C325 H352 0.930 . S
C326 C324 1.380 . S
C326 C325 1.384 . S
C326 H353 0.931 . S
C327 C324 1.374 . S
C327 C328 1.390 . S
C327 H354 0.930 . S
C328 C327 1.390 . S
C328 C329 1.391 . S
C328 H355 0.930 . S
C329 C325 1.387 . S
C329 C328 1.391 . S
C330 Tb320 2.825 . S
C330 C324 1.507 . S
C330 O343 1.238 . S
C330 O344 1.247 . S
O331 Tb320 2.347 . S
O331 C335 1.259 . S
O332 Eu321 2.418 . S
O332 C335 1.265 . S
O333 Eu321 2.384 . S
O333 C342 1.255 . S
O334 Tb320 2.366 . S
O334 C342 1.265 . S
C335 O331 1.259 . S
C335 O332 1.265 . S
O336 Eu321 2.479 . S
O336 C351 1.238 . S
O337 Eu321 2.471 . S
O337 C351 1.247 . S
O338 Eu321 2.347 . S
O338 C322 1.259 . S
O339 Tb320 2.418 . S
O339 C322 1.265 . S
O340 Tb320 2.384 . S
O340 C323 1.255 . S
O341 Eu321 2.366 . S
O341 C323 1.265 . S
C342 O333 1.255 . S
C342 O334 1.265 . S
O343 Tb320 2.479 . S
O343 C330 1.238 . S
O344 Tb320 2.471 . S
O344 C330 1.247 . S
C345 C348 1.380 . S
C345 C349 1.374 . S
C345 C351 1.507 . S
C346 C347 1.387 . S
C346 C350 1.391 . S
C347 C346 1.387 . S
C347 C348 1.384 . S
C347 H356 0.930 . S
C348 C345 1.380 . S
C348 C347 1.384 . S
C348 H357 0.931 . S
C349 C345 1.374 . S
C349 C350 1.390 . S
C349 H358 0.930 . S
C350 C346 1.391 . S
C350 C349 1.390 . S
C350 H359 0.930 . S
C351 Eu321 2.825 . S
C351 O336 1.238 . S
C351 O337 1.247 . S
C351 C345 1.507 . S
H352 C325 0.930 . S
H353 C326 0.931 . S
H354 C327 0.930 . S
H355 C328 0.930 . S
H356 C347 0.930 . S
H357 C348 0.931 . S
H358 C349 0.930 . S
H359 C350 0.930 . S
Tb360 C370 2.825 . S
Tb360 O371 2.347 . S
Tb360 O374 2.366 . S
Tb360 O379 2.418 . S
Tb360 O380 2.384 . S
Tb360 O383 2.479 . S
Tb360 O384 2.471 1_545 S
Eu361 O372 2.418 . S
Eu361 O373 2.384 . S
Eu361 O376 2.479 . S
Eu361 O377 2.471 . S
Eu361 O378 2.347 . S
Eu361 O381 2.366 . S
Eu361 C391 2.825 . S
C362 O378 1.259 . S
C362 O379 1.265 . S
C363 O380 1.255 . S
C363 O381 1.265 . S
C364 C366 1.380 . S
C364 C367 1.374 1_655 S
C364 C370 1.507 1_665 S
C365 C366 1.384 . S
C365 C369 1.387 . S
C365 H392 0.930 . S
C366 C364 1.380 . S
C366 C365 1.384 . S
C366 H393 0.931 1_565 S
C367 C364 1.374 1_455 S
C367 C368 1.390 1_455 S
C367 H394 0.930 . S
C368 C367 1.390 1_655 S
C368 C369 1.391 . S
C368 H395 0.930 1_655 S
C369 C365 1.387 . S
C369 C368 1.391 . S
C370 Tb360 2.825 . S
C370 C364 1.507 1_445 S
C370 O383 1.238 . S
C370 O384 1.247 1_545 S
O371 Tb360 2.347 . S
O371 C375 1.259 . S
O372 Eu361 2.418 . S
O372 C375 1.265 . S
O373 Eu361 2.384 . S
O373 C382 1.255 . S
O374 Tb360 2.366 . S
O374 C382 1.265 . S
C375 O371 1.259 . S
C375 O372 1.265 . S
O376 Eu361 2.479 . S
O376 C391 1.238 . S
O377 Eu361 2.471 . S
O377 C391 1.247 . S
O378 Eu361 2.347 . S
O378 C362 1.259 . S
O379 Tb360 2.418 . S
O379 C362 1.265 . S
O380 Tb360 2.384 . S
O380 C363 1.255 . S
O381 Eu361 2.366 . S
O381 C363 1.265 . S
C382 O373 1.255 . S
C382 O374 1.265 . S
O383 Tb360 2.479 . S
O383 C370 1.238 . S
O384 Tb360 2.471 1_565 S
O384 C370 1.247 1_565 S
C385 C388 1.380 . S
C385 C389 1.374 . S
C385 C391 1.507 . S
C386 C387 1.387 . S
C386 C390 1.391 . S
C387 C386 1.387 . S
C387 C388 1.384 . S
C387 H396 0.930 . S
C388 C385 1.380 . S
C388 C387 1.384 . S
C388 H397 0.931 . S
C389 C385 1.374 . S
C389 C390 1.390 . S
C389 H398 0.930 . S
C390 C386 1.391 . S
C390 C389 1.390 . S
C390 H399 0.930 . S
C391 Eu361 2.825 . S
C391 O376 1.238 . S
C391 O377 1.247 . S
C391 C385 1.507 . S
H392 C365 0.930 . S
H393 C366 0.931 1_545 S
H394 C367 0.930 . S
H395 C368 0.930 1_455 S
H396 C387 0.930 . S
H397 C388 0.931 . S
H398 C389 0.930 . S
H399 C390 0.930 . S
Tb400 C410 2.825 . S
Tb400 O411 2.347 . S
Tb400 O414 2.366 . S
Tb400 O419 2.418 . S
Tb400 O420 2.384 . S
Tb400 O423 2.479 . S
Tb400 O424 2.471 . S
Eu401 O412 2.418 . S
Eu401 O413 2.384 . S
Eu401 O416 2.479 . S
Eu401 O417 2.471 . S
Eu401 O418 2.347 . S
Eu401 O421 2.366 . S
Eu401 C431 2.825 . S
C402 O418 1.259 . S
C402 O419 1.265 . S
C403 O420 1.255 . S
C403 O421 1.265 . S
C404 C406 1.380 . S
C404 C407 1.374 . S
C404 C410 1.507 . S
C405 C406 1.384 . S
C405 C409 1.387 . S
C405 H432 0.930 . S
C406 C404 1.380 . S
C406 C405 1.384 . S
C406 H433 0.931 . S
C407 C404 1.374 . S
C407 C408 1.390 . S
C407 H434 0.930 . S
C408 C407 1.390 . S
C408 C409 1.391 . S
C408 H435 0.930 . S
C409 C405 1.387 . S
C409 C408 1.391 . S
C410 Tb400 2.825 . S
C410 C404 1.507 . S
C410 O423 1.238 . S
C410 O424 1.247 . S
O411 Tb400 2.347 . S
O411 C415 1.259 . S
O412 Eu401 2.418 . S
O412 C415 1.265 . S
O413 Eu401 2.384 . S
O413 C422 1.255 . S
O414 Tb400 2.366 . S
O414 C422 1.265 . S
C415 O411 1.259 . S
C415 O412 1.265 . S
O416 Eu401 2.479 . S
O416 C431 1.238 . S
O417 Eu401 2.471 . S
O417 C431 1.247 . S
O418 Eu401 2.347 . S
O418 C402 1.259 . S
O419 Tb400 2.418 . S
O419 C402 1.265 . S
O420 Tb400 2.384 . S
O420 C403 1.255 . S
O421 Eu401 2.366 . S
O421 C403 1.265 . S
C422 O413 1.255 . S
C422 O414 1.265 . S
O423 Tb400 2.479 . S
O423 C410 1.238 . S
O424 Tb400 2.471 . S
O424 C410 1.247 . S
C425 C428 1.380 . S
C425 C429 1.374 . S
C425 C431 1.507 . S
C426 C427 1.387 . S
C426 C430 1.391 . S
C427 C426 1.387 . S
C427 C428 1.384 . S
C427 H436 0.930 . S
C428 C425 1.380 . S
C428 C427 1.384 . S
C428 H437 0.931 . S
C429 C425 1.374 . S
C429 C430 1.390 . S
C429 H438 0.930 . S
C430 C426 1.391 . S
C430 C429 1.390 . S
C430 H439 0.930 . S
C431 Eu401 2.825 . S
C431 O416 1.238 . S
C431 O417 1.247 . S
C431 C425 1.507 . S
H432 C405 0.930 . S
H433 C406 0.931 . S
H434 C407 0.930 . S
H435 C408 0.930 . S
H436 C427 0.930 . S
H437 C428 0.931 . S
H438 C429 0.930 . S
H439 C430 0.930 . S
Tb440 C450 2.825 . S
Tb440 O451 2.347 . S
Tb440 O454 2.366 . S
Tb440 O459 2.418 . S
Tb440 O460 2.384 . S
Tb440 O463 2.479 . S
Tb440 O464 2.471 1_565 S
Eu441 O452 2.418 . S
Eu441 O453 2.384 . S
Eu441 O456 2.479 . S
Eu441 O457 2.471 . S
Eu441 O458 2.347 . S
Eu441 O461 2.366 . S
Eu441 C471 2.825 . S
C442 O458 1.259 . S
C442 O459 1.265 . S
C443 O460 1.255 . S
C443 O461 1.265 . S
C444 C446 1.380 . S
C444 C447 1.374 . S
C444 C450 1.507 1_545 S
C445 C446 1.384 . S
C445 C449 1.387 . S
C445 H472 0.930 . S
C446 C444 1.380 . S
C446 C445 1.384 . S
C446 H473 0.931 1_545 S
C447 C444 1.374 . S
C447 C448 1.390 . S
C447 H474 0.930 . S
C448 C447 1.390 . S
C448 C449 1.391 . S
C448 H475 0.930 . S
C449 C445 1.387 . S
C449 C448 1.391 . S
C450 Tb440 2.825 . S
C450 C444 1.507 1_565 S
C450 O463 1.238 . S
C450 O464 1.247 1_565 S
O451 Tb440 2.347 . S
O451 C455 1.259 . S
O452 Eu441 2.418 . S
O452 C455 1.265 . S
O453 Eu441 2.384 . S
O453 C462 1.255 . S
O454 Tb440 2.366 . S
O454 C462 1.265 . S
C455 O451 1.259 . S
C455 O452 1.265 . S
O456 Eu441 2.479 . S
O456 C471 1.238 . S
O457 Eu441 2.471 . S
O457 C471 1.247 . S
O458 Eu441 2.347 . S
O458 C442 1.259 . S
O459 Tb440 2.418 . S
O459 C442 1.265 . S
O460 Tb440 2.384 . S
O460 C443 1.255 . S
O461 Eu441 2.366 . S
O461 C443 1.265 . S
C462 O453 1.255 . S
C462 O454 1.265 . S
O463 Tb440 2.479 . S
O463 C450 1.238 . S
O464 Tb440 2.471 1_545 S
O464 C450 1.247 1_545 S
C465 C468 1.380 . S
C465 C469 1.374 . S
C465 C471 1.507 . S
C466 C467 1.387 . S
C466 C470 1.391 . S
C467 C466 1.387 . S
C467 C468 1.384 . S
C467 H476 0.930 . S
C468 C465 1.380 . S
C468 C467 1.384 . S
C468 H477 0.931 . S
C469 C465 1.374 . S
C469 C470 1.390 . S
C469 H478 0.930 . S
C470 C466 1.391 . S
C470 C469 1.390 . S
C470 H479 0.930 . S
C471 Eu441 2.825 . S
C471 O456 1.238 . S
C471 O457 1.247 . S
C471 C465 1.507 . S
H472 C445 0.930 . S
H473 C446 0.931 1_565 S
H474 C447 0.930 . S
H475 C448 0.930 . S
H476 C467 0.930 . S
H477 C468 0.931 . S
H478 C469 0.930 . S
H479 C470 0.930 . S
Tb480 C490 2.825 . S
Tb480 O491 2.347 . S
Tb480 O494 2.366 . S
Tb480 O499 2.418 . S
Tb480 O500 2.384 . S
Tb480 O503 2.479 . S
Tb480 O504 2.471 . S
Eu481 O492 2.418 . S
Eu481 O493 2.384 . S
Eu481 O496 2.479 . S
Eu481 O497 2.471 . S
Eu481 O498 2.347 . S
Eu481 O501 2.366 . S
Eu481 C511 2.825 . S
C482 O498 1.259 . S
C482 O499 1.265 . S
C483 O500 1.255 . S
C483 O501 1.265 . S
C484 C486 1.380 . S
C484 C487 1.374 . S
C484 C490 1.507 . S
C485 C486 1.384 . S
C485 C489 1.387 . S
C485 H512 0.930 . S
C486 C484 1.380 . S
C486 C485 1.384 . S
C486 H513 0.931 . S
C487 C484 1.374 . S
C487 C488 1.390 . S
C487 H514 0.930 . S
C488 C487 1.390 . S
C488 C489 1.391 . S
C488 H515 0.930 . S
C489 C485 1.387 . S
C489 C488 1.391 . S
C490 Tb480 2.825 . S
C490 C484 1.507 . S
C490 O503 1.238 . S
C490 O504 1.247 . S
O491 Tb480 2.347 . S
O491 C495 1.259 . S
O492 Eu481 2.418 . S
O492 C495 1.265 . S
O493 Eu481 2.384 . S
O493 C502 1.255 . S
O494 Tb480 2.366 . S
O494 C502 1.265 . S
C495 O491 1.259 . S
C495 O492 1.265 . S
O496 Eu481 2.479 . S
O496 C511 1.238 . S
O497 Eu481 2.471 . S
O497 C511 1.247 . S
O498 Eu481 2.347 . S
O498 C482 1.259 . S
O499 Tb480 2.418 . S
O499 C482 1.265 . S
O500 Tb480 2.384 . S
O500 C483 1.255 . S
O501 Eu481 2.366 . S
O501 C483 1.265 . S
C502 O493 1.255 . S
C502 O494 1.265 . S
O503 Tb480 2.479 . S
O503 C490 1.238 . S
O504 Tb480 2.471 . S
O504 C490 1.247 . S
C505 C508 1.380 . S
C505 C509 1.374 . S
C505 C511 1.507 . S
C506 C507 1.387 . S
C506 C510 1.391 . S
C507 C506 1.387 . S
C507 C508 1.384 . S
C507 H516 0.930 . S
C508 C505 1.380 . S
C508 C507 1.384 . S
C508 H517 0.931 . S
C509 C505 1.374 . S
C509 C510 1.390 . S
C509 H518 0.930 . S
C510 C506 1.391 . S
C510 C509 1.390 . S
C510 H519 0.930 . S
C511 Eu481 2.825 . S
C511 O496 1.238 . S
C511 O497 1.247 . S
C511 C505 1.507 . S
H512 C485 0.930 . S
H513 C486 0.931 . S
H514 C487 0.930 . S
H515 C488 0.930 . S
H516 C507 0.930 . S
H517 C508 0.931 . S
H518 C509 0.930 . S
H519 C510 0.930 . S
Tb520 C530 2.825 . S
Tb520 O531 2.347 . S
Tb520 O534 2.366 . S
Tb520 O539 2.418 . S
Tb520 O540 2.384 . S
Tb520 O543 2.479 . S
Tb520 O544 2.471 . S
Eu521 O532 2.418 . S
Eu521 O533 2.384 . S
Eu521 O536 2.479 . S
Eu521 O537 2.471 1_565 S
Eu521 O538 2.347 . S
Eu521 O541 2.366 . S
Eu521 C551 2.825 . S
C522 O538 1.259 . S
C522 O539 1.265 . S
C523 O540 1.255 . S
C523 O541 1.265 . S
C524 C526 1.380 . S
C524 C527 1.374 . S
C524 C530 1.507 . S
C525 C526 1.384 . S
C525 C529 1.387 . S
C525 H552 0.930 . S
C526 C524 1.380 . S
C526 C525 1.384 . S
C526 H553 0.931 . S
C527 C524 1.374 . S
C527 C528 1.390 . S
C527 H554 0.930 . S
C528 C527 1.390 . S
C528 C529 1.391 . S
C528 H555 0.930 . S
C529 C525 1.387 . S
C529 C528 1.391 . S
C530 Tb520 2.825 . S
C530 C524 1.507 . S
C530 O543 1.238 . S
C530 O544 1.247 . S
O531 Tb520 2.347 . S
O531 C535 1.259 . S
O532 Eu521 2.418 . S
O532 C535 1.265 . S
O533 Eu521 2.384 . S
O533 C542 1.255 . S
O534 Tb520 2.366 . S
O534 C542 1.265 . S
C535 O531 1.259 . S
C535 O532 1.265 . S
O536 Eu521 2.479 . S
O536 C551 1.238 . S
O537 Eu521 2.471 1_545 S
O537 C551 1.247 1_545 S
O538 Eu521 2.347 . S
O538 C522 1.259 . S
O539 Tb520 2.418 . S
O539 C522 1.265 . S
O540 Tb520 2.384 . S
O540 C523 1.255 . S
O541 Eu521 2.366 . S
O541 C523 1.265 . S
C542 O533 1.255 . S
C542 O534 1.265 . S
O543 Tb520 2.479 . S
O543 C530 1.238 . S
O544 Tb520 2.471 . S
O544 C530 1.247 . S
C545 C548 1.380 . S
C545 C549 1.374 1_455 S
C545 C551 1.507 1_445 S
C546 C547 1.387 . S
C546 C550 1.391 . S
C547 C546 1.387 . S
C547 C548 1.384 . S
C547 H556 0.930 . S
C548 C545 1.380 . S
C548 C547 1.384 . S
C548 H557 0.931 1_545 S
C549 C545 1.374 1_655 S
C549 C550 1.390 1_655 S
C549 H558 0.930 . S
C550 C546 1.391 . S
C550 C549 1.390 1_455 S
C550 H559 0.930 1_455 S
C551 Eu521 2.825 . S
C551 O536 1.238 . S
C551 O537 1.247 1_565 S
C551 C545 1.507 1_665 S
H552 C525 0.930 . S
H553 C526 0.931 . S
H554 C527 0.930 . S
H555 C528 0.930 . S
H556 C547 0.930 . S
H557 C548 0.931 1_565 S
H558 C549 0.930 . S
H559 C550 0.930 1_655 S
Tb560 C570 2.825 . S
Tb560 O571 2.347 . S
Tb560 O574 2.366 . S
Tb560 O579 2.418 . S
Tb560 O580 2.384 . S
Tb560 O583 2.479 . S
Tb560 O584 2.471 . S
Eu561 O572 2.418 . S
Eu561 O573 2.384 . S
Eu561 O576 2.479 . S
Eu561 O577 2.471 . S
Eu561 O578 2.347 . S
Eu561 O581 2.366 . S
Eu561 C591 2.825 . S
C562 O578 1.259 . S
C562 O579 1.265 . S
C563 O580 1.255 . S
C563 O581 1.265 . S
C564 C566 1.380 . S
C564 C567 1.374 . S
C564 C570 1.507 . S
C565 C566 1.384 . S
C565 C569 1.387 . S
C565 H592 0.930 . S
C566 C564 1.380 . S
C566 C565 1.384 . S
C566 H593 0.931 . S
C567 C564 1.374 . S
C567 C568 1.390 . S
C567 H594 0.930 . S
C568 C567 1.390 . S
C568 C569 1.391 . S
C568 H595 0.930 . S
C569 C565 1.387 . S
C569 C568 1.391 . S
C570 Tb560 2.825 . S
C570 C564 1.507 . S
C570 O583 1.238 . S
C570 O584 1.247 . S
O571 Tb560 2.347 . S
O571 C575 1.259 . S
O572 Eu561 2.418 . S
O572 C575 1.265 . S
O573 Eu561 2.384 . S
O573 C582 1.255 . S
O574 Tb560 2.366 . S
O574 C582 1.265 . S
C575 O571 1.259 . S
C575 O572 1.265 . S
O576 Eu561 2.479 . S
O576 C591 1.238 . S
O577 Eu561 2.471 . S
O577 C591 1.247 . S
O578 Eu561 2.347 . S
O578 C562 1.259 . S
O579 Tb560 2.418 . S
O579 C562 1.265 . S
O580 Tb560 2.384 . S
O580 C563 1.255 . S
O581 Eu561 2.366 . S
O581 C563 1.265 . S
C582 O573 1.255 . S
C582 O574 1.265 . S
O583 Tb560 2.479 . S
O583 C570 1.238 . S
O584 Tb560 2.471 . S
O584 C570 1.247 . S
C585 C588 1.380 . S
C585 C589 1.374 . S
C585 C591 1.507 . S
C586 C587 1.387 . S
C586 C590 1.391 . S
C587 C586 1.387 . S
C587 C588 1.384 . S
C587 H596 0.930 . S
C588 C585 1.380 . S
C588 C587 1.384 . S
C588 H597 0.931 . S
C589 C585 1.374 . S
C589 C590 1.390 . S
C589 H598 0.930 . S
C590 C586 1.391 . S
C590 C589 1.390 . S
C590 H599 0.930 . S
C591 Eu561 2.825 . S
C591 O576 1.238 . S
C591 O577 1.247 . S
C591 C585 1.507 . S
H592 C565 0.930 . S
H593 C566 0.931 . S
H594 C567 0.930 . S
H595 C568 0.930 . S
H596 C587 0.930 . S
H597 C588 0.931 . S
H598 C589 0.930 . S
H599 C590 0.930 . S
Tb600 C610 2.825 . S
Tb600 O611 2.347 . S
Tb600 O614 2.366 . S
Tb600 O619 2.418 . S
Tb600 O620 2.384 . S
Tb600 O623 2.479 . S
Tb600 O624 2.471 . S
Eu601 O612 2.418 . S
Eu601 O613 2.384 . S
Eu601 O616 2.479 . S
Eu601 O617 2.471 1_545 S
Eu601 O618 2.347 . S
Eu601 O621 2.366 . S
Eu601 C631 2.825 . S
C602 O618 1.259 . S
C602 O619 1.265 . S
C603 O620 1.255 . S
C603 O621 1.265 . S
C604 C606 1.380 . S
C604 C607 1.374 . S
C604 C610 1.507 . S
C605 C606 1.384 . S
C605 C609 1.387 . S
C605 H632 0.930 . S
C606 C604 1.380 . S
C606 C605 1.384 . S
C606 H633 0.931 . S
C607 C604 1.374 . S
C607 C608 1.390 . S
C607 H634 0.930 . S
C608 C607 1.390 . S
C608 C609 1.391 . S
C608 H635 0.930 . S
C609 C605 1.387 . S
C609 C608 1.391 . S
C610 Tb600 2.825 . S
C610 C604 1.507 . S
C610 O623 1.238 . S
C610 O624 1.247 . S
O611 Tb600 2.347 . S
O611 C615 1.259 . S
O612 Eu601 2.418 . S
O612 C615 1.265 . S
O613 Eu601 2.384 . S
O613 C622 1.255 . S
O614 Tb600 2.366 . S
O614 C622 1.265 . S
C615 O611 1.259 . S
C615 O612 1.265 . S
O616 Eu601 2.479 . S
O616 C631 1.238 . S
O617 Eu601 2.471 1_565 S
O617 C631 1.247 1_565 S
O618 Eu601 2.347 . S
O618 C602 1.259 . S
O619 Tb600 2.418 . S
O619 C602 1.265 . S
O620 Tb600 2.384 . S
O620 C603 1.255 . S
O621 Eu601 2.366 . S
O621 C603 1.265 . S
C622 O613 1.255 . S
C622 O614 1.265 . S
O623 Tb600 2.479 . S
O623 C610 1.238 . S
O624 Tb600 2.471 . S
O624 C610 1.247 . S
C625 C628 1.380 . S
C625 C629 1.374 . S
C625 C631 1.507 1_565 S
C626 C627 1.387 . S
C626 C630 1.391 . S
C627 C626 1.387 . S
C627 C628 1.384 . S
C627 H636 0.930 . S
C628 C625 1.380 . S
C628 C627 1.384 . S
C628 H637 0.931 1_565 S
C629 C625 1.374 . S
C629 C630 1.390 . S
C629 H638 0.930 . S
C630 C626 1.391 . S
C630 C629 1.390 . S
C630 H639 0.930 . S
C631 Eu601 2.825 . S
C631 O616 1.238 . S
C631 O617 1.247 1_545 S
C631 C625 1.507 1_545 S
H632 C605 0.930 . S
H633 C606 0.931 . S
H634 C607 0.930 . S
H635 C608 0.930 . S
H636 C627 0.930 . S
H637 C628 0.931 1_545 S
H638 C629 0.930 . S
H639 C630 0.930 . S
H640 C648 0.950 . S
H641 C653 0.950 . S
H642 C650 0.950 . S
H643 C652 0.950 . S
H644 C654 0.950 . S
H645 C656 0.950 . S
H646 C658 0.950 . S
H647 C659 0.950 . S
C648 H640 0.950 . S
C648 C649 1.386 . S
C648 C650 1.391 . S
C649 C648 1.386 . S
C649 C653 1.393 . S
C650 H642 0.950 . S
C650 C648 1.391 . S
C650 C651 1.400 . S
C651 C650 1.400 . S
C651 C652 1.398 . S
C651 C657 1.491 . S
C652 H643 0.950 . S
C652 C651 1.398 . S
C652 C653 1.391 . S
C653 H641 0.950 . S
C653 C649 1.393 . S
C653 C652 1.391 . S
C654 H644 0.950 . S
C654 C655 1.386 . S
C654 C656 1.391 . S
C655 C654 1.386 . S
C655 C659 1.393 . S
C656 H645 0.950 . S
C656 C654 1.391 . S
C656 C657 1.400 . S
C657 C651 1.491 . S
C657 C656 1.400 . S
C657 C658 1.398 . S
C658 H646 0.950 . S
C658 C657 1.398 . S
C658 C659 1.391 . S
C659 H647 0.950 . S
C659 C655 1.393 . S
C659 C658 1.391 . S
H660 C668 0.950 . S
H661 C673 0.950 . S
H662 C670 0.950 . S
H663 C672 0.950 . S
H664 C674 0.950 . S
H665 C676 0.950 . S
H666 C678 0.950 . S
H667 C679 0.950 . S
C668 H660 0.950 . S
C668 C669 1.386 . S
C668 C670 1.391 . S
C669 C668 1.386 . S
C669 C673 1.393 . S
C670 H662 0.950 . S
C670 C668 1.391 . S
C670 C671 1.400 . S
C671 C670 1.400 . S
C671 C672 1.398 . S
C671 C677 1.491 . S
C672 H663 0.950 . S
C672 C671 1.398 . S
C672 C673 1.391 . S
C673 H661 0.950 . S
C673 C669 1.393 . S
C673 C672 1.391 . S
C674 H664 0.950 . S
C674 C675 1.386 . S
C674 C676 1.391 . S
C675 C674 1.386 . S
C675 C679 1.393 . S
C676 H665 0.950 . S
C676 C674 1.391 . S
C676 C677 1.400 . S
C677 C671 1.491 . S
C677 C676 1.400 . S
C677 C678 1.398 . S
C678 H666 0.950 . S
C678 C677 1.398 . S
C678 C679 1.391 . S
C679 H667 0.950 . S
C679 C675 1.393 . S
C679 C678 1.391 . S
H680 C688 0.950 . S
H681 C693 0.950 . S
H682 C690 0.950 . S
H683 C692 0.950 . S
H684 C694 0.950 . S
H685 C696 0.950 . S
H686 C698 0.950 . S
H687 C699 0.950 . S
C688 H680 0.950 . S
C688 C689 1.386 . S
C688 C690 1.391 . S
C689 C688 1.386 . S
C689 C693 1.393 . S
C690 H682 0.950 . S
C690 C688 1.391 . S
C690 C691 1.400 . S
C691 C690 1.400 . S
C691 C692 1.398 . S
C691 C697 1.491 1_455 S
C692 H683 0.950 . S
C692 C691 1.398 . S
C692 C693 1.391 . S
C693 H681 0.950 . S
C693 C689 1.393 . S
C693 C692 1.391 . S
C694 H684 0.950 . S
C694 C695 1.386 . S
C694 C696 1.391 . S
C695 C694 1.386 . S
C695 C699 1.393 . S
C696 H685 0.950 . S
C696 C694 1.391 . S
C696 C697 1.400 . S
C697 C691 1.491 1_655 S
C697 C696 1.400 . S
C697 C698 1.398 . S
C698 H686 0.950 . S
C698 C697 1.398 . S
C698 C699 1.391 . S
C699 H687 0.950 . S
C699 C695 1.393 . S
C699 C698 1.391 . S
H700 C708 0.950 . S
H701 C713 0.950 1_655 S
H702 C710 0.950 . S
H703 C712 0.950 . S
H704 C714 0.950 . S
H705 C716 0.950 . S
H706 C718 0.950 . S
H707 C719 0.950 1_455 S
C708 H700 0.950 . S
C708 C709 1.386 . S
C708 C710 1.391 . S
C709 C708 1.386 . S
C709 C713 1.393 . S
C710 H702 0.950 . S
C710 C708 1.391 . S
C710 C711 1.400 . S
C711 C710 1.400 . S
C711 C712 1.398 1_455 S
C711 C717 1.491 1_455 S
C712 H703 0.950 . S
C712 C711 1.398 1_655 S
C712 C713 1.391 1_655 S
C713 H701 0.950 1_455 S
C713 C709 1.393 . S
C713 C712 1.391 1_455 S
C714 H704 0.950 . S
C714 C715 1.386 . S
C714 C716 1.391 . S
C715 C714 1.386 . S
C715 C719 1.393 . S
C716 H705 0.950 . S
C716 C714 1.391 . S
C716 C717 1.400 . S
C717 C711 1.491 1_655 S
C717 C716 1.400 . S
C717 C718 1.398 1_655 S
C718 H706 0.950 . S
C718 C717 1.398 1_455 S
C718 C719 1.391 1_455 S
C719 H707 0.950 1_655 S
C719 C715 1.393 . S
C719 C718 1.391 1_655 S
H720 C728 0.950 . S
H721 C733 0.950 . S
H722 C730 0.950 . S
H723 C732 0.950 . S
H724 C734 0.950 . S
H725 C736 0.950 . S
H726 C738 0.950 . S
H727 C739 0.950 . S
C728 H720 0.950 . S
C728 C729 1.386 . S
C728 C730 1.391 . S
C729 C728 1.386 . S
C729 C733 1.393 . S
C730 H722 0.950 . S
C730 C728 1.391 . S
C730 C731 1.400 . S
C731 C730 1.400 . S
C731 C732 1.398 . S
C731 C737 1.491 . S
C732 H723 0.950 . S
C732 C731 1.398 . S
C732 C733 1.391 . S
C733 H721 0.950 . S
C733 C729 1.393 . S
C733 C732 1.391 . S
C734 H724 0.950 . S
C734 C735 1.386 . S
C734 C736 1.391 . S
C735 C734 1.386 . S
C735 C739 1.393 . S
C736 H725 0.950 . S
C736 C734 1.391 . S
C736 C737 1.400 . S
C737 C731 1.491 . S
C737 C736 1.400 . S
C737 C738 1.398 . S
C738 H726 0.950 . S
C738 C737 1.398 . S
C738 C739 1.391 . S
C739 H727 0.950 . S
C739 C735 1.393 . S
C739 C738 1.391 . S
H740 C748 0.950 . S
H741 C753 0.950 . S
H742 C750 0.950 . S
H743 C752 0.950 . S
H744 C754 0.950 . S
H745 C756 0.950 . S
H746 C758 0.950 . S
H747 C759 0.950 . S
C748 H740 0.950 . S
C748 C749 1.386 . S
C748 C750 1.391 . S
C749 C748 1.386 . S
C749 C753 1.393 . S
C750 H742 0.950 . S
C750 C748 1.391 . S
C750 C751 1.400 . S
C751 C750 1.400 . S
C751 C752 1.398 . S
C751 C757 1.491 . S
C752 H743 0.950 . S
C752 C751 1.398 . S
C752 C753 1.391 . S
C753 H741 0.950 . S
C753 C749 1.393 . S
C753 C752 1.391 . S
C754 H744 0.950 . S
C754 C755 1.386 . S
C754 C756 1.391 . S
C755 C754 1.386 . S
C755 C759 1.393 . S
C756 H745 0.950 . S
C756 C754 1.391 . S
C756 C757 1.400 . S
C757 C751 1.491 . S
C757 C756 1.400 . S
C757 C758 1.398 . S
C758 H746 0.950 . S
C758 C757 1.398 . S
C758 C759 1.391 . S
C759 H747 0.950 . S
C759 C755 1.393 . S
C759 C758 1.391 . S
H760 C768 0.950 . S
H761 C773 0.950 . S
H762 C770 0.950 . S
H763 C772 0.950 . S
H764 C774 0.950 . S
H765 C776 0.950 . S
H766 C778 0.950 . S
H767 C779 0.950 . S
C768 H760 0.950 . S
C768 C769 1.386 . S
C768 C770 1.391 . S
C769 C768 1.386 . S
C769 C773 1.393 . S
C770 H762 0.950 . S
C770 C768 1.391 . S
C770 C771 1.400 . S
C771 C770 1.400 . S
C771 C772 1.398 . S
C771 C777 1.491 1_455 S
C772 H763 0.950 . S
C772 C771 1.398 . S
C772 C773 1.391 . S
C773 H761 0.950 . S
C773 C769 1.393 . S
C773 C772 1.391 . S
C774 H764 0.950 . S
C774 C775 1.386 . S
C774 C776 1.391 . S
C775 C774 1.386 . S
C775 C779 1.393 . S
C776 H765 0.950 . S
C776 C774 1.391 . S
C776 C777 1.400 . S
C777 C771 1.491 1_655 S
C777 C776 1.400 . S
C777 C778 1.398 . S
C778 H766 0.950 . S
C778 C777 1.398 . S
C778 C779 1.391 . S
C779 H767 0.950 . S
C779 C775 1.393 . S
C779 C778 1.391 . S
H780 C788 0.950 1_655 S
H781 C793 0.950 . S
H782 C790 0.950 . S
H783 C792 0.950 . S
H784 C794 0.950 1_455 S
H785 C796 0.950 . S
H786 C798 0.950 . S
H787 C799 0.950 . S
C788 H780 0.950 1_455 S
C788 C789 1.386 . S
C788 C790 1.391 1_455 S
C789 C788 1.386 . S
C789 C793 1.393 . S
C790 H782 0.950 . S
C790 C788 1.391 1_655 S
C790 C791 1.400 1_655 S
C791 C790 1.400 1_455 S
C791 C792 1.398 . S
C791 C797 1.491 1_455 S
C792 H783 0.950 . S
C792 C791 1.398 . S
C792 C793 1.391 . S
C793 H781 0.950 . S
C793 C789 1.393 . S
C793 C792 1.391 . S
C794 H784 0.950 1_655 S
C794 C795 1.386 . S
C794 C796 1.391 1_655 S
C795 C794 1.386 . S
C795 C799 1.393 . S
C796 H785 0.950 . S
C796 C794 1.391 1_455 S
C796 C797 1.400 1_455 S
C797 C791 1.491 1_655 S
C797 C796 1.400 1_655 S
C797 C798 1.398 . S
C798 H786 0.950 . S
C798 C797 1.398 . S
C798 C799 1.391 . S
C799 H787 0.950 . S
C799 C795 1.393 . S
C799 C798 1.391 . S
H800 C808 0.950 . S
H801 C813 0.950 . S
H802 C810 0.950 . S
H803 C812 0.950 . S
H804 C814 0.950 . S
H805 C816 0.950 . S
H806 C818 0.950 . S
H807 C819 0.950 . S
C808 H800 0.950 . S
C808 C809 1.386 1_546 S
C808 C810 1.391 . S
C809 C808 1.386 1_564 S
C809 C813 1.393 . S
C810 H802 0.950 . S
C810 C808 1.391 . S
C810 C811 1.390 1_546 S
C811 C810 1.390 1_564 S
C811 C812 1.409 . S
C811 C817 1.490 1_564 S
C812 H803 0.950 . S
C812 C811 1.409 . S
C812 C813 1.391 . S
C813 H801 0.950 . S
C813 C809 1.393 . S
C813 C812 1.391 . S
C814 H804 0.950 . S
C814 C815 1.386 1_564 S
C814 C816 1.391 . S
C815 C814 1.386 1_546 S
C815 C819 1.393 . S
C816 H805 0.950 . S
C816 C814 1.391 . S
C816 C817 1.390 1_564 S
C817 C811 1.490 1_546 S
C817 C816 1.390 1_546 S
C817 C818 1.409 . S
C818 H806 0.950 . S
C818 C817 1.409 . S
C818 C819 1.391 . S
C819 H807 0.950 . S
C819 C815 1.393 . S
C819 C818 1.391 . S
H820 C828 0.950 . S
H821 C833 0.950 . S
H822 C830 0.950 . S
H823 C832 0.950 . S
H824 C834 0.950 . S
H825 C836 0.950 . S
H826 C838 0.950 . S
H827 C839 0.950 . S
C828 H820 0.950 . S
C828 C829 1.386 . S
C828 C830 1.391 . S
C829 C828 1.386 . S
C829 C833 1.393 . S
C830 H822 0.950 . S
C830 C828 1.391 . S
C830 C831 1.400 . S
C831 C830 1.400 . S
C831 C832 1.398 . S
C831 C837 1.491 . S
C832 H823 0.950 . S
C832 C831 1.398 . S
C832 C833 1.391 . S
C833 H821 0.950 . S
C833 C829 1.393 . S
C833 C832 1.391 . S
C834 H824 0.950 . S
C834 C835 1.386 . S
C834 C836 1.391 . S
C835 C834 1.386 . S
C835 C839 1.393 . S
C836 H825 0.950 . S
C836 C834 1.391 . S
C836 C837 1.400 . S
C837 C831 1.491 . S
C837 C836 1.400 . S
C837 C838 1.398 . S
C838 H826 0.950 . S
C838 C837 1.398 . S
C838 C839 1.391 . S
C839 H827 0.950 . S
C839 C835 1.393 . S
C839 C838 1.391 . S
H840 C848 0.950 . S
H841 C853 0.950 . S
H842 C850 0.950 . S
H843 C852 0.950 . S
H844 C854 0.950 . S
H845 C856 0.950 . S
H846 C858 0.950 . S
H847 C859 0.950 . S
C848 H840 0.950 . S
C848 C849 1.386 1_565 S
C848 C850 1.391 . S
C849 C848 1.386 1_545 S
C849 C853 1.393 . S
C850 H842 0.950 . S
C850 C848 1.391 . S
C850 C851 1.400 1_565 S
C851 C850 1.400 1_545 S
C851 C852 1.398 . S
C851 C857 1.491 1_445 S
C852 H843 0.950 . S
C852 C851 1.398 . S
C852 C853 1.391 . S
C853 H841 0.950 . S
C853 C849 1.393 . S
C853 C852 1.391 . S
C854 H844 0.950 . S
C854 C855 1.386 1_545 S
C854 C856 1.391 . S
C855 C854 1.386 1_565 S
C855 C859 1.393 . S
C856 H845 0.950 . S
C856 C854 1.391 . S
C856 C857 1.400 1_545 S
C857 C851 1.491 1_665 S
C857 C856 1.400 1_565 S
C857 C858 1.398 . S
C858 H846 0.950 . S
C858 C857 1.398 . S
C858 C859 1.391 . S
C859 H847 0.950 . S
C859 C855 1.393 . S
C859 C858 1.391 . S
H860 C868 0.950 . S
H861 C873 0.950 . S
H862 C870 0.950 . S
H863 C872 0.950 . S
H864 C874 0.950 . S
H865 C876 0.950 . S
H866 C878 0.950 . S
H867 C879 0.950 . S
C868 H860 0.950 . S
C868 C869 1.386 . S
C868 C870 1.391 . S
C869 C868 1.386 . S
C869 C873 1.393 . S
C870 H862 0.950 . S
C870 C868 1.391 . S
C870 C871 1.400 . S
C871 C870 1.400 . S
C871 C872 1.398 . S
C871 C877 1.491 . S
C872 H863 0.950 . S
C872 C871 1.398 . S
C872 C873 1.391 . S
C873 H861 0.950 . S
C873 C869 1.393 . S
C873 C872 1.391 . S
C874 H864 0.950 . S
C874 C875 1.386 . S
C874 C876 1.391 . S
C875 C874 1.386 . S
C875 C879 1.393 . S
C876 H865 0.950 . S
C876 C874 1.391 . S
C876 C877 1.400 . S
C877 C871 1.491 . S
C877 C876 1.400 . S
C877 C878 1.398 . S
C878 H866 0.950 . S
C878 C877 1.398 . S
C878 C879 1.391 . S
C879 H867 0.950 . S
C879 C875 1.393 . S
C879 C878 1.391 . S
H880 C888 0.950 . S
H881 C893 0.950 . S
H882 C890 0.950 . S
H883 C892 0.950 . S
H884 C894 0.950 . S
H885 C896 0.950 . S
H886 C898 0.950 . S
H887 C899 0.950 . S
C888 H880 0.950 . S
C888 C889 1.386 . S
C888 C890 1.391 . S
C889 C888 1.386 . S
C889 C893 1.393 . S
C890 H882 0.950 . S
C890 C888 1.391 . S
C890 C891 1.400 . S
C891 C890 1.400 . S
C891 C892 1.398 . S
C891 C897 1.491 . S
C892 H883 0.950 . S
C892 C891 1.398 . S
C892 C893 1.391 . S
C893 H881 0.950 . S
C893 C889 1.393 . S
C893 C892 1.391 . S
C894 H884 0.950 . S
C894 C895 1.386 . S
C894 C896 1.391 . S
C895 C894 1.386 . S
C895 C899 1.393 . S
C896 H885 0.950 . S
C896 C894 1.391 . S
C896 C897 1.400 . S
C897 C891 1.491 . S
C897 C896 1.400 . S
C897 C898 1.398 . S
C898 H886 0.950 . S
C898 C897 1.398 . S
C898 C899 1.391 . S
C899 H887 0.950 . S
C899 C895 1.393 . S
C899 C898 1.391 . S
H900 C908 0.950 . S
H901 C913 0.950 . S
H902 C910 0.950 . S
H903 C912 0.950 . S
H904 C914 0.950 . S
H905 C916 0.950 . S
H906 C918 0.950 . S
H907 C919 0.950 . S
C908 H900 0.950 . S
C908 C909 1.386 . S
C908 C910 1.391 . S
C909 C908 1.386 . S
C909 C913 1.393 . S
C910 H902 0.950 . S
C910 C908 1.391 . S
C910 C911 1.400 . S
C911 C910 1.400 . S
C911 C912 1.398 . S
C911 C917 1.491 . S
C912 H903 0.950 . S
C912 C911 1.398 . S
C912 C913 1.391 . S
C913 H901 0.950 . S
C913 C909 1.393 . S
C913 C912 1.391 . S
C914 H904 0.950 . S
C914 C915 1.386 . S
C914 C916 1.391 . S
C915 C914 1.386 . S
C915 C919 1.393 . S
C916 H905 0.950 . S
C916 C914 1.391 . S
C916 C917 1.400 . S
C917 C911 1.491 . S
C917 C916 1.400 . S
C917 C918 1.398 . S
C918 H906 0.950 . S
C918 C917 1.398 . S
C918 C919 1.391 . S
C919 H907 0.950 . S
C919 C915 1.393 . S
C919 C918 1.391 . S
H920 C928 0.950 . S
H921 C933 0.950 . S
H922 C930 0.950 . S
H923 C932 0.950 . S
H924 C934 0.950 . S
H925 C936 0.950 . S
H926 C938 0.950 . S
H927 C939 0.950 . S
C928 H920 0.950 . S
C928 C929 1.386 . S
C928 C930 1.391 . S
C929 C928 1.386 . S
C929 C933 1.393 . S
C930 H922 0.950 . S
C930 C928 1.391 . S
C930 C931 1.400 . S
C931 C930 1.400 . S
C931 C932 1.398 . S
C931 C937 1.491 1_455 S
C932 H923 0.950 . S
C932 C931 1.398 . S
C932 C933 1.391 . S
C933 H921 0.950 . S
C933 C929 1.393 . S
C933 C932 1.391 . S
C934 H924 0.950 . S
C934 C935 1.386 . S
C934 C936 1.391 . S
C935 C934 1.386 . S
C935 C939 1.393 . S
C936 H925 0.950 . S
C936 C934 1.391 . S
C936 C937 1.400 . S
C937 C931 1.491 1_655 S
C937 C936 1.400 . S
C937 C938 1.398 . S
C938 H926 0.950 . S
C938 C937 1.398 . S
C938 C939 1.391 . S
C939 H927 0.950 . S
C939 C935 1.393 . S
C939 C938 1.391 . S
H940 C948 0.950 . S
H941 C953 0.950 . S
H942 C950 0.950 . S
H943 C952 0.950 . S
H944 C954 0.950 . S
H945 C956 0.950 . S
H946 C958 0.950 . S
H947 C959 0.950 . S
C948 H940 0.950 . S
C948 C949 1.386 1_556 S
C948 C950 1.391 . S
C949 C948 1.386 1_554 S
C949 C953 1.393 . S
C950 H942 0.950 . S
C950 C948 1.391 . S
C950 C951 1.400 1_556 S
C951 C950 1.400 1_554 S
C951 C952 1.398 . S
C951 C957 1.491 1_554 S
C952 H943 0.950 . S
C952 C951 1.398 . S
C952 C953 1.391 . S
C953 H941 0.950 . S
C953 C949 1.393 . S
C953 C952 1.391 . S
C954 H944 0.950 . S
C954 C955 1.386 1_554 S
C954 C956 1.391 . S
C955 C954 1.386 1_556 S
C955 C959 1.393 . S
C956 H945 0.950 . S
C956 C954 1.391 . S
C956 C957 1.400 1_554 S
C957 C951 1.491 1_556 S
C957 C956 1.400 1_556 S
C957 C958 1.398 . S
C958 H946 0.950 . S
C958 C957 1.398 . S
C958 C959 1.391 . S
C959 H947 0.950 . S
C959 C955 1.393 . S
C959 C958 1.391 . S
H960 C968 0.950 . S
H961 C973 0.950 . S
H962 C970 0.950 . S
H963 C972 0.950 . S
H964 C974 0.950 . S
H965 C976 0.950 . S
H966 C978 0.950 . S
H967 C979 0.950 . S
C968 H960 0.950 . S
C968 C969 1.386 . S
C968 C970 1.391 . S
C969 C968 1.386 . S
C969 C973 1.393 . S
C970 H962 0.950 . S
C970 C968 1.391 . S
C970 C971 1.400 . S
C971 C970 1.400 . S
C971 C972 1.398 . S
C971 C977 1.491 . S
C972 H963 0.950 . S
C972 C971 1.398 . S
C972 C973 1.391 . S
C973 H961 0.950 . S
C973 C969 1.393 . S
C973 C972 1.391 . S
C974 H964 0.950 . S
C974 C975 1.386 . S
C974 C976 1.391 . S
C975 C974 1.386 . S
C975 C979 1.393 . S
C976 H965 0.950 . S
C976 C974 1.391 . S
C976 C977 1.400 . S
C977 C971 1.491 . S
C977 C976 1.400 . S
C977 C978 1.398 . S
C978 H966 0.950 . S
C978 C977 1.398 . S
C978 C979 1.391 . S
C979 H967 0.950 . S
C979 C975 1.393 . S
C979 C978 1.391 . S
H980 C988 0.950 . S
H981 C993 0.950 . S
H982 C990 0.950 . S
H983 C992 0.950 . S
H984 C994 0.950 . S
H985 C996 0.950 . S
H986 C998 0.950 . S
H987 C999 0.950 . S
C988 H980 0.950 . S
C988 C989 1.386 . S
C988 C990 1.391 . S
C989 C988 1.386 . S
C989 C993 1.393 . S
C990 H982 0.950 . S
C990 C988 1.391 . S
C990 C991 1.400 . S
C991 C990 1.400 . S
C991 C992 1.398 . S
C991 C997 1.491 . S
C992 H983 0.950 . S
C992 C991 1.398 . S
C992 C993 1.391 . S
C993 H981 0.950 . S
C993 C989 1.393 . S
C993 C992 1.391 . S
C994 H984 0.950 . S
C994 C995 1.386 . S
C994 C996 1.391 . S
C995 C994 1.386 . S
C995 C999 1.393 . S
C996 H985 0.950 . S
C996 C994 1.391 . S
C996 C997 1.400 . S
C997 C991 1.491 . S
C997 C996 1.400 . S
C997 C998 1.398 . S
C998 H986 0.950 . S
C998 C997 1.398 . S
C998 C999 1.391 . S
C999 H987 0.950 . S
C999 C995 1.393 . S
C999 C998 1.391 . S
H1000 C1008 0.950 . S
H1001 C1013 0.950 . S
H1002 C1010 0.950 . S
H1003 C1012 0.950 . S
H1004 C1014 0.950 . S
H1005 C1016 0.950 . S
H1006 C1018 0.950 . S
H1007 C1019 0.950 . S
C1008 H1000 0.950 . S
C1008 C1009 1.386 . S
C1008 C1010 1.391 . S
C1009 C1008 1.386 . S
C1009 C1013 1.393 . S
C1010 H1002 0.950 . S
C1010 C1008 1.391 . S
C1010 C1011 1.400 . S
C1011 C1010 1.400 . S
C1011 C1012 1.398 . S
C1011 C1017 1.491 . S
C1012 H1003 0.950 . S
C1012 C1011 1.398 . S
C1012 C1013 1.391 . S
C1013 H1001 0.950 . S
C1013 C1009 1.393 . S
C1013 C1012 1.391 . S
C1014 H1004 0.950 . S
C1014 C1015 1.386 . S
C1014 C1016 1.391 . S
C1015 C1014 1.386 . S
C1015 C1019 1.393 . S
C1016 H1005 0.950 . S
C1016 C1014 1.391 . S
C1016 C1017 1.400 . S
C1017 C1011 1.491 . S
C1017 C1016 1.400 . S
C1017 C1018 1.398 . S
C1018 H1006 0.950 . S
C1018 C1017 1.398 . S
C1018 C1019 1.391 . S
C1019 H1007 0.950 . S
C1019 C1015 1.393 . S
C1019 C1018 1.391 . S
H1020 C1028 0.950 . S
H1021 C1033 0.950 . S
H1022 C1030 0.950 . S
H1023 C1032 0.950 . S
H1024 C1034 0.950 . S
H1025 C1036 0.950 . S
H1026 C1038 0.950 . S
H1027 C1039 0.950 . S
C1028 H1020 0.950 . S
C1028 C1029 1.386 . S
C1028 C1030 1.391 . S
C1029 C1028 1.386 . S
C1029 C1033 1.393 . S
C1030 H1022 0.950 . S
C1030 C1028 1.391 . S
C1030 C1031 1.400 . S
C1031 C1030 1.400 . S
C1031 C1032 1.398 . S
C1031 C1037 1.491 . S
C1032 H1023 0.950 . S
C1032 C1031 1.398 . S
C1032 C1033 1.391 . S
C1033 H1021 0.950 . S
C1033 C1029 1.393 . S
C1033 C1032 1.391 . S
C1034 H1024 0.950 . S
C1034 C1035 1.386 . S
C1034 C1036 1.391 . S
C1035 C1034 1.386 . S
C1035 C1039 1.393 . S
C1036 H1025 0.950 . S
C1036 C1034 1.391 . S
C1036 C1037 1.400 . S
C1037 C1031 1.491 . S
C1037 C1036 1.400 . S
C1037 C1038 1.398 . S
C1038 H1026 0.950 . S
C1038 C1037 1.398 . S
C1038 C1039 1.391 . S
C1039 H1027 0.950 . S
C1039 C1035 1.393 . S
C1039 C1038 1.391 . S
H1040 C1048 0.950 . S
H1041 C1053 0.950 . S
H1042 C1050 0.950 . S
H1043 C1052 0.950 . S
H1044 C1054 0.950 . S
H1045 C1056 0.950 . S
H1046 C1058 0.950 . S
H1047 C1059 0.950 . S
C1048 H1040 0.950 . S
C1048 C1049 1.386 . S
C1048 C1050 1.391 . S
C1049 C1048 1.386 . S
C1049 C1053 1.393 . S
C1050 H1042 0.950 . S
C1050 C1048 1.391 . S
C1050 C1051 1.400 . S
C1051 C1050 1.400 . S
C1051 C1052 1.398 . S
C1051 C1057 1.491 . S
C1052 H1043 0.950 . S
C1052 C1051 1.398 . S
C1052 C1053 1.391 . S
C1053 H1041 0.950 . S
C1053 C1049 1.393 . S
C1053 C1052 1.391 . S
C1054 H1044 0.950 . S
C1054 C1055 1.386 . S
C1054 C1056 1.391 . S
C1055 C1054 1.386 . S
C1055 C1059 1.393 . S
C1056 H1045 0.950 . S
C1056 C1054 1.391 . S
C1056 C1057 1.400 . S
C1057 C1051 1.491 . S
C1057 C1056 1.400 . S
C1057 C1058 1.398 . S
C1058 H1046 0.950 . S
C1058 C1057 1.398 . S
C1058 C1059 1.391 . S
C1059 H1047 0.950 . S
C1059 C1055 1.393 . S
C1059 C1058 1.391 . S
H1060 C1068 0.950 . S
H1061 C1073 0.950 . S
H1062 C1070 0.950 . S
H1063 C1072 0.950 . S
H1064 C1074 0.950 . S
H1065 C1076 0.950 . S
H1066 C1078 0.950 . S
H1067 C1079 0.950 . S
C1068 H1060 0.950 . S
C1068 C1069 1.386 . S
C1068 C1070 1.391 . S
C1069 C1068 1.386 . S
C1069 C1073 1.393 . S
C1070 H1062 0.950 . S
C1070 C1068 1.391 . S
C1070 C1071 1.400 . S
C1071 C1070 1.400 . S
C1071 C1072 1.398 . S
C1071 C1077 1.491 . S
C1072 H1063 0.950 . S
C1072 C1071 1.398 . S
C1072 C1073 1.391 . S
C1073 H1061 0.950 . S
C1073 C1069 1.393 . S
C1073 C1072 1.391 . S
C1074 H1064 0.950 . S
C1074 C1075 1.386 . S
C1074 C1076 1.391 . S
C1075 C1074 1.386 . S
C1075 C1079 1.393 . S
C1076 H1065 0.950 . S
C1076 C1074 1.391 . S
C1076 C1077 1.400 . S
C1077 C1071 1.491 . S
C1077 C1076 1.400 . S
C1077 C1078 1.398 . S
C1078 H1066 0.950 . S
C1078 C1077 1.398 . S
C1078 C1079 1.391 . S
C1079 H1067 0.950 . S
C1079 C1075 1.393 . S
C1079 C1078 1.391 . S
H1080 C1088 0.950 . S
H1081 C1093 0.950 . S
H1082 C1090 0.950 . S
H1083 C1092 0.950 . S
H1084 C1094 0.950 . S
H1085 C1096 0.950 . S
H1086 C1098 0.950 . S
H1087 C1099 0.950 . S
C1088 H1080 0.950 . S
C1088 C1089 1.386 . S
C1088 C1090 1.391 . S
C1089 C1088 1.386 . S
C1089 C1093 1.393 . S
C1090 H1082 0.950 . S
C1090 C1088 1.391 . S
C1090 C1091 1.400 . S
C1091 C1090 1.400 . S
C1091 C1092 1.398 . S
C1091 C1097 1.491 . S
C1092 H1083 0.950 . S
C1092 C1091 1.398 . S
C1092 C1093 1.391 . S
C1093 H1081 0.950 . S
C1093 C1089 1.393 . S
C1093 C1092 1.391 . S
C1094 H1084 0.950 . S
C1094 C1095 1.386 . S
C1094 C1096 1.391 . S
C1095 C1094 1.386 . S
C1095 C1099 1.393 . S
C1096 H1085 0.950 . S
C1096 C1094 1.391 . S
C1096 C1097 1.400 . S
C1097 C1091 1.491 . S
C1097 C1096 1.400 . S
C1097 C1098 1.398 . S
C1098 H1086 0.950 . S
C1098 C1097 1.398 . S
C1098 C1099 1.391 . S
C1099 H1087 0.950 . S
C1099 C1095 1.393 . S
C1099 C1098 1.391 . S
H1100 C1108 0.950 . S
H1101 C1113 0.950 . S
H1102 C1110 0.950 . S
H1103 C1112 0.950 . S
H1104 C1114 0.950 . S
H1105 C1116 0.950 . S
H1106 C1118 0.950 . S
H1107 C1119 0.950 . S
C1108 H1100 0.950 . S
C1108 C1109 1.386 . S
C1108 C1110 1.391 . S
C1109 C1108 1.386 . S
C1109 C1113 1.393 . S
C1110 H1102 0.950 . S
C1110 C1108 1.391 . S
C1110 C1111 1.400 . S
C1111 C1110 1.400 . S
C1111 C1112 1.398 . S
C1111 C1117 1.491 . S
C1112 H1103 0.950 . S
C1112 C1111 1.398 . S
C1112 C1113 1.391 . S
C1113 H1101 0.950 . S
C1113 C1109 1.393 . S
C1113 C1112 1.391 . S
C1114 H1104 0.950 . S
C1114 C1115 1.386 . S
C1114 C1116 1.391 . S
C1115 C1114 1.386 . S
C1115 C1119 1.393 . S
C1116 H1105 0.950 . S
C1116 C1114 1.391 . S
C1116 C1117 1.400 . S
C1117 C1111 1.491 . S
C1117 C1116 1.400 . S
C1117 C1118 1.398 . S
C1118 H1106 0.950 . S
C1118 C1117 1.398 . S
C1118 C1119 1.391 . S
C1119 H1107 0.950 . S
C1119 C1115 1.393 . S
C1119 C1118 1.391 . S
H1120 C1128 0.950 . S
H1121 C1133 0.950 . S
H1122 C1130 0.950 . S
H1123 C1132 0.950 . S
H1124 C1134 0.950 . S
H1125 C1136 0.950 . S
H1126 C1138 0.950 . S
H1127 C1139 0.950 . S
C1128 H1120 0.950 . S
C1128 C1129 1.386 . S
C1128 C1130 1.391 . S
C1129 C1128 1.386 . S
C1129 C1133 1.393 . S
C1130 H1122 0.950 . S
C1130 C1128 1.391 . S
C1130 C1131 1.400 . S
C1131 C1130 1.400 . S
C1131 C1132 1.398 . S
C1131 C1137 1.491 . S
C1132 H1123 0.950 . S
C1132 C1131 1.398 . S
C1132 C1133 1.391 . S
C1133 H1121 0.950 . S
C1133 C1129 1.393 . S
C1133 C1132 1.391 . S
C1134 H1124 0.950 . S
C1134 C1135 1.386 . S
C1134 C1136 1.391 . S
C1135 C1134 1.386 . S
C1135 C1139 1.393 . S
C1136 H1125 0.950 . S
C1136 C1134 1.391 . S
C1136 C1137 1.400 . S
C1137 C1131 1.491 . S
C1137 C1136 1.400 . S
C1137 C1138 1.398 . S
C1138 H1126 0.950 . S
C1138 C1137 1.398 . S
C1138 C1139 1.391 . S
C1139 H1127 0.950 . S
C1139 C1135 1.393 . S
C1139 C1138 1.391 . S
H1140 C1148 0.950 . S
H1141 C1153 0.950 . S
H1142 C1150 0.950 . S
H1143 C1152 0.950 . S
H1144 C1154 0.950 . S
H1145 C1156 0.950 . S
H1146 C1158 0.950 . S
H1147 C1159 0.950 . S
C1148 H1140 0.950 . S
C1148 C1149 1.386 . S
C1148 C1150 1.391 . S
C1149 C1148 1.386 . S
C1149 C1153 1.393 . S
C1150 H1142 0.950 . S
C1150 C1148 1.391 . S
C1150 C1151 1.400 . S
C1151 C1150 1.400 . S
C1151 C1152 1.398 . S
C1151 C1157 1.491 . S
C1152 H1143 0.950 . S
C1152 C1151 1.398 . S
C1152 C1153 1.391 . S
C1153 H1141 0.950 . S
C1153 C1149 1.393 . S
C1153 C1152 1.391 . S
C1154 H1144 0.950 . S
C1154 C1155 1.386 . S
C1154 C1156 1.391 . S
C1155 C1154 1.386 . S
C1155 C1159 1.393 . S
C1156 H1145 0.950 . S
C1156 C1154 1.391 . S
C1156 C1157 1.400 . S
C1157 C1151 1.491 . S
C1157 C1156 1.400 . S
C1157 C1158 1.398 . S
C1158 H1146 0.950 . S
C1158 C1157 1.398 . S
C1158 C1159 1.391 . S
C1159 H1147 0.950 . S
C1159 C1155 1.393 . S
C1159 C1158 1.391 . S
H1160 C1168 0.950 . S
H1161 C1173 0.950 . S
H1162 C1170 0.950 . S
H1163 C1172 0.950 . S
H1164 C1174 0.950 . S
H1165 C1176 0.950 . S
H1166 C1178 0.950 . S
H1167 C1179 0.950 . S
C1168 H1160 0.950 . S
C1168 C1169 1.386 . S
C1168 C1170 1.391 . S
C1169 C1168 1.386 . S
C1169 C1173 1.393 . S
C1170 H1162 0.950 . S
C1170 C1168 1.391 . S
C1170 C1171 1.400 . S
C1171 C1170 1.400 . S
C1171 C1172 1.398 . S
C1171 C1177 1.491 . S
C1172 H1163 0.950 . S
C1172 C1171 1.398 . S
C1172 C1173 1.391 . S
C1173 H1161 0.950 . S
C1173 C1169 1.393 . S
C1173 C1172 1.391 . S
C1174 H1164 0.950 . S
C1174 C1175 1.386 . S
C1174 C1176 1.391 . S
C1175 C1174 1.386 . S
C1175 C1179 1.393 . S
C1176 H1165 0.950 . S
C1176 C1174 1.391 . S
C1176 C1177 1.400 . S
C1177 C1171 1.491 . S
C1177 C1176 1.400 . S
C1177 C1178 1.398 . S
C1178 H1166 0.950 . S
C1178 C1177 1.398 . S
C1178 C1179 1.391 . S
C1179 H1167 0.950 . S
C1179 C1175 1.393 . S
C1179 C1178 1.391 . S
H1180 C1188 0.950 . S
H1181 C1193 0.950 . S
H1182 C1190 0.950 . S
H1183 C1192 0.950 . S
H1184 C1194 0.950 . S
H1185 C1196 0.950 . S
H1186 C1198 0.950 . S
H1187 C1199 0.950 . S
C1188 H1180 0.950 . S
C1188 C1189 1.386 . S
C1188 C1190 1.391 . S
C1189 C1188 1.386 . S
C1189 C1193 1.393 . S
C1190 H1182 0.950 . S
C1190 C1188 1.391 . S
C1190 C1191 1.400 . S
C1191 C1190 1.400 . S
C1191 C1192 1.398 . S
C1191 C1197 1.491 . S
C1192 H1183 0.950 . S
C1192 C1191 1.398 . S
C1192 C1193 1.391 . S
C1193 H1181 0.950 . S
C1193 C1189 1.393 . S
C1193 C1192 1.391 . S
C1194 H1184 0.950 . S
C1194 C1195 1.386 . S
C1194 C1196 1.391 . S
C1195 C1194 1.386 . S
C1195 C1199 1.393 . S
C1196 H1185 0.950 . S
C1196 C1194 1.391 . S
C1196 C1197 1.400 . S
C1197 C1191 1.491 . S
C1197 C1196 1.400 . S
C1197 C1198 1.398 . S
C1198 H1186 0.950 . S
C1198 C1197 1.398 . S
C1198 C1199 1.391 . S
C1199 H1187 0.950 . S
C1199 C1195 1.393 . S
C1199 C1198 1.391 . S
H1200 C1208 0.950 . S
H1201 C1213 0.950 . S
H1202 C1210 0.950 . S
H1203 C1212 0.950 . S
H1204 C1214 0.950 . S
H1205 C1216 0.950 . S
H1206 C1218 0.950 . S
H1207 C1219 0.950 . S
C1208 H1200 0.950 . S
C1208 C1209 1.386 . S
C1208 C1210 1.391 . S
C1209 C1208 1.386 . S
C1209 C1213 1.393 . S
C1210 H1202 0.950 . S
C1210 C1208 1.391 . S
C1210 C1211 1.400 . S
C1211 C1210 1.400 . S
C1211 C1212 1.398 . S
C1211 C1217 1.491 . S
C1212 H1203 0.950 . S
C1212 C1211 1.398 . S
C1212 C1213 1.391 . S
C1213 H1201 0.950 . S
C1213 C1209 1.393 . S
C1213 C1212 1.391 . S
C1214 H1204 0.950 . S
C1214 C1215 1.386 . S
C1214 C1216 1.391 . S
C1215 C1214 1.386 . S
C1215 C1219 1.393 . S
C1216 H1205 0.950 . S
C1216 C1214 1.391 . S
C1216 C1217 1.400 . S
C1217 C1211 1.491 . S
C1217 C1216 1.400 . S
C1217 C1218 1.398 . S
C1218 H1206 0.950 . S
C1218 C1217 1.398 . S
C1218 C1219 1.391 . S
C1219 H1207 0.950 . S
C1219 C1215 1.393 . S
C1219 C1218 1.391 . S
H1220 C1228 0.950 . S
H1221 C1233 0.950 . S
H1222 C1230 0.950 . S
H1223 C1232 0.950 . S
H1224 C1234 0.950 . S
H1225 C1236 0.950 . S
H1226 C1238 0.950 . S
H1227 C1239 0.950 . S
C1228 H1220 0.950 . S
C1228 C1229 1.386 . S
C1228 C1230 1.391 . S
C1229 C1228 1.386 . S
C1229 C1233 1.393 . S
C1230 H1222 0.950 . S
C1230 C1228 1.391 . S
C1230 C1231 1.400 . S
C1231 C1230 1.400 . S
C1231 C1232 1.398 . S
C1231 C1237 1.491 . S
C1232 H1223 0.950 . S
C1232 C1231 1.398 . S
C1232 C1233 1.391 . S
C1233 H1221 0.950 . S
C1233 C1229 1.393 . S
C1233 C1232 1.391 . S
C1234 H1224 0.950 . S
C1234 C1235 1.386 . S
C1234 C1236 1.391 . S
C1235 C1234 1.386 . S
C1235 C1239 1.393 . S
C1236 H1225 0.950 . S
C1236 C1234 1.391 . S
C1236 C1237 1.400 . S
C1237 C1231 1.491 . S
C1237 C1236 1.400 . S
C1237 C1238 1.398 . S
C1238 H1226 0.950 . S
C1238 C1237 1.398 . S
C1238 C1239 1.391 . S
C1239 H1227 0.950 . S
C1239 C1235 1.393 . S
C1239 C1238 1.391 . S
H1240 C1248 0.950 . S
H1241 C1253 0.950 . S
H1242 C1250 0.950 . S
H1243 C1252 0.950 . S
H1244 C1254 0.950 . S
H1245 C1256 0.950 . S
H1246 C1258 0.950 . S
H1247 C1259 0.950 . S
C1248 H1240 0.950 . S
C1248 C1249 1.386 . S
C1248 C1250 1.391 . S
C1249 C1248 1.386 . S
C1249 C1253 1.393 . S
C1250 H1242 0.950 . S
C1250 C1248 1.391 . S
C1250 C1251 1.400 . S
C1251 C1250 1.400 . S
C1251 C1252 1.398 . S
C1251 C1257 1.491 . S
C1252 H1243 0.950 . S
C1252 C1251 1.398 . S
C1252 C1253 1.391 . S
C1253 H1241 0.950 . S
C1253 C1249 1.393 . S
C1253 C1252 1.391 . S
C1254 H1244 0.950 . S
C1254 C1255 1.386 . S
C1254 C1256 1.391 . S
C1255 C1254 1.386 . S
C1255 C1259 1.393 . S
C1256 H1245 0.950 . S
C1256 C1254 1.391 . S
C1256 C1257 1.400 . S
C1257 C1251 1.491 . S
C1257 C1256 1.400 . S
C1257 C1258 1.398 . S
C1258 H1246 0.950 . S
C1258 C1257 1.398 . S
C1258 C1259 1.391 . S
C1259 H1247 0.950 . S
C1259 C1255 1.393 . S
C1259 C1258 1.391 . S
H1260 C1268 0.950 . S
H1261 C1273 0.950 . S
H1262 C1270 0.950 . S
H1263 C1272 0.950 . S
H1264 C1274 0.950 . S
H1265 C1276 0.950 . S
H1266 C1278 0.950 . S
H1267 C1279 0.950 . S
C1268 H1260 0.950 . S
C1268 C1269 1.386 . S
C1268 C1270 1.391 . S
C1269 C1268 1.386 . S
C1269 C1273 1.393 . S
C1270 H1262 0.950 . S
C1270 C1268 1.391 . S
C1270 C1271 1.400 . S
C1271 C1270 1.400 . S
C1271 C1272 1.398 . S
C1271 C1277 1.491 . S
C1272 H1263 0.950 . S
C1272 C1271 1.398 . S
C1272 C1273 1.391 . S
C1273 H1261 0.950 . S
C1273 C1269 1.393 . S
C1273 C1272 1.391 . S
C1274 H1264 0.950 . S
C1274 C1275 1.386 . S
C1274 C1276 1.391 . S
C1275 C1274 1.386 . S
C1275 C1279 1.393 . S
C1276 H1265 0.950 . S
C1276 C1274 1.391 . S
C1276 C1277 1.400 . S
C1277 C1271 1.491 . S
C1277 C1276 1.400 . S
C1277 C1278 1.398 . S
C1278 H1266 0.950 . S
C1278 C1277 1.398 . S
C1278 C1279 1.391 . S
C1279 H1267 0.950 . S
C1279 C1275 1.393 . S
C1279 C1278 1.391 . S
H1280 C1288 0.950 . S
H1281 C1293 0.950 . S
H1282 C1290 0.950 . S
H1283 C1292 0.950 . S
H1284 C1294 0.950 . S
H1285 C1296 0.950 . S
H1286 C1298 0.950 . S
H1287 C1299 0.950 . S
C1288 H1280 0.950 . S
C1288 C1289 1.386 . S
C1288 C1290 1.391 1_554 S
C1289 C1288 1.386 . S
C1289 C1293 1.393 1_554 S
C1290 H1282 0.950 . S
C1290 C1288 1.391 1_556 S
C1290 C1291 1.400 . S
C1291 C1290 1.400 . S
C1291 C1292 1.398 . S
C1291 C1297 1.491 . S
C1292 H1283 0.950 . S
C1292 C1291 1.398 . S
C1292 C1293 1.391 . S
C1293 H1281 0.950 . S
C1293 C1289 1.393 1_556 S
C1293 C1292 1.391 . S
C1294 H1284 0.950 . S
C1294 C1295 1.386 . S
C1294 C1296 1.391 . S
C1295 C1294 1.386 . S
C1295 C1299 1.393 . S
C1296 H1285 0.950 . S
C1296 C1294 1.391 . S
C1296 C1297 1.400 . S
C1297 C1291 1.491 . S
C1297 C1296 1.400 . S
C1297 C1298 1.398 . S
C1298 H1286 0.950 . S
C1298 C1297 1.398 . S
C1298 C1299 1.391 . S
C1299 H1287 0.950 . S
C1299 C1295 1.393 . S
C1299 C1298 1.391 . S
H1300 C1308 0.950 . S
H1301 C1313 0.950 . S
H1302 C1310 0.950 . S
H1303 C1312 0.950 . S
H1304 C1314 0.950 . S
H1305 C1316 0.950 . S
H1306 C1318 0.950 . S
H1307 C1319 0.950 . S
C1308 H1300 0.950 . S
C1308 C1309 1.386 . S
C1308 C1310 1.391 . S
C1309 C1308 1.386 . S
C1309 C1313 1.393 . S
C1310 H1302 0.950 . S
C1310 C1308 1.391 . S
C1310 C1311 1.400 . S
C1311 C1310 1.400 . S
C1311 C1312 1.398 . S
C1311 C1317 1.491 . S
C1312 H1303 0.950 . S
C1312 C1311 1.398 . S
C1312 C1313 1.391 . S
C1313 H1301 0.950 . S
C1313 C1309 1.393 . S
C1313 C1312 1.391 . S
C1314 H1304 0.950 . S
C1314 C1315 1.386 . S
C1314 C1316 1.391 . S
C1315 C1314 1.386 . S
C1315 C1319 1.393 . S
C1316 H1305 0.950 . S
C1316 C1314 1.391 . S
C1316 C1317 1.400 . S
C1317 C1311 1.491 . S
C1317 C1316 1.400 . S
C1317 C1318 1.398 . S
C1318 H1306 0.950 . S
C1318 C1317 1.398 . S
C1318 C1319 1.391 . S
C1319 H1307 0.950 . S
C1319 C1315 1.393 . S
C1319 C1318 1.391 . S
H1320 C1328 0.950 . S
H1321 C1333 0.950 . S
H1322 C1330 0.950 . S
H1323 C1332 0.950 . S
H1324 C1334 0.950 . S
H1325 C1336 0.950 . S
H1326 C1338 0.950 . S
H1327 C1339 0.950 . S
C1328 H1320 0.950 . S
C1328 C1329 1.386 . S
C1328 C1330 1.391 . S
C1329 C1328 1.386 . S
C1329 C1333 1.393 . S
C1330 H1322 0.950 . S
C1330 C1328 1.391 . S
C1330 C1331 1.400 . S
C1331 C1330 1.400 . S
C1331 C1332 1.398 . S
C1331 C1337 1.491 . S
C1332 H1323 0.950 . S
C1332 C1331 1.398 . S
C1332 C1333 1.391 . S
C1333 H1321 0.950 . S
C1333 C1329 1.393 . S
C1333 C1332 1.391 . S
C1334 H1324 0.950 . S
C1334 C1335 1.386 . S
C1334 C1336 1.391 . S
C1335 C1334 1.386 . S
C1335 C1339 1.393 . S
C1336 H1325 0.950 . S
C1336 C1334 1.391 . S
C1336 C1337 1.400 . S
C1337 C1331 1.491 . S
C1337 C1336 1.400 . S
C1337 C1338 1.398 . S
C1338 H1326 0.950 . S
C1338 C1337 1.398 . S
C1338 C1339 1.391 . S
C1339 H1327 0.950 . S
C1339 C1335 1.393 . S
C1339 C1338 1.391 . S
H1340 C1348 0.950 . S
H1341 C1353 0.950 . S
H1342 C1350 0.950 . S
H1343 C1352 0.950 . S
H1344 C1354 0.950 . S
H1345 C1356 0.950 . S
H1346 C1358 0.950 . S
H1347 C1359 0.950 . S
C1348 H1340 0.950 . S
C1348 C1349 1.386 . S
C1348 C1350 1.391 . S
C1349 C1348 1.386 . S
C1349 C1353 1.393 . S
C1350 H1342 0.950 . S
C1350 C1348 1.391 . S
C1350 C1351 1.400 . S
C1351 C1350 1.400 . S
C1351 C1352 1.398 . S
C1351 C1357 1.491 . S
C1352 H1343 0.950 . S
C1352 C1351 1.398 . S
C1352 C1353 1.391 . S
C1353 H1341 0.950 . S
C1353 C1349 1.393 . S
C1353 C1352 1.391 . S
C1354 H1344 0.950 . S
C1354 C1355 1.386 . S
C1354 C1356 1.391 . S
C1355 C1354 1.386 . S
C1355 C1359 1.393 . S
C1356 H1345 0.950 . S
C1356 C1354 1.391 . S
C1356 C1357 1.400 . S
C1357 C1351 1.491 . S
C1357 C1356 1.400 . S
C1357 C1358 1.398 . S
C1358 H1346 0.950 . S
C1358 C1357 1.398 . S
C1358 C1359 1.391 . S
C1359 H1347 0.950 . S
C1359 C1355 1.393 . S
C1359 C1358 1.391 . S
H1360 C1368 0.950 . S
H1361 C1373 0.950 . S
H1362 C1370 0.950 . S
H1363 C1372 0.950 . S
H1364 C1374 0.950 . S
H1365 C1376 0.950 . S
H1366 C1378 0.950 . S
H1367 C1379 0.950 . S
C1368 H1360 0.950 . S
C1368 C1369 1.386 . S
C1368 C1370 1.391 . S
C1369 C1368 1.386 . S
C1369 C1373 1.393 . S
C1370 H1362 0.950 . S
C1370 C1368 1.391 . S
C1370 C1371 1.400 . S
C1371 C1370 1.400 . S
C1371 C1372 1.398 . S
C1371 C1377 1.491 . S
C1372 H1363 0.950 . S
C1372 C1371 1.398 . S
C1372 C1373 1.391 . S
C1373 H1361 0.950 . S
C1373 C1369 1.393 . S
C1373 C1372 1.391 . S
C1374 H1364 0.950 . S
C1374 C1375 1.386 1_554 S
C1374 C1376 1.391 . S
C1375 C1374 1.386 1_556 S
C1375 C1379 1.393 . S
C1376 H1365 0.950 . S
C1376 C1374 1.391 . S
C1376 C1377 1.400 . S
C1377 C1371 1.491 . S
C1377 C1376 1.400 . S
C1377 C1378 1.398 . S
C1378 H1366 0.950 . S
C1378 C1377 1.398 . S
C1378 C1379 1.391 1_554 S
C1379 H1367 0.950 . S
C1379 C1375 1.393 . S
C1379 C1378 1.391 1_556 S
H1380 C1388 0.950 . S
H1381 C1393 0.950 . S
H1382 C1390 0.950 . S
H1383 C1392 0.950 . S
H1384 C1394 0.950 . S
H1385 C1396 0.950 . S
H1386 C1398 0.950 . S
H1387 C1399 0.950 . S
C1388 H1380 0.950 . S
C1388 C1389 1.386 . S
C1388 C1390 1.391 . S
C1389 C1388 1.386 . S
C1389 C1393 1.393 . S
C1390 H1382 0.950 . S
C1390 C1388 1.391 . S
C1390 C1391 1.400 . S
C1391 C1390 1.400 . S
C1391 C1392 1.398 . S
C1391 C1397 1.491 . S
C1392 H1383 0.950 . S
C1392 C1391 1.398 . S
C1392 C1393 1.391 . S
C1393 H1381 0.950 . S
C1393 C1389 1.393 . S
C1393 C1392 1.391 . S
C1394 H1384 0.950 . S
C1394 C1395 1.386 . S
C1394 C1396 1.391 . S
C1395 C1394 1.386 . S
C1395 C1399 1.393 . S
C1396 H1385 0.950 . S
C1396 C1394 1.391 . S
C1396 C1397 1.400 . S
C1397 C1391 1.491 . S
C1397 C1396 1.400 . S
C1397 C1398 1.398 . S
C1398 H1386 0.950 . S
C1398 C1397 1.398 . S
C1398 C1399 1.391 . S
C1399 H1387 0.950 . S
C1399 C1395 1.393 . S
C1399 C1398 1.391 . S
H1400 C1408 0.950 . S
H1401 C1413 0.950 . S
H1402 C1410 0.950 . S
H1403 C1412 0.950 . S
H1404 C1414 0.950 . S
H1405 C1416 0.950 . S
H1406 C1418 0.950 . S
H1407 C1419 0.950 . S
C1408 H1400 0.950 . S
C1408 C1409 1.386 . S
C1408 C1410 1.391 . S
C1409 C1408 1.386 . S
C1409 C1413 1.393 . S
C1410 H1402 0.950 . S
C1410 C1408 1.391 . S
C1410 C1411 1.400 . S
C1411 C1410 1.400 . S
C1411 C1412 1.398 . S
C1411 C1417 1.491 . S
C1412 H1403 0.950 . S
C1412 C1411 1.398 . S
C1412 C1413 1.391 . S
C1413 H1401 0.950 . S
C1413 C1409 1.393 . S
C1413 C1412 1.391 . S
C1414 H1404 0.950 . S
C1414 C1415 1.386 . S
C1414 C1416 1.391 . S
C1415 C1414 1.386 . S
C1415 C1419 1.393 . S
C1416 H1405 0.950 . S
C1416 C1414 1.391 . S
C1416 C1417 1.400 . S
C1417 C1411 1.491 . S
C1417 C1416 1.400 . S
C1417 C1418 1.398 . S
C1418 H1406 0.950 . S
C1418 C1417 1.398 . S
C1418 C1419 1.391 . S
C1419 H1407 0.950 . S
C1419 C1415 1.393 . S
C1419 C1418 1.391 . S
H1420 C1428 0.950 . S
H1421 C1433 0.950 . S
H1422 C1430 0.950 . S
H1423 C1432 0.950 . S
H1424 C1434 0.950 . S
H1425 C1436 0.950 . S
H1426 C1438 0.950 . S
H1427 C1439 0.950 . S
C1428 H1420 0.950 . S
C1428 C1429 1.386 . S
C1428 C1430 1.391 . S
C1429 C1428 1.386 . S
C1429 C1433 1.393 . S
C1430 H1422 0.950 . S
C1430 C1428 1.391 . S
C1430 C1431 1.400 . S
C1431 C1430 1.400 . S
C1431 C1432 1.398 . S
C1431 C1437 1.491 . S
C1432 H1423 0.950 . S
C1432 C1431 1.398 . S
C1432 C1433 1.391 . S
C1433 H1421 0.950 . S
C1433 C1429 1.393 . S
C1433 C1432 1.391 . S
C1434 H1424 0.950 . S
C1434 C1435 1.386 . S
C1434 C1436 1.391 . S
C1435 C1434 1.386 . S
C1435 C1439 1.393 . S
C1436 H1425 0.950 . S
C1436 C1434 1.391 . S
C1436 C1437 1.400 . S
C1437 C1431 1.491 . S
C1437 C1436 1.400 . S
C1437 C1438 1.398 . S
C1438 H1426 0.950 . S
C1438 C1437 1.398 . S
C1438 C1439 1.391 . S
C1439 H1427 0.950 . S
C1439 C1435 1.393 . S
C1439 C1438 1.391 . S
H1440 C1448 0.950 . S
H1441 C1453 0.950 . S
H1442 C1450 0.950 . S
H1443 C1452 0.950 . S
H1444 C1454 0.950 . S
H1445 C1456 0.950 . S
H1446 C1458 0.950 . S
H1447 C1459 0.950 . S
C1448 H1440 0.950 . S
C1448 C1449 1.386 . S
C1448 C1450 1.391 . S
C1449 C1448 1.386 . S
C1449 C1453 1.393 . S
C1450 H1442 0.950 . S
C1450 C1448 1.391 . S
C1450 C1451 1.400 . S
C1451 C1450 1.400 . S
C1451 C1452 1.398 . S
C1451 C1457 1.491 . S
C1452 H1443 0.950 . S
C1452 C1451 1.398 . S
C1452 C1453 1.391 . S
C1453 H1441 0.950 . S
C1453 C1449 1.393 . S
C1453 C1452 1.391 . S
C1454 H1444 0.950 . S
C1454 C1455 1.386 . S
C1454 C1456 1.391 . S
C1455 C1454 1.386 . S
C1455 C1459 1.393 . S
C1456 H1445 0.950 . S
C1456 C1454 1.391 . S
C1456 C1457 1.400 . S
C1457 C1451 1.491 . S
C1457 C1456 1.400 . S
C1457 C1458 1.398 . S
C1458 H1446 0.950 . S
C1458 C1457 1.398 . S
C1458 C1459 1.391 . S
C1459 H1447 0.950 . S
C1459 C1455 1.393 . S
C1459 C1458 1.391 . S
H1460 C1468 0.950 . S
H1461 C1473 0.950 . S
H1462 C1470 0.950 . S
H1463 C1472 0.950 . S
H1464 C1474 0.950 1_545 S
H1465 C1476 0.950 . S
H1466 C1478 0.950 . S
H1467 C1479 0.950 . S
C1468 H1460 0.950 . S
C1468 C1469 1.386 . S
C1468 C1470 1.391 . S
C1469 C1468 1.386 . S
C1469 C1473 1.393 . S
C1470 H1462 0.950 . S
C1470 C1468 1.391 . S
C1470 C1471 1.400 . S
C1471 C1470 1.400 . S
C1471 C1472 1.398 . S
C1471 C1477 1.491 . S
C1472 H1463 0.950 . S
C1472 C1471 1.398 . S
C1472 C1473 1.391 . S
C1473 H1461 0.950 . S
C1473 C1469 1.393 . S
C1473 C1472 1.391 . S
C1474 H1464 0.950 1_565 S
C1474 C1475 1.386 . S
C1474 C1476 1.391 . S
C1475 C1474 1.386 . S
C1475 C1479 1.393 . S
C1476 H1465 0.950 . S
C1476 C1474 1.391 . S
C1476 C1477 1.400 . S
C1477 C1471 1.491 . S
C1477 C1476 1.400 . S
C1477 C1478 1.398 . S
C1478 H1466 0.950 . S
C1478 C1477 1.398 . S
C1478 C1479 1.391 . S
C1479 H1467 0.950 . S
C1479 C1475 1.393 . S
C1479 C1478 1.391 . S
H1480 C1488 0.950 . S
H1481 C1493 0.950 . S
H1482 C1490 0.950 . S
H1483 C1492 0.950 . S
H1484 C1494 0.950 . S
H1485 C1496 0.950 . S
H1486 C1498 0.950 . S
H1487 C1499 0.950 . S
C1488 H1480 0.950 . S
C1488 C1489 1.386 . S
C1488 C1490 1.391 . S
C1489 C1488 1.386 . S
C1489 C1493 1.393 . S
C1490 H1482 0.950 . S
C1490 C1488 1.391 . S
C1490 C1491 1.400 . S
C1491 C1490 1.400 . S
C1491 C1492 1.398 . S
C1491 C1497 1.491 . S
C1492 H1483 0.950 . S
C1492 C1491 1.398 . S
C1492 C1493 1.391 . S
C1493 H1481 0.950 . S
C1493 C1489 1.393 . S
C1493 C1492 1.391 . S
C1494 H1484 0.950 . S
C1494 C1495 1.386 . S
C1494 C1496 1.391 1_554 S
C1495 C1494 1.386 . S
C1495 C1499 1.393 1_554 S
C1496 H1485 0.950 . S
C1496 C1494 1.391 1_556 S
C1496 C1497 1.400 . S
C1497 C1491 1.491 . S
C1497 C1496 1.400 . S
C1497 C1498 1.398 . S
C1498 H1486 0.950 . S
C1498 C1497 1.398 . S
C1498 C1499 1.391 . S
C1499 H1487 0.950 . S
C1499 C1495 1.393 1_556 S
C1499 C1498 1.391 . S
H1500 C1508 0.950 . S
H1501 C1513 0.950 . S
H1502 C1510 0.950 . S
H1503 C1512 0.950 . S
H1504 C1514 0.950 . S
H1505 C1516 0.950 . S
H1506 C1518 0.950 . S
H1507 C1519 0.950 . S
C1508 H1500 0.950 . S
C1508 C1509 1.386 . S
C1508 C1510 1.391 . S
C1509 C1508 1.386 . S
C1509 C1513 1.393 1_545 S
C1510 H1502 0.950 . S
C1510 C1508 1.391 . S
C1510 C1511 1.400 . S
C1511 C1510 1.400 . S
C1511 C1512 1.398 . S
C1511 C1517 1.491 . S
C1512 H1503 0.950 . S
C1512 C1511 1.398 . S
C1512 C1513 1.391 1_545 S
C1513 H1501 0.950 . S
C1513 C1509 1.393 1_565 S
C1513 C1512 1.391 1_565 S
C1514 H1504 0.950 . S
C1514 C1515 1.386 . S
C1514 C1516 1.391 . S
C1515 C1514 1.386 . S
C1515 C1519 1.393 . S
C1516 H1505 0.950 . S
C1516 C1514 1.391 . S
C1516 C1517 1.400 . S
C1517 C1511 1.491 . S
C1517 C1516 1.400 . S
C1517 C1518 1.398 . S
C1518 H1506 0.950 . S
C1518 C1517 1.398 . S
C1518 C1519 1.391 . S
C1519 H1507 0.950 . S
C1519 C1515 1.393 . S
C1519 C1518 1.391 . S
H1520 C1528 0.950 . S
H1521 C1533 0.950 . S
H1522 C1530 0.950 . S
H1523 C1532 0.950 . S
H1524 C1534 0.950 . S
H1525 C1536 0.950 . S
H1526 C1538 0.950 . S
H1527 C1539 0.950 . S
C1528 H1520 0.950 . S
C1528 C1529 1.386 . S
C1528 C1530 1.391 . S
C1529 C1528 1.386 . S
C1529 C1533 1.393 . S
C1530 H1522 0.950 . S
C1530 C1528 1.391 . S
C1530 C1531 1.400 . S
C1531 C1530 1.400 . S
C1531 C1532 1.398 . S
C1531 C1537 1.491 . S
C1532 H1523 0.950 . S
C1532 C1531 1.398 . S
C1532 C1533 1.391 . S
C1533 H1521 0.950 . S
C1533 C1529 1.393 . S
C1533 C1532 1.391 . S
C1534 H1524 0.950 . S
C1534 C1535 1.386 . S
C1534 C1536 1.391 . S
C1535 C1534 1.386 . S
C1535 C1539 1.393 . S
C1536 H1525 0.950 . S
C1536 C1534 1.391 . S
C1536 C1537 1.400 . S
C1537 C1531 1.491 . S
C1537 C1536 1.400 . S
C1537 C1538 1.398 . S
C1538 H1526 0.950 . S
C1538 C1537 1.398 . S
C1538 C1539 1.391 . S
C1539 H1527 0.950 . S
C1539 C1535 1.393 . S
C1539 C1538 1.391 . S
H1540 C1548 0.950 . S
H1541 C1553 0.950 . S
H1542 C1550 0.950 . S
H1543 C1552 0.950 . S
H1544 C1554 0.950 . S
H1545 C1556 0.950 . S
H1546 C1558 0.950 . S
H1547 C1559 0.950 1_565 S
C1548 H1540 0.950 . S
C1548 C1549 1.386 . S
C1548 C1550 1.391 . S
C1549 C1548 1.386 . S
C1549 C1553 1.393 . S
C1550 H1542 0.950 . S
C1550 C1548 1.391 . S
C1550 C1551 1.400 . S
C1551 C1550 1.400 . S
C1551 C1552 1.398 . S
C1551 C1557 1.491 . S
C1552 H1543 0.950 . S
C1552 C1551 1.398 . S
C1552 C1553 1.391 . S
C1553 H1541 0.950 . S
C1553 C1549 1.393 . S
C1553 C1552 1.391 . S
C1554 H1544 0.950 . S
C1554 C1555 1.386 . S
C1554 C1556 1.391 . S
C1555 C1554 1.386 . S
C1555 C1559 1.393 . S
C1556 H1545 0.950 . S
C1556 C1554 1.391 . S
C1556 C1557 1.400 . S
C1557 C1551 1.491 . S
C1557 C1556 1.400 . S
C1557 C1558 1.398 . S
C1558 H1546 0.950 . S
C1558 C1557 1.398 . S
C1558 C1559 1.391 . S
C1559 H1547 0.950 1_545 S
C1559 C1555 1.393 . S
C1559 C1558 1.391 . S
H1560 C1568 0.950 . S
H1561 C1573 0.950 . S
H1562 C1570 0.950 . S
H1563 C1572 0.950 . S
H1564 C1574 0.950 . S
H1565 C1576 0.950 . S
H1566 C1578 0.950 . S
H1567 C1579 0.935 1_556 S
C1568 H1560 0.950 . S
C1568 C1569 1.386 . S
C1568 C1570 1.391 . S
C1569 C1568 1.386 . S
C1569 C1573 1.393 . S
C1570 H1562 0.950 . S
C1570 C1568 1.391 . S
C1570 C1571 1.400 . S
C1571 C1570 1.400 . S
C1571 C1572 1.398 . S
C1571 C1577 1.491 . S
C1572 H1563 0.950 . S
C1572 C1571 1.398 . S
C1572 C1573 1.391 . S
C1573 H1561 0.950 . S
C1573 C1569 1.393 . S
C1573 C1572 1.391 . S
C1574 H1564 0.950 . S
C1574 C1575 1.386 . S
C1574 C1576 1.391 1_556 S
C1575 C1574 1.386 . S
C1575 C1579 1.393 1_556 S
C1576 H1565 0.950 . S
C1576 C1574 1.391 1_554 S
C1576 C1577 1.400 . S
C1577 C1571 1.491 . S
C1577 C1576 1.400 . S
C1577 C1578 1.398 . S
C1578 H1566 0.950 . S
C1578 C1577 1.398 . S
C1578 C1579 1.391 . S
C1579 H1567 0.935 1_554 S
C1579 C1575 1.393 1_554 S
C1579 C1578 1.391 . S
H1580 C1588 0.950 . S
H1581 C1593 0.950 . S
H1582 C1590 0.950 . S
H1583 C1592 0.950 . S
H1584 C1594 0.950 1_545 S
H1585 C1596 0.950 . S
H1586 C1598 0.950 . S
H1587 C1599 0.950 . S
C1588 H1580 0.950 . S
C1588 C1589 1.386 . S
C1588 C1590 1.391 . S
C1589 C1588 1.386 . S
C1589 C1593 1.393 . S
C1590 H1582 0.950 . S
C1590 C1588 1.391 . S
C1590 C1591 1.400 . S
C1591 C1590 1.400 . S
C1591 C1592 1.398 . S
C1591 C1597 1.491 . S
C1592 H1583 0.950 . S
C1592 C1591 1.398 . S
C1592 C1593 1.391 . S
C1593 H1581 0.950 . S
C1593 C1589 1.393 . S
C1593 C1592 1.391 . S
C1594 H1584 0.950 1_565 S
C1594 C1595 1.386 . S
C1594 C1596 1.391 . S
C1595 C1594 1.386 . S
C1595 C1599 1.393 . S
C1596 H1585 0.950 . S
C1596 C1594 1.391 . S
C1596 C1597 1.400 . S
C1597 C1591 1.491 . S
C1597 C1596 1.400 . S
C1597 C1598 1.398 . S
C1598 H1586 0.950 . S
C1598 C1597 1.398 . S
C1598 C1599 1.391 . S
C1599 H1587 0.950 . S
C1599 C1595 1.393 . S
C1599 C1598 1.391 . S
C649 C2 2.715 . S
C655 C402 2.712 . S
C669 C42 2.716 . S
C675 C442 2.712 . S
C689 C82 2.711 . S
C695 C322 2.715 . S
C709 C362 2.716 . S
C715 C122 2.712 . S
C729 C175 2.721 . S
C735 C575 2.717 . S
C749 C615 2.714 . S
C755 C215 2.719 . S
C769 C495 2.722 . S
C775 C255 2.719 . S
C789 C295 2.719 . S
C795 C535 2.714 . S
C809 C26 0.886 1_565 S
C815 C169 0.886 1_545 S
C829 C66 0.888 . S
C835 C529 0.888 . S
C849 C106 0.901 1_545 S
C855 C249 0.901 1_565 S
C869 C146 0.927 . S
C875 C609 0.927 . S
C889 C209 0.888 . S
C895 C386 0.888 . S
C909 C466 0.887 . S
C915 C289 0.887 . S
C929 C489 0.918 . S
C935 C346 0.918 . S
C949 C426 0.886 . S
C955 C569 0.886 . S
C969 C9 1.061 . S
C975 C282 1.175 . S
C989 C49 1.059 . S
C995 C482 1.174 . S
C1009 C89 1.005 . S
C1015 C202 1.160 . S
C1029 C129 1.065 . S
C1035 C562 1.181 . S
C1049 C135 1.161 . S
C1055 C186 1.027 . S
C1069 C226 1.023 . S
C1075 C335 1.177 . S
C1089 C266 1.034 . S
C1095 C55 1.163 . S
C1109 C415 1.159 . S
C1115 C306 1.007 . S
C1129 C329 1.003 . S
C1135 C602 1.165 1_565 S
C1149 C162 1.160 . S
C1155 C369 1.018 . S
C1169 C522 1.182 1_545 S
C1175 C409 1.066 . S
C1189 C242 1.159 . S
C1195 C449 1.016 . S
C1209 C506 1.053 . S
C1215 C455 1.185 1_545 S
C1229 C546 1.048 . S
C1235 C15 1.168 . S
C1249 C375 1.179 1_565 S
C1255 C586 1.026 . S
C1269 C626 1.007 . S
C1275 C95 1.169 . S
C1289 C3 4.077 . S
C1295 C382 4.017 . S
C1309 C422 4.014 . S
C1315 C43 4.075 . S
C1329 C83 4.069 . S
C1335 C462 4.007 . S
C1349 C342 4.007 . S
C1355 C123 4.070 . S
C1369 C523 4.008 . S
C1375 C182 4.070 . S
C1389 C563 4.018 . S
C1395 C222 4.078 . S
C1409 C603 4.012 . S
C1415 C262 4.074 . S
C1429 C483 4.011 . S
C1435 C302 4.074 . S
C1449 C62 4.008 . S
C1455 C323 4.071 . S
C1469 C102 4.008 . S
C1475 C363 4.071 1_565 S
C1489 C142 4.018 . S
C1495 C403 4.078 . S
C1509 C443 4.078 1_545 S
C1515 C22 4.018 . S
C1529 C203 4.016 . S
C1535 C502 4.076 . S
C1549 C243 4.018 . S
C1555 C542 4.078 1_545 S
C1569 C283 4.018 . S
C1575 C582 4.078 . S
C1589 C163 4.007 . S
C1595 C622 4.070 1_565 S
