# Generated by pormake.
# Topology fcu, (12)-cn, num edge types: 1
# Building blocks:
#     Node 0, Type 0, BuildingBlock: EZIPEK_clean_sbu_0, # of connection points: 12
#     Node 1, Type 0, BuildingBlock: EZIPEK_clean_sbu_0, # of connection points: 12
#     Node 2, Type 0, BuildingBlock: EZIPEK_clean_sbu_0, # of connection points: 12
#     Node 3, Type 0, BuildingBlock: EZIPEK_clean_sbu_0, # of connection points: 12
#     Edge 4, Type (0, 0), BuildingBlock: XIVTED_clean_linker_0, # of connection points: 2
#     Edge 5, Type (0, 0), BuildingBlock: XIVTED_clean_linker_0, # of connection points: 2
#     Edge 6, Type (0, 0), BuildingBlock: XIVTED_clean_linker_0, # of connection points: 2
#     Edge 7, Type (0, 0), BuildingBlock: XIVTED_clean_linker_0, # of connection points: 2
#     Edge 8, Type (0, 0), BuildingBlock: XIVTED_clean_linker_0, # of connection points: 2
#     Edge 9, Type (0, 0), BuildingBlock: XIVTED_clean_linker_0, # of connection points: 2
#     Edge 10, Type (0, 0), BuildingBlock: XIVTED_clean_linker_0, # of connection points: 2
#     Edge 11, Type (0, 0), BuildingBlock: XIVTED_clean_linker_0, # of connection points: 2
#     Edge 12, Type (0, 0), BuildingBlock: XIVTED_clean_linker_0, # of connection points: 2
#     Edge 13, Type (0, 0), BuildingBlock: XIVTED_clean_linker_0, # of connection points: 2
#     Edge 14, Type (0, 0), BuildingBlock: XIVTED_clean_linker_0, # of connection points: 2
#     Edge 15, Type (0, 0), BuildingBlock: XIVTED_clean_linker_0, # of connection points: 2
#     Edge 16, Type (0, 0), BuildingBlock: XIVTED_clean_linker_0, # of connection points: 2
#     Edge 17, Type (0, 0), BuildingBlock: XIVTED_clean_linker_0, # of connection points: 2
#     Edge 18, Type (0, 0), BuildingBlock: XIVTED_clean_linker_0, # of connection points: 2
#     Edge 19, Type (0, 0), BuildingBlock: XIVTED_clean_linker_0, # of connection points: 2
#     Edge 20, Type (0, 0), BuildingBlock: XIVTED_clean_linker_0, # of connection points: 2
#     Edge 21, Type (0, 0), BuildingBlock: XIVTED_clean_linker_0, # of connection points: 2
#     Edge 22, Type (0, 0), BuildingBlock: XIVTED_clean_linker_0, # of connection points: 2
#     Edge 23, Type (0, 0), BuildingBlock: XIVTED_clean_linker_0, # of connection points: 2
#     Edge 24, Type (0, 0), BuildingBlock: XIVTED_clean_linker_0, # of connection points: 2
#     Edge 25, Type (0, 0), BuildingBlock: XIVTED_clean_linker_0, # of connection points: 2
#     Edge 26, Type (0, 0), BuildingBlock: XIVTED_clean_linker_0, # of connection points: 2
#     Edge 27, Type (0, 0), BuildingBlock: XIVTED_clean_linker_0, # of connection points: 2
# Relax obj value: 0.000
# Max RMSD: 0.000
# Mean RMSD: 0.000
data_MOF--net-fcu--node1-EZIPEK_clean_sbu_0--edge1-XIVTED_clean_linker_0
_symmetry_space_group_name_H-M    P1
_symmetry_Int_Tables_number       1
_symmetry_cell_setting            triclinic
loop_
_symmetry_equiv_pos_as_xyz
'x, y, z'
_cell_length_a     27.192415
_cell_length_b     27.196348
_cell_length_c     27.199276
_cell_angle_alpha  90.001673
_cell_angle_beta   90.001073
_cell_angle_gamma 89.997595
loop_
_atom_site_label
_atom_site_type_symbol
_atom_site_fract_x
_atom_site_fract_y
_atom_site_fract_z
_atom_type_partial_charge
C0 C 0.00563 0.88618 0.12472 0.0
C1 C 1.00475 0.88472 0.88622 0.0
C2 C 0.00513 0.12475 0.12332 0.0
C3 C 1.00409 0.12332 0.88475 0.0
C4 C 0.88509 0.12347 0.0048 0.0
C5 C 0.88623 0.88489 0.00564 0.0
C6 C 0.12406 0.12412 1.00377 0.0
C7 C 0.12468 0.886 1.00466 0.0
C8 C 0.12341 1.0046 0.88475 0.0
C9 C 0.88488 1.00398 0.88621 0.0
C10 C 0.12485 0.00544 0.12324 0.0
C11 C 0.88633 0.00494 0.12469 0.0
Eu12 Eu 0.0053 0.91169 0.0053 0.0
O13 O 0.96111 0.96058 0.96149 0.0
O14 O 0.04903 0.96142 0.04855 0.0
Eu15 Eu 0.9119 1.00431 0.00529 0.0
Eu16 Eu 0.09782 0.00499 1.00416 0.0
O17 O 0.96162 0.9611 0.04903 0.0
O18 O 0.0485 0.96088 0.96091 0.0
Eu19 Eu 0.00543 0.00529 0.09783 0.0
Eu20 Eu 1.00432 1.00417 0.91164 0.0
O21 O 0.96137 0.04859 0.04839 0.0
O22 O 0.96087 0.04806 0.96109 0.0
O23 O 0.04812 0.04839 0.96049 0.0
O24 O 0.04864 0.0489 0.04793 0.0
Eu25 Eu 1.00463 0.09796 1.00419 0.0
O26 O 0.00559 0.87096 0.07803 0.0
O27 O 0.00517 0.87009 0.93309 0.0
O28 O 1.00478 0.13944 0.07646 0.0
O29 O 1.00425 0.13858 0.93142 0.0
O30 O 0.87044 0.0766 0.00528 0.0
O31 O 0.87105 0.9316 0.00562 0.0
O32 O 0.13888 0.07733 1.00381 0.0
O33 O 0.13934 0.93284 1.00409 0.0
O34 O 0.07654 1.00421 0.87007 0.0
O35 O 0.93157 1.00393 0.87096 0.0
O36 O 0.07817 0.0055 0.1385 0.0
O37 O 0.93319 0.00546 0.13936 0.0
O38 O 0.07727 0.13917 1.00386 0.0
O39 O 0.93181 0.1387 1.00429 0.0
O40 O 0.07798 0.8708 0.00528 0.0
O41 O 0.93309 0.8702 0.00557 0.0
O42 O 1.00435 0.9314 0.87097 0.0
O43 O 1.00405 0.07644 0.87011 0.0
O44 O 0.00558 0.93305 0.13938 0.0
O45 O 0.00545 0.07805 0.13853 0.0
O46 O 0.87112 1.00436 0.078 0.0
O47 O 0.87026 1.00409 0.93309 0.0
O48 O 0.13946 0.00528 0.07636 0.0
O49 O 0.1386 0.00496 0.93144 0.0
C50 C 1.00461 0.3862 0.62477 0.0
C51 C 0.00486 0.62472 0.62332 0.0
C52 C 0.00492 0.38474 0.38625 0.0
C53 C 0.00501 0.62331 0.38479 0.0
C54 C 0.1244 0.50409 0.38587 0.0
C55 C 0.12381 0.50506 0.62439 0.0
C56 C 0.88537 0.50434 0.3858 0.0
C57 C 0.8858 0.50522 0.62431 0.0
C58 C 0.88537 0.62374 0.50441 0.0
C59 C 0.1244 0.62367 0.50446 0.0
C60 C 0.88578 0.38521 0.50514 0.0
C61 C 0.12387 0.38514 0.50547 0.0
Eu62 Eu 0.00481 0.50528 0.59775 0.0
O63 O 0.04856 0.54873 0.54824 0.0
O64 O 0.96108 0.46109 0.54886 0.0
Eu65 Eu 0.09788 0.50451 0.50502 0.0
Eu66 Eu 0.91181 0.50457 0.50497 0.0
O67 O 0.04856 0.46107 0.54889 0.0
O68 O 0.96113 0.54877 0.54821 0.0
Eu69 Eu 0.00483 0.41165 0.50537 0.0
Eu70 Eu 0.00488 0.59787 0.50424 0.0
O71 O 0.04851 0.46073 0.46135 0.0
O72 O 0.04854 0.54805 0.46094 0.0
O73 O 0.96121 0.54807 0.46091 0.0
O74 O 0.96119 0.46076 0.46133 0.0
Eu75 Eu 0.00488 0.50418 0.41166 0.0
O76 O 1.00462 0.43309 0.63939 0.0
O77 O 0.00486 0.57801 0.6385 0.0
O78 O 0.00492 0.43142 0.37099 0.0
O79 O 0.00499 0.57643 0.37014 0.0
O80 O 0.13915 0.50415 0.4327 0.0
O81 O 0.13894 0.50474 0.57766 0.0
O82 O 0.8706 0.50454 0.43262 0.0
O83 O 0.87069 0.5047 0.57757 0.0
O84 O 0.93213 0.63886 0.50396 0.0
O85 O 0.07765 0.63881 0.50415 0.0
O86 O 0.93258 0.37042 0.50533 0.0
O87 O 0.07706 0.37037 0.50561 0.0
O88 O 0.93213 0.50411 0.37068 0.0
O89 O 0.07764 0.50412 0.37073 0.0
O90 O 0.9326 0.50562 0.63906 0.0
O91 O 0.07699 0.50534 0.63911 0.0
O92 O 0.00486 0.63941 0.57646 0.0
O93 O 0.00496 0.63855 0.43148 0.0
O94 O 1.0047 0.37095 0.57809 0.0
O95 O 0.0049 0.3701 0.43312 0.0
O96 O 0.13897 0.43189 0.50523 0.0
O97 O 0.13915 0.57683 0.50481 0.0
O98 O 0.87069 0.43197 0.505 0.0
O99 O 0.8706 0.57692 0.50492 0.0
C100 C 0.50538 0.88563 0.62404 0.0
C101 C 0.50536 0.12454 0.62342 0.0
C102 C 0.50432 0.88499 0.38591 0.0
C103 C 0.50443 0.12349 0.38483 0.0
C104 C 0.62345 1.00459 0.38472 0.0
C105 C 0.62485 0.00498 0.62325 0.0
C106 C 0.38485 1.00465 0.38616 0.0
C107 C 0.38632 0.00509 0.62469 0.0
C108 C 0.38582 0.12433 0.50491 0.0
C109 C 0.62388 0.12437 0.50398 0.0
C110 C 0.38538 0.88583 0.50535 0.0
C111 C 0.62438 0.88587 0.50427 0.0
Eu112 Eu 0.50542 0.00505 0.59776 0.0
O113 O 0.54879 0.04875 0.54802 0.0
O114 O 0.4614 0.96124 0.54874 0.0
Eu115 Eu 0.5979 0.00501 0.50414 0.0
Eu116 Eu 0.41183 0.00498 0.50526 0.0
O117 O 0.54885 0.96127 0.5482 0.0
O118 O 0.46145 0.04874 0.54853 0.0
Eu119 Eu 0.50487 0.91176 0.50494 0.0
Eu120 Eu 0.50486 0.09783 0.50428 0.0
O121 O 0.54832 0.96102 0.46085 0.0
O122 O 0.54828 0.0484 0.46041 0.0
O123 O 0.46093 0.04837 0.46095 0.0
O124 O 0.4609 0.96101 0.46136 0.0
Eu125 Eu 0.50431 1.0044 0.41153 0.0
O126 O 0.50553 0.93243 0.63905 0.0
O127 O 0.50552 0.07781 0.63862 0.0
O128 O 0.50415 0.9317 0.37071 0.0
O129 O 0.50422 0.07665 0.37011 0.0
O130 O 0.63866 0.00505 0.43142 0.0
O131 O 0.63949 0.00494 0.57638 0.0
O132 O 0.37022 0.0049 0.43304 0.0
O133 O 0.3711 0.00502 0.578 0.0
O134 O 0.43262 0.1391 0.5044 0.0
O135 O 0.57707 0.13913 0.50402 0.0
O136 O 0.43215 0.87073 0.50524 0.0
O137 O 0.57762 0.87076 0.5048 0.0
O138 O 0.43154 1.0044 0.3709 0.0
O139 O 0.57658 1.00417 0.37004 0.0
O140 O 0.4332 0.00514 0.63935 0.0
O141 O 0.57815 0.00507 0.63848 0.0
O142 O 0.50512 0.13923 0.57657 0.0
O143 O 0.50468 0.13866 0.43155 0.0
O144 O 0.50515 0.87076 0.57728 0.0
O145 O 0.50459 0.8703 0.43275 0.0
O146 O 0.63915 0.93269 0.50385 0.0
O147 O 0.63899 0.07763 0.504 0.0
O148 O 0.3706 0.93265 0.50541 0.0
O149 O 0.37072 0.07759 0.50537 0.0
C150 C 0.50473 0.62421 0.88552 0.0
C151 C 0.50455 0.62453 0.12364 0.0
C152 C 0.50495 0.38521 0.88583 0.0
C153 C 0.50499 0.38604 0.12449 0.0
C154 C 0.62442 0.38598 0.00481 0.0
C155 C 0.62362 0.62454 1.00467 0.0
C156 C 0.38549 0.38567 0.00482 0.0
C157 C 0.3852 0.62376 1.00458 0.0
C158 C 0.38536 0.50488 0.12373 0.0
C159 C 0.62438 0.50519 0.12366 0.0
C160 C 0.38576 0.50465 0.8852 0.0
C161 C 0.62386 0.50489 0.88514 0.0
Eu162 Eu 0.50452 0.59782 1.00458 0.0
O163 O 0.54845 0.54876 0.04837 0.0
O164 O 0.46098 0.54846 0.96073 0.0
Eu165 Eu 0.5978 0.50517 1.00451 0.0
Eu166 Eu 0.41188 0.50475 1.00457 0.0
O167 O 0.54839 0.54867 0.96075 0.0
O168 O 0.46096 0.54857 0.04845 0.0
Eu169 Eu 0.50481 0.50474 0.91156 0.0
Eu170 Eu 0.50485 0.50518 0.0979 0.0
O171 O 0.54846 0.46112 0.9611 0.0
O172 O 0.54853 0.46145 0.04845 0.0
O173 O 0.46126 0.46123 0.04855 0.0
O174 O 0.4613 0.46093 0.96106 0.0
Eu175 Eu 0.50494 0.41171 0.00503 0.0
O176 O 0.50457 0.63899 0.93231 0.0
O177 O 0.50445 0.63923 0.0768 0.0
O178 O 0.50497 0.37045 0.93267 0.0
O179 O 0.50494 0.37088 0.07776 0.0
O180 O 0.63914 0.43283 1.0045 0.0
O181 O 0.63877 0.57782 1.00454 0.0
O182 O 0.37071 0.43247 1.00466 0.0
O183 O 0.37046 0.57695 1.00466 0.0
O184 O 0.43212 0.50496 0.13888 0.0
O185 O 0.57762 0.50529 0.13881 0.0
O186 O 0.43255 0.50466 0.87037 0.0
O187 O 0.57706 0.50461 0.87034 0.0
O188 O 0.43226 0.37057 0.005 0.0
O189 O 0.57768 0.37082 0.00511 0.0
O190 O 0.43193 0.63888 1.00446 0.0
O191 O 0.57678 0.63926 0.00471 0.0
O192 O 0.50468 0.57783 0.13882 0.0
O193 O 0.50501 0.43288 0.13923 0.0
O194 O 0.50485 0.57743 0.87043 0.0
O195 O 0.5049 0.43196 0.87069 0.0
O196 O 0.63893 0.50521 0.9319 0.0
O197 O 0.6391 0.50513 0.07682 0.0
O198 O 0.37072 0.50466 0.93197 0.0
O199 O 0.37062 0.50483 0.07691 0.0
H200 H 0.00575 0.22501 0.11068 0.0
H201 H 1.00428 0.28447 0.39896 0.0
H202 H 1.00452 0.11335 0.22375 0.0
H203 H 0.00563 0.39606 0.28583 0.0
H204 H 1.00435 0.22137 0.33529 0.0
H205 H 0.0057 0.28807 0.17437 0.0
C206 C 0.00546 0.2136 0.14883 0.0
C207 C 0.00514 0.16356 0.16167 0.0
C208 C 1.00464 0.25967 0.32441 0.0
C209 C 0.00509 0.23596 0.23498 0.0
C210 C 1.0046 0.29585 0.3608 0.0
C211 C 0.00495 0.34589 0.34793 0.0
C212 C 0.00503 0.27345 0.27466 0.0
C213 C 0.00534 0.35808 0.29771 0.0
C214 C 0.00544 0.24976 0.18523 0.0
C215 C 1.0048 0.15134 0.21189 0.0
N216 N 0.00537 0.32215 0.26299 0.0
N217 N 1.00478 0.18726 0.24663 0.0
H218 H 0.89894 0.00978 0.22482 0.0
H219 H 0.61084 0.99981 0.28459 0.0
H220 H 0.78598 1.00016 0.11345 0.0
H221 H 0.7238 0.00927 0.39598 0.0
H222 H 0.67451 0.99991 0.2215 0.0
H223 H 0.83528 0.00967 0.28792 0.0
C224 C 0.86082 0.0076 0.21349 0.0
C225 C 0.848 0.00496 0.16351 0.0
C226 C 0.68535 1.00197 0.25975 0.0
C227 C 0.77472 0.00483 0.23596 0.0
C228 C 0.64896 1.00195 0.29592 0.0
C229 C 0.66179 1.00455 0.3459 0.0
C230 C 0.73506 1.00466 0.27346 0.0
C231 C 0.71196 0.00715 0.35804 0.0
C232 C 0.82443 0.00757 0.24967 0.0
C233 C 0.79782 1.00231 0.15138 0.0
N234 N 0.74669 0.00716 0.32211 0.0
N235 N 0.7631 1.0023 0.18731 0.0
H236 H 1.00396 0.89888 0.22496 0.0
H237 H 0.0069 0.6106 0.28456 0.0
H238 H 0.00728 0.78575 0.11341 0.0
H239 H 1.00341 0.72374 0.3961 0.0
H240 H 0.00711 0.67426 0.22146 0.0
H241 H 1.00383 0.83522 0.28805 0.0
C242 C 1.00469 0.86072 0.21359 0.0
C243 C 0.00564 0.84785 0.16356 0.0
C244 C 0.00629 0.68515 0.25975 0.0
C245 C 0.00548 0.77457 0.236 0.0
C246 C 0.00616 0.64876 0.29593 0.0
C247 C 0.00513 0.66164 0.34596 0.0
C248 C 0.00538 0.73491 0.27351 0.0
C249 C 1.00425 0.71186 0.35813 0.0
C250 C 1.0046 0.82433 0.24976 0.0
C251 C 0.00651 0.79763 0.15138 0.0
N252 N 1.00439 0.74658 0.32219 0.0
N253 N 0.00641 0.7629 0.18731 0.0
H254 H 0.28458 1.00368 0.39884 0.0
H255 H 0.22513 0.00644 0.11055 0.0
H256 H 0.39622 0.00578 0.28575 0.0
H257 H 0.1135 1.00442 0.22365 0.0
H258 H 0.28822 0.00623 0.17424 0.0
H259 H 0.22149 1.00393 0.33515 0.0
C260 C 0.29597 1.00421 0.36069 0.0
C261 C 0.34602 1.00472 0.34783 0.0
C262 C 0.24991 0.00584 0.1851 0.0
C263 C 0.2736 0.00501 0.27453 0.0
C264 C 0.21374 0.00595 0.1487 0.0
C265 C 0.16369 0.00545 0.16156 0.0
C266 C 0.23612 0.0052 0.23485 0.0
C267 C 0.15148 0.00485 0.21177 0.0
C268 C 0.2598 1.00434 0.32428 0.0
C269 C 0.35823 0.00535 0.29762 0.0
N270 N 0.18741 1.00474 0.24651 0.0
N271 N 0.32231 0.00548 0.26289 0.0
H272 H 1.00389 0.78446 0.89894 0.0
H273 H 0.00585 0.72497 0.61068 0.0
H274 H 0.00557 0.89604 0.7858 0.0
H275 H 1.00389 0.61332 0.72374 0.0
H276 H 0.00581 0.78803 0.67436 0.0
H277 H 1.00394 0.72136 0.83528 0.0
C278 C 1.00428 0.79584 0.86079 0.0
C279 C 1.00473 0.84587 0.84791 0.0
C280 C 0.00538 0.74973 0.68523 0.0
C281 C 1.00478 0.77343 0.77464 0.0
C282 C 0.0054 0.71357 0.64882 0.0
C283 C 0.00486 0.66353 0.66167 0.0
C284 C 0.00482 0.73593 0.73497 0.0
C285 C 1.00432 0.65131 0.71188 0.0
C286 C 1.0043 0.75965 0.8244 0.0
C287 C 0.00519 0.85806 0.79769 0.0
N288 N 1.00431 0.68723 0.74662 0.0
N289 N 0.00521 0.82212 0.76297 0.0
H290 H 0.11072 1.00357 0.78451 0.0
H291 H 0.39904 0.00614 0.72494 0.0
H292 H 0.22386 0.00576 0.89609 0.0
H293 H 0.28587 1.00401 0.61338 0.0
H294 H 0.33537 0.00603 0.78804 0.0
H295 H 0.17439 1.00372 0.72142 0.0
C296 C 0.14888 1.00408 0.79589 0.0
C297 C 0.16176 1.00465 0.84592 0.0
C298 C 0.32448 0.00559 0.74974 0.0
C299 C 0.23504 0.00483 0.77349 0.0
C300 C 0.36087 0.00564 0.71356 0.0
C301 C 0.34799 0.00508 0.66353 0.0
C302 C 0.27472 0.00495 0.73598 0.0
C303 C 0.29776 1.00447 0.65135 0.0
C304 C 0.18528 1.00417 0.75972 0.0
C305 C 0.21199 0.0053 0.85812 0.0
N306 N 0.26304 1.00442 0.68729 0.0
N307 N 0.24672 0.00538 0.82218 0.0
H308 H 1.00298 0.39891 0.725 0.0
H309 H 0.00548 0.11062 0.7845 0.0
H310 H 0.0059 0.28579 0.61343 0.0
H311 H 1.00257 0.22374 0.89608 0.0
H312 H 0.00555 0.17429 0.72142 0.0
H313 H 1.00275 0.33523 0.78808 0.0
C314 C 1.00359 0.36075 0.71362 0.0
C315 C 1.00447 0.34789 0.6636 0.0
C316 C 0.00488 0.18517 0.75972 0.0
C317 C 1.0042 0.2746 0.73601 0.0
C318 C 0.00483 0.14877 0.79589 0.0
C319 C 1.00402 0.16164 0.84591 0.0
C320 C 1.00411 0.23492 0.7735 0.0
C321 C 1.00323 0.21186 0.85811 0.0
C322 C 1.00345 0.32436 0.74979 0.0
C323 C 0.00519 0.29766 0.6514 0.0
N324 N 1.0033 0.24659 0.82219 0.0
N325 N 0.00504 0.26294 0.68732 0.0
H326 H 0.72513 1.00409 0.61059 0.0
H327 H 0.78459 0.00479 0.89889 0.0
H328 H 0.61348 0.00556 0.72368 0.0
H329 H 0.89622 1.00327 0.78579 0.0
H330 H 0.7215 0.00503 0.83521 0.0
H331 H 0.78821 1.00378 0.67428 0.0
C332 C 0.71373 1.00436 0.64874 0.0
C333 C 0.66368 0.00485 0.66159 0.0
C334 C 0.75981 1.00463 0.82434 0.0
C335 C 0.73611 1.00449 0.7349 0.0
C336 C 0.79598 1.00449 0.86074 0.0
C337 C 0.84603 1.00401 0.84788 0.0
C338 C 0.7736 1.0043 0.77458 0.0
C339 C 0.85824 1.00365 0.79766 0.0
C340 C 0.7499 1.00417 0.68514 0.0
C341 C 0.65147 0.00517 0.71181 0.0
N342 N 0.82231 1.00381 0.76293 0.0
N343 N 0.6874 0.00498 0.74654 0.0
H344 H 0.28534 0.39879 0.00584 0.0
H345 H 0.22419 0.11105 1.00259 0.0
H346 H 0.39639 0.28511 1.00357 0.0
H347 H 0.11311 0.22469 0.00495 0.0
H348 H 0.28759 0.1743 1.00286 0.0
H349 H 0.22192 0.33555 0.0055 0.0
C350 C 0.29655 0.36059 0.00527 0.0
C351 C 0.34655 0.34744 0.00473 0.0
C352 C 0.24935 0.18541 1.00331 0.0
C353 C 0.27364 0.27462 1.00433 0.0
C354 C 0.21297 0.14925 1.00316 0.0
C355 C 0.16297 0.16237 1.00375 0.0
C356 C 0.23585 0.23522 1.00408 0.0
C357 C 0.15104 0.21264 1.00446 0.0
C358 C 0.26016 0.32444 0.00508 0.0
C359 C 0.35846 0.29717 1.00403 0.0
N360 N 0.18719 0.24717 1.00461 0.0
N361 N 0.32229 0.26266 1.00384 0.0
H362 H 0.28513 0.611 0.00942 0.0
H363 H 0.22477 0.89885 0.99987 0.0
H364 H 0.39636 0.72412 0.99996 0.0
H365 H 0.11362 0.78564 0.00933 0.0
H366 H 0.28802 0.83537 0.99988 0.0
H367 H 0.22193 0.67451 0.00944 0.0
C368 C 0.29641 0.64913 0.00729 0.0
C369 C 0.34637 0.66206 1.00466 0.0
C370 C 0.24979 0.82443 1.00197 0.0
C371 C 0.27379 0.73515 0.0047 0.0
C372 C 0.21352 0.86071 1.00199 0.0
C373 C 0.16356 0.84775 1.00461 0.0
C374 C 0.23619 0.7747 1.00462 0.0
C375 C 0.15153 0.79756 0.00719 0.0
C376 C 0.26016 0.68543 0.00734 0.0
C377 C 0.35844 0.71224 1.00211 0.0
N378 N 0.18756 0.76294 0.00715 0.0
N379 N 0.32243 0.74689 1.00218 0.0
H380 H 0.72466 0.39876 1.00348 0.0
H381 H 0.78485 0.11062 0.00626 0.0
H382 H 0.61323 0.28548 0.00612 0.0
H383 H 0.8962 0.22397 1.00338 0.0
H384 H 0.7216 0.17414 0.00627 0.0
H385 H 0.78786 0.33522 1.00348 0.0
C386 C 0.71333 0.36059 1.00407 0.0
C387 C 0.6633 0.34765 0.00481 0.0
C388 C 0.75988 0.1851 0.00563 0.0
C389 C 0.73591 0.27448 0.00481 0.0
C390 C 0.79615 0.14879 0.00562 0.0
C391 C 0.84618 0.16176 0.00482 0.0
C392 C 0.77353 0.23489 0.00482 0.0
C393 C 0.85825 0.21201 1.00403 0.0
C394 C 0.74958 0.32426 1.00406 0.0
C395 C 0.6512 0.29741 0.00553 0.0
N396 N 0.82222 0.24666 1.00405 0.0
N397 N 0.68721 0.26274 0.00551 0.0
H398 H 0.89903 0.78469 1.00331 0.0
H399 H 0.61086 0.72473 0.00714 0.0
H400 H 0.78577 0.8961 0.0079 0.0
H401 H 0.72409 0.61329 1.00262 0.0
H402 H 0.67444 0.78788 0.00747 0.0
H403 H 0.83546 0.72152 1.00311 0.0
C404 C 0.86086 0.79602 1.00432 0.0
C405 C 0.84792 0.84603 0.00563 0.0
C406 C 0.68537 0.74961 0.00639 0.0
C407 C 0.77475 0.77348 0.00538 0.0
C408 C 0.64903 0.71339 0.00619 0.0
C409 C 0.66195 0.66338 0.00484 0.0
C410 C 0.73514 0.73591 0.00523 0.0
C411 C 0.71218 0.65125 1.00371 0.0
C412 C 0.82452 0.75979 1.00418 0.0
C413 C 0.79769 0.85814 0.00683 0.0
N414 N 0.74687 0.68723 1.00392 0.0
N415 N 0.76301 0.82215 0.00667 0.0
H416 H 0.61095 0.50134 0.78507 0.0
H417 H 0.89876 0.50878 0.72438 0.0
H418 H 0.72433 0.50837 0.89621 0.0
H419 H 0.78532 0.50186 0.61328 0.0
H420 H 0.83538 0.50869 0.78768 0.0
H421 H 0.67433 0.50148 0.7218 0.0
C422 C 0.64912 0.50294 0.79632 0.0
C423 C 0.66214 0.50487 0.84629 0.0
C424 C 0.82436 0.50718 0.74946 0.0
C425 C 0.73511 0.50503 0.77359 0.0
C426 C 0.86058 0.50722 0.71314 0.0
C427 C 0.84754 0.50531 0.66318 0.0
C428 C 0.77459 0.50519 0.73591 0.0
C429 C 0.79731 0.50341 0.65119 0.0
C430 C 0.68535 0.503 0.76002 0.0
C431 C 0.71236 0.50681 0.8583 0.0
N432 N 0.76273 0.50338 0.68728 0.0
N433 N 0.74696 0.50685 0.82222 0.0
H434 H 0.11076 0.50431 0.72452 0.0
H435 H 0.39869 0.50554 0.78508 0.0
H436 H 0.22433 0.5058 0.61334 0.0
H437 H 0.28523 0.50387 0.89636 0.0
H438 H 0.33529 0.50568 0.72184 0.0
H439 H 0.17413 0.50421 0.78783 0.0
C440 C 0.14897 0.50463 0.71326 0.0
C441 C 0.16205 0.50506 0.66328 0.0
C442 C 0.32426 0.50528 0.76009 0.0
C443 C 0.23499 0.50494 0.73602 0.0
C444 C 0.3605 0.50519 0.79637 0.0
C445 C 0.34746 0.50469 0.84637 0.0
C446 C 0.27447 0.50486 0.77369 0.0
C447 C 0.29721 0.50427 0.85842 0.0
C448 C 0.18518 0.50457 0.74959 0.0
C449 C 0.21231 0.50544 0.65128 0.0
N450 N 0.26261 0.50437 0.82235 0.0
N451 N 0.24688 0.50537 0.68736 0.0
H452 H 0.22451 0.49933 0.39868 0.0
H453 H 0.28525 0.50957 0.11091 0.0
H454 H 0.11341 0.50874 0.28545 0.0
H455 H 0.39635 0.50011 0.22415 0.0
H456 H 0.22195 0.5093 0.17433 0.0
H457 H 0.2878 0.49953 0.33526 0.0
C458 C 0.21327 0.50148 0.36055 0.0
C459 C 0.1633 0.50404 0.34758 0.0
C460 C 0.26018 0.50727 0.1853 0.0
C461 C 0.23603 0.50428 0.27456 0.0
C462 C 0.29649 0.50739 0.14905 0.0
C463 C 0.34646 0.50484 0.16202 0.0
C464 C 0.27372 0.50453 0.23504 0.0
C465 C 0.35844 0.5022 0.21221 0.0
C466 C 0.24958 0.50156 0.32429 0.0
C467 C 0.15132 0.50664 0.29738 0.0
N468 N 0.32236 0.5021 0.24681 0.0
N469 N 0.18739 0.50671 0.26278 0.0
H470 H 0.72458 0.50353 0.11072 0.0
H471 H 0.78517 0.50604 0.39869 0.0
H472 H 0.61335 0.50657 0.22418 0.0
H473 H 0.89644 0.50287 0.28528 0.0
H474 H 0.72189 0.50625 0.33527 0.0
H475 H 0.78789 0.5033 0.17413 0.0
C476 C 0.71331 0.50417 0.14891 0.0
C477 C 0.66329 0.50509 0.16193 0.0
C478 C 0.76015 0.5055 0.32425 0.0
C479 C 0.73605 0.50481 0.23494 0.0
C480 C 0.79645 0.50537 0.36051 0.0
C481 C 0.84647 0.50442 0.3475 0.0
C482 C 0.77374 0.50468 0.27447 0.0
C483 C 0.85849 0.50362 0.29725 0.0
C484 C 0.74963 0.50403 0.18515 0.0
C485 C 0.65129 0.50584 0.21219 0.0
N486 N 0.82242 0.50377 0.26264 0.0
N487 N 0.68737 0.50569 0.24678 0.0
H488 H 0.28518 0.89872 0.50424 0.0
H489 H 0.22461 0.61073 0.50569 0.0
H490 H 0.39647 0.78529 0.50631 0.0
H491 H 0.11336 0.72421 0.5034 0.0
H492 H 0.28791 0.67414 0.50595 0.0
H493 H 0.2219 0.8353 0.50398 0.0
C494 C 0.29647 0.86054 0.50466 0.0
C495 C 0.34649 0.84752 0.5053 0.0
C496 C 0.24966 0.68517 0.50538 0.0
C497 C 0.27376 0.77449 0.505 0.0
C498 C 0.21333 0.64892 0.50523 0.0
C499 C 0.16332 0.66195 0.50452 0.0
C500 C 0.23607 0.73496 0.50483 0.0
C501 C 0.15131 0.71221 0.50396 0.0
C502 C 0.26016 0.82428 0.5045 0.0
C503 C 0.35852 0.79727 0.5058 0.0
N504 N 0.18739 0.74681 0.50413 0.0
N505 N 0.32245 0.76266 0.50564 0.0
H506 H 0.11091 0.28503 0.50806 0.0
H507 H 0.39878 0.22444 0.50244 0.0
H508 H 0.22435 0.39623 0.50296 0.0
H509 H 0.28534 0.11324 0.50752 0.0
H510 H 0.33538 0.28773 0.50264 0.0
H511 H 0.1743 0.22175 0.50794 0.0
C512 C 0.14909 0.2963 0.5069 0.0
C513 C 0.16213 0.34628 0.50552 0.0
C514 C 0.32436 0.24948 0.50372 0.0
C515 C 0.2351 0.27357 0.50537 0.0
C516 C 0.36059 0.21318 0.50362 0.0
C517 C 0.34755 0.16319 0.50498 0.0
C518 C 0.27458 0.2359 0.50521 0.0
C519 C 0.29732 0.15117 0.50642 0.0
C520 C 0.18532 0.25999 0.50684 0.0
C521 C 0.21237 0.3583 0.5041 0.0
N522 N 0.26273 0.18725 0.5065 0.0
N523 N 0.24696 0.32222 0.50405 0.0
H524 H 0.78529 0.61093 0.50959 0.0
H525 H 0.72445 0.89867 0.49887 0.0
H526 H 0.89632 0.72415 0.49921 0.0
H527 H 0.61342 0.78545 0.50937 0.0
H528 H 0.78775 0.83526 0.49887 0.0
H529 H 0.72198 0.67434 0.50949 0.0
C530 C 0.79651 0.64906 0.50724 0.0
C531 C 0.84647 0.66203 0.50439 0.0
C532 C 0.74954 0.82428 0.50119 0.0
C533 C 0.77372 0.73504 0.50428 0.0
C534 C 0.71322 0.86054 0.50122 0.0
C535 C 0.66327 0.84757 0.50414 0.0
C536 C 0.73602 0.77456 0.50414 0.0
C537 C 0.65132 0.79738 0.50699 0.0
C538 C 0.76019 0.68531 0.50721 0.0
C539 C 0.85842 0.71222 0.50154 0.0
N540 N 0.6874 0.76278 0.50694 0.0
N541 N 0.82234 0.74682 0.50153 0.0
H542 H 0.61085 0.22451 0.50425 0.0
H543 H 0.89877 0.28508 0.50483 0.0
H544 H 0.7244 0.11328 0.50383 0.0
H545 H 0.78525 0.39633 0.50507 0.0
H546 H 0.83539 0.2218 0.50447 0.0
H547 H 0.67422 0.28781 0.50452 0.0
C548 C 0.64905 0.21324 0.5042 0.0
C549 C 0.66213 0.16324 0.50401 0.0
C550 C 0.82434 0.26005 0.50461 0.0
C551 C 0.73507 0.23597 0.50434 0.0
C552 C 0.86057 0.29636 0.50482 0.0
C553 C 0.84751 0.34636 0.50499 0.0
C554 C 0.77455 0.27364 0.50456 0.0
C555 C 0.79725 0.35839 0.50495 0.0
C556 C 0.68527 0.24955 0.50436 0.0
C557 C 0.71239 0.15123 0.50397 0.0
N558 N 0.76267 0.32231 0.50474 0.0
N559 N 0.74696 0.18731 0.50414 0.0
H560 H 0.50294 0.28501 0.89861 0.0
H561 H 0.50734 0.22475 0.61056 0.0
H562 H 0.50704 0.39639 0.78535 0.0
H563 H 0.50345 0.11344 0.72391 0.0
H564 H 0.50723 0.288 0.67405 0.0
H565 H 0.50307 0.22181 0.8351 0.0
C566 C 0.50389 0.29633 0.86045 0.0
C567 C 0.50499 0.34635 0.84751 0.0
C568 C 0.5064 0.24973 0.68502 0.0
C569 C 0.50514 0.27373 0.77437 0.0
C570 C 0.50644 0.21345 0.64873 0.0
C571 C 0.50539 0.16344 0.66171 0.0
C572 C 0.50527 0.2361 0.7348 0.0
C573 C 0.50432 0.15139 0.71195 0.0
C574 C 0.50395 0.26008 0.82414 0.0
C575 C 0.50614 0.35843 0.79727 0.0
N576 N 0.50427 0.18743 0.74658 0.0
N577 N 0.50619 0.32241 0.76262 0.0
H578 H 0.50636 0.78552 0.61098 0.0
H579 H 0.50386 0.72433 0.89868 0.0
H580 H 0.50448 0.8966 0.72462 0.0
H581 H 0.5058 0.61334 0.78496 0.0
H582 H 0.5041 0.78776 0.83547 0.0
H583 H 0.50622 0.72214 0.67422 0.0
C584 C 0.50591 0.79675 0.64918 0.0
C585 C 0.50542 0.84674 0.66231 0.0
C586 C 0.50448 0.74953 0.82434 0.0
C587 C 0.50526 0.77386 0.73514 0.0
C588 C 0.50434 0.71313 0.86047 0.0
C589 C 0.50481 0.66315 0.84731 0.0
C590 C 0.5051 0.73608 0.77453 0.0
C591 C 0.50541 0.65125 0.79704 0.0
C592 C 0.50584 0.76038 0.68533 0.0
C593 C 0.50489 0.85867 0.71257 0.0
N594 N 0.50554 0.68743 0.76255 0.0
N595 N 0.50481 0.82252 0.74709 0.0
H596 H 0.50618 0.72471 0.11077 0.0
H597 H 0.50262 0.78481 0.39879 0.0
H598 H 0.50286 0.61333 0.22407 0.0
H599 H 0.50589 0.89619 0.28547 0.0
H600 H 0.50267 0.72161 0.33528 0.0
H601 H 0.50608 0.78791 0.17428 0.0
C602 C 0.5054 0.71339 0.14894 0.0
C603 C 0.50451 0.66339 0.16191 0.0
C604 C 0.50338 0.75988 0.32432 0.0
C605 C 0.5044 0.73597 0.235 0.0
C606 C 0.50336 0.79613 0.36062 0.0
C607 C 0.50426 0.84613 0.34764 0.0
C608 C 0.50431 0.77355 0.27456 0.0
C609 C 0.50515 0.85823 0.29742 0.0
C610 C 0.50536 0.74964 0.18524 0.0
C611 C 0.50359 0.65128 0.21213 0.0
N612 N 0.50516 0.82222 0.26278 0.0
N613 N 0.50355 0.68729 0.24678 0.0
H614 H 0.50312 0.1107 0.28463 0.0
H615 H 0.50612 0.39882 0.22469 0.0
H616 H 0.50576 0.22396 0.39607 0.0
H617 H 0.50379 0.28557 0.11324 0.0
H618 H 0.50596 0.33527 0.28785 0.0
H619 H 0.50328 0.17425 0.22147 0.0
C620 C 0.50374 0.14887 0.29597 0.0
C621 C 0.50443 0.1618 0.34599 0.0
C622 C 0.50548 0.32433 0.24957 0.0
C623 C 0.50462 0.23496 0.27344 0.0
C624 C 0.50557 0.36066 0.21335 0.0
C625 C 0.50496 0.34772 0.16333 0.0
C626 C 0.50477 0.27456 0.23587 0.0
C627 C 0.50429 0.29749 0.1512 0.0
C628 C 0.50383 0.18519 0.25974 0.0
C629 C 0.50519 0.21204 0.35811 0.0
N630 N 0.5042 0.26282 0.18719 0.0
N631 N 0.50527 0.24671 0.32212 0.0
loop_
_geom_bond_atom_site_label_1
_geom_bond_atom_site_label_2
_geom_bond_distance
_geom_bond_site_symmetry_2
_ccdc_geom_bond_type
C0 O26 1.283 . S
C0 O44 1.283 . S
C1 O27 1.283 . S
C1 O42 1.283 . S
C2 O28 1.283 . S
C2 O45 1.283 . S
C3 O29 1.283 . S
C3 O43 1.283 . S
C4 O30 1.283 . S
C4 O39 1.283 . S
C5 O31 1.283 . S
C5 O41 1.283 . S
C6 O32 1.283 . S
C6 O38 1.283 . S
C7 O33 1.283 . S
C7 O40 1.283 . S
C8 O34 1.283 . S
C8 O49 1.283 . S
C9 O35 1.283 . S
C9 O47 1.283 . S
C10 O36 1.283 . S
C10 O48 1.283 . S
C11 O37 1.283 . S
C11 O46 1.283 . S
Eu12 O13 2.370 1_454 S
Eu12 O14 2.370 . S
Eu12 O17 2.370 1_455 S
Eu12 O18 2.370 1_554 S
Eu12 O26 2.363 . S
Eu12 O27 2.363 1_554 S
Eu12 O40 2.363 . S
Eu12 O41 2.363 1_455 S
O13 Eu12 2.370 1_656 S
O13 Eu15 2.370 1_566 S
O13 Eu20 2.370 1_665 S
O14 Eu12 2.370 . S
O14 Eu16 2.370 1_565 S
O14 Eu19 2.370 1_565 S
Eu15 O13 2.370 1_544 S
Eu15 O17 2.370 1_545 S
Eu15 O21 2.370 . S
Eu15 O22 2.370 1_554 S
Eu15 O30 2.363 . S
Eu15 O31 2.363 1_545 S
Eu15 O46 2.363 . S
Eu15 O47 2.363 1_554 S
Eu16 O14 2.370 1_545 S
Eu16 O18 2.370 1_544 S
Eu16 O23 2.370 1_554 S
Eu16 O24 2.370 . S
Eu16 O32 2.363 . S
Eu16 O33 2.363 1_545 S
Eu16 O48 2.363 . S
Eu16 O49 2.363 1_554 S
O17 Eu12 2.370 1_655 S
O17 Eu15 2.370 1_565 S
O17 Eu19 2.370 1_665 S
O18 Eu12 2.370 1_556 S
O18 Eu16 2.370 1_566 S
O18 Eu20 2.370 1_565 S
Eu19 O14 2.370 1_545 S
Eu19 O17 2.370 1_445 S
Eu19 O21 2.370 1_455 S
Eu19 O24 2.370 . S
Eu19 O36 2.363 . S
Eu19 O37 2.363 1_455 S
Eu19 O44 2.363 1_545 S
Eu19 O45 2.363 . S
Eu20 O13 2.370 1_445 S
Eu20 O18 2.370 1_545 S
Eu20 O22 2.370 1_455 S
Eu20 O23 2.370 . S
Eu20 O34 2.363 . S
Eu20 O35 2.363 1_455 S
Eu20 O42 2.363 1_545 S
Eu20 O43 2.363 . S
O21 Eu15 2.370 . S
O21 Eu19 2.370 1_655 S
O21 Eu25 2.370 1_655 S
O22 Eu15 2.370 1_556 S
O22 Eu20 2.370 1_655 S
O22 Eu25 2.370 1_656 S
O23 Eu16 2.370 1_556 S
O23 Eu20 2.370 . S
O23 Eu25 2.370 1_556 S
O24 Eu16 2.370 . S
O24 Eu19 2.370 . S
O24 Eu25 2.370 . S
Eu25 O21 2.370 1_455 S
Eu25 O22 2.370 1_454 S
Eu25 O23 2.370 1_554 S
Eu25 O24 2.370 . S
Eu25 O28 2.363 . S
Eu25 O29 2.363 1_554 S
Eu25 O38 2.363 . S
Eu25 O39 2.363 1_455 S
O26 C0 1.283 . S
O26 Eu12 2.363 . S
O27 C1 1.283 . S
O27 Eu12 2.363 1_556 S
O28 C2 1.283 . S
O28 Eu25 2.363 . S
O29 C3 1.283 . S
O29 Eu25 2.363 1_556 S
O30 C4 1.283 . S
O30 Eu15 2.363 . S
O31 C5 1.283 . S
O31 Eu15 2.363 1_565 S
O32 C6 1.283 . S
O32 Eu16 2.363 . S
O33 C7 1.283 . S
O33 Eu16 2.363 1_565 S
O34 C8 1.283 . S
O34 Eu20 2.363 . S
O35 C9 1.283 . S
O35 Eu20 2.363 1_655 S
O36 C10 1.283 . S
O36 Eu19 2.363 . S
O37 C11 1.283 . S
O37 Eu19 2.363 1_655 S
O38 C6 1.283 . S
O38 Eu25 2.363 . S
O39 C4 1.283 . S
O39 Eu25 2.363 1_655 S
O40 C7 1.283 . S
O40 Eu12 2.363 . S
O41 C5 1.283 . S
O41 Eu12 2.363 1_655 S
O42 C1 1.283 . S
O42 Eu20 2.363 1_565 S
O43 C3 1.283 . S
O43 Eu20 2.363 . S
O44 C0 1.283 . S
O44 Eu19 2.363 1_565 S
O45 C2 1.283 . S
O45 Eu19 2.363 . S
O46 C11 1.283 . S
O46 Eu15 2.363 . S
O47 C9 1.283 . S
O47 Eu15 2.363 1_556 S
O48 C10 1.283 . S
O48 Eu16 2.363 . S
O49 C8 1.283 . S
O49 Eu16 2.363 1_556 S
C50 O76 1.283 . S
C50 O94 1.283 . S
C51 O77 1.283 . S
C51 O92 1.283 . S
C52 O78 1.283 . S
C52 O95 1.283 . S
C53 O79 1.283 . S
C53 O93 1.283 . S
C54 O80 1.283 . S
C54 O89 1.283 . S
C55 O81 1.283 . S
C55 O91 1.283 . S
C56 O82 1.283 . S
C56 O88 1.283 . S
C57 O83 1.283 . S
C57 O90 1.283 . S
C58 O84 1.283 . S
C58 O99 1.283 . S
C59 O85 1.283 . S
C59 O97 1.283 . S
C60 O86 1.283 . S
C60 O98 1.283 . S
C61 O87 1.283 . S
C61 O96 1.283 . S
Eu62 O63 2.370 . S
Eu62 O64 2.370 1_455 S
Eu62 O67 2.370 . S
Eu62 O68 2.370 1_455 S
Eu62 O76 2.363 . S
Eu62 O77 2.363 . S
Eu62 O90 2.363 1_455 S
Eu62 O91 2.363 . S
O63 Eu62 2.370 . S
O63 Eu65 2.370 . S
O63 Eu70 2.370 . S
O64 Eu62 2.370 1_655 S
O64 Eu66 2.370 . S
O64 Eu69 2.370 1_655 S
Eu65 O63 2.370 . S
Eu65 O67 2.370 . S
Eu65 O71 2.370 . S
Eu65 O72 2.370 . S
Eu65 O80 2.363 . S
Eu65 O81 2.363 . S
Eu65 O96 2.363 . S
Eu65 O97 2.363 . S
Eu66 O64 2.370 . S
Eu66 O68 2.370 . S
Eu66 O73 2.370 . S
Eu66 O74 2.370 . S
Eu66 O82 2.363 . S
Eu66 O83 2.363 . S
Eu66 O98 2.363 . S
Eu66 O99 2.363 . S
O67 Eu62 2.370 . S
O67 Eu65 2.370 . S
O67 Eu69 2.370 . S
O68 Eu62 2.370 1_655 S
O68 Eu66 2.370 . S
O68 Eu70 2.370 1_655 S
Eu69 O64 2.370 1_455 S
Eu69 O67 2.370 . S
Eu69 O71 2.370 . S
Eu69 O74 2.370 1_455 S
Eu69 O86 2.363 1_455 S
Eu69 O87 2.363 . S
Eu69 O94 2.363 . S
Eu69 O95 2.363 . S
Eu70 O63 2.370 . S
Eu70 O68 2.370 1_455 S
Eu70 O72 2.370 . S
Eu70 O73 2.370 1_455 S
Eu70 O84 2.363 1_455 S
Eu70 O85 2.363 . S
Eu70 O92 2.363 . S
Eu70 O93 2.363 . S
O71 Eu65 2.370 . S
O71 Eu69 2.370 . S
O71 Eu75 2.370 . S
O72 Eu65 2.370 . S
O72 Eu70 2.370 . S
O72 Eu75 2.370 . S
O73 Eu66 2.370 . S
O73 Eu70 2.370 1_655 S
O73 Eu75 2.370 1_655 S
O74 Eu66 2.370 . S
O74 Eu69 2.370 1_655 S
O74 Eu75 2.370 1_655 S
Eu75 O71 2.370 . S
Eu75 O72 2.370 . S
Eu75 O73 2.370 1_455 S
Eu75 O74 2.370 1_455 S
Eu75 O78 2.363 . S
Eu75 O79 2.363 . S
Eu75 O88 2.363 1_455 S
Eu75 O89 2.363 . S
O76 C50 1.283 . S
O76 Eu62 2.363 . S
O77 C51 1.283 . S
O77 Eu62 2.363 . S
O78 C52 1.283 . S
O78 Eu75 2.363 . S
O79 C53 1.283 . S
O79 Eu75 2.363 . S
O80 C54 1.283 . S
O80 Eu65 2.363 . S
O81 C55 1.283 . S
O81 Eu65 2.363 . S
O82 C56 1.283 . S
O82 Eu66 2.363 . S
O83 C57 1.283 . S
O83 Eu66 2.363 . S
O84 C58 1.283 . S
O84 Eu70 2.363 1_655 S
O85 C59 1.283 . S
O85 Eu70 2.363 . S
O86 C60 1.283 . S
O86 Eu69 2.363 1_655 S
O87 C61 1.283 . S
O87 Eu69 2.363 . S
O88 C56 1.283 . S
O88 Eu75 2.363 1_655 S
O89 C54 1.283 . S
O89 Eu75 2.363 . S
O90 C57 1.283 . S
O90 Eu62 2.363 1_655 S
O91 C55 1.283 . S
O91 Eu62 2.363 . S
O92 C51 1.283 . S
O92 Eu70 2.363 . S
O93 C53 1.283 . S
O93 Eu70 2.363 . S
O94 C50 1.283 . S
O94 Eu69 2.363 . S
O95 C52 1.283 . S
O95 Eu69 2.363 . S
O96 C61 1.283 . S
O96 Eu65 2.363 . S
O97 C59 1.283 . S
O97 Eu65 2.363 . S
O98 C60 1.283 . S
O98 Eu66 2.363 . S
O99 C58 1.283 . S
O99 Eu66 2.363 . S
C100 O126 1.283 . S
C100 O144 1.283 . S
C101 O127 1.283 . S
C101 O142 1.283 . S
C102 O128 1.283 . S
C102 O145 1.283 . S
C103 O129 1.283 . S
C103 O143 1.283 . S
C104 O130 1.283 . S
C104 O139 1.283 . S
C105 O131 1.283 . S
C105 O141 1.283 . S
C106 O132 1.283 . S
C106 O138 1.283 . S
C107 O133 1.283 . S
C107 O140 1.283 . S
C108 O134 1.283 . S
C108 O149 1.283 . S
C109 O135 1.283 . S
C109 O147 1.283 . S
C110 O136 1.283 . S
C110 O148 1.283 . S
C111 O137 1.283 . S
C111 O146 1.283 . S
Eu112 O113 2.370 . S
Eu112 O114 2.370 1_545 S
Eu112 O117 2.370 1_545 S
Eu112 O118 2.370 . S
Eu112 O126 2.363 1_545 S
Eu112 O127 2.363 . S
Eu112 O140 2.363 . S
Eu112 O141 2.363 . S
O113 Eu112 2.370 . S
O113 Eu115 2.370 . S
O113 Eu120 2.370 . S
O114 Eu112 2.370 1_565 S
O114 Eu116 2.370 1_565 S
O114 Eu119 2.370 . S
Eu115 O113 2.370 . S
Eu115 O117 2.370 1_545 S
Eu115 O121 2.370 1_545 S
Eu115 O122 2.370 . S
Eu115 O130 2.363 . S
Eu115 O131 2.363 . S
Eu115 O146 2.363 1_545 S
Eu115 O147 2.363 . S
Eu116 O114 2.370 1_545 S
Eu116 O118 2.370 . S
Eu116 O123 2.370 . S
Eu116 O124 2.370 1_545 S
Eu116 O132 2.363 . S
Eu116 O133 2.363 . S
Eu116 O148 2.363 1_545 S
Eu116 O149 2.363 . S
O117 Eu112 2.370 1_565 S
O117 Eu115 2.370 1_565 S
O117 Eu119 2.370 . S
O118 Eu112 2.370 . S
O118 Eu116 2.370 . S
O118 Eu120 2.370 . S
Eu119 O114 2.370 . S
Eu119 O117 2.370 . S
Eu119 O121 2.370 . S
Eu119 O124 2.370 . S
Eu119 O136 2.363 . S
Eu119 O137 2.363 . S
Eu119 O144 2.363 . S
Eu119 O145 2.363 . S
Eu120 O113 2.370 . S
Eu120 O118 2.370 . S
Eu120 O122 2.370 . S
Eu120 O123 2.370 . S
Eu120 O134 2.363 . S
Eu120 O135 2.363 . S
Eu120 O142 2.363 . S
Eu120 O143 2.363 . S
O121 Eu115 2.370 1_565 S
O121 Eu119 2.370 . S
O121 Eu125 2.370 1_565 S
O122 Eu115 2.370 . S
O122 Eu120 2.370 . S
O122 Eu125 2.370 . S
O123 Eu116 2.370 . S
O123 Eu120 2.370 . S
O123 Eu125 2.370 . S
O124 Eu116 2.370 1_565 S
O124 Eu119 2.370 . S
O124 Eu125 2.370 1_565 S
Eu125 O121 2.370 1_545 S
Eu125 O122 2.370 . S
Eu125 O123 2.370 . S
Eu125 O124 2.370 1_545 S
Eu125 O128 2.363 1_545 S
Eu125 O129 2.363 . S
Eu125 O138 2.363 . S
Eu125 O139 2.363 . S
O126 C100 1.283 . S
O126 Eu112 2.363 1_565 S
O127 C101 1.283 . S
O127 Eu112 2.363 . S
O128 C102 1.283 . S
O128 Eu125 2.363 1_565 S
O129 C103 1.283 . S
O129 Eu125 2.363 . S
O130 C104 1.283 . S
O130 Eu115 2.363 . S
O131 C105 1.283 . S
O131 Eu115 2.363 . S
O132 C106 1.283 . S
O132 Eu116 2.363 . S
O133 C107 1.283 . S
O133 Eu116 2.363 . S
O134 C108 1.283 . S
O134 Eu120 2.363 . S
O135 C109 1.283 . S
O135 Eu120 2.363 . S
O136 C110 1.283 . S
O136 Eu119 2.363 . S
O137 C111 1.283 . S
O137 Eu119 2.363 . S
O138 C106 1.283 . S
O138 Eu125 2.363 . S
O139 C104 1.283 . S
O139 Eu125 2.363 . S
O140 C107 1.283 . S
O140 Eu112 2.363 . S
O141 C105 1.283 . S
O141 Eu112 2.363 . S
O142 C101 1.283 . S
O142 Eu120 2.363 . S
O143 C103 1.283 . S
O143 Eu120 2.363 . S
O144 C100 1.283 . S
O144 Eu119 2.363 . S
O145 C102 1.283 . S
O145 Eu119 2.363 . S
O146 C111 1.283 . S
O146 Eu115 2.363 1_565 S
O147 C109 1.283 . S
O147 Eu115 2.363 . S
O148 C110 1.283 . S
O148 Eu116 2.363 1_565 S
O149 C108 1.283 . S
O149 Eu116 2.363 . S
C150 O176 1.283 . S
C150 O194 1.283 . S
C151 O177 1.283 . S
C151 O192 1.283 . S
C152 O178 1.283 . S
C152 O195 1.283 . S
C153 O179 1.283 . S
C153 O193 1.283 . S
C154 O180 1.283 . S
C154 O189 1.283 . S
C155 O181 1.283 . S
C155 O191 1.283 . S
C156 O182 1.283 . S
C156 O188 1.283 . S
C157 O183 1.283 . S
C157 O190 1.283 . S
C158 O184 1.283 . S
C158 O199 1.283 . S
C159 O185 1.283 . S
C159 O197 1.283 . S
C160 O186 1.283 . S
C160 O198 1.283 . S
C161 O187 1.283 . S
C161 O196 1.283 . S
Eu162 O163 2.370 . S
Eu162 O164 2.370 1_554 S
Eu162 O167 2.370 1_554 S
Eu162 O168 2.370 . S
Eu162 O176 2.363 1_554 S
Eu162 O177 2.363 . S
Eu162 O190 2.363 . S
Eu162 O191 2.363 . S
O163 Eu162 2.370 . S
O163 Eu165 2.370 . S
O163 Eu170 2.370 . S
O164 Eu162 2.370 1_556 S
O164 Eu166 2.370 1_556 S
O164 Eu169 2.370 . S
Eu165 O163 2.370 . S
Eu165 O167 2.370 1_554 S
Eu165 O171 2.370 1_554 S
Eu165 O172 2.370 . S
Eu165 O180 2.363 . S
Eu165 O181 2.363 . S
Eu165 O196 2.363 1_554 S
Eu165 O197 2.363 . S
Eu166 O164 2.370 1_554 S
Eu166 O168 2.370 . S
Eu166 O173 2.370 . S
Eu166 O174 2.370 1_554 S
Eu166 O182 2.363 . S
Eu166 O183 2.363 . S
Eu166 O198 2.363 1_554 S
Eu166 O199 2.363 . S
O167 Eu162 2.370 1_556 S
O167 Eu165 2.370 1_556 S
O167 Eu169 2.370 . S
O168 Eu162 2.370 . S
O168 Eu166 2.370 . S
O168 Eu170 2.370 . S
Eu169 O164 2.370 . S
Eu169 O167 2.370 . S
Eu169 O171 2.370 . S
Eu169 O174 2.370 . S
Eu169 O186 2.363 . S
Eu169 O187 2.363 . S
Eu169 O194 2.363 . S
Eu169 O195 2.363 . S
Eu170 O163 2.370 . S
Eu170 O168 2.370 . S
Eu170 O172 2.370 . S
Eu170 O173 2.370 . S
Eu170 O184 2.363 . S
Eu170 O185 2.363 . S
Eu170 O192 2.363 . S
Eu170 O193 2.363 . S
O171 Eu165 2.370 1_556 S
O171 Eu169 2.370 . S
O171 Eu175 2.370 1_556 S
O172 Eu165 2.370 . S
O172 Eu170 2.370 . S
O172 Eu175 2.370 . S
O173 Eu166 2.370 . S
O173 Eu170 2.370 . S
O173 Eu175 2.370 . S
O174 Eu166 2.370 1_556 S
O174 Eu169 2.370 . S
O174 Eu175 2.370 1_556 S
Eu175 O171 2.370 1_554 S
Eu175 O172 2.370 . S
Eu175 O173 2.370 . S
Eu175 O174 2.370 1_554 S
Eu175 O178 2.363 1_554 S
Eu175 O179 2.363 . S
Eu175 O188 2.363 . S
Eu175 O189 2.363 . S
O176 C150 1.283 . S
O176 Eu162 2.363 1_556 S
O177 C151 1.283 . S
O177 Eu162 2.363 . S
O178 C152 1.283 . S
O178 Eu175 2.363 1_556 S
O179 C153 1.283 . S
O179 Eu175 2.363 . S
O180 C154 1.283 . S
O180 Eu165 2.363 . S
O181 C155 1.283 . S
O181 Eu165 2.363 . S
O182 C156 1.283 . S
O182 Eu166 2.363 . S
O183 C157 1.283 . S
O183 Eu166 2.363 . S
O184 C158 1.283 . S
O184 Eu170 2.363 . S
O185 C159 1.283 . S
O185 Eu170 2.363 . S
O186 C160 1.283 . S
O186 Eu169 2.363 . S
O187 C161 1.283 . S
O187 Eu169 2.363 . S
O188 C156 1.283 . S
O188 Eu175 2.363 . S
O189 C154 1.283 . S
O189 Eu175 2.363 . S
O190 C157 1.283 . S
O190 Eu162 2.363 . S
O191 C155 1.283 . S
O191 Eu162 2.363 . S
O192 C151 1.283 . S
O192 Eu170 2.363 . S
O193 C153 1.283 . S
O193 Eu170 2.363 . S
O194 C150 1.283 . S
O194 Eu169 2.363 . S
O195 C152 1.283 . S
O195 Eu169 2.363 . S
O196 C161 1.283 . S
O196 Eu165 2.363 1_556 S
O197 C159 1.283 . S
O197 Eu165 2.363 . S
O198 C160 1.283 . S
O198 Eu166 2.363 1_556 S
O199 C158 1.283 . S
O199 Eu166 2.363 . S
H200 C206 0.930 . S
H201 C210 0.930 . S
H202 C215 0.929 . S
H203 C213 0.929 . S
H204 C208 0.929 . S
H205 C214 0.929 . S
C206 H200 0.930 . S
C206 C207 1.370 . S
C206 C214 1.378 . S
C207 C206 1.370 . S
C207 C215 1.430 1_455 S
C208 H204 0.929 . S
C208 C210 1.378 . S
C208 C212 1.353 . S
C209 C212 1.462 1_455 S
C209 C214 1.355 . S
C209 N217 1.422 1_455 S
C210 H201 0.930 . S
C210 C208 1.378 . S
C210 C211 1.369 . S
C211 C210 1.369 . S
C211 C213 1.431 1_655 S
C212 C208 1.353 . S
C212 C209 1.462 1_655 S
C212 N216 1.424 1_655 S
C213 H203 0.929 . S
C213 C211 1.431 1_455 S
C213 N216 1.384 . S
C214 H205 0.929 . S
C214 C206 1.378 . S
C214 C209 1.355 . S
C215 H202 0.929 . S
C215 C207 1.430 1_655 S
C215 N217 1.384 . S
N216 C212 1.424 1_455 S
N216 C213 1.384 . S
N217 C209 1.422 1_655 S
N217 C215 1.384 . S
H218 C224 0.930 . S
H219 C228 0.930 . S
H220 C233 0.929 . S
H221 C231 0.929 . S
H222 C226 0.929 . S
H223 C232 0.929 . S
C224 H218 0.930 . S
C224 C225 1.367 . S
C224 C232 1.378 . S
C225 C224 1.367 . S
C225 C233 1.433 1_545 S
C226 H222 0.929 . S
C226 C228 1.378 . S
C226 C230 1.350 . S
C227 C230 1.463 1_545 S
C227 C232 1.350 . S
C227 N235 1.427 1_545 S
C228 H219 0.930 . S
C228 C226 1.378 . S
C228 C229 1.386 . S
C229 C228 1.386 . S
C229 C231 1.413 1_565 S
C230 C226 1.350 . S
C230 C227 1.463 1_565 S
C230 N234 1.427 1_565 S
C231 H221 0.929 . S
C231 C229 1.413 1_545 S
C231 N234 1.384 . S
C232 H223 0.929 . S
C232 C224 1.378 . S
C232 C227 1.350 . S
C233 H220 0.929 . S
C233 C225 1.433 1_565 S
C233 N235 1.384 . S
N234 C230 1.427 1_545 S
N234 C231 1.384 . S
N235 C227 1.427 1_565 S
N235 C233 1.384 . S
H236 C242 0.930 . S
H237 C246 0.930 . S
H238 C251 0.929 . S
H239 C249 0.929 . S
H240 C244 0.929 . S
H241 C250 0.929 . S
C242 H236 0.930 . S
C242 C243 1.377 . S
C242 C250 1.378 . S
C243 C242 1.377 . S
C243 C251 1.423 1_655 S
C244 H240 0.929 . S
C244 C246 1.378 . S
C244 C248 1.350 . S
C245 C248 1.463 1_655 S
C245 C250 1.350 . S
C245 N253 1.427 1_655 S
C246 H237 0.930 . S
C246 C244 1.378 . S
C246 C247 1.380 . S
C247 C246 1.380 . S
C247 C249 1.420 1_455 S
C248 C244 1.350 . S
C248 C245 1.463 1_455 S
C248 N252 1.427 1_455 S
C249 H239 0.929 . S
C249 C247 1.420 1_655 S
C249 N252 1.384 . S
C250 H241 0.929 . S
C250 C242 1.378 . S
C250 C245 1.350 . S
C251 H238 0.929 . S
C251 C243 1.423 1_455 S
C251 N253 1.384 . S
N252 C248 1.427 1_655 S
N252 C249 1.384 . S
N253 C245 1.427 1_455 S
N253 C251 1.384 . S
H254 C260 0.930 . S
H255 C264 0.930 . S
H256 C269 0.929 . S
H257 C267 0.929 . S
H258 C262 0.929 . S
H259 C268 0.929 . S
C260 H254 0.930 . S
C260 C261 1.371 . S
C260 C268 1.378 . S
C261 C260 1.371 . S
C261 C269 1.429 1_565 S
C262 H258 0.929 . S
C262 C264 1.378 . S
C262 C266 1.360 . S
C263 C266 1.462 1_565 S
C263 C268 1.358 . S
C263 N271 1.419 1_565 S
C264 H255 0.930 . S
C264 C262 1.378 . S
C264 C265 1.374 . S
C265 C264 1.374 . S
C265 C267 1.426 1_545 S
C266 C262 1.360 . S
C266 C263 1.462 1_545 S
C266 N270 1.417 1_545 S
C267 H257 0.929 . S
C267 C265 1.426 1_565 S
C267 N270 1.384 . S
C268 H259 0.929 . S
C268 C260 1.378 . S
C268 C263 1.358 . S
C269 H256 0.929 . S
C269 C261 1.429 1_545 S
C269 N271 1.384 . S
N270 C266 1.417 1_565 S
N270 C267 1.384 . S
N271 C263 1.419 1_545 S
N271 C269 1.384 . S
H272 C278 0.930 . S
H273 C282 0.930 . S
H274 C287 0.929 . S
H275 C285 0.929 . S
H276 C280 0.929 . S
H277 C286 0.929 . S
C278 H272 0.930 . S
C278 C279 1.369 . S
C278 C286 1.378 . S
C279 C278 1.369 . S
C279 C287 1.431 1_655 S
C280 H276 0.929 . S
C280 C282 1.378 . S
C280 C284 1.357 . S
C281 C284 1.462 1_655 S
C281 C286 1.355 . S
C281 N289 1.423 1_655 S
C282 H273 0.930 . S
C282 C280 1.378 . S
C282 C283 1.371 . S
C283 C282 1.371 . S
C283 C285 1.429 1_455 S
C284 C280 1.357 . S
C284 C281 1.462 1_455 S
C284 N288 1.421 1_455 S
C285 H275 0.929 . S
C285 C283 1.429 1_655 S
C285 N288 1.384 . S
C286 H277 0.929 . S
C286 C278 1.378 . S
C286 C281 1.355 . S
C287 H274 0.929 . S
C287 C279 1.431 1_455 S
C287 N289 1.384 . S
N288 C284 1.421 1_655 S
N288 C285 1.384 . S
N289 C281 1.423 1_455 S
N289 C287 1.384 . S
H290 C296 0.930 . S
H291 C300 0.930 . S
H292 C305 0.929 . S
H293 C303 0.929 . S
H294 C298 0.929 . S
H295 C304 0.929 . S
C296 H290 0.930 . S
C296 C297 1.369 . S
C296 C304 1.378 . S
C297 C296 1.369 . S
C297 C305 1.431 1_565 S
C298 H294 0.929 . S
C298 C300 1.378 . S
C298 C302 1.356 . S
C299 C302 1.462 1_565 S
C299 C304 1.354 . S
C299 N307 1.424 1_565 S
C300 H291 0.930 . S
C300 C298 1.378 . S
C300 C301 1.371 . S
C301 C300 1.371 . S
C301 C303 1.429 1_545 S
C302 C298 1.356 . S
C302 C299 1.462 1_545 S
C302 N306 1.422 1_545 S
C303 H293 0.929 . S
C303 C301 1.429 1_565 S
C303 N306 1.384 . S
C304 H295 0.929 . S
C304 C296 1.378 . S
C304 C299 1.354 . S
C305 H292 0.929 . S
C305 C297 1.431 1_545 S
C305 N307 1.384 . S
N306 C302 1.422 1_565 S
N306 C303 1.384 . S
N307 C299 1.424 1_545 S
N307 C305 1.384 . S
H308 C314 0.930 . S
H309 C318 0.930 . S
H310 C323 0.929 . S
H311 C321 0.929 . S
H312 C316 0.929 . S
H313 C322 0.929 . S
C314 H308 0.930 . S
C314 C315 1.377 . S
C314 C322 1.378 . S
C315 C314 1.377 . S
C315 C323 1.423 1_655 S
C316 H312 0.929 . S
C316 C318 1.378 . S
C316 C320 1.350 . S
C317 C320 1.463 1_655 S
C317 C322 1.350 . S
C317 N325 1.427 1_655 S
C318 H309 0.930 . S
C318 C316 1.378 . S
C318 C319 1.381 . S
C319 C318 1.381 . S
C319 C321 1.419 1_455 S
C320 C316 1.350 . S
C320 C317 1.463 1_455 S
C320 N324 1.427 1_455 S
C321 H311 0.929 . S
C321 C319 1.419 1_655 S
C321 N324 1.384 . S
C322 H313 0.929 . S
C322 C314 1.378 . S
C322 C317 1.350 . S
C323 H310 0.929 . S
C323 C315 1.423 1_455 S
C323 N325 1.384 . S
N324 C320 1.427 1_655 S
N324 C321 1.384 . S
N325 C317 1.427 1_455 S
N325 C323 1.384 . S
H326 C332 0.930 . S
H327 C336 0.930 . S
H328 C341 0.929 . S
H329 C339 0.929 . S
H330 C334 0.929 . S
H331 C340 0.929 . S
C332 H326 0.930 . S
C332 C333 1.368 . S
C332 C340 1.378 . S
C333 C332 1.368 . S
C333 C341 1.432 1_565 S
C334 H330 0.929 . S
C334 C336 1.378 . S
C334 C338 1.354 . S
C335 C338 1.462 1_565 S
C335 C340 1.352 . S
C335 N343 1.425 1_565 S
C336 H327 0.930 . S
C336 C334 1.378 . S
C336 C337 1.369 . S
C337 C336 1.369 . S
C337 C339 1.431 1_545 S
C338 C334 1.354 . S
C338 C335 1.462 1_545 S
C338 N342 1.423 1_545 S
C339 H329 0.929 . S
C339 C337 1.431 1_565 S
C339 N342 1.384 . S
C340 H331 0.929 . S
C340 C332 1.378 . S
C340 C335 1.352 . S
C341 H328 0.929 . S
C341 C333 1.432 1_545 S
C341 N343 1.384 . S
N342 C338 1.423 1_565 S
N342 C339 1.384 . S
N343 C335 1.425 1_545 S
N343 C341 1.384 . S
H344 C350 0.930 . S
H345 C354 0.930 . S
H346 C359 0.929 . S
H347 C357 0.929 . S
H348 C352 0.929 . S
H349 C358 0.929 . S
C350 H344 0.930 . S
C350 C351 1.373 . S
C350 C358 1.378 . S
C351 C350 1.373 . S
C351 C359 1.427 1_554 S
C352 H348 0.929 . S
C352 C354 1.378 . S
C352 C356 1.357 . S
C353 C356 1.462 1_554 S
C353 C358 1.360 . S
C353 N361 1.418 1_554 S
C354 H345 0.930 . S
C354 C352 1.378 . S
C354 C355 1.371 . S
C355 C354 1.371 . S
C355 C357 1.429 1_556 S
C356 C352 1.357 . S
C356 C353 1.462 1_556 S
C356 N360 1.420 1_556 S
C357 H347 0.929 . S
C357 C355 1.429 1_554 S
C357 N360 1.384 . S
C358 H349 0.929 . S
C358 C350 1.378 . S
C358 C353 1.360 . S
C359 H346 0.929 . S
C359 C351 1.427 1_556 S
C359 N361 1.384 . S
N360 C356 1.420 1_554 S
N360 C357 1.384 . S
N361 C353 1.418 1_556 S
N361 C359 1.384 . S
H362 C368 0.930 . S
H363 C372 0.930 . S
H364 C377 0.929 . S
H365 C375 0.929 . S
H366 C370 0.929 . S
H367 C376 0.929 . S
C368 H362 0.930 . S
C368 C369 1.367 . S
C368 C376 1.378 . S
C369 C368 1.367 . S
C369 C377 1.433 1_554 S
C370 H366 0.929 . S
C370 C372 1.378 . S
C370 C374 1.350 . S
C371 C374 1.463 1_554 S
C371 C376 1.350 . S
C371 N379 1.427 1_554 S
C372 H363 0.930 . S
C372 C370 1.378 . S
C372 C373 1.386 . S
C373 C372 1.386 . S
C373 C375 1.413 1_556 S
C374 C370 1.350 . S
C374 C371 1.463 1_556 S
C374 N378 1.427 1_556 S
C375 H365 0.929 . S
C375 C373 1.413 1_554 S
C375 N378 1.384 . S
C376 H367 0.929 . S
C376 C368 1.378 . S
C376 C371 1.350 . S
C377 H364 0.929 . S
C377 C369 1.433 1_556 S
C377 N379 1.384 . S
N378 C374 1.427 1_554 S
N378 C375 1.384 . S
N379 C371 1.427 1_556 S
N379 C377 1.384 . S
H380 C386 0.930 . S
H381 C390 0.930 . S
H382 C395 0.929 . S
H383 C393 0.929 . S
H384 C388 0.929 . S
H385 C394 0.929 . S
C386 H380 0.930 . S
C386 C387 1.373 . S
C386 C394 1.378 . S
C387 C386 1.373 . S
C387 C395 1.427 1_556 S
C388 H384 0.929 . S
C388 C390 1.378 . S
C388 C392 1.350 . S
C389 C392 1.462 1_556 S
C389 C394 1.361 . S
C389 N397 1.416 1_556 S
C390 H381 0.930 . S
C390 C388 1.378 . S
C390 C391 1.376 . S
C391 C390 1.376 . S
C391 C393 1.424 1_554 S
C392 C388 1.350 . S
C392 C389 1.462 1_554 S
C392 N396 1.427 1_554 S
C393 H383 0.929 . S
C393 C391 1.424 1_556 S
C393 N396 1.384 . S
C394 H385 0.929 . S
C394 C386 1.378 . S
C394 C389 1.361 . S
C395 H382 0.929 . S
C395 C387 1.427 1_554 S
C395 N397 1.384 . S
N396 C392 1.427 1_556 S
N396 C393 1.384 . S
N397 C389 1.416 1_554 S
N397 C395 1.384 . S
H398 C404 0.930 . S
H399 C408 0.930 . S
H400 C413 0.929 . S
H401 C411 0.929 . S
H402 C406 0.929 . S
H403 C412 0.929 . S
C404 H398 0.930 . S
C404 C405 1.383 . S
C404 C412 1.378 . S
C405 C404 1.383 . S
C405 C413 1.417 1_556 S
C406 H402 0.929 . S
C406 C408 1.378 . S
C406 C410 1.350 . S
C407 C410 1.463 1_556 S
C407 C412 1.350 . S
C407 N415 1.427 1_556 S
C408 H399 0.930 . S
C408 C406 1.378 . S
C408 C409 1.367 . S
C409 C408 1.367 . S
C409 C411 1.433 1_554 S
C410 C406 1.350 . S
C410 C407 1.463 1_554 S
C410 N414 1.427 1_554 S
C411 H401 0.929 . S
C411 C409 1.433 1_556 S
C411 N414 1.384 . S
C412 H403 0.929 . S
C412 C404 1.378 . S
C412 C407 1.350 . S
C413 H400 0.929 . S
C413 C405 1.417 1_554 S
C413 N415 1.384 . S
N414 C410 1.427 1_556 S
N414 C411 1.384 . S
N415 C407 1.427 1_554 S
N415 C413 1.384 . S
H416 C422 0.930 . S
H417 C426 0.930 . S
H418 C431 0.929 . S
H419 C429 0.929 . S
H420 C424 0.929 . S
H421 C430 0.929 . S
C422 H416 0.930 . S
C422 C423 1.367 . S
C422 C430 1.378 . S
C423 C422 1.367 . S
C423 C431 1.433 . S
C424 H420 0.929 . S
C424 C426 1.378 . S
C424 C428 1.350 . S
C425 C428 1.463 . S
C425 C430 1.350 . S
C425 N433 1.427 . S
C426 H417 0.930 . S
C426 C424 1.378 . S
C426 C427 1.367 . S
C427 C426 1.367 . S
C427 C429 1.433 . S
C428 C424 1.350 . S
C428 C425 1.463 . S
C428 N432 1.427 . S
C429 H419 0.929 . S
C429 C427 1.433 . S
C429 N432 1.384 . S
C430 H421 0.929 . S
C430 C422 1.378 . S
C430 C425 1.350 . S
C431 H418 0.929 . S
C431 C423 1.433 . S
C431 N433 1.384 . S
N432 C428 1.427 . S
N432 C429 1.384 . S
N433 C425 1.427 . S
N433 C431 1.384 . S
H434 C440 0.930 . S
H435 C444 0.930 . S
H436 C449 0.929 . S
H437 C447 0.929 . S
H438 C442 0.929 . S
H439 C448 0.929 . S
C440 H434 0.930 . S
C440 C441 1.367 . S
C440 C448 1.378 . S
C441 C440 1.367 . S
C441 C449 1.433 . S
C442 H438 0.929 . S
C442 C444 1.378 . S
C442 C446 1.350 . S
C443 C446 1.463 . S
C443 C448 1.350 . S
C443 N451 1.427 . S
C444 H435 0.930 . S
C444 C442 1.378 . S
C444 C445 1.367 . S
C445 C444 1.367 . S
C445 C447 1.433 . S
C446 C442 1.350 . S
C446 C443 1.463 . S
C446 N450 1.427 . S
C447 H437 0.929 . S
C447 C445 1.433 . S
C447 N450 1.384 . S
C448 H439 0.929 . S
C448 C440 1.378 . S
C448 C443 1.350 . S
C449 H436 0.929 . S
C449 C441 1.433 . S
C449 N451 1.384 . S
N450 C446 1.427 . S
N450 C447 1.384 . S
N451 C443 1.427 . S
N451 C449 1.384 . S
H452 C458 0.930 . S
H453 C462 0.930 . S
H454 C467 0.929 . S
H455 C465 0.929 . S
H456 C460 0.929 . S
H457 C466 0.929 . S
C458 H452 0.930 . S
C458 C459 1.367 . S
C458 C466 1.378 . S
C459 C458 1.367 . S
C459 C467 1.433 . S
C460 H456 0.929 . S
C460 C462 1.378 . S
C460 C464 1.350 . S
C461 C464 1.463 . S
C461 C466 1.350 . S
C461 N469 1.427 . S
C462 H453 0.930 . S
C462 C460 1.378 . S
C462 C463 1.367 . S
C463 C462 1.367 . S
C463 C465 1.433 . S
C464 C460 1.350 . S
C464 C461 1.463 . S
C464 N468 1.427 . S
C465 H455 0.929 . S
C465 C463 1.433 . S
C465 N468 1.384 . S
C466 H457 0.929 . S
C466 C458 1.378 . S
C466 C461 1.350 . S
C467 H454 0.929 . S
C467 C459 1.433 . S
C467 N469 1.384 . S
N468 C464 1.427 . S
N468 C465 1.384 . S
N469 C461 1.427 . S
N469 C467 1.384 . S
H470 C476 0.930 . S
H471 C480 0.930 . S
H472 C485 0.929 . S
H473 C483 0.929 . S
H474 C478 0.929 . S
H475 C484 0.929 . S
C476 H470 0.930 . S
C476 C477 1.367 . S
C476 C484 1.378 . S
C477 C476 1.367 . S
C477 C485 1.433 . S
C478 H474 0.929 . S
C478 C480 1.378 . S
C478 C482 1.350 . S
C479 C482 1.463 . S
C479 C484 1.350 . S
C479 N487 1.427 . S
C480 H471 0.930 . S
C480 C478 1.378 . S
C480 C481 1.367 . S
C481 C480 1.367 . S
C481 C483 1.433 . S
C482 C478 1.350 . S
C482 C479 1.463 . S
C482 N486 1.427 . S
C483 H473 0.929 . S
C483 C481 1.433 . S
C483 N486 1.384 . S
C484 H475 0.929 . S
C484 C476 1.378 . S
C484 C479 1.350 . S
C485 H472 0.929 . S
C485 C477 1.433 . S
C485 N487 1.384 . S
N486 C482 1.427 . S
N486 C483 1.384 . S
N487 C479 1.427 . S
N487 C485 1.384 . S
H488 C494 0.930 . S
H489 C498 0.930 . S
H490 C503 0.929 . S
H491 C501 0.929 . S
H492 C496 0.929 . S
H493 C502 0.929 . S
C494 H488 0.930 . S
C494 C495 1.367 . S
C494 C502 1.378 . S
C495 C494 1.367 . S
C495 C503 1.433 . S
C496 H492 0.929 . S
C496 C498 1.378 . S
C496 C500 1.350 . S
C497 C500 1.463 . S
C497 C502 1.350 . S
C497 N505 1.427 . S
C498 H489 0.930 . S
C498 C496 1.378 . S
C498 C499 1.367 . S
C499 C498 1.367 . S
C499 C501 1.433 . S
C500 C496 1.350 . S
C500 C497 1.463 . S
C500 N504 1.427 . S
C501 H491 0.929 . S
C501 C499 1.433 . S
C501 N504 1.384 . S
C502 H493 0.929 . S
C502 C494 1.378 . S
C502 C497 1.350 . S
C503 H490 0.929 . S
C503 C495 1.433 . S
C503 N505 1.384 . S
N504 C500 1.427 . S
N504 C501 1.384 . S
N505 C497 1.427 . S
N505 C503 1.384 . S
H506 C512 0.930 . S
H507 C516 0.930 . S
H508 C521 0.929 . S
H509 C519 0.929 . S
H510 C514 0.929 . S
H511 C520 0.929 . S
C512 H506 0.930 . S
C512 C513 1.367 . S
C512 C520 1.378 . S
C513 C512 1.367 . S
C513 C521 1.433 . S
C514 H510 0.929 . S
C514 C516 1.378 . S
C514 C518 1.350 . S
C515 C518 1.463 . S
C515 C520 1.350 . S
C515 N523 1.427 . S
C516 H507 0.930 . S
C516 C514 1.378 . S
C516 C517 1.367 . S
C517 C516 1.367 . S
C517 C519 1.433 . S
C518 C514 1.350 . S
C518 C515 1.463 . S
C518 N522 1.427 . S
C519 H509 0.929 . S
C519 C517 1.433 . S
C519 N522 1.384 . S
C520 H511 0.929 . S
C520 C512 1.378 . S
C520 C515 1.350 . S
C521 H508 0.929 . S
C521 C513 1.433 . S
C521 N523 1.384 . S
N522 C518 1.427 . S
N522 C519 1.384 . S
N523 C515 1.427 . S
N523 C521 1.384 . S
H524 C530 0.930 . S
H525 C534 0.930 . S
H526 C539 0.929 . S
H527 C537 0.929 . S
H528 C532 0.929 . S
H529 C538 0.929 . S
C530 H524 0.930 . S
C530 C531 1.367 . S
C530 C538 1.378 . S
C531 C530 1.367 . S
C531 C539 1.433 . S
C532 H528 0.929 . S
C532 C534 1.378 . S
C532 C536 1.350 . S
C533 C536 1.463 . S
C533 C538 1.350 . S
C533 N541 1.427 . S
C534 H525 0.930 . S
C534 C532 1.378 . S
C534 C535 1.367 . S
C535 C534 1.367 . S
C535 C537 1.433 . S
C536 C532 1.350 . S
C536 C533 1.463 . S
C536 N540 1.427 . S
C537 H527 0.929 . S
C537 C535 1.433 . S
C537 N540 1.384 . S
C538 H529 0.929 . S
C538 C530 1.378 . S
C538 C533 1.350 . S
C539 H526 0.929 . S
C539 C531 1.433 . S
C539 N541 1.384 . S
N540 C536 1.427 . S
N540 C537 1.384 . S
N541 C533 1.427 . S
N541 C539 1.384 . S
H542 C548 0.930 . S
H543 C552 0.930 . S
H544 C557 0.929 . S
H545 C555 0.929 . S
H546 C550 0.929 . S
H547 C556 0.929 . S
C548 H542 0.930 . S
C548 C549 1.367 . S
C548 C556 1.378 . S
C549 C548 1.367 . S
C549 C557 1.433 . S
C550 H546 0.929 . S
C550 C552 1.378 . S
C550 C554 1.350 . S
C551 C554 1.463 . S
C551 C556 1.350 . S
C551 N559 1.427 . S
C552 H543 0.930 . S
C552 C550 1.378 . S
C552 C553 1.367 . S
C553 C552 1.367 . S
C553 C555 1.433 . S
C554 C550 1.350 . S
C554 C551 1.463 . S
C554 N558 1.427 . S
C555 H545 0.929 . S
C555 C553 1.433 . S
C555 N558 1.384 . S
C556 H547 0.929 . S
C556 C548 1.378 . S
C556 C551 1.350 . S
C557 H544 0.929 . S
C557 C549 1.433 . S
C557 N559 1.384 . S
N558 C554 1.427 . S
N558 C555 1.384 . S
N559 C551 1.427 . S
N559 C557 1.384 . S
H560 C566 0.930 . S
H561 C570 0.930 . S
H562 C575 0.929 . S
H563 C573 0.929 . S
H564 C568 0.929 . S
H565 C574 0.929 . S
C566 H560 0.930 . S
C566 C567 1.367 . S
C566 C574 1.378 . S
C567 C566 1.367 . S
C567 C575 1.433 . S
C568 H564 0.929 . S
C568 C570 1.378 . S
C568 C572 1.350 . S
C569 C572 1.463 . S
C569 C574 1.350 . S
C569 N577 1.427 . S
C570 H561 0.930 . S
C570 C568 1.378 . S
C570 C571 1.367 . S
C571 C570 1.367 . S
C571 C573 1.433 . S
C572 C568 1.350 . S
C572 C569 1.463 . S
C572 N576 1.427 . S
C573 H563 0.929 . S
C573 C571 1.433 . S
C573 N576 1.384 . S
C574 H565 0.929 . S
C574 C566 1.378 . S
C574 C569 1.350 . S
C575 H562 0.929 . S
C575 C567 1.433 . S
C575 N577 1.384 . S
N576 C572 1.427 . S
N576 C573 1.384 . S
N577 C569 1.427 . S
N577 C575 1.384 . S
H578 C584 0.930 . S
H579 C588 0.930 . S
H580 C593 0.929 . S
H581 C591 0.929 . S
H582 C586 0.929 . S
H583 C592 0.929 . S
C584 H578 0.930 . S
C584 C585 1.367 . S
C584 C592 1.378 . S
C585 C584 1.367 . S
C585 C593 1.433 . S
C586 H582 0.929 . S
C586 C588 1.378 . S
C586 C590 1.350 . S
C587 C590 1.463 . S
C587 C592 1.350 . S
C587 N595 1.427 . S
C588 H579 0.930 . S
C588 C586 1.378 . S
C588 C589 1.367 . S
C589 C588 1.367 . S
C589 C591 1.433 . S
C590 C586 1.350 . S
C590 C587 1.463 . S
C590 N594 1.427 . S
C591 H581 0.929 . S
C591 C589 1.433 . S
C591 N594 1.384 . S
C592 H583 0.929 . S
C592 C584 1.378 . S
C592 C587 1.350 . S
C593 H580 0.929 . S
C593 C585 1.433 . S
C593 N595 1.384 . S
N594 C590 1.427 . S
N594 C591 1.384 . S
N595 C587 1.427 . S
N595 C593 1.384 . S
H596 C602 0.930 . S
H597 C606 0.930 . S
H598 C611 0.929 . S
H599 C609 0.929 . S
H600 C604 0.929 . S
H601 C610 0.929 . S
C602 H596 0.930 . S
C602 C603 1.367 . S
C602 C610 1.378 . S
C603 C602 1.367 . S
C603 C611 1.433 . S
C604 H600 0.929 . S
C604 C606 1.378 . S
C604 C608 1.350 . S
C605 C608 1.463 . S
C605 C610 1.350 . S
C605 N613 1.427 . S
C606 H597 0.930 . S
C606 C604 1.378 . S
C606 C607 1.367 . S
C607 C606 1.367 . S
C607 C609 1.433 . S
C608 C604 1.350 . S
C608 C605 1.463 . S
C608 N612 1.427 . S
C609 H599 0.929 . S
C609 C607 1.433 . S
C609 N612 1.384 . S
C610 H601 0.929 . S
C610 C602 1.378 . S
C610 C605 1.350 . S
C611 H598 0.929 . S
C611 C603 1.433 . S
C611 N613 1.384 . S
N612 C608 1.427 . S
N612 C609 1.384 . S
N613 C605 1.427 . S
N613 C611 1.384 . S
H614 C620 0.930 . S
H615 C624 0.930 . S
H616 C629 0.929 . S
H617 C627 0.929 . S
H618 C622 0.929 . S
H619 C628 0.929 . S
C620 H614 0.930 . S
C620 C621 1.367 . S
C620 C628 1.378 . S
C621 C620 1.367 . S
C621 C629 1.433 . S
C622 H618 0.929 . S
C622 C624 1.378 . S
C622 C626 1.350 . S
C623 C626 1.463 . S
C623 C628 1.350 . S
C623 N631 1.427 . S
C624 H615 0.930 . S
C624 C622 1.378 . S
C624 C625 1.367 . S
C625 C624 1.367 . S
C625 C627 1.433 . S
C626 C622 1.350 . S
C626 C623 1.463 . S
C626 N630 1.427 . S
C627 H617 0.929 . S
C627 C625 1.433 . S
C627 N630 1.384 . S
C628 H619 0.929 . S
C628 C620 1.378 . S
C628 C623 1.350 . S
C629 H616 0.929 . S
C629 C621 1.433 . S
C629 N631 1.384 . S
N630 C626 1.427 . S
N630 C627 1.384 . S
N631 C623 1.427 . S
N631 C629 1.384 . S
C207 C2 1.500 . S
C211 C52 1.496 1_655 S
C225 C11 1.500 . S
C229 C104 1.500 1_565 S
C243 C0 1.500 1_655 S
C247 C53 1.500 . S
C261 C106 1.500 1_565 S
C265 C10 1.496 . S
C279 C1 1.500 1_655 S
C283 C51 1.504 . S
C297 C8 1.500 1_565 S
C301 C107 1.500 . S
C315 C50 1.500 1_655 S
C319 C3 1.500 . S
C333 C105 1.500 1_565 S
C337 C9 1.504 . S
C351 C156 1.500 . S
C355 C6 1.496 1_556 S
C369 C157 1.500 . S
C373 C7 1.499 1_556 S
C387 C154 1.500 1_556 S
C391 C4 1.500 . S
C405 C5 1.500 1_556 S
C409 C155 1.504 . S
C423 C161 1.500 . S
C427 C57 1.504 . S
C441 C55 1.500 . S
C445 C160 1.500 . S
C459 C54 1.500 . S
C463 C158 1.496 . S
C477 C159 1.500 . S
C481 C56 1.500 . S
C495 C110 1.500 . S
C499 C59 1.500 . S
C513 C61 1.500 . S
C517 C108 1.496 . S
C531 C58 1.500 . S
C535 C111 1.504 . S
C549 C109 1.500 . S
C553 C60 1.500 . S
C567 C152 1.500 . S
C571 C101 1.500 . S
C585 C100 1.500 . S
C589 C150 1.504 . S
C603 C151 1.500 . S
C607 C102 1.500 . S
C621 C103 1.500 . S
C625 C153 1.496 . S
